# Generated by pormake.
# Topology myd, (4,6)-cn, num edge types: 1
# Building blocks:
#     Node 0, Type 0, BuildingBlock: KOZSID_clean_sbu_0, # of connection points: 4
#     Node 1, Type 0, BuildingBlock: KOZSID_clean_sbu_0, # of connection points: 4
#     Node 2, Type 0, BuildingBlock: KOZSID_clean_sbu_0, # of connection points: 4
#     Node 3, Type 0, BuildingBlock: KOZSID_clean_sbu_0, # of connection points: 4
#     Node 4, Type 0, BuildingBlock: KOZSID_clean_sbu_0, # of connection points: 4
#     Node 5, Type 0, BuildingBlock: KOZSID_clean_sbu_0, # of connection points: 4
#     Node 6, Type 0, BuildingBlock: KOZSID_clean_sbu_0, # of connection points: 4
#     Node 7, Type 0, BuildingBlock: KOZSID_clean_sbu_0, # of connection points: 4
#     Node 8, Type 0, BuildingBlock: KOZSID_clean_sbu_0, # of connection points: 4
#     Node 9, Type 0, BuildingBlock: KOZSID_clean_sbu_0, # of connection points: 4
#     Node 10, Type 0, BuildingBlock: KOZSID_clean_sbu_0, # of connection points: 4
#     Node 11, Type 0, BuildingBlock: KOZSID_clean_sbu_0, # of connection points: 4
#     Node 12, Type 1, BuildingBlock: FUNLAD_clean_sbu_0, # of connection points: 6
#     Node 13, Type 1, BuildingBlock: FUNLAD_clean_sbu_0, # of connection points: 6
#     Node 14, Type 1, BuildingBlock: FUNLAD_clean_sbu_0, # of connection points: 6
#     Node 15, Type 1, BuildingBlock: FUNLAD_clean_sbu_0, # of connection points: 6
#     Node 16, Type 1, BuildingBlock: FUNLAD_clean_sbu_0, # of connection points: 6
#     Node 17, Type 1, BuildingBlock: FUNLAD_clean_sbu_0, # of connection points: 6
#     Node 18, Type 1, BuildingBlock: FUNLAD_clean_sbu_0, # of connection points: 6
#     Node 19, Type 1, BuildingBlock: FUNLAD_clean_sbu_0, # of connection points: 6
#     Edge 20, Type (0, 1), BuildingBlock: OJICUG_clean_linker_0, # of connection points: 2
#     Edge 21, Type (0, 1), BuildingBlock: OJICUG_clean_linker_0, # of connection points: 2
#     Edge 22, Type (0, 1), BuildingBlock: OJICUG_clean_linker_0, # of connection points: 2
#     Edge 23, Type (0, 1), BuildingBlock: OJICUG_clean_linker_0, # of connection points: 2
#     Edge 24, Type (0, 1), BuildingBlock: OJICUG_clean_linker_0, # of connection points: 2
#     Edge 25, Type (0, 1), BuildingBlock: OJICUG_clean_linker_0, # of connection points: 2
#     Edge 26, Type (0, 1), BuildingBlock: OJICUG_clean_linker_0, # of connection points: 2
#     Edge 27, Type (0, 1), BuildingBlock: OJICUG_clean_linker_0, # of connection points: 2
#     Edge 28, Type (0, 1), BuildingBlock: OJICUG_clean_linker_0, # of connection points: 2
#     Edge 29, Type (0, 1), BuildingBlock: OJICUG_clean_linker_0, # of connection points: 2
#     Edge 30, Type (0, 1), BuildingBlock: OJICUG_clean_linker_0, # of connection points: 2
#     Edge 31, Type (0, 1), BuildingBlock: OJICUG_clean_linker_0, # of connection points: 2
#     Edge 32, Type (0, 1), BuildingBlock: OJICUG_clean_linker_0, # of connection points: 2
#     Edge 33, Type (0, 1), BuildingBlock: OJICUG_clean_linker_0, # of connection points: 2
#     Edge 34, Type (0, 1), BuildingBlock: OJICUG_clean_linker_0, # of connection points: 2
#     Edge 35, Type (0, 1), BuildingBlock: OJICUG_clean_linker_0, # of connection points: 2
#     Edge 36, Type (0, 1), BuildingBlock: OJICUG_clean_linker_0, # of connection points: 2
#     Edge 37, Type (0, 1), BuildingBlock: OJICUG_clean_linker_0, # of connection points: 2
#     Edge 38, Type (0, 1), BuildingBlock: OJICUG_clean_linker_0, # of connection points: 2
#     Edge 39, Type (0, 1), BuildingBlock: OJICUG_clean_linker_0, # of connection points: 2
#     Edge 40, Type (0, 1), BuildingBlock: OJICUG_clean_linker_0, # of connection points: 2
#     Edge 41, Type (0, 1), BuildingBlock: OJICUG_clean_linker_0, # of connection points: 2
#     Edge 42, Type (0, 1), BuildingBlock: OJICUG_clean_linker_0, # of connection points: 2
#     Edge 43, Type (0, 1), BuildingBlock: OJICUG_clean_linker_0, # of connection points: 2
#     Edge 44, Type (0, 1), BuildingBlock: OJICUG_clean_linker_0, # of connection points: 2
#     Edge 45, Type (0, 1), BuildingBlock: OJICUG_clean_linker_0, # of connection points: 2
#     Edge 46, Type (0, 1), BuildingBlock: OJICUG_clean_linker_0, # of connection points: 2
#     Edge 47, Type (0, 1), BuildingBlock: OJICUG_clean_linker_0, # of connection points: 2
#     Edge 48, Type (0, 1), BuildingBlock: OJICUG_clean_linker_0, # of connection points: 2
#     Edge 49, Type (0, 1), BuildingBlock: OJICUG_clean_linker_0, # of connection points: 2
#     Edge 50, Type (0, 1), BuildingBlock: OJICUG_clean_linker_0, # of connection points: 2
#     Edge 51, Type (0, 1), BuildingBlock: OJICUG_clean_linker_0, # of connection points: 2
#     Edge 52, Type (0, 1), BuildingBlock: OJICUG_clean_linker_0, # of connection points: 2
#     Edge 53, Type (0, 1), BuildingBlock: OJICUG_clean_linker_0, # of connection points: 2
#     Edge 54, Type (0, 1), BuildingBlock: OJICUG_clean_linker_0, # of connection points: 2
#     Edge 55, Type (0, 1), BuildingBlock: OJICUG_clean_linker_0, # of connection points: 2
#     Edge 56, Type (0, 1), BuildingBlock: OJICUG_clean_linker_0, # of connection points: 2
#     Edge 57, Type (0, 1), BuildingBlock: OJICUG_clean_linker_0, # of connection points: 2
#     Edge 58, Type (0, 1), BuildingBlock: OJICUG_clean_linker_0, # of connection points: 2
#     Edge 59, Type (0, 1), BuildingBlock: OJICUG_clean_linker_0, # of connection points: 2
#     Edge 60, Type (0, 1), BuildingBlock: OJICUG_clean_linker_0, # of connection points: 2
#     Edge 61, Type (0, 1), BuildingBlock: OJICUG_clean_linker_0, # of connection points: 2
#     Edge 62, Type (0, 1), BuildingBlock: OJICUG_clean_linker_0, # of connection points: 2
#     Edge 63, Type (0, 1), BuildingBlock: OJICUG_clean_linker_0, # of connection points: 2
#     Edge 64, Type (0, 1), BuildingBlock: OJICUG_clean_linker_0, # of connection points: 2
#     Edge 65, Type (0, 1), BuildingBlock: OJICUG_clean_linker_0, # of connection points: 2
#     Edge 66, Type (0, 1), BuildingBlock: OJICUG_clean_linker_0, # of connection points: 2
#     Edge 67, Type (0, 1), BuildingBlock: OJICUG_clean_linker_0, # of connection points: 2
# Relax obj value: 0.270
# Max RMSD: 0.243
# Mean RMSD: 0.156
data_MOF--net-myd--node1-KOZSID_clean_sbu_0--node2-FUNLAD_clean_sbu_0--edge1-OJICUG_clean_linker_0
_symmetry_space_group_name_H-M    P1
_symmetry_Int_Tables_number       1
_symmetry_cell_setting            triclinic
loop_
_symmetry_equiv_pos_as_xyz
'x, y, z'
_cell_length_a     38.680489
_cell_length_b     38.437032
_cell_length_c     43.428394
_cell_angle_alpha  85.46751
_cell_angle_beta   82.547263
_cell_angle_gamma 90.561025
loop_
_atom_site_label
_atom_site_type_symbol
_atom_site_fract_x
_atom_site_fract_y
_atom_site_fract_z
_atom_type_partial_charge
C0 C 0.98847 0.31747 0.39224 0.0
C1 C 0.95464 0.32665 0.40287 0.0
C2 C 0.93294 0.30209 0.39398 0.0
C3 C 0.95453 0.27956 0.37813 0.0
N4 N 0.98874 0.28752 0.37735 0.0
Co5 Co 0.02856 0.26648 0.35125 0.0
N6 N 0.99665 0.23937 0.32887 0.0
C7 C 0.96179 0.2353 0.33669 0.0
C8 C 0.94655 0.21461 0.31774 0.0
C9 C 0.97334 0.20457 0.29681 0.0
C10 C 1.00366 0.21954 0.30434 0.0
N11 N 0.06876 0.248 0.32382 0.0
C12 C 0.0693 0.22824 0.29921 0.0
C13 C 0.1033 0.22107 0.2871 0.0
C14 C 0.12482 0.23712 0.30444 0.0
C15 C 0.10295 0.25311 0.32615 0.0
N16 N 0.06015 0.29302 0.37434 0.0
C17 C 0.09489 0.28935 0.37356 0.0
C18 C 0.10983 0.3132 0.39005 0.0
C19 C 0.08318 0.3339 0.40109 0.0
C20 C 0.05342 0.32155 0.39058 0.0
N21 N 0.0288 0.2241 0.38156 0.0
C22 C 0.02153 0.15212 0.40079 0.0
C23 C 0.05391 0.16692 0.38838 0.0
C24 C 0.05718 0.20283 0.38011 0.0
C25 C 0.99412 0.17479 0.4079 0.0
C26 C 0.99848 0.21063 0.39855 0.0
N27 N 0.02795 0.30677 0.3206 0.0
C28 C 0.05816 0.35175 0.28505 0.0
C29 C 0.02745 0.35947 0.27229 0.0
C30 C 0.99676 0.34143 0.28523 0.0
C31 C 0.99756 0.31548 0.30927 0.0
C32 C 0.05782 0.32543 0.30918 0.0
H33 H 0.97354 0.30195 0.31784 0.0
H34 H 0.08203 0.31987 0.31791 0.0
H35 H 0.08279 0.2123 0.37142 0.0
H36 H 0.97655 0.22653 0.40438 0.0
C37 C 0.94376 0.25446 0.35954 0.0
C38 C 0.01969 0.33874 0.39492 0.0
C39 C 0.03845 0.21414 0.28765 0.0
C40 C 0.11337 0.27104 0.35037 0.0
H41 H 0.94618 0.34953 0.41447 0.0
H42 H 0.90473 0.30222 0.39667 0.0
H43 H 0.91909 0.20837 0.31846 0.0
H44 H 0.97067 0.18829 0.27802 0.0
H45 H 0.1118 0.20516 0.26818 0.0
H46 H 0.15301 0.23654 0.30195 0.0
H47 H 0.13733 0.31729 0.39131 0.0
H48 H 0.08563 0.35664 0.41391 0.0
H49 H 0.07658 0.15072 0.38449 0.0
H50 H 0.969 0.16477 0.41922 0.0
H51 H 0.08244 0.36542 0.27606 0.0
H52 H 0.97239 0.34607 0.27596 0.0
C53 C 0.98623 0.69777 0.1169 0.0
C54 C 0.95413 0.69112 0.10728 0.0
C55 C 0.93019 0.7095 0.12492 0.0
C56 C 0.94887 0.7262 0.1443 0.0
N57 N 0.98342 0.71985 0.14001 0.0
Co58 Co 0.01994 0.73848 0.16368 0.0
N59 N 0.98391 0.76209 0.19174 0.0
C60 C 0.94898 0.76128 0.19157 0.0
C61 C 0.93098 0.77979 0.21392 0.0
C62 C 0.95596 0.79341 0.22919 0.0
C63 C 0.98783 0.78248 0.215 0.0
N64 N 0.05676 0.75756 0.18635 0.0
C65 C 0.05383 0.77945 0.20932 0.0
C66 C 0.08624 0.78852 0.21724 0.0
C67 C 0.11047 0.77158 0.19863 0.0
C68 C 0.09161 0.75347 0.18036 0.0
N69 N 0.05565 0.71376 0.13589 0.0
C70 C 0.09054 0.71372 0.13643 0.0
C71 C 0.1083 0.69389 0.11499 0.0
C72 C 0.08324 0.67987 0.1001 0.0
C73 C 0.05153 0.69197 0.11347 0.0
N74 N 0.02567 0.78227 0.13469 0.0
C75 C 0.03761 0.85328 0.11117 0.0
C76 C 0.06458 0.82914 0.10942 0.0
C77 C 0.05811 0.79415 0.12107 0.0
C78 C 1.00398 0.84027 0.12217 0.0
C79 C 0.99853 0.80485 0.13289 0.0
N80 N 0.01437 0.69636 0.19452 0.0
C81 C 0.03906 0.66016 0.23438 0.0
C82 C 1.00592 0.65079 0.25031 0.0
C83 C 0.97718 0.66227 0.23579 0.0
C84 C 0.98196 0.68437 0.20804 0.0
C85 C 0.04265 0.68241 0.20675 0.0
H86 H 0.95895 0.69267 0.1986 0.0
H87 H 0.06864 0.68908 0.19625 0.0
H88 H 0.08011 0.77758 0.12001 0.0
H89 H 0.97221 0.79664 0.14075 0.0
C90 C 0.93422 0.74501 0.16871 0.0
C91 C 0.01825 0.68094 0.10467 0.0
C92 C 0.02113 0.79284 0.22376 0.0
C93 C 0.10589 0.73275 0.15724 0.0
H94 H 0.94833 0.67405 0.08991 0.0
H95 H 0.90227 0.70963 0.12448 0.0
H96 H 0.90312 0.78358 0.21814 0.0
H97 H 0.95131 0.81 0.24826 0.0
H98 H 0.09189 0.80594 0.23442 0.0
H99 H 0.13851 0.77271 0.19816 0.0
H100 H 0.13613 0.68988 0.11087 0.0
H101 H 0.08768 0.66237 0.08171 0.0
H102 H 0.09104 0.83751 0.10042 0.0
H103 H 0.98189 0.85743 0.1228 0.0
H104 H 0.06241 0.65091 0.24341 0.0
H105 H 0.95082 0.65566 0.24641 0.0
C106 C 0.36906 0.98215 0.2757 0.0
C107 C 0.38279 0.9506 0.28556 0.0
C108 C 0.36968 0.92573 0.26924 0.0
C109 C 0.34897 0.94344 0.25024 0.0
N110 N 0.3487 0.97826 0.25288 0.0
Co111 Co 0.32072 0.01344 0.23061 0.0
N112 N 0.29711 0.97629 0.21017 0.0
C113 C 0.30186 0.94147 0.21407 0.0
C114 C 0.284 0.92253 0.19559 0.0
C115 C 0.26727 0.94667 0.17844 0.0
C116 C 0.27579 0.97914 0.18754 0.0
N117 N 0.29296 0.0487 0.20815 0.0
C118 C 0.272 0.04483 0.18577 0.0
C119 C 0.25871 0.07658 0.17571 0.0
C120 C 0.27266 0.10145 0.19141 0.0
C121 C 0.29336 0.0836 0.21028 0.0
N122 N 0.34414 0.05057 0.25123 0.0
C123 C 0.33932 0.08537 0.24738 0.0
C124 C 0.35617 0.10429 0.26653 0.0
C125 C 0.37217 0.08017 0.28425 0.0
C126 C 0.3644 0.04767 0.27468 0.0
N127 N 0.35812 0.01797 0.19385 0.0
C128 C 0.40143 0.02396 0.13553 0.0
C129 C 0.3908 0.05356 0.15081 0.0
C130 C 0.36935 0.05002 0.17967 0.0
C131 C 0.39182 0.99136 0.15102 0.0
C132 C 0.37087 0.989 0.18 0.0
N133 N 0.28317 1.00872 0.26725 0.0
C134 C 0.24335 0.03447 0.30683 0.0
C135 C 0.23341 1.00162 0.32195 0.0
C136 C 0.24868 0.97246 0.30873 0.0
C137 C 0.27304 0.97654 0.28172 0.0
C138 C 0.26795 0.0374 0.27984 0.0
H139 H 0.28342 0.95314 0.27304 0.0
H140 H 0.27445 0.06318 0.26968 0.0
H141 H 0.36126 0.07361 0.18958 0.0
H142 H 0.36453 0.96333 0.19027 0.0
C143 C 0.32643 0.92778 0.23246 0.0
C144 C 0.37457 0.01468 0.29001 0.0
C145 C 0.26469 1.01198 0.17268 0.0
C146 C 0.31544 0.09907 0.22844 0.0
H147 H 0.39958 0.94591 0.30348 0.0
H148 H 0.3735 0.89785 0.27198 0.0
H149 H 0.28449 0.89462 0.19367 0.0
H150 H 0.25166 0.94104 0.16042 0.0
H151 H 0.24133 0.08146 0.1583 0.0
H152 H 0.26901 0.12935 0.18867 0.0
H153 H 0.35528 0.13216 0.26862 0.0
H154 H 0.38654 0.08607 0.30299 0.0
H155 H 0.39768 0.07947 0.13993 0.0
H156 H 0.40008 0.9676 0.14062 0.0
H157 H 0.2325 0.05803 0.31591 0.0
H158 H 0.24143 0.94632 0.31877 0.0
C159 C 0.65221 0.47145 0.20947 0.0
C160 C 0.63553 0.44065 0.20438 0.0
C161 C 0.65499 0.41398 0.215 0.0
C162 C 0.68224 0.42993 0.22594 0.0
N163 N 0.68102 0.46517 0.22344 0.0
Co164 Co 0.7147 0.49882 0.23685 0.0
N165 N 0.74496 0.45972 0.24989 0.0
C166 C 0.74105 0.42539 0.24609 0.0
C167 C 0.76494 0.40482 0.2591 0.0
C168 C 0.78469 0.42724 0.27272 0.0
C169 C 0.77167 0.46033 0.26704 0.0
N170 N 0.74776 0.53234 0.25128 0.0
C171 C 0.77385 0.52556 0.26861 0.0
C172 C 0.78941 0.55595 0.27596 0.0
C173 C 0.77159 0.58303 0.26364 0.0
C174 C 0.74635 0.56759 0.24953 0.0
N175 N 0.68493 0.53795 0.22302 0.0
C176 C 0.69031 0.5726 0.22452 0.0
C177 C 0.66627 0.59298 0.21145 0.0
C178 C 0.6447 0.57 0.20034 0.0
C179 C 0.6569 0.53693 0.20746 0.0
N180 N 0.68801 0.49549 0.27935 0.0
C181 C 0.65969 0.4923 0.34268 0.0
C182 C 0.66296 0.52401 0.32449 0.0
C183 C 0.67722 0.52504 0.29322 0.0
C184 C 0.66932 0.46194 0.32837 0.0
C185 C 0.68274 0.46404 0.29673 0.0
N186 N 0.74221 0.50234 0.19453 0.0
C187 C 0.78017 0.53659 0.15445 0.0
C188 C 0.79134 0.50665 0.14019 0.0
C189 C 0.775 0.47482 0.15192 0.0
C190 C 0.75044 0.47331 0.17881 0.0
C191 C 0.75567 0.5339 0.18114 0.0
H192 H 0.7393 0.44827 0.187 0.0
H193 H 0.74892 0.55771 0.19099 0.0
H194 H 0.68022 0.55024 0.28108 0.0
H195 H 0.68952 0.44 0.28701 0.0
C196 C 0.71102 0.41278 0.23572 0.0
C197 C 0.64293 0.50564 0.19656 0.0
C198 C 0.78207 0.49094 0.28139 0.0
C199 C 0.71909 0.58511 0.23714 0.0
H200 H 0.61261 0.43766 0.19293 0.0
H201 H 0.65065 0.38632 0.2136 0.0
H202 H 0.76613 0.37661 0.26061 0.0
H203 H 0.80493 0.41961 0.2867 0.0
H204 H 0.81033 0.55813 0.29006 0.0
H205 H 0.77541 0.61055 0.2661 0.0
H206 H 0.66522 0.62118 0.20935 0.0
H207 H 0.6231 0.57667 0.1876 0.0
H208 H 0.65585 0.54821 0.33466 0.0
H209 H 0.66667 0.43672 0.34157 0.0
H210 H 0.79116 0.56203 0.14563 0.0
H211 H 0.78239 0.45087 0.14145 0.0
C212 C 0.34154 0.37693 0.9648 0.0
C213 C 0.35274 0.38846 0.93395 0.0
C214 C 0.32647 0.38029 0.91699 0.0
C215 C 0.30082 0.3638 0.93813 0.0
N216 N 0.30956 0.36106 0.96713 0.0
Co217 Co 0.28176 0.33577 1.00373 0.0
N218 N 0.25623 0.307 0.97773 0.0
C219 C 0.2514 0.31734 0.94828 0.0
C220 C 0.22607 0.29805 0.93775 0.0
C221 C 0.21429 0.27417 0.96213 0.0
C222 C 0.23429 0.27885 0.98603 0.0
N223 N 0.25401 0.31147 0.041 0.0
C224 C 0.2313 0.28384 0.04333 0.0
C225 C 0.20797 0.28435 0.07059 0.0
C226 C 0.21847 0.31079 0.08682 0.0
C227 C 0.24633 0.32644 0.06804 0.0
N228 N 0.30745 0.3644 0.02944 0.0
C229 C 0.29615 0.37188 0.05865 0.0
C230 C 0.3196 0.39222 0.07081 0.0
C231 C 0.34734 0.39781 0.04762 0.0
C232 C 0.33925 0.38042 0.02258 0.0
N233 N 0.24468 0.37094 1.00237 0.0
C234 C 0.19017 0.4175 0.99385 0.0
C235 C 0.18355 0.38187 1.00059 0.0
C236 C 0.21068 0.35942 1.00514 0.0
C237 C 0.22474 0.42988 0.99254 0.0
C238 C 0.25176 0.40604 0.99649 0.0
N239 N 0.31774 0.30054 1.00402 0.0
C240 C 0.35562 0.26239 0.03022 0.0
C241 C 0.37028 0.25107 1.00154 0.0
C242 C 0.35799 0.26474 0.9744 0.0
C243 C 0.33147 0.28888 0.97618 0.0
C244 C 0.32956 0.28766 0.03092 0.0
H245 H 0.32195 0.29802 0.95483 0.0
H246 H 0.31877 0.29666 0.05303 0.0
H247 H 0.20366 0.3324 0.01024 0.0
H248 H 0.27833 0.41581 0.99438 0.0
C249 C 0.27242 0.34414 0.93108 0.0
C250 C 0.36057 0.38237 0.99175 0.0
C251 C 0.22778 0.26067 0.018 0.0
C252 C 0.26639 0.35473 0.07503 0.0
H253 H 0.37739 0.40082 0.92433 0.0
H254 H 0.32707 0.384 0.89196 0.0
H255 H 0.21645 0.30161 0.91542 0.0
H256 H 0.19171 0.25727 0.96269 0.0
H257 H 0.18432 0.2689 0.0774 0.0
H258 H 0.20632 0.31852 0.10905 0.0
H259 H 0.31741 0.40095 0.09406 0.0
H260 H 0.37059 0.41325 0.04885 0.0
H261 H 0.1572 0.37126 1.00274 0.0
H262 H 0.23086 0.4575 0.98794 0.0
H263 H 0.3642 0.25184 0.05176 0.0
H264 H 0.36803 0.2559 0.95193 0.0
C265 C 0.26757 0.66264 0.47529 0.0
C266 C 0.27097 0.64641 0.44767 0.0
C267 C 0.2989 0.66212 0.4291 0.0
C268 C 0.31105 0.68671 0.4465 0.0
N269 N 0.29309 0.68705 0.47527 0.0
Co270 Co 0.30137 0.71899 0.5079 0.0
N271 N 0.33617 0.74814 0.47816 0.0
C272 C 0.3457 0.74339 0.44773 0.0
C273 C 0.3705 0.76693 0.43313 0.0
C274 C 0.37731 0.788 0.45556 0.0
C275 C 0.35607 0.77616 0.48272 0.0
N276 N 0.31084 0.74999 0.54106 0.0
C277 C 0.33366 0.77729 0.54007 0.0
C278 C 0.33226 0.79089 0.56891 0.0
C279 C 0.30856 0.77095 0.58894 0.0
C280 C 0.29667 0.74654 0.57131 0.0
N281 N 0.26502 0.69094 0.53705 0.0
C282 C 0.2549 0.69577 0.56735 0.0
C283 C 0.22625 0.67607 0.58036 0.0
C284 C 0.21676 0.65829 0.55672 0.0
C285 C 0.24057 0.66789 0.53057 0.0
N286 N 0.33976 0.68769 0.52051 0.0
C287 C 0.39637 0.64722 0.53961 0.0
C288 C 0.36631 0.6529 0.5603 0.0
C289 C 0.33881 0.67286 0.55046 0.0
C290 C 0.39683 0.66163 0.50885 0.0
C291 C 0.36869 0.68133 0.49992 0.0
N292 N 0.26307 0.74991 0.49542 0.0
C293 C 0.21285 0.7857 0.50957 0.0
C294 C 0.20377 0.78791 0.47914 0.0
C295 C 0.22618 0.77136 0.45689 0.0
C296 C 0.25551 0.75321 0.4653 0.0
C297 C 0.24187 0.76664 0.51715 0.0
H298 H 0.27149 0.74147 0.44708 0.0
H299 H 0.24646 0.76547 0.54094 0.0
H300 H 0.31714 0.67611 0.56774 0.0
H301 H 0.37133 0.6915 0.47618 0.0
C302 C 0.33414 0.71407 0.43462 0.0
C303 C 0.23784 0.65653 0.49956 0.0
C304 C 0.35714 0.79118 0.51257 0.0
C305 C 0.27074 0.72144 0.58201 0.0
H306 H 0.25386 0.62663 0.44108 0.0
H307 H 0.30766 0.65786 0.40502 0.0
H308 H 0.38322 0.76777 0.40936 0.0
H309 H 0.39659 0.80898 0.45242 0.0
H310 H 0.34676 0.81299 0.57497 0.0
H311 H 0.30067 0.7741 0.61339 0.0
H312 H 0.2127 0.6761 0.60379 0.0
H313 H 0.19401 0.64138 0.55851 0.0
H314 H 0.36371 0.64188 0.58423 0.0
H315 H 0.41924 0.65857 0.49164 0.0
H316 H 0.1978 0.79871 0.52787 0.0
H317 H 0.22103 0.77166 0.43298 0.0
C318 C 0.8157 0.84246 0.46 0.0
C319 C 0.82286 0.85018 0.42799 0.0
C320 C 0.79345 0.84113 0.41539 0.0
C321 C 0.77002 0.82781 0.44012 0.0
N322 N 0.78305 0.82781 0.46729 0.0
Co323 Co 0.75943 0.80674 0.50783 0.0
N324 N 0.72762 0.77682 0.48829 0.0
C325 C 0.71867 0.785 0.45969 0.0
C326 C 0.69014 0.76633 0.4541 0.0
C327 C 0.68055 0.74517 0.48088 0.0
C328 C 0.70484 0.75062 0.50116 0.0
N329 N 0.73639 0.78629 0.54903 0.0
C330 C 0.71213 0.7599 0.55627 0.0
C331 C 0.69323 0.76396 0.58531 0.0
C332 C 0.70813 0.79118 0.59758 0.0
C333 C 0.73397 0.80385 0.57489 0.0
N334 N 0.79069 0.83696 0.52728 0.0
C335 C 0.78395 0.84759 0.5561 0.0
C336 C 0.80956 0.86936 0.5633 0.0
C337 C 0.83393 0.87261 0.53722 0.0
C338 C 0.82186 0.85238 0.51556 0.0
N339 N 0.72343 0.84352 0.50817 0.0
C340 C 0.66912 0.89062 0.49887 0.0
C341 C 0.66197 0.85649 0.51169 0.0
C342 C 0.68905 0.83384 0.51647 0.0
C343 C 0.70438 0.90149 0.49231 0.0
C344 C 0.73115 0.87744 0.49688 0.0
N345 N 0.79438 0.76996 0.50587 0.0
C346 C 0.84079 0.73658 0.52538 0.0
C347 C 0.84649 0.71985 0.49757 0.0
C348 C 0.82578 0.72889 0.47429 0.0
C349 C 0.8002 0.75373 0.47882 0.0
C350 C 0.81432 0.76159 0.52916 0.0
H351 H 0.78531 0.76003 0.45995 0.0
H352 H 0.80999 0.77421 0.55066 0.0
H353 H 0.68151 0.80788 0.52576 0.0
H354 H 0.75801 0.88595 0.49044 0.0
C355 C 0.73903 0.80899 0.43842 0.0
C356 C 0.83901 0.85086 0.48333 0.0
C357 C 0.7022 0.73507 0.53412 0.0
C358 C 0.75619 0.83242 0.57679 0.0
H359 H 0.8468 0.86061 0.41479 0.0
H360 H 0.79039 0.84225 0.39092 0.0
H361 H 0.67713 0.76858 0.43344 0.0
H362 H 0.65676 0.72961 0.48539 0.0
H363 H 0.66928 0.75077 0.59579 0.0
H364 H 0.69982 0.80165 0.6197 0.0
H365 H 0.81092 0.8807 0.58516 0.0
H366 H 0.85758 0.88846 0.53436 0.0
H367 H 0.63529 0.84709 0.51802 0.0
H368 H 0.7112 0.92794 0.48285 0.0
H369 H 0.85604 0.72989 0.54415 0.0
H370 H 0.82923 0.71657 0.45252 0.0
C371 C 0.49194 0.84254 0.90498 0.0
C372 C 0.45969 0.85365 0.91798 0.0
C373 C 0.4354 0.83059 0.91076 0.0
C374 C 0.4541 0.8066 0.89402 0.0
N375 N 0.48893 0.81239 0.89105 0.0
Co376 Co 0.52572 0.78582 0.86655 0.0
N377 N 0.49024 0.75965 0.84682 0.0
C378 C 0.45519 0.7625 0.85255 0.0
C379 C 0.43737 0.74245 0.83488 0.0
C380 C 0.4625 0.72579 0.81677 0.0
C381 C 0.49442 0.73633 0.82467 0.0
N382 N 0.56273 0.75904 0.84238 0.0
C383 C 0.56022 0.73466 0.82168 0.0
C384 C 0.59257 0.72084 0.81222 0.0
C385 C 0.61626 0.73731 0.82706 0.0
C386 C 0.59719 0.75995 0.84494 0.0
N387 N 0.56102 0.81337 0.8853 0.0
C388 C 0.59588 0.80889 0.88178 0.0
C389 C 0.61402 0.83477 0.89309 0.0
C390 C 0.58944 0.85783 0.90355 0.0
C391 C 0.55742 0.84446 0.89837 0.0
N392 N 0.52315 0.74777 0.90097 0.0
C393 C 0.52407 0.67904 0.9282 0.0
C394 C 0.55398 0.70044 0.92463 0.0
C395 C 0.55278 0.73481 0.91148 0.0
C396 C 0.49277 0.69426 0.92247 0.0
C397 C 0.49278 0.72883 0.90991 0.0
N398 N 0.52822 0.82235 0.83205 0.0
C399 C 0.56137 0.85695 0.7894 0.0
C400 C 0.53061 0.86956 0.77932 0.0
C401 C 0.49885 0.85949 0.79707 0.0
C402 C 0.49828 0.83622 0.82323 0.0
C403 C 0.55958 0.83345 0.81576 0.0
H404 H 0.47324 0.82895 0.83548 0.0
H405 H 0.58371 0.82389 0.82225 0.0
H406 H 0.5765 0.74965 0.90867 0.0
H407 H 0.46808 0.73884 0.90617 0.0
C408 C 0.43986 0.78392 0.87504 0.0
C409 C 0.52439 0.86293 0.90414 0.0
C410 C 0.52793 0.72329 0.81071 0.0
C411 C 0.61105 0.78359 0.86317 0.0
H412 H 0.45423 0.87708 0.92988 0.0
H413 H 0.40733 0.8328 0.91494 0.0
H414 H 0.40942 0.74022 0.83511 0.0
H415 H 0.45775 0.70785 0.79974 0.0
H416 H 0.59852 0.70075 0.79635 0.0
H417 H 0.6441 0.73335 0.82494 0.0
H418 H 0.64204 0.83792 0.8917 0.0
H419 H 0.59503 0.88246 0.9124 0.0
H420 H 0.57865 0.69016 0.93007 0.0
H421 H 0.46855 0.6792 0.92663 0.0
H422 H 0.58661 0.86448 0.77663 0.0
H423 H 0.47423 0.86808 0.79008 0.0
C424 C 0.5556 0.30712 0.65612 0.0
C425 C 0.58881 0.31805 0.64269 0.0
C426 C 0.61029 0.29 0.64647 0.0
C427 C 0.58914 0.26348 0.66201 0.0
N428 N 0.55593 0.2733 0.66798 0.0
Co429 Co 0.51767 0.24439 0.69206 0.0
N430 N 0.55007 0.2151 0.71412 0.0
C431 C 0.58333 0.20998 0.70217 0.0
C432 C 0.59817 0.18309 0.71811 0.0
C433 C 0.57257 0.17065 0.74145 0.0
C434 C 0.54366 0.19164 0.73954 0.0
N435 N 0.47895 0.21569 0.71578 0.0
C436 C 0.47897 0.19137 0.74041 0.0
C437 C 0.44933 0.16998 0.74261 0.0
C438 C 0.42929 0.18329 0.72068 0.0
C439 C 0.44827 0.211 0.70502 0.0
N440 N 0.48597 0.27443 0.67009 0.0
C441 C 0.45342 0.26556 0.66589 0.0
C442 C 0.43697 0.29279 0.65159 0.0
C443 C 0.46089 0.32027 0.64675 0.0
C444 C 0.49067 0.30834 0.65845 0.0
N445 N 0.52029 0.21145 0.6592 0.0
C446 C 0.51467 0.16218 0.61538 0.0
C447 C 0.51748 0.19805 0.60599 0.0
C448 C 0.5204 0.22234 0.62834 0.0
C449 C 0.51713 0.15174 0.64657 0.0
C450 C 0.51962 0.17643 0.66787 0.0
N451 N 0.51458 0.27635 0.72419 0.0
C452 C 0.48112 0.32099 0.7485 0.0
C453 C 0.51198 0.33745 0.75365 0.0
C454 C 0.54375 0.3207 0.74696 0.0
C455 C 0.54445 0.28986 0.7324 0.0
C456 C 0.48299 0.28998 0.73408 0.0
H457 H 0.56934 0.27838 0.72559 0.0
H458 H 0.45918 0.27863 0.72852 0.0
H459 H 0.52152 0.24988 0.62092 0.0
H460 H 0.51957 0.16675 0.69173 0.0
C461 C 0.60012 0.23279 0.67756 0.0
C462 C 0.52386 0.32852 0.65663 0.0
C463 C 0.50892 0.18521 0.75869 0.0
C464 C 0.43772 0.23466 0.68154 0.0
H465 H 0.59682 0.34364 0.63179 0.0
H466 H 0.63831 0.2898 0.64038 0.0
H467 H 0.62423 0.17323 0.71308 0.0
H468 H 0.57462 0.14744 0.7568 0.0
H469 H 0.44345 0.14592 0.75706 0.0
H470 H 0.40428 0.17335 0.71625 0.0
H471 H 0.41021 0.29333 0.64678 0.0
H472 H 0.45687 0.34606 0.63607 0.0
H473 H 0.51599 0.20729 0.582 0.0
H474 H 0.51597 0.12436 0.65486 0.0
H475 H 0.456 0.33276 0.75411 0.0
H476 H 0.56799 0.33183 0.75211 0.0
C477 C 0.8838 0.48475 0.77395 0.0
C478 C 0.89733 0.45368 0.78516 0.0
C479 C 0.88123 0.4275 0.77251 0.0
C480 C 0.85879 0.44394 0.7544 0.0
N481 N 0.86012 0.47912 0.75422 0.0
Co482 Co 0.82992 0.51305 0.73305 0.0
N483 N 0.80074 0.47445 0.72033 0.0
C484 C 0.80457 0.43978 0.7267 0.0
C485 C 0.78118 0.4195 0.71456 0.0
C486 C 0.76134 0.44256 0.69932 0.0
C487 C 0.77384 0.47573 0.70304 0.0
N488 N 0.8003 0.54714 0.71139 0.0
C489 C 0.77407 0.5416 0.69425 0.0
C490 C 0.76147 0.57283 0.68222 0.0
C491 C 0.78079 0.59894 0.69157 0.0
C492 C 0.80393 0.58233 0.70877 0.0
N493 N 0.85844 0.55162 0.74658 0.0
C494 C 0.85521 0.58631 0.73995 0.0
C495 C 0.8767 0.60649 0.7543 0.0
C496 C 0.89404 0.58335 0.77189 0.0
C497 C 0.88197 0.55032 0.76724 0.0
N498 N 0.86194 0.51203 0.69289 0.0
C499 C 0.89827 0.51121 0.63181 0.0
C500 C 0.89327 0.54239 0.64619 0.0
C501 C 0.87516 0.54223 0.67638 0.0
C502 C 0.88639 0.4803 0.64918 0.0
C503 C 0.86902 0.48124 0.6795 0.0
N504 N 0.79782 0.51393 0.77285 0.0
C505 C 0.76244 0.54566 0.81111 0.0
C506 C 0.75278 0.51482 0.82985 0.0
C507 C 0.76663 0.48364 0.81953 0.0
C508 C 0.78879 0.48378 0.79132 0.0
C509 C 0.78472 0.54464 0.783 0.0
H510 H 0.79813 0.45907 0.78478 0.0
H511 H 0.79097 0.56899 0.76975 0.0
H512 H 0.8715 0.56702 0.68546 0.0
H513 H 0.86099 0.45666 0.69132 0.0
C514 C 0.83222 0.42713 0.7419 0.0
C515 C 0.89196 0.51872 0.78451 0.0
C516 C 0.76035 0.50746 0.68847 0.0
C517 C 0.82961 0.59905 0.72238 0.0
H518 H 0.91575 0.45011 0.80181 0.0
H519 H 0.8839 0.3997 0.77757 0.0
H520 H 0.77946 0.39129 0.7158 0.0
H521 H 0.74061 0.43572 0.68626 0.0
H522 H 0.74068 0.5764 0.6679 0.0
H523 H 0.7785 0.62674 0.68616 0.0
H524 H 0.87841 0.6347 0.7532 0.0
H525 H 0.91254 0.58998 0.78729 0.0
H526 H 0.90212 0.56708 0.63378 0.0
H527 H 0.89035 0.45537 0.63936 0.0
H528 H 0.75278 0.57061 0.818 0.0
H529 H 0.75959 0.45889 0.83264 0.0
C530 C 0.18194 0.0544 0.77397 0.0
C531 C 0.16992 0.08661 0.78253 0.0
C532 C 0.17763 0.10982 0.75675 0.0
C533 C 0.19363 0.09054 0.73384 0.0
N534 N 0.19635 0.05674 0.74369 0.0
Co535 Co 0.21684 0.0199 0.71802 0.0
N536 N 0.24329 0.05461 0.68716 0.0
C537 C 0.23654 0.08889 0.68373 0.0
C538 C 0.25885 0.10653 0.66037 0.0
C539 C 0.28066 0.08171 0.64808 0.0
C540 C 0.27027 0.05013 0.66456 0.0
N541 N 0.23683 0.98285 0.69218 0.0
C542 C 0.26386 0.98434 0.66885 0.0
C543 C 0.2678 0.95246 0.65595 0.0
C544 C 0.24221 0.93045 0.67173 0.0
C545 C 0.22404 0.95003 0.69325 0.0
N546 N 0.19048 0.9854 0.74911 0.0
C547 C 0.18343 0.95197 0.74459 0.0
C548 C 0.1681 0.93344 0.77123 0.0
C549 C 0.16522 0.95667 0.7938 0.0
C550 C 0.17835 0.98859 0.77956 0.0
N551 N 0.17742 0.02286 0.69441 0.0
C552 C 0.1214 0.02247 0.66038 0.0
C553 C 0.11551 0.0214 0.69283 0.0
C554 C 0.14402 0.02229 0.70946 0.0
C555 C 0.15556 0.02479 0.64522 0.0
C556 C 0.18317 0.02455 0.66263 0.0
N557 N 0.25574 0.01692 0.74196 0.0
C558 C 0.28279 0.98329 0.78073 0.0
C559 C 0.2926 0.01417 0.79252 0.0
C560 C 0.28795 0.04612 0.77592 0.0
C561 C 0.26959 0.04691 0.75047 0.0
C562 C 0.26457 0.98527 0.75502 0.0
H563 H 0.26388 0.07196 0.73955 0.0
H564 H 0.25486 0.96135 0.74762 0.0
H565 H 0.13905 0.0215 0.73453 0.0
H566 H 0.20917 0.02466 0.65031 0.0
C567 C 0.21229 0.10399 0.70544 0.0
C568 C 0.17795 0.02187 0.7946 0.0
C569 C 0.28425 0.01605 0.65656 0.0
C570 C 0.19868 0.93732 0.71766 0.0
H571 H 0.15711 0.09272 0.80507 0.0
H572 H 0.17353 0.13768 0.75539 0.0
H573 H 0.25976 0.13426 0.65355 0.0
H574 H 0.3014 0.08631 0.62889 0.0
H575 H 0.28682 0.94597 0.63682 0.0
H576 H 0.23799 0.90318 0.66844 0.0
H577 H 0.16203 0.90574 0.77447 0.0
H578 H 0.15544 0.95007 0.81799 0.0
H579 H 0.08927 0.01916 0.70514 0.0
H580 H 0.16092 0.02485 0.62009 0.0
H581 H 0.28663 0.95806 0.79263 0.0
H582 H 0.29646 0.07048 0.78375 0.0
C583 C 0.78642 0.17859 0.95773 0.0
C584 C 0.7859 0.16595 0.92875 0.0
C585 C 0.80983 0.18546 0.90849 0.0
C586 C 0.82348 0.2087 0.92628 0.0
N587 N 0.81062 0.20448 0.9568 0.0
Co588 Co 0.82076 0.23443 0.99033 0.0
N589 N 0.85284 0.26597 0.9602 0.0
C590 C 0.86234 0.26182 0.92965 0.0
C591 C 0.8877 0.285 0.9155 0.0
C592 C 0.89538 0.30483 0.93849 0.0
C593 C 0.87381 0.29284 0.96543 0.0
N594 N 0.82919 0.26546 0.02367 0.0
C595 C 0.85015 0.29411 0.02245 0.0
C596 C 0.84681 0.30891 0.05084 0.0
C597 C 0.82396 0.28808 0.07096 0.0
C598 C 0.81427 0.26219 0.0537 0.0
N599 N 0.79028 0.20175 0.0208 0.0
C600 C 0.7848 0.20284 0.05208 0.0
C601 C 0.7614 0.17797 0.06674 0.0
C602 C 0.75074 0.16046 0.04341 0.0
C603 C 0.76846 0.17562 0.01565 0.0
N604 N 0.86223 0.20575 0.99874 0.0
C605 C 0.9226 0.1674 0.01089 0.0
C606 C 0.90213 0.18394 0.03431 0.0
C607 C 0.87237 0.20229 0.02795 0.0
C608 C 0.91193 0.17058 0.98114 0.0
C609 C 0.8822 0.18975 0.97562 0.0
N610 N 0.77933 0.26305 0.98197 0.0
C611 C 0.72183 0.2843 0.99972 0.0
C612 C 0.71933 0.30266 0.97086 0.0
C613 C 0.74761 0.2999 0.94737 0.0
C614 C 0.77687 0.27995 0.95328 0.0
C615 C 0.7517 0.26553 1.00486 0.0
H616 H 0.79735 0.27867 0.9343 0.0
H617 H 0.75173 0.25315 0.0277 0.0
H618 H 0.8582 0.21371 0.04717 0.0
H619 H 0.87602 0.19126 0.95232 0.0
C620 C 0.84759 0.23535 0.91509 0.0
C621 C 0.76133 0.16734 0.98479 0.0
C622 C 0.87503 0.30693 0.99563 0.0
C623 C 0.79531 0.23205 0.06588 0.0
H624 H 0.76898 0.14562 0.92277 0.0
H625 H 0.81571 0.18369 0.88362 0.0
H626 H 0.89985 0.28667 0.89152 0.0
H627 H 0.91526 0.32522 0.93575 0.0
H628 H 0.8603 0.33175 0.05675 0.0
H629 H 0.8165 0.29067 0.09557 0.0
H630 H 0.75105 0.17487 0.09122 0.0
H631 H 0.73073 0.14027 0.04674 0.0
H632 H 0.90911 0.18337 0.05768 0.0
H633 H 0.92618 0.15811 0.96205 0.0
H634 H 0.70075 0.28413 0.01872 0.0
H635 H 0.74767 0.31354 0.9246 0.0
C636 C 0.16583 0.0376 0.08644 0.0
N637 N 0.13347 0.04351 0.99342 0.0
C638 C 0.16716 0.04584 0.97954 0.0
C639 C 0.17552 0.04011 0.94786 0.0
C640 C 0.14896 0.03259 0.92976 0.0
C641 C 0.11454 0.02955 0.94519 0.0
C642 C 0.10749 0.03467 0.97695 0.0
Zn643 Zn 0.11884 0.05892 0.03838 0.0
C644 C 0.07428 1.00132 0.07861 0.0
N645 N 0.08358 0.09291 0.12969 0.0
C646 C 0.10864 0.11104 0.14144 0.0
C647 C 0.05015 0.09096 0.14432 0.0
C648 C 0.04078 0.10864 0.17121 0.0
C649 C 0.06591 0.129 0.18268 0.0
C650 C 0.1003 0.12953 0.16773 0.0
Zn651 Zn 0.09806 0.07418 0.08632 0.0
O652 O 0.16541 0.03663 0.05705 0.0
C653 C 0.14714 0.12882 0.04549 0.0
O654 O 0.14104 0.05173 0.10259 0.0
H655 H 0.03049 0.0767 0.13457 0.0
H656 H 0.18756 0.05306 0.99279 0.0
H657 H 0.13512 0.11226 0.12978 0.0
O658 O 0.14684 0.10658 0.02543 0.0
O659 O 0.12867 0.12262 0.07199 0.0
H660 H 0.08083 0.03277 0.98816 0.0
O661 O 0.05357 0.09642 0.07038 0.0
O662 O 0.07131 0.08292 0.02289 0.0
O663 O 0.07024 0.02405 0.09877 0.0
O664 O 0.09179 1.00996 0.05209 0.0
C665 C 0.04849 0.09651 0.0421 0.0
H666 H 0.2026 0.042 0.93774 0.0
H667 H 0.09273 0.0245 0.93284 0.0
H668 H 0.01394 0.10762 0.18213 0.0
H669 H 0.12051 0.14455 0.17607 0.0
C670 C 0.91878 0.4994 0.05702 0.0
N671 N 0.96645 0.5171 0.96293 0.0
C672 C 0.93337 0.50743 0.95907 0.0
C673 C 0.9218 0.5113 0.92994 0.0
C674 C 0.94435 0.52488 0.90379 0.0
C675 C 0.97834 0.53517 0.90819 0.0
C676 C 0.9889 0.5311 0.93813 0.0
Zn677 Zn 0.98064 0.50056 0.00656 0.0
C678 C 1.00496 0.55299 0.04465 0.0
N679 N 1.00228 0.4553 0.09473 0.0
C680 C 0.97814 0.43425 0.11302 0.0
C681 C 0.03263 0.46472 0.10488 0.0
C682 C 0.03958 0.45287 0.13464 0.0
C683 C 0.01471 0.43178 0.15412 0.0
C684 C 0.98375 0.42235 0.14303 0.0
Zn685 Zn 0.99115 0.47458 0.05228 0.0
O686 O 0.9279 0.51022 0.02865 0.0
C687 C 0.96333 0.42281 0.01594 0.0
O688 O 0.94044 0.48354 0.07218 0.0
H689 H 0.05133 0.48171 0.09002 0.0
H690 H 0.9161 0.49474 0.97826 0.0
H691 H 0.95431 0.42693 0.10444 0.0
O692 O 0.96421 0.4503 0.99767 0.0
O693 O 0.97514 0.42399 0.04183 0.0
H694 H 0.01535 0.5379 0.94124 0.0
O695 O 0.04236 0.46637 0.03319 0.0
O696 O 0.03484 0.48997 0.98681 0.0
O697 O 1.00548 0.52494 0.06219 0.0
O698 O 0.99614 0.55168 0.0174 0.0
C699 C 0.05475 0.4756 1.00527 0.0
H700 H 0.89575 0.50206 0.92777 0.0
H701 H 0.99671 0.54578 0.88868 0.0
H702 H 0.06377 0.46054 0.14254 0.0
H703 H 0.96427 0.4056 0.15733 0.0
C704 C 0.02185 1.00184 0.42313 0.0
N705 N 0.04513 0.91674 0.37044 0.0
C706 C 0.01464 0.92058 0.35818 0.0
C707 C 0.01002 0.90479 0.33123 0.0
C708 C 0.03704 0.88498 0.31744 0.0
C709 C 0.06906 0.88371 0.32916 0.0
C710 C 0.07262 0.90002 0.35592 0.0
Zn711 Zn 0.04855 0.93104 0.41304 0.0
C712 C 0.11539 0.96757 0.41373 0.0
N713 N 0.05474 0.95762 0.50412 0.0
C714 C 0.02687 0.97379 0.5189 0.0
C715 C 0.08403 0.95145 0.51771 0.0
C716 C 0.08616 0.96193 0.54734 0.0
C717 C 0.05811 0.97929 0.56268 0.0
C718 C 0.02818 0.98534 0.54837 0.0
Zn719 Zn 0.05243 0.943 0.46082 0.0
O720 O 0.02501 0.98053 0.40197 0.0
C721 C 0.98335 0.90608 0.45632 0.0
O722 O 0.02994 0.9919 0.44974 0.0
H723 H 0.10589 0.93879 0.50541 0.0
H724 H 0.99328 0.93415 0.37027 0.0
H725 H 1.00378 0.9782 0.50764 0.0
O726 O 0.99801 0.90715 0.42838 0.0
O727 O 0.99994 0.91882 0.47654 0.0
H728 H 0.09669 0.8977 0.36602 0.0
O729 O 0.07678 0.89538 0.47252 0.0
O730 O 0.07676 0.88251 0.42442 0.0
O731 O 0.10519 0.96673 0.44304 0.0
O732 O 0.09597 0.95449 0.39632 0.0
C733 C 0.08634 0.87544 0.45125 0.0
H734 H 0.98498 0.90596 0.32257 0.0
H735 H 0.09039 0.8687 0.31867 0.0
H736 H 0.10982 0.95746 0.55784 0.0
H737 H 1.00635 0.99903 0.5597 0.0
C738 C 0.93768 0.60888 0.45726 0.0
N739 N 0.04335 0.57633 0.4528 0.0
C740 C 0.05117 0.6111 0.44828 0.0
C741 C 0.08263 0.62426 0.45572 0.0
C742 C 0.10714 0.60147 0.46722 0.0
C743 C 0.09851 0.56553 0.47105 0.0
C744 C 0.06631 0.55359 0.46406 0.0
Zn745 Zn 0.99554 0.55856 0.44294 0.0
C746 C 0.95325 0.52225 0.50027 0.0
N747 N 0.89766 0.52133 0.4228 0.0
C748 C 0.87849 0.54569 0.40853 0.0
C749 C 0.88902 0.48672 0.42463 0.0
C750 C 0.86257 0.47524 0.40864 0.0
C751 C 0.84441 0.49986 0.39177 0.0
C752 C 0.8512 0.53545 0.39323 0.0
Zn753 Zn 0.9445 0.53757 0.43351 0.0
O754 O 0.97064 0.60745 0.4571 0.0
C755 C 0.98522 0.57763 0.37604 0.0
O756 O 0.92207 0.58376 0.4474 0.0
H757 H 0.90439 0.46779 0.4363 0.0
H758 H 0.03286 0.62889 0.4391 0.0
H759 H 0.88611 0.57296 0.40658 0.0
O760 O 1.00732 0.58087 0.39507 0.0
O761 O 0.95706 0.56041 0.38572 0.0
H762 H 0.05973 0.52604 0.46769 0.0
O763 O 0.96626 0.48999 0.42098 0.0
O764 O 0.01797 0.50732 0.42971 0.0
O765 O 0.93226 0.51651 0.48082 0.0
O766 O 0.9823 0.53784 0.49046 0.0
C767 C 0.99813 0.48357 0.42191 0.0
H768 H 0.08722 0.65221 0.45284 0.0
H769 H 0.11643 0.54654 0.47915 0.0
H770 H 0.85801 0.44753 0.40761 0.0
H771 H 0.83806 0.55502 0.37988 0.0
C772 C 0.40763 0.99185 0.56923 0.0
N773 N 0.44818 1.0052 0.47085 0.0
C774 C 0.41341 1.00368 0.46852 0.0
C775 C 0.40127 1.00757 0.43945 0.0
C776 C 0.42494 1.01201 0.41186 0.0
C777 C 0.46069 0.01463 0.41503 0.0
C778 C 0.4717 1.01142 0.44471 0.0
Zn779 Zn 0.46436 0.9889 0.514 0.0
C780 C 0.49442 0.04198 0.54763 0.0
N781 N 0.49371 0.94582 0.59956 0.0
C782 C 0.47084 0.92638 0.62064 0.0
C783 C 0.52558 0.95572 0.60639 0.0
C784 C 0.53545 0.94618 0.63555 0.0
C785 C 0.5119 0.92709 0.65785 0.0
C786 C 0.47936 0.91694 0.65028 0.0
Zn787 Zn 0.47913 0.96337 0.55816 0.0
O788 O 0.41357 1.00302 0.54045 0.0
C789 C 0.44452 0.91126 0.52663 0.0
O790 O 0.43053 0.97371 0.58082 0.0
H791 H 0.54316 0.97158 0.5894 0.0
H792 H 0.39477 0.99792 0.48908 0.0
H793 H 0.44572 0.91874 0.61466 0.0
O794 O 0.44301 0.93877 0.50862 0.0
O795 O 0.46079 0.91248 0.55021 0.0
H796 H 0.49927 0.01235 0.44656 0.0
O797 O 0.52868 0.95298 0.53698 0.0
O798 O 0.51696 0.97345 0.49105 0.0
O799 O 0.49503 0.01448 0.56586 0.0
O800 O 0.48443 0.0399 0.52096 0.0
C801 C 0.53845 0.95946 0.50822 0.0
H802 H 0.37342 1.00633 0.43883 0.0
H803 H 0.48034 0.01766 0.39484 0.0
H804 H 0.56076 0.95429 0.64089 0.0
H805 H 0.46084 0.90181 0.66711 0.0
C806 C 0.63883 0.52157 0.62481 0.0
N807 N 0.60206 0.51769 0.53599 0.0
C808 C 0.63587 0.52101 0.52256 0.0
C809 C 0.64532 0.51247 0.49194 0.0
C810 C 0.61966 0.50085 0.47482 0.0
C811 C 0.58521 0.49654 0.48959 0.0
C812 C 0.57698 0.50494 0.52039 0.0
Zn813 Zn 0.58774 0.5368 0.57859 0.0
C814 C 0.54706 0.47981 0.62321 0.0
N815 N 0.55753 0.57897 0.66748 0.0
C816 C 0.5843 0.59697 0.67691 0.0
C817 C 0.52445 0.58103 0.68249 0.0
C818 C 0.51735 0.60266 0.70721 0.0
C819 C 0.54441 0.62285 0.71613 0.0
C820 C 0.5783 0.61909 0.70099 0.0
Zn821 Zn 0.57006 0.55567 0.62551 0.0
O822 O 0.63592 0.51845 0.59615 0.0
C823 C 0.61646 0.60829 0.57895 0.0
O824 O 0.61451 0.53554 0.64167 0.0
H825 H 0.50332 0.56706 0.67453 0.0
H826 H 0.65535 0.53156 0.53518 0.0
H827 H 0.61042 0.59546 0.66482 0.0
O828 O 0.61398 0.58419 0.56103 0.0
O829 O 0.60037 0.60419 0.60668 0.0
H830 H 0.55029 0.50235 0.53149 0.0
O831 O 0.52406 0.57659 0.60891 0.0
O832 O 0.53908 0.55747 0.56297 0.0
O833 O 0.54329 0.50393 0.64227 0.0
O834 O 0.56281 0.48779 0.5959 0.0
C835 C 0.51755 0.57389 0.5812 0.0
H836 H 0.67211 0.51651 0.4813 0.0
H837 H 0.56473 0.48737 0.47726 0.0
H838 H 0.49078 0.60481 0.71822 0.0
H839 H 0.60004 0.63372 0.70733 0.0
C840 C 0.54455 0.53066 0.94783 0.0
N841 N 0.55521 0.45564 0.88459 0.0
C842 C 0.52313 0.46562 0.87805 0.0
C843 C 0.51286 0.46023 0.84934 0.0
C844 C 0.53571 0.44395 0.82755 0.0
C845 C 0.56968 0.43646 0.83397 0.0
C846 C 0.57894 0.44252 0.86296 0.0
Zn847 Zn 0.56645 0.46083 0.92754 0.0
C848 C 0.63583 0.49318 0.9245 0.0
N849 N 0.58723 0.47555 0.01801 0.0
C850 C 0.56285 0.49108 0.03756 0.0
C851 C 0.61895 0.46713 0.02633 0.0
C852 C 0.62735 0.47472 0.05531 0.0
C853 C 0.60298 0.49143 0.07576 0.0
C854 C 0.57026 0.4994 0.06669 0.0
Zn855 Zn 0.57701 0.46753 0.97468 0.0
O856 O 0.54204 0.51113 0.92593 0.0
C857 C 0.5051 0.43483 0.97354 0.0
O858 O 0.55832 0.51862 0.97119 0.0
H859 H 0.63789 0.45482 0.01035 0.0
H860 H 0.50479 0.47628 0.89561 0.0
H861 H 0.53784 0.49762 0.03032 0.0
O862 O 0.51795 0.4362 0.94514 0.0
O863 O 0.52351 0.44646 0.99307 0.0
H864 H 0.60442 0.43529 0.86871 0.0
O865 O 0.59764 0.41771 0.9789 0.0
O866 O 0.59489 0.41049 0.92982 0.0
O867 O 0.62988 0.48776 0.95414 0.0
O868 O 0.61248 0.48533 0.90837 0.0
C869 C 0.60549 0.40001 0.95566 0.0
H870 H 0.48649 0.46626 0.84511 0.0
H871 H 0.58789 0.4233 0.81792 0.0
H872 H 0.65261 0.46739 0.06166 0.0
H873 H 0.55083 0.51247 0.08167 0.0
C874 C 0.45284 0.13449 0.96796 0.0
N875 N 0.55593 0.09725 0.95747 0.0
C876 C 0.5648 0.1318 0.95393 0.0
C877 C 0.59781 0.14316 0.95892 0.0
C878 C 0.62303 0.11878 0.96629 0.0
C879 C 0.61319 0.08313 0.96937 0.0
C880 C 0.57932 0.073 0.9654 0.0
Zn881 Zn 0.50682 0.08238 0.94931 0.0
C882 C 0.46518 0.04456 0.00632 0.0
N883 N 0.4071 0.05159 0.93233 0.0
C884 C 0.38831 0.07617 0.91811 0.0
C885 C 0.39729 0.01727 0.9356 0.0
C886 C 0.36972 1.00599 0.92097 0.0
C887 C 0.35232 0.03049 0.90322 0.0
C888 C 0.36053 0.06615 0.90341 0.0
Zn889 Zn 0.45458 0.06592 0.94105 0.0
O890 O 0.48582 0.13165 0.96361 0.0
C891 C 0.49328 0.10887 0.88446 0.0
O892 O 0.43373 0.11029 0.96076 0.0
H893 H 0.41259 0.99831 0.94735 0.0
H894 H 0.54635 0.15087 0.94708 0.0
H895 H 0.39675 0.10326 0.91575 0.0
O896 O 0.51817 0.10572 0.90107 0.0
O897 O 0.46391 0.09471 0.89548 0.0
H898 H 0.57199 0.04563 0.9683 0.0
O899 O 0.47456 0.02007 0.92187 0.0
O900 O 0.52565 0.03065 0.93584 0.0
O901 O 0.44487 0.03936 0.98627 0.0
O902 O 0.49377 0.06146 0.99747 0.0
C903 C 0.50526 1.01024 0.92447 0.0
H904 H 0.60311 0.17097 0.95706 0.0
H905 H 0.63138 0.06293 0.97435 0.0
H906 H 0.3638 0.97833 0.92158 0.0
H907 H 0.34809 0.08593 0.88971 0.0
C908 C 1.00375 0.09711 0.43509 0.0
C909 C 0.01691 0.11343 0.40578 0.0
H910 H 0.99488 0.0488 0.46358 0.0
C911 C 0.02743 0.09238 0.38128 0.0
H912 H 0.99546 0.11264 0.45438 0.0
C913 C 0.02623 0.05586 0.38626 0.0
C914 C 0.01517 0.03952 0.41607 0.0
H915 H 0.03739 0.10428 0.35835 0.0
H916 H 0.036 0.04054 0.36723 0.0
C917 C 1.00331 0.06057 0.44028 0.0
C918 C 0.99994 0.38474 0.43192 0.0
C919 C 0.01745 0.37616 0.40317 0.0
H920 H 0.98036 0.42547 0.46021 0.0
C921 C 0.0327 0.40357 0.38211 0.0
H922 H 0.98868 0.36433 0.44899 0.0
C923 C 0.02877 0.43875 0.38893 0.0
C924 C 0.00967 0.44724 0.41706 0.0
H925 H 0.04665 0.39779 0.35988 0.0
H926 H 0.03921 0.45929 0.37161 0.0
C927 C 0.99566 0.41977 0.43854 0.0
C928 C 0.03092 0.91738 0.12124 0.0
C929 C 0.04475 0.89156 0.10201 0.0
H930 H 0.02943 0.97199 0.12941 0.0
C931 C 0.06674 0.90258 0.07454 0.0
H932 H 0.0141 0.90989 0.14273 0.0
C933 C 0.07503 0.9381 0.06668 0.0
C934 C 0.06215 0.96395 0.08628 0.0
H935 H 0.07771 0.88362 0.05904 0.0
H936 H 0.09244 0.94517 0.04545 0.0
C937 C 0.03978 0.95304 0.11365 0.0
C938 C 1.00771 0.64991 0.05736 0.0
C939 C 0.01656 0.64879 0.08782 0.0
H940 H 0.99717 0.62038 0.01943 0.0
C941 C 0.02411 0.61664 0.10269 0.0
H942 H 1.00224 0.67461 0.04534 0.0
C943 C 0.02177 0.58595 0.08792 0.0
C944 C 0.0116 0.58656 0.05787 0.0
H945 H 0.03129 0.61523 0.12606 0.0
H946 H 0.02713 0.56156 0.10052 0.0
C947 C 1.00511 0.61898 0.0425 0.0
C948 C 0.44842 0.0509 0.09409 0.0
C949 C 0.42051 0.0269 0.10307 0.0
H950 H 0.48521 0.07449 0.05677 0.0
C951 C 0.40979 1.00654 0.08033 0.0
H952 H 0.45749 0.06684 0.11102 0.0
C953 C 0.42544 1.0111 0.04924 0.0
C954 C 0.45275 0.03569 0.04006 0.0
H955 H 0.38822 0.98801 0.08629 0.0
H956 H 0.41547 0.99598 0.03218 0.0
C957 C 0.46457 0.055 0.06304 0.0
C958 C 0.65501 0.51519 0.13913 0.0
C959 C 0.63071 0.50787 0.16574 0.0
H960 H 0.66499 0.51649 0.08954 0.0
C961 C 0.59627 0.49872 0.1627 0.0
H962 H 0.68174 0.52234 0.14121 0.0
C963 C 0.58679 0.49454 0.13327 0.0
C964 C 0.61165 0.49982 0.10656 0.0
H965 H 0.57728 0.49306 0.18317 0.0
H966 H 0.56054 0.48553 0.13162 0.0
C967 C 0.64552 0.51136 0.10972 0.0
C968 C 0.36939 0.99542 0.34721 0.0
C969 C 0.38812 0.0137 0.32094 0.0
H970 H 0.36649 0.97937 0.39564 0.0
C971 C 0.41956 0.03068 0.32438 0.0
H972 H 0.34529 0.9817 0.34519 0.0
C973 C 0.4313 0.03058 0.35368 0.0
C974 C 0.41241 0.01259 0.3803 0.0
H975 H 0.4349 0.04445 0.30439 0.0
H976 H 0.45501 0.04506 0.35534 0.0
C977 C 0.38146 0.99459 0.37634 0.0
C978 C 0.66772 0.47531 0.39819 0.0
C979 C 0.64769 0.49149 0.37657 0.0
H980 H 0.67464 0.4657 0.44635 0.0
C981 C 0.61746 0.50906 0.38755 0.0
H982 H 0.69136 0.46192 0.39029 0.0
C983 C 0.60775 0.51095 0.41951 0.0
C984 C 0.62838 0.4958 0.44115 0.0
H985 H 0.60158 0.52175 0.37135 0.0
H986 H 0.58475 0.52539 0.42724 0.0
C987 C 0.65832 0.47769 0.43019 0.0
C988 C 0.13658 0.43372 0.96915 0.0
C989 C 0.15989 0.44059 0.99049 0.0
H990 H 0.08494 0.44046 0.95635 0.0
C991 C 0.15004 0.46419 0.0129 0.0
H992 H 0.14338 0.41525 0.95186 0.0
C993 C 0.11647 0.47804 0.01576 0.0
C994 C 0.09228 0.46922 0.99587 0.0
H995 H 0.16711 0.46952 0.02994 0.0
H996 H 0.1086 0.49392 0.0349 0.0
C997 C 0.10317 0.44818 0.97162 0.0
C998 C 0.18978 0.61051 0.50615 0.0
C999 C 0.20445 0.64206 0.49152 0.0
H1000 H 0.14721 0.57386 0.51137 0.0
C1001 C 0.1878 0.6596 0.46816 0.0
H1002 H 0.20263 0.59593 0.52363 0.0
C1003 C 0.15679 0.64621 0.45993 0.0
C1004 C 0.14112 0.61516 0.47529 0.0
H1005 H 0.19891 0.68373 0.45614 0.0
H1006 H 0.14543 0.66023 0.44125 0.0
C1007 C 0.15824 0.59753 0.49857 0.0
C1008 C 0.90283 0.85067 0.49223 0.0
C1009 C 0.87653 0.86412 0.47511 0.0
H1010 H 0.95659 0.85368 0.50056 0.0
C1011 C 0.88585 0.89241 0.4528 0.0
H1012 H 0.89662 0.82939 0.51005 0.0
C1013 C 0.92042 0.90557 0.44677 0.0
C1014 C 0.94653 0.8922 0.46395 0.0
H1015 H 0.86629 0.90513 0.44046 0.0
H1016 H 0.92662 0.92694 0.42903 0.0
C1017 C 0.93718 0.86475 0.48701 0.0
C1018 C 0.43542 0.6288 0.58073 0.0
C1019 C 0.42704 0.62733 0.55019 0.0
H1020 H 0.46961 0.61346 0.61423 0.0
C1021 C 0.44868 0.60716 0.52999 0.0
H1022 H 0.42021 0.64436 0.59704 0.0
C1023 C 0.47764 0.58947 0.53991 0.0
C1024 C 0.48595 0.59125 0.57041 0.0
H1025 H 0.44318 0.60475 0.50644 0.0
H1026 H 0.49363 0.57453 0.52359 0.0
C1027 C 0.46418 0.61109 0.59063 0.0
C1028 C 0.51206 0.61761 0.91656 0.0
C1029 C 0.526 0.64079 0.93549 0.0
H1030 H 0.50708 0.56452 0.90543 0.0
C1031 C 0.54371 0.62721 0.95981 0.0
H1032 H 0.49856 0.62746 0.89741 0.0
C1033 C 0.54812 0.59123 0.96468 0.0
C1034 C 0.53553 0.56807 0.94492 0.0
H1035 H 0.55459 0.64447 0.97478 0.0
H1036 H 0.56262 0.58171 0.98325 0.0
C1037 C 0.51702 0.58162 0.92106 0.0
C1038 C 0.50513 0.92342 0.88801 0.0
C1039 C 0.52301 0.90163 0.9079 0.0
H1040 H 0.48574 0.97455 0.87754 0.0
C1041 C 0.5372 0.9167 0.93219 0.0
H1042 H 0.49365 0.91268 0.86925 0.0
C1043 C 0.53376 0.95259 0.93628 0.0
C1044 C 0.51493 0.97404 0.91689 0.0
H1045 H 0.54996 0.90053 0.94871 0.0
H1046 H 0.54409 0.96311 0.9557 0.0
C1047 C 0.50081 0.95894 0.89264 0.0
C1048 C 0.52021 0.39192 0.67096 0.0
C1049 C 0.52628 0.36767 0.64814 0.0
H1050 H 0.52171 0.44592 0.6816 0.0
C1051 C 0.53643 0.38103 0.61721 0.0
H1052 H 0.51213 0.38259 0.69499 0.0
C1053 C 0.54153 0.41718 0.60942 0.0
C1054 C 0.53681 0.44169 0.63224 0.0
H1055 H 0.5412 0.36331 0.59899 0.0
H1056 H 0.55015 0.42585 0.58528 0.0
C1057 C 0.52552 0.42835 0.66321 0.0
C1058 C 0.52597 0.13206 0.56488 0.0
C1059 C 0.5067 0.13502 0.59441 0.0
H1060 H 0.53727 0.09993 0.52624 0.0
C1061 C 0.48116 0.10931 0.60583 0.0
H1062 H 0.54579 0.1515 0.55545 0.0
C1063 C 0.47681 0.0801 0.58964 0.0
C1064 C 0.49733 0.07588 0.56116 0.0
H1065 H 0.46525 0.11112 0.62808 0.0
H1066 H 0.4578 0.06017 0.59988 0.0
C1067 C 0.5212 0.10262 0.54824 0.0
C1068 C 0.94481 0.53113 0.58751 0.0
C1069 C 0.91448 0.51115 0.59863 0.0
H1070 H 0.98138 0.54947 0.54807 0.0
C1071 C 0.89872 0.49236 0.57743 0.0
H1072 H 0.95773 0.54569 0.60325 0.0
C1073 C 0.91207 0.49475 0.54567 0.0
C1074 C 0.94189 0.5155 0.5344 0.0
H1075 H 0.8752 0.47689 0.58519 0.0
H1076 H 0.89848 0.48104 0.52983 0.0
C1077 C 0.95853 0.53302 0.55588 0.0
C1078 C 0.07923 0.98184 0.64371 0.0
C1079 C 0.09331 0.01581 0.64189 0.0
H1080 H 0.05657 0.94327 0.61895 0.0
C1081 C 0.08806 0.03968 0.61687 0.0
H1082 H 0.08358 0.96298 0.66265 0.0
C1083 C 0.07226 0.02855 0.5922 0.0
C1084 C 0.06215 0.99343 0.59231 0.0
H1085 H 0.0992 0.06586 0.61502 0.0
H1086 H 0.07131 0.04635 0.5717 0.0
C1087 C 0.064 0.97055 0.61878 0.0
C1088 C 0.88508 0.53315 0.84016 0.0
C1089 C 0.90637 0.52143 0.81456 0.0
H1090 H 0.88053 0.5443 0.888 0.0
C1091 C 0.94115 0.51326 0.81763 0.0
H1092 H 0.85831 0.54007 0.8382 0.0
C1093 C 0.95403 0.5156 0.84622 0.0
C1094 C 0.93235 0.52622 0.87229 0.0
H1095 H 0.95821 0.50468 0.798 0.0
H1096 H 0.98059 0.50799 0.84818 0.0
C1097 C 0.89786 0.5355 0.86865 0.0
C1098 C 0.19216 0.04388 0.84467 0.0
C1099 C 0.17037 0.02372 0.82932 0.0
H1100 H 0.20277 0.06315 0.88737 0.0
C1101 C 0.14076 1.00746 0.84702 0.0
H1102 H 0.21397 0.0583 0.83137 0.0
C1103 C 0.13449 1.00934 0.87941 0.0
C1104 C 0.1567 0.02904 0.89512 0.0
H1105 H 0.12192 0.99374 0.83583 0.0
H1106 H 0.112 0.99523 0.89196 0.0
C1107 C 0.18556 0.04655 0.87696 0.0
C1108 C 0.63471 0.94515 0.50839 0.0
C1109 C 0.63915 0.91394 0.4937 0.0
H1110 H 0.59895 0.98445 0.52406 0.0
C1111 C 0.61177 0.90218 0.47829 0.0
H1112 H 0.65496 0.95468 0.5208 0.0
C1113 C 0.5799 0.91972 0.47952 0.0
C1114 C 0.57449 0.94924 0.49648 0.0
H1115 H 0.6143 0.87813 0.46684 0.0
H1116 H 0.55852 0.90838 0.46961 0.0
C1117 C 0.60263 0.9623 0.51009 0.0
C1118 C 0.70605 0.17457 0.96126 0.0
C1119 C 0.72632 0.15414 0.97991 0.0
H1120 H 0.6592 0.17899 0.94073 0.0
C1121 C 0.71337 0.12134 0.993 0.0
H1122 H 0.71575 0.19977 0.95044 0.0
C1123 C 0.67986 0.11004 0.98905 0.0
C1124 C 0.65908 0.13057 0.97056 0.0
H1125 H 0.72907 0.10448 0.0065 0.0
H1126 H 0.67036 0.08534 1.0009 0.0
C1127 C 0.6732 0.16273 0.95618 0.0
C1128 C 0.40755 0.42792 0.97012 0.0
C1129 C 0.39766 0.39654 0.98816 0.0
H1130 H 0.44907 0.4641 0.95132 0.0
C1131 C 0.42305 0.37962 1.00428 0.0
H1132 H 0.38852 0.44274 0.95868 0.0
C1133 C 0.45768 0.39284 1.0012 0.0
C1134 C 0.46776 0.42326 0.9818 0.0
H1135 H 0.41619 0.35578 0.0189 0.0
H1136 H 0.47681 0.37858 0.013 0.0
C1137 C 0.44216 0.44062 0.96647 0.0
C1138 C 0.95628 0.13101 0.04773 0.0
C1139 C 0.95451 0.14725 0.01773 0.0
H1140 H 0.98678 0.10281 0.07866 0.0
C1141 C 0.98379 0.14455 0.99492 0.0
H1142 H 0.93428 0.13112 0.06586 0.0
C1143 C 0.01397 0.12706 1.00221 0.0
C1144 C 0.01592 0.11232 0.03261 0.0
H1145 H 0.98394 0.15678 0.9716 0.0
H1146 H 0.03618 0.12617 0.98435 0.0
C1147 C 0.9865 0.11429 0.05509 0.0
C1148 C 0.05852 0.20732 0.23108 0.0
C1149 C 0.04302 0.19252 0.26026 0.0
H1150 H 0.07807 0.19871 0.18384 0.0
C1151 C 0.03375 0.15679 0.26353 0.0
H1152 H 0.06593 0.23475 0.22798 0.0
C1153 C 0.04004 0.13627 0.23811 0.0
C1154 C 0.05653 0.15092 0.20918 0.0
H1155 H 0.02216 0.14466 0.28591 0.0
H1156 H 0.03308 0.10873 0.24132 0.0
C1157 C 0.06549 0.1867 0.20592 0.0
C1158 C 0.99858 0.40454 0.24003 0.0
C1159 C 0.02752 0.38355 0.24389 0.0
H1160 H 0.97192 0.43635 0.2083 0.0
C1161 C 0.05445 0.38248 0.2189 0.0
H1162 H 0.97779 0.40656 0.25904 0.0
C1163 C 0.05128 0.40002 0.19002 0.0
C1164 C 0.02102 0.41858 0.18565 0.0
H1165 H 0.07694 0.36634 0.221 0.0
H1166 H 0.07144 0.39728 0.17063 0.0
C1167 C 0.99523 0.42165 0.2111 0.0
C1168 C 0.0306 0.80316 0.27736 0.0
C1169 C 0.02197 0.8164 0.2485 0.0
H1170 H 0.04243 0.81532 0.32199 0.0
C1171 C 0.01632 0.85213 0.24262 0.0
H1172 H 0.03482 0.77551 0.28201 0.0
C1173 C 0.02038 0.87482 0.26542 0.0
C1174 C 0.03058 0.86171 0.29382 0.0
H1175 H 0.00963 0.8624 0.22024 0.0
H1176 H 0.01664 0.90252 0.26064 0.0
C1177 C 0.03509 0.82578 0.29989 0.0
C1178 C 0.97261 0.60761 0.29182 0.0
C1179 C 1.00144 0.63046 0.28203 0.0
H1180 H 0.94498 0.57322 0.32846 0.0
C1181 C 0.0254 0.6347 0.30346 0.0
H1182 H 0.95372 0.60296 0.27621 0.0
C1183 C 0.02054 0.61718 0.33349 0.0
C1184 C 0.99144 0.59487 0.34337 0.0
H1185 H 0.04763 0.65237 0.29742 0.0
H1186 H 0.03937 0.62171 0.34923 0.0
C1187 C 0.96768 0.59022 0.32193 0.0
C1188 C 0.20744 0.99911 0.15436 0.0
C1189 C 0.24178 1.01203 0.14735 0.0
H1190 H 0.15688 0.99613 0.13973 0.0
C1191 C 0.25265 0.02843 0.1174 0.0
H1192 H 0.19833 0.98665 0.17727 0.0
C1193 C 0.22882 0.03379 0.09561 0.0
C1194 C 0.19382 0.02288 0.10359 0.0
H1195 H 0.27902 0.0388 0.11155 0.0
H1196 H 0.23707 0.04877 0.07365 0.0
C1197 C 0.18381 1.00444 0.13277 0.0
C1198 C 0.85187 0.52809 0.11972 0.0
C1199 C 0.8222 0.50835 0.11566 0.0
H1200 H 0.90562 0.54074 0.1039 0.0
C1201 C 0.82358 0.48868 0.08951 0.0
H1202 H 0.85198 0.54306 0.13982 0.0
C1203 C 0.85442 0.48788 0.06856 0.0
C1204 C 0.88431 0.50641 0.07371 0.0
H1205 H 0.80116 0.47328 0.08571 0.0
H1206 H 0.85549 0.4713 0.04942 0.0
C1207 C 0.88261 0.52686 0.09916 0.0
C1208 C 0.17647 0.01861 0.3522 0.0
C1209 C 0.20604 0.99741 0.35009 0.0
H1210 H 0.12479 0.02622 0.37501 0.0
C1211 C 0.20766 0.9704 0.37386 0.0
H1212 H 0.17383 0.03938 0.33435 0.0
C1213 C 0.17947 0.9632 0.39755 0.0
C1214 C 0.14908 0.98295 0.3982 0.0
H1215 H 0.23013 0.95379 0.37343 0.0
H1216 H 0.18036 0.94047 0.41384 0.0
C1217 C 0.14834 1.0113 0.37576 0.0
C1218 C 0.8294 0.47484 0.31338 0.0
C1219 C 0.79575 0.48721 0.31159 0.0
H1220 H 0.87063 0.46774 0.34149 0.0
C1221 C 0.77613 0.49912 0.33806 0.0
H1222 H 0.84514 0.46634 0.29296 0.0
C1223 C 0.79089 0.50061 0.36558 0.0
C1224 C 0.8251 0.4895 0.36697 0.0
H1225 H 0.75009 0.50886 0.33691 0.0
H1226 H 0.7764 0.5121 0.38517 0.0
C1227 C 0.84382 0.4755 0.34108 0.0
C1228 C 0.20273 0.20846 0.0558 0.0
C1229 C 0.21158 0.22368 0.02493 0.0
H1230 H 0.17367 0.16892 0.0866 0.0
C1231 C 0.2048 0.20249 1.0011 0.0
H1232 H 0.21255 0.21903 0.07529 0.0
C1233 C 0.1838 0.17204 0.00765 0.0
C1234 C 0.17011 0.1607 0.03843 0.0
H1235 H 0.21596 0.20861 0.97723 0.0
H1236 H 0.17818 0.15746 0.98847 0.0
C1237 C 0.18111 0.17854 0.06249 0.0
C1238 C 0.14317 0.81256 0.49391 0.0
C1239 C 0.1717 0.80749 0.47094 0.0
H1240 H 0.0943 0.83748 0.50582 0.0
C1241 C 0.16932 0.82214 0.44035 0.0
H1242 H 0.14269 0.8011 0.51751 0.0
C1243 C 0.14037 0.84195 0.43341 0.0
C1244 C 0.11304 0.8484 0.45686 0.0
H1245 H 0.1904 0.81964 0.42176 0.0
H1246 H 0.1404 0.85395 0.40997 0.0
C1247 C 0.11476 0.83305 0.4871 0.0
C1248 C 0.90767 0.69599 0.48841 0.0
C1249 C 0.87119 0.69076 0.49262 0.0
H1250 H 0.95789 0.67425 0.47372 0.0
C1251 C 0.8576 0.65831 0.48696 0.0
H1252 H 0.91878 0.72103 0.4922 0.0
C1253 C 0.87952 0.63218 0.47608 0.0
C1254 C 0.91597 0.63746 0.47044 0.0
H1255 H 0.82965 0.65359 0.48986 0.0
H1256 H 0.86753 0.60784 0.47154 0.0
C1257 C 0.92998 0.66941 0.47752 0.0
C1258 C 0.37704 0.85345 0.49839 0.0
C1259 C 0.38129 0.82124 0.51486 0.0
H1260 H 0.39407 0.90671 0.48868 0.0
C1261 C 0.40775 0.81817 0.53424 0.0
H1262 H 0.35671 0.85655 0.48348 0.0
C1263 C 0.42889 0.84711 0.53777 0.0
C1264 C 0.42439 0.87952 0.52149 0.0
H1265 H 0.41156 0.79351 0.54712 0.0
H1266 H 0.44849 0.84421 0.55343 0.0
C1267 C 0.39853 0.88213 0.50141 0.0
C1268 C 0.51465 0.66425 0.79212 0.0
C1269 C 0.52956 0.69804 0.78588 0.0
H1270 H 0.50715 0.61406 0.7749 0.0
C1271 C 0.54787 0.70724 0.75622 0.0
H1272 H 0.50068 0.65635 0.8149 0.0
C1273 C 0.5521 0.68299 0.73363 0.0
C1274 C 0.53773 0.64897 0.73991 0.0
H1275 H 0.55956 0.73309 0.75074 0.0
H1276 H 0.56683 0.69085 0.71117 0.0
C1277 C 0.51838 0.64007 0.76927 0.0
C1278 C 0.55296 0.88043 0.72266 0.0
C1279 C 0.53082 0.88984 0.7489 0.0
H1280 H 0.56424 0.8854 0.67283 0.0
C1281 C 0.5056 0.91535 0.74494 0.0
H1282 H 0.57241 0.86063 0.72484 0.0
C1283 C 0.50043 0.92867 0.71518 0.0
C1284 C 0.52099 0.91738 0.68904 0.0
H1285 H 0.48873 0.92377 0.76475 0.0
H1286 H 0.4796 0.94687 0.71247 0.0
C1287 C 0.54818 0.89432 0.6929 0.0
C1288 C 0.48728 0.37694 0.79296 0.0
C1289 C 0.51138 0.37137 0.76695 0.0
H1290 H 0.47587 0.40583 0.83264 0.0
C1291 C 0.53771 0.39653 0.75628 0.0
H1292 H 0.46656 0.35808 0.80146 0.0
C1293 C 0.54303 0.42411 0.7741 0.0
C1294 C 0.52205 0.42657 0.80265 0.0
H1295 H 0.55585 0.39331 0.73554 0.0
H1296 H 0.56556 0.44128 0.76723 0.0
C1297 C 0.4925 0.40455 0.81069 0.0
C1298 C 0.53358 0.16236 0.80938 0.0
C1299 C 0.50471 0.16843 0.79264 0.0
H1300 H 0.5533 0.13833 0.84997 0.0
C1301 C 0.47168 0.15903 0.80957 0.0
H1302 H 0.5591 0.17312 0.80054 0.0
C1303 C 0.46824 0.13932 0.83861 0.0
C1304 C 0.49754 0.12996 0.85331 0.0
H1305 H 0.44785 0.16742 0.8013 0.0
H1306 H 0.44227 0.13201 0.84989 0.0
C1307 C 0.5302 0.14297 0.8387 0.0
C1308 C 0.69637 0.49994 0.68725 0.0
C1309 C 0.72982 0.50555 0.67086 0.0
H1310 H 0.64147 0.49995 0.68524 0.0
C1311 C 0.73357 0.51234 0.63825 0.0
H1312 H 0.6929 0.49474 0.71236 0.0
C1313 C 0.70403 0.51505 0.62247 0.0
C1314 C 0.6704 0.51144 0.63922 0.0
H1315 H 0.75926 0.51688 0.62522 0.0
H1316 H 0.70745 0.52201 0.59759 0.0
C1317 C 0.66703 0.50293 0.67165 0.0
C1318 C 0.3452 0.99633 0.64385 0.0
C1319 C 0.31628 0.01297 0.63367 0.0
H1320 H 0.39605 0.97692 0.63189 0.0
C1321 C 0.31723 0.02334 0.60167 0.0
H1322 H 0.34499 0.9877 0.66825 0.0
C1323 C 0.34683 0.01712 0.5803 0.0
C1324 C 0.37574 1.00002 0.5906 0.0
H1325 H 0.29484 0.03559 0.59315 0.0
H1326 H 0.34684 0.02512 0.55583 0.0
C1327 C 0.37442 0.99002 0.62276 0.0
C1328 C 0.72798 0.49071 0.88458 0.0
C1329 C 0.72628 0.51458 0.85837 0.0
H1330 H 0.70073 0.46595 0.92722 0.0
C1331 C 0.697 0.53599 0.85832 0.0
H1332 H 0.75032 0.47413 0.88573 0.0
C1333 C 0.66905 0.53159 0.88227 0.0
C1334 C 0.66961 0.50596 0.90714 0.0
H1335 H 0.69436 0.5544 0.83861 0.0
H1336 H 0.64571 0.54649 0.8801 0.0
C1337 C 0.69991 0.48647 0.90875 0.0
C1338 C 0.28989 0.03698 0.84461 0.0
C1339 C 0.30438 0.01369 0.82342 0.0
H1340 H 0.29205 0.05876 0.88799 0.0
C1341 C 0.3304 0.99104 0.83175 0.0
H1342 H 0.26968 0.05454 0.83886 0.0
C1343 C 0.34396 0.99408 0.8597 0.0
C1344 C 0.33119 0.01945 0.87972 0.0
H1345 H 0.34177 0.97267 0.81584 0.0
H1346 H 0.36621 0.97856 0.86432 0.0
C1347 C 0.30269 0.03939 0.87276 0.0
C1348 C 0.67191 0.6769 0.52484 0.0
C1349 C 0.6837 0.69963 0.54555 0.0
H1350 H 0.64066 0.63208 0.51865 0.0
C1351 C 0.67786 0.68727 0.57753 0.0
H1352 H 0.68019 0.68047 0.50012 0.0
C1353 C 0.65504 0.65891 0.58848 0.0
C1354 C 0.63961 0.63952 0.56768 0.0
H1355 H 0.69132 0.69861 0.59463 0.0
H1356 H 0.65044 0.65144 0.61328 0.0
C1357 C 0.64976 0.64797 0.53562 0.0
C1358 C 0.67677 0.33286 0.93683 0.0
C1359 C 0.68829 0.32543 0.96626 0.0
H1360 H 0.64152 0.36165 0.91007 0.0
C1361 C 0.67007 0.34084 0.99179 0.0
H1362 H 0.68953 0.3214 0.91649 0.0
C1363 C 0.64205 0.36284 0.98822 0.0
C1364 C 0.63121 0.37127 0.95883 0.0
H1365 H 0.67807 0.33711 0.01476 0.0
H1366 H 0.62974 0.37446 0.00869 0.0
C1367 C 0.64873 0.35559 0.93314 0.0
C1368 C 0.38489 0.18869 0.01101 0.0
C1369 C 0.39565 0.22259 0.99921 0.0
H1370 H 0.39478 0.13406 0.00994 0.0
C1371 C 0.42788 0.2277 0.98011 0.0
H1372 H 0.35993 0.18409 0.02536 0.0
C1373 C 0.44818 0.1991 0.97165 0.0
C1374 C 0.43592 0.16504 0.98146 0.0
H1375 H 0.43642 0.25369 0.97047 0.0
H1376 H 0.4721 0.20348 0.95576 0.0
C1377 C 0.40466 0.16014 1.00194 0.0
C1378 C 0.89821 0.36801 0.9823 0.0
C1379 C 0.90023 0.33552 0.99893 0.0
H1380 H 0.9173 0.42058 0.97396 0.0
C1381 C 0.92485 0.33102 0.02 0.0
H1382 H 0.8791 0.37221 0.96629 0.0
C1383 C 0.94633 0.35903 0.02509 0.0
C1384 C 0.94399 0.39172 0.00866 0.0
H1385 H 0.92673 0.3061 0.03313 0.0
H1386 H 0.96428 0.35528 0.04219 0.0
C1387 C 0.92015 0.39564 0.98677 0.0
loop_
_geom_bond_atom_site_label_1
_geom_bond_atom_site_label_2
_geom_bond_distance
_geom_bond_site_symmetry_2
_ccdc_geom_bond_type
C0 C1 1.443 . S
C0 N4 1.376 . S
C0 C38 1.389 . S
C1 C0 1.443 . S
C1 C2 1.340 . S
C1 H41 0.951 . S
C2 C1 1.340 . S
C2 C3 1.439 . S
C2 H42 0.950 . S
C3 C2 1.439 . S
C3 N4 1.374 . S
C3 C37 1.395 . S
N4 C0 1.376 . S
N4 C3 1.374 . S
N4 Co5 2.008 1_655 S
Co5 N4 2.008 1_455 S
Co5 N6 1.995 1_455 S
Co5 N11 2.008 . S
Co5 N16 1.995 . S
Co5 N21 2.282 . S
Co5 N27 2.282 . S
N6 Co5 1.995 1_655 S
N6 C7 1.376 . S
N6 C10 1.383 . S
C7 N6 1.376 . S
C7 C8 1.446 . S
C7 C37 1.391 . S
C8 C7 1.446 . S
C8 C9 1.339 . S
C8 H43 0.949 . S
C9 C8 1.339 . S
C9 C10 1.439 . S
C9 H44 0.950 . S
C10 N6 1.383 . S
C10 C9 1.439 . S
C10 C39 1.392 1_655 S
N11 Co5 2.008 . S
N11 C12 1.376 . S
N11 C15 1.374 . S
C12 N11 1.376 . S
C12 C13 1.443 . S
C12 C39 1.389 . S
C13 C12 1.443 . S
C13 C14 1.340 . S
C13 H45 0.951 . S
C14 C13 1.340 . S
C14 C15 1.439 . S
C14 H46 0.950 . S
C15 N11 1.374 . S
C15 C14 1.439 . S
C15 C40 1.395 . S
N16 Co5 1.995 . S
N16 C17 1.376 . S
N16 C20 1.383 . S
C17 N16 1.376 . S
C17 C18 1.446 . S
C17 C40 1.391 . S
C18 C17 1.446 . S
C18 C19 1.339 . S
C18 H47 0.949 . S
C19 C18 1.339 . S
C19 C20 1.439 . S
C19 H48 0.950 . S
C20 N16 1.383 . S
C20 C19 1.439 . S
C20 C38 1.392 1_455 S
N21 Co5 2.282 . S
N21 C24 1.332 . S
N21 C26 1.332 1_455 S
C22 C23 1.386 . S
C22 C25 1.388 1_455 S
C23 C22 1.386 . S
C23 C24 1.382 . S
C23 H49 0.950 . S
C24 N21 1.332 . S
C24 C23 1.382 . S
C24 H35 0.952 . S
C25 C22 1.388 1_655 S
C25 C26 1.382 . S
C25 H50 0.950 . S
C26 N21 1.332 1_655 S
C26 C25 1.382 . S
C26 H36 0.948 . S
N27 Co5 2.282 . S
N27 C31 1.332 1_455 S
N27 C32 1.332 . S
C28 C29 1.388 1_455 S
C28 C32 1.382 . S
C28 H51 0.950 . S
C29 C28 1.388 1_655 S
C29 C30 1.386 . S
C30 C29 1.386 . S
C30 C31 1.382 . S
C30 H52 0.950 . S
C31 N27 1.332 1_655 S
C31 C30 1.382 . S
C31 H33 0.952 . S
C32 N27 1.332 . S
C32 C28 1.382 . S
C32 H34 0.948 . S
H33 C31 0.952 . S
H34 C32 0.948 . S
H35 C24 0.952 . S
H36 C26 0.948 . S
C37 C3 1.395 . S
C37 C7 1.391 . S
C38 C0 1.389 . S
C38 C20 1.392 1_655 S
C39 C10 1.392 1_455 S
C39 C12 1.389 . S
C40 C15 1.395 . S
C40 C17 1.391 . S
H41 C1 0.951 . S
H42 C2 0.950 . S
H43 C8 0.949 . S
H44 C9 0.950 . S
H45 C13 0.951 . S
H46 C14 0.950 . S
H47 C18 0.949 . S
H48 C19 0.950 . S
H49 C23 0.950 . S
H50 C25 0.950 . S
H51 C28 0.950 . S
H52 C30 0.950 . S
C53 C54 1.443 . S
C53 N57 1.376 . S
C53 C91 1.389 1_655 S
C54 C53 1.443 . S
C54 C55 1.340 . S
C54 H94 0.951 . S
C55 C54 1.340 . S
C55 C56 1.439 . S
C55 H95 0.950 . S
C56 C55 1.439 . S
C56 N57 1.374 . S
C56 C90 1.395 . S
N57 C53 1.376 . S
N57 C56 1.374 . S
N57 Co58 2.008 1_655 S
Co58 N57 2.008 1_455 S
Co58 N59 1.995 1_455 S
Co58 N64 2.008 . S
Co58 N69 1.995 . S
Co58 N74 2.282 . S
Co58 N80 2.282 . S
N59 Co58 1.995 1_655 S
N59 C60 1.376 . S
N59 C63 1.383 . S
C60 N59 1.376 . S
C60 C61 1.446 . S
C60 C90 1.391 . S
C61 C60 1.446 . S
C61 C62 1.339 . S
C61 H96 0.949 . S
C62 C61 1.339 . S
C62 C63 1.439 . S
C62 H97 0.950 . S
C63 N59 1.383 . S
C63 C62 1.439 . S
C63 C92 1.392 1_655 S
N64 Co58 2.008 . S
N64 C65 1.376 . S
N64 C68 1.374 . S
C65 N64 1.376 . S
C65 C66 1.443 . S
C65 C92 1.389 . S
C66 C65 1.443 . S
C66 C67 1.340 . S
C66 H98 0.951 . S
C67 C66 1.340 . S
C67 C68 1.439 . S
C67 H99 0.950 . S
C68 N64 1.374 . S
C68 C67 1.439 . S
C68 C93 1.395 . S
N69 Co58 1.995 . S
N69 C70 1.376 . S
N69 C73 1.383 . S
C70 N69 1.376 . S
C70 C71 1.446 . S
C70 C93 1.391 . S
C71 C70 1.446 . S
C71 C72 1.339 . S
C71 H100 0.949 . S
C72 C71 1.339 . S
C72 C73 1.439 . S
C72 H101 0.950 . S
C73 N69 1.383 . S
C73 C72 1.439 . S
C73 C91 1.392 . S
N74 Co58 2.282 . S
N74 C77 1.332 . S
N74 C79 1.333 . S
C75 C76 1.386 . S
C75 C78 1.388 . S
C76 C75 1.386 . S
C76 C77 1.382 . S
C76 H102 0.950 . S
C77 N74 1.332 . S
C77 C76 1.382 . S
C77 H88 0.952 . S
C78 C75 1.388 . S
C78 C79 1.382 . S
C78 H103 0.950 1_455 S
C79 N74 1.333 . S
C79 C78 1.382 . S
C79 H89 0.947 1_455 S
N80 Co58 2.282 . S
N80 C84 1.332 1_455 S
N80 C85 1.332 . S
C81 C82 1.388 1_455 S
C81 C85 1.382 . S
C81 H104 0.950 . S
C82 C81 1.388 1_655 S
C82 C83 1.386 . S
C83 C82 1.386 . S
C83 C84 1.382 . S
C83 H105 0.950 . S
C84 N80 1.332 1_655 S
C84 C83 1.382 . S
C84 H86 0.952 . S
C85 N80 1.332 . S
C85 C81 1.382 . S
C85 H87 0.948 . S
H86 C84 0.952 . S
H87 C85 0.948 . S
H88 C77 0.952 . S
H89 C79 0.947 1_655 S
C90 C56 1.395 . S
C90 C60 1.391 . S
C91 C53 1.389 1_455 S
C91 C73 1.392 . S
C92 C63 1.392 1_455 S
C92 C65 1.389 . S
C93 C68 1.395 . S
C93 C70 1.391 . S
H94 C54 0.951 . S
H95 C55 0.950 . S
H96 C61 0.949 . S
H97 C62 0.950 . S
H98 C66 0.951 . S
H99 C67 0.950 . S
H100 C71 0.949 . S
H101 C72 0.950 . S
H102 C76 0.950 . S
H103 C78 0.950 1_655 S
H104 C81 0.950 . S
H105 C83 0.950 . S
C106 C107 1.443 . S
C106 N110 1.376 . S
C106 C144 1.389 . S
C107 C106 1.443 . S
C107 C108 1.340 . S
C107 H147 0.951 . S
C108 C107 1.340 . S
C108 C109 1.439 . S
C108 H148 0.950 . S
C109 C108 1.439 . S
C109 N110 1.374 . S
C109 C143 1.395 . S
N110 C106 1.376 . S
N110 C109 1.374 . S
N110 Co111 2.008 1_565 S
Co111 N110 2.008 1_545 S
Co111 N112 1.995 1_545 S
Co111 N117 2.008 . S
Co111 N122 1.995 . S
Co111 N127 2.282 . S
Co111 N133 2.282 . S
N112 Co111 1.995 1_565 S
N112 C113 1.376 . S
N112 C116 1.383 . S
C113 N112 1.376 . S
C113 C114 1.446 . S
C113 C143 1.391 . S
C114 C113 1.446 . S
C114 C115 1.339 . S
C114 H149 0.949 . S
C115 C114 1.339 . S
C115 C116 1.439 . S
C115 H150 0.950 . S
C116 N112 1.383 . S
C116 C115 1.439 . S
C116 C145 1.392 1_565 S
N117 Co111 2.008 . S
N117 C118 1.376 . S
N117 C121 1.374 . S
C118 N117 1.376 . S
C118 C119 1.443 . S
C118 C145 1.389 . S
C119 C118 1.443 . S
C119 C120 1.340 . S
C119 H151 0.951 . S
C120 C119 1.340 . S
C120 C121 1.439 . S
C120 H152 0.950 . S
C121 N117 1.374 . S
C121 C120 1.439 . S
C121 C146 1.395 . S
N122 Co111 1.995 . S
N122 C123 1.376 . S
N122 C126 1.383 . S
C123 N122 1.376 . S
C123 C124 1.446 . S
C123 C146 1.391 . S
C124 C123 1.446 . S
C124 C125 1.339 . S
C124 H153 0.949 . S
C125 C124 1.339 . S
C125 C126 1.439 . S
C125 H154 0.950 . S
C126 N122 1.383 . S
C126 C125 1.439 . S
C126 C144 1.392 1_545 S
N127 Co111 2.282 . S
N127 C130 1.332 . S
N127 C132 1.333 . S
C128 C129 1.386 . S
C128 C131 1.388 . S
C129 C128 1.386 . S
C129 C130 1.382 . S
C129 H155 0.950 . S
C130 N127 1.332 . S
C130 C129 1.382 . S
C130 H141 0.952 . S
C131 C128 1.388 . S
C131 C132 1.383 . S
C131 H156 0.950 1_545 S
C132 N127 1.333 . S
C132 C131 1.383 . S
C132 H142 0.947 1_545 S
N133 Co111 2.282 . S
N133 C137 1.332 1_545 S
N133 C138 1.332 . S
C134 C135 1.388 1_545 S
C134 C138 1.382 . S
C134 H157 0.950 . S
C135 C134 1.388 1_565 S
C135 C136 1.386 . S
C136 C135 1.386 . S
C136 C137 1.382 . S
C136 H158 0.950 . S
C137 N133 1.332 1_565 S
C137 C136 1.382 . S
C137 H139 0.952 . S
C138 N133 1.332 . S
C138 C134 1.382 . S
C138 H140 0.948 . S
H139 C137 0.952 . S
H140 C138 0.948 . S
H141 C130 0.952 . S
H142 C132 0.947 1_565 S
C143 C109 1.395 . S
C143 C113 1.391 . S
C144 C106 1.389 . S
C144 C126 1.392 1_565 S
C145 C116 1.392 1_545 S
C145 C118 1.389 . S
C146 C121 1.395 . S
C146 C123 1.391 . S
H147 C107 0.951 . S
H148 C108 0.950 . S
H149 C114 0.949 . S
H150 C115 0.950 . S
H151 C119 0.951 . S
H152 C120 0.950 . S
H153 C124 0.949 . S
H154 C125 0.950 . S
H155 C129 0.950 . S
H156 C131 0.950 1_565 S
H157 C134 0.950 . S
H158 C136 0.950 . S
C159 C160 1.443 . S
C159 N163 1.376 . S
C159 C197 1.389 . S
C160 C159 1.443 . S
C160 C161 1.340 . S
C160 H200 0.951 . S
C161 C160 1.340 . S
C161 C162 1.439 . S
C161 H201 0.950 . S
C162 C161 1.439 . S
C162 N163 1.374 . S
C162 C196 1.395 . S
N163 C159 1.376 . S
N163 C162 1.374 . S
N163 Co164 2.008 . S
Co164 N163 2.008 . S
Co164 N165 1.995 . S
Co164 N170 2.008 . S
Co164 N175 1.995 . S
Co164 N180 2.282 . S
Co164 N186 2.282 . S
N165 Co164 1.995 . S
N165 C166 1.376 . S
N165 C169 1.383 . S
C166 N165 1.376 . S
C166 C167 1.446 . S
C166 C196 1.391 . S
C167 C166 1.446 . S
C167 C168 1.339 . S
C167 H202 0.949 . S
C168 C167 1.339 . S
C168 C169 1.439 . S
C168 H203 0.950 . S
C169 N165 1.383 . S
C169 C168 1.439 . S
C169 C198 1.392 . S
N170 Co164 2.008 . S
N170 C171 1.376 . S
N170 C174 1.374 . S
C171 N170 1.376 . S
C171 C172 1.443 . S
C171 C198 1.389 . S
C172 C171 1.443 . S
C172 C173 1.340 . S
C172 H204 0.951 . S
C173 C172 1.340 . S
C173 C174 1.439 . S
C173 H205 0.950 . S
C174 N170 1.374 . S
C174 C173 1.439 . S
C174 C199 1.395 . S
N175 Co164 1.995 . S
N175 C176 1.376 . S
N175 C179 1.383 . S
C176 N175 1.376 . S
C176 C177 1.446 . S
C176 C199 1.391 . S
C177 C176 1.446 . S
C177 C178 1.339 . S
C177 H206 0.949 . S
C178 C177 1.339 . S
C178 C179 1.439 . S
C178 H207 0.950 . S
C179 N175 1.383 . S
C179 C178 1.439 . S
C179 C197 1.392 . S
N180 Co164 2.282 . S
N180 C183 1.332 . S
N180 C185 1.332 . S
C181 C182 1.386 . S
C181 C184 1.388 . S
C182 C181 1.386 . S
C182 C183 1.382 . S
C182 H208 0.950 . S
C183 N180 1.332 . S
C183 C182 1.382 . S
C183 H194 0.952 . S
C184 C181 1.388 . S
C184 C185 1.382 . S
C184 H209 0.950 . S
C185 N180 1.332 . S
C185 C184 1.382 . S
C185 H195 0.948 . S
N186 Co164 2.282 . S
N186 C190 1.332 . S
N186 C191 1.332 . S
C187 C188 1.388 . S
C187 C191 1.382 . S
C187 H210 0.950 . S
C188 C187 1.388 . S
C188 C189 1.386 . S
C189 C188 1.386 . S
C189 C190 1.382 . S
C189 H211 0.950 . S
C190 N186 1.332 . S
C190 C189 1.382 . S
C190 H192 0.952 . S
C191 N186 1.332 . S
C191 C187 1.382 . S
C191 H193 0.948 . S
H192 C190 0.952 . S
H193 C191 0.948 . S
H194 C183 0.952 . S
H195 C185 0.948 . S
C196 C162 1.395 . S
C196 C166 1.391 . S
C197 C159 1.389 . S
C197 C179 1.392 . S
C198 C169 1.392 . S
C198 C171 1.389 . S
C199 C174 1.395 . S
C199 C176 1.391 . S
H200 C160 0.951 . S
H201 C161 0.950 . S
H202 C167 0.949 . S
H203 C168 0.950 . S
H204 C172 0.951 . S
H205 C173 0.950 . S
H206 C177 0.949 . S
H207 C178 0.950 . S
H208 C182 0.950 . S
H209 C184 0.950 . S
H210 C187 0.950 . S
H211 C189 0.950 . S
C212 C213 1.443 . S
C212 N216 1.376 . S
C212 C250 1.389 . S
C213 C212 1.443 . S
C213 C214 1.340 . S
C213 H253 0.951 . S
C214 C213 1.340 . S
C214 C215 1.439 . S
C214 H254 0.950 . S
C215 C214 1.439 . S
C215 N216 1.374 . S
C215 C249 1.395 . S
N216 C212 1.376 . S
N216 C215 1.374 . S
N216 Co217 2.008 1_556 S
Co217 N216 2.008 1_554 S
Co217 N218 1.995 1_554 S
Co217 N223 2.008 . S
Co217 N228 1.995 . S
Co217 N233 2.282 . S
Co217 N239 2.282 1_554 S
N218 Co217 1.995 1_556 S
N218 C219 1.376 . S
N218 C222 1.383 . S
C219 N218 1.376 . S
C219 C220 1.446 . S
C219 C249 1.391 . S
C220 C219 1.446 . S
C220 C221 1.339 . S
C220 H255 0.949 . S
C221 C220 1.339 . S
C221 C222 1.439 . S
C221 H256 0.950 . S
C222 N218 1.383 . S
C222 C221 1.439 . S
C222 C251 1.392 1_556 S
N223 Co217 2.008 . S
N223 C224 1.376 . S
N223 C227 1.374 . S
C224 N223 1.376 . S
C224 C225 1.443 . S
C224 C251 1.389 . S
C225 C224 1.443 . S
C225 C226 1.340 . S
C225 H257 0.951 . S
C226 C225 1.340 . S
C226 C227 1.439 . S
C226 H258 0.950 . S
C227 N223 1.374 . S
C227 C226 1.439 . S
C227 C252 1.395 . S
N228 Co217 1.995 . S
N228 C229 1.376 . S
N228 C232 1.383 . S
C229 N228 1.376 . S
C229 C230 1.446 . S
C229 C252 1.391 . S
C230 C229 1.446 . S
C230 C231 1.339 . S
C230 H259 0.949 . S
C231 C230 1.339 . S
C231 C232 1.439 . S
C231 H260 0.950 . S
C232 N228 1.383 . S
C232 C231 1.439 . S
C232 C250 1.392 1_554 S
N233 Co217 2.282 . S
N233 C236 1.332 . S
N233 C238 1.332 1_554 S
C234 C235 1.386 . S
C234 C237 1.388 1_554 S
C235 C234 1.386 . S
C235 C236 1.382 . S
C235 H261 0.950 . S
C236 N233 1.332 . S
C236 C235 1.382 . S
C236 H247 0.952 . S
C237 C234 1.388 1_556 S
C237 C238 1.382 . S
C237 H262 0.950 . S
C238 N233 1.332 1_556 S
C238 C237 1.382 . S
C238 H248 0.948 . S
N239 Co217 2.282 1_556 S
N239 C243 1.332 . S
N239 C244 1.332 1_556 S
C240 C241 1.388 1_554 S
C240 C244 1.382 . S
C240 H263 0.950 . S
C241 C240 1.388 1_556 S
C241 C242 1.386 . S
C242 C241 1.386 . S
C242 C243 1.382 . S
C242 H264 0.950 . S
C243 N239 1.332 . S
C243 C242 1.382 . S
C243 H245 0.952 . S
C244 N239 1.332 1_554 S
C244 C240 1.382 . S
C244 H246 0.948 . S
H245 C243 0.952 . S
H246 C244 0.948 . S
H247 C236 0.952 . S
H248 C238 0.948 . S
C249 C215 1.395 . S
C249 C219 1.391 . S
C250 C212 1.389 . S
C250 C232 1.392 1_556 S
C251 C222 1.392 1_554 S
C251 C224 1.389 . S
C252 C227 1.395 . S
C252 C229 1.391 . S
H253 C213 0.951 . S
H254 C214 0.950 . S
H255 C220 0.949 . S
H256 C221 0.950 . S
H257 C225 0.951 . S
H258 C226 0.950 . S
H259 C230 0.949 . S
H260 C231 0.950 . S
H261 C235 0.950 . S
H262 C237 0.950 . S
H263 C240 0.950 . S
H264 C242 0.950 . S
C265 C266 1.443 . S
C265 N269 1.376 . S
C265 C303 1.389 . S
C266 C265 1.443 . S
C266 C267 1.340 . S
C266 H306 0.951 . S
C267 C266 1.340 . S
C267 C268 1.439 . S
C267 H307 0.950 . S
C268 C267 1.439 . S
C268 N269 1.374 . S
C268 C302 1.395 . S
N269 C265 1.376 . S
N269 C268 1.374 . S
N269 Co270 2.008 . S
Co270 N269 2.008 . S
Co270 N271 1.995 . S
Co270 N276 2.008 . S
Co270 N281 1.995 . S
Co270 N286 2.282 . S
Co270 N292 2.282 . S
N271 Co270 1.995 . S
N271 C272 1.376 . S
N271 C275 1.383 . S
C272 N271 1.376 . S
C272 C273 1.446 . S
C272 C302 1.391 . S
C273 C272 1.446 . S
C273 C274 1.339 . S
C273 H308 0.949 . S
C274 C273 1.339 . S
C274 C275 1.439 . S
C274 H309 0.950 . S
C275 N271 1.383 . S
C275 C274 1.439 . S
C275 C304 1.392 . S
N276 Co270 2.008 . S
N276 C277 1.376 . S
N276 C280 1.374 . S
C277 N276 1.376 . S
C277 C278 1.443 . S
C277 C304 1.389 . S
C278 C277 1.443 . S
C278 C279 1.340 . S
C278 H310 0.951 . S
C279 C278 1.340 . S
C279 C280 1.439 . S
C279 H311 0.950 . S
C280 N276 1.374 . S
C280 C279 1.439 . S
C280 C305 1.395 . S
N281 Co270 1.995 . S
N281 C282 1.376 . S
N281 C285 1.383 . S
C282 N281 1.376 . S
C282 C283 1.446 . S
C282 C305 1.391 . S
C283 C282 1.446 . S
C283 C284 1.339 . S
C283 H312 0.949 . S
C284 C283 1.339 . S
C284 C285 1.439 . S
C284 H313 0.950 . S
C285 N281 1.383 . S
C285 C284 1.439 . S
C285 C303 1.392 . S
N286 Co270 2.282 . S
N286 C289 1.332 . S
N286 C291 1.332 . S
C287 C288 1.386 . S
C287 C290 1.388 . S
C288 C287 1.386 . S
C288 C289 1.382 . S
C288 H314 0.950 . S
C289 N286 1.332 . S
C289 C288 1.382 . S
C289 H300 0.952 . S
C290 C287 1.388 . S
C290 C291 1.382 . S
C290 H315 0.950 . S
C291 N286 1.332 . S
C291 C290 1.382 . S
C291 H301 0.948 . S
N292 Co270 2.282 . S
N292 C296 1.332 . S
N292 C297 1.332 . S
C293 C294 1.388 . S
C293 C297 1.382 . S
C293 H316 0.950 . S
C294 C293 1.388 . S
C294 C295 1.386 . S
C295 C294 1.386 . S
C295 C296 1.382 . S
C295 H317 0.950 . S
C296 N292 1.332 . S
C296 C295 1.382 . S
C296 H298 0.952 . S
C297 N292 1.332 . S
C297 C293 1.382 . S
C297 H299 0.948 . S
H298 C296 0.952 . S
H299 C297 0.948 . S
H300 C289 0.952 . S
H301 C291 0.948 . S
C302 C268 1.395 . S
C302 C272 1.391 . S
C303 C265 1.389 . S
C303 C285 1.392 . S
C304 C275 1.392 . S
C304 C277 1.389 . S
C305 C280 1.395 . S
C305 C282 1.391 . S
H306 C266 0.951 . S
H307 C267 0.950 . S
H308 C273 0.949 . S
H309 C274 0.950 . S
H310 C278 0.951 . S
H311 C279 0.950 . S
H312 C283 0.949 . S
H313 C284 0.950 . S
H314 C288 0.950 . S
H315 C290 0.950 . S
H316 C293 0.950 . S
H317 C295 0.950 . S
C318 C319 1.443 . S
C318 N322 1.376 . S
C318 C356 1.389 . S
C319 C318 1.443 . S
C319 C320 1.340 . S
C319 H359 0.951 . S
C320 C319 1.340 . S
C320 C321 1.439 . S
C320 H360 0.950 . S
C321 C320 1.439 . S
C321 N322 1.374 . S
C321 C355 1.395 . S
N322 C318 1.376 . S
N322 C321 1.374 . S
N322 Co323 2.008 . S
Co323 N322 2.008 . S
Co323 N324 1.995 . S
Co323 N329 2.008 . S
Co323 N334 1.995 . S
Co323 N339 2.282 . S
Co323 N345 2.282 . S
N324 Co323 1.995 . S
N324 C325 1.376 . S
N324 C328 1.383 . S
C325 N324 1.376 . S
C325 C326 1.446 . S
C325 C355 1.391 . S
C326 C325 1.446 . S
C326 C327 1.339 . S
C326 H361 0.949 . S
C327 C326 1.339 . S
C327 C328 1.439 . S
C327 H362 0.950 . S
C328 N324 1.383 . S
C328 C327 1.439 . S
C328 C357 1.392 . S
N329 Co323 2.008 . S
N329 C330 1.376 . S
N329 C333 1.374 . S
C330 N329 1.376 . S
C330 C331 1.443 . S
C330 C357 1.389 . S
C331 C330 1.443 . S
C331 C332 1.340 . S
C331 H363 0.951 . S
C332 C331 1.340 . S
C332 C333 1.439 . S
C332 H364 0.950 . S
C333 N329 1.374 . S
C333 C332 1.439 . S
C333 C358 1.395 . S
N334 Co323 1.995 . S
N334 C335 1.376 . S
N334 C338 1.383 . S
C335 N334 1.376 . S
C335 C336 1.446 . S
C335 C358 1.391 . S
C336 C335 1.446 . S
C336 C337 1.339 . S
C336 H365 0.949 . S
C337 C336 1.339 . S
C337 C338 1.439 . S
C337 H366 0.950 . S
C338 N334 1.383 . S
C338 C337 1.439 . S
C338 C356 1.392 . S
N339 Co323 2.282 . S
N339 C342 1.332 . S
N339 C344 1.332 . S
C340 C341 1.386 . S
C340 C343 1.388 . S
C341 C340 1.386 . S
C341 C342 1.382 . S
C341 H367 0.950 . S
C342 N339 1.332 . S
C342 C341 1.382 . S
C342 H353 0.952 . S
C343 C340 1.388 . S
C343 C344 1.382 . S
C343 H368 0.950 . S
C344 N339 1.332 . S
C344 C343 1.382 . S
C344 H354 0.948 . S
N345 Co323 2.282 . S
N345 C349 1.332 . S
N345 C350 1.332 . S
C346 C347 1.388 . S
C346 C350 1.382 . S
C346 H369 0.950 . S
C347 C346 1.388 . S
C347 C348 1.386 . S
C348 C347 1.386 . S
C348 C349 1.382 . S
C348 H370 0.950 . S
C349 N345 1.332 . S
C349 C348 1.382 . S
C349 H351 0.952 . S
C350 N345 1.332 . S
C350 C346 1.382 . S
C350 H352 0.948 . S
H351 C349 0.952 . S
H352 C350 0.948 . S
H353 C342 0.952 . S
H354 C344 0.948 . S
C355 C321 1.395 . S
C355 C325 1.391 . S
C356 C318 1.389 . S
C356 C338 1.392 . S
C357 C328 1.392 . S
C357 C330 1.389 . S
C358 C333 1.395 . S
C358 C335 1.391 . S
H359 C319 0.951 . S
H360 C320 0.950 . S
H361 C326 0.949 . S
H362 C327 0.950 . S
H363 C331 0.951 . S
H364 C332 0.950 . S
H365 C336 0.949 . S
H366 C337 0.950 . S
H367 C341 0.950 . S
H368 C343 0.950 . S
H369 C346 0.950 . S
H370 C348 0.950 . S
C371 C372 1.443 . S
C371 N375 1.376 . S
C371 C409 1.389 . S
C372 C371 1.443 . S
C372 C373 1.340 . S
C372 H412 0.951 . S
C373 C372 1.340 . S
C373 C374 1.439 . S
C373 H413 0.950 . S
C374 C373 1.439 . S
C374 N375 1.374 . S
C374 C408 1.395 . S
N375 C371 1.376 . S
N375 C374 1.374 . S
N375 Co376 2.008 . S
Co376 N375 2.008 . S
Co376 N377 1.995 . S
Co376 N382 2.008 . S
Co376 N387 1.995 . S
Co376 N392 2.282 . S
Co376 N398 2.282 . S
N377 Co376 1.995 . S
N377 C378 1.376 . S
N377 C381 1.383 . S
C378 N377 1.376 . S
C378 C379 1.446 . S
C378 C408 1.391 . S
C379 C378 1.446 . S
C379 C380 1.339 . S
C379 H414 0.949 . S
C380 C379 1.339 . S
C380 C381 1.439 . S
C380 H415 0.950 . S
C381 N377 1.383 . S
C381 C380 1.439 . S
C381 C410 1.392 . S
N382 Co376 2.008 . S
N382 C383 1.376 . S
N382 C386 1.374 . S
C383 N382 1.376 . S
C383 C384 1.443 . S
C383 C410 1.389 . S
C384 C383 1.443 . S
C384 C385 1.340 . S
C384 H416 0.951 . S
C385 C384 1.340 . S
C385 C386 1.439 . S
C385 H417 0.950 . S
C386 N382 1.374 . S
C386 C385 1.439 . S
C386 C411 1.395 . S
N387 Co376 1.995 . S
N387 C388 1.376 . S
N387 C391 1.383 . S
C388 N387 1.376 . S
C388 C389 1.446 . S
C388 C411 1.391 . S
C389 C388 1.446 . S
C389 C390 1.339 . S
C389 H418 0.949 . S
C390 C389 1.339 . S
C390 C391 1.439 . S
C390 H419 0.950 . S
C391 N387 1.383 . S
C391 C390 1.439 . S
C391 C409 1.392 . S
N392 Co376 2.282 . S
N392 C395 1.332 . S
N392 C397 1.332 . S
C393 C394 1.386 . S
C393 C396 1.388 . S
C394 C393 1.386 . S
C394 C395 1.382 . S
C394 H420 0.950 . S
C395 N392 1.332 . S
C395 C394 1.382 . S
C395 H406 0.952 . S
C396 C393 1.388 . S
C396 C397 1.382 . S
C396 H421 0.950 . S
C397 N392 1.332 . S
C397 C396 1.382 . S
C397 H407 0.948 . S
N398 Co376 2.282 . S
N398 C402 1.332 . S
N398 C403 1.332 . S
C399 C400 1.388 . S
C399 C403 1.382 . S
C399 H422 0.950 . S
C400 C399 1.388 . S
C400 C401 1.386 . S
C401 C400 1.386 . S
C401 C402 1.382 . S
C401 H423 0.950 . S
C402 N398 1.332 . S
C402 C401 1.382 . S
C402 H404 0.952 . S
C403 N398 1.332 . S
C403 C399 1.382 . S
C403 H405 0.948 . S
H404 C402 0.952 . S
H405 C403 0.948 . S
H406 C395 0.952 . S
H407 C397 0.948 . S
C408 C374 1.395 . S
C408 C378 1.391 . S
C409 C371 1.389 . S
C409 C391 1.392 . S
C410 C381 1.392 . S
C410 C383 1.389 . S
C411 C386 1.395 . S
C411 C388 1.391 . S
H412 C372 0.951 . S
H413 C373 0.950 . S
H414 C379 0.949 . S
H415 C380 0.950 . S
H416 C384 0.951 . S
H417 C385 0.950 . S
H418 C389 0.949 . S
H419 C390 0.950 . S
H420 C394 0.950 . S
H421 C396 0.950 . S
H422 C399 0.950 . S
H423 C401 0.950 . S
C424 C425 1.443 . S
C424 N428 1.376 . S
C424 C462 1.389 . S
C425 C424 1.443 . S
C425 C426 1.340 . S
C425 H465 0.951 . S
C426 C425 1.340 . S
C426 C427 1.439 . S
C426 H466 0.950 . S
C427 C426 1.439 . S
C427 N428 1.374 . S
C427 C461 1.395 . S
N428 C424 1.376 . S
N428 C427 1.374 . S
N428 Co429 2.008 . S
Co429 N428 2.008 . S
Co429 N430 1.995 . S
Co429 N435 2.008 . S
Co429 N440 1.995 . S
Co429 N445 2.282 . S
Co429 N451 2.282 . S
N430 Co429 1.995 . S
N430 C431 1.376 . S
N430 C434 1.383 . S
C431 N430 1.376 . S
C431 C432 1.446 . S
C431 C461 1.391 . S
C432 C431 1.446 . S
C432 C433 1.339 . S
C432 H467 0.949 . S
C433 C432 1.339 . S
C433 C434 1.439 . S
C433 H468 0.950 . S
C434 N430 1.383 . S
C434 C433 1.439 . S
C434 C463 1.392 . S
N435 Co429 2.008 . S
N435 C436 1.376 . S
N435 C439 1.374 . S
C436 N435 1.376 . S
C436 C437 1.443 . S
C436 C463 1.389 . S
C437 C436 1.443 . S
C437 C438 1.340 . S
C437 H469 0.951 . S
C438 C437 1.340 . S
C438 C439 1.439 . S
C438 H470 0.950 . S
C439 N435 1.374 . S
C439 C438 1.439 . S
C439 C464 1.395 . S
N440 Co429 1.995 . S
N440 C441 1.376 . S
N440 C444 1.383 . S
C441 N440 1.376 . S
C441 C442 1.446 . S
C441 C464 1.391 . S
C442 C441 1.446 . S
C442 C443 1.339 . S
C442 H471 0.949 . S
C443 C442 1.339 . S
C443 C444 1.439 . S
C443 H472 0.950 . S
C444 N440 1.383 . S
C444 C443 1.439 . S
C444 C462 1.392 . S
N445 Co429 2.282 . S
N445 C448 1.332 . S
N445 C450 1.332 . S
C446 C447 1.386 . S
C446 C449 1.388 . S
C447 C446 1.386 . S
C447 C448 1.382 . S
C447 H473 0.950 . S
C448 N445 1.332 . S
C448 C447 1.382 . S
C448 H459 0.952 . S
C449 C446 1.388 . S
C449 C450 1.382 . S
C449 H474 0.950 . S
C450 N445 1.332 . S
C450 C449 1.382 . S
C450 H460 0.948 . S
N451 Co429 2.282 . S
N451 C455 1.332 . S
N451 C456 1.332 . S
C452 C453 1.388 . S
C452 C456 1.382 . S
C452 H475 0.950 . S
C453 C452 1.388 . S
C453 C454 1.386 . S
C454 C453 1.386 . S
C454 C455 1.382 . S
C454 H476 0.950 . S
C455 N451 1.332 . S
C455 C454 1.382 . S
C455 H457 0.952 . S
C456 N451 1.332 . S
C456 C452 1.382 . S
C456 H458 0.948 . S
H457 C455 0.952 . S
H458 C456 0.948 . S
H459 C448 0.952 . S
H460 C450 0.948 . S
C461 C427 1.395 . S
C461 C431 1.391 . S
C462 C424 1.389 . S
C462 C444 1.392 . S
C463 C434 1.392 . S
C463 C436 1.389 . S
C464 C439 1.395 . S
C464 C441 1.391 . S
H465 C425 0.951 . S
H466 C426 0.950 . S
H467 C432 0.949 . S
H468 C433 0.950 . S
H469 C437 0.951 . S
H470 C438 0.950 . S
H471 C442 0.949 . S
H472 C443 0.950 . S
H473 C447 0.950 . S
H474 C449 0.950 . S
H475 C452 0.950 . S
H476 C454 0.950 . S
C477 C478 1.443 . S
C477 N481 1.376 . S
C477 C515 1.389 . S
C478 C477 1.443 . S
C478 C479 1.340 . S
C478 H518 0.951 . S
C479 C478 1.340 . S
C479 C480 1.439 . S
C479 H519 0.950 . S
C480 C479 1.439 . S
C480 N481 1.374 . S
C480 C514 1.395 . S
N481 C477 1.376 . S
N481 C480 1.374 . S
N481 Co482 2.008 . S
Co482 N481 2.008 . S
Co482 N483 1.995 . S
Co482 N488 2.008 . S
Co482 N493 1.995 . S
Co482 N498 2.282 . S
Co482 N504 2.282 . S
N483 Co482 1.995 . S
N483 C484 1.376 . S
N483 C487 1.383 . S
C484 N483 1.376 . S
C484 C485 1.446 . S
C484 C514 1.391 . S
C485 C484 1.446 . S
C485 C486 1.339 . S
C485 H520 0.949 . S
C486 C485 1.339 . S
C486 C487 1.439 . S
C486 H521 0.950 . S
C487 N483 1.383 . S
C487 C486 1.439 . S
C487 C516 1.392 . S
N488 Co482 2.008 . S
N488 C489 1.376 . S
N488 C492 1.374 . S
C489 N488 1.376 . S
C489 C490 1.443 . S
C489 C516 1.389 . S
C490 C489 1.443 . S
C490 C491 1.340 . S
C490 H522 0.951 . S
C491 C490 1.340 . S
C491 C492 1.439 . S
C491 H523 0.950 . S
C492 N488 1.374 . S
C492 C491 1.439 . S
C492 C517 1.395 . S
N493 Co482 1.995 . S
N493 C494 1.376 . S
N493 C497 1.383 . S
C494 N493 1.376 . S
C494 C495 1.446 . S
C494 C517 1.391 . S
C495 C494 1.446 . S
C495 C496 1.339 . S
C495 H524 0.949 . S
C496 C495 1.339 . S
C496 C497 1.439 . S
C496 H525 0.950 . S
C497 N493 1.383 . S
C497 C496 1.439 . S
C497 C515 1.392 . S
N498 Co482 2.282 . S
N498 C501 1.332 . S
N498 C503 1.332 . S
C499 C500 1.386 . S
C499 C502 1.388 . S
C500 C499 1.386 . S
C500 C501 1.382 . S
C500 H526 0.950 . S
C501 N498 1.332 . S
C501 C500 1.382 . S
C501 H512 0.952 . S
C502 C499 1.388 . S
C502 C503 1.382 . S
C502 H527 0.950 . S
C503 N498 1.332 . S
C503 C502 1.382 . S
C503 H513 0.948 . S
N504 Co482 2.282 . S
N504 C508 1.332 . S
N504 C509 1.332 . S
C505 C506 1.388 . S
C505 C509 1.382 . S
C505 H528 0.950 . S
C506 C505 1.388 . S
C506 C507 1.386 . S
C507 C506 1.386 . S
C507 C508 1.382 . S
C507 H529 0.950 . S
C508 N504 1.332 . S
C508 C507 1.382 . S
C508 H510 0.952 . S
C509 N504 1.332 . S
C509 C505 1.382 . S
C509 H511 0.948 . S
H510 C508 0.952 . S
H511 C509 0.948 . S
H512 C501 0.952 . S
H513 C503 0.948 . S
C514 C480 1.395 . S
C514 C484 1.391 . S
C515 C477 1.389 . S
C515 C497 1.392 . S
C516 C487 1.392 . S
C516 C489 1.389 . S
C517 C492 1.395 . S
C517 C494 1.391 . S
H518 C478 0.951 . S
H519 C479 0.950 . S
H520 C485 0.949 . S
H521 C486 0.950 . S
H522 C490 0.951 . S
H523 C491 0.950 . S
H524 C495 0.949 . S
H525 C496 0.950 . S
H526 C500 0.950 . S
H527 C502 0.950 . S
H528 C505 0.950 . S
H529 C507 0.950 . S
C530 C531 1.443 . S
C530 N534 1.376 . S
C530 C568 1.389 . S
C531 C530 1.443 . S
C531 C532 1.340 . S
C531 H571 0.951 . S
C532 C531 1.340 . S
C532 C533 1.439 . S
C532 H572 0.950 . S
C533 C532 1.439 . S
C533 N534 1.374 . S
C533 C567 1.395 . S
N534 C530 1.376 . S
N534 C533 1.374 . S
N534 Co535 2.008 . S
Co535 N534 2.008 . S
Co535 N536 1.995 . S
Co535 N541 2.008 1_545 S
Co535 N546 1.995 1_545 S
Co535 N551 2.282 1_545 S
Co535 N557 2.282 . S
N536 Co535 1.995 . S
N536 C537 1.376 . S
N536 C540 1.383 . S
C537 N536 1.376 . S
C537 C538 1.446 . S
C537 C567 1.391 . S
C538 C537 1.446 . S
C538 C539 1.339 . S
C538 H573 0.949 . S
C539 C538 1.339 . S
C539 C540 1.439 . S
C539 H574 0.950 . S
C540 N536 1.383 . S
C540 C539 1.439 . S
C540 C569 1.392 1_545 S
N541 Co535 2.008 1_565 S
N541 C542 1.376 . S
N541 C545 1.374 . S
C542 N541 1.376 . S
C542 C543 1.443 . S
C542 C569 1.389 . S
C543 C542 1.443 . S
C543 C544 1.340 . S
C543 H575 0.951 . S
C544 C543 1.340 . S
C544 C545 1.439 . S
C544 H576 0.950 . S
C545 N541 1.374 . S
C545 C544 1.439 . S
C545 C570 1.395 . S
N546 Co535 1.995 1_565 S
N546 C547 1.376 . S
N546 C550 1.383 . S
C547 N546 1.376 . S
C547 C548 1.446 . S
C547 C570 1.391 . S
C548 C547 1.446 . S
C548 C549 1.339 . S
C548 H577 0.949 . S
C549 C548 1.339 . S
C549 C550 1.439 . S
C549 H578 0.950 . S
C550 N546 1.383 . S
C550 C549 1.439 . S
C550 C568 1.392 1_565 S
N551 Co535 2.282 1_565 S
N551 C554 1.332 . S
N551 C556 1.332 1_565 S
C552 C553 1.386 . S
C552 C555 1.388 1_565 S
C553 C552 1.386 . S
C553 C554 1.382 . S
C553 H579 0.950 . S
C554 N551 1.332 . S
C554 C553 1.382 . S
C554 H565 0.952 . S
C555 C552 1.388 1_545 S
C555 C556 1.382 . S
C555 H580 0.950 . S
C556 N551 1.332 1_545 S
C556 C555 1.382 . S
C556 H566 0.948 . S
N557 Co535 2.282 . S
N557 C561 1.332 . S
N557 C562 1.332 1_545 S
C558 C559 1.388 1_565 S
C558 C562 1.382 . S
C558 H581 0.950 . S
C559 C558 1.388 1_545 S
C559 C560 1.386 . S
C560 C559 1.386 . S
C560 C561 1.382 . S
C560 H582 0.950 . S
C561 N557 1.332 . S
C561 C560 1.382 . S
C561 H563 0.952 . S
C562 N557 1.332 1_565 S
C562 C558 1.382 . S
C562 H564 0.948 . S
H563 C561 0.952 . S
H564 C562 0.948 . S
H565 C554 0.952 . S
H566 C556 0.948 . S
C567 C533 1.395 . S
C567 C537 1.391 . S
C568 C530 1.389 . S
C568 C550 1.392 1_545 S
C569 C540 1.392 1_565 S
C569 C542 1.389 . S
C570 C545 1.395 . S
C570 C547 1.391 . S
H571 C531 0.951 . S
H572 C532 0.950 . S
H573 C538 0.949 . S
H574 C539 0.950 . S
H575 C543 0.951 . S
H576 C544 0.950 . S
H577 C548 0.949 . S
H578 C549 0.950 . S
H579 C553 0.950 . S
H580 C555 0.950 . S
H581 C558 0.950 . S
H582 C560 0.950 . S
C583 C584 1.443 . S
C583 N587 1.376 . S
C583 C621 1.389 . S
C584 C583 1.443 . S
C584 C585 1.340 . S
C584 H624 0.951 . S
C585 C584 1.340 . S
C585 C586 1.439 . S
C585 H625 0.950 . S
C586 C585 1.439 . S
C586 N587 1.374 . S
C586 C620 1.395 . S
N587 C583 1.376 . S
N587 C586 1.374 . S
N587 Co588 2.008 1_556 S
Co588 N587 2.008 1_554 S
Co588 N589 1.995 1_554 S
Co588 N594 2.008 . S
Co588 N599 1.995 . S
Co588 N604 2.282 . S
Co588 N610 2.282 . S
N589 Co588 1.995 1_556 S
N589 C590 1.376 . S
N589 C593 1.383 . S
C590 N589 1.376 . S
C590 C591 1.446 . S
C590 C620 1.391 . S
C591 C590 1.446 . S
C591 C592 1.339 . S
C591 H626 0.949 . S
C592 C591 1.339 . S
C592 C593 1.439 . S
C592 H627 0.950 . S
C593 N589 1.383 . S
C593 C592 1.439 . S
C593 C622 1.392 1_556 S
N594 Co588 2.008 . S
N594 C595 1.376 . S
N594 C598 1.374 . S
C595 N594 1.376 . S
C595 C596 1.443 . S
C595 C622 1.389 . S
C596 C595 1.443 . S
C596 C597 1.340 . S
C596 H628 0.951 . S
C597 C596 1.340 . S
C597 C598 1.439 . S
C597 H629 0.950 . S
C598 N594 1.374 . S
C598 C597 1.439 . S
C598 C623 1.395 . S
N599 Co588 1.995 . S
N599 C600 1.376 . S
N599 C603 1.383 . S
C600 N599 1.376 . S
C600 C601 1.446 . S
C600 C623 1.391 . S
C601 C600 1.446 . S
C601 C602 1.339 . S
C601 H630 0.949 . S
C602 C601 1.339 . S
C602 C603 1.439 . S
C602 H631 0.950 . S
C603 N599 1.383 . S
C603 C602 1.439 . S
C603 C621 1.392 1_554 S
N604 Co588 2.282 . S
N604 C607 1.332 . S
N604 C609 1.332 1_554 S
C605 C606 1.386 . S
C605 C608 1.388 . S
C606 C605 1.386 . S
C606 C607 1.382 . S
C606 H632 0.950 . S
C607 N604 1.332 . S
C607 C606 1.382 . S
C607 H618 0.952 . S
C608 C605 1.388 . S
C608 C609 1.382 1_554 S
C608 H633 0.950 1_554 S
C609 N604 1.332 1_556 S
C609 C608 1.382 1_556 S
C609 H619 0.948 . S
N610 Co588 2.282 . S
N610 C614 1.332 1_554 S
N610 C615 1.332 . S
C611 C612 1.388 1_554 S
C611 C615 1.382 . S
C611 H634 0.950 . S
C612 C611 1.388 1_556 S
C612 C613 1.386 . S
C613 C612 1.386 . S
C613 C614 1.382 . S
C613 H635 0.950 . S
C614 N610 1.332 1_556 S
C614 C613 1.382 . S
C614 H616 0.952 . S
C615 N610 1.332 . S
C615 C611 1.382 . S
C615 H617 0.948 . S
H616 C614 0.952 . S
H617 C615 0.948 . S
H618 C607 0.952 . S
H619 C609 0.948 . S
C620 C586 1.395 . S
C620 C590 1.391 . S
C621 C583 1.389 . S
C621 C603 1.392 1_556 S
C622 C593 1.392 1_554 S
C622 C595 1.389 . S
C623 C598 1.395 . S
C623 C600 1.391 . S
H624 C584 0.951 . S
H625 C585 0.950 . S
H626 C591 0.949 . S
H627 C592 0.950 . S
H628 C596 0.951 . S
H629 C597 0.950 . S
H630 C601 0.949 . S
H631 C602 0.950 . S
H632 C606 0.950 . S
H633 C608 0.950 1_556 S
H634 C611 0.950 . S
H635 C613 0.950 . S
C636 O652 1.251 . S
C636 O654 1.254 . S
N637 C638 1.333 . S
N637 C642 1.307 . S
N637 Zn643 2.020 1_556 S
C638 N637 1.333 . S
C638 C639 1.379 . S
C638 H656 0.952 . S
C639 C638 1.379 . S
C639 C640 1.390 . S
C639 H666 0.949 . S
C640 C639 1.390 . S
C640 C641 1.357 . S
C641 C640 1.357 . S
C641 C642 1.370 . S
C641 H667 0.950 . S
C642 N637 1.307 . S
C642 C641 1.370 . S
C642 H660 0.948 . S
Zn643 N637 2.020 1_554 S
Zn643 O652 2.039 . S
Zn643 O658 2.034 . S
Zn643 O662 2.025 . S
Zn643 O664 2.024 . S
C644 O663 1.246 . S
C644 O664 1.249 . S
N645 C646 1.307 . S
N645 C647 1.333 . S
N645 Zn651 2.020 . S
C646 N645 1.307 . S
C646 C650 1.370 . S
C646 H657 0.948 . S
C647 N645 1.333 . S
C647 C648 1.379 . S
C647 H655 0.952 . S
C648 C647 1.379 . S
C648 C649 1.390 . S
C648 H668 0.949 1_455 S
C649 C648 1.390 . S
C649 C650 1.357 . S
C650 C646 1.370 . S
C650 C649 1.357 . S
C650 H669 0.950 . S
Zn651 N645 2.020 . S
Zn651 O654 2.025 . S
Zn651 O659 2.024 . S
Zn651 O661 2.039 . S
Zn651 O663 2.034 . S
O652 C636 1.251 . S
O652 Zn643 2.039 . S
C653 O658 1.246 . S
C653 O659 1.249 . S
O654 C636 1.254 . S
O654 Zn651 2.025 . S
H655 C647 0.952 . S
H656 C638 0.952 . S
H657 C646 0.948 . S
O658 Zn643 2.034 . S
O658 C653 1.246 . S
O659 Zn651 2.024 . S
O659 C653 1.249 . S
H660 C642 0.948 . S
O661 Zn651 2.039 . S
O661 C665 1.251 . S
O662 Zn643 2.025 . S
O662 C665 1.254 . S
O663 C644 1.246 . S
O663 Zn651 2.034 . S
O664 Zn643 2.024 . S
O664 C644 1.249 . S
C665 O661 1.251 . S
C665 O662 1.254 . S
H666 C639 0.949 . S
H667 C641 0.950 . S
H668 C648 0.949 1_655 S
H669 C650 0.950 . S
C670 O686 1.251 . S
C670 O688 1.254 . S
N671 C672 1.333 . S
N671 C676 1.307 . S
N671 Zn677 2.020 1_556 S
C672 N671 1.333 . S
C672 C673 1.379 . S
C672 H690 0.952 . S
C673 C672 1.379 . S
C673 C674 1.390 . S
C673 H700 0.949 . S
C674 C673 1.390 . S
C674 C675 1.357 . S
C675 C674 1.357 . S
C675 C676 1.370 . S
C675 H701 0.950 . S
C676 N671 1.307 . S
C676 C675 1.370 . S
C676 H694 0.948 1_655 S
Zn677 N671 2.020 1_554 S
Zn677 O686 2.039 . S
Zn677 O692 2.034 . S
Zn677 O696 2.025 1_654 S
Zn677 O698 2.024 . S
C678 O697 1.248 . S
C678 O698 1.249 . S
N679 C680 1.307 . S
N679 C681 1.333 1_655 S
N679 Zn685 2.020 . S
C680 N679 1.307 . S
C680 C684 1.370 . S
C680 H691 0.948 . S
C681 N679 1.333 1_455 S
C681 C682 1.379 . S
C681 H689 0.952 . S
C682 C681 1.379 . S
C682 C683 1.390 . S
C682 H702 0.949 . S
C683 C682 1.390 . S
C683 C684 1.357 1_455 S
C684 C680 1.370 . S
C684 C683 1.357 1_655 S
C684 H703 0.950 . S
Zn685 N679 2.020 . S
Zn685 O688 2.025 . S
Zn685 O693 2.024 . S
Zn685 O695 2.039 1_655 S
Zn685 O697 2.041 . S
O686 C670 1.251 . S
O686 Zn677 2.039 . S
C687 O692 1.246 . S
C687 O693 1.249 . S
O688 C670 1.254 . S
O688 Zn685 2.025 . S
H689 C681 0.952 . S
H690 C672 0.952 . S
H691 C680 0.948 . S
O692 Zn677 2.034 . S
O692 C687 1.246 . S
O693 Zn685 2.024 . S
O693 C687 1.249 . S
H694 C676 0.948 1_455 S
O695 Zn685 2.039 1_455 S
O695 C699 1.251 . S
O696 Zn677 2.025 1_456 S
O696 C699 1.254 1_556 S
O697 C678 1.248 . S
O697 Zn685 2.041 . S
O698 Zn677 2.024 . S
O698 C678 1.249 . S
C699 O695 1.251 . S
C699 O696 1.254 1_554 S
H700 C673 0.949 . S
H701 C675 0.950 . S
H702 C682 0.949 . S
H703 C684 0.950 . S
C704 O720 1.251 . S
C704 O722 1.254 . S
N705 C706 1.333 . S
N705 C710 1.307 . S
N705 Zn711 2.020 . S
C706 N705 1.333 . S
C706 C707 1.379 1_455 S
C706 H724 0.952 1_455 S
C707 C706 1.379 1_655 S
C707 C708 1.390 1_655 S
C707 H734 0.949 . S
C708 C707 1.390 1_455 S
C708 C709 1.357 . S
C709 C708 1.357 . S
C709 C710 1.370 . S
C709 H735 0.950 . S
C710 N705 1.307 . S
C710 C709 1.370 . S
C710 H728 0.948 . S
Zn711 N705 2.020 . S
Zn711 O720 2.039 . S
Zn711 O726 2.038 . S
Zn711 O730 2.025 . S
Zn711 O732 2.024 . S
C712 O731 1.246 . S
C712 O732 1.249 . S
N713 C714 1.307 . S
N713 C715 1.333 . S
N713 Zn719 2.020 . S
C714 N713 1.307 . S
C714 C718 1.370 . S
C714 H725 0.948 . S
C715 N713 1.333 . S
C715 C716 1.379 . S
C715 H723 0.952 . S
C716 C715 1.379 . S
C716 C717 1.390 . S
C716 H736 0.949 . S
C717 C716 1.390 . S
C717 C718 1.357 . S
C718 C714 1.370 . S
C718 C717 1.357 . S
C718 H737 0.950 1_565 S
Zn719 N713 2.020 . S
Zn719 O722 2.025 . S
Zn719 O727 2.024 . S
Zn719 O729 2.039 . S
Zn719 O731 2.034 . S
O720 C704 1.251 . S
O720 Zn711 2.039 . S
C721 O726 1.245 1_655 S
C721 O727 1.249 1_655 S
O722 C704 1.254 . S
O722 Zn719 2.025 . S
H723 C715 0.952 . S
H724 C706 0.952 1_655 S
H725 C714 0.948 . S
O726 Zn711 2.038 . S
O726 C721 1.245 1_455 S
O727 Zn719 2.024 . S
O727 C721 1.249 1_455 S
H728 C710 0.948 . S
O729 Zn719 2.039 . S
O729 C733 1.251 . S
O730 Zn711 2.025 . S
O730 C733 1.254 . S
O731 C712 1.246 . S
O731 Zn719 2.034 . S
O732 Zn711 2.024 . S
O732 C712 1.249 . S
C733 O729 1.251 . S
C733 O730 1.254 . S
H734 C707 0.949 . S
H735 C709 0.950 . S
H736 C716 0.949 . S
H737 C718 0.950 1_545 S
C738 O754 1.251 . S
C738 O756 1.254 . S
N739 C740 1.333 . S
N739 C744 1.307 . S
N739 Zn745 2.020 1_455 S
C740 N739 1.333 . S
C740 C741 1.379 . S
C740 H758 0.952 . S
C741 C740 1.379 . S
C741 C742 1.390 . S
C741 H768 0.949 . S
C742 C741 1.390 . S
C742 C743 1.357 . S
C743 C742 1.357 . S
C743 C744 1.370 . S
C743 H769 0.950 . S
C744 N739 1.307 . S
C744 C743 1.370 . S
C744 H762 0.948 . S
Zn745 N739 2.020 1_655 S
Zn745 O754 2.039 . S
Zn745 O760 2.036 . S
Zn745 O764 2.025 1_655 S
Zn745 O766 2.024 . S
C746 O765 1.246 . S
C746 O766 1.249 . S
N747 C748 1.307 . S
N747 C749 1.333 . S
N747 Zn753 2.020 . S
C748 N747 1.307 . S
C748 C752 1.370 . S
C748 H759 0.948 . S
C749 N747 1.333 . S
C749 C750 1.379 . S
C749 H757 0.952 . S
C750 C749 1.379 . S
C750 C751 1.390 . S
C750 H770 0.949 . S
C751 C750 1.390 . S
C751 C752 1.357 . S
C752 C748 1.370 . S
C752 C751 1.357 . S
C752 H771 0.950 . S
Zn753 N747 2.020 . S
Zn753 O756 2.025 . S
Zn753 O761 2.024 . S
Zn753 O763 2.039 . S
Zn753 O765 2.034 . S
O754 C738 1.251 . S
O754 Zn745 2.039 . S
C755 O760 1.266 . S
C755 O761 1.249 . S
O756 C738 1.254 . S
O756 Zn753 2.025 . S
H757 C749 0.952 . S
H758 C740 0.952 . S
H759 C748 0.948 . S
O760 Zn745 2.036 . S
O760 C755 1.266 . S
O761 Zn753 2.024 . S
O761 C755 1.249 . S
H762 C744 0.948 . S
O763 Zn753 2.039 . S
O763 C767 1.251 . S
O764 Zn745 2.025 1_455 S
O764 C767 1.254 1_455 S
O765 C746 1.246 . S
O765 Zn753 2.034 . S
O766 Zn745 2.024 . S
O766 C746 1.249 . S
C767 O763 1.251 . S
C767 O764 1.254 1_655 S
H768 C741 0.949 . S
H769 C743 0.950 . S
H770 C750 0.949 . S
H771 C752 0.950 . S
C772 O788 1.251 . S
C772 O790 1.254 . S
N773 C774 1.333 . S
N773 C778 1.307 1_565 S
N773 Zn779 2.020 . S
C774 N773 1.333 . S
C774 C775 1.379 1_565 S
C774 H792 0.952 . S
C775 C774 1.379 1_545 S
C775 C776 1.390 . S
C775 H802 0.949 . S
C776 C775 1.390 . S
C776 C777 1.357 . S
C777 C776 1.357 . S
C777 C778 1.370 . S
C777 H803 0.950 . S
C778 N773 1.307 1_545 S
C778 C777 1.370 . S
C778 H796 0.948 . S
Zn779 N773 2.020 . S
Zn779 O788 2.039 . S
Zn779 O794 2.034 . S
Zn779 O798 2.025 . S
Zn779 O800 2.024 1_565 S
C780 O799 1.246 1_545 S
C780 O800 1.249 . S
N781 C782 1.307 . S
N781 C783 1.333 . S
N781 Zn787 2.020 . S
C782 N781 1.307 . S
C782 C786 1.370 . S
C782 H793 0.948 . S
C783 N781 1.333 . S
C783 C784 1.379 . S
C783 H791 0.952 . S
C784 C783 1.379 . S
C784 C785 1.390 . S
C784 H804 0.949 . S
C785 C784 1.390 . S
C785 C786 1.357 . S
C786 C782 1.370 . S
C786 C785 1.357 . S
C786 H805 0.950 . S
Zn787 N781 2.020 . S
Zn787 O790 2.025 . S
Zn787 O795 2.024 . S
Zn787 O797 2.039 . S
Zn787 O799 2.034 . S
O788 C772 1.251 . S
O788 Zn779 2.039 . S
C789 O794 1.246 . S
C789 O795 1.249 . S
O790 C772 1.254 . S
O790 Zn787 2.025 . S
H791 C783 0.952 . S
H792 C774 0.952 . S
H793 C782 0.948 . S
O794 Zn779 2.034 . S
O794 C789 1.246 . S
O795 Zn787 2.024 . S
O795 C789 1.249 . S
H796 C778 0.948 . S
O797 Zn787 2.039 . S
O797 C801 1.251 . S
O798 Zn779 2.025 . S
O798 C801 1.254 . S
O799 C780 1.246 1_565 S
O799 Zn787 2.034 . S
O800 Zn779 2.024 1_545 S
O800 C780 1.249 . S
C801 O797 1.251 . S
C801 O798 1.254 . S
H802 C775 0.949 . S
H803 C777 0.950 . S
H804 C784 0.949 . S
H805 C786 0.950 . S
C806 O822 1.251 . S
C806 O824 1.254 . S
N807 C808 1.333 . S
N807 C812 1.307 . S
N807 Zn813 2.020 . S
C808 N807 1.333 . S
C808 C809 1.379 . S
C808 H826 0.952 . S
C809 C808 1.379 . S
C809 C810 1.390 . S
C809 H836 0.949 . S
C810 C809 1.390 . S
C810 C811 1.357 . S
C811 C810 1.357 . S
C811 C812 1.370 . S
C811 H837 0.950 . S
C812 N807 1.307 . S
C812 C811 1.370 . S
C812 H830 0.948 . S
Zn813 N807 2.020 . S
Zn813 O822 2.039 . S
Zn813 O828 2.034 . S
Zn813 O832 2.025 . S
Zn813 O834 2.024 . S
C814 O833 1.246 . S
C814 O834 1.249 . S
N815 C816 1.307 . S
N815 C817 1.333 . S
N815 Zn821 2.020 . S
C816 N815 1.307 . S
C816 C820 1.370 . S
C816 H827 0.948 . S
C817 N815 1.333 . S
C817 C818 1.379 . S
C817 H825 0.952 . S
C818 C817 1.379 . S
C818 C819 1.390 . S
C818 H838 0.949 . S
C819 C818 1.390 . S
C819 C820 1.357 . S
C820 C816 1.370 . S
C820 C819 1.357 . S
C820 H839 0.950 . S
Zn821 N815 2.020 . S
Zn821 O824 2.025 . S
Zn821 O829 2.024 . S
Zn821 O831 2.039 . S
Zn821 O833 2.034 . S
O822 C806 1.251 . S
O822 Zn813 2.039 . S
C823 O828 1.246 . S
C823 O829 1.249 . S
O824 C806 1.254 . S
O824 Zn821 2.025 . S
H825 C817 0.952 . S
H826 C808 0.952 . S
H827 C816 0.948 . S
O828 Zn813 2.034 . S
O828 C823 1.246 . S
O829 Zn821 2.024 . S
O829 C823 1.249 . S
H830 C812 0.948 . S
O831 Zn821 2.039 . S
O831 C835 1.251 . S
O832 Zn813 2.025 . S
O832 C835 1.254 . S
O833 C814 1.246 . S
O833 Zn821 2.034 . S
O834 Zn813 2.024 . S
O834 C814 1.249 . S
C835 O831 1.251 . S
C835 O832 1.254 . S
H836 C809 0.949 . S
H837 C811 0.950 . S
H838 C818 0.949 . S
H839 C820 0.950 . S
C840 O856 1.251 . S
C840 O858 1.254 . S
N841 C842 1.333 . S
N841 C846 1.307 . S
N841 Zn847 2.020 . S
C842 N841 1.333 . S
C842 C843 1.379 . S
C842 H860 0.952 . S
C843 C842 1.379 . S
C843 C844 1.390 . S
C843 H870 0.949 . S
C844 C843 1.390 . S
C844 C845 1.357 . S
C845 C844 1.357 . S
C845 C846 1.370 . S
C845 H871 0.950 . S
C846 N841 1.307 . S
C846 C845 1.370 . S
C846 H864 0.948 . S
Zn847 N841 2.020 . S
Zn847 O856 2.039 . S
Zn847 O862 2.034 . S
Zn847 O866 2.025 . S
Zn847 O868 2.024 . S
C848 O867 1.246 . S
C848 O868 1.249 . S
N849 C850 1.307 . S
N849 C851 1.333 . S
N849 Zn855 2.020 1_554 S
C850 N849 1.307 . S
C850 C854 1.370 . S
C850 H861 0.948 . S
C851 N849 1.333 . S
C851 C852 1.379 . S
C851 H859 0.952 . S
C852 C851 1.379 . S
C852 C853 1.390 . S
C852 H872 0.949 . S
C853 C852 1.390 . S
C853 C854 1.357 . S
C854 C850 1.370 . S
C854 C853 1.357 . S
C854 H873 0.950 . S
Zn855 N849 2.020 1_556 S
Zn855 O858 2.025 . S
Zn855 O863 2.024 . S
Zn855 O865 2.039 . S
Zn855 O867 2.034 . S
O856 C840 1.251 . S
O856 Zn847 2.039 . S
C857 O862 1.246 . S
C857 O863 1.249 . S
O858 C840 1.254 . S
O858 Zn855 2.025 . S
H859 C851 0.952 . S
H860 C842 0.952 . S
H861 C850 0.948 . S
O862 Zn847 2.034 . S
O862 C857 1.246 . S
O863 Zn855 2.024 . S
O863 C857 1.249 . S
H864 C846 0.948 . S
O865 Zn855 2.039 . S
O865 C869 1.251 . S
O866 Zn847 2.025 . S
O866 C869 1.254 . S
O867 C848 1.246 . S
O867 Zn855 2.034 . S
O868 Zn847 2.024 . S
O868 C848 1.249 . S
C869 O865 1.251 . S
C869 O866 1.254 . S
H870 C843 0.949 . S
H871 C845 0.950 . S
H872 C852 0.949 . S
H873 C854 0.950 . S
C874 O890 1.251 . S
C874 O892 1.254 . S
N875 C876 1.333 . S
N875 C880 1.307 . S
N875 Zn881 2.020 . S
C876 N875 1.333 . S
C876 C877 1.379 . S
C876 H894 0.952 . S
C877 C876 1.379 . S
C877 C878 1.390 . S
C877 H904 0.949 . S
C878 C877 1.390 . S
C878 C879 1.357 . S
C879 C878 1.357 . S
C879 C880 1.370 . S
C879 H905 0.950 . S
C880 N875 1.307 . S
C880 C879 1.370 . S
C880 H898 0.948 . S
Zn881 N875 2.020 . S
Zn881 O890 2.039 . S
Zn881 O896 2.034 . S
Zn881 O900 2.025 . S
Zn881 O902 2.024 . S
C882 O901 1.246 . S
C882 O902 1.249 . S
N883 C884 1.307 . S
N883 C885 1.352 . S
N883 Zn889 2.020 . S
C884 N883 1.307 . S
C884 C888 1.370 . S
C884 H895 0.948 . S
C885 N883 1.352 . S
C885 C886 1.372 1_545 S
C885 H893 0.939 1_545 S
C886 C885 1.372 1_565 S
C886 C887 1.390 1_565 S
C886 H906 0.949 . S
C887 C886 1.390 1_545 S
C887 C888 1.357 . S
C888 C884 1.370 . S
C888 C887 1.357 . S
C888 H907 0.950 . S
Zn889 N883 2.020 . S
Zn889 O892 2.025 . S
Zn889 O897 2.024 . S
Zn889 O899 2.039 . S
Zn889 O901 2.034 . S
O890 C874 1.251 . S
O890 Zn881 2.039 . S
C891 O896 1.246 . S
C891 O897 1.249 . S
O892 C874 1.254 . S
O892 Zn889 2.025 . S
H893 C885 0.939 1_565 S
H894 C876 0.952 . S
H895 C884 0.948 . S
O896 Zn881 2.034 . S
O896 C891 1.246 . S
O897 Zn889 2.024 . S
O897 C891 1.249 . S
H898 C880 0.948 . S
O899 Zn889 2.039 . S
O899 C903 1.252 . S
O900 Zn881 2.025 . S
O900 C903 1.259 . S
O901 C882 1.246 . S
O901 Zn889 2.034 . S
O902 Zn881 2.024 . S
O902 C882 1.249 . S
C903 O899 1.252 . S
C903 O900 1.259 . S
H904 C877 0.949 . S
H905 C879 0.950 . S
H906 C886 0.949 . S
H907 C888 0.950 . S
C908 C909 1.387 1_655 S
C908 H912 0.950 . S
C908 C917 1.390 . S
C909 C908 1.387 1_455 S
C909 C911 1.387 . S
H910 C917 0.950 . S
C911 C909 1.387 . S
C911 C913 1.390 . S
C911 H915 0.950 . S
H912 C908 0.950 . S
C913 C911 1.390 . S
C913 C914 1.387 . S
C913 H916 0.950 . S
C914 C913 1.387 . S
C914 C917 1.387 1_455 S
H915 C911 0.950 . S
H916 C913 0.950 . S
C917 C908 1.390 . S
C917 H910 0.950 . S
C917 C914 1.387 1_655 S
C918 C919 1.387 . S
C918 H922 0.950 . S
C918 C927 1.390 . S
C919 C918 1.387 . S
C919 C921 1.387 1_655 S
H920 C927 0.950 . S
C921 C919 1.387 1_455 S
C921 C923 1.390 . S
C921 H925 0.950 . S
H922 C918 0.950 . S
C923 C921 1.390 . S
C923 C924 1.387 1_455 S
C923 H926 0.950 . S
C924 C923 1.387 1_655 S
C924 C927 1.387 . S
H925 C921 0.950 . S
H926 C923 0.950 . S
C927 C918 1.390 . S
C927 H920 0.950 . S
C927 C924 1.387 . S
C928 C929 1.387 . S
C928 H932 0.950 . S
C928 C937 1.390 . S
C929 C928 1.387 . S
C929 C931 1.387 . S
H930 C937 0.950 . S
C931 C929 1.387 . S
C931 C933 1.390 . S
C931 H935 0.950 . S
H932 C928 0.950 . S
C933 C931 1.390 . S
C933 C934 1.387 . S
C933 H936 0.950 . S
C934 C933 1.387 . S
C934 C937 1.387 . S
H935 C931 0.950 . S
H936 C933 0.950 . S
C937 C928 1.390 . S
C937 H930 0.950 . S
C937 C934 1.387 . S
C938 C939 1.377 1_655 S
C938 H942 0.950 . S
C938 C947 1.390 . S
C939 C938 1.377 1_455 S
C939 C941 1.397 . S
H940 C947 0.950 . S
C941 C939 1.397 . S
C941 C943 1.390 . S
C941 H945 0.950 . S
H942 C938 0.950 . S
C943 C941 1.390 . S
C943 C944 1.387 . S
C943 H946 0.950 . S
C944 C943 1.387 . S
C944 C947 1.387 1_455 S
H945 C941 0.950 . S
H946 C943 0.950 . S
C947 C938 1.390 . S
C947 H940 0.950 . S
C947 C944 1.387 1_655 S
C948 C949 1.387 . S
C948 H952 0.950 . S
C948 C957 1.390 . S
C949 C948 1.387 . S
C949 C951 1.387 . S
H950 C957 0.950 . S
C951 C949 1.387 . S
C951 C953 1.390 . S
C951 H955 0.950 1_545 S
H952 C948 0.950 . S
C953 C951 1.390 . S
C953 C954 1.387 . S
C953 H956 0.950 1_545 S
C954 C953 1.387 . S
C954 C957 1.387 . S
H955 C951 0.950 1_565 S
H956 C953 0.950 1_565 S
C957 C948 1.390 . S
C957 H950 0.950 . S
C957 C954 1.387 . S
C958 C959 1.387 . S
C958 H962 0.950 . S
C958 C967 1.390 . S
C959 C958 1.387 . S
C959 C961 1.387 . S
H960 C967 0.950 . S
C961 C959 1.387 . S
C961 C963 1.390 . S
C961 H965 0.950 . S
H962 C958 0.950 . S
C963 C961 1.390 . S
C963 C964 1.387 . S
C963 H966 0.950 . S
C964 C963 1.387 . S
C964 C967 1.387 . S
H965 C961 0.950 . S
H966 C963 0.950 . S
C967 C958 1.390 . S
C967 H960 0.950 . S
C967 C964 1.387 . S
C968 C969 1.387 1_565 S
C968 H972 0.950 . S
C968 C977 1.390 . S
C969 C968 1.387 1_545 S
C969 C971 1.387 . S
H970 C977 0.950 . S
C971 C969 1.387 . S
C971 C973 1.390 . S
C971 H975 0.950 . S
H972 C968 0.950 . S
C973 C971 1.390 . S
C973 C974 1.387 . S
C973 H976 0.950 . S
C974 C973 1.387 . S
C974 C977 1.387 1_545 S
H975 C971 0.950 . S
H976 C973 0.950 . S
C977 C968 1.390 . S
C977 H970 0.950 . S
C977 C974 1.387 1_565 S
C978 C979 1.387 . S
C978 H982 0.950 . S
C978 C987 1.390 . S
C979 C978 1.387 . S
C979 C981 1.387 . S
H980 C987 0.950 . S
C981 C979 1.387 . S
C981 C983 1.390 . S
C981 H985 0.950 . S
H982 C978 0.950 . S
C983 C981 1.390 . S
C983 C984 1.387 . S
C983 H986 0.950 . S
C984 C983 1.387 . S
C984 C987 1.387 . S
H985 C981 0.950 . S
H986 C983 0.950 . S
C987 C978 1.390 . S
C987 H980 0.950 . S
C987 C984 1.387 . S
C988 C989 1.387 1_556 S
C988 H992 0.950 . S
C988 C997 1.390 . S
C989 C988 1.387 1_554 S
C989 C991 1.387 . S
H990 C997 0.950 . S
C991 C989 1.387 . S
C991 C993 1.390 . S
C991 H995 0.950 . S
H992 C988 0.950 . S
C993 C991 1.390 . S
C993 C994 1.387 . S
C993 H996 0.950 . S
C994 C993 1.387 . S
C994 C997 1.387 1_554 S
H995 C991 0.950 . S
H996 C993 0.950 . S
C997 C988 1.390 . S
C997 H990 0.950 . S
C997 C994 1.387 1_556 S
C998 C999 1.387 . S
C998 H1002 0.950 . S
C998 C1007 1.390 . S
C999 C998 1.387 . S
C999 C1001 1.387 . S
H1000 C1007 0.950 . S
C1001 C999 1.387 . S
C1001 C1003 1.390 . S
C1001 H1005 0.950 . S
H1002 C998 0.950 . S
C1003 C1001 1.390 . S
C1003 C1004 1.387 . S
C1003 H1006 0.950 . S
C1004 C1003 1.387 . S
C1004 C1007 1.387 . S
H1005 C1001 0.950 . S
H1006 C1003 0.950 . S
C1007 C998 1.390 . S
C1007 H1000 0.950 . S
C1007 C1004 1.387 . S
C1008 C1009 1.387 . S
C1008 H1012 0.950 . S
C1008 C1017 1.390 . S
C1009 C1008 1.387 . S
C1009 C1011 1.387 . S
H1010 C1017 0.950 . S
C1011 C1009 1.387 . S
C1011 C1013 1.390 . S
C1011 H1015 0.950 . S
H1012 C1008 0.950 . S
C1013 C1011 1.390 . S
C1013 C1014 1.387 . S
C1013 H1016 0.950 . S
C1014 C1013 1.387 . S
C1014 C1017 1.387 . S
H1015 C1011 0.950 . S
H1016 C1013 0.950 . S
C1017 C1008 1.390 . S
C1017 H1010 0.950 . S
C1017 C1014 1.387 . S
C1018 C1019 1.387 . S
C1018 H1022 0.950 . S
C1018 C1027 1.390 . S
C1019 C1018 1.387 . S
C1019 C1021 1.387 . S
H1020 C1027 0.950 . S
C1021 C1019 1.387 . S
C1021 C1023 1.390 . S
C1021 H1025 0.950 . S
H1022 C1018 0.950 . S
C1023 C1021 1.390 . S
C1023 C1024 1.387 . S
C1023 H1026 0.950 . S
C1024 C1023 1.387 . S
C1024 C1027 1.387 . S
H1025 C1021 0.950 . S
H1026 C1023 0.950 . S
C1027 C1018 1.390 . S
C1027 H1020 0.950 . S
C1027 C1024 1.387 . S
C1028 C1029 1.387 . S
C1028 H1032 0.950 . S
C1028 C1037 1.390 . S
C1029 C1028 1.387 . S
C1029 C1031 1.387 . S
H1030 C1037 0.950 . S
C1031 C1029 1.387 . S
C1031 C1033 1.390 . S
C1031 H1035 0.950 . S
H1032 C1028 0.950 . S
C1033 C1031 1.390 . S
C1033 C1034 1.387 . S
C1033 H1036 0.950 . S
C1034 C1033 1.387 . S
C1034 C1037 1.387 . S
H1035 C1031 0.950 . S
H1036 C1033 0.950 . S
C1037 C1028 1.390 . S
C1037 H1030 0.950 . S
C1037 C1034 1.387 . S
C1038 C1039 1.387 . S
C1038 H1042 0.950 . S
C1038 C1047 1.390 . S
C1039 C1038 1.387 . S
C1039 C1041 1.387 . S
H1040 C1047 0.950 . S
C1041 C1039 1.387 . S
C1041 C1043 1.390 . S
C1041 H1045 0.950 . S
H1042 C1038 0.950 . S
C1043 C1041 1.390 . S
C1043 C1044 1.387 . S
C1043 H1046 0.950 . S
C1044 C1043 1.387 . S
C1044 C1047 1.387 . S
H1045 C1041 0.950 . S
H1046 C1043 0.950 . S
C1047 C1038 1.390 . S
C1047 H1040 0.950 . S
C1047 C1044 1.387 . S
C1048 C1049 1.387 . S
C1048 H1052 0.950 . S
C1048 C1057 1.390 . S
C1049 C1048 1.387 . S
C1049 C1051 1.387 . S
H1050 C1057 0.950 . S
C1051 C1049 1.387 . S
C1051 C1053 1.390 . S
C1051 H1055 0.950 . S
H1052 C1048 0.950 . S
C1053 C1051 1.390 . S
C1053 C1054 1.387 . S
C1053 H1056 0.950 . S
C1054 C1053 1.387 . S
C1054 C1057 1.387 . S
H1055 C1051 0.950 . S
H1056 C1053 0.950 . S
C1057 C1048 1.390 . S
C1057 H1050 0.950 . S
C1057 C1054 1.387 . S
C1058 C1059 1.387 . S
C1058 H1062 0.950 . S
C1058 C1067 1.390 . S
C1059 C1058 1.387 . S
C1059 C1061 1.387 . S
H1060 C1067 0.950 . S
C1061 C1059 1.387 . S
C1061 C1063 1.390 . S
C1061 H1065 0.950 . S
H1062 C1058 0.950 . S
C1063 C1061 1.390 . S
C1063 C1064 1.387 . S
C1063 H1066 0.950 . S
C1064 C1063 1.387 . S
C1064 C1067 1.387 . S
H1065 C1061 0.950 . S
H1066 C1063 0.950 . S
C1067 C1058 1.390 . S
C1067 H1060 0.950 . S
C1067 C1064 1.387 . S
C1068 C1069 1.387 . S
C1068 H1072 0.950 . S
C1068 C1077 1.390 . S
C1069 C1068 1.387 . S
C1069 C1071 1.387 . S
H1070 C1077 0.950 . S
C1071 C1069 1.387 . S
C1071 C1073 1.390 . S
C1071 H1075 0.950 . S
H1072 C1068 0.950 . S
C1073 C1071 1.390 . S
C1073 C1074 1.387 . S
C1073 H1076 0.950 . S
C1074 C1073 1.387 . S
C1074 C1077 1.387 . S
H1075 C1071 0.950 . S
H1076 C1073 0.950 . S
C1077 C1068 1.390 . S
C1077 H1070 0.950 . S
C1077 C1074 1.387 . S
C1078 C1079 1.387 . S
C1078 H1082 0.950 . S
C1078 C1087 1.390 . S
C1079 C1078 1.387 . S
C1079 C1081 1.387 1_565 S
H1080 C1087 0.950 . S
C1081 C1079 1.387 1_545 S
C1081 C1083 1.390 . S
C1081 H1085 0.950 . S
H1082 C1078 0.950 . S
C1083 C1081 1.390 . S
C1083 C1084 1.387 1_545 S
C1083 H1086 0.950 . S
C1084 C1083 1.387 1_565 S
C1084 C1087 1.387 . S
H1085 C1081 0.950 . S
H1086 C1083 0.950 . S
C1087 C1078 1.390 . S
C1087 H1080 0.950 . S
C1087 C1084 1.387 . S
C1088 C1089 1.387 . S
C1088 H1092 0.950 . S
C1088 C1097 1.390 . S
C1089 C1088 1.387 . S
C1089 C1091 1.387 . S
H1090 C1097 0.950 . S
C1091 C1089 1.387 . S
C1091 C1093 1.390 . S
C1091 H1095 0.950 . S
H1092 C1088 0.950 . S
C1093 C1091 1.390 . S
C1093 C1094 1.387 . S
C1093 H1096 0.950 . S
C1094 C1093 1.387 . S
C1094 C1097 1.387 . S
H1095 C1091 0.950 . S
H1096 C1093 0.950 . S
C1097 C1088 1.390 . S
C1097 H1090 0.950 . S
C1097 C1094 1.387 . S
C1098 C1099 1.387 . S
C1098 H1102 0.950 . S
C1098 C1107 1.390 . S
C1099 C1098 1.387 . S
C1099 C1101 1.387 1_545 S
H1100 C1107 0.950 . S
C1101 C1099 1.387 1_565 S
C1101 C1103 1.390 . S
C1101 H1105 0.950 . S
H1102 C1098 0.950 . S
C1103 C1101 1.390 . S
C1103 C1104 1.387 1_565 S
C1103 H1106 0.950 . S
C1104 C1103 1.387 1_545 S
C1104 C1107 1.387 . S
H1105 C1101 0.950 . S
H1106 C1103 0.950 . S
C1107 C1098 1.390 . S
C1107 H1100 0.950 . S
C1107 C1104 1.387 . S
C1108 C1109 1.387 . S
C1108 H1112 0.950 . S
C1108 C1117 1.390 . S
C1109 C1108 1.387 . S
C1109 C1111 1.387 . S
H1110 C1117 0.950 . S
C1111 C1109 1.387 . S
C1111 C1113 1.390 . S
C1111 H1115 0.950 . S
H1112 C1108 0.950 . S
C1113 C1111 1.390 . S
C1113 C1114 1.387 . S
C1113 H1116 0.950 . S
C1114 C1113 1.387 . S
C1114 C1117 1.387 . S
H1115 C1111 0.950 . S
H1116 C1113 0.950 . S
C1117 C1108 1.390 . S
C1117 H1110 0.950 . S
C1117 C1114 1.387 . S
C1118 C1119 1.387 . S
C1118 H1122 0.950 . S
C1118 C1127 1.390 . S
C1119 C1118 1.387 . S
C1119 C1121 1.387 1_556 S
H1120 C1127 0.950 . S
C1121 C1119 1.387 1_554 S
C1121 C1123 1.390 . S
C1121 H1125 0.950 . S
H1122 C1118 0.950 . S
C1123 C1121 1.390 . S
C1123 C1124 1.387 1_554 S
C1123 H1126 0.950 . S
C1124 C1123 1.387 1_556 S
C1124 C1127 1.387 . S
H1125 C1121 0.950 . S
H1126 C1123 0.950 . S
C1127 C1118 1.390 . S
C1127 H1120 0.950 . S
C1127 C1124 1.387 . S
C1128 C1129 1.387 . S
C1128 H1132 0.950 . S
C1128 C1137 1.390 . S
C1129 C1128 1.387 . S
C1129 C1131 1.387 1_556 S
H1130 C1137 0.950 . S
C1131 C1129 1.387 1_554 S
C1131 C1133 1.390 . S
C1131 H1135 0.950 . S
H1132 C1128 0.950 . S
C1133 C1131 1.390 . S
C1133 C1134 1.387 1_554 S
C1133 H1136 0.950 . S
C1134 C1133 1.387 1_556 S
C1134 C1137 1.387 . S
H1135 C1131 0.950 . S
H1136 C1133 0.950 . S
C1137 C1128 1.390 . S
C1137 H1130 0.950 . S
C1137 C1134 1.387 . S
C1138 C1139 1.387 . S
C1138 H1142 0.950 . S
C1138 C1147 1.390 . S
C1139 C1138 1.387 . S
C1139 C1141 1.387 . S
H1140 C1147 0.950 . S
C1141 C1139 1.387 . S
C1141 C1143 1.368 1_655 S
C1141 H1145 0.950 . S
H1142 C1138 0.950 . S
C1143 C1141 1.368 1_455 S
C1143 C1144 1.392 . S
C1143 H1146 0.968 . S
C1144 C1143 1.392 . S
C1144 C1147 1.387 1_455 S
H1145 C1141 0.950 . S
H1146 C1143 0.968 . S
C1147 C1138 1.390 . S
C1147 H1140 0.950 . S
C1147 C1144 1.387 1_655 S
C1148 C1149 1.387 . S
C1148 H1152 0.950 . S
C1148 C1157 1.390 . S
C1149 C1148 1.387 . S
C1149 C1151 1.387 . S
H1150 C1157 0.950 . S
C1151 C1149 1.387 . S
C1151 C1153 1.390 . S
C1151 H1155 0.950 . S
H1152 C1148 0.950 . S
C1153 C1151 1.390 . S
C1153 C1154 1.387 . S
C1153 H1156 0.950 . S
C1154 C1153 1.387 . S
C1154 C1157 1.387 . S
H1155 C1151 0.950 . S
H1156 C1153 0.950 . S
C1157 C1148 1.390 . S
C1157 H1150 0.950 . S
C1157 C1154 1.387 . S
C1158 C1159 1.387 . S
C1158 H1162 0.950 . S
C1158 C1167 1.390 . S
C1159 C1158 1.387 . S
C1159 C1161 1.387 1_655 S
H1160 C1167 0.950 . S
C1161 C1159 1.387 1_455 S
C1161 C1163 1.390 . S
C1161 H1165 0.950 . S
H1162 C1158 0.950 . S
C1163 C1161 1.390 . S
C1163 C1164 1.387 . S
C1163 H1166 0.950 . S
C1164 C1163 1.387 . S
C1164 C1167 1.387 1_455 S
H1165 C1161 0.950 . S
H1166 C1163 0.950 . S
C1167 C1158 1.390 . S
C1167 H1160 0.950 . S
C1167 C1164 1.387 1_655 S
C1168 C1169 1.387 . S
C1168 H1172 0.950 . S
C1168 C1177 1.390 . S
C1169 C1168 1.387 . S
C1169 C1171 1.370 1_455 S
H1170 C1177 0.950 . S
C1171 C1169 1.370 1_655 S
C1171 C1173 1.395 . S
C1171 H1175 0.963 . S
H1172 C1168 0.950 . S
C1173 C1171 1.395 . S
C1173 C1174 1.387 1_655 S
C1173 H1176 0.950 . S
C1174 C1173 1.387 1_455 S
C1174 C1177 1.387 . S
H1175 C1171 0.963 . S
H1176 C1173 0.950 . S
C1177 C1168 1.390 . S
C1177 H1170 0.950 . S
C1177 C1174 1.387 . S
C1178 C1179 1.387 . S
C1178 H1182 0.950 . S
C1178 C1187 1.390 . S
C1179 C1178 1.387 . S
C1179 C1181 1.387 1_655 S
H1180 C1187 0.950 . S
C1181 C1179 1.387 1_455 S
C1181 C1183 1.390 . S
C1181 H1185 0.950 . S
H1182 C1178 0.950 . S
C1183 C1181 1.390 . S
C1183 C1184 1.387 1_455 S
C1183 H1186 0.950 . S
C1184 C1183 1.387 1_655 S
C1184 C1187 1.387 . S
H1185 C1181 0.950 . S
H1186 C1183 0.950 . S
C1187 C1178 1.390 . S
C1187 H1180 0.950 . S
C1187 C1184 1.387 . S
C1188 C1189 1.397 . S
C1188 H1192 0.940 1_545 S
C1188 C1197 1.390 . S
C1189 C1188 1.397 . S
C1189 C1191 1.387 . S
H1190 C1197 0.938 1_565 S
C1191 C1189 1.387 . S
C1191 C1193 1.390 . S
C1191 H1195 0.950 . S
H1192 C1188 0.940 1_565 S
C1193 C1191 1.390 . S
C1193 C1194 1.387 . S
C1193 H1196 0.950 . S
C1194 C1193 1.387 . S
C1194 C1197 1.399 . S
H1195 C1191 0.950 . S
H1196 C1193 0.950 . S
C1197 C1188 1.390 . S
C1197 H1190 0.938 1_545 S
C1197 C1194 1.399 . S
C1198 C1199 1.387 . S
C1198 H1202 0.950 . S
C1198 C1207 1.390 . S
C1199 C1198 1.387 . S
C1199 C1201 1.387 . S
H1200 C1207 0.950 . S
C1201 C1199 1.387 . S
C1201 C1203 1.390 . S
C1201 H1205 0.950 . S
H1202 C1198 0.950 . S
C1203 C1201 1.390 . S
C1203 C1204 1.387 . S
C1203 H1206 0.950 . S
C1204 C1203 1.387 . S
C1204 C1207 1.387 . S
H1205 C1201 0.950 . S
H1206 C1203 0.950 . S
C1207 C1198 1.390 . S
C1207 H1200 0.950 . S
C1207 C1204 1.387 . S
C1208 C1209 1.387 1_545 S
C1208 H1212 0.950 . S
C1208 C1217 1.390 1_545 S
C1209 C1208 1.387 1_565 S
C1209 C1211 1.387 . S
H1210 C1217 0.950 1_545 S
C1211 C1209 1.387 . S
C1211 C1213 1.390 . S
C1211 H1215 0.950 . S
H1212 C1208 0.950 . S
C1213 C1211 1.390 . S
C1213 C1214 1.387 . S
C1213 H1216 0.950 . S
C1214 C1213 1.387 . S
C1214 C1217 1.387 . S
H1215 C1211 0.950 . S
H1216 C1213 0.950 . S
C1217 C1208 1.390 1_565 S
C1217 H1210 0.950 1_565 S
C1217 C1214 1.387 . S
C1218 C1219 1.387 . S
C1218 H1222 0.950 . S
C1218 C1227 1.390 . S
C1219 C1218 1.387 . S
C1219 C1221 1.387 . S
H1220 C1227 0.950 . S
C1221 C1219 1.387 . S
C1221 C1223 1.390 . S
C1221 H1225 0.950 . S
H1222 C1218 0.950 . S
C1223 C1221 1.390 . S
C1223 C1224 1.387 . S
C1223 H1226 0.950 . S
C1224 C1223 1.387 . S
C1224 C1227 1.387 . S
H1225 C1221 0.950 . S
H1226 C1223 0.950 . S
C1227 C1218 1.390 . S
C1227 H1220 0.950 . S
C1227 C1224 1.387 . S
C1228 C1229 1.387 . S
C1228 H1232 0.950 . S
C1228 C1237 1.390 . S
C1229 C1228 1.387 . S
C1229 C1231 1.387 1_554 S
H1230 C1237 0.950 . S
C1231 C1229 1.387 1_556 S
C1231 C1233 1.390 1_556 S
C1231 H1235 0.950 . S
H1232 C1228 0.950 . S
C1233 C1231 1.390 1_554 S
C1233 C1234 1.387 . S
C1233 H1236 0.950 1_554 S
C1234 C1233 1.387 . S
C1234 C1237 1.387 . S
H1235 C1231 0.950 . S
H1236 C1233 0.950 1_556 S
C1237 C1228 1.390 . S
C1237 H1230 0.950 . S
C1237 C1234 1.387 . S
C1238 C1239 1.387 . S
C1238 H1242 0.950 . S
C1238 C1247 1.390 . S
C1239 C1238 1.387 . S
C1239 C1241 1.387 . S
H1240 C1247 0.950 . S
C1241 C1239 1.387 . S
C1241 C1243 1.390 . S
C1241 H1245 0.950 . S
H1242 C1238 0.950 . S
C1243 C1241 1.390 . S
C1243 C1244 1.387 . S
C1243 H1246 0.950 . S
C1244 C1243 1.387 . S
C1244 C1247 1.387 . S
H1245 C1241 0.950 . S
H1246 C1243 0.950 . S
C1247 C1238 1.390 . S
C1247 H1240 0.950 . S
C1247 C1244 1.387 . S
C1248 C1249 1.387 . S
C1248 H1252 0.950 . S
C1248 C1257 1.390 . S
C1249 C1248 1.387 . S
C1249 C1251 1.387 . S
H1250 C1257 0.950 . S
C1251 C1249 1.387 . S
C1251 C1253 1.390 . S
C1251 H1255 0.950 . S
H1252 C1248 0.950 . S
C1253 C1251 1.390 . S
C1253 C1254 1.387 . S
C1253 H1256 0.950 . S
C1254 C1253 1.387 . S
C1254 C1257 1.387 . S
H1255 C1251 0.950 . S
H1256 C1253 0.950 . S
C1257 C1248 1.390 . S
C1257 H1250 0.950 . S
C1257 C1254 1.387 . S
C1258 C1259 1.387 . S
C1258 H1262 0.950 . S
C1258 C1267 1.390 . S
C1259 C1258 1.387 . S
C1259 C1261 1.387 . S
H1260 C1267 0.950 . S
C1261 C1259 1.387 . S
C1261 C1263 1.390 . S
C1261 H1265 0.950 . S
H1262 C1258 0.950 . S
C1263 C1261 1.390 . S
C1263 C1264 1.387 . S
C1263 H1266 0.950 . S
C1264 C1263 1.387 . S
C1264 C1267 1.387 . S
H1265 C1261 0.950 . S
H1266 C1263 0.950 . S
C1267 C1258 1.390 . S
C1267 H1260 0.950 . S
C1267 C1264 1.387 . S
C1268 C1269 1.387 . S
C1268 H1272 0.950 . S
C1268 C1277 1.390 . S
C1269 C1268 1.387 . S
C1269 C1271 1.387 . S
H1270 C1277 0.950 . S
C1271 C1269 1.387 . S
C1271 C1273 1.390 . S
C1271 H1275 0.950 . S
H1272 C1268 0.950 . S
C1273 C1271 1.390 . S
C1273 C1274 1.387 . S
C1273 H1276 0.950 . S
C1274 C1273 1.387 . S
C1274 C1277 1.387 . S
H1275 C1271 0.950 . S
H1276 C1273 0.950 . S
C1277 C1268 1.390 . S
C1277 H1270 0.950 . S
C1277 C1274 1.387 . S
C1278 C1279 1.387 . S
C1278 H1282 0.950 . S
C1278 C1287 1.390 . S
C1279 C1278 1.387 . S
C1279 C1281 1.387 . S
H1280 C1287 0.950 . S
C1281 C1279 1.387 . S
C1281 C1283 1.390 . S
C1281 H1285 0.950 . S
H1282 C1278 0.950 . S
C1283 C1281 1.390 . S
C1283 C1284 1.387 . S
C1283 H1286 0.950 . S
C1284 C1283 1.387 . S
C1284 C1287 1.387 . S
H1285 C1281 0.950 . S
H1286 C1283 0.950 . S
C1287 C1278 1.390 . S
C1287 H1280 0.950 . S
C1287 C1284 1.387 . S
C1288 C1289 1.387 . S
C1288 H1292 0.950 . S
C1288 C1297 1.390 . S
C1289 C1288 1.387 . S
C1289 C1291 1.387 . S
H1290 C1297 0.950 . S
C1291 C1289 1.387 . S
C1291 C1293 1.390 . S
C1291 H1295 0.950 . S
H1292 C1288 0.950 . S
C1293 C1291 1.390 . S
C1293 C1294 1.387 . S
C1293 H1296 0.950 . S
C1294 C1293 1.387 . S
C1294 C1297 1.387 . S
H1295 C1291 0.950 . S
H1296 C1293 0.950 . S
C1297 C1288 1.390 . S
C1297 H1290 0.950 . S
C1297 C1294 1.387 . S
C1298 C1299 1.387 . S
C1298 H1302 0.950 . S
C1298 C1307 1.390 . S
C1299 C1298 1.387 . S
C1299 C1301 1.387 . S
H1300 C1307 0.950 . S
C1301 C1299 1.387 . S
C1301 C1303 1.390 . S
C1301 H1305 0.950 . S
H1302 C1298 0.950 . S
C1303 C1301 1.390 . S
C1303 C1304 1.387 . S
C1303 H1306 0.950 . S
C1304 C1303 1.387 . S
C1304 C1307 1.387 . S
H1305 C1301 0.950 . S
H1306 C1303 0.950 . S
C1307 C1298 1.390 . S
C1307 H1300 0.950 . S
C1307 C1304 1.387 . S
C1308 C1309 1.387 . S
C1308 H1312 0.950 . S
C1308 C1317 1.390 . S
C1309 C1308 1.387 . S
C1309 C1311 1.387 . S
H1310 C1317 0.950 . S
C1311 C1309 1.387 . S
C1311 C1313 1.390 . S
C1311 H1315 0.950 . S
H1312 C1308 0.950 . S
C1313 C1311 1.390 . S
C1313 C1314 1.387 . S
C1313 H1316 0.950 . S
C1314 C1313 1.387 . S
C1314 C1317 1.387 . S
H1315 C1311 0.950 . S
H1316 C1313 0.950 . S
C1317 C1308 1.390 . S
C1317 H1310 0.950 . S
C1317 C1314 1.387 . S
C1318 C1319 1.387 . S
C1318 H1322 0.950 . S
C1318 C1327 1.390 . S
C1319 C1318 1.387 . S
C1319 C1321 1.387 1_565 S
H1320 C1327 0.950 . S
C1321 C1319 1.387 1_545 S
C1321 C1323 1.390 . S
C1321 H1325 0.950 . S
H1322 C1318 0.950 . S
C1323 C1321 1.390 . S
C1323 C1324 1.387 1_545 S
C1323 H1326 0.950 . S
C1324 C1323 1.387 1_565 S
C1324 C1327 1.387 . S
H1325 C1321 0.950 . S
H1326 C1323 0.950 . S
C1327 C1318 1.390 . S
C1327 H1320 0.950 . S
C1327 C1324 1.387 . S
C1328 C1329 1.387 . S
C1328 H1332 0.950 . S
C1328 C1337 1.390 . S
C1329 C1328 1.387 . S
C1329 C1331 1.387 . S
H1330 C1337 0.950 . S
C1331 C1329 1.387 . S
C1331 C1333 1.390 . S
C1331 H1335 0.950 . S
H1332 C1328 0.950 . S
C1333 C1331 1.390 . S
C1333 C1334 1.387 . S
C1333 H1336 0.950 . S
C1334 C1333 1.387 . S
C1334 C1337 1.387 . S
H1335 C1331 0.950 . S
H1336 C1333 0.950 . S
C1337 C1328 1.390 . S
C1337 H1330 0.950 . S
C1337 C1334 1.387 . S
C1338 C1339 1.387 . S
C1338 H1342 0.950 . S
C1338 C1347 1.390 . S
C1339 C1338 1.387 . S
C1339 C1341 1.387 1_545 S
H1340 C1347 0.950 . S
C1341 C1339 1.387 1_565 S
C1341 C1343 1.390 . S
C1341 H1345 0.950 . S
H1342 C1338 0.950 . S
C1343 C1341 1.390 . S
C1343 C1344 1.387 1_565 S
C1343 H1346 0.950 . S
C1344 C1343 1.387 1_545 S
C1344 C1347 1.387 . S
H1345 C1341 0.950 . S
H1346 C1343 0.950 . S
C1347 C1338 1.390 . S
C1347 H1340 0.950 . S
C1347 C1344 1.387 . S
C1348 C1349 1.387 . S
C1348 H1352 0.950 . S
C1348 C1357 1.390 . S
C1349 C1348 1.387 . S
C1349 C1351 1.387 . S
H1350 C1357 0.950 . S
C1351 C1349 1.387 . S
C1351 C1353 1.390 . S
C1351 H1355 0.950 . S
H1352 C1348 0.950 . S
C1353 C1351 1.390 . S
C1353 C1354 1.387 . S
C1353 H1356 0.950 . S
C1354 C1353 1.387 . S
C1354 C1357 1.387 . S
H1355 C1351 0.950 . S
H1356 C1353 0.950 . S
C1357 C1348 1.390 . S
C1357 H1350 0.950 . S
C1357 C1354 1.387 . S
C1358 C1359 1.387 . S
C1358 H1362 0.950 . S
C1358 C1367 1.390 . S
C1359 C1358 1.387 . S
C1359 C1361 1.387 1_556 S
H1360 C1367 0.950 . S
C1361 C1359 1.387 1_554 S
C1361 C1363 1.390 . S
C1361 H1365 0.950 . S
H1362 C1358 0.950 . S
C1363 C1361 1.390 . S
C1363 C1364 1.387 1_554 S
C1363 H1366 0.950 . S
C1364 C1363 1.387 1_556 S
C1364 C1367 1.387 . S
H1365 C1361 0.950 . S
H1366 C1363 0.950 . S
C1367 C1358 1.390 . S
C1367 H1360 0.950 . S
C1367 C1364 1.387 . S
C1368 C1369 1.387 . S
C1368 H1372 0.950 . S
C1368 C1377 1.390 . S
C1369 C1368 1.387 . S
C1369 C1371 1.387 . S
H1370 C1377 0.950 . S
C1371 C1369 1.387 . S
C1371 C1373 1.390 . S
C1371 H1375 0.950 . S
H1372 C1368 0.950 . S
C1373 C1371 1.390 . S
C1373 C1374 1.387 . S
C1373 H1376 0.950 . S
C1374 C1373 1.387 . S
C1374 C1377 1.387 . S
H1375 C1371 0.950 . S
H1376 C1373 0.950 . S
C1377 C1368 1.390 . S
C1377 H1370 0.950 . S
C1377 C1374 1.387 . S
C1378 C1379 1.387 1_556 S
C1378 H1382 0.950 . S
C1378 C1387 1.390 . S
C1379 C1378 1.387 1_554 S
C1379 C1381 1.387 . S
H1380 C1387 0.950 . S
C1381 C1379 1.387 . S
C1381 C1383 1.390 . S
C1381 H1385 0.950 . S
H1382 C1378 0.950 . S
C1383 C1381 1.390 . S
C1383 C1384 1.387 . S
C1383 H1386 0.950 . S
C1384 C1383 1.387 . S
C1384 C1387 1.387 1_554 S
H1385 C1381 0.950 . S
H1386 C1383 0.950 . S
C1387 C1378 1.390 . S
C1387 H1380 0.950 . S
C1387 C1384 1.387 1_556 S
C909 C22 1.813 . S
C914 C704 1.828 1_545 S
C924 C767 2.043 . S
C919 C38 2.044 . S
C934 C644 1.968 1_565 S
C929 C75 1.940 . S
C939 C91 1.831 . S
C944 C678 1.820 1_455 S
C949 C128 1.870 . S
C954 C882 1.881 1_554 S
C959 C197 1.241 . S
C964 C853 1.219 . S
C974 C776 2.028 . S
C969 C144 2.097 1_545 S
C979 C181 1.613 . S
C984 C810 1.585 . S
C994 C699 2.039 . S
C989 C234 2.077 . S
C1004 C742 1.461 . S
C999 C303 1.471 . S
C1009 C356 2.058 . S
C1014 C721 2.028 . S
C1019 C287 1.721 . S
C1024 C835 1.725 . S
C1034 C840 1.725 . S
C1029 C393 1.682 . S
C1044 C903 2.117 1_565 S
C1039 C409 2.156 . S
C1049 C462 2.109 . S
C1054 C814 2.118 . S
C1064 C780 1.664 . S
C1059 C446 1.656 . S
C1069 C499 1.893 . S
C1074 C746 1.871 . S
C1079 C552 1.145 . S
C1084 C717 1.154 . S
C1094 C674 2.042 . S
C1089 C515 2.142 . S
C1099 C568 1.721 . S
C1104 C640 1.705 . S
C1114 C801 2.088 . S
C1109 C340 2.110 . S
C1124 C878 1.451 . S
C1119 C621 1.463 . S
C1129 C250 2.015 . S
C1134 C857 1.943 . S
C1139 C605 1.611 . S
C1144 C665 1.601 . S
C1154 C649 1.172 . S
C1149 C39 1.163 . S
C1159 C29 1.053 . S
C1164 C683 1.083 . S
C1174 C708 1.161 . S
C1169 C92 1.181 . S
C1184 C755 1.972 . S
C1179 C82 1.888 . S
C1189 C145 1.661 . S
C1194 C636 1.648 . S
C1199 C188 1.367 . S
C1204 C670 1.387 . S
C1214 C712 1.453 . S
C1209 C135 1.447 . S
C1219 C198 1.229 . S
C1224 C751 1.130 . S
C1229 C251 1.807 . S
C1234 C653 1.811 . S
C1244 C733 1.537 . S
C1239 C294 1.569 . S
C1249 C347 1.521 . S
C1254 C738 1.561 . S
C1259 C304 1.779 . S
C1264 C789 1.796 . S
C1274 C819 1.275 . S
C1269 C410 1.300 . S
C1279 C400 1.041 . S
C1284 C785 1.092 . S
C1289 C453 0.931 . S
C1294 C844 0.933 . S
C1299 C463 2.205 . S
C1304 C891 2.224 . S
C1309 C516 1.711 . S
C1314 C806 1.717 . S
C1324 C772 1.680 . S
C1319 C569 1.678 . S
C1329 C506 1.383 . S
C1334 C848 1.358 . S
C1344 C887 0.845 . S
C1339 C559 0.863 . S
C1354 C823 1.776 . S
C1349 C357 1.776 . S
C1364 C869 1.466 . S
C1359 C612 1.494 . S
C1374 C874 1.523 . S
C1369 C241 1.479 . S
C1379 C622 1.682 . S
C1384 C687 1.686 . S
