# Generated by pormake.
# Topology pth, (4,4)-cn, num edge types: 1
# Building blocks:
#     Node 0, Type 0, BuildingBlock: NAHDIM_clean_sbu_0, # of connection points: 4
#     Node 1, Type 0, BuildingBlock: NAHDIM_clean_sbu_0, # of connection points: 4
#     Node 2, Type 0, BuildingBlock: NAHDIM_clean_sbu_0, # of connection points: 4
#     Node 3, Type 1, BuildingBlock: KOZSID_clean_sbu_0, # of connection points: 4
#     Node 4, Type 1, BuildingBlock: KOZSID_clean_sbu_0, # of connection points: 4
#     Node 5, Type 1, BuildingBlock: KOZSID_clean_sbu_0, # of connection points: 4
#     Edge 6, Type (0, 1), BuildingBlock: OJICUG_clean_linker_0, # of connection points: 2
#     Edge 7, Type (0, 1), BuildingBlock: OJICUG_clean_linker_0, # of connection points: 2
#     Edge 8, Type (0, 1), BuildingBlock: OJICUG_clean_linker_0, # of connection points: 2
#     Edge 9, Type (0, 1), BuildingBlock: OJICUG_clean_linker_0, # of connection points: 2
#     Edge 10, Type (0, 1), BuildingBlock: OJICUG_clean_linker_0, # of connection points: 2
#     Edge 11, Type (0, 1), BuildingBlock: OJICUG_clean_linker_0, # of connection points: 2
#     Edge 12, Type (0, 1), BuildingBlock: OJICUG_clean_linker_0, # of connection points: 2
#     Edge 13, Type (0, 1), BuildingBlock: OJICUG_clean_linker_0, # of connection points: 2
#     Edge 14, Type (0, 1), BuildingBlock: OJICUG_clean_linker_0, # of connection points: 2
#     Edge 15, Type (0, 1), BuildingBlock: OJICUG_clean_linker_0, # of connection points: 2
#     Edge 16, Type (0, 1), BuildingBlock: OJICUG_clean_linker_0, # of connection points: 2
#     Edge 17, Type (0, 1), BuildingBlock: OJICUG_clean_linker_0, # of connection points: 2
# Relax obj value: 0.042
# Max RMSD: 0.174
# Mean RMSD: 0.086
data_MOF--net-pth--node1-NAHDIM_clean_sbu_0--node2-KOZSID_clean_sbu_0--edge1-OJICUG_clean_linker_0
_symmetry_space_group_name_H-M    P1
_symmetry_Int_Tables_number       1
_symmetry_cell_setting            triclinic
loop_
_symmetry_equiv_pos_as_xyz
'x, y, z'
_cell_length_a     20.140628
_cell_length_b     20.287969
_cell_length_c     45.237005
_cell_angle_alpha  88.523306
_cell_angle_beta   86.586308
_cell_angle_gamma 120.77382
loop_
_atom_site_label
_atom_site_type_symbol
_atom_site_fract_x
_atom_site_fract_y
_atom_site_fract_z
_atom_type_partial_charge
C0 C 0.05199 0.9668 0.08548 0.0
O1 O 0.00246 0.98654 0.09545 0.0
O2 O 0.05532 0.13614 0.0687 0.0
Zn3 Zn 0.06483 0.06817 0.03928 0.0
O4 O 0.96592 0.99655 0.02127 0.0
C5 C 0.15446 0.20662 0.00309 0.0
O6 O 0.1071 0.22207 0.01833 0.0
O7 O 0.09169 0.99765 0.06083 0.0
C8 C 0.94389 0.01072 -0.00255 0.0
O9 O 0.98362 0.07997 0.98414 0.0
C10 C 0.99535 0.1343 0.08018 0.0
O11 O 0.92622 0.07874 0.07453 0.0
O12 O 0.1475 0.14088 0.00725 0.0
C13 C 0.06464 0.22618 0.3229 0.0
O14 O 0.0154 0.15459 0.3175 0.0
O15 O 0.07904 0.06501 0.33875 0.0
Zn16 Zn 0.09111 0.14523 0.36671 0.0
O17 O 0.99341 0.1132 0.39247 0.0
C18 C 0.16249 0.11016 0.41142 0.0
O19 O 0.0907 0.05249 0.41617 0.0
O20 O 0.11027 0.23956 0.34319 0.0
C21 C 0.99899 0.15104 0.41509 0.0
O22 O 0.06801 0.2038 0.4221 0.0
C23 C 0.03516 0.99343 0.34533 0.0
O24 O 0.99168 0.97004 0.37059 0.0
O25 O 0.17831 0.16263 0.39145 0.0
C26 C 0.16843 0.04403 0.64887 0.0
O27 O 0.13971 0.08369 0.63781 0.0
O28 O 0.00295 0.05263 0.67749 0.0
Zn29 Zn 0.07234 0.03133 0.70119 0.0
O30 O 0.14427 0.11871 0.72493 0.0
C31 C 0.97093 0.94803 0.75278 0.0
O32 O 0.99757 0.01807 0.76115 0.0
O33 O 0.1438 0.01151 0.67483 0.0
C34 C 0.13608 0.17149 0.73573 0.0
O35 O 0.07281 0.17324 0.73193 0.0
C36 C 0.0151 0.11432 0.6643 0.0
O37 O 0.08285 0.17772 0.6648 0.0
O38 O 0.99821 0.93841 0.72827 0.0
C39 C 0.1218 0.71902 0.15508 0.0
C40 C 0.19346 0.77271 0.14079 0.0
C41 C 0.24753 0.76314 0.15378 0.0
C42 C 0.20621 0.70473 0.17523 0.0
N43 N 0.12886 0.67576 0.17658 0.0
Co44 Co 0.04789 0.59067 0.20474 0.0
N45 N 0.12896 0.58641 0.22707 0.0
C46 C 0.2067 0.63316 0.22213 0.0
C47 C 0.24797 0.61655 0.24077 0.0
C48 C 0.19345 0.55493 0.25856 0.0
C49 C 0.12156 0.53747 0.24971 0.0
N50 N 0.967 0.50255 0.2318 0.0
C51 C 0.97499 0.4589 0.25288 0.0
C52 C 0.90356 0.39957 0.26518 0.0
C53 C 0.84847 0.40472 0.25084 0.0
C54 C 0.88922 0.46669 0.23073 0.0
N55 N 0.9672 0.59871 0.18363 0.0
C56 C 0.88935 0.55552 0.18969 0.0
C57 C 0.84896 0.57712 0.17254 0.0
C58 C 0.90437 0.63898 0.15495 0.0
C59 C 0.97561 0.6515 0.16243 0.0
N60 N 0.04498 0.51414 0.17744 0.0
C61 C 0.03242 0.39141 0.1453 0.0
C62 C 0.97062 0.40399 0.14899 0.0
C63 C 0.97793 0.46471 0.16499 0.0
C64 C 0.10222 0.44396 0.15672 0.0
C65 C 0.1075 0.50502 0.17223 0.0
N66 N 0.04953 0.66591 0.23216 0.0
C67 C 0.98019 0.70483 0.26583 0.0
C68 C 0.04814 0.77386 0.26968 0.0
C69 C 0.11722 0.7879 0.2545 0.0
C70 C 0.11666 0.73337 0.23602 0.0
C71 C 0.9822 0.6522 0.24724 0.0
H72 H 0.17097 0.74696 0.22497 0.0
H73 H 0.92814 0.60114 0.24522 0.0
H74 H 0.92765 0.46919 0.16724 0.0
H75 H 0.16237 0.54316 0.18025 0.0
C76 C 0.23912 0.68455 0.19725 0.0
C77 C 0.04956 0.7153 0.14924 0.0
C78 C 0.04865 0.46968 0.26129 0.0
C79 C 0.85626 0.49391 0.21111 0.0
H80 H 0.20624 0.81651 0.12359 0.0
H81 H 0.3099 0.79762 0.14927 0.0
H82 H 0.31034 0.64337 0.24042 0.0
H83 H 0.20604 0.52459 0.27518 0.0
H84 H 0.89259 0.35643 0.28245 0.0
H85 H 0.78618 0.36738 0.2545 0.0
H86 H 0.7867 0.55134 0.17294 0.0
H87 H 0.89371 0.67171 0.13862 0.0
H88 H 0.9162 0.36698 0.13964 0.0
H89 H 0.15226 0.43732 0.15436 0.0
H90 H 0.92501 0.69174 0.2767 0.0
H91 H 0.17158 0.84034 0.25705 0.0
C92 C 0.44729 0.00722 0.57987 0.0
C93 C 0.39251 0.93246 0.59032 0.0
C94 C 0.40893 0.88519 0.57476 0.0
C95 C 0.47229 0.93344 0.55574 0.0
N96 N 0.49828 0.00886 0.55851 0.0
Co97 Co 0.5871 0.09844 0.53444 0.0
N98 N 0.60342 0.02821 0.50855 0.0
C99 C 0.56041 0.9505 0.50986 0.0
C100 C 0.5871 0.91783 0.49001 0.0
C101 C 0.6517 0.97808 0.47536 0.0
C102 C 0.66054 0.04454 0.48708 0.0
N103 N 0.67749 0.18787 0.511 0.0
C104 C 0.72847 0.18889 0.48976 0.0
C105 C 0.7855 0.26344 0.48008 0.0
C106 C 0.77135 0.31128 0.49638 0.0
C107 C 0.70663 0.26345 0.51493 0.0
N108 N 0.56886 0.16844 0.55971 0.0
C109 C 0.60953 0.24626 0.55773 0.0
C110 C 0.58015 0.27817 0.57688 0.0
C111 C 0.51577 0.21715 0.59147 0.0
C112 C 0.50964 0.15138 0.58027 0.0
N113 N 0.66018 0.09829 0.56206 0.0
C114 C 0.77351 0.10282 0.59716 0.0
C115 C 0.76804 0.1679 0.59196 0.0
C116 C 0.71163 0.1644 0.57455 0.0
C117 C 0.71953 0.03462 0.5852 0.0
C118 C 0.66356 0.03354 0.56802 0.0
N119 N 0.51445 0.09945 0.50689 0.0
C120 C 0.46795 0.17035 0.48001 0.0
C121 C 0.40276 0.10233 0.47301 0.0
C122 C 0.396 0.03267 0.48231 0.0
C123 C 0.45221 0.03255 0.49901 0.0
C124 C 0.52265 0.1676 0.49665 0.0
H125 H 0.44347 0.97771 0.50573 0.0
H126 H 0.57011 0.22159 0.5015 0.0
H127 H 0.71169 0.21642 0.57128 0.0
H128 H 0.62449 0.97998 0.55941 0.0
C129 C 0.50176 0.90956 0.53249 0.0
C130 C 0.44458 0.07426 0.58886 0.0
C131 C 0.7273 0.1211 0.47902 0.0
C132 C 0.67305 0.28757 0.53676 0.0
H133 H 0.34366 0.91353 0.60658 0.0
H134 H 0.376 0.82296 0.57602 0.0
H135 H 0.56469 0.85724 0.48759 0.0
H136 H 0.68945 0.97281 0.45885 0.0
H137 H 0.83333 0.28126 0.46339 0.0
H138 H 0.8052 0.37347 0.49529 0.0
H139 H 0.60169 0.33859 0.57932 0.0
H140 H 0.47659 0.22053 0.60796 0.0
H141 H 0.80711 0.22168 0.60131 0.0
H142 H 0.72135 0.98251 0.58846 0.0
H143 H 0.47585 0.22584 0.47353 0.0
H144 H 0.34738 0.97831 0.47687 0.0
C145 C 0.69431 0.63068 0.82855 0.0
C146 C 0.75074 0.61317 0.82015 0.0
C147 C 0.73302 0.54823 0.83664 0.0
C148 C 0.66727 0.5299 0.85414 0.0
N149 N 0.64139 0.5788 0.84967 0.0
Co150 Co 0.5478 0.57325 0.87052 0.0
N151 N 0.52932 0.485 0.8978 0.0
C152 C 0.57502 0.4544 0.89938 0.0
C153 C 0.55028 0.39745 0.92147 0.0
C154 C 0.48411 0.39044 0.93459 0.0
C155 C 0.47165 0.44295 0.91929 0.0
N156 N 0.45152 0.56453 0.89031 0.0
C157 C 0.397 0.50996 0.91044 0.0
C158 C 0.33391 0.51971 0.91546 0.0
C159 C 0.34922 0.58264 0.89807 0.0
C160 C 0.41995 0.6072 0.88315 0.0
N161 N 0.56948 0.66475 0.84441 0.0
C162 C 0.5279 0.70012 0.84457 0.0
C163 C 0.55957 0.76436 0.82547 0.0
C164 C 0.62635 0.77149 0.8128 0.0
C165 C 0.63143 0.71086 0.82498 0.0
N166 N 0.48225 0.5014 0.84134 0.0
C167 C 0.37393 0.39362 0.80515 0.0
C168 C 0.38601 0.46757 0.80604 0.0
C169 C 0.43973 0.51987 0.82404 0.0
C170 C 0.42016 0.37574 0.8215 0.0
C171 C 0.47407 0.43034 0.83915 0.0
N172 N 0.61259 0.6456 0.89959 0.0
C173 C 0.64721 0.75821 0.92683 0.0
C174 C 0.71355 0.76029 0.93537 0.0
C175 C 0.72689 0.70202 0.92685 0.0
C176 C 0.67605 0.64562 0.909 0.0
C177 C 0.59751 0.7004 0.90937 0.0
H178 H 0.69007 0.60366 0.90252 0.0
H179 H 0.54806 0.70229 0.90359 0.0
H180 H 0.44442 0.57441 0.82382 0.0
H181 H 0.50737 0.41327 0.85125 0.0
C182 C 0.63602 0.47494 0.87794 0.0
C183 C 0.69678 0.70023 0.81771 0.0
C184 C 0.40156 0.44673 0.92451 0.0
C185 C 0.45818 0.66998 0.86231 0.0
H186 H 0.80135 0.64544 0.80462 0.0
H187 H 0.76651 0.52021 0.837 0.0
H188 H 0.57585 0.36335 0.92676 0.0
H189 H 0.44788 0.34955 0.95277 0.0
H190 H 0.28138 0.48435 0.92973 0.0
H191 H 0.31243 0.60673 0.8961 0.0
H192 H 0.53703 0.80176 0.82135 0.0
H193 H 0.66705 0.81649 0.79659 0.0
H194 H 0.35372 0.48528 0.793 0.0
H195 H 0.41346 0.31927 0.82139 0.0
H196 H 0.63381 0.80134 0.93347 0.0
H197 H 0.77768 0.70139 0.93308 0.0
C198 C 0.94296 0.19178 0.11618 0.0
C199 C 0.00495 0.19837 0.09785 0.0
H200 H 0.90371 0.24633 0.1464 0.0
C201 C 0.07664 0.26799 0.09582 0.0
H202 H 0.88729 0.13865 0.11837 0.0
C203 C 0.08573 0.33032 0.11129 0.0
C204 C 0.02364 0.32427 0.1295 0.0
H205 H 0.12551 0.27513 0.08167 0.0
H206 H 0.141 0.38376 0.10835 0.0
C207 C 0.95239 0.25382 0.13206 0.0
C208 C 0.93167 0.163 0.46101 0.0
C209 C 0.92896 0.14143 0.43164 0.0
H210 H 0.86881 0.17215 0.49914 0.0
C211 C 0.85993 0.1145 0.41769 0.0
H212 H 0.98429 0.18432 0.47221 0.0
C213 C 0.79492 0.1097 0.4328 0.0
C214 C 0.79722 0.12955 0.46235 0.0
H215 H 0.85668 0.09873 0.39489 0.0
H216 H 0.74251 0.08976 0.42156 0.0
C217 C 0.86604 0.15645 0.47633 0.0
C218 C 0.88127 0.89144 0.79893 0.0
C219 C 0.90362 0.88265 0.76994 0.0
H220 H 0.79803 0.8397 0.83677 0.0
C221 C 0.8578 0.81289 0.75685 0.0
H222 H 0.91527 0.94456 0.80958 0.0
C223 C 0.79017 0.75371 0.77226 0.0
C224 C 0.76818 0.76285 0.80115 0.0
H225 H 0.87303 0.80474 0.73443 0.0
H226 H 0.75486 0.70083 0.76164 0.0
C227 C 0.81425 0.83186 0.81444 0.0
C228 C 0.03047 0.88789 0.13214 0.0
C229 C 0.05575 0.90501 0.10179 0.0
H230 H 0.00986 0.81466 0.1709 0.0
C231 C 0.07932 0.85937 0.087 0.0
H232 H 0.01176 0.92197 0.14408 0.0
C233 C 0.07632 0.79689 0.10225 0.0
C234 C 0.05171 0.7805 0.13262 0.0
H235 H 0.09797 0.87061 0.06353 0.0
H236 H 0.09323 0.76135 0.09038 0.0
C237 C 0.02901 0.82651 0.14746 0.0
C238 C 0.20484 0.05394 0.45067 0.0
C239 C 0.22421 0.11024 0.42764 0.0
H240 H 0.24562 0.0078 0.48318 0.0
C241 C 0.30281 0.16394 0.41953 0.0
H242 H 0.14481 0.01176 0.45753 0.0
C243 C 0.36077 0.16094 0.43399 0.0
C244 C 0.3414 0.10441 0.45699 0.0
H245 H 0.31967 0.20763 0.40171 0.0
H246 H 0.42083 0.20239 0.42688 0.0
C247 C 0.2627 0.05114 0.4652 0.0
C248 C 0.18431 0.27999 0.76944 0.0
C249 C 0.19684 0.22858 0.75335 0.0
H250 H 0.22935 0.3708 0.79899 0.0
C251 C 0.26784 0.23125 0.75459 0.0
H252 H 0.13006 0.27898 0.76916 0.0
C253 C 0.32521 0.28445 0.77144 0.0
C254 C 0.31279 0.33602 0.78752 0.0
H255 H 0.27947 0.19252 0.74237 0.0
H256 H 0.37971 0.2859 0.77148 0.0
C257 C 0.24148 0.33287 0.78643 0.0
C258 C 0.87814 0.04753 0.65052 0.0
C259 C 0.95333 0.11279 0.64764 0.0
H260 H 0.76239 0.99377 0.63744 0.0
C261 C 0.96883 0.17517 0.6283 0.0
H262 H 0.86405 0.99858 0.66539 0.0
C263 C 0.91057 0.17193 0.61193 0.0
C264 C 0.83536 0.10646 0.61471 0.0
H265 H 0.02623 0.22606 0.62545 0.0
H266 H 0.92494 0.2203 0.59669 0.0
C267 C 0.81985 0.0445 0.63433 0.0
C268 C 0.85357 0.87008 0.99257 0.0
C269 C 0.88055 0.94685 0.98293 0.0
H270 H 0.78004 0.75093 0.98492 0.0
C271 C 0.85008 0.96156 0.95818 0.0
H272 H 0.87605 0.8567 0.01152 0.0
C273 C 0.79471 0.90082 0.94311 0.0
C274 C 0.76948 0.82424 0.95227 0.0
H275 H 0.86975 0.01999 0.95018 0.0
H276 H 0.77314 0.91381 0.92377 0.0
C277 C 0.79905 0.80944 0.97725 0.0
C278 C 0.0844 0.96235 0.29873 0.0
C279 C 0.03745 0.93734 0.3257 0.0
H280 H 0.12433 0.93039 0.25984 0.0
C281 C 0.99489 0.85842 0.33422 0.0
H282 H 0.118 0.02283 0.29152 0.0
C283 C 0.99921 0.80566 0.31622 0.0
C284 C 0.04598 0.83054 0.28921 0.0
H285 H 0.95867 0.83728 0.35495 0.0
H286 H 0.96638 0.74529 0.32362 0.0
C287 C 0.08863 0.9095 0.28069 0.0
C288 C 0.25872 0.07599 0.60327 0.0
C289 C 0.23608 0.04656 0.63298 0.0
H290 H 0.34286 0.10738 0.56607 0.0
C291 C 0.28216 0.02527 0.648 0.0
H292 H 0.22463 0.09314 0.59114 0.0
C293 C 0.35024 0.03468 0.63375 0.0
C294 C 0.37258 0.06425 0.60417 0.0
H295 H 0.26678 0.00323 0.67098 0.0
H296 H 0.38569 0.0192 0.64583 0.0
C297 C 0.32633 0.08454 0.58897 0.0
C298 C 0.24269 0.24918 0.9563 0.0
C299 C 0.21688 0.26717 0.98264 0.0
H300 H 0.31974 0.29307 0.91651 0.0
C301 C 0.2504 0.34452 0.98938 0.0
H302 H 0.21733 0.19 0.95057 0.0
C303 C 0.30994 0.40288 0.97042 0.0
C304 C 0.33519 0.38515 0.9439 0.0
H305 H 0.23176 0.35979 0.00969 0.0
H306 H 0.33677 0.46183 0.97658 0.0
C307 C 0.30069 0.30791 0.93685 0.0
C308 C 0.03233 0.27863 0.27916 0.0
C309 C 0.0618 0.28913 0.30715 0.0
H310 H 0.0061 0.32859 0.24262 0.0
C311 C 0.08443 0.35847 0.32053 0.0
H312 H 0.01405 0.22553 0.26844 0.0
C313 C 0.07761 0.41627 0.30612 0.0
C314 C 0.05023 0.40642 0.27781 0.0
H315 H 0.10605 0.36748 0.34232 0.0
H316 H 0.09492 0.46923 0.31682 0.0
C317 C 0.02726 0.3371 0.2645 0.0
loop_
_geom_bond_atom_site_label_1
_geom_bond_atom_site_label_2
_geom_bond_distance
_geom_bond_site_symmetry_2
_ccdc_geom_bond_type
C0 O1 1.160 . S
C0 O7 1.185 1_565 S
O1 C0 1.160 . S
O2 Zn3 1.899 . S
O2 C10 1.284 . S
Zn3 O2 1.899 . S
Zn3 O4 2.032 1_545 S
Zn3 O7 2.086 . S
Zn3 O12 1.977 . S
O4 Zn3 2.032 1_565 S
O4 C8 1.278 1_465 S
C5 O6 1.203 . S
C5 O12 1.267 . S
O6 C5 1.203 . S
O7 C0 1.185 1_545 S
O7 Zn3 2.086 . S
C8 O4 1.278 1_645 S
C8 O9 1.211 1_654 S
O9 C8 1.211 1_456 S
C10 O2 1.284 . S
C10 O11 1.273 . S
O11 C10 1.273 . S
O12 Zn3 1.977 . S
O12 C5 1.267 . S
C13 O14 1.160 . S
C13 O20 1.185 . S
O14 C13 1.160 . S
O15 Zn16 1.899 . S
O15 C23 1.288 . S
Zn16 O15 1.899 . S
Zn16 O17 2.032 1_455 S
Zn16 O20 2.086 . S
Zn16 O25 1.977 . S
O17 Zn16 2.032 1_655 S
O17 C21 1.278 . S
C18 O19 1.203 . S
C18 O25 1.267 . S
O19 C18 1.203 . S
O20 C13 1.185 . S
O20 Zn16 2.086 . S
C21 O17 1.278 . S
C21 O22 1.211 . S
O22 C21 1.211 . S
C23 O15 1.288 . S
C23 O24 1.273 1_445 S
O24 C23 1.273 1_665 S
O25 Zn16 1.977 . S
O25 C18 1.267 . S
C26 O27 1.160 . S
C26 O33 1.185 1_545 S
O27 C26 1.160 . S
O28 Zn29 1.899 . S
O28 C36 1.284 1_455 S
Zn29 O28 1.899 . S
Zn29 O30 2.032 . S
Zn29 O33 2.086 1_545 S
Zn29 O38 1.977 1_545 S
O30 Zn29 2.032 . S
O30 C34 1.278 . S
C31 O32 1.203 . S
C31 O38 1.267 1_655 S
O32 C31 1.203 . S
O33 C26 1.185 1_565 S
O33 Zn29 2.086 1_565 S
C34 O30 1.278 . S
C34 O35 1.211 . S
O35 C34 1.211 . S
C36 O28 1.284 1_655 S
C36 O37 1.273 1_655 S
O37 C36 1.273 1_455 S
O38 Zn29 1.977 1_565 S
O38 C31 1.267 1_455 S
C39 C40 1.443 . S
C39 N43 1.376 . S
C39 C77 1.389 . S
C40 C39 1.443 . S
C40 C41 1.340 . S
C40 H80 0.951 . S
C41 C40 1.340 . S
C41 C42 1.439 . S
C41 H81 0.950 . S
C42 C41 1.439 . S
C42 N43 1.374 . S
C42 C76 1.395 . S
N43 C39 1.376 . S
N43 C42 1.374 . S
N43 Co44 2.008 . S
Co44 N43 2.008 . S
Co44 N45 1.995 . S
Co44 N50 2.008 1_455 S
Co44 N55 1.995 1_455 S
Co44 N60 2.282 . S
Co44 N66 2.282 . S
N45 Co44 1.995 . S
N45 C46 1.376 . S
N45 C49 1.383 . S
C46 N45 1.376 . S
C46 C47 1.446 . S
C46 C76 1.391 . S
C47 C46 1.446 . S
C47 C48 1.339 . S
C47 H82 0.949 . S
C48 C47 1.339 . S
C48 C49 1.439 . S
C48 H83 0.950 . S
C49 N45 1.383 . S
C49 C48 1.439 . S
C49 C78 1.392 . S
N50 Co44 2.008 1_655 S
N50 C51 1.376 . S
N50 C54 1.374 . S
C51 N50 1.376 . S
C51 C52 1.443 . S
C51 C78 1.389 1_655 S
C52 C51 1.443 . S
C52 C53 1.340 . S
C52 H84 0.951 . S
C53 C52 1.340 . S
C53 C54 1.439 . S
C53 H85 0.950 . S
C54 N50 1.374 . S
C54 C53 1.439 . S
C54 C79 1.395 . S
N55 Co44 1.995 1_655 S
N55 C56 1.376 . S
N55 C59 1.383 . S
C56 N55 1.376 . S
C56 C57 1.446 . S
C56 C79 1.391 . S
C57 C56 1.446 . S
C57 C58 1.339 . S
C57 H86 0.949 . S
C58 C57 1.339 . S
C58 C59 1.439 . S
C58 H87 0.950 . S
C59 N55 1.383 . S
C59 C58 1.439 . S
C59 C77 1.392 1_655 S
N60 Co44 2.282 . S
N60 C63 1.332 1_455 S
N60 C65 1.332 . S
C61 C62 1.386 1_455 S
C61 C64 1.388 . S
C62 C61 1.386 1_655 S
C62 C63 1.382 . S
C62 H88 0.950 . S
C63 N60 1.332 1_655 S
C63 C62 1.382 . S
C63 H74 0.952 . S
C64 C61 1.388 . S
C64 C65 1.382 . S
C64 H89 0.950 . S
C65 N60 1.332 . S
C65 C64 1.382 . S
C65 H75 0.948 . S
N66 Co44 2.282 . S
N66 C70 1.332 . S
N66 C71 1.332 1_455 S
C67 C68 1.388 1_655 S
C67 C71 1.382 . S
C67 H90 0.950 . S
C68 C67 1.388 1_455 S
C68 C69 1.386 . S
C69 C68 1.386 . S
C69 C70 1.382 . S
C69 H91 0.950 . S
C70 N66 1.332 . S
C70 C69 1.382 . S
C70 H72 0.952 . S
C71 N66 1.332 1_655 S
C71 C67 1.382 . S
C71 H73 0.948 . S
H72 C70 0.952 . S
H73 C71 0.948 . S
H74 C63 0.952 . S
H75 C65 0.948 . S
C76 C42 1.395 . S
C76 C46 1.391 . S
C77 C39 1.389 . S
C77 C59 1.392 1_455 S
C78 C49 1.392 . S
C78 C51 1.389 1_455 S
C79 C54 1.395 . S
C79 C56 1.391 . S
H80 C40 0.951 . S
H81 C41 0.950 . S
H82 C47 0.949 . S
H83 C48 0.950 . S
H84 C52 0.951 . S
H85 C53 0.950 . S
H86 C57 0.949 . S
H87 C58 0.950 . S
H88 C62 0.950 . S
H89 C64 0.950 . S
H90 C67 0.950 . S
H91 C69 0.950 . S
C92 C93 1.443 1_545 S
C92 N96 1.376 . S
C92 C130 1.389 . S
C93 C92 1.443 1_565 S
C93 C94 1.340 . S
C93 H133 0.951 . S
C94 C93 1.340 . S
C94 C95 1.439 . S
C94 H134 0.950 . S
C95 C94 1.439 . S
C95 N96 1.374 1_565 S
C95 C129 1.395 . S
N96 C92 1.376 . S
N96 C95 1.374 1_545 S
N96 Co97 2.008 . S
Co97 N96 2.008 . S
Co97 N98 1.995 . S
Co97 N103 2.008 . S
Co97 N108 1.995 . S
Co97 N113 2.282 . S
Co97 N119 2.282 . S
N98 Co97 1.995 . S
N98 C99 1.376 1_545 S
N98 C102 1.383 . S
C99 N98 1.376 1_565 S
C99 C100 1.446 . S
C99 C129 1.391 . S
C100 C99 1.446 . S
C100 C101 1.339 . S
C100 H135 0.949 . S
C101 C100 1.339 . S
C101 C102 1.439 1_565 S
C101 H136 0.950 . S
C102 N98 1.383 . S
C102 C101 1.439 1_545 S
C102 C131 1.392 . S
N103 Co97 2.008 . S
N103 C104 1.376 . S
N103 C107 1.374 . S
C104 N103 1.376 . S
C104 C105 1.443 . S
C104 C131 1.389 . S
C105 C104 1.443 . S
C105 C106 1.340 . S
C105 H137 0.951 . S
C106 C105 1.340 . S
C106 C107 1.439 . S
C106 H138 0.950 . S
C107 N103 1.374 . S
C107 C106 1.439 . S
C107 C132 1.395 . S
N108 Co97 1.995 . S
N108 C109 1.376 . S
N108 C112 1.383 . S
C109 N108 1.376 . S
C109 C110 1.446 . S
C109 C132 1.391 . S
C110 C109 1.446 . S
C110 C111 1.339 . S
C110 H139 0.949 . S
C111 C110 1.339 . S
C111 C112 1.439 . S
C111 H140 0.950 . S
C112 N108 1.383 . S
C112 C111 1.439 . S
C112 C130 1.392 . S
N113 Co97 2.282 . S
N113 C116 1.332 . S
N113 C118 1.332 . S
C114 C115 1.386 . S
C114 C117 1.388 . S
C115 C114 1.386 . S
C115 C116 1.382 . S
C115 H141 0.950 . S
C116 N113 1.332 . S
C116 C115 1.382 . S
C116 H127 0.952 . S
C117 C114 1.388 . S
C117 C118 1.382 . S
C117 H142 0.950 1_545 S
C118 N113 1.332 . S
C118 C117 1.382 . S
C118 H128 0.948 1_545 S
N119 Co97 2.282 . S
N119 C123 1.332 . S
N119 C124 1.332 . S
C120 C121 1.388 . S
C120 C124 1.382 . S
C120 H143 0.950 . S
C121 C120 1.388 . S
C121 C122 1.386 . S
C122 C121 1.386 . S
C122 C123 1.382 . S
C122 H144 0.950 . S
C123 N119 1.332 . S
C123 C122 1.382 . S
C123 H125 0.952 . S
C124 N119 1.332 . S
C124 C120 1.382 . S
C124 H126 0.948 . S
H125 C123 0.952 . S
H126 C124 0.948 . S
H127 C116 0.952 . S
H128 C118 0.948 1_565 S
C129 C95 1.395 . S
C129 C99 1.391 . S
C130 C92 1.389 . S
C130 C112 1.392 . S
C131 C102 1.392 . S
C131 C104 1.389 . S
C132 C107 1.395 . S
C132 C109 1.391 . S
H133 C93 0.951 . S
H134 C94 0.950 . S
H135 C100 0.949 . S
H136 C101 0.950 . S
H137 C105 0.951 . S
H138 C106 0.950 . S
H139 C110 0.949 . S
H140 C111 0.950 . S
H141 C115 0.950 . S
H142 C117 0.950 1_565 S
H143 C120 0.950 . S
H144 C122 0.950 . S
C145 C146 1.443 . S
C145 N149 1.376 . S
C145 C183 1.389 . S
C146 C145 1.443 . S
C146 C147 1.340 . S
C146 H186 0.951 . S
C147 C146 1.340 . S
C147 C148 1.439 . S
C147 H187 0.950 . S
C148 C147 1.439 . S
C148 N149 1.374 . S
C148 C182 1.395 . S
N149 C145 1.376 . S
N149 C148 1.374 . S
N149 Co150 2.008 . S
Co150 N149 2.008 . S
Co150 N151 1.995 . S
Co150 N156 2.008 . S
Co150 N161 1.995 . S
Co150 N166 2.282 . S
Co150 N172 2.282 . S
N151 Co150 1.995 . S
N151 C152 1.376 . S
N151 C155 1.383 . S
C152 N151 1.376 . S
C152 C153 1.446 . S
C152 C182 1.391 . S
C153 C152 1.446 . S
C153 C154 1.339 . S
C153 H188 0.949 . S
C154 C153 1.339 . S
C154 C155 1.439 . S
C154 H189 0.950 . S
C155 N151 1.383 . S
C155 C154 1.439 . S
C155 C184 1.392 . S
N156 Co150 2.008 . S
N156 C157 1.376 . S
N156 C160 1.374 . S
C157 N156 1.376 . S
C157 C158 1.443 . S
C157 C184 1.389 . S
C158 C157 1.443 . S
C158 C159 1.340 . S
C158 H190 0.951 . S
C159 C158 1.340 . S
C159 C160 1.439 . S
C159 H191 0.950 . S
C160 N156 1.374 . S
C160 C159 1.439 . S
C160 C185 1.395 . S
N161 Co150 1.995 . S
N161 C162 1.376 . S
N161 C165 1.383 . S
C162 N161 1.376 . S
C162 C163 1.446 . S
C162 C185 1.391 . S
C163 C162 1.446 . S
C163 C164 1.339 . S
C163 H192 0.949 . S
C164 C163 1.339 . S
C164 C165 1.439 . S
C164 H193 0.950 . S
C165 N161 1.383 . S
C165 C164 1.439 . S
C165 C183 1.392 . S
N166 Co150 2.282 . S
N166 C169 1.332 . S
N166 C171 1.332 . S
C167 C168 1.386 . S
C167 C170 1.388 . S
C168 C167 1.386 . S
C168 C169 1.382 . S
C168 H194 0.950 . S
C169 N166 1.332 . S
C169 C168 1.382 . S
C169 H180 0.952 . S
C170 C167 1.388 . S
C170 C171 1.382 . S
C170 H195 0.950 . S
C171 N166 1.332 . S
C171 C170 1.382 . S
C171 H181 0.948 . S
N172 Co150 2.282 . S
N172 C176 1.332 . S
N172 C177 1.332 . S
C173 C174 1.388 . S
C173 C177 1.382 . S
C173 H196 0.950 . S
C174 C173 1.388 . S
C174 C175 1.386 . S
C175 C174 1.386 . S
C175 C176 1.382 . S
C175 H197 0.950 . S
C176 N172 1.332 . S
C176 C175 1.382 . S
C176 H178 0.952 . S
C177 N172 1.332 . S
C177 C173 1.382 . S
C177 H179 0.948 . S
H178 C176 0.952 . S
H179 C177 0.948 . S
H180 C169 0.952 . S
H181 C171 0.948 . S
C182 C148 1.395 . S
C182 C152 1.391 . S
C183 C145 1.389 . S
C183 C165 1.392 . S
C184 C155 1.392 . S
C184 C157 1.389 . S
C185 C160 1.395 . S
C185 C162 1.391 . S
H186 C146 0.951 . S
H187 C147 0.950 . S
H188 C153 0.949 . S
H189 C154 0.950 . S
H190 C158 0.951 . S
H191 C159 0.950 . S
H192 C163 0.949 . S
H193 C164 0.950 . S
H194 C168 0.950 . S
H195 C170 0.950 . S
H196 C173 0.950 . S
H197 C175 0.950 . S
C198 C199 1.387 1_655 S
C198 H202 0.950 . S
C198 C207 1.390 . S
C199 C198 1.387 1_455 S
C199 C201 1.387 . S
H200 C207 0.950 . S
C201 C199 1.387 . S
C201 C203 1.390 . S
C201 H205 0.950 . S
H202 C198 0.950 . S
C203 C201 1.390 . S
C203 C204 1.387 . S
C203 H206 0.950 . S
C204 C203 1.387 . S
C204 C207 1.387 1_455 S
H205 C201 0.950 . S
H206 C203 0.950 . S
C207 C198 1.390 . S
C207 H200 0.950 . S
C207 C204 1.387 1_655 S
C208 C209 1.387 . S
C208 H212 0.950 1_545 S
C208 C217 1.390 . S
C209 C208 1.387 . S
C209 C211 1.387 . S
H210 C217 0.950 1_565 S
C211 C209 1.387 . S
C211 C213 1.390 . S
C211 H215 0.950 . S
H212 C208 0.950 1_565 S
C213 C211 1.390 . S
C213 C214 1.387 . S
C213 H216 0.950 . S
C214 C213 1.387 . S
C214 C217 1.387 . S
H215 C211 0.950 . S
H216 C213 0.950 . S
C217 C208 1.390 . S
C217 H210 0.950 1_545 S
C217 C214 1.387 . S
C218 C219 1.387 . S
C218 H222 0.950 . S
C218 C227 1.390 . S
C219 C218 1.387 . S
C219 C221 1.387 . S
H220 C227 0.950 . S
C221 C219 1.387 . S
C221 C223 1.390 . S
C221 H225 0.950 . S
H222 C218 0.950 . S
C223 C221 1.390 . S
C223 C224 1.387 . S
C223 H226 0.950 . S
C224 C223 1.387 . S
C224 C227 1.387 . S
H225 C221 0.950 . S
H226 C223 0.950 . S
C227 C218 1.390 . S
C227 H220 0.950 . S
C227 C224 1.387 . S
C228 C229 1.387 . S
C228 H232 0.950 1_455 S
C228 C237 1.390 1_455 S
C229 C228 1.387 . S
C229 C231 1.387 . S
H230 C237 0.950 . S
C231 C229 1.387 . S
C231 C233 1.390 . S
C231 H235 0.950 . S
H232 C228 0.950 1_655 S
C233 C231 1.390 . S
C233 C234 1.387 . S
C233 H236 0.950 . S
C234 C233 1.387 . S
C234 C237 1.387 1_455 S
H235 C231 0.950 . S
H236 C233 0.950 . S
C237 C228 1.390 1_655 S
C237 H230 0.950 . S
C237 C234 1.387 1_655 S
C238 C239 1.387 . S
C238 H242 0.950 . S
C238 C247 1.390 . S
C239 C238 1.387 . S
C239 C241 1.387 . S
H240 C247 0.950 . S
C241 C239 1.387 . S
C241 C243 1.390 . S
C241 H245 0.950 . S
H242 C238 0.950 . S
C243 C241 1.390 . S
C243 C244 1.387 . S
C243 H246 0.950 . S
C244 C243 1.387 . S
C244 C247 1.387 . S
H245 C241 0.950 . S
H246 C243 0.950 . S
C247 C238 1.390 . S
C247 H240 0.950 . S
C247 C244 1.387 . S
C248 C249 1.387 . S
C248 H252 0.950 . S
C248 C257 1.390 . S
C249 C248 1.387 . S
C249 C251 1.387 . S
H250 C257 0.950 . S
C251 C249 1.387 . S
C251 C253 1.390 . S
C251 H255 0.950 . S
H252 C248 0.950 . S
C253 C251 1.390 . S
C253 C254 1.387 . S
C253 H256 0.950 . S
C254 C253 1.387 . S
C254 C257 1.387 . S
H255 C251 0.950 . S
H256 C253 0.950 . S
C257 C248 1.390 . S
C257 H250 0.950 . S
C257 C254 1.387 . S
C258 C259 1.387 . S
C258 H262 0.950 1_545 S
C258 C267 1.390 . S
C259 C258 1.387 . S
C259 C261 1.387 . S
H260 C267 0.950 1_565 S
C261 C259 1.387 . S
C261 C263 1.390 . S
C261 H265 0.950 . S
H262 C258 0.950 1_565 S
C263 C261 1.390 . S
C263 C264 1.387 . S
C263 H266 0.950 . S
C264 C263 1.387 . S
C264 C267 1.387 . S
H265 C261 0.950 . S
H266 C263 0.950 . S
C267 C258 1.390 . S
C267 H260 0.950 1_545 S
C267 C264 1.387 . S
C268 C269 1.389 . S
C268 H272 0.943 1_556 S
C268 C277 1.395 . S
C269 C268 1.389 . S
C269 C271 1.387 . S
H270 C277 0.950 . S
C271 C269 1.387 . S
C271 C273 1.390 . S
C271 H275 0.950 1_565 S
H272 C268 0.943 1_554 S
C273 C271 1.390 . S
C273 C274 1.387 . S
C273 H276 0.950 . S
C274 C273 1.387 . S
C274 C277 1.387 . S
H275 C271 0.950 1_545 S
H276 C273 0.950 . S
C277 C268 1.395 . S
C277 H270 0.950 . S
C277 C274 1.387 . S
C278 C279 1.387 . S
C278 H282 0.950 . S
C278 C287 1.390 . S
C279 C278 1.387 . S
C279 C281 1.387 . S
H280 C287 0.950 . S
C281 C279 1.387 . S
C281 C283 1.390 . S
C281 H285 0.950 . S
H282 C278 0.950 . S
C283 C281 1.390 . S
C283 C284 1.387 . S
C283 H286 0.950 . S
C284 C283 1.387 . S
C284 C287 1.387 . S
H285 C281 0.950 . S
H286 C283 0.950 . S
C287 C278 1.390 . S
C287 H280 0.950 . S
C287 C284 1.387 . S
C288 C289 1.387 . S
C288 H292 0.950 . S
C288 C297 1.390 . S
C289 C288 1.387 . S
C289 C291 1.387 1_545 S
H290 C297 0.950 . S
C291 C289 1.387 1_565 S
C291 C293 1.390 1_565 S
C291 H295 0.950 . S
H292 C288 0.950 . S
C293 C291 1.390 1_545 S
C293 C294 1.387 . S
C293 H296 0.950 1_545 S
C294 C293 1.387 . S
C294 C297 1.387 . S
H295 C291 0.950 . S
H296 C293 0.950 1_565 S
C297 C288 1.390 . S
C297 H290 0.950 . S
C297 C294 1.387 . S
C298 C299 1.387 . S
C298 H302 0.950 . S
C298 C307 1.390 . S
C299 C298 1.387 . S
C299 C301 1.387 . S
H300 C307 0.950 . S
C301 C299 1.387 . S
C301 C303 1.390 . S
C301 H305 0.950 . S
H302 C298 0.950 . S
C303 C301 1.390 . S
C303 C304 1.387 . S
C303 H306 0.950 . S
C304 C303 1.387 . S
C304 C307 1.387 . S
H305 C301 0.950 . S
H306 C303 0.950 . S
C307 C298 1.390 . S
C307 H300 0.950 . S
C307 C304 1.387 . S
C308 C309 1.387 . S
C308 H312 0.950 . S
C308 C317 1.390 . S
C309 C308 1.387 . S
C309 C311 1.387 . S
H310 C317 0.950 . S
C311 C309 1.387 . S
C311 C313 1.390 . S
C311 H315 0.950 . S
H312 C308 0.950 . S
C313 C311 1.390 . S
C313 C314 1.387 . S
C313 H316 0.950 . S
C314 C313 1.387 . S
C314 C317 1.387 . S
H315 C311 0.950 . S
H316 C313 0.950 . S
C317 C308 1.390 . S
C317 H310 0.950 . S
C317 C314 1.387 . S
C204 C61 1.447 . S
C199 C10 1.446 . S
C209 C21 1.462 . S
C214 C131 1.498 . S
C219 C31 1.403 . S
C224 C183 1.496 . S
C229 C0 1.433 . S
C234 C77 1.491 . S
C244 C121 1.468 . S
C239 C18 1.400 . S
C249 C34 1.428 . S
C254 C167 1.455 . S
C264 C114 1.434 . S
C259 C36 1.436 . S
C269 C8 1.426 1_566 S
C274 C174 1.456 . S
C284 C68 1.450 . S
C279 C23 1.445 1_565 S
C294 C130 1.434 . S
C289 C26 1.375 . S
C304 C184 1.503 . S
C299 C5 1.401 1_556 S
C309 C13 1.434 . S
C314 C78 1.492 . S
