# Generated by pormake.
# Topology pyr, (3,6)-cn, num edge types: 1
# Building blocks:
#     Node 0, Type 0, BuildingBlock: OLANEW_clean_sbu_2, # of connection points: 3
#     Node 1, Type 0, BuildingBlock: OLANEW_clean_sbu_2, # of connection points: 3
#     Node 2, Type 0, BuildingBlock: OLANEW_clean_sbu_2, # of connection points: 3
#     Node 3, Type 0, BuildingBlock: OLANEW_clean_sbu_2, # of connection points: 3
#     Node 4, Type 0, BuildingBlock: OLANEW_clean_sbu_2, # of connection points: 3
#     Node 5, Type 0, BuildingBlock: OLANEW_clean_sbu_2, # of connection points: 3
#     Node 6, Type 0, BuildingBlock: OLANEW_clean_sbu_2, # of connection points: 3
#     Node 7, Type 0, BuildingBlock: OLANEW_clean_sbu_2, # of connection points: 3
#     Node 8, Type 1, BuildingBlock: JUFBIX_clean_sbu_0, # of connection points: 6
#     Node 9, Type 1, BuildingBlock: JUFBIX_clean_sbu_0, # of connection points: 6
#     Node 10, Type 1, BuildingBlock: JUFBIX_clean_sbu_0, # of connection points: 6
#     Node 11, Type 1, BuildingBlock: JUFBIX_clean_sbu_0, # of connection points: 6
#     Edge 12, Type (0, 1), BuildingBlock: XUDNAN_clean_linker_2, # of connection points: 2
#     Edge 13, Type (0, 1), BuildingBlock: XUDNAN_clean_linker_2, # of connection points: 2
#     Edge 14, Type (0, 1), BuildingBlock: XUDNAN_clean_linker_2, # of connection points: 2
#     Edge 15, Type (0, 1), BuildingBlock: XUDNAN_clean_linker_2, # of connection points: 2
#     Edge 16, Type (0, 1), BuildingBlock: XUDNAN_clean_linker_2, # of connection points: 2
#     Edge 17, Type (0, 1), BuildingBlock: XUDNAN_clean_linker_2, # of connection points: 2
#     Edge 18, Type (0, 1), BuildingBlock: XUDNAN_clean_linker_2, # of connection points: 2
#     Edge 19, Type (0, 1), BuildingBlock: XUDNAN_clean_linker_2, # of connection points: 2
#     Edge 20, Type (0, 1), BuildingBlock: XUDNAN_clean_linker_2, # of connection points: 2
#     Edge 21, Type (0, 1), BuildingBlock: XUDNAN_clean_linker_2, # of connection points: 2
#     Edge 22, Type (0, 1), BuildingBlock: XUDNAN_clean_linker_2, # of connection points: 2
#     Edge 23, Type (0, 1), BuildingBlock: XUDNAN_clean_linker_2, # of connection points: 2
#     Edge 24, Type (0, 1), BuildingBlock: XUDNAN_clean_linker_2, # of connection points: 2
#     Edge 25, Type (0, 1), BuildingBlock: XUDNAN_clean_linker_2, # of connection points: 2
#     Edge 26, Type (0, 1), BuildingBlock: XUDNAN_clean_linker_2, # of connection points: 2
#     Edge 27, Type (0, 1), BuildingBlock: XUDNAN_clean_linker_2, # of connection points: 2
#     Edge 28, Type (0, 1), BuildingBlock: XUDNAN_clean_linker_2, # of connection points: 2
#     Edge 29, Type (0, 1), BuildingBlock: XUDNAN_clean_linker_2, # of connection points: 2
#     Edge 30, Type (0, 1), BuildingBlock: XUDNAN_clean_linker_2, # of connection points: 2
#     Edge 31, Type (0, 1), BuildingBlock: XUDNAN_clean_linker_2, # of connection points: 2
#     Edge 32, Type (0, 1), BuildingBlock: XUDNAN_clean_linker_2, # of connection points: 2
#     Edge 33, Type (0, 1), BuildingBlock: XUDNAN_clean_linker_2, # of connection points: 2
#     Edge 34, Type (0, 1), BuildingBlock: XUDNAN_clean_linker_2, # of connection points: 2
#     Edge 35, Type (0, 1), BuildingBlock: XUDNAN_clean_linker_2, # of connection points: 2
# Relax obj value: 0.121
# Max RMSD: 0.172
# Mean RMSD: 0.119
data_MOF--net-pry--node1-OLANEW_clean_sbu_2--node2-JUFBIX_clean_sbu_0--edge1-XUDNAN_clean_linker_2
_symmetry_space_group_name_H-M    P1
_symmetry_Int_Tables_number       1
_symmetry_cell_setting            triclinic
loop_
_symmetry_equiv_pos_as_xyz
'x, y, z'
_cell_length_a     40.401987
_cell_length_b     37.9706
_cell_length_c     39.385159
_cell_angle_alpha  90.251015
_cell_angle_beta   89.787896
_cell_angle_gamma 96.705485
loop_
_atom_site_label
_atom_site_type_symbol
_atom_site_fract_x
_atom_site_fract_y
_atom_site_fract_z
_atom_type_partial_charge
O0 O 0.22055 0.17328 0.15476 0.0
Cd1 Cd 0.16302 0.19225 0.15916 0.0
O2 O 0.22434 0.14648 0.20474 0.0
Cd3 Cd 0.18012 0.14553 0.23896 0.0
O4 O 0.15983 0.1317 0.29085 0.0
C5 C 0.13063 0.11743 0.29875 0.0
O6 O 0.10841 0.11045 0.27465 0.0
C7 C 0.23674 0.15631 0.17587 0.0
C8 C 0.14593 0.25959 0.13765 0.0
O9 O 0.15783 0.25472 0.1672 0.0
O10 O 0.14359 0.23317 0.11705 0.0
O11 O 0.48958 0.92377 0.70249 0.0
Cd12 Cd 0.48821 0.90378 0.64332 0.0
O13 O 0.43728 0.90197 0.70778 0.0
Cd14 Cd 0.38667 0.89545 0.72866 0.0
O15 O 0.33298 0.89771 0.72592 0.0
C16 C 0.32485 0.91852 0.70305 0.0
O17 O 0.3486 0.93608 0.68487 0.0
C18 C 0.4632 0.91934 0.72042 0.0
C19 C 0.49306 0.83194 0.63308 0.0
O20 O 0.51911 0.85472 0.6324 0.0
O21 O 0.46491 0.8431 0.63936 0.0
O22 O 0.72408 0.47095 0.91711 0.0
Cd23 Cd 0.67049 0.48422 0.89384 0.0
O24 O 0.69743 0.42349 0.94001 0.0
Cd25 Cd 0.68916 0.37307 0.96711 0.0
O26 O 0.66955 0.31832 0.97905 0.0
C27 C 0.63846 0.3082 0.97689 0.0
O28 O 0.61819 0.33132 0.96837 0.0
C29 C 0.72441 0.44397 0.93607 0.0
C30 C 0.66727 0.49726 0.82417 0.0
O31 O 0.68046 0.52105 0.84478 0.0
O32 O 0.65635 0.46679 0.83625 0.0
O33 O 0.09637 0.72042 0.46013 0.0
Cd34 Cd 0.1179 0.6656 0.44232 0.0
O35 O 0.04975 0.68653 0.46963 0.0
Cd36 Cd 0.99866 0.6747 0.48799 0.0
O37 O 0.94721 0.65961 0.50352 0.0
C38 C 0.92368 0.66891 0.48558 0.0
O39 O 0.93099 0.68795 0.45821 0.0
C40 C 0.06614 0.71724 0.46971 0.0
C41 C 0.09938 0.64506 0.3762 0.0
O42 O 0.08042 0.63539 0.40146 0.0
O43 O 0.12683 0.66456 0.38225 0.0
O44 O 0.86344 0.86374 0.84479 0.0
Cd45 Cd 0.84111 0.82385 0.89156 0.0
O46 O 0.82538 0.90168 0.84673 0.0
Cd47 Cd 0.78915 0.8908 0.8895 0.0
O48 O 0.741 0.89625 0.91659 0.0
C49 C 0.73714 0.91847 0.94033 0.0
O50 O 0.76327 0.93916 0.95132 0.0
C51 C 0.85117 0.89075 0.83308 0.0
C52 C 0.88086 0.77568 0.92172 0.0
O53 O 0.86446 0.76725 0.89449 0.0
O54 O 0.87968 0.80701 0.93361 0.0
O55 O 0.56894 0.06939 0.45159 0.0
Cd56 Cd 0.5884 0.07284 0.51022 0.0
O57 O 0.59561 0.12142 0.43971 0.0
Cd58 Cd 0.61026 0.17084 0.41215 0.0
O59 O 0.62024 0.22882 0.41332 0.0
C60 C 0.60275 0.24333 0.43502 0.0
O61 O 0.58068 0.22295 0.45288 0.0
C62 C 0.57674 0.09399 0.43024 0.0
C63 C 0.6571 0.07229 0.5145 0.0
O64 O 0.63746 0.04333 0.51228 0.0
O65 O 0.64426 0.1016 0.51463 0.0
O66 O 0.40374 0.71636 0.20947 0.0
Cd67 Cd 0.38977 0.65298 0.22196 0.0
O68 O 0.37003 0.70977 0.16607 0.0
Cd69 Cd 0.33716 0.72263 0.12504 0.0
O70 O 0.28786 0.71239 0.10177 0.0
C71 C 0.27986 0.68458 0.08411 0.0
O72 O 0.30251 0.66326 0.07768 0.0
C73 C 0.39012 0.72992 0.18438 0.0
C74 C 0.42876 0.62692 0.27258 0.0
O75 O 0.43809 0.62827 0.24141 0.0
O76 O 0.401 0.63833 0.28009 0.0
O77 O 0.14167 0.48989 0.67653 0.0
Cd78 Cd 0.1523 0.49526 0.61556 0.0
O79 O 0.12701 0.4329 0.67033 0.0
Cd80 Cd 0.10457 0.37931 0.68333 0.0
O81 O 0.08011 0.32524 0.67617 0.0
C82 C 0.05155 0.32093 0.66228 0.0
O83 O 0.03722 0.34906 0.65418 0.0
C84 C 0.13129 0.46004 0.68956 0.0
C85 C 0.21643 0.48112 0.59874 0.0
O86 O 0.21041 0.51276 0.60574 0.0
O87 O 0.19207 0.45628 0.59965 0.0
Co88 Co 0.97982 0.0101 0.55849 0.0
C89 C 1.0069 0.94568 0.55386 0.0
Co90 Co 0.02599 0.00811 0.58771 0.0
C91 C 0.91361 0.02649 0.54428 0.0
C92 C 0.93061 0.992 0.50655 0.0
N93 N 0.9399 0.00948 0.53551 0.0
N94 N 0.88831 0.02031 0.52202 0.0
C95 C 0.89879 0.99846 0.4983 0.0
H96 H 0.91286 0.04279 0.56683 0.0
H97 H 0.94603 0.97573 0.49228 0.0
C98 C 0.99905 0.0727 0.59211 0.0
N99 N 0.0665 0.0101 0.61024 0.0
C100 C 0.08279 0.98423 0.62357 0.0
C101 C 0.08819 0.03985 0.61281 0.0
N102 N 0.11381 0.99687 0.63392 0.0
C103 C 0.11707 0.03186 0.62737 0.0
C104 C 0.03526 0.03229 0.51985 0.0
O105 O 0.97763 0.05815 0.5714 0.0
O106 O 0.0216 0.05502 0.60286 0.0
O107 O 0.04958 0.02681 0.54777 0.0
O108 O 1.00371 0.02587 0.51825 0.0
O109 O 0.02993 0.96128 0.57228 0.0
H110 H 0.08394 0.0656 0.60329 0.0
H111 H 0.07286 0.95649 0.624 0.0
O112 O 0.98241 0.96207 0.54573 0.0
O113 O 0.95617 0.99456 0.59887 0.0
O114 O 1.00189 0.98942 0.62749 0.0
C115 C 0.97014 0.98654 0.62628 0.0
H116 H 0.88469 0.98843 0.47627 0.0
H117 H 0.13917 0.05025 0.63195 0.0
Co118 Co 0.472 0.02004 0.04924 0.0
C119 C 0.4612 0.97008 0.10081 0.0
Co120 Co 0.50365 0.03258 0.09425 0.0
C121 C 0.45986 0.01029 0.97838 0.0
C122 C 0.41555 0.99437 0.00694 0.0
N123 N 0.44756 0.00859 0.01027 0.0
N124 N 0.43704 0.99749 0.95518 0.0
C125 C 0.40904 0.98735 0.97304 0.0
H126 H 0.48562 0.01939 0.97248 0.0
H127 H 0.39837 0.98865 0.02786 0.0
C128 C 0.51597 0.08205 0.04365 0.0
N129 N 0.52877 0.04411 0.13281 0.0
C130 C 0.51783 0.04585 0.16511 0.0
C131 C 0.56189 0.05384 0.1345 0.0
N132 N 0.54276 0.05639 0.187 0.0
C133 C 0.57057 0.06137 0.16773 0.0
C134 C 0.53401 0.99249 0.04695 0.0
O135 O 0.49297 0.06286 0.02793 0.0
O136 O 0.52382 0.07364 0.07335 0.0
O137 O 0.53845 0.0071 0.07598 0.0
O138 O 0.50665 0.99458 0.03168 0.0
O139 O 0.48363 0.99105 0.1153 0.0
H140 H 0.57863 0.05557 0.11291 0.0
H141 H 0.49188 0.0401 0.17222 0.0
O142 O 0.45188 0.97725 0.07101 0.0
O143 O 0.43723 0.04557 0.06704 0.0
O144 O 0.4686 0.05812 0.11175 0.0
C145 C 0.44138 0.06037 0.09603 0.0
H146 H 0.38567 0.97545 0.96243 0.0
H147 H 0.59551 0.06951 0.17692 0.0
Co148 Co 0.59102 0.55909 0.52434 0.0
C149 C 0.54099 0.55184 0.47602 0.0
Co150 Co 0.54504 0.52742 0.54204 0.0
C151 C 0.66062 0.58345 0.51637 0.0
C152 C 0.62981 0.6182 0.49248 0.0
N153 N 0.62855 0.58765 0.51 0.0
N154 N 0.68192 0.61025 0.5037 0.0
C155 C 0.66259 0.63212 0.48849 0.0
H156 H 0.6681 0.56114 0.53021 0.0
H157 H 0.60823 0.62995 0.48379 0.0
C158 C 0.59607 0.53541 0.59013 0.0
N159 N 0.50784 0.49835 0.55662 0.0
C160 C 0.47524 0.50239 0.55349 0.0
C161 C 0.5083 0.46671 0.57194 0.0
N162 N 0.45539 0.47429 0.56597 0.0
C163 C 0.47615 0.45184 0.57763 0.0
C164 C 0.59065 0.48824 0.50979 0.0
O165 O 0.61123 0.55356 0.56667 0.0
O166 O 0.56654 0.52084 0.58483 0.0
O167 O 0.56239 0.48744 0.52405 0.0
O168 O 0.60887 0.51777 0.50705 0.0
O169 O 0.52397 0.53458 0.49908 0.0
H170 H 0.53064 0.45502 0.57825 0.0
H171 H 0.46626 0.52509 0.54158 0.0
O172 O 0.57084 0.5645 0.48209 0.0
O173 O 0.57264 0.60008 0.54172 0.0
O174 O 0.52775 0.5674 0.55987 0.0
C175 C 0.54445 0.59765 0.55666 0.0
H176 H 0.67138 0.65695 0.47627 0.0
H177 H 0.46863 0.42657 0.58964 0.0
Co178 Co 0.01228 0.51033 0.01105 0.0
C179 C 0.94815 0.4794 0.03143 0.0
Co180 Co 0.99736 0.52192 0.06354 0.0
C181 C 0.04571 0.49052 0.9484 0.0
C182 C 0.99684 0.5059 0.94122 0.0
N183 N 0.01939 0.501 0.96547 0.0
N184 N 0.0403 0.48936 0.91455 0.0
C185 C 0.00967 0.49901 0.91002 0.0
H186 H 0.06861 0.48496 0.96035 0.0
H187 H 0.97266 0.51457 0.94588 0.0
C188 C 0.0602 0.55514 0.04191 0.0
N189 N 0.98979 0.53234 0.10882 0.0
C190 C 0.01376 0.53916 0.13249 0.0
C191 C 0.96153 0.53954 0.12434 0.0
N192 N 1.00198 0.55126 0.16185 0.0
C193 C 0.96895 0.55114 0.15704 0.0
C194 C 0.03301 0.46237 0.05704 0.0
O195 O 0.05478 0.53793 0.01435 0.0
O196 O 0.03858 0.5515 0.06547 0.0
O197 O 0.01885 0.48238 0.07708 0.0
O198 O 0.03232 0.4683 0.02515 0.0
O199 O 0.95547 0.49283 0.0605 0.0
H200 H 0.93747 0.53829 0.11214 0.0
H201 H 0.03977 0.53654 0.12779 0.0
O202 O 0.96967 0.48343 0.00775 0.0
O203 O 0.99254 0.55286 0.99801 0.0
O204 O 0.97661 0.56174 0.05021 0.0
C205 C 0.97814 0.57131 0.01935 0.0
H206 H 0.99757 0.50109 0.88574 0.0
H207 H 0.95178 0.56081 0.17503 0.0
H208 H 0.0696 0.08996 0.32538 0.0
H209 H 0.17251 0.12188 0.35376 0.0
H210 H 0.15929 0.10367 0.41283 0.0
H211 H 0.03263 0.11946 0.40299 0.0
H212 H 0.99998 0.08281 0.4041 0.0
H213 H 0.01743 0.09847 0.36401 0.0
H214 H 0.03146 0.03525 0.34964 0.0
H215 H 0.01413 0.01943 0.38972 0.0
H216 H 0.05637 0.01305 0.37872 0.0
H217 H 0.13524 0.08053 0.46885 0.0
H218 H 0.10184 0.05636 0.51783 0.0
H219 H 0.01404 0.04042 0.45385 0.0
C220 C 0.08938 0.09325 0.344 0.0
C221 C 0.1222 0.10742 0.33469 0.0
C222 C 0.14721 0.11121 0.36005 0.0
C223 C 0.13994 0.10087 0.39375 0.0
C224 C 0.10745 0.08685 0.40198 0.0
C225 C 0.08251 0.08321 0.37788 0.0
C226 C 0.04961 0.06751 0.39349 0.0
C227 C 0.02337 0.09363 0.391 0.0
C228 C 0.03717 0.03168 0.3769 0.0
C229 C 0.05997 0.06276 0.43008 0.0
C230 C 0.09349 0.07399 0.43438 0.0
C231 C 0.10895 0.0718 0.46577 0.0
C232 C 0.08972 0.05793 0.49349 0.0
C233 C 0.05522 0.04648 0.48989 0.0
C234 C 0.04029 0.04903 0.4576 0.0
H235 H 0.42397 0.89882 0.77617 0.0
H236 H 0.5018 0.97894 0.74097 0.0
H237 H 0.50145 0.00913 0.79649 0.0
H238 H 0.3781 0.95838 0.82621 0.0
H239 H 0.36801 0.92647 0.8595 0.0
H240 H 0.37355 0.91162 0.81655 0.0
H241 H 0.41852 0.8732 0.83698 0.0
H242 H 0.41312 0.88793 0.87994 0.0
H243 H 0.45386 0.89374 0.86054 0.0
H244 H 0.49361 0.03011 0.85564 0.0
H245 H 0.4802 0.03939 0.9159 0.0
H246 H 0.40723 0.94604 0.91321 0.0
C247 C 0.44036 0.92314 0.77985 0.0
C248 C 0.46249 0.93688 0.75399 0.0
C249 C 0.48459 0.96797 0.76039 0.0
C250 C 0.48446 0.98543 0.79177 0.0
C251 C 0.46215 0.97142 0.81659 0.0
C252 C 0.44058 0.94094 0.81113 0.0
C253 C 0.42002 0.93082 0.84264 0.0
C254 C 0.38271 0.9319 0.83581 0.0
C255 C 0.4268 0.89426 0.8558 0.0
C256 C 0.43362 0.96025 0.8667 0.0
C257 C 0.45779 0.98344 0.85103 0.0
C258 C 0.4747 0.01218 0.8682 0.0
C259 C 0.46703 0.01713 0.90246 0.0
C260 C 0.44273 0.99343 0.91931 0.0
C261 C 0.42555 0.96489 0.90094 0.0
H262 H 0.62061 0.46618 0.7794 0.0
H263 H 0.70514 0.5475 0.7872 0.0
H264 H 0.69748 0.5638 0.72733 0.0
H265 H 0.63357 0.44034 0.69107 0.0
H266 H 0.58969 0.43487 0.6814 0.0
H267 H 0.60348 0.4274 0.72396 0.0
H268 H 0.56607 0.47316 0.74695 0.0
H269 H 0.55228 0.48086 0.70449 0.0
H270 H 0.57076 0.51749 0.72996 0.0
H271 H 0.68022 0.57219 0.66752 0.0
H272 H 0.65275 0.57461 0.61206 0.0
H273 H 0.57703 0.49018 0.64335 0.0
C274 C 0.63783 0.487 0.76828 0.0
C275 C 0.66373 0.50536 0.78777 0.0
C276 C 0.68525 0.53303 0.77265 0.0
C277 C 0.68114 0.54241 0.73867 0.0
C278 C 0.65514 0.52412 0.72027 0.0
C279 C 0.63369 0.49715 0.73451 0.0
C280 C 0.60647 0.48339 0.70972 0.0
C281 C 0.60844 0.44417 0.70102 0.0
C282 C 0.57185 0.48908 0.72362 0.0
C283 C 0.61589 0.50701 0.67941 0.0
C284 C 0.64429 0.52997 0.68599 0.0
C285 C 0.65797 0.55435 0.66205 0.0
C286 C 0.64214 0.55547 0.63058 0.0
C287 C 0.61265 0.53265 0.62334 0.0
C288 C 0.59945 0.50804 0.64816 0.0
H289 H 0.04042 0.6086 0.35403 0.0
H290 H 0.1376 0.65578 0.31899 0.0
H291 H 0.12308 0.63625 0.26058 0.0
H292 H 0.03413 0.53197 0.29925 0.0
H293 H 0.99015 0.53186 0.29164 0.0
H294 H 0.00803 0.54939 0.33092 0.0
H295 H 0.98453 0.60893 0.31995 0.0
H296 H 0.96653 0.59157 0.28067 0.0
H297 H 0.9945 0.63219 0.28075 0.0
H298 H 0.09866 0.6114 0.20637 0.0
H299 H 0.06509 0.58442 0.15898 0.0
H300 H 0.98323 0.55342 0.22835 0.0
C301 C 0.05865 0.61483 0.33407 0.0
C302 C 0.0902 0.63369 0.34112 0.0
C303 C 0.11328 0.64141 0.31425 0.0
C304 C 0.10529 0.63038 0.28098 0.0
C305 C 0.07407 0.61178 0.27492 0.0
C306 C 0.05102 0.60417 0.30061 0.0
C307 C 0.01909 0.58411 0.28703 0.0
C308 C 0.01248 0.54714 0.30317 0.0
C309 C 0.98941 0.60549 0.29242 0.0
C310 C 0.02787 0.58161 0.24971 0.0
C311 C 0.05978 0.59764 0.24339 0.0
C312 C 0.07368 0.59866 0.211 0.0
C313 C 0.05446 0.58297 0.18426 0.0
C314 C 0.02158 0.56646 0.18996 0.0
C315 C 0.00819 0.56593 0.2232 0.0
H316 H 0.26219 0.13431 0.11444 0.0
H317 H 0.28849 0.15713 0.21957 0.0
H318 H 0.34405 0.13826 0.20944 0.0
H319 H 0.30159 0.05505 0.1093 0.0
H320 H 0.31592 0.06153 0.06613 0.0
H321 H 0.27917 0.08008 0.08025 0.0
H322 H 0.30528 0.14247 0.06142 0.0
H323 H 0.34208 0.12406 0.04713 0.0
H324 H 0.34565 0.16005 0.07738 0.0
H325 H 0.39604 0.11513 0.18914 0.0
H326 H 0.44049 0.08695 0.16056 0.0
H327 H 0.3811 0.07543 0.06863 0.0
C328 C 0.27995 0.136 0.13506 0.0
C329 C 0.27105 0.1477 0.16777 0.0
C330 C 0.29471 0.1485 0.19432 0.0
C331 C 0.32642 0.13786 0.18879 0.0
C332 C 0.33427 0.12594 0.15658 0.0
C333 C 0.31177 0.12474 0.13011 0.0
C334 C 0.32607 0.10849 0.09862 0.0
C335 C 0.30439 0.07426 0.08796 0.0
C336 C 0.33 0.13538 0.06941 0.0
C337 C 0.3599 0.10061 0.11166 0.0
C338 C 0.36413 0.11131 0.14508 0.0
C339 C 0.39303 0.10673 0.16293 0.0
C340 C 0.41825 0.09065 0.14639 0.0
C341 C 0.41456 0.07886 0.11224 0.0
C342 C 0.38486 0.08412 0.0947 0.0
H343 H 0.30149 0.96545 0.65975 0.0
H344 H 0.26845 0.88214 0.73147 0.0
H345 H 0.2097 0.89061 0.71952 0.0
H346 H 0.24141 0.02241 0.68141 0.0
H347 H 0.23669 0.03728 0.63849 0.0
H348 H 0.27557 0.02309 0.65175 0.0
H349 H 0.27217 0.97725 0.60249 0.0
H350 H 0.23319 0.99125 0.58912 0.0
H351 H 0.23574 0.94524 0.59854 0.0
H352 H 0.1539 0.9096 0.6994 0.0
H353 H 0.10758 0.93967 0.67583 0.0
H354 H 0.1791 0.01002 0.61863 0.0
C355 C 0.28199 0.94877 0.67289 0.0
C356 C 0.28956 0.92306 0.69647 0.0
C357 C 0.26321 0.90202 0.71326 0.0
C358 C 0.22978 0.90656 0.70655 0.0
C359 C 0.22325 0.93224 0.68304 0.0
C360 C 0.24875 0.95303 0.66663 0.0
C361 C 0.2356 0.97967 0.64343 0.0
C362 C 0.24805 0.01786 0.65445 0.0
C363 C 0.24471 0.97293 0.60619 0.0
C364 C 0.19867 0.97105 0.64957 0.0
C365 C 0.19177 0.9434 0.67216 0.0
C366 C 0.15909 0.93126 0.68168 0.0
C367 C 0.13297 0.9483 0.66813 0.0
C368 C 0.13989 0.97732 0.64577 0.0
C369 C 0.17312 0.98827 0.63612 0.0
H370 H 0.7884 0.46054 0.91404 0.0
H371 H 0.73026 0.41636 0.99968 0.0
H372 H 0.78201 0.41554 0.03301 0.0
H373 H 0.861 0.41063 0.92786 0.0
H374 H 0.89014 0.4476 0.91451 0.0
H375 H 0.8488 0.4413 0.89677 0.0
H376 H 0.83966 0.50505 0.91537 0.0
H377 H 0.88079 0.51142 0.93331 0.0
H378 H 0.84517 0.51776 0.95934 0.0
H379 H 0.84002 0.4286 0.05958 0.0
H380 H 0.89907 0.44815 0.07438 0.0
H381 H 0.91871 0.47894 0.9697 0.0
C382 C 0.78666 0.44989 0.93954 0.0
C383 C 0.75538 0.43814 0.95417 0.0
C384 C 0.75402 0.42476 0.98772 0.0
C385 C 0.78329 0.42446 0.00693 0.0
C386 C 0.81375 0.437 0.99198 0.0
C387 C 0.8156 0.44877 0.95875 0.0
C388 C 0.85108 0.462 0.9488 0.0
C389 C 0.86348 0.439 0.9203 0.0
C390 C 0.85434 0.50138 0.93862 0.0
C391 C 0.86881 0.45686 0.98186 0.0
C392 C 0.847 0.44262 0.00664 0.0
C393 C 0.85745 0.43888 0.04011 0.0
C394 C 0.89097 0.45008 0.04834 0.0
C395 C 0.91365 0.46427 0.02307 0.0
C396 C 0.90229 0.46716 0.98941 0.0
H397 H 0.86751 0.68231 0.45135 0.0
H398 H 0.9004 0.6295 0.54062 0.0
H399 H 0.84184 0.60913 0.55522 0.0
H400 H 0.79389 0.71167 0.48934 0.0
H401 H 0.76931 0.70422 0.45133 0.0
H402 H 0.81381 0.7152 0.44826 0.0
H403 H 0.81796 0.65832 0.41262 0.0
H404 H 0.7735 0.64714 0.41562 0.0
H405 H 0.80095 0.6159 0.42939 0.0
H406 H 0.77982 0.5937 0.55958 0.0
H407 H 0.71866 0.58501 0.55384 0.0
H408 H 0.72646 0.64716 0.46131 0.0
C409 C 0.86245 0.66659 0.47406 0.0
C410 C 0.88856 0.65751 0.49485 0.0
C411 C 0.88082 0.63681 0.5243 0.0
C412 C 0.84764 0.62511 0.53282 0.0
C413 C 0.82253 0.63436 0.51165 0.0
C414 C 0.82951 0.65468 0.48293 0.0
C415 C 0.79794 0.66062 0.46429 0.0
C416 C 0.79349 0.70028 0.46326 0.0
C417 C 0.79758 0.64452 0.42836 0.0
C418 C 0.77213 0.64033 0.48695 0.0
C419 C 0.78681 0.62539 0.51413 0.0
C420 C 0.76803 0.60521 0.53836 0.0
C421 C 0.7333 0.6002 0.53473 0.0
C422 C 0.71767 0.61528 0.50704 0.0
C423 C 0.73753 0.63561 0.48294 0.0
H424 H 0.11627 0.2792 0.07764 0.0
H425 H 0.14666 0.31818 0.17795 0.0
H426 H 0.12265 0.37354 0.16677 0.0
H427 H 0.13239 0.36589 0.03459 0.0
H428 H 0.09675 0.3577 0.00708 0.0
H429 H 0.1175 0.32118 0.02192 0.0
H430 H 0.06167 0.29116 0.0462 0.0
H431 H 0.04079 0.32764 0.03158 0.0
H432 H 0.03845 0.31524 0.07572 0.0
H433 H 0.09247 0.42263 0.14741 0.0
H434 H 0.06052 0.46527 0.11948 0.0
H435 H 0.05018 0.39828 0.02957 0.0
C436 C 0.11824 0.29959 0.09706 0.0
C437 C 0.13355 0.29407 0.1288 0.0
C438 C 0.13528 0.32148 0.1535 0.0
C439 C 0.12162 0.35315 0.14739 0.0
C440 C 0.10637 0.35752 0.11626 0.0
C441 C 0.10482 0.33179 0.09126 0.0
C442 C 0.08647 0.34359 0.06022 0.0
C443 C 0.10967 0.34731 0.0291 0.0
C444 C 0.05497 0.31787 0.05301 0.0
C445 C 0.07759 0.37967 0.07201 0.0
C446 C 0.08936 0.38683 0.10453 0.0
C447 C 0.0834 0.41746 0.12184 0.0
C448 C 0.06498 0.44151 0.10569 0.0
C449 C 0.05268 0.43537 0.07222 0.0
C450 C 0.05941 0.40399 0.05501 0.0
H451 H 0.57288 0.27912 0.98132 0.0
H452 H 0.67438 0.25253 0.98735 0.0
H453 H 0.65294 0.19029 0.99893 0.0
H454 H 0.5409 0.22483 0.04915 0.0
H455 H 0.50089 0.21177 0.02994 0.0
H456 H 0.524 0.25367 0.01918 0.0
H457 H 0.52115 0.23618 0.9555 0.0
H458 H 0.49817 0.19407 0.96612 0.0
H459 H 0.53624 0.19554 0.9419 0.0
H460 H 0.62149 0.13264 0.01387 0.0
H461 H 0.58153 0.08279 0.03365 0.0
H462 H 0.49976 0.1452 0.01762 0.0
C463 C 0.5906 0.26013 0.98469 0.0
C464 C 0.62536 0.27073 0.98331 0.0
C465 C 0.64768 0.24511 0.98827 0.0
C466 C 0.63574 0.20963 0.99468 0.0
C467 C 0.6014 0.20011 0.99598 0.0
C468 C 0.57908 0.22453 0.99123 0.0
C469 C 0.54343 0.20759 0.99606 0.0
C470 C 0.52631 0.22553 0.02533 0.0
C471 C 0.52358 0.2084 0.96292 0.0
C472 C 0.54929 0.17002 1.00508 0.0
C473 C 0.58298 0.16634 1.00447 0.0
C474 C 0.59506 0.13499 0.01394 0.0
C475 C 0.57223 0.10688 0.02508 0.0
C476 C 0.53775 0.11019 0.0265 0.0
C477 C 0.52597 0.14187 0.0158 0.0
H478 H 0.09568 0.77505 0.50435 0.0
H479 H 1.00205 0.73097 0.45928 0.0
H480 H 0.97607 0.78348 0.4781 0.0
H481 H 0.06011 0.81479 0.57798 0.0
H482 H 0.09052 0.85351 0.57784 0.0
H483 H 0.10149 0.81191 0.56174 0.0
H484 H 0.11933 0.84183 0.50447 0.0
H485 H 0.10846 0.8835 0.52043 0.0
H486 H 0.09014 0.86521 0.48159 0.0
H487 H 0.96101 0.84182 0.49961 0.0
H488 H 0.95749 0.90161 0.52314 0.0
H489 H 0.06078 0.90768 0.55505 0.0
C490 C 0.06968 0.77646 0.4986 0.0
C491 C 0.05061 0.74863 0.48104 0.0
C492 C 0.01675 0.75143 0.47372 0.0
C493 C 1.00189 0.78132 0.48401 0.0
C494 C 0.02126 0.80815 0.50159 0.0
C495 C 0.0544 0.80601 0.50892 0.0
C496 C 0.06974 0.83874 0.5278 0.0
C497 C 0.08113 0.82915 0.56346 0.0
C498 C 0.09862 0.85848 0.50734 0.0
C499 C 0.04016 0.8598 0.5296 0.0
C500 C 0.01247 0.84168 0.5143 0.0
C501 C 0.98245 0.85617 0.51187 0.0
C502 C 0.98073 0.89017 0.52528 0.0
C503 C 0.0088 0.90926 0.54109 0.0
C504 C 0.03879 0.89364 0.54343 0.0
H505 H 0.54656 0.80193 0.60749 0.0
H506 H 0.44414 0.77644 0.64118 0.0
H507 H 0.44665 0.71361 0.6262 0.0
H508 H 0.54072 0.74417 0.53569 0.0
H509 H 0.58218 0.73167 0.54007 0.0
H510 H 0.57305 0.77438 0.55501 0.0
H511 H 0.59449 0.76064 0.6149 0.0
H512 H 0.60383 0.71794 0.60008 0.0
H513 H 0.57701 0.72091 0.6364 0.0
H514 H 0.45976 0.65403 0.60659 0.0
H515 H 0.48246 0.60143 0.58333 0.0
H516 H 0.57607 0.66576 0.5611 0.0
C517 C 0.52476 0.78308 0.61206 0.0
C518 C 0.49518 0.79405 0.62566 0.0
C519 C 0.46708 0.76863 0.63084 0.0
C520 C 0.46826 0.73289 0.62244 0.0
C521 C 0.49768 0.72303 0.60876 0.0
C522 C 0.52543 0.74734 0.60358 0.0
C523 C 0.55361 0.72995 0.58753 0.0
C524 C 0.56292 0.746 0.5525 0.0
C525 C 0.58403 0.73251 0.61115 0.0
C526 C 0.5373 0.6921 0.58439 0.0
C527 C 0.5051 0.68869 0.59693 0.0
C528 C 0.48497 0.65634 0.59675 0.0
C529 C 0.49812 0.62662 0.58347 0.0
C530 C 0.53105 0.62945 0.57038 0.0
C531 C 0.5508 0.66273 0.57084 0.0
H532 H 0.91292 0.88673 0.80176 0.0
H533 H 0.82179 0.93649 0.79314 0.0
H534 H 0.84289 0.9659 0.74069 0.0
H535 H 0.96824 0.96328 0.77096 0.0
H536 H 0.99531 0.93696 0.74806 0.0
H537 H 0.97341 0.91923 0.78531 0.0
H538 H 0.94768 0.86494 0.75046 0.0
H539 H 0.96946 0.88253 0.71311 0.0
H540 H 0.92482 0.87182 0.7123 0.0
H541 H 0.87159 0.98776 0.68792 0.0
H542 H 0.90837 1.00443 0.63927 0.0
H543 H 0.98356 0.94454 0.68151 0.0
C544 C 0.89748 0.90389 0.78887 0.0
C545 C 0.86552 0.90911 0.80186 0.0
C546 C 0.8463 0.93199 0.78411 0.0
C547 C 0.85805 0.94884 0.75409 0.0
C548 C 0.88938 0.94309 0.74198 0.0
C549 C 0.9091 0.92153 0.75885 0.0
C550 C 0.94212 0.9206 0.74015 0.0
C551 C 0.97151 0.93593 0.76245 0.0
C552 C 0.94625 0.88272 0.7283 0.0
C553 C 0.93757 0.94469 0.71007 0.0
C554 C 0.90676 0.95704 0.71171 0.0
C555 C 0.89591 0.97853 0.68649 0.0
C556 C 0.91701 0.98776 0.65884 0.0
C557 C 0.94898 0.97601 0.65651 0.0
C558 C 0.95945 0.95429 0.68271 0.0
H559 H 0.60578 0.12046 0.37079 0.0
H560 H 0.51844 0.05664 0.41094 0.0
H561 H 0.49836 0.04348 0.35271 0.0
H562 H 0.56404 0.15599 0.29634 0.0
H563 H 0.59977 0.15351 0.26928 0.0
H564 H 0.60536 0.16132 0.31418 0.0
H565 H 0.63845 0.10699 0.31795 0.0
H566 H 0.63263 0.09875 0.27321 0.0
H567 H 0.61944 0.06431 0.30335 0.0
H568 H 0.49012 0.03285 0.29076 0.0
H569 H 0.49388 0.02594 0.22877 0.0
H570 H 0.58617 0.09722 0.22814 0.0
C571 C 0.58192 0.10473 0.36732 0.0
C572 C 0.5634 0.09001 0.39538 0.0
C573 C 0.53292 0.06832 0.38977 0.0
C574 C 0.52126 0.06077 0.35681 0.0
C575 C 0.54039 0.07504 0.32965 0.0
C576 C 0.56998 0.09672 0.33446 0.0
C577 C 0.58682 0.10653 0.30079 0.0
C578 C 0.58912 0.14673 0.29479 0.0
C579 C 0.62137 0.09335 0.29872 0.0
C580 C 0.56245 0.08631 0.27648 0.0
C581 C 0.53572 0.06862 0.29367 0.0
C582 C 0.51068 0.04701 0.27691 0.0
C583 C 0.51299 0.04335 0.24159 0.0
C584 C 0.54022 0.06113 0.22329 0.0
C585 C 0.56512 0.08305 0.24119 0.0
H586 H 0.41298 0.61281 0.3398 0.0
H587 H 0.49163 0.60848 0.26493 0.0
H588 H 0.52696 0.58518 0.30832 0.0
H589 H 0.46559 0.64077 0.40961 0.0
H590 H 0.44129 0.61423 0.44069 0.0
H591 H 0.42142 0.62936 0.40352 0.0
H592 H 0.39863 0.56453 0.38869 0.0
H593 H 0.41857 0.54919 0.42579 0.0
H594 H 0.42718 0.53165 0.3845 0.0
H595 H 0.55514 0.56636 0.35973 0.0
H596 H 0.57456 0.55183 0.41668 0.0
H597 H 0.47743 0.56515 0.45882 0.0
C598 C 0.43758 0.6068 0.33252 0.0
C599 C 0.44955 0.61253 0.29891 0.0
C600 C 0.48187 0.6043 0.29043 0.0
C601 C 0.50213 0.59098 0.3149 0.0
C602 C 0.48965 0.58569 0.34771 0.0
C603 C 0.45811 0.59314 0.35663 0.0
C604 C 0.45118 0.5856 0.39401 0.0
C605 C 0.44449 0.61951 0.41307 0.0
C606 C 0.42217 0.55597 0.3985 0.0
C607 C 0.484 0.57335 0.40475 0.0
C608 C 0.50574 0.57365 0.37751 0.0
C609 C 0.53824 0.56555 0.38117 0.0
C610 C 0.54904 0.55739 0.41359 0.0
C611 C 0.52736 0.557 0.44194 0.0
C612 C 0.49422 0.56452 0.43739 0.0
H613 H 0.10786 0.51134 0.72773 0.0
H614 H 0.13549 0.40462 0.73369 0.0
H615 H 0.12057 0.4026 0.79485 0.0
H616 H 0.13634 0.5414 0.81176 0.0
H617 H 0.10165 0.56653 0.81835 0.0
H618 H 0.11707 0.56029 0.77601 0.0
H619 H 0.05806 0.53346 0.75689 0.0
H620 H 0.04245 0.53996 0.79899 0.0
H621 H 0.03687 0.49646 0.77988 0.0
H622 H 0.10064 0.41241 0.85571 0.0
H623 H 0.0719 0.4306 0.90784 0.0
H624 H 0.05643 0.52961 0.86002 0.0
C625 C 0.11112 0.48766 0.74197 0.0
C626 C 0.12265 0.45807 0.72604 0.0
C627 C 0.12615 0.42737 0.74536 0.0
C628 C 0.11814 0.42618 0.78016 0.0
C629 C 0.10667 0.4559 0.79511 0.0
C630 C 0.10293 0.48593 0.77642 0.0
C631 C 0.08779 0.51336 0.79743 0.0
C632 C 0.11218 0.5474 0.8011 0.0
C633 C 0.05431 0.52124 0.7824 0.0
C634 C 0.083 0.49395 0.83078 0.0
C635 C 0.09459 0.46113 0.82935 0.0
C636 C 0.09171 0.43816 0.85712 0.0
C637 C 0.07564 0.44868 0.88663 0.0
C638 C 0.06231 0.48147 0.88766 0.0
C639 C 0.06673 0.50454 0.8597 0.0
H640 H 0.72054 0.96099 0.99351 0.0
H641 H 0.67673 0.88559 0.91846 0.0
H642 H 0.62056 0.89449 0.93929 0.0
H643 H 0.66038 0.93548 0.06119 0.0
H644 H 0.66001 0.98027 0.07641 0.0
H645 H 0.69691 0.96722 0.05642 0.0
H646 H 0.6964 0.01827 0.0131 0.0
H647 H 0.65952 0.03145 0.03293 0.0
H648 H 0.65953 0.0214 0.98817 0.0
H649 H 0.56889 0.9144 0.96577 0.0
H650 H 0.52565 0.94199 0.99732 0.0
H651 H 0.6023 1.00295 0.05709 0.0
C652 C 0.69917 0.94609 0.98159 0.0
C653 C 0.70326 0.9225 0.95422 0.0
C654 C 0.67446 0.9037 0.93943 0.0
C655 C 0.64237 0.90861 0.95111 0.0
C656 C 0.63926 0.93224 0.97786 0.0
C657 C 0.66688 0.9505 0.99311 0.0
C658 C 0.65655 0.97473 0.02114 0.0
C659 C 0.66922 0.96376 0.05585 0.0
C660 C 0.66873 0.01377 0.01336 0.0
C661 C 0.61881 0.96754 0.01903 0.0
C662 C 0.60942 0.943 0.99379 0.0
C663 C 0.57599 0.93331 0.98584 0.0
C664 C 0.55157 0.94918 1.00392 0.0
C665 C 0.56045 0.97433 0.03001 0.0
C666 C 0.59463 0.98331 0.03779 0.0
H667 H 0.6928 0.01707 0.5 0.0
H668 H 0.7036 0.12638 0.53491 0.0
H669 H 0.76434 0.12495 0.54078 0.0
H670 H 0.75389 0.98612 0.55427 0.0
H671 H 0.76903 0.95754 0.52255 0.0
H672 H 0.72646 0.96718 0.52127 0.0
H673 H 0.73514 0.98994 0.45955 0.0
H674 H 0.77774 0.98032 0.46062 0.0
H675 H 0.76856 0.02436 0.45035 0.0
H676 H 0.82356 0.11066 0.54499 0.0
H677 H 0.87752 0.08583 0.5434 0.0
H678 H 0.82816 0.98695 0.50335 0.0
C679 C 0.70793 0.04071 0.5089 0.0
C680 C 0.69351 0.07179 0.51718 0.0
C681 C 0.71417 0.10229 0.52841 0.0
C682 C 0.74865 0.1017 0.5319 0.0
C683 C 0.76205 0.07055 0.52367 0.0
C684 C 0.74238 0.04073 0.51208 0.0
C685 C 0.76301 0.01084 0.50434 0.0
C686 C 0.75246 0.97852 0.52696 0.0
C687 C 0.76099 1.00079 0.46646 0.0
C688 C 0.79735 0.02841 0.51362 0.0
C689 C 0.79624 0.06275 0.52497 0.0
C690 C 0.82475 0.08388 0.53595 0.0
C691 C 0.8552 0.06954 0.53514 0.0
C692 C 0.85691 0.0346 0.52311 0.0
C693 C 0.82757 0.0139 0.51219 0.0
H694 H 0.25383 0.62705 0.04591 0.0
H695 H 0.22581 0.71752 0.10249 0.0
H696 H 0.16656 0.69608 0.09367 0.0
H697 H 0.18412 0.62267 0.98374 0.0
H698 H 0.17938 0.57488 0.98267 0.0
H699 H 0.21976 0.59908 0.9904 0.0
H700 H 0.22439 0.56412 0.04618 0.0
H701 H 0.18399 0.54004 0.03879 0.0
H702 H 0.19213 0.56425 0.07792 0.0
H703 H 0.11131 0.66134 0.08588 0.0
H704 H 0.06234 0.61779 0.07488 0.0
H705 H 0.12467 0.55097 0.0202 0.0
C706 C 0.23524 0.64275 0.05584 0.0
C707 C 0.24454 0.674 0.07494 0.0
C708 C 0.21941 0.6936 0.0877 0.0
C709 C 0.18563 0.68162 0.08284 0.0
C710 C 0.17734 0.65028 0.06472 0.0
C711 C 0.20133 0.63135 0.0509 0.0
C712 C 0.18551 0.59766 0.03372 0.0
C713 C 0.19261 0.59865 0.99535 0.0
C714 C 0.1972 0.56457 0.05015 0.0
C715 C 0.14896 0.6001 0.04104 0.0
C716 C 0.14495 0.63073 0.05898 0.0
C717 C 0.11401 0.63767 0.07122 0.0
C718 C 0.08642 0.61269 0.06501 0.0
C719 C 0.08979 0.58132 0.04639 0.0
C720 C 0.1214 0.57514 0.03387 0.0
H721 H 0.27313 0.52834 0.59351 0.0
H722 H 0.23694 0.41636 0.58522 0.0
H723 H 0.29411 0.40301 0.57304 0.0
H724 H 0.33572 0.52961 0.52624 0.0
H725 H 0.36531 0.56058 0.54847 0.0
H726 H 0.32127 0.56166 0.55495 0.0
H727 H 0.32903 0.55462 0.61977 0.0
H728 H 0.37305 0.55354 0.61347 0.0
H729 H 0.34877 0.51769 0.63535 0.0
H730 H 0.35521 0.40133 0.56482 0.0
H731 H 0.41652 0.41155 0.56042 0.0
H732 H 0.4132 0.52455 0.57347 0.0
C733 C 0.27716 0.50103 0.58887 0.0
C734 C 0.25054 0.47338 0.5903 0.0
C735 C 0.25691 0.43799 0.58421 0.0
C736 C 0.28929 0.43013 0.57722 0.0
C737 C 0.31498 0.45797 0.57623 0.0
C738 C 0.30931 0.49273 0.58174 0.0
C739 C 0.3415 0.51756 0.58017 0.0
C740 C 0.3409 0.5439 0.55069 0.0
C741 C 0.34849 0.53698 0.61422 0.0
C742 C 0.36619 0.49124 0.57346 0.0
C743 C 0.35032 0.45704 0.57117 0.0
C744 C 0.36792 0.428 0.56637 0.0
C745 C 0.40271 0.43404 0.56411 0.0
C746 C 0.41956 0.46882 0.56662 0.0
C747 C 0.40093 0.49777 0.57097 0.0
H748 H 0.89552 0.70937 0.90024 0.0
H749 H 0.9065 0.78245 0.98566 0.0
H750 H 0.9326 0.7384 0.01888 0.0
H751 H 0.8764 0.6297 0.9482 0.0
H752 H 0.90013 0.6029 0.92179 0.0
H753 H 0.88272 0.64022 0.90388 0.0
H754 H 0.94125 0.66644 0.88296 0.0
H755 H 0.95881 0.62907 0.90063 0.0
H756 H 0.97506 0.67352 0.91289 0.0
H757 H 0.95374 0.68555 0.04454 0.0
H758 H 0.97386 0.62882 0.05947 0.0
H759 H 0.95338 0.58992 0.95702 0.0
C760 C 0.90368 0.71619 0.92583 0.0
C761 C 0.89885 0.74954 0.94028 0.0
C762 C 0.90995 0.75731 0.97388 0.0
C763 C 0.92474 0.73235 0.99306 0.0
C764 C 0.92876 0.69972 0.97829 0.0
C765 C 0.91903 0.69165 0.94531 0.0
C766 C 0.92669 0.65454 0.93567 0.0
C767 C 0.89457 0.63042 0.92687 0.0
C768 C 0.95196 0.65599 0.90629 0.0
C769 C 0.94186 0.643 0.96852 0.0
C770 C 0.94244 0.66947 0.9928 0.0
C771 C 0.95376 0.66479 0.02564 0.0
C772 C 0.96501 0.63235 0.03392 0.0
C773 C 0.96539 0.60497 0.00942 0.0
C774 C 0.95375 0.61051 0.97618 0.0
H775 H 0.38846 0.76587 0.12346 0.0
H776 H 0.40879 0.78113 0.23099 0.0
H777 H 0.4245 0.84492 0.22134 0.0
H778 H 0.45643 0.82443 0.0946 0.0
H779 H 0.43508 0.84165 0.05934 0.0
H780 H 0.42201 0.79764 0.07473 0.0
H781 H 0.36206 0.81386 0.08356 0.0
H782 H 0.37494 0.85795 0.06803 0.0
H783 H 0.35547 0.8519 0.10918 0.0
H784 H 0.44204 0.90532 0.20033 0.0
H785 H 0.46117 0.95973 0.16887 0.0
H786 H 0.42957 0.9073 0.07424 0.0
C787 C 0.3953 0.78282 0.14506 0.0
C788 C 0.39694 0.76856 0.1781 0.0
C789 C 0.40724 0.79144 0.20551 0.0
C790 C 0.41608 0.82777 0.20032 0.0
C791 C 0.41459 0.84094 0.16751 0.0
C792 C 0.40445 0.81933 0.14027 0.0
C793 C 0.40732 0.84018 0.10731 0.0
C794 C 0.43166 0.82507 0.08254 0.0
C795 C 0.37289 0.84102 0.09106 0.0
C796 C 0.42129 0.87663 0.12029 0.0
C797 C 0.42498 0.87634 0.15517 0.0
C798 C 0.43895 0.90603 0.17307 0.0
C799 C 0.44986 0.9368 0.15491 0.0
C800 C 0.44677 0.93784 0.1191 0.0
C801 C 0.4318 0.90744 0.10164 0.0
H802 H 0.07666 0.25737 0.67098 0.0
H803 H 0.99106 0.30325 0.63174 0.0
H804 H 0.96658 0.24404 0.61228 0.0
H805 H 0.08352 0.19737 0.60375 0.0
H806 H 0.09539 0.16222 0.63004 0.0
H807 H 0.10497 0.20768 0.64327 0.0
H808 H 0.07373 0.1936 0.7001 0.0
H809 H 0.06416 0.14801 0.68707 0.0
H810 H 0.03107 0.17342 0.69945 0.0
H811 H 0.95326 0.18035 0.59348 0.0
H812 H 0.9519 0.11703 0.57786 0.0
H813 H 0.04593 0.11312 0.62995 0.0
C814 C 0.05254 0.25495 0.65873 0.0
C815 C 0.03577 0.285 0.65295 0.0
C816 C 1.00439 0.28064 0.63653 0.0
C817 C 0.99023 0.24709 0.6254 0.0
C818 C 0.00768 0.21812 0.63102 0.0
C819 C 0.03806 0.22168 0.64748 0.0
C820 C 0.05237 0.18661 0.64914 0.0
C821 C 0.08605 0.18861 0.63043 0.0
C822 C 0.0555 0.17471 0.68614 0.0
C823 C 0.0256 0.16292 0.63051 0.0
C824 C 0.99993 0.1815 0.62038 0.0
C825 C 0.97307 0.16545 0.60157 0.0
C826 C 0.97254 0.12951 0.59276 0.0
C827 C 0.99873 0.11007 0.60277 0.0
C828 C 0.02537 0.1271 0.62214 0.0
H829 H 0.56594 0.2809 0.47681 0.0
H830 H 0.6503 0.29347 0.40765 0.0
H831 H 0.65831 0.35796 0.42023 0.0
H832 H 0.53346 0.36145 0.4555 0.0
H833 H 0.52048 0.36959 0.49837 0.0
H834 H 0.52219 0.32483 0.48385 0.0
H835 H 0.56135 0.31418 0.5339 0.0
H836 H 0.55991 0.35901 0.54842 0.0
H837 H 0.59948 0.34334 0.53953 0.0
H838 H 0.65654 0.42214 0.44147 0.0
H839 H 0.64343 0.4789 0.46695 0.0
H840 H 0.56033 0.42174 0.5212 0.0
C841 C 0.58616 0.29708 0.46423 0.0
C842 C 0.60753 0.2821 0.44129 0.0
C843 C 0.63357 0.30439 0.42532 0.0
C844 C 0.63836 0.34101 0.43238 0.0
C845 C 0.61686 0.35485 0.4554 0.0
C846 C 0.59119 0.33343 0.47089 0.0
C847 C 0.57105 0.3544 0.49421 0.0
C848 C 0.53465 0.35245 0.48225 0.0
C849 C 0.57309 0.34199 0.5312 0.0
C850 C 0.58927 0.39107 0.48947 0.0
C851 C 0.61574 0.39106 0.46718 0.0
C852 C 0.63585 0.42236 0.45896 0.0
C853 C 0.62833 0.45443 0.47361 0.0
C854 C 0.60084 0.4548 0.49599 0.0
C855 C 0.58147 0.42252 0.50412 0.0
loop_
_geom_bond_atom_site_label_1
_geom_bond_atom_site_label_2
_geom_bond_distance
_geom_bond_site_symmetry_2
_ccdc_geom_bond_type
O0 Cd1 2.300 . S
O0 C7 1.275 . S
Cd1 O0 2.300 . S
Cd1 O9 2.381 . S
Cd1 O10 2.378 . S
O2 Cd3 2.385 . S
O2 C7 1.255 . S
Cd3 O2 2.385 . S
Cd3 O4 2.317 . S
O4 Cd3 2.317 . S
O4 C5 1.232 . S
C5 O4 1.232 . S
C5 O6 1.218 . S
O6 C5 1.218 . S
C7 O0 1.275 . S
C7 O2 1.255 . S
C8 O9 1.258 . S
C8 O10 1.256 . S
O9 Cd1 2.381 . S
O9 C8 1.258 . S
O10 Cd1 2.378 . S
O10 C8 1.256 . S
O11 Cd12 2.300 . S
O11 C18 1.275 . S
Cd12 O11 2.300 . S
Cd12 O20 2.381 . S
Cd12 O21 2.378 . S
O13 Cd14 2.385 . S
O13 C18 1.255 . S
Cd14 O13 2.385 . S
Cd14 O15 2.317 . S
O15 Cd14 2.317 . S
O15 C16 1.232 . S
C16 O15 1.232 . S
C16 O17 1.218 . S
O17 C16 1.218 . S
C18 O11 1.275 . S
C18 O13 1.255 . S
C19 O20 1.258 . S
C19 O21 1.256 . S
O20 Cd12 2.381 . S
O20 C19 1.258 . S
O21 Cd12 2.378 . S
O21 C19 1.256 . S
O22 Cd23 2.300 . S
O22 C29 1.275 . S
Cd23 O22 2.300 . S
Cd23 O31 2.381 . S
Cd23 O32 2.378 . S
O24 Cd25 2.385 . S
O24 C29 1.255 . S
Cd25 O24 2.385 . S
Cd25 O26 2.317 . S
O26 Cd25 2.317 . S
O26 C27 1.232 . S
C27 O26 1.232 . S
C27 O28 1.218 . S
O28 C27 1.218 . S
C29 O22 1.275 . S
C29 O24 1.255 . S
C30 O31 1.258 . S
C30 O32 1.256 . S
O31 Cd23 2.381 . S
O31 C30 1.258 . S
O32 Cd23 2.378 . S
O32 C30 1.256 . S
O33 Cd34 2.300 . S
O33 C40 1.275 . S
Cd34 O33 2.300 . S
Cd34 O42 2.381 . S
Cd34 O43 2.378 . S
O35 Cd36 2.385 . S
O35 C40 1.255 . S
Cd36 O35 2.385 . S
Cd36 O37 2.317 . S
O37 Cd36 2.317 . S
O37 C38 1.232 . S
C38 O37 1.232 . S
C38 O39 1.218 . S
O39 C38 1.218 . S
C40 O33 1.275 . S
C40 O35 1.255 . S
C41 O42 1.258 . S
C41 O43 1.256 . S
O42 Cd34 2.381 . S
O42 C41 1.258 . S
O43 Cd34 2.378 . S
O43 C41 1.256 . S
O44 Cd45 2.300 . S
O44 C51 1.275 . S
Cd45 O44 2.300 . S
Cd45 O53 2.381 . S
Cd45 O54 2.378 . S
O46 Cd47 2.385 . S
O46 C51 1.255 . S
Cd47 O46 2.385 . S
Cd47 O48 2.317 . S
O48 Cd47 2.317 . S
O48 C49 1.232 . S
C49 O48 1.232 . S
C49 O50 1.218 . S
O50 C49 1.218 . S
C51 O44 1.275 . S
C51 O46 1.255 . S
C52 O53 1.258 . S
C52 O54 1.256 . S
O53 Cd45 2.381 . S
O53 C52 1.258 . S
O54 Cd45 2.378 . S
O54 C52 1.256 . S
O55 Cd56 2.300 . S
O55 C62 1.275 . S
Cd56 O55 2.300 . S
Cd56 O64 2.381 . S
Cd56 O65 2.378 . S
O57 Cd58 2.385 . S
O57 C62 1.255 . S
Cd58 O57 2.385 . S
Cd58 O59 2.317 . S
O59 Cd58 2.317 . S
O59 C60 1.232 . S
C60 O59 1.232 . S
C60 O61 1.218 . S
O61 C60 1.218 . S
C62 O55 1.275 . S
C62 O57 1.255 . S
C63 O64 1.258 . S
C63 O65 1.256 . S
O64 Cd56 2.381 . S
O64 C63 1.258 . S
O65 Cd56 2.378 . S
O65 C63 1.256 . S
O66 Cd67 2.300 . S
O66 C73 1.275 . S
Cd67 O66 2.300 . S
Cd67 O75 2.381 . S
Cd67 O76 2.378 . S
O68 Cd69 2.385 . S
O68 C73 1.255 . S
Cd69 O68 2.385 . S
Cd69 O70 2.317 . S
O70 Cd69 2.317 . S
O70 C71 1.232 . S
C71 O70 1.232 . S
C71 O72 1.218 . S
O72 C71 1.218 . S
C73 O66 1.275 . S
C73 O68 1.255 . S
C74 O75 1.258 . S
C74 O76 1.256 . S
O75 Cd67 2.381 . S
O75 C74 1.258 . S
O76 Cd67 2.378 . S
O76 C74 1.256 . S
O77 Cd78 2.300 . S
O77 C84 1.275 . S
Cd78 O77 2.300 . S
Cd78 O86 2.381 . S
Cd78 O87 2.378 . S
O79 Cd80 2.385 . S
O79 C84 1.255 . S
Cd80 O79 2.385 . S
Cd80 O81 2.317 . S
O81 Cd80 2.317 . S
O81 C82 1.232 . S
C82 O81 1.232 . S
C82 O83 1.218 . S
O83 C82 1.218 . S
C84 O77 1.275 . S
C84 O79 1.255 . S
C85 O86 1.258 . S
C85 O87 1.256 . S
O86 Cd78 2.381 . S
O86 C85 1.258 . S
O87 Cd78 2.378 . S
O87 C85 1.256 . S
Co88 N93 2.057 . S
Co88 O105 2.021 . S
Co88 O108 2.062 . S
Co88 O112 2.117 1_545 S
Co88 O113 2.014 1_545 S
C89 O109 1.259 1_655 S
C89 O112 1.258 . S
Co90 N99 2.057 . S
Co90 O106 2.117 1_565 S
Co90 O107 2.020 1_565 S
Co90 O109 2.021 . S
Co90 O114 2.062 . S
C91 N93 1.316 . S
C91 N94 1.347 . S
C91 H96 0.931 . S
C92 N93 1.375 1_565 S
C92 C95 1.350 1_565 S
C92 H97 0.930 . S
N93 Co88 2.057 . S
N93 C91 1.316 . S
N93 C92 1.375 1_545 S
N94 C91 1.347 . S
N94 C95 1.373 . S
C95 C92 1.350 1_545 S
C95 N94 1.373 . S
C95 H116 0.931 1_545 S
H96 C91 0.931 . S
H97 C92 0.930 . S
C98 O105 1.259 1_455 S
C98 O106 1.258 . S
N99 Co90 2.057 . S
N99 C100 1.316 . S
N99 C101 1.375 1_565 S
C100 N99 1.316 . S
C100 N102 1.347 . S
C100 H111 0.931 . S
C101 N99 1.375 1_545 S
C101 C103 1.350 . S
C101 H110 0.930 . S
N102 C100 1.347 . S
N102 C103 1.373 1_565 S
C103 C101 1.350 . S
C103 N102 1.373 1_545 S
C103 H117 0.931 . S
C104 O107 1.256 . S
C104 O108 1.255 1_455 S
O105 Co88 2.021 . S
O105 C98 1.259 1_655 S
O106 Co90 2.117 1_545 S
O106 C98 1.258 . S
O107 Co90 2.020 1_545 S
O107 C104 1.256 . S
O108 Co88 2.062 . S
O108 C104 1.255 1_655 S
O109 C89 1.259 1_455 S
O109 Co90 2.021 . S
H110 C101 0.930 . S
H111 C100 0.931 . S
O112 Co88 2.117 1_565 S
O112 C89 1.258 . S
O113 Co88 2.014 1_565 S
O113 C115 1.264 . S
O114 Co90 2.062 . S
O114 C115 1.255 1_455 S
C115 O113 1.264 . S
C115 O114 1.255 1_655 S
H116 C95 0.931 1_565 S
H117 C103 0.931 . S
Co118 N123 2.057 1_544 S
Co118 O135 2.021 . S
Co118 O138 2.062 . S
Co118 O142 2.117 1_545 S
Co118 O143 2.020 . S
C119 O139 1.259 . S
C119 O142 1.258 . S
Co120 N129 2.057 . S
Co120 O136 2.117 . S
Co120 O137 2.020 . S
Co120 O139 2.021 1_545 S
Co120 O144 2.062 . S
C121 N123 1.316 1_545 S
C121 N124 1.347 1_545 S
C121 H126 0.931 . S
C122 N123 1.375 . S
C122 C125 1.350 . S
C122 H127 0.930 . S
N123 Co118 2.057 1_566 S
N123 C121 1.316 1_565 S
N123 C122 1.375 . S
N124 C121 1.347 1_565 S
N124 C125 1.373 . S
C125 C122 1.350 . S
C125 N124 1.373 . S
C125 H146 0.931 . S
H126 C121 0.931 . S
H127 C122 0.930 . S
C128 O135 1.259 . S
C128 O136 1.258 . S
N129 Co120 2.057 . S
N129 C130 1.316 . S
N129 C131 1.375 . S
C130 N129 1.316 . S
C130 N132 1.347 . S
C130 H141 0.931 . S
C131 N129 1.375 . S
C131 C133 1.350 . S
C131 H140 0.930 . S
N132 C130 1.347 . S
N132 C133 1.373 . S
C133 C131 1.350 . S
C133 N132 1.373 . S
C133 H147 0.931 . S
C134 O137 1.256 . S
C134 O138 1.255 . S
O135 Co118 2.021 . S
O135 C128 1.259 . S
O136 Co120 2.117 . S
O136 C128 1.258 . S
O137 Co120 2.020 . S
O137 C134 1.256 . S
O138 Co118 2.062 . S
O138 C134 1.255 . S
O139 C119 1.259 . S
O139 Co120 2.021 1_565 S
H140 C131 0.930 . S
H141 C130 0.931 . S
O142 Co118 2.117 1_565 S
O142 C119 1.258 . S
O143 Co118 2.020 . S
O143 C145 1.256 . S
O144 Co120 2.062 . S
O144 C145 1.255 . S
C145 O143 1.256 . S
C145 O144 1.255 . S
H146 C125 0.931 . S
H147 C133 0.931 . S
Co148 N153 2.057 . S
Co148 O165 2.021 . S
Co148 O168 2.062 . S
Co148 O172 2.117 . S
Co148 O173 2.020 . S
C149 O169 1.259 . S
C149 O172 1.258 . S
Co150 N159 2.057 . S
Co150 O166 2.117 . S
Co150 O167 2.020 . S
Co150 O169 2.021 . S
Co150 O174 2.062 . S
C151 N153 1.316 . S
C151 N154 1.347 . S
C151 H156 0.931 . S
C152 N153 1.375 . S
C152 C155 1.350 . S
C152 H157 0.930 . S
N153 Co148 2.057 . S
N153 C151 1.316 . S
N153 C152 1.375 . S
N154 C151 1.347 . S
N154 C155 1.373 . S
C155 C152 1.350 . S
C155 N154 1.373 . S
C155 H176 0.931 . S
H156 C151 0.931 . S
H157 C152 0.930 . S
C158 O165 1.259 . S
C158 O166 1.258 . S
N159 Co150 2.057 . S
N159 C160 1.316 . S
N159 C161 1.375 . S
C160 N159 1.316 . S
C160 N162 1.347 . S
C160 H171 0.931 . S
C161 N159 1.375 . S
C161 C163 1.350 . S
C161 H170 0.930 . S
N162 C160 1.347 . S
N162 C163 1.373 . S
C163 C161 1.350 . S
C163 N162 1.373 . S
C163 H177 0.931 . S
C164 O167 1.256 . S
C164 O168 1.255 . S
O165 Co148 2.021 . S
O165 C158 1.259 . S
O166 Co150 2.117 . S
O166 C158 1.258 . S
O167 Co150 2.020 . S
O167 C164 1.256 . S
O168 Co148 2.062 . S
O168 C164 1.255 . S
O169 C149 1.259 . S
O169 Co150 2.021 . S
H170 C161 0.930 . S
H171 C160 0.931 . S
O172 Co148 2.117 . S
O172 C149 1.258 . S
O173 Co148 2.020 . S
O173 C175 1.256 . S
O174 Co150 2.062 . S
O174 C175 1.255 . S
C175 O173 1.256 . S
C175 O174 1.255 . S
H176 C155 0.931 . S
H177 C163 0.931 . S
Co178 N183 2.057 . S
Co178 O195 2.021 1_556 S
Co178 O198 2.062 1_556 S
Co178 O202 2.117 1_455 S
Co178 O203 2.020 . S
C179 O199 1.259 . S
C179 O202 1.258 1_554 S
Co180 N189 2.057 . S
Co180 O196 2.117 . S
Co180 O197 2.020 . S
Co180 O199 2.021 1_455 S
Co180 O204 2.062 . S
C181 N183 1.316 . S
C181 N184 1.347 . S
C181 H186 0.931 . S
C182 N183 1.375 . S
C182 C185 1.350 . S
C182 H187 0.930 1_455 S
N183 Co178 2.057 . S
N183 C181 1.316 . S
N183 C182 1.375 . S
N184 C181 1.347 . S
N184 C185 1.373 . S
C185 C182 1.350 . S
C185 N184 1.373 . S
C185 H206 0.931 . S
H186 C181 0.931 . S
H187 C182 0.930 1_655 S
C188 O195 1.259 . S
C188 O196 1.258 . S
N189 Co180 2.057 . S
N189 C190 1.316 1_455 S
N189 C191 1.375 . S
C190 N189 1.316 1_655 S
C190 N192 1.347 . S
C190 H201 0.931 . S
C191 N189 1.375 . S
C191 C193 1.350 . S
C191 H200 0.930 . S
N192 C190 1.347 . S
N192 C193 1.373 1_655 S
C193 C191 1.350 . S
C193 N192 1.373 1_455 S
C193 H207 0.931 . S
C194 O197 1.256 . S
C194 O198 1.255 . S
O195 Co178 2.021 1_554 S
O195 C188 1.259 . S
O196 Co180 2.117 . S
O196 C188 1.258 . S
O197 Co180 2.020 . S
O197 C194 1.256 . S
O198 Co178 2.062 1_554 S
O198 C194 1.255 . S
O199 C179 1.259 . S
O199 Co180 2.021 1_655 S
H200 C191 0.930 . S
H201 C190 0.931 . S
O202 Co178 2.117 1_655 S
O202 C179 1.258 1_556 S
O203 Co178 2.020 . S
O203 C205 1.256 1_556 S
O204 Co180 2.062 . S
O204 C205 1.255 . S
C205 O203 1.256 1_554 S
C205 O204 1.255 . S
H206 C185 0.931 . S
H207 C193 0.931 . S
H208 C220 0.930 . S
H209 C222 0.930 . S
H210 C223 0.930 . S
H211 C227 0.959 1_545 S
H212 C227 0.959 . S
H213 C227 0.961 . S
H214 C228 0.960 . S
H215 C228 0.961 . S
H216 C228 0.959 . S
H217 C231 0.929 . S
H218 C232 0.931 . S
H219 C234 0.930 1_565 S
C220 H208 0.930 . S
C220 C221 1.399 . S
C220 C225 1.399 . S
C221 C220 1.399 . S
C221 C222 1.376 . S
C222 H209 0.930 . S
C222 C221 1.376 . S
C222 C223 1.388 . S
C223 H210 0.930 . S
C223 C222 1.388 . S
C223 C224 1.390 . S
C224 C223 1.390 . S
C224 C225 1.394 . S
C224 C230 1.465 . S
C225 C220 1.399 . S
C225 C224 1.394 . S
C225 C226 1.516 . S
C226 C225 1.516 . S
C226 C227 1.502 1_545 S
C226 C228 1.561 1_545 S
C226 C229 1.526 . S
C227 H211 0.959 1_565 S
C227 H212 0.959 . S
C227 H213 0.961 . S
C227 C226 1.502 1_565 S
C228 H214 0.960 . S
C228 H215 0.961 . S
C228 H216 0.959 . S
C228 C226 1.561 1_565 S
C229 C226 1.526 . S
C229 C230 1.396 . S
C229 C234 1.390 . S
C230 C224 1.465 . S
C230 C229 1.396 . S
C230 C231 1.399 . S
C231 H217 0.929 . S
C231 C230 1.399 . S
C231 C232 1.385 . S
C232 H218 0.931 . S
C232 C231 1.385 . S
C232 C233 1.389 . S
C233 C232 1.389 . S
C233 C234 1.387 . S
C234 H219 0.930 1_545 S
C234 C229 1.390 . S
C234 C233 1.387 . S
H235 C247 0.930 . S
H236 C249 0.930 . S
H237 C250 0.930 . S
H238 C254 0.959 . S
H239 C254 0.959 . S
H240 C254 0.961 . S
H241 C255 0.960 . S
H242 C255 0.961 . S
H243 C255 0.959 . S
H244 C258 0.929 1_545 S
H245 C259 0.931 . S
H246 C261 0.930 . S
C247 H235 0.930 . S
C247 C248 1.399 . S
C247 C252 1.399 . S
C248 C247 1.399 . S
C248 C249 1.376 . S
C249 H236 0.930 . S
C249 C248 1.376 . S
C249 C250 1.388 . S
C250 H237 0.930 . S
C250 C249 1.388 . S
C250 C251 1.390 . S
C251 C250 1.390 . S
C251 C252 1.394 . S
C251 C257 1.465 . S
C252 C247 1.399 . S
C252 C251 1.394 . S
C252 C253 1.516 . S
C253 C252 1.516 . S
C253 C254 1.502 . S
C253 C255 1.561 . S
C253 C256 1.526 . S
C254 H238 0.959 . S
C254 H239 0.959 . S
C254 H240 0.961 . S
C254 C253 1.502 . S
C255 H241 0.960 . S
C255 H242 0.961 . S
C255 H243 0.959 . S
C255 C253 1.561 . S
C256 C253 1.526 . S
C256 C257 1.396 . S
C256 C261 1.390 . S
C257 C251 1.465 . S
C257 C256 1.396 . S
C257 C258 1.399 . S
C258 H244 0.929 1_565 S
C258 C257 1.399 . S
C258 C259 1.385 1_565 S
C259 H245 0.931 . S
C259 C258 1.385 1_545 S
C259 C260 1.389 1_545 S
C260 C259 1.389 1_565 S
C260 C261 1.387 . S
C261 H246 0.930 . S
C261 C256 1.390 . S
C261 C260 1.387 . S
H262 C274 0.930 . S
H263 C276 0.930 . S
H264 C277 0.930 . S
H265 C281 0.959 . S
H266 C281 0.959 . S
H267 C281 0.961 . S
H268 C282 0.960 . S
H269 C282 0.961 . S
H270 C282 0.959 . S
H271 C285 0.929 . S
H272 C286 0.931 . S
H273 C288 0.930 . S
C274 H262 0.930 . S
C274 C275 1.399 . S
C274 C279 1.399 . S
C275 C274 1.399 . S
C275 C276 1.376 . S
C276 H263 0.930 . S
C276 C275 1.376 . S
C276 C277 1.388 . S
C277 H264 0.930 . S
C277 C276 1.388 . S
C277 C278 1.390 . S
C278 C277 1.390 . S
C278 C279 1.394 . S
C278 C284 1.465 . S
C279 C274 1.399 . S
C279 C278 1.394 . S
C279 C280 1.516 . S
C280 C279 1.516 . S
C280 C281 1.502 . S
C280 C282 1.561 . S
C280 C283 1.526 . S
C281 H265 0.959 . S
C281 H266 0.959 . S
C281 H267 0.961 . S
C281 C280 1.502 . S
C282 H268 0.960 . S
C282 H269 0.961 . S
C282 H270 0.959 . S
C282 C280 1.561 . S
C283 C280 1.526 . S
C283 C284 1.396 . S
C283 C288 1.390 . S
C284 C278 1.465 . S
C284 C283 1.396 . S
C284 C285 1.399 . S
C285 H271 0.929 . S
C285 C284 1.399 . S
C285 C286 1.385 . S
C286 H272 0.931 . S
C286 C285 1.385 . S
C286 C287 1.389 . S
C287 C286 1.389 . S
C287 C288 1.387 . S
C288 H273 0.930 . S
C288 C283 1.390 . S
C288 C287 1.387 . S
H289 C301 0.930 . S
H290 C303 0.930 . S
H291 C304 0.930 . S
H292 C308 0.959 . S
H293 C308 0.959 . S
H294 C308 0.961 . S
H295 C309 0.960 . S
H296 C309 0.961 1_655 S
H297 C309 0.959 . S
H298 C312 0.929 . S
H299 C313 0.931 . S
H300 C315 0.930 . S
C301 H289 0.930 . S
C301 C302 1.399 . S
C301 C306 1.399 . S
C302 C301 1.399 . S
C302 C303 1.376 . S
C303 H290 0.930 . S
C303 C302 1.376 . S
C303 C304 1.388 . S
C304 H291 0.930 . S
C304 C303 1.388 . S
C304 C305 1.390 . S
C305 C304 1.390 . S
C305 C306 1.394 . S
C305 C311 1.465 . S
C306 C301 1.399 . S
C306 C305 1.394 . S
C306 C307 1.516 . S
C307 C306 1.516 . S
C307 C308 1.502 . S
C307 C309 1.561 1_655 S
C307 C310 1.526 . S
C308 H292 0.959 . S
C308 H293 0.959 . S
C308 H294 0.961 . S
C308 C307 1.502 . S
C309 H295 0.960 . S
C309 H296 0.961 1_455 S
C309 H297 0.959 . S
C309 C307 1.561 1_455 S
C310 C307 1.526 . S
C310 C311 1.396 . S
C310 C315 1.390 . S
C311 C305 1.465 . S
C311 C310 1.396 . S
C311 C312 1.399 . S
C312 H298 0.929 . S
C312 C311 1.399 . S
C312 C313 1.385 . S
C313 H299 0.931 . S
C313 C312 1.385 . S
C313 C314 1.389 . S
C314 C313 1.389 . S
C314 C315 1.387 . S
C315 H300 0.930 . S
C315 C310 1.390 . S
C315 C314 1.387 . S
H316 C328 0.930 . S
H317 C330 0.930 . S
H318 C331 0.930 . S
H319 C335 0.959 . S
H320 C335 0.959 . S
H321 C335 0.961 . S
H322 C336 0.960 . S
H323 C336 0.961 . S
H324 C336 0.959 . S
H325 C339 0.929 . S
H326 C340 0.931 . S
H327 C342 0.930 . S
C328 H316 0.930 . S
C328 C329 1.399 . S
C328 C333 1.399 . S
C329 C328 1.399 . S
C329 C330 1.376 . S
C330 H317 0.930 . S
C330 C329 1.376 . S
C330 C331 1.388 . S
C331 H318 0.930 . S
C331 C330 1.388 . S
C331 C332 1.390 . S
C332 C331 1.390 . S
C332 C333 1.394 . S
C332 C338 1.465 . S
C333 C328 1.399 . S
C333 C332 1.394 . S
C333 C334 1.516 . S
C334 C333 1.516 . S
C334 C335 1.502 . S
C334 C336 1.561 . S
C334 C337 1.526 . S
C335 H319 0.959 . S
C335 H320 0.959 . S
C335 H321 0.961 . S
C335 C334 1.502 . S
C336 H322 0.960 . S
C336 H323 0.961 . S
C336 H324 0.959 . S
C336 C334 1.561 . S
C337 C334 1.526 . S
C337 C338 1.396 . S
C337 C342 1.390 . S
C338 C332 1.465 . S
C338 C337 1.396 . S
C338 C339 1.399 . S
C339 H325 0.929 . S
C339 C338 1.399 . S
C339 C340 1.385 . S
C340 H326 0.931 . S
C340 C339 1.385 . S
C340 C341 1.389 . S
C341 C340 1.389 . S
C341 C342 1.387 . S
C342 H327 0.930 . S
C342 C337 1.390 . S
C342 C341 1.387 . S
H343 C355 0.930 . S
H344 C357 0.930 . S
H345 C358 0.930 . S
H346 C362 0.959 . S
H347 C362 0.959 . S
H348 C362 0.961 . S
H349 C363 0.960 . S
H350 C363 0.961 . S
H351 C363 0.959 . S
H352 C366 0.929 . S
H353 C367 0.931 . S
H354 C369 0.930 . S
C355 H343 0.930 . S
C355 C356 1.399 . S
C355 C360 1.399 . S
C356 C355 1.399 . S
C356 C357 1.376 . S
C357 H344 0.930 . S
C357 C356 1.376 . S
C357 C358 1.388 . S
C358 H345 0.930 . S
C358 C357 1.388 . S
C358 C359 1.390 . S
C359 C358 1.390 . S
C359 C360 1.394 . S
C359 C365 1.465 . S
C360 C355 1.399 . S
C360 C359 1.394 . S
C360 C361 1.516 . S
C361 C360 1.516 . S
C361 C362 1.502 . S
C361 C363 1.561 . S
C361 C364 1.526 . S
C362 H346 0.959 . S
C362 H347 0.959 . S
C362 H348 0.961 . S
C362 C361 1.502 . S
C363 H349 0.960 . S
C363 H350 0.961 . S
C363 H351 0.959 . S
C363 C361 1.561 . S
C364 C361 1.526 . S
C364 C365 1.396 . S
C364 C369 1.390 . S
C365 C359 1.465 . S
C365 C364 1.396 . S
C365 C366 1.399 . S
C366 H352 0.929 . S
C366 C365 1.399 . S
C366 C367 1.385 . S
C367 H353 0.931 . S
C367 C366 1.385 . S
C367 C368 1.389 . S
C368 C367 1.389 . S
C368 C369 1.387 . S
C369 H354 0.930 . S
C369 C364 1.390 . S
C369 C368 1.387 . S
H370 C382 0.930 . S
H371 C384 0.930 . S
H372 C385 0.928 1_554 S
H373 C389 0.959 . S
H374 C389 0.959 . S
H375 C389 0.961 . S
H376 C390 0.960 . S
H377 C390 0.961 . S
H378 C390 0.959 1_554 S
H379 C393 0.929 . S
H380 C394 0.931 . S
H381 C396 0.930 . S
C382 H370 0.930 . S
C382 C383 1.399 . S
C382 C387 1.399 . S
C383 C382 1.399 . S
C383 C384 1.376 . S
C384 H371 0.930 . S
C384 C383 1.376 . S
C384 C385 1.388 . S
C385 H372 0.928 1_556 S
C385 C384 1.388 . S
C385 C386 1.390 . S
C386 C385 1.390 . S
C386 C387 1.394 . S
C386 C392 1.465 . S
C387 C382 1.399 . S
C387 C386 1.394 . S
C387 C388 1.516 . S
C388 C387 1.516 . S
C388 C389 1.502 . S
C388 C390 1.561 . S
C388 C391 1.526 . S
C389 H373 0.959 . S
C389 H374 0.959 . S
C389 H375 0.961 . S
C389 C388 1.502 . S
C390 H376 0.960 . S
C390 H377 0.961 . S
C390 H378 0.959 1_556 S
C390 C388 1.561 . S
C391 C388 1.526 . S
C391 C392 1.396 . S
C391 C396 1.390 . S
C392 C386 1.465 . S
C392 C391 1.396 . S
C392 C393 1.399 1_556 S
C393 H379 0.929 . S
C393 C392 1.399 1_554 S
C393 C394 1.385 . S
C394 H380 0.931 . S
C394 C393 1.385 . S
C394 C395 1.389 1_554 S
C395 C394 1.389 1_556 S
C395 C396 1.387 . S
C396 H381 0.930 . S
C396 C391 1.390 . S
C396 C395 1.387 . S
H397 C409 0.930 . S
H398 C411 0.930 . S
H399 C412 0.930 . S
H400 C416 0.959 . S
H401 C416 0.959 . S
H402 C416 0.961 . S
H403 C417 0.960 . S
H404 C417 0.961 . S
H405 C417 0.959 . S
H406 C420 0.929 . S
H407 C421 0.931 . S
H408 C423 0.930 . S
C409 H397 0.930 . S
C409 C410 1.399 . S
C409 C414 1.399 . S
C410 C409 1.399 . S
C410 C411 1.376 . S
C411 H398 0.930 . S
C411 C410 1.376 . S
C411 C412 1.388 . S
C412 H399 0.930 . S
C412 C411 1.388 . S
C412 C413 1.390 . S
C413 C412 1.390 . S
C413 C414 1.394 . S
C413 C419 1.465 . S
C414 C409 1.399 . S
C414 C413 1.394 . S
C414 C415 1.516 . S
C415 C414 1.516 . S
C415 C416 1.502 . S
C415 C417 1.561 . S
C415 C418 1.526 . S
C416 H400 0.959 . S
C416 H401 0.959 . S
C416 H402 0.961 . S
C416 C415 1.502 . S
C417 H403 0.960 . S
C417 H404 0.961 . S
C417 H405 0.959 . S
C417 C415 1.561 . S
C418 C415 1.526 . S
C418 C419 1.396 . S
C418 C423 1.390 . S
C419 C413 1.465 . S
C419 C418 1.396 . S
C419 C420 1.399 . S
C420 H406 0.929 . S
C420 C419 1.399 . S
C420 C421 1.385 . S
C421 H407 0.931 . S
C421 C420 1.385 . S
C421 C422 1.389 . S
C422 C421 1.389 . S
C422 C423 1.387 . S
C423 H408 0.930 . S
C423 C418 1.390 . S
C423 C422 1.387 . S
H424 C436 0.930 . S
H425 C438 0.930 . S
H426 C439 0.930 . S
H427 C443 0.959 . S
H428 C443 0.959 . S
H429 C443 0.961 . S
H430 C444 0.960 1_655 S
H431 C444 0.961 1_655 S
H432 C444 0.959 . S
H433 C447 0.929 . S
H434 C448 0.931 . S
H435 C450 0.930 . S
C436 H424 0.930 . S
C436 C437 1.399 . S
C436 C441 1.399 . S
C437 C436 1.399 . S
C437 C438 1.376 . S
C438 H425 0.930 . S
C438 C437 1.376 . S
C438 C439 1.388 . S
C439 H426 0.930 . S
C439 C438 1.388 . S
C439 C440 1.390 . S
C440 C439 1.390 . S
C440 C441 1.394 . S
C440 C446 1.465 . S
C441 C436 1.399 . S
C441 C440 1.394 . S
C441 C442 1.516 . S
C442 C441 1.516 . S
C442 C443 1.502 . S
C442 C444 1.561 . S
C442 C445 1.526 . S
C443 H427 0.959 . S
C443 H428 0.959 . S
C443 H429 0.961 . S
C443 C442 1.502 . S
C444 H430 0.960 1_455 S
C444 H431 0.961 1_455 S
C444 H432 0.959 . S
C444 C442 1.561 . S
C445 C442 1.526 . S
C445 C446 1.396 . S
C445 C450 1.390 . S
C446 C440 1.465 . S
C446 C445 1.396 . S
C446 C447 1.399 . S
C447 H433 0.929 . S
C447 C446 1.399 . S
C447 C448 1.385 . S
C448 H434 0.931 . S
C448 C447 1.385 . S
C448 C449 1.389 . S
C449 C448 1.389 . S
C449 C450 1.387 . S
C450 H435 0.930 . S
C450 C445 1.390 . S
C450 C449 1.387 . S
H451 C463 0.930 . S
H452 C465 0.930 . S
H453 C466 0.930 . S
H454 C470 0.959 . S
H455 C470 0.959 . S
H456 C470 0.961 . S
H457 C471 0.960 . S
H458 C471 0.961 . S
H459 C471 0.959 . S
H460 C474 0.929 . S
H461 C475 0.931 . S
H462 C477 0.930 . S
C463 H451 0.930 . S
C463 C464 1.399 . S
C463 C468 1.399 . S
C464 C463 1.399 . S
C464 C465 1.376 1_556 S
C465 H452 0.930 . S
C465 C464 1.376 1_554 S
C465 C466 1.388 . S
C466 H453 0.930 . S
C466 C465 1.388 . S
C466 C467 1.390 . S
C467 C466 1.390 . S
C467 C468 1.394 1_554 S
C467 C473 1.465 . S
C468 C463 1.399 . S
C468 C467 1.394 1_556 S
C468 C469 1.516 . S
C469 C468 1.516 . S
C469 C470 1.502 . S
C469 C471 1.561 . S
C469 C472 1.526 . S
C470 H454 0.959 . S
C470 H455 0.959 . S
C470 H456 0.961 . S
C470 C469 1.502 . S
C471 H457 0.960 . S
C471 H458 0.961 . S
C471 H459 0.959 . S
C471 C469 1.561 . S
C472 C469 1.526 . S
C472 C473 1.396 1_556 S
C472 C477 1.390 . S
C473 C467 1.465 . S
C473 C472 1.396 1_554 S
C473 C474 1.399 . S
C474 H460 0.929 . S
C474 C473 1.399 . S
C474 C475 1.385 . S
C475 H461 0.931 . S
C475 C474 1.385 . S
C475 C476 1.389 . S
C476 C475 1.389 . S
C476 C477 1.387 1_554 S
C477 H462 0.930 . S
C477 C472 1.390 . S
C477 C476 1.387 1_556 S
H478 C490 0.930 . S
H479 C492 0.930 . S
H480 C493 0.930 . S
H481 C497 0.959 . S
H482 C497 0.959 . S
H483 C497 0.961 . S
H484 C498 0.960 . S
H485 C498 0.966 . S
H486 C498 0.959 . S
H487 C501 0.929 . S
H488 C502 0.931 . S
H489 C504 0.930 1_455 S
C490 H478 0.930 . S
C490 C491 1.399 . S
C490 C495 1.399 . S
C491 C490 1.399 . S
C491 C492 1.376 . S
C492 H479 0.930 . S
C492 C491 1.376 . S
C492 C493 1.388 . S
C493 H480 0.930 . S
C493 C492 1.388 . S
C493 C494 1.390 . S
C494 C493 1.390 . S
C494 C495 1.394 . S
C494 C500 1.465 . S
C495 C490 1.399 . S
C495 C494 1.394 . S
C495 C496 1.516 . S
C496 C495 1.516 . S
C496 C497 1.502 1_655 S
C496 C498 1.561 . S
C496 C499 1.526 . S
C497 H481 0.959 . S
C497 H482 0.959 . S
C497 H483 0.961 . S
C497 C496 1.502 1_455 S
C498 H484 0.960 . S
C498 H485 0.966 . S
C498 H486 0.959 . S
C498 C496 1.561 . S
C499 C496 1.526 . S
C499 C500 1.396 . S
C499 C504 1.390 . S
C500 C494 1.465 . S
C500 C499 1.396 . S
C500 C501 1.399 . S
C501 H487 0.929 . S
C501 C500 1.399 . S
C501 C502 1.385 . S
C502 H488 0.931 . S
C502 C501 1.385 . S
C502 C503 1.389 . S
C503 C502 1.389 . S
C503 C504 1.387 . S
C504 H489 0.930 1_655 S
C504 C499 1.390 . S
C504 C503 1.387 . S
H505 C517 0.930 . S
H506 C519 0.930 . S
H507 C520 0.930 . S
H508 C524 0.959 . S
H509 C524 0.959 . S
H510 C524 0.961 . S
H511 C525 0.960 . S
H512 C525 0.961 . S
H513 C525 0.959 . S
H514 C528 0.929 . S
H515 C529 0.931 . S
H516 C531 0.930 . S
C517 H505 0.930 . S
C517 C518 1.399 . S
C517 C522 1.399 . S
C518 C517 1.399 . S
C518 C519 1.376 . S
C519 H506 0.930 . S
C519 C518 1.376 . S
C519 C520 1.388 . S
C520 H507 0.930 . S
C520 C519 1.388 . S
C520 C521 1.390 . S
C521 C520 1.390 . S
C521 C522 1.394 . S
C521 C527 1.465 . S
C522 C517 1.399 . S
C522 C521 1.394 . S
C522 C523 1.516 . S
C523 C522 1.516 . S
C523 C524 1.502 . S
C523 C525 1.561 . S
C523 C526 1.526 . S
C524 H508 0.959 . S
C524 H509 0.959 . S
C524 H510 0.961 . S
C524 C523 1.502 . S
C525 H511 0.960 . S
C525 H512 0.961 . S
C525 H513 0.959 . S
C525 C523 1.561 . S
C526 C523 1.526 . S
C526 C527 1.396 . S
C526 C531 1.390 . S
C527 C521 1.465 . S
C527 C526 1.396 . S
C527 C528 1.399 . S
C528 H514 0.929 . S
C528 C527 1.399 . S
C528 C529 1.385 . S
C529 H515 0.931 . S
C529 C528 1.385 . S
C529 C530 1.389 . S
C530 C529 1.389 . S
C530 C531 1.387 . S
C531 H516 0.930 . S
C531 C526 1.390 . S
C531 C530 1.387 . S
H532 C544 0.930 . S
H533 C546 0.930 . S
H534 C547 0.930 1_545 S
H535 C551 0.960 . S
H536 C551 0.959 . S
H537 C551 0.961 . S
H538 C552 0.960 . S
H539 C552 0.961 . S
H540 C552 0.959 . S
H541 C555 0.929 . S
H542 C556 0.931 . S
H543 C558 0.930 . S
C544 H532 0.930 . S
C544 C545 1.399 . S
C544 C549 1.399 . S
C545 C544 1.399 . S
C545 C546 1.376 . S
C546 H533 0.930 . S
C546 C545 1.376 . S
C546 C547 1.388 . S
C547 H534 0.930 1_565 S
C547 C546 1.388 . S
C547 C548 1.390 . S
C548 C547 1.390 . S
C548 C549 1.394 . S
C548 C554 1.465 . S
C549 C544 1.399 . S
C549 C548 1.394 . S
C549 C550 1.516 . S
C550 C549 1.516 . S
C550 C551 1.502 . S
C550 C552 1.561 . S
C550 C553 1.526 . S
C551 H535 0.960 . S
C551 H536 0.959 . S
C551 H537 0.961 . S
C551 C550 1.502 . S
C552 H538 0.960 . S
C552 H539 0.961 . S
C552 H540 0.959 . S
C552 C550 1.561 . S
C553 C550 1.526 . S
C553 C554 1.396 . S
C553 C558 1.390 . S
C554 C548 1.465 . S
C554 C553 1.396 . S
C554 C555 1.399 1_565 S
C555 H541 0.929 . S
C555 C554 1.399 1_545 S
C555 C556 1.385 . S
C556 H542 0.931 . S
C556 C555 1.385 . S
C556 C557 1.389 1_545 S
C557 C556 1.389 1_565 S
C557 C558 1.387 . S
C558 H543 0.930 . S
C558 C553 1.390 . S
C558 C557 1.387 . S
H559 C571 0.930 . S
H560 C573 0.930 . S
H561 C574 0.930 . S
H562 C578 0.959 . S
H563 C578 0.959 . S
H564 C578 0.961 . S
H565 C579 0.960 . S
H566 C579 0.961 . S
H567 C579 0.959 . S
H568 C582 0.929 . S
H569 C583 0.931 . S
H570 C585 0.930 . S
C571 H559 0.930 . S
C571 C572 1.399 . S
C571 C576 1.399 . S
C572 C571 1.399 . S
C572 C573 1.376 . S
C573 H560 0.930 . S
C573 C572 1.376 . S
C573 C574 1.388 . S
C574 H561 0.930 . S
C574 C573 1.388 . S
C574 C575 1.390 . S
C575 C574 1.390 . S
C575 C576 1.394 . S
C575 C581 1.465 . S
C576 C571 1.399 . S
C576 C575 1.394 . S
C576 C577 1.516 . S
C577 C576 1.516 . S
C577 C578 1.502 . S
C577 C579 1.561 . S
C577 C580 1.526 . S
C578 H562 0.959 . S
C578 H563 0.959 . S
C578 H564 0.961 . S
C578 C577 1.502 . S
C579 H565 0.960 . S
C579 H566 0.961 . S
C579 H567 0.959 . S
C579 C577 1.561 . S
C580 C577 1.526 . S
C580 C581 1.396 . S
C580 C585 1.390 . S
C581 C575 1.465 . S
C581 C580 1.396 . S
C581 C582 1.399 . S
C582 H568 0.929 . S
C582 C581 1.399 . S
C582 C583 1.385 . S
C583 H569 0.931 . S
C583 C582 1.385 . S
C583 C584 1.389 . S
C584 C583 1.389 . S
C584 C585 1.387 . S
C585 H570 0.930 . S
C585 C580 1.390 . S
C585 C584 1.387 . S
H586 C598 0.930 . S
H587 C600 0.930 . S
H588 C601 0.930 . S
H589 C605 0.959 . S
H590 C605 0.959 . S
H591 C605 0.961 . S
H592 C606 0.960 . S
H593 C606 0.961 . S
H594 C606 0.959 . S
H595 C609 0.929 . S
H596 C610 0.931 . S
H597 C612 0.930 . S
C598 H586 0.930 . S
C598 C599 1.399 . S
C598 C603 1.399 . S
C599 C598 1.399 . S
C599 C600 1.376 . S
C600 H587 0.930 . S
C600 C599 1.376 . S
C600 C601 1.388 . S
C601 H588 0.930 . S
C601 C600 1.388 . S
C601 C602 1.390 . S
C602 C601 1.390 . S
C602 C603 1.394 . S
C602 C608 1.465 . S
C603 C598 1.399 . S
C603 C602 1.394 . S
C603 C604 1.516 . S
C604 C603 1.516 . S
C604 C605 1.502 . S
C604 C606 1.561 . S
C604 C607 1.526 . S
C605 H589 0.959 . S
C605 H590 0.959 . S
C605 H591 0.961 . S
C605 C604 1.502 . S
C606 H592 0.960 . S
C606 H593 0.961 . S
C606 H594 0.959 . S
C606 C604 1.561 . S
C607 C604 1.526 . S
C607 C608 1.396 . S
C607 C612 1.390 . S
C608 C602 1.465 . S
C608 C607 1.396 . S
C608 C609 1.399 . S
C609 H595 0.929 . S
C609 C608 1.399 . S
C609 C610 1.385 . S
C610 H596 0.931 . S
C610 C609 1.385 . S
C610 C611 1.389 . S
C611 C610 1.389 . S
C611 C612 1.387 . S
C612 H597 0.930 . S
C612 C607 1.390 . S
C612 C611 1.387 . S
H613 C625 0.930 . S
H614 C627 0.930 . S
H615 C628 0.930 . S
H616 C632 0.959 . S
H617 C632 0.959 . S
H618 C632 0.961 . S
H619 C633 0.960 . S
H620 C633 0.961 . S
H621 C633 0.959 . S
H622 C636 0.929 . S
H623 C637 0.931 . S
H624 C639 0.930 . S
C625 H613 0.930 . S
C625 C626 1.399 . S
C625 C630 1.399 . S
C626 C625 1.399 . S
C626 C627 1.376 . S
C627 H614 0.930 . S
C627 C626 1.376 . S
C627 C628 1.388 . S
C628 H615 0.930 . S
C628 C627 1.388 . S
C628 C629 1.390 . S
C629 C628 1.390 . S
C629 C630 1.394 . S
C629 C635 1.465 . S
C630 C625 1.399 . S
C630 C629 1.394 . S
C630 C631 1.516 . S
C631 C630 1.516 . S
C631 C632 1.502 . S
C631 C633 1.561 . S
C631 C634 1.526 . S
C632 H616 0.959 . S
C632 H617 0.959 . S
C632 H618 0.961 . S
C632 C631 1.502 . S
C633 H619 0.960 . S
C633 H620 0.961 . S
C633 H621 0.959 . S
C633 C631 1.561 . S
C634 C631 1.526 . S
C634 C635 1.396 . S
C634 C639 1.390 . S
C635 C629 1.465 . S
C635 C634 1.396 . S
C635 C636 1.399 . S
C636 H622 0.929 . S
C636 C635 1.399 . S
C636 C637 1.385 . S
C637 H623 0.931 . S
C637 C636 1.385 . S
C637 C638 1.389 . S
C638 C637 1.389 . S
C638 C639 1.387 . S
C639 H624 0.930 . S
C639 C634 1.390 . S
C639 C638 1.387 . S
H640 C652 0.930 1_554 S
H641 C654 0.930 . S
H642 C655 0.930 . S
H643 C659 0.959 . S
H644 C659 0.959 . S
H645 C659 0.961 . S
H646 C660 0.963 . S
H647 C660 0.958 1_545 S
H648 C660 0.953 1_545 S
H649 C663 0.931 . S
H650 C664 0.931 . S
H651 C666 0.930 . S
C652 H640 0.930 1_556 S
C652 C653 1.399 . S
C652 C657 1.399 1_556 S
C653 C652 1.399 . S
C653 C654 1.376 . S
C654 H641 0.930 . S
C654 C653 1.376 . S
C654 C655 1.388 . S
C655 H642 0.930 . S
C655 C654 1.388 . S
C655 C656 1.390 . S
C656 C655 1.390 . S
C656 C657 1.394 1_556 S
C656 C662 1.465 . S
C657 C652 1.399 1_554 S
C657 C656 1.394 1_554 S
C657 C658 1.516 . S
C658 C657 1.516 . S
C658 C659 1.502 . S
C658 C660 1.566 . S
C658 C661 1.526 . S
C659 H643 0.959 . S
C659 H644 0.959 . S
C659 H645 0.961 . S
C659 C658 1.502 . S
C660 H646 0.963 . S
C660 H647 0.958 1_565 S
C660 H648 0.953 1_565 S
C660 C658 1.566 . S
C661 C658 1.526 . S
C661 C662 1.396 1_554 S
C661 C666 1.390 . S
C662 C656 1.465 . S
C662 C661 1.396 1_556 S
C662 C663 1.396 1_565 S
C663 H649 0.931 . S
C663 C662 1.396 1_545 S
C663 C664 1.386 . S
C664 H650 0.931 . S
C664 C663 1.386 . S
C664 C665 1.389 1_546 S
C665 C664 1.389 1_564 S
C665 C666 1.387 . S
C666 H651 0.930 . S
C666 C661 1.390 . S
C666 C665 1.387 . S
H667 C679 0.930 . S
H668 C681 0.930 . S
H669 C682 0.930 . S
H670 C686 0.959 . S
H671 C686 0.959 . S
H672 C686 0.961 . S
H673 C687 0.960 . S
H674 C687 0.961 . S
H675 C687 0.959 . S
H676 C690 0.929 . S
H677 C691 0.931 . S
H678 C693 0.930 . S
C679 H667 0.930 . S
C679 C680 1.399 . S
C679 C684 1.399 . S
C680 C679 1.399 . S
C680 C681 1.376 . S
C681 H668 0.930 . S
C681 C680 1.376 . S
C681 C682 1.388 . S
C682 H669 0.930 . S
C682 C681 1.388 . S
C682 C683 1.390 . S
C683 C682 1.390 . S
C683 C684 1.394 . S
C683 C689 1.465 . S
C684 C679 1.399 . S
C684 C683 1.394 . S
C684 C685 1.516 . S
C685 C684 1.516 . S
C685 C686 1.502 . S
C685 C687 1.561 . S
C685 C688 1.526 . S
C686 H670 0.959 . S
C686 H671 0.959 . S
C686 H672 0.961 . S
C686 C685 1.502 . S
C687 H673 0.960 . S
C687 H674 0.961 . S
C687 H675 0.959 . S
C687 C685 1.561 . S
C688 C685 1.526 . S
C688 C689 1.396 . S
C688 C693 1.390 . S
C689 C683 1.465 . S
C689 C688 1.396 . S
C689 C690 1.399 . S
C690 H676 0.929 . S
C690 C689 1.399 . S
C690 C691 1.385 . S
C691 H677 0.931 . S
C691 C690 1.385 . S
C691 C692 1.389 . S
C692 C691 1.389 . S
C692 C693 1.387 . S
C693 H678 0.930 . S
C693 C688 1.390 . S
C693 C692 1.387 . S
H694 C706 0.930 . S
H695 C708 0.930 . S
H696 C709 0.930 . S
H697 C713 0.959 . S
H698 C713 0.959 . S
H699 C713 0.961 . S
H700 C714 0.960 . S
H701 C714 0.961 1_556 S
H702 C714 0.959 . S
H703 C717 0.929 . S
H704 C718 0.931 . S
H705 C720 0.930 . S
C706 H694 0.930 . S
C706 C707 1.399 . S
C706 C711 1.399 . S
C707 C706 1.399 . S
C707 C708 1.376 . S
C708 H695 0.930 . S
C708 C707 1.376 . S
C708 C709 1.388 . S
C709 H696 0.930 . S
C709 C708 1.388 . S
C709 C710 1.390 . S
C710 C709 1.390 . S
C710 C711 1.394 . S
C710 C716 1.465 . S
C711 C706 1.399 . S
C711 C710 1.394 . S
C711 C712 1.516 . S
C712 C711 1.516 . S
C712 C713 1.502 . S
C712 C714 1.561 . S
C712 C715 1.526 . S
C713 H697 0.959 . S
C713 H698 0.959 . S
C713 H699 0.961 . S
C713 C712 1.502 . S
C714 H700 0.960 . S
C714 H701 0.961 1_554 S
C714 H702 0.959 . S
C714 C712 1.561 . S
C715 C712 1.526 . S
C715 C716 1.396 . S
C715 C720 1.390 . S
C716 C710 1.465 . S
C716 C715 1.396 . S
C716 C717 1.399 . S
C717 H703 0.929 . S
C717 C716 1.399 . S
C717 C718 1.385 . S
C718 H704 0.931 . S
C718 C717 1.385 . S
C718 C719 1.389 . S
C719 C718 1.389 . S
C719 C720 1.387 . S
C720 H705 0.930 . S
C720 C715 1.390 . S
C720 C719 1.387 . S
H721 C733 0.930 . S
H722 C735 0.930 . S
H723 C736 0.930 . S
H724 C740 0.959 . S
H725 C740 0.959 . S
H726 C740 0.961 . S
H727 C741 0.960 . S
H728 C741 0.961 . S
H729 C741 0.959 . S
H730 C744 0.929 . S
H731 C745 0.931 . S
H732 C747 0.930 . S
C733 H721 0.930 . S
C733 C734 1.399 . S
C733 C738 1.399 . S
C734 C733 1.399 . S
C734 C735 1.376 . S
C735 H722 0.930 . S
C735 C734 1.376 . S
C735 C736 1.388 . S
C736 H723 0.930 . S
C736 C735 1.388 . S
C736 C737 1.390 . S
C737 C736 1.390 . S
C737 C738 1.394 . S
C737 C743 1.465 . S
C738 C733 1.399 . S
C738 C737 1.394 . S
C738 C739 1.516 . S
C739 C738 1.516 . S
C739 C740 1.502 . S
C739 C741 1.561 . S
C739 C742 1.526 . S
C740 H724 0.959 . S
C740 H725 0.959 . S
C740 H726 0.961 . S
C740 C739 1.502 . S
C741 H727 0.960 . S
C741 H728 0.961 . S
C741 H729 0.959 . S
C741 C739 1.561 . S
C742 C739 1.526 . S
C742 C743 1.396 . S
C742 C747 1.390 . S
C743 C737 1.465 . S
C743 C742 1.396 . S
C743 C744 1.399 . S
C744 H730 0.929 . S
C744 C743 1.399 . S
C744 C745 1.385 . S
C745 H731 0.931 . S
C745 C744 1.385 . S
C745 C746 1.389 . S
C746 C745 1.389 . S
C746 C747 1.387 . S
C747 H732 0.930 . S
C747 C742 1.390 . S
C747 C746 1.387 . S
H748 C760 0.930 . S
H749 C762 0.930 . S
H750 C763 0.930 . S
H751 C767 0.959 . S
H752 C767 0.959 . S
H753 C767 0.961 . S
H754 C768 0.960 . S
H755 C768 0.961 . S
H756 C768 0.959 1_455 S
H757 C771 0.929 1_455 S
H758 C772 0.931 . S
H759 C774 0.930 . S
C760 H748 0.930 . S
C760 C761 1.399 . S
C760 C765 1.399 . S
C761 C760 1.399 . S
C761 C762 1.376 1_556 S
C762 H749 0.930 . S
C762 C761 1.376 1_554 S
C762 C763 1.388 . S
C763 H750 0.930 . S
C763 C762 1.388 . S
C763 C764 1.390 1_554 S
C764 C763 1.390 1_556 S
C764 C765 1.394 . S
C764 C770 1.465 1_556 S
C765 C760 1.399 . S
C765 C764 1.394 . S
C765 C766 1.516 . S
C766 C765 1.516 . S
C766 C767 1.502 . S
C766 C768 1.561 . S
C766 C769 1.526 . S
C767 H751 0.959 . S
C767 H752 0.959 . S
C767 H753 0.961 . S
C767 C766 1.502 . S
C768 H754 0.960 . S
C768 H755 0.961 . S
C768 H756 0.959 1_655 S
C768 C766 1.561 . S
C769 C766 1.526 . S
C769 C770 1.396 1_556 S
C769 C774 1.390 . S
C770 C764 1.465 1_554 S
C770 C769 1.396 1_554 S
C770 C771 1.399 . S
C771 H757 0.929 1_655 S
C771 C770 1.399 . S
C771 C772 1.385 1_655 S
C772 H758 0.931 . S
C772 C771 1.385 1_455 S
C772 C773 1.389 1_454 S
C773 C772 1.389 1_656 S
C773 C774 1.387 . S
C774 H759 0.930 . S
C774 C769 1.390 . S
C774 C773 1.387 . S
H775 C787 0.930 . S
H776 C789 0.930 . S
H777 C790 0.930 . S
H778 C794 0.959 . S
H779 C794 0.959 . S
H780 C794 0.961 . S
H781 C795 0.960 . S
H782 C795 0.961 . S
H783 C795 0.959 . S
H784 C798 0.929 . S
H785 C799 0.931 . S
H786 C801 0.930 . S
C787 H775 0.930 . S
C787 C788 1.399 . S
C787 C792 1.399 . S
C788 C787 1.399 . S
C788 C789 1.376 . S
C789 H776 0.930 . S
C789 C788 1.376 . S
C789 C790 1.388 . S
C790 H777 0.930 . S
C790 C789 1.388 . S
C790 C791 1.390 . S
C791 C790 1.390 . S
C791 C792 1.394 . S
C791 C797 1.465 . S
C792 C787 1.399 . S
C792 C791 1.394 . S
C792 C793 1.516 . S
C793 C792 1.516 . S
C793 C794 1.502 . S
C793 C795 1.561 . S
C793 C796 1.526 . S
C794 H778 0.959 . S
C794 H779 0.959 . S
C794 H780 0.961 . S
C794 C793 1.502 . S
C795 H781 0.960 . S
C795 H782 0.961 . S
C795 H783 0.959 . S
C795 C793 1.561 . S
C796 C793 1.526 . S
C796 C797 1.396 . S
C796 C801 1.390 . S
C797 C791 1.465 . S
C797 C796 1.396 . S
C797 C798 1.399 . S
C798 H784 0.929 . S
C798 C797 1.399 . S
C798 C799 1.385 . S
C799 H785 0.931 . S
C799 C798 1.385 . S
C799 C800 1.389 . S
C800 C799 1.389 . S
C800 C801 1.387 . S
C801 H786 0.930 . S
C801 C796 1.390 . S
C801 C800 1.387 . S
H802 C814 0.930 . S
H803 C816 0.930 . S
H804 C817 0.930 . S
H805 C821 0.959 . S
H806 C821 0.959 . S
H807 C821 0.961 . S
H808 C822 0.960 . S
H809 C822 0.961 . S
H810 C822 0.959 . S
H811 C825 0.929 . S
H812 C826 0.931 . S
H813 C828 0.930 . S
C814 H802 0.930 . S
C814 C815 1.399 . S
C814 C819 1.399 . S
C815 C814 1.399 . S
C815 C816 1.376 . S
C816 H803 0.930 . S
C816 C815 1.376 . S
C816 C817 1.388 . S
C817 H804 0.930 . S
C817 C816 1.388 . S
C817 C818 1.390 . S
C818 C817 1.390 . S
C818 C819 1.394 . S
C818 C824 1.465 . S
C819 C814 1.399 . S
C819 C818 1.394 . S
C819 C820 1.516 . S
C820 C819 1.516 . S
C820 C821 1.502 . S
C820 C822 1.561 . S
C820 C823 1.526 . S
C821 H805 0.959 . S
C821 H806 0.959 . S
C821 H807 0.961 . S
C821 C820 1.502 . S
C822 H808 0.960 . S
C822 H809 0.961 . S
C822 H810 0.959 . S
C822 C820 1.561 . S
C823 C820 1.526 . S
C823 C824 1.396 . S
C823 C828 1.390 . S
C824 C818 1.465 . S
C824 C823 1.396 . S
C824 C825 1.399 . S
C825 H811 0.929 . S
C825 C824 1.399 . S
C825 C826 1.385 . S
C826 H812 0.931 . S
C826 C825 1.385 . S
C826 C827 1.389 . S
C827 C826 1.389 . S
C827 C828 1.387 . S
C828 H813 0.930 . S
C828 C823 1.390 . S
C828 C827 1.387 . S
H829 C841 0.930 . S
H830 C843 0.930 . S
H831 C844 0.930 . S
H832 C848 0.959 . S
H833 C848 0.959 . S
H834 C848 0.961 . S
H835 C849 0.960 . S
H836 C849 0.961 . S
H837 C849 0.959 . S
H838 C852 0.929 . S
H839 C853 0.931 . S
H840 C855 0.930 . S
C841 H829 0.930 . S
C841 C842 1.399 . S
C841 C846 1.399 . S
C842 C841 1.399 . S
C842 C843 1.376 . S
C843 H830 0.930 . S
C843 C842 1.376 . S
C843 C844 1.388 . S
C844 H831 0.930 . S
C844 C843 1.388 . S
C844 C845 1.390 . S
C845 C844 1.390 . S
C845 C846 1.394 . S
C845 C851 1.465 . S
C846 C841 1.399 . S
C846 C845 1.394 . S
C846 C847 1.516 . S
C847 C846 1.516 . S
C847 C848 1.502 . S
C847 C849 1.561 . S
C847 C850 1.526 . S
C848 H832 0.959 . S
C848 H833 0.959 . S
C848 H834 0.961 . S
C848 C847 1.502 . S
C849 H835 0.960 . S
C849 H836 0.961 . S
C849 H837 0.959 . S
C849 C847 1.561 . S
C850 C847 1.526 . S
C850 C851 1.396 . S
C850 C855 1.390 . S
C851 C845 1.465 . S
C851 C850 1.396 . S
C851 C852 1.399 . S
C852 H838 0.929 . S
C852 C851 1.399 . S
C852 C853 1.385 . S
C853 H839 0.931 . S
C853 C852 1.385 . S
C853 C854 1.389 . S
C854 C853 1.389 . S
C854 C855 1.387 . S
C855 H840 0.930 . S
C855 C850 1.390 . S
C855 C854 1.387 . S
C221 C5 2.384 . S
C233 C104 2.488 . S
C248 C18 1.150 . S
C260 N124 1.187 . S
C287 C158 1.754 . S
C275 C30 1.742 . S
C302 C41 1.135 . S
C314 N192 1.012 . S
C341 C145 2.613 . S
C329 C7 2.567 . S
C368 N102 1.354 . S
C356 C16 1.018 . S
C395 C179 2.053 1_556 S
C383 C29 1.961 . S
C422 N154 0.775 . S
C410 C38 0.683 . S
C437 C8 1.918 . S
C449 C194 1.915 . S
C476 C128 1.837 . S
C464 C27 1.505 . S
C491 C40 1.407 . S
C503 C89 1.405 . S
C518 C19 1.024 . S
C530 C175 1.061 . S
C557 C115 2.218 . S
C545 C51 2.171 . S
C572 C62 1.183 . S
C584 N132 1.274 . S
C599 C74 1.837 . S
C611 C149 1.855 . S
C626 C84 1.132 . S
C638 N184 1.128 . S
C653 C49 2.486 . S
C665 C134 2.640 1_565 S
C692 N94 1.095 . S
C680 C63 1.071 . S
C719 C188 1.880 . S
C707 C71 1.613 . S
C746 N162 0.784 . S
C734 C85 0.766 . S
C761 C52 1.857 . S
C773 C205 1.851 1_656 S
C800 C119 1.939 . S
C788 C73 1.773 . S
C827 C98 1.208 . S
C815 C82 1.075 . S
C842 C60 1.197 . S
C854 C164 1.611 . S
