# Generated by pormake.
# Topology gar, (4,6)-cn, num edge types: 1
# Building blocks:
#     Node 0, Type 0, BuildingBlock: CEKHIL_clean_sbu_0, # of connection points: 4
#     Node 1, Type 0, BuildingBlock: CEKHIL_clean_sbu_0, # of connection points: 4
#     Node 2, Type 0, BuildingBlock: CEKHIL_clean_sbu_0, # of connection points: 4
#     Node 3, Type 0, BuildingBlock: CEKHIL_clean_sbu_0, # of connection points: 4
#     Node 4, Type 0, BuildingBlock: CEKHIL_clean_sbu_0, # of connection points: 4
#     Node 5, Type 0, BuildingBlock: CEKHIL_clean_sbu_0, # of connection points: 4
#     Node 6, Type 0, BuildingBlock: CEKHIL_clean_sbu_0, # of connection points: 4
#     Node 7, Type 0, BuildingBlock: CEKHIL_clean_sbu_0, # of connection points: 4
#     Node 8, Type 0, BuildingBlock: CEKHIL_clean_sbu_0, # of connection points: 4
#     Node 9, Type 0, BuildingBlock: CEKHIL_clean_sbu_0, # of connection points: 4
#     Node 10, Type 0, BuildingBlock: CEKHIL_clean_sbu_0, # of connection points: 4
#     Node 11, Type 0, BuildingBlock: CEKHIL_clean_sbu_0, # of connection points: 4
#     Node 12, Type 0, BuildingBlock: CEKHIL_clean_sbu_0, # of connection points: 4
#     Node 13, Type 0, BuildingBlock: CEKHIL_clean_sbu_0, # of connection points: 4
#     Node 14, Type 0, BuildingBlock: CEKHIL_clean_sbu_0, # of connection points: 4
#     Node 15, Type 0, BuildingBlock: CEKHIL_clean_sbu_0, # of connection points: 4
#     Node 16, Type 0, BuildingBlock: CEKHIL_clean_sbu_0, # of connection points: 4
#     Node 17, Type 0, BuildingBlock: CEKHIL_clean_sbu_0, # of connection points: 4
#     Node 18, Type 0, BuildingBlock: CEKHIL_clean_sbu_0, # of connection points: 4
#     Node 19, Type 0, BuildingBlock: CEKHIL_clean_sbu_0, # of connection points: 4
#     Node 20, Type 0, BuildingBlock: CEKHIL_clean_sbu_0, # of connection points: 4
#     Node 21, Type 0, BuildingBlock: CEKHIL_clean_sbu_0, # of connection points: 4
#     Node 22, Type 0, BuildingBlock: CEKHIL_clean_sbu_0, # of connection points: 4
#     Node 23, Type 0, BuildingBlock: CEKHIL_clean_sbu_0, # of connection points: 4
#     Node 24, Type 1, BuildingBlock: PAMTUU_clean_sbu_0, # of connection points: 6
#     Node 25, Type 1, BuildingBlock: PAMTUU_clean_sbu_0, # of connection points: 6
#     Node 26, Type 1, BuildingBlock: PAMTUU_clean_sbu_0, # of connection points: 6
#     Node 27, Type 1, BuildingBlock: PAMTUU_clean_sbu_0, # of connection points: 6
#     Node 28, Type 1, BuildingBlock: PAMTUU_clean_sbu_0, # of connection points: 6
#     Node 29, Type 1, BuildingBlock: PAMTUU_clean_sbu_0, # of connection points: 6
#     Node 30, Type 1, BuildingBlock: PAMTUU_clean_sbu_0, # of connection points: 6
#     Node 31, Type 1, BuildingBlock: PAMTUU_clean_sbu_0, # of connection points: 6
#     Node 32, Type 1, BuildingBlock: PAMTUU_clean_sbu_0, # of connection points: 6
#     Node 33, Type 1, BuildingBlock: PAMTUU_clean_sbu_0, # of connection points: 6
#     Node 34, Type 1, BuildingBlock: PAMTUU_clean_sbu_0, # of connection points: 6
#     Node 35, Type 1, BuildingBlock: PAMTUU_clean_sbu_0, # of connection points: 6
#     Node 36, Type 1, BuildingBlock: PAMTUU_clean_sbu_0, # of connection points: 6
#     Node 37, Type 1, BuildingBlock: PAMTUU_clean_sbu_0, # of connection points: 6
#     Node 38, Type 1, BuildingBlock: PAMTUU_clean_sbu_0, # of connection points: 6
#     Node 39, Type 1, BuildingBlock: PAMTUU_clean_sbu_0, # of connection points: 6
#     Edge 40, Type (0, 1), BuildingBlock: OJICUG_clean_linker_0, # of connection points: 2
#     Edge 41, Type (0, 1), BuildingBlock: OJICUG_clean_linker_0, # of connection points: 2
#     Edge 42, Type (0, 1), BuildingBlock: OJICUG_clean_linker_0, # of connection points: 2
#     Edge 43, Type (0, 1), BuildingBlock: OJICUG_clean_linker_0, # of connection points: 2
#     Edge 44, Type (0, 1), BuildingBlock: OJICUG_clean_linker_0, # of connection points: 2
#     Edge 45, Type (0, 1), BuildingBlock: OJICUG_clean_linker_0, # of connection points: 2
#     Edge 46, Type (0, 1), BuildingBlock: OJICUG_clean_linker_0, # of connection points: 2
#     Edge 47, Type (0, 1), BuildingBlock: OJICUG_clean_linker_0, # of connection points: 2
#     Edge 48, Type (0, 1), BuildingBlock: OJICUG_clean_linker_0, # of connection points: 2
#     Edge 49, Type (0, 1), BuildingBlock: OJICUG_clean_linker_0, # of connection points: 2
#     Edge 50, Type (0, 1), BuildingBlock: OJICUG_clean_linker_0, # of connection points: 2
#     Edge 51, Type (0, 1), BuildingBlock: OJICUG_clean_linker_0, # of connection points: 2
#     Edge 52, Type (0, 1), BuildingBlock: OJICUG_clean_linker_0, # of connection points: 2
#     Edge 53, Type (0, 1), BuildingBlock: OJICUG_clean_linker_0, # of connection points: 2
#     Edge 54, Type (0, 1), BuildingBlock: OJICUG_clean_linker_0, # of connection points: 2
#     Edge 55, Type (0, 1), BuildingBlock: OJICUG_clean_linker_0, # of connection points: 2
#     Edge 56, Type (0, 1), BuildingBlock: OJICUG_clean_linker_0, # of connection points: 2
#     Edge 57, Type (0, 1), BuildingBlock: OJICUG_clean_linker_0, # of connection points: 2
#     Edge 58, Type (0, 1), BuildingBlock: OJICUG_clean_linker_0, # of connection points: 2
#     Edge 59, Type (0, 1), BuildingBlock: OJICUG_clean_linker_0, # of connection points: 2
#     Edge 60, Type (0, 1), BuildingBlock: OJICUG_clean_linker_0, # of connection points: 2
#     Edge 61, Type (0, 1), BuildingBlock: OJICUG_clean_linker_0, # of connection points: 2
#     Edge 62, Type (0, 1), BuildingBlock: OJICUG_clean_linker_0, # of connection points: 2
#     Edge 63, Type (0, 1), BuildingBlock: OJICUG_clean_linker_0, # of connection points: 2
#     Edge 64, Type (0, 1), BuildingBlock: OJICUG_clean_linker_0, # of connection points: 2
#     Edge 65, Type (0, 1), BuildingBlock: OJICUG_clean_linker_0, # of connection points: 2
#     Edge 66, Type (0, 1), BuildingBlock: OJICUG_clean_linker_0, # of connection points: 2
#     Edge 67, Type (0, 1), BuildingBlock: OJICUG_clean_linker_0, # of connection points: 2
#     Edge 68, Type (0, 1), BuildingBlock: OJICUG_clean_linker_0, # of connection points: 2
#     Edge 69, Type (0, 1), BuildingBlock: OJICUG_clean_linker_0, # of connection points: 2
#     Edge 70, Type (0, 1), BuildingBlock: OJICUG_clean_linker_0, # of connection points: 2
#     Edge 71, Type (0, 1), BuildingBlock: OJICUG_clean_linker_0, # of connection points: 2
#     Edge 72, Type (0, 1), BuildingBlock: OJICUG_clean_linker_0, # of connection points: 2
#     Edge 73, Type (0, 1), BuildingBlock: OJICUG_clean_linker_0, # of connection points: 2
#     Edge 74, Type (0, 1), BuildingBlock: OJICUG_clean_linker_0, # of connection points: 2
#     Edge 75, Type (0, 1), BuildingBlock: OJICUG_clean_linker_0, # of connection points: 2
#     Edge 76, Type (0, 1), BuildingBlock: OJICUG_clean_linker_0, # of connection points: 2
#     Edge 77, Type (0, 1), BuildingBlock: OJICUG_clean_linker_0, # of connection points: 2
#     Edge 78, Type (0, 1), BuildingBlock: OJICUG_clean_linker_0, # of connection points: 2
#     Edge 79, Type (0, 1), BuildingBlock: OJICUG_clean_linker_0, # of connection points: 2
#     Edge 80, Type (0, 1), BuildingBlock: OJICUG_clean_linker_0, # of connection points: 2
#     Edge 81, Type (0, 1), BuildingBlock: OJICUG_clean_linker_0, # of connection points: 2
#     Edge 82, Type (0, 1), BuildingBlock: OJICUG_clean_linker_0, # of connection points: 2
#     Edge 83, Type (0, 1), BuildingBlock: OJICUG_clean_linker_0, # of connection points: 2
#     Edge 84, Type (0, 1), BuildingBlock: OJICUG_clean_linker_0, # of connection points: 2
#     Edge 85, Type (0, 1), BuildingBlock: OJICUG_clean_linker_0, # of connection points: 2
#     Edge 86, Type (0, 1), BuildingBlock: OJICUG_clean_linker_0, # of connection points: 2
#     Edge 87, Type (0, 1), BuildingBlock: OJICUG_clean_linker_0, # of connection points: 2
#     Edge 88, Type (0, 1), BuildingBlock: OJICUG_clean_linker_0, # of connection points: 2
#     Edge 89, Type (0, 1), BuildingBlock: OJICUG_clean_linker_0, # of connection points: 2
#     Edge 90, Type (0, 1), BuildingBlock: OJICUG_clean_linker_0, # of connection points: 2
#     Edge 91, Type (0, 1), BuildingBlock: OJICUG_clean_linker_0, # of connection points: 2
#     Edge 92, Type (0, 1), BuildingBlock: OJICUG_clean_linker_0, # of connection points: 2
#     Edge 93, Type (0, 1), BuildingBlock: OJICUG_clean_linker_0, # of connection points: 2
#     Edge 94, Type (0, 1), BuildingBlock: OJICUG_clean_linker_0, # of connection points: 2
#     Edge 95, Type (0, 1), BuildingBlock: OJICUG_clean_linker_0, # of connection points: 2
#     Edge 96, Type (0, 1), BuildingBlock: OJICUG_clean_linker_0, # of connection points: 2
#     Edge 97, Type (0, 1), BuildingBlock: OJICUG_clean_linker_0, # of connection points: 2
#     Edge 98, Type (0, 1), BuildingBlock: OJICUG_clean_linker_0, # of connection points: 2
#     Edge 99, Type (0, 1), BuildingBlock: OJICUG_clean_linker_0, # of connection points: 2
#     Edge 100, Type (0, 1), BuildingBlock: OJICUG_clean_linker_0, # of connection points: 2
#     Edge 101, Type (0, 1), BuildingBlock: OJICUG_clean_linker_0, # of connection points: 2
#     Edge 102, Type (0, 1), BuildingBlock: OJICUG_clean_linker_0, # of connection points: 2
#     Edge 103, Type (0, 1), BuildingBlock: OJICUG_clean_linker_0, # of connection points: 2
#     Edge 104, Type (0, 1), BuildingBlock: OJICUG_clean_linker_0, # of connection points: 2
#     Edge 105, Type (0, 1), BuildingBlock: OJICUG_clean_linker_0, # of connection points: 2
#     Edge 106, Type (0, 1), BuildingBlock: OJICUG_clean_linker_0, # of connection points: 2
#     Edge 107, Type (0, 1), BuildingBlock: OJICUG_clean_linker_0, # of connection points: 2
#     Edge 108, Type (0, 1), BuildingBlock: OJICUG_clean_linker_0, # of connection points: 2
#     Edge 109, Type (0, 1), BuildingBlock: OJICUG_clean_linker_0, # of connection points: 2
#     Edge 110, Type (0, 1), BuildingBlock: OJICUG_clean_linker_0, # of connection points: 2
#     Edge 111, Type (0, 1), BuildingBlock: OJICUG_clean_linker_0, # of connection points: 2
#     Edge 112, Type (0, 1), BuildingBlock: OJICUG_clean_linker_0, # of connection points: 2
#     Edge 113, Type (0, 1), BuildingBlock: OJICUG_clean_linker_0, # of connection points: 2
#     Edge 114, Type (0, 1), BuildingBlock: OJICUG_clean_linker_0, # of connection points: 2
#     Edge 115, Type (0, 1), BuildingBlock: OJICUG_clean_linker_0, # of connection points: 2
#     Edge 116, Type (0, 1), BuildingBlock: OJICUG_clean_linker_0, # of connection points: 2
#     Edge 117, Type (0, 1), BuildingBlock: OJICUG_clean_linker_0, # of connection points: 2
#     Edge 118, Type (0, 1), BuildingBlock: OJICUG_clean_linker_0, # of connection points: 2
#     Edge 119, Type (0, 1), BuildingBlock: OJICUG_clean_linker_0, # of connection points: 2
#     Edge 120, Type (0, 1), BuildingBlock: OJICUG_clean_linker_0, # of connection points: 2
#     Edge 121, Type (0, 1), BuildingBlock: OJICUG_clean_linker_0, # of connection points: 2
#     Edge 122, Type (0, 1), BuildingBlock: OJICUG_clean_linker_0, # of connection points: 2
#     Edge 123, Type (0, 1), BuildingBlock: OJICUG_clean_linker_0, # of connection points: 2
#     Edge 124, Type (0, 1), BuildingBlock: OJICUG_clean_linker_0, # of connection points: 2
#     Edge 125, Type (0, 1), BuildingBlock: OJICUG_clean_linker_0, # of connection points: 2
#     Edge 126, Type (0, 1), BuildingBlock: OJICUG_clean_linker_0, # of connection points: 2
#     Edge 127, Type (0, 1), BuildingBlock: OJICUG_clean_linker_0, # of connection points: 2
#     Edge 128, Type (0, 1), BuildingBlock: OJICUG_clean_linker_0, # of connection points: 2
#     Edge 129, Type (0, 1), BuildingBlock: OJICUG_clean_linker_0, # of connection points: 2
#     Edge 130, Type (0, 1), BuildingBlock: OJICUG_clean_linker_0, # of connection points: 2
#     Edge 131, Type (0, 1), BuildingBlock: OJICUG_clean_linker_0, # of connection points: 2
#     Edge 132, Type (0, 1), BuildingBlock: OJICUG_clean_linker_0, # of connection points: 2
#     Edge 133, Type (0, 1), BuildingBlock: OJICUG_clean_linker_0, # of connection points: 2
#     Edge 134, Type (0, 1), BuildingBlock: OJICUG_clean_linker_0, # of connection points: 2
#     Edge 135, Type (0, 1), BuildingBlock: OJICUG_clean_linker_0, # of connection points: 2
# Relax obj value: 0.232
# Max RMSD: 0.378
# Mean RMSD: 0.173
data_MOF--net-gar--node1-CEKHIL_clean_sbu_0--node2-PAMTUU_clean_sbu_0--edge1-OJICUG_clean_linker_0
_symmetry_space_group_name_H-M    P1
_symmetry_Int_Tables_number       1
_symmetry_cell_setting            triclinic
loop_
_symmetry_equiv_pos_as_xyz
'x, y, z'
_cell_length_a     44.762001
_cell_length_b     40.800787
_cell_length_c     43.436848
_cell_angle_alpha  93.621441
_cell_angle_beta   94.851099
_cell_angle_gamma 107.39808
loop_
_atom_site_label
_atom_site_type_symbol
_atom_site_fract_x
_atom_site_fract_y
_atom_site_fract_z
_atom_type_partial_charge
Co0 Co 0.10875 0.32567 0.41745 0.0
O1 O 0.15767 0.33435 0.42206 0.0
O2 O 0.13088 0.31457 0.37922 0.0
C3 C 0.10799 0.38029 0.44482 0.0
O4 O 0.05906 0.31836 0.39652 0.0
Co5 Co 0.0625 0.31897 0.46469 0.0
O6 O 1.02821 0.32281 0.43365 0.0
C7 C 0.08904 0.26031 0.45983 0.0
C8 C 0.15943 0.32442 0.39329 0.0
C9 C 1.03147 0.32072 0.40484 0.0
O10 O 0.10111 0.27397 0.43469 0.0
O11 O 0.07416 0.27651 0.47574 0.0
O12 O 0.11584 0.37781 0.41671 0.0
O13 O 0.10301 0.35076 0.4562 0.0
Co14 Co 0.0843 0.83537 0.69886 0.0
O15 O 1.03562 0.8292 0.69488 0.0
O16 O 0.05868 0.82351 0.73716 0.0
C17 C 0.09667 0.89137 0.67387 0.0
O18 O 0.1334 0.8398 0.71987 0.0
Co19 Co 0.13145 0.84554 0.65399 0.0
O20 O 0.16841 0.85266 0.6854 0.0
C21 C 0.09158 0.77231 0.65392 0.0
C22 C 1.03181 0.82439 0.72386 0.0
C23 C 0.16313 0.84621 0.713 0.0
O24 O 0.07865 0.78255 0.67804 0.0
O25 O 0.11168 0.79498 0.64094 0.0
O26 O 0.09174 0.88834 0.70281 0.0
O27 O 0.09516 0.8614 0.66096 0.0
Co28 Co 0.61219 0.82605 0.91651 0.0
O29 O 0.66089 0.8341 0.92118 0.0
O30 O 0.63386 0.81372 0.87848 0.0
C31 C 0.61151 0.88116 0.9427 0.0
O32 O 0.56269 0.81917 0.896 0.0
Co33 Co 0.56689 0.82058 0.9648 0.0
O34 O 0.53301 0.82526 0.93379 0.0
C35 C 0.59213 0.76108 0.95941 0.0
C36 C 0.66239 0.82338 0.89258 0.0
C37 C 0.5357 0.8226 0.90486 0.0
O38 O 0.60413 0.77457 0.9342 0.0
O39 O 0.57772 0.7776 0.9756 0.0
O40 O 0.61948 0.87808 0.9147 0.0
O41 O 0.60683 0.85203 0.95478 0.0
Co42 Co 0.58067 0.33362 0.19567 0.0
O43 O 0.5321 0.3283 0.19122 0.0
O44 O 0.55455 0.32294 0.23388 0.0
C45 C 0.59392 0.38921 0.17017 0.0
O46 O 0.62956 0.33771 0.21705 0.0
Co47 Co 0.62712 0.34098 0.1505 0.0
O48 O 0.6641 0.34789 0.18202 0.0
C49 C 0.58662 0.26885 0.15144 0.0
C50 C 0.52793 0.32414 0.22023 0.0
C51 C 0.65909 0.34292 0.20997 0.0
O52 O 0.57448 0.28037 0.1756 0.0
O53 O 0.60651 0.29043 0.13734 0.0
O54 O 0.58894 0.38663 0.19913 0.0
O55 O 0.59183 0.35893 0.15743 0.0
Co56 Co 0.14668 0.86363 0.17118 0.0
O57 O 0.10087 0.85091 0.16392 0.0
O58 O 0.12805 0.84451 0.20674 0.0
C59 C 0.1534 0.91702 0.1517 0.0
O60 O 0.19177 0.87356 0.19262 0.0
Co61 Co 0.19308 0.87628 0.12745 0.0
O62 O 0.22867 0.88319 0.16055 0.0
C63 C 0.15608 0.80426 0.12963 0.0
C64 C 0.10088 0.84102 0.19184 0.0
C65 C 0.22079 0.87965 0.18782 0.0
O66 O 0.14508 0.81512 0.15345 0.0
O67 O 0.1747 0.82539 0.11409 0.0
O68 O 0.14859 0.912 0.18034 0.0
O69 O 0.15534 0.89006 0.13516 0.0
Co70 Co 0.55244 0.82182 0.47887 0.0
O71 O 0.59824 0.83635 0.48189 0.0
O72 O 0.56634 0.81075 0.43995 0.0
C73 C 0.54988 0.87298 0.50215 0.0
O74 O 0.50517 0.80627 0.46239 0.0
Co75 Co 0.51209 0.81012 0.52887 0.0
O76 O 0.47712 0.81545 0.4999 0.0
C77 C 0.54446 0.75855 0.51712 0.0
C78 C 0.59493 0.8249 0.45277 0.0
C79 C 0.47956 0.81023 0.47123 0.0
O80 O 0.55306 0.77462 0.49308 0.0
O81 O 0.52797 0.76918 0.53578 0.0
O82 O 0.55321 0.86881 0.47295 0.0
O83 O 0.54894 0.84632 0.51756 0.0
Co84 Co 0.6439 0.36187 0.67207 0.0
O85 O 0.59811 0.34758 0.66458 0.0
O86 O 0.62568 0.3427 0.70775 0.0
C87 C 0.64967 0.41486 0.65241 0.0
O88 O 0.68906 0.3735 0.69329 0.0
Co89 Co 0.69045 0.37548 0.6283 0.0
O90 O 0.7263 0.38862 0.66194 0.0
C91 C 0.65523 0.30285 0.63165 0.0
C92 C 0.59836 0.33807 0.69264 0.0
C93 C 0.71832 0.38333 0.68898 0.0
O94 O 0.6436 0.31372 0.65497 0.0
O95 O 0.67375 0.32405 0.61601 0.0
O96 O 0.6446 0.40978 0.68098 0.0
O97 O 0.65208 0.38807 0.63592 0.0
Co98 Co 0.05858 0.32341 0.97484 0.0
O99 O 0.10417 0.33487 0.97955 0.0
O100 O 0.07267 0.31127 0.93667 0.0
C101 C 0.05762 0.37548 0.99775 0.0
O102 O 1.01248 0.31143 0.95663 0.0
Co103 Co 1.01699 0.31372 0.02407 0.0
O104 O 0.9838 0.32083 0.99349 0.0
C105 C 0.04922 0.26167 1.01432 0.0
C106 C 0.10108 0.32365 0.95037 0.0
C107 C 0.98734 0.31683 0.96489 0.0
O108 O 0.05516 0.27483 0.98839 0.0
O109 O 1.03576 0.27537 0.03408 0.0
O110 O 0.06246 0.37124 0.96898 0.0
O111 O 0.05492 0.34848 1.01316 0.0
Co112 Co 0.49089 0.08446 0.36713 0.0
O113 O 0.49009 0.11777 0.33776 0.0
O114 O 0.44854 0.077 0.35008 0.0
C115 C 0.52348 0.11924 0.40603 0.0
O116 O 0.48137 0.04732 0.39628 0.0
Co117 Co 0.54887 0.06352 0.39109 0.0
O118 O 0.51568 1.01837 0.39254 0.0
C119 C 0.51987 0.0418 0.32692 0.0
C120 C 0.4598 0.10238 0.33359 0.0
C121 C 0.48761 1.01886 0.39419 0.0
O122 O 0.49631 0.05197 0.33292 0.0
O123 O 0.54448 0.04708 0.34614 0.0
O124 O 0.49403 0.11822 0.402 0.0
O125 O 0.53285 0.10258 0.38458 0.0
Co126 Co 0.34004 0.24877 0.55016 0.0
O127 O 0.3857 0.25876 0.55569 0.0
O128 O 0.35066 0.21072 0.56599 0.0
C129 C 0.33748 0.26666 0.49956 0.0
O130 O 0.29308 0.2236 0.54746 0.0
Co131 Co 0.30526 0.29639 0.54774 0.0
O132 O 0.26487 0.2597 0.54969 0.0
C133 C 0.32876 0.28833 0.61018 0.0
C134 C 0.37989 0.2284 0.56599 0.0
C135 C 0.26669 0.22929 0.54941 0.0
O136 O 0.34086 0.26738 0.59602 0.0
O137 O 0.31335 0.30462 0.59456 0.0
O138 O 0.33893 0.23647 0.50556 0.0
O139 O 0.33883 0.28725 0.52444 0.0
Co140 Co 0.23011 0.0887 0.88623 0.0
O141 O 0.22898 0.04687 0.86208 0.0
O142 O 0.26913 0.09519 0.86871 0.0
C143 C 0.20956 0.06406 0.92774 0.0
O144 O 0.2411 0.13547 0.90979 0.0
Co145 Co 0.17381 0.10865 0.90981 0.0
O146 O 0.20112 0.15644 0.9052 0.0
C147 C 0.18536 0.11226 0.84371 0.0
C148 C 0.25735 0.06362 0.85637 0.0
C149 C 0.23015 0.16011 0.9037 0.0
O150 O 0.21155 0.10548 0.84875 0.0
O151 O 0.16641 0.11187 0.86426 0.0
O152 O 0.23936 0.06956 0.92496 0.0
O153 O 0.19323 0.07182 0.90517 0.0
Co154 Co 0.33435 0.96854 0.02145 0.0
O155 O 0.29407 0.97267 0.03081 0.0
O156 O 0.34043 1.0122 0.0441 0.0
C157 C 0.31999 0.94702 0.97146 0.0
O158 O 0.38016 0.97594 1.01704 0.0
Co159 Co 0.34774 0.90065 0.99959 0.0
O160 O 0.39156 0.9301 0.99617 0.0
C161 C 0.33912 0.91578 0.06532 0.0
C162 C 0.31016 1.00282 0.04472 0.0
C163 C 0.3998 0.96144 1.00753 0.0
O164 O 0.33933 0.94674 0.06093 0.0
O165 O 0.33873 0.89307 0.04342 0.0
O166 O 0.32737 0.98015 0.97872 0.0
O167 O 0.31971 0.92846 0.99431 0.0
Co168 Co 0.3536 0.40643 0.05829 0.0
O169 O 0.30872 0.40113 0.0521 0.0
O170 O 0.34584 0.44798 0.07328 0.0
C171 C 0.35688 0.38456 1.00809 0.0
O172 O 0.40118 0.42663 0.06636 0.0
Co173 Co 0.38444 0.35317 0.0594 0.0
O174 O 0.42189 0.38841 0.04629 0.0
C175 C 0.35572 0.36466 0.11602 0.0
C176 C 0.31641 0.43313 0.06373 0.0
C177 C 0.42397 0.41953 0.05448 0.0
O178 O 0.34963 0.38966 0.10245 0.0
O179 O 0.36866 0.34486 0.10186 0.0
O180 O 0.35701 0.41592 1.01504 0.0
O181 O 0.35296 0.36543 0.03143 0.0
Co182 Co 0.85216 0.17136 0.09803 0.0
O183 O 0.89455 0.16965 0.1011 0.0
O184 O 0.85378 0.12903 0.1146 0.0
C185 C 0.85032 0.18662 0.04918 0.0
O186 O 0.80504 0.16329 0.09629 0.0
Co187 Co 0.838 0.24051 0.0874 0.0
O188 O 0.79437 0.20907 0.07725 0.0
C189 C 0.8652 0.22977 0.14866 0.0
C190 C 0.88345 0.13909 0.11025 0.0
C191 C 0.7856 0.17827 0.08504 0.0
O192 O 0.85956 0.19732 0.14068 0.0
O193 O 0.86173 0.25144 0.12969 0.0
O194 O 0.84615 0.15457 0.05403 0.0
O195 O 0.85894 0.20827 0.07357 0.0
Co196 Co 0.25414 0.56206 0.27464 0.0
O197 O 0.26294 0.52016 0.26156 0.0
O198 O 0.28783 0.57239 0.24889 0.0
C199 C 0.25167 0.55428 0.3253 0.0
O200 O 0.25501 0.61113 0.28398 0.0
Co201 Co 0.19428 0.5667 0.30333 0.0
O202 O 0.2197 0.6156 0.31623 0.0
C203 C 0.19176 0.5505 0.23566 0.0
C204 C 0.2856 0.53993 0.24797 0.0
C205 C 0.24402 0.62894 0.30266 0.0
O206 O 0.22173 0.55562 0.23794 0.0
O207 O 0.17637 0.5511 0.25913 0.0
O208 O 0.27884 0.56555 0.31469 0.0
O209 O 0.22743 0.54494 0.30474 0.0
Co210 Co 0.85546 0.90539 0.56379 0.0
O211 O 0.81035 0.89796 0.55887 0.0
O212 O 0.84651 0.94562 0.58028 0.0
C213 C 0.85828 0.88539 0.51305 0.0
O214 O 0.90295 0.92692 0.57084 0.0
Co215 Co 0.88799 0.8533 0.56223 0.0
O216 O 0.92407 0.88992 0.54903 0.0
C217 C 0.8613 0.8635 0.62047 0.0
C218 C 0.81714 0.92955 0.57129 0.0
C219 C 0.92567 0.92066 0.5581 0.0
O220 O 0.85319 0.88765 0.60749 0.0
O221 O 0.87488 0.84496 0.60552 0.0
O222 O 0.85741 0.91621 0.52083 0.0
O223 O 0.85547 0.86559 0.53589 0.0
Co224 Co 0.96692 0.07855 0.26532 0.0
O225 O 0.96307 0.12348 0.27547 0.0
O226 O 0.92409 0.07728 0.25528 0.0
C227 C 0.99587 0.07798 0.30979 0.0
O228 O 0.96037 1.02806 0.25334 0.0
Co229 Co 1.02895 0.05955 0.26265 0.0
O230 O 1.00189 1.01421 0.27359 0.0
C231 C 1.0061 0.09737 0.21382 0.0
C232 C 0.93316 0.10928 0.26679 0.0
C233 C 0.97246 1.00639 0.26529 0.0
O234 O 0.97848 0.09068 0.22295 0.0
O235 O 1.02902 0.0896 0.22794 0.0
O236 O 0.96538 0.06968 0.30902 0.0
O237 O 1.00745 0.08705 0.28444 0.0
Co238 Co 0.33779 0.68011 0.59742 0.0
O239 O 0.37929 0.68262 0.58676 0.0
O240 O 0.34611 0.63768 0.60471 0.0
C241 C 0.32209 0.70186 0.55502 0.0
O242 O 0.29324 0.66586 0.60874 0.0
Co243 Co 0.31355 0.74374 0.60668 0.0
O244 O 0.27166 0.70891 0.60746 0.0
C245 C 0.36185 0.73296 0.6515 0.0
C246 C 0.37284 0.65092 0.59389 0.0
C247 C 0.26958 0.67733 0.60979 0.0
O248 O 0.35494 0.70101 0.64108 0.0
O249 O 0.35175 0.75488 0.63754 0.0
O250 O 0.32096 0.66955 0.55345 0.0
O251 O 0.3349 0.71985 0.58074 0.0
Co252 Co 0.47646 0.56253 0.77627 0.0
O253 O 0.47444 0.60486 0.79638 0.0
O254 O 0.43511 0.56679 0.76642 0.0
C255 C 0.49947 0.54617 0.81788 0.0
O256 O 0.46927 0.516 0.75305 0.0
Co257 Co 0.53827 0.54367 0.76951 0.0
O258 O 0.50844 0.49632 0.77 0.0
C259 C 0.52022 0.59265 0.72957 0.0
C260 C 0.44509 0.59518 0.78477 0.0
C261 C 0.47951 0.49117 0.76064 0.0
O262 O 0.49259 0.58579 0.73879 0.0
O263 O 0.54189 0.58095 0.74101 0.0
O264 O 0.4692 0.5407 0.81487 0.0
O265 O 0.51473 0.56308 0.79703 0.0
Co266 Co 0.73833 0.13029 0.79459 0.0
O267 O 0.73366 0.0881 0.81432 0.0
O268 O 0.77093 0.11169 0.78465 0.0
C269 C 0.73155 0.16241 0.83557 0.0
O270 O 0.7534 0.1726 0.77201 0.0
Co271 Co 0.68733 0.16689 0.78474 0.0
O272 O 0.7211 0.2051 0.77055 0.0
C273 C 0.6811 0.10143 0.74834 0.0
C274 C 0.75919 0.08756 0.80219 0.0
C275 C 0.74697 0.19995 0.76523 0.0
O276 O 0.71008 0.10431 0.75685 0.0
O277 O 0.66679 0.12133 0.75996 0.0
O278 O 0.75863 0.15721 0.83372 0.0
O279 O 0.70912 0.14595 0.81445 0.0
Co280 Co 0.84343 0.75063 0.05556 0.0
O281 O 0.88915 0.76069 0.06139 0.0
O282 O 0.85417 0.71278 0.07198 0.0
C283 C 0.84139 0.76813 1.00487 0.0
O284 O 0.7964 0.7253 0.05236 0.0
Co285 Co 0.80797 0.79784 0.05159 0.0
O286 O 0.76735 0.76063 0.05085 0.0
C287 C 0.83118 0.79088 0.1146 0.0
C288 C 0.88339 0.73038 0.07176 0.0
C289 C 0.76955 0.73045 0.05188 0.0
O290 O 0.84365 0.76982 0.1011 0.0
O291 O 0.81576 0.80671 0.0984 0.0
O292 O 0.84281 0.73799 1.01116 0.0
O293 O 0.84234 0.78884 0.02953 0.0
Co294 Co 0.96487 0.56817 0.86904 0.0
O295 O 0.96864 0.60224 0.83902 0.0
O296 O 0.92416 0.56731 0.85223 0.0
C297 C 1.00091 0.59994 0.90686 0.0
O298 O 0.94896 0.53143 0.8975 0.0
Co299 Co 1.01509 0.53648 0.89506 0.0
O300 O 0.98382 0.50985 0.92148 0.0
C301 C 0.98919 0.5222 0.829 0.0
C302 C 0.9379 0.59089 0.83507 0.0
C303 C 0.95593 0.51162 0.91665 0.0
O304 O 0.9662 0.53336 0.83508 0.0
O305 O 1.01231 0.52388 0.84917 0.0
O306 O 0.9728 0.6034 0.9039 0.0
O307 O 1.00669 0.57949 0.88595 0.0
Co308 Co 0.85505 0.48985 0.51576 0.0
O309 O 0.81703 0.48778 0.53444 0.0
O310 O 0.85645 0.53547 0.53131 0.0
C311 C 0.83259 0.45528 0.47212 0.0
O312 O 0.89727 0.50344 0.49867 0.0
Co313 Co 0.87708 0.42575 0.50099 0.0
O314 O 0.90969 0.45757 0.47941 0.0
C315 C 0.8841 0.45664 0.56586 0.0
C316 C 0.82914 0.52101 0.54053 0.0
C317 C 0.91537 0.4901 0.48434 0.0
O318 O 0.87551 0.48224 0.55675 0.0
O319 O 0.88386 0.43072 0.54751 0.0
O320 O 0.83381 0.48763 0.4739 0.0
O321 O 0.8423 0.44464 0.49721 0.0
Co322 Co 0.7265 0.58991 0.38495 0.0
O323 O 0.72483 0.5479 0.36068 0.0
O324 O 0.76635 0.59477 0.36966 0.0
C325 C 0.7024 0.56517 0.42498 0.0
O326 O 0.73859 0.63658 0.40897 0.0
Co327 Co 0.67018 0.61235 0.40564 0.0
O328 O 0.69983 0.65947 0.40337 0.0
C329 C 0.6861 0.61725 0.34074 0.0
C330 C 0.75398 0.56358 0.35659 0.0
C331 C 0.72884 0.66214 0.40318 0.0
O332 O 0.71122 0.60861 0.3469 0.0
O333 O 0.6662 0.61752 0.36017 0.0
O334 O 0.73226 0.5692 0.42378 0.0
O335 O 0.68812 0.57436 0.40174 0.0
Tb336 Tb 0.13542 0.11293 0.09292 0.0
Tb337 Tb 0.07414 0.0589 0.052 0.0
C338 C 0.06856 0.10235 0.11217 0.0
C339 C 0.21384 0.13215 0.12602 0.0
C340 C 0.25245 0.09231 0.10898 0.0
C341 C 0.22845 0.07943 0.12785 0.0
C342 C 0.20939 0.09919 0.1364 0.0
C343 C 0.24023 0.14656 0.11039 0.0
C344 C 0.25937 0.12675 0.10185 0.0
C345 C 0.18692 0.14602 0.12273 0.0
O346 O 0.12653 0.06283 0.1129 0.0
O347 O 0.10304 1.02719 0.06945 0.0
O348 O 0.10971 0.06487 0.02071 0.0
O349 O 0.15344 0.08815 0.05604 0.0
O350 O 1.03774 1.01255 0.0529 0.0
O351 O 1.03988 0.04213 1.01337 0.0
O352 O 0.06948 0.11001 0.04233 0.0
O353 O 0.11682 0.14753 0.06539 0.0
O354 O 0.09642 0.1247 0.11199 0.0
O355 O 0.06093 0.07187 0.09681 0.0
C356 C 0.11912 0.03228 0.09712 0.0
O357 O 0.17902 0.15124 0.09423 0.0
O358 O 0.16224 0.13025 0.13626 0.0
C359 C 0.14015 0.07337 0.02854 0.0
C360 C 0.99122 1.02375 0.03478 0.0
C361 C 0.94899 0.05136 0.06355 0.0
C362 C 0.96194 0.06503 0.03709 0.0
C363 C 0.98266 0.0512 0.02265 0.0
C364 C 0.97503 1.00732 0.0588 0.0
C365 C 0.95399 1.02108 0.07314 0.0
C366 C 1.02179 1.01893 0.02872 0.0
C367 C 0.08934 0.1416 0.04859 0.0
H368 H 0.2231 0.05325 0.13433 0.0
H369 H 0.18941 0.08723 0.14864 0.0
H370 H 0.24412 0.17178 0.10197 0.0
H371 H 0.27783 0.13743 0.0874 0.0
H372 H 0.95767 0.08792 0.02883 0.0
H373 H 0.99416 0.0642 1.00387 0.0
H374 H 0.9809 0.98592 0.06848 0.0
H375 H 0.94388 1.00993 0.09331 0.0
Tb376 Tb 0.32024 0.84481 0.35812 0.0
Tb377 Tb 0.36699 0.83529 0.30707 0.0
C378 C 0.30792 0.86093 0.28924 0.0
C379 C 0.27076 0.8151 0.41705 0.0
C380 C 0.26841 0.76765 0.46151 0.0
C381 C 0.26005 0.79783 0.46824 0.0
C382 C 0.26154 0.82163 0.44618 0.0
C383 C 0.27561 0.78329 0.40922 0.0
C384 C 0.27431 0.75968 0.43119 0.0
C385 C 0.28145 0.84302 0.39712 0.0
O386 O 0.29955 0.7952 0.33192 0.0
O387 O 0.34407 0.78395 0.31964 0.0
O388 O 0.39326 0.8326 0.35063 0.0
O389 O 0.35298 0.82041 0.38195 0.0
O390 O 0.37263 0.80876 0.26609 0.0
O391 O 0.41071 0.85145 0.28923 0.0
O392 O 0.37818 0.89017 0.31968 0.0
O393 O 0.36043 0.89034 0.36758 0.0
O394 O 0.30804 0.87143 0.31865 0.0
O395 O 0.32501 0.84118 0.28135 0.0
C396 C 0.31432 0.77333 0.32425 0.0
O397 O 0.31127 0.86007 0.40266 0.0
O398 O 0.27318 0.83454 0.36757 0.0
C399 C 0.38249 0.82324 0.377 0.0
C400 C 0.399 0.85003 0.23544 0.0
C401 C 0.38086 0.87602 0.18107 0.0
C402 C 0.39079 0.84636 0.17943 0.0
C403 C 0.39967 0.83334 0.2065 0.0
C404 C 0.39115 0.88093 0.23702 0.0
C405 C 0.38222 0.89387 0.21006 0.0
C406 C 0.39936 0.8319 0.2634 0.0
C407 C 0.3798 0.90452 0.34788 0.0
H408 H 0.25482 0.80433 0.49133 0.0
H409 H 0.25779 0.84607 0.45262 0.0
H410 H 0.28316 0.77792 0.38698 0.0
H411 H 0.2811 0.73692 0.42521 0.0
H412 H 0.39058 0.8325 0.15726 0.0
H413 H 0.40524 0.80925 0.20488 0.0
H414 H 0.38985 0.89392 0.25916 0.0
H415 H 0.3745 0.91659 0.21208 0.0
Tb416 Tb 0.56845 0.08061 0.58859 0.0
Tb417 Tb 0.63636 0.08945 0.56134 0.0
C418 C 0.62335 0.06554 0.62781 0.0
C419 C 0.49874 0.10423 0.60422 0.0
C420 C 0.46674 0.15384 0.598 0.0
C421 C 0.47056 0.14063 0.62676 0.0
C422 C 0.48652 0.11607 0.62985 0.0
C423 C 0.49522 0.11774 0.57566 0.0
C424 C 0.47947 0.14229 0.57257 0.0
C425 C 0.5166 0.07934 0.60753 0.0
O426 O 0.59959 0.13213 0.607 0.0
O427 O 0.63591 0.14269 0.57162 0.0
O428 O 0.60467 0.09416 0.52273 0.0
O429 O 0.5682 0.11023 0.54894 0.0
O430 O 0.68565 0.11025 0.56581 0.0
O431 O 0.66077 0.07524 0.52618 0.0
O432 O 0.61402 0.03389 0.56076 0.0
O433 O 0.56218 0.03154 0.56068 0.0
O434 O 0.59281 0.05586 0.62028 0.0
O435 O 0.64313 0.0842 0.6104 0.0
C436 C 0.62193 0.15381 0.59381 0.0
O437 O 0.51915 0.06243 0.58187 0.0
O438 O 0.54335 0.09061 0.6251 0.0
C439 C 0.5818 0.10796 0.52372 0.0
C440 C 0.70725 0.06691 0.5483 0.0
C441 C 0.73853 1.01741 0.5591 0.0
C442 C 0.73077 1.02436 0.52867 0.0
C443 C 0.71533 0.04896 0.52334 0.0
C444 C 0.71503 0.05999 0.57874 0.0
C445 C 0.73064 0.03561 0.58408 0.0
C446 C 0.68797 0.08997 0.54227 0.0
C447 C 0.58387 1.01656 0.55559 0.0
H448 H 0.46107 0.14916 0.64682 0.0
H449 H 0.48931 0.10633 0.6522 0.0
H450 H 0.5044 0.10905 0.55556 0.0
H451 H 0.47641 0.15138 0.54997 0.0
H452 H 0.73698 1.01107 0.50899 0.0
H453 H 0.70925 0.05359 0.49967 0.0
H454 H 0.70866 0.07299 0.59847 0.0
H455 H 0.73614 0.03064 0.60776 0.0
Tb456 Tb 0.3695 0.30033 0.8159 0.0
Tb457 Tb 0.3156 0.33898 0.8079 0.0
C458 C 0.30166 0.26506 0.83252 0.0
C459 C 0.43938 0.28008 0.79704 0.0
C460 C 0.48843 0.29275 0.75847 0.0
C461 C 0.48372 0.26571 0.77797 0.0
C462 C 0.45935 0.25943 0.79712 0.0
C463 C 0.4436 0.30661 0.77723 0.0
C464 C 0.46791 0.31294 0.75818 0.0
C465 C 0.41362 0.27387 0.81686 0.0
O466 O 0.36112 0.30264 0.7652 0.0
O467 O 0.31335 0.31289 0.76128 0.0
O468 O 0.35486 0.37125 0.78708 0.0
O469 O 0.39332 0.35455 0.81379 0.0
O470 O 0.27062 0.33761 0.78897 0.0
O471 O 0.29951 0.3812 0.81987 0.0
O472 O 0.34116 0.35691 0.85456 0.0
O473 O 0.36064 0.31219 0.86427 0.0
O474 O 0.3261 0.26044 0.82045 0.0
O475 O 0.29564 0.29452 0.83276 0.0
C476 C 0.33606 0.3048 0.7481 0.0
O477 O 0.41397 0.30027 0.83562 0.0
O478 O 0.38567 0.25887 0.80235 0.0
C479 C 0.3846 0.37512 0.79554 0.0
C480 C 0.24604 0.35864 0.8282 0.0
C481 C 0.20137 0.34652 0.87161 0.0
C482 C 0.21911 0.38042 0.86727 0.0
C483 C 0.24127 0.38642 0.84568 0.0
C484 C 0.22838 0.3248 0.83279 0.0
C485 C 0.20639 0.31885 0.85422 0.0
C486 C 0.27106 0.36446 0.80721 0.0
C487 C 0.35226 0.33906 0.87448 0.0
H488 H 0.4989 0.24943 0.77848 0.0
H489 H 0.45617 0.23861 0.81201 0.0
H490 H 0.42824 0.3227 0.77671 0.0
H491 H 0.47111 0.33427 0.74387 0.0
H492 H 0.2155 0.40226 0.8802 0.0
H493 H 0.25485 0.41269 0.84281 0.0
H494 H 0.23172 0.3027 0.82007 0.0
H495 H 0.19342 0.29244 0.85734 0.0
Tb496 Tb 0.08788 0.09323 0.58968 0.0
Tb497 Tb 0.11106 0.05595 0.53473 0.0
C498 C 1.0385 0.0342 0.54831 0.0
C499 C 0.09692 0.13098 0.66839 0.0
C500 C 0.13264 0.13557 0.72566 0.0
C501 C 0.1005 0.1332 0.72436 0.0
C502 C 0.08275 0.13091 0.69585 0.0
C503 C 0.12923 0.13458 0.66968 0.0
C504 C 0.14698 0.13704 0.69809 0.0
C505 C 0.07769 0.12326 0.63837 0.0
O506 O 0.09727 0.04675 0.61102 0.0
O507 O 0.11355 1.01947 0.57106 0.0
O508 O 0.15496 0.08457 0.56199 0.0
O509 O 0.13577 0.12421 0.58498 0.0
O510 O 0.10159 1.01334 0.50183 0.0
O511 O 0.14362 0.0559 0.50244 0.0
O512 O 0.10437 0.1043 0.51432 0.0
O513 O 0.07925 0.12486 0.55124 0.0
O514 O 1.04302 0.06317 0.56539 0.0
O515 O 0.06163 1.02698 0.53568 0.0
C516 C 0.10534 1.01955 0.59983 0.0
O517 O 0.09099 0.13935 0.61591 0.0
O518 O 0.0645 0.09063 0.62994 0.0
C519 C 0.15921 0.11587 0.57437 0.0
C520 C 0.11425 0.03247 0.45404 0.0
C521 C 0.07866 0.04439 0.40214 0.0
C522 C 0.10411 0.07123 0.41739 0.0
C523 C 0.1218 0.06534 0.44313 0.0
C524 C 0.09088 1.0049 0.43687 0.0
C525 C 0.07299 1.01088 0.41121 0.0
C526 C 0.12449 1.02863 0.48628 0.0
C527 C 0.09137 0.1282 0.52418 0.0
H528 H 0.08868 0.13148 0.74522 0.0
H529 H 0.05778 0.1277 0.69518 0.0
H530 H 0.14057 0.13431 0.64865 0.0
H531 H 0.17173 0.13922 0.69842 0.0
H532 H 0.109 0.09734 0.4108 0.0
H533 H 0.13965 0.08717 0.45582 0.0
H534 H 0.0847 0.97932 0.44483 0.0
H535 H 0.05387 0.98966 0.39933 0.0
Tb536 Tb 0.36754 0.87209 0.7977 0.0
Tb537 Tb 0.33149 0.80252 0.82495 0.0
C538 C 0.36622 0.80207 0.76548 0.0
C539 C 0.37205 0.95649 0.77557 0.0
C540 C 0.33491 0.99874 0.79112 0.0
C541 C 0.32286 0.97039 0.76868 0.0
C542 C 0.34121 0.94944 0.761 0.0
C543 C 0.38518 0.98686 0.79545 0.0
C544 C 0.36675 1.00773 0.80328 0.0
C545 C 0.38754 0.92917 0.77595 0.0
O546 O 0.31588 0.85979 0.77722 0.0
O547 O 0.28906 0.81637 0.80465 0.0
O548 O 0.32121 0.83995 0.8563 0.0
O549 O 0.35575 0.8892 0.84209 0.0
O550 O 0.30029 0.75209 0.81613 0.0
O551 O 0.32746 0.76925 0.86058 0.0
O552 O 0.38323 0.81237 0.84359 0.0
O553 O 0.40996 0.85987 0.82072 0.0
O554 O 0.38306 0.83422 0.7721 0.0
O555 O 0.34048 0.78927 0.77837 0.0
C556 C 0.28818 0.83916 0.78416 0.0
O557 O 0.3971 0.92326 0.80366 0.0
O558 O 0.37313 0.90045 0.75865 0.0
C559 C 0.335 0.87336 0.86004 0.0
C560 C 0.32877 0.71743 0.83549 0.0
C561 C 0.36336 0.67226 0.8215 0.0
C562 C 0.33493 0.66021 0.83487 0.0
C563 C 0.31767 0.68289 0.84201 0.0
C564 C 0.35668 0.72874 0.82147 0.0
C565 C 0.3738 0.70659 0.81466 0.0
C566 C 0.31185 0.74258 0.84133 0.0
C567 C 0.41082 0.83459 0.83855 0.0
H568 H 0.29866 0.96329 0.7583 0.0
H569 H 0.33038 0.92639 0.74535 0.0
H570 H 0.40885 0.99288 0.80702 0.0
H571 H 0.37682 0.02934 0.82069 0.0
H572 H 0.32643 0.63363 0.84015 0.0
H573 H 0.29592 0.67357 0.85244 0.0
H574 H 0.36527 0.75483 0.81535 0.0
H575 H 0.39522 0.71631 0.80373 0.0
Tb576 Tb 0.59181 0.05293 0.07729 0.0
Tb577 Tb 0.59135 0.09038 1.01568 0.0
C578 C 0.6536 0.10186 0.0581 0.0
C579 C 0.57103 1.01453 0.15053 0.0
C580 C 0.53889 1.00671 0.20342 0.0
C581 C 0.55199 0.98131 0.19292 0.0
C582 C 0.56808 0.9853 0.16663 0.0
C583 C 0.55631 0.03882 0.15967 0.0
C584 C 0.54041 0.03501 0.18604 0.0
C585 C 0.58921 1.01915 0.12404 0.0
O586 O 0.59045 0.10514 0.09717 0.0
O587 O 0.58105 0.12768 0.05158 0.0
O588 O 0.54694 0.05017 1.01162 0.0
O589 O 0.5432 0.05014 0.0633 0.0
O590 O 0.57465 0.12381 0.98853 0.0
O591 O 0.60693 0.09826 0.97218 0.0
O592 O 0.60384 0.04251 0.99946 0.0
O593 O 0.5927 1.01143 0.04117 0.0
O594 O 0.641 0.07216 0.06886 0.0
O595 O 0.63653 0.11606 0.04097 0.0
C596 C 0.58439 0.13075 0.0827 0.0
O597 O 0.5728 1.00703 0.0974 0.0
O598 O 0.60923 0.04969 0.12298 0.0
C599 C 0.53028 0.04155 0.0346 0.0
C600 C 0.61339 0.15308 0.95714 0.0
C601 C 0.66353 0.1923 0.92747 0.0
C602 C 0.63283 0.18001 0.91181 0.0
C603 C 0.60798 0.16036 0.92655 0.0
C604 C 0.6426 0.16996 0.97434 0.0
C605 C 0.66759 0.18956 0.95957 0.0
C606 C 0.59279 0.1213 0.96712 0.0
C607 C 0.59987 1.01276 1.01217 0.0
H608 H 0.55084 0.95909 0.2057 0.0
H609 H 0.57885 0.96601 0.15932 0.0
H610 H 0.55798 0.06124 0.147 0.0
H611 H 0.53093 0.05525 0.19376 0.0
H612 H 0.62859 0.18153 0.8871 0.0
H613 H 0.58558 0.14754 0.91296 0.0
H614 H 0.64707 0.16474 0.99813 0.0
H615 H 0.69076 0.19934 0.97245 0.0
Tb616 Tb 0.32825 0.28618 0.29639 0.0
Tb617 Tb 0.36046 0.36275 0.32049 0.0
C618 C 0.33493 0.34057 0.24755 0.0
C619 C 0.33092 0.2014 0.27821 0.0
C620 C 0.37414 0.16384 0.27789 0.0
C621 C 0.34363 0.1496 0.26219 0.0
C622 C 0.32212 0.16852 0.26212 0.0
C623 C 0.36139 0.21553 0.29353 0.0
C624 C 0.38279 0.19712 0.29322 0.0
C625 C 0.30977 0.22257 0.27887 0.0
O626 O 0.37752 0.29632 0.27927 0.0
O627 O 0.40326 0.34924 0.30391 0.0
O628 O 0.36017 0.34027 0.3651 0.0
O629 O 0.34377 0.28361 0.34621 0.0
O630 O 0.39967 0.4045 0.33946 0.0
O631 O 0.35461 0.41154 0.32553 0.0
O632 O 0.31094 0.35191 0.33744 0.0
O633 O 0.28516 0.29872 0.31268 0.0
O634 O 0.31755 0.31075 0.25522 0.0
O635 O 0.35315 0.36348 0.2693 0.0
C636 C 0.40437 0.32262 0.28478 0.0
O637 O 0.30726 0.23511 0.30642 0.0
O638 O 0.31519 0.24644 0.2599 0.0
C639 C 0.35176 0.30751 0.37008 0.0
C640 C 0.39829 0.45379 0.31401 0.0
C641 C 0.38832 0.49541 0.2682 0.0
C642 C 0.39323 0.50824 0.29967 0.0
C643 C 0.39779 0.48721 0.32258 0.0
C644 C 0.40052 0.44422 0.28283 0.0
C645 C 0.39521 0.4649 0.25985 0.0
C646 C 0.38455 0.42669 0.33381 0.0
C647 C 0.28403 0.32547 0.33163 0.0
H648 H 0.33637 0.12379 0.25047 0.0
H649 H 0.29871 0.15743 0.24998 0.0
H650 H 0.36852 0.24072 0.30639 0.0
H651 H 0.4057 0.20841 0.30634 0.0
H652 H 0.38829 0.53185 0.30678 0.0
H653 H 0.39623 0.49511 0.34653 0.0
H654 H 0.40166 0.41871 0.27586 0.0
H655 H 0.39209 0.45483 0.23573 0.0
Tb656 Tb 0.58904 0.59201 0.08696 0.0
Tb657 Tb 0.61034 0.55429 0.03062 0.0
C658 C 0.53813 0.53231 0.04525 0.0
C659 C 0.59942 0.63265 0.16494 0.0
C660 C 0.63655 0.64053 0.22186 0.0
C661 C 0.60459 0.63888 0.22099 0.0
C662 C 0.58614 0.63493 0.19266 0.0
C663 C 0.6316 0.63575 0.16571 0.0
C664 C 0.65006 0.63981 0.19396 0.0
C665 C 0.57935 0.62294 0.13544 0.0
O666 O 0.60097 0.54723 0.10872 0.0
O667 O 0.60575 0.51487 0.06569 0.0
O668 O 0.65547 0.58521 0.05455 0.0
O669 O 0.63713 0.62275 0.08248 0.0
O670 O 0.6274 0.51543 1.01123 0.0
O671 O 0.6171 0.55331 0.98366 0.0
O672 O 0.60801 0.60554 1.01319 0.0
O673 O 0.57897 0.6225 0.04809 0.0
O674 O 0.54375 0.55898 0.06574 0.0
O675 O 0.55996 0.52732 0.02878 0.0
C676 C 0.60298 0.51732 0.09595 0.0
O677 O 0.59122 0.63849 0.11211 0.0
O678 O 0.56737 0.58993 0.12822 0.0
C679 C 0.65996 0.61544 0.06949 0.0
C680 C 0.60463 0.49839 0.95932 0.0
C681 C 0.56422 0.48301 0.90436 0.0
C682 C 0.59636 0.48606 0.90363 0.0
C683 C 0.61668 0.49465 0.9311 0.0
C684 C 0.57196 0.48691 0.96047 0.0
C685 C 0.55172 0.47959 0.93303 0.0
C686 C 0.62406 0.52459 0.98336 0.0
C687 C 0.5932 0.62795 0.0223 0.0
H688 H 0.59341 0.63883 0.24216 0.0
H689 H 0.56127 0.63215 0.19239 0.0
H690 H 0.64223 0.63372 0.14448 0.0
H691 H 0.67464 0.64133 0.19396 0.0
H692 H 0.60648 0.48697 0.88179 0.0
H693 H 0.64188 0.50277 0.92983 0.0
H694 H 0.56223 0.48867 0.9822 0.0
H695 H 0.52703 0.47638 0.93469 0.0
Tb696 Tb 0.86174 0.36867 0.29772 0.0
Tb697 Tb 0.82628 0.29978 0.32584 0.0
C698 C 0.85983 0.29761 0.2648 0.0
C699 C 0.86884 0.45426 0.27835 0.0
C700 C 0.83192 0.49672 0.2941 0.0
C701 C 0.81993 0.46875 0.27128 0.0
C702 C 0.83815 0.44767 0.26352 0.0
C703 C 0.88189 0.48418 0.29881 0.0
C704 C 0.86358 0.50515 0.30673 0.0
C705 C 0.884 0.42668 0.27847 0.0
O706 O 0.81162 0.35514 0.27376 0.0
O707 O 0.78532 0.31734 0.30598 0.0
O708 O 0.83063 0.33859 0.36348 0.0
O709 O 0.83892 0.38509 0.33532 0.0
O710 O 0.78851 0.25385 0.32 0.0
O711 O 0.82109 0.2664 0.36134 0.0
O712 O 0.87792 0.3035 0.3388 0.0
O713 O 0.90285 0.35757 0.32544 0.0
O714 O 0.87468 0.33066 0.26961 0.0
O715 O 0.8373 0.28241 0.2812 0.0
C716 C 0.78408 0.33709 0.2828 0.0
O717 O 0.89211 0.41936 0.30617 0.0
O718 O 0.8701 0.39876 0.25994 0.0
C719 C 0.83231 0.37079 0.36098 0.0
C720 C 0.80865 0.21016 0.33672 0.0
C721 C 0.84295 0.16829 0.31392 0.0
C722 C 0.84934 0.18258 0.34493 0.0
C723 C 0.83218 0.20319 0.35633 0.0
C724 C 0.79953 0.19197 0.30707 0.0
C725 C 0.81669 0.17131 0.2957 0.0
C726 C 0.79994 0.24179 0.34377 0.0
C727 C 0.90481 0.32922 0.33841 0.0
H728 H 0.79588 0.46206 0.26056 0.0
H729 H 0.8273 0.42488 0.24756 0.0
H730 H 0.90539 0.48975 0.31067 0.0
H731 H 0.87358 0.52642 0.32447 0.0
H732 H 0.86895 0.17967 0.35973 0.0
H733 H 0.83935 0.21625 0.37949 0.0
H734 H 0.78111 0.19626 0.29152 0.0
H735 H 0.81107 0.1602 0.27181 0.0
Tb736 Tb 0.0762 0.54885 0.57619 0.0
Tb737 Tb 0.11142 0.59537 0.52625 0.0
C738 C 0.1463 0.58327 0.58472 0.0
C739 C 1.0379 0.50963 0.64472 0.0
C740 C 1.01688 0.50705 0.7038 0.0
C741 C 1.02256 0.47813 0.68922 0.0
C742 C 1.03284 0.47939 0.65977 0.0
C743 C 1.03284 0.5388 0.6594 0.0
C744 C 1.02227 0.53746 0.68872 0.0
C745 C 1.04664 0.50939 0.61307 0.0
O746 O 0.07157 0.60089 0.59294 0.0
O747 O 0.10436 0.63493 0.56166 0.0
O748 O 0.06223 0.58984 0.51319 0.0
O749 O 1.04599 0.53789 0.53287 0.0
O750 O 0.15273 0.63469 0.5205 0.0
O751 O 0.11806 0.61088 0.48152 0.0
O752 O 0.1044 0.54152 0.50405 0.0
O753 O 0.09349 0.51166 0.5468 0.0
O754 O 0.12139 0.58093 0.59882 0.0
O755 O 0.14255 0.57531 0.5549 0.0
C756 C 0.08687 0.63241 0.58545 0.0
O757 O 1.0338 0.5262 0.59408 0.0
O758 O 0.0764 0.51417 0.60994 0.0
C759 C 1.04108 0.56004 0.51423 0.0
C760 C 0.17106 0.62264 0.47344 0.0
C761 C 0.21102 0.60155 0.4354 0.0
C762 C 0.20532 0.63338 0.43239 0.0
C763 C 0.18534 0.6438 0.45126 0.0
C764 C 0.17833 0.592 0.47784 0.0
C765 C 0.19811 0.58151 0.45896 0.0
C766 C 0.14672 0.63069 0.49035 0.0
C767 C 0.09998 0.51202 0.5173 0.0
H768 H 1.01858 0.45441 0.70035 0.0
H769 H 1.03649 0.4566 0.64858 0.0
H770 H 1.03676 0.56243 0.64811 0.0
H771 H 1.01866 0.56034 0.69975 0.0
H772 H 0.21473 0.64919 0.41423 0.0
H773 H 0.18002 0.66759 0.44766 0.0
H774 H 0.16765 0.57544 0.49503 0.0
H775 H 0.20227 0.55701 0.46191 0.0
Tb776 Tb 0.87289 0.80787 0.32 0.0
Tb777 Tb 0.8159 0.84334 0.31263 0.0
C778 C 0.80543 0.76964 0.33765 0.0
C779 C 0.94417 0.78828 0.3005 0.0
C780 C 0.99357 0.80106 0.262 0.0
C781 C 0.96197 0.79071 0.24896 0.0
C782 C 0.93755 0.7845 0.26799 0.0
C783 C 0.97561 0.79827 0.31358 0.0
C784 C 1.00005 0.8047 0.29458 0.0
C785 C 0.91874 0.78405 0.32091 0.0
O786 O 0.86267 0.80792 0.26936 0.0
O787 O 0.81527 0.81937 0.26535 0.0
O788 O 0.85415 0.87803 0.29239 0.0
O789 O 0.89468 0.86263 0.31704 0.0
O790 O 0.76972 0.83885 0.29495 0.0
O791 O 0.79756 0.88383 0.3248 0.0
O792 O 0.84112 0.86123 0.35945 0.0
O793 O 0.86408 0.81888 0.36835 0.0
O794 O 0.83118 0.76648 0.3272 0.0
O795 O 0.79758 0.79796 0.33651 0.0
C796 C 0.83777 0.81056 0.25234 0.0
O797 O 0.91915 0.81176 0.33784 0.0
O798 O 0.89036 0.76689 0.30843 0.0
C799 C 0.88428 0.88334 0.30022 0.0
C800 C 0.744 0.85981 0.33358 0.0
C801 C 0.69713 0.84798 0.37509 0.0
C802 C 0.71689 0.88159 0.37268 0.0
C803 C 0.74004 0.88744 0.35205 0.0
C804 C 0.72437 0.82621 0.33627 0.0
C805 C 0.70128 0.82041 0.35672 0.0
C806 C 0.76927 0.86574 0.31262 0.0
C807 C 0.85388 0.84424 0.37889 0.0
H808 H 0.95605 0.78728 0.22403 0.0
H809 H 0.91351 0.77706 0.25721 0.0
H810 H 0.9813 0.80175 0.33856 0.0
H811 H 1.02407 0.81328 0.30553 0.0
H812 H 0.71409 0.90342 0.38632 0.0
H813 H 0.7549 0.91355 0.35056 0.0
H814 H 0.72686 0.80417 0.3227 0.0
H815 H 0.68679 0.79417 0.35831 0.0
Tb816 Tb 0.82526 0.33163 0.84431 0.0
Tb817 Tb 0.88321 0.38537 0.81431 0.0
C818 C 0.81217 0.3786 0.79008 0.0
C819 C 0.78375 0.26033 0.88609 0.0
C820 C 0.79863 0.2275 0.93752 0.0
C821 C 0.77931 0.24886 0.93989 0.0
C822 C 0.77172 0.26495 0.91429 0.0
C823 C 0.801 0.23674 0.88312 0.0
C824 C 0.8083 0.22038 0.90866 0.0
C825 C 0.78215 0.28361 0.86181 0.0
O826 O 0.85078 0.30808 0.81423 0.0
O827 O 0.85767 0.34505 0.7783 0.0
O828 O 0.90562 0.35805 0.84744 0.0
O829 O 0.86527 0.32906 0.87495 0.0
O830 O 0.92285 0.39204 0.78987 0.0
O831 O 0.91028 0.43589 0.80877 0.0
O832 O 0.87076 0.41426 0.85222 0.0
O833 O 0.84519 0.3719 0.88184 0.0
O834 O 0.80201 0.35857 0.81221 0.0
O835 O 0.84231 0.39081 0.78653 0.0
C836 C 0.84959 0.31327 0.78501 0.0
O837 O 0.78792 0.31602 0.87171 0.0
O838 O 0.79657 0.28012 0.83751 0.0
C839 C 0.89533 0.33986 0.87081 0.0
C840 C 0.92706 0.43786 0.75858 0.0
C841 C 0.92046 0.45227 0.69618 0.0
C842 C 0.94306 0.43666 0.70662 0.0
C843 C 0.94639 0.42962 0.73755 0.0
C844 C 0.90547 0.45493 0.74853 0.0
C845 C 0.90229 0.46216 0.71768 0.0
C846 C 0.92704 0.42512 0.7896 0.0
C847 C 0.86137 0.40382 0.87876 0.0
H848 H 0.77119 0.25423 0.9619 0.0
H849 H 0.75803 0.2826 0.91704 0.0
H850 H 0.81035 0.23227 0.8616 0.0
H851 H 0.82317 0.20394 0.90633 0.0
H852 H 0.95767 0.4291 0.69067 0.0
H853 H 0.96327 0.4166 0.74478 0.0
H854 H 0.89002 0.46148 0.76411 0.0
H855 H 0.88438 0.47378 0.71037 0.0
Tb856 Tb 0.83274 0.78052 0.80137 0.0
Tb857 Tb 0.86268 0.85851 0.82332 0.0
C858 C 0.84246 0.83468 0.75143 0.0
C859 C 0.82409 0.69479 0.76363 0.0
C860 C 0.85944 0.649 0.75825 0.0
C861 C 0.82625 0.63637 0.75652 0.0
C862 C 0.80878 0.65928 0.76039 0.0
C863 C 0.85544 0.70691 0.75703 0.0
C864 C 0.87328 0.68426 0.75495 0.0
C865 C 0.81172 0.71731 0.78313 0.0
O866 O 0.88328 0.7911 0.78734 0.0
O867 O 0.90621 0.84723 0.80633 0.0
O868 O 0.87091 0.8354 0.86687 0.0
O869 O 0.83917 0.78057 0.85234 0.0
O870 O 0.88335 0.90864 0.81103 0.0
O871 O 0.87499 0.90007 0.85803 0.0
O872 O 0.81314 0.84804 0.83882 0.0
O873 O 0.78884 0.79437 0.81452 0.0
O874 O 0.84126 0.80352 0.75787 0.0
O875 O 0.84268 0.85774 0.7743 0.0
C876 C 0.90871 0.81928 0.79006 0.0
O877 O 0.82965 0.72984 0.80908 0.0
O878 O 0.80198 0.74071 0.76993 0.0
C879 C 0.85519 0.80459 0.87433 0.0
C880 C 0.86379 0.94735 0.838 0.0
C881 C 0.82879 0.99377 0.83236 0.0
C882 C 0.86138 1.00591 0.84181 0.0
C883 C 0.87879 0.98276 0.8447 0.0
C884 C 0.8312 0.93521 0.82923 0.0
C885 C 0.81378 0.95818 0.82665 0.0
C886 C 0.88193 0.92291 0.83818 0.0
C887 C 0.78678 0.82131 0.83276 0.0
H888 H 0.81422 0.60906 0.75642 0.0
H889 H 0.78427 0.6493 0.7644 0.0
H890 H 0.86733 0.73423 0.75794 0.0
H891 H 0.89845 0.69537 0.75496 0.0
H892 H 0.87342 0.03331 0.84642 0.0
H893 H 0.90396 0.9925 0.85137 0.0
H894 H 0.81934 0.90801 0.82336 0.0
H895 H 0.78884 0.9482 0.81883 0.0
Tb896 Tb 0.63505 0.61186 0.59208 0.0
Tb897 Tb 0.57064 0.5588 0.55661 0.0
C898 C 0.57175 0.60241 0.61963 0.0
C899 C 0.71567 0.63176 0.61933 0.0
C900 C 0.76052 0.59896 0.60416 0.0
C901 C 0.76783 0.63519 0.6053 0.0
C902 C 0.7454 0.65139 0.61243 0.0
C903 C 0.70957 0.59617 0.62121 0.0
C904 C 0.7315 0.57993 0.61345 0.0
C905 C 0.68891 0.64575 0.61695 0.0
O906 O 0.62687 0.56242 0.61344 0.0
O907 O 0.5982 0.52533 0.57255 0.0
O908 O 0.60432 0.56764 0.5227 0.0
O909 O 0.64877 0.58112 0.55673 0.0
O910 O 0.53205 0.51437 0.5573 0.0
O911 O 0.53699 0.54385 0.51753 0.0
O912 O 0.56439 0.60998 0.55352 0.0
O913 O 0.61606 0.6437 0.56084 0.0
O914 O 0.59912 0.62436 0.61629 0.0
O915 O 0.56087 0.57246 0.60301 0.0
C916 C 0.61664 0.53105 0.59889 0.0
O917 O 0.67874 0.6484 0.58845 0.0
O918 O 0.66573 0.63153 0.63294 0.0
C919 C 0.63428 0.57089 0.52884 0.0
C920 C 0.48754 0.52882 0.53677 0.0
C921 C 0.44441 0.5628 0.55406 0.0
C922 C 0.45497 0.56538 0.5245 0.0
C923 C 0.47618 0.54836 0.51584 0.0
C924 C 0.47429 0.52329 0.56498 0.0
C925 C 0.45299 0.54022 0.57358 0.0
C926 C 0.51751 0.52163 0.53254 0.0
C927 C 0.58603 0.63978 0.55206 0.0
H928 H 0.79025 0.65094 0.59921 0.0
H929 H 0.75054 0.67885 0.61062 0.0
H930 H 0.68681 0.58025 0.62627 0.0
H931 H 0.72446 0.55208 0.61261 0.0
H932 H 0.44798 0.58187 0.50863 0.0
H933 H 0.48559 0.55277 0.49376 0.0
H934 H 0.48223 0.50813 0.58159 0.0
H935 H 0.44506 0.53755 0.59644 0.0
Tb936 Tb 0.07052 0.58177 0.08583 0.0
Tb937 Tb 0.13637 0.59297 0.05404 0.0
C938 C 0.12825 0.56724 0.12051 0.0
C939 C 1.00222 0.60453 0.10792 0.0
C940 C 0.9676 0.65181 0.10185 0.0
C941 C 1.00052 0.66287 0.10181 0.0
C942 C 1.01765 0.63941 0.10468 0.0
C943 C 0.96955 0.59346 0.10842 0.0
C944 C 0.95238 0.61682 0.10537 0.0
C945 C 1.01964 0.57916 0.10761 0.0
O946 O 0.10164 0.63345 0.10369 0.0
O947 O 0.13437 0.64547 0.06519 0.0
O948 O 0.10103 0.59392 1.01713 0.0
O949 O 0.06718 0.61079 0.0464 0.0
O950 O 0.18537 0.61554 0.05573 0.0
O951 O 0.1594 0.57945 1.01728 0.0
O952 O 0.11621 0.53725 0.05427 0.0
O953 O 0.06425 0.5323 0.0583 0.0
O954 O 0.09744 0.55729 0.11513 0.0
O955 O 0.14635 0.58732 0.10267 0.0
C956 C 0.12203 0.65583 0.0891 0.0
O957 O 1.02111 0.56544 0.08008 0.0
O958 O 1.04689 0.58828 0.12444 0.0
C959 C 0.07743 0.60636 0.01964 0.0
C960 C 0.20733 0.5725 0.03764 0.0
C961 C 0.23978 0.52381 0.04881 0.0
C962 C 0.2273 0.52652 0.01857 0.0
C963 C 0.21127 0.55063 1.01306 0.0
C964 C 0.22018 0.57012 0.06779 0.0
C965 C 0.23614 0.54605 0.07331 0.0
C966 C 0.18709 0.59488 0.03219 0.0
C967 C 0.08637 0.51865 0.0512 0.0
H968 H 1.01305 0.68959 0.09939 0.0
H969 H 1.04288 0.64839 0.10376 0.0
H970 H 0.95719 0.56655 0.11031 0.0
H971 H 0.92701 0.60713 0.10481 0.0
H972 H 0.23014 0.5102 0.99909 0.0
H973 H 0.20144 0.55177 0.98963 0.0
H974 H 0.21744 0.58639 0.08732 0.0
H975 H 0.24517 0.5445 0.09692 0.0
C976 C 0.07379 0.22961 0.05236 0.0
C977 C 0.05936 0.23058 0.0224 0.0
H978 H 0.09522 0.202 0.08355 0.0
C979 C 0.05508 0.20173 1.00079 0.0
H980 H 0.07767 0.25116 0.06969 0.0
C981 C 0.06423 0.17272 1.00918 0.0
C982 C 0.07927 0.1722 0.03901 0.0
H983 H 1.04405 0.20128 0.97754 0.0
H984 H 0.05997 0.15086 0.9921 0.0
C985 C 0.08406 0.20134 0.0603 0.0
C986 C 0.23822 0.88126 0.24546 0.0
C987 C 0.24473 0.87902 0.21426 0.0
H988 H 0.25299 0.87817 0.29346 0.0
C989 C 0.27333 0.87317 0.20853 0.0
H990 H 0.21651 0.88568 0.25097 0.0
C991 C 0.29393 0.86819 0.23288 0.0
C992 C 0.2871 0.86962 0.26398 0.0
H993 H 0.27931 0.87106 0.18499 0.0
H994 H 0.31513 0.86264 0.22721 0.0
C995 C 0.25923 0.87702 0.26995 0.0
C996 C 0.53765 0.92034 0.5351 0.0
C997 C 0.55838 0.90886 0.51772 0.0
H998 H 0.52889 0.96339 0.56013 0.0
C999 C 0.58731 0.93287 0.51341 0.0
H1000 H 0.51505 0.90256 0.53858 0.0
C1001 C 0.59552 0.96728 0.52617 0.0
C1002 C 0.57468 0.97925 0.54301 0.0
H1003 H 0.60376 0.92496 0.50003 0.0
H1004 H 0.61808 0.98479 0.52221 0.0
C1005 C 0.54553 0.95525 0.54725 0.0
C1006 C 0.57184 0.31205 0.73731 0.0
C1007 C 0.56943 0.32372 0.70771 0.0
H1008 H 0.54843 0.29348 0.77648 0.0
C1009 C 0.53972 0.32303 0.69387 0.0
H1010 H 0.59438 0.31214 0.74863 0.0
C1011 C 0.51313 0.312 0.70991 0.0
C1012 C 0.51579 0.30138 0.74 0.0
H1013 H 0.53714 0.33175 0.67104 0.0
H1014 H 0.49054 0.31216 0.69891 0.0
C1015 C 0.54539 0.30104 0.75325 0.0
C1016 C 0.09598 0.95639 0.66868 0.0
C1017 C 0.10002 0.92507 0.6557 0.0
H1018 H 0.0941 1.00858 0.66317 0.0
C1019 C 0.10647 0.92642 0.62407 0.0
H1020 H 0.09083 0.95788 0.69254 0.0
C1021 C 0.10869 0.95627 0.60692 0.0
C1022 C 0.1044 0.9875 0.61971 0.0
H1023 H 0.10978 0.90389 0.61209 0.0
H1024 H 0.11348 0.95449 0.58297 0.0
C1025 C 0.09791 0.98622 0.6514 0.0
C1026 C 0.50354 0.84557 0.85996 0.0
C1027 C 0.5048 0.82254 0.88322 0.0
H1028 H 0.47565 0.86791 0.82868 0.0
C1029 C 0.47413 0.80383 0.89067 0.0
H1030 H 0.5255 0.86192 0.85343 0.0
C1031 C 0.44498 0.80722 0.87622 0.0
C1032 C 0.44353 0.83057 0.85347 0.0
H1033 H 0.4725 0.78637 0.90866 0.0
H1034 H 0.42316 0.79167 0.88371 0.0
C1035 C 0.47416 0.84945 0.84576 0.0
C1036 C 0.58436 0.20215 0.15158 0.0
C1037 C 0.57926 0.23031 0.13627 0.0
H1038 H 0.58991 0.15064 0.14842 0.0
C1039 C 0.57511 0.22374 0.10319 0.0
H1040 H 0.58913 0.20513 0.17661 0.0
C1041 C 0.57599 0.1923 0.08671 0.0
C1042 C 0.58161 0.16438 0.1017 0.0
H1043 H 0.57212 0.24399 0.08944 0.0
H1044 H 0.573 0.19038 0.0616 0.0
C1045 C 0.58533 0.17038 0.13493 0.0
C1046 C 0.22279 0.34538 0.38975 0.0
C1047 C 0.19147 0.32472 0.37749 0.0
H1048 H 0.27361 0.36296 0.38658 0.0
C1049 C 0.19202 0.30456 0.34928 0.0
H1050 H 0.22546 0.36182 0.411 0.0
C1051 C 0.22069 0.30457 0.3352 0.0
C1052 C 0.25197 0.32561 0.34719 0.0
H1053 H 0.16978 0.28786 0.33781 0.0
H1054 H 0.21805 0.28782 0.31415 0.0
C1055 C 0.25138 0.34614 0.37518 0.0
C1056 C 1.03994 0.1367 0.18206 0.0
C1057 C 1.012 0.10987 0.18356 0.0
H1058 H 0.08042 0.15525 0.15785 0.0
C1059 C 0.99869 0.08662 0.1574 0.0
H1060 H 0.05048 0.15492 0.20214 0.0
C1061 C 1.0162 0.08614 0.13241 0.0
C1062 C 1.04677 0.10928 0.13335 0.0
H1063 H 0.97713 0.06574 0.15812 0.0
H1064 H 1.00704 0.06565 0.11385 0.0
C1065 C 0.05734 0.13644 0.15698 0.0
C1066 C 0.31015 0.75253 0.53534 0.0
C1067 C 0.30628 0.71704 0.53129 0.0
H1068 H 0.30117 0.79599 0.51681 0.0
C1069 C 0.28722 0.69723 0.50524 0.0
H1070 H 0.32474 0.7686 0.55515 0.0
C1071 C 0.27307 0.71313 0.48313 0.0
C1072 C 0.27782 0.74897 0.48689 0.0
H1073 H 0.28358 0.66973 0.50178 0.0
H1074 H 0.25908 0.69761 0.46279 0.0
C1075 C 0.29616 0.76826 0.5135 0.0
C1076 C 0.63205 0.07018 0.71421 0.0
C1077 C 0.66501 0.07916 0.72013 0.0
H1078 H 0.59252 0.05786 0.67961 0.0
C1079 C 0.68259 0.07393 0.69607 0.0
H1080 H 0.6179 0.07337 0.73254 0.0
C1081 C 0.66808 0.06536 0.66571 0.0
C1082 C 0.63586 0.0615 0.65925 0.0
H1083 H 0.70798 0.08027 0.70001 0.0
H1084 H 0.68261 0.06492 0.64707 0.0
C1085 C 0.6175 0.0612 0.6839 0.0
C1086 C 0.35874 0.33882 0.96454 0.0
C1087 C 0.35648 0.37164 0.97429 0.0
H1088 H 0.35972 0.30284 0.92604 0.0
C1089 C 0.35364 0.39327 0.95077 0.0
H1090 H 0.36101 0.32128 0.98163 0.0
C1091 C 0.3526 0.38267 0.91907 0.0
C1092 C 0.35483 0.35002 0.90907 0.0
H1093 H 0.35182 0.41871 0.95679 0.0
H1094 H 0.35003 0.40041 0.90226 0.0
C1095 C 0.35814 0.32829 0.93249 0.0
C1096 C 1.00383 0.0488 0.35749 0.0
C1097 C 1.0162 0.07048 0.33486 0.0
H1098 H 1.01428 1.02316 0.39668 0.0
C1099 C 0.04899 0.08308 0.33434 0.0
H1100 H 0.97863 0.03851 0.35811 0.0
C1101 C 0.06915 0.07395 0.35579 0.0
C1102 C 0.05698 0.05215 0.37833 0.0
H1103 H 0.05919 0.09978 0.31704 0.0
H1104 H 0.09431 0.08383 0.35463 0.0
C1105 C 1.02416 0.03962 0.37911 0.0
C1106 C 0.39462 0.77844 0.69079 0.0
C1107 C 0.37489 0.74433 0.68383 0.0
H1108 H 0.40728 0.82387 0.72248 0.0
C1109 C 0.35854 0.72706 0.70713 0.0
H1110 H 0.40743 0.79221 0.67305 0.0
C1111 C 0.35771 0.74541 0.73511 0.0
C1112 C 0.37368 0.781 0.74017 0.0
H1113 H 0.34305 0.70082 0.70225 0.0
H1114 H 0.34249 0.73238 0.75159 0.0
C1115 C 0.3941 0.7967 0.71888 0.0
C1116 C 0.73022 0.17306 0.89198 0.0
C1117 C 0.72471 0.18205 0.86196 0.0
H1118 H 0.71519 0.17006 0.93721 0.0
C1119 C 0.70584 0.20346 0.85662 0.0
H1120 H 0.74478 0.15655 0.8965 0.0
C1121 C 0.68938 0.21208 0.88013 0.0
C1122 C 0.69072 0.19822 0.90885 0.0
H1123 H 0.70165 0.21099 0.83357 0.0
H1124 H 0.67289 0.22617 0.87468 0.0
C1125 C 0.71328 0.18105 0.91536 0.0
C1126 C 0.34928 0.38599 0.17161 0.0
C1127 C 0.34816 0.35867 0.14933 0.0
H1128 H 0.34654 0.40217 0.21944 0.0
C1129 C 0.34091 0.32531 0.15974 0.0
H1130 H 0.35491 0.41211 0.16498 0.0
C1131 C 0.3351 0.3195 0.19085 0.0
C1132 C 0.3372 0.34688 0.21337 0.0
H1133 H 0.33976 0.30343 0.1437 0.0
H1134 H 0.3301 0.29344 0.19755 0.0
C1135 C 0.34447 0.38029 0.20307 0.0
C1136 C 0.26282 1.01454 0.06398 0.0
C1137 C 0.29527 1.02538 0.06137 0.0
H1138 H 0.2239 1.02732 0.08114 0.0
C1139 C 0.31375 0.05804 0.0753 0.0
H1140 H 0.248 0.98954 0.05351 0.0
C1141 C 0.30004 0.07958 0.09128 0.0
C1142 C 0.26759 0.06882 0.09384 0.0
H1143 H 0.33888 0.06711 0.07378 0.0
H1144 H 0.31482 0.10464 0.10167 0.0
C1145 C 0.24912 0.03604 0.08009 0.0
C1146 C 0.74163 0.66645 0.05006 0.0
C1147 C 0.74135 0.7008 0.05561 0.0
H1148 H 0.71643 0.61253 0.05008 0.0
C1149 C 0.71476 0.70651 0.06712 0.0
H1150 H 0.76182 0.66105 0.04141 0.0
C1151 C 0.68922 0.67877 0.07294 0.0
C1152 C 0.68917 0.64436 0.06695 0.0
H1153 H 0.71382 0.73251 0.0721 0.0
H1154 H 0.66908 0.68444 0.08147 0.0
C1155 C 0.71572 0.63858 0.05532 0.0
C1156 C 0.8028 0.56614 0.3317 0.0
C1157 C 0.77271 0.54689 0.33837 0.0
H1158 H 0.84476 0.56568 0.31169 0.0
C1159 C 0.76135 0.51158 0.3284 0.0
H1160 H 0.8121 0.59352 0.33882 0.0
C1161 C 0.78021 0.49557 0.31306 0.0
C1162 C 0.81072 0.51461 0.30717 0.0
H1163 H 0.73829 0.4961 0.33325 0.0
H1164 H 0.77128 0.46798 0.30692 0.0
C1165 C 0.82157 0.5502 0.3162 0.0
C1166 C 0.97002 0.49846 0.47064 0.0
C1167 C 0.94705 0.51295 0.47994 0.0
H1168 H 1.0191 0.50325 0.47412 0.0
C1169 C 0.95658 0.54793 0.49184 0.0
H1170 H 0.96359 0.47188 0.46087 0.0
C1171 C 0.98856 0.56603 0.49912 0.0
C1172 C 1.01114 0.54935 0.49433 0.0
H1173 H 0.93948 0.56016 0.49876 0.0
H1174 H 0.9953 0.59132 0.51183 0.0
C1175 C 1.00187 0.51648 0.47805 0.0
C1176 C 0.44964 0.14409 0.29755 0.0
C1177 C 0.43844 0.11398 0.31243 0.0
H1178 H 0.43744 0.18313 0.27334 0.0
C1179 C 0.40594 0.0965 0.30924 0.0
H1180 H 0.47461 0.15768 0.29911 0.0
C1181 C 0.38474 0.11099 0.29453 0.0
C1182 C 0.39577 0.14314 0.28281 0.0
H1183 H 0.39667 0.07278 0.31992 0.0
H1184 H 0.35975 0.0986 0.29498 0.0
C1185 C 0.4284 0.15852 0.2827 0.0
C1186 C 0.39678 0.18719 0.59738 0.0
C1187 C 0.40453 0.21362 0.57748 0.0
H1188 H 0.41036 0.14785 0.61954 0.0
C1189 C 0.43449 0.22307 0.56708 0.0
H1190 H 0.37392 0.17959 0.60604 0.0
C1191 C 0.45554 0.20468 0.57489 0.0
C1192 C 0.44701 0.17697 0.59351 0.0
H1193 H 0.44103 0.2434 0.55178 0.0
H1194 H 0.47811 0.21147 0.56566 0.0
C1195 C 0.41778 0.16917 0.6054 0.0
C1196 C 0.7795 0.6906 0.38183 0.0
C1197 C 0.74984 0.69164 0.38956 0.0
H1198 H 0.81997 0.71383 0.35876 0.0
C1199 C 0.73877 0.71856 0.38007 0.0
H1200 H 0.78866 0.67002 0.3885 0.0
C1201 C 0.75665 0.74349 0.36281 0.0
C1202 C 0.78595 0.74199 0.35444 0.0
H1203 H 0.71593 0.71997 0.3853 0.0
H1204 H 0.74731 0.76382 0.35584 0.0
C1205 C 0.79729 0.71541 0.36435 0.0
C1206 C 0.89864 0.48847 0.92009 0.0
C1207 C 0.92885 0.4847 0.92611 0.0
H1208 H 0.85154 0.46371 0.89911 0.0
C1209 C 0.93119 0.45157 0.92959 0.0
H1210 H 0.89587 0.51381 0.9184 0.0
C1211 C 0.90511 0.42272 0.91995 0.0
C1212 C 0.87713 0.42712 0.90626 0.0
H1213 H 0.95393 0.44773 0.93489 0.0
H1214 H 0.90864 0.3976 0.9182 0.0
C1215 C 0.873 0.45975 0.90929 0.0
C1216 C 0.14789 0.97767 0.15564 0.0
C1217 C 0.14698 0.94754 0.13718 0.0
H1218 H 0.14051 1.02755 0.15791 0.0
C1219 C 0.13745 0.94608 0.10515 0.0
H1220 H 0.15497 0.98002 0.18035 0.0
C1221 C 0.12839 0.97321 0.09229 0.0
C1222 C 0.129 1.00321 0.11083 0.0
H1223 H 0.13614 0.92345 0.09002 0.0
H1224 H 0.12085 0.97062 0.06767 0.0
C1225 C 0.13944 1.00507 0.14269 0.0
C1226 C 0.93194 0.31723 0.94652 0.0
C1227 C 0.96295 0.3202 0.94025 0.0
H1228 H 0.88645 0.32036 0.92971 0.0
C1229 C 0.97117 0.32872 0.91044 0.0
H1230 H 0.92465 0.31086 0.96912 0.0
C1231 C 0.94941 0.33492 0.88793 0.0
C1232 C 0.91846 0.33209 0.89423 0.0
H1233 H 0.99485 0.33162 0.9047 0.0
H1234 H 0.95693 0.34204 0.86558 0.0
C1235 C 0.90997 0.32268 0.92378 0.0
C1236 C 0.62497 0.24012 0.63731 0.0
C1237 C 0.64704 0.26458 0.62244 0.0
H1238 H 0.59979 0.18674 0.6402 0.0
C1239 C 0.66106 0.25196 0.59829 0.0
H1240 H 0.61353 0.2485 0.65593 0.0
C1241 C 0.65323 0.21633 0.58928 0.0
C1242 C 0.631 0.19191 0.60399 0.0
H1243 H 0.67817 0.26967 0.58615 0.0
H1244 H 0.66453 0.20799 0.57053 0.0
C1245 C 0.61704 0.20447 0.62821 0.0
C1246 C 0.61704 0.8129 0.40395 0.0
C1247 C 0.6219 0.82943 0.43414 0.0
H1248 H 0.63669 0.80606 0.36174 0.0
C1249 C 0.65201 0.85174 0.44521 0.0
H1250 H 0.59412 0.79565 0.39464 0.0
C1251 C 0.67654 0.85788 0.42615 0.0
C1252 C 0.6715 0.84153 0.3958 0.0
H1253 H 0.65644 0.86499 0.46832 0.0
H1254 H 0.69948 0.87529 0.43518 0.0
C1255 C 0.6415 0.81879 0.38508 0.0
C1256 C 0.10556 0.20082 0.46234 0.0
C1257 C 0.09047 0.22495 0.47351 0.0
H1258 H 0.11788 0.15319 0.46774 0.0
C1259 C 0.07565 0.21502 0.50095 0.0
H1260 H 0.11761 0.20581 0.44175 0.0
C1261 C 0.07583 0.18467 0.51601 0.0
C1262 C 0.09075 0.16058 0.5053 0.0
H1263 H 0.06348 0.23126 0.51164 0.0
H1264 H 0.06403 0.18027 0.53681 0.0
C1265 C 0.10565 0.16984 0.47764 0.0
C1266 C 0.72068 0.35997 0.22394 0.0
C1267 C 0.68984 0.34303 0.23227 0.0
H1268 H 0.77158 0.37219 0.23146 0.0
C1269 C 0.69103 0.32414 0.25881 0.0
H1270 H 0.72263 0.37483 0.20402 0.0
C1271 C 0.72046 0.32222 0.27495 0.0
C1272 C 0.7512 0.33912 0.26609 0.0
H1273 H 0.66904 0.30977 0.2668 0.0
H1274 H 0.71893 0.30689 0.29454 0.0
C1275 C 0.74976 0.35834 0.24006 0.0
C1276 C 0.60051 0.9166 0.99096 0.0
C1277 C 0.60856 0.91522 0.95999 0.0
H1278 H 0.59167 0.94591 0.0307 0.0
C1279 C 0.6138 0.94717 0.94647 0.0
H1280 H 0.59611 0.89348 1.00303 0.0
C1281 C 0.61116 0.97808 0.96274 0.0
C1282 C 0.60316 0.97939 0.9938 0.0
H1283 H 0.62005 0.94845 0.92294 0.0
H1284 H 0.61549 1.00121 0.95071 0.0
C1285 C 0.59794 0.94739 1.00719 0.0
C1286 C 1.00042 0.83759 0.77186 0.0
C1287 C 1.00009 0.8223 0.74099 0.0
H1288 H 0.97554 0.85021 0.81005 0.0
C1289 C 0.9683 0.80568 0.72725 0.0
H1290 H 1.02309 0.85111 0.78459 0.0
C1291 C 0.94009 0.80388 0.7429 0.0
C1292 C 0.94042 0.81978 0.77354 0.0
H1293 H 0.96492 0.79324 0.70391 0.0
H1294 H 0.91741 0.79029 0.73021 0.0
C1295 C 0.97218 0.83706 0.787 0.0
C1296 C 0.21065 0.07738 0.9847 0.0
C1297 C 0.19556 0.05788 0.9569 0.0
H1298 H 0.20461 0.09791 0.02964 0.0
C1299 C 0.16344 0.03938 0.95489 0.0
H1300 H 0.23535 0.0922 0.98654 0.0
C1301 C 0.14583 0.04311 0.97895 0.0
C1302 C 0.16004 0.06539 1.00559 0.0
H1303 H 0.15139 1.02416 0.93358 0.0
H1304 H 0.12073 0.02989 0.97591 0.0
C1305 C 0.19293 0.08105 1.00906 0.0
C1306 C 0.90332 0.42855 0.60958 0.0
C1307 C 0.89486 0.45682 0.59911 0.0
H1308 H 0.91769 0.40492 0.64817 0.0
C1309 C 0.89661 0.48468 0.6207 0.0
H1310 H 0.90233 0.4066 0.59371 0.0
C1311 C 0.90594 0.48386 0.65215 0.0
C1312 C 0.91363 0.45515 0.66261 0.0
H1313 H 0.8905 0.50698 0.61341 0.0
H1314 H 0.90688 0.50558 0.66831 0.0
C1315 C 0.91251 0.42771 0.64089 0.0
C1316 C 0.57225 0.12467 0.43996 0.0
C1317 C 0.54147 0.12696 0.43689 0.0
H1318 H 0.60913 0.1166 0.46997 0.0
C1319 C 0.52648 0.1296 0.46359 0.0
H1320 H 0.58463 0.12328 0.41977 0.0
C1321 C 0.54068 0.12594 0.49251 0.0
C1322 C 0.5698 0.11926 0.49494 0.0
H1323 H 0.50286 0.13174 0.46191 0.0
H1324 H 0.52789 0.1261 0.51246 0.0
C1325 C 0.58622 0.1206 0.46871 0.0
C1326 C 0.85433 0.7845 0.16945 0.0
C1327 C 0.83338 0.79602 0.14995 0.0
H1328 H 0.87239 0.78006 0.21609 0.0
C1329 C 0.81365 0.81193 0.1648 0.0
H1330 H 0.86991 0.77205 0.15935 0.0
C1331 C 0.81468 0.816 0.19754 0.0
C1332 C 0.83582 0.80484 0.21706 0.0
H1333 H 0.79697 0.82106 0.15104 0.0
H1334 H 0.79902 0.8284 0.20757 0.0
C1335 C 0.85572 0.78911 0.20227 0.0
C1336 C 0.15837 0.14492 0.81137 0.0
C1337 C 0.17635 0.12205 0.81323 0.0
H1338 H 0.13119 0.16794 0.78203 0.0
C1339 C 0.18316 0.10689 0.78594 0.0
H1340 H 0.15342 0.15756 0.83217 0.0
C1341 C 0.17004 0.11251 0.75718 0.0
C1342 C 0.15034 0.13371 0.75544 0.0
H1343 H 0.19703 0.08923 0.7869 0.0
H1344 H 0.17397 0.09881 0.7365 0.0
C1345 C 0.1456 0.15082 0.78273 0.0
C1346 C 0.82235 0.39792 0.44324 0.0
C1347 C 0.82737 0.43352 0.44251 0.0
H1348 H 0.81968 0.35026 0.41821 0.0
C1349 C 0.83093 0.44794 0.41403 0.0
H1350 H 0.81931 0.38604 0.46486 0.0
C1351 C 0.83136 0.42733 0.3871 0.0
C1352 C 0.82808 0.39198 0.38827 0.0
H1353 H 0.83493 0.47533 0.41285 0.0
H1354 H 0.83539 0.43936 0.36566 0.0
C1355 C 0.82262 0.37738 0.41647 0.0
C1356 C 0.54297 1.00975 0.29002 0.0
C1357 C 0.51967 1.02525 0.29582 0.0
H1358 H 0.56721 0.99156 0.25598 0.0
C1359 C 0.4986 1.02812 0.27101 0.0
H1360 H 0.55914 1.00653 0.30874 0.0
C1361 C 0.50301 1.01909 0.2406 0.0
C1362 C 0.52845 1.00701 0.23471 0.0
H1363 H 0.48009 0.03949 0.27484 0.0
H1364 H 0.48776 1.02353 0.22167 0.0
C1365 C 0.54734 1.00074 0.25973 0.0
C1366 C 0.8555 0.8136 0.96462 0.0
C1367 C 0.8449 0.7789 0.9718 0.0
H1368 H 0.86783 0.84907 0.92928 0.0
C1369 C 0.83888 0.75337 0.94653 0.0
H1370 H 0.8607 0.83426 0.98306 0.0
C1371 C 0.8428 0.76182 0.91568 0.0
C1372 C 0.85357 0.79635 0.9083 0.0
H1373 H 0.83079 0.72634 0.95053 0.0
H1374 H 0.83726 0.74092 0.89741 0.0
C1375 C 0.85995 0.82213 0.93356 0.0
C1376 C 0.93415 0.1276 0.10494 0.0
C1377 C 0.90188 0.1147 0.10806 0.0
H1378 H 0.97427 0.1172 0.08825 0.0
C1379 C 0.88653 0.07907 0.1017 0.0
H1380 H 0.94667 0.15485 0.10997 0.0
C1381 C 0.90241 0.05746 0.08905 0.0
C1382 C 0.93366 0.07139 0.08268 0.0
H1383 H 0.86163 0.06844 0.10385 0.0
H1384 H 0.88966 0.03058 0.08214 0.0
C1385 C 0.94986 0.10615 0.09226 0.0
C1386 C 0.47717 0.44306 0.03458 0.0
C1387 C 0.45297 0.4484 0.05098 0.0
H1388 H 0.52255 0.46529 0.01921 0.0
C1389 C 0.45603 0.48227 0.06306 0.0
H1390 H 0.47552 0.4175 0.0246 0.0
C1391 C 0.48286 0.50975 0.05977 0.0
C1392 C 0.50743 0.50436 0.04403 0.0
H1393 H 0.43782 0.48762 0.07556 0.0
H1394 H 0.48464 0.53515 0.07025 0.0
C1395 C 0.50399 0.47068 0.03109 0.0
C1396 C 0.39107 0.60166 0.7847 0.0
C1397 C 0.4236 0.61418 0.79431 0.0
H1398 H 0.34605 0.61012 0.78642 0.0
C1399 C 0.43544 0.64429 0.81469 0.0
H1400 H 0.38126 0.57825 0.76926 0.0
C1401 C 0.41537 0.66203 0.82468 0.0
C1402 C 0.38303 0.65009 0.81453 0.0
H1403 H 0.46029 0.65438 0.82283 0.0
H1404 H 0.42525 0.68562 0.83992 0.0
C1405 C 0.37087 0.6195 0.79482 0.0
C1406 C 0.23387 0.61723 0.59858 0.0
C1407 C 0.23833 0.65167 0.6098 0.0
H1408 H 0.20065 0.56835 0.58173 0.0
C1409 C 0.2122 0.66151 0.61757 0.0
H1410 H 0.25347 0.60878 0.59224 0.0
C1411 C 0.18195 0.6378 0.61239 0.0
C1412 C 0.17755 0.60432 0.59876 0.0
H1413 H 0.21497 0.68783 0.62632 0.0
H1414 H 0.16189 0.64642 0.61669 0.0
C1415 C 0.2037 0.59394 0.59266 0.0
C1416 C 0.80583 0.06698 0.79937 0.0
C1417 C 0.77604 0.06264 0.80961 0.0
H1418 H 0.84583 0.04877 0.79884 0.0
C1419 C 0.76373 0.03567 0.82793 0.0
H1420 H 0.81604 0.08759 0.78528 0.0
C1421 C 0.781 1.01336 0.83576 0.0
C1422 C 0.81092 1.01805 0.82568 0.0
H1423 H 0.74091 0.03187 0.83624 0.0
H1424 H 0.77111 0.99262 0.84983 0.0
C1425 C 0.82312 0.04502 0.80742 0.0
C1426 C 0.80098 0.9796 0.59073 0.0
C1427 C 0.79378 0.94845 0.5718 0.0
H1428 H 0.78921 1.02577 0.60145 0.0
C1429 C 0.76655 0.9385 0.55052 0.0
H1430 H 0.82185 0.98792 0.60734 0.0
C1431 C 0.74794 0.96044 0.54691 0.0
C1432 C 0.75609 0.99241 0.56484 0.0
H1433 H 0.76058 0.91472 0.5355 0.0
H1434 H 0.72762 0.95278 0.52964 0.0
C1435 C 0.78226 1.00127 0.58739 0.0
C1436 C 0.46446 0.43444 0.7829 0.0
C1437 C 0.45611 0.45797 0.76438 0.0
H1438 H 0.44835 0.39006 0.80768 0.0
C1439 C 0.42418 0.45241 0.75414 0.0
H1440 H 0.48881 0.43811 0.79134 0.0
C1441 C 0.40092 0.42517 0.76387 0.0
C1442 C 0.40916 0.40294 0.78399 0.0
H1443 H 0.41699 0.47005 0.73974 0.0
H1444 H 0.37649 0.42215 0.75627 0.0
C1445 C 0.44118 0.40718 0.79264 0.0
C1446 C 0.29256 0.678 0.30068 0.0
C1447 C 0.2616 0.66595 0.30884 0.0
H1448 H 0.3335 0.72112 0.29937 0.0
C1449 C 0.24837 0.6894 0.32288 0.0
H1450 H 0.30368 0.66053 0.29017 0.0
C1451 C 0.26558 0.72438 0.32796 0.0
C1452 C 0.29646 0.73634 0.31954 0.0
H1453 H 0.22468 0.68085 0.32952 0.0
H1454 H 0.25461 0.742 0.33842 0.0
C1455 C 0.30982 0.71275 0.30609 0.0
C1456 C 0.53535 0.70023 0.53899 0.0
C1457 C 0.5547 0.72732 0.52427 0.0
H1458 H 0.52948 0.65172 0.55835 0.0
C1459 C 0.58462 0.72503 0.51834 0.0
H1460 H 0.51225 0.70085 0.54411 0.0
C1461 C 0.59506 0.69716 0.52755 0.0
C1462 C 0.57554 0.66998 0.54209 0.0
H1463 H 0.60042 0.74537 0.50736 0.0
H1464 H 0.61837 0.69676 0.52302 0.0
C1465 C 0.54533 0.67189 0.54722 0.0
C1466 C 0.73354 0.37348 0.74441 0.0
C1467 C 0.74271 0.38565 0.71588 0.0
H1468 H 0.74772 0.36181 0.78985 0.0
C1469 C 0.77522 0.39799 0.71305 0.0
H1470 H 0.70884 0.36366 0.74769 0.0
C1471 C 0.7977 0.39728 0.73759 0.0
C1472 C 0.78844 0.38389 0.7657 0.0
H1473 H 0.78337 0.40757 0.69159 0.0
H1474 H 0.82239 0.40617 0.73403 0.0
C1475 C 0.75597 0.37244 0.76879 0.0
C1476 C 0.09069 0.43756 1.0053 0.0
C1477 C 0.06467 0.41138 1.01308 0.0
H1478 H 0.11801 0.49093 1.01143 0.0
C1479 C 1.04544 0.42065 0.03395 0.0
H1480 H 0.10602 0.43148 0.98933 0.0
C1481 C 0.05184 0.45543 0.04608 0.0
C1482 C 0.07819 0.4815 0.0384 0.0
H1483 H 1.02507 0.4012 0.04024 0.0
H1484 H 1.03642 0.46183 0.06175 0.0
C1485 C 0.09759 0.4718 0.01806 0.0
C1486 C 1.04404 0.83489 0.19749 0.0
C1487 C 0.07194 0.82764 0.20712 0.0
H1488 H 0.99753 0.8329 0.20766 0.0
C1489 C 0.07303 0.80951 0.23342 0.0
H1490 H 1.04262 0.84897 0.17738 0.0
C1491 C 1.04726 0.79993 0.25048 0.0
C1492 C 1.0198 0.8086 0.24194 0.0
H1493 H 0.0941 0.80316 0.2412 0.0
H1494 H 0.04907 0.78605 0.27064 0.0
C1495 C 1.01823 0.8256 0.21484 0.0
C1496 C 0.60069 0.42292 0.11938 0.0
C1497 C 0.59726 0.42274 0.15177 0.0
H1498 H 0.60516 0.44999 0.0776 0.0
C1499 C 0.59626 0.45519 0.16546 0.0
H1500 H 0.60156 0.39949 0.10684 0.0
C1501 C 0.59838 0.48506 0.14818 0.0
C1502 C 0.60173 0.48512 0.11571 0.0
H1503 H 0.59356 0.45763 0.18994 0.0
H1504 H 0.59714 0.50839 0.16059 0.0
C1505 C 0.60283 0.4527 0.10216 0.0
C1506 C 0.9703 0.29674 0.38617 0.0
C1507 C 1.00062 0.3201 0.38259 0.0
H1508 H 0.9192 0.27996 0.37614 0.0
C1509 C 0.99826 0.34683 0.36355 0.0
H1510 H 0.96929 0.27626 0.40112 0.0
C1511 C 0.96839 0.34966 0.34948 0.0
C1512 C 0.9381 0.32603 0.35309 0.0
H1513 H 1.01967 0.36683 0.36042 0.0
H1514 H 0.96918 0.37116 0.33586 0.0
C1515 C 0.94064 0.29916 0.37174 0.0
C1516 C 0.09696 0.731 0.60793 0.0
C1517 C 0.0859 0.73428 0.63766 0.0
H1518 H 0.10626 0.70007 0.56989 0.0
C1519 C 0.0736 0.70172 0.64979 0.0
H1520 H 0.10663 0.75392 0.59631 0.0
C1521 C 0.0731 0.66908 0.6334 0.0
C1522 C 0.08514 0.6667 0.60394 0.0
H1523 H 0.06493 0.70128 0.67233 0.0
H1524 H 0.06375 0.64559 0.64434 0.0
C1525 C 0.09681 0.69908 0.59206 0.0
C1526 C 0.72549 0.84353 0.88903 0.0
C1527 C 0.69422 0.82267 0.87705 0.0
H1528 H 0.77624 0.86059 0.8859 0.0
C1529 C 0.69466 0.80135 0.84952 0.0
H1530 H 0.72818 0.86078 0.90976 0.0
C1531 C 0.7233 0.80054 0.83581 0.0
C1532 C 0.75453 0.82181 0.84757 0.0
H1533 H 0.67237 0.78441 0.83836 0.0
H1534 H 0.72068 0.78301 0.81529 0.0
C1535 C 0.754 0.84347 0.87482 0.0
C1536 C 0.55617 0.63151 0.69853 0.0
C1537 C 0.52631 0.60809 0.70037 0.0
H1538 H 0.59427 0.64819 0.67093 0.0
C1539 C 0.50849 0.5897 0.67318 0.0
H1540 H 0.57029 0.64585 0.71935 0.0
C1541 C 0.52252 0.59015 0.64565 0.0
C1542 C 0.55421 0.60957 0.64507 0.0
H1543 H 0.48546 0.57133 0.67413 0.0
H1544 H 0.50949 0.57304 0.62569 0.0
C1545 C 0.57003 0.63241 0.67091 0.0
C1546 C 0.84034 0.23135 1.01716 0.0
C1547 C 0.83883 0.19676 0.0196 0.0
H1548 H 0.82836 0.26786 0.98936 0.0
C1549 C 0.8243 0.17206 0.9945 0.0
H1550 H 0.8516 0.25105 0.03598 0.0
C1551 C 0.81105 0.18184 0.96761 0.0
C1552 C 0.81183 0.21631 0.96574 0.0
H1553 H 0.82276 0.14519 0.99581 0.0
H1554 H 0.79979 0.16248 0.94853 0.0
C1555 C 0.82681 0.24097 0.9906 0.0
C1556 C 0.19136 0.55703 0.17888 0.0
C1557 C 0.17464 0.54811 0.20459 0.0
H1558 H 0.18967 0.57009 0.13213 0.0
C1559 C 0.14172 0.54128 0.20112 0.0
H1560 H 0.21666 0.56224 0.18063 0.0
C1561 C 0.12622 0.54581 0.1732 0.0
C1562 C 0.14341 0.55744 0.14838 0.0
H1563 H 0.12805 0.53397 0.22039 0.0
H1564 H 0.10109 0.54188 0.17166 0.0
C1565 C 0.1759 0.5618 0.15111 0.0
C1566 C 0.85315 0.89531 0.45618 0.0
C1567 C 0.85784 0.87366 0.47904 0.0
H1568 H 0.84812 0.90336 0.40794 0.0
C1569 C 0.86198 0.842 0.46852 0.0
H1570 H 0.84984 0.9199 0.46287 0.0
C1571 C 0.86143 0.83256 0.43631 0.0
C1572 C 0.85629 0.85426 0.41355 0.0
H1573 H 0.86573 0.82455 0.48514 0.0
H1574 H 0.86452 0.80797 0.42922 0.0
C1575 C 0.85215 0.88575 0.42429 0.0
C1576 C 0.54803 0.53882 0.84351 0.0
C1577 C 0.51508 0.52817 0.83904 0.0
H1578 H 0.58917 0.53298 0.86714 0.0
C1579 C 0.49804 0.49957 0.85338 0.0
H1580 H 0.56178 0.56067 0.83256 0.0
C1581 C 0.51394 0.48269 0.87287 0.0
C1582 C 0.54707 0.4944 0.87843 0.0
H1583 H 0.47256 0.49034 0.8496 0.0
H1584 H 0.50032 0.46119 0.88426 0.0
C1585 C 0.56379 0.5223 0.86296 0.0
C1586 C 0.8899 0.27733 0.18976 0.0
C1587 C 0.87138 0.24296 0.18163 0.0
H1588 H 0.90099 0.32152 0.22256 0.0
C1589 C 0.85317 0.22484 0.20346 0.0
H1590 H 0.90426 0.29178 0.17332 0.0
C1591 C 0.85082 0.24208 0.23163 0.0
C1592 C 0.86685 0.27755 0.23833 0.0
H1593 H 0.83855 0.19837 0.19766 0.0
H1594 H 0.83498 0.22814 0.24722 0.0
C1595 C 0.88778 0.29443 0.21789 0.0
C1596 C 0.26408 0.59511 0.3732 0.0
C1597 C 0.24719 0.56276 0.35764 0.0
H1598 H 0.26555 0.6332 0.41026 0.0
C1599 C 0.22126 0.54168 0.37034 0.0
H1600 H 0.28383 0.61208 0.36348 0.0
C1601 C 0.21103 0.55353 0.39706 0.0
C1602 C 0.2262 0.58701 0.41126 0.0
H1603 H 0.20771 0.51682 0.35851 0.0
H1604 H 0.18981 0.5374 0.40522 0.0
C1605 C 0.25342 0.60734 0.39968 0.0
C1606 C 0.85752 0.82604 0.66563 0.0
C1607 C 0.85514 0.85672 0.65393 0.0
H1608 H 0.85519 0.79526 0.70399 0.0
C1609 C 0.8477 0.88047 0.6749 0.0
H1610 H 0.86314 0.80688 0.65076 0.0
C1611 C 0.84338 0.87388 0.70634 0.0
C1612 C 0.84575 0.84298 0.71782 0.0
H1613 H 0.84573 0.90453 0.66717 0.0
H1614 H 0.83822 0.89302 0.72163 0.0
C1615 C 0.85276 0.81927 0.69659 0.0
C1616 C 0.81453 0.57473 0.54999 0.0
C1617 C 0.81303 0.54152 0.5578 0.0
H1618 H 0.79843 0.61843 0.5576 0.0
C1619 C 0.79643 0.52829 0.58248 0.0
H1620 H 0.8273 0.58543 0.53099 0.0
C1621 C 0.78111 0.54782 0.59887 0.0
C1622 C 0.78103 0.58052 0.59013 0.0
H1623 H 0.79558 0.50296 0.58931 0.0
H1624 H 0.76896 0.53695 0.61812 0.0
C1625 C 0.79831 0.59383 0.56563 0.0
C1626 C 0.21333 0.20629 0.56801 0.0
C1627 C 0.23891 0.2 0.55486 0.0
H1628 H 0.1691 0.18514 0.5855 0.0
C1629 C 0.23892 0.1655 0.54971 0.0
H1630 H 0.21268 0.23243 0.57282 0.0
C1631 C 0.21371 0.13805 0.55699 0.0
C1632 C 0.18811 0.14443 0.57015 0.0
H1633 H 0.25839 0.15966 0.53988 0.0
H1634 H 0.21411 0.11186 0.55196 0.0
C1635 C 0.18848 0.179 0.57574 0.0
C1636 C 0.30537 0.06734 0.82962 0.0
C1637 C 0.27587 0.04754 0.83726 0.0
H1638 H 0.34684 0.06771 0.80826 0.0
C1639 C 0.26489 1.01218 0.82744 0.0
H1640 H 0.31435 0.09477 0.83662 0.0
C1641 C 0.2836 0.99665 0.81136 0.0
C1642 C 0.31362 1.01621 0.8046 0.0
H1643 H 0.24226 0.99627 0.83299 0.0
H1644 H 0.27504 0.96902 0.8054 0.0
C1645 C 0.32403 0.05186 0.81342 0.0
C1646 C 0.44361 1.00368 0.04141 0.0
C1647 C 0.43336 0.98132 1.01397 0.0
H1648 H 0.48246 0.03982 0.06975 0.0
C1649 C 0.45526 0.97852 0.99358 0.0
H1650 H 0.42717 1.00597 0.05775 0.0
C1651 C 0.48682 0.99854 1.00019 0.0
C1652 C 0.49699 1.02085 0.0277 0.0
H1653 H 0.44791 0.96142 0.97238 0.0
H1654 H 0.50336 0.99625 0.98398 0.0
C1655 C 0.4752 1.02293 0.04841 0.0
C1656 C 0.93129 0.62466 0.7896 0.0
C1657 C 0.91842 0.60318 0.81222 0.0
H1658 H 0.92249 0.65423 0.75283 0.0
C1659 C 0.88572 0.59272 0.8132 0.0
H1660 H 0.95638 0.63236 0.7878 0.0
C1661 C 0.86646 0.60538 0.79377 0.0
C1662 C 0.87913 0.62876 0.77227 0.0
H1663 H 0.87487 0.57578 0.83007 0.0
H1664 H 0.84187 0.59843 0.79756 0.0
C1665 C 0.91175 0.63708 0.76955 0.0
C1666 C 0.93597 0.72071 0.06859 0.0
C1667 C 0.90807 0.71537 0.0827 0.0
H1668 H 0.97653 0.70416 0.06304 0.0
C1669 C 0.90175 0.69195 0.10541 0.0
H1670 H 0.94123 0.73851 0.05088 0.0
C1671 C 0.92199 0.67278 0.11274 0.0
C1672 C 0.94881 0.67605 0.09713 0.0
H1673 H 0.88056 0.6877 0.11696 0.0
H1674 H 0.91608 0.65464 0.1301 0.0
C1675 C 0.95613 0.70102 0.07562 0.0
C1676 C 0.23739 0.21518 0.8784 0.0
C1677 C 0.2495 0.18903 0.88815 0.0
H1678 H 0.24423 0.25953 0.85286 0.0
C1679 C 0.27875 0.1881 0.87924 0.0
H1680 H 0.21479 0.21642 0.88458 0.0
C1681 C 0.29513 0.21214 0.86038 0.0
C1682 C 0.28292 0.23805 0.85036 0.0
H1683 H 0.28874 0.16821 0.88612 0.0
H1684 H 0.31758 0.2106 0.85401 0.0
C1685 C 0.25407 0.2396 0.85988 0.0
C1686 C 0.4631 0.96386 0.3613 0.0
C1687 C 0.4611 0.98738 0.38545 0.0
H1688 H 0.43841 0.92003 0.32954 0.0
C1689 C 0.43195 0.98397 0.39677 0.0
H1690 H 0.48513 0.96651 0.35161 0.0
C1691 C 0.40521 0.95732 0.3842 0.0
C1692 C 0.40705 0.93443 0.35944 0.0
H1693 H 0.42979 1.00226 0.41499 0.0
H1694 H 0.38304 0.95486 0.39356 0.0
C1695 C 0.43622 0.93784 0.34817 0.0
C1696 C 0.64604 0.47616 0.65651 0.0
C1697 C 0.64357 0.44552 0.63803 0.0
H1698 H 0.64024 0.5268 0.65901 0.0
C1699 C 0.63275 0.44375 0.60631 0.0
H1700 H 0.65411 0.47869 0.68101 0.0
C1701 C 0.62393 0.47116 0.59378 0.0
C1702 C 0.62621 0.50173 0.61232 0.0
H1703 H 0.63019 0.42068 0.59124 0.0
H1704 H 0.61533 0.46836 0.5694 0.0
C1705 C 0.63793 0.50387 0.64383 0.0
C1706 C 0.42404 0.81325 0.45567 0.0
C1707 C 0.45291 0.80986 0.44728 0.0
H1708 H 0.37906 0.81961 0.44051 0.0
C1709 C 0.45696 0.80851 0.41549 0.0
H1710 H 0.41986 0.81443 0.47985 0.0
C1711 C 0.43372 0.81173 0.39308 0.0
C1712 C 0.40526 0.81616 0.40139 0.0
H1713 H 0.47863 0.80597 0.40783 0.0
H1714 H 0.43845 0.81134 0.36903 0.0
C1715 C 0.4005 0.81616 0.43305 0.0
C1716 C 0.16049 0.75402 0.09455 0.0
C1717 C 0.14733 0.7661 0.11968 0.0
H1718 H 0.16319 0.71068 0.06542 0.0
C1719 C 0.12581 0.74129 0.13475 0.0
H1720 H 0.17714 0.77201 0.0822 0.0
C1721 C 0.11774 0.70576 0.12498 0.0
C1722 C 0.13094 0.69376 0.09983 0.0
H1723 H 0.11504 0.74928 0.15409 0.0
H1724 H 0.10099 0.68769 0.13717 0.0
C1725 C 0.15247 0.71858 0.08484 0.0
C1726 C 0.1232 0.30927 0.90269 0.0
C1727 C 0.12809 0.32724 0.93224 0.0
H1728 H 0.14227 0.3017 0.8604 0.0
C1729 C 0.1578 0.35085 0.94248 0.0
H1730 H 0.10052 0.29097 0.89413 0.0
C1731 C 0.18187 0.35718 0.92292 0.0
C1732 C 0.17661 0.33967 0.89305 0.0
H1733 H 0.1621 0.36525 0.96508 0.0
H1734 H 0.20449 0.3758 0.93107 0.0
C1735 C 0.14715 0.31537 0.88337 0.0
C1736 C 0.60955 0.70237 0.96243 0.0
C1737 C 0.59304 0.72543 0.97271 0.0
H1738 H 0.62292 0.6555 0.96838 0.0
C1739 C 0.5766 0.71433 0.999 0.0
H1740 H 0.62294 0.70838 0.9428 0.0
C1741 C 0.57661 0.68379 1.01384 0.0
C1742 C 0.59301 0.6608 1.00401 0.0
H1743 H 0.56325 0.72975 1.00888 0.0
H1744 H 0.56348 0.67835 0.03372 0.0
C1745 C 0.60951 0.67128 0.97752 0.0
C1746 C 0.22459 0.86518 0.72816 0.0
C1747 C 0.1938 0.84601 0.73513 0.0
H1748 H 0.27557 0.87894 0.7364 0.0
C1749 C 0.19508 0.82459 0.75975 0.0
H1750 H 0.22641 0.882 0.70964 0.0
C1751 C 0.2246 0.82242 0.7754 0.0
C1752 C 0.25531 0.84157 0.76792 0.0
H1753 H 0.17315 0.80839 0.76648 0.0
H1754 H 0.22318 0.80509 0.79346 0.0
C1755 C 0.25377 0.86331 0.74384 0.0
C1756 C 0.11193 0.44667 0.45039 0.0
C1757 C 0.1059 0.41425 0.46312 0.0
H1758 H 0.11509 0.50103 0.45594 0.0
C1759 C 0.09802 0.41512 0.49422 0.0
H1760 H 0.11815 0.4484 0.42687 0.0
C1761 C 0.0963 0.44592 0.51127 0.0
C1762 C 0.10227 0.47836 0.49859 0.0
H1763 H 0.09309 0.39162 0.50574 0.0
H1764 H 0.09009 0.4441 0.53479 0.0
C1765 C 0.11015 0.47751 0.46745 0.0
C1766 C 0.49623 0.3372 0.26817 0.0
C1767 C 0.49607 0.323 0.23692 0.0
H1768 H 0.47125 0.34967 0.30636 0.0
C1769 C 0.4643 0.30848 0.22234 0.0
H1770 H 0.51885 0.34915 0.28158 0.0
C1771 C 0.43596 0.30757 0.23752 0.0
C1772 C 0.43615 0.32238 0.26856 0.0
H1773 H 0.461 0.29702 0.19865 0.0
H1774 H 0.41333 0.29553 0.22414 0.0
C1775 C 0.46794 0.33755 0.28291 0.0
C1776 C 0.7025 0.57091 0.48273 0.0
C1777 C 0.68642 0.55868 0.45316 0.0
H1778 H 0.69838 0.5846 0.53029 0.0
C1779 C 0.65337 0.54618 0.44968 0.0
H1780 H 0.72797 0.5809 0.48591 0.0
C1781 C 0.63648 0.54869 0.47468 0.0
C1782 C 0.65232 0.56366 0.50375 0.0
H1783 H 0.64046 0.53638 0.42707 0.0
H1784 H 0.611 0.54029 0.47082 0.0
C1785 C 0.6855 0.57335 0.50797 0.0
C1786 C 0.36306 0.93192 0.12014 0.0
C1787 C 0.34432 0.90677 0.09711 0.0
H1788 H 0.39027 0.94178 0.16456 0.0
C1789 C 0.33534 0.87195 0.10307 0.0
H1790 H 0.37058 0.95893 0.11597 0.0
C1791 C 0.34658 0.86217 0.13073 0.0
C1792 C 0.3672 0.887 0.15286 0.0
H1793 H 0.32068 0.85208 0.08577 0.0
H1794 H 0.33964 0.83505 0.1345 0.0
C1795 C 0.37454 0.92208 0.1478 0.0
C1796 C 0.05354 0.60993 0.93519 0.0
C1797 C 1.02239 0.61059 0.9357 0.0
H1798 H 0.09552 0.60837 0.96141 0.0
C1799 C 1.01118 0.61553 0.96427 0.0
H1800 H 0.06287 0.60654 0.9134 0.0
C1801 C 1.02999 0.61654 0.99195 0.0
C1802 C 0.06013 0.61255 0.99128 0.0
H1803 H 0.98722 0.61605 0.96525 0.0
H1804 H 1.02012 0.6182 1.01371 0.0
C1805 C 0.07222 0.61084 0.96269 0.0
C1806 C 0.31124 0.30759 0.66102 0.0
C1807 C 0.33129 0.29269 0.64559 0.0
H1808 H 0.29649 0.32246 0.70424 0.0
C1809 C 0.35283 0.28139 0.66455 0.0
H1810 H 0.29412 0.31649 0.64769 0.0
C1811 C 0.35446 0.28527 0.69745 0.0
C1812 C 0.33415 0.2999 0.71279 0.0
H1813 H 0.3687 0.26972 0.65396 0.0
H1814 H 0.37162 0.27654 0.7109 0.0
C1815 C 0.31247 0.31085 0.69378 0.0
C1816 C 0.68545 0.61139 0.28316 0.0
C1817 C 0.67922 0.6279 0.31003 0.0
H1818 H 0.67619 0.60212 0.23378 0.0
C1819 C 0.66301 0.65239 0.30742 0.0
H1820 H 0.69796 0.59245 0.28472 0.0
C1821 C 0.65093 0.65827 0.27847 0.0
C1822 C 0.65465 0.63956 0.25165 0.0
H1823 H 0.65856 0.66602 0.32791 0.0
H1824 H 0.63752 0.67638 0.27718 0.0
C1825 C 0.67306 0.61704 0.25409 0.0
C1826 C 0.33812 0.94827 0.9183 0.0
C1827 C 0.31905 0.931 0.9399 0.0
H1828 H 0.35841 0.94346 0.87592 0.0
C1829 C 0.30282 0.89567 0.93343 0.0
H1830 H 0.3511 0.97544 0.92293 0.0
C1831 C 0.30709 0.87732 0.90689 0.0
C1832 C 0.32787 0.89385 0.88624 0.0
H1833 H 0.28787 0.88176 0.94972 0.0
H1834 H 0.295 0.84986 0.90331 0.0
C1835 C 0.34256 0.9298 0.89163 0.0
C1836 C 1.01379 0.49535 0.78906 0.0
C1837 C 0.99157 0.51188 0.7964 0.0
H1838 H 1.03936 0.48104 0.75385 0.0
C1839 C 0.97512 0.52318 0.77239 0.0
H1840 H 1.02668 0.48618 0.80705 0.0
C1841 C 0.98257 0.52046 0.74202 0.0
C1842 C 1.00631 0.50606 0.73509 0.0
H1843 H 0.95776 0.53591 0.77725 0.0
H1844 H 0.9703 0.53039 0.72408 0.0
C1845 C 1.02104 0.49238 0.75863 0.0
C1846 C 0.34807 0.31265 0.45975 0.0
C1847 C 0.34105 0.27792 0.46659 0.0
H1848 H 0.35739 0.34915 0.42516 0.0
C1849 C 0.33846 0.2533 0.44116 0.0
H1850 H 0.35048 0.33266 0.47823 0.0
C1851 C 0.34241 0.26274 0.41047 0.0
C1852 C 0.34956 0.29743 0.40355 0.0
H1853 H 0.33315 0.22626 0.4449 0.0
H1854 H 0.33968 0.24258 0.39204 0.0
C1855 C 0.35232 0.32217 0.42901 0.0
C1856 C 0.38399 0.59447 0.59244 0.0
C1857 C 0.39298 0.62937 0.58652 0.0
H1858 H 0.39287 0.54585 0.58631 0.0
C1859 C 0.41957 0.64245 0.57082 0.0
H1860 H 0.36353 0.58361 0.60442 0.0
C1861 C 0.43624 0.62077 0.56035 0.0
C1862 C 0.42666 0.5856 0.5654 0.0
H1863 H 0.42708 0.66923 0.56594 0.0
H1864 H 0.45668 0.63155 0.5483 0.0
C1865 C 0.40071 0.5728 0.58202 0.0
C1866 C 0.95691 0.98364 0.56685 0.0
C1867 C 0.95412 0.94995 0.55448 0.0
H1868 H 0.98521 0.03666 0.5742 0.0
C1869 C 0.97816 0.94499 0.53768 0.0
H1870 H 0.93872 0.98861 0.57963 0.0
C1871 C 1.00468 0.97277 0.53415 0.0
C1872 C 1.00798 1.00626 0.54744 0.0
H1873 H 0.97664 0.91958 0.52742 0.0
H1874 H 1.02307 0.96766 0.52178 0.0
C1875 C 0.98349 1.01138 0.56347 0.0
C1876 C 0.91994 0.15859 0.29243 0.0
C1877 C 0.90996 0.12661 0.2746 0.0
H1878 H 0.90637 0.19665 0.31893 0.0
C1879 C 0.87754 0.10926 0.26809 0.0
H1880 H 0.94474 0.17259 0.29777 0.0
C1881 C 0.85555 0.12291 0.2805 0.0
C1882 C 0.8657 0.15395 0.29975 0.0
H1883 H 0.86918 0.08451 0.25441 0.0
H1884 H 0.83073 0.10866 0.27592 0.0
C1885 C 0.89801 0.1721 0.30493 0.0
C1886 C 0.74019 0.12474 0.08801 0.0
C1887 C 0.75169 0.1587 0.07966 0.0
H1888 H 0.7 0.0799 0.08777 0.0
C1889 C 0.73058 0.17356 0.06473 0.0
H1890 H 0.75587 0.11251 0.09952 0.0
C1891 C 0.69892 0.15492 0.0579 0.0
C1892 C 0.68737 0.12089 0.06586 0.0
H1893 H 0.73849 0.19957 0.05788 0.0
H1894 H 0.6835 0.16741 0.04634 0.0
C1895 C 0.70824 0.10602 0.08125 0.0
C1896 C 0.34228 0.55204 0.24114 0.0
C1897 C 0.31195 0.52807 0.23906 0.0
H1898 H 0.39173 0.56012 0.25193 0.0
C1899 C 0.30868 0.49275 0.23615 0.0
H1900 H 0.34552 0.57951 0.24308 0.0
C1901 C 0.33527 0.48172 0.24016 0.0
C1902 C 0.36528 0.50593 0.24798 0.0
H1903 H 0.28557 0.47377 0.23412 0.0
H1904 H 0.33178 0.45444 0.24162 0.0
C1905 C 0.36886 0.54103 0.246 0.0
C1906 C 0.26568 0.44286 0.04351 0.0
C1907 C 0.29415 0.45364 0.06307 0.0
H1908 H 0.22602 0.45659 0.02362 0.0
C1909 C 0.30335 0.48656 0.07939 0.0
H1910 H 0.25808 0.41771 0.0305 0.0
C1911 C 0.28529 0.50882 0.07529 0.0
C1912 C 0.25751 0.49881 0.05471 0.0
H1913 H 0.32518 0.49568 0.09463 0.0
H1914 H 0.29383 0.53446 0.08736 0.0
C1915 C 0.24757 0.4653 0.03928 0.0
C1916 C 0.9187 0.96382 0.26049 0.0
C1917 C 0.95092 0.9726 0.2711 0.0
H1918 H 0.87249 0.92912 0.2615 0.0
C1919 C 0.96132 0.95079 0.29021 0.0
H1920 H 0.90983 0.97999 0.24569 0.0
C1921 C 0.93973 0.92153 0.29943 0.0
C1922 C 0.90735 0.91362 0.2898 0.0
H1923 H 0.98594 0.95694 0.29895 0.0
H1924 H 0.9484 0.90557 0.31464 0.0
C1925 C 0.89718 0.93473 0.26976 0.0
C1926 C 0.80357 0.22444 0.75788 0.0
C1927 C 0.77322 0.22828 0.7564 0.0
H1928 H 0.85297 0.24999 0.76815 0.0
C1929 C 0.76999 0.26106 0.753 0.0
H1930 H 0.80704 0.19942 0.75955 0.0
C1931 C 0.79674 0.28998 0.75634 0.0
C1932 C 0.8266 0.28628 0.76411 0.0
H1933 H 0.74697 0.2648 0.75102 0.0
H1934 H 0.79356 0.3152 0.75707 0.0
C1935 C 0.8301 0.25336 0.76233 0.0
loop_
_geom_bond_atom_site_label_1
_geom_bond_atom_site_label_2
_geom_bond_distance
_geom_bond_site_symmetry_2
_ccdc_geom_bond_type
Co0 O1 2.216 . S
Co0 O2 2.091 . S
Co0 O4 2.004 . S
Co0 O10 2.021 . S
Co0 O12 2.137 . S
Co0 O13 2.244 . S
O1 Co0 2.216 . S
O1 C8 1.247 . S
O2 Co0 2.091 . S
O2 C8 1.261 . S
C3 O12 1.247 . S
C3 O13 1.272 . S
O4 Co0 2.004 . S
O4 C9 1.259 1_455 S
Co5 O6 2.061 1_455 S
Co5 O11 2.052 . S
Co5 O13 2.135 . S
O6 Co5 2.061 1_655 S
O6 C9 1.235 . S
C7 O10 1.238 . S
C7 O11 1.241 . S
C8 O1 1.247 . S
C8 O2 1.261 . S
C9 O4 1.259 1_655 S
C9 O6 1.235 . S
O10 Co0 2.021 . S
O10 C7 1.238 . S
O11 Co5 2.052 . S
O11 C7 1.241 . S
O12 Co0 2.137 . S
O12 C3 1.247 . S
O13 Co0 2.244 . S
O13 C3 1.272 . S
O13 Co5 2.135 . S
Co14 O15 2.216 . S
Co14 O16 2.091 . S
Co14 O18 2.004 . S
Co14 O24 2.021 . S
Co14 O26 2.137 . S
Co14 O27 2.244 . S
O15 Co14 2.216 . S
O15 C22 1.251 . S
O16 Co14 2.091 . S
O16 C22 1.285 . S
C17 O26 1.247 . S
C17 O27 1.272 . S
O18 Co14 2.004 . S
O18 C23 1.259 . S
Co19 O20 2.061 . S
Co19 O25 2.052 . S
Co19 O27 2.135 . S
O20 Co19 2.061 . S
O20 C23 1.235 . S
C21 O24 1.238 . S
C21 O25 1.241 . S
C22 O15 1.251 . S
C22 O16 1.285 . S
C23 O18 1.259 . S
C23 O20 1.235 . S
O24 Co14 2.021 . S
O24 C21 1.238 . S
O25 Co19 2.052 . S
O25 C21 1.241 . S
O26 Co14 2.137 . S
O26 C17 1.247 . S
O27 Co14 2.244 . S
O27 C17 1.272 . S
O27 Co19 2.135 . S
Co28 O29 2.216 . S
Co28 O30 2.091 . S
Co28 O32 2.004 . S
Co28 O38 2.021 . S
Co28 O40 2.137 . S
Co28 O41 2.244 . S
O29 Co28 2.216 . S
O29 C36 1.247 . S
O30 Co28 2.091 . S
O30 C36 1.261 . S
C31 O40 1.247 . S
C31 O41 1.272 . S
O32 Co28 2.004 . S
O32 C37 1.259 . S
Co33 O34 2.061 . S
Co33 O39 2.052 . S
Co33 O41 2.135 . S
O34 Co33 2.061 . S
O34 C37 1.235 . S
C35 O38 1.238 . S
C35 O39 1.241 . S
C36 O29 1.247 . S
C36 O30 1.261 . S
C37 O32 1.259 . S
C37 O34 1.235 . S
O38 Co28 2.021 . S
O38 C35 1.238 . S
O39 Co33 2.052 . S
O39 C35 1.241 . S
O40 Co28 2.137 . S
O40 C31 1.247 . S
O41 Co28 2.244 . S
O41 C31 1.272 . S
O41 Co33 2.135 . S
Co42 O43 2.216 . S
Co42 O44 2.091 . S
Co42 O46 2.004 . S
Co42 O52 2.021 . S
Co42 O54 2.137 . S
Co42 O55 2.244 . S
O43 Co42 2.216 . S
O43 C50 1.247 . S
O44 Co42 2.091 . S
O44 C50 1.261 . S
C45 O54 1.247 . S
C45 O55 1.272 . S
O46 Co42 2.004 . S
O46 C51 1.259 . S
Co47 O48 2.061 . S
Co47 O53 2.052 . S
Co47 O55 2.135 . S
O48 Co47 2.061 . S
O48 C51 1.235 . S
C49 O52 1.238 . S
C49 O53 1.241 . S
C50 O43 1.247 . S
C50 O44 1.261 . S
C51 O46 1.259 . S
C51 O48 1.235 . S
O52 Co42 2.021 . S
O52 C49 1.238 . S
O53 Co47 2.052 . S
O53 C49 1.241 . S
O54 Co42 2.137 . S
O54 C45 1.247 . S
O55 Co42 2.244 . S
O55 C45 1.272 . S
O55 Co47 2.135 . S
Co56 O57 2.216 . S
Co56 O58 2.091 . S
Co56 O60 2.004 . S
Co56 O66 2.021 . S
Co56 O68 2.137 . S
Co56 O69 2.244 . S
O57 Co56 2.216 . S
O57 C64 1.247 . S
O58 Co56 2.091 . S
O58 C64 1.261 . S
C59 O68 1.247 . S
C59 O69 1.272 . S
O60 Co56 2.004 . S
O60 C65 1.259 . S
Co61 O62 2.061 . S
Co61 O67 2.052 . S
Co61 O69 2.135 . S
O62 Co61 2.061 . S
O62 C65 1.235 . S
C63 O66 1.238 . S
C63 O67 1.241 . S
C64 O57 1.247 . S
C64 O58 1.261 . S
C65 O60 1.259 . S
C65 O62 1.235 . S
O66 Co56 2.021 . S
O66 C63 1.238 . S
O67 Co61 2.052 . S
O67 C63 1.241 . S
O68 Co56 2.137 . S
O68 C59 1.247 . S
O69 Co56 2.244 . S
O69 C59 1.272 . S
O69 Co61 2.135 . S
Co70 O71 2.216 . S
Co70 O72 2.091 . S
Co70 O74 2.004 . S
Co70 O80 2.021 . S
Co70 O82 2.137 . S
Co70 O83 2.244 . S
O71 Co70 2.216 . S
O71 C78 1.247 . S
O72 Co70 2.091 . S
O72 C78 1.261 . S
C73 O82 1.247 . S
C73 O83 1.272 . S
O74 Co70 2.004 . S
O74 C79 1.259 . S
Co75 O76 2.061 . S
Co75 O81 2.052 . S
Co75 O83 2.135 . S
O76 Co75 2.061 . S
O76 C79 1.235 . S
C77 O80 1.238 . S
C77 O81 1.241 . S
C78 O71 1.247 . S
C78 O72 1.261 . S
C79 O74 1.259 . S
C79 O76 1.235 . S
O80 Co70 2.021 . S
O80 C77 1.238 . S
O81 Co75 2.052 . S
O81 C77 1.241 . S
O82 Co70 2.137 . S
O82 C73 1.247 . S
O83 Co70 2.244 . S
O83 C73 1.272 . S
O83 Co75 2.135 . S
Co84 O85 2.216 . S
Co84 O86 2.091 . S
Co84 O88 2.004 . S
Co84 O94 2.021 . S
Co84 O96 2.137 . S
Co84 O97 2.244 . S
O85 Co84 2.216 . S
O85 C92 1.247 . S
O86 Co84 2.091 . S
O86 C92 1.261 . S
C87 O96 1.247 . S
C87 O97 1.272 . S
O88 Co84 2.004 . S
O88 C93 1.259 . S
Co89 O90 2.061 . S
Co89 O95 2.052 . S
Co89 O97 2.135 . S
O90 Co89 2.061 . S
O90 C93 1.235 . S
C91 O94 1.238 . S
C91 O95 1.241 . S
C92 O85 1.247 . S
C92 O86 1.261 . S
C93 O88 1.259 . S
C93 O90 1.235 . S
O94 Co84 2.021 . S
O94 C91 1.238 . S
O95 Co89 2.052 . S
O95 C91 1.241 . S
O96 Co84 2.137 . S
O96 C87 1.247 . S
O97 Co84 2.244 . S
O97 C87 1.272 . S
O97 Co89 2.135 . S
Co98 O99 2.216 . S
Co98 O100 2.091 . S
Co98 O102 2.004 1_455 S
Co98 O108 2.021 1_455 S
Co98 O110 2.137 . S
Co98 O111 2.244 1_455 S
O99 Co98 2.216 . S
O99 C106 1.247 . S
O100 Co98 2.091 . S
O100 C106 1.261 . S
C101 O110 1.247 . S
C101 O111 1.272 1_455 S
O102 Co98 2.004 1_655 S
O102 C107 1.259 . S
Co103 O104 2.061 . S
Co103 O109 2.052 . S
Co103 O111 2.135 . S
O104 Co103 2.061 . S
O104 C107 1.235 . S
C105 O108 1.238 . S
C105 O109 1.241 . S
C106 O99 1.247 . S
C106 O100 1.261 . S
C107 O102 1.259 . S
C107 O104 1.235 . S
O108 Co98 2.021 1_655 S
O108 C105 1.238 . S
O109 Co103 2.052 . S
O109 C105 1.241 . S
O110 Co98 2.137 . S
O110 C101 1.247 . S
O111 Co98 2.244 1_655 S
O111 C101 1.272 1_655 S
O111 Co103 2.135 . S
Co112 O113 2.216 . S
Co112 O114 2.091 . S
Co112 O116 2.004 1_545 S
Co112 O122 2.021 . S
Co112 O124 2.137 . S
Co112 O125 2.244 . S
O113 Co112 2.216 . S
O113 C120 1.247 . S
O114 Co112 2.091 . S
O114 C120 1.261 . S
C115 O124 1.247 . S
C115 O125 1.272 . S
O116 Co112 2.004 1_565 S
O116 C121 1.259 . S
Co117 O118 2.061 . S
Co117 O123 2.052 1_565 S
Co117 O125 2.135 1_565 S
O118 Co117 2.061 . S
O118 C121 1.235 . S
C119 O122 1.238 . S
C119 O123 1.241 . S
C120 O113 1.247 . S
C120 O114 1.261 . S
C121 O116 1.259 . S
C121 O118 1.235 . S
O122 Co112 2.021 . S
O122 C119 1.238 . S
O123 Co117 2.052 1_545 S
O123 C119 1.241 . S
O124 Co112 2.137 . S
O124 C115 1.247 . S
O125 Co112 2.244 . S
O125 C115 1.272 . S
O125 Co117 2.135 1_545 S
Co126 O127 2.216 . S
Co126 O128 2.091 . S
Co126 O130 2.004 . S
Co126 O136 2.021 . S
Co126 O138 2.137 . S
Co126 O139 2.244 . S
O127 Co126 2.216 . S
O127 C134 1.247 . S
O128 Co126 2.091 . S
O128 C134 1.261 . S
C129 O138 1.247 . S
C129 O139 1.272 . S
O130 Co126 2.004 . S
O130 C135 1.259 . S
Co131 O132 2.061 . S
Co131 O137 2.052 . S
Co131 O139 2.135 . S
O132 Co131 2.061 . S
O132 C135 1.235 . S
C133 O136 1.238 . S
C133 O137 1.241 . S
C134 O127 1.247 . S
C134 O128 1.261 . S
C135 O130 1.259 . S
C135 O132 1.235 . S
O136 Co126 2.021 . S
O136 C133 1.238 . S
O137 Co131 2.052 . S
O137 C133 1.241 . S
O138 Co126 2.137 . S
O138 C129 1.247 . S
O139 Co126 2.244 . S
O139 C129 1.272 . S
O139 Co131 2.135 . S
Co140 O141 2.216 . S
Co140 O142 2.091 . S
Co140 O144 2.004 . S
Co140 O150 2.021 . S
Co140 O152 2.137 . S
Co140 O153 2.244 . S
O141 Co140 2.216 . S
O141 C148 1.247 . S
O142 Co140 2.091 . S
O142 C148 1.261 . S
C143 O152 1.247 . S
C143 O153 1.272 . S
O144 Co140 2.004 . S
O144 C149 1.259 . S
Co145 O146 2.061 . S
Co145 O151 2.052 . S
Co145 O153 2.135 . S
O146 Co145 2.061 . S
O146 C149 1.235 . S
C147 O150 1.238 . S
C147 O151 1.241 . S
C148 O141 1.247 . S
C148 O142 1.261 . S
C149 O144 1.259 . S
C149 O146 1.235 . S
O150 Co140 2.021 . S
O150 C147 1.238 . S
O151 Co145 2.052 . S
O151 C147 1.241 . S
O152 Co140 2.137 . S
O152 C143 1.247 . S
O153 Co140 2.244 . S
O153 C143 1.272 . S
O153 Co145 2.135 . S
Co154 O155 2.216 . S
Co154 O156 2.091 1_556 S
Co154 O158 2.004 . S
Co154 O164 2.021 1_556 S
Co154 O166 2.137 . S
Co154 O167 2.244 . S
O155 Co154 2.216 . S
O155 C162 1.249 . S
O156 Co154 2.091 1_554 S
O156 C162 1.263 1_554 S
C157 O166 1.247 . S
C157 O167 1.272 . S
O158 Co154 2.004 . S
O158 C163 1.259 1_556 S
Co159 O160 2.061 1_556 S
Co159 O165 2.052 1_556 S
Co159 O167 2.135 . S
O160 Co159 2.061 1_554 S
O160 C163 1.235 . S
C161 O164 1.238 . S
C161 O165 1.241 . S
C162 O155 1.249 . S
C162 O156 1.263 1_556 S
C163 O158 1.259 1_554 S
C163 O160 1.235 . S
O164 Co154 2.021 1_554 S
O164 C161 1.238 . S
O165 Co159 2.052 1_554 S
O165 C161 1.241 . S
O166 Co154 2.137 . S
O166 C157 1.247 . S
O167 Co154 2.244 . S
O167 C157 1.272 . S
O167 Co159 2.135 . S
Co168 O169 2.216 . S
Co168 O170 2.091 . S
Co168 O172 2.004 . S
Co168 O178 2.021 . S
Co168 O180 2.103 1_554 S
Co168 O181 2.244 . S
O169 Co168 2.216 . S
O169 C176 1.247 . S
O170 Co168 2.091 . S
O170 C176 1.261 . S
C171 O180 1.246 . S
C171 O181 1.272 1_556 S
O172 Co168 2.004 . S
O172 C177 1.259 . S
Co173 O174 2.061 . S
Co173 O179 2.052 . S
Co173 O181 2.135 . S
O174 Co173 2.061 . S
O174 C177 1.235 . S
C175 O178 1.238 . S
C175 O179 1.241 . S
C176 O169 1.247 . S
C176 O170 1.261 . S
C177 O172 1.259 . S
C177 O174 1.235 . S
O178 Co168 2.021 . S
O178 C175 1.238 . S
O179 Co173 2.052 . S
O179 C175 1.241 . S
O180 Co168 2.103 1_556 S
O180 C171 1.246 . S
O181 Co168 2.244 . S
O181 C171 1.272 1_554 S
O181 Co173 2.135 . S
Co182 O183 2.216 . S
Co182 O184 2.091 . S
Co182 O186 2.004 . S
Co182 O192 2.021 . S
Co182 O194 2.137 . S
Co182 O195 2.244 . S
O183 Co182 2.216 . S
O183 C190 1.247 . S
O184 Co182 2.091 . S
O184 C190 1.261 . S
C185 O194 1.247 . S
C185 O195 1.272 . S
O186 Co182 2.004 . S
O186 C191 1.259 . S
Co187 O188 2.061 . S
Co187 O193 2.052 . S
Co187 O195 2.135 . S
O188 Co187 2.061 . S
O188 C191 1.235 . S
C189 O192 1.238 . S
C189 O193 1.241 . S
C190 O183 1.247 . S
C190 O184 1.261 . S
C191 O186 1.259 . S
C191 O188 1.235 . S
O192 Co182 2.021 . S
O192 C189 1.238 . S
O193 Co187 2.052 . S
O193 C189 1.241 . S
O194 Co182 2.137 . S
O194 C185 1.247 . S
O195 Co182 2.244 . S
O195 C185 1.272 . S
O195 Co187 2.135 . S
Co196 O197 2.216 . S
Co196 O198 2.091 . S
Co196 O200 2.004 . S
Co196 O206 2.021 . S
Co196 O208 2.137 . S
Co196 O209 2.244 . S
O197 Co196 2.216 . S
O197 C204 1.247 . S
O198 Co196 2.091 . S
O198 C204 1.261 . S
C199 O208 1.247 . S
C199 O209 1.272 . S
O200 Co196 2.004 . S
O200 C205 1.259 . S
Co201 O202 2.061 . S
Co201 O207 2.052 . S
Co201 O209 2.135 . S
O202 Co201 2.061 . S
O202 C205 1.235 . S
C203 O206 1.238 . S
C203 O207 1.241 . S
C204 O197 1.247 . S
C204 O198 1.261 . S
C205 O200 1.259 . S
C205 O202 1.235 . S
O206 Co196 2.021 . S
O206 C203 1.238 . S
O207 Co201 2.052 . S
O207 C203 1.241 . S
O208 Co196 2.137 . S
O208 C199 1.247 . S
O209 Co196 2.244 . S
O209 C199 1.272 . S
O209 Co201 2.135 . S
Co210 O211 2.216 . S
Co210 O212 2.091 . S
Co210 O214 2.004 . S
Co210 O220 2.021 . S
Co210 O222 2.137 . S
Co210 O223 2.244 . S
O211 Co210 2.216 . S
O211 C218 1.247 . S
O212 Co210 2.091 . S
O212 C218 1.261 . S
C213 O222 1.247 . S
C213 O223 1.272 . S
O214 Co210 2.004 . S
O214 C219 1.259 . S
Co215 O216 2.061 . S
Co215 O221 2.052 . S
Co215 O223 2.135 . S
O216 Co215 2.061 . S
O216 C219 1.235 . S
C217 O220 1.238 . S
C217 O221 1.241 . S
C218 O211 1.247 . S
C218 O212 1.261 . S
C219 O214 1.259 . S
C219 O216 1.235 . S
O220 Co210 2.021 . S
O220 C217 1.238 . S
O221 Co215 2.052 . S
O221 C217 1.241 . S
O222 Co210 2.137 . S
O222 C213 1.247 . S
O223 Co210 2.244 . S
O223 C213 1.272 . S
O223 Co215 2.135 . S
Co224 O225 2.216 . S
Co224 O226 2.091 . S
Co224 O228 2.004 1_545 S
Co224 O234 2.021 . S
Co224 O236 2.137 . S
Co224 O237 2.244 . S
O225 Co224 2.216 . S
O225 C232 1.247 . S
O226 Co224 2.091 . S
O226 C232 1.261 . S
C227 O236 1.247 . S
C227 O237 1.272 . S
O228 Co224 2.004 1_565 S
O228 C233 1.259 . S
Co229 O230 2.061 . S
Co229 O235 2.052 . S
Co229 O237 2.135 1_565 S
O230 Co229 2.061 . S
O230 C233 1.235 . S
C231 O234 1.228 1_565 S
C231 O235 1.258 . S
C232 O225 1.247 . S
C232 O226 1.261 . S
C233 O228 1.259 . S
C233 O230 1.235 . S
O234 Co224 2.021 . S
O234 C231 1.228 1_545 S
O235 Co229 2.052 . S
O235 C231 1.258 . S
O236 Co224 2.137 . S
O236 C227 1.247 . S
O237 Co224 2.244 . S
O237 C227 1.272 . S
O237 Co229 2.135 1_545 S
Co238 O239 2.216 . S
Co238 O240 2.091 . S
Co238 O242 2.004 . S
Co238 O248 2.021 . S
Co238 O250 2.137 . S
Co238 O251 2.244 . S
O239 Co238 2.216 . S
O239 C246 1.247 . S
O240 Co238 2.091 . S
O240 C246 1.261 . S
C241 O250 1.247 . S
C241 O251 1.272 . S
O242 Co238 2.004 . S
O242 C247 1.259 . S
Co243 O244 2.061 . S
Co243 O249 2.052 . S
Co243 O251 2.135 . S
O244 Co243 2.061 . S
O244 C247 1.235 . S
C245 O248 1.238 . S
C245 O249 1.241 . S
C246 O239 1.247 . S
C246 O240 1.261 . S
C247 O242 1.259 . S
C247 O244 1.235 . S
O248 Co238 2.021 . S
O248 C245 1.238 . S
O249 Co243 2.052 . S
O249 C245 1.241 . S
O250 Co238 2.137 . S
O250 C241 1.247 . S
O251 Co238 2.244 . S
O251 C241 1.272 . S
O251 Co243 2.135 . S
Co252 O253 2.216 . S
Co252 O254 2.091 . S
Co252 O256 2.004 . S
Co252 O262 2.021 . S
Co252 O264 2.137 . S
Co252 O265 2.244 . S
O253 Co252 2.216 . S
O253 C260 1.247 . S
O254 Co252 2.091 . S
O254 C260 1.261 . S
C255 O264 1.247 . S
C255 O265 1.272 . S
O256 Co252 2.004 . S
O256 C261 1.259 . S
Co257 O258 2.061 . S
Co257 O263 2.052 . S
Co257 O265 2.135 . S
O258 Co257 2.061 . S
O258 C261 1.235 . S
C259 O262 1.238 . S
C259 O263 1.241 . S
C260 O253 1.247 . S
C260 O254 1.261 . S
C261 O256 1.259 . S
C261 O258 1.235 . S
O262 Co252 2.021 . S
O262 C259 1.238 . S
O263 Co257 2.052 . S
O263 C259 1.241 . S
O264 Co252 2.137 . S
O264 C255 1.247 . S
O265 Co252 2.244 . S
O265 C255 1.272 . S
O265 Co257 2.135 . S
Co266 O267 2.216 . S
Co266 O268 2.091 . S
Co266 O270 2.004 . S
Co266 O276 2.021 . S
Co266 O278 2.137 . S
Co266 O279 2.244 . S
O267 Co266 2.216 . S
O267 C274 1.247 . S
O268 Co266 2.091 . S
O268 C274 1.261 . S
C269 O278 1.247 . S
C269 O279 1.272 . S
O270 Co266 2.004 . S
O270 C275 1.259 . S
Co271 O272 2.061 . S
Co271 O277 2.052 . S
Co271 O279 2.135 . S
O272 Co271 2.061 . S
O272 C275 1.235 . S
C273 O276 1.238 . S
C273 O277 1.241 . S
C274 O267 1.247 . S
C274 O268 1.261 . S
C275 O270 1.259 . S
C275 O272 1.235 . S
O276 Co266 2.021 . S
O276 C273 1.238 . S
O277 Co271 2.052 . S
O277 C273 1.241 . S
O278 Co266 2.137 . S
O278 C269 1.247 . S
O279 Co266 2.244 . S
O279 C269 1.272 . S
O279 Co271 2.135 . S
Co280 O281 2.216 . S
Co280 O282 2.091 . S
Co280 O284 2.004 . S
Co280 O290 2.021 . S
Co280 O292 2.137 1_554 S
Co280 O293 2.244 . S
O281 Co280 2.216 . S
O281 C288 1.247 . S
O282 Co280 2.091 . S
O282 C288 1.261 . S
C283 O292 1.247 . S
C283 O293 1.272 1_556 S
O284 Co280 2.004 . S
O284 C289 1.259 . S
Co285 O286 2.061 . S
Co285 O291 2.052 . S
Co285 O293 2.135 . S
O286 Co285 2.061 . S
O286 C289 1.235 . S
C287 O290 1.238 . S
C287 O291 1.241 . S
C288 O281 1.247 . S
C288 O282 1.261 . S
C289 O284 1.259 . S
C289 O286 1.235 . S
O290 Co280 2.021 . S
O290 C287 1.238 . S
O291 Co285 2.052 . S
O291 C287 1.241 . S
O292 Co280 2.137 1_556 S
O292 C283 1.247 . S
O293 Co280 2.244 . S
O293 C283 1.272 1_554 S
O293 Co285 2.135 . S
Co294 O295 2.216 . S
Co294 O296 2.091 . S
Co294 O298 2.004 . S
Co294 O304 2.021 . S
Co294 O306 2.137 . S
Co294 O307 2.244 . S
O295 Co294 2.216 . S
O295 C302 1.247 . S
O296 Co294 2.091 . S
O296 C302 1.261 . S
C297 O306 1.247 . S
C297 O307 1.272 . S
O298 Co294 2.004 . S
O298 C303 1.259 . S
Co299 O300 2.061 . S
Co299 O305 2.052 . S
Co299 O307 2.135 . S
O300 Co299 2.061 . S
O300 C303 1.235 . S
C301 O304 1.238 . S
C301 O305 1.241 . S
C302 O295 1.247 . S
C302 O296 1.261 . S
C303 O298 1.259 . S
C303 O300 1.235 . S
O304 Co294 2.021 . S
O304 C301 1.238 . S
O305 Co299 2.052 . S
O305 C301 1.241 . S
O306 Co294 2.137 . S
O306 C297 1.247 . S
O307 Co294 2.244 . S
O307 C297 1.272 . S
O307 Co299 2.135 . S
Co308 O309 2.216 . S
Co308 O310 2.091 . S
Co308 O312 2.004 . S
Co308 O318 2.021 . S
Co308 O320 2.137 . S
Co308 O321 2.244 . S
O309 Co308 2.216 . S
O309 C316 1.247 . S
O310 Co308 2.091 . S
O310 C316 1.261 . S
C311 O320 1.247 . S
C311 O321 1.272 . S
O312 Co308 2.004 . S
O312 C317 1.259 . S
Co313 O314 2.061 . S
Co313 O319 2.052 . S
Co313 O321 2.135 . S
O314 Co313 2.061 . S
O314 C317 1.235 . S
C315 O318 1.238 . S
C315 O319 1.241 . S
C316 O309 1.247 . S
C316 O310 1.261 . S
C317 O312 1.259 . S
C317 O314 1.235 . S
O318 Co308 2.021 . S
O318 C315 1.238 . S
O319 Co313 2.052 . S
O319 C315 1.241 . S
O320 Co308 2.137 . S
O320 C311 1.247 . S
O321 Co308 2.244 . S
O321 C311 1.272 . S
O321 Co313 2.135 . S
Co322 O323 2.216 . S
Co322 O324 2.091 . S
Co322 O326 2.004 . S
Co322 O332 2.021 . S
Co322 O334 2.137 . S
Co322 O335 2.244 . S
O323 Co322 2.216 . S
O323 C330 1.247 . S
O324 Co322 2.091 . S
O324 C330 1.261 . S
C325 O334 1.247 . S
C325 O335 1.272 . S
O326 Co322 2.004 . S
O326 C331 1.259 . S
Co327 O328 2.061 . S
Co327 O333 2.052 . S
Co327 O335 2.135 . S
O328 Co327 2.061 . S
O328 C331 1.235 . S
C329 O332 1.238 . S
C329 O333 1.241 . S
C330 O323 1.247 . S
C330 O324 1.261 . S
C331 O326 1.259 . S
C331 O328 1.235 . S
O332 Co322 2.021 . S
O332 C329 1.238 . S
O333 Co327 2.052 . S
O333 C329 1.241 . S
O334 Co322 2.137 . S
O334 C325 1.247 . S
O335 Co322 2.244 . S
O335 C325 1.272 . S
O335 Co327 2.135 . S
Tb336 C345 2.764 . S
Tb336 O346 2.325 . S
Tb336 O349 2.303 . S
Tb336 O353 2.322 . S
Tb336 O354 2.349 . S
Tb336 O357 2.415 . S
Tb336 O358 2.399 . S
Tb337 O347 2.322 1_545 S
Tb337 O348 2.349 1_554 S
Tb337 O350 2.415 1_455 S
Tb337 O351 2.399 1_454 S
Tb337 O352 2.325 . S
Tb337 O355 2.303 . S
Tb337 C366 2.764 1_455 S
C338 O354 1.261 . S
C338 O355 1.257 . S
C339 C342 1.358 . S
C339 C343 1.332 . S
C339 C345 1.504 . S
C340 C341 1.373 . S
C340 C344 1.308 . S
C341 C340 1.373 . S
C341 C342 1.429 . S
C341 H368 0.932 . S
C342 C339 1.358 . S
C342 C341 1.429 . S
C342 H369 0.930 . S
C343 C339 1.332 . S
C343 C344 1.394 . S
C343 H370 0.932 . S
C344 C340 1.308 . S
C344 C343 1.394 . S
C344 H371 0.929 . S
C345 Tb336 2.764 . S
C345 C339 1.504 . S
C345 O357 1.239 . S
C345 O358 1.263 . S
O346 Tb336 2.325 . S
O346 C356 1.236 1_545 S
O347 Tb337 2.322 1_565 S
O347 C356 1.257 . S
O348 Tb337 2.349 1_556 S
O348 C359 1.261 . S
O349 Tb336 2.303 . S
O349 C359 1.257 1_554 S
O350 Tb337 2.415 1_655 S
O350 C366 1.239 . S
O351 Tb337 2.399 1_656 S
O351 C366 1.263 1_556 S
O352 Tb337 2.325 . S
O352 C367 1.236 . S
O353 Tb336 2.322 . S
O353 C367 1.257 . S
O354 Tb336 2.349 . S
O354 C338 1.261 . S
O355 Tb337 2.303 . S
O355 C338 1.257 . S
C356 O346 1.236 1_565 S
C356 O347 1.257 . S
O357 Tb336 2.415 . S
O357 C345 1.239 . S
O358 Tb336 2.399 . S
O358 C345 1.263 . S
C359 O348 1.261 . S
C359 O349 1.257 1_556 S
C360 C363 1.358 1_554 S
C360 C364 1.332 . S
C360 C366 1.504 . S
C361 C362 1.396 . S
C361 C365 1.282 1_556 S
C362 C361 1.396 . S
C362 C363 1.429 . S
C362 H372 0.932 . S
C363 C360 1.358 1_556 S
C363 C362 1.429 . S
C363 H373 0.930 . S
C364 C360 1.332 . S
C364 C365 1.394 . S
C364 H374 0.932 . S
C365 C361 1.282 1_554 S
C365 C364 1.394 . S
C365 H375 0.929 . S
C366 Tb337 2.764 1_655 S
C366 O350 1.239 . S
C366 O351 1.263 1_554 S
C366 C360 1.504 . S
C367 O352 1.236 . S
C367 O353 1.257 . S
H368 C341 0.932 . S
H369 C342 0.930 . S
H370 C343 0.932 . S
H371 C344 0.929 . S
H372 C362 0.932 . S
H373 C363 0.930 . S
H374 C364 0.932 . S
H375 C365 0.929 . S
Tb376 C385 2.764 . S
Tb376 O386 2.325 . S
Tb376 O389 2.303 . S
Tb376 O393 2.322 . S
Tb376 O394 2.349 . S
Tb376 O397 2.415 . S
Tb376 O398 2.399 . S
Tb377 O387 2.322 . S
Tb377 O388 2.349 . S
Tb377 O390 2.415 . S
Tb377 O391 2.399 . S
Tb377 O392 2.325 . S
Tb377 O395 2.303 . S
Tb377 C406 2.764 . S
C378 O394 1.261 . S
C378 O395 1.257 . S
C379 C382 1.358 . S
C379 C383 1.332 . S
C379 C385 1.504 . S
C380 C381 1.373 . S
C380 C384 1.308 . S
C381 C380 1.373 . S
C381 C382 1.429 . S
C381 H408 0.932 . S
C382 C379 1.358 . S
C382 C381 1.429 . S
C382 H409 0.930 . S
C383 C379 1.332 . S
C383 C384 1.394 . S
C383 H410 0.932 . S
C384 C380 1.308 . S
C384 C383 1.394 . S
C384 H411 0.929 . S
C385 Tb376 2.764 . S
C385 C379 1.504 . S
C385 O397 1.239 . S
C385 O398 1.263 . S
O386 Tb376 2.325 . S
O386 C396 1.236 . S
O387 Tb377 2.322 . S
O387 C396 1.257 . S
O388 Tb377 2.349 . S
O388 C399 1.261 . S
O389 Tb376 2.303 . S
O389 C399 1.257 . S
O390 Tb377 2.415 . S
O390 C406 1.239 . S
O391 Tb377 2.399 . S
O391 C406 1.263 . S
O392 Tb377 2.325 . S
O392 C407 1.236 . S
O393 Tb376 2.322 . S
O393 C407 1.257 . S
O394 Tb376 2.349 . S
O394 C378 1.261 . S
O395 Tb377 2.303 . S
O395 C378 1.257 . S
C396 O386 1.236 . S
C396 O387 1.257 . S
O397 Tb376 2.415 . S
O397 C385 1.239 . S
O398 Tb376 2.399 . S
O398 C385 1.263 . S
C399 O388 1.261 . S
C399 O389 1.257 . S
C400 C403 1.358 . S
C400 C404 1.332 . S
C400 C406 1.504 . S
C401 C402 1.373 . S
C401 C405 1.308 . S
C402 C401 1.373 . S
C402 C403 1.429 . S
C402 H412 0.932 . S
C403 C400 1.358 . S
C403 C402 1.429 . S
C403 H413 0.930 . S
C404 C400 1.332 . S
C404 C405 1.394 . S
C404 H414 0.932 . S
C405 C401 1.308 . S
C405 C404 1.394 . S
C405 H415 0.929 . S
C406 Tb377 2.764 . S
C406 O390 1.239 . S
C406 O391 1.263 . S
C406 C400 1.504 . S
C407 O392 1.236 . S
C407 O393 1.257 . S
H408 C381 0.932 . S
H409 C382 0.930 . S
H410 C383 0.932 . S
H411 C384 0.929 . S
H412 C402 0.932 . S
H413 C403 0.930 . S
H414 C404 0.932 . S
H415 C405 0.929 . S
Tb416 C425 2.764 . S
Tb416 O426 2.325 . S
Tb416 O429 2.303 . S
Tb416 O433 2.322 1_545 S
Tb416 O434 2.349 . S
Tb416 O437 2.415 . S
Tb416 O438 2.399 . S
Tb417 O427 2.322 . S
Tb417 O428 2.349 . S
Tb417 O430 2.415 . S
Tb417 O431 2.399 . S
Tb417 O432 2.325 . S
Tb417 O435 2.303 . S
Tb417 C446 2.764 . S
C418 O434 1.261 . S
C418 O435 1.257 . S
C419 C422 1.358 . S
C419 C423 1.332 . S
C419 C425 1.504 . S
C420 C421 1.373 . S
C420 C424 1.308 . S
C421 C420 1.373 . S
C421 C422 1.429 . S
C421 H448 0.932 . S
C422 C419 1.358 . S
C422 C421 1.429 . S
C422 H449 0.930 . S
C423 C419 1.332 . S
C423 C424 1.394 . S
C423 H450 0.932 . S
C424 C420 1.308 . S
C424 C423 1.394 . S
C424 H451 0.929 . S
C425 Tb416 2.764 . S
C425 C419 1.504 . S
C425 O437 1.239 . S
C425 O438 1.263 . S
O426 Tb416 2.325 . S
O426 C436 1.236 . S
O427 Tb417 2.322 . S
O427 C436 1.257 . S
O428 Tb417 2.349 . S
O428 C439 1.261 . S
O429 Tb416 2.303 . S
O429 C439 1.257 . S
O430 Tb417 2.415 . S
O430 C446 1.239 . S
O431 Tb417 2.399 . S
O431 C446 1.263 . S
O432 Tb417 2.325 . S
O432 C447 1.236 1_545 S
O433 Tb416 2.322 1_565 S
O433 C447 1.257 . S
O434 Tb416 2.349 . S
O434 C418 1.261 . S
O435 Tb417 2.303 . S
O435 C418 1.257 . S
C436 O426 1.236 . S
C436 O427 1.257 . S
O437 Tb416 2.415 . S
O437 C425 1.239 . S
O438 Tb416 2.399 . S
O438 C425 1.263 . S
C439 O428 1.261 . S
C439 O429 1.257 . S
C440 C443 1.358 . S
C440 C444 1.332 1_545 S
C440 C446 1.504 . S
C441 C442 1.373 . S
C441 C445 1.308 . S
C442 C441 1.373 . S
C442 C443 1.429 1_565 S
C442 H452 0.932 . S
C443 C440 1.358 . S
C443 C442 1.429 1_545 S
C443 H453 0.930 . S
C444 C440 1.332 1_565 S
C444 C445 1.394 . S
C444 H454 0.932 . S
C445 C441 1.308 . S
C445 C444 1.394 . S
C445 H455 0.929 . S
C446 Tb417 2.764 . S
C446 O430 1.239 . S
C446 O431 1.263 . S
C446 C440 1.504 . S
C447 O432 1.236 1_565 S
C447 O433 1.257 . S
H448 C421 0.932 . S
H449 C422 0.930 . S
H450 C423 0.932 . S
H451 C424 0.929 . S
H452 C442 0.932 . S
H453 C443 0.930 . S
H454 C444 0.932 . S
H455 C445 0.929 . S
Tb456 C465 2.764 . S
Tb456 O466 2.325 . S
Tb456 O469 2.303 . S
Tb456 O473 2.322 . S
Tb456 O474 2.349 . S
Tb456 O477 2.415 . S
Tb456 O478 2.399 . S
Tb457 O467 2.322 . S
Tb457 O468 2.349 . S
Tb457 O470 2.415 . S
Tb457 O471 2.399 . S
Tb457 O472 2.325 . S
Tb457 O475 2.303 . S
Tb457 C486 2.764 . S
C458 O474 1.261 . S
C458 O475 1.257 . S
C459 C462 1.358 . S
C459 C463 1.332 . S
C459 C465 1.504 . S
C460 C461 1.373 . S
C460 C464 1.308 . S
C461 C460 1.373 . S
C461 C462 1.429 . S
C461 H488 0.932 . S
C462 C459 1.358 . S
C462 C461 1.429 . S
C462 H489 0.930 . S
C463 C459 1.332 . S
C463 C464 1.394 . S
C463 H490 0.932 . S
C464 C460 1.308 . S
C464 C463 1.394 . S
C464 H491 0.929 . S
C465 Tb456 2.764 . S
C465 C459 1.504 . S
C465 O477 1.239 . S
C465 O478 1.263 . S
O466 Tb456 2.325 . S
O466 C476 1.236 . S
O467 Tb457 2.322 . S
O467 C476 1.257 . S
O468 Tb457 2.349 . S
O468 C479 1.261 . S
O469 Tb456 2.303 . S
O469 C479 1.257 . S
O470 Tb457 2.415 . S
O470 C486 1.239 . S
O471 Tb457 2.399 . S
O471 C486 1.263 . S
O472 Tb457 2.325 . S
O472 C487 1.236 . S
O473 Tb456 2.322 . S
O473 C487 1.257 . S
O474 Tb456 2.349 . S
O474 C458 1.261 . S
O475 Tb457 2.303 . S
O475 C458 1.257 . S
C476 O466 1.236 . S
C476 O467 1.257 . S
O477 Tb456 2.415 . S
O477 C465 1.239 . S
O478 Tb456 2.399 . S
O478 C465 1.263 . S
C479 O468 1.261 . S
C479 O469 1.257 . S
C480 C483 1.358 . S
C480 C484 1.332 . S
C480 C486 1.504 . S
C481 C482 1.373 . S
C481 C485 1.308 . S
C482 C481 1.373 . S
C482 C483 1.429 . S
C482 H492 0.932 . S
C483 C480 1.358 . S
C483 C482 1.429 . S
C483 H493 0.930 . S
C484 C480 1.332 . S
C484 C485 1.394 . S
C484 H494 0.932 . S
C485 C481 1.308 . S
C485 C484 1.394 . S
C485 H495 0.929 . S
C486 Tb457 2.764 . S
C486 O470 1.239 . S
C486 O471 1.263 . S
C486 C480 1.504 . S
C487 O472 1.236 . S
C487 O473 1.257 . S
H488 C461 0.932 . S
H489 C462 0.930 . S
H490 C463 0.932 . S
H491 C464 0.929 . S
H492 C482 0.932 . S
H493 C483 0.930 . S
H494 C484 0.932 . S
H495 C485 0.929 . S
Tb496 C505 2.764 . S
Tb496 O506 2.325 . S
Tb496 O509 2.303 . S
Tb496 O513 2.322 . S
Tb496 O514 2.349 . S
Tb496 O517 2.415 . S
Tb496 O518 2.399 . S
Tb497 O507 2.322 . S
Tb497 O508 2.349 . S
Tb497 O510 2.415 . S
Tb497 O511 2.399 . S
Tb497 O512 2.325 . S
Tb497 O515 2.303 . S
Tb497 C526 2.764 . S
C498 O514 1.261 1_655 S
C498 O515 1.257 1_655 S
C499 C502 1.358 . S
C499 C503 1.332 . S
C499 C505 1.504 . S
C500 C501 1.373 . S
C500 C504 1.308 . S
C501 C500 1.373 . S
C501 C502 1.429 . S
C501 H528 0.932 . S
C502 C499 1.358 . S
C502 C501 1.429 . S
C502 H529 0.930 . S
C503 C499 1.332 . S
C503 C504 1.394 . S
C503 H530 0.932 . S
C504 C500 1.308 . S
C504 C503 1.394 . S
C504 H531 0.929 . S
C505 Tb496 2.764 . S
C505 C499 1.504 . S
C505 O517 1.239 . S
C505 O518 1.263 . S
O506 Tb496 2.325 . S
O506 C516 1.236 . S
O507 Tb497 2.322 . S
O507 C516 1.257 . S
O508 Tb497 2.349 . S
O508 C519 1.261 . S
O509 Tb496 2.303 . S
O509 C519 1.257 . S
O510 Tb497 2.415 . S
O510 C526 1.239 . S
O511 Tb497 2.399 . S
O511 C526 1.263 . S
O512 Tb497 2.325 . S
O512 C527 1.236 . S
O513 Tb496 2.322 . S
O513 C527 1.257 . S
O514 Tb496 2.349 . S
O514 C498 1.261 1_455 S
O515 Tb497 2.303 . S
O515 C498 1.257 1_455 S
C516 O506 1.236 . S
C516 O507 1.257 . S
O517 Tb496 2.415 . S
O517 C505 1.239 . S
O518 Tb496 2.399 . S
O518 C505 1.263 . S
C519 O508 1.261 . S
C519 O509 1.257 . S
C520 C523 1.358 . S
C520 C524 1.332 1_455 S
C520 C526 1.504 . S
C521 C522 1.373 1_655 S
C521 C525 1.308 . S
C522 C521 1.373 1_455 S
C522 C523 1.429 . S
C522 H532 0.932 . S
C523 C520 1.358 . S
C523 C522 1.429 . S
C523 H533 0.930 . S
C524 C520 1.332 1_655 S
C524 C525 1.394 . S
C524 H534 0.932 . S
C525 C521 1.308 . S
C525 C524 1.394 . S
C525 H535 0.929 . S
C526 Tb497 2.764 . S
C526 O510 1.239 . S
C526 O511 1.263 . S
C526 C520 1.504 . S
C527 O512 1.236 . S
C527 O513 1.257 . S
H528 C501 0.932 . S
H529 C502 0.930 . S
H530 C503 0.932 . S
H531 C504 0.929 . S
H532 C522 0.932 . S
H533 C523 0.930 . S
H534 C524 0.932 . S
H535 C525 0.929 . S
Tb536 C545 2.764 . S
Tb536 O546 2.325 . S
Tb536 O549 2.303 . S
Tb536 O553 2.322 . S
Tb536 O554 2.349 . S
Tb536 O557 2.415 . S
Tb536 O558 2.399 . S
Tb537 O547 2.322 . S
Tb537 O548 2.349 . S
Tb537 O550 2.415 . S
Tb537 O551 2.399 . S
Tb537 O552 2.325 . S
Tb537 O555 2.303 . S
Tb537 C566 2.764 . S
C538 O554 1.261 . S
C538 O555 1.257 . S
C539 C542 1.358 . S
C539 C543 1.332 . S
C539 C545 1.504 . S
C540 C541 1.373 . S
C540 C544 1.308 . S
C541 C540 1.373 . S
C541 C542 1.429 . S
C541 H568 0.932 . S
C542 C539 1.358 . S
C542 C541 1.429 . S
C542 H569 0.930 . S
C543 C539 1.332 . S
C543 C544 1.394 . S
C543 H570 0.932 . S
C544 C540 1.308 . S
C544 C543 1.394 . S
C544 H571 0.929 . S
C545 Tb536 2.764 . S
C545 C539 1.504 . S
C545 O557 1.239 . S
C545 O558 1.263 . S
O546 Tb536 2.325 . S
O546 C556 1.236 . S
O547 Tb537 2.322 . S
O547 C556 1.257 . S
O548 Tb537 2.349 . S
O548 C559 1.261 . S
O549 Tb536 2.303 . S
O549 C559 1.257 . S
O550 Tb537 2.415 . S
O550 C566 1.239 . S
O551 Tb537 2.399 . S
O551 C566 1.263 . S
O552 Tb537 2.325 . S
O552 C567 1.236 . S
O553 Tb536 2.322 . S
O553 C567 1.257 . S
O554 Tb536 2.349 . S
O554 C538 1.261 . S
O555 Tb537 2.303 . S
O555 C538 1.257 . S
C556 O546 1.236 . S
C556 O547 1.257 . S
O557 Tb536 2.415 . S
O557 C545 1.239 . S
O558 Tb536 2.399 . S
O558 C545 1.263 . S
C559 O548 1.261 . S
C559 O549 1.257 . S
C560 C563 1.358 . S
C560 C564 1.332 . S
C560 C566 1.504 . S
C561 C562 1.373 . S
C561 C565 1.308 . S
C562 C561 1.373 . S
C562 C563 1.429 . S
C562 H572 0.932 . S
C563 C560 1.358 . S
C563 C562 1.429 . S
C563 H573 0.930 . S
C564 C560 1.332 . S
C564 C565 1.394 . S
C564 H574 0.932 . S
C565 C561 1.308 . S
C565 C564 1.394 . S
C565 H575 0.929 . S
C566 Tb537 2.764 . S
C566 O550 1.239 . S
C566 O551 1.263 . S
C566 C560 1.504 . S
C567 O552 1.236 . S
C567 O553 1.257 . S
H568 C541 0.932 . S
H569 C542 0.930 . S
H570 C543 0.932 . S
H571 C544 0.929 . S
H572 C562 0.932 . S
H573 C563 0.930 . S
H574 C564 0.932 . S
H575 C565 0.929 . S
Tb576 C585 2.764 . S
Tb576 O586 2.325 . S
Tb576 O589 2.303 . S
Tb576 O593 2.322 . S
Tb576 O594 2.349 . S
Tb576 O597 2.415 . S
Tb576 O598 2.399 . S
Tb577 O587 2.322 . S
Tb577 O588 2.349 . S
Tb577 O590 2.415 1_554 S
Tb577 O591 2.399 1_554 S
Tb577 O592 2.325 . S
Tb577 O595 2.303 . S
Tb577 C606 2.764 1_554 S
C578 O594 1.261 . S
C578 O595 1.257 . S
C579 C582 1.358 . S
C579 C583 1.332 . S
C579 C585 1.504 . S
C580 C581 1.373 . S
C580 C584 1.308 . S
C581 C580 1.373 . S
C581 C582 1.429 . S
C581 H608 0.932 . S
C582 C579 1.358 . S
C582 C581 1.429 . S
C582 H609 0.930 . S
C583 C579 1.332 . S
C583 C584 1.394 . S
C583 H610 0.932 . S
C584 C580 1.308 . S
C584 C583 1.394 . S
C584 H611 0.929 . S
C585 Tb576 2.764 . S
C585 C579 1.504 . S
C585 O597 1.239 . S
C585 O598 1.263 . S
O586 Tb576 2.325 . S
O586 C596 1.236 . S
O587 Tb577 2.322 . S
O587 C596 1.257 . S
O588 Tb577 2.349 . S
O588 C599 1.261 . S
O589 Tb576 2.303 . S
O589 C599 1.257 . S
O590 Tb577 2.415 1_556 S
O590 C606 1.239 . S
O591 Tb577 2.399 1_556 S
O591 C606 1.263 . S
O592 Tb577 2.325 . S
O592 C607 1.241 . S
O593 Tb576 2.322 . S
O593 C607 1.257 . S
O594 Tb576 2.349 . S
O594 C578 1.261 . S
O595 Tb577 2.303 . S
O595 C578 1.257 . S
C596 O586 1.236 . S
C596 O587 1.257 . S
O597 Tb576 2.415 . S
O597 C585 1.239 . S
O598 Tb576 2.399 . S
O598 C585 1.263 . S
C599 O588 1.261 . S
C599 O589 1.257 . S
C600 C603 1.358 . S
C600 C604 1.332 . S
C600 C606 1.504 . S
C601 C602 1.373 . S
C601 C605 1.308 . S
C602 C601 1.373 . S
C602 C603 1.429 . S
C602 H612 0.932 . S
C603 C600 1.358 . S
C603 C602 1.429 . S
C603 H613 0.930 . S
C604 C600 1.332 . S
C604 C605 1.394 . S
C604 H614 0.932 . S
C605 C601 1.308 . S
C605 C604 1.394 . S
C605 H615 0.929 . S
C606 Tb577 2.764 1_556 S
C606 O590 1.239 . S
C606 O591 1.263 . S
C606 C600 1.504 . S
C607 O592 1.241 . S
C607 O593 1.257 . S
H608 C581 0.932 . S
H609 C582 0.930 . S
H610 C583 0.932 . S
H611 C584 0.929 . S
H612 C602 0.932 . S
H613 C603 0.930 . S
H614 C604 0.932 . S
H615 C605 0.929 . S
Tb616 C625 2.764 . S
Tb616 O626 2.325 . S
Tb616 O629 2.303 . S
Tb616 O633 2.322 . S
Tb616 O634 2.349 . S
Tb616 O637 2.415 . S
Tb616 O638 2.399 . S
Tb617 O627 2.322 . S
Tb617 O628 2.349 . S
Tb617 O630 2.415 . S
Tb617 O631 2.399 . S
Tb617 O632 2.325 . S
Tb617 O635 2.303 . S
Tb617 C646 2.764 . S
C618 O634 1.261 . S
C618 O635 1.257 . S
C619 C622 1.358 . S
C619 C623 1.332 . S
C619 C625 1.504 . S
C620 C621 1.373 . S
C620 C624 1.308 . S
C621 C620 1.373 . S
C621 C622 1.429 . S
C621 H648 0.932 . S
C622 C619 1.358 . S
C622 C621 1.429 . S
C622 H649 0.930 . S
C623 C619 1.332 . S
C623 C624 1.394 . S
C623 H650 0.932 . S
C624 C620 1.308 . S
C624 C623 1.394 . S
C624 H651 0.929 . S
C625 Tb616 2.764 . S
C625 C619 1.504 . S
C625 O637 1.239 . S
C625 O638 1.263 . S
O626 Tb616 2.325 . S
O626 C636 1.236 . S
O627 Tb617 2.322 . S
O627 C636 1.257 . S
O628 Tb617 2.349 . S
O628 C639 1.261 . S
O629 Tb616 2.303 . S
O629 C639 1.257 . S
O630 Tb617 2.415 . S
O630 C646 1.239 . S
O631 Tb617 2.399 . S
O631 C646 1.263 . S
O632 Tb617 2.325 . S
O632 C647 1.236 . S
O633 Tb616 2.322 . S
O633 C647 1.257 . S
O634 Tb616 2.349 . S
O634 C618 1.261 . S
O635 Tb617 2.303 . S
O635 C618 1.257 . S
C636 O626 1.236 . S
C636 O627 1.257 . S
O637 Tb616 2.415 . S
O637 C625 1.239 . S
O638 Tb616 2.399 . S
O638 C625 1.263 . S
C639 O628 1.261 . S
C639 O629 1.257 . S
C640 C643 1.358 . S
C640 C644 1.332 . S
C640 C646 1.504 . S
C641 C642 1.373 . S
C641 C645 1.308 . S
C642 C641 1.373 . S
C642 C643 1.429 . S
C642 H652 0.932 . S
C643 C640 1.358 . S
C643 C642 1.429 . S
C643 H653 0.930 . S
C644 C640 1.332 . S
C644 C645 1.394 . S
C644 H654 0.932 . S
C645 C641 1.308 . S
C645 C644 1.394 . S
C645 H655 0.929 . S
C646 Tb617 2.764 . S
C646 O630 1.239 . S
C646 O631 1.263 . S
C646 C640 1.504 . S
C647 O632 1.236 . S
C647 O633 1.257 . S
H648 C621 0.932 . S
H649 C622 0.930 . S
H650 C623 0.932 . S
H651 C624 0.929 . S
H652 C642 0.932 . S
H653 C643 0.930 . S
H654 C644 0.932 . S
H655 C645 0.929 . S
Tb656 C665 2.764 . S
Tb656 O666 2.325 . S
Tb656 O669 2.303 . S
Tb656 O673 2.322 . S
Tb656 O674 2.349 . S
Tb656 O677 2.415 . S
Tb656 O678 2.399 . S
Tb657 O667 2.322 . S
Tb657 O668 2.349 . S
Tb657 O670 2.415 1_554 S
Tb657 O671 2.399 1_554 S
Tb657 O672 2.325 . S
Tb657 O675 2.303 . S
Tb657 C686 2.764 1_554 S
C658 O674 1.261 . S
C658 O675 1.257 . S
C659 C662 1.358 . S
C659 C663 1.332 . S
C659 C665 1.504 . S
C660 C661 1.373 . S
C660 C664 1.308 . S
C661 C660 1.373 . S
C661 C662 1.429 . S
C661 H688 0.932 . S
C662 C659 1.358 . S
C662 C661 1.429 . S
C662 H689 0.930 . S
C663 C659 1.332 . S
C663 C664 1.394 . S
C663 H690 0.932 . S
C664 C660 1.308 . S
C664 C663 1.394 . S
C664 H691 0.929 . S
C665 Tb656 2.764 . S
C665 C659 1.504 . S
C665 O677 1.239 . S
C665 O678 1.263 . S
O666 Tb656 2.325 . S
O666 C676 1.236 . S
O667 Tb657 2.322 . S
O667 C676 1.257 . S
O668 Tb657 2.349 . S
O668 C679 1.261 . S
O669 Tb656 2.303 . S
O669 C679 1.257 . S
O670 Tb657 2.415 1_556 S
O670 C686 1.239 . S
O671 Tb657 2.399 1_556 S
O671 C686 1.263 . S
O672 Tb657 2.325 . S
O672 C687 1.236 . S
O673 Tb656 2.322 . S
O673 C687 1.257 . S
O674 Tb656 2.349 . S
O674 C658 1.261 . S
O675 Tb657 2.303 . S
O675 C658 1.257 . S
C676 O666 1.236 . S
C676 O667 1.257 . S
O677 Tb656 2.415 . S
O677 C665 1.239 . S
O678 Tb656 2.399 . S
O678 C665 1.263 . S
C679 O668 1.261 . S
C679 O669 1.257 . S
C680 C683 1.358 . S
C680 C684 1.332 . S
C680 C686 1.504 . S
C681 C682 1.373 . S
C681 C685 1.308 . S
C682 C681 1.373 . S
C682 C683 1.429 . S
C682 H692 0.932 . S
C683 C680 1.358 . S
C683 C682 1.429 . S
C683 H693 0.930 . S
C684 C680 1.332 . S
C684 C685 1.394 . S
C684 H694 0.932 . S
C685 C681 1.308 . S
C685 C684 1.394 . S
C685 H695 0.929 . S
C686 Tb657 2.764 1_556 S
C686 O670 1.239 . S
C686 O671 1.263 . S
C686 C680 1.504 . S
C687 O672 1.236 . S
C687 O673 1.257 . S
H688 C661 0.932 . S
H689 C662 0.930 . S
H690 C663 0.932 . S
H691 C664 0.929 . S
H692 C682 0.932 . S
H693 C683 0.930 . S
H694 C684 0.932 . S
H695 C685 0.929 . S
Tb696 C705 2.764 . S
Tb696 O706 2.325 . S
Tb696 O709 2.303 . S
Tb696 O713 2.322 . S
Tb696 O714 2.349 . S
Tb696 O717 2.415 . S
Tb696 O718 2.399 . S
Tb697 O707 2.322 . S
Tb697 O708 2.349 . S
Tb697 O710 2.415 . S
Tb697 O711 2.399 . S
Tb697 O712 2.325 . S
Tb697 O715 2.303 . S
Tb697 C726 2.764 . S
C698 O714 1.261 . S
C698 O715 1.257 . S
C699 C702 1.358 . S
C699 C703 1.332 . S
C699 C705 1.504 . S
C700 C701 1.373 . S
C700 C704 1.308 . S
C701 C700 1.373 . S
C701 C702 1.429 . S
C701 H728 0.932 . S
C702 C699 1.358 . S
C702 C701 1.429 . S
C702 H729 0.930 . S
C703 C699 1.332 . S
C703 C704 1.394 . S
C703 H730 0.932 . S
C704 C700 1.308 . S
C704 C703 1.394 . S
C704 H731 0.929 . S
C705 Tb696 2.764 . S
C705 C699 1.504 . S
C705 O717 1.239 . S
C705 O718 1.263 . S
O706 Tb696 2.325 . S
O706 C716 1.236 . S
O707 Tb697 2.322 . S
O707 C716 1.257 . S
O708 Tb697 2.349 . S
O708 C719 1.261 . S
O709 Tb696 2.303 . S
O709 C719 1.257 . S
O710 Tb697 2.415 . S
O710 C726 1.239 . S
O711 Tb697 2.399 . S
O711 C726 1.263 . S
O712 Tb697 2.325 . S
O712 C727 1.236 . S
O713 Tb696 2.322 . S
O713 C727 1.257 . S
O714 Tb696 2.349 . S
O714 C698 1.261 . S
O715 Tb697 2.303 . S
O715 C698 1.257 . S
C716 O706 1.236 . S
C716 O707 1.257 . S
O717 Tb696 2.415 . S
O717 C705 1.239 . S
O718 Tb696 2.399 . S
O718 C705 1.263 . S
C719 O708 1.261 . S
C719 O709 1.257 . S
C720 C723 1.358 . S
C720 C724 1.332 . S
C720 C726 1.504 . S
C721 C722 1.373 . S
C721 C725 1.308 . S
C722 C721 1.373 . S
C722 C723 1.429 . S
C722 H732 0.932 . S
C723 C720 1.358 . S
C723 C722 1.429 . S
C723 H733 0.930 . S
C724 C720 1.332 . S
C724 C725 1.394 . S
C724 H734 0.932 . S
C725 C721 1.308 . S
C725 C724 1.394 . S
C725 H735 0.929 . S
C726 Tb697 2.764 . S
C726 O710 1.239 . S
C726 O711 1.263 . S
C726 C720 1.504 . S
C727 O712 1.236 . S
C727 O713 1.257 . S
H728 C701 0.932 . S
H729 C702 0.930 . S
H730 C703 0.932 . S
H731 C704 0.929 . S
H732 C722 0.932 . S
H733 C723 0.930 . S
H734 C724 0.932 . S
H735 C725 0.929 . S
Tb736 C745 2.764 . S
Tb736 O746 2.325 . S
Tb736 O749 2.303 . S
Tb736 O753 2.322 . S
Tb736 O754 2.349 . S
Tb736 O757 2.415 . S
Tb736 O758 2.399 . S
Tb737 O747 2.322 . S
Tb737 O748 2.349 . S
Tb737 O750 2.415 . S
Tb737 O751 2.399 . S
Tb737 O752 2.325 . S
Tb737 O755 2.303 . S
Tb737 C766 2.764 . S
C738 O754 1.261 . S
C738 O755 1.257 . S
C739 C742 1.358 . S
C739 C743 1.332 1_455 S
C739 C745 1.504 . S
C740 C741 1.373 1_655 S
C740 C744 1.308 . S
C741 C740 1.373 1_455 S
C741 C742 1.429 . S
C741 H768 0.932 . S
C742 C739 1.358 . S
C742 C741 1.429 . S
C742 H769 0.930 . S
C743 C739 1.332 1_655 S
C743 C744 1.394 . S
C743 H770 0.932 . S
C744 C740 1.308 . S
C744 C743 1.394 . S
C744 H771 0.929 . S
C745 Tb736 2.764 . S
C745 C739 1.504 . S
C745 O757 1.239 . S
C745 O758 1.263 . S
O746 Tb736 2.325 . S
O746 C756 1.236 . S
O747 Tb737 2.322 . S
O747 C756 1.257 . S
O748 Tb737 2.349 . S
O748 C759 1.261 1_455 S
O749 Tb736 2.303 . S
O749 C759 1.257 1_455 S
O750 Tb737 2.415 . S
O750 C766 1.239 . S
O751 Tb737 2.399 . S
O751 C766 1.263 . S
O752 Tb737 2.325 . S
O752 C767 1.236 . S
O753 Tb736 2.322 . S
O753 C767 1.257 . S
O754 Tb736 2.349 . S
O754 C738 1.261 . S
O755 Tb737 2.303 . S
O755 C738 1.257 . S
C756 O746 1.236 . S
C756 O747 1.257 . S
O757 Tb736 2.415 . S
O757 C745 1.239 . S
O758 Tb736 2.399 . S
O758 C745 1.263 . S
C759 O748 1.261 1_655 S
C759 O749 1.257 1_655 S
C760 C763 1.358 . S
C760 C764 1.332 . S
C760 C766 1.504 . S
C761 C762 1.373 . S
C761 C765 1.308 . S
C762 C761 1.373 . S
C762 C763 1.429 . S
C762 H772 0.932 . S
C763 C760 1.358 . S
C763 C762 1.429 . S
C763 H773 0.930 . S
C764 C760 1.332 . S
C764 C765 1.394 . S
C764 H774 0.932 . S
C765 C761 1.308 . S
C765 C764 1.394 . S
C765 H775 0.929 . S
C766 Tb737 2.764 . S
C766 O750 1.239 . S
C766 O751 1.263 . S
C766 C760 1.504 . S
C767 O752 1.236 . S
C767 O753 1.257 . S
H768 C741 0.932 . S
H769 C742 0.930 . S
H770 C743 0.932 . S
H771 C744 0.929 . S
H772 C762 0.932 . S
H773 C763 0.930 . S
H774 C764 0.932 . S
H775 C765 0.929 . S
Tb776 C785 2.764 . S
Tb776 O786 2.325 . S
Tb776 O789 2.303 . S
Tb776 O793 2.322 . S
Tb776 O794 2.349 . S
Tb776 O797 2.415 . S
Tb776 O798 2.399 . S
Tb777 O787 2.322 . S
Tb777 O788 2.349 . S
Tb777 O790 2.415 . S
Tb777 O791 2.399 . S
Tb777 O792 2.325 . S
Tb777 O795 2.303 . S
Tb777 C806 2.764 . S
C778 O794 1.261 . S
C778 O795 1.257 . S
C779 C782 1.358 . S
C779 C783 1.332 . S
C779 C785 1.504 . S
C780 C781 1.373 . S
C780 C784 1.308 . S
C781 C780 1.373 . S
C781 C782 1.429 . S
C781 H808 0.932 . S
C782 C779 1.358 . S
C782 C781 1.429 . S
C782 H809 0.930 . S
C783 C779 1.332 . S
C783 C784 1.394 . S
C783 H810 0.932 . S
C784 C780 1.308 . S
C784 C783 1.394 . S
C784 H811 0.929 . S
C785 Tb776 2.764 . S
C785 C779 1.504 . S
C785 O797 1.239 . S
C785 O798 1.263 . S
O786 Tb776 2.325 . S
O786 C796 1.236 . S
O787 Tb777 2.322 . S
O787 C796 1.257 . S
O788 Tb777 2.349 . S
O788 C799 1.261 . S
O789 Tb776 2.303 . S
O789 C799 1.257 . S
O790 Tb777 2.415 . S
O790 C806 1.239 . S
O791 Tb777 2.399 . S
O791 C806 1.263 . S
O792 Tb777 2.325 . S
O792 C807 1.236 . S
O793 Tb776 2.322 . S
O793 C807 1.257 . S
O794 Tb776 2.349 . S
O794 C778 1.261 . S
O795 Tb777 2.303 . S
O795 C778 1.257 . S
C796 O786 1.236 . S
C796 O787 1.257 . S
O797 Tb776 2.415 . S
O797 C785 1.239 . S
O798 Tb776 2.399 . S
O798 C785 1.263 . S
C799 O788 1.261 . S
C799 O789 1.257 . S
C800 C803 1.358 . S
C800 C804 1.332 . S
C800 C806 1.504 . S
C801 C802 1.373 . S
C801 C805 1.308 . S
C802 C801 1.373 . S
C802 C803 1.429 . S
C802 H812 0.932 . S
C803 C800 1.358 . S
C803 C802 1.429 . S
C803 H813 0.930 . S
C804 C800 1.332 . S
C804 C805 1.394 . S
C804 H814 0.932 . S
C805 C801 1.308 . S
C805 C804 1.394 . S
C805 H815 0.929 . S
C806 Tb777 2.764 . S
C806 O790 1.239 . S
C806 O791 1.263 . S
C806 C800 1.504 . S
C807 O792 1.236 . S
C807 O793 1.257 . S
H808 C781 0.932 . S
H809 C782 0.930 . S
H810 C783 0.932 . S
H811 C784 0.929 . S
H812 C802 0.932 . S
H813 C803 0.930 . S
H814 C804 0.932 . S
H815 C805 0.929 . S
Tb816 C825 2.764 . S
Tb816 O826 2.325 . S
Tb816 O829 2.303 . S
Tb816 O833 2.322 . S
Tb816 O834 2.349 . S
Tb816 O837 2.415 . S
Tb816 O838 2.399 . S
Tb817 O827 2.322 . S
Tb817 O828 2.349 . S
Tb817 O830 2.415 . S
Tb817 O831 2.399 . S
Tb817 O832 2.325 . S
Tb817 O835 2.303 . S
Tb817 C846 2.764 . S
C818 O834 1.261 . S
C818 O835 1.257 . S
C819 C822 1.358 . S
C819 C823 1.332 . S
C819 C825 1.504 . S
C820 C821 1.373 . S
C820 C824 1.308 . S
C821 C820 1.373 . S
C821 C822 1.429 . S
C821 H848 0.932 . S
C822 C819 1.358 . S
C822 C821 1.429 . S
C822 H849 0.930 . S
C823 C819 1.332 . S
C823 C824 1.394 . S
C823 H850 0.932 . S
C824 C820 1.308 . S
C824 C823 1.394 . S
C824 H851 0.929 . S
C825 Tb816 2.764 . S
C825 C819 1.504 . S
C825 O837 1.239 . S
C825 O838 1.263 . S
O826 Tb816 2.325 . S
O826 C836 1.236 . S
O827 Tb817 2.322 . S
O827 C836 1.257 . S
O828 Tb817 2.349 . S
O828 C839 1.261 . S
O829 Tb816 2.303 . S
O829 C839 1.257 . S
O830 Tb817 2.415 . S
O830 C846 1.239 . S
O831 Tb817 2.399 . S
O831 C846 1.263 . S
O832 Tb817 2.325 . S
O832 C847 1.236 . S
O833 Tb816 2.322 . S
O833 C847 1.257 . S
O834 Tb816 2.349 . S
O834 C818 1.261 . S
O835 Tb817 2.303 . S
O835 C818 1.257 . S
C836 O826 1.236 . S
C836 O827 1.257 . S
O837 Tb816 2.415 . S
O837 C825 1.239 . S
O838 Tb816 2.399 . S
O838 C825 1.263 . S
C839 O828 1.261 . S
C839 O829 1.257 . S
C840 C843 1.358 . S
C840 C844 1.332 . S
C840 C846 1.504 . S
C841 C842 1.373 . S
C841 C845 1.308 . S
C842 C841 1.373 . S
C842 C843 1.429 . S
C842 H852 0.932 . S
C843 C840 1.358 . S
C843 C842 1.429 . S
C843 H853 0.930 . S
C844 C840 1.332 . S
C844 C845 1.394 . S
C844 H854 0.932 . S
C845 C841 1.308 . S
C845 C844 1.394 . S
C845 H855 0.929 . S
C846 Tb817 2.764 . S
C846 O830 1.239 . S
C846 O831 1.263 . S
C846 C840 1.504 . S
C847 O832 1.236 . S
C847 O833 1.257 . S
H848 C821 0.932 . S
H849 C822 0.930 . S
H850 C823 0.932 . S
H851 C824 0.929 . S
H852 C842 0.932 . S
H853 C843 0.930 . S
H854 C844 0.932 . S
H855 C845 0.929 . S
Tb856 C865 2.764 . S
Tb856 O866 2.325 . S
Tb856 O869 2.303 . S
Tb856 O873 2.322 . S
Tb856 O874 2.349 . S
Tb856 O877 2.415 . S
Tb856 O878 2.399 . S
Tb857 O867 2.322 . S
Tb857 O868 2.349 . S
Tb857 O870 2.415 . S
Tb857 O871 2.399 . S
Tb857 O872 2.325 . S
Tb857 O875 2.303 . S
Tb857 C886 2.764 . S
C858 O874 1.261 . S
C858 O875 1.257 . S
C859 C862 1.358 . S
C859 C863 1.332 . S
C859 C865 1.504 . S
C860 C861 1.373 . S
C860 C864 1.308 . S
C861 C860 1.373 . S
C861 C862 1.429 . S
C861 H888 0.932 . S
C862 C859 1.358 . S
C862 C861 1.429 . S
C862 H889 0.930 . S
C863 C859 1.332 . S
C863 C864 1.394 . S
C863 H890 0.932 . S
C864 C860 1.308 . S
C864 C863 1.394 . S
C864 H891 0.929 . S
C865 Tb856 2.764 . S
C865 C859 1.504 . S
C865 O877 1.239 . S
C865 O878 1.263 . S
O866 Tb856 2.325 . S
O866 C876 1.236 . S
O867 Tb857 2.322 . S
O867 C876 1.257 . S
O868 Tb857 2.349 . S
O868 C879 1.261 . S
O869 Tb856 2.303 . S
O869 C879 1.257 . S
O870 Tb857 2.415 . S
O870 C886 1.239 . S
O871 Tb857 2.399 . S
O871 C886 1.263 . S
O872 Tb857 2.325 . S
O872 C887 1.236 . S
O873 Tb856 2.322 . S
O873 C887 1.257 . S
O874 Tb856 2.349 . S
O874 C858 1.261 . S
O875 Tb857 2.303 . S
O875 C858 1.257 . S
C876 O866 1.236 . S
C876 O867 1.257 . S
O877 Tb856 2.415 . S
O877 C865 1.239 . S
O878 Tb856 2.399 . S
O878 C865 1.263 . S
C879 O868 1.261 . S
C879 O869 1.257 . S
C880 C883 1.358 . S
C880 C884 1.332 . S
C880 C886 1.504 . S
C881 C882 1.373 . S
C881 C885 1.308 . S
C882 C881 1.373 . S
C882 C883 1.429 . S
C882 H892 0.932 . S
C883 C880 1.358 . S
C883 C882 1.429 . S
C883 H893 0.930 . S
C884 C880 1.332 . S
C884 C885 1.394 . S
C884 H894 0.932 . S
C885 C881 1.308 . S
C885 C884 1.394 . S
C885 H895 0.929 . S
C886 Tb857 2.764 . S
C886 O870 1.239 . S
C886 O871 1.263 . S
C886 C880 1.504 . S
C887 O872 1.236 . S
C887 O873 1.257 . S
H888 C861 0.932 . S
H889 C862 0.930 . S
H890 C863 0.932 . S
H891 C864 0.929 . S
H892 C882 0.932 . S
H893 C883 0.930 . S
H894 C884 0.932 . S
H895 C885 0.929 . S
Tb896 C905 2.764 . S
Tb896 O906 2.325 . S
Tb896 O909 2.303 . S
Tb896 O913 2.322 . S
Tb896 O914 2.349 . S
Tb896 O917 2.415 . S
Tb896 O918 2.399 . S
Tb897 O907 2.322 . S
Tb897 O908 2.349 . S
Tb897 O910 2.415 . S
Tb897 O911 2.399 . S
Tb897 O912 2.325 . S
Tb897 O915 2.303 . S
Tb897 C926 2.764 . S
C898 O914 1.261 . S
C898 O915 1.257 . S
C899 C902 1.358 . S
C899 C903 1.332 . S
C899 C905 1.504 . S
C900 C901 1.373 . S
C900 C904 1.308 . S
C901 C900 1.373 . S
C901 C902 1.429 . S
C901 H928 0.932 . S
C902 C899 1.358 . S
C902 C901 1.429 . S
C902 H929 0.930 . S
C903 C899 1.332 . S
C903 C904 1.394 . S
C903 H930 0.932 . S
C904 C900 1.308 . S
C904 C903 1.394 . S
C904 H931 0.929 . S
C905 Tb896 2.764 . S
C905 C899 1.504 . S
C905 O917 1.239 . S
C905 O918 1.263 . S
O906 Tb896 2.325 . S
O906 C916 1.236 . S
O907 Tb897 2.322 . S
O907 C916 1.257 . S
O908 Tb897 2.349 . S
O908 C919 1.261 . S
O909 Tb896 2.303 . S
O909 C919 1.257 . S
O910 Tb897 2.415 . S
O910 C926 1.239 . S
O911 Tb897 2.399 . S
O911 C926 1.263 . S
O912 Tb897 2.325 . S
O912 C927 1.236 . S
O913 Tb896 2.322 . S
O913 C927 1.257 . S
O914 Tb896 2.349 . S
O914 C898 1.261 . S
O915 Tb897 2.303 . S
O915 C898 1.257 . S
C916 O906 1.236 . S
C916 O907 1.257 . S
O917 Tb896 2.415 . S
O917 C905 1.239 . S
O918 Tb896 2.399 . S
O918 C905 1.263 . S
C919 O908 1.261 . S
C919 O909 1.257 . S
C920 C923 1.358 . S
C920 C924 1.332 . S
C920 C926 1.504 . S
C921 C922 1.373 . S
C921 C925 1.308 . S
C922 C921 1.373 . S
C922 C923 1.429 . S
C922 H932 0.932 . S
C923 C920 1.358 . S
C923 C922 1.429 . S
C923 H933 0.930 . S
C924 C920 1.332 . S
C924 C925 1.394 . S
C924 H934 0.932 . S
C925 C921 1.308 . S
C925 C924 1.394 . S
C925 H935 0.929 . S
C926 Tb897 2.764 . S
C926 O910 1.239 . S
C926 O911 1.263 . S
C926 C920 1.504 . S
C927 O912 1.236 . S
C927 O913 1.257 . S
H928 C901 0.932 . S
H929 C902 0.930 . S
H930 C903 0.932 . S
H931 C904 0.929 . S
H932 C922 0.932 . S
H933 C923 0.930 . S
H934 C924 0.932 . S
H935 C925 0.929 . S
Tb936 C945 2.764 1_455 S
Tb936 O946 2.325 . S
Tb936 O949 2.303 . S
Tb936 O953 2.322 . S
Tb936 O954 2.349 . S
Tb936 O957 2.415 1_455 S
Tb936 O958 2.399 1_455 S
Tb937 O947 2.322 . S
Tb937 O948 2.349 1_554 S
Tb937 O950 2.415 . S
Tb937 O951 2.399 . S
Tb937 O952 2.325 . S
Tb937 O955 2.303 . S
Tb937 C966 2.764 . S
C938 O954 1.261 . S
C938 O955 1.257 . S
C939 C942 1.358 . S
C939 C943 1.332 . S
C939 C945 1.504 . S
C940 C941 1.373 . S
C940 C944 1.308 . S
C941 C940 1.373 . S
C941 C942 1.429 . S
C941 H968 0.932 . S
C942 C939 1.358 . S
C942 C941 1.429 . S
C942 H969 0.930 . S
C943 C939 1.332 . S
C943 C944 1.394 . S
C943 H970 0.932 . S
C944 C940 1.308 . S
C944 C943 1.394 . S
C944 H971 0.929 . S
C945 Tb936 2.764 1_655 S
C945 C939 1.504 . S
C945 O957 1.239 . S
C945 O958 1.263 . S
O946 Tb936 2.325 . S
O946 C956 1.236 . S
O947 Tb937 2.322 . S
O947 C956 1.257 . S
O948 Tb937 2.349 1_556 S
O948 C959 1.261 . S
O949 Tb936 2.303 . S
O949 C959 1.257 1_554 S
O950 Tb937 2.415 . S
O950 C966 1.239 . S
O951 Tb937 2.399 . S
O951 C966 1.263 . S
O952 Tb937 2.325 . S
O952 C967 1.236 . S
O953 Tb936 2.322 . S
O953 C967 1.257 . S
O954 Tb936 2.349 . S
O954 C938 1.261 . S
O955 Tb937 2.303 . S
O955 C938 1.257 . S
C956 O946 1.236 . S
C956 O947 1.257 . S
O957 Tb936 2.415 1_655 S
O957 C945 1.239 . S
O958 Tb936 2.399 1_655 S
O958 C945 1.263 . S
C959 O948 1.261 . S
C959 O949 1.257 1_556 S
C960 C963 1.358 1_554 S
C960 C964 1.332 . S
C960 C966 1.504 . S
C961 C962 1.373 1_554 S
C961 C965 1.308 . S
C962 C961 1.373 1_556 S
C962 C963 1.429 . S
C962 H972 0.932 . S
C963 C960 1.358 1_556 S
C963 C962 1.429 . S
C963 H973 0.930 . S
C964 C960 1.332 . S
C964 C965 1.394 . S
C964 H974 0.932 . S
C965 C961 1.308 . S
C965 C964 1.394 . S
C965 H975 0.929 . S
C966 Tb937 2.764 . S
C966 O950 1.239 . S
C966 O951 1.263 . S
C966 C960 1.504 . S
C967 O952 1.236 . S
C967 O953 1.257 . S
H968 C941 0.932 . S
H969 C942 0.930 . S
H970 C943 0.932 . S
H971 C944 0.929 . S
H972 C962 0.932 . S
H973 C963 0.930 . S
H974 C964 0.932 . S
H975 C965 0.929 . S
C976 C977 1.387 1_554 S
C976 H980 0.950 . S
C976 C985 1.390 . S
C977 C976 1.387 1_556 S
C977 C979 1.387 . S
H978 C985 0.950 . S
C979 C977 1.387 . S
C979 C981 1.390 . S
C979 H983 0.950 . S
H980 C976 0.950 . S
C981 C979 1.390 . S
C981 C982 1.387 1_556 S
C981 H984 0.950 . S
C982 C981 1.387 1_554 S
C982 C985 1.387 . S
H983 C979 0.950 . S
H984 C981 0.950 . S
C985 C976 1.390 . S
C985 H978 0.950 . S
C985 C982 1.387 . S
C986 C987 1.387 . S
C986 H990 0.950 . S
C986 C995 1.390 . S
C987 C986 1.387 . S
C987 C989 1.387 . S
H988 C995 0.950 . S
C989 C987 1.387 . S
C989 C991 1.390 . S
C989 H993 0.950 . S
H990 C986 0.950 . S
C991 C989 1.390 . S
C991 C992 1.387 . S
C991 H994 0.950 . S
C992 C991 1.387 . S
C992 C995 1.387 . S
H993 C989 0.950 . S
H994 C991 0.950 . S
C995 C986 1.390 . S
C995 H988 0.950 . S
C995 C992 1.387 . S
C996 C997 1.387 . S
C996 H1000 0.950 . S
C996 C1005 1.390 . S
C997 C996 1.387 . S
C997 C999 1.387 . S
H998 C1005 0.950 . S
C999 C997 1.387 . S
C999 C1001 1.390 . S
C999 H1003 0.950 . S
H1000 C996 0.950 . S
C1001 C999 1.390 . S
C1001 C1002 1.387 . S
C1001 H1004 0.950 . S
C1002 C1001 1.387 . S
C1002 C1005 1.387 . S
H1003 C999 0.950 . S
H1004 C1001 0.950 . S
C1005 C996 1.390 . S
C1005 H998 0.950 . S
C1005 C1002 1.387 . S
C1006 C1007 1.387 . S
C1006 H1010 0.950 . S
C1006 C1015 1.390 . S
C1007 C1006 1.387 . S
C1007 C1009 1.387 . S
H1008 C1015 0.950 . S
C1009 C1007 1.387 . S
C1009 C1011 1.390 . S
C1009 H1013 0.950 . S
H1010 C1006 0.950 . S
C1011 C1009 1.390 . S
C1011 C1012 1.387 . S
C1011 H1014 0.950 . S
C1012 C1011 1.387 . S
C1012 C1015 1.387 . S
H1013 C1009 0.950 . S
H1014 C1011 0.950 . S
C1015 C1006 1.390 . S
C1015 H1008 0.950 . S
C1015 C1012 1.387 . S
C1016 C1017 1.387 . S
C1016 H1020 0.950 . S
C1016 C1025 1.390 . S
C1017 C1016 1.387 . S
C1017 C1019 1.387 . S
H1018 C1025 0.950 . S
C1019 C1017 1.387 . S
C1019 C1021 1.390 . S
C1019 H1023 0.950 . S
H1020 C1016 0.950 . S
C1021 C1019 1.390 . S
C1021 C1022 1.387 . S
C1021 H1024 0.950 . S
C1022 C1021 1.387 . S
C1022 C1025 1.387 . S
H1023 C1019 0.950 . S
H1024 C1021 0.950 . S
C1025 C1016 1.390 . S
C1025 H1018 0.950 . S
C1025 C1022 1.387 . S
C1026 C1027 1.387 . S
C1026 H1030 0.950 . S
C1026 C1035 1.390 . S
C1027 C1026 1.387 . S
C1027 C1029 1.387 . S
H1028 C1035 0.950 . S
C1029 C1027 1.387 . S
C1029 C1031 1.390 . S
C1029 H1033 0.950 . S
H1030 C1026 0.950 . S
C1031 C1029 1.390 . S
C1031 C1032 1.387 . S
C1031 H1034 0.950 . S
C1032 C1031 1.387 . S
C1032 C1035 1.387 . S
H1033 C1029 0.950 . S
H1034 C1031 0.950 . S
C1035 C1026 1.390 . S
C1035 H1028 0.950 . S
C1035 C1032 1.387 . S
C1036 C1037 1.387 . S
C1036 H1040 0.950 . S
C1036 C1045 1.390 . S
C1037 C1036 1.387 . S
C1037 C1039 1.387 . S
H1038 C1045 0.950 . S
C1039 C1037 1.387 . S
C1039 C1041 1.390 . S
C1039 H1043 0.950 . S
H1040 C1036 0.950 . S
C1041 C1039 1.390 . S
C1041 C1042 1.387 . S
C1041 H1044 0.950 . S
C1042 C1041 1.387 . S
C1042 C1045 1.387 . S
H1043 C1039 0.950 . S
H1044 C1041 0.950 . S
C1045 C1036 1.390 . S
C1045 H1038 0.950 . S
C1045 C1042 1.387 . S
C1046 C1047 1.387 . S
C1046 H1050 0.950 . S
C1046 C1055 1.390 . S
C1047 C1046 1.387 . S
C1047 C1049 1.387 . S
H1048 C1055 0.950 . S
C1049 C1047 1.387 . S
C1049 C1051 1.390 . S
C1049 H1053 0.950 . S
H1050 C1046 0.950 . S
C1051 C1049 1.390 . S
C1051 C1052 1.387 . S
C1051 H1054 0.950 . S
C1052 C1051 1.387 . S
C1052 C1055 1.387 . S
H1053 C1049 0.950 . S
H1054 C1051 0.950 . S
C1055 C1046 1.390 . S
C1055 H1048 0.950 . S
C1055 C1052 1.387 . S
C1056 C1057 1.387 . S
C1056 H1060 0.950 . S
C1056 C1065 1.390 1_655 S
C1057 C1056 1.387 . S
C1057 C1059 1.384 1_545 S
H1058 C1065 0.950 . S
C1059 C1057 1.384 1_565 S
C1059 C1061 1.389 1_565 S
C1059 H1063 0.955 . S
H1060 C1056 0.950 . S
C1061 C1059 1.389 1_545 S
C1061 C1062 1.387 1_655 S
C1061 H1064 0.950 1_655 S
C1062 C1061 1.387 1_455 S
C1062 C1065 1.387 . S
H1063 C1059 0.955 . S
H1064 C1061 0.950 1_455 S
C1065 C1056 1.390 1_455 S
C1065 H1058 0.950 . S
C1065 C1062 1.387 . S
C1066 C1067 1.387 . S
C1066 H1070 0.950 . S
C1066 C1075 1.390 . S
C1067 C1066 1.387 . S
C1067 C1069 1.387 . S
H1068 C1075 0.950 . S
C1069 C1067 1.387 . S
C1069 C1071 1.390 . S
C1069 H1073 0.950 . S
H1070 C1066 0.950 . S
C1071 C1069 1.390 . S
C1071 C1072 1.387 . S
C1071 H1074 0.950 . S
C1072 C1071 1.387 . S
C1072 C1075 1.387 . S
H1073 C1069 0.950 . S
H1074 C1071 0.950 . S
C1075 C1066 1.390 . S
C1075 H1068 0.950 . S
C1075 C1072 1.387 . S
C1076 C1077 1.387 . S
C1076 H1080 0.950 . S
C1076 C1085 1.390 . S
C1077 C1076 1.387 . S
C1077 C1079 1.387 . S
H1078 C1085 0.950 . S
C1079 C1077 1.387 . S
C1079 C1081 1.390 . S
C1079 H1083 0.950 . S
H1080 C1076 0.950 . S
C1081 C1079 1.390 . S
C1081 C1082 1.387 . S
C1081 H1084 0.950 1_545 S
C1082 C1081 1.387 . S
C1082 C1085 1.387 . S
H1083 C1079 0.950 . S
H1084 C1081 0.950 1_565 S
C1085 C1076 1.390 . S
C1085 H1078 0.950 . S
C1085 C1082 1.387 . S
C1086 C1087 1.387 . S
C1086 H1090 0.950 . S
C1086 C1095 1.390 . S
C1087 C1086 1.387 . S
C1087 C1089 1.387 . S
H1088 C1095 0.950 . S
C1089 C1087 1.387 . S
C1089 C1091 1.390 . S
C1089 H1093 0.950 . S
H1090 C1086 0.950 . S
C1091 C1089 1.390 . S
C1091 C1092 1.387 . S
C1091 H1094 0.950 . S
C1092 C1091 1.387 . S
C1092 C1095 1.387 . S
H1093 C1089 0.950 . S
H1094 C1091 0.950 . S
C1095 C1086 1.390 . S
C1095 H1088 0.950 . S
C1095 C1092 1.387 . S
C1096 C1097 1.387 . S
C1096 H1100 0.950 . S
C1096 C1105 1.390 . S
C1097 C1096 1.387 . S
C1097 C1099 1.387 1_545 S
H1098 C1105 0.950 . S
C1099 C1097 1.387 1_565 S
C1099 C1101 1.390 . S
C1099 H1103 0.950 . S
H1100 C1096 0.950 . S
C1101 C1099 1.390 . S
C1101 C1102 1.387 1_565 S
C1101 H1104 0.950 . S
C1102 C1101 1.387 1_545 S
C1102 C1105 1.387 . S
H1103 C1099 0.950 . S
H1104 C1101 0.950 . S
C1105 C1096 1.390 . S
C1105 H1098 0.950 . S
C1105 C1102 1.387 . S
C1106 C1107 1.387 . S
C1106 H1110 0.950 . S
C1106 C1115 1.390 . S
C1107 C1106 1.387 . S
C1107 C1109 1.387 . S
H1108 C1115 0.950 . S
C1109 C1107 1.387 . S
C1109 C1111 1.390 . S
C1109 H1113 0.950 . S
H1110 C1106 0.950 . S
C1111 C1109 1.390 . S
C1111 C1112 1.387 . S
C1111 H1114 0.950 . S
C1112 C1111 1.387 . S
C1112 C1115 1.387 . S
H1113 C1109 0.950 . S
H1114 C1111 0.950 . S
C1115 C1106 1.390 . S
C1115 H1108 0.950 . S
C1115 C1112 1.387 . S
C1116 C1117 1.387 . S
C1116 H1120 0.950 . S
C1116 C1125 1.390 . S
C1117 C1116 1.387 . S
C1117 C1119 1.387 . S
H1118 C1125 0.950 . S
C1119 C1117 1.387 . S
C1119 C1121 1.390 . S
C1119 H1123 0.950 . S
H1120 C1116 0.950 . S
C1121 C1119 1.390 . S
C1121 C1122 1.387 . S
C1121 H1124 0.950 . S
C1122 C1121 1.387 . S
C1122 C1125 1.387 . S
H1123 C1119 0.950 . S
H1124 C1121 0.950 . S
C1125 C1116 1.390 . S
C1125 H1118 0.950 . S
C1125 C1122 1.387 . S
C1126 C1127 1.387 . S
C1126 H1130 0.950 . S
C1126 C1135 1.390 . S
C1127 C1126 1.387 . S
C1127 C1129 1.387 . S
H1128 C1135 0.950 . S
C1129 C1127 1.387 . S
C1129 C1131 1.390 . S
C1129 H1133 0.950 . S
H1130 C1126 0.950 . S
C1131 C1129 1.390 . S
C1131 C1132 1.387 . S
C1131 H1134 0.950 . S
C1132 C1131 1.387 . S
C1132 C1135 1.387 . S
H1133 C1129 0.950 . S
H1134 C1131 0.950 . S
C1135 C1126 1.390 . S
C1135 H1128 0.950 . S
C1135 C1132 1.387 . S
C1136 C1137 1.408 . S
C1136 H1140 0.950 . S
C1136 C1145 1.390 . S
C1137 C1136 1.408 . S
C1137 C1139 1.348 1_565 S
H1138 C1145 0.950 . S
C1139 C1137 1.348 1_545 S
C1139 C1141 1.390 . S
C1139 H1143 0.950 . S
H1140 C1136 0.950 . S
C1141 C1139 1.390 . S
C1141 C1142 1.387 . S
C1141 H1144 0.950 . S
C1142 C1141 1.387 . S
C1142 C1145 1.387 1_545 S
H1143 C1139 0.950 . S
H1144 C1141 0.950 . S
C1145 C1136 1.390 . S
C1145 H1138 0.950 . S
C1145 C1142 1.387 1_565 S
C1146 C1147 1.387 . S
C1146 H1150 0.950 1_554 S
C1146 C1155 1.390 . S
C1147 C1146 1.387 . S
C1147 C1149 1.387 . S
H1148 C1155 0.930 1_556 S
C1149 C1147 1.387 . S
C1149 C1151 1.390 . S
C1149 H1153 0.950 . S
H1150 C1146 0.950 1_556 S
C1151 C1149 1.390 . S
C1151 C1152 1.387 . S
C1151 H1154 0.950 . S
C1152 C1151 1.387 . S
C1152 C1155 1.387 . S
H1153 C1149 0.950 . S
H1154 C1151 0.950 . S
C1155 C1146 1.390 . S
C1155 H1148 0.930 1_554 S
C1155 C1152 1.387 . S
C1156 C1157 1.387 . S
C1156 H1160 0.950 . S
C1156 C1165 1.390 . S
C1157 C1156 1.387 . S
C1157 C1159 1.387 . S
H1158 C1165 0.950 . S
C1159 C1157 1.387 . S
C1159 C1161 1.390 . S
C1159 H1163 0.950 . S
H1160 C1156 0.950 . S
C1161 C1159 1.390 . S
C1161 C1162 1.387 . S
C1161 H1164 0.950 . S
C1162 C1161 1.387 . S
C1162 C1165 1.387 . S
H1163 C1159 0.950 . S
H1164 C1161 0.950 . S
C1165 C1156 1.390 . S
C1165 H1158 0.950 . S
C1165 C1162 1.387 . S
C1166 C1167 1.387 . S
C1166 H1170 0.950 . S
C1166 C1175 1.390 . S
C1167 C1166 1.387 . S
C1167 C1169 1.387 . S
H1168 C1175 0.950 . S
C1169 C1167 1.387 . S
C1169 C1171 1.390 . S
C1169 H1173 0.950 . S
H1170 C1166 0.950 . S
C1171 C1169 1.390 . S
C1171 C1172 1.387 . S
C1171 H1174 0.950 . S
C1172 C1171 1.387 . S
C1172 C1175 1.387 . S
H1173 C1169 0.950 . S
H1174 C1171 0.950 . S
C1175 C1166 1.390 . S
C1175 H1168 0.950 . S
C1175 C1172 1.387 . S
C1176 C1177 1.387 . S
C1176 H1180 0.950 . S
C1176 C1185 1.390 . S
C1177 C1176 1.387 . S
C1177 C1179 1.387 . S
H1178 C1185 0.950 . S
C1179 C1177 1.387 . S
C1179 C1181 1.390 . S
C1179 H1183 0.950 . S
H1180 C1176 0.950 . S
C1181 C1179 1.390 . S
C1181 C1182 1.387 . S
C1181 H1184 0.950 . S
C1182 C1181 1.387 . S
C1182 C1185 1.387 . S
H1183 C1179 0.950 . S
H1184 C1181 0.950 . S
C1185 C1176 1.390 . S
C1185 H1178 0.950 . S
C1185 C1182 1.387 . S
C1186 C1187 1.387 . S
C1186 H1190 0.950 . S
C1186 C1195 1.390 . S
C1187 C1186 1.387 . S
C1187 C1189 1.387 . S
H1188 C1195 0.950 . S
C1189 C1187 1.387 . S
C1189 C1191 1.390 . S
C1189 H1193 0.950 . S
H1190 C1186 0.950 . S
C1191 C1189 1.390 . S
C1191 C1192 1.387 . S
C1191 H1194 0.950 . S
C1192 C1191 1.387 . S
C1192 C1195 1.387 . S
H1193 C1189 0.950 . S
H1194 C1191 0.950 . S
C1195 C1186 1.390 . S
C1195 H1188 0.950 . S
C1195 C1192 1.387 . S
C1196 C1197 1.387 . S
C1196 H1200 0.950 . S
C1196 C1205 1.390 . S
C1197 C1196 1.387 . S
C1197 C1199 1.387 . S
H1198 C1205 0.950 . S
C1199 C1197 1.387 . S
C1199 C1201 1.390 . S
C1199 H1203 0.950 . S
H1200 C1196 0.950 . S
C1201 C1199 1.390 . S
C1201 C1202 1.387 . S
C1201 H1204 0.950 . S
C1202 C1201 1.387 . S
C1202 C1205 1.387 . S
H1203 C1199 0.950 . S
H1204 C1201 0.950 . S
C1205 C1196 1.390 . S
C1205 H1198 0.950 . S
C1205 C1202 1.387 . S
C1206 C1207 1.387 . S
C1206 H1210 0.950 . S
C1206 C1215 1.390 . S
C1207 C1206 1.387 . S
C1207 C1209 1.387 . S
H1208 C1215 0.950 . S
C1209 C1207 1.387 . S
C1209 C1211 1.390 . S
C1209 H1213 0.950 . S
H1210 C1206 0.950 . S
C1211 C1209 1.390 . S
C1211 C1212 1.387 . S
C1211 H1214 0.950 . S
C1212 C1211 1.387 . S
C1212 C1215 1.387 . S
H1213 C1209 0.950 . S
H1214 C1211 0.950 . S
C1215 C1206 1.390 . S
C1215 H1208 0.950 . S
C1215 C1212 1.387 . S
C1216 C1217 1.387 . S
C1216 H1220 0.950 . S
C1216 C1225 1.390 . S
C1217 C1216 1.387 . S
C1217 C1219 1.387 . S
H1218 C1225 0.950 . S
C1219 C1217 1.387 . S
C1219 C1221 1.390 . S
C1219 H1223 0.950 . S
H1220 C1216 0.950 . S
C1221 C1219 1.390 . S
C1221 C1222 1.387 . S
C1221 H1224 0.950 . S
C1222 C1221 1.387 . S
C1222 C1225 1.387 . S
H1223 C1219 0.950 . S
H1224 C1221 0.950 . S
C1225 C1216 1.390 . S
C1225 H1218 0.950 . S
C1225 C1222 1.387 . S
C1226 C1227 1.387 . S
C1226 H1230 0.950 . S
C1226 C1235 1.390 . S
C1227 C1226 1.387 . S
C1227 C1229 1.387 . S
H1228 C1235 0.950 . S
C1229 C1227 1.387 . S
C1229 C1231 1.390 . S
C1229 H1233 0.950 . S
H1230 C1226 0.950 . S
C1231 C1229 1.390 . S
C1231 C1232 1.387 . S
C1231 H1234 0.950 . S
C1232 C1231 1.387 . S
C1232 C1235 1.387 . S
H1233 C1229 0.950 . S
H1234 C1231 0.950 . S
C1235 C1226 1.390 . S
C1235 H1228 0.950 . S
C1235 C1232 1.387 . S
C1236 C1237 1.387 . S
C1236 H1240 0.950 . S
C1236 C1245 1.390 . S
C1237 C1236 1.387 . S
C1237 C1239 1.387 . S
H1238 C1245 0.950 . S
C1239 C1237 1.387 . S
C1239 C1241 1.390 . S
C1239 H1243 0.950 . S
H1240 C1236 0.950 . S
C1241 C1239 1.390 . S
C1241 C1242 1.387 . S
C1241 H1244 0.950 . S
C1242 C1241 1.387 . S
C1242 C1245 1.387 . S
H1243 C1239 0.950 . S
H1244 C1241 0.950 . S
C1245 C1236 1.390 . S
C1245 H1238 0.950 . S
C1245 C1242 1.387 . S
C1246 C1247 1.387 . S
C1246 H1250 0.950 . S
C1246 C1255 1.390 . S
C1247 C1246 1.387 . S
C1247 C1249 1.387 . S
H1248 C1255 0.950 . S
C1249 C1247 1.387 . S
C1249 C1251 1.390 . S
C1249 H1253 0.950 . S
H1250 C1246 0.950 . S
C1251 C1249 1.390 . S
C1251 C1252 1.387 . S
C1251 H1254 0.950 . S
C1252 C1251 1.387 . S
C1252 C1255 1.387 . S
H1253 C1249 0.950 . S
H1254 C1251 0.950 . S
C1255 C1246 1.390 . S
C1255 H1248 0.950 . S
C1255 C1252 1.387 . S
C1256 C1257 1.387 . S
C1256 H1260 0.950 1_455 S
C1256 C1265 1.390 . S
C1257 C1256 1.387 . S
C1257 C1259 1.387 . S
H1258 C1265 0.950 1_655 S
C1259 C1257 1.387 . S
C1259 C1261 1.390 . S
C1259 H1263 0.950 . S
H1260 C1256 0.950 1_655 S
C1261 C1259 1.390 . S
C1261 C1262 1.387 . S
C1261 H1264 0.950 . S
C1262 C1261 1.387 . S
C1262 C1265 1.387 . S
H1263 C1259 0.950 . S
H1264 C1261 0.950 . S
C1265 C1256 1.390 . S
C1265 H1258 0.950 1_455 S
C1265 C1262 1.387 . S
C1266 C1267 1.387 . S
C1266 H1270 0.950 . S
C1266 C1275 1.390 . S
C1267 C1266 1.387 . S
C1267 C1269 1.387 . S
H1268 C1275 0.950 . S
C1269 C1267 1.387 . S
C1269 C1271 1.390 . S
C1269 H1273 0.950 . S
H1270 C1266 0.950 . S
C1271 C1269 1.390 . S
C1271 C1272 1.387 . S
C1271 H1274 0.950 . S
C1272 C1271 1.387 . S
C1272 C1275 1.387 . S
H1273 C1269 0.950 . S
H1274 C1271 0.950 . S
C1275 C1266 1.390 . S
C1275 H1268 0.950 . S
C1275 C1272 1.387 . S
C1276 C1277 1.387 . S
C1276 H1280 0.950 . S
C1276 C1285 1.390 . S
C1277 C1276 1.387 . S
C1277 C1279 1.387 . S
H1278 C1285 0.950 . S
C1279 C1277 1.387 . S
C1279 C1281 1.390 . S
C1279 H1283 0.950 . S
H1280 C1276 0.950 . S
C1281 C1279 1.390 . S
C1281 C1282 1.387 . S
C1281 H1284 0.950 . S
C1282 C1281 1.387 . S
C1282 C1285 1.387 . S
H1283 C1279 0.950 . S
H1284 C1281 0.950 . S
C1285 C1276 1.390 . S
C1285 H1278 0.950 . S
C1285 C1282 1.387 . S
C1286 C1287 1.387 . S
C1286 H1290 0.950 . S
C1286 C1295 1.390 . S
C1287 C1286 1.387 . S
C1287 C1289 1.387 . S
H1288 C1295 0.950 . S
C1289 C1287 1.387 . S
C1289 C1291 1.390 . S
C1289 H1293 0.950 . S
H1290 C1286 0.950 . S
C1291 C1289 1.390 . S
C1291 C1292 1.387 . S
C1291 H1294 0.950 . S
C1292 C1291 1.387 . S
C1292 C1295 1.387 . S
H1293 C1289 0.950 . S
H1294 C1291 0.950 . S
C1295 C1286 1.390 . S
C1295 H1288 0.950 . S
C1295 C1292 1.387 . S
C1296 C1297 1.387 . S
C1296 H1300 0.950 . S
C1296 C1305 1.390 . S
C1297 C1296 1.387 . S
C1297 C1299 1.387 . S
H1298 C1305 0.950 . S
C1299 C1297 1.387 . S
C1299 C1301 1.390 . S
C1299 H1303 0.950 . S
H1300 C1296 0.950 . S
C1301 C1299 1.390 . S
C1301 C1302 1.387 . S
C1301 H1304 0.961 . S
C1302 C1301 1.387 . S
C1302 C1305 1.387 . S
H1303 C1299 0.950 . S
H1304 C1301 0.961 . S
C1305 C1296 1.390 . S
C1305 H1298 0.950 . S
C1305 C1302 1.387 . S
C1306 C1307 1.387 . S
C1306 H1310 0.950 . S
C1306 C1315 1.390 . S
C1307 C1306 1.387 . S
C1307 C1309 1.387 . S
H1308 C1315 0.950 . S
C1309 C1307 1.387 . S
C1309 C1311 1.390 . S
C1309 H1313 0.950 . S
H1310 C1306 0.950 . S
C1311 C1309 1.390 . S
C1311 C1312 1.387 . S
C1311 H1314 0.950 . S
C1312 C1311 1.387 . S
C1312 C1315 1.387 . S
H1313 C1309 0.950 . S
H1314 C1311 0.950 . S
C1315 C1306 1.390 . S
C1315 H1308 0.950 . S
C1315 C1312 1.387 . S
C1316 C1317 1.387 . S
C1316 H1320 0.950 1_545 S
C1316 C1325 1.390 . S
C1317 C1316 1.387 . S
C1317 C1319 1.387 . S
H1318 C1325 0.950 . S
C1319 C1317 1.387 . S
C1319 C1321 1.390 . S
C1319 H1323 0.950 . S
H1320 C1316 0.950 1_565 S
C1321 C1319 1.390 . S
C1321 C1322 1.387 . S
C1321 H1324 0.950 . S
C1322 C1321 1.387 . S
C1322 C1325 1.387 . S
H1323 C1319 0.950 . S
H1324 C1321 0.950 . S
C1325 C1316 1.390 . S
C1325 H1318 0.950 . S
C1325 C1322 1.387 . S
C1326 C1327 1.387 . S
C1326 H1330 0.950 . S
C1326 C1335 1.390 . S
C1327 C1326 1.387 . S
C1327 C1329 1.387 . S
H1328 C1335 0.950 . S
C1329 C1327 1.387 . S
C1329 C1331 1.390 . S
C1329 H1333 0.950 . S
H1330 C1326 0.950 . S
C1331 C1329 1.390 . S
C1331 C1332 1.387 . S
C1331 H1334 0.950 . S
C1332 C1331 1.387 . S
C1332 C1335 1.387 . S
H1333 C1329 0.950 . S
H1334 C1331 0.950 . S
C1335 C1326 1.390 . S
C1335 H1328 0.950 . S
C1335 C1332 1.387 . S
C1336 C1337 1.387 . S
C1336 H1340 0.950 . S
C1336 C1345 1.390 . S
C1337 C1336 1.387 . S
C1337 C1339 1.387 . S
H1338 C1345 0.950 . S
C1339 C1337 1.387 . S
C1339 C1341 1.390 . S
C1339 H1343 0.950 . S
H1340 C1336 0.950 . S
C1341 C1339 1.390 . S
C1341 C1342 1.387 . S
C1341 H1344 0.950 . S
C1342 C1341 1.387 . S
C1342 C1345 1.387 . S
H1343 C1339 0.950 . S
H1344 C1341 0.950 . S
C1345 C1336 1.390 . S
C1345 H1338 0.950 . S
C1345 C1342 1.387 . S
C1346 C1347 1.387 . S
C1346 H1350 0.950 . S
C1346 C1355 1.390 . S
C1347 C1346 1.387 . S
C1347 C1349 1.387 . S
H1348 C1355 0.950 . S
C1349 C1347 1.387 . S
C1349 C1351 1.390 . S
C1349 H1353 0.950 . S
H1350 C1346 0.950 . S
C1351 C1349 1.390 . S
C1351 C1352 1.387 . S
C1351 H1354 0.950 . S
C1352 C1351 1.387 . S
C1352 C1355 1.387 . S
H1353 C1349 0.950 . S
H1354 C1351 0.950 . S
C1355 C1346 1.390 . S
C1355 H1348 0.950 . S
C1355 C1352 1.387 . S
C1356 C1357 1.387 . S
C1356 H1360 0.950 . S
C1356 C1365 1.390 . S
C1357 C1356 1.387 . S
C1357 C1359 1.387 . S
H1358 C1365 0.950 . S
C1359 C1357 1.387 . S
C1359 C1361 1.390 . S
C1359 H1363 0.950 1_545 S
H1360 C1356 0.950 . S
C1361 C1359 1.390 . S
C1361 C1362 1.387 . S
C1361 H1364 0.950 1_545 S
C1362 C1361 1.387 . S
C1362 C1365 1.387 . S
H1363 C1359 0.950 1_565 S
H1364 C1361 0.950 1_565 S
C1365 C1356 1.390 . S
C1365 H1358 0.950 . S
C1365 C1362 1.387 . S
C1366 C1367 1.387 . S
C1366 H1370 0.950 . S
C1366 C1375 1.390 . S
C1367 C1366 1.387 . S
C1367 C1369 1.387 . S
H1368 C1375 0.950 . S
C1369 C1367 1.387 . S
C1369 C1371 1.390 . S
C1369 H1373 0.950 . S
H1370 C1366 0.950 . S
C1371 C1369 1.390 . S
C1371 C1372 1.387 . S
C1371 H1374 0.950 . S
C1372 C1371 1.387 . S
C1372 C1375 1.387 . S
H1373 C1369 0.950 . S
H1374 C1371 0.950 . S
C1375 C1366 1.390 . S
C1375 H1368 0.950 . S
C1375 C1372 1.387 . S
C1376 C1377 1.387 . S
C1376 H1380 0.950 . S
C1376 C1385 1.390 . S
C1377 C1376 1.387 . S
C1377 C1379 1.387 . S
H1378 C1385 0.950 . S
C1379 C1377 1.387 . S
C1379 C1381 1.390 . S
C1379 H1383 0.950 . S
H1380 C1376 0.950 . S
C1381 C1379 1.390 . S
C1381 C1382 1.387 . S
C1381 H1384 0.950 . S
C1382 C1381 1.387 . S
C1382 C1385 1.387 . S
H1383 C1379 0.950 . S
H1384 C1381 0.950 . S
C1385 C1376 1.390 . S
C1385 H1378 0.950 . S
C1385 C1382 1.387 . S
C1386 C1387 1.387 . S
C1386 H1390 0.950 . S
C1386 C1395 1.390 . S
C1387 C1386 1.387 . S
C1387 C1389 1.387 . S
H1388 C1395 0.950 . S
C1389 C1387 1.387 . S
C1389 C1391 1.390 . S
C1389 H1393 0.950 . S
H1390 C1386 0.950 . S
C1391 C1389 1.390 . S
C1391 C1392 1.387 . S
C1391 H1394 0.950 . S
C1392 C1391 1.387 . S
C1392 C1395 1.387 . S
H1393 C1389 0.950 . S
H1394 C1391 0.950 . S
C1395 C1386 1.390 . S
C1395 H1388 0.950 . S
C1395 C1392 1.387 . S
C1396 C1397 1.387 . S
C1396 H1400 0.950 . S
C1396 C1405 1.390 . S
C1397 C1396 1.387 . S
C1397 C1399 1.387 . S
H1398 C1405 0.950 . S
C1399 C1397 1.387 . S
C1399 C1401 1.390 . S
C1399 H1403 0.950 . S
H1400 C1396 0.950 . S
C1401 C1399 1.390 . S
C1401 C1402 1.387 . S
C1401 H1404 0.950 . S
C1402 C1401 1.387 . S
C1402 C1405 1.387 . S
H1403 C1399 0.950 . S
H1404 C1401 0.950 . S
C1405 C1396 1.390 . S
C1405 H1398 0.950 . S
C1405 C1402 1.387 . S
C1406 C1407 1.387 . S
C1406 H1410 0.950 . S
C1406 C1415 1.390 . S
C1407 C1406 1.387 . S
C1407 C1409 1.387 . S
H1408 C1415 0.950 . S
C1409 C1407 1.387 . S
C1409 C1411 1.390 . S
C1409 H1413 0.950 . S
H1410 C1406 0.950 . S
C1411 C1409 1.390 . S
C1411 C1412 1.387 . S
C1411 H1414 0.950 . S
C1412 C1411 1.387 . S
C1412 C1415 1.387 . S
H1413 C1409 0.950 . S
H1414 C1411 0.950 . S
C1415 C1406 1.390 . S
C1415 H1408 0.950 . S
C1415 C1412 1.387 . S
C1416 C1417 1.387 . S
C1416 H1420 0.950 . S
C1416 C1425 1.390 . S
C1417 C1416 1.387 . S
C1417 C1419 1.387 1_545 S
H1418 C1425 0.950 . S
C1419 C1417 1.387 1_565 S
C1419 C1421 1.390 . S
C1419 H1423 0.950 . S
H1420 C1416 0.950 . S
C1421 C1419 1.390 . S
C1421 C1422 1.387 . S
C1421 H1424 0.950 . S
C1422 C1421 1.387 . S
C1422 C1425 1.387 1_565 S
H1423 C1419 0.950 . S
H1424 C1421 0.950 . S
C1425 C1416 1.390 . S
C1425 H1418 0.950 . S
C1425 C1422 1.387 1_545 S
C1426 C1427 1.387 . S
C1426 H1430 0.950 . S
C1426 C1435 1.390 . S
C1427 C1426 1.387 . S
C1427 C1429 1.387 . S
H1428 C1435 0.950 . S
C1429 C1427 1.387 . S
C1429 C1431 1.390 . S
C1429 H1433 0.950 . S
H1430 C1426 0.950 . S
C1431 C1429 1.390 . S
C1431 C1432 1.387 . S
C1431 H1434 0.950 . S
C1432 C1431 1.387 . S
C1432 C1435 1.387 . S
H1433 C1429 0.950 . S
H1434 C1431 0.950 . S
C1435 C1426 1.390 . S
C1435 H1428 0.950 . S
C1435 C1432 1.387 . S
C1436 C1437 1.387 . S
C1436 H1440 0.950 . S
C1436 C1445 1.390 . S
C1437 C1436 1.387 . S
C1437 C1439 1.387 . S
H1438 C1445 0.950 . S
C1439 C1437 1.387 . S
C1439 C1441 1.390 . S
C1439 H1443 0.950 . S
H1440 C1436 0.950 . S
C1441 C1439 1.390 . S
C1441 C1442 1.387 . S
C1441 H1444 0.950 . S
C1442 C1441 1.387 . S
C1442 C1445 1.387 . S
H1443 C1439 0.950 . S
H1444 C1441 0.950 . S
C1445 C1436 1.390 . S
C1445 H1438 0.950 . S
C1445 C1442 1.387 . S
C1446 C1447 1.387 . S
C1446 H1450 0.950 . S
C1446 C1455 1.390 . S
C1447 C1446 1.387 . S
C1447 C1449 1.387 . S
H1448 C1455 0.950 . S
C1449 C1447 1.387 . S
C1449 C1451 1.390 . S
C1449 H1453 0.950 . S
H1450 C1446 0.950 . S
C1451 C1449 1.390 . S
C1451 C1452 1.387 . S
C1451 H1454 0.950 . S
C1452 C1451 1.387 . S
C1452 C1455 1.387 . S
H1453 C1449 0.950 . S
H1454 C1451 0.950 . S
C1455 C1446 1.390 . S
C1455 H1448 0.950 . S
C1455 C1452 1.387 . S
C1456 C1457 1.387 . S
C1456 H1460 0.950 . S
C1456 C1465 1.390 . S
C1457 C1456 1.387 . S
C1457 C1459 1.387 . S
H1458 C1465 0.950 . S
C1459 C1457 1.387 . S
C1459 C1461 1.390 . S
C1459 H1463 0.950 . S
H1460 C1456 0.950 . S
C1461 C1459 1.390 . S
C1461 C1462 1.387 . S
C1461 H1464 0.950 . S
C1462 C1461 1.387 . S
C1462 C1465 1.387 . S
H1463 C1459 0.950 . S
H1464 C1461 0.950 . S
C1465 C1456 1.390 . S
C1465 H1458 0.950 . S
C1465 C1462 1.387 . S
C1466 C1467 1.387 . S
C1466 H1470 0.950 . S
C1466 C1475 1.390 . S
C1467 C1466 1.387 . S
C1467 C1469 1.387 . S
H1468 C1475 0.950 . S
C1469 C1467 1.387 . S
C1469 C1471 1.390 . S
C1469 H1473 0.950 . S
H1470 C1466 0.950 . S
C1471 C1469 1.390 . S
C1471 C1472 1.387 . S
C1471 H1474 0.950 . S
C1472 C1471 1.387 . S
C1472 C1475 1.387 . S
H1473 C1469 0.950 . S
H1474 C1471 0.950 . S
C1475 C1466 1.390 . S
C1475 H1468 0.950 . S
C1475 C1472 1.387 . S
C1476 C1477 1.387 1_554 S
C1476 H1480 0.950 . S
C1476 C1485 1.390 . S
C1477 C1476 1.387 1_556 S
C1477 C1479 1.381 1_456 S
H1478 C1485 0.950 . S
C1479 C1477 1.381 1_654 S
C1479 C1481 1.407 1_655 S
C1479 H1483 0.941 1_554 S
H1480 C1476 0.950 . S
C1481 C1479 1.407 1_455 S
C1481 C1482 1.387 . S
C1481 H1484 0.950 1_455 S
C1482 C1481 1.387 . S
C1482 C1485 1.387 . S
H1483 C1479 0.941 1_556 S
H1484 C1481 0.950 1_655 S
C1485 C1476 1.390 . S
C1485 H1478 0.950 . S
C1485 C1482 1.387 . S
C1486 C1487 1.387 . S
C1486 H1490 0.950 . S
C1486 C1495 1.390 1_455 S
C1487 C1486 1.387 . S
C1487 C1489 1.387 . S
H1488 C1495 0.950 . S
C1489 C1487 1.387 . S
C1489 C1491 1.390 1_455 S
C1489 H1493 0.950 . S
H1490 C1486 0.950 . S
C1491 C1489 1.390 1_655 S
C1491 C1492 1.387 . S
C1491 H1494 0.950 . S
C1492 C1491 1.387 . S
C1492 C1495 1.387 . S
H1493 C1489 0.950 . S
H1494 C1491 0.950 . S
C1495 C1486 1.390 1_655 S
C1495 H1488 0.950 . S
C1495 C1492 1.387 . S
C1496 C1497 1.387 . S
C1496 H1500 0.950 . S
C1496 C1505 1.390 . S
C1497 C1496 1.387 . S
C1497 C1499 1.387 . S
H1498 C1505 0.950 . S
C1499 C1497 1.387 . S
C1499 C1501 1.390 . S
C1499 H1503 0.950 . S
H1500 C1496 0.950 . S
C1501 C1499 1.390 . S
C1501 C1502 1.387 . S
C1501 H1504 0.950 . S
C1502 C1501 1.387 . S
C1502 C1505 1.387 . S
H1503 C1499 0.950 . S
H1504 C1501 0.950 . S
C1505 C1496 1.390 . S
C1505 H1498 0.950 . S
C1505 C1502 1.387 . S
C1506 C1507 1.387 . S
C1506 H1510 0.950 . S
C1506 C1515 1.390 . S
C1507 C1506 1.387 . S
C1507 C1509 1.387 . S
H1508 C1515 0.950 . S
C1509 C1507 1.387 . S
C1509 C1511 1.390 . S
C1509 H1513 0.950 . S
H1510 C1506 0.950 . S
C1511 C1509 1.390 . S
C1511 C1512 1.387 . S
C1511 H1514 0.950 . S
C1512 C1511 1.387 . S
C1512 C1515 1.387 . S
H1513 C1509 0.950 . S
H1514 C1511 0.950 . S
C1515 C1506 1.390 . S
C1515 H1508 0.950 . S
C1515 C1512 1.387 . S
C1516 C1517 1.387 . S
C1516 H1520 0.950 . S
C1516 C1525 1.390 . S
C1517 C1516 1.387 . S
C1517 C1519 1.387 . S
H1518 C1525 0.950 . S
C1519 C1517 1.387 . S
C1519 C1521 1.390 . S
C1519 H1523 0.950 . S
H1520 C1516 0.950 . S
C1521 C1519 1.390 . S
C1521 C1522 1.387 . S
C1521 H1524 0.950 . S
C1522 C1521 1.387 . S
C1522 C1525 1.387 . S
H1523 C1519 0.950 . S
H1524 C1521 0.950 . S
C1525 C1516 1.390 . S
C1525 H1518 0.950 . S
C1525 C1522 1.387 . S
C1526 C1527 1.387 . S
C1526 H1530 0.950 . S
C1526 C1535 1.390 . S
C1527 C1526 1.387 . S
C1527 C1529 1.387 . S
H1528 C1535 0.950 . S
C1529 C1527 1.387 . S
C1529 C1531 1.390 . S
C1529 H1533 0.950 . S
H1530 C1526 0.950 . S
C1531 C1529 1.390 . S
C1531 C1532 1.387 . S
C1531 H1534 0.950 . S
C1532 C1531 1.387 . S
C1532 C1535 1.387 . S
H1533 C1529 0.950 . S
H1534 C1531 0.950 . S
C1535 C1526 1.390 . S
C1535 H1528 0.950 . S
C1535 C1532 1.387 . S
C1536 C1537 1.387 . S
C1536 H1540 0.950 . S
C1536 C1545 1.390 . S
C1537 C1536 1.387 . S
C1537 C1539 1.387 . S
H1538 C1545 0.950 . S
C1539 C1537 1.387 . S
C1539 C1541 1.390 . S
C1539 H1543 0.950 . S
H1540 C1536 0.950 . S
C1541 C1539 1.390 . S
C1541 C1542 1.387 . S
C1541 H1544 0.950 . S
C1542 C1541 1.387 . S
C1542 C1545 1.387 . S
H1543 C1539 0.950 . S
H1544 C1541 0.950 . S
C1545 C1536 1.390 . S
C1545 H1538 0.950 . S
C1545 C1542 1.387 . S
C1546 C1547 1.387 . S
C1546 H1550 0.950 . S
C1546 C1555 1.390 . S
C1547 C1546 1.387 . S
C1547 C1549 1.387 1_554 S
H1548 C1555 0.950 . S
C1549 C1547 1.387 1_556 S
C1549 C1551 1.390 . S
C1549 H1553 0.950 . S
H1550 C1546 0.950 . S
C1551 C1549 1.390 . S
C1551 C1552 1.387 . S
C1551 H1554 0.950 . S
C1552 C1551 1.387 . S
C1552 C1555 1.387 1_556 S
H1553 C1549 0.950 . S
H1554 C1551 0.950 . S
C1555 C1546 1.390 . S
C1555 H1548 0.950 . S
C1555 C1552 1.387 1_554 S
C1556 C1557 1.387 . S
C1556 H1560 0.950 . S
C1556 C1565 1.390 . S
C1557 C1556 1.387 . S
C1557 C1559 1.387 . S
H1558 C1565 0.950 . S
C1559 C1557 1.387 . S
C1559 C1561 1.390 . S
C1559 H1563 0.950 . S
H1560 C1556 0.950 . S
C1561 C1559 1.390 . S
C1561 C1562 1.387 . S
C1561 H1564 0.950 . S
C1562 C1561 1.387 . S
C1562 C1565 1.387 . S
H1563 C1559 0.950 . S
H1564 C1561 0.950 . S
C1565 C1556 1.390 . S
C1565 H1558 0.950 . S
C1565 C1562 1.387 . S
C1566 C1567 1.387 . S
C1566 H1570 0.950 . S
C1566 C1575 1.390 . S
C1567 C1566 1.387 . S
C1567 C1569 1.387 . S
H1568 C1575 0.950 . S
C1569 C1567 1.387 . S
C1569 C1571 1.390 . S
C1569 H1573 0.950 . S
H1570 C1566 0.950 . S
C1571 C1569 1.390 . S
C1571 C1572 1.387 . S
C1571 H1574 0.950 . S
C1572 C1571 1.387 . S
C1572 C1575 1.387 . S
H1573 C1569 0.950 . S
H1574 C1571 0.950 . S
C1575 C1566 1.390 . S
C1575 H1568 0.950 . S
C1575 C1572 1.387 . S
C1576 C1577 1.387 . S
C1576 H1580 0.950 . S
C1576 C1585 1.390 . S
C1577 C1576 1.387 . S
C1577 C1579 1.387 . S
H1578 C1585 0.950 . S
C1579 C1577 1.387 . S
C1579 C1581 1.390 . S
C1579 H1583 0.950 . S
H1580 C1576 0.950 . S
C1581 C1579 1.390 . S
C1581 C1582 1.387 . S
C1581 H1584 0.950 . S
C1582 C1581 1.387 . S
C1582 C1585 1.387 . S
H1583 C1579 0.950 . S
H1584 C1581 0.950 . S
C1585 C1576 1.390 . S
C1585 H1578 0.950 . S
C1585 C1582 1.387 . S
C1586 C1587 1.387 . S
C1586 H1590 0.950 . S
C1586 C1595 1.390 . S
C1587 C1586 1.387 . S
C1587 C1589 1.387 . S
H1588 C1595 0.950 . S
C1589 C1587 1.387 . S
C1589 C1591 1.390 . S
C1589 H1593 0.950 . S
H1590 C1586 0.950 . S
C1591 C1589 1.390 . S
C1591 C1592 1.387 . S
C1591 H1594 0.950 . S
C1592 C1591 1.387 . S
C1592 C1595 1.387 . S
H1593 C1589 0.950 . S
H1594 C1591 0.950 . S
C1595 C1586 1.390 . S
C1595 H1588 0.950 . S
C1595 C1592 1.387 . S
C1596 C1597 1.387 . S
C1596 H1600 0.950 . S
C1596 C1605 1.390 . S
C1597 C1596 1.387 . S
C1597 C1599 1.387 . S
H1598 C1605 0.950 . S
C1599 C1597 1.387 . S
C1599 C1601 1.390 . S
C1599 H1603 0.950 . S
H1600 C1596 0.950 . S
C1601 C1599 1.390 . S
C1601 C1602 1.387 . S
C1601 H1604 0.950 . S
C1602 C1601 1.387 . S
C1602 C1605 1.387 . S
H1603 C1599 0.950 . S
H1604 C1601 0.950 . S
C1605 C1596 1.390 . S
C1605 H1598 0.950 . S
C1605 C1602 1.387 . S
C1606 C1607 1.387 . S
C1606 H1610 0.950 . S
C1606 C1615 1.390 . S
C1607 C1606 1.387 . S
C1607 C1609 1.387 . S
H1608 C1615 0.950 . S
C1609 C1607 1.387 . S
C1609 C1611 1.390 . S
C1609 H1613 0.950 . S
H1610 C1606 0.950 . S
C1611 C1609 1.390 . S
C1611 C1612 1.387 . S
C1611 H1614 0.950 . S
C1612 C1611 1.387 . S
C1612 C1615 1.387 . S
H1613 C1609 0.950 . S
H1614 C1611 0.950 . S
C1615 C1606 1.390 . S
C1615 H1608 0.950 . S
C1615 C1612 1.387 . S
C1616 C1617 1.387 . S
C1616 H1620 0.950 . S
C1616 C1625 1.390 . S
C1617 C1616 1.387 . S
C1617 C1619 1.387 . S
H1618 C1625 0.950 . S
C1619 C1617 1.387 . S
C1619 C1621 1.390 . S
C1619 H1623 0.950 . S
H1620 C1616 0.950 . S
C1621 C1619 1.390 . S
C1621 C1622 1.387 . S
C1621 H1624 0.950 . S
C1622 C1621 1.387 . S
C1622 C1625 1.387 . S
H1623 C1619 0.950 . S
H1624 C1621 0.950 . S
C1625 C1616 1.390 . S
C1625 H1618 0.950 . S
C1625 C1622 1.387 . S
C1626 C1627 1.387 . S
C1626 H1630 0.950 . S
C1626 C1635 1.390 . S
C1627 C1626 1.387 . S
C1627 C1629 1.387 . S
H1628 C1635 0.950 . S
C1629 C1627 1.387 . S
C1629 C1631 1.390 . S
C1629 H1633 0.950 . S
H1630 C1626 0.950 . S
C1631 C1629 1.390 . S
C1631 C1632 1.387 . S
C1631 H1634 0.950 . S
C1632 C1631 1.387 . S
C1632 C1635 1.387 . S
H1633 C1629 0.950 . S
H1634 C1631 0.950 . S
C1635 C1626 1.390 . S
C1635 H1628 0.950 . S
C1635 C1632 1.387 . S
C1636 C1637 1.387 . S
C1636 H1640 0.950 . S
C1636 C1645 1.390 . S
C1637 C1636 1.387 . S
C1637 C1639 1.387 1_545 S
H1638 C1645 0.950 . S
C1639 C1637 1.387 1_565 S
C1639 C1641 1.390 . S
C1639 H1643 0.950 . S
H1640 C1636 0.950 . S
C1641 C1639 1.390 . S
C1641 C1642 1.387 1_565 S
C1641 H1644 0.950 . S
C1642 C1641 1.387 1_545 S
C1642 C1645 1.387 . S
H1643 C1639 0.950 . S
H1644 C1641 0.950 . S
C1645 C1636 1.390 . S
C1645 H1638 0.950 . S
C1645 C1642 1.387 . S
C1646 C1647 1.387 1_545 S
C1646 H1650 0.947 1_545 S
C1646 C1655 1.394 . S
C1647 C1646 1.387 1_565 S
C1647 C1649 1.387 1_564 S
H1648 C1655 0.950 . S
C1649 C1647 1.387 1_546 S
C1649 C1651 1.390 1_556 S
C1649 H1653 0.950 . S
H1650 C1646 0.947 1_565 S
C1651 C1649 1.390 1_554 S
C1651 C1652 1.387 . S
C1651 H1654 0.950 1_554 S
C1652 C1651 1.387 . S
C1652 C1655 1.387 . S
H1653 C1649 0.950 . S
H1654 C1651 0.950 1_556 S
C1655 C1646 1.394 . S
C1655 H1648 0.950 . S
C1655 C1652 1.387 . S
C1656 C1657 1.387 . S
C1656 H1660 0.950 . S
C1656 C1665 1.390 . S
C1657 C1656 1.387 . S
C1657 C1659 1.387 . S
H1658 C1665 0.950 . S
C1659 C1657 1.387 . S
C1659 C1661 1.390 . S
C1659 H1663 0.950 . S
H1660 C1656 0.950 . S
C1661 C1659 1.390 . S
C1661 C1662 1.387 . S
C1661 H1664 0.950 . S
C1662 C1661 1.387 . S
C1662 C1665 1.387 . S
H1663 C1659 0.950 . S
H1664 C1661 0.950 . S
C1665 C1656 1.390 . S
C1665 H1658 0.950 . S
C1665 C1662 1.387 . S
C1666 C1667 1.387 . S
C1666 H1670 0.950 . S
C1666 C1675 1.390 . S
C1667 C1666 1.387 . S
C1667 C1669 1.387 . S
H1668 C1675 0.950 . S
C1669 C1667 1.387 . S
C1669 C1671 1.390 . S
C1669 H1673 0.950 . S
H1670 C1666 0.950 . S
C1671 C1669 1.390 . S
C1671 C1672 1.387 . S
C1671 H1674 0.950 . S
C1672 C1671 1.387 . S
C1672 C1675 1.387 . S
H1673 C1669 0.950 . S
H1674 C1671 0.950 . S
C1675 C1666 1.390 . S
C1675 H1668 0.950 . S
C1675 C1672 1.387 . S
C1676 C1677 1.387 . S
C1676 H1680 0.950 . S
C1676 C1685 1.390 . S
C1677 C1676 1.387 . S
C1677 C1679 1.387 . S
H1678 C1685 0.950 . S
C1679 C1677 1.387 . S
C1679 C1681 1.390 . S
C1679 H1683 0.950 . S
H1680 C1676 0.950 . S
C1681 C1679 1.390 . S
C1681 C1682 1.387 . S
C1681 H1684 0.950 . S
C1682 C1681 1.387 . S
C1682 C1685 1.387 . S
H1683 C1679 0.950 . S
H1684 C1681 0.950 . S
C1685 C1676 1.390 . S
C1685 H1678 0.950 . S
C1685 C1682 1.387 . S
C1686 C1687 1.387 . S
C1686 H1690 0.950 . S
C1686 C1695 1.390 . S
C1687 C1686 1.387 . S
C1687 C1689 1.387 . S
H1688 C1695 0.950 . S
C1689 C1687 1.387 . S
C1689 C1691 1.390 . S
C1689 H1693 0.950 . S
H1690 C1686 0.950 . S
C1691 C1689 1.390 . S
C1691 C1692 1.387 . S
C1691 H1694 0.950 . S
C1692 C1691 1.387 . S
C1692 C1695 1.387 . S
H1693 C1689 0.950 . S
H1694 C1691 0.950 . S
C1695 C1686 1.390 . S
C1695 H1688 0.950 . S
C1695 C1692 1.387 . S
C1696 C1697 1.387 . S
C1696 H1700 0.950 . S
C1696 C1705 1.390 . S
C1697 C1696 1.387 . S
C1697 C1699 1.387 . S
H1698 C1705 0.950 . S
C1699 C1697 1.387 . S
C1699 C1701 1.390 . S
C1699 H1703 0.950 . S
H1700 C1696 0.950 . S
C1701 C1699 1.390 . S
C1701 C1702 1.387 . S
C1701 H1704 0.950 . S
C1702 C1701 1.387 . S
C1702 C1705 1.387 . S
H1703 C1699 0.950 . S
H1704 C1701 0.950 . S
C1705 C1696 1.390 . S
C1705 H1698 0.950 . S
C1705 C1702 1.387 . S
C1706 C1707 1.387 . S
C1706 H1710 0.950 . S
C1706 C1715 1.390 . S
C1707 C1706 1.387 . S
C1707 C1709 1.387 . S
H1708 C1715 0.950 . S
C1709 C1707 1.387 . S
C1709 C1711 1.390 . S
C1709 H1713 0.950 . S
H1710 C1706 0.950 . S
C1711 C1709 1.390 . S
C1711 C1712 1.387 . S
C1711 H1714 0.950 . S
C1712 C1711 1.387 . S
C1712 C1715 1.387 . S
H1713 C1709 0.950 . S
H1714 C1711 0.950 . S
C1715 C1706 1.390 . S
C1715 H1708 0.950 . S
C1715 C1712 1.387 . S
C1716 C1717 1.387 . S
C1716 H1720 0.950 . S
C1716 C1725 1.390 . S
C1717 C1716 1.387 . S
C1717 C1719 1.387 . S
H1718 C1725 0.950 . S
C1719 C1717 1.387 . S
C1719 C1721 1.390 . S
C1719 H1723 0.950 . S
H1720 C1716 0.950 . S
C1721 C1719 1.390 . S
C1721 C1722 1.387 . S
C1721 H1724 0.950 . S
C1722 C1721 1.387 . S
C1722 C1725 1.387 . S
H1723 C1719 0.950 . S
H1724 C1721 0.950 . S
C1725 C1716 1.390 . S
C1725 H1718 0.950 . S
C1725 C1722 1.387 . S
C1726 C1727 1.387 . S
C1726 H1730 0.950 . S
C1726 C1735 1.390 . S
C1727 C1726 1.387 . S
C1727 C1729 1.387 . S
H1728 C1735 0.950 . S
C1729 C1727 1.387 . S
C1729 C1731 1.390 . S
C1729 H1733 0.950 . S
H1730 C1726 0.950 . S
C1731 C1729 1.390 . S
C1731 C1732 1.387 . S
C1731 H1734 0.950 . S
C1732 C1731 1.387 . S
C1732 C1735 1.387 . S
H1733 C1729 0.950 . S
H1734 C1731 0.950 . S
C1735 C1726 1.390 . S
C1735 H1728 0.950 . S
C1735 C1732 1.387 . S
C1736 C1737 1.387 . S
C1736 H1740 0.950 . S
C1736 C1745 1.390 . S
C1737 C1736 1.387 . S
C1737 C1739 1.387 . S
H1738 C1745 0.950 . S
C1739 C1737 1.387 . S
C1739 C1741 1.390 . S
C1739 H1743 0.950 . S
H1740 C1736 0.950 . S
C1741 C1739 1.390 . S
C1741 C1742 1.387 . S
C1741 H1744 0.950 1_556 S
C1742 C1741 1.387 . S
C1742 C1745 1.387 . S
H1743 C1739 0.950 . S
H1744 C1741 0.950 1_554 S
C1745 C1736 1.390 . S
C1745 H1738 0.950 . S
C1745 C1742 1.387 . S
C1746 C1747 1.387 . S
C1746 H1750 0.950 . S
C1746 C1755 1.390 . S
C1747 C1746 1.387 . S
C1747 C1749 1.387 . S
H1748 C1755 0.950 . S
C1749 C1747 1.387 . S
C1749 C1751 1.390 . S
C1749 H1753 0.950 . S
H1750 C1746 0.950 . S
C1751 C1749 1.390 . S
C1751 C1752 1.387 . S
C1751 H1754 0.950 . S
C1752 C1751 1.387 . S
C1752 C1755 1.387 . S
H1753 C1749 0.950 . S
H1754 C1751 0.950 . S
C1755 C1746 1.390 . S
C1755 H1748 0.950 . S
C1755 C1752 1.387 . S
C1756 C1757 1.387 . S
C1756 H1760 0.950 . S
C1756 C1765 1.390 . S
C1757 C1756 1.387 . S
C1757 C1759 1.387 . S
H1758 C1765 0.950 . S
C1759 C1757 1.387 . S
C1759 C1761 1.390 . S
C1759 H1763 0.950 . S
H1760 C1756 0.950 . S
C1761 C1759 1.390 . S
C1761 C1762 1.387 . S
C1761 H1764 0.950 . S
C1762 C1761 1.387 . S
C1762 C1765 1.387 . S
H1763 C1759 0.950 . S
H1764 C1761 0.950 . S
C1765 C1756 1.390 . S
C1765 H1758 0.950 . S
C1765 C1762 1.387 . S
C1766 C1767 1.387 . S
C1766 H1770 0.950 . S
C1766 C1775 1.390 . S
C1767 C1766 1.387 . S
C1767 C1769 1.387 . S
H1768 C1775 0.950 . S
C1769 C1767 1.387 . S
C1769 C1771 1.390 . S
C1769 H1773 0.950 . S
H1770 C1766 0.950 . S
C1771 C1769 1.390 . S
C1771 C1772 1.387 . S
C1771 H1774 0.950 . S
C1772 C1771 1.387 . S
C1772 C1775 1.387 . S
H1773 C1769 0.950 . S
H1774 C1771 0.950 . S
C1775 C1766 1.390 . S
C1775 H1768 0.950 . S
C1775 C1772 1.387 . S
C1776 C1777 1.387 . S
C1776 H1780 0.950 . S
C1776 C1785 1.390 . S
C1777 C1776 1.387 . S
C1777 C1779 1.387 . S
H1778 C1785 0.950 . S
C1779 C1777 1.387 . S
C1779 C1781 1.390 . S
C1779 H1783 0.950 . S
H1780 C1776 0.950 . S
C1781 C1779 1.390 . S
C1781 C1782 1.387 . S
C1781 H1784 0.950 . S
C1782 C1781 1.387 . S
C1782 C1785 1.387 . S
H1783 C1779 0.950 . S
H1784 C1781 0.950 . S
C1785 C1776 1.390 . S
C1785 H1778 0.950 . S
C1785 C1782 1.387 . S
C1786 C1787 1.387 . S
C1786 H1790 0.950 . S
C1786 C1795 1.390 . S
C1787 C1786 1.387 . S
C1787 C1789 1.387 . S
H1788 C1795 0.950 . S
C1789 C1787 1.387 . S
C1789 C1791 1.390 . S
C1789 H1793 0.950 . S
H1790 C1786 0.950 . S
C1791 C1789 1.390 . S
C1791 C1792 1.387 . S
C1791 H1794 0.950 . S
C1792 C1791 1.387 . S
C1792 C1795 1.387 . S
H1793 C1789 0.950 . S
H1794 C1791 0.950 . S
C1795 C1786 1.390 . S
C1795 H1788 0.950 . S
C1795 C1792 1.387 . S
C1796 C1797 1.387 . S
C1796 H1800 0.950 . S
C1796 C1805 1.390 1_655 S
C1797 C1796 1.387 . S
C1797 C1799 1.387 . S
H1798 C1805 0.950 . S
C1799 C1797 1.387 . S
C1799 C1801 1.390 1_655 S
C1799 H1803 0.950 . S
H1800 C1796 0.950 . S
C1801 C1799 1.390 1_455 S
C1801 C1802 1.387 . S
C1801 H1804 0.950 . S
C1802 C1801 1.387 . S
C1802 C1805 1.387 . S
H1803 C1799 0.950 . S
H1804 C1801 0.950 . S
C1805 C1796 1.390 1_455 S
C1805 H1798 0.950 . S
C1805 C1802 1.387 . S
C1806 C1807 1.387 . S
C1806 H1810 0.950 . S
C1806 C1815 1.390 . S
C1807 C1806 1.387 . S
C1807 C1809 1.387 . S
H1808 C1815 0.950 . S
C1809 C1807 1.387 . S
C1809 C1811 1.390 . S
C1809 H1813 0.950 . S
H1810 C1806 0.950 . S
C1811 C1809 1.390 . S
C1811 C1812 1.387 . S
C1811 H1814 0.950 . S
C1812 C1811 1.387 . S
C1812 C1815 1.387 . S
H1813 C1809 0.950 . S
H1814 C1811 0.950 . S
C1815 C1806 1.390 . S
C1815 H1808 0.950 . S
C1815 C1812 1.387 . S
C1816 C1817 1.387 . S
C1816 H1820 0.950 . S
C1816 C1825 1.390 . S
C1817 C1816 1.387 . S
C1817 C1819 1.387 . S
H1818 C1825 0.950 . S
C1819 C1817 1.387 . S
C1819 C1821 1.390 . S
C1819 H1823 0.950 . S
H1820 C1816 0.950 . S
C1821 C1819 1.390 . S
C1821 C1822 1.387 . S
C1821 H1824 0.950 . S
C1822 C1821 1.387 . S
C1822 C1825 1.387 . S
H1823 C1819 0.950 . S
H1824 C1821 0.950 . S
C1825 C1816 1.390 . S
C1825 H1818 0.950 . S
C1825 C1822 1.387 . S
C1826 C1827 1.387 . S
C1826 H1830 0.950 . S
C1826 C1835 1.390 . S
C1827 C1826 1.387 . S
C1827 C1829 1.387 . S
H1828 C1835 0.950 . S
C1829 C1827 1.387 . S
C1829 C1831 1.390 . S
C1829 H1833 0.950 . S
H1830 C1826 0.950 . S
C1831 C1829 1.390 . S
C1831 C1832 1.387 . S
C1831 H1834 0.950 . S
C1832 C1831 1.387 . S
C1832 C1835 1.387 . S
H1833 C1829 0.950 . S
H1834 C1831 0.950 . S
C1835 C1826 1.390 . S
C1835 H1828 0.950 . S
C1835 C1832 1.387 . S
C1836 C1837 1.387 . S
C1836 H1840 0.950 . S
C1836 C1845 1.390 1_655 S
C1837 C1836 1.387 . S
C1837 C1839 1.387 . S
H1838 C1845 0.950 . S
C1839 C1837 1.387 . S
C1839 C1841 1.390 . S
C1839 H1843 0.950 . S
H1840 C1836 0.950 . S
C1841 C1839 1.390 . S
C1841 C1842 1.387 . S
C1841 H1844 0.950 . S
C1842 C1841 1.387 . S
C1842 C1845 1.387 1_655 S
H1843 C1839 0.950 . S
H1844 C1841 0.950 . S
C1845 C1836 1.390 1_455 S
C1845 H1838 0.950 . S
C1845 C1842 1.387 1_455 S
C1846 C1847 1.387 . S
C1846 H1850 0.950 . S
C1846 C1855 1.390 . S
C1847 C1846 1.387 . S
C1847 C1849 1.387 . S
H1848 C1855 0.950 . S
C1849 C1847 1.387 . S
C1849 C1851 1.390 . S
C1849 H1853 0.950 . S
H1850 C1846 0.950 . S
C1851 C1849 1.390 . S
C1851 C1852 1.387 . S
C1851 H1854 0.950 . S
C1852 C1851 1.387 . S
C1852 C1855 1.387 . S
H1853 C1849 0.950 . S
H1854 C1851 0.950 . S
C1855 C1846 1.390 . S
C1855 H1848 0.950 . S
C1855 C1852 1.387 . S
C1856 C1857 1.387 . S
C1856 H1860 0.950 . S
C1856 C1865 1.390 . S
C1857 C1856 1.387 . S
C1857 C1859 1.387 . S
H1858 C1865 0.950 . S
C1859 C1857 1.387 . S
C1859 C1861 1.390 . S
C1859 H1863 0.950 . S
H1860 C1856 0.950 . S
C1861 C1859 1.390 . S
C1861 C1862 1.387 . S
C1861 H1864 0.950 . S
C1862 C1861 1.387 . S
C1862 C1865 1.387 . S
H1863 C1859 0.950 . S
H1864 C1861 0.950 . S
C1865 C1856 1.390 . S
C1865 H1858 0.950 . S
C1865 C1862 1.387 . S
C1866 C1867 1.387 . S
C1866 H1870 0.950 . S
C1866 C1875 1.390 . S
C1867 C1866 1.387 . S
C1867 C1869 1.387 . S
H1868 C1875 0.947 1_545 S
C1869 C1867 1.387 . S
C1869 C1871 1.390 . S
C1869 H1873 0.950 . S
H1870 C1866 0.950 . S
C1871 C1869 1.390 . S
C1871 C1872 1.387 . S
C1871 H1874 0.950 . S
C1872 C1871 1.387 . S
C1872 C1875 1.387 . S
H1873 C1869 0.950 . S
H1874 C1871 0.950 . S
C1875 C1866 1.390 . S
C1875 H1868 0.947 1_565 S
C1875 C1872 1.387 . S
C1876 C1877 1.387 . S
C1876 H1880 0.950 . S
C1876 C1885 1.390 . S
C1877 C1876 1.387 . S
C1877 C1879 1.387 . S
H1878 C1885 0.950 . S
C1879 C1877 1.387 . S
C1879 C1881 1.390 . S
C1879 H1883 0.950 . S
H1880 C1876 0.950 . S
C1881 C1879 1.390 . S
C1881 C1882 1.387 . S
C1881 H1884 0.950 . S
C1882 C1881 1.387 . S
C1882 C1885 1.387 . S
H1883 C1879 0.950 . S
H1884 C1881 0.950 . S
C1885 C1876 1.390 . S
C1885 H1878 0.950 . S
C1885 C1882 1.387 . S
C1886 C1887 1.387 . S
C1886 H1890 0.950 . S
C1886 C1895 1.390 . S
C1887 C1886 1.387 . S
C1887 C1889 1.387 . S
H1888 C1895 0.950 . S
C1889 C1887 1.387 . S
C1889 C1891 1.390 . S
C1889 H1893 0.950 . S
H1890 C1886 0.950 . S
C1891 C1889 1.390 . S
C1891 C1892 1.387 . S
C1891 H1894 0.950 . S
C1892 C1891 1.387 . S
C1892 C1895 1.387 . S
H1893 C1889 0.950 . S
H1894 C1891 0.950 . S
C1895 C1886 1.390 . S
C1895 H1888 0.950 . S
C1895 C1892 1.387 . S
C1896 C1897 1.387 . S
C1896 H1900 0.950 . S
C1896 C1905 1.390 . S
C1897 C1896 1.387 . S
C1897 C1899 1.387 . S
H1898 C1905 0.950 . S
C1899 C1897 1.387 . S
C1899 C1901 1.390 . S
C1899 H1903 0.950 . S
H1900 C1896 0.950 . S
C1901 C1899 1.390 . S
C1901 C1902 1.387 . S
C1901 H1904 0.950 . S
C1902 C1901 1.387 . S
C1902 C1905 1.387 . S
H1903 C1899 0.950 . S
H1904 C1901 0.950 . S
C1905 C1896 1.390 . S
C1905 H1898 0.950 . S
C1905 C1902 1.387 . S
C1906 C1907 1.387 . S
C1906 H1910 0.950 . S
C1906 C1915 1.389 1_554 S
C1907 C1906 1.387 . S
C1907 C1909 1.387 . S
H1908 C1915 0.952 . S
C1909 C1907 1.387 . S
C1909 C1911 1.390 . S
C1909 H1913 0.950 . S
H1910 C1906 0.950 . S
C1911 C1909 1.390 . S
C1911 C1912 1.387 . S
C1911 H1914 0.950 . S
C1912 C1911 1.387 . S
C1912 C1915 1.386 1_554 S
H1913 C1909 0.950 . S
H1914 C1911 0.950 . S
C1915 C1906 1.389 1_556 S
C1915 H1908 0.952 . S
C1915 C1912 1.386 1_556 S
C1916 C1917 1.387 . S
C1916 H1920 0.950 . S
C1916 C1925 1.390 . S
C1917 C1916 1.387 . S
C1917 C1919 1.387 . S
H1918 C1925 0.950 . S
C1919 C1917 1.387 . S
C1919 C1921 1.390 . S
C1919 H1923 0.950 . S
H1920 C1916 0.950 . S
C1921 C1919 1.390 . S
C1921 C1922 1.387 . S
C1921 H1924 0.950 . S
C1922 C1921 1.387 . S
C1922 C1925 1.387 . S
H1923 C1919 0.950 . S
H1924 C1921 0.950 . S
C1925 C1916 1.390 . S
C1925 H1918 0.950 . S
C1925 C1922 1.387 . S
C1926 C1927 1.387 . S
C1926 H1930 0.950 . S
C1926 C1935 1.390 . S
C1927 C1926 1.387 . S
C1927 C1929 1.387 . S
H1928 C1935 0.950 . S
C1929 C1927 1.387 . S
C1929 C1931 1.390 . S
C1929 H1933 0.950 . S
H1930 C1926 0.950 . S
C1931 C1929 1.390 . S
C1931 C1932 1.387 . S
C1931 H1934 0.950 . S
C1932 C1931 1.387 . S
C1932 C1935 1.387 . S
H1933 C1929 0.950 . S
H1934 C1931 0.950 . S
C1935 C1926 1.390 . S
C1935 H1928 0.950 . S
C1935 C1932 1.387 . S
C977 C105 2.441 1_455 S
C982 C367 2.383 . S
C987 C65 1.978 . S
C992 C378 2.001 . S
C997 C73 1.873 . S
C1002 C447 1.820 . S
C1012 C460 1.204 . S
C1007 C92 1.249 . S
C1017 C17 2.602 . S
C1022 C516 2.555 1_565 S
C1032 C567 2.304 . S
C1027 C37 2.338 . S
C1042 C596 2.396 . S
C1037 C49 2.313 . S
C1047 C8 2.607 . S
C1052 C647 2.520 . S
C1062 C338 1.630 . S
C1057 C231 1.546 1_545 S
C1067 C241 1.202 . S
C1072 C380 1.123 . S
C1082 C418 1.105 . S
C1077 C273 1.073 . S
C1092 C487 1.842 . S
C1087 C171 1.808 . S
C1097 C227 0.792 . S
C1102 C521 0.784 . S
C1112 C538 1.525 . S
C1107 C245 1.449 . S
C1122 C601 0.565 . S
C1117 C269 0.556 . S
C1132 C618 2.160 . S
C1127 C175 2.205 . S
C1142 C340 2.112 . S
C1137 C162 2.327 1_554 S
C1147 C289 1.742 . S
C1152 C679 1.665 . S
C1162 C700 1.931 . S
C1157 C330 2.081 . S
C1172 C759 0.671 . S
C1167 C317 0.653 . S
C1177 C120 1.424 . S
C1182 C620 1.369 . S
C1187 C134 1.583 . S
C1192 C420 1.519 . S
C1197 C331 1.207 . S
C1202 C778 1.289 . S
C1212 C847 1.033 . S
C1207 C303 1.099 . S
C1222 C356 2.392 . S
C1217 C59 2.402 . S
C1232 C839 2.031 . S
C1227 C107 2.000 . S
C1237 C91 1.879 . S
C1242 C436 1.859 . S
C1247 C78 1.246 . S
C1252 C801 1.219 . S
C1262 C527 2.600 . S
C1257 C7 2.583 . S
C1267 C51 2.357 . S
C1272 C716 2.320 . S
C1282 C607 2.429 1_566 S
C1277 C31 2.447 . S
C1292 C876 2.533 . S
C1287 C22 2.571 1_655 S
C1302 C359 1.610 . S
C1297 C143 1.587 . S
C1312 C841 1.151 . S
C1307 C315 1.165 . S
C1317 C115 1.135 . S
C1322 C439 1.123 . S
C1327 C287 1.860 . S
C1332 C796 1.896 . S
C1337 C147 0.792 . S
C1342 C500 0.794 . S
C1352 C719 1.535 . S
C1347 C311 1.528 . S
C1357 C119 0.600 . S
C1362 C580 0.591 . S
C1367 C283 2.228 . S
C1372 C879 2.192 . S
C1377 C190 2.213 . S
C1382 C361 2.057 1_554 S
C1387 C177 1.741 . S
C1392 C658 1.673 . S
C1397 C260 1.976 . S
C1402 C561 1.901 . S
C1407 C247 0.685 . S
C1412 C738 0.688 . S
C1422 C881 1.343 . S
C1417 C274 1.350 . S
C1427 C218 1.539 . S
C1432 C441 1.507 . S
C1442 C479 1.311 . S
C1437 C261 1.208 . S
C1452 C396 1.032 . S
C1447 C205 1.082 . S
C1457 C77 2.441 . S
C1462 C927 2.385 . S
C1472 C818 2.001 . S
C1467 C93 1.978 . S
C1477 C101 1.874 . S
C1482 C967 1.818 . S
C1487 C64 1.251 . S
C1492 C780 1.208 . S
C1497 C45 2.602 . S
C1502 C676 2.554 . S
C1512 C727 2.303 . S
C1507 C9 2.339 . S
C1522 C756 2.395 . S
C1517 C21 2.314 . S
C1532 C887 2.520 . S
C1527 C36 2.608 . S
C1542 C898 1.629 . S
C1537 C259 1.554 . S
C1547 C185 1.201 . S
C1552 C820 1.123 . S
C1562 C938 1.105 . S
C1557 C203 1.078 . S
C1572 C807 1.842 . S
C1567 C213 1.809 . S
C1582 C681 0.784 . S
C1577 C255 0.791 . S
C1587 C189 1.448 . S
C1592 C698 1.525 . S
C1602 C761 0.570 . S
C1597 C199 0.556 . S
C1607 C217 2.206 . S
C1612 C858 2.158 . S
C1622 C900 2.109 . S
C1617 C316 2.322 . S
C1627 C135 1.741 . S
C1632 C519 1.663 . S
C1642 C540 1.929 1_545 S
C1637 C148 2.080 . S
C1652 C599 0.667 . S
C1647 C163 0.654 . S
C1662 C860 1.368 . S
C1657 C302 1.423 . S
C1667 C288 1.584 . S
C1672 C940 1.521 . S
C1682 C458 1.287 . S
C1677 C149 1.204 . S
C1692 C407 1.033 . S
C1687 C121 1.098 . S
C1697 C87 2.402 . S
C1702 C916 2.392 . S
C1712 C399 2.031 . S
C1707 C79 1.997 . S
C1717 C63 1.877 . S
C1722 C956 1.857 . S
C1727 C106 1.246 . S
C1732 C481 1.215 . S
C1737 C35 2.584 . S
C1742 C687 2.600 1_556 S
C1752 C556 2.319 . S
C1747 C23 2.356 . S
C1757 C3 2.447 . S
C1762 C767 2.434 . S
C1767 C50 2.599 . S
C1772 C636 2.533 . S
C1782 C919 1.610 . S
C1777 C325 1.588 . S
C1787 C161 1.158 . S
C1792 C401 1.141 . S
C1802 C959 1.123 . S
C1797 C297 1.136 . S
C1807 C133 1.861 . S
C1812 C476 1.896 . S
C1817 C329 0.796 . S
C1822 C660 0.799 . S
C1832 C559 1.535 . S
C1827 C157 1.532 . S
C1837 C301 0.600 . S
C1842 C740 0.590 . S
C1852 C639 2.191 . S
C1847 C129 2.228 . S
C1862 C921 2.077 . S
C1857 C246 2.217 . S
C1872 C498 1.671 1_565 S
C1867 C219 1.740 . S
C1877 C232 1.975 . S
C1882 C721 1.899 . S
C1892 C578 0.688 . S
C1887 C191 0.685 . S
C1897 C204 1.349 . S
C1902 C641 1.342 . S
C1907 C176 1.536 . S
C1912 C961 1.504 . S
C1922 C799 1.309 . S
C1917 C233 1.205 . S
C1932 C836 1.035 . S
C1927 C275 1.083 . S
