# Generated by pormake.
# Topology gar, (4,6)-cn, num edge types: 1
# Building blocks:
#     Node 0, Type 0, BuildingBlock: AZAVOO_clean_sbu_0, # of connection points: 4
#     Node 1, Type 0, BuildingBlock: AZAVOO_clean_sbu_0, # of connection points: 4
#     Node 2, Type 0, BuildingBlock: AZAVOO_clean_sbu_0, # of connection points: 4
#     Node 3, Type 0, BuildingBlock: AZAVOO_clean_sbu_0, # of connection points: 4
#     Node 4, Type 0, BuildingBlock: AZAVOO_clean_sbu_0, # of connection points: 4
#     Node 5, Type 0, BuildingBlock: AZAVOO_clean_sbu_0, # of connection points: 4
#     Node 6, Type 0, BuildingBlock: AZAVOO_clean_sbu_0, # of connection points: 4
#     Node 7, Type 0, BuildingBlock: AZAVOO_clean_sbu_0, # of connection points: 4
#     Node 8, Type 0, BuildingBlock: AZAVOO_clean_sbu_0, # of connection points: 4
#     Node 9, Type 0, BuildingBlock: AZAVOO_clean_sbu_0, # of connection points: 4
#     Node 10, Type 0, BuildingBlock: AZAVOO_clean_sbu_0, # of connection points: 4
#     Node 11, Type 0, BuildingBlock: AZAVOO_clean_sbu_0, # of connection points: 4
#     Node 12, Type 0, BuildingBlock: AZAVOO_clean_sbu_0, # of connection points: 4
#     Node 13, Type 0, BuildingBlock: AZAVOO_clean_sbu_0, # of connection points: 4
#     Node 14, Type 0, BuildingBlock: AZAVOO_clean_sbu_0, # of connection points: 4
#     Node 15, Type 0, BuildingBlock: AZAVOO_clean_sbu_0, # of connection points: 4
#     Node 16, Type 0, BuildingBlock: AZAVOO_clean_sbu_0, # of connection points: 4
#     Node 17, Type 0, BuildingBlock: AZAVOO_clean_sbu_0, # of connection points: 4
#     Node 18, Type 0, BuildingBlock: AZAVOO_clean_sbu_0, # of connection points: 4
#     Node 19, Type 0, BuildingBlock: AZAVOO_clean_sbu_0, # of connection points: 4
#     Node 20, Type 0, BuildingBlock: AZAVOO_clean_sbu_0, # of connection points: 4
#     Node 21, Type 0, BuildingBlock: AZAVOO_clean_sbu_0, # of connection points: 4
#     Node 22, Type 0, BuildingBlock: AZAVOO_clean_sbu_0, # of connection points: 4
#     Node 23, Type 0, BuildingBlock: AZAVOO_clean_sbu_0, # of connection points: 4
#     Node 24, Type 1, BuildingBlock: KUMBUR_clean_sbu_0, # of connection points: 6
#     Node 25, Type 1, BuildingBlock: KUMBUR_clean_sbu_0, # of connection points: 6
#     Node 26, Type 1, BuildingBlock: KUMBUR_clean_sbu_0, # of connection points: 6
#     Node 27, Type 1, BuildingBlock: KUMBUR_clean_sbu_0, # of connection points: 6
#     Node 28, Type 1, BuildingBlock: KUMBUR_clean_sbu_0, # of connection points: 6
#     Node 29, Type 1, BuildingBlock: KUMBUR_clean_sbu_0, # of connection points: 6
#     Node 30, Type 1, BuildingBlock: KUMBUR_clean_sbu_0, # of connection points: 6
#     Node 31, Type 1, BuildingBlock: KUMBUR_clean_sbu_0, # of connection points: 6
#     Node 32, Type 1, BuildingBlock: KUMBUR_clean_sbu_0, # of connection points: 6
#     Node 33, Type 1, BuildingBlock: KUMBUR_clean_sbu_0, # of connection points: 6
#     Node 34, Type 1, BuildingBlock: KUMBUR_clean_sbu_0, # of connection points: 6
#     Node 35, Type 1, BuildingBlock: KUMBUR_clean_sbu_0, # of connection points: 6
#     Node 36, Type 1, BuildingBlock: KUMBUR_clean_sbu_0, # of connection points: 6
#     Node 37, Type 1, BuildingBlock: KUMBUR_clean_sbu_0, # of connection points: 6
#     Node 38, Type 1, BuildingBlock: KUMBUR_clean_sbu_0, # of connection points: 6
#     Node 39, Type 1, BuildingBlock: KUMBUR_clean_sbu_0, # of connection points: 6
#     Edge 40, Type (0, 1), BuildingBlock: MIFKUJ_clean_linker_0, # of connection points: 2
#     Edge 41, Type (0, 1), BuildingBlock: MIFKUJ_clean_linker_0, # of connection points: 2
#     Edge 42, Type (0, 1), BuildingBlock: MIFKUJ_clean_linker_0, # of connection points: 2
#     Edge 43, Type (0, 1), BuildingBlock: MIFKUJ_clean_linker_0, # of connection points: 2
#     Edge 44, Type (0, 1), BuildingBlock: MIFKUJ_clean_linker_0, # of connection points: 2
#     Edge 45, Type (0, 1), BuildingBlock: MIFKUJ_clean_linker_0, # of connection points: 2
#     Edge 46, Type (0, 1), BuildingBlock: MIFKUJ_clean_linker_0, # of connection points: 2
#     Edge 47, Type (0, 1), BuildingBlock: MIFKUJ_clean_linker_0, # of connection points: 2
#     Edge 48, Type (0, 1), BuildingBlock: MIFKUJ_clean_linker_0, # of connection points: 2
#     Edge 49, Type (0, 1), BuildingBlock: MIFKUJ_clean_linker_0, # of connection points: 2
#     Edge 50, Type (0, 1), BuildingBlock: MIFKUJ_clean_linker_0, # of connection points: 2
#     Edge 51, Type (0, 1), BuildingBlock: MIFKUJ_clean_linker_0, # of connection points: 2
#     Edge 52, Type (0, 1), BuildingBlock: MIFKUJ_clean_linker_0, # of connection points: 2
#     Edge 53, Type (0, 1), BuildingBlock: MIFKUJ_clean_linker_0, # of connection points: 2
#     Edge 54, Type (0, 1), BuildingBlock: MIFKUJ_clean_linker_0, # of connection points: 2
#     Edge 55, Type (0, 1), BuildingBlock: MIFKUJ_clean_linker_0, # of connection points: 2
#     Edge 56, Type (0, 1), BuildingBlock: MIFKUJ_clean_linker_0, # of connection points: 2
#     Edge 57, Type (0, 1), BuildingBlock: MIFKUJ_clean_linker_0, # of connection points: 2
#     Edge 58, Type (0, 1), BuildingBlock: MIFKUJ_clean_linker_0, # of connection points: 2
#     Edge 59, Type (0, 1), BuildingBlock: MIFKUJ_clean_linker_0, # of connection points: 2
#     Edge 60, Type (0, 1), BuildingBlock: MIFKUJ_clean_linker_0, # of connection points: 2
#     Edge 61, Type (0, 1), BuildingBlock: MIFKUJ_clean_linker_0, # of connection points: 2
#     Edge 62, Type (0, 1), BuildingBlock: MIFKUJ_clean_linker_0, # of connection points: 2
#     Edge 63, Type (0, 1), BuildingBlock: MIFKUJ_clean_linker_0, # of connection points: 2
#     Edge 64, Type (0, 1), BuildingBlock: MIFKUJ_clean_linker_0, # of connection points: 2
#     Edge 65, Type (0, 1), BuildingBlock: MIFKUJ_clean_linker_0, # of connection points: 2
#     Edge 66, Type (0, 1), BuildingBlock: MIFKUJ_clean_linker_0, # of connection points: 2
#     Edge 67, Type (0, 1), BuildingBlock: MIFKUJ_clean_linker_0, # of connection points: 2
#     Edge 68, Type (0, 1), BuildingBlock: MIFKUJ_clean_linker_0, # of connection points: 2
#     Edge 69, Type (0, 1), BuildingBlock: MIFKUJ_clean_linker_0, # of connection points: 2
#     Edge 70, Type (0, 1), BuildingBlock: MIFKUJ_clean_linker_0, # of connection points: 2
#     Edge 71, Type (0, 1), BuildingBlock: MIFKUJ_clean_linker_0, # of connection points: 2
#     Edge 72, Type (0, 1), BuildingBlock: MIFKUJ_clean_linker_0, # of connection points: 2
#     Edge 73, Type (0, 1), BuildingBlock: MIFKUJ_clean_linker_0, # of connection points: 2
#     Edge 74, Type (0, 1), BuildingBlock: MIFKUJ_clean_linker_0, # of connection points: 2
#     Edge 75, Type (0, 1), BuildingBlock: MIFKUJ_clean_linker_0, # of connection points: 2
#     Edge 76, Type (0, 1), BuildingBlock: MIFKUJ_clean_linker_0, # of connection points: 2
#     Edge 77, Type (0, 1), BuildingBlock: MIFKUJ_clean_linker_0, # of connection points: 2
#     Edge 78, Type (0, 1), BuildingBlock: MIFKUJ_clean_linker_0, # of connection points: 2
#     Edge 79, Type (0, 1), BuildingBlock: MIFKUJ_clean_linker_0, # of connection points: 2
#     Edge 80, Type (0, 1), BuildingBlock: MIFKUJ_clean_linker_0, # of connection points: 2
#     Edge 81, Type (0, 1), BuildingBlock: MIFKUJ_clean_linker_0, # of connection points: 2
#     Edge 82, Type (0, 1), BuildingBlock: MIFKUJ_clean_linker_0, # of connection points: 2
#     Edge 83, Type (0, 1), BuildingBlock: MIFKUJ_clean_linker_0, # of connection points: 2
#     Edge 84, Type (0, 1), BuildingBlock: MIFKUJ_clean_linker_0, # of connection points: 2
#     Edge 85, Type (0, 1), BuildingBlock: MIFKUJ_clean_linker_0, # of connection points: 2
#     Edge 86, Type (0, 1), BuildingBlock: MIFKUJ_clean_linker_0, # of connection points: 2
#     Edge 87, Type (0, 1), BuildingBlock: MIFKUJ_clean_linker_0, # of connection points: 2
#     Edge 88, Type (0, 1), BuildingBlock: MIFKUJ_clean_linker_0, # of connection points: 2
#     Edge 89, Type (0, 1), BuildingBlock: MIFKUJ_clean_linker_0, # of connection points: 2
#     Edge 90, Type (0, 1), BuildingBlock: MIFKUJ_clean_linker_0, # of connection points: 2
#     Edge 91, Type (0, 1), BuildingBlock: MIFKUJ_clean_linker_0, # of connection points: 2
#     Edge 92, Type (0, 1), BuildingBlock: MIFKUJ_clean_linker_0, # of connection points: 2
#     Edge 93, Type (0, 1), BuildingBlock: MIFKUJ_clean_linker_0, # of connection points: 2
#     Edge 94, Type (0, 1), BuildingBlock: MIFKUJ_clean_linker_0, # of connection points: 2
#     Edge 95, Type (0, 1), BuildingBlock: MIFKUJ_clean_linker_0, # of connection points: 2
#     Edge 96, Type (0, 1), BuildingBlock: MIFKUJ_clean_linker_0, # of connection points: 2
#     Edge 97, Type (0, 1), BuildingBlock: MIFKUJ_clean_linker_0, # of connection points: 2
#     Edge 98, Type (0, 1), BuildingBlock: MIFKUJ_clean_linker_0, # of connection points: 2
#     Edge 99, Type (0, 1), BuildingBlock: MIFKUJ_clean_linker_0, # of connection points: 2
#     Edge 100, Type (0, 1), BuildingBlock: MIFKUJ_clean_linker_0, # of connection points: 2
#     Edge 101, Type (0, 1), BuildingBlock: MIFKUJ_clean_linker_0, # of connection points: 2
#     Edge 102, Type (0, 1), BuildingBlock: MIFKUJ_clean_linker_0, # of connection points: 2
#     Edge 103, Type (0, 1), BuildingBlock: MIFKUJ_clean_linker_0, # of connection points: 2
#     Edge 104, Type (0, 1), BuildingBlock: MIFKUJ_clean_linker_0, # of connection points: 2
#     Edge 105, Type (0, 1), BuildingBlock: MIFKUJ_clean_linker_0, # of connection points: 2
#     Edge 106, Type (0, 1), BuildingBlock: MIFKUJ_clean_linker_0, # of connection points: 2
#     Edge 107, Type (0, 1), BuildingBlock: MIFKUJ_clean_linker_0, # of connection points: 2
#     Edge 108, Type (0, 1), BuildingBlock: MIFKUJ_clean_linker_0, # of connection points: 2
#     Edge 109, Type (0, 1), BuildingBlock: MIFKUJ_clean_linker_0, # of connection points: 2
#     Edge 110, Type (0, 1), BuildingBlock: MIFKUJ_clean_linker_0, # of connection points: 2
#     Edge 111, Type (0, 1), BuildingBlock: MIFKUJ_clean_linker_0, # of connection points: 2
#     Edge 112, Type (0, 1), BuildingBlock: MIFKUJ_clean_linker_0, # of connection points: 2
#     Edge 113, Type (0, 1), BuildingBlock: MIFKUJ_clean_linker_0, # of connection points: 2
#     Edge 114, Type (0, 1), BuildingBlock: MIFKUJ_clean_linker_0, # of connection points: 2
#     Edge 115, Type (0, 1), BuildingBlock: MIFKUJ_clean_linker_0, # of connection points: 2
#     Edge 116, Type (0, 1), BuildingBlock: MIFKUJ_clean_linker_0, # of connection points: 2
#     Edge 117, Type (0, 1), BuildingBlock: MIFKUJ_clean_linker_0, # of connection points: 2
#     Edge 118, Type (0, 1), BuildingBlock: MIFKUJ_clean_linker_0, # of connection points: 2
#     Edge 119, Type (0, 1), BuildingBlock: MIFKUJ_clean_linker_0, # of connection points: 2
#     Edge 120, Type (0, 1), BuildingBlock: MIFKUJ_clean_linker_0, # of connection points: 2
#     Edge 121, Type (0, 1), BuildingBlock: MIFKUJ_clean_linker_0, # of connection points: 2
#     Edge 122, Type (0, 1), BuildingBlock: MIFKUJ_clean_linker_0, # of connection points: 2
#     Edge 123, Type (0, 1), BuildingBlock: MIFKUJ_clean_linker_0, # of connection points: 2
#     Edge 124, Type (0, 1), BuildingBlock: MIFKUJ_clean_linker_0, # of connection points: 2
#     Edge 125, Type (0, 1), BuildingBlock: MIFKUJ_clean_linker_0, # of connection points: 2
#     Edge 126, Type (0, 1), BuildingBlock: MIFKUJ_clean_linker_0, # of connection points: 2
#     Edge 127, Type (0, 1), BuildingBlock: MIFKUJ_clean_linker_0, # of connection points: 2
#     Edge 128, Type (0, 1), BuildingBlock: MIFKUJ_clean_linker_0, # of connection points: 2
#     Edge 129, Type (0, 1), BuildingBlock: MIFKUJ_clean_linker_0, # of connection points: 2
#     Edge 130, Type (0, 1), BuildingBlock: MIFKUJ_clean_linker_0, # of connection points: 2
#     Edge 131, Type (0, 1), BuildingBlock: MIFKUJ_clean_linker_0, # of connection points: 2
#     Edge 132, Type (0, 1), BuildingBlock: MIFKUJ_clean_linker_0, # of connection points: 2
#     Edge 133, Type (0, 1), BuildingBlock: MIFKUJ_clean_linker_0, # of connection points: 2
#     Edge 134, Type (0, 1), BuildingBlock: MIFKUJ_clean_linker_0, # of connection points: 2
#     Edge 135, Type (0, 1), BuildingBlock: MIFKUJ_clean_linker_0, # of connection points: 2
# Relax obj value: 0.135
# Max RMSD: 0.308
# Mean RMSD: 0.189
data_MOF--net-gar--node1-AZAVOO_clean_sbu_0--node2-KUMBUR_clean_sbu_0--edge1-MIFKUJ_clean_linker_0
_symmetry_space_group_name_H-M    P1
_symmetry_Int_Tables_number       1
_symmetry_cell_setting            triclinic
loop_
_symmetry_equiv_pos_as_xyz
'x, y, z'
_cell_length_a     77.715302
_cell_length_b     70.95122
_cell_length_c     71.914688
_cell_angle_alpha  102.47274
_cell_angle_beta   92.651612
_cell_angle_gamma 103.3092
loop_
_atom_site_label
_atom_site_type_symbol
_atom_site_fract_x
_atom_site_fract_y
_atom_site_fract_z
_atom_type_partial_charge
Mg0 Mg 0.07962 0.29408 0.362 0.0
O1 O 0.08127 0.32423 0.3825 0.0
O2 O 0.05484 0.32238 0.3941 0.0
Mg3 Mg 0.03664 0.29142 0.38197 0.0
C4 C 0.07065 0.33199 0.39288 0.0
C5 C 0.11525 0.31748 0.35305 0.0
O6 O 0.10405 0.32739 0.34834 0.0
O7 O 0.08255 0.28013 0.3875 0.0
O8 O 0.05518 0.27742 0.39674 0.0
O9 O 0.06868 0.3048 0.33803 0.0
O10 O 0.05211 0.28994 0.35735 0.0
C11 C 0.07068 0.27436 0.39814 0.0
C12 C 0.05327 0.29952 0.34398 0.0
O13 O 0.10951 0.30265 0.36027 0.0
Mg14 Mg 0.01243 0.78904 0.66949 0.0
O15 O 0.00504 0.75659 0.65373 0.0
O16 O 0.97774 0.74852 0.63839 0.0
Mg17 Mg 0.96667 0.77616 0.64707 0.0
C18 C 0.99213 0.74405 0.64289 0.0
C19 C 0.05019 0.79421 0.68802 0.0
O20 O 0.04339 0.80411 0.70222 0.0
O21 O 0.01512 0.79858 0.64124 0.0
O22 O 0.98653 0.79327 0.63038 0.0
O23 O 1.00204 0.78058 0.69572 0.0
O24 O 0.98589 0.78715 0.67283 0.0
C25 C 0.00309 0.79984 0.6292 0.0
C26 C 0.98668 0.78112 0.68842 0.0
O27 O 0.041 0.78713 0.67194 0.0
Mg28 Mg 0.57779 0.78824 0.86557 0.0
O29 O 0.57911 0.81986 0.88274 0.0
O30 O 0.55204 0.8205 0.89179 0.0
Mg31 Mg 0.53473 0.78891 0.88406 0.0
C32 C 0.56815 0.82915 0.89067 0.0
C33 C 0.61379 0.81197 0.85788 0.0
O34 O 0.60306 0.82243 0.85319 0.0
O35 O 0.58045 0.77841 0.89329 0.0
O36 O 0.55399 0.77998 0.90363 0.0
O37 O 0.56743 0.79628 0.83998 0.0
O38 O 0.55044 0.78292 0.86002 0.0
C39 C 0.56938 0.77673 0.90574 0.0
C40 C 0.55188 0.79135 0.84582 0.0
O41 O 0.60749 0.79683 0.86445 0.0
Mg42 Mg 0.50309 0.28355 0.1711 0.0
O43 O 0.49751 0.25229 0.15244 0.0
O44 O 0.47099 0.24405 0.13555 0.0
Mg45 Mg 0.45894 0.27097 0.14464 0.0
C46 C 0.4855 0.23995 0.14027 0.0
C47 C 0.54351 0.29413 0.18825 0.0
O48 O 0.53935 0.30941 0.19931 0.0
O49 O 0.50806 0.29635 0.14473 0.0
O50 O 0.48025 0.29057 0.13116 0.0
O51 O 0.49027 0.27188 0.19495 0.0
O52 O 0.47578 0.28044 0.17221 0.0
C53 C 0.49694 0.29813 0.13197 0.0
C54 C 0.47534 0.27294 0.18702 0.0
O55 O 0.53189 0.28213 0.17551 0.0
Mg56 Mg 0.07608 0.82482 0.12974 0.0
O57 O 0.07189 0.79386 0.10875 0.0
O58 O 0.04512 0.78642 0.09247 0.0
Mg59 Mg 0.03106 0.81117 0.10388 0.0
C60 C 0.05978 0.78211 0.09613 0.0
C61 C 0.1102 0.82575 0.1543 0.0
O62 O 0.09801 0.82757 0.16616 0.0
O63 O 0.07957 0.84328 0.10555 0.0
O64 O 0.05102 0.83501 0.09386 0.0
O65 O 0.06251 0.81018 0.1522 0.0
O66 O 0.04808 0.82048 0.13111 0.0
C67 C 0.06692 0.84539 0.09455 0.0
C68 C 0.04758 0.8123 0.1454 0.0
O69 O 0.10615 0.82527 0.13673 0.0
Mg70 Mg 0.51006 0.76035 0.40522 0.0
O71 O 0.51443 0.79048 0.4276 0.0
O72 O 0.49084 0.78811 0.44425 0.0
Mg73 Mg 0.47193 0.75699 0.43294 0.0
C74 C 0.50565 0.79811 0.44055 0.0
C75 C 0.54371 0.7573 0.38435 0.0
O76 O 0.53132 0.7423 0.37411 0.0
O77 O 0.51615 0.74283 0.42738 0.0
O78 O 0.49166 0.73964 0.4426 0.0
O79 O 0.49589 0.77279 0.38482 0.0
O80 O 0.48186 0.75597 0.40432 0.0
C81 C 0.50675 0.73581 0.43962 0.0
C82 C 0.4811 0.76605 0.39145 0.0
O83 O 0.53951 0.7682 0.39909 0.0
Mg84 Mg 0.58039 0.32663 0.63246 0.0
O85 O 0.57515 0.29551 0.61129 0.0
O86 O 0.54746 0.28811 0.59734 0.0
Mg87 Mg 0.53436 0.31356 0.609 0.0
C88 C 0.56225 0.28361 0.59975 0.0
C89 C 0.62042 0.33652 0.6524 0.0
O90 O 0.61412 0.34942 0.66439 0.0
O91 O 0.5828 0.34493 0.60809 0.0
O92 O 0.55389 0.33692 0.59797 0.0
O93 O 0.56769 0.31265 0.65595 0.0
O94 O 0.55256 0.3228 0.63537 0.0
C95 C 0.56969 0.34713 0.59779 0.0
C96 C 0.55255 0.31482 0.64975 0.0
O97 O 0.61051 0.3261 0.63727 0.0
Mg98 Mg 0.01081 0.26203 0.90924 0.0
O99 O 0.01472 0.29193 0.93201 0.0
O100 O 0.9901 0.28899 0.94713 0.0
Mg101 Mg 0.97128 0.25801 0.935 0.0
C102 C 0.00524 0.29918 0.94442 0.0
C103 C 0.0431 0.26713 0.88593 0.0
O104 O 0.02918 0.26144 0.87313 0.0
O105 O 0.01607 0.24441 0.93161 0.0
O106 O 0.99056 0.2404 0.94499 0.0
O107 O 0.99739 0.27466 0.88832 0.0
O108 O 0.98259 0.25786 0.90733 0.0
C109 C 0.00588 0.23686 0.94299 0.0
C110 C 0.98231 0.26797 0.89443 0.0
O111 O 0.04047 0.26935 0.90355 0.0
Mg112 Mg 0.4228 0.06423 0.28884 0.0
O113 O 0.40783 0.03235 0.28764 0.0
O114 O 0.39864 0.032 0.31659 0.0
Mg115 Mg 0.41047 0.06247 0.337 0.0
C116 C 0.39938 0.02331 0.29922 0.0
C117 C 0.41671 0.0522 0.23944 0.0
O118 O 0.40545 0.05467 0.22651 0.0
O119 O 0.39751 0.07419 0.29157 0.0
O120 O 0.39189 0.07683 0.32211 0.0
O121 O 0.44871 0.05697 0.29696 0.0
O122 O 0.43128 0.06828 0.31748 0.0
C123 C 0.38839 0.07886 0.30526 0.0
C124 C 0.44522 0.06176 0.31455 0.0
O125 O 0.41519 0.05906 0.25692 0.0
Mg126 Mg 0.29814 0.18501 0.50531 0.0
O127 O 0.30007 0.20544 0.5354 0.0
O128 O 0.32738 0.2257 0.54121 0.0
Mg129 Mg 0.34353 0.21667 0.51628 0.0
C130 C 0.31186 0.21974 0.54616 0.0
C131 C 0.26052 0.1664 0.51609 0.0
O132 O 0.27084 0.16436 0.53015 0.0
O133 O 0.29777 0.21047 0.49038 0.0
O134 O 0.32645 0.22689 0.49537 0.0
O135 O 0.30756 0.16256 0.51801 0.0
O136 O 0.32541 0.18676 0.50838 0.0
C137 C 0.31068 0.22406 0.48752 0.0
C138 C 0.32357 0.1717 0.516 0.0
O139 O 0.26763 0.17538 0.50379 0.0
Mg140 Mg 0.16128 0.007 0.76828 0.0
O141 O 0.18205 0.03875 0.77354 0.0
O142 O 0.19854 0.0435 0.80107 0.0
Mg143 Mg 0.18792 0.01729 0.81578 0.0
C144 C 0.19469 0.04953 0.78623 0.0
C145 C 0.13733 1.00288 0.72559 0.0
O146 O 0.1249 0.99217 0.73343 0.0
O147 O 0.18309 0.98538 0.76371 0.0
O148 O 0.19537 0.99194 0.79384 0.0
O149 O 0.14023 0.01929 0.78716 0.0
O150 O 0.16116 0.00949 0.79989 0.0
C151 C 0.19338 0.98161 0.77658 0.0
C152 C 0.14736 0.01638 0.80249 0.0
O153 O 0.15297 0.0096 0.735 0.0
Mg154 Mg 0.31434 0.94967 0.03444 0.0
O155 O 0.31796 0.9281 0.00686 0.0
O156 O 0.3436 0.91975 0.01186 0.0
Mg157 Mg 0.35678 0.93665 0.0416 0.0
C158 C 0.32953 0.91846 1.0013 0.0
C159 C 0.27411 0.94565 0.03626 0.0
O160 O 0.27885 0.94395 0.05348 0.0
O161 O 0.30736 0.92428 0.04975 0.0
O162 O 0.33422 0.91863 0.05441 0.0
O163 O 0.32949 0.97537 0.0237 0.0
O164 O 0.34135 0.95882 0.04143 0.0
C165 C 0.31762 0.91507 0.05638 0.0
C166 C 0.34349 0.97249 0.03201 0.0
O167 O 0.2856 0.94671 0.02428 0.0
Mg168 Mg 0.30842 0.40439 0.04681 0.0
O169 O 0.30637 0.38138 0.0178 0.0
O170 O 0.3305 0.36946 0.019 0.0
Mg171 Mg 0.34754 0.38351 0.04759 0.0
C172 C 0.31616 0.37021 0.01011 0.0
C173 C 0.27979 0.42594 0.0444 0.0
O174 O 0.29485 0.43927 0.05076 0.0
O175 O 0.30025 0.38025 0.06409 0.0
O176 O 0.32586 0.37111 0.06519 0.0
O177 O 0.32551 0.42824 0.03457 0.0
O178 O 0.33612 0.40916 0.05005 0.0
C179 C 0.31023 0.37038 0.07027 0.0
C180 C 0.33913 0.42309 0.04099 0.0
O181 O 0.27997 0.40761 0.04092 0.0
Mg182 Mg 0.78836 0.1445 1.00112 0.0
O183 O 0.79473 0.16615 0.03006 0.0
O184 O 0.82356 0.1813 0.03486 0.0
Mg185 Mg 0.83579 0.16756 0.00826 0.0
C186 C 0.80796 0.17865 0.04032 0.0
C187 C 0.74401 0.14578 0.00619 0.0
O188 O 0.73733 0.15853 0.99925 0.0
O189 O 0.79189 0.16982 0.98664 0.0
O190 O 0.82121 0.18269 0.9892 0.0
O191 O 0.7931 0.12023 0.01397 0.0
O192 O 0.81364 0.14016 1.00191 0.0
C193 C 0.80534 0.1821 0.98306 0.0
C194 C 0.80951 0.12583 0.01053 0.0
O195 O 0.76002 0.14535 0.00434 0.0
Mg196 Mg 0.17467 0.5106 0.23274 0.0
O197 O 0.18774 0.54408 0.23726 0.0
O198 O 0.19544 0.55557 0.26878 0.0
Mg199 Mg 0.18652 0.53093 0.28443 0.0
C200 C 0.19487 0.55814 0.25175 0.0
C201 C 0.17728 0.5092 0.18578 0.0
O202 O 0.18599 0.50322 0.17132 0.0
O203 O 0.20137 0.50439 0.23911 0.0
O204 O 0.20775 0.51658 0.27069 0.0
O205 O 0.14764 0.51736 0.2376 0.0
O206 O 0.16667 0.51508 0.26002 0.0
C207 C 0.21156 0.50792 0.25449 0.0
C208 C 0.15177 0.51849 0.25551 0.0
O209 O 0.18086 0.50516 0.20164 0.0
Mg210 Mg 0.80691 0.90433 0.54446 0.0
O211 O 0.80357 0.88072 0.51572 0.0
O212 O 0.82539 0.86528 0.51743 0.0
Mg213 Mg 0.84284 0.87906 0.54591 0.0
C214 C 0.81188 0.86776 0.50835 0.0
C215 C 0.77897 0.92746 0.54325 0.0
O216 O 0.79398 0.94058 0.55034 0.0
O217 O 0.79707 0.88145 0.56232 0.0
O218 O 0.82059 0.86854 0.56422 0.0
O219 O 0.82475 0.9266 0.5317 0.0
O220 O 0.83441 0.90687 0.54725 0.0
C221 C 0.80523 0.87018 0.56892 0.0
C222 C 0.83796 0.92052 0.53777 0.0
O223 O 0.7791 0.90914 0.53874 0.0
Mg224 Mg 0.93599 0.0783 0.27975 0.0
O225 O 0.91446 0.04668 0.27567 0.0
O226 O 0.90014 0.04997 0.30195 0.0
Mg227 Mg 0.91123 0.0811 0.32235 0.0
C228 C 0.90279 0.03932 0.28608 0.0
C229 C 0.95901 0.07311 0.24137 0.0
O230 O 0.97158 0.07687 0.25548 0.0
O231 O 0.91503 0.09893 0.27556 0.0
O232 O 0.9018 0.10017 0.30249 0.0
O233 O 0.95569 0.06593 0.29645 0.0
O234 O 0.93784 0.08186 0.31146 0.0
C235 C 0.90405 0.10564 0.28672 0.0
C236 C 0.95 0.07229 0.31265 0.0
O237 O 0.94298 0.07222 0.2459 0.0
Mg238 Mg 0.28662 0.6349 0.50523 0.0
O239 O 0.28172 0.65273 0.53451 0.0
O240 O 0.30869 0.67279 0.54585 0.0
Mg241 Mg 0.33038 0.66452 0.52761 0.0
C242 C 0.292 0.66703 0.54696 0.0
C243 C 0.2425 0.62695 0.49613 0.0
O244 O 0.22991 0.62573 0.48278 0.0
O245 O 0.29217 0.66297 0.49485 0.0
O246 O 0.3202 0.67946 0.50535 0.0
O247 O 0.29034 0.609 0.51682 0.0
O248 O 0.3115 0.63548 0.51621 0.0
C249 C 0.30553 0.67742 0.49548 0.0
C250 C 0.30696 0.61848 0.52051 0.0
O251 O 0.25836 0.6293 0.49183 0.0
Mg252 Mg 0.43835 0.57839 0.77927 0.0
O253 O 0.4174 0.54671 0.77581 0.0
O254 O 0.40246 0.55017 0.80167 0.0
Mg255 Mg 0.41413 0.58121 0.82236 0.0
C256 C 0.40544 0.53948 0.78596 0.0
C257 C 0.4564 0.5836 0.73808 0.0
O258 O 0.46309 0.6016 0.74877 0.0
O259 O 0.41658 0.59825 0.77475 0.0
O260 O 0.40555 0.60107 0.80298 0.0
O261 O 0.45882 0.56694 0.79598 0.0
O262 O 0.4404 0.58185 0.811 0.0
C263 C 0.4068 0.606 0.78687 0.0
C264 C 0.45298 0.57287 0.81219 0.0
O265 O 0.44559 0.5712 0.74554 0.0
Mg266 Mg 0.67218 0.01508 0.73404 0.0
O267 O 0.68639 0.04836 0.74436 0.0
O268 O 0.68888 0.05617 0.77646 0.0
Mg269 Mg 0.67857 0.02787 0.78666 0.0
C270 C 0.69105 0.06095 0.76046 0.0
C271 C 0.67792 0.01804 0.68808 0.0
O272 O 0.68955 0.01631 0.67552 0.0
O273 O 0.69787 0.00727 0.7415 0.0
O274 O 0.70166 0.01678 0.77348 0.0
O275 O 0.64549 0.02271 0.73629 0.0
O276 O 0.66105 0.01649 0.75972 0.0
C277 C 0.70691 0.00985 0.75746 0.0
C278 C 0.6476 0.02219 0.75411 0.0
O279 O 0.68146 0.01491 0.7044 0.0
Mg280 Mg 0.80098 0.68519 0.0042 0.0
O281 O 0.80244 0.70597 0.03403 0.0
O282 O 0.82952 0.72662 0.04027 0.0
Mg283 Mg 0.84609 0.71737 0.01572 0.0
C284 C 0.81393 0.72043 0.04496 0.0
C285 C 0.76316 0.65768 0.99454 0.0
O286 O 0.77327 0.64632 0.98659 0.0
O287 O 0.80082 0.70996 0.98811 0.0
O288 O 0.82942 0.72658 0.99355 0.0
O289 O 0.81031 0.66323 0.01765 0.0
O290 O 0.82833 0.68714 0.00781 0.0
C291 C 0.81384 0.72333 0.98505 0.0
C292 C 0.82639 0.67228 0.01574 0.0
O293 O 0.77049 0.67567 0.00301 0.0
Mg294 Mg 0.91991 0.56528 0.80017 0.0
O295 O 0.90731 0.53319 0.80121 0.0
O296 O 0.90319 0.53249 0.8317 0.0
Mg297 Mg 0.9138 0.56419 0.85018 0.0
C298 C 0.90196 0.52384 0.81399 0.0
C299 C 0.90911 0.55303 0.75031 0.0
O300 O 0.89404 0.553 0.74121 0.0
O301 O 0.89368 0.57214 0.80544 0.0
O302 O 0.8907 0.57378 0.83651 0.0
O303 O 0.9472 0.56053 0.8046 0.0
O304 O 0.93122 0.57049 0.82777 0.0
C305 C 0.88511 0.57511 0.81999 0.0
C306 C 0.94515 0.56471 0.82268 0.0
O307 O 0.91074 0.55789 0.76847 0.0
Mg308 Mg 0.81771 0.45272 0.53594 0.0
O309 O 0.81774 0.43117 0.50678 0.0
O310 O 0.84197 0.41945 0.50911 0.0
Mg311 Mg 0.85684 0.43217 0.53883 0.0
C312 C 0.82804 0.42043 0.49958 0.0
C313 C 0.78756 0.4642 0.51551 0.0
O314 O 0.80105 0.46986 0.50594 0.0
O315 O 0.80763 0.42633 0.54953 0.0
O316 O 0.83295 0.41683 0.55142 0.0
O317 O 0.83519 0.47802 0.52615 0.0
O318 O 0.84517 0.45746 0.54035 0.0
C319 C 0.81672 0.41507 0.55458 0.0
C320 C 0.84845 0.47177 0.53172 0.0
O321 O 0.78966 0.45499 0.52842 0.0
Mg322 Mg 0.66146 0.50541 0.26825 0.0
O323 O 0.68214 0.5371 0.27253 0.0
O324 O 0.69953 0.54208 0.29951 0.0
Mg325 Mg 0.68927 0.51632 0.31487 0.0
C326 C 0.69516 0.54792 0.28473 0.0
C327 C 0.63806 0.51126 0.23013 0.0
O328 O 0.62805 0.5153 0.24396 0.0
O329 O 0.68292 0.48351 0.2632 0.0
O330 O 0.69639 0.4908 0.29287 0.0
O331 O 0.64128 0.51872 0.28766 0.0
O332 O 0.66203 0.50822 0.29988 0.0
C333 C 0.69381 0.48012 0.27572 0.0
C334 C 0.64854 0.51562 0.30284 0.0
O335 O 0.6525 0.50639 0.23466 0.0
Tb336 Tb 0.02615 0.03057 0.00629 0.0
C337 C 0.07909 0.10086 0.05981 0.0
C338 C 0.08528 0.12578 0.04133 0.0
C339 C 0.08797 0.13591 0.07605 0.0
C340 C 0.07963 0.10572 0.04237 0.0
C341 C 0.08364 0.11582 0.07693 0.0
C342 C 0.08898 0.14088 0.05825 0.0
C343 C 0.08243 0.09001 0.09417 0.0
N344 N 0.07586 0.08134 0.05991 0.0
C345 C 0.07848 0.07581 0.07674 0.0
C346 C 0.08473 0.11012 0.0943 0.0
Tb347 Tb 0.0681 0.05873 0.0309 0.0
N348 N 0.07663 0.09062 0.02651 0.0
C349 C 0.08078 0.09469 0.00924 0.0
C350 C 0.08819 0.12995 0.02346 0.0
C351 C 0.08619 0.11433 0.00739 0.0
H352 H 0.0769 0.06032 0.07686 0.0
H353 H 0.08892 0.11739 0.99357 0.0
H354 H 0.09348 0.15635 0.05781 0.0
H355 H 0.08382 0.08543 0.10746 0.0
H356 H 0.07947 0.08297 0.99656 0.0
H357 H 0.00681 0.97066 0.0423 0.0
H358 H 0.09283 0.14506 0.02203 0.0
H359 H 0.01734 0.03025 0.96063 0.0
H360 H 0.01595 0.00541 0.04001 0.0
H361 H 0.00902 0.0057 0.92983 0.0
H362 H 0.09146 0.14765 0.08902 0.0
H363 H 0.00237 0.94352 0.01327 0.0
H364 H 1.00086 0.93317 0.97739 0.0
H365 H 0.08809 0.12114 0.10777 0.0
H366 H 1.0021 0.94271 0.94653 0.0
N367 N 0.01833 0.99841 0.00997 0.0
C368 C 0.01453 0.99388 0.02713 0.0
C369 C 0.007 0.95878 0.01217 0.0
C370 C 0.00956 0.96346 0.99442 0.0
C371 C 0.00928 0.97408 0.02856 0.0
C372 C 0.01519 0.98367 0.99382 0.0
H373 H 0.00468 0.96979 0.92861 0.0
N374 N 0.01866 0.00867 0.9769 0.0
C375 C 0.01092 1.00078 0.94284 0.0
C376 C 0.01545 0.98901 0.97656 0.0
C377 C 0.01566 0.01468 0.96041 0.0
C378 C 0.00859 0.98056 0.9422 0.0
C379 C 0.01036 0.9744 0.95924 0.0
O380 O 0.00542 0.04081 0.99508 0.0
O381 O 0.04329 0.06032 0.01737 0.0
O382 O 0.04875 0.06427 0.05201 0.0
O383 O 0.02369 0.03914 0.03776 0.0
O384 O 0.03019 0.05387 0.99052 0.0
O385 O 1.00189 0.02654 0.01854 0.0
O386 O 0.08873 0.04919 0.04328 0.0
O387 O 0.05098 0.02906 0.01995 0.0
O388 O 0.04557 0.02448 0.98526 0.0
O389 O 0.07033 0.04999 0.99942 0.0
O390 O 0.06386 0.0356 0.04687 0.0
O391 O 0.09177 0.0604 0.01782 0.0
C392 C 0.04076 0.06771 0.00316 0.0
C393 C 0.97634 0.0236 0.9982 0.0
C394 C 0.94481 0.02267 0.99506 0.0
C395 C 0.96223 0.03224 0.00329 0.0
C396 C 0.94165 1.00427 0.98173 0.0
C397 C 0.97296 0.00509 0.98508 0.0
C398 C 0.95567 0.99551 0.97686 0.0
C399 C 0.03256 0.05315 0.05276 0.0
C400 C 0.99441 0.03435 0.00664 0.0
C401 C 0.006 0.95418 0.95966 0.0
C402 C 0.00544 0.94872 0.97725 0.0
C403 C 0.05346 0.02167 0.03416 0.0
C404 C 0.11773 0.06421 0.03776 0.0
C405 C 0.13011 0.05277 0.03795 0.0
C406 C 0.14818 0.06197 0.04289 0.0
C407 C 0.15385 0.08282 0.04795 0.0
C408 C 0.12335 0.08507 0.04312 0.0
C409 C 0.1414 0.09431 0.04827 0.0
C410 C 0.06176 0.03567 0.98449 0.0
C411 C 0.09934 0.05379 0.03067 0.0
H412 H 0.96485 0.04658 0.0134 0.0
H413 H 0.92831 0.99659 0.97524 0.0
H414 H 0.98358 0.99807 0.98115 0.0
H415 H 0.95313 0.98126 0.96669 0.0
H416 H 0.12576 0.03665 0.03358 0.0
H417 H 0.16782 0.09013 0.05168 0.0
H418 H 0.11391 0.09413 0.04301 0.0
H419 H 0.14578 0.1104 0.05225 0.0
Tb420 Tb 0.30384 0.78198 0.24955 0.0
C421 C 0.28902 0.84627 0.29768 0.0
C422 C 0.31594 0.86351 0.31837 0.0
C423 C 0.29798 0.88255 0.30573 0.0
C424 C 0.304 0.84561 0.30833 0.0
C425 C 0.28555 0.8648 0.29681 0.0
C426 C 0.3131 0.8819 0.31659 0.0
C427 C 0.25634 0.84721 0.28186 0.0
N428 N 0.27714 0.82884 0.28949 0.0
C429 C 0.26029 0.82941 0.28344 0.0
C430 C 0.26925 0.86501 0.28797 0.0
Tb431 Tb 0.28512 0.79998 0.29224 0.0
N432 N 0.30619 0.82755 0.30997 0.0
C433 C 0.319 0.82687 0.32349 0.0
C434 C 0.32989 0.86248 0.33069 0.0
C435 C 0.33129 0.84412 0.33346 0.0
H436 H 0.24942 0.81635 0.28037 0.0
H437 H 0.34145 0.84328 0.34386 0.0
H438 H 0.32207 0.89573 0.32423 0.0
H439 H 0.24308 0.84712 0.2766 0.0
H440 H 0.3196 0.81338 0.32772 0.0
H441 H 0.26449 0.75786 0.18037 0.0
H442 H 0.33892 0.87577 0.33907 0.0
H443 H 0.32655 0.75462 0.27039 0.0
H444 H 0.28459 0.78186 0.20671 0.0
H445 H 0.32405 0.72 0.27011 0.0
H446 H 0.29562 0.89686 0.30504 0.0
H447 H 0.25692 0.72199 0.18013 0.0
H448 H 0.26229 0.69457 0.19481 0.0
H449 H 0.26605 0.87888 0.28705 0.0
H450 H 0.27895 0.68425 0.21911 0.0
N451 N 0.28691 0.7603 0.22273 0.0
C452 C 0.28085 0.76637 0.2073 0.0
C453 C 0.26543 0.73257 0.19202 0.0
C454 C 0.27316 0.72617 0.20667 0.0
C455 C 0.26966 0.75276 0.19211 0.0
C456 C 0.28416 0.74058 0.22185 0.0
H457 H 0.30216 0.69358 0.24703 0.0
N458 N 0.30454 0.7493 0.24916 0.0
C459 C 0.31513 0.72394 0.26044 0.0
C460 C 0.29351 0.73485 0.23539 0.0
C461 C 0.3161 0.74394 0.26086 0.0
C462 C 0.30284 0.70908 0.24735 0.0
C463 C 0.29212 0.71441 0.2343 0.0
O464 O 0.33181 0.78975 0.25086 0.0
O465 O 0.30467 0.80735 0.27294 0.0
O466 O 0.26497 0.7936 0.26727 0.0
O467 O 0.28018 0.79085 0.24012 0.0
O468 O 0.30343 0.81144 0.24554 0.0
O469 O 0.31592 0.78319 0.22415 0.0
O470 O 0.25889 0.79377 0.29942 0.0
O471 O 0.28399 0.77492 0.26862 0.0
O472 O 0.32276 0.78615 0.27481 0.0
O473 O 0.30727 0.78888 0.30189 0.0
O474 O 0.282 0.76948 0.29545 0.0
O475 O 0.28094 0.8047 0.32133 0.0
C476 C 0.30526 0.82044 0.26339 0.0
C477 C 0.34105 0.81056 0.22986 0.0
C478 C 0.34184 0.83777 0.21384 0.0
C479 C 0.33366 0.81877 0.21626 0.0
C480 C 0.35753 0.84875 0.22543 0.0
C481 C 0.35685 0.82166 0.24114 0.0
C482 C 0.36496 0.84068 0.23897 0.0
C483 C 0.26598 0.79329 0.24882 0.0
C484 C 0.33164 0.79114 0.23317 0.0
C485 C 0.28039 0.69997 0.21996 0.0
C486 C 0.27088 0.70585 0.20617 0.0
C487 C 0.28166 0.76125 0.27758 0.0
C488 C 0.2546 0.78407 0.32856 0.0
C489 C 0.26374 0.7795 0.34364 0.0
C490 C 0.25451 0.7671 0.35454 0.0
C491 C 0.23608 0.75945 0.35051 0.0
C492 C 0.23614 0.77623 0.32465 0.0
C493 C 0.22696 0.76401 0.33562 0.0
C494 C 0.32158 0.78669 0.29325 0.0
C495 C 0.26378 0.79804 0.31768 0.0
H496 H 0.32127 0.81054 0.20778 0.0
H497 H 0.36424 0.86339 0.22383 0.0
H498 H 0.36274 0.81578 0.25186 0.0
H499 H 0.37705 0.84922 0.24783 0.0
H500 H 0.27797 0.78551 0.34698 0.0
H501 H 0.22875 0.75014 0.35907 0.0
H502 H 0.22876 0.77979 0.31328 0.0
H503 H 0.21272 0.75816 0.33263 0.0
Tb504 Tb 0.5704 0.04805 0.513 0.0
C505 C 0.50586 0.0061 0.54731 0.0
C506 C 0.49094 0.97737 0.52245 0.0
C507 C 0.48763 0.97708 0.55582 0.0
C508 C 0.50236 0.99663 0.5282 0.0
C509 C 0.49826 0.99664 0.56136 0.0
C510 C 0.4839 0.9675 0.53637 0.0
C511 C 0.50989 0.02755 0.58488 0.0
N512 N 0.51531 0.02535 0.55194 0.0
C513 C 0.51685 0.03639 0.57037 0.0
C514 C 0.50074 0.0075 0.58041 0.0
Tb515 Tb 0.52579 0.03886 0.52724 0.0
N516 N 0.50852 0.00718 0.51522 0.0
C517 C 0.50264 0.99975 0.49623 0.0
C518 C 0.48603 0.96914 0.50292 0.0
C519 C 0.49161 0.98055 0.48978 0.0
H520 H 0.52384 0.05192 0.57403 0.0
H521 H 0.48743 0.9746 0.47467 0.0
H522 H 0.47514 0.95268 0.53222 0.0
H523 H 0.51153 0.03623 0.59949 0.0
H524 H 0.50666 0.00831 0.4858 0.0
H525 H 0.60456 0.11498 0.56558 0.0
H526 H 0.47733 0.95436 0.49791 0.0
H527 H 0.57677 0.03382 0.46761 0.0
H528 H 0.58754 0.08032 0.5547 0.0
H529 H 0.58949 0.04921 0.44209 0.0
H530 H 0.48171 0.9695 0.56639 0.0
H531 H 0.61457 0.1349 0.54204 0.0
H532 H 0.61741 0.13605 0.50755 0.0
H533 H 0.49514 1.00075 0.59163 0.0
H534 H 0.61322 0.11807 0.47365 0.0
N535 N 0.58701 0.08023 0.52493 0.0
C536 C 0.59171 0.08854 0.54407 0.0
C537 C 0.60698 0.11958 0.5371 0.0
C538 C 0.60329 0.11062 0.51756 0.0
C539 C 0.60142 0.10837 0.55041 0.0
C540 C 0.59328 0.09067 0.51193 0.0
H541 H 0.60315 0.08546 0.44908 0.0
N542 N 0.58239 0.06117 0.4887 0.0
C543 C 0.58983 0.05832 0.45633 0.0
C544 C 0.59081 0.08075 0.49302 0.0
C545 C 0.58264 0.04965 0.47086 0.0
C546 C 0.59745 0.07879 0.46031 0.0
C547 C 0.59841 0.0902 0.47898 0.0
O548 O 0.58479 0.02692 0.50222 0.0
O549 O 0.54669 0.02618 0.51555 0.0
O550 O 0.54188 0.02826 0.54665 0.0
O551 O 0.56953 0.04773 0.54334 0.0
O552 O 0.55935 0.01994 0.49179 0.0
O553 O 0.59279 0.04679 0.52984 0.0
O554 O 0.51104 0.05882 0.54006 0.0
O555 O 0.54921 0.06106 0.52416 0.0
O556 O 0.55467 0.05627 0.49154 0.0
O557 O 0.52589 0.04066 0.49703 0.0
O558 O 0.5369 0.06653 0.54852 0.0
O559 O 0.50323 0.0411 0.51138 0.0
C560 C 0.54604 0.01306 0.50038 0.0
C561 C 0.61531 0.03604 0.51289 0.0
C562 C 0.64338 0.02611 0.51355 0.0
C563 C 0.62538 0.02308 0.51708 0.0
C564 C 0.65099 0.04207 0.50544 0.0
C565 C 0.62327 0.05199 0.50507 0.0
C566 C 0.64099 0.0549 0.50127 0.0
C567 C 0.55887 0.03649 0.55266 0.0
C568 C 0.59663 0.03287 0.51696 0.0
C569 C 0.60747 0.11043 0.48425 0.0
C570 C 0.60987 0.12065 0.50355 0.0
C571 C 0.54953 0.07403 0.53943 0.0
C572 C 0.48047 0.04971 0.52943 0.0
C573 C 0.47037 0.06346 0.52777 0.0
C574 C 0.45231 0.05943 0.53112 0.0
C575 C 0.44465 0.04166 0.53648 0.0
C576 C 0.47248 0.03203 0.53463 0.0
C577 C 0.4547 0.02809 0.53822 0.0
C578 C 0.53731 0.04968 0.48662 0.0
C579 C 0.49917 0.05382 0.52536 0.0
H580 H 0.6193 0.01095 0.52343 0.0
H581 H 0.6647 0.0446 0.50221 0.0
H582 H 0.61587 0.06223 0.50196 0.0
H583 H 0.64701 0.06718 0.49512 0.0
H584 H 0.47646 0.07703 0.5235 0.0
H585 H 0.43088 0.03829 0.53945 0.0
H586 H 0.4799 0.02122 0.53582 0.0
H587 H 0.44867 0.01443 0.5423 0.0
Tb588 Tb 0.28082 0.29708 0.77245 0.0
C589 C 0.33383 0.26329 0.81037 0.0
C590 C 0.34551 0.28814 0.83958 0.0
C591 C 0.34296 0.25314 0.83865 0.0
C592 C 0.33809 0.28287 0.82037 0.0
C593 C 0.3367 0.2482 0.81915 0.0
C594 C 0.34736 0.2731 0.84887 0.0
C595 C 0.32911 0.22511 0.7882 0.0
N596 N 0.32818 0.25927 0.79151 0.0
C597 C 0.32665 0.24066 0.78013 0.0
C598 C 0.33388 0.22882 0.80787 0.0
Tb599 Tb 0.32318 0.28537 0.77987 0.0
N600 N 0.33642 0.29688 0.81072 0.0
C601 C 0.34358 0.31661 0.81898 0.0
C602 C 0.35165 0.30834 0.84855 0.0
C603 C 0.35108 0.32262 0.83804 0.0
H604 H 0.32284 0.23761 0.76495 0.0
H605 H 0.35625 0.33829 0.84465 0.0
H606 H 0.35282 0.27682 0.86371 0.0
H607 H 0.32731 0.21028 0.77926 0.0
H608 H 0.34312 0.32792 0.81122 0.0
H609 H 0.25075 0.24473 0.70601 0.0
H610 H 0.35744 0.31304 0.8633 0.0
H611 H 0.27587 0.3426 0.78828 0.0
H612 H 0.26252 0.25474 0.73982 0.0
H613 H 0.26994 0.36987 0.77474 0.0
H614 H 0.34506 0.24174 0.84576 0.0
H615 H 0.24948 0.27028 0.68776 0.0
H616 H 0.25281 0.30656 0.68815 0.0
H617 H 0.33591 0.21678 0.81407 0.0
H618 H 0.25809 0.34111 0.7071 0.0
N619 N 0.26855 0.28593 0.74107 0.0
C620 C 0.26201 0.26621 0.73231 0.0
C621 C 0.2547 0.27482 0.7027 0.0
C622 C 0.25995 0.29495 0.71215 0.0
C623 C 0.2553 0.26038 0.71299 0.0
C624 C 0.26669 0.3 0.73159 0.0
H625 H 0.26398 0.36484 0.73967 0.0
N626 N 0.27418 0.32264 0.76111 0.0
C627 C 0.26998 0.35574 0.76534 0.0
C628 C 0.26969 0.31922 0.74207 0.0
C629 C 0.2733 0.34023 0.77296 0.0
C630 C 0.26673 0.35288 0.74554 0.0
C631 C 0.26602 0.33423 0.73366 0.0
O632 O 0.26417 0.30579 0.79336 0.0
O633 O 0.30105 0.29447 0.79266 0.0
O634 O 0.30268 0.26194 0.78796 0.0
O635 O 0.27733 0.26465 0.77123 0.0
O636 O 0.28974 0.31799 0.80009 0.0
O637 O 0.25545 0.27831 0.77243 0.0
O638 O 0.33918 0.27462 0.75919 0.0
O639 O 0.30333 0.28869 0.75961 0.0
O640 O 0.30088 0.32302 0.76782 0.0
O641 O 0.32749 0.31767 0.77992 0.0
O642 O 0.31373 0.26434 0.75249 0.0
O643 O 0.34909 0.30266 0.77922 0.0
C644 C 0.30123 0.30955 0.80582 0.0
C645 C 0.23345 0.29477 0.78363 0.0
C646 C 0.2035 0.29458 0.79318 0.0
C647 C 0.22026 0.29043 0.79601 0.0
C648 C 0.2005 0.30364 0.77812 0.0
C649 C 0.22979 0.30324 0.76847 0.0
C650 C 0.2135 0.30781 0.76587 0.0
C651 C 0.28594 0.25447 0.78023 0.0
C652 C 0.25097 0.2905 0.78651 0.0
C653 C 0.26072 0.32973 0.71394 0.0
C654 C 0.2577 0.31006 0.70316 0.0
C655 C 0.30307 0.27358 0.74645 0.0
C656 C 0.37013 0.28461 0.76783 0.0
C657 C 0.3834 0.28878 0.75543 0.0
C658 C 0.3998 0.28358 0.75774 0.0
C659 C 0.40229 0.27371 0.77232 0.0
C660 C 0.37336 0.2753 0.78247 0.0
C661 C 0.38925 0.26977 0.78459 0.0
C662 C 0.31823 0.32913 0.7736 0.0
C663 C 0.35285 0.28962 0.7653 0.0
H664 H 0.22294 0.28353 0.80752 0.0
H665 H 0.18805 0.30759 0.77579 0.0
H666 H 0.23948 0.3063 0.75859 0.0
H667 H 0.2109 0.31458 0.75425 0.0
H668 H 0.38102 0.29624 0.74426 0.0
H669 H 0.41433 0.26883 0.77423 0.0
H670 H 0.36356 0.27219 0.79223 0.0
H671 H 0.39148 0.26232 0.7958 0.0
Tb672 Tb 0.04826 0.0649 0.53179 0.0
C673 C 0.06347 0.00611 0.4635 0.0
C674 C 0.03845 0.99957 0.43974 0.0
C675 C 0.06739 0.99685 0.42969 0.0
C676 C 0.04582 0.00519 0.459 0.0
C677 C 0.07442 1.00161 0.44895 0.0
C678 C 0.04943 0.99583 0.42509 0.0
C679 C 0.09796 0.0052 0.47355 0.0
N680 N 0.06967 0.01052 0.48225 0.0
C681 C 0.08652 0.00937 0.48746 0.0
C682 C 0.09195 1.0015 0.4542 0.0
Tb683 Tb 0.05005 0.01776 0.50394 0.0
N684 N 0.03567 0.00874 0.47357 0.0
C685 C 0.01765 0.0055 0.46978 0.0
C686 C 0.02021 0.99733 0.4358 0.0
C687 C 0.00973 1.00004 0.45091 0.0
H688 H 0.09139 0.01226 0.50234 0.0
H689 H 0.99554 0.99802 0.44805 0.0
H690 H 0.04405 0.99168 0.4102 0.0
H691 H 0.1114 0.0048 0.47777 0.0
H692 H 0.00924 0.00755 0.48117 0.0
H693 H 0.10295 0.08452 0.58758 0.0
H694 H 0.01404 0.9931 0.42119 0.0
H695 H 0.00835 0.07431 0.53375 0.0
H696 H 0.08918 0.07501 0.55474 0.0
H697 H 0.98865 0.08291 0.55823 0.0
H698 H 0.07562 0.99348 0.41828 0.0
H699 H 0.08474 0.09001 0.6146 0.0
H700 H 0.05497 0.09247 0.62576 0.0
H701 H 0.10081 0.99813 0.44345 0.0
H702 H 0.0237 0.09207 0.61774 0.0
N703 N 0.06276 0.07422 0.56229 0.0
C704 C 0.08076 0.07718 0.56603 0.0
C705 C 0.07848 0.08575 0.60004 0.0
C706 C 0.06032 0.084 0.59619 0.0
C707 C 0.08879 0.08267 0.58485 0.0
C708 C 0.05287 0.0784 0.57695 0.0
H709 H 0.99889 0.08879 0.59256 0.0
N710 N 0.02949 0.07432 0.55378 0.0
C711 C 1.00179 0.08158 0.56248 0.0
C712 C 0.03552 0.07837 0.57251 0.0
C713 C 0.01306 0.07668 0.54861 0.0
C714 C 0.00759 0.08483 0.58182 0.0
C715 C 0.02479 0.08364 0.58707 0.0
O716 O 0.04243 0.09035 0.52494 0.0
O717 O 0.04408 0.04592 0.50278 0.0
O718 O 0.07058 0.03995 0.49519 0.0
O719 O 0.07499 0.06337 0.52391 0.0
O720 O 0.02661 0.06271 0.50999 0.0
O721 O 0.06944 0.08889 0.53079 0.0
O722 O 0.05729 0.99425 0.51309 0.0
O723 O 0.05318 0.03625 0.53327 0.0
O724 O 0.02612 0.04355 0.53934 0.0
O725 O 0.02336 0.01698 0.51292 0.0
O726 O 0.07153 0.02045 0.52608 0.0
O727 O 0.03095 0.99043 0.49964 0.0
C728 C 0.03041 0.05032 0.49597 0.0
C729 C 0.06408 0.1207 0.53621 0.0
C730 C 0.0725 0.15501 0.53324 0.0
C731 C 0.06632 0.13461 0.52489 0.0
C732 C 0.07641 0.16138 0.5532 0.0
C733 C 0.06781 0.12713 0.55615 0.0
C734 C 0.07395 0.14747 0.56458 0.0
C735 C 0.08046 0.05566 0.50754 0.0
C736 C 0.05911 0.09963 0.52649 0.0
C737 C 0.03177 0.08815 0.60632 0.0
C738 C 0.04955 0.08836 0.61088 0.0
C739 C 0.06685 0.03192 0.54027 0.0
C740 C 0.04224 0.96184 0.49717 0.0
C741 C 0.04009 0.94732 0.50783 0.0
C742 C 0.04167 0.92801 0.4997 0.0
C743 C 0.04503 0.92335 0.48039 0.0
C744 C 0.04556 0.95704 0.47796 0.0
C745 C 0.04686 0.93778 0.4696 0.0
C746 C 0.01726 0.02633 0.52817 0.0
C747 C 0.04188 0.98201 0.50704 0.0
H748 H 0.06372 0.12948 0.50944 0.0
H749 H 0.08114 0.17708 0.55997 0.0
H750 H 0.06624 0.1165 0.56509 0.0
H751 H 0.07691 0.15246 0.57996 0.0
H752 H 0.03717 0.95121 0.52258 0.0
H753 H 0.04653 0.90869 0.47368 0.0
H754 H 0.04726 0.96811 0.46953 0.0
H755 H 0.04951 0.93409 0.45478 0.0
Tb756 Tb 0.31571 0.80488 0.76445 0.0
C757 C 0.27269 0.75193 0.81148 0.0
C758 C 0.2771 0.719 0.79954 0.0
C759 C 0.26927 0.72848 0.83198 0.0
C760 C 0.27713 0.73819 0.79707 0.0
C761 C 0.26856 0.74723 0.82908 0.0
C762 C 0.27338 0.71432 0.81717 0.0
C763 C 0.26174 0.7792 0.83896 0.0
N764 N 0.2716 0.7696 0.80786 0.0
C765 C 0.26574 0.78306 0.82119 0.0
C766 C 0.26329 0.76127 0.843 0.0
Tb767 Tb 0.27824 0.7744 0.77816 0.0
N768 N 0.28016 0.74313 0.78013 0.0
C769 C 0.28234 0.72907 0.7647 0.0
C770 C 0.28002 0.70487 0.78397 0.0
C771 C 0.28261 0.70992 0.76646 0.0
H772 H 0.26449 0.79707 0.81853 0.0
H773 H 0.28462 0.69901 0.75423 0.0
H774 H 0.27315 0.69966 0.81935 0.0
H775 H 0.25747 0.79007 0.84953 0.0
H776 H 0.28416 0.73248 0.75094 0.0
H777 H 0.30874 0.88011 0.78717 0.0
H778 H 0.27972 0.68985 0.78506 0.0
H779 H 0.33001 0.78237 0.7244 0.0
H780 H 0.31095 0.84747 0.79147 0.0
H781 H 0.33514 0.78826 0.69254 0.0
H782 H 0.26614 0.72456 0.84539 0.0
H783 H 0.30997 0.88755 0.75513 0.0
H784 H 0.31463 0.87656 0.72045 0.0
H785 H 0.26005 0.75824 0.85673 0.0
H786 H 0.32196 0.85151 0.69465 0.0
N787 N 0.31324 0.83583 0.76198 0.0
C788 C 0.31162 0.8503 0.77734 0.0
C789 C 0.311 0.87305 0.75689 0.0
C790 C 0.31364 0.85861 0.74142 0.0
C791 C 0.31031 0.86896 0.77499 0.0
C792 C 0.31491 0.84001 0.74454 0.0
H793 H 0.32995 0.81867 0.6842 0.0
N794 N 0.32137 0.80898 0.7343 0.0
C795 C 0.33059 0.799 0.70297 0.0
C796 C 0.31915 0.82608 0.73015 0.0
C797 C 0.32765 0.79575 0.72118 0.0
C798 C 0.32758 0.81615 0.69829 0.0
C799 C 0.32207 0.83011 0.71205 0.0
O800 O 0.34202 0.80216 0.76457 0.0
O801 O 0.30646 0.7778 0.77505 0.0
O802 O 0.29711 0.78641 0.80369 0.0
O803 O 0.31224 0.81473 0.79484 0.0
O804 O 0.32342 0.77654 0.75468 0.0
O805 O 0.33562 0.82752 0.78261 0.0
O806 O 0.25158 0.77596 0.77896 0.0
O807 O 0.28763 0.80178 0.76819 0.0
O808 O 0.29672 0.7929 0.73908 0.0
O809 O 0.28201 0.76444 0.74783 0.0
O810 O 0.27029 0.80245 0.78815 0.0
O811 O 0.25912 0.75378 0.75752 0.0
C812 C 0.31498 0.76615 0.76543 0.0
C813 C 0.3644 0.8318 0.77229 0.0
C814 C 0.39681 0.84146 0.77684 0.0
C815 C 0.38035 0.83295 0.78272 0.0
C816 C 0.39676 0.85033 0.76108 0.0
C817 C 0.36458 0.84084 0.7568 0.0
C818 C 0.38073 0.85033 0.75142 0.0
C819 C 0.30759 0.8046 0.80799 0.0
C820 C 0.3482 0.81912 0.77677 0.0
C821 C 0.31993 0.84819 0.70851 0.0
C822 C 0.31573 0.86243 0.72319 0.0
C823 C 0.27895 0.81322 0.77787 0.0
C824 C 0.22966 0.74644 0.76555 0.0
C825 C 0.21436 0.747 0.75496 0.0
C826 C 0.19806 0.73361 0.7553 0.0
C827 C 0.19726 0.71963 0.76663 0.0
C828 C 0.22882 0.7324 0.77672 0.0
C829 C 0.21261 0.71904 0.77724 0.0
C830 C 0.28647 0.77465 0.73471 0.0
C831 C 0.24612 0.76086 0.76438 0.0
H832 H 0.37975 0.82647 0.79506 0.0
H833 H 0.40899 0.8567 0.7557 0.0
H834 H 0.35238 0.84023 0.74867 0.0
H835 H 0.38086 0.85708 0.73927 0.0
H836 H 0.21514 0.75823 0.7467 0.0
H837 H 0.18484 0.70912 0.76717 0.0
H838 H 0.24056 0.73179 0.785 0.0
H839 H 0.21192 0.70821 0.7859 0.0
Tb840 Tb 0.55867 0.0318 0.04408 0.0
C841 C 0.51611 0.06862 0.99324 0.0
C842 C 0.49327 0.0414 0.974 0.0
C843 C 0.4889 0.07493 0.9808 0.0
C844 C 0.50995 0.04863 0.98497 0.0
C845 C 0.50592 0.08213 0.99082 0.0
C846 C 0.48256 0.05456 0.97242 0.0
C847 C 0.53096 0.109 0.00624 0.0
N848 N 0.53289 0.07505 1.00206 0.0
C849 C 0.54072 0.09502 0.00767 0.0
C850 C 0.51339 0.10252 0.99796 0.0
Tb851 Tb 0.54835 0.05141 0.00306 0.0
N852 N 0.52104 0.03663 0.98613 0.0
C853 C 0.51669 0.01747 0.97537 0.0
C854 C 0.48832 0.02145 0.964 0.0
C855 C 0.50026 0.00956 0.96435 0.0
H856 H 0.55449 0.10018 0.01346 0.0
H857 H 0.4968 0.99424 0.95623 0.0
H858 H 0.46965 0.04926 0.96419 0.0
H859 H 0.53709 0.12475 0.01123 0.0
H860 H 0.52562 0.00792 0.97544 0.0
H861 H 0.60836 0.09324 0.089 0.0
H862 H 0.47564 0.01531 0.95538 0.0
H863 H 0.5562 0.98367 0.03456 0.0
H864 H 0.57893 0.07661 0.0719 0.0
H865 H 0.57625 0.96176 0.03674 0.0
H866 H 0.48076 0.08504 0.97899 0.0
H867 H 0.632 0.07503 0.08824 0.0
H868 H 0.64104 0.04277 0.0781 0.0
H869 H 0.50594 0.11338 0.99655 0.0
H870 H 0.63241 0.00677 0.06337 0.0
N871 N 0.58552 0.04894 0.06106 0.0
C872 C 0.5889 0.06825 0.07142 0.0
C873 C 0.619 0.06755 0.0807 0.0
C874 C 0.61522 0.04753 0.07093 0.0
C875 C 0.60568 0.07784 0.08121 0.0
C876 C 0.59812 0.03854 0.06128 0.0
H877 H 0.60807 0.97619 0.04822 0.0
N878 N 0.57645 0.01038 0.04489 0.0
C879 C 0.58141 0.97768 0.0408 0.0
C880 C 0.59345 0.01852 0.05271 0.0
C881 C 0.57003 0.99013 0.03982 0.0
C882 C 0.59933 0.98593 0.0474 0.0
C883 C 0.60548 0.00661 0.0539 0.0
O884 O 0.54287 0.01153 0.05758 0.0
O885 O 0.53912 0.03386 0.02313 0.0
O886 O 0.53581 0.06562 0.02675 0.0
O887 O 0.55147 0.06055 0.05324 0.0
O888 O 0.53542 0.0076 0.03063 0.0
O889 O 0.55422 0.04197 0.07274 0.0
O890 O 0.56516 0.06985 0.98862 0.0
O891 O 0.56774 0.04937 0.02414 0.0
O892 O 0.57068 0.01761 0.01994 0.0
O893 O 0.55338 0.02155 0.9943 0.0
O894 O 0.57187 0.0755 0.01609 0.0
O895 O 0.55262 0.03934 0.97473 0.0
C896 C 0.5284 0.01707 0.02025 0.0
C897 C 0.55056 0.01745 0.09071 0.0
C898 C 0.54395 0.00968 0.1214 0.0
C899 C 0.53933 0.0165 0.10533 0.0
C900 C 0.55996 1.00376 0.12257 0.0
C901 C 0.56653 0.01165 0.09225 0.0
C902 C 0.57117 0.00479 0.10806 0.0
C903 C 0.54103 0.06966 0.04527 0.0
C904 C 0.54533 0.02439 0.07398 0.0
C905 C 0.62287 0.01561 0.06253 0.0
C906 C 0.62775 0.03608 0.07099 0.0
C907 C 0.57844 0.06609 0.02681 0.0
C908 C 0.55693 0.06251 0.95535 0.0
C909 C 0.56408 0.05624 0.93821 0.0
C910 C 0.55904 0.06178 0.92151 0.0
C911 C 0.54673 0.0736 0.92218 0.0
C912 C 0.54483 0.07449 0.95572 0.0
C913 C 0.5397 0.0799 0.93922 0.0
C914 C 0.56466 0.01296 1.00163 0.0
C915 C 0.56207 0.05631 0.97262 0.0
H916 H 0.52715 0.02137 0.10429 0.0
H917 H 0.56376 0.9982 0.13463 0.0
H918 H 0.57543 0.01237 0.08134 0.0
H919 H 0.5835 1.00026 0.10905 0.0
H920 H 0.57343 0.04696 0.93784 0.0
H921 H 0.54281 0.07831 0.90961 0.0
H922 H 0.53942 0.07988 0.96869 0.0
H923 H 0.53036 0.08916 0.93968 0.0
Tb924 Tb 0.31751 0.32069 0.2887 0.0
C925 C 0.24206 0.27823 0.27988 0.0
C926 C 0.23424 0.26124 0.30512 0.0
C927 C 0.21329 0.27696 0.29228 0.0
C928 C 0.24652 0.26796 0.29271 0.0
C929 C 0.22502 0.28203 0.27886 0.0
C930 C 0.21792 0.26658 0.30546 0.0
C931 C 0.23132 0.29228 0.24961 0.0
N932 N 0.2537 0.28252 0.26704 0.0
C933 C 0.24795 0.28804 0.25121 0.0
C934 C 0.21993 0.28969 0.26373 0.0
Tb935 Tb 0.2814 0.27662 0.27196 0.0
N936 N 0.26219 0.26273 0.29155 0.0
C937 C 0.26547 0.24874 0.30082 0.0
C938 C 0.23825 0.24832 0.31587 0.0
C939 C 0.25367 0.24161 0.31325 0.0
H940 H 0.2556 0.28839 0.23924 0.0
H941 H 0.25645 0.23097 0.32076 0.0
H942 H 0.20844 0.26187 0.31514 0.0
H943 H 0.22712 0.29701 0.23718 0.0
H944 H 0.2776 0.24378 0.29919 0.0
H945 H 0.33281 0.3749 0.24525 0.0
H946 H 0.22915 0.24268 0.32549 0.0
H947 H 0.34491 0.30093 0.31239 0.0
H948 H 0.31398 0.35526 0.26423 0.0
H949 H 0.37569 0.29888 0.31253 0.0
H950 H 0.2003 0.28012 0.29198 0.0
H951 H 0.36342 0.37146 0.24122 0.0
H952 H 0.38827 0.35683 0.2496 0.0
H953 H 0.20686 0.29242 0.26216 0.0
H954 H 0.39979 0.33584 0.26757 0.0
N955 N 0.33334 0.33974 0.27028 0.0
C956 C 0.32725 0.35339 0.2626 0.0
C957 C 0.35512 0.36254 0.24943 0.0
C958 C 0.36168 0.34952 0.25828 0.0
C959 C 0.33788 0.36458 0.25173 0.0
C960 C 0.3503 0.33801 0.26862 0.0
H961 H 0.39521 0.31415 0.29089 0.0
N962 N 0.34578 0.31615 0.28965 0.0
C963 C 0.37048 0.30633 0.30274 0.0
C964 C 0.3567 0.32585 0.27857 0.0
C965 C 0.35274 0.30743 0.30243 0.0
C966 C 0.38143 0.31491 0.29047 0.0
C967 C 0.37478 0.32534 0.27863 0.0
O968 O 0.31146 0.33271 0.31636 0.0
O969 O 0.28965 0.30759 0.28565 0.0
O970 O 0.2849 0.29491 0.25054 0.0
O971 O 0.31406 0.31435 0.25743 0.0
O972 O 0.29685 0.33639 0.28377 0.0
O973 O 0.33423 0.34754 0.30481 0.0
O974 O 0.27794 0.26413 0.24223 0.0
O975 O 0.30953 0.28975 0.27416 0.0
O976 O 0.31567 0.30124 0.30902 0.0
O977 O 0.2858 0.28435 0.30328 0.0
O978 O 0.30258 0.26141 0.27641 0.0
O979 O 0.27362 0.24557 0.26242 0.0
C980 C 0.28338 0.32183 0.2835 0.0
C981 C 0.31947 0.36751 0.32562 0.0
C982 C 0.31212 0.39745 0.31992 0.0
C983 C 0.31674 0.37941 0.31303 0.0
C984 C 0.31007 0.40335 0.3395 0.0
C985 C 0.31732 0.37357 0.34506 0.0
C986 C 0.31263 0.39144 0.35195 0.0
C987 C 0.2992 0.30653 0.24589 0.0
C988 C 0.32429 0.34859 0.31882 0.0
C989 C 0.38594 0.33622 0.26778 0.0
C990 C 0.37939 0.34822 0.25759 0.0
C991 C 0.31609 0.27554 0.27576 0.0
C992 C 0.28628 0.2335 0.23441 0.0
C993 C 0.29327 0.22066 0.2433 0.0
C994 C 0.30293 0.20814 0.23321 0.0
C995 C 0.30584 0.20857 0.2142 0.0
C996 C 0.28941 0.23387 0.2154 0.0
C997 C 0.29922 0.22153 0.20541 0.0
C998 C 0.30098 0.29103 0.31443 0.0
C999 C 0.27535 0.24606 0.24464 0.0
H1000 H 0.31838 0.37479 0.298 0.0
H1001 H 0.30617 0.41702 0.34512 0.0
H1002 H 0.31923 0.36444 0.35489 0.0
H1003 H 0.31089 0.39602 0.36696 0.0
H1004 H 0.2909 0.21998 0.25791 0.0
H1005 H 0.31327 0.19892 0.2062 0.0
H1006 H 0.28417 0.24363 0.20824 0.0
H1007 H 0.30156 0.22187 0.19075 0.0
Tb1008 Tb 0.5478 0.56293 0.03197 0.0
C1009 C 0.57067 0.50647 0.96588 0.0
C1010 C 0.54795 0.50095 0.93983 0.0
C1011 C 0.5777 0.4982 0.93297 0.0
C1012 C 0.55358 0.50601 0.9596 0.0
C1013 C 0.58285 0.50206 0.95267 0.0
C1014 C 0.56025 0.49765 0.92655 0.0
C1015 C 0.60352 0.50333 0.97926 0.0
N1016 N 0.57498 0.50994 0.98501 0.0
C1017 C 0.59095 0.50761 0.99178 0.0
C1018 C 0.59958 0.50089 0.95963 0.0
Tb1019 Tb 0.55369 0.51766 0.00445 0.0
N1020 N 0.5421 0.50895 0.9729 0.0
C1021 C 0.52432 0.50509 0.96726 0.0
C1022 C 0.52999 0.49849 0.93404 0.0
C1023 C 0.51806 0.50016 0.94784 0.0
H1024 H 0.59435 0.5092 0.00681 0.0
H1025 H 0.50404 0.49776 0.94356 0.0
H1026 H 0.55624 0.49397 0.91131 0.0
H1027 H 0.61624 0.50192 0.98477 0.0
H1028 H 0.51485 0.50632 0.9776 0.0
H1029 H 0.60258 0.58729 0.08773 0.0
H1030 H 0.52512 0.49463 0.91901 0.0
H1031 H 0.5054 0.56423 0.03364 0.0
H1032 H 0.58886 0.57691 0.05474 0.0
H1033 H 0.48479 0.56897 0.05824 0.0
H1034 H 0.58691 0.49498 0.92259 0.0
H1035 H 0.58389 0.58972 0.1147 0.0
H1036 H 0.55341 0.58764 0.12574 0.0
H1037 H 0.60931 0.4975 0.94996 0.0
H1038 H 0.52128 0.58269 0.11769 0.0
N1039 N 0.56221 0.57284 0.06235 0.0
C1040 C 0.58033 0.57785 0.06612 0.0
C1041 C 0.57769 0.58508 0.1001 0.0
C1042 C 0.55924 0.581 0.09619 0.0
C1043 C 0.58828 0.58377 0.08496 0.0
C1044 C 0.55186 0.57506 0.07693 0.0
H1045 H 0.49558 0.57594 0.09254 0.0
N1046 N 0.52769 0.56787 0.05372 0.0
C1047 C 0.49858 0.56993 0.06244 0.0
C1048 C 0.53392 0.57243 0.07245 0.0
C1049 C 0.51035 0.56732 0.04854 0.0
C1050 C 0.5047 0.5738 0.08178 0.0
C1051 C 0.52265 0.57543 0.08702 0.0
O1052 O 0.53819 0.58613 0.02498 0.0
O1053 O 0.546 0.54507 0.00267 0.0
O1054 O 0.57472 0.54021 0.99697 0.0
O1055 O 0.57488 0.56631 0.02301 0.0
O1056 O 0.52616 0.55881 0.00965 0.0
O1057 O 0.56586 0.59058 0.03481 0.0
O1058 O 0.5588 0.49533 0.01737 0.0
O1059 O 0.5555 0.53593 0.03361 0.0
O1060 O 0.52841 0.53882 0.03949 0.0
O1061 O 0.52605 0.51597 0.01069 0.0
O1062 O 0.57555 0.5228 0.02698 0.0
O1063 O 0.53559 0.48947 0.99767 0.0
C1064 C 0.53175 0.54823 0.99553 0.0
C1065 C 0.55419 0.61885 0.03944 0.0
C1066 C 0.55756 0.65331 0.03763 0.0
C1067 C 0.55777 0.63362 0.02918 0.0
C1068 C 0.55432 0.65815 0.05695 0.0
C1069 C 0.55088 0.62369 0.05865 0.0
C1070 C 0.55107 0.64337 0.06739 0.0
C1071 C 0.58206 0.5581 0.00794 0.0
C1072 C 0.55372 0.59862 0.0292 0.0
C1073 C 0.52974 0.58046 0.10627 0.0
C1074 C 0.54802 0.58326 0.11085 0.0
C1075 C 0.56999 0.53365 0.04091 0.0
C1076 C 0.54726 0.46224 1.00082 0.0
C1077 C 0.54401 0.44845 0.01229 0.0
C1078 C 0.54704 0.42941 0.00614 0.0
C1079 C 0.55312 0.4243 0.98804 0.0
C1080 C 0.55335 0.45701 0.98285 0.0
C1081 C 0.5562 0.43803 0.97648 0.0
C1082 C 0.51953 0.52282 0.02669 0.0
C1083 C 0.54478 0.48215 0.00853 0.0
H1084 H 0.56069 0.62965 0.01443 0.0
H1085 H 0.55395 0.67318 0.06386 0.0
H1086 H 0.54812 0.61235 0.06678 0.0
H1087 H 0.54847 0.64716 0.08222 0.0
H1088 H 0.53904 0.45262 0.02604 0.0
H1089 H 0.55576 0.40983 0.98292 0.0
H1090 H 0.55594 0.46755 0.97384 0.0
H1091 H 0.56095 0.434 0.96262 0.0
Tb1092 Tb 0.81598 0.30644 0.26684 0.0
C1093 C 0.76933 0.24575 0.30306 0.0
C1094 C 0.77981 0.21611 0.29248 0.0
C1095 C 0.76739 0.22186 0.32299 0.0
C1096 C 0.7773 0.23446 0.28987 0.0
C1097 C 0.7638 0.23939 0.31956 0.0
C1098 C 0.77539 0.21019 0.30943 0.0
C1099 C 0.74966 0.26668 0.32663 0.0
N1100 N 0.76582 0.26231 0.29894 0.0
C1101 C 0.75526 0.27221 0.30994 0.0
C1102 C 0.75421 0.2504 0.33166 0.0
Tb1103 Tb 0.77702 0.27143 0.27226 0.0
N1104 N 0.781 0.24058 0.27361 0.0
C1105 C 0.78539 0.22783 0.25844 0.0
C1106 C 0.7858 0.20381 0.27758 0.0
C1107 C 0.78816 0.20949 0.26029 0.0
H1108 H 0.75141 0.28468 0.30622 0.0
H1109 H 0.79221 0.19983 0.24841 0.0
H1110 H 0.77744 0.19628 0.31183 0.0
H1111 H 0.74176 0.27494 0.33555 0.0
H1112 H 0.78733 0.23187 0.24495 0.0
H1113 H 0.80338 0.37859 0.2953 0.0
H1114 H 0.78791 0.1896 0.27898 0.0
H1115 H 0.83567 0.29094 0.2285 0.0
H1116 H 0.80758 0.34571 0.2968 0.0
H1117 H 0.84375 0.30164 0.19918 0.0
H1118 H 0.76344 0.21681 0.33569 0.0
H1119 H 0.80597 0.38973 0.26503 0.0
H1120 H 0.81386 0.38347 0.23107 0.0
H1121 H 0.74972 0.24603 0.34449 0.0
H1122 H 0.82519 0.36261 0.20485 0.0
N1123 N 0.81202 0.33762 0.26736 0.0
C1124 C 0.80882 0.3502 0.28342 0.0
C1125 C 0.8078 0.37516 0.26555 0.0
C1126 C 0.81236 0.36286 0.24956 0.0
C1127 C 0.80641 0.36897 0.28268 0.0
C1128 C 0.81454 0.34403 0.25102 0.0
H1129 H 0.83702 0.33248 0.19316 0.0
N1130 N 0.8241 0.31515 0.23908 0.0
C1131 C 0.83717 0.31037 0.20938 0.0
C1132 C 0.821 0.33246 0.23639 0.0
C1133 C 0.83266 0.3044 0.22615 0.0
C1134 C 0.83329 0.3277 0.20603 0.0
C1135 C 0.82531 0.33912 0.21973 0.0
O1136 O 0.84297 0.30606 0.26806 0.0
O1137 O 0.80609 0.27758 0.27416 0.0
O1138 O 0.78964 0.28399 0.30129 0.0
O1139 O 0.80944 0.31241 0.29656 0.0
O1140 O 0.82609 0.27977 0.25695 0.0
O1141 O 0.83381 0.32779 0.28834 0.0
O1142 O 0.75086 0.27353 0.26617 0.0
O1143 O 0.78726 0.30056 0.26582 0.0
O1144 O 0.80016 0.29569 0.23913 0.0
O1145 O 0.78609 0.26485 0.24357 0.0
O1146 O 0.76691 0.29811 0.28238 0.0
O1147 O 0.76032 0.24928 0.25041 0.0
C1148 C 0.81657 0.26773 0.26559 0.0
C1149 C 0.86306 0.33713 0.27976 0.0
C1150 C 0.89523 0.34917 0.28282 0.0
C1151 C 0.87995 0.3356 0.28577 0.0
C1152 C 0.8935 0.36436 0.27374 0.0
C1153 C 0.86145 0.35261 0.27104 0.0
C1154 C 0.87664 0.36613 0.26801 0.0
C1155 C 0.80073 0.30165 0.30763 0.0
C1156 C 0.84755 0.32183 0.28207 0.0
C1157 C 0.82214 0.3573 0.21765 0.0
C1158 C 0.81565 0.36915 0.23256 0.0
C1159 C 0.77702 0.31054 0.27459 0.0
C1160 C 0.72964 0.24333 0.25448 0.0
C1161 C 0.71413 0.24824 0.2487 0.0
C1162 C 0.69739 0.23571 0.24908 0.0
C1163 C 0.69629 0.21804 0.25528 0.0
C1164 C 0.72843 0.22582 0.26097 0.0
C1165 C 0.71177 0.21322 0.2613 0.0
C1166 C 0.79187 0.27687 0.2323 0.0
C1167 C 0.74673 0.25687 0.25336 0.0
H1168 H 0.88122 0.32355 0.2924 0.0
H1169 H 0.90516 0.37495 0.27131 0.0
H1170 H 0.84858 0.35426 0.26652 0.0
H1171 H 0.87533 0.37797 0.26117 0.0
H1172 H 0.71512 0.26175 0.24362 0.0
H1173 H 0.68349 0.20816 0.25571 0.0
H1174 H 0.74029 0.22187 0.26566 0.0
H1175 H 0.71084 0.19968 0.26623 0.0
Tb1176 Tb 0.06022 0.53448 0.54406 0.0
C1177 C 0.02814 0.57889 0.49221 0.0
C1178 C 0.00617 0.55395 0.46931 0.0
C1179 C 0.00345 0.58813 0.47761 0.0
C1180 C 0.02166 0.55939 0.48219 0.0
C1181 C 0.0192 0.59356 0.48997 0.0
C1182 C 0.99701 0.56838 0.4672 0.0
C1183 C 0.0428 0.61807 0.51116 0.0
N1184 N 0.04355 0.58359 0.50372 0.0
C1185 C 0.05131 0.60305 0.5127 0.0
C1186 C 0.02661 0.61329 0.49986 0.0
Tb1187 Tb 0.05671 0.558 0.50454 0.0
N1188 N 0.03092 0.54591 0.48455 0.0
C1189 C 0.02565 0.52672 0.47388 0.0
C1190 C 1.00068 0.53431 0.45852 0.0
C1191 C 0.01039 0.5206 0.4609 0.0
H1192 H 0.06385 0.60694 0.52141 0.0
H1193 H 0.00629 0.50539 0.45254 0.0
H1194 H 0.98511 0.56452 0.45734 0.0
H1195 H 0.04879 0.63334 0.51862 0.0
H1196 H 0.03311 0.51597 0.4753 0.0
H1197 H 0.10893 0.58888 0.59698 0.0
H1198 H 0.98929 0.52973 0.44796 0.0
H1199 H 0.05437 0.48589 0.52856 0.0
H1200 H 0.0816 0.57681 0.57504 0.0
H1201 H 0.07028 0.46043 0.53189 0.0
H1202 H 0.99636 0.59917 0.47569 0.0
H1203 H 0.12837 0.56636 0.60007 0.0
H1204 H 0.13377 0.53208 0.59085 0.0
H1205 H 0.02013 0.62499 0.49856 0.0
H1206 H 0.12339 0.4971 0.57293 0.0
N1207 N 0.08538 0.54756 0.56511 0.0
C1208 C 0.08976 0.56664 0.57612 0.0
C1209 C 0.11631 0.5609 0.59033 0.0
C1210 C 0.11139 0.54117 0.57969 0.0
C1211 C 0.10536 0.57364 0.58865 0.0
C1212 C 0.09562 0.53488 0.56713 0.0
H1213 H 0.09952 0.47016 0.55134 0.0
N1214 N 0.07451 0.50998 0.54543 0.0
C1215 C 0.07617 0.47586 0.53878 0.0
C1216 C 0.09005 0.51542 0.55682 0.0
C1217 C 0.06712 0.49033 0.53699 0.0
C1218 C 0.09264 0.48143 0.54969 0.0
C1219 C 0.0997 0.50139 0.55907 0.0
O1220 O 0.04102 0.51437 0.55449 0.0
O1221 O 0.04335 0.53921 0.52184 0.0
O1222 O 0.04192 0.57074 0.5267 0.0
O1223 O 0.05532 0.56436 0.5536 0.0
O1224 O 0.0377 0.51165 0.52695 0.0
O1225 O 0.05277 0.54398 0.57162 0.0
O1226 O 0.07671 0.57637 0.49332 0.0
O1227 O 0.07345 0.55337 0.52683 0.0
O1228 O 0.07529 0.52203 0.52183 0.0
O1229 O 0.06091 0.5278 0.4952 0.0
O1230 O 0.07961 0.58071 0.52104 0.0
O1231 O 0.06201 0.54785 0.47611 0.0
C1232 C 0.03239 0.52253 0.51689 0.0
C1233 C 0.04434 0.5184 0.58796 0.0
C1234 C 0.03529 0.51437 0.61914 0.0
C1235 C 0.03391 0.52233 0.60299 0.0
C1236 C 0.0475 0.50268 0.62017 0.0
C1237 C 0.05628 0.50648 0.58914 0.0
C1238 C 0.05793 0.49881 0.60522 0.0
C1239 C 0.04547 0.57393 0.54544 0.0
C1240 C 0.04232 0.52661 0.57113 0.0
C1241 C 0.11568 0.50762 0.57113 0.0
C1242 C 0.12156 0.52751 0.58137 0.0
C1243 C 0.08444 0.57003 0.53161 0.0
C1244 C 0.07057 0.57391 0.46026 0.0
C1245 C 0.07412 0.56526 0.44182 0.0
C1246 C 0.07224 0.57436 0.42647 0.0
C1247 C 0.06644 0.59209 0.42993 0.0
C1248 C 0.06478 0.59157 0.46325 0.0
C1249 C 0.06262 0.60049 0.44814 0.0
C1250 C 0.07099 0.51836 0.50319 0.0
C1251 C 0.0733 0.5646 0.47626 0.0
H1252 H 0.02471 0.53159 0.60209 0.0
H1253 H 0.0487 0.49615 0.63231 0.0
H1254 H 0.06416 0.50285 0.57763 0.0
H1255 H 0.06716 0.4896 0.60599 0.0
H1256 H 0.07838 0.5515 0.43951 0.0
H1257 H 0.06526 0.59982 0.41868 0.0
H1258 H 0.06217 0.59874 0.47726 0.0
H1259 H 0.05827 0.61418 0.45065 0.0
Tb1260 Tb 0.77989 0.79602 0.27026 0.0
C1261 C 0.83375 0.76336 0.30966 0.0
C1262 C 0.84378 0.7877 0.33958 0.0
C1263 C 0.84341 0.75297 0.33759 0.0
C1264 C 0.83688 0.78268 0.32019 0.0
C1265 C 0.83751 0.74836 0.31801 0.0
C1266 C 0.84652 0.77264 0.34838 0.0
C1267 C 0.83147 0.72612 0.28658 0.0
N1268 N 0.82838 0.75967 0.29076 0.0
C1269 C 0.828 0.74157 0.27897 0.0
C1270 C 0.83595 0.72943 0.30625 0.0
Tb1271 Tb 0.82235 0.78562 0.27965 0.0
N1272 N 0.83436 0.79676 0.31101 0.0
C1273 C 0.83997 0.8165 0.3201 0.0
C1274 C 0.84835 0.80777 0.34929 0.0
C1275 C 0.84673 0.82225 0.3394 0.0
H1276 H 0.8245 0.7388 0.26376 0.0
H1277 H 0.8506 0.83786 0.34663 0.0
H1278 H 0.85161 0.77615 0.36333 0.0
H1279 H 0.83066 0.71169 0.27728 0.0
H1280 H 0.83874 0.82797 0.31284 0.0
H1281 H 0.75008 0.74151 0.20498 0.0
H1282 H 0.85362 0.81226 0.36423 0.0
H1283 H 0.77833 0.84317 0.28429 0.0
H1284 H 0.76233 0.75264 0.23857 0.0
H1285 H 0.77255 0.86966 0.26949 0.0
H1286 H 0.84618 0.74161 0.34436 0.0
H1287 H 0.74756 0.76616 0.18604 0.0
H1288 H 0.75019 0.80204 0.18535 0.0
H1289 H 0.83874 0.71747 0.3121 0.0
H1290 H 0.75617 0.83711 0.20304 0.0
N1291 N 0.76733 0.78367 0.23911 0.0
C1292 C 0.76129 0.76376 0.2308 0.0
C1293 C 0.75297 0.77122 0.20092 0.0
C1294 C 0.75792 0.7915 0.20985 0.0
C1295 C 0.7543 0.75728 0.21158 0.0
C1296 C 0.76495 0.79725 0.22922 0.0
H1297 H 0.76413 0.86244 0.23459 0.0
N1298 N 0.77369 0.82121 0.25797 0.0
C1299 C 0.77135 0.85487 0.26073 0.0
C1300 C 0.76824 0.8168 0.23905 0.0
C1301 C 0.77454 0.83978 0.26908 0.0
C1302 C 0.76669 0.85076 0.24102 0.0
C1303 C 0.76473 0.83142 0.22997 0.0
O1304 O 0.76239 0.80641 0.28926 0.0
O1305 O 0.79943 0.79383 0.29151 0.0
O1306 O 0.80218 0.76098 0.28638 0.0
O1307 O 0.77665 0.76378 0.26986 0.0
O1308 O 0.78794 0.81732 0.29777 0.0
O1309 O 0.75526 0.77668 0.27165 0.0
O1310 O 0.83927 0.77708 0.25903 0.0
O1311 O 0.80281 0.78803 0.25857 0.0
O1312 O 0.80031 0.82028 0.26328 0.0
O1313 O 0.82554 0.81798 0.28065 0.0
O1314 O 0.81421 0.76456 0.2519 0.0
O1315 O 0.84811 0.80402 0.2808 0.0
C1316 C 0.79887 0.8088 0.30446 0.0
C1317 C 0.73186 0.79191 0.28007 0.0
C1318 C 0.7018 0.79026 0.28949 0.0
C1319 C 0.71951 0.78956 0.29367 0.0
C1320 C 0.69676 0.79376 0.27176 0.0
C1321 C 0.72653 0.79549 0.26253 0.0
C1322 C 0.70908 0.79648 0.25846 0.0
C1323 C 0.7854 0.75355 0.27871 0.0
C1324 C 0.75004 0.78995 0.28407 0.0
C1325 C 0.75876 0.82607 0.21037 0.0
C1326 C 0.75537 0.80611 0.20031 0.0
C1327 C 0.80313 0.7731 0.24551 0.0
C1328 C 0.86988 0.78724 0.26909 0.0
C1329 C 0.88271 0.7905 0.25609 0.0
C1330 C 0.89902 0.78508 0.25817 0.0
C1331 C 0.90187 0.77597 0.27325 0.0
C1332 C 0.87347 0.77878 0.28425 0.0
C1333 C 0.88929 0.77305 0.28622 0.0
C1334 C 0.81689 0.82804 0.27148 0.0
C1335 C 0.85258 0.79209 0.26644 0.0
H1336 H 0.72353 0.78666 0.30721 0.0
H1337 H 0.68325 0.79446 0.26822 0.0
H1338 H 0.73578 0.79731 0.25192 0.0
H1339 H 0.70505 0.79919 0.24487 0.0
H1340 H 0.88003 0.7974 0.24459 0.0
H1341 H 0.9138 0.77087 0.27503 0.0
H1342 H 0.86403 0.77647 0.29453 0.0
H1343 H 0.89179 0.76621 0.29781 0.0
Tb1344 Tb 0.80626 0.27785 0.74787 0.0
C1345 C 0.80424 0.34804 0.80796 0.0
C1346 C 0.82098 0.35045 0.83791 0.0
C1347 C 0.82079 0.38045 0.82692 0.0
C1348 C 0.81021 0.33896 0.82113 0.0
C1349 C 0.80856 0.36901 0.81134 0.0
C1350 C 0.82704 0.37114 0.84022 0.0
C1351 C 0.78535 0.36588 0.78672 0.0
N1352 N 0.79219 0.33644 0.79334 0.0
C1353 C 0.78142 0.3452 0.7843 0.0
C1354 C 0.79945 0.37785 0.79985 0.0
Tb1355 Tb 0.78853 0.30249 0.78903 0.0
N1356 N 0.80347 0.31911 0.81866 0.0
C1357 C 0.80504 0.31032 0.83371 0.0
C1358 C 0.82427 0.34101 0.85241 0.0
C1359 C 0.81586 0.32096 0.8505 0.0
H1360 H 0.76925 0.33655 0.77594 0.0
H1361 H 0.81776 0.31366 0.86192 0.0
H1362 H 0.83564 0.38019 0.8528 0.0
H1363 H 0.77711 0.37259 0.77894 0.0
H1364 H 0.79899 0.29469 0.83218 0.0
H1365 H 0.7392 0.23415 0.72007 0.0
H1366 H 0.83249 0.34929 0.86552 0.0
H1367 H 0.84254 0.26197 0.76083 0.0
H1368 H 0.76042 0.26295 0.74016 0.0
H1369 H 0.85081 0.23069 0.75746 0.0
H1370 H 0.82465 0.39654 0.82944 0.0
H1371 H 0.74882 0.20339 0.70691 0.0
H1372 H 0.77107 0.18347 0.70928 0.0
H1373 H 0.80218 0.39389 0.8021 0.0
H1374 H 0.80073 0.18206 0.72135 0.0
N1375 N 0.78285 0.25021 0.7364 0.0
C1376 C 0.76526 0.25029 0.73376 0.0
C1377 C 0.75817 0.21619 0.71583 0.0
C1378 C 0.7753 0.21514 0.72124 0.0
C1379 C 0.75285 0.23359 0.72288 0.0
C1380 C 0.78754 0.23266 0.73154 0.0
H1381 H 0.83004 0.1993 0.74011 0.0
N1382 N 0.81546 0.24906 0.74844 0.0
C1383 C 0.83755 0.23074 0.7522 0.0
C1384 C 0.80426 0.23195 0.73813 0.0
C1385 C 0.83237 0.24862 0.75466 0.0
C1386 C 0.82588 0.21311 0.74225 0.0
C1387 C 0.80913 0.21358 0.73479 0.0
O1388 O 0.83189 0.282 0.73911 0.0
O1389 O 0.8079 0.30486 0.76909 0.0
O1390 O 0.77657 0.30765 0.7622 0.0
O1391 O 0.7847 0.28759 0.73516 0.0
O1392 O 0.81343 0.30793 0.7424 0.0
O1393 O 0.80866 0.27127 0.71835 0.0
O1394 O 0.76109 0.28926 0.78232 0.0
O1395 O 0.78814 0.27472 0.76921 0.0
O1396 O 0.82538 0.28271 0.77312 0.0
O1397 O 0.81425 0.29881 0.80001 0.0
O1398 O 0.78777 0.27448 0.79748 0.0
O1399 O 0.77126 0.30737 0.81023 0.0
C1400 C 0.81262 0.31753 0.75943 0.0
C1401 C 0.83426 0.29271 0.71062 0.0
C1402 C 0.83207 0.31717 0.69211 0.0
C1403 C 0.82394 0.30225 0.70112 0.0
C1404 C 0.85072 0.32266 0.69288 0.0
C1405 C 0.85284 0.29831 0.7112 0.0
C1406 C 0.86101 0.31327 0.70243 0.0
C1407 C 0.77518 0.29982 0.74338 0.0
C1408 C 0.82597 0.27789 0.72108 0.0
C1409 C 0.79715 0.19622 0.72414 0.0
C1410 C 0.78031 0.19704 0.71721 0.0
C1411 C 0.78779 0.26349 0.78068 0.0
C1412 C 0.74759 0.27911 0.8083 0.0
C1413 C 0.75557 0.2737 0.82358 0.0
C1414 C 0.7466 0.25777 0.83088 0.0
C1415 C 0.72941 0.24713 0.82263 0.0
C1416 C 0.73034 0.26851 0.80039 0.0
C1417 C 0.72135 0.25253 0.8075 0.0
C1418 C 0.82639 0.29044 0.79174 0.0
C1419 C 0.75755 0.29492 0.7998 0.0
H1420 H 0.8096 0.29832 0.70096 0.0
H1421 H 0.85735 0.33387 0.68576 0.0
H1422 H 0.86103 0.29125 0.71866 0.0
H1423 H 0.87535 0.31755 0.70295 0.0
H1424 H 0.76893 0.2816 0.82959 0.0
H1425 H 0.72212 0.23483 0.82804 0.0
H1426 H 0.72401 0.27232 0.78847 0.0
H1427 H 0.70811 0.24427 0.80122 0.0
Tb1428 Tb 0.81584 0.81764 0.7863 0.0
C1429 C 0.74581 0.76303 0.7433 0.0
C1430 C 0.72522 0.75674 0.76661 0.0
C1431 C 0.71406 0.75615 0.73436 0.0
C1432 C 0.74278 0.76172 0.76164 0.0
C1433 C 0.7315 0.75959 0.7292 0.0
C1434 C 0.71091 0.75482 0.75311 0.0
C1435 C 0.75239 0.75887 0.70543 0.0
N1436 N 0.76269 0.76486 0.73872 0.0
C1437 C 0.766 0.76171 0.71989 0.0
C1438 C 0.73507 0.75818 0.71013 0.0
Tb1439 Tb 0.78469 0.77046 0.76321 0.0
N1440 N 0.7569 0.76204 0.77357 0.0
C1441 C 0.75395 0.75453 0.78945 0.0
C1442 C 0.7225 0.75191 0.78425 0.0
C1443 C 0.7369 0.75011 0.79543 0.0
H1444 H 0.77928 0.76181 0.71607 0.0
H1445 H 0.73486 0.74487 0.80841 0.0
H1446 H 0.69734 0.75116 0.75669 0.0
H1447 H 0.75527 0.75686 0.69067 0.0
H1448 H 0.76449 0.75139 0.79745 0.0
H1449 H 0.86932 0.83603 0.74336 0.0
H1450 H 0.70924 0.74801 0.78864 0.0
H1451 H 0.81645 0.82547 0.83347 0.0
H1452 H 0.83845 0.82654 0.74962 0.0
H1453 H 0.83849 0.83208 0.86135 0.0
H1454 H 0.70288 0.75357 0.72377 0.0
H1455 H 0.89363 0.8384 0.76793 0.0
H1456 H 0.90277 0.83807 0.80187 0.0
H1457 H 0.72445 0.75547 0.69886 0.0
H1458 H 0.89427 0.83708 0.83429 0.0
N1459 N 0.84443 0.82411 0.77818 0.0
C1460 C 0.84861 0.82765 0.76078 0.0
C1461 C 0.87992 0.83438 0.77097 0.0
C1462 C 0.87565 0.83165 0.78903 0.0
C1463 C 0.8663 0.83287 0.75699 0.0
C1464 C 0.85757 0.82686 0.7923 0.0
H1465 H 0.8703 0.83524 0.85673 0.0
N1466 N 0.83544 0.82399 0.81307 0.0
C1467 C 0.84273 0.8305 0.84709 0.0
C1468 C 0.85287 0.82662 0.81043 0.0
C1469 C 0.83028 0.8268 0.83124 0.0
C1470 C 0.86065 0.83217 0.84442 0.0
C1471 C 0.86599 0.83071 0.82595 0.0
O1472 O 0.81222 0.84427 0.80329 0.0
O1473 O 0.7888 0.80042 0.7794 0.0
O1474 O 0.78108 0.79318 0.74791 0.0
O1475 O 0.80864 0.81625 0.75587 0.0
O1476 O 0.79467 0.82048 0.80517 0.0
O1477 O 0.81842 0.84226 0.77403 0.0
O1478 O 0.78562 0.74389 0.74404 0.0
O1479 O 0.81201 0.78764 0.76935 0.0
O1480 O 0.81935 0.79496 0.80164 0.0
O1481 O 0.79113 0.77329 0.79421 0.0
O1482 O 0.80442 0.7691 0.74269 0.0
O1483 O 0.78871 0.74671 0.77451 0.0
C1484 C 0.78217 0.8073 0.79413 0.0
C1485 C 0.82802 0.87354 0.79534 0.0
C1486 C 0.83233 0.90908 0.79832 0.0
C1487 C 0.82124 0.88978 0.79401 0.0
C1488 C 0.85048 0.912 0.80383 0.0
C1489 C 0.84611 0.87651 0.80116 0.0
C1490 C 0.8573 0.89573 0.80534 0.0
C1491 C 0.79354 0.80804 0.7447 0.0
C1492 C 0.81584 0.85378 0.78982 0.0
C1493 C 0.88398 0.83409 0.8226 0.0
C1494 C 0.88882 0.83463 0.80415 0.0
C1495 C 0.81765 0.78118 0.75366 0.0
C1496 C 0.77496 0.71517 0.7555 0.0
C1497 C 0.78166 0.70072 0.76163 0.0
C1498 C 0.77071 0.68178 0.76064 0.0
C1499 C 0.75292 0.67724 0.75286 0.0
C1500 C 0.75712 0.71072 0.74799 0.0
C1501 C 0.74618 0.6917 0.74658 0.0
C1502 C 0.8062 0.78128 0.80564 0.0
C1503 C 0.78697 0.73481 0.75769 0.0
H1504 H 0.80728 0.88732 0.78921 0.0
H1505 H 0.85927 0.9268 0.80713 0.0
H1506 H 0.85158 0.86412 0.80233 0.0
H1507 H 0.87128 0.898 0.80972 0.0
H1508 H 0.79552 0.70432 0.76724 0.0
H1509 H 0.7442 0.66271 0.75199 0.0
H1510 H 0.75168 0.72184 0.74327 0.0
H1511 H 0.73243 0.68823 0.74077 0.0
Tb1512 Tb 0.52857 0.52971 0.50649 0.0
C1513 C 0.57818 0.60148 0.56243 0.0
C1514 C 0.585 0.62791 0.54568 0.0
C1515 C 0.58567 0.636 0.58035 0.0
C1516 C 0.57963 0.60748 0.54553 0.0
C1517 C 0.58139 0.61562 0.58011 0.0
C1518 C 0.58765 0.64213 0.56316 0.0
C1519 C 0.57812 0.58852 0.59599 0.0
N1520 N 0.57479 0.58171 0.56156 0.0
C1521 C 0.5754 0.57513 0.57812 0.0
C1522 C 0.58095 0.60887 0.597 0.0
Tb1523 Tb 0.56961 0.56067 0.53154 0.0
N1524 N 0.5775 0.59323 0.52909 0.0
C1525 C 0.58207 0.59854 0.51246 0.0
C1526 C 0.58852 0.63334 0.52842 0.0
C1527 C 0.58725 0.61857 0.51178 0.0
H1528 H 0.57322 0.55948 0.57772 0.0
H1529 H 0.5904 0.62258 0.49842 0.0
H1530 H 0.59189 0.65788 0.56367 0.0
H1531 H 0.57811 0.58314 0.60897 0.0
H1532 H 0.58145 0.58746 0.49945 0.0
H1533 H 0.50912 0.46761 0.53959 0.0
H1534 H 0.59296 0.64882 0.5279 0.0
H1535 H 0.52421 0.53123 0.46039 0.0
H1536 H 0.51842 0.50276 0.53879 0.0
H1537 H 0.51832 0.50772 0.42907 0.0
H1538 H 0.58816 0.64711 0.59376 0.0
H1539 H 0.50488 0.44161 0.50971 0.0
H1540 H 0.50506 0.43265 0.47393 0.0
H1541 H 0.58328 0.61925 0.61086 0.0
H1542 H 0.50805 0.44354 0.44381 0.0
N1543 N 0.52095 0.49712 0.5088 0.0
C1544 C 0.51713 0.49174 0.52559 0.0
C1545 C 0.50965 0.45703 0.5093 0.0
C1546 C 0.51268 0.46253 0.492 0.0
C1547 C 0.5118 0.4717 0.52617 0.0
C1548 C 0.5182 0.48296 0.49223 0.0
H1549 H 0.51276 0.47154 0.4269 0.0
N1550 N 0.5229 0.50887 0.47637 0.0
C1551 C 0.51862 0.50224 0.44198 0.0
C1552 C 0.51932 0.48906 0.47537 0.0
C1553 C 0.52193 0.51557 0.45991 0.0
C1554 C 0.51557 0.48186 0.44081 0.0
C1555 C 0.51551 0.475 0.45763 0.0
O1556 O 0.50698 0.5383 0.49508 0.0
O1557 O 0.5446 0.55997 0.51712 0.0
O1558 O 0.54844 0.56644 0.55021 0.0
O1559 O 0.52698 0.53688 0.53826 0.0
O1560 O 0.53051 0.5533 0.49095 0.0
O1561 O 0.50481 0.52546 0.51965 0.0
O1562 O 0.59156 0.55371 0.5443 0.0
O1563 O 0.55367 0.53039 0.52085 0.0
O1564 O 0.5495 0.52412 0.48736 0.0
O1565 O 0.57139 0.55332 0.4998 0.0
O1566 O 0.56767 0.53704 0.54703 0.0
O1567 O 0.59299 0.56332 0.51782 0.0
C1568 C 0.54122 0.56734 0.5032 0.0
C1569 C 0.47838 0.52162 0.50029 0.0
C1570 C 0.44687 0.52121 0.49965 0.0
C1571 C 0.46465 0.53006 0.50715 0.0
C1572 C 0.4431 0.50323 0.48552 0.0
C1573 C 0.47443 0.50369 0.48632 0.0
C1574 C 0.45679 0.49449 0.47907 0.0
C1575 C 0.5339 0.55308 0.55218 0.0
C1576 C 0.49668 0.53246 0.50753 0.0
C1577 C 0.51101 0.45459 0.45728 0.0
C1578 C 0.50942 0.44838 0.47445 0.0
C1579 C 0.55717 0.52292 0.53466 0.0
C1580 C 0.61982 0.56933 0.53705 0.0
C1581 C 0.63324 0.55923 0.53379 0.0
C1582 C 0.65115 0.56938 0.53873 0.0
C1583 C 0.6555 0.58996 0.5469 0.0
C1584 C 0.62422 0.58982 0.54533 0.0
C1585 C 0.64206 0.60009 0.55023 0.0
C1586 C 0.56432 0.5373 0.48569 0.0
C1587 C 0.60148 0.55796 0.53097 0.0
H1588 H 0.46796 0.54369 0.51829 0.0
H1589 H 0.42966 0.49612 0.47909 0.0
H1590 H 0.48491 0.49698 0.48091 0.0
H1591 H 0.45374 0.48072 0.46816 0.0
H1592 H 0.6297 0.54343 0.52707 0.0
H1593 H 0.66924 0.59814 0.55093 0.0
H1594 H 0.61396 0.59783 0.54788 0.0
H1595 H 0.64549 0.61592 0.5566 0.0
Tb1596 Tb 0.07208 0.5481 0.01605 0.0
C1597 C 0.01028 0.50907 0.05555 0.0
C1598 C 0.99699 0.47784 0.03307 0.0
C1599 C 0.99542 0.48045 0.06718 0.0
C1600 C 0.00679 0.49787 0.03703 0.0
C1601 C 0.00407 0.50077 0.07083 0.0
C1602 C 0.99191 0.46897 0.0483 0.0
C1603 C 0.01322 0.53377 0.09155 0.0
N1604 N 0.01835 0.52867 0.05835 0.0
C1605 C 0.0192 0.54127 0.0759 0.0
C1606 C 0.00597 0.51336 0.08909 0.0
Tb1607 Tb 0.02801 0.53959 0.03203 0.0
N1608 N 0.01149 0.50722 0.02281 0.0
C1609 C 0.0051 0.49791 0.00425 0.0
C1610 C 0.99178 0.46772 0.01397 0.0
C1611 C 0.99547 0.47796 0.99953 0.0
H1612 H 0.02487 0.55705 0.07802 0.0
H1613 H 0.991 0.47049 0.98473 0.0
H1614 H 0.98459 0.45352 0.04557 0.0
H1615 H 0.01431 0.54373 0.1055 0.0
H1616 H 0.00791 0.50551 0.99285 0.0
H1617 H 0.10644 0.61833 0.06382 0.0
H1618 H 0.98427 0.4523 0.01029 0.0
H1619 H 0.078 0.53085 0.97093 0.0
H1620 H 0.09083 0.58296 0.05559 0.0
H1621 H 0.08859 0.54438 0.94356 0.0
H1622 H 0.99075 0.47369 0.07874 0.0
H1623 H 0.11311 0.63658 0.0383 0.0
H1624 H 0.11357 0.63526 0.00303 0.0
H1625 H 1.00131 0.50759 0.10121 0.0
H1626 H 0.1088 0.61491 0.96993 0.0
N1627 N 0.08793 0.58086 0.02547 0.0
C1628 C 0.09363 0.59047 0.04415 0.0
C1629 C 0.10619 0.62095 0.03454 0.0
C1630 C 0.1017 0.61064 0.01541 0.0
C1631 C 0.10253 0.61068 0.04896 0.0
C1632 C 0.09263 0.59034 0.01136 0.0
H1633 H 0.09994 0.58076 0.94761 0.0
N1634 N 0.08262 0.55932 0.99019 0.0
C1635 C 0.0889 0.55436 0.95735 0.0
C1636 C 0.08992 0.57908 0.99293 0.0
C1637 C 0.08291 0.54674 0.97293 0.0
C1638 C 0.09521 0.5749 0.95966 0.0
C1639 C 0.09621 0.58752 0.97776 0.0
O1640 O 0.08599 0.52614 0.00653 0.0
O1641 O 0.04888 0.52649 0.02053 0.0
O1642 O 0.04503 0.53222 0.05303 0.0
O1643 O 0.07258 0.5499 0.0469 0.0
O1644 O 0.06084 0.51943 0.99609 0.0
O1645 O 0.09585 0.54907 0.03194 0.0
O1646 O 0.01443 0.56159 0.0424 0.0
O1647 O 0.05094 0.56106 0.02701 0.0
O1648 O 0.05526 0.55448 0.99432 0.0
O1649 O 0.02699 0.53886 1.00121 0.0
O1650 O 0.03942 0.56847 0.05159 0.0
O1651 O 0.00379 0.53871 0.01705 0.0
C1652 C 0.04811 0.51295 0.00559 0.0
C1653 C 0.11694 0.53594 0.01423 0.0
C1654 C 0.14451 0.52487 0.01272 0.0
C1655 C 0.12718 0.52311 0.01835 0.0
C1656 C 0.15121 0.53943 1.00258 0.0
C1657 C 0.12405 0.55056 0.00444 0.0
C1658 C 0.14106 0.55218 0.99855 0.0
C1659 C 0.06219 0.54055 0.05787 0.0
C1660 C 0.09887 0.53381 0.02012 0.0
C1661 C 0.1041 0.60804 0.98142 0.0
C1662 C 0.10681 0.61962 1.00025 0.0
C1663 C 0.05173 0.57497 0.04161 0.0
C1664 C 0.98344 0.55219 0.03585 0.0
C1665 C 0.9738 0.56608 0.03332 0.0
C1666 C 0.95725 0.56537 0.04062 0.0
C1667 C 0.95042 0.55054 0.05036 0.0
C1668 C 0.97632 0.53731 0.04536 0.0
C1669 C 0.95989 0.53654 0.0526 0.0
C1670 C 0.03787 0.54737 0.99004 0.0
C1671 C 1.00119 0.55402 0.0292 0.0
H1672 H 0.12176 0.51205 0.02622 0.0
H1673 H 0.16431 0.54094 0.99767 0.0
H1674 H 0.11651 0.56072 1.00136 0.0
H1675 H 0.14641 0.56339 0.99085 0.0
H1676 H 0.9793 0.57761 0.026 0.0
H1677 H 0.93763 0.54959 0.05597 0.0
H1678 H 0.98344 0.52638 0.04726 0.0
H1679 H 0.95447 0.52507 0.05999 0.0
H1680 H 0.03755 0.22543 0.94325 0.0
H1681 H 0.04494 0.19925 0.95708 0.0
H1682 H 0.9937 0.18845 0.9788 0.0
H1683 H 0.98617 0.21445 0.96499 0.0
H1684 H 0.04794 0.19329 0.99295 0.0
H1685 H 0.97896 0.1384 0.97694 0.0
H1686 H 0.95207 0.1297 0.95413 0.0
H1687 H 0.98344 0.15109 0.91189 0.0
H1688 H 0.01053 0.15965 0.93435 0.0
H1689 H 0.03762 0.1004 0.03135 0.0
H1690 H 0.03381 0.13245 0.02579 0.0
H1691 H 0.0426 0.11391 0.96661 0.0
H1692 H 0.04596 0.08213 0.97197 0.0
H1693 H 0.00911 0.12483 0.97397 0.0
H1694 H 0.07789 0.17183 0.98715 0.0
H1695 H 0.10506 0.18582 0.00974 0.0
H1696 H 0.07377 0.18197 0.05711 0.0
H1697 H 0.04649 0.16822 0.03477 0.0
C1698 C 0.02788 0.21763 0.9511 0.0
C1699 C 0.01121 0.22217 0.9529 0.0
C1700 C 0.03215 0.20262 0.95904 0.0
C1701 C 0.01982 0.19157 0.96882 0.0
C1702 C 0.00339 0.19646 0.97111 0.0
C1703 C 0.99914 0.2115 0.96326 0.0
C1704 C 0.02399 0.17471 0.97622 0.0
C1705 C 0.0394 0.17832 0.98875 0.0
C1706 C 0.01285 0.15513 0.9711 0.0
C1707 C 0.99671 0.14988 0.9574 0.0
C1708 C 0.98011 0.14119 0.96276 0.0
C1709 C 0.96484 0.13629 0.9499 0.0
C1710 C 0.96604 0.13992 0.9316 0.0
C1711 C 0.98252 0.14837 0.9261 0.0
C1712 C 0.99783 0.15327 0.9389 0.0
C1713 C 0.0393 0.10351 0.01736 0.0
C1714 C 0.04231 0.08881 1.00214 0.0
C1715 C 0.03718 0.12187 0.01416 0.0
C1716 C 0.03817 0.12585 0.99578 0.0
C1717 C 0.04193 0.11142 0.98094 0.0
C1718 C 0.04385 0.0932 0.98404 0.0
C1719 C 0.03299 0.14344 0.99087 0.0
C1720 C 0.01746 0.13987 0.97846 0.0
C1721 C 0.04394 0.16306 0.99619 0.0
C1722 C 0.06031 0.16844 0.00934 0.0
C1723 C 0.07691 0.17362 1.00238 0.0
C1724 C 0.09229 0.18175 0.01514 0.0
C1725 C 0.09115 0.18477 0.03486 0.0
C1726 C 0.07465 0.17954 0.04184 0.0
C1727 C 0.05925 0.17144 0.02914 0.0
H1728 H 0.10305 0.19108 0.04472 0.0
H1729 H 0.9542 0.13613 0.92167 0.0
H1730 H 0.14027 0.82214 0.1354 0.0
H1731 H 0.16837 0.81759 0.14884 0.0
H1732 H 0.14725 0.81822 0.20333 0.0
H1733 H 0.11981 0.82334 0.19037 0.0
H1734 H 0.17927 0.83963 0.20965 0.0
H1735 H 0.15149 0.77408 0.16843 0.0
H1736 H 0.13961 0.75057 0.13745 0.0
H1737 H 0.18972 0.76757 0.11516 0.0
H1738 H 0.20181 0.79136 0.1459 0.0
H1739 H 0.23127 0.78985 0.25736 0.0
H1740 H 0.207 0.79728 0.23954 0.0
H1741 H 0.24104 0.80949 0.19583 0.0
H1742 H 0.26572 0.80353 0.21411 0.0
H1743 H 0.20563 0.78388 0.1816 0.0
H1744 H 0.23405 0.84753 0.21987 0.0
H1745 H 0.24748 0.87413 0.24838 0.0
H1746 H 0.19849 0.86316 0.27413 0.0
H1747 H 0.18478 0.83641 0.24577 0.0
C1748 C 0.14168 0.82139 0.15025 0.0
C1749 C 0.12767 0.8232 0.16174 0.0
C1750 C 0.15774 0.81863 0.15793 0.0
C1751 C 0.16004 0.81734 0.17717 0.0
C1752 C 0.14603 0.81921 0.18852 0.0
C1753 C 0.1302 0.82212 0.18098 0.0
C1754 C 0.17687 0.81437 0.18598 0.0
C1755 C 0.18481 0.82722 0.20355 0.0
C1756 C 0.18484 0.79881 0.1778 0.0
C1757 C 0.17747 0.78462 0.15936 0.0
C1758 C 0.15991 0.77291 0.15686 0.0
C1759 C 0.15316 0.75952 0.13936 0.0
C1760 C 0.16391 0.75763 0.12435 0.0
C1761 C 0.18142 0.76909 0.12679 0.0
C1762 C 0.18822 0.78251 0.14423 0.0
C1763 C 0.23373 0.79437 0.24409 0.0
C1764 C 0.25063 0.79618 0.23734 0.0
C1765 C 0.21976 0.7985 0.23383 0.0
C1766 C 0.22219 0.80401 0.21631 0.0
C1767 C 0.23882 0.80521 0.20923 0.0
C1768 C 0.25291 0.8016 0.2197 0.0
C1769 C 0.20736 0.80861 0.20553 0.0
C1770 C 0.19995 0.79618 0.18764 0.0
C1771 C 0.19999 0.82471 0.21323 0.0
C1772 C 0.20845 0.83985 0.2308 0.0
C1773 C 0.22621 0.85062 0.23172 0.0
C1774 C 0.23382 0.86585 0.24776 0.0
C1775 C 0.22381 0.87042 0.263 0.0
C1776 C 0.2062 0.85966 0.26228 0.0
C1777 C 0.1985 0.84448 0.24622 0.0
H1778 H 0.22974 0.88219 0.27543 0.0
H1779 H 0.15872 0.74723 0.11086 0.0
H1780 H 0.48877 0.82037 0.4662 0.0
H1781 H 0.49646 0.85639 0.47855 0.0
H1782 H 0.54389 0.86141 0.44925 0.0
H1783 H 0.53602 0.82534 0.43632 0.0
H1784 H 0.52182 0.8836 0.50048 0.0
H1785 H 0.55298 0.90349 0.43373 0.0
H1786 H 0.55063 0.88946 0.3989 0.0
H1787 H 0.4969 0.857 0.40023 0.0
H1788 H 0.49889 0.87101 0.435 0.0
H1789 H 0.55267 0.99034 0.5248 0.0
H1790 H 0.54843 0.95433 0.51715 0.0
H1791 H 0.51965 0.95053 0.46291 0.0
H1792 H 0.52745 0.98661 0.46917 0.0
H1793 H 0.53402 0.92635 0.4542 0.0
H1794 H 0.50215 0.93118 0.51403 0.0
H1795 H 0.50033 0.94184 0.54888 0.0
H1796 H 0.54811 0.92432 0.56074 0.0
H1797 H 0.54984 0.91271 0.52612 0.0
C1798 C 0.50096 0.82904 0.46248 0.0
C1799 C 0.51169 0.81979 0.4501 0.0
C1800 C 0.50536 0.84974 0.46963 0.0
C1801 C 0.52062 0.86182 0.46464 0.0
C1802 C 0.53183 0.85256 0.45303 0.0
C1803 C 0.52737 0.83183 0.44574 0.0
C1804 C 0.5243 0.88406 0.47094 0.0
C1805 C 0.52428 0.893 0.49034 0.0
C1806 C 0.52751 0.89647 0.45786 0.0
C1807 C 0.52617 0.88812 0.43696 0.0
C1808 C 0.54066 0.8934 0.42656 0.0
C1809 C 0.53939 0.88544 0.40684 0.0
C1810 C 0.52365 0.87229 0.39738 0.0
C1811 C 0.50911 0.86712 0.40759 0.0
C1812 C 0.51031 0.87505 0.4273 0.0
C1813 C 0.54519 0.98163 0.5114 0.0
C1814 C 0.53973 0.99122 0.49787 0.0
C1815 C 0.54246 0.96079 0.50704 0.0
C1816 C 0.53312 0.94885 0.48952 0.0
C1817 C 0.52715 0.95878 0.47642 0.0
C1818 C 0.53122 0.97957 0.48014 0.0
C1819 C 0.53047 0.92643 0.48392 0.0
C1820 C 0.53107 0.91727 0.46453 0.0
C1821 C 0.52711 0.91379 0.49695 0.0
C1822 C 0.52623 0.92134 0.51758 0.0
C1823 C 0.51229 0.92973 0.5241 0.0
C1824 C 0.51127 0.93591 0.54376 0.0
C1825 C 0.52422 0.93411 0.55694 0.0
C1826 C 0.53813 0.92582 0.55052 0.0
C1827 C 0.53906 0.91927 0.53092 0.0
H1828 H 0.52339 0.93898 0.57213 0.0
H1829 H 0.5227 0.86614 0.38211 0.0
H1830 H 0.54932 0.30561 0.68478 0.0
H1831 H 0.52257 0.2999 0.70146 0.0
H1832 H 0.49138 0.30542 0.65259 0.0
H1833 H 0.51817 0.3123 0.63645 0.0
H1834 H 0.48014 0.32355 0.68137 0.0
H1835 H 0.4904 0.25886 0.66605 0.0
H1836 H 0.50723 0.23309 0.66404 0.0
H1837 H 0.51571 0.24605 0.7254 0.0
H1838 H 0.49915 0.27211 0.72776 0.0
H1839 H 0.39753 0.28254 0.71887 0.0
H1840 H 0.42212 0.28728 0.69868 0.0
H1841 H 0.45985 0.29903 0.74813 0.0
H1842 H 0.43567 0.29522 0.76839 0.0
H1843 H 0.46577 0.27014 0.71681 0.0
H1844 H 0.45486 0.33627 0.72999 0.0
H1845 H 0.43572 0.35954 0.72972 0.0
H1846 H 0.42557 0.33997 0.66853 0.0
H1847 H 0.44446 0.31636 0.6685 0.0
C1848 C 0.53673 0.30538 0.67749 0.0
C1849 C 0.53598 0.30921 0.65913 0.0
C1850 C 0.52135 0.30202 0.68704 0.0
C1851 C 0.50469 0.30187 0.67828 0.0
C1852 C 0.50394 0.30544 0.65981 0.0
C1853 C 0.51935 0.30919 0.65044 0.0
C1854 C 0.4882 0.29861 0.68851 0.0
C1855 C 0.47694 0.31163 0.68882 0.0
C1856 C 0.48375 0.28317 0.69841 0.0
C1857 C 0.49369 0.26754 0.69707 0.0
C1858 C 0.49597 0.2563 0.67911 0.0
C1859 C 0.50544 0.24164 0.67791 0.0
C1860 C 0.51257 0.23797 0.69458 0.0
C1861 C 0.5102 0.24893 0.7125 0.0
C1862 C 0.50077 0.26364 0.71378 0.0
C1863 C 0.41106 0.28648 0.72552 0.0
C1864 C 0.41449 0.28815 0.74531 0.0
C1865 C 0.42512 0.28905 0.71391 0.0
C1866 C 0.44288 0.29328 0.72185 0.0
C1867 C 0.4463 0.29548 0.74161 0.0
C1868 C 0.43236 0.29319 0.75318 0.0
C1869 C 0.45805 0.29518 0.70979 0.0
C1870 C 0.46902 0.28192 0.70917 0.0
C1871 C 0.46196 0.31005 0.69925 0.0
C1872 C 0.45091 0.32445 0.69926 0.0
C1873 C 0.44844 0.33685 0.7165 0.0
C1874 C 0.43766 0.3501 0.7164 0.0
C1875 C 0.42939 0.35119 0.69913 0.0
C1876 C 0.43195 0.33909 0.68191 0.0
C1877 C 0.44271 0.32578 0.68194 0.0
H1878 H 0.42103 0.36146 0.69908 0.0
H1879 H 0.5199 0.22659 0.69362 0.0
H1880 H 0.03192 0.80069 0.60853 0.0
H1881 H 0.03975 0.81968 0.58407 0.0
H1882 H 0.99411 0.8443 0.59385 0.0
H1883 H 0.98562 0.82425 0.61693 0.0
H1884 H 0.99581 0.8377 0.55942 0.0
H1885 H 0.04011 0.86997 0.61253 0.0
H1886 H 0.06426 0.87235 0.63708 0.0
H1887 H 0.09637 0.85353 0.59312 0.0
H1888 H 0.0723 0.85081 0.56832 0.0
H1889 H 0.05316 0.93406 0.53763 0.0
H1890 H 0.04754 0.9103 0.55776 0.0
H1891 H 0.0221 0.86372 0.50858 0.0
H1892 H 0.02626 0.88784 0.4886 0.0
H1893 H 0.05677 0.87942 0.56087 0.0
H1894 H 0.98928 0.83025 0.521 0.0
H1895 H 0.96355 0.83351 0.5016 0.0
H1896 H 0.97524 0.89606 0.52781 0.0
H1897 H 1.00086 0.8931 0.54753 0.0
C1898 C 0.02357 0.81007 0.60525 0.0
C1899 C 0.00815 0.81098 0.61446 0.0
C1900 C 0.02809 0.82104 0.59142 0.0
C1901 C 0.01768 0.8337 0.58725 0.0
C1902 C 0.00231 0.83456 0.5966 0.0
C1903 C 0.99749 0.82314 0.60986 0.0
C1904 C 0.02257 0.84621 0.57327 0.0
C1905 C 0.00918 0.84676 0.55975 0.0
C1906 C 0.03991 0.85833 0.57377 0.0
C1907 C 0.05435 0.85993 0.58862 0.0
C1908 C 0.05228 0.8662 0.60813 0.0
C1909 C 0.06595 0.86763 0.62207 0.0
C1910 C 0.08181 0.86302 0.61666 0.0
C1911 C 0.08406 0.85704 0.59729 0.0
C1912 C 0.07042 0.85555 0.58329 0.0
C1913 C 0.0461 0.91884 0.53109 0.0
C1914 C 0.03984 0.91299 0.51151 0.0
C1915 C 0.04315 0.90518 0.5426 0.0
C1916 C 0.03415 0.88527 0.53476 0.0
C1917 C 0.02873 0.87911 0.51504 0.0
C1918 C 0.03134 0.89288 0.50356 0.0
C1919 C 0.0299 0.87126 0.54745 0.0
C1920 C 0.04344 0.87026 0.56052 0.0
C1921 C 0.01246 0.85958 0.54731 0.0
C1922 C 0.99712 0.86149 0.53549 0.0
C1923 C 0.98633 0.84468 0.5226 0.0
C1924 C 0.97177 0.84648 0.51157 0.0
C1925 C 0.96781 0.865 0.5134 0.0
C1926 C 0.97836 0.88175 0.52633 0.0
C1927 C 0.99292 0.88002 0.53742 0.0
H1928 H 0.95654 0.86636 0.50484 0.0
H1929 H 0.09238 0.86413 0.62749 0.0
H1930 H 0.55287 0.81981 0.82543 0.0
H1931 H 0.52771 0.83148 0.81454 0.0
H1932 H 0.49202 0.7897 0.83934 0.0
H1933 H 0.51698 0.77787 0.85012 0.0
H1934 H 0.4814 0.78831 0.80173 0.0
H1935 H 0.49966 0.83823 0.86206 0.0
H1936 H 0.52121 0.86463 0.88548 0.0
H1937 H 0.53376 0.89779 0.84243 0.0
H1938 H 0.51183 0.87179 0.81889 0.0
H1939 H 0.40158 0.81213 0.79486 0.0
H1940 H 0.42876 0.80785 0.80853 0.0
H1941 H 0.45849 0.8593 0.79108 0.0
H1942 H 0.43082 0.86579 0.77989 0.0
H1943 H 0.47417 0.85722 0.82255 0.0
H1944 H 0.45199 0.80898 0.76338 0.0
H1945 H 0.42941 0.78284 0.74084 0.0
H1946 H 0.4253 0.7453 0.78077 0.0
H1947 H 0.44767 0.77133 0.80367 0.0
C1948 C 0.53964 0.81306 0.82845 0.0
C1949 C 0.53682 0.79788 0.83851 0.0
C1950 C 0.52536 0.81988 0.82242 0.0
C1951 C 0.50813 0.81152 0.82632 0.0
C1952 C 0.50529 0.79634 0.8363 0.0
C1953 C 0.51953 0.78961 0.84242 0.0
C1954 C 0.49281 0.81774 0.81913 0.0
C1955 C 0.47971 0.80333 0.80634 0.0
C1956 C 0.49104 0.83748 0.82472 0.0
C1957 C 0.50427 0.85303 0.83872 0.0
C1958 C 0.50708 0.85112 0.85759 0.0
C1959 C 0.51933 0.86602 0.87088 0.0
C1960 C 0.52902 0.88277 0.8654 0.0
C1961 C 0.52629 0.88477 0.84665 0.0
C1962 C 0.51387 0.87004 0.83336 0.0
C1963 C 0.41363 0.82322 0.79452 0.0
C1964 C 0.41369 0.8394 0.78605 0.0
C1965 C 0.42936 0.82035 0.80199 0.0
C1966 C 0.44572 0.83271 0.80007 0.0
C1967 C 0.44599 0.84933 0.79239 0.0
C1968 C 0.4301 0.8528 0.78567 0.0
C1969 C 0.46241 0.82763 0.80538 0.0
C1970 C 0.47587 0.84225 0.81769 0.0
C1971 C 0.4646 0.80802 0.79921 0.0
C1972 C 0.45147 0.79214 0.78525 0.0
C1973 C 0.44624 0.79517 0.76736 0.0
C1974 C 0.43347 0.78038 0.75454 0.0
C1975 C 0.42592 0.76243 0.75938 0.0
C1976 C 0.43117 0.75921 0.77704 0.0
C1977 C 0.44391 0.77396 0.78993 0.0
H1978 H 0.41602 0.75101 0.74944 0.0
H1979 H 0.53855 0.89423 0.87571 0.0
H1980 H 0.5166 0.22877 0.14288 0.0
H1981 H 0.52266 0.19717 0.12798 0.0
H1982 H 0.46817 0.17489 0.10311 0.0
H1983 H 0.46203 0.20694 0.11766 0.0
H1984 H 0.51078 0.16072 0.13147 0.0
H1985 H 0.46782 0.14152 0.05997 0.0
H1986 H 0.45386 0.15793 0.0386 0.0
H1987 H 0.4947 0.21191 0.05916 0.0
H1988 H 0.50901 0.19572 0.08044 0.0
H1989 H 0.51799 0.06629 0.07248 0.0
H1990 H 0.50537 0.09284 0.09022 0.0
H1991 H 0.53786 0.13495 0.06305 0.0
H1992 H 0.55087 0.10877 0.0461 0.0
H1993 H 0.50212 0.13578 0.0609 0.0
H1994 H 0.54941 0.13548 0.10635 0.0
H1995 H 0.56586 0.12112 0.12749 0.0
H1996 H 0.52038 0.1095 0.15884 0.0
H1997 H 0.50349 0.12319 0.13747 0.0
C1998 C 0.50583 0.2172 0.13428 0.0
C1999 C 0.48883 0.22045 0.13138 0.0
C2000 C 0.50932 0.19907 0.12584 0.0
C2001 C 0.4959 0.1837 0.11438 0.0
C2002 C 0.47878 0.18666 0.11173 0.0
C2003 C 0.4753 0.20496 0.12005 0.0
C2004 C 0.50029 0.16497 0.10483 0.0
C2005 C 0.50864 0.1551 0.11605 0.0
C2006 C 0.49761 0.15766 0.08473 0.0
C2007 C 0.48928 0.16753 0.07196 0.0
C2008 C 0.4738 0.15689 0.05989 0.0
C2009 C 0.46585 0.16614 0.0478 0.0
C2010 C 0.47334 0.18598 0.0476 0.0
C2011 C 0.48887 0.19658 0.0594 0.0
C2012 C 0.49689 0.18738 0.07149 0.0
C2013 C 0.52249 0.08129 0.07053 0.0
C2014 C 0.53497 0.08556 0.0576 0.0
C2015 C 0.51528 0.09635 0.08056 0.0
C2016 C 0.52053 0.11572 0.07766 0.0
C2017 C 0.53341 0.12 0.06516 0.0
C2018 C 0.54072 0.10506 0.05539 0.0
C2019 C 0.51277 0.13176 0.08754 0.0
C2020 C 0.50377 0.14107 0.07636 0.0
C2021 C 0.51509 0.13871 0.10763 0.0
C2022 C 0.5251 0.13002 0.12012 0.0
C2023 C 0.54282 0.12953 0.11754 0.0
C2024 C 0.55224 0.12154 0.12958 0.0
C2025 C 0.54415 0.11428 0.14443 0.0
C2026 C 0.52661 0.11498 0.14725 0.0
C2027 C 0.51709 0.1228 0.13515 0.0
H2028 H 0.55151 0.10821 0.15379 0.0
H2029 H 0.46715 0.19313 0.03824 0.0
H2030 H 0.129 0.34203 0.33021 0.0
H2031 H 0.15869 0.34769 0.31943 0.0
H2032 H 0.17306 0.3096 0.35359 0.0
H2033 H 0.1432 0.30359 0.36433 0.0
H2034 H 0.19995 0.34638 0.35496 0.0
H2035 H 0.16215 0.28969 0.30978 0.0
H2036 H 0.13579 0.27173 0.28705 0.0
H2037 H 0.1488 0.31467 0.25276 0.0
H2038 H 0.1751 0.33305 0.27547 0.0
H2039 H 0.26973 0.3119 0.31485 0.0
H2040 H 0.24222 0.31699 0.32735 0.0
H2041 H 0.23301 0.34626 0.28237 0.0
H2042 H 0.26062 0.34045 0.26936 0.0
H2043 H 0.20383 0.31978 0.28599 0.0
H2044 H 0.24429 0.37309 0.32813 0.0
H2045 H 0.27161 0.39002 0.34967 0.0
H2046 H 0.25475 0.35332 0.38897 0.0
H2047 H 0.22741 0.33594 0.36752 0.0
C2048 C 0.13851 0.33503 0.33564 0.0
C2049 C 0.13373 0.32228 0.34806 0.0
C2050 C 0.15545 0.33827 0.32943 0.0
C2051 C 0.16797 0.329 0.33568 0.0
C2052 C 0.16354 0.31691 0.34868 0.0
C2053 C 0.14648 0.31344 0.35472 0.0
C2054 C 0.18528 0.33093 0.32769 0.0
C2055 C 0.20088 0.34038 0.33993 0.0
C2056 C 0.18634 0.32375 0.30796 0.0
C2057 C 0.1704 0.31291 0.29447 0.0
C2058 C 0.15925 0.29544 0.29752 0.0
C2059 C 0.14435 0.28515 0.28462 0.0
C2060 C 0.14057 0.2921 0.26851 0.0
C2061 C 0.15171 0.30934 0.26527 0.0
C2062 C 0.1666 0.3197 0.27815 0.0
C2063 C 0.26176 0.31921 0.3075 0.0
C2064 C 0.26683 0.32519 0.2908 0.0
C2065 C 0.2462 0.32246 0.31486 0.0
C2066 C 0.23568 0.33223 0.30593 0.0
C2067 C 0.24099 0.33872 0.28947 0.0
C2068 C 0.25664 0.3354 0.28205 0.0
C2069 C 0.21864 0.33441 0.31332 0.0
C2070 C 0.20301 0.32589 0.30098 0.0
C2071 C 0.2176 0.34242 0.33293 0.0
C2072 C 0.2338 0.35315 0.34617 0.0
C2073 C 0.24643 0.36856 0.34133 0.0
C2074 C 0.26193 0.37823 0.35352 0.0
C2075 C 0.26494 0.37273 0.37066 0.0
C2076 C 0.2524 0.35758 0.37569 0.0
C2077 C 0.23687 0.34783 0.36354 0.0
H2078 H 0.27697 0.38021 0.38007 0.0
H2079 H 0.12905 0.2841 0.25851 0.0
H2080 H 0.93919 0.06913 0.20601 0.0
H2081 H 0.94978 0.0663 0.17393 0.0
H2082 H 1.00202 0.06783 0.198 0.0
H2083 H 0.99175 0.07113 0.22964 0.0
H2084 H 0.00757 0.08866 0.17389 0.0
H2085 H 0.96864 0.02333 0.16789 0.0
H2086 H 0.94012 0.99947 0.16839 0.0
H2087 H 0.91574 0.02143 0.12547 0.0
H2088 H 0.94408 0.04558 0.12488 0.0
H2089 H 0.04811 0.05836 0.08952 0.0
H2090 H 0.03475 0.06115 0.11963 0.0
H2091 H 0.98392 0.05575 0.08959 0.0
H2092 H 0.99736 0.05188 0.05912 0.0
H2093 H 0.97634 0.03861 0.11602 0.0
H2094 H 0.01513 0.10305 0.1209 0.0
H2095 H 0.04371 0.12638 0.11945 0.0
H2096 H 0.06801 0.10694 0.16432 0.0
H2097 H 0.03965 0.08325 0.16581 0.0
C2098 C 0.95291 0.06877 0.20449 0.0
C2099 C 0.96444 0.07038 0.22088 0.0
C2100 C 0.95905 0.06703 0.18593 0.0
C2101 C 0.97692 0.06661 0.18293 0.0
C2102 C 0.98827 0.06816 0.19935 0.0
C2103 C 0.98222 0.06999 0.21773 0.0
C2104 C 0.98417 0.06491 0.16318 0.0
C2105 C 1.00069 0.07749 0.16137 0.0
C2106 C 0.97539 0.0509 0.14619 0.0
C2107 C 0.9584 0.03639 0.1465 0.0
C2108 C 0.95716 0.02315 0.15866 0.0
C2109 C 0.94104 0.00957 0.15894 0.0
C2110 C 0.92611 0.00897 0.14701 0.0
C2111 C 0.9273 0.02193 0.13473 0.0
C2112 C 0.94338 0.03556 0.13441 0.0
C2113 C 0.0342 0.05824 0.08924 0.0
C2114 C 0.02414 0.05558 0.07162 0.0
C2115 C 0.02639 0.05985 0.10673 0.0
C2116 C 0.00816 0.05951 0.10763 0.0
C2117 C 0.99798 0.05637 0.08989 0.0
C2118 C 0.00576 0.05426 0.07228 0.0
C2119 C 0.99986 0.06218 0.12682 0.0
C2120 C 0.98317 0.04983 0.12851 0.0
C2121 C 0.00843 0.07652 0.14372 0.0
C2122 C 0.0253 0.09128 0.14337 0.0
C2123 C 0.02658 0.10374 0.13044 0.0
C2124 C 0.04275 0.117 0.12959 0.0
C2125 C 0.05767 0.11811 0.14176 0.0
C2126 C 0.05644 0.10604 0.15488 0.0
C2127 C 0.04032 0.09271 0.15575 0.0
H2128 H 0.07019 0.12834 0.14104 0.0
H2129 H 0.91364 0.99845 0.14725 0.0
H2130 H 0.33175 0.70707 0.48755 0.0
H2131 H 0.32831 0.72964 0.46691 0.0
H2132 H 0.27201 0.7024 0.45657 0.0
H2133 H 0.27517 0.68021 0.47715 0.0
H2134 H 0.31618 0.71987 0.42885 0.0
H2135 H 0.24938 0.73557 0.45283 0.0
H2136 H 0.23451 0.74039 0.48242 0.0
H2137 H 0.28519 0.7601 0.51605 0.0
H2138 H 0.30038 0.75572 0.48665 0.0
H2139 H 0.25596 0.73045 0.35856 0.0
H2140 H 0.27043 0.72214 0.38561 0.0
H2141 H 0.28861 0.7846 0.41311 0.0
H2142 H 0.27428 0.793 0.38581 0.0
H2143 H 0.27035 0.75879 0.43631 0.0
H2144 H 0.3191 0.76627 0.39929 0.0
H2145 H 0.33259 0.76208 0.3689 0.0
H2146 H 0.31934 0.69864 0.36236 0.0
H2147 H 0.30539 0.70246 0.39267 0.0
C2148 C 0.31863 0.70609 0.48104 0.0
C2149 C 0.30375 0.69186 0.48397 0.0
C2150 C 0.31671 0.71891 0.46925 0.0
C2151 C 0.29989 0.7178 0.46048 0.0
C2152 C 0.28506 0.70373 0.46351 0.0
C2153 C 0.28694 0.69096 0.4752 0.0
C2154 C 0.29764 0.73051 0.44729 0.0
C2155 C 0.3064 0.72867 0.43064 0.0
C2156 C 0.28505 0.74219 0.44978 0.0
C2157 C 0.27601 0.74527 0.46752 0.0
C2158 C 0.25736 0.7411 0.46652 0.0
C2159 C 0.24887 0.74371 0.48327 0.0
C2160 C 0.2589 0.75052 0.50111 0.0
C2161 C 0.27744 0.75479 0.50223 0.0
C2162 C 0.286 0.75223 0.48553 0.0
C2163 C 0.26311 0.74235 0.37035 0.0
C2164 C 0.26401 0.76229 0.37031 0.0
C2165 C 0.27141 0.73764 0.38569 0.0
C2166 C 0.28055 0.75281 0.40121 0.0
C2167 C 0.28159 0.77278 0.40116 0.0
C2168 C 0.27351 0.77752 0.38564 0.0
C2169 C 0.28839 0.74748 0.41773 0.0
C2170 C 0.28056 0.75055 0.43488 0.0
C2171 C 0.30194 0.73713 0.4158 0.0
C2172 C 0.31112 0.73466 0.39817 0.0
C2173 C 0.31903 0.75142 0.39135 0.0
C2174 C 0.32675 0.74911 0.37413 0.0
C2175 C 0.32677 0.7301 0.36364 0.0
C2176 C 0.31928 0.71336 0.3705 0.0
C2177 C 0.31148 0.71559 0.38773 0.0
H2178 H 0.33249 0.72837 0.35016 0.0
H2179 H 0.2523 0.75252 0.51406 0.0
H2180 H 0.6444 0.00684 0.69939 0.0
H2181 H 0.61686 0.01237 0.68561 0.0
H2182 H 0.6475 0.04608 0.64976 0.0
H2183 H 0.67465 0.04123 0.66383 0.0
H2184 H 0.6212 0.06232 0.66168 0.0
H2185 H 0.62767 0.99327 0.63541 0.0
H2186 H 0.62823 0.95977 0.63962 0.0
H2187 H 0.57744 0.95396 0.66199 0.0
H2188 H 0.57671 0.98749 0.65803 0.0
H2189 H 0.59288 0.05209 0.56887 0.0
H2190 H 0.60576 0.05018 0.5993 0.0
H2191 H 0.55549 0.01508 0.60973 0.0
H2192 H 0.54258 0.01575 0.57814 0.0
H2193 H 0.58149 1.00089 0.62072 0.0
H2194 H 0.57138 0.06525 0.63436 0.0
H2195 H 0.57079 0.09813 0.62863 0.0
H2196 H 0.62773 0.11367 0.63062 0.0
H2197 H 0.62865 0.08077 0.636 0.0
C2198 C 0.6452 0.01603 0.6891 0.0
C2199 C 0.6616 0.02368 0.68271 0.0
C2200 C 0.62948 0.01897 0.68107 0.0
C2201 C 0.6301 0.02947 0.66651 0.0
C2202 C 0.64664 0.03799 0.66101 0.0
C2203 C 0.66218 0.03511 0.66898 0.0
C2204 C 0.61388 0.03031 0.65535 0.0
C2205 C 0.61234 0.04893 0.65286 0.0
C2206 C 0.60177 0.01291 0.64446 0.0
C2207 C 0.60225 0.99285 0.64668 0.0
C2208 C 0.61669 0.98483 0.64131 0.0
C2209 C 0.61703 0.96587 0.64364 0.0
C2210 C 0.60291 0.95477 0.65114 0.0
C2211 C 0.58839 0.96259 0.65624 0.0
C2212 C 0.58801 0.98155 0.65396 0.0
C2213 C 0.58439 0.04396 0.5775 0.0
C2214 C 0.56645 0.03454 0.5712 0.0
C2215 C 0.5918 0.04309 0.59512 0.0
C2216 C 0.58141 0.03325 0.60722 0.0
C2217 C 0.56363 0.02321 0.60082 0.0
C2218 C 0.55623 0.02374 0.58284 0.0
C2219 C 0.58981 0.03287 0.62602 0.0
C2220 C 0.58975 0.01439 0.63002 0.0
C2221 C 0.60046 0.05047 0.63835 0.0
C2222 C 0.60006 0.07053 0.63564 0.0
C2223 C 0.58377 0.07567 0.63355 0.0
C2224 C 0.58338 0.0943 0.63033 0.0
C2225 C 0.59921 0.10799 0.62928 0.0
C2226 C 0.61547 0.10308 0.63149 0.0
C2227 C 0.61594 0.08445 0.63466 0.0
H2228 H 0.59887 0.12239 0.62675 0.0
H2229 H 0.6032 0.9401 0.65295 0.0
H2230 H 0.28581 0.36467 0.98597 0.0
H2231 H 0.28074 0.34944 0.95156 0.0
H2232 H 0.33271 0.33747 0.95325 0.0
H2233 H 0.33744 0.35162 0.98746 0.0
H2234 H 0.29447 0.35955 0.92382 0.0
H2235 H 0.33713 0.30041 0.91833 0.0
H2236 H 0.3426 0.27586 0.93601 0.0
H2237 H 0.29374 0.276 0.96156 0.0
H2238 H 0.28783 0.30027 0.94379 0.0
H2239 H 0.31627 0.34381 0.83116 0.0
H2240 H 0.31851 0.35013 0.86596 0.0
H2241 H 0.29433 0.28794 0.86199 0.0
H2242 H 0.29415 0.28132 0.827 0.0
H2243 H 0.31314 0.2991 0.89228 0.0
H2244 H 0.27042 0.32809 0.86861 0.0
H2245 H 0.25839 0.34824 0.8498 0.0
H2246 H 0.29571 0.40114 0.88188 0.0
H2247 H 0.30814 0.38125 0.90068 0.0
C2248 C 0.296 0.35842 0.97906 0.0
C2249 C 0.312 0.35934 0.98961 0.0
C2250 C 0.29313 0.34979 0.95933 0.0
C2251 C 0.30625 0.34204 0.94965 0.0
C2252 C 0.32211 0.34276 0.96026 0.0
C2253 C 0.32486 0.35105 0.97996 0.0
C2254 C 0.30408 0.33459 0.92834 0.0
C2255 C 0.29844 0.34624 0.917 0.0
C2256 C 0.30861 0.31685 0.91913 0.0
C2257 C 0.31215 0.30232 0.92989 0.0
C2258 C 0.32753 0.29515 0.92768 0.0
C2259 C 0.33071 0.28128 0.93771 0.0
C2260 C 0.31856 0.27443 0.94995 0.0
C2261 C 0.30318 0.28138 0.95214 0.0
C2262 C 0.29992 0.29521 0.94211 0.0
C2263 C 0.31196 0.33142 0.83781 0.0
C2264 C 0.30534 0.31207 0.82652 0.0
C2265 C 0.31291 0.33507 0.85772 0.0
C2266 C 0.30582 0.31974 0.86679 0.0
C2267 C 0.29977 0.30015 0.85548 0.0
C2268 C 0.29968 0.29631 0.83548 0.0
C2269 C 0.30412 0.32445 0.88786 0.0
C2270 C 0.30901 0.3123 0.89913 0.0
C2271 C 0.2979 0.34112 0.89696 0.0
C2272 C 0.29026 0.35318 0.88596 0.0
C2273 C 0.27608 0.34401 0.8716 0.0
C2274 C 0.26921 0.35538 0.86094 0.0
C2275 C 0.2763 0.37595 0.86463 0.0
C2276 C 0.29024 0.38521 0.87903 0.0
C2277 C 0.29719 0.3739 0.88971 0.0
H2278 H 0.27097 0.38473 0.85633 0.0
H2279 H 0.32105 0.26369 0.95771 0.0
H2280 H 0.97345 0.04939 0.31766 0.0
H2281 H 0.9873 0.04495 0.34712 0.0
H2282 H 0.95867 0.08321 0.38047 0.0
H2283 H 0.94477 0.0878 0.35077 0.0
H2284 H 0.99079 0.09185 0.39854 0.0
H2285 H 0.94859 0.03005 0.37461 0.0
H2286 H 0.93298 0.99922 0.35127 0.0
H2287 H 0.98151 0.98006 0.34721 0.0
H2288 H 0.99748 0.01095 0.37032 0.0
H2289 H 0.9979 0.0538 0.48448 0.0
H2290 H 0.98586 0.05699 0.4536 0.0
H2291 H 0.03408 0.04905 0.42956 0.0
H2292 H 0.04671 0.0469 0.46111 0.0
H2293 H 0.99292 0.02483 0.40694 0.0
H2294 H 0.03485 0.0885 0.4319 0.0
H2295 H 0.04842 0.11874 0.45699 0.0
H2296 H 0.99795 0.13357 0.46052 0.0
H2297 H 0.98399 0.10316 0.43573 0.0
C2298 C 0.96988 0.05681 0.3312 0.0
C2299 C 0.95768 0.06889 0.3314 0.0
C2300 C 0.97789 0.05418 0.34829 0.0
C2301 C 0.97416 0.06347 0.3666 0.0
C2302 C 0.96203 0.07569 0.36687 0.0
C2303 C 0.95389 0.07824 0.34969 0.0
C2304 C 0.98293 0.06051 0.38514 0.0
C2305 C 0.99107 0.07709 0.40021 0.0
C2306 C 0.98377 0.04142 0.388 0.0
C2307 C 0.97427 0.02291 0.37403 0.0
C2308 C 0.95597 0.01934 0.36861 0.0
C2309 C 0.94705 1.00185 0.35544 0.0
C2310 C 0.95626 0.98772 0.34772 0.0
C2311 C 0.9744 0.99104 0.35317 0.0
C2312 C 0.98339 0.00854 0.36631 0.0
C2313 C 0.00602 0.05253 0.47264 0.0
C2314 C 0.02325 0.04956 0.47555 0.0
C2315 C 0.99903 0.0544 0.45482 0.0
C2316 C 0.00881 0.05323 0.43881 0.0
C2317 C 0.026 0.04994 0.44143 0.0
C2318 C 0.03323 0.04849 0.45956 0.0
C2319 C 1.00105 0.05614 0.4199 0.0
C2320 C 0.99285 0.03955 0.40499 0.0
C2321 C 1.00001 0.07516 0.41725 0.0
C2322 C 0.00833 0.09343 0.43213 0.0
C2323 C 0.02659 0.09807 0.4382 0.0
C2324 C 0.03437 0.11527 0.45233 0.0
C2325 C 0.02404 0.12804 0.46038 0.0
C2326 C 0.00592 0.12364 0.4543 0.0
C2327 C 0.99807 0.10643 0.44021 0.0
H2328 H 0.03009 0.14138 0.47127 0.0
H2329 H 0.94932 0.97416 0.33754 0.0
H2330 H 0.29681 0.70673 0.55823 0.0
H2331 H 0.28975 0.72554 0.58829 0.0
H2332 H 0.26502 0.67056 0.60331 0.0
H2333 H 0.27114 0.65165 0.57244 0.0
H2334 H 0.24896 0.69902 0.61834 0.0
H2335 H 0.30934 0.69383 0.61735 0.0
H2336 H 0.33858 0.69659 0.60476 0.0
H2337 H 0.3454 0.75967 0.61217 0.0
H2338 H 0.31607 0.75722 0.62454 0.0
H2339 H 0.27134 0.73506 0.71978 0.0
H2340 H 0.26689 0.71743 0.68618 0.0
H2341 H 0.28607 0.77301 0.66984 0.0
H2342 H 0.29034 0.79085 0.70346 0.0
H2343 H 0.3038 0.74465 0.6554 0.0
H2344 H 0.24265 0.74841 0.65837 0.0
H2345 H 0.2141 0.7441 0.67256 0.0
H2346 H 0.21002 0.68137 0.66418 0.0
H2347 H 0.23875 0.68543 0.65037 0.0
C2348 C 0.28945 0.69871 0.56775 0.0
C2349 C 0.28471 0.67783 0.56327 0.0
C2350 C 0.28549 0.70943 0.58494 0.0
C2351 C 0.27741 0.69945 0.59834 0.0
C2352 C 0.27142 0.67856 0.59325 0.0
C2353 C 0.27494 0.66778 0.57569 0.0
C2354 C 0.27707 0.71074 0.61821 0.0
C2355 C 0.26097 0.70877 0.62654 0.0
C2356 C 0.29272 0.72374 0.62887 0.0
C2357 C 0.31045 0.72531 0.62168 0.0
C2358 C 0.31704 0.70827 0.61618 0.0
C2359 C 0.33362 0.70978 0.6091 0.0
C2360 C 0.34382 0.72829 0.60762 0.0
C2361 C 0.33748 0.74534 0.61329 0.0
C2362 C 0.32088 0.7439 0.62035 0.0
C2363 C 0.27437 0.74362 0.70907 0.0
C2364 C 0.28162 0.76434 0.71434 0.0
C2365 C 0.27172 0.7335 0.68984 0.0
C2366 C 0.27614 0.74393 0.67555 0.0
C2367 C 0.28261 0.7647 0.68069 0.0
C2368 C 0.28516 0.77485 0.69991 0.0
C2369 C 0.27569 0.73298 0.65549 0.0
C2370 C 0.29174 0.73494 0.64717 0.0
C2371 C 0.2601 0.71968 0.64513 0.0
C2372 C 0.24279 0.71721 0.65328 0.0
C2373 C 0.23568 0.73372 0.65963 0.0
C2374 C 0.21949 0.73133 0.66763 0.0
C2375 C 0.21024 0.71247 0.66925 0.0
C2376 C 0.21717 0.69596 0.66288 0.0
C2377 C 0.23339 0.69829 0.65494 0.0
H2378 H 0.19771 0.71066 0.67547 0.0
H2379 H 0.35665 0.72943 0.60212 0.0
H2380 H 0.65809 0.04831 0.78834 0.0
H2381 H 0.64024 0.05453 0.81481 0.0
H2382 H 0.59309 0.01901 0.77859 0.0
H2383 H 0.61127 0.01223 0.75183 0.0
H2384 H 0.59167 0.05846 0.80738 0.0
H2385 H 0.60716 0.99506 0.80265 0.0
H2386 H 0.6286 0.97406 0.79879 0.0
H2387 H 0.66046 0.01164 0.84947 0.0
H2388 H 0.63934 0.03306 0.85342 0.0
H2389 H 0.54171 0.04705 0.88564 0.0
H2390 H 0.55481 0.04004 0.85546 0.0
H2391 H 0.60702 0.05636 0.88636 0.0
H2392 H 0.59393 0.0632 0.91665 0.0
H2393 H 0.6041 0.02483 0.85852 0.0
H2394 H 0.59227 0.08851 0.86414 0.0
H2395 H 0.57449 0.11348 0.86894 0.0
H2396 H 0.53974 0.0804 0.81853 0.0
H2397 H 0.55716 0.05504 0.81362 0.0
C2398 C 0.64396 0.04186 0.78592 0.0
C2399 C 0.6361 0.02936 0.76824 0.0
C2400 C 0.63375 0.0456 0.80101 0.0
C2401 C 0.61546 0.03696 0.79866 0.0
C2402 C 0.60725 0.02575 0.78058 0.0
C2403 C 0.61757 0.02194 0.76537 0.0
C2404 C 0.60557 0.0382 0.8157 0.0
C2405 C 0.59399 0.05076 0.8184 0.0
C2406 C 0.60931 0.02882 0.83033 0.0
C2407 C 0.62175 0.0157 0.82825 0.0
C2408 C 0.6188 0.9989 0.81289 0.0
C2409 C 0.63088 0.98693 0.8107 0.0
C2410 C 0.6459 0.99153 0.82386 0.0
C2411 C 0.64883 0.0081 0.83928 0.0
C2412 C 0.6368 0.02014 0.84151 0.0
C2413 C 0.55598 0.04909 0.88598 0.0
C2414 C 0.56683 0.05582 0.90345 0.0
C2415 C 0.56345 0.04512 0.86874 0.0
C2416 C 0.58191 0.04803 0.86865 0.0
C2417 C 0.59273 0.05407 0.88612 0.0
C2418 C 0.58525 0.05791 0.9034 0.0
C2419 C 0.58997 0.04504 0.85031 0.0
C2420 C 0.60139 0.03226 0.84741 0.0
C2421 C 0.5864 0.05463 0.83572 0.0
C2422 C 0.57587 0.06977 0.83865 0.0
C2423 C 0.58073 0.08647 0.85419 0.0
C2424 C 0.57074 0.10071 0.85691 0.0
C2425 C 0.55596 0.0985 0.84408 0.0
C2426 C 0.55116 0.08207 0.82848 0.0
C2427 C 0.56109 0.06776 0.82572 0.0
H2428 H 0.54825 0.10956 0.8462 0.0
H2429 H 0.65525 0.98225 0.82213 0.0
H2430 H 0.33019 0.35152 0.08823 0.0
H2431 H 0.325 0.33947 0.11683 0.0
H2432 H 0.2737 0.35315 0.11708 0.0
H2433 H 0.27938 0.3667 0.08861 0.0
H2434 H 0.28858 0.36391 0.1518 0.0
H2435 H 0.27926 0.30338 0.10484 0.0
H2436 H 0.28505 0.27922 0.07712 0.0
H2437 H 0.33357 0.27808 0.10744 0.0
H2438 H 0.32822 0.30246 0.13525 0.0
H2439 H 0.27029 0.31075 0.22549 0.0
H2440 H 0.26888 0.31853 0.19416 0.0
H2441 H 0.32515 0.32433 0.19334 0.0
H2442 H 0.32652 0.31516 0.22432 0.0
H2443 H 0.30356 0.30109 0.15818 0.0
H2444 H 0.3113 0.3636 0.20539 0.0
H2445 H 0.30117 0.38229 0.23407 0.0
H2446 H 0.25101 0.37586 0.20263 0.0
H2447 H 0.2606 0.3565 0.17395 0.0
C2448 C 0.31763 0.35181 0.09407 0.0
C2449 C 0.30515 0.36006 0.08589 0.0
C2450 C 0.31463 0.34473 0.11051 0.0
C2451 C 0.29878 0.34493 0.11902 0.0
C2452 C 0.28602 0.35272 0.11075 0.0
C2453 C 0.28919 0.36028 0.09435 0.0
C2454 C 0.2962 0.33767 0.13693 0.0
C2455 C 0.29155 0.35 0.15302 0.0
C2456 C 0.30009 0.31952 0.13876 0.0
C2457 C 0.30338 0.30484 0.12208 0.0
C2458 C 0.29122 0.29808 0.10555 0.0
C2459 C 0.29442 0.28433 0.08983 0.0
C2460 C 0.30968 0.27714 0.09051 0.0
C2461 C 0.32176 0.28366 0.10693 0.0
C2462 C 0.31864 0.29742 0.12269 0.0
C2463 C 0.28224 0.31283 0.21837 0.0
C2464 C 0.29838 0.31157 0.22706 0.0
C2465 C 0.28147 0.31763 0.20058 0.0
C2466 C 0.29692 0.32164 0.19134 0.0
C2467 C 0.3131 0.32072 0.2001 0.0
C2468 C 0.31386 0.31574 0.21783 0.0
C2469 C 0.29639 0.32749 0.17282 0.0
C2470 C 0.30047 0.3149 0.15674 0.0
C2471 C 0.2916 0.3451 0.17095 0.0
C2472 C 0.2866 0.35844 0.18757 0.0
C2473 C 0.29809 0.36612 0.2046 0.0
C2474 C 0.29239 0.37667 0.22091 0.0
C2475 C 0.27538 0.38004 0.22022 0.0
C2476 C 0.26413 0.3731 0.20317 0.0
C2477 C 0.26968 0.36231 0.18689 0.0
H2478 H 0.27098 0.38824 0.23283 0.0
H2479 H 0.31212 0.26649 0.07832 0.0
H2480 H 0.26361 0.9588 0.00559 0.0
H2481 H 0.23917 0.97476 0.00325 0.0
H2482 H 0.22213 0.9609 0.056 0.0
H2483 H 0.24655 0.94489 0.05854 0.0
H2484 H 0.19359 0.95911 0.02788 0.0
H2485 H 0.24975 1.00287 0.05986 0.0
H2486 H 0.28201 0.01734 0.06163 0.0
H2487 H 0.27424 0.0393 0.0115 0.0
H2488 H 0.24194 0.02467 0.00929 0.0
H2489 H 0.14949 0.03379 0.06268 0.0
H2490 H 0.16915 0.01109 0.05896 0.0
H2491 H 0.19403 0.03834 0.01554 0.0
H2492 H 0.17503 0.06181 0.02015 0.0
H2493 H 0.21795 0.03189 0.03644 0.0
H2494 H 0.16169 0.99127 0.0054 0.0
H2495 H 0.12939 0.97661 0.00268 0.0
H2496 H 0.13657 0.94842 0.04865 0.0
H2497 H 0.16889 0.96311 0.05181 0.0
C2498 C 0.25438 0.95861 0.01643 0.0
C2499 C 0.25719 0.95089 0.03245 0.0
C2500 C 0.24044 0.96774 0.01504 0.0
C2501 C 0.22909 0.9692 0.0296 0.0
C2502 C 0.23082 0.9599 0.04466 0.0
C2503 C 0.24483 0.95085 0.04612 0.0
C2504 C 0.21719 0.98276 0.03061 0.0
C2505 C 0.19882 0.97503 0.02981 0.0
C2506 C 0.22413 1.00345 0.03279 0.0
C2507 C 0.24349 0.0125 0.03429 0.0
C2508 C 0.25495 0.01066 0.04915 0.0
C2509 C 0.27323 0.0189 0.05024 0.0
C2510 C 0.28018 0.02918 0.03666 0.0
C2511 C 0.26885 0.0313 0.02199 0.0
C2512 C 0.25056 0.02305 0.02082 0.0
C2513 C 0.15935 0.03501 0.05255 0.0
C2514 C 0.16095 0.04949 0.04177 0.0
C2515 C 0.17039 0.02191 0.05023 0.0
C2516 C 0.18276 0.02266 0.0366 0.0
C2517 C 0.18454 0.03742 0.02607 0.0
C2518 C 0.17378 0.05084 0.02874 0.0
C2519 C 0.19412 0.00835 0.03361 0.0
C2520 C 0.21252 0.01596 0.03419 0.0
C2521 C 0.18712 0.98754 0.03099 0.0
C2522 C 0.16771 0.97841 0.02893 0.0
C2523 C 0.15637 0.98202 0.01499 0.0
C2524 C 0.13806 0.9737 0.01336 0.0
C2525 C 0.13093 0.96163 0.02551 0.0
C2526 C 0.14211 0.95779 0.03926 0.0
C2527 C 0.16043 0.96608 0.04095 0.0
H2528 H 0.11674 0.95523 0.02425 0.0
H2529 H 0.29434 0.03555 0.03752 0.0
H2530 H 0.74405 0.6202 0.97678 0.0
H2531 H 0.71263 0.60531 0.97758 0.0
H2532 H 0.70666 0.6606 0.01251 0.0
H2533 H 0.73835 0.67563 0.01201 0.0
H2534 H 0.69068 0.63001 0.02657 0.0
H2535 H 0.68995 0.64497 0.96523 0.0
H2536 H 0.69902 0.64556 0.93292 0.0
H2537 H 0.68357 0.58165 0.91676 0.0
H2538 H 0.67467 0.58067 0.94909 0.0
H2539 H 0.59781 0.59756 0.02236 0.0
H2540 H 0.62713 0.61608 0.01789 0.0
H2541 H 0.6359 0.56326 0.98094 0.0
H2542 H 0.60589 0.54493 0.98429 0.0
H2543 H 0.6501 0.59435 0.96791 0.0
H2544 H 0.65182 0.5803 0.03096 0.0
H2545 H 0.64064 0.58108 0.06262 0.0
H2546 H 0.65345 0.645 0.07532 0.0
H2547 H 0.66438 0.64459 0.04362 0.0
C2548 C 0.73609 0.6293 0.98455 0.0
C2549 C 0.74377 0.64916 0.99432 0.0
C2550 C 0.71804 0.62075 0.98491 0.0
C2551 C 0.70717 0.63186 0.99492 0.0
C2552 C 0.71476 0.65173 0.00464 0.0
C2553 C 0.73287 0.66033 0.00429 0.0
C2554 C 0.68808 0.6224 0.99575 0.0
C2555 C 0.68176 0.62246 0.01372 0.0
C2556 C 0.67643 0.61224 0.97904 0.0
C2557 C 0.68182 0.61275 0.95963 0.0
C2558 C 0.68864 0.63104 0.95484 0.0
C2559 C 0.69373 0.63145 0.93652 0.0
C2560 C 0.69192 0.61366 0.92281 0.0
C2561 C 0.68499 0.59542 0.9274 0.0
C2562 C 0.67992 0.59493 0.94571 0.0
C2563 C 0.60586 0.5898 0.01318 0.0
C2564 C 0.59958 0.56949 0.00409 0.0
C2565 C 0.62275 0.60046 0.01072 0.0
C2566 C 0.63407 0.59095 0.99963 0.0
C2567 C 0.62756 0.57091 0.98982 0.0
C2568 C 0.61042 0.56035 0.99188 0.0
C2569 C 0.65279 0.60174 0.99871 0.0
C2570 C 0.65904 0.6019 0.98075 0.0
C2571 C 0.66437 0.61219 0.01543 0.0
C2572 C 0.65878 0.61241 0.03488 0.0
C2573 C 0.65225 0.59451 0.04052 0.0
C2574 C 0.64592 0.59489 0.05844 0.0
C2575 C 0.64626 0.61308 0.07091 0.0
C2576 C 0.65314 0.63093 0.06561 0.0
C2577 C 0.65942 0.63064 0.04768 0.0
H2578 H 0.64119 0.61339 0.08469 0.0
H2579 H 0.69585 0.614 0.90863 0.0
H2580 H 0.7149 0.4696 0.30147 0.0
H2581 H 0.72841 0.44185 0.29845 0.0
H2582 H 0.70833 0.42165 0.23892 0.0
H2583 H 0.69366 0.44957 0.24216 0.0
H2584 H 0.70747 0.3894 0.25092 0.0
H2585 H 0.75617 0.44615 0.25861 0.0
H2586 H 0.77491 0.47977 0.27311 0.0
H2587 H 0.78318 0.46246 0.32582 0.0
H2588 H 0.7643 0.42881 0.31172 0.0
H2589 H 0.77131 0.32425 0.24109 0.0
H2590 H 0.75744 0.35177 0.23799 0.0
H2591 H 0.75476 0.36606 0.29888 0.0
H2592 H 0.76774 0.33834 0.30183 0.0
H2593 H 0.76822 0.40099 0.28262 0.0
H2594 H 0.71923 0.34372 0.27386 0.0
H2595 H 0.70057 0.3103 0.25864 0.0
H2596 H 0.69354 0.32869 0.20629 0.0
H2597 H 0.71257 0.36211 0.22105 0.0
C2598 C 0.71327 0.45956 0.28749 0.0
C2599 C 0.70307 0.46266 0.27202 0.0
C2600 C 0.72136 0.44339 0.28575 0.0
C2601 C 0.72025 0.42932 0.26828 0.0
C2602 C 0.70987 0.43205 0.25268 0.0
C2603 C 0.70147 0.44832 0.25449 0.0
C2604 C 0.72976 0.41207 0.26682 0.0
C2605 C 0.7209 0.39221 0.25757 0.0
C2606 C 0.74734 0.41484 0.2756 0.0
C2607 C 0.7587 0.43503 0.28415 0.0
C2608 C 0.76189 0.44956 0.27333 0.0
C2609 C 0.77255 0.46861 0.28147 0.0
C2610 C 0.7802 0.47326 0.30039 0.0
C2611 C 0.77723 0.45885 0.31118 0.0
C2612 C 0.76657 0.43978 0.30311 0.0
C2613 C 0.76801 0.33342 0.25385 0.0
C2614 C 0.77119 0.32908 0.27183 0.0
C2615 C 0.75984 0.34918 0.25207 0.0
C2616 C 0.75478 0.36141 0.2682 0.0
C2617 C 0.75835 0.35723 0.28608 0.0
C2618 C 0.76595 0.34125 0.28778 0.0
C2619 C 0.74591 0.3785 0.26686 0.0
C2620 C 0.75488 0.39831 0.27574 0.0
C2621 C 0.72857 0.37563 0.25755 0.0
C2622 C 0.71763 0.35534 0.24847 0.0
C2623 C 0.71401 0.34055 0.25899 0.0
C2624 C 0.70329 0.32162 0.25047 0.0
C2625 C 0.69595 0.31734 0.23148 0.0
C2626 C 0.69931 0.33199 0.22097 0.0
C2627 C 0.71009 0.35092 0.2294 0.0
H2628 H 0.68759 0.3027 0.22494 0.0
H2629 H 0.78844 0.48802 0.30666 0.0
H2630 H 0.87254 0.45065 0.51994 0.0
H2631 H 0.90363 0.46346 0.51634 0.0
H2632 H 0.89652 0.52327 0.528 0.0
H2633 H 0.86506 0.51036 0.53245 0.0
H2634 H 0.91646 0.51224 0.49568 0.0
H2635 H 0.917 0.51356 0.56206 0.0
H2636 H 0.90937 0.50081 0.59068 0.0
H2637 H 0.9344 0.453 0.57163 0.0
H2638 H 0.94192 0.46527 0.54272 0.0
H2639 H 0.01246 0.55039 0.51879 0.0
H2640 H 0.98035 0.54411 0.51612 0.0
H2641 H 0.97609 0.4809 0.50221 0.0
H2642 H 0.00856 0.48715 0.50404 0.0
H2643 H 0.96212 0.49833 0.53774 0.0
H2644 H 0.95435 0.49201 0.46884 0.0
H2645 H 0.95804 0.50156 0.43796 0.0
H2646 H 0.94669 0.55779 0.4619 0.0
H2647 H 0.94253 0.54831 0.49279 0.0
C2648 C 0.87759 0.46654 0.52224 0.0
C2649 C 0.86658 0.47958 0.52722 0.0
C2650 C 0.89533 0.47383 0.51993 0.0
C2651 C 0.90239 0.49431 0.52237 0.0
C2652 C 0.89126 0.5074 0.52629 0.0
C2653 C 0.87338 0.50005 0.52875 0.0
C2654 C 0.92147 0.50159 0.52074 0.0
C2655 C 0.92653 0.50969 0.50515 0.0
C2656 C 0.93445 0.49776 0.53285 0.0
C2657 C 0.9299 0.49026 0.55016 0.0
C2658 C 0.92073 0.50022 0.56389 0.0
C2659 C 0.91646 0.4931 0.58018 0.0
C2660 C 0.92137 0.47609 0.58296 0.0
C2661 C 0.93059 0.46617 0.56946 0.0
C2662 C 0.93488 0.47321 0.55312 0.0
C2663 C 0.00488 0.53519 0.51431 0.0
C2664 C 0.01317 0.51927 0.51142 0.0
C2665 C 0.9864 0.53161 0.51282 0.0
C2666 C 0.97592 0.51207 0.50892 0.0
C2667 C 0.98404 0.49611 0.50507 0.0
C2668 C 0.00254 0.4997 0.50618 0.0
C2669 C 0.95703 0.50843 0.51235 0.0
C2670 C 0.95209 0.50117 0.52845 0.0
C2671 C 0.94419 0.51305 0.50077 0.0
C2672 C 0.94836 0.51959 0.48305 0.0
C2673 C 0.95285 0.50649 0.46752 0.0
C2674 C 0.95477 0.51177 0.44998 0.0
C2675 C 0.95256 0.53026 0.44796 0.0
C2676 C 0.94838 0.54348 0.46348 0.0
C2677 C 0.94615 0.53813 0.48097 0.0
H2678 H 0.95418 0.53437 0.43439 0.0
H2679 H 0.91807 0.47061 0.5956 0.0
H2680 H 0.35943 0.06528 0.27919 0.0
H2681 H 0.34047 0.08526 0.26916 0.0
H2682 H 0.37031 0.13674 0.31168 0.0
H2683 H 0.38807 0.11628 0.32273 0.0
H2684 H 0.33907 0.13951 0.30881 0.0
H2685 H 0.37898 0.1239 0.26135 0.0
H2686 H 0.39175 0.10095 0.23841 0.0
H2687 H 0.34038 0.07496 0.20689 0.0
H2688 H 0.32728 0.09758 0.22979 0.0
H2689 H 0.32594 0.21687 0.26529 0.0
H2690 H 0.33741 0.19336 0.27974 0.0
H2691 H 0.30481 0.14434 0.23664 0.0
H2692 H 0.29424 0.16796 0.22163 0.0
H2693 H 0.33542 0.13868 0.23964 0.0
H2694 H 0.29646 0.1568 0.28866 0.0
H2695 H 0.28492 0.17768 0.31477 0.0
H2696 H 0.33748 0.20067 0.34416 0.0
H2697 H 0.34926 0.17984 0.3183 0.0
C2698 C 0.36142 0.08071 0.28673 0.0
C2699 C 0.37496 0.08936 0.30176 0.0
C2700 C 0.35083 0.09218 0.28084 0.0
C2701 C 0.35436 0.11266 0.28922 0.0
C2702 C 0.36735 0.12099 0.30493 0.0
C2703 C 0.37746 0.10934 0.31129 0.0
C2704 C 0.34535 0.12577 0.28112 0.0
C2705 C 0.33841 0.13944 0.29369 0.0
C2706 C 0.3442 0.12549 0.26135 0.0
C2707 C 0.35215 0.11228 0.24734 0.0
C2708 C 0.37042 0.11324 0.24954 0.0
C2709 C 0.37771 0.10029 0.23657 0.0
C2710 C 0.36687 0.08648 0.22123 0.0
C2711 C 0.34875 0.08565 0.21878 0.0
C2712 C 0.34139 0.09853 0.23174 0.0
C2713 C 0.32125 0.20104 0.25904 0.0
C2714 C 0.30938 0.19408 0.24235 0.0
C2715 C 0.32761 0.18761 0.2674 0.0
C2716 C 0.32173 0.16701 0.2595 0.0
C2717 C 0.30955 0.16013 0.24301 0.0
C2718 C 0.30353 0.17357 0.23442 0.0
C2719 C 0.32922 0.15263 0.26741 0.0
C2720 C 0.33593 0.1387 0.25475 0.0
C2721 C 0.33055 0.15299 0.28716 0.0
C2722 C 0.32371 0.16691 0.30155 0.0
C2723 C 0.30556 0.16656 0.30056 0.0
C2724 C 0.29898 0.1783 0.31537 0.0
C2725 C 0.31049 0.19047 0.33113 0.0
C2726 C 0.32861 0.19121 0.33197 0.0
C2727 C 0.33522 0.17943 0.31728 0.0
H2728 H 0.30544 0.19917 0.34285 0.0
H2729 H 0.37254 0.07644 0.21122 0.0
H2730 H 0.35723 0.18215 0.50574 0.0
H2731 H 0.38149 0.1662 0.50967 0.0
H2732 H 0.3492 0.12817 0.54078 0.0
H2733 H 0.32476 0.14388 0.53673 0.0
H2734 H 0.38571 0.14288 0.55636 0.0
H2735 H 0.34985 0.10993 0.49635 0.0
H2736 H 0.33523 0.10865 0.46478 0.0
H2737 H 0.38582 0.13248 0.4464 0.0
H2738 H 0.4007 0.13419 0.47801 0.0
H2739 H 0.41881 0.05026 0.51324 0.0
H2740 H 0.39935 0.07255 0.51191 0.0
H2741 H 0.44123 0.12257 0.54217 0.0
H2742 H 0.46074 0.10014 0.54394 0.0
H2743 H 0.40129 0.10387 0.49631 0.0
H2744 H 0.42094 0.155 0.57144 0.0
H2745 H 0.4342 0.15461 0.60317 0.0
H2746 H 0.41377 0.09115 0.59147 0.0
H2747 H 0.4002 0.09124 0.55981 0.0
C2748 C 0.35539 0.17066 0.51374 0.0
C2749 C 0.33905 0.1642 0.52086 0.0
C2750 C 0.36925 0.16153 0.51591 0.0
C2751 C 0.36706 0.14595 0.5254 0.0
C2752 C 0.35114 0.14021 0.53344 0.0
C2753 C 0.33718 0.14916 0.53107 0.0
C2754 C 0.38079 0.13457 0.52564 0.0
C2755 C 0.38925 0.13448 0.54324 0.0
C2756 C 0.38526 0.12347 0.50854 0.0
C2757 C 0.37634 0.12243 0.48958 0.0
C2758 C 0.35782 0.11508 0.48563 0.0
C2759 C 0.3495 0.11424 0.46773 0.0
C2760 C 0.35958 0.12055 0.45361 0.0
C2761 C 0.37802 0.12765 0.45736 0.0
C2762 C 0.38641 0.12855 0.47526 0.0
C2763 C 0.42389 0.06601 0.51964 0.0
C2764 C 0.44123 0.07342 0.5289 0.0
C2765 C 0.4128 0.07875 0.51874 0.0
C2766 C 0.41877 0.09918 0.5271 0.0
C2767 C 0.43629 0.1068 0.5358 0.0
C2768 C 0.44746 0.09402 0.53668 0.0
C2769 C 0.40633 0.11218 0.52705 0.0
C2770 C 0.39804 0.11255 0.50944 0.0
C2771 C 0.40191 0.12335 0.54416 0.0
C2772 C 0.40977 0.12312 0.56322 0.0
C2773 C 0.41926 0.14099 0.57569 0.0
C2774 C 0.42682 0.14082 0.59365 0.0
C2775 C 0.42489 0.12286 0.5993 0.0
C2776 C 0.41532 0.10504 0.58704 0.0
C2777 C 0.40771 0.10514 0.56909 0.0
H2778 H 0.43077 0.12275 0.6132 0.0
H2779 H 0.35311 0.11988 0.43975 0.0
H2780 H 0.72709 0.57183 0.30352 0.0
H2781 H 0.74218 0.6055 0.30179 0.0
H2782 H 0.70036 0.6054 0.26024 0.0
H2783 H 0.68557 0.57116 0.2613 0.0
H2784 H 0.72877 0.62481 0.25042 0.0
H2785 H 0.70641 0.63156 0.31171 0.0
H2786 H 0.70188 0.62494 0.34365 0.0
H2787 H 0.75816 0.64448 0.35983 0.0
H2788 H 0.76303 0.65094 0.32789 0.0
H2789 H 0.75273 0.73062 0.2605 0.0
H2790 H 0.73773 0.69649 0.26106 0.0
H2791 H 0.78126 0.69392 0.299 0.0
H2792 H 0.79608 0.72835 0.29894 0.0
H2793 H 0.75171 0.67613 0.31044 0.0
H2794 H 0.77348 0.66998 0.24856 0.0
H2795 H 0.77711 0.6776 0.21688 0.0
H2796 H 0.72065 0.6578 0.20206 0.0
H2797 H 0.71666 0.65038 0.23377 0.0
C2798 C 0.72105 0.57883 0.29389 0.0
C2799 C 0.70492 0.56844 0.28261 0.0
C2800 C 0.72969 0.59841 0.29306 0.0
C2801 C 0.72238 0.60875 0.28128 0.0
C2802 C 0.70647 0.5982 0.26961 0.0
C2803 C 0.69793 0.57843 0.27022 0.0
C2804 C 0.73127 0.63033 0.28117 0.0
C2805 C 0.7335 0.63599 0.26364 0.0
C2806 C 0.73798 0.64537 0.2982 0.0
C2807 C 0.73509 0.64152 0.31738 0.0
C2808 C 0.71782 0.63431 0.32205 0.0
C2809 C 0.71519 0.6306 0.34015 0.0
C2810 C 0.72973 0.63423 0.35374 0.0
C2811 C 0.74692 0.64163 0.34928 0.0
C2812 C 0.74962 0.64533 0.33119 0.0
C2813 C 0.75923 0.72288 0.26897 0.0
C2814 C 0.77596 0.73248 0.2794 0.0
C2815 C 0.7506 0.7031 0.26918 0.0
C2816 C 0.75835 0.69201 0.27974 0.0
C2817 C 0.77485 0.70175 0.29053 0.0
C2818 C 0.78349 0.72156 0.29035 0.0
C2819 C 0.74924 0.67053 0.27973 0.0
C2820 C 0.74696 0.66491 0.29725 0.0
C2821 C 0.74236 0.65561 0.2627 0.0
C2822 C 0.74477 0.65981 0.24358 0.0
C2823 C 0.76183 0.66737 0.23858 0.0
C2824 C 0.76396 0.67165 0.22062 0.0
C2825 C 0.74912 0.66823 0.20748 0.0
C2826 C 0.73213 0.66047 0.21225 0.0
C2827 C 0.72993 0.65622 0.23021 0.0
H2828 H 0.75079 0.67156 0.19359 0.0
H2829 H 0.72767 0.63135 0.36775 0.0
H2830 H 0.88431 0.50306 0.77934 0.0
H2831 H 0.86937 0.46751 0.76996 0.0
H2832 H 0.8865 0.4604 0.82536 0.0
H2833 H 0.90107 0.49607 0.8351 0.0
H2834 H 0.89079 0.43025 0.78662 0.0
H2835 H 0.84984 0.46116 0.82518 0.0
H2836 H 0.83246 0.48634 0.83307 0.0
H2837 H 0.80537 0.46693 0.77628 0.0
H2838 H 0.82285 0.44187 0.76798 0.0
H2839 H 0.83793 0.3356 0.7891 0.0
H2840 H 0.85368 0.37098 0.79785 0.0
H2841 H 0.82159 0.38197 0.75261 0.0
H2842 H 0.80587 0.34661 0.74394 0.0
H2843 H 0.82505 0.41054 0.78494 0.0
H2844 H 0.86214 0.37916 0.74583 0.0
H2845 H 0.87896 0.35414 0.73443 0.0
H2846 H 0.91306 0.37428 0.78721 0.0
H2847 H 0.89618 0.39917 0.79909 0.0
C2848 C 0.88499 0.4939 0.78948 0.0
C2849 C 0.89375 0.50229 0.80799 0.0
C2850 C 0.87647 0.47366 0.7841 0.0
C2851 C 0.8769 0.46152 0.79702 0.0
C2852 C 0.8861 0.46967 0.81526 0.0
C2853 C 0.89429 0.48999 0.82081 0.0
C2854 C 0.86704 0.44046 0.79173 0.0
C2855 C 0.87645 0.42583 0.78656 0.0
C2856 C 0.84833 0.43494 0.79089 0.0
C2857 C 0.83781 0.4499 0.7959 0.0
C2858 C 0.84033 0.46244 0.81432 0.0
C2859 C 0.83043 0.47665 0.81888 0.0
C2860 C 0.81787 0.47829 0.80517 0.0
C2861 C 0.81514 0.46568 0.78688 0.0
C2862 C 0.82503 0.45149 0.78224 0.0
C2863 C 0.83411 0.34573 0.78132 0.0
C2864 C 0.82046 0.3388 0.76627 0.0
C2865 C 0.84319 0.36579 0.78614 0.0
C2866 C 0.83881 0.37901 0.7758 0.0
C2867 C 0.82507 0.37201 0.76081 0.0
C2868 C 0.81611 0.35194 0.75591 0.0
C2869 C 0.84879 0.40009 0.78043 0.0
C2870 C 0.8394 0.4148 0.78525 0.0
C2871 C 0.86749 0.40567 0.78053 0.0
C2872 C 0.87778 0.39086 0.77344 0.0
C2873 C 0.87312 0.37813 0.75508 0.0
C2874 C 0.88267 0.36398 0.74852 0.0
C2875 C 0.89704 0.36258 0.76011 0.0
C2876 C 0.9019 0.37536 0.77826 0.0
C2877 C 0.89235 0.38949 0.78492 0.0
H2878 H 0.90443 0.35163 0.75501 0.0
H2879 H 0.8102 0.48929 0.80873 0.0
H2880 H 0.0976 0.8742 0.0916 0.0
H2881 H 0.09925 0.90246 0.0764 0.0
H2882 H 0.0427 0.88287 0.06008 0.0
H2883 H 0.04126 0.85446 0.07357 0.0
H2884 H 0.05482 0.89565 0.03342 0.0
H2885 H 0.06842 0.92467 0.10317 0.0
H2886 H 0.08716 0.93229 0.13383 0.0
H2887 H 0.13212 0.96001 0.10824 0.0
H2888 H 0.11365 0.95238 0.07743 0.0
H2889 H 0.04736 0.00575 0.06433 0.0
H2890 H 0.05216 0.97446 0.06936 0.0
H2891 H 0.06614 0.95985 0.01154 0.0
H2892 H 0.06022 0.99101 0.00618 0.0
H2893 H 0.08154 0.9644 0.07083 0.0
H2894 H 0.06723 0.92263 0.99882 0.0
H2895 H 0.04732 0.9111 0.96867 0.0
H2896 H 1.00182 0.90654 1.00064 0.0
H2897 H 0.02154 0.91877 0.03094 0.0
C2898 C 0.08562 0.87575 0.08443 0.0
C2899 C 0.06932 0.86182 0.08395 0.0
C2900 C 0.0865 0.89215 0.07593 0.0
C2901 C 0.07101 0.89532 0.06726 0.0
C2902 C 0.05495 0.88107 0.06645 0.0
C2903 C 0.05416 0.86464 0.0744 0.0
C2904 C 0.07079 0.91336 0.05934 0.0
C2905 C 0.06075 0.91066 0.04173 0.0
C2906 C 0.07879 0.93319 0.06954 0.0
C2907 C 0.08975 0.93776 0.08803 0.0
C2908 C 0.08232 0.9323 0.10411 0.0
C2909 C 0.09289 0.93663 0.12149 0.0
C2910 C 0.11083 0.94657 0.12296 0.0
C2911 C 0.11824 0.95227 0.10707 0.0
C2912 C 0.10774 0.94795 0.08966 0.0
C2913 C 0.05089 0.99554 0.05246 0.0
C2914 C 0.05305 1.0007 0.03475 0.0
C2915 C 0.05381 0.97765 0.05539 0.0
C2916 C 0.05949 0.9644 0.04089 0.0
C2917 C 0.06127 0.96927 0.0229 0.0
C2918 C 0.05794 0.98719 0.0198 0.0
C2919 C 0.06457 0.94657 0.04561 0.0
C2920 C 0.07571 0.94936 0.06253 0.0
C2921 C 0.05752 0.92681 0.03487 0.0
C2922 C 0.04578 0.92207 0.01698 0.0
C2923 C 0.05297 0.91959 0.99933 0.0
C2924 C 0.04174 0.9129 0.98226 0.0
C2925 C 0.02332 0.90816 0.98275 0.0
C2926 C 0.0161 0.91034 1.0003 0.0
C2927 C 0.02727 0.91739 0.01741 0.0
H2928 H 0.01465 0.90274 0.96952 0.0
H2929 H 0.11899 0.94989 0.13643 0.0
H2930 H 0.97856 0.28593 0.86515 0.0
H2931 H 0.95154 0.29022 0.85006 0.0
H2932 H 0.92084 0.26257 0.88979 0.0
H2933 H 0.94806 0.25751 0.90464 0.0
H2934 H 0.90299 0.24957 0.85627 0.0
H2935 H 0.93038 0.31441 0.89275 0.0
H2936 H 0.95432 0.34473 0.90551 0.0
H2937 H 0.95879 0.3548 0.84897 0.0
H2938 H 0.93506 0.32436 0.8358 0.0
H2939 H 0.82733 0.28318 0.82758 0.0
H2940 H 0.85296 0.28042 0.84711 0.0
H2941 H 0.88648 0.29253 0.80283 0.0
H2942 H 0.86083 0.29525 0.78323 0.0
H2943 H 0.90138 0.31427 0.84134 0.0
H2944 H 0.87314 0.24702 0.80593 0.0
H2945 H 0.84748 0.21802 0.79557 0.0
H2946 H 0.84272 0.21432 0.85402 0.0
H2947 H 0.86818 0.24356 0.86476 0.0
C2948 C 0.96612 0.28085 0.87085 0.0
C2949 C 0.9656 0.27149 0.88627 0.0
C2950 C 0.95058 0.28342 0.8622 0.0
C2951 C 0.93401 0.27709 0.8689 0.0
C2952 C 0.9334 0.26768 0.88431 0.0
C2953 C 0.94901 0.2649 0.8929 0.0
C2954 C 0.91748 0.2801 0.8595 0.0
C2955 C 0.9026 0.26384 0.85334 0.0
C2956 C 0.91675 0.29865 0.85545 0.0
C2957 C 0.93102 0.31701 0.86327 0.0
C2958 C 0.93655 0.32301 0.88301 0.0
C2959 C 0.95008 0.34023 0.89032 0.0
C2960 C 0.95809 0.35167 0.87805 0.0
C2961 C 0.95257 0.34592 0.85845 0.0
C2962 C 0.93907 0.32869 0.85105 0.0
C2963 C 0.84021 0.2856 0.82215 0.0
C2964 C 0.84207 0.28963 0.80394 0.0
C2965 C 0.85483 0.28383 0.83326 0.0
C2966 C 0.87169 0.28624 0.82646 0.0
C2967 C 0.87364 0.29065 0.80842 0.0
C2968 C 0.85896 0.29211 0.79719 0.0
C2969 C 0.88721 0.28372 0.8379 0.0
C2970 C 0.90184 0.30008 0.84443 0.0
C2971 C 0.88752 0.26542 0.84265 0.0
C2972 C 0.87247 0.24759 0.83616 0.0
C2973 C 0.86655 0.24011 0.81659 0.0
C2974 C 0.85205 0.22362 0.81065 0.0
C2975 C 0.84346 0.21435 0.82414 0.0
C2976 C 0.84938 0.22152 0.84359 0.0
C2977 C 0.86385 0.23805 0.84961 0.0
H2978 H 0.83223 0.20158 0.81951 0.0
H2979 H 0.96855 0.365 0.88374 0.0
H2980 H 0.53561 0.25181 0.58077 0.0
H2981 H 0.53727 0.2177 0.56779 0.0
H2982 H 0.59399 0.23489 0.58295 0.0
H2983 H 0.59228 0.26901 0.59686 0.0
H2984 H 0.55041 0.19795 0.5413 0.0
H2985 H 0.60888 0.19741 0.59399 0.0
H2986 H 0.62238 0.21417 0.6269 0.0
H2987 H 0.57254 0.22622 0.64213 0.0
H2988 H 0.55872 0.20931 0.60941 0.0
H2989 H 0.55874 0.09788 0.51356 0.0
H2990 H 0.5664 0.13445 0.52073 0.0
H2991 H 0.55794 0.1358 0.57995 0.0
H2992 H 0.55283 0.09991 0.57323 0.0
H2993 H 0.58095 0.16487 0.5819 0.0
H2994 H 0.52554 0.14039 0.5399 0.0
H2995 H 0.50724 0.12161 0.50974 0.0
H2996 H 0.54186 0.15659 0.47824 0.0
H2997 H 0.56045 0.17541 0.5082 0.0
C2998 C 0.54851 0.24845 0.58127 0.0
C2999 C 0.5638 0.26327 0.59006 0.0
C3000 C 0.54944 0.22883 0.57373 0.0
C3001 C 0.56571 0.22342 0.57455 0.0
C3002 C 0.58117 0.23841 0.58248 0.0
C3003 C 0.5802 0.25802 0.59035 0.0
C3004 C 0.56617 0.20198 0.56796 0.0
C3005 C 0.55712 0.19075 0.55021 0.0
C3006 C 0.57469 0.19226 0.5795 0.0
C3007 C 0.58286 0.20235 0.59921 0.0
C3008 C 0.60082 0.20362 0.60439 0.0
C3009 C 0.60851 0.21313 0.623 0.0
C3010 C 0.59834 0.22133 0.63657 0.0
C3011 C 0.58042 0.21995 0.63159 0.0
C3012 C 0.57266 0.21041 0.61302 0.0
C3013 C 0.55922 0.10613 0.52819 0.0
C3014 C 0.55563 0.09604 0.54292 0.0
C3015 C 0.56316 0.12709 0.53227 0.0
C3016 C 0.56241 0.13827 0.55091 0.0
C3017 C 0.55887 0.12794 0.56549 0.0
C3018 C 0.55576 0.10726 0.56159 0.0
C3019 C 0.56451 0.16046 0.55555 0.0
C3020 C 0.57426 0.17198 0.57289 0.0
C3021 C 0.55581 0.17016 0.5441 0.0
C3022 C 0.54443 0.15916 0.52621 0.0
C3023 C 0.52924 0.14403 0.52652 0.0
C3024 C 0.51883 0.13337 0.50947 0.0
C3025 C 0.52341 0.13787 0.49208 0.0
C3026 C 0.53835 0.1531 0.49171 0.0
C3027 C 0.54881 0.16377 0.50871 0.0
H3028 H 0.51536 0.12959 0.47889 0.0
H3029 H 0.60433 0.22871 0.65097 0.0
H3030 H 0.57286 0.7879 0.40093 0.0
H3031 H 0.60252 0.79481 0.3897 0.0
H3032 H 0.58535 0.74339 0.34249 0.0
H3033 H 0.55602 0.73623 0.35374 0.0
H3034 H 0.61743 0.74483 0.35702 0.0
H3035 H 0.58846 0.79219 0.33791 0.0
H3036 H 0.57346 0.81969 0.34358 0.0
H3037 H 0.61909 0.85763 0.38025 0.0
H3038 H 0.63425 0.83023 0.37499 0.0
H3039 H 0.66989 0.7632 0.2824 0.0
H3040 H 0.64628 0.75902 0.30361 0.0
H3041 H 0.67907 0.80583 0.34833 0.0
H3042 H 0.703 0.80984 0.32708 0.0
H3043 H 0.64283 0.80935 0.34066 0.0
H3044 H 0.67336 0.76312 0.35575 0.0
H3045 H 0.68842 0.73574 0.34916 0.0
H3046 H 0.64002 0.69572 0.31969 0.0
H3047 H 0.62475 0.72299 0.32578 0.0
C3048 C 0.57545 0.77802 0.38821 0.0
C3049 C 0.56198 0.76153 0.37822 0.0
C3050 C 0.5924 0.78204 0.38175 0.0
C3051 C 0.5962 0.76974 0.3651 0.0
C3052 C 0.58284 0.75311 0.35537 0.0
C3053 C 0.56599 0.74908 0.36181 0.0
C3054 C 0.61385 0.77411 0.3574 0.0
C3055 C 0.62291 0.75893 0.3534 0.0
C3056 C 0.62144 0.7927 0.35317 0.0
C3057 C 0.61237 0.80913 0.35627 0.0
C3058 C 0.59522 0.80636 0.3473 0.0
C3059 C 0.5867 0.82192 0.35042 0.0
C3060 C 0.59529 0.84038 0.36233 0.0
C3061 C 0.61243 0.84332 0.37108 0.0
C3062 C 0.62099 0.82778 0.36804 0.0
C3063 C 0.67212 0.77247 0.29681 0.0
C3064 C 0.68825 0.78683 0.30311 0.0
C3065 C 0.65865 0.77006 0.30893 0.0
C3066 C 0.6609 0.78211 0.32755 0.0
C3067 C 0.67706 0.79639 0.334 0.0
C3068 C 0.69073 0.79857 0.32194 0.0
C3069 C 0.64602 0.77987 0.33985 0.0
C3070 C 0.63749 0.7954 0.34464 0.0
C3071 C 0.63888 0.7616 0.34477 0.0
C3072 C 0.64795 0.74513 0.3411 0.0
C3073 C 0.66596 0.74853 0.34771 0.0
C3074 C 0.67454 0.73302 0.34409 0.0
C3075 C 0.66519 0.71401 0.33398 0.0
C3076 C 0.64724 0.71046 0.3275 0.0
C3077 C 0.63862 0.72594 0.33105 0.0
H3078 H 0.67185 0.70201 0.33121 0.0
H3079 H 0.58867 0.85242 0.36472 0.0
H3080 H 0.1026 0.27606 0.41757 0.0
H3081 H 0.10709 0.25846 0.44267 0.0
H3082 H 0.05118 0.22893 0.43437 0.0
H3083 H 0.04659 0.24686 0.41019 0.0
H3084 H 0.06034 0.24269 0.47015 0.0
H3085 H 0.08538 0.20584 0.41792 0.0
H3086 H 0.1062 0.2019 0.39332 0.0
H3087 H 0.1504 0.22445 0.4368 0.0
H3088 H 0.12982 0.22876 0.46162 0.0
H3089 H 0.04912 0.15621 0.50454 0.0
H3090 H 0.05309 0.17925 0.48338 0.0
H3091 H 0.10511 0.20909 0.51268 0.0
H3092 H 0.10124 0.18588 0.53395 0.0
H3093 H 0.10268 0.20004 0.47075 0.0
H3094 H 0.07554 0.23211 0.52315 0.0
H3095 H 0.0534 0.2335 0.54655 0.0
H3096 H 0.01144 0.21732 0.50077 0.0
H3097 H 0.03332 0.21554 0.47708 0.0
C3098 C 0.09137 0.26571 0.42111 0.0
C3099 C 0.07424 0.26297 0.41213 0.0
C3100 C 0.09392 0.25564 0.43538 0.0
C3101 C 0.07944 0.24241 0.44044 0.0
C3102 C 0.06251 0.23925 0.43092 0.0
C3103 C 0.05992 0.2495 0.41706 0.0
C3104 C 0.08137 0.23214 0.456 0.0
C3105 C 0.06958 0.23332 0.47018 0.0
C3106 C 0.09378 0.22039 0.45647 0.0
C3107 C 0.1061 0.21786 0.44157 0.0
C3108 C 0.09955 0.21012 0.4222 0.0
C3109 C 0.1113 0.20779 0.40823 0.0
C3110 C 0.12961 0.21299 0.41349 0.0
C3111 C 0.13621 0.22048 0.43274 0.0
C3112 C 0.12452 0.22286 0.44676 0.0
C3113 C 0.06142 0.16765 0.50643 0.0
C3114 C 0.07484 0.1694 0.52092 0.0
C3115 C 0.06365 0.18078 0.49439 0.0
C3116 C 0.07935 0.19585 0.49661 0.0
C3117 C 0.09291 0.19752 0.51085 0.0
C3118 C 0.09061 0.18445 0.52307 0.0
C3119 C 0.08118 0.21007 0.48419 0.0
C3120 C 0.0937 0.20971 0.47078 0.0
C3121 C 0.06925 0.22234 0.48416 0.0
C3122 C 0.05607 0.2236 0.49836 0.0
C3123 C 0.06158 0.22873 0.51808 0.0
C3124 C 0.04908 0.2296 0.53139 0.0
C3125 C 0.03102 0.22548 0.52515 0.0
C3126 C 0.02543 0.22051 0.50558 0.0
C3127 C 0.03788 0.21959 0.4922 0.0
H3128 H 0.02136 0.22617 0.53548 0.0
H3129 H 0.13869 0.21116 0.40265 0.0
H3130 H 0.5719 0.31651 0.21379 0.0
H3131 H 0.59907 0.3069 0.22202 0.0
H3132 H 0.58122 0.25154 0.17954 0.0
H3133 H 0.5541 0.26095 0.17121 0.0
H3134 H 0.59076 0.24604 0.21437 0.0
H3135 H 0.61476 0.28717 0.17266 0.0
H3136 H 0.62264 0.3174 0.16012 0.0
H3137 H 0.65454 0.34908 0.21282 0.0
H3138 H 0.6465 0.31918 0.22586 0.0
H3139 H 0.66942 0.21245 0.2238 0.0
H3140 H 0.64371 0.22243 0.21184 0.0
H3141 H 0.66331 0.28131 0.24847 0.0
H3142 H 0.68926 0.27153 0.25994 0.0
H3143 H 0.65289 0.28442 0.21515 0.0
H3144 H 0.62722 0.24481 0.25805 0.0
H3145 H 0.61985 0.21478 0.271 0.0
H3146 H 0.59156 0.1809 0.21698 0.0
H3147 H 0.59899 0.21068 0.20363 0.0
C3148 C 0.57387 0.30242 0.20601 0.0
C3149 C 0.5608 0.28947 0.19191 0.0
C3150 C 0.58943 0.29699 0.21068 0.0
C3151 C 0.59214 0.27854 0.20134 0.0
C3152 C 0.57936 0.26585 0.1869 0.0
C3153 C 0.56388 0.2713 0.18215 0.0
C3154 C 0.60763 0.27179 0.20758 0.0
C3155 C 0.60437 0.25429 0.2143 0.0
C3156 C 0.62533 0.28286 0.20797 0.0
C3157 C 0.62977 0.30101 0.20035 0.0
C3158 C 0.62321 0.30067 0.1817 0.0
C3159 C 0.62775 0.31773 0.17447 0.0
C3160 C 0.639 0.33518 0.1857 0.0
C3161 C 0.64575 0.33559 0.20417 0.0
C3162 C 0.64118 0.31859 0.21149 0.0
C3163 C 0.66808 0.22743 0.22942 0.0
C3164 C 0.68123 0.24121 0.24281 0.0
C3165 C 0.6534 0.23312 0.22263 0.0
C3166 C 0.65144 0.25254 0.22947 0.0
C3167 C 0.66453 0.26625 0.24299 0.0
C3168 C 0.67931 0.26066 0.24955 0.0
C3169 C 0.63602 0.25883 0.22221 0.0
C3170 C 0.63928 0.2762 0.21527 0.0
C3171 C 0.61831 0.24777 0.2218 0.0
C3172 C 0.61382 0.22989 0.2298 0.0
C3173 C 0.61955 0.23091 0.2489 0.0
C3174 C 0.61534 0.21394 0.25632 0.0
C3175 C 0.60529 0.19592 0.24481 0.0
C3176 C 0.59937 0.19485 0.22587 0.0
C3177 C 0.60357 0.21176 0.21837 0.0
H3178 H 0.60204 0.1828 0.25058 0.0
H3179 H 0.64255 0.34836 0.18005 0.0
H3180 H 0.5482 0.8558 0.8925 0.0
H3181 H 0.55674 0.89121 0.90805 0.0
H3182 H 0.60984 0.88661 0.92274 0.0
H3183 H 0.60137 0.851 0.90664 0.0
H3184 H 0.5909 0.90142 0.95395 0.0
H3185 H 0.60779 0.91542 0.89504 0.0
H3186 H 0.60467 0.912 0.86013 0.0
H3187 H 0.55739 0.93361 0.86437 0.0
H3188 H 0.56006 0.93688 0.89927 0.0
H3189 H 0.59418 0.99937 0.00718 0.0
H3190 H 0.60299 0.97183 0.98641 0.0
H3191 H 0.55667 0.96255 0.94679 0.0
H3192 H 0.54822 0.99042 0.96708 0.0
H3193 H 0.58257 0.95803 0.92737 0.0
H3194 H 0.55879 0.93078 0.98042 0.0
H3195 H 0.55652 0.92712 0.01364 0.0
H3196 H 0.61177 0.92705 0.01943 0.0
H3197 H 0.61423 0.93037 0.98611 0.0
C3198 C 0.56175 0.86243 0.89878 0.0
C3199 C 0.57407 0.85075 0.89859 0.0
C3200 C 0.56667 0.88265 0.90747 0.0
C3201 C 0.58395 0.89146 0.91635 0.0
C3202 C 0.59649 0.88 0.91575 0.0
C3203 C 0.59165 0.85976 0.90664 0.0
C3204 C 0.58778 0.91186 0.92836 0.0
C3205 C 0.58971 0.91407 0.94819 0.0
C3206 C 0.5857 0.92801 0.92073 0.0
C3207 C 0.58413 0.92638 0.89978 0.0
C3208 C 0.59668 0.91936 0.88852 0.0
C3209 C 0.59499 0.91745 0.86873 0.0
C3210 C 0.58084 0.92259 0.86004 0.0
C3211 C 0.56837 0.92969 0.87113 0.0
C3212 C 0.56999 0.93161 0.89093 0.0
C3213 C 0.5859 0.99144 0.99402 0.0
C3214 C 0.57038 0.99688 0.98884 0.0
C3215 C 0.59093 0.97569 0.98219 0.0
C3216 C 0.58037 0.96493 0.96516 0.0
C3217 C 0.56509 0.97067 0.95982 0.0
C3218 C 0.56021 0.98657 0.97148 0.0
C3219 C 0.58473 0.94729 0.95303 0.0
C3220 C 0.58442 0.94566 0.9332 0.0
C3221 C 0.5878 0.9314 0.96061 0.0
C3222 C 0.58674 0.93108 0.98098 0.0
C3223 C 0.57047 0.93019 0.98888 0.0
C3224 C 0.56911 0.92795 0.00762 0.0
C3225 C 0.58398 0.92678 0.01861 0.0
C3226 C 0.60026 0.92792 0.0109 0.0
C3227 C 0.60163 0.9299 0.99207 0.0
H3228 H 0.58291 0.92511 0.03315 0.0
H3229 H 0.57954 0.92108 0.84471 0.0
H3230 H 0.98213 0.78974 0.72631 0.0
H3231 H 0.95356 0.78586 0.74012 0.0
H3232 H 0.92639 0.75455 0.68447 0.0
H3233 H 0.95473 0.75863 0.67072 0.0
H3234 H 0.91637 0.78808 0.6989 0.0
H3235 H 0.92552 0.73169 0.72146 0.0
H3236 H 0.94197 0.71421 0.73927 0.0
H3237 H 0.94023 0.75596 0.79177 0.0
H3238 H 0.92402 0.77388 0.77421 0.0
H3239 H 0.8283 0.776 0.7186 0.0
H3240 H 0.85695 0.77214 0.70924 0.0
H3241 H 0.87747 0.78548 0.76877 0.0
H3242 H 0.84744 0.78538 0.77789 0.0
H3243 H 0.89232 0.76187 0.75343 0.0
H3244 H 0.89328 0.82361 0.7303 0.0
H3245 H 0.88037 0.84461 0.71307 0.0
H3246 H 0.86675 0.79646 0.66296 0.0
H3247 H 0.87958 0.77535 0.67999 0.0
C3248 C 0.97006 0.78155 0.71722 0.0
C3249 C 0.97044 0.77495 0.69742 0.0
C3250 C 0.9538 0.77926 0.7251 0.0
C3251 C 0.93789 0.77005 0.71325 0.0
C3252 C 0.93853 0.76185 0.6938 0.0
C3253 C 0.95468 0.76436 0.68592 0.0
C3254 C 0.92062 0.77195 0.7201 0.0
C3255 C 0.91099 0.78212 0.71071 0.0
C3256 C 0.91403 0.765 0.73598 0.0
C3257 C 0.92372 0.75421 0.7465 0.0
C3258 C 0.9288 0.73724 0.73678 0.0
C3259 C 0.93805 0.72724 0.74683 0.0
C3260 C 0.94219 0.734 0.76663 0.0
C3261 C 0.93704 0.75075 0.77643 0.0
C3262 C 0.92781 0.76083 0.76644 0.0
C3263 C 0.83901 0.77835 0.72971 0.0
C3264 C 0.83598 0.78215 0.74905 0.0
C3265 C 0.85563 0.77661 0.72433 0.0
C3266 C 0.87 0.77984 0.73819 0.0
C3267 C 0.86684 0.7833 0.75765 0.0
C3268 C 0.8498 0.78376 0.76297 0.0
C3269 C 0.88784 0.77816 0.73223 0.0
C3270 C 0.89766 0.76804 0.74176 0.0
C3271 C 0.89493 0.78553 0.71663 0.0
C3272 C 0.88669 0.79781 0.70662 0.0
C3273 C 0.88714 0.81748 0.71576 0.0
C3274 C 0.88001 0.82941 0.70598 0.0
C3275 C 0.87251 0.82178 0.68703 0.0
C3276 C 0.87239 0.8023 0.67771 0.0
C3277 C 0.87963 0.79039 0.68738 0.0
H3278 H 0.86696 0.83102 0.67951 0.0
H3279 H 0.94934 0.72622 0.77439 0.0
H3280 H 0.16329 0.02208 0.83955 0.0
H3281 H 0.14998 0.02626 0.86989 0.0
H3282 H 0.09914 0.02023 0.83947 0.0
H3283 H 0.11289 0.01777 0.80939 0.0
H3284 H 0.09708 0.04219 0.86918 0.0
H3285 H 0.11558 0.98174 0.86312 0.0
H3286 H 0.13608 0.95961 0.85885 0.0
H3287 H 0.16872 0.99569 0.90965 0.0
H3288 H 0.14852 0.01818 0.91407 0.0
H3289 H 0.04791 0.01368 0.94748 0.0
H3290 H 0.06228 0.01121 0.91767 0.0
H3291 H 0.11132 0.04792 0.94903 0.0
H3292 H 0.09678 0.05131 0.97871 0.0
H3293 H 0.11392 0.01033 0.91981 0.0
H3294 H 0.09185 0.06939 0.92522 0.0
H3295 H 0.06826 0.08754 0.92913 0.0
H3296 H 0.03857 0.04848 0.87787 0.0
H3297 H 0.06184 0.02984 0.87389 0.0
C3298 C 0.14929 0.02179 0.83927 0.0
C3299 C 0.13935 0.01961 0.82165 0.0
C3300 C 0.14146 0.02388 0.85685 0.0
C3301 C 0.12308 0.023 0.85764 0.0
C3302 C 0.11324 0.02103 0.83995 0.0
C3303 C 0.12119 0.01955 0.82247 0.0
C3304 C 0.11415 0.02427 0.87656 0.0
C3305 C 0.10078 0.03486 0.87995 0.0
C3306 C 0.11852 0.01513 0.89142 0.0
C3307 C 0.13068 1.00172 0.8888 0.0
C3308 C 0.1272 0.985 0.8733 0.0
C3309 C 0.13875 0.9724 0.87086 0.0
C3310 C 0.15372 0.97627 0.88394 0.0
C3311 C 0.15714 0.99273 0.89951 0.0
C3312 C 0.14565 0.0054 0.902 0.0
C3313 C 0.06167 0.02142 0.94818 0.0
C3314 C 0.07085 0.0329 0.96593 0.0
C3315 C 0.07001 0.01991 0.93093 0.0
C3316 C 0.08809 0.02935 0.93071 0.0
C3317 C 0.09744 0.04037 0.94846 0.0
C3318 C 0.08898 0.04232 0.96561 0.0
C3319 C 0.09708 0.02807 0.91208 0.0
C3320 C 0.11036 0.01752 0.90886 0.0
C3321 C 0.09228 0.03673 0.89718 0.0
C3322 C 0.07848 0.04812 0.89936 0.0
C3323 C 0.08022 0.06458 0.91487 0.0
C3324 C 0.06692 0.07496 0.9171 0.0
C3325 C 0.05191 0.06915 0.90378 0.0
C3326 C 0.05019 0.05296 0.88819 0.0
C3327 C 0.06343 0.04247 0.88594 0.0
H3328 H 0.04162 0.07721 0.90552 0.0
H3329 H 0.16265 0.96649 0.88203 0.0
H3330 H 0.78354 0.4074 0.56813 0.0
H3331 H 0.77388 0.38584 0.59023 0.0
H3332 H 0.82441 0.37013 0.58947 0.0
H3333 H 0.8334 0.38994 0.56693 0.0
H3334 H 0.80175 0.33978 0.59031 0.0
H3335 H 0.81195 0.41077 0.62474 0.0
H3336 H 0.80409 0.4432 0.63186 0.0
H3337 H 0.75179 0.41466 0.64292 0.0
H3338 H 0.75931 0.38207 0.63563 0.0
H3339 H 0.83775 0.35626 0.69053 0.0
H3340 H 0.82289 0.36961 0.66755 0.0
H3341 H 0.7863 0.31214 0.64639 0.0
H3342 H 0.80154 0.29844 0.66864 0.0
H3343 H 0.7898 0.37297 0.65481 0.0
H3344 H 0.78755 0.30083 0.59917 0.0
H3345 H 0.80204 0.27282 0.59439 0.0
H3346 H 0.84908 0.31097 0.62851 0.0
H3347 H 0.83494 0.33918 0.63321 0.0
C3348 C 0.79233 0.39891 0.57239 0.0
C3349 C 0.8093 0.40056 0.56588 0.0
C3350 C 0.78686 0.38675 0.58512 0.0
C3351 C 0.79847 0.37649 0.59172 0.0
C3352 C 0.81506 0.37765 0.58456 0.0
C3353 C 0.82028 0.38925 0.57168 0.0
C3354 C 0.79455 0.36546 0.60695 0.0
C3355 C 0.79868 0.34688 0.60428 0.0
C3356 C 0.79054 0.37456 0.62525 0.0
C3357 C 0.78606 0.39405 0.62931 0.0
C3358 C 0.79873 0.41144 0.62852 0.0
C3359 C 0.79435 0.42983 0.63261 0.0
C3360 C 0.77741 0.43098 0.63773 0.0
C3361 C 0.76486 0.41374 0.63885 0.0
C3362 C 0.76916 0.39532 0.63471 0.0
C3363 C 0.82639 0.34655 0.68115 0.0
C3364 C 0.82108 0.32622 0.68105 0.0
C3365 C 0.81772 0.35427 0.66829 0.0
C3366 C 0.80363 0.34176 0.65522 0.0
C3367 C 0.79719 0.32196 0.65638 0.0
C3368 C 0.80594 0.31418 0.66911 0.0
C3369 C 0.79829 0.3483 0.63823 0.0
C3370 C 0.79213 0.36562 0.64062 0.0
C3371 C 0.80146 0.33873 0.61982 0.0
C3372 C 0.81009 0.32193 0.61677 0.0
C3373 C 0.80099 0.30318 0.6056 0.0
C3374 C 0.80914 0.2873 0.6029 0.0
C3375 C 0.82644 0.29009 0.61122 0.0
C3376 C 0.83566 0.30879 0.62214 0.0
C3377 C 0.82759 0.32472 0.62483 0.0
H3378 H 0.83271 0.27776 0.60914 0.0
H3379 H 0.77405 0.44523 0.64091 0.0
H3380 H 0.43975 0.07032 0.3522 0.0
H3381 H 0.45779 0.06781 0.37939 0.0
H3382 H 0.49489 0.04736 0.34198 0.0
H3383 H 0.47606 0.0488 0.31411 0.0
H3384 H 0.48989 0.02722 0.36964 0.0
H3385 H 0.5044 0.09573 0.36842 0.0
H3386 H 0.49869 0.12797 0.36618 0.0
H3387 H 0.47216 0.13034 0.41742 0.0
H3388 H 0.47746 0.09795 0.41979 0.0
H3389 H 0.55152 0.04518 0.45239 0.0
H3390 H 0.53859 0.04794 0.42181 0.0
H3391 H 0.49283 0.06104 0.44862 0.0
H3392 H 0.50597 0.05866 0.47937 0.0
H3393 H 0.50632 0.08616 0.42455 0.0
H3394 H 0.49013 0.01592 0.42367 0.0
H3395 H 0.49686 0.98416 0.42603 0.0
H3396 H 0.5282 0.98597 0.3785 0.0
H3397 H 0.52193 0.01796 0.37612 0.0
C3398 C 0.45152 0.06493 0.34953 0.0
C3399 C 0.45635 0.05962 0.33087 0.0
C3400 C 0.46201 0.06377 0.36523 0.0
C3401 C 0.47792 0.05787 0.36279 0.0
C3402 C 0.48271 0.05212 0.34418 0.0
C3403 C 0.47198 0.05299 0.3283 0.0
C3404 C 0.48936 0.05793 0.37989 0.0
C3405 C 0.49381 0.04024 0.38148 0.0
C3406 C 0.49432 0.07483 0.39547 0.0
C3407 C 0.49122 0.09437 0.3942 0.0
C3408 C 0.49725 0.10307 0.37914 0.0
C3409 C 0.49409 0.12138 0.37785 0.0
C3410 C 0.48504 0.13118 0.39163 0.0
C3411 C 0.47916 0.12273 0.40675 0.0
C3412 C 0.48225 0.10441 0.40808 0.0
C3413 C 0.53898 0.04915 0.45189 0.0
C3414 C 0.52993 0.05205 0.4683 0.0
C3415 C 0.53146 0.05043 0.43435 0.0
C3416 C 0.51475 0.05461 0.43299 0.0
C3417 C 0.50577 0.05781 0.44943 0.0
C3418 C 0.51324 0.05637 0.46692 0.0
C3419 C 0.50641 0.05539 0.4144 0.0
C3420 C 0.5026 0.07326 0.41257 0.0
C3421 C 0.5022 0.03874 0.39861 0.0
C3422 C 0.50574 0.01941 0.39986 0.0
C3423 C 0.49858 0.00962 0.41383 0.0
C3424 C 0.50229 0.99157 0.41516 0.0
C3425 C 0.51299 0.98308 0.40245 0.0
C3426 C 0.51995 0.99258 0.38836 0.0
C3427 C 0.51632 0.01067 0.38701 0.0
H3428 H 0.51586 0.9691 0.4035 0.0
H3429 H 0.4826 0.14536 0.3906 0.0
H3430 H 0.79098 0.70209 0.0669 0.0
H3431 H 0.78673 0.71462 0.10023 0.0
H3432 H 0.82263 0.77105 0.1004 0.0
H3433 H 0.82788 0.75794 0.06736 0.0
H3434 H 0.83026 0.76356 0.13104 0.0
H3435 H 0.77409 0.76224 0.10151 0.0
H3436 H 0.746 0.74879 0.08047 0.0
H3437 H 0.72997 0.70347 0.11162 0.0
H3438 H 0.75809 0.71646 0.13268 0.0
H3439 H 0.8064 0.80232 0.22531 0.0
H3440 H 0.8053 0.79738 0.19023 0.0
H3441 H 0.79196 0.73375 0.1841 0.0
H3442 H 0.79358 0.73863 0.21895 0.0
H3443 H 0.77171 0.75011 0.15686 0.0
H3444 H 0.83151 0.75188 0.18379 0.0
H3445 H 0.85881 0.76869 0.20552 0.0
H3446 H 0.8666 0.81822 0.17883 0.0
H3447 H 0.83914 0.80185 0.1572 0.0
C3448 C 0.79778 0.71728 0.07395 0.0
C3449 C 0.8097 0.72905 0.06443 0.0
C3450 C 0.79524 0.72453 0.09306 0.0
C3451 C 0.80404 0.74403 0.10296 0.0
C3452 C 0.81564 0.75598 0.09324 0.0
C3453 C 0.81857 0.74851 0.07428 0.0
C3454 C 0.80199 0.75144 0.1237 0.0
C3455 C 0.81735 0.76094 0.13647 0.0
C3456 C 0.78523 0.74813 0.13117 0.0
C3457 C 0.76827 0.74024 0.11858 0.0
C3458 C 0.76463 0.74932 0.10379 0.0
C3459 C 0.7487 0.74179 0.09187 0.0
C3460 C 0.73623 0.72526 0.09468 0.0
C3461 C 0.73965 0.71626 0.10945 0.0
C3462 C 0.75558 0.72371 0.1214 0.0
C3463 C 0.80286 0.78733 0.21639 0.0
C3464 C 0.79978 0.77081 0.2247 0.0
C3465 C 0.80229 0.78452 0.19643 0.0
C3466 C 0.79849 0.76518 0.18463 0.0
C3467 C 0.79477 0.74875 0.19296 0.0
C3468 C 0.79574 0.75155 0.21281 0.0
C3469 C 0.79988 0.7618 0.16374 0.0
C3470 C 0.78446 0.75299 0.1511 0.0
C3471 C 0.81648 0.76619 0.15633 0.0
C3472 C 0.83317 0.77576 0.16905 0.0
C3473 C 0.83896 0.76643 0.18268 0.0
C3474 C 0.85447 0.77586 0.19496 0.0
C3475 C 0.8644 0.79454 0.1936 0.0
C3476 C 0.85888 0.80377 0.1799 0.0
C3477 C 0.84334 0.79443 0.16763 0.0
H3478 H 0.87638 0.80185 0.20312 0.0
H3479 H 0.72389 0.71945 0.08543 0.0
H3480 H 0.15101 0.03542 0.70922 0.0
H3481 H 0.13913 0.04279 0.67992 0.0
H3482 H 0.1 0.98663 0.66818 0.0
H3483 H 0.11105 0.97998 0.69769 0.0
H3484 H 0.13532 0.03355 0.64506 0.0
H3485 H 0.06355 0.98283 0.6399 0.0
H3486 H 0.04154 0.97218 0.66158 0.0
H3487 H 0.06717 0.02319 0.70623 0.0
H3488 H 0.08916 0.03428 0.68474 0.0
H3489 H 0.09791 0.02488 0.55151 0.0
H3490 H 0.10914 0.02094 0.58196 0.0
H3491 H 0.06348 0.03622 0.60724 0.0
H3492 H 0.05098 0.03757 0.57549 0.0
H3493 H 0.07041 0.01464 0.62618 0.0
H3494 H 0.11386 0.06835 0.61451 0.0
H3495 H 0.13539 0.08708 0.59679 0.0
H3496 H 0.16565 0.04302 0.59246 0.0
H3497 H 0.14425 0.02397 0.61003 0.0
C3498 C 0.13992 0.02458 0.70037 0.0
C3499 C 0.13211 0.00704 0.70627 0.0
C3500 C 0.13297 0.02884 0.68341 0.0
C3501 C 0.118 0.01569 0.67148 0.0
C3502 C 0.11089 0.99776 0.67702 0.0
C3503 C 0.11753 0.99374 0.69405 0.0
C3504 C 0.10995 0.02034 0.65335 0.0
C3505 C 0.1211 0.02931 0.64109 0.0
C3506 C 0.09127 0.01585 0.64781 0.0
C3507 C 0.07812 0.00923 0.66078 0.0
C3508 C 0.06445 0.99178 0.65433 0.0
C3509 C 0.05199 0.98568 0.66658 0.0
C3510 C 0.053 0.99696 0.68529 0.0
C3511 C 0.06644 0.01441 0.69176 0.0
C3512 C 0.07892 0.02061 0.67956 0.0
C3513 C 0.09017 0.02761 0.56351 0.0
C3514 C 0.07366 0.0323 0.56073 0.0
C3515 C 0.0969 0.02565 0.58138 0.0
C3516 C 0.08795 0.02915 0.59796 0.0
C3517 C 0.0712 0.03363 0.59522 0.0
C3518 C 0.06405 0.03482 0.57693 0.0
C3519 C 0.09582 0.02726 0.61752 0.0
C3520 C 0.08464 0.01884 0.63008 0.0
C3521 C 0.11442 0.03323 0.62386 0.0
C3522 C 0.12737 0.04467 0.61341 0.0
C3523 C 0.12506 0.06263 0.60968 0.0
C3524 C 0.13724 0.07329 0.59968 0.0
C3525 C 0.15182 0.06619 0.59343 0.0
C3526 C 0.15433 0.04847 0.59727 0.0
C3527 C 0.1422 0.03776 0.60729 0.0
H3528 H 0.16121 0.07446 0.58566 0.0
H3529 H 0.04334 0.9922 0.69476 0.0
H3530 H 0.79714 0.41207 0.47576 0.0
H3531 H 0.79103 0.39217 0.44264 0.0
H3532 H 0.84399 0.38305 0.44487 0.0
H3533 H 0.85023 0.40276 0.47771 0.0
H3534 H 0.83413 0.39285 0.41129 0.0
H3535 H 0.81004 0.34741 0.45077 0.0
H3536 H 0.79068 0.33662 0.47466 0.0
H3537 H 0.74466 0.33652 0.43915 0.0
H3538 H 0.76381 0.34761 0.41517 0.0
H3539 H 0.8307 0.31464 0.33212 0.0
H3540 H 0.83397 0.33432 0.36516 0.0
H3541 H 0.77778 0.33159 0.36092 0.0
H3542 H 0.7745 0.31124 0.32824 0.0
H3543 H 0.78747 0.32933 0.39497 0.0
H3544 H 0.80987 0.37239 0.35453 0.0
H3545 H 0.82817 0.38316 0.32984 0.0
H3546 H 0.87568 0.3895 0.36603 0.0
H3547 H 0.85765 0.37834 0.39078 0.0
C3548 C 0.80749 0.40588 0.46916 0.0
C3549 C 0.82412 0.40888 0.47944 0.0
C3550 C 0.80397 0.3945 0.45028 0.0
C3551 C 0.81704 0.38607 0.4414 0.0
C3552 C 0.83374 0.38943 0.45147 0.0
C3553 C 0.83722 0.40062 0.47031 0.0
C3554 C 0.81338 0.37326 0.42177 0.0
C3555 C 0.82401 0.3789 0.40771 0.0
C3556 C 0.79983 0.35539 0.41702 0.0
C3557 C 0.78835 0.34854 0.43131 0.0
C3558 C 0.79581 0.34523 0.44814 0.0
C3559 C 0.78487 0.33904 0.46168 0.0
C3560 C 0.76645 0.33595 0.45846 0.0
C3561 C 0.75893 0.33897 0.44165 0.0
C3562 C 0.76981 0.34519 0.42808 0.0
C3563 C 0.81905 0.3179 0.33851 0.0
C3564 C 0.8023 0.31114 0.328 0.0
C3565 C 0.82091 0.32929 0.35724 0.0
C3566 C 0.80616 0.33477 0.3654 0.0
C3567 C 0.78932 0.32751 0.35498 0.0
C3568 C 0.78742 0.31575 0.33639 0.0
C3569 C 0.80842 0.34872 0.38446 0.0
C3570 C 0.7975 0.34335 0.39841 0.0
C3571 C 0.82151 0.36704 0.38902 0.0
C3572 C 0.83241 0.37438 0.37444 0.0
C3573 C 0.82422 0.37601 0.35719 0.0
C3574 C 0.83454 0.38216 0.34318 0.0
C3575 C 0.85307 0.38698 0.34635 0.0
C3576 C 0.86132 0.38574 0.36358 0.0
C3577 C 0.85106 0.3795 0.37761 0.0
H3578 H 0.86105 0.39171 0.33547 0.0
H3579 H 0.75801 0.33116 0.46896 0.0
H3580 H 0.41571 0.02635 0.20568 0.0
H3581 H 0.4399 0.01335 0.19242 0.0
H3582 H 0.47326 0.04141 0.24541 0.0
H3583 H 0.44886 0.05496 0.25876 0.0
H3584 H 0.48847 0.05157 0.21506 0.0
H3585 H 0.46164 0.99068 0.23032 0.0
H3586 H 0.43677 0.96305 0.23303 0.0
H3587 H 0.42581 0.94583 0.17183 0.0
H3588 H 0.45041 0.97358 0.16874 0.0
H3589 H 0.55399 0.02058 0.15987 0.0
H3590 H 0.53477 0.02151 0.1858 0.0
H3591 H 0.48852 0.99938 0.14448 0.0
H3592 H 0.50766 0.99764 0.11845 0.0
H3593 H 0.48404 0.98345 0.17604 0.0
H3594 H 0.50483 0.04779 0.16164 0.0
H3595 H 0.52799 0.07629 0.15752 0.0
H3596 H 0.54829 0.08809 0.21656 0.0
H3597 H 0.52559 0.05906 0.22081 0.0
C3598 C 0.42807 0.02946 0.21469 0.0
C3599 C 0.43049 0.04176 0.2332 0.0
C3600 C 0.44185 0.02183 0.20715 0.0
C3601 C 0.45832 0.02621 0.21801 0.0
C3602 C 0.46057 0.03773 0.23689 0.0
C3603 C 0.44665 0.04537 0.24451 0.0
C3604 C 0.47355 0.02092 0.20844 0.0
C3605 C 0.48784 0.03654 0.20707 0.0
C3606 C 0.47242 1.00139 0.19763 0.0
C3607 C 0.45792 0.98425 0.19931 0.0
C3608 C 0.45391 0.98104 0.21743 0.0
C3609 C 0.43984 0.96536 0.21903 0.0
C3610 C 0.42972 0.95268 0.20261 0.0
C3611 C 0.43369 0.95564 0.18454 0.0
C3612 C 0.44773 0.97132 0.18285 0.0
C3613 C 0.53974 0.01547 0.1563 0.0
C3614 C 0.53232 0.00916 0.13711 0.0
C3615 C 0.52879 0.01608 0.17113 0.0
C3616 C 0.51026 0.01063 0.16702 0.0
C3617 C 0.50281 1.00358 0.14792 0.0
C3618 C 0.51375 1.00288 0.13308 0.0
C3619 C 0.4986 0.0142 0.18237 0.0
C3620 C 0.48499 0.99829 0.18467 0.0
C3621 C 0.50022 0.03351 0.19393 0.0
C3622 C 0.5137 0.0511 0.19147 0.0
C3623 C 0.51434 0.05634 0.17369 0.0
C3624 C 0.52738 0.07261 0.17134 0.0
C3625 C 0.5396 0.08406 0.18678 0.0
C3626 C 0.53883 0.0792 0.2046 0.0
C3627 C 0.52593 0.06278 0.20697 0.0
H3628 H 0.54966 0.09671 0.18496 0.0
H3629 H 0.4188 0.94058 0.20389 0.0
H3630 H 0.83944 0.74977 0.97244 0.0
H3631 H 0.83766 0.76157 0.94332 0.0
H3632 H 0.78187 0.73189 0.93229 0.0
H3633 H 0.78373 0.71921 0.96119 0.0
H3634 H 0.79656 0.72322 0.90175 0.0
H3635 H 0.79889 0.78495 0.94518 0.0
H3636 H 0.81022 0.81308 0.97305 0.0
H3637 H 0.85993 0.82763 0.94932 0.0
H3638 H 0.849 0.79938 0.92143 0.0
H3639 H 0.77903 0.76661 0.8254 0.0
H3640 H 0.78063 0.75786 0.85607 0.0
H3641 H 0.83779 0.77708 0.86096 0.0
H3642 H 0.83628 0.785 0.82936 0.0
H3643 H 0.8225 0.79166 0.89448 0.0
H3644 H 0.8199 0.72855 0.85198 0.0
H3645 H 0.80861 0.69939 0.82523 0.0
H3646 H 0.75804 0.6879 0.84791 0.0
H3647 H 0.76913 0.71711 0.8749 0.0
C3648 C 0.82666 0.74599 0.96408 0.0
C3649 C 0.81171 0.73345 0.96926 0.0
C3650 C 0.82565 0.75291 0.94738 0.0
C3651 C 0.8096 0.74785 0.93557 0.0
C3652 C 0.79444 0.73603 0.94112 0.0
C3653 C 0.79548 0.72889 0.95775 0.0
C3654 C 0.80904 0.75341 0.91671 0.0
C3655 C 0.80191 0.73831 0.9003 0.0
C3656 C 0.81654 0.77295 0.91456 0.0
C3657 C 0.82317 0.78994 0.9313 0.0
C3658 C 0.81229 0.79405 0.94598 0.0
C3659 C 0.81863 0.81003 0.96177 0.0
C3660 C 0.8358 0.82211 0.96298 0.0
C3661 C 0.84665 0.81825 0.94838 0.0
C3662 C 0.84038 0.80226 0.93256 0.0
C3663 C 0.79199 0.76837 0.83251 0.0
C3664 C 0.80752 0.77596 0.82449 0.0
C3665 C 0.79287 0.76359 0.8503 0.0
C3666 C 0.80932 0.76654 0.86074 0.0
C3667 C 0.82493 0.77455 0.85308 0.0
C3668 C 0.82405 0.77907 0.83504 0.0
C3669 C 0.80995 0.76147 0.87975 0.0
C3670 C 0.81708 0.77665 0.8961 0.0
C3671 C 0.80227 0.74206 0.88194 0.0
C3672 C 0.79528 0.72512 0.8653 0.0
C3673 C 0.8063 0.71996 0.85112 0.0
C3674 C 0.79994 0.70336 0.83595 0.0
C3675 C 0.78255 0.69182 0.83479 0.0
C3676 C 0.77148 0.69688 0.8488 0.0
C3677 C 0.77781 0.71343 0.86406 0.0
H3678 H 0.77763 0.67886 0.82314 0.0
H3679 H 0.84068 0.83448 0.97521 0.0
H3680 H 0.80432 0.0922 0.02447 0.0
H3681 H 0.82614 0.07299 0.02849 0.0
H3682 H 0.86638 0.11642 0.01045 0.0
H3683 H 0.84489 0.13562 0.00658 0.0
H3684 H 0.84315 0.05535 1.00169 0.0
H3685 H 0.90622 0.12049 0.03119 0.0
H3686 H 0.91367 0.15323 0.05409 0.0
H3687 H 0.86779 0.13494 0.08299 0.0
H3688 H 0.86022 0.10201 0.06049 0.0
H3689 H 0.91973 0.02845 0.97075 0.0
H3690 H 0.89546 0.04429 0.97897 0.0
H3691 H 0.91199 0.05336 0.03908 0.0
H3692 H 0.93676 0.03818 0.0308 0.0
H3693 H 0.90426 0.08471 0.034 0.0
H3694 H 0.87378 0.01665 0.0156 0.0
H3695 H 0.86509 0.98243 0.99552 0.0
H3696 H 0.84352 1.00344 0.95013 0.0
H3697 H 0.85231 0.03784 0.96982 0.0
C3698 C 0.81792 0.09784 0.02175 0.0
C3699 C 0.82291 0.11547 0.01529 0.0
C3700 C 0.83032 0.08681 0.02397 0.0
C3701 C 0.8479 0.0934 0.01996 0.0
C3702 C 0.85297 0.11127 0.014 0.0
C3703 C 0.84063 0.12222 0.01174 0.0
C3704 C 0.86077 0.08104 0.02044 0.0
C3705 C 0.85646 0.06164 0.00892 0.0
C3706 C 0.87794 0.08909 0.03032 0.0
C3707 C 0.88261 0.1088 0.04408 0.0
C3708 C 0.89779 0.1234 0.04251 0.0
C3709 C 0.90202 0.14201 0.05541 0.0
C3710 C 0.89119 0.14618 0.06996 0.0
C3711 C 0.87614 0.13172 0.07168 0.0
C3712 C 0.87186 0.11309 0.05885 0.0
C3713 C 0.91808 0.03371 0.9857 0.0
C3714 C 0.92999 0.032 1.00015 0.0
C3715 C 0.90416 0.04266 0.99041 0.0
C3716 C 0.90163 0.04961 0.00967 0.0
C3717 C 0.91362 0.04801 0.02413 0.0
C3718 C 0.92774 0.03937 0.01941 0.0
C3719 C 0.88689 0.05925 0.01457 0.0
C3720 C 0.89087 0.07819 0.02706 0.0
C3721 C 0.86925 0.05052 0.00605 0.0
C3722 C 0.86381 0.02984 0.99416 0.0
C3723 C 0.86728 0.01399 1.00129 0.0
C3724 C 0.86233 0.99456 0.98998 0.0
C3725 C 0.85378 0.99076 0.97155 0.0
C3726 C 0.85014 0.0064 0.9644 0.0
C3727 C 0.85508 0.02587 0.97565 0.0
H3728 H 0.84997 0.97571 0.96281 0.0
H3729 H 0.89448 0.1606 0.07992 0.0
H3730 H 0.36969 0.41853 0.0575 0.0
H3731 H 0.40018 0.43597 0.05511 0.0
H3732 H 0.3811 0.46731 0.01668 0.0
H3733 H 0.35033 0.45005 0.01915 0.0
H3734 H 0.41699 0.43839 0.01646 0.0
H3735 H 0.39345 0.5019 0.03665 0.0
H3736 H 0.37523 0.51876 0.05862 0.0
H3737 H 0.40166 0.50568 0.10634 0.0
H3738 H 0.41981 0.4885 0.08454 0.0
H3739 H 0.49319 0.5029 0.99847 0.0
H3740 H 0.46274 0.48669 1.00156 0.0
H3741 H 0.47308 0.50497 0.06312 0.0
H3742 H 0.50373 0.52218 0.05999 0.0
H3743 H 0.44159 0.50801 0.05354 0.0
H3744 H 0.47117 0.45604 0.03749 0.0
H3745 H 0.49005 0.43651 0.01951 0.0
H3746 H 0.45376 0.42294 0.96884 0.0
H3747 H 0.43479 0.44264 0.98645 0.0
C3748 C 0.37191 0.429 0.04838 0.0
C3749 C 0.35757 0.43287 0.03845 0.0
C3750 C 0.38936 0.439 0.04712 0.0
C3751 C 0.39281 0.45305 0.03593 0.0
C3752 C 0.37862 0.4567 0.02563 0.0
C3753 C 0.36109 0.44677 0.02697 0.0
C3754 C 0.41134 0.46381 0.03508 0.0
C3755 C 0.42236 0.45371 0.02426 0.0
C3756 C 0.41848 0.48337 0.04605 0.0
C3757 C 0.40779 0.49385 0.05904 0.0
C3758 C 0.39525 0.50255 0.05182 0.0
C3759 C 0.38497 0.51215 0.06423 0.0
C3760 C 0.38726 0.51326 0.08386 0.0
C3761 C 0.39987 0.50478 0.09114 0.0
C3762 C 0.41014 0.49511 0.07877 0.0
C3763 C 0.48909 0.50343 0.01269 0.0
C3764 C 0.50097 0.51348 0.029 0.0
C3765 C 0.47162 0.49408 0.01444 0.0
C3766 C 0.4657 0.49405 0.03257 0.0
C3767 C 0.47738 0.50461 0.04896 0.0
C3768 C 0.49488 0.51437 0.04718 0.0
C3769 C 0.44732 0.48293 0.03416 0.0
C3770 C 0.43633 0.49279 0.04541 0.0
C3771 C 0.44034 0.4629 0.02387 0.0
C3772 C 0.45164 0.45093 0.01325 0.0
C3773 C 0.46728 0.44899 0.02248 0.0
C3774 C 0.47799 0.43788 0.01237 0.0
C3775 C 0.47312 0.42852 0.99304 0.0
C3776 C 0.45752 0.43021 0.98381 0.0
C3777 C 0.44677 0.44133 0.99385 0.0
H3778 H 0.48143 0.41992 0.98524 0.0
H3779 H 0.37929 0.52071 0.09345 0.0
H3780 H 0.39638 0.61655 0.75274 0.0
H3781 H 0.38027 0.64182 0.74914 0.0
H3782 H 0.38035 0.65889 0.81042 0.0
H3783 H 0.39511 0.63298 0.81379 0.0
H3784 H 0.35302 0.66467 0.8009 0.0
H3785 H 0.40746 0.68801 0.77473 0.0
H3786 H 0.43115 0.68637 0.75318 0.0
H3787 H 0.39271 0.67318 0.70436 0.0
H3788 H 0.36879 0.67458 0.72564 0.0
H3789 H 0.32237 0.75485 0.80008 0.0
H3790 H 0.33745 0.72903 0.80446 0.0
H3791 H 0.33736 0.71026 0.74328 0.0
H3792 H 0.32355 0.73683 0.73924 0.0
H3793 H 0.36526 0.70587 0.75343 0.0
H3794 H 0.31069 0.67358 0.78354 0.0
H3795 H 0.28922 0.67362 0.80786 0.0
H3796 H 0.33109 0.70748 0.85155 0.0
H3797 H 0.35294 0.70648 0.82769 0.0
C3798 C 0.39299 0.62565 0.76549 0.0
C3799 C 0.39729 0.62217 0.7836 0.0
C3800 C 0.38379 0.64057 0.76346 0.0
C3801 C 0.37892 0.6533 0.77949 0.0
C3802 C 0.38343 0.64976 0.7975 0.0
C3803 C 0.39216 0.63466 0.79947 0.0
C3804 C 0.36897 0.66981 0.77792 0.0
C3805 C 0.35604 0.67367 0.79051 0.0
C3806 C 0.37207 0.68216 0.76452 0.0
C3807 C 0.38635 0.68118 0.75174 0.0
C3808 C 0.40407 0.68464 0.75939 0.0
C3809 C 0.41753 0.68378 0.74723 0.0
C3810 C 0.41343 0.67961 0.72741 0.0
C3811 C 0.39586 0.67636 0.71971 0.0
C3812 C 0.38236 0.6772 0.73181 0.0
C3813 C 0.32523 0.74497 0.78754 0.0
C3814 C 0.32127 0.7481 0.76921 0.0
C3815 C 0.33391 0.72975 0.79 0.0
C3816 C 0.33878 0.71662 0.77426 0.0
C3817 C 0.3343 0.71969 0.75601 0.0
C3818 C 0.32604 0.73502 0.75362 0.0
C3819 C 0.3491 0.70051 0.77622 0.0
C3820 C 0.36216 0.69675 0.76371 0.0
C3821 C 0.34644 0.68854 0.78995 0.0
C3822 C 0.33327 0.69038 0.80385 0.0
C3823 C 0.31523 0.68119 0.79831 0.0
C3824 C 0.30305 0.68123 0.81202 0.0
C3825 C 0.30872 0.69091 0.83115 0.0
C3826 C 0.32668 0.70016 0.8367 0.0
C3827 C 0.33899 0.69965 0.82316 0.0
H3828 H 0.29922 0.69106 0.84168 0.0
H3829 H 0.42387 0.67895 0.71802 0.0
H3830 H 0.22583 0.65008 0.51964 0.0
H3831 H 0.2053 0.63805 0.54142 0.0
H3832 H 0.22548 0.58548 0.53559 0.0
H3833 H 0.24628 0.59779 0.51379 0.0
H3834 H 0.19223 0.57754 0.51921 0.0
H3835 H 0.22112 0.61161 0.58016 0.0
H3836 H 0.23858 0.63958 0.60549 0.0
H3837 H 0.19789 0.67117 0.60322 0.0
H3838 H 0.1803 0.6436 0.57759 0.0
H3839 H 0.10471 0.54302 0.5319 0.0
H3840 H 0.13612 0.54994 0.54185 0.0
H3841 H 0.13926 0.61302 0.55342 0.0
H3842 H 0.10701 0.60584 0.54656 0.0
H3843 H 0.16435 0.60823 0.57473 0.0
H3844 H 0.1438 0.58201 0.50627 0.0
H3845 H 0.12524 0.55599 0.47987 0.0
H3846 H 0.15043 0.51262 0.49472 0.0
H3847 H 0.16904 0.53839 0.52129 0.0
C3848 C 0.22666 0.63659 0.524 0.0
C3849 C 0.23744 0.62475 0.51505 0.0
C3850 C 0.21493 0.62969 0.53651 0.0
C3851 C 0.21369 0.61072 0.53998 0.0
C3852 C 0.22624 0.60016 0.53311 0.0
C3853 C 0.23818 0.60723 0.52074 0.0
C3854 C 0.19665 0.60017 0.54554 0.0
C3855 C 0.18636 0.58384 0.53175 0.0
C3856 C 0.18881 0.60869 0.56157 0.0
C3857 C 0.19935 0.62545 0.57693 0.0
C3858 C 0.21593 0.62457 0.58494 0.0
C3859 C 0.22586 0.64036 0.59937 0.0
C3860 C 0.21932 0.6571 0.60596 0.0
C3861 C 0.2029 0.65815 0.59811 0.0
C3862 C 0.19292 0.64242 0.58365 0.0
C3863 C 0.11179 0.55829 0.53759 0.0
C3864 C 0.10322 0.57383 0.53904 0.0
C3865 C 0.12996 0.5623 0.54292 0.0
C3866 C 0.14026 0.58202 0.54778 0.0
C3867 C 0.13167 0.59764 0.54975 0.0
C3868 C 0.11327 0.59355 0.54557 0.0
C3869 C 0.15991 0.58644 0.5479 0.0
C3870 C 0.17052 0.60154 0.56264 0.0
C3871 C 0.16808 0.57722 0.53244 0.0
C3872 C 0.1577 0.56205 0.51578 0.0
C3873 C 0.14542 0.56694 0.50381 0.0
C3874 C 0.13487 0.55223 0.48887 0.0
C3875 C 0.13664 0.53266 0.48564 0.0
C3876 C 0.14908 0.52778 0.49724 0.0
C3877 C 0.15965 0.54243 0.51221 0.0
H3878 H 0.12839 0.52127 0.47414 0.0
H3879 H 0.22696 0.66921 0.61719 0.0
H3880 H 0.71316 0.97451 0.74017 0.0
H3881 H 0.74003 0.9632 0.74568 0.0
H3882 H 0.76592 0.02191 0.77971 0.0
H3883 H 0.73853 0.03266 0.77545 0.0
H3884 H 0.77296 0.9696 0.74087 0.0
H3885 H 0.79087 0.01928 0.81716 0.0
H3886 H 0.77662 0.03749 0.84271 0.0
H3887 H 0.7263 0.99595 0.82206 0.0
H3888 H 0.74032 0.97738 0.79657 0.0
H3889 H 0.84444 0.93819 0.77933 0.0
H3890 H 0.82852 0.96224 0.77191 0.0
H3891 H 0.78653 0.94044 0.80491 0.0
H3892 H 0.80257 0.91704 0.81279 0.0
H3893 H 0.79206 0.97909 0.8098 0.0
H3894 H 0.78352 0.92175 0.75664 0.0
H3895 H 0.7942 0.89833 0.73198 0.0
H3896 H 0.81927 0.94658 0.70755 0.0
H3897 H 0.8088 0.97028 0.73215 0.0
C3898 C 0.72472 0.98499 0.74859 0.0
C3899 C 0.72386 1.00425 0.7577 0.0
C3900 C 0.74008 0.9786 0.75165 0.0
C3901 C 0.75484 0.99159 0.7635 0.0
C3902 C 0.75451 0.01148 0.77099 0.0
C3903 C 0.73895 0.01763 0.76852 0.0
C3904 C 0.7696 0.98368 0.76975 0.0
C3905 C 0.77729 0.9719 0.75593 0.0
C3906 C 0.77509 0.98636 0.78941 0.0
C3907 C 0.76659 0.99715 0.80486 0.0
C3908 C 0.77678 0.01403 0.81814 0.0
C3909 C 0.76874 0.0244 0.83259 0.0
C3910 C 0.75055 0.01793 0.83396 0.0
C3911 C 0.74037 1.00099 0.82095 0.0
C3912 C 0.74835 0.99054 0.8065 0.0
C3913 C 0.83207 0.93902 0.78542 0.0
C3914 C 0.82461 0.92576 0.79648 0.0
C3915 C 0.82295 0.95258 0.78106 0.0
C3916 C 0.80627 0.95288 0.78767 0.0
C3917 C 0.79939 0.94045 0.79969 0.0
C3918 C 0.80849 0.92702 0.80408 0.0
C3919 C 0.79509 0.96476 0.78098 0.0
C3920 C 0.7881 0.97731 0.79472 0.0
C3921 C 0.78965 0.96202 0.76134 0.0
C3922 C 0.79557 0.94778 0.74631 0.0
C3923 C 0.79136 0.92734 0.74603 0.0
C3924 C 0.79735 0.91403 0.73207 0.0
C3925 C 0.80745 0.92097 0.71825 0.0
C3926 C 0.81146 0.94122 0.71827 0.0
C3927 C 0.80548 0.9546 0.73219 0.0
H3928 H 0.81219 0.91066 0.70755 0.0
H3929 H 0.74434 0.02601 0.84513 0.0
H3930 H 0.74484 0.9049 0.53037 0.0
H3931 H 0.71806 0.91714 0.52662 0.0
H3932 H 0.74945 0.97764 0.54622 0.0
H3933 H 0.77592 0.96567 0.55033 0.0
H3934 H 0.71979 0.97271 0.56311 0.0
H3935 H 0.73548 0.95472 0.49779 0.0
H3936 H 0.74084 0.93111 0.46933 0.0
H3937 H 0.68794 0.89471 0.46684 0.0
H3938 H 0.68237 0.91799 0.49545 0.0
H3939 H 0.67744 0.03735 0.53038 0.0
H3940 H 0.69656 0.01614 0.53647 0.0
H3941 H 0.65362 0.96399 0.5146 0.0
H3942 H 0.63444 0.98528 0.50778 0.0
H3943 H 0.68407 0.95881 0.50052 0.0
H3944 H 0.66656 0.979 0.56233 0.0
H3945 H 0.66056 1.00205 0.59081 0.0
H3946 H 0.71572 0.0332 0.60053 0.0
H3947 H 0.72201 0.01052 0.57193 0.0
C3948 C 0.74599 0.9208 0.53388 0.0
C3949 C 0.76254 0.93429 0.54066 0.0
C3950 C 0.73069 0.92777 0.53167 0.0
C3951 C 0.73175 0.94834 0.53605 0.0
C3952 C 0.74826 0.96172 0.54283 0.0
C3953 C 0.76344 0.95481 0.54511 0.0
C3954 C 0.71589 0.95632 0.5337 0.0
C3955 C 0.71203 0.96972 0.5494 0.0
C3956 C 0.70524 0.95181 0.51604 0.0
C3957 C 0.7086 0.93793 0.49886 0.0
C3958 C 0.72505 0.9416 0.49125 0.0
C3959 C 0.72812 0.92829 0.47509 0.0
C3960 C 0.71476 0.91138 0.46633 0.0
C3961 C 0.69829 0.90778 0.47367 0.0
C3962 C 0.69517 0.92102 0.48985 0.0
C3963 C 0.67203 0.02137 0.52679 0.0
C3964 C 0.65444 0.01301 0.51847 0.0
C3965 C 0.68294 0.00925 0.53048 0.0
C3966 C 0.67647 0.98847 0.52622 0.0
C3967 C 0.65885 0.98 0.51808 0.0
C3968 C 0.64788 0.99218 0.51434 0.0
C3969 C 0.6885 0.97583 0.52975 0.0
C3970 C 0.69161 0.96153 0.51432 0.0
C3971 C 0.69841 0.9794 0.54771 0.0
C3972 C 0.69473 0.99311 0.56493 0.0
C3973 C 0.67739 0.99085 0.57047 0.0
C3974 C 0.67394 1.00384 0.58664 0.0
C3975 C 0.68775 0.01909 0.59746 0.0
C3976 C 0.70504 0.02137 0.59213 0.0
C3977 C 0.70855 0.00844 0.57596 0.0
H3978 H 0.68505 0.02912 0.60999 0.0
H3979 H 0.71715 0.9011 0.45381 0.0
H3980 H 0.37249 0.52191 0.79485 0.0
H3981 H 0.35841 0.48663 0.79094 0.0
H3982 H 0.40317 0.47132 0.76365 0.0
H3983 H 0.41684 0.50686 0.76656 0.0
H3984 H 0.37683 0.44325 0.74803 0.0
H3985 H 0.39483 0.47135 0.81409 0.0
H3986 H 0.39749 0.4948 0.84547 0.0
H3987 H 0.34087 0.47813 0.8466 0.0
H3988 H 0.33785 0.45478 0.81508 0.0
H3989 H 0.35275 0.34382 0.76599 0.0
H3990 H 0.3681 0.37845 0.76651 0.0
H3991 H 0.32105 0.39741 0.78295 0.0
H3992 H 0.30599 0.36313 0.78274 0.0
H3993 H 0.35025 0.42277 0.80414 0.0
H3994 H 0.33398 0.39344 0.73656 0.0
H3995 H 0.33377 0.36849 0.70672 0.0
H3996 H 0.39076 0.38609 0.7106 0.0
H3997 H 0.39131 0.41096 0.74063 0.0
C3998 C 0.37928 0.51109 0.78772 0.0
C3999 C 0.3959 0.51754 0.78102 0.0
C4000 C 0.37127 0.49069 0.78572 0.0
C4001 C 0.3798 0.47577 0.77757 0.0
C4002 C 0.39612 0.48216 0.77015 0.0
C4003 C 0.40399 0.50266 0.77177 0.0
C4004 C 0.37183 0.45384 0.7772 0.0
C4005 C 0.37127 0.43892 0.76047 0.0
C4006 C 0.36437 0.4475 0.79322 0.0
C4007 C 0.36611 0.46147 0.81216 0.0
C4008 C 0.38294 0.47279 0.82098 0.0
C4009 C 0.38451 0.48605 0.83879 0.0
C4010 C 0.36935 0.48798 0.848 0.0
C4011 C 0.35259 0.47663 0.83944 0.0
C4012 C 0.35095 0.46338 0.82161 0.0
C4013 C 0.34563 0.35535 0.76961 0.0
C4014 C 0.32779 0.35034 0.77376 0.0
C4015 C 0.35444 0.37526 0.76983 0.0
C4016 C 0.34579 0.39089 0.77449 0.0
C4017 C 0.32814 0.38589 0.77908 0.0
C4018 C 0.31933 0.36603 0.77865 0.0
C4019 C 0.355 0.41241 0.77495 0.0
C4020 C 0.35583 0.42721 0.79174 0.0
C4021 C 0.36306 0.41851 0.75917 0.0
C4022 C 0.36269 0.40393 0.7409 0.0
C4023 C 0.34647 0.39192 0.73109 0.0
C4024 C 0.34629 0.3778 0.71414 0.0
C4025 C 0.36224 0.37568 0.70679 0.0
C4026 C 0.37841 0.38774 0.71632 0.0
C4027 C 0.37867 0.40186 0.73329 0.0
H4028 H 0.36208 0.36471 0.69368 0.0
H4029 H 0.3706 0.49826 0.8618 0.0
H4030 H 0.18494 0.57677 0.22468 0.0
H4031 H 0.19698 0.61168 0.22336 0.0
H4032 H 0.23568 0.6188 0.27103 0.0
H4033 H 0.22336 0.58459 0.27284 0.0
H4034 H 0.21768 0.64642 0.27771 0.0
H4035 H 0.24609 0.61659 0.22265 0.0
H4036 H 0.24427 0.59503 0.19035 0.0
H4037 H 0.21199 0.6283 0.16795 0.0
H4038 H 0.21356 0.64996 0.20016 0.0
H4039 H 0.28587 0.73007 0.29098 0.0
H4040 H 0.26832 0.69563 0.28108 0.0
H4041 H 0.23725 0.71127 0.23812 0.0
H4042 H 0.25512 0.74599 0.24797 0.0
H4043 H 0.24448 0.67401 0.22498 0.0
H4044 H 0.21846 0.70571 0.27727 0.0
H4045 H 0.21586 0.72588 0.309 0.0
H4046 H 0.24007 0.68872 0.33609 0.0
H4047 H 0.24278 0.66827 0.30444 0.0
C4048 C 0.19615 0.58581 0.23468 0.0
C4049 C 0.20308 0.57814 0.24905 0.0
C4050 C 0.20305 0.60568 0.23387 0.0
C4051 C 0.2172 0.61786 0.24716 0.0
C4052 C 0.22465 0.60975 0.26076 0.0
C4053 C 0.21759 0.5902 0.26181 0.0
C4054 C 0.22357 0.6395 0.24842 0.0
C4055 C 0.22368 0.65239 0.26619 0.0
C4056 C 0.23038 0.64749 0.2331 0.0
C4057 C 0.22984 0.63477 0.21377 0.0
C4058 C 0.23857 0.61925 0.21083 0.0
C4059 C 0.23759 0.60703 0.19255 0.0
C4060 C 0.228 0.61028 0.17711 0.0
C4061 C 0.21942 0.6258 0.17991 0.0
C4062 C 0.22038 0.63808 0.19816 0.0
C4063 C 0.27544 0.72606 0.27927 0.0
C4064 C 0.27202 0.74041 0.26996 0.0
C4065 C 0.2654 0.70646 0.27365 0.0
C4066 C 0.25138 0.70096 0.25898 0.0
C4067 C 0.24804 0.71523 0.24942 0.0
C4068 C 0.25822 0.73496 0.25502 0.0
C4069 C 0.23979 0.68051 0.25474 0.0
C4070 C 0.23843 0.668 0.23643 0.0
C4071 C 0.23158 0.67273 0.26951 0.0
C4072 C 0.23085 0.68553 0.28852 0.0
C4073 C 0.2234 0.70199 0.29 0.0
C4074 C 0.22187 0.71343 0.30797 0.0
C4075 C 0.22778 0.70857 0.32456 0.0
C4076 C 0.23544 0.69241 0.32322 0.0
C4077 C 0.23693 0.68086 0.30527 0.0
H4078 H 0.22628 0.71717 0.33846 0.0
H4079 H 0.22723 0.60078 0.16297 0.0
H4080 H 0.53288 0.71591 0.43048 0.0
H4081 H 0.54015 0.68954 0.44406 0.0
H4082 H 0.50108 0.69576 0.48404 0.0
H4083 H 0.49358 0.72204 0.47043 0.0
H4084 H 0.53268 0.69083 0.50104 0.0
H4085 H 0.49067 0.6584 0.44589 0.0
H4086 H 0.47908 0.65127 0.41194 0.0
H4087 H 0.52574 0.63213 0.39497 0.0
H4088 H 0.53771 0.63943 0.42884 0.0
H4089 H 0.53188 0.59799 0.52821 0.0
H4090 H 0.52703 0.62849 0.52047 0.0
H4091 H 0.54995 0.61435 0.46716 0.0
H4092 H 0.55279 0.58307 0.47406 0.0
H4093 H 0.52435 0.62403 0.45795 0.0
H4094 H 0.57011 0.66639 0.51111 0.0
H4095 H 0.58393 0.67831 0.54448 0.0
H4096 H 0.53276 0.67857 0.56448 0.0
H4097 H 0.51884 0.66792 0.53109 0.0
C4098 C 0.52595 0.71191 0.44233 0.0
C4099 C 0.5126 0.72124 0.44929 0.0
C4100 C 0.53007 0.69668 0.45003 0.0
C4101 C 0.52107 0.69044 0.46502 0.0
C4102 C 0.50823 0.70023 0.4725 0.0
C4103 C 0.50393 0.71529 0.46465 0.0
C4104 C 0.52459 0.67325 0.47233 0.0
C4105 C 0.53077 0.67616 0.49164 0.0
C4106 C 0.52235 0.65412 0.46019 0.0
C4107 C 0.51515 0.64964 0.43986 0.0
C4108 C 0.49851 0.65282 0.43491 0.0
C4109 C 0.49187 0.64873 0.41569 0.0
C4110 C 0.50169 0.6413 0.40131 0.0
C4111 C 0.51816 0.63791 0.40612 0.0
C4112 C 0.52487 0.64201 0.42532 0.0
C4113 C 0.53635 0.6018 0.51515 0.0
C4114 C 0.54314 0.58836 0.50196 0.0
C4115 C 0.53366 0.61942 0.51067 0.0
C4116 C 0.53822 0.6243 0.49316 0.0
C4117 C 0.54599 0.61121 0.48064 0.0
C4118 C 0.54791 0.59335 0.48471 0.0
C4119 C 0.53347 0.64161 0.48669 0.0
C4120 C 0.52666 0.63868 0.46746 0.0
C4121 C 0.53541 0.66079 0.49885 0.0
C4122 C 0.54345 0.66598 0.51879 0.0
C4123 C 0.56183 0.66882 0.52268 0.0
C4124 C 0.56968 0.67547 0.54156 0.0
C4125 C 0.5592 0.67874 0.55663 0.0
C4126 C 0.54086 0.67585 0.55282 0.0
C4127 C 0.53301 0.66975 0.53393 0.0
H4128 H 0.56531 0.68372 0.57125 0.0
H4129 H 0.49653 0.63814 0.38643 0.0
H4130 H 0.64763 0.36175 0.67766 0.0
H4131 H 0.67518 0.35514 0.68934 0.0
H4132 H 0.66071 0.29638 0.65206 0.0
H4133 H 0.63308 0.30304 0.64003 0.0
H4134 H 0.67152 0.29561 0.68894 0.0
H4135 H 0.6941 0.33077 0.6427 0.0
H4136 H 0.70043 0.35765 0.62542 0.0
H4137 H 0.72812 0.39869 0.67667 0.0
H4138 H 0.72163 0.37215 0.69438 0.0
H4139 H 0.75429 0.27475 0.71187 0.0
H4140 H 0.72944 0.2805 0.69367 0.0
H4141 H 0.7405 0.34087 0.72733 0.0
H4142 H 0.76567 0.33529 0.74517 0.0
H4143 H 0.73167 0.33919 0.69015 0.0
H4144 H 0.70718 0.30436 0.7368 0.0
H4145 H 0.70252 0.27698 0.75352 0.0
H4146 H 0.67923 0.23507 0.70095 0.0
H4147 H 0.68408 0.26218 0.68383 0.0
C4148 C 0.65038 0.3475 0.67169 0.0
C4149 C 0.63808 0.33298 0.65779 0.0
C4150 C 0.66622 0.34375 0.67839 0.0
C4151 C 0.6702 0.32528 0.67158 0.0
C4152 C 0.65805 0.31078 0.65754 0.0
C4153 C 0.64228 0.31466 0.65057 0.0
C4154 C 0.68657 0.32095 0.67987 0.0
C4155 C 0.68468 0.30496 0.68887 0.0
C4156 C 0.70383 0.33333 0.6803 0.0
C4157 C 0.70716 0.34953 0.66992 0.0
C4158 C 0.7013 0.3456 0.65036 0.0
C4159 C 0.70497 0.36076 0.64047 0.0
C4160 C 0.71462 0.37988 0.64995 0.0
C4161 C 0.7206 0.38389 0.66936 0.0
C4162 C 0.71691 0.3688 0.67933 0.0
C4163 C 0.75146 0.28925 0.7155 0.0
C4164 C 0.76148 0.30424 0.73082 0.0
C4165 C 0.73716 0.29251 0.70504 0.0
C4166 C 0.73264 0.31095 0.70945 0.0
C4167 C 0.74338 0.32635 0.72387 0.0
C4168 C 0.75762 0.32303 0.7344 0.0
C4169 C 0.71655 0.31405 0.69936 0.0
C4170 C 0.71849 0.32981 0.6901 0.0
C4171 C 0.69935 0.3015 0.69872 0.0
C4172 C 0.69616 0.28525 0.70901 0.0
C4173 C 0.70118 0.28928 0.72878 0.0
C4174 C 0.69851 0.27382 0.73833 0.0
C4175 C 0.69062 0.25429 0.72829 0.0
C4176 C 0.68537 0.25019 0.70869 0.0
C4177 C 0.68808 0.2656 0.69906 0.0
H4178 H 0.68852 0.24236 0.73574 0.0
H4179 H 0.71751 0.39158 0.64224 0.0
H4180 H 0.03862 0.32475 0.94935 0.0
H4181 H 0.04698 0.36053 0.96398 0.0
H4182 H 0.99259 0.35838 0.97534 0.0
H4183 H 0.9845 0.32265 0.96189 0.0
H4184 H 0.04052 0.38966 0.95508 0.0
H4185 H 0.98758 0.39551 0.01016 0.0
H4186 H 0.97327 0.37665 0.03274 0.0
H4187 H 0.01659 0.34858 0.0339 0.0
H4188 H 0.03129 0.36749 0.01159 0.0
H4189 H 0.03412 0.48709 0.97248 0.0
H4190 H 0.02645 0.45083 0.96561 0.0
H4191 H 0.04105 0.4533 0.02493 0.0
H4192 H 0.04716 0.48989 0.03208 0.0
H4193 H 0.01712 0.42217 0.01328 0.0
H4194 H 0.06999 0.44613 0.98678 0.0
H4195 H 0.08967 0.46579 0.9682 0.0
H4196 H 0.05596 0.43446 0.91657 0.0
H4197 H 0.03592 0.41484 0.93489 0.0
C4198 C 0.02853 0.33185 0.95531 0.0
C4199 C 0.01092 0.32068 0.95456 0.0
C4200 C 0.03329 0.35241 0.96361 0.0
C4201 C 0.02052 0.36242 0.9711 0.0
C4202 C 0.00293 0.35119 0.97032 0.0
C4203 C 0.99826 0.33063 0.96245 0.0
C4204 C 0.02525 0.38465 0.97858 0.0
C4205 C 0.03544 0.39665 0.96789 0.0
C4206 C 0.01922 0.39416 0.99563 0.0
C4207 C 0.01043 0.38275 0.00904 0.0
C4208 C 0.99408 0.38536 0.01529 0.0
C4209 C 0.9859 0.37465 0.02803 0.0
C4210 C 0.99398 0.36137 0.03469 0.0
C4211 C 0.0103 0.35881 0.02867 0.0
C4212 C 0.01855 0.36949 0.01596 0.0
C4213 C 0.03529 0.47984 0.98412 0.0
C4214 C 0.04104 0.49122 0.00281 0.0
C4215 C 0.03116 0.45908 0.98016 0.0
C4216 C 0.03385 0.44911 0.99453 0.0
C4217 C 0.03899 0.46049 0.01347 0.0
C4218 C 0.04247 0.4814 0.0176 0.0
C4219 C 0.03192 0.42701 0.98946 0.0
C4220 C 0.02227 0.41509 1.00057 0.0
C4221 C 0.03925 0.41756 0.97335 0.0
C4222 C 0.05141 0.4291 0.96222 0.0
C4223 C 0.06675 0.44349 0.97147 0.0
C4224 C 0.07796 0.45464 0.96099 0.0
C4225 C 0.07406 0.45139 0.94122 0.0
C4226 C 0.05896 0.43696 0.93189 0.0
C4227 C 0.04768 0.42581 0.9423 0.0
H4228 H 0.08275 0.46005 0.93314 0.0
H4229 H 0.98762 0.35309 0.04456 0.0
H4230 H 0.04298 0.79774 0.17761 0.0
H4231 H 0.0162 0.79215 0.1942 0.0
H4232 H 0.98738 0.80892 0.15026 0.0
H4233 H 0.01429 0.81515 0.13394 0.0
H4234 H 0.97938 0.826 0.18311 0.0
H4235 H 0.98015 0.75953 0.15462 0.0
H4236 H 0.99245 0.73013 0.14561 0.0
H4237 H 1.00179 0.73002 0.20491 0.0
H4238 H 0.9898 0.75962 0.21428 0.0
H4239 H 0.89515 0.78373 0.21933 0.0
H4240 H 0.91868 0.78794 0.19784 0.0
H4241 H 0.95828 0.79744 0.24506 0.0
H4242 H 0.93525 0.79478 0.26681 0.0
H4243 H 0.95813 0.76537 0.20762 0.0
H4244 H 0.95876 0.83486 0.23465 0.0
H4245 H 0.9439 0.86243 0.24171 0.0
H4246 H 0.92903 0.85418 0.18168 0.0
H4247 H 0.94351 0.82628 0.17432 0.0
C4248 C 0.03089 0.79999 0.17132 0.0
C4249 C 0.03081 0.80674 0.15433 0.0
C4250 C 0.01552 0.79674 0.18082 0.0
C4251 C 0.99959 0.79989 0.17344 0.0
C4252 C 0.99943 0.80636 0.15631 0.0
C4253 C 0.01484 0.80976 0.14688 0.0
C4254 C 0.98335 0.79706 0.18394 0.0
C4255 C 0.97463 0.81257 0.18816 0.0
C4256 C 0.97696 0.77962 0.19068 0.0
C4257 C 0.98423 0.76188 0.18515 0.0
C4258 C 0.98496 0.75333 0.16574 0.0
C4259 C 0.99186 0.73661 0.16057 0.0
C4260 C 0.99794 0.72824 0.17468 0.0
C4261 C 0.9971 0.73654 0.194 0.0
C4262 C 0.99025 0.75327 0.19925 0.0
C4263 C 0.90886 0.78714 0.22527 0.0
C4264 C 0.91314 0.78865 0.2449 0.0
C4265 C 0.92228 0.78933 0.2129 0.0
C4266 C 0.94019 0.79275 0.21985 0.0
C4267 C 0.94452 0.79454 0.23937 0.0
C4268 C 0.93124 0.79284 0.25177 0.0
C4269 C 0.95458 0.79437 0.20695 0.0
C4270 C 0.96289 0.77865 0.20233 0.0
C4271 C 0.96037 0.81141 0.19957 0.0
C4272 C 0.952 0.82837 0.20396 0.0
C4273 C 0.95216 0.83881 0.22298 0.0
C4274 C 0.94384 0.85451 0.22704 0.0
C4275 C 0.93547 0.86001 0.21216 0.0
C4276 C 0.93547 0.84987 0.1932 0.0
C4277 C 0.94374 0.83412 0.18907 0.0
H4278 H 0.92902 0.87217 0.21533 0.0
H4279 H 0.00326 0.71528 0.17065 0.0
H4280 H 0.52782 0.30169 0.11459 0.0
H4281 H 0.5375 0.32258 0.09209 0.0
H4282 H 0.49031 0.34491 0.09826 0.0
H4283 H 0.48008 0.32295 0.11933 0.0
H4284 H 0.49482 0.34057 0.06457 0.0
H4285 H 0.53531 0.37167 0.12098 0.0
H4286 H 0.55778 0.37383 0.14725 0.0
H4287 H 0.59354 0.35761 0.10639 0.0
H4288 H 0.57119 0.35513 0.07989 0.0
H4289 H 0.55411 0.43722 0.04513 0.0
H4290 H 0.54662 0.41418 0.0659 0.0
H4291 H 0.52628 0.36588 0.01641 0.0
H4292 H 0.53269 0.38909 0.99558 0.0
H4293 H 0.55612 0.38319 0.07127 0.0
H4294 H 0.49097 0.33345 0.02633 0.0
H4295 H 0.4672 0.33676 0.00418 0.0
H4296 H 0.47816 0.39943 0.02963 0.0
H4297 H 0.50176 0.39642 0.05212 0.0
C4298 C 0.51955 0.31102 0.11099 0.0
C4299 C 0.50319 0.31068 0.11858 0.0
C4300 C 0.52513 0.3231 0.09827 0.0
C4301 C 0.51481 0.33566 0.09363 0.0
C4302 C 0.49852 0.33532 0.1014 0.0
C4303 C 0.49268 0.3228 0.11352 0.0
C4304 C 0.52069 0.34908 0.08058 0.0
C4305 C 0.50825 0.34984 0.06611 0.0
C4306 C 0.53811 0.36154 0.08261 0.0
C4307 C 0.55152 0.36298 0.09849 0.0
C4308 C 0.54792 0.36842 0.11762 0.0
C4309 C 0.56064 0.36973 0.13254 0.0
C4310 C 0.57705 0.36579 0.12849 0.0
C4311 C 0.58081 0.36061 0.10951 0.0
C4312 C 0.56813 0.35926 0.09454 0.0
C4313 C 0.54786 0.42174 0.03864 0.0
C4314 C 0.54378 0.41507 0.01866 0.0
C4315 C 0.5438 0.40853 0.05054 0.0
C4316 C 0.53568 0.38835 0.04274 0.0
C4317 C 0.53227 0.38147 0.02277 0.0
C4318 C 0.53613 0.39472 0.01086 0.0
C4319 C 0.53021 0.37469 0.05555 0.0
C4320 C 0.54272 0.37382 0.06981 0.0
C4321 C 0.51263 0.36288 0.05399 0.0
C4322 C 0.49828 0.36474 0.0407 0.0
C4323 C 0.48826 0.34791 0.02722 0.0
C4324 C 0.47482 0.34974 0.01462 0.0
C4325 C 0.47123 0.36831 0.01544 0.0
C4326 C 0.48101 0.38508 0.02895 0.0
C4327 C 0.49442 0.38332 0.04161 0.0
H4328 H 0.46085 0.3697 0.00564 0.0
H4329 H 0.58688 0.36681 0.14006 0.0
H4330 H 0.02747 0.31143 0.36457 0.0
H4331 H 1.00172 0.32102 0.35302 0.0
H4332 H 0.01905 0.31321 0.29634 0.0
H4333 H 0.04519 0.30352 0.30803 0.0
H4334 H 0.00704 0.34662 0.3063 0.0
H4335 H 0.98588 0.27757 0.30753 0.0
H4336 H 0.98132 0.24868 0.32223 0.0
H4337 H 0.95262 0.27711 0.36478 0.0
H4338 H 0.95725 0.3063 0.35052 0.0
H4339 H 0.92296 0.34667 0.26139 0.0
H4340 H 0.95117 0.33989 0.27098 0.0
H4341 H 0.93536 0.34061 0.32788 0.0
H4342 H 0.90694 0.34658 0.31806 0.0
H4343 H 0.94693 0.3097 0.31593 0.0
H4344 H 0.96852 0.37896 0.31669 0.0
H4345 H 0.97326 0.40885 0.30346 0.0
H4346 H 1.00109 0.38166 0.25918 0.0
H4347 H 0.99628 0.35149 0.27199 0.0
C4348 C 0.02568 0.31125 0.34959 0.0
C4349 C 0.038 0.30599 0.33705 0.0
C4350 C 0.011 0.31696 0.34303 0.0
C4351 C 0.00824 0.31729 0.32373 0.0
C4352 C 0.02088 0.31281 0.31126 0.0
C4353 C 0.03572 0.30726 0.31792 0.0
C4354 C 0.99205 0.32218 0.31668 0.0
C4355 C 0.99386 0.3384 0.30812 0.0
C4356 C 0.97492 0.31175 0.31955 0.0
C4357 C 0.97205 0.29416 0.32805 0.0
C4358 C 0.97871 0.27771 0.3201 0.0
C4359 C 0.9761 0.26128 0.32835 0.0
C4360 C 0.96672 0.26108 0.34446 0.0
C4361 C 0.9599 0.27729 0.35232 0.0
C4362 C 0.9625 0.29377 0.34416 0.0
C4363 C 0.92569 0.34564 0.27599 0.0
C4364 C 0.91289 0.3471 0.28902 0.0
C4365 C 0.94179 0.34185 0.28149 0.0
C4366 C 0.94545 0.33993 0.30021 0.0
C4367 C 0.93281 0.34198 0.31335 0.0
C4368 C 0.91663 0.34541 0.30777 0.0
C4369 C 0.96185 0.33445 0.30585 0.0
C4370 C 0.96008 0.31799 0.31406 0.0
C4371 C 0.97898 0.34483 0.30286 0.0
C4372 C 0.98186 0.36291 0.29516 0.0
C4373 C 0.97551 0.3793 0.30403 0.0
C4374 C 0.97823 0.3963 0.29663 0.0
C4375 C 0.98742 0.39713 0.28046 0.0
C4376 C 0.99395 0.38098 0.27168 0.0
C4377 C 0.99123 0.36394 0.27901 0.0
H4378 H 0.98951 0.4103 0.27474 0.0
H4379 H 0.96472 0.24834 0.35082 0.0
H4380 H 0.01204 0.72441 0.6597 0.0
H4381 H 0.01816 0.69233 0.64608 0.0
H4382 H 0.98392 0.68632 0.59504 0.0
H4383 H 0.97705 0.71812 0.60906 0.0
H4384 H 0.98116 0.65104 0.60329 0.0
H4385 H 0.02967 0.70557 0.59803 0.0
H4386 H 0.05259 0.73682 0.61083 0.0
H4387 H 0.07725 0.70833 0.64774 0.0
H4388 H 0.05434 0.67694 0.63529 0.0
H4389 H 0.01945 0.59059 0.53489 0.0
H4390 H 0.00838 0.61689 0.55434 0.0
H4391 H 0.04276 0.617 0.60327 0.0
H4392 H 0.05444 0.59097 0.58365 0.0
H4393 H 0.04518 0.65387 0.59842 0.0
H4394 H 0.99808 0.59794 0.60065 0.0
H4395 H 0.97523 0.56684 0.58712 0.0
H4396 H 0.94802 0.59774 0.55514 0.0
H4397 H 0.97086 0.62899 0.56825 0.0
C4398 C 0.00564 0.71613 0.64566 0.0
C4399 C 0.99428 0.72383 0.63528 0.0
C4400 C 0.00917 0.69784 0.6379 0.0
C4401 C 1.00187 0.68723 0.61936 0.0
C4402 C 0.98977 0.69436 0.60934 0.0
C4403 C 0.9859 0.71252 0.61731 0.0
C4404 C 0.00787 0.66953 0.60994 0.0
C4405 C 0.99513 0.65166 0.60208 0.0
C4406 C 0.02615 0.67029 0.60875 0.0
C4407 C 0.04021 0.68898 0.61585 0.0
C4408 C 0.03995 0.70599 0.60892 0.0
C4409 C 0.05293 0.72373 0.61611 0.0
C4410 C 0.06634 0.72457 0.63012 0.0
C4411 C 0.06685 0.70765 0.6369 0.0
C4412 C 0.05389 0.68988 0.62976 0.0
C4413 C 0.02475 0.59621 0.54977 0.0
C4414 C 0.03804 0.58892 0.55767 0.0
C4415 C 0.01822 0.61109 0.56093 0.0
C4416 C 0.02463 0.61872 0.58028 0.0
C4417 C 0.03764 0.61122 0.58835 0.0
C4418 C 0.04426 0.59635 0.57714 0.0
C4419 C 0.01848 0.63538 0.59168 0.0
C4420 C 0.03121 0.65313 0.59984 0.0
C4421 C 1.00021 0.63449 0.59303 0.0
C4422 C 0.98626 0.61579 0.58535 0.0
C4423 C 0.98729 0.59808 0.59064 0.0
C4424 C 0.97433 0.58043 0.58306 0.0
C4425 C 0.9602 0.5803 0.57025 0.0
C4426 C 0.95897 0.59786 0.56506 0.0
C4427 C 0.97191 0.61556 0.57258 0.0
H4428 H 0.95019 0.56661 0.56438 0.0
H4429 H 0.07636 0.73833 0.63569 0.0
H4430 H 0.63861 0.79151 0.86315 0.0
H4431 H 0.66824 0.79636 0.85241 0.0
H4432 H 0.66081 0.84696 0.8317 0.0
H4433 H 0.63091 0.84199 0.84212 0.0
H4434 H 0.67305 0.82275 0.80534 0.0
H4435 H 0.69021 0.85417 0.87033 0.0
H4436 H 0.69075 0.85882 0.90535 0.0
H4437 H 0.71101 0.80692 0.90235 0.0
H4438 H 0.71033 0.80177 0.86727 0.0
H4439 H 0.7617 0.82593 0.77727 0.0
H4440 H 0.73427 0.83335 0.78828 0.0
H4441 H 0.73323 0.79364 0.82647 0.0
H4442 H 0.76237 0.78982 0.81814 0.0
H4443 H 0.7267 0.82252 0.84516 0.0
H4444 H 0.70088 0.78874 0.77621 0.0
H4445 H 0.69946 0.78788 0.7415 0.0
H4446 H 0.69693 0.84895 0.7533 0.0
H4447 H 0.69797 0.85011 0.78788 0.0
C4448 C 0.64334 0.80385 0.85656 0.0
C4449 C 0.63241 0.81633 0.85343 0.0
C4450 C 0.66032 0.80666 0.8505 0.0
C4451 C 0.66675 0.82213 0.84142 0.0
C4452 C 0.65607 0.83496 0.83872 0.0
C4453 C 0.63903 0.83212 0.84473 0.0
C4454 C 0.68417 0.82389 0.83366 0.0
C4455 C 0.68485 0.82279 0.81405 0.0
C4456 C 0.69962 0.82447 0.84507 0.0
C4457 C 0.70013 0.82754 0.86617 0.0
C4458 C 0.69467 0.84367 0.87713 0.0
C4459 C 0.69501 0.84641 0.89699 0.0
C4460 C 0.70089 0.83316 0.90606 0.0
C4461 C 0.70646 0.81717 0.8953 0.0
C4462 C 0.70613 0.81435 0.87543 0.0
C4463 C 0.75521 0.81844 0.78764 0.0
C4464 C 0.76352 0.80649 0.79626 0.0
C4465 C 0.73939 0.82253 0.79385 0.0
C4466 C 0.73114 0.81372 0.80797 0.0
C4467 C 0.73919 0.80084 0.81568 0.0
C4468 C 0.75563 0.79811 0.81057 0.0
C4469 C 0.71516 0.81895 0.81629 0.0
C4470 C 0.71488 0.82206 0.83627 0.0
C4471 C 0.70017 0.82043 0.80521 0.0
C4472 C 0.6997 0.81953 0.7845 0.0
C4473 C 0.70011 0.80195 0.77132 0.0
C4474 C 0.69938 0.80141 0.75174 0.0
C4475 C 0.69833 0.81835 0.74525 0.0
C4476 C 0.69782 0.83586 0.75832 0.0
C4477 C 0.6984 0.83644 0.77788 0.0
H4478 H 0.6978 0.81787 0.73009 0.0
H4479 H 0.70114 0.83531 0.92145 0.0
H4480 H 0.45408 0.54645 0.7126 0.0
H4481 H 0.46601 0.54 0.68124 0.0
H4482 H 0.4846 0.60313 0.6864 0.0
H4483 H 0.47277 0.60955 0.7173 0.0
H4484 H 0.47275 0.58794 0.65092 0.0
H4485 H 0.5128 0.57097 0.69319 0.0
H4486 H 0.52189 0.55337 0.71654 0.0
H4487 H 0.50184 0.49731 0.67606 0.0
H4488 H 0.49239 0.51459 0.65257 0.0
H4489 H 0.53713 0.58733 0.58104 0.0
H4490 H 0.52317 0.5912 0.61121 0.0
H4491 H 0.49778 0.52852 0.59706 0.0
H4492 H 0.51124 0.52469 0.56671 0.0
H4493 H 0.51229 0.54208 0.63621 0.0
H4494 H 0.47325 0.55961 0.59358 0.0
H4495 H 0.46501 0.57762 0.5702 0.0
H4496 H 0.48401 0.63322 0.61163 0.0
H4497 H 0.49265 0.61553 0.63516 0.0
C4498 C 0.46056 0.55899 0.70703 0.0
C4499 C 0.4623 0.5786 0.71791 0.0
C4500 C 0.46761 0.55528 0.68898 0.0
C4501 C 0.4766 0.57102 0.68102 0.0
C4502 C 0.47787 0.59052 0.69174 0.0
C4503 C 0.47103 0.59419 0.7097 0.0
C4504 C 0.48481 0.56757 0.66186 0.0
C4505 C 0.48154 0.57803 0.64797 0.0
C4506 C 0.49618 0.55444 0.65718 0.0
C4507 C 0.50169 0.54403 0.67126 0.0
C4508 C 0.51018 0.55487 0.68935 0.0
C4509 C 0.51542 0.54497 0.70259 0.0
C4510 C 0.51239 0.52423 0.69781 0.0
C4511 C 0.50414 0.51337 0.67976 0.0
C4512 C 0.49883 0.5232 0.66648 0.0
C4513 C 0.52856 0.57432 0.58425 0.0
C4514 C 0.52542 0.55567 0.57103 0.0
C4515 C 0.52049 0.57656 0.60166 0.0
C4516 C 0.50922 0.56019 0.60682 0.0
C4517 C 0.50634 0.54151 0.59379 0.0
C4518 C 0.51407 0.53935 0.57621 0.0
C4519 C 0.50029 0.56257 0.62549 0.0
C4520 C 0.50346 0.55193 0.63922 0.0
C4521 C 0.4889 0.5756 0.63008 0.0
C4522 C 0.48378 0.58629 0.61603 0.0
C4523 C 0.47583 0.5757 0.59763 0.0
C4524 C 0.47106 0.58584 0.58437 0.0
C4525 C 0.47403 0.60656 0.58941 0.0
C4526 C 0.48175 0.61717 0.60773 0.0
C4527 C 0.48659 0.6071 0.62104 0.0
H4528 H 0.47031 0.6144 0.57913 0.0
H4529 H 0.51647 0.51658 0.70807 0.0
H4530 H 0.77352 0.18686 0.97023 0.0
H4531 H 0.76771 0.20405 0.94582 0.0
H4532 H 0.82402 0.22379 0.94217 0.0
H4533 H 0.83004 0.20599 0.96645 0.0
H4534 H 0.77553 0.24097 0.9427 0.0
H4535 H 0.82916 0.22457 0.89406 0.0
H4536 H 0.84848 0.20126 0.88726 0.0
H4537 H 0.80984 0.15644 0.90495 0.0
H4538 H 0.7902 0.1794 0.91156 0.0
H4539 H 0.76628 0.28295 0.86291 0.0
H4540 H 0.78051 0.2741 0.88966 0.0
H4541 H 0.76057 0.21176 0.86246 0.0
H4542 H 0.74685 0.2205 0.83526 0.0
H4543 H 0.79464 0.21987 0.8782 0.0
H4544 H 0.73919 0.23424 0.89705 0.0
H4545 H 0.71774 0.25511 0.90299 0.0
H4546 H 0.75639 0.29965 0.94386 0.0
H4547 H 0.77815 0.27913 0.93794 0.0
C4548 C 0.78475 0.19497 0.96441 0.0
C4549 C 0.80226 0.19487 0.97016 0.0
C4550 C 0.78138 0.20489 0.9505 0.0
C4551 C 0.79541 0.21499 0.94204 0.0
C4552 C 0.813 0.21582 0.94837 0.0
C4553 C 0.81641 0.20576 0.96231 0.0
C4554 C 0.79122 0.22363 0.92595 0.0
C4555 C 0.77991 0.23656 0.92866 0.0
C4556 C 0.79682 0.21777 0.9076 0.0
C4557 C 0.80839 0.20378 0.9036 0.0
C4558 C 0.82481 0.20973 0.89648 0.0
C4559 C 0.8358 0.19658 0.89264 0.0
C4560 C 0.83043 0.17741 0.89577 0.0
C4561 C 0.81402 0.17132 0.90263 0.0
C4562 C 0.80296 0.18439 0.90644 0.0
C4563 C 0.76511 0.26736 0.86249 0.0
C4564 C 0.75531 0.25239 0.84705 0.0
C4565 C 0.77317 0.26234 0.87783 0.0
C4566 C 0.77143 0.2423 0.87807 0.0
C4567 C 0.76203 0.22733 0.8625 0.0
C4568 C 0.75401 0.23233 0.84712 0.0
C4569 C 0.77867 0.23683 0.89493 0.0
C4570 C 0.79059 0.22461 0.89235 0.0
C4571 C 0.77338 0.24302 0.91334 0.0
C4572 C 0.76033 0.25531 0.91688 0.0
C4573 C 0.74314 0.24857 0.90718 0.0
C4574 C 0.73093 0.26031 0.91056 0.0
C4575 C 0.73572 0.27873 0.92374 0.0
C4576 C 0.75272 0.28541 0.93362 0.0
C4577 C 0.76499 0.27374 0.93025 0.0
H4578 H 0.72624 0.2878 0.92635 0.0
H4579 H 0.83896 0.16726 0.89281 0.0
H4580 H 0.17847 0.53496 0.16314 0.0
H4581 H 0.15389 0.54671 0.15188 0.0
H4582 H 0.12062 0.51924 0.19002 0.0
H4583 H 0.14533 0.50658 0.20075 0.0
H4584 H 0.10576 0.50701 0.15454 0.0
H4585 H 0.13037 0.57065 0.19466 0.0
H4586 H 0.15467 0.59949 0.21061 0.0
H4587 H 0.16639 0.61225 0.15622 0.0
H4588 H 0.1424 0.58327 0.13987 0.0
H4589 H 0.04635 0.52541 0.08678 0.0
H4590 H 0.06009 0.5276 0.11862 0.0
H4591 H 0.11081 0.55621 0.1029 0.0
H4592 H 0.09689 0.55596 0.07208 0.0
H4593 H 0.10923 0.572 0.13796 0.0
H4594 H 0.09442 0.50231 0.0997 0.0
H4595 H 0.07271 0.47169 0.08207 0.0
H4596 H 0.04474 0.46996 0.13205 0.0
H4597 H 0.06621 0.50068 0.14988 0.0
C4598 C 0.16608 0.53192 0.16955 0.0
C4599 C 0.16377 0.52003 0.18291 0.0
C4600 C 0.15205 0.53882 0.16325 0.0
C4601 C 0.13545 0.53414 0.17033 0.0
C4602 C 0.1334 0.52323 0.18457 0.0
C4603 C 0.14753 0.51622 0.19087 0.0
C4604 C 0.11993 0.53794 0.1604 0.0
C4605 C 0.10617 0.5214 0.15143 0.0
C4606 C 0.12055 0.55666 0.15623 0.0
C4607 C 0.13447 0.57477 0.16603 0.0
C4608 C 0.1381 0.57961 0.18608 0.0
C4609 C 0.15186 0.59596 0.1952 0.0
C4610 C 0.16205 0.60771 0.18444 0.0
C4611 C 0.15844 0.60317 0.16454 0.0
C4612 C 0.14472 0.5868 0.15534 0.0
C4613 C 0.06027 0.53273 0.09033 0.0
C4614 C 0.07035 0.54082 0.07693 0.0
C4615 C 0.0682 0.53373 0.10848 0.0
C4616 C 0.08656 0.54194 0.11318 0.0
C4617 C 0.0966 0.55002 0.09979 0.0
C4618 C 0.08859 0.54962 0.08198 0.0
C4619 C 0.09593 0.54077 0.13118 0.0
C4620 C 0.10841 0.55784 0.14172 0.0
C4621 C 0.09436 0.52249 0.13663 0.0
C4622 C 0.08178 0.50381 0.12604 0.0
C4623 C 0.08362 0.49538 0.10689 0.0
C4624 C 0.07135 0.47804 0.09686 0.0
C4625 C 0.05733 0.46891 0.10592 0.0
C4626 C 0.05559 0.47706 0.12504 0.0
C4627 C 0.0678 0.49441 0.13512 0.0
H4628 H 0.04784 0.45551 0.09813 0.0
H4629 H 0.17275 0.62031 0.19152 0.0
H4630 H 0.82272 0.8353 0.48956 0.0
H4631 H 0.81922 0.82075 0.4552 0.0
H4632 H 0.78795 0.86148 0.44602 0.0
H4633 H 0.79102 0.87582 0.48054 0.0
H4634 H 0.77512 0.82685 0.42162 0.0
H4635 H 0.83292 0.87057 0.44088 0.0
H4636 H 0.86228 0.88376 0.45954 0.0
H4637 H 0.87589 0.82826 0.43816 0.0
H4638 H 0.84644 0.8146 0.41965 0.0
H4639 H 0.80415 0.84304 0.33097 0.0
H4640 H 0.80531 0.84789 0.36577 0.0
H4641 H 0.80077 0.78517 0.36017 0.0
H4642 H 0.79881 0.78006 0.32502 0.0
H4643 H 0.83127 0.82714 0.39131 0.0
H4644 H 0.77042 0.78385 0.37253 0.0
H4645 H 0.74189 0.77463 0.35227 0.0
H4646 H 0.7354 0.834 0.37155 0.0
H4647 H 0.76409 0.84364 0.39166 0.0
C4648 C 0.81484 0.84098 0.48031 0.0
C4649 C 0.80728 0.85689 0.48788 0.0
C4650 C 0.81293 0.83269 0.4606 0.0
C4651 C 0.80367 0.84029 0.44789 0.0
C4652 C 0.79524 0.85538 0.45548 0.0
C4653 C 0.797 0.86358 0.47526 0.0
C4654 C 0.80367 0.83332 0.42675 0.0
C4655 C 0.78743 0.82684 0.4151 0.0
C4656 C 0.81969 0.83329 0.418 0.0
C4657 C 0.8374 0.84148 0.42909 0.0
C4658 C 0.84211 0.86112 0.44029 0.0
C4659 C 0.85878 0.8687 0.45082 0.0
C4660 C 0.87094 0.85685 0.45007 0.0
C4661 C 0.86645 0.83741 0.43876 0.0
C4662 C 0.84977 0.82974 0.42826 0.0
C4663 C 0.80355 0.8303 0.33717 0.0
C4664 C 0.80175 0.81125 0.32538 0.0
C4665 C 0.80421 0.83309 0.35701 0.0
C4666 C 0.80305 0.8169 0.36548 0.0
C4667 C 0.80162 0.79784 0.35383 0.0
C4668 C 0.80069 0.79496 0.33383 0.0
C4669 C 0.80279 0.82025 0.38651 0.0
C4670 C 0.819 0.82653 0.39804 0.0
C4671 C 0.78683 0.82035 0.39512 0.0
C4672 C 0.76945 0.8145 0.3834 0.0
C4673 C 0.76298 0.79497 0.37229 0.0
C4674 C 0.74677 0.78967 0.36087 0.0
C4675 C 0.73686 0.80374 0.36058 0.0
C4676 C 0.74311 0.82313 0.37177 0.0
C4677 C 0.75933 0.82852 0.38318 0.0
H4678 H 0.72431 0.7996 0.35173 0.0
H4679 H 0.88385 0.86275 0.45821 0.0
H4680 H 0.48307 0.55976 0.81829 0.0
H4681 H 0.49703 0.55555 0.84766 0.0
H4682 H 0.45514 0.57362 0.87864 0.0
H4683 H 0.44158 0.57889 0.84914 0.0
H4684 H 0.48211 0.58747 0.90223 0.0
H4685 H 0.46248 0.52108 0.86398 0.0
H4686 H 0.45937 0.4935 0.83551 0.0
H4687 H 0.51596 0.50099 0.83988 0.0
H4688 H 0.51942 0.52879 0.86823 0.0
H4689 H 0.49859 0.54869 0.98304 0.0
H4690 H 0.48671 0.55246 0.95244 0.0
H4691 H 0.53716 0.55189 0.93035 0.0
H4692 H 0.54945 0.54869 0.96166 0.0
H4693 H 0.50701 0.52914 0.90246 0.0
H4694 H 0.52561 0.59503 0.94233 0.0
H4695 H 0.52742 0.62115 0.97168 0.0
H4696 H 0.47076 0.61274 0.96497 0.0
H4697 H 0.46859 0.58633 0.9357 0.0
C4698 C 0.47665 0.56278 0.83127 0.0
C4699 C 0.46091 0.56957 0.83087 0.0
C4700 C 0.48469 0.56014 0.84833 0.0
C4701 C 0.47721 0.56363 0.86596 0.0
C4702 C 0.46149 0.57059 0.86562 0.0
C4703 C 0.45356 0.57354 0.84851 0.0
C4704 C 0.48588 0.5604 0.8845 0.0
C4705 C 0.48726 0.57449 0.90207 0.0
C4706 C 0.49325 0.54379 0.88508 0.0
C4707 C 0.49121 0.52712 0.86809 0.0
C4708 C 0.47426 0.51692 0.85878 0.0
C4709 C 0.47244 0.50125 0.84268 0.0
C4710 C 0.48746 0.49553 0.83587 0.0
C4711 C 0.50434 0.50545 0.84516 0.0
C4712 C 0.50624 0.52116 0.86125 0.0
C4713 C 0.50728 0.54921 0.97171 0.0
C4714 C 0.52504 0.54806 0.97513 0.0
C4715 C 0.50038 0.55147 0.95402 0.0
C4716 C 0.51083 0.55267 0.93864 0.0
C4717 C 0.52857 0.55104 0.94172 0.0
C4718 C 0.53565 0.54909 0.95973 0.0
C4719 C 0.50314 0.55617 0.91991 0.0
C4720 C 0.50189 0.54212 0.90243 0.0
C4721 C 0.49567 0.57265 0.91943 0.0
C4722 C 0.49693 0.58861 0.93691 0.0
C4723 C 0.51352 0.59866 0.94719 0.0
C4724 C 0.51462 0.61353 0.9638 0.0
C4725 C 0.49921 0.61859 0.97021 0.0
C4726 C 0.48268 0.6088 0.95999 0.0
C4727 C 0.48152 0.59389 0.94338 0.0
H4728 H 0.50009 0.63012 0.98308 0.0
H4729 H 0.48602 0.48339 0.8234 0.0
H4730 H 0.8328 0.20207 0.06944 0.0
H4731 H 0.82737 0.22027 0.10071 0.0
H4732 H 0.77084 0.20034 0.08455 0.0
H4733 H 0.77607 0.18168 0.05356 0.0
H4734 H 0.8108 0.25023 0.11108 0.0
H4735 H 0.75061 0.19332 0.11719 0.0
H4736 H 0.73737 0.15728 0.10578 0.0
H4737 H 0.78899 0.1457 0.11171 0.0
H4738 H 0.80254 0.18183 0.12266 0.0
H4739 H 0.78559 0.29322 0.20241 0.0
H4740 H 0.78492 0.27827 0.16825 0.0
H4741 H 0.79896 0.22712 0.18231 0.0
H4742 H 0.79807 0.24129 0.21612 0.0
H4743 H 0.77643 0.21389 0.15448 0.0
H4744 H 0.83347 0.26973 0.16088 0.0
H4745 H 0.84998 0.30509 0.1672 0.0
H4746 H 0.80738 0.3184 0.13636 0.0
H4747 H 0.79107 0.28298 0.12911 0.0
C4748 C 0.81922 0.20156 0.07254 0.0
C4749 C 0.80489 0.19029 0.05905 0.0
C4750 C 0.81614 0.212 0.09038 0.0
C4751 C 0.7987 0.21142 0.09504 0.0
C4752 C 0.78439 0.20062 0.08143 0.0
C4753 C 0.78744 0.19003 0.06368 0.0
C4754 C 0.79559 0.22189 0.11428 0.0
C4755 C 0.80328 0.24232 0.12061 0.0
C4756 C 0.78557 0.21171 0.12657 0.0
C4757 C 0.7775 0.1901 0.12075 0.0
C4758 C 0.75906 0.18302 0.11618 0.0
C4759 C 0.75153 0.1626 0.1097 0.0
C4760 C 0.76231 0.14915 0.10812 0.0
C4761 C 0.78066 0.15612 0.11294 0.0
C4762 C 0.78828 0.17656 0.11917 0.0
C4763 C 0.78839 0.27872 0.19805 0.0
C4764 C 0.79163 0.26824 0.21176 0.0
C4765 C 0.7883 0.27029 0.17854 0.0
C4766 C 0.79222 0.25164 0.17252 0.0
C4767 C 0.79571 0.24141 0.18642 0.0
C4768 C 0.7952 0.2495 0.20578 0.0
C4769 C 0.79246 0.2423 0.1519 0.0
C4770 C 0.78396 0.22199 0.14509 0.0
C4771 C 0.80184 0.25263 0.1392 0.0
C4772 C 0.81099 0.27394 0.14478 0.0
C4773 C 0.82761 0.28028 0.15562 0.0
C4774 C 0.83698 0.30025 0.1592 0.0
C4775 C 0.82964 0.31401 0.15238 0.0
C4776 C 0.81302 0.30777 0.14173 0.0
C4777 C 0.80379 0.28774 0.13772 0.0
H4778 H 0.83689 0.32948 0.15528 0.0
H4779 H 0.75648 0.13335 0.10311 0.0
H4780 H 0.15498 0.5138 0.2917 0.0
H4781 H 0.13685 0.52187 0.31735 0.0
H4782 H 0.10419 0.54255 0.27998 0.0
H4783 H 0.12265 0.53451 0.2538 0.0
H4784 H 0.11431 0.5684 0.31671 0.0
H4785 H 0.08688 0.50032 0.29044 0.0
H4786 H 0.08499 0.46473 0.27738 0.0
H4787 H 0.1087 0.46061 0.33103 0.0
H4788 H 0.11105 0.49629 0.3443 0.0
H4789 H 0.05612 0.57401 0.39154 0.0
H4790 H 0.06591 0.56362 0.36 0.0
H4791 H 0.10818 0.54454 0.38558 0.0
H4792 H 0.09918 0.55586 0.41732 0.0
H4793 H 0.08794 0.51699 0.35133 0.0
H4794 H 0.11914 0.58623 0.37534 0.0
H4795 H 0.12086 0.62179 0.38841 0.0
H4796 H 0.0891 0.62324 0.33849 0.0
H4797 H 0.08696 0.58755 0.32527 0.0
C4798 C 0.14402 0.52016 0.28882 0.0
C4799 C 0.14031 0.52361 0.2707 0.0
C4800 C 0.13357 0.52461 0.30352 0.0
C4801 C 0.11906 0.53256 0.3005 0.0
C4802 C 0.11531 0.53629 0.28251 0.0
C4803 C 0.1258 0.53167 0.26761 0.0
C4804 C 0.10829 0.53718 0.31655 0.0
C4805 C 0.10812 0.55709 0.324 0.0
C4806 C 0.1005 0.52246 0.32624 0.0
C4807 C 0.09923 0.50102 0.31832 0.0
C4808 C 0.09184 0.49188 0.2994 0.0
C4809 C 0.09066 0.47168 0.29196 0.0
C4810 C 0.09674 0.46042 0.30336 0.0
C4811 C 0.104 0.46935 0.32221 0.0
C4812 C 0.10525 0.48956 0.32971 0.0
C4813 C 0.0676 0.56777 0.39055 0.0
C4814 C 0.07697 0.56602 0.4071 0.0
C4815 C 0.07306 0.5617 0.37248 0.0
C4816 C 0.0878 0.55346 0.37055 0.0
C4817 C 0.09673 0.55085 0.38684 0.0
C4818 C 0.09147 0.55722 0.40497 0.0
C4819 C 0.09436 0.54819 0.35164 0.0
C4820 C 0.09376 0.52819 0.34376 0.0
C4821 C 0.10136 0.56279 0.34153 0.0
C4822 C 0.10269 0.5842 0.34945 0.0
C4823 C 0.11237 0.59408 0.36725 0.0
C4824 C 0.11345 0.61427 0.37466 0.0
C4825 C 0.10504 0.62475 0.36432 0.0
C4826 C 0.09557 0.61509 0.34651 0.0
C4827 C 0.09442 0.59489 0.33905 0.0
H4828 H 0.1059 0.64039 0.37007 0.0
H4829 H 0.0958 0.44478 0.29758 0.0
H4830 H 0.78346 0.88304 0.59514 0.0
H4831 H 0.77733 0.87227 0.62489 0.0
H4832 H 0.80578 0.82675 0.60871 0.0
H4833 H 0.8122 0.83759 0.57915 0.0
H4834 H 0.77278 0.81465 0.62581 0.0
H4835 H 0.82784 0.86772 0.63756 0.0
H4836 H 0.84476 0.90166 0.63732 0.0
H4837 H 0.80866 0.92645 0.67272 0.0
H4838 H 0.79151 0.89264 0.6731 0.0
H4839 H 0.79953 0.78924 0.70965 0.0
H4840 H 0.79677 0.7994 0.67949 0.0
H4841 H 0.78124 0.85168 0.70915 0.0
H4842 H 0.78404 0.84131 0.73947 0.0
H4843 H 0.80373 0.86193 0.68563 0.0
H4844 H 0.75034 0.81252 0.67796 0.0
H4845 H 0.72931 0.78049 0.67723 0.0
H4846 H 0.75686 0.75051 0.63447 0.0
H4847 H 0.77806 0.78242 0.63493 0.0
C4848 C 0.78801 0.8704 0.59767 0.0
C4849 C 0.7983 0.86114 0.58474 0.0
C4850 C 0.78463 0.86438 0.61476 0.0
C4851 C 0.79125 0.84884 0.61908 0.0
C4852 C 0.80056 0.83879 0.60567 0.0
C4853 C 0.8042 0.84499 0.58876 0.0
C4854 C 0.78955 0.8438 0.63804 0.0
C4855 C 0.77966 0.82488 0.63889 0.0
C4856 C 0.79786 0.85747 0.6552 0.0
C4857 C 0.80834 0.87772 0.65522 0.0
C4858 C 0.82349 0.88043 0.64522 0.0
C4859 C 0.83314 0.89963 0.64509 0.0
C4860 C 0.82779 0.91621 0.655 0.0
C4861 C 0.81281 0.91361 0.66509 0.0
C4862 C 0.80314 0.89444 0.66529 0.0
C4863 C 0.79512 0.80263 0.7096 0.0
C4864 C 0.79147 0.81422 0.72665 0.0
C4865 C 0.79358 0.80848 0.69238 0.0
C4866 C 0.78838 0.8261 0.69187 0.0
C4867 C 0.78507 0.83792 0.70908 0.0
C4868 C 0.78662 0.83201 0.72636 0.0
C4869 C 0.78726 0.83245 0.67347 0.0
C4870 C 0.79667 0.85165 0.67267 0.0
C4871 C 0.77807 0.81919 0.65641 0.0
C4872 C 0.76586 0.79983 0.6566 0.0
C4873 C 0.75202 0.79907 0.66854 0.0
C4874 C 0.74001 0.78095 0.66809 0.0
C4875 C 0.74174 0.76347 0.6558 0.0
C4876 C 0.75551 0.76407 0.64395 0.0
C4877 C 0.7675 0.78218 0.64426 0.0
H4878 H 0.73244 0.74945 0.65552 0.0
H4879 H 0.83526 0.93106 0.65486 0.0
H4880 H 0.7826 0.49189 0.49619 0.0
H4881 H 0.75811 0.5082 0.49752 0.0
H4882 H 0.73169 0.47012 0.53225 0.0
H4883 H 0.75633 0.45379 0.53126 0.0
H4884 H 0.70885 0.47804 0.50204 0.0
H4885 H 0.75358 0.51144 0.55539 0.0
H4886 H 0.78421 0.52774 0.56997 0.0
H4887 H 0.78721 0.57199 0.53703 0.0
H4888 H 0.75667 0.55573 0.52203 0.0
H4889 H 0.65133 0.53345 0.54633 0.0
H4890 H 0.67361 0.51435 0.5394 0.0
H4891 H 0.70464 0.56095 0.51616 0.0
H4892 H 0.68233 0.58023 0.52315 0.0
H4893 H 0.72521 0.54854 0.53875 0.0
H4894 H 0.68074 0.51725 0.48636 0.0
H4895 H 0.65061 0.50108 0.47025 0.0
H4896 H 0.64716 0.45373 0.49939 0.0
H4897 H 0.67729 0.46962 0.51572 0.0
C4898 C 0.77144 0.48668 0.50381 0.0
C4899 C 0.77146 0.47165 0.51375 0.0
C4900 C 0.75749 0.49605 0.50457 0.0
C4901 C 0.74326 0.49042 0.5151 0.0
C4902 C 0.74263 0.4746 0.52405 0.0
C4903 C 0.75671 0.46536 0.5235 0.0
C4904 C 0.72988 0.50222 0.51813 0.0
C4905 C 0.71231 0.49338 0.51022 0.0
C4906 C 0.73464 0.52237 0.52834 0.0
C4907 C 0.75294 0.53224 0.53743 0.0
C4908 C 0.76084 0.52454 0.55113 0.0
C4909 C 0.77817 0.53379 0.55949 0.0
C4910 C 0.78767 0.55086 0.55439 0.0
C4911 C 0.77984 0.55874 0.54095 0.0
C4912 C 0.76253 0.54952 0.53251 0.0
C4913 C 0.66286 0.53958 0.53964 0.0
C4914 C 0.66509 0.55829 0.5352 0.0
C4915 C 0.67554 0.52863 0.53564 0.0
C4916 C 0.69061 0.53609 0.52696 0.0
C4917 C 0.69305 0.55492 0.5228 0.0
C4918 C 0.68037 0.56594 0.52688 0.0
C4919 C 0.70402 0.5244 0.52272 0.0
C4920 C 0.72166 0.53324 0.53044 0.0
C4921 C 0.69933 0.50433 0.51215 0.0
C4922 C 0.68121 0.49471 0.50239 0.0
C4923 C 0.67351 0.50346 0.48944 0.0
C4924 C 0.65644 0.49434 0.48026 0.0
C4925 C 0.64694 0.47646 0.48388 0.0
C4926 C 0.65453 0.4676 0.49663 0.0
C4927 C 0.67162 0.47663 0.50581 0.0
H4928 H 0.63372 0.46944 0.47676 0.0
H4929 H 0.80109 0.558 0.56088 0.0
H4930 H 0.2417 0.14652 0.54009 0.0
H4931 H 0.21081 0.1274 0.53483 0.0
H4932 H 0.20457 0.14412 0.48119 0.0
H4933 H 0.23562 0.16356 0.48644 0.0
H4934 H 0.1749 0.14454 0.50114 0.0
H4935 H 0.21059 0.09913 0.48045 0.0
H4936 H 0.23533 0.0831 0.48285 0.0
H4937 H 0.21517 0.06302 0.53166 0.0
H4938 H 0.19048 0.07922 0.52974 0.0
H4939 H 0.09323 0.06674 0.47563 0.0
H4940 H 0.12379 0.08514 0.47308 0.0
H4941 H 0.1396 0.08142 0.53021 0.0
H4942 H 0.10929 0.06347 0.53285 0.0
H4943 H 0.16414 0.0733 0.50316 0.0
H4944 H 0.13058 0.12192 0.52577 0.0
H4945 H 0.1055 0.1374 0.52328 0.0
H4946 H 0.12132 0.15072 0.47017 0.0
H4947 H 0.14639 0.13504 0.47225 0.0
C4948 C 0.23378 0.14632 0.52723 0.0
C4949 C 0.24123 0.15647 0.51361 0.0
C4950 C 0.21609 0.1353 0.52421 0.0
C4951 C 0.20544 0.13402 0.50745 0.0
C4952 C 0.21256 0.14481 0.49419 0.0
C4953 C 0.23032 0.1559 0.49721 0.0
C4954 C 0.18715 0.12075 0.50365 0.0
C4955 C 0.17258 0.12889 0.50121 0.0
C4956 C 0.18401 0.10032 0.50386 0.0
C4957 C 0.19878 0.0905 0.50502 0.0
C4958 C 0.21152 0.09141 0.49178 0.0
C4959 C 0.22552 0.08229 0.49304 0.0
C4960 C 0.22684 0.07207 0.50742 0.0
C4961 C 0.21414 0.07094 0.52054 0.0
C4962 C 0.20013 0.08008 0.51936 0.0
C4963 C 0.10337 0.06962 0.48745 0.0
C4964 C 0.099 0.0639 0.50447 0.0
C4965 C 0.12072 0.08019 0.48605 0.0
C4966 C 0.1339 0.08475 0.50153 0.0
C4967 C 0.12964 0.07809 0.51813 0.0
C4968 C 0.11233 0.06793 0.51965 0.0
C4969 C 0.15199 0.09719 0.50106 0.0
C4970 C 0.16651 0.08888 0.50274 0.0
C4971 C 0.15504 0.11739 0.50012 0.0
C4972 C 0.14019 0.1271 0.49903 0.0
C4973 C 0.12862 0.12801 0.51349 0.0
C4974 C 0.11442 0.13683 0.51216 0.0
C4975 C 0.11175 0.14494 0.49651 0.0
C4976 C 0.12337 0.14437 0.48224 0.0
C4977 C 0.13758 0.13553 0.48349 0.0
H4978 H 0.10071 0.15169 0.49544 0.0
H4979 H 0.23769 0.06501 0.50838 0.0
H4980 H 0.20234 0.95784 0.74242 0.0
H4981 H 0.21773 0.93068 0.73973 0.0
H4982 H 0.21913 0.93681 0.80075 0.0
H4983 H 0.20502 0.9641 0.80349 0.0
H4984 H 0.24678 0.92934 0.79515 0.0
H4985 H 0.19087 0.89392 0.75847 0.0
H4986 H 0.1668 0.88642 0.7324 0.0
H4987 H 0.20397 0.87884 0.69071 0.0
H4988 H 0.22831 0.88658 0.71656 0.0
H4989 H 0.2675 0.83929 0.80461 0.0
H4990 H 0.25386 0.8662 0.8019 0.0
H4991 H 0.26192 0.85693 0.74207 0.0
H4992 H 0.27476 0.82858 0.74463 0.0
H4993 H 0.23186 0.86684 0.74462 0.0
H4994 H 0.28773 0.90334 0.78351 0.0
H4995 H 0.31058 0.91053 0.81091 0.0
H4996 H 0.27071 0.91416 0.84997 0.0
H4997 H 0.24774 0.90744 0.82288 0.0
C4998 C 0.20593 0.95345 0.75528 0.0
C4999 C 0.20228 0.96386 0.77322 0.0
C5000 C 0.21473 0.93751 0.75375 0.0
C5001 C 0.21989 0.93083 0.77002 0.0
C5002 C 0.21589 0.94115 0.78774 0.0
C5003 C 0.20753 0.9571 0.78929 0.0
C5004 C 0.2297 0.91383 0.76932 0.0
C5005 C 0.2431 0.91567 0.78408 0.0
C5006 C 0.22595 0.89563 0.7549 0.0
C5007 C 0.21141 0.89109 0.73941 0.0
C5008 C 0.19391 0.89081 0.74373 0.0
C5009 C 0.18023 0.88649 0.729 0.0
C5010 C 0.18386 0.88223 0.70991 0.0
C5011 C 0.20118 0.8822 0.7055 0.0
C5012 C 0.21492 0.88656 0.72018 0.0
C5013 C 0.26672 0.84304 0.79082 0.0
C5014 C 0.27296 0.83174 0.77505 0.0
C5015 C 0.25892 0.85889 0.78929 0.0
C5016 C 0.2571 0.86482 0.7719 0.0
C5017 C 0.26313 0.85335 0.75588 0.0
C5018 C 0.2708 0.8371 0.75737 0.0
C5019 C 0.2485 0.88234 0.77068 0.0
C5020 C 0.23543 0.88059 0.7556 0.0
C5021 C 0.25226 0.90056 0.785 0.0
C5022 C 0.26606 0.90472 0.80121 0.0
C5023 C 0.28388 0.90563 0.79796 0.0
C5024 C 0.29683 0.90966 0.81341 0.0
C5025 C 0.29206 0.9126 0.83213 0.0
C5026 C 0.27438 0.91182 0.83547 0.0
C5027 C 0.26142 0.90805 0.82009 0.0
H5028 H 0.30209 0.91558 0.84405 0.0
H5029 H 0.17326 0.87892 0.69851 0.0
H5030 H 0.35483 0.99099 0.00337 0.0
H5031 H 0.38596 1.00434 0.99817 0.0
H5032 H 0.4036 0.99099 0.05048 0.0
H5033 H 0.3729 0.97774 0.05575 0.0
H5034 H 0.42039 0.03389 0.03143 0.0
H5035 H 0.42168 0.95505 0.02866 0.0
H5036 H 0.40106 0.92164 0.01882 0.0
H5037 H 0.37749 0.9387 0.97185 0.0
H5038 H 0.39812 0.97208 0.98132 0.0
H5039 H 0.51114 0.03678 0.04617 0.0
H5040 H 0.47931 0.03189 0.0472 0.0
H5041 H 0.47075 0.98861 0.99293 0.0
H5042 H 0.50241 0.98997 0.99507 0.0
H5043 H 0.44672 0.97692 0.00771 0.0
H5044 H 0.46878 0.04822 0.00751 0.0
H5045 H 0.48677 0.08261 0.0212 0.0
H5046 H 0.46279 0.08329 0.07364 0.0
H5047 H 0.44483 0.04901 0.06057 0.0
C5048 C 0.36538 0.9914 0.01395 0.0
C5049 C 0.36157 0.98314 0.02982 0.0
C5050 C 0.38305 0.99907 0.01101 0.0
C5051 C 0.39688 0.99861 0.024 0.0
C5052 C 0.393 0.99151 0.0404 0.0
C5053 C 0.37549 0.9838 0.04327 0.0
C5054 C 0.41541 1.00251 0.01947 0.0
C5055 C 0.42633 0.02171 0.02571 0.0
C5056 C 0.42284 0.98645 0.01226 0.0
C5057 C 0.41144 0.96595 0.00564 0.0
C5058 C 0.41226 0.95153 0.01608 0.0
C5059 C 0.40053 0.93265 0.01062 0.0
C5060 C 0.38798 0.92805 0.99471 0.0
C5061 C 0.38722 0.94227 0.98416 0.0
C5062 C 0.39893 0.96115 0.98955 0.0
C5063 C 0.50234 0.02642 0.03441 0.0
C5064 C 0.50917 0.01492 0.01959 0.0
C5065 C 0.48405 0.02387 0.03475 0.0
C5066 C 0.47223 0.01101 0.01938 0.0
C5067 C 0.47926 0.99903 0.00488 0.0
C5068 C 0.49746 1.00017 0.00568 0.0
C5069 C 0.4526 0.00894 0.01891 0.0
C5070 C 0.44126 0.98972 0.01231 0.0
C5071 C 0.44485 0.02527 0.02545 0.0
C5072 C 0.45544 0.04606 0.033 0.0
C5073 C 0.46732 0.05575 0.02191 0.0
C5074 C 0.47754 0.07515 0.02957 0.0
C5075 C 0.47587 0.08507 0.04814 0.0
C5076 C 0.46402 0.07562 0.05921 0.0
C5077 C 0.4538 0.05622 0.05169 0.0
H5078 H 0.48377 0.10008 0.05394 0.0
H5079 H 0.37884 0.91347 0.99057 0.0
H5080 H 0.85953 0.5591 0.79048 0.0
H5081 H 0.83469 0.57261 0.78255 0.0
H5082 H 0.84921 0.61866 0.83474 0.0
H5083 H 0.87358 0.6044 0.84323 0.0
H5084 H 0.8144 0.60952 0.82601 0.0
H5085 H 0.86553 0.62664 0.7935 0.0
H5086 H 0.88995 0.6204 0.77426 0.0
H5087 H 0.85213 0.58615 0.72669 0.0
H5088 H 0.82745 0.59194 0.74578 0.0
H5089 H 0.79178 0.68885 0.79363 0.0
H5090 H 0.80658 0.66602 0.80499 0.0
H5091 H 0.78139 0.61918 0.75603 0.0
H5092 H 0.76665 0.64216 0.74436 0.0
H5093 H 0.81916 0.62656 0.76268 0.0
H5094 H 0.76777 0.61572 0.798 0.0
H5095 H 0.74637 0.62729 0.81917 0.0
H5096 H 0.78876 0.65683 0.86369 0.0
H5097 H 0.81044 0.64566 0.84268 0.0
C5098 C 0.85707 0.57177 0.8005 0.0
C5099 C 0.86845 0.58092 0.81733 0.0
C5100 C 0.84295 0.57949 0.79595 0.0
C5101 C 0.84047 0.59694 0.8078 0.0
C5102 C 0.85099 0.60522 0.82537 0.0
C5103 C 0.86488 0.59713 0.83019 0.0
C5104 C 0.82839 0.60772 0.80076 0.0
C5105 C 0.81544 0.61327 0.81219 0.0
C5106 C 0.82988 0.61275 0.78277 0.0
C5107 C 0.84466 0.60952 0.77113 0.0
C5108 C 0.86242 0.61768 0.77897 0.0
C5109 C 0.87631 0.61423 0.7681 0.0
C5110 C 0.87259 0.60283 0.74928 0.0
C5111 C 0.85498 0.59494 0.74128 0.0
C5112 C 0.84104 0.5983 0.75211 0.0
C5113 C 0.78927 0.67363 0.78539 0.0
C5114 C 0.77809 0.66723 0.76817 0.0
C5115 C 0.7976 0.66063 0.79196 0.0
C5116 C 0.79483 0.64097 0.78145 0.0
C5117 C 0.78347 0.63433 0.76438 0.0
C5118 C 0.77502 0.64737 0.75782 0.0
C5119 C 0.80498 0.62798 0.78774 0.0
C5120 C 0.81781 0.62232 0.77627 0.0
C5121 C 0.80378 0.62356 0.80595 0.0
C5122 C 0.79071 0.62985 0.81876 0.0
C5123 C 0.77252 0.62472 0.81229 0.0
C5124 C 0.76035 0.6312 0.82426 0.0
C5125 C 0.76619 0.64273 0.84278 0.0
C5126 C 0.78424 0.64781 0.84937 0.0
C5127 C 0.79647 0.64138 0.83745 0.0
H5128 H 0.75675 0.64779 0.85201 0.0
H5129 H 0.88336 0.60015 0.74089 0.0
H5130 H 0.86132 0.68619 0.0105 0.0
H5131 H 0.88582 0.67072 0.01486 0.0
H5132 H 0.85086 0.6259 0.03689 0.0
H5133 H 0.82625 0.64109 0.03234 0.0
H5134 H 0.90293 0.66204 0.04419 0.0
H5135 H 0.85939 0.58136 0.01955 0.0
H5136 H 0.83174 0.56299 0.99898 0.0
H5137 H 0.83932 0.60714 0.96563 0.0
H5138 H 0.86713 0.62561 0.98583 0.0
H5139 H 0.94241 0.58778 0.06788 0.0
H5140 H 0.92286 0.6093 0.06314 0.0
H5141 H 0.9288 0.59675 0.0027 0.0
H5142 H 0.94856 0.57532 0.00741 0.0
H5143 H 0.89316 0.59071 0.01149 0.0
H5144 H 0.94759 0.64038 0.02646 0.0
H5145 H 0.97618 0.65905 0.04498 0.0
H5146 H 0.9489 0.67779 0.09354 0.0
H5147 H 0.92012 0.65896 0.07541 0.0
C5148 C 0.8589 0.67323 0.01656 0.0
C5149 C 0.84179 0.66479 0.02097 0.0
C5150 C 0.87294 0.66441 0.01905 0.0
C5151 C 0.8701 0.64698 0.0259 0.0
C5152 C 0.85327 0.63916 0.03127 0.0
C5153 C 0.83923 0.64792 0.02875 0.0
C5154 C 0.88441 0.63633 0.02646 0.0
C5155 C 0.9008 0.64645 0.03706 0.0
C5156 C 0.8818 0.61611 0.01674 0.0
C5157 C 0.86525 0.60494 0.00431 0.0
C5158 C 0.85519 0.58709 0.00777 0.0
C5159 C 0.83948 0.57667 0.99619 0.0
C5160 C 0.83375 0.58392 0.98105 0.0
C5161 C 0.84374 0.60157 0.97741 0.0
C5162 C 0.85947 0.61203 0.98893 0.0
C5163 C 0.93967 0.58979 0.05362 0.0
C5164 C 0.94688 0.57985 0.03799 0.0
C5165 C 0.92858 0.60212 0.05095 0.0
C5166 C 0.92441 0.60458 0.03258 0.0
C5167 C 0.93189 0.59501 0.01698 0.0
C5168 C 0.94321 0.58289 0.0197 0.0
C5169 C 0.91146 0.61627 0.02963 0.0
C5170 C 0.89531 0.60632 0.01859 0.0
C5171 C 0.91443 0.63669 0.03867 0.0
C5172 C 0.93169 0.64812 0.04962 0.0
C5173 C 0.94768 0.64833 0.04115 0.0
C5174 C 0.96393 0.65896 0.05156 0.0
C5175 C 0.96436 0.66954 0.07044 0.0
C5176 C 0.94854 0.66956 0.07892 0.0
C5177 C 0.93225 0.65893 0.06857 0.0
H5178 H 0.97695 0.67778 0.07848 0.0
H5179 H 0.82157 0.57585 0.97211 0.0
H5180 H 0.2214 0.077 0.81129 0.0
H5181 H 0.23654 0.11075 0.80981 0.0
H5182 H 0.20581 0.10369 0.75626 0.0
H5183 H 0.19067 0.06957 0.75753 0.0
H5184 H 0.23853 0.12392 0.75412 0.0
H5185 H 0.19734 0.13204 0.80028 0.0
H5186 H 0.18222 0.12757 0.82899 0.0
H5187 H 0.23155 0.15425 0.86443 0.0
H5188 H 0.24702 0.15858 0.83588 0.0
H5189 H 0.25671 0.22895 0.7572 0.0
H5190 H 0.24195 0.19467 0.75779 0.0
H5191 H 0.27854 0.1976 0.80577 0.0
H5192 H 0.29361 0.23189 0.80502 0.0
H5193 H 0.24267 0.1798 0.81049 0.0
H5194 H 0.28348 0.17208 0.76338 0.0
H5195 H 0.29758 0.17755 0.73436 0.0
H5196 H 0.24754 0.15089 0.70024 0.0
H5197 H 0.23306 0.14562 0.72915 0.0
C5198 C 0.2178 0.08245 0.79908 0.0
C5199 C 0.2046 0.07018 0.78455 0.0
C5200 C 0.22649 0.10203 0.79832 0.0
C5201 C 0.2223 0.11034 0.78309 0.0
C5202 C 0.20942 0.09798 0.76829 0.0
C5203 C 0.20068 0.07831 0.76904 0.0
C5204 C 0.23124 0.1318 0.78277 0.0
C5205 C 0.23915 0.13608 0.76642 0.0
C5206 C 0.23257 0.14808 0.79877 0.0
C5207 C 0.22336 0.14543 0.81594 0.0
C5208 C 0.20499 0.13679 0.81419 0.0
C5209 C 0.19635 0.1343 0.83043 0.0
C5210 C 0.20593 0.14057 0.84852 0.0
C5211 C 0.22416 0.14936 0.85041 0.0
C5212 C 0.23286 0.15184 0.8342 0.0
C5213 C 0.2617 0.22241 0.76791 0.0
C5214 C 0.27656 0.23345 0.78098 0.0
C5215 C 0.2532 0.20262 0.7682 0.0
C5216 C 0.25904 0.19318 0.78176 0.0
C5217 C 0.27365 0.20429 0.79509 0.0
C5218 C 0.28237 0.22399 0.79459 0.0
C5219 C 0.24997 0.1718 0.78193 0.0
C5220 C 0.24203 0.16758 0.79823 0.0
C5221 C 0.24848 0.15565 0.76584 0.0
C5222 C 0.25715 0.15865 0.74845 0.0
C5223 C 0.27545 0.16755 0.74971 0.0
C5224 C 0.28352 0.17059 0.73328 0.0
C5225 C 0.27345 0.16462 0.71547 0.0
C5226 C 0.25531 0.15554 0.71405 0.0
C5227 C 0.24717 0.15253 0.73046 0.0
H5228 H 0.27972 0.16697 0.70275 0.0
H5229 H 0.19922 0.13865 0.86108 0.0
H5230 H 0.40711 0.99644 0.26923 0.0
H5231 H 0.395 0.96023 0.2608 0.0
H5232 H 0.36011 0.96579 0.30559 0.0
H5233 H 0.3725 1.00166 0.31444 0.0
H5234 H 0.37851 0.93952 0.30848 0.0
H5235 H 0.34734 0.95559 0.25537 0.0
H5236 H 0.34547 0.96719 0.22556 0.0
H5237 H 0.37206 0.92366 0.19782 0.0
H5238 H 0.37439 0.91207 0.22757 0.0
H5239 H 0.29895 0.85401 0.25614 0.0
H5240 H 0.31939 0.88695 0.2627 0.0
H5241 H 0.36001 0.86347 0.28588 0.0
H5242 H 0.3388 0.8313 0.28152 0.0
H5243 H 0.34763 0.89644 0.24701 0.0
H5244 H 0.38463 0.88657 0.30225 0.0
H5245 H 0.39158 0.88013 0.33373 0.0
H5246 H 0.35781 0.91671 0.35886 0.0
H5247 H 0.34975 0.92213 0.3272 0.0
C5248 C 0.3967 0.98991 0.27711 0.0
C5249 C 0.39086 1.00184 0.29265 0.0
C5250 C 0.38976 0.96925 0.27222 0.0
C5251 C 0.37668 0.96031 0.28258 0.0
C5252 C 0.37031 0.97236 0.2975 0.0
C5253 C 0.3774 0.99287 0.30256 0.0
C5254 C 0.37034 0.9384 0.27926 0.0
C5255 C 0.37158 0.93006 0.29504 0.0
C5256 C 0.36241 0.92587 0.26145 0.0
C5257 C 0.36135 0.93325 0.2438 0.0
C5258 C 0.35303 0.94871 0.243 0.0
C5259 C 0.35183 0.95523 0.22609 0.0
C5260 C 0.35873 0.94624 0.20984 0.0
C5261 C 0.36681 0.93068 0.21044 0.0
C5262 C 0.3681 0.92416 0.22733 0.0
C5263 C 0.31208 0.85623 0.26333 0.0
C5264 C 0.31714 0.8405 0.26901 0.0
C5265 C 0.32384 0.87498 0.26699 0.0
C5266 C 0.3413 0.87818 0.27545 0.0
C5267 C 0.34649 0.86214 0.28062 0.0
C5268 C 0.3344 0.84354 0.27776 0.0
C5269 C 0.35397 0.89784 0.27685 0.0
C5270 C 0.35447 0.90577 0.26049 0.0
C5271 C 0.36359 0.91004 0.29417 0.0
C5272 C 0.3655 0.90343 0.31208 0.0
C5273 C 0.37786 0.89221 0.31427 0.0
C5274 C 0.38219 0.88896 0.3322 0.0
C5275 C 0.37491 0.89772 0.34826 0.0
C5276 C 0.36323 0.90967 0.34638 0.0
C5277 C 0.35845 0.91242 0.32837 0.0
H5278 H 0.37848 0.89544 0.36218 0.0
H5279 H 0.35775 0.95128 0.19675 0.0
H5280 H 0.60009 0.37489 0.5921 0.0
H5281 H 0.60093 0.40289 0.57668 0.0
H5282 H 0.54373 0.38542 0.56594 0.0
H5283 H 0.54294 0.35729 0.57964 0.0
H5284 H 0.5535 0.39628 0.53775 0.0
H5285 H 0.57281 0.42755 0.60572 0.0
H5286 H 0.59343 0.43569 0.63509 0.0
H5287 H 0.63639 0.46075 0.60535 0.0
H5288 H 0.61603 0.45258 0.57579 0.0
H5289 H 0.55072 0.50797 0.56544 0.0
H5290 H 0.55434 0.47634 0.57095 0.0
H5291 H 0.56684 0.45953 0.51282 0.0
H5292 H 0.56216 0.49102 0.507 0.0
H5293 H 0.58445 0.4654 0.57076 0.0
H5294 H 0.56207 0.42462 0.50043 0.0
H5295 H 0.53922 0.411 0.47279 0.0
H5296 H 0.49881 0.40118 0.51083 0.0
H5297 H 0.52135 0.41581 0.53867 0.0
C5298 C 0.58776 0.37686 0.58612 0.0
C5299 C 0.57149 0.36353 0.58719 0.0
C5300 C 0.5882 0.39311 0.57749 0.0
C5301 C 0.57234 0.39676 0.57023 0.0
C5302 C 0.55626 0.38321 0.57113 0.0
C5303 C 0.55585 0.36692 0.57919 0.0
C5304 C 0.57178 0.41444 0.56183 0.0
C5305 C 0.56038 0.41138 0.54509 0.0
C5306 C 0.58086 0.43433 0.57082 0.0
C5307 C 0.59299 0.43925 0.58856 0.0
C5308 C 0.58668 0.4347 0.60546 0.0
C5309 C 0.59831 0.43933 0.62212 0.0
C5310 C 0.61622 0.44867 0.62207 0.0
C5311 C 0.62253 0.45347 0.60537 0.0
C5312 C 0.61096 0.44886 0.58867 0.0
C5313 C 0.55361 0.4972 0.55359 0.0
C5314 C 0.55575 0.50185 0.53567 0.0
C5315 C 0.55581 0.47909 0.5568 0.0
C5316 C 0.56068 0.46509 0.54232 0.0
C5317 C 0.56245 0.46949 0.52414 0.0
C5318 C 0.55987 0.48763 0.52079 0.0
C5319 C 0.56542 0.4472 0.54732 0.0
C5320 C 0.57773 0.45027 0.56338 0.0
C5321 C 0.55693 0.42728 0.53793 0.0
C5322 C 0.54324 0.42205 0.52156 0.0
C5323 C 0.54821 0.42032 0.50287 0.0
C5324 C 0.53535 0.41226 0.48718 0.0
C5325 C 0.51757 0.40526 0.49006 0.0
C5326 C 0.51257 0.40665 0.50862 0.0
C5327 C 0.52533 0.41517 0.52435 0.0
H5328 H 0.50767 0.3987 0.47789 0.0
H5329 H 0.62521 0.45223 0.63498 0.0
H5330 H 0.47676 0.78782 0.36539 0.0
H5331 H 0.44924 0.7915 0.35068 0.0
H5332 H 0.41904 0.75549 0.38493 0.0
H5333 H 0.44678 0.75139 0.39957 0.0
H5334 H 0.40396 0.7446 0.34867 0.0
H5335 H 0.4246 0.80683 0.39437 0.0
H5336 H 0.44667 0.83761 0.41079 0.0
H5337 H 0.45085 0.85662 0.35804 0.0
H5338 H 0.42901 0.82579 0.34123 0.0
H5339 H 0.32268 0.77058 0.32467 0.0
H5340 H 0.34907 0.76712 0.3426 0.0
H5341 H 0.38277 0.7962 0.30598 0.0
H5342 H 0.35651 0.79914 0.28766 0.0
H5343 H 0.39511 0.81085 0.34518 0.0
H5344 H 0.37542 0.74885 0.29936 0.0
H5345 H 0.35455 0.71757 0.2821 0.0
H5346 H 0.34934 0.69777 0.33438 0.0
H5347 H 0.36993 0.72916 0.35207 0.0
C5348 C 0.46431 0.78077 0.36998 0.0
C5349 C 0.46409 0.76936 0.38379 0.0
C5350 C 0.44849 0.78296 0.36154 0.0
C5351 C 0.43192 0.77399 0.36677 0.0
C5352 C 0.43161 0.76262 0.38062 0.0
C5353 C 0.4475 0.76039 0.38909 0.0
C5354 C 0.41504 0.77626 0.35743 0.0
C5355 C 0.40189 0.75911 0.34827 0.0
C5356 C 0.41241 0.79516 0.35637 0.0
C5357 C 0.42525 0.81393 0.36651 0.0
C5358 C 0.43029 0.81753 0.38625 0.0
C5359 C 0.44276 0.83498 0.39563 0.0
C5360 C 0.45019 0.84904 0.38546 0.0
C5361 C 0.4451 0.84571 0.3659 0.0
C5362 C 0.43265 0.82826 0.35644 0.0
C5363 C 0.33572 0.77629 0.32049 0.0
C5364 C 0.33747 0.78509 0.3047 0.0
C5365 C 0.35079 0.77428 0.33074 0.0
C5366 C 0.36795 0.78144 0.32573 0.0
C5367 C 0.36972 0.7906 0.3102 0.0
C5368 C 0.35467 0.79218 0.29968 0.0
C5369 C 0.38407 0.77919 0.33646 0.0
C5370 C 0.39709 0.79635 0.34581 0.0
C5371 C 0.38659 0.7603 0.33767 0.0
C5372 C 0.37401 0.74152 0.32712 0.0
C5373 C 0.36963 0.73797 0.30725 0.0
C5374 C 0.35787 0.72019 0.29737 0.0
C5375 C 0.35053 0.70574 0.30715 0.0
C5376 C 0.35501 0.709 0.32682 0.0
C5377 C 0.36672 0.72679 0.33679 0.0
H5378 H 0.34143 0.69198 0.29947 0.0
H5379 H 0.45987 0.86253 0.39274 0.0
H5380 H 0.08036 0.76035 0.10945 0.0
H5381 H 0.08115 0.72599 0.09588 0.0
H5382 H 0.04533 0.72411 0.04743 0.0
H5383 H 0.04361 0.75811 0.06169 0.0
H5384 H 0.03505 0.69173 0.05558 0.0
H5385 H 0.09274 0.72551 0.04629 0.0
H5386 H 0.12248 0.74859 0.0538 0.0
H5387 H 0.13621 0.7169 0.09457 0.0
H5388 H 0.10645 0.69392 0.0876 0.0
H5389 H 0.05136 0.59499 0.01273 0.0
H5390 H 0.05509 0.63123 0.01699 0.0
H5391 H 0.0673 0.63954 0.07776 0.0
H5392 H 0.06295 0.60358 0.07367 0.0
H5393 H 0.09039 0.66829 0.05722 0.0
H5394 H 0.02858 0.63761 0.06702 0.0
H5395 H 0.99943 0.61403 0.0556 0.0
H5396 H 0.99513 0.64005 0.00746 0.0
H5397 H 0.02437 0.66361 0.0185 0.0
C5398 C 0.07285 0.75272 0.09577 0.0
C5399 C 0.062 0.76207 0.08663 0.0
C5400 C 0.07337 0.733 0.08791 0.0
C5401 C 0.06356 0.72229 0.07032 0.0
C5402 C 0.05303 0.73184 0.06098 0.0
C5403 C 0.05215 0.75139 0.0691 0.0
C5404 C 0.06359 0.70092 0.06226 0.0
C5405 C 0.04728 0.68684 0.05562 0.0
C5406 C 0.07942 0.69411 0.06206 0.0
C5407 C 0.09729 0.70807 0.06651 0.0
C5408 C 0.10204 0.72358 0.05699 0.0
C5409 C 0.11892 0.73665 0.06115 0.0
C5410 C 0.13122 0.73427 0.07469 0.0
C5411 C 0.12667 0.71881 0.08412 0.0
C5412 C 0.1098 0.70574 0.08006 0.0
C5413 C 0.05524 0.60467 0.02689 0.0
C5414 C 0.05716 0.59662 0.04287 0.0
C5415 C 0.05727 0.62529 0.02933 0.0
C5416 C 0.06149 0.63804 0.04771 0.0
C5417 C 0.06414 0.63 0.06347 0.0
C5418 C 0.06167 0.60949 0.06112 0.0
C5419 C 0.062 0.65957 0.05109 0.0
C5420 C 0.07834 0.67353 0.0569 0.0
C5421 C 0.04632 0.66632 0.04998 0.0
C5422 C 0.02871 0.65224 0.04348 0.0
C5423 C 0.02148 0.63819 0.05392 0.0
C5424 C 0.00493 0.62486 0.04754 0.0
C5425 C 0.99545 0.62553 0.0308 0.0
C5426 C 0.0025 0.63953 0.02042 0.0
C5427 C 0.01904 0.65289 0.02674 0.0
H5428 H 0.98261 0.61526 0.02593 0.0
H5429 H 0.1443 0.74437 0.07782 0.0
H5430 H 0.05186 0.26546 0.84952 0.0
H5431 H 0.08109 0.26895 0.83804 0.0
H5432 H 0.10511 0.27894 0.89571 0.0
H5433 H 0.07557 0.27572 0.90751 0.0
H5434 H 0.12473 0.30405 0.87587 0.0
H5435 H 0.10039 0.23417 0.86525 0.0
H5436 H 0.0775 0.20257 0.8544 0.0
H5437 H 0.07789 0.2093 0.79649 0.0
H5438 H 0.10059 0.24111 0.80703 0.0
H5439 H 0.20558 0.29786 0.83234 0.0
H5440 H 0.18087 0.29143 0.85204 0.0
H5441 H 0.14366 0.27412 0.80135 0.0
H5442 H 0.1681 0.27935 0.7817 0.0
H5443 H 0.13326 0.25028 0.82294 0.0
H5444 H 0.15423 0.32246 0.83451 0.0
H5445 H 0.17673 0.3544 0.84533 0.0
H5446 H 0.18267 0.34331 0.90138 0.0
H5447 H 0.16036 0.31117 0.8908 0.0
C5448 C 0.06329 0.26844 0.85987 0.0
C5449 C 0.06128 0.27015 0.87946 0.0
C5450 C 0.08006 0.27036 0.85323 0.0
C5451 C 0.09533 0.27384 0.86592 0.0
C5452 C 0.09352 0.27614 0.8856 0.0
C5453 C 0.07663 0.27425 0.89232 0.0
C5454 C 0.11298 0.27477 0.85828 0.0
C5455 C 0.12674 0.29214 0.86455 0.0
C5456 C 0.11565 0.25932 0.84341 0.0
C5457 C 0.10214 0.24007 0.83696 0.0
C5458 C 0.09552 0.22896 0.85022 0.0
C5459 C 0.08259 0.21101 0.84412 0.0
C5460 C 0.07624 0.20394 0.82477 0.0
C5461 C 0.08283 0.2148 0.81147 0.0
C5462 C 0.09575 0.23277 0.8175 0.0
C5463 C 0.19215 0.29237 0.82539 0.0
C5464 C 0.18888 0.28942 0.80541 0.0
C5465 C 0.17799 0.28892 0.83671 0.0
C5466 C 0.16027 0.28263 0.82829 0.0
C5467 C 0.15712 0.27905 0.8083 0.0
C5468 C 0.17117 0.28228 0.79705 0.0
C5469 C 0.14478 0.27993 0.83991 0.0
C5470 C 0.13141 0.26212 0.83444 0.0
C5471 C 0.14251 0.295 0.85546 0.0
C5472 C 0.15579 0.31435 0.86181 0.0
C5473 C 0.16042 0.32679 0.84911 0.0
C5474 C 0.17313 0.34493 0.8552 0.0
C5475 C 0.18116 0.35085 0.87402 0.0
C5476 C 0.17646 0.33868 0.8868 0.0
C5477 C 0.16379 0.32051 0.88077 0.0
H5478 H 0.19099 0.3649 0.87871 0.0
H5479 H 0.06622 0.19004 0.82008 0.0
H5480 H 0.59225 0.75333 0.90935 0.0
H5481 H 0.59418 0.73569 0.93487 0.0
H5482 H 0.55836 0.76625 0.9656 0.0
H5483 H 0.55599 0.78345 0.94005 0.0
H5484 H 0.6018 0.743 0.97416 0.0
H5485 H 0.52593 0.73227 0.97724 0.0
H5486 H 0.49954 0.73161 0.95641 0.0
H5487 H 0.52553 0.71353 0.90658 0.0
H5488 H 0.55192 0.71378 0.92711 0.0
H5489 H 0.5761 0.69261 0.04824 0.0
H5490 H 0.58104 0.71671 0.02807 0.0
H5491 H 0.55122 0.67142 0.98008 0.0
H5492 H 0.54501 0.64799 1.00037 0.0
H5493 H 0.54188 0.70272 0.98025 0.0
H5494 H 0.59848 0.6874 0.98633 0.0
H5495 H 0.62556 0.68425 0.0034 0.0
H5496 H 0.63937 0.74709 0.02864 0.0
H5497 H 0.61223 0.75055 0.01191 0.0
C5498 C 0.58516 0.75663 0.92179 0.0
C5499 C 0.57368 0.7694 0.92258 0.0
C5500 C 0.58633 0.74662 0.93636 0.0
C5501 C 0.57613 0.74944 0.95186 0.0
C5502 C 0.56609 0.76367 0.95355 0.0
C5503 C 0.56471 0.77342 0.93893 0.0
C5504 C 0.57388 0.73566 0.96474 0.0
C5505 C 0.58874 0.73421 0.97561 0.0
C5506 C 0.55688 0.72383 0.96614 0.0
C5507 C 0.54095 0.72331 0.9537 0.0
C5508 C 0.52596 0.72809 0.96184 0.0
C5509 C 0.51102 0.72779 0.95009 0.0
C5510 C 0.51089 0.72261 0.93018 0.0
C5511 C 0.52567 0.71762 0.92199 0.0
C5512 C 0.54063 0.71785 0.93367 0.0
C5513 C 0.57038 0.68793 0.03347 0.0
C5514 C 0.56032 0.66832 0.02588 0.0
C5515 C 0.57345 0.70161 0.02189 0.0
C5516 C 0.56679 0.69577 1.00248 0.0
C5517 C 0.55659 0.67627 0.99499 0.0
C5518 C 0.55322 0.66279 0.00658 0.0
C5519 C 0.56981 0.70993 0.98989 0.0
C5520 C 0.55501 0.71153 0.97902 0.0
C5521 C 0.58695 0.72123 0.98801 0.0
C5522 C 0.60324 0.71919 0.99806 0.0
C5523 C 0.60723 0.70051 0.99565 0.0
C5524 C 0.62259 0.69867 0.00524 0.0
C5525 C 0.63415 0.71545 0.01715 0.0
C5526 C 0.63039 0.7341 0.01944 0.0
C5527 C 0.61502 0.73601 0.00991 0.0
H5528 H 0.64604 0.71399 0.02456 0.0
H5529 H 0.49932 0.72243 0.92111 0.0
H5530 H 0.07422 0.80864 0.71968 0.0
H5531 H 0.10033 0.7968 0.72691 0.0
H5532 H 0.09022 0.75538 0.67173 0.0
H5533 H 0.06406 0.76708 0.66435 0.0
H5534 H 0.09529 0.73758 0.70099 0.0
H5535 H 0.12449 0.79487 0.6794 0.0
H5536 H 0.13161 0.83028 0.67828 0.0
H5537 H 0.1526 0.84702 0.73741 0.0
H5538 H 0.14531 0.8117 0.73899 0.0
H5539 H 0.19509 0.73937 0.71905 0.0
H5540 H 0.17016 0.74756 0.7033 0.0
H5541 H 0.13978 0.73926 0.75085 0.0
H5542 H 0.16486 0.73168 0.76706 0.0
H5543 H 0.15619 0.7807 0.7212 0.0
H5544 H 0.10104 0.72008 0.73454 0.0
H5545 H 0.09442 0.68425 0.73432 0.0
H5546 H 0.12677 0.67426 0.68807 0.0
H5547 H 0.1337 0.71008 0.68825 0.0
C5548 C 0.07769 0.79722 0.70897 0.0
C5549 C 0.06709 0.78881 0.69147 0.0
C5550 C 0.09262 0.79051 0.7131 0.0
C5551 C 0.09718 0.7753 0.6998 0.0
C5552 C 0.08688 0.76717 0.68214 0.0
C5553 C 0.07201 0.77395 0.67793 0.0
C5554 C 0.11216 0.7672 0.70481 0.0
C5555 C 0.10862 0.74702 0.70526 0.0
C5556 C 0.12956 0.77945 0.71028 0.0
C5557 C 0.13417 0.80067 0.70936 0.0
C5558 C 0.13049 0.80611 0.69221 0.0
C5559 C 0.13457 0.82616 0.69149 0.0
C5560 C 0.14246 0.84088 0.70779 0.0
C5561 C 0.14643 0.83559 0.72482 0.0
C5562 C 0.14233 0.81556 0.72563 0.0
C5563 C 0.18306 0.73916 0.72611 0.0
C5564 C 0.18199 0.73513 0.74441 0.0
C5565 C 0.16885 0.74374 0.71705 0.0
C5566 C 0.15326 0.744 0.72597 0.0
C5567 C 0.15173 0.73893 0.74373 0.0
C5568 C 0.16601 0.73452 0.75291 0.0
C5569 C 0.13917 0.75129 0.71758 0.0
C5570 C 0.14287 0.77132 0.71668 0.0
C5571 C 0.12199 0.73896 0.71155 0.0
C5572 C 0.11785 0.71759 0.71141 0.0
C5573 C 0.10667 0.71017 0.72433 0.0
C5574 C 0.10293 0.68992 0.72426 0.0
C5575 C 0.11017 0.67699 0.71119 0.0
C5576 C 0.12121 0.6843 0.69822 0.0
C5577 C 0.12512 0.70456 0.69835 0.0
H5578 H 0.10721 0.6613 0.71112 0.0
H5579 H 0.14546 0.85639 0.70722 0.0
H5580 H 0.04944 0.35699 0.40395 0.0
H5581 H 0.05841 0.39217 0.42011 0.0
H5582 H 0.11352 0.39039 0.42091 0.0
H5583 H 0.10464 0.35496 0.40421 0.0
H5584 H 0.10093 0.40788 0.45763 0.0
H5585 H 0.10479 0.41555 0.39436 0.0
H5586 H 0.09576 0.40907 0.35982 0.0
H5587 H 0.04854 0.42923 0.37194 0.0
H5588 H 0.05714 0.43551 0.40658 0.0
H5589 H 0.10251 0.50816 0.50661 0.0
H5590 H 0.11156 0.48063 0.48594 0.0
H5591 H 0.06028 0.46337 0.4527 0.0
H5592 H 0.05199 0.49176 0.47226 0.0
H5593 H 0.08287 0.45929 0.42965 0.0
H5594 H 0.07493 0.431 0.49064 0.0
H5595 H 0.08354 0.43238 0.52453 0.0
H5596 H 0.1386 0.45156 0.51614 0.0
H5597 H 0.13029 0.44939 0.48202 0.0
C5598 C 0.06348 0.36402 0.40756 0.0
C5599 C 0.07634 0.3532 0.40294 0.0
C5600 C 0.06857 0.38414 0.41665 0.0
C5601 C 0.0866 0.39379 0.42151 0.0
C5602 C 0.09955 0.38311 0.41712 0.0
C5603 C 0.09446 0.36295 0.40763 0.0
C5604 C 0.09143 0.41486 0.432 0.0
C5605 C 0.09742 0.41933 0.45145 0.0
C5606 C 0.0869 0.42969 0.42387 0.0
C5607 C 0.0816 0.42594 0.40307 0.0
C5608 C 0.09241 0.41846 0.38966 0.0
C5609 C 0.08738 0.41484 0.37006 0.0
C5610 C 0.07158 0.41873 0.36369 0.0
C5611 C 0.06078 0.42624 0.3769 0.0
C5612 C 0.06575 0.42986 0.39653 0.0
C5613 C 0.0933 0.49846 0.49477 0.0
C5614 C 0.07661 0.502 0.49089 0.0
C5615 C 0.09837 0.48258 0.48311 0.0
C5616 C 0.08651 0.46954 0.46791 0.0
C5617 C 0.0698 0.47322 0.46419 0.0
C5618 C 0.06501 0.48943 0.47539 0.0
C5619 C 0.09096 0.4519 0.45572 0.0
C5620 C 0.08685 0.44809 0.43582 0.0
C5621 C 0.09718 0.43765 0.46343 0.0
C5622 C 0.10201 0.44038 0.48404 0.0
C5623 C 0.08884 0.43567 0.49613 0.0
C5624 C 0.09367 0.43643 0.5153 0.0
C5625 C 0.11159 0.44224 0.52252 0.0
C5626 C 0.12473 0.44713 0.51055 0.0
C5627 C 0.11999 0.44598 0.49129 0.0
H5628 H 0.11529 0.44286 0.53737 0.0
H5629 H 0.06772 0.41595 0.3485 0.0
H5630 H 0.46982 0.27428 0.22436 0.0
H5631 H 0.44117 0.26806 0.23769 0.0
H5632 H 0.4141 0.2495 0.18054 0.0
H5633 H 0.44256 0.25635 0.16734 0.0
H5634 H 0.40126 0.27605 0.20026 0.0
H5635 H 0.4142 0.21683 0.21165 0.0
H5636 H 0.43218 0.19681 0.22385 0.0
H5637 H 0.43197 0.22997 0.28133 0.0
H5638 H 0.41421 0.25038 0.26944 0.0
H5639 H 0.31851 0.27158 0.23783 0.0
H5640 H 0.34211 0.2624 0.21964 0.0
H5641 H 0.37154 0.2626 0.27235 0.0
H5642 H 0.34575 0.26658 0.28929 0.0
H5643 H 0.38216 0.24082 0.25096 0.0
H5644 H 0.37414 0.30505 0.23642 0.0
H5645 H 0.36087 0.32698 0.22069 0.0
H5646 H 0.35311 0.28395 0.16715 0.0
H5647 H 0.36634 0.26196 0.18247 0.0
C5648 C 0.45773 0.26852 0.21467 0.0
C5649 C 0.45837 0.26616 0.19483 0.0
C5650 C 0.44136 0.26485 0.2223 0.0
C5651 C 0.4254 0.25828 0.21014 0.0
C5652 C 0.42619 0.25472 0.19024 0.0
C5653 C 0.44248 0.25875 0.18268 0.0
C5654 C 0.40795 0.25752 0.218 0.0
C5655 C 0.39698 0.26819 0.21128 0.0
C5656 C 0.40242 0.24752 0.23247 0.0
C5657 C 0.41299 0.2352 0.23964 0.0
C5658 C 0.41809 0.21993 0.22688 0.0
C5659 C 0.42823 0.20851 0.23374 0.0
C5660 C 0.43324 0.21214 0.25335 0.0
C5661 C 0.42809 0.22718 0.26615 0.0
C5662 C 0.41797 0.23866 0.25936 0.0
C5663 C 0.33008 0.26953 0.24538 0.0
C5664 C 0.33093 0.27101 0.26517 0.0
C5665 C 0.34389 0.26476 0.23502 0.0
C5666 C 0.3596 0.26314 0.24449 0.0
C5667 C 0.35994 0.26392 0.26431 0.0
C5668 C 0.34537 0.26678 0.27426 0.0
C5669 C 0.37564 0.26061 0.23418 0.0
C5670 C 0.38636 0.24904 0.24021 0.0
C5671 C 0.38102 0.26985 0.21897 0.0
C5672 C 0.3711 0.28196 0.21063 0.0
C5673 C 0.36938 0.30029 0.2214 0.0
C5674 C 0.36196 0.3127 0.21254 0.0
C5675 C 0.35629 0.30689 0.19298 0.0
C5676 C 0.35756 0.28844 0.18229 0.0
C5677 C 0.36499 0.27602 0.19104 0.0
H5678 H 0.35116 0.31678 0.18599 0.0
H5679 H 0.4411 0.20327 0.25863 0.0
H5680 H 0.6604 0.50902 0.33752 0.0
H5681 H 0.64676 0.51223 0.36784 0.0
H5682 H 0.60554 0.53337 0.34297 0.0
H5683 H 0.61895 0.52981 0.31264 0.0
H5684 H 0.64014 0.53859 0.39492 0.0
H5685 H 0.5668 0.52342 0.36324 0.0
H5686 H 0.54733 0.50392 0.33409 0.0
H5687 H 0.58154 0.4639 0.32347 0.0
H5688 H 0.60107 0.48299 0.35268 0.0
H5689 H 0.59048 0.56452 0.47365 0.0
H5690 H 0.60431 0.56113 0.44377 0.0
H5691 H 0.57289 0.50065 0.42492 0.0
H5692 H 0.55836 0.50439 0.45463 0.0
H5693 H 0.57522 0.51288 0.39509 0.0
H5694 H 0.62161 0.51779 0.44274 0.0
H5695 H 0.64119 0.53258 0.47286 0.0
H5696 H 0.66221 0.58503 0.45253 0.0
H5697 H 0.6424 0.57081 0.42251 0.0
C5698 C 0.64848 0.51447 0.33846 0.0
C5699 C 0.64095 0.51914 0.32225 0.0
C5700 C 0.64058 0.51633 0.35601 0.0
C5701 C 0.62469 0.52277 0.35817 0.0
C5702 C 0.61745 0.5279 0.34208 0.0
C5703 C 0.62532 0.52603 0.32455 0.0
C5704 C 0.61574 0.52401 0.37696 0.0
C5705 C 0.62592 0.53301 0.39479 0.0
C5706 C 0.59717 0.51634 0.37756 0.0
C5707 C 0.5855 0.50479 0.36 0.0
C5708 C 0.57014 0.51043 0.3547 0.0
C5709 C 0.55909 0.49945 0.33817 0.0
C5710 C 0.56323 0.48273 0.3269 0.0
C5711 C 0.57839 0.4769 0.33216 0.0
C5712 C 0.58946 0.48781 0.34869 0.0
C5713 C 0.58642 0.55042 0.46325 0.0
C5714 C 0.57313 0.53476 0.46701 0.0
C5715 C 0.59459 0.54839 0.44595 0.0
C5716 C 0.59027 0.5304 0.43166 0.0
C5717 C 0.57682 0.51478 0.43533 0.0
C5718 C 0.56844 0.51691 0.45256 0.0
C5719 C 0.59953 0.528 0.41305 0.0
C5720 C 0.58943 0.51866 0.39525 0.0
C5721 C 0.61825 0.53485 0.41256 0.0
C5722 C 0.6304 0.54329 0.43044 0.0
C5723 C 0.63034 0.53252 0.44474 0.0
C5724 C 0.64148 0.5408 0.46179 0.0
C5725 C 0.65295 0.55971 0.4646 0.0
C5726 C 0.65331 0.57039 0.45035 0.0
C5727 C 0.64211 0.56224 0.43331 0.0
H5728 H 0.66156 0.56608 0.47781 0.0
H5729 H 0.55467 0.47425 0.3141 0.0
H5730 H 0.29126 0.91722 0.08011 0.0
H5731 H 0.28792 0.90267 0.10816 0.0
H5732 H 0.32664 0.86956 0.08988 0.0
H5733 H 0.33007 0.88394 0.06202 0.0
H5734 H 0.28346 0.86155 0.11697 0.0
H5735 H 0.35955 0.887 0.12657 0.0
H5736 H 0.38351 0.91142 0.11702 0.0
H5737 H 0.3486 0.95013 0.11559 0.0
H5738 H 0.32456 0.92611 0.12548 0.0
H5739 H 0.3268 0.81753 0.17785 0.0
H5740 H 0.31499 0.83077 0.15291 0.0
H5741 H 0.32797 0.88939 0.19066 0.0
H5742 H 0.33949 0.87612 0.21594 0.0
H5743 H 0.34113 0.8896 0.15735 0.0
H5744 H 0.28476 0.86441 0.17731 0.0
H5745 H 0.2603 0.84012 0.18622 0.0
H5746 H 0.25491 0.80189 0.13004 0.0
H5747 H 0.27952 0.8258 0.12088 0.0
C5748 C 0.29844 0.90616 0.08165 0.0
C5749 C 0.31113 0.90191 0.06912 0.0
C5750 C 0.29654 0.89792 0.09766 0.0
C5751 C 0.30728 0.88539 0.10111 0.0
C5752 C 0.31838 0.87936 0.08744 0.0
C5753 C 0.32033 0.8876 0.07157 0.0
C5754 C 0.30946 0.88135 0.12018 0.0
C5755 C 0.29596 0.86771 0.12596 0.0
C5756 C 0.32568 0.88985 0.13193 0.0
C5757 C 0.34023 0.90467 0.12658 0.0
C5758 C 0.35704 0.90078 0.12433 0.0
C5759 C 0.37063 0.91454 0.11885 0.0
C5760 C 0.36756 0.93229 0.11564 0.0
C5761 C 0.35094 0.93635 0.11802 0.0
C5762 C 0.33733 0.92266 0.12355 0.0
C5763 C 0.32676 0.83315 0.18107 0.0
C5764 C 0.33408 0.84579 0.19895 0.0
C5765 C 0.31995 0.84067 0.16679 0.0
C5766 C 0.32033 0.86097 0.17007 0.0
C5767 C 0.32741 0.87362 0.18794 0.0
C5768 C 0.33415 0.86607 0.2023 0.0
C5769 C 0.3153 0.86924 0.15409 0.0
C5770 C 0.3284 0.88367 0.14874 0.0
C5771 C 0.29868 0.86149 0.14288 0.0
C5772 C 0.28406 0.84689 0.14844 0.0
C5773 C 0.27848 0.85074 0.16691 0.0
C5774 C 0.26456 0.83704 0.172 0.0
C5775 C 0.25606 0.81946 0.1587 0.0
C5776 C 0.2615 0.81552 0.14032 0.0
C5777 C 0.27542 0.82915 0.13517 0.0
H5778 H 0.24522 0.8089 0.16257 0.0
H5779 H 0.37808 0.9429 0.11134 0.0
H5780 H 0.98116 0.57842 0.82855 0.0
H5781 H 1.00073 0.57563 0.85528 0.0
H5782 H 0.95577 0.54019 0.87535 0.0
H5783 H 0.93627 0.54335 0.84915 0.0
H5784 H 0.99225 0.58731 0.89783 0.0
H5785 H 0.97479 0.50208 0.88617 0.0
H5786 H 0.96672 0.4722 0.8595 0.0
H5787 H 0.99585 0.50505 0.82251 0.0
H5788 H 0.00433 0.53501 0.84903 0.0
H5789 H 0.00617 0.55566 0.98299 0.0
H5790 H 0.99307 0.55847 0.95234 0.0
H5791 H 0.03845 0.54466 0.92518 0.0
H5792 H 0.05121 0.54129 0.95555 0.0
H5793 H 0.00613 0.52396 0.90424 0.0
H5794 H 0.0364 0.59137 0.93622 0.0
H5795 H 0.04328 0.62012 0.96403 0.0
H5796 H 0.98866 0.62299 0.96072 0.0
H5797 H 0.9814 0.59404 0.93306 0.0
C5798 C 0.9756 0.56988 0.83859 0.0
C5799 C 0.95729 0.56122 0.83702 0.0
C5800 C 0.98669 0.5684 0.85382 0.0
C5801 C 0.97957 0.55777 0.86717 0.0
C5802 C 0.96141 0.54847 0.86514 0.0
C5803 C 0.95032 0.55033 0.85025 0.0
C5804 C 0.99079 0.55683 0.88381 0.0
C5805 C 0.99552 0.57358 0.89919 0.0
C5806 C 0.99484 0.53884 0.88548 0.0
C5807 C 0.99005 0.52082 0.86954 0.0
C5808 C 0.97953 0.50289 0.87236 0.0
C5809 C 0.97488 0.48594 0.85727 0.0
C5810 C 0.98072 0.48674 0.83931 0.0
C5811 C 0.99128 0.50447 0.83641 0.0
C5812 C 0.99598 0.52144 0.85146 0.0
C5813 C 0.01329 0.55319 0.97044 0.0
C5814 C 0.02994 0.54877 0.97165 0.0
C5815 C 0.00586 0.55487 0.95303 0.0
C5816 C 0.01497 0.55204 0.93665 0.0
C5817 C 0.03135 0.54709 0.93774 0.0
C5818 C 0.03878 0.5455 0.95515 0.0
C5819 C 0.00746 0.55439 0.91836 0.0
C5820 C 0.00322 0.53785 0.90277 0.0
C5821 C 0.00386 0.57258 0.91652 0.0
C5822 C 0.00835 0.59051 0.93261 0.0
C5823 C 0.02585 0.59812 0.94145 0.0
C5824 C 0.02982 0.61443 0.95719 0.0
C5825 C 0.01641 0.62337 0.96415 0.0
C5826 C 0.99903 0.61606 0.95531 0.0
C5827 C 0.99499 0.59972 0.93957 0.0
H5828 H 0.01949 0.63596 0.97638 0.0
H5829 H 0.9771 0.4736 0.82764 0.0
H5830 H 0.28943 0.20193 0.56885 0.0
H5831 H 0.28569 0.21521 0.60221 0.0
H5832 H 0.32135 0.2713 0.60081 0.0
H5833 H 0.32609 0.25747 0.56777 0.0
H5834 H 0.32951 0.26439 0.63167 0.0
H5835 H 0.2731 0.26289 0.60257 0.0
H5836 H 0.24485 0.24917 0.58184 0.0
H5837 H 0.22912 0.20469 0.614 0.0
H5838 H 0.2574 0.21795 0.63476 0.0
H5839 H 0.30734 0.30328 0.72676 0.0
H5840 H 0.30607 0.29876 0.6917 0.0
H5841 H 0.29125 0.23502 0.68481 0.0
H5842 H 0.29298 0.23947 0.71959 0.0
H5843 H 0.27135 0.25177 0.65842 0.0
H5844 H 0.33143 0.25284 0.68414 0.0
H5845 H 0.35899 0.26938 0.70553 0.0
H5846 H 0.36637 0.31935 0.67947 0.0
H5847 H 0.33868 0.3032 0.65813 0.0
C5848 C 0.29628 0.21719 0.57558 0.0
C5849 C 0.30799 0.22868 0.56565 0.0
C5850 C 0.29405 0.22487 0.59469 0.0
C5851 C 0.30293 0.2445 0.60412 0.0
C5852 C 0.31431 0.25614 0.59399 0.0
C5853 C 0.31695 0.24826 0.57505 0.0
C5854 C 0.30117 0.25238 0.62481 0.0
C5855 C 0.31668 0.26198 0.63731 0.0
C5856 C 0.28452 0.24935 0.63251 0.0
C5857 C 0.26744 0.24135 0.62014 0.0
C5858 C 0.26367 0.2501 0.60515 0.0
C5859 C 0.24764 0.24241 0.5934 0.0
C5860 C 0.23521 0.22605 0.59658 0.0
C5861 C 0.23877 0.21736 0.61155 0.0
C5862 C 0.25479 0.22498 0.62333 0.0
C5863 C 0.30348 0.28837 0.71767 0.0
C5864 C 0.29995 0.27169 0.72572 0.0
C5865 C 0.3028 0.2858 0.69773 0.0
C5866 C 0.29848 0.26655 0.68574 0.0
C5867 C 0.29444 0.24997 0.69383 0.0
C5868 C 0.29549 0.25252 0.71364 0.0
C5869 C 0.29958 0.26328 0.66484 0.0
C5870 C 0.28401 0.2545 0.65245 0.0
C5871 C 0.31607 0.26747 0.65719 0.0
C5872 C 0.33291 0.27691 0.66969 0.0
C5873 C 0.33887 0.26741 0.68307 0.0
C5874 C 0.35452 0.2767 0.69516 0.0
C5875 C 0.36441 0.29542 0.69388 0.0
C5876 C 0.35869 0.30486 0.68046 0.0
C5877 C 0.34303 0.29564 0.66835 0.0
H5878 H 0.37651 0.3026 0.70327 0.0
H5879 H 0.22281 0.22011 0.58746 0.0
H5880 H 0.60627 0.51764 0.21819 0.0
H5881 H 0.59534 0.52159 0.18745 0.0
H5882 H 0.64379 0.51269 0.16447 0.0
H5883 H 0.65512 0.50895 0.19585 0.0
H5884 H 0.63468 0.54118 0.1508 0.0
H5885 H 0.60057 0.47639 0.15244 0.0
H5886 H 0.58086 0.45112 0.16571 0.0
H5887 H 0.54029 0.48339 0.16723 0.0
H5888 H 0.55985 0.50898 0.15419 0.0
H5889 H 0.60299 0.53332 0.05422 0.0
H5890 H 0.6142 0.52953 0.08491 0.0
H5891 H 0.5633 0.53056 0.10594 0.0
H5892 H 0.55161 0.53298 0.07421 0.0
H5893 H 0.5738 0.50596 0.12083 0.0
H5894 H 0.60838 0.57216 0.12231 0.0
H5895 H 0.62875 0.59911 0.11171 0.0
H5896 H 0.66804 0.56503 0.10502 0.0
H5897 H 0.64803 0.53807 0.11596 0.0
C5898 C 0.61477 0.51635 0.20672 0.0
C5899 C 0.63175 0.51279 0.21002 0.0
C5900 C 0.6083 0.51851 0.18878 0.0
C5901 C 0.61833 0.51712 0.17293 0.0
C5902 C 0.63545 0.51376 0.1761 0.0
C5903 C 0.64198 0.51151 0.19422 0.0
C5904 C 0.61105 0.51971 0.15354 0.0
C5905 C 0.62145 0.53314 0.14419 0.0
C5906 C 0.5935 0.50999 0.14465 0.0
C5907 C 0.58174 0.49469 0.15253 0.0
C5908 C 0.5875 0.47817 0.15575 0.0
C5909 C 0.57634 0.46378 0.16321 0.0
C5910 C 0.55935 0.46568 0.16737 0.0
C5911 C 0.55346 0.48195 0.16403 0.0
C5912 C 0.56457 0.49639 0.1566 0.0
C5913 C 0.59412 0.53302 0.06539 0.0
C5914 C 0.57639 0.53398 0.06147 0.0
C5915 C 0.60072 0.53106 0.08334 0.0
C5916 C 0.59008 0.53031 0.09868 0.0
C5917 C 0.5722 0.53123 0.09482 0.0
C5918 C 0.56545 0.53291 0.07657 0.0
C5919 C 0.59741 0.52757 0.11804 0.0
C5920 C 0.58702 0.51405 0.1274 0.0
C5921 C 0.61494 0.53732 0.12703 0.0
C5922 C 0.62666 0.55307 0.11972 0.0
C5923 C 0.6213 0.57037 0.1184 0.0
C5924 C 0.63281 0.58567 0.11241 0.0
C5925 C 0.64962 0.58371 0.10755 0.0
C5926 C 0.655 0.5665 0.10874 0.0
C5927 C 0.64363 0.55127 0.11493 0.0
H5928 H 0.65855 0.59558 0.10297 0.0
H5929 H 0.55073 0.45452 0.17314 0.0
H5930 H 0.33786 0.88288 0.98996 0.0
H5931 H 0.33464 0.86221 0.9575 0.0
H5932 H 0.31347 0.90551 0.93606 0.0
H5933 H 0.31542 0.92541 0.96879 0.0
H5934 H 0.29656 0.87204 0.91707 0.0
H5935 H 0.35972 0.90054 0.93298 0.0
H5936 H 0.38878 0.90836 0.95201 0.0
H5937 H 0.38496 0.84598 0.94619 0.0
H5938 H 0.35596 0.83779 0.92697 0.0
H5939 H 0.32669 0.84299 0.82219 0.0
H5940 H 0.33255 0.86128 0.85561 0.0
H5941 H 0.30615 0.80852 0.8732 0.0
H5942 H 0.30091 0.78969 0.8398 0.0
H5943 H 0.34771 0.84656 0.89296 0.0
H5944 H 0.27445 0.83006 0.89271 0.0
H5945 H 0.24785 0.82368 0.86986 0.0
H5946 H 0.27565 0.86733 0.84154 0.0
H5947 H 0.30229 0.87401 0.86433 0.0
C5948 C 0.33239 0.88785 0.9783 0.0
C5949 C 0.32692 0.90571 0.9818 0.0
C5950 C 0.33072 0.87615 0.95971 0.0
C5951 C 0.32427 0.88252 0.94417 0.0
C5952 C 0.31852 0.90024 0.94775 0.0
C5953 C 0.31965 0.91163 0.96643 0.0
C5954 C 0.32357 0.87078 0.92421 0.0
C5955 C 0.30784 0.86662 0.91195 0.0
C5956 C 0.33823 0.86365 0.91717 0.0
C5957 C 0.35564 0.86857 0.9287 0.0
C5958 C 0.36505 0.88851 0.93584 0.0
C5959 C 0.38151 0.893 0.94664 0.0
C5960 C 0.38864 0.8777 0.95044 0.0
C5961 C 0.3794 0.85783 0.94329 0.0
C5962 C 0.363 0.85325 0.93237 0.0
C5963 C 0.32236 0.8351 0.83312 0.0
C5964 C 0.31289 0.81496 0.82827 0.0
C5965 C 0.32581 0.8456 0.8522 0.0
C5966 C 0.3197 0.83619 0.86668 0.0
C5967 C 0.31094 0.81594 0.86208 0.0
C5968 C 0.30777 0.8053 0.843 0.0
C5969 C 0.3209 0.84805 0.88638 0.0
C5970 C 0.33658 0.85209 0.89841 0.0
C5971 C 0.30652 0.85562 0.89305 0.0
C5972 C 0.29023 0.85255 0.88019 0.0
C5973 C 0.27477 0.83841 0.88173 0.0
C5974 C 0.25973 0.83471 0.86876 0.0
C5975 C 0.26006 0.84509 0.85426 0.0
C5976 C 0.27539 0.8593 0.85277 0.0
C5977 C 0.29044 0.86306 0.86571 0.0
H5978 H 0.24844 0.84212 0.84418 0.0
H5979 H 0.40136 0.88122 0.95886 0.0
H5980 H 0.90805 0.54071 0.71178 0.0
H5981 H 0.9316 0.53215 0.69317 0.0
H5982 H 0.96644 0.54404 0.74505 0.0
H5983 H 0.94276 0.55297 0.764 0.0
H5984 H 0.98278 0.5608 0.71753 0.0
H5985 H 0.94974 0.49688 0.72125 0.0
H5986 H 0.92299 0.46983 0.71985 0.0
H5987 H 0.91145 0.46629 0.66004 0.0
H5988 H 0.93798 0.49356 0.66114 0.0
H5989 H 0.04436 0.52306 0.6578 0.0
H5990 H 0.0248 0.5275 0.68324 0.0
H5991 H 0.98059 0.51813 0.6409 0.0
H5992 H 0.99989 0.513 0.61541 0.0
H5993 H 0.97172 0.49747 0.66801 0.0
H5994 H 0.00233 0.56472 0.66605 0.0
H5995 H 0.02893 0.59203 0.66757 0.0
H5996 H 0.04511 0.58887 0.7245 0.0
H5997 H 0.01871 0.56134 0.7232 0.0
C5998 C 0.92067 0.54147 0.71933 0.0
C5999 C 0.92353 0.54749 0.73938 0.0
C6000 C 0.9341 0.53645 0.70864 0.0
C6001 C 0.95065 0.53717 0.71776 0.0
C6002 C 0.95369 0.54328 0.73779 0.0
C6003 C 0.94017 0.54833 0.74857 0.0
C6004 C 0.96478 0.5321 0.70601 0.0
C6005 C 0.98058 0.54676 0.70701 0.0
C6006 C 0.96175 0.51389 0.69214 0.0
C6007 C 0.94582 0.49735 0.69132 0.0
C6008 C 0.94144 0.49043 0.70782 0.0
C6009 C 0.92632 0.47504 0.70708 0.0
C6010 C 0.91552 0.46636 0.68987 0.0
C6011 C 0.91983 0.47303 0.67336 0.0
C6012 C 0.93493 0.48844 0.67403 0.0
C6013 C 0.03044 0.52181 0.65393 0.0
C6014 C 0.02366 0.51773 0.63462 0.0
C6015 C 0.01933 0.52448 0.66846 0.0
C6016 C 1.0013 0.52326 0.66392 0.0
C6017 C 0.99448 0.51913 0.64468 0.0
C6018 C 0.00556 0.51642 0.63015 0.0
C6019 C 0.98942 0.52641 0.67914 0.0
C6020 C 0.97407 0.51134 0.67879 0.0
C6021 C 0.99289 0.54421 0.69362 0.0
C6022 C 0.00867 0.56085 0.69445 0.0
C6023 C 0.01164 0.56976 0.67884 0.0
C6024 C 0.02666 0.58529 0.67966 0.0
C6025 C 0.03873 0.59214 0.6961 0.0
C6026 C 0.03577 0.58352 0.71177 0.0
C6027 C 0.02078 0.56796 0.711 0.0
H6028 H 0.05036 0.60417 0.69672 0.0
H6029 H 0.90382 0.45445 0.68933 0.0
H6030 H 0.33621 0.24813 0.47254 0.0
H6031 H 0.33264 0.26257 0.44543 0.0
H6032 H 0.27571 0.2405 0.44202 0.0
H6033 H 0.27927 0.22499 0.46877 0.0
H6034 H 0.28497 0.23224 0.40885 0.0
H6035 H 0.29862 0.29244 0.45657 0.0
H6036 H 0.31495 0.3178 0.48468 0.0
H6037 H 0.3615 0.32709 0.4546 0.0
H6038 H 0.34552 0.30155 0.4264 0.0
H6039 H 0.27264 0.28209 0.33476 0.0
H6040 H 0.27247 0.27328 0.36574 0.0
H6041 H 0.32955 0.28338 0.36971 0.0
H6042 H 0.32978 0.29185 0.33848 0.0
H6043 H 0.31786 0.29924 0.40346 0.0
H6044 H 0.30112 0.23793 0.35472 0.0
H6045 H 0.28281 0.21239 0.32803 0.0
H6046 H 0.23892 0.20523 0.36207 0.0
H6047 H 0.25648 0.2318 0.38855 0.0
C6048 C 0.32286 0.24658 0.4663 0.0
C6049 C 0.30801 0.23535 0.47292 0.0
C6050 C 0.32084 0.25503 0.45078 0.0
C6051 C 0.30389 0.25296 0.44174 0.0
C6052 C 0.28895 0.24237 0.44874 0.0
C6053 C 0.29099 0.23357 0.46411 0.0
C6054 C 0.30197 0.26035 0.42404 0.0
C6055 C 0.29179 0.2471 0.40784 0.0
C6056 C 0.31121 0.27957 0.42251 0.0
C6057 C 0.32089 0.29497 0.43942 0.0
C6058 C 0.31237 0.29978 0.456 0.0
C6059 C 0.32156 0.31421 0.47194 0.0
C6060 C 0.33926 0.32403 0.47144 0.0
C6061 C 0.34779 0.31947 0.45497 0.0
C6062 C 0.33867 0.30503 0.43899 0.0
C6063 C 0.28516 0.28219 0.34208 0.0
C6064 C 0.30119 0.28715 0.33387 0.0
C6065 C 0.28503 0.27728 0.35988 0.0
C6066 C 0.30096 0.27733 0.36991 0.0
C6067 C 0.31708 0.28312 0.36216 0.0
C6068 C 0.3172 0.28796 0.34429 0.0
C6069 C 0.30086 0.27109 0.38835 0.0
C6070 C 0.31076 0.28453 0.40463 0.0
C6071 C 0.29096 0.25219 0.39007 0.0
C6072 C 0.28013 0.23703 0.37364 0.0
C6073 C 0.28748 0.2312 0.35646 0.0
C6074 C 0.27728 0.21636 0.34142 0.0
C6075 C 0.2599 0.20677 0.34355 0.0
C6076 C 0.25246 0.21248 0.36052 0.0
C6077 C 0.26248 0.22756 0.37548 0.0
H6078 H 0.2521 0.1952 0.33189 0.0
H6079 H 0.34635 0.3352 0.4838 0.0
H6080 H 0.30335 0.57944 0.52118 0.0
H6081 H 0.3275 0.56299 0.52364 0.0
H6082 H 0.3656 0.62003 0.53619 0.0
H6083 H 0.34166 0.63646 0.53347 0.0
H6084 H 0.37243 0.59541 0.5055 0.0
H6085 H 0.35909 0.5915 0.56913 0.0
H6086 H 0.33994 0.58319 0.59406 0.0
H6087 H 0.32757 0.52128 0.56533 0.0
H6088 H 0.34643 0.52926 0.54005 0.0
H6089 H 0.44909 0.56138 0.51027 0.0
H6090 H 0.42572 0.57774 0.51995 0.0
H6091 H 0.38823 0.52064 0.51145 0.0
H6092 H 0.41202 0.50394 0.50348 0.0
H6093 H 0.38106 0.54523 0.5412 0.0
H6094 H 0.39219 0.5489 0.47673 0.0
H6095 H 0.41054 0.55658 0.45098 0.0
H6096 H 0.4258 0.61835 0.4803 0.0
H6097 H 0.40771 0.61098 0.50635 0.0
C6098 C 0.31682 0.58852 0.52507 0.0
C6099 C 0.32062 0.60922 0.52689 0.0
C6100 C 0.33061 0.5791 0.52649 0.0
C6101 C 0.34834 0.5903 0.52998 0.0
C6102 C 0.352 0.61111 0.53337 0.0
C6103 C 0.33827 0.62049 0.53183 0.0
C6104 C 0.36313 0.58034 0.52747 0.0
C6105 C 0.37451 0.58472 0.51359 0.0
C6106 C 0.36539 0.56583 0.53746 0.0
C6107 C 0.35405 0.561 0.55262 0.0
C6108 C 0.35216 0.57613 0.56804 0.0
C6109 C 0.34138 0.57148 0.58225 0.0
C6110 C 0.33252 0.55172 0.58126 0.0
C6111 C 0.33443 0.53657 0.56607 0.0
C6112 C 0.34518 0.54115 0.5518 0.0
C6113 C 0.43605 0.55215 0.51094 0.0
C6114 C 0.43254 0.53121 0.50598 0.0
C6115 C 0.42258 0.56162 0.51622 0.0
C6116 C 0.40513 0.55043 0.51599 0.0
C6117 C 0.4016 0.52957 0.5116 0.0
C6118 C 0.41518 0.52005 0.50675 0.0
C6119 C 0.39047 0.56054 0.51941 0.0
C6120 C 0.37904 0.55606 0.53327 0.0
C6121 C 0.38798 0.57488 0.50927 0.0
C6122 C 0.39872 0.57936 0.49354 0.0
C6123 C 0.39954 0.56409 0.47772 0.0
C6124 C 0.40988 0.56839 0.46308 0.0
C6125 C 0.41936 0.58793 0.46402 0.0
C6126 C 0.41847 0.60322 0.47959 0.0
C6127 C 0.40816 0.599 0.49429 0.0
H6128 H 0.42736 0.59123 0.45266 0.0
H6129 H 0.32419 0.54815 0.59229 0.0
H6130 H 0.8496 0.95261 0.52245 0.0
H6131 H 0.88024 0.97014 0.52098 0.0
H6132 H 0.89901 0.92693 0.545 0.0
H6133 H 0.86834 0.90974 0.54717 0.0
H6134 H 0.9174 0.96202 0.5623 0.0
H6135 H 0.9016 0.92893 0.49677 0.0
H6136 H 0.88368 0.91791 0.46543 0.0
H6137 H 0.89088 0.97872 0.46152 0.0
H6138 H 0.90869 0.99013 0.49295 0.0
H6139 H 0.00626 0.98943 0.53432 0.0
H6140 H 0.97569 0.97155 0.53677 0.0
H6141 H 0.95726 0.02321 0.5315 0.0
H6142 H 0.98788 0.04121 0.52939 0.0
H6143 H 0.93932 0.98377 0.50474 0.0
H6144 H 0.95624 0.01555 0.57166 0.0
H6145 H 0.97574 0.02422 0.60184 0.0
H6146 H 0.96783 0.9622 0.60145 0.0
H6147 H 0.94852 0.95315 0.57106 0.0
C6148 C 0.86023 0.94667 0.5272 0.0
C6149 C 0.85649 0.92971 0.53487 0.0
C6150 C 0.87779 0.95669 0.52629 0.0
C6151 C 0.89202 0.9498 0.53271 0.0
C6152 C 0.8883 0.93259 0.53998 0.0
C6153 C 0.87072 0.92267 0.54109 0.0
C6154 C 0.91074 0.96103 0.53259 0.0
C6155 C 0.9222 0.9665 0.5496 0.0
C6156 C 0.91709 0.96717 0.51615 0.0
C6157 C 0.90634 0.96039 0.49729 0.0
C6158 C 0.89924 0.93996 0.4893 0.0
C6159 C 0.88912 0.93364 0.47151 0.0
C6160 C 0.88609 0.9476 0.46152 0.0
C6161 C 0.89321 0.96792 0.46928 0.0
C6162 C 0.90334 0.97433 0.48707 0.0
C6163 C 0.9957 0.99707 0.53415 0.0
C6164 C 0.99938 0.01682 0.53219 0.0
C6165 C 0.97829 0.98685 0.53546 0.0
C6166 C 0.96427 0.9961 0.53436 0.0
C6167 C 0.96795 0.01589 0.53248 0.0
C6168 C 0.98543 0.02624 0.53156 0.0
C6169 C 0.94572 0.98477 0.5344 0.0
C6170 C 0.93438 0.97925 0.51738 0.0
C6171 C 0.93961 0.97824 0.55068 0.0
C6172 C 0.95108 0.98367 0.56901 0.0
C6173 C 0.95879 1.00376 0.57792 0.0
C6174 C 0.96979 0.00874 0.59508 0.0
C6175 C 0.97305 0.99377 0.60354 0.0
C6176 C 0.9653 0.97378 0.59487 0.0
C6177 C 0.95432 0.96871 0.57769 0.0
H6178 H 0.98156 0.99766 0.61684 0.0
H6179 H 0.87826 0.94267 0.44774 0.0
H6180 H 0.87179 0.11163 0.29814 0.0
H6181 H 0.85682 0.13772 0.2946 0.0
H6182 H 0.89898 0.16268 0.26375 0.0
H6183 H 0.91383 0.13603 0.26675 0.0
H6184 H 0.88879 0.19327 0.29206 0.0
H6185 H 0.85953 0.1386 0.24001 0.0
H6186 H 0.84296 0.10413 0.22509 0.0
H6187 H 0.80036 0.11126 0.25982 0.0
H6188 H 0.81682 0.14569 0.27516 0.0
H6189 H 0.82698 0.24016 0.23901 0.0
H6190 H 0.84043 0.21298 0.24271 0.0
H6191 H 0.83633 0.22748 0.30331 0.0
H6192 H 0.82196 0.25441 0.29946 0.0
H6193 H 0.82766 0.17744 0.25992 0.0
H6194 H 0.88137 0.22092 0.3212 0.0
H6195 H 0.89834 0.25543 0.3355 0.0
H6196 H 0.89211 0.27082 0.28145 0.0
H6197 H 0.87543 0.23634 0.26676 0.0
C6198 C 0.8779 0.12243 0.29032 0.0
C6199 C 0.89415 0.1211 0.28255 0.0
C6200 C 0.86922 0.13761 0.28834 0.0
C6201 C 0.87648 0.1527 0.2789 0.0
C6202 C 0.89279 0.15154 0.27117 0.0
C6203 C 0.9013 0.13599 0.27274 0.0
C6204 C 0.86701 0.16931 0.27709 0.0
C6205 C 0.87539 0.18961 0.28508 0.0
C6206 C 0.84939 0.16529 0.26806 0.0
C6207 C 0.83949 0.14463 0.25887 0.0
C6208 C 0.84671 0.13275 0.24459 0.0
C6209 C 0.83732 0.11323 0.23603 0.0
C6210 C 0.82064 0.10549 0.24154 0.0
C6211 C 0.8133 0.11726 0.25559 0.0
C6212 C 0.82265 0.13678 0.26421 0.0
C6213 C 0.82853 0.2374 0.25315 0.0
C6214 C 0.82281 0.24952 0.26879 0.0
C6215 C 0.83638 0.2217 0.25528 0.0
C6216 C 0.83968 0.21772 0.27331 0.0
C6217 C 0.83409 0.22987 0.28913 0.0
C6218 C 0.82567 0.24533 0.2869 0.0
C6219 C 0.84927 0.2013 0.27528 0.0
C6220 C 0.84095 0.18105 0.26718 0.0
C6221 C 0.86687 0.20538 0.28436 0.0
C6222 C 0.87691 0.22612 0.29298 0.0
C6223 C 0.88364 0.23168 0.31237 0.0
C6224 C 0.89323 0.25122 0.32054 0.0
C6225 C 0.89623 0.26534 0.30941 0.0
C6226 C 0.8897 0.25991 0.29008 0.0
C6227 C 0.88015 0.24037 0.28184 0.0
H6228 H 0.90366 0.28046 0.31575 0.0
H6229 H 0.81339 0.09037 0.23489 0.0
H6230 H 0.72296 0.15717 0.0331 0.0
H6231 H 0.70097 0.13536 0.0471 0.0
H6232 H 0.71939 0.08467 0.01859 0.0
H6233 H 0.74188 0.10675 0.00498 0.0
H6234 H 0.68641 0.08372 0.00512 0.0
H6235 H 0.71376 0.08833 0.06541 0.0
H6236 H 0.73107 0.1015 0.09701 0.0
H6237 H 0.69555 0.13874 0.11458 0.0
H6238 H 0.67801 0.12583 0.08306 0.0
H6239 H 0.59883 0.03959 0.01728 0.0
H6240 H 0.63088 0.0458 0.02267 0.0
H6241 H 0.63426 0.10769 0.04786 0.0
H6242 H 0.6017 0.10111 0.04348 0.0
H6243 H 0.65892 0.09223 0.06632 0.0
H6244 H 0.63783 0.09327 1.0014 0.0
H6245 H 0.61939 0.07785 0.97062 0.0
H6246 H 0.64441 0.02903 0.96223 0.0
H6247 H 0.66281 0.04406 0.99313 0.0
C6248 C 0.72263 0.14145 0.03032 0.0
C6249 C 0.73356 0.1334 0.01756 0.0
C6250 C 0.7103 0.12904 0.03859 0.0
C6251 C 0.70848 0.10837 0.03378 0.0
C6252 C 0.72067 0.1006 0.02255 0.0
C6253 C 0.73334 0.11314 0.01463 0.0
C6254 C 0.69121 0.09536 0.03571 0.0
C6255 C 0.6806 0.08495 0.01864 0.0
C6256 C 0.68353 0.09726 0.05324 0.0
C6257 C 0.69456 0.10608 0.07184 0.0
C6258 C 0.70973 0.09948 0.07593 0.0
C6259 C 0.71953 0.10682 0.09387 0.0
C6260 C 0.71435 0.12086 0.10783 0.0
C6261 C 0.69947 0.12775 0.1038 0.0
C6262 C 0.68956 0.12038 0.08591 0.0
C6263 C 0.60624 0.05431 0.02467 0.0
C6264 C 0.59775 0.0697 0.03074 0.0
C6265 C 0.62462 0.05789 0.02756 0.0
C6266 C 0.63487 0.07715 0.03576 0.0
C6267 C 0.62648 0.09264 0.0418 0.0
C6268 C 0.60799 0.08896 0.03912 0.0
C6269 C 0.65432 0.08172 0.03571 0.0
C6270 C 0.66506 0.09048 0.05301 0.0
C6271 C 0.66222 0.07838 0.01838 0.0
C6272 C 0.65153 0.06965 0.99961 0.0
C6273 C 0.63933 0.07921 0.99301 0.0
C6274 C 0.62889 0.07054 0.97556 0.0
C6275 C 0.6307 0.05245 0.9645 0.0
C6276 C 0.64301 0.04303 0.97083 0.0
C6277 C 0.65344 0.05161 0.9883 0.0
H6278 H 0.62259 0.04575 0.951 0.0
H6279 H 0.72195 0.1265 0.12173 0.0
H6280 H 0.21599 0.47348 0.23218 0.0
H6281 H 0.23988 0.45728 0.23718 0.0
H6282 H 0.26733 0.50933 0.28033 0.0
H6283 H 0.24308 0.52513 0.27608 0.0
H6284 H 0.27615 0.46254 0.23857 0.0
H6285 H 0.27868 0.49549 0.31908 0.0
H6286 H 0.26025 0.51046 0.34215 0.0
H6287 H 0.21294 0.47604 0.30611 0.0
H6288 H 0.2311 0.46069 0.28299 0.0
H6289 H 0.32441 0.4375 0.32547 0.0
H6290 H 0.31443 0.45898 0.30725 0.0
H6291 H 0.28265 0.40733 0.26664 0.0
H6292 H 0.29255 0.38563 0.2849 0.0
H6293 H 0.27841 0.45558 0.30575 0.0
H6294 H 0.27646 0.42815 0.22226 0.0
H6295 H 0.29455 0.41394 0.19844 0.0
H6296 H 0.34039 0.43458 0.23981 0.0
H6297 H 0.3229 0.4499 0.26359 0.0
C6298 C 0.22737 0.48163 0.24235 0.0
C6299 C 0.22761 0.50032 0.25406 0.0
C6300 C 0.24103 0.47242 0.24512 0.0
C6301 C 0.25511 0.48197 0.25942 0.0
C6302 C 0.25636 0.5016 0.26949 0.0
C6303 C 0.24252 0.51058 0.26709 0.0
C6304 C 0.26664 0.47038 0.26607 0.0
C6305 C 0.27663 0.46077 0.25318 0.0
C6306 C 0.26733 0.46845 0.28523 0.0
C6307 C 0.25624 0.47713 0.29926 0.0
C6308 C 0.26434 0.49106 0.31616 0.0
C6309 C 0.25394 0.49962 0.32922 0.0
C6310 C 0.23543 0.49425 0.32556 0.0
C6311 C 0.22727 0.48023 0.30889 0.0
C6312 C 0.23761 0.4716 0.29581 0.0
C6313 C 0.31559 0.43071 0.31243 0.0
C6314 C 0.30892 0.40998 0.30681 0.0
C6315 C 0.31006 0.44297 0.30195 0.0
C6316 C 0.29781 0.4347 0.28567 0.0
C6317 C 0.29228 0.41394 0.27905 0.0
C6318 C 0.29787 0.4016 0.28955 0.0
C6319 C 0.28818 0.44761 0.2783 0.0
C6320 C 0.27824 0.45735 0.29112 0.0
C6321 C 0.28748 0.44931 0.25903 0.0
C6322 C 0.29819 0.43988 0.24492 0.0
C6323 C 0.29043 0.42982 0.22629 0.0
C6324 C 0.30063 0.42169 0.21272 0.0
C6325 C 0.31858 0.42325 0.21764 0.0
C6326 C 0.32643 0.43322 0.23607 0.0
C6327 C 0.31637 0.44168 0.2496 0.0
H6328 H 0.3264 0.41675 0.20716 0.0
H6329 H 0.22741 0.50093 0.33567 0.0
H6330 H 0.24499 0.40355 0.03555 0.0
H6331 H 0.21831 0.416 0.03163 0.0
H6332 H 0.25117 0.47594 0.04204 0.0
H6333 H 0.27748 0.46384 0.04639 0.0
H6334 H 0.22392 0.47547 0.06204 0.0
H6335 H 0.23235 0.4464 0.99603 0.0
H6336 H 0.23426 0.4186 0.9695 0.0
H6337 H 0.18173 0.38671 0.97637 0.0
H6338 H 0.17962 0.41423 0.00311 0.0
H6339 H 0.17994 0.5358 0.02474 0.0
H6340 H 0.1991 0.51477 0.0311 0.0
H6341 H 0.15412 0.46375 0.01903 0.0
H6342 H 0.13482 0.48472 0.01173 0.0
H6343 H 0.18241 0.45434 0.0027 0.0
H6344 H 0.17203 0.4852 0.06508 0.0
H6345 H 0.16954 0.51272 0.09156 0.0
H6346 H 0.22491 0.54053 0.09224 0.0
H6347 H 0.22768 0.51333 0.06556 0.0
C6348 C 0.24646 0.41936 0.03697 0.0
C6349 C 0.26338 0.43269 0.04136 0.0
C6350 C 0.23122 0.42645 0.03466 0.0
C6351 C 0.23271 0.44693 0.03648 0.0
C6352 C 0.24961 0.46011 0.04069 0.0
C6353 C 0.2647 0.45311 0.04313 0.0
C6354 C 0.21693 0.45515 0.03435 0.0
C6355 C 0.2149 0.47087 0.04901 0.0
C6356 C 0.20463 0.44865 0.01775 0.0
C6357 C 0.20593 0.43221 1.00169 0.0
C6358 C 0.22128 0.43338 0.99197 0.0
C6359 C 0.22238 0.41769 0.97689 0.0
C6360 C 0.20815 0.40087 0.9713 0.0
C6361 C 0.19276 0.39972 0.98074 0.0
C6362 C 0.1916 0.41535 0.99585 0.0
C6363 C 0.17407 0.52009 0.02326 0.0
C6364 C 0.15583 0.51196 0.0176 0.0
C6365 C 0.18504 0.50809 0.02714 0.0
C6366 C 0.17802 0.48772 0.02583 0.0
C6367 C 0.1598 0.47947 0.02023 0.0
C6368 C 0.14877 0.4915 0.01623 0.0
C6369 C 0.19001 0.47524 0.03003 0.0
C6370 C 0.19125 0.4587 0.01585 0.0
C6371 C 0.20158 0.48091 0.04714 0.0
C6372 C 0.20003 0.49725 0.06327 0.0
C6373 C 0.18365 0.49724 0.0708 0.0
C6374 C 0.1822 0.51278 0.08585 0.0
C6375 C 0.19706 0.52837 0.09357 0.0
C6376 C 0.21341 0.52844 0.08626 0.0
C6377 C 0.21494 0.51295 0.07119 0.0
H6378 H 0.1959 0.54039 0.10522 0.0
H6379 H 0.20903 0.38874 0.95961 0.0
H6380 H 0.90857 0.00756 0.25837 0.0
H6381 H 0.89424 0.97181 0.25336 0.0
H6382 H 0.86135 0.98521 0.29856 0.0
H6383 H 0.87517 0.02054 0.3033 0.0
H6384 H 0.89255 0.94487 0.2732 0.0
H6385 H 0.82219 0.95156 0.29342 0.0
H6386 H 0.80158 0.97267 0.29017 0.0
H6387 H 0.82711 0.98906 0.24228 0.0
H6388 H 0.84767 0.96781 0.24506 0.0
H6389 H 0.84712 0.8529 0.29338 0.0
H6390 H 0.86128 0.88748 0.29365 0.0
H6391 H 0.82224 0.88622 0.24851 0.0
H6392 H 0.80771 0.85176 0.24867 0.0
H6393 H 0.82718 0.91986 0.27001 0.0
H6394 H 0.86938 0.88586 0.24317 0.0
H6395 H 0.88977 0.86363 0.2407 0.0
H6396 H 0.9201 0.89986 0.29282 0.0
H6397 H 0.89976 0.92216 0.29573 0.0
C6398 C 0.89806 1.00296 0.26702 0.0
C6399 C 0.89306 0.01736 0.28114 0.0
C6400 C 0.88992 0.98234 0.26426 0.0
C6401 C 0.87637 0.97535 0.27538 0.0
C6402 C 0.87138 0.98978 0.28937 0.0
C6403 C 0.87945 0.01025 0.29213 0.0
C6404 C 0.86766 0.95321 0.27282 0.0
C6405 C 0.87825 0.93951 0.27253 0.0
C6406 C 0.84892 0.94556 0.27139 0.0
C6407 C 0.83659 0.9583 0.26961 0.0
C6408 C 0.82336 0.95964 0.28217 0.0
C6409 C 0.81169 0.97162 0.28041 0.0
C6410 C 0.81308 0.98227 0.26608 0.0
C6411 C 0.82609 0.98088 0.25343 0.0
C6412 C 0.83777 0.96889 0.2551 0.0
C6413 C 0.84151 0.85988 0.28342 0.0
C6414 C 0.82607 0.84924 0.27106 0.0
C6415 C 0.84979 0.87984 0.28348 0.0
C6416 C 0.84323 0.8899 0.27088 0.0
C6417 C 0.8278 0.87922 0.25849 0.0
C6418 C 0.8194 0.85932 0.25857 0.0
C6419 C 0.85207 0.91152 0.27095 0.0
C6420 C 0.8415 0.92517 0.27076 0.0
C6421 C 0.87079 0.91896 0.27137 0.0
C6422 C 0.88296 0.90554 0.26976 0.0
C6423 C 0.88032 0.88898 0.25418 0.0
C6424 C 0.89188 0.87639 0.25269 0.0
C6425 C 0.90619 0.8803 0.26662 0.0
C6426 C 0.90899 0.89683 0.28206 0.0
C6427 C 0.89746 0.90946 0.28363 0.0
H6428 H 0.91514 0.87054 0.26542 0.0
H6429 H 0.80404 0.99155 0.26475 0.0
H6430 H 0.71374 0.07529 0.73606 0.0
H6431 H 0.72945 0.11022 0.73871 0.0
H6432 H 0.70238 0.12844 0.78791 0.0
H6433 H 0.68718 0.09362 0.78583 0.0
H6434 H 0.7066 0.14863 0.74865 0.0
H6435 H 0.73329 0.13482 0.80663 0.0
H6436 H 0.74718 0.11322 0.82183 0.0
H6437 H 0.78756 0.1164 0.783 0.0
H6438 H 0.77364 0.13771 0.76735 0.0
H6439 H 0.75224 0.25058 0.77639 0.0
H6440 H 0.73463 0.21723 0.77383 0.0
H6441 H 0.78223 0.19545 0.76882 0.0
H6442 H 0.80004 0.22983 0.77652 0.0
H6443 H 0.76573 0.17544 0.786 0.0
H6444 H 0.73347 0.17786 0.72155 0.0
H6445 H 0.71634 0.19308 0.70165 0.0
H6446 H 0.68606 0.20862 0.74848 0.0
H6447 H 0.70266 0.19296 0.76829 0.0
C6448 C 0.7111 0.08679 0.74735 0.0
C6449 C 0.69939 0.08186 0.76084 0.0
C6450 C 0.72007 0.10663 0.74887 0.0
C6451 C 0.71713 0.12168 0.76363 0.0
C6452 C 0.7049 0.11689 0.77659 0.0
C6453 C 0.69627 0.09707 0.77538 0.0
C6454 C 0.72703 0.14246 0.76574 0.0
C6455 C 0.71957 0.15467 0.75678 0.0
C6456 C 0.74387 0.15004 0.77617 0.0
C6457 C 0.75231 0.13753 0.78569 0.0
C6458 C 0.74501 0.13069 0.80122 0.0
C6459 C 0.7529 0.11856 0.80993 0.0
C6460 C 0.7682 0.11336 0.80334 0.0
C6461 C 0.77568 0.12037 0.78806 0.0
C6462 C 0.76779 0.13246 0.77926 0.0
C6463 C 0.75888 0.23864 0.77502 0.0
C6464 C 0.77745 0.24268 0.7762 0.0
C6465 C 0.74866 0.21925 0.7727 0.0
C6466 C 0.75665 0.20313 0.76996 0.0
C6467 C 0.7754 0.20732 0.77082 0.0
C6468 C 0.78569 0.22696 0.77482 0.0
C6469 C 0.74588 0.18225 0.76808 0.0
C6470 C 0.75301 0.16977 0.77739 0.0
C6471 C 0.72872 0.17436 0.7577 0.0
C6472 C 0.71993 0.18532 0.74662 0.0
C6473 C 0.72347 0.18502 0.72766 0.0
C6474 C 0.71369 0.19344 0.71635 0.0
C6475 C 0.70041 0.2022 0.72393 0.0
C6476 C 0.69656 0.20214 0.74271 0.0
C6477 C 0.70604 0.19338 0.75392 0.0
H6478 H 0.69292 0.20875 0.71515 0.0
H6479 H 0.7743 0.10396 0.81011 0.0
loop_
_geom_bond_atom_site_label_1
_geom_bond_atom_site_label_2
_geom_bond_distance
_geom_bond_site_symmetry_2
_ccdc_geom_bond_type
Mg0 O1 2.028 . S
Mg0 O7 1.986 . S
Mg0 O9 2.114 . S
Mg0 O10 2.251 . S
Mg0 O13 2.010 . S
O1 Mg0 2.028 . S
O1 C4 1.250 . S
O2 Mg3 2.028 . S
O2 C4 1.248 . S
Mg3 O2 2.028 . S
Mg3 O8 2.032 . S
Mg3 O10 2.079 . S
C4 O1 1.250 . S
C4 O2 1.248 . S
C5 O6 1.264 . S
C5 O13 1.249 . S
O6 C5 1.264 . S
O7 Mg0 1.986 . S
O7 C11 1.246 . S
O8 Mg3 2.032 . S
O8 C11 1.259 . S
O9 Mg0 2.114 . S
O9 C12 1.252 . S
O10 Mg0 2.251 . S
O10 Mg3 2.079 . S
O10 C12 1.273 . S
C11 O7 1.246 . S
C11 O8 1.259 . S
C12 O9 1.252 . S
C12 O10 1.273 . S
O13 Mg0 2.010 . S
O13 C5 1.249 . S
Mg14 O15 2.028 . S
Mg14 O21 1.986 . S
Mg14 O23 2.114 1_455 S
Mg14 O24 2.251 1_455 S
Mg14 O27 2.010 . S
O15 Mg14 2.028 . S
O15 C18 1.250 1_455 S
O16 Mg17 2.028 . S
O16 C18 1.248 . S
Mg17 O16 2.028 . S
Mg17 O22 2.032 . S
Mg17 O24 2.079 . S
C18 O15 1.250 1_655 S
C18 O16 1.248 . S
C19 O20 1.264 . S
C19 O27 1.249 . S
O20 C19 1.264 . S
O21 Mg14 1.986 . S
O21 C25 1.246 1_455 S
O22 Mg17 2.032 . S
O22 C25 1.259 . S
O23 Mg14 2.114 1_655 S
O23 C26 1.252 . S
O24 Mg14 2.251 1_655 S
O24 Mg17 2.079 . S
O24 C26 1.273 . S
C25 O21 1.246 1_655 S
C25 O22 1.259 . S
C26 O23 1.252 . S
C26 O24 1.273 . S
O27 Mg14 2.010 . S
O27 C19 1.249 . S
Mg28 O29 2.028 . S
Mg28 O35 1.986 . S
Mg28 O37 2.114 . S
Mg28 O38 2.251 . S
Mg28 O41 2.010 . S
O29 Mg28 2.028 . S
O29 C32 1.250 . S
O30 Mg31 2.028 . S
O30 C32 1.248 . S
Mg31 O30 2.028 . S
Mg31 O36 2.032 . S
Mg31 O38 2.079 . S
C32 O29 1.250 . S
C32 O30 1.248 . S
C33 O34 1.264 . S
C33 O41 1.249 . S
O34 C33 1.264 . S
O35 Mg28 1.986 . S
O35 C39 1.246 . S
O36 Mg31 2.032 . S
O36 C39 1.259 . S
O37 Mg28 2.114 . S
O37 C40 1.252 . S
O38 Mg28 2.251 . S
O38 Mg31 2.079 . S
O38 C40 1.273 . S
C39 O35 1.246 . S
C39 O36 1.259 . S
C40 O37 1.252 . S
C40 O38 1.273 . S
O41 Mg28 2.010 . S
O41 C33 1.249 . S
Mg42 O43 2.028 . S
Mg42 O49 1.986 . S
Mg42 O51 2.114 . S
Mg42 O52 2.251 . S
Mg42 O55 2.010 . S
O43 Mg42 2.028 . S
O43 C46 1.250 . S
O44 Mg45 2.028 . S
O44 C46 1.248 . S
Mg45 O44 2.028 . S
Mg45 O50 2.032 . S
Mg45 O52 2.079 . S
C46 O43 1.250 . S
C46 O44 1.248 . S
C47 O48 1.264 . S
C47 O55 1.249 . S
O48 C47 1.264 . S
O49 Mg42 1.986 . S
O49 C53 1.246 . S
O50 Mg45 2.032 . S
O50 C53 1.259 . S
O51 Mg42 2.114 . S
O51 C54 1.252 . S
O52 Mg42 2.251 . S
O52 Mg45 2.079 . S
O52 C54 1.273 . S
C53 O49 1.246 . S
C53 O50 1.259 . S
C54 O51 1.252 . S
C54 O52 1.273 . S
O55 Mg42 2.010 . S
O55 C47 1.249 . S
Mg56 O57 2.028 . S
Mg56 O63 1.986 . S
Mg56 O65 2.114 . S
Mg56 O66 2.251 . S
Mg56 O69 2.010 . S
O57 Mg56 2.028 . S
O57 C60 1.250 . S
O58 Mg59 2.028 . S
O58 C60 1.248 . S
Mg59 O58 2.028 . S
Mg59 O64 2.032 . S
Mg59 O66 2.079 . S
C60 O57 1.250 . S
C60 O58 1.248 . S
C61 O62 1.264 . S
C61 O69 1.249 . S
O62 C61 1.264 . S
O63 Mg56 1.986 . S
O63 C67 1.246 . S
O64 Mg59 2.032 . S
O64 C67 1.259 . S
O65 Mg56 2.114 . S
O65 C68 1.252 . S
O66 Mg56 2.251 . S
O66 Mg59 2.079 . S
O66 C68 1.273 . S
C67 O63 1.246 . S
C67 O64 1.259 . S
C68 O65 1.252 . S
C68 O66 1.273 . S
O69 Mg56 2.010 . S
O69 C61 1.249 . S
Mg70 O71 2.028 . S
Mg70 O77 1.986 . S
Mg70 O79 2.114 . S
Mg70 O80 2.251 . S
Mg70 O83 2.010 . S
O71 Mg70 2.028 . S
O71 C74 1.250 . S
O72 Mg73 2.028 . S
O72 C74 1.248 . S
Mg73 O72 2.028 . S
Mg73 O78 2.032 . S
Mg73 O80 2.079 . S
C74 O71 1.250 . S
C74 O72 1.248 . S
C75 O76 1.264 . S
C75 O83 1.249 . S
O76 C75 1.264 . S
O77 Mg70 1.986 . S
O77 C81 1.246 . S
O78 Mg73 2.032 . S
O78 C81 1.259 . S
O79 Mg70 2.114 . S
O79 C82 1.252 . S
O80 Mg70 2.251 . S
O80 Mg73 2.079 . S
O80 C82 1.273 . S
C81 O77 1.246 . S
C81 O78 1.259 . S
C82 O79 1.252 . S
C82 O80 1.273 . S
O83 Mg70 2.010 . S
O83 C75 1.249 . S
Mg84 O85 2.028 . S
Mg84 O91 1.986 . S
Mg84 O93 2.114 . S
Mg84 O94 2.251 . S
Mg84 O97 2.010 . S
O85 Mg84 2.028 . S
O85 C88 1.250 . S
O86 Mg87 2.028 . S
O86 C88 1.248 . S
Mg87 O86 2.028 . S
Mg87 O92 2.032 . S
Mg87 O94 2.079 . S
C88 O85 1.250 . S
C88 O86 1.248 . S
C89 O90 1.264 . S
C89 O97 1.249 . S
O90 C89 1.264 . S
O91 Mg84 1.986 . S
O91 C95 1.246 . S
O92 Mg87 2.032 . S
O92 C95 1.259 . S
O93 Mg84 2.114 . S
O93 C96 1.252 . S
O94 Mg84 2.251 . S
O94 Mg87 2.079 . S
O94 C96 1.273 . S
C95 O91 1.246 . S
C95 O92 1.259 . S
C96 O93 1.252 . S
C96 O94 1.273 . S
O97 Mg84 2.010 . S
O97 C89 1.249 . S
Mg98 O99 2.028 . S
Mg98 O105 1.986 . S
Mg98 O107 2.115 . S
Mg98 O108 2.251 1_455 S
Mg98 O111 2.010 . S
O99 Mg98 2.028 . S
O99 C102 1.250 . S
O100 Mg101 2.028 1_455 S
O100 C102 1.248 . S
Mg101 O100 2.028 1_655 S
Mg101 O106 2.032 . S
Mg101 O108 2.079 . S
C102 O99 1.250 . S
C102 O100 1.248 . S
C103 O104 1.264 . S
C103 O111 1.249 . S
O104 C103 1.264 . S
O105 Mg98 1.986 . S
O105 C109 1.246 . S
O106 Mg101 2.032 . S
O106 C109 1.259 1_655 S
O107 Mg98 2.115 . S
O107 C110 1.250 1_455 S
O108 Mg98 2.251 1_655 S
O108 Mg101 2.079 . S
O108 C110 1.273 . S
C109 O105 1.246 . S
C109 O106 1.259 1_455 S
C110 O107 1.250 1_655 S
C110 O108 1.273 . S
O111 Mg98 2.010 . S
O111 C103 1.249 . S
Mg112 O113 2.028 . S
Mg112 O119 1.986 . S
Mg112 O121 2.114 . S
Mg112 O122 2.251 . S
Mg112 O125 2.010 . S
O113 Mg112 2.028 . S
O113 C116 1.250 . S
O114 Mg115 2.028 . S
O114 C116 1.248 . S
Mg115 O114 2.028 . S
Mg115 O120 2.032 . S
Mg115 O122 2.079 . S
C116 O113 1.250 . S
C116 O114 1.248 . S
C117 O118 1.264 . S
C117 O125 1.249 . S
O118 C117 1.264 . S
O119 Mg112 1.986 . S
O119 C123 1.246 . S
O120 Mg115 2.032 . S
O120 C123 1.259 . S
O121 Mg112 2.114 . S
O121 C124 1.252 . S
O122 Mg112 2.251 . S
O122 Mg115 2.079 . S
O122 C124 1.273 . S
C123 O119 1.246 . S
C123 O120 1.259 . S
C124 O121 1.252 . S
C124 O122 1.273 . S
O125 Mg112 2.010 . S
O125 C117 1.249 . S
Mg126 O127 2.028 . S
Mg126 O133 1.986 . S
Mg126 O135 2.114 . S
Mg126 O136 2.251 . S
Mg126 O139 2.010 . S
O127 Mg126 2.028 . S
O127 C130 1.250 . S
O128 Mg129 2.028 . S
O128 C130 1.248 . S
Mg129 O128 2.028 . S
Mg129 O134 2.032 . S
Mg129 O136 2.079 . S
C130 O127 1.250 . S
C130 O128 1.248 . S
C131 O132 1.264 . S
C131 O139 1.249 . S
O132 C131 1.264 . S
O133 Mg126 1.986 . S
O133 C137 1.246 . S
O134 Mg129 2.032 . S
O134 C137 1.259 . S
O135 Mg126 2.114 . S
O135 C138 1.252 . S
O136 Mg126 2.251 . S
O136 Mg129 2.079 . S
O136 C138 1.273 . S
C137 O133 1.246 . S
C137 O134 1.259 . S
C138 O135 1.252 . S
C138 O136 1.273 . S
O139 Mg126 2.010 . S
O139 C131 1.249 . S
Mg140 O141 2.028 1_565 S
Mg140 O147 1.986 . S
Mg140 O149 2.114 1_565 S
Mg140 O150 2.251 . S
Mg140 O153 2.010 . S
O141 Mg140 2.028 1_545 S
O141 C144 1.250 . S
O142 Mg143 2.028 . S
O142 C144 1.248 . S
Mg143 O142 2.028 . S
Mg143 O148 2.032 1_545 S
Mg143 O150 2.079 1_545 S
C144 O141 1.250 . S
C144 O142 1.248 . S
C145 O146 1.264 . S
C145 O153 1.249 . S
O146 C145 1.264 . S
O147 Mg140 1.986 . S
O147 C151 1.246 . S
O148 Mg143 2.032 1_565 S
O148 C151 1.259 . S
O149 Mg140 2.114 1_545 S
O149 C152 1.252 . S
O150 Mg140 2.251 . S
O150 Mg143 2.079 1_565 S
O150 C152 1.273 1_565 S
C151 O147 1.246 . S
C151 O148 1.259 . S
C152 O149 1.252 . S
C152 O150 1.273 1_545 S
O153 Mg140 2.010 . S
O153 C145 1.249 . S
Mg154 O155 2.028 . S
Mg154 O161 1.986 . S
Mg154 O163 2.114 . S
Mg154 O164 2.251 . S
Mg154 O167 2.010 . S
O155 Mg154 2.028 . S
O155 C158 1.250 1_554 S
O156 Mg157 2.028 1_556 S
O156 C158 1.248 . S
Mg157 O156 2.028 1_554 S
Mg157 O162 2.032 . S
Mg157 O164 2.079 . S
C158 O155 1.250 1_556 S
C158 O156 1.248 . S
C159 O160 1.264 . S
C159 O167 1.249 . S
O160 C159 1.264 . S
O161 Mg154 1.986 . S
O161 C165 1.246 . S
O162 Mg157 2.032 . S
O162 C165 1.259 . S
O163 Mg154 2.114 . S
O163 C166 1.252 . S
O164 Mg154 2.251 . S
O164 Mg157 2.079 . S
O164 C166 1.273 . S
C165 O161 1.246 . S
C165 O162 1.259 . S
C166 O163 1.252 . S
C166 O164 1.273 . S
O167 Mg154 2.010 . S
O167 C159 1.249 . S
Mg168 O169 2.028 . S
Mg168 O175 1.986 . S
Mg168 O177 2.114 . S
Mg168 O178 2.251 . S
Mg168 O181 2.010 . S
O169 Mg168 2.028 . S
O169 C172 1.250 . S
O170 Mg171 2.028 . S
O170 C172 1.248 . S
Mg171 O170 2.028 . S
Mg171 O176 2.032 . S
Mg171 O178 2.079 . S
C172 O169 1.250 . S
C172 O170 1.248 . S
C173 O174 1.264 . S
C173 O181 1.249 . S
O174 C173 1.264 . S
O175 Mg168 1.986 . S
O175 C179 1.246 . S
O176 Mg171 2.032 . S
O176 C179 1.259 . S
O177 Mg168 2.114 . S
O177 C180 1.252 . S
O178 Mg168 2.251 . S
O178 Mg171 2.079 . S
O178 C180 1.273 . S
C179 O175 1.246 . S
C179 O176 1.259 . S
C180 O177 1.252 . S
C180 O178 1.273 . S
O181 Mg168 2.010 . S
O181 C173 1.249 . S
Mg182 O183 2.028 . S
Mg182 O189 1.986 1_554 S
Mg182 O191 2.114 . S
Mg182 O192 2.251 . S
Mg182 O195 2.010 . S
O183 Mg182 2.028 . S
O183 C186 1.250 . S
O184 Mg185 2.028 . S
O184 C186 1.248 . S
Mg185 O184 2.028 . S
Mg185 O190 2.032 . S
Mg185 O192 2.079 . S
C186 O183 1.250 . S
C186 O184 1.248 . S
C187 O188 1.264 1_554 S
C187 O195 1.249 . S
O188 C187 1.264 1_556 S
O189 Mg182 1.986 1_556 S
O189 C193 1.246 . S
O190 Mg185 2.032 . S
O190 C193 1.259 1_554 S
O191 Mg182 2.114 . S
O191 C194 1.252 . S
O192 Mg182 2.251 . S
O192 Mg185 2.079 . S
O192 C194 1.273 . S
C193 O189 1.246 . S
C193 O190 1.259 1_556 S
C194 O191 1.252 . S
C194 O192 1.273 . S
O195 Mg182 2.010 . S
O195 C187 1.249 . S
Mg196 O197 2.028 . S
Mg196 O203 1.986 . S
Mg196 O205 2.114 . S
Mg196 O206 2.251 . S
Mg196 O209 2.010 . S
O197 Mg196 2.028 . S
O197 C200 1.250 . S
O198 Mg199 2.028 . S
O198 C200 1.248 . S
Mg199 O198 2.028 . S
Mg199 O204 2.032 . S
Mg199 O206 2.079 . S
C200 O197 1.250 . S
C200 O198 1.248 . S
C201 O202 1.264 . S
C201 O209 1.249 . S
O202 C201 1.264 . S
O203 Mg196 1.986 . S
O203 C207 1.246 . S
O204 Mg199 2.032 . S
O204 C207 1.259 . S
O205 Mg196 2.114 . S
O205 C208 1.252 . S
O206 Mg196 2.251 . S
O206 Mg199 2.079 . S
O206 C208 1.273 . S
C207 O203 1.246 . S
C207 O204 1.259 . S
C208 O205 1.252 . S
C208 O206 1.273 . S
O209 Mg196 2.010 . S
O209 C201 1.249 . S
Mg210 O211 2.028 . S
Mg210 O217 1.986 . S
Mg210 O219 2.114 . S
Mg210 O220 2.251 . S
Mg210 O223 2.010 . S
O211 Mg210 2.028 . S
O211 C214 1.250 . S
O212 Mg213 2.028 . S
O212 C214 1.248 . S
Mg213 O212 2.028 . S
Mg213 O218 2.032 . S
Mg213 O220 2.079 . S
C214 O211 1.250 . S
C214 O212 1.248 . S
C215 O216 1.264 . S
C215 O223 1.249 . S
O216 C215 1.264 . S
O217 Mg210 1.986 . S
O217 C221 1.246 . S
O218 Mg213 2.032 . S
O218 C221 1.259 . S
O219 Mg210 2.114 . S
O219 C222 1.252 . S
O220 Mg210 2.251 . S
O220 Mg213 2.079 . S
O220 C222 1.273 . S
C221 O217 1.246 . S
C221 O218 1.259 . S
C222 O219 1.252 . S
C222 O220 1.273 . S
O223 Mg210 2.010 . S
O223 C215 1.249 . S
Mg224 O225 2.028 . S
Mg224 O231 1.986 . S
Mg224 O233 2.114 . S
Mg224 O234 2.251 . S
Mg224 O237 2.010 . S
O225 Mg224 2.028 . S
O225 C228 1.250 . S
O226 Mg227 2.028 . S
O226 C228 1.248 . S
Mg227 O226 2.028 . S
Mg227 O232 2.032 . S
Mg227 O234 2.079 . S
C228 O225 1.250 . S
C228 O226 1.248 . S
C229 O230 1.264 . S
C229 O237 1.249 . S
O230 C229 1.264 . S
O231 Mg224 1.986 . S
O231 C235 1.246 . S
O232 Mg227 2.032 . S
O232 C235 1.259 . S
O233 Mg224 2.114 . S
O233 C236 1.252 . S
O234 Mg224 2.251 . S
O234 Mg227 2.079 . S
O234 C236 1.273 . S
C235 O231 1.246 . S
C235 O232 1.259 . S
C236 O233 1.252 . S
C236 O234 1.273 . S
O237 Mg224 2.010 . S
O237 C229 1.249 . S
Mg238 O239 2.028 . S
Mg238 O245 1.986 . S
Mg238 O247 2.114 . S
Mg238 O248 2.251 . S
Mg238 O251 2.010 . S
O239 Mg238 2.028 . S
O239 C242 1.250 . S
O240 Mg241 2.028 . S
O240 C242 1.248 . S
Mg241 O240 2.028 . S
Mg241 O246 2.032 . S
Mg241 O248 2.079 . S
C242 O239 1.250 . S
C242 O240 1.248 . S
C243 O244 1.264 . S
C243 O251 1.249 . S
O244 C243 1.264 . S
O245 Mg238 1.986 . S
O245 C249 1.246 . S
O246 Mg241 2.032 . S
O246 C249 1.259 . S
O247 Mg238 2.114 . S
O247 C250 1.252 . S
O248 Mg238 2.251 . S
O248 Mg241 2.079 . S
O248 C250 1.273 . S
C249 O245 1.246 . S
C249 O246 1.259 . S
C250 O247 1.252 . S
C250 O248 1.273 . S
O251 Mg238 2.010 . S
O251 C243 1.249 . S
Mg252 O253 2.028 . S
Mg252 O259 1.986 . S
Mg252 O261 2.114 . S
Mg252 O262 2.251 . S
Mg252 O265 2.010 . S
O253 Mg252 2.028 . S
O253 C256 1.250 . S
O254 Mg255 2.028 . S
O254 C256 1.248 . S
Mg255 O254 2.028 . S
Mg255 O260 2.032 . S
Mg255 O262 2.079 . S
C256 O253 1.250 . S
C256 O254 1.248 . S
C257 O258 1.264 . S
C257 O265 1.249 . S
O258 C257 1.264 . S
O259 Mg252 1.986 . S
O259 C263 1.246 . S
O260 Mg255 2.032 . S
O260 C263 1.259 . S
O261 Mg252 2.114 . S
O261 C264 1.252 . S
O262 Mg252 2.251 . S
O262 Mg255 2.079 . S
O262 C264 1.273 . S
C263 O259 1.246 . S
C263 O260 1.259 . S
C264 O261 1.252 . S
C264 O262 1.273 . S
O265 Mg252 2.010 . S
O265 C257 1.249 . S
Mg266 O267 2.028 . S
Mg266 O273 1.986 . S
Mg266 O275 2.114 . S
Mg266 O276 2.251 . S
Mg266 O279 2.010 . S
O267 Mg266 2.028 . S
O267 C270 1.250 . S
O268 Mg269 2.028 . S
O268 C270 1.248 . S
Mg269 O268 2.028 . S
Mg269 O274 2.032 . S
Mg269 O276 2.079 . S
C270 O267 1.250 . S
C270 O268 1.248 . S
C271 O272 1.264 . S
C271 O279 1.249 . S
O272 C271 1.264 . S
O273 Mg266 1.986 . S
O273 C277 1.246 . S
O274 Mg269 2.032 . S
O274 C277 1.259 . S
O275 Mg266 2.114 . S
O275 C278 1.252 . S
O276 Mg266 2.251 . S
O276 Mg269 2.079 . S
O276 C278 1.273 . S
C277 O273 1.246 . S
C277 O274 1.259 . S
C278 O275 1.252 . S
C278 O276 1.273 . S
O279 Mg266 2.010 . S
O279 C271 1.249 . S
Mg280 O281 2.028 1_556 S
Mg280 O287 1.986 . S
Mg280 O289 2.114 1_556 S
Mg280 O290 2.251 . S
Mg280 O293 2.010 . S
O281 Mg280 2.028 1_554 S
O281 C284 1.250 . S
O282 Mg283 2.028 . S
O282 C284 1.248 . S
Mg283 O282 2.028 . S
Mg283 O288 2.032 1_554 S
Mg283 O290 2.079 1_554 S
C284 O281 1.250 . S
C284 O282 1.248 . S
C285 O286 1.264 . S
C285 O293 1.249 . S
O286 C285 1.264 . S
O287 Mg280 1.986 . S
O287 C291 1.246 . S
O288 Mg283 2.032 1_556 S
O288 C291 1.259 . S
O289 Mg280 2.114 1_554 S
O289 C292 1.246 1_554 S
O290 Mg280 2.251 . S
O290 Mg283 2.079 1_556 S
O290 C292 1.282 . S
C291 O287 1.246 . S
C291 O288 1.259 . S
C292 O289 1.246 1_556 S
C292 O290 1.282 . S
O293 Mg280 2.010 . S
O293 C285 1.249 . S
Mg294 O295 2.028 . S
Mg294 O301 1.986 . S
Mg294 O303 2.114 . S
Mg294 O304 2.251 . S
Mg294 O307 2.010 . S
O295 Mg294 2.028 . S
O295 C298 1.250 . S
O296 Mg297 2.028 . S
O296 C298 1.248 . S
Mg297 O296 2.028 . S
Mg297 O302 2.032 . S
Mg297 O304 2.079 . S
C298 O295 1.250 . S
C298 O296 1.248 . S
C299 O300 1.264 . S
C299 O307 1.249 . S
O300 C299 1.264 . S
O301 Mg294 1.986 . S
O301 C305 1.246 . S
O302 Mg297 2.032 . S
O302 C305 1.259 . S
O303 Mg294 2.114 . S
O303 C306 1.252 . S
O304 Mg294 2.251 . S
O304 Mg297 2.079 . S
O304 C306 1.273 . S
C305 O301 1.246 . S
C305 O302 1.259 . S
C306 O303 1.252 . S
C306 O304 1.273 . S
O307 Mg294 2.010 . S
O307 C299 1.249 . S
Mg308 O309 2.028 . S
Mg308 O315 1.986 . S
Mg308 O317 2.114 . S
Mg308 O318 2.251 . S
Mg308 O321 2.010 . S
O309 Mg308 2.028 . S
O309 C312 1.250 . S
O310 Mg311 2.028 . S
O310 C312 1.248 . S
Mg311 O310 2.028 . S
Mg311 O316 2.032 . S
Mg311 O318 2.079 . S
C312 O309 1.250 . S
C312 O310 1.248 . S
C313 O314 1.264 . S
C313 O321 1.249 . S
O314 C313 1.264 . S
O315 Mg308 1.986 . S
O315 C319 1.246 . S
O316 Mg311 2.032 . S
O316 C319 1.259 . S
O317 Mg308 2.114 . S
O317 C320 1.252 . S
O318 Mg308 2.251 . S
O318 Mg311 2.079 . S
O318 C320 1.273 . S
C319 O315 1.246 . S
C319 O316 1.259 . S
C320 O317 1.252 . S
C320 O318 1.273 . S
O321 Mg308 2.010 . S
O321 C313 1.249 . S
Mg322 O323 2.028 . S
Mg322 O329 1.986 . S
Mg322 O331 2.114 . S
Mg322 O332 2.251 . S
Mg322 O335 2.010 . S
O323 Mg322 2.028 . S
O323 C326 1.250 . S
O324 Mg325 2.028 . S
O324 C326 1.248 . S
Mg325 O324 2.028 . S
Mg325 O330 2.032 . S
Mg325 O332 2.079 . S
C326 O323 1.250 . S
C326 O324 1.248 . S
C327 O328 1.264 . S
C327 O335 1.249 . S
O328 C327 1.264 . S
O329 Mg322 1.986 . S
O329 C333 1.246 . S
O330 Mg325 2.032 . S
O330 C333 1.259 . S
O331 Mg322 2.114 . S
O331 C334 1.252 . S
O332 Mg322 2.251 . S
O332 Mg325 2.079 . S
O332 C334 1.273 . S
C333 O329 1.246 . S
C333 O330 1.259 . S
C334 O331 1.252 . S
C334 O332 1.273 . S
O335 Mg322 2.010 . S
O335 C327 1.249 . S
Tb336 N367 2.660 1_545 S
Tb336 N374 2.600 1_544 S
Tb336 O380 2.546 1_454 S
Tb336 O381 2.610 . S
Tb336 O383 2.320 . S
Tb336 O384 2.570 . S
Tb336 O385 2.413 1_455 S
Tb336 O387 2.362 . S
Tb336 O388 2.421 1_554 S
Tb336 C400 2.833 1_454 S
C337 C340 1.432 . S
C337 C341 1.414 . S
C337 N344 1.359 . S
C338 C340 1.417 . S
C338 C342 1.432 . S
C338 C350 1.398 1_554 S
C339 C341 1.444 . S
C339 C342 1.317 . S
C339 H362 0.929 . S
C340 C337 1.432 . S
C340 C338 1.417 . S
C340 N348 1.360 . S
C341 C337 1.414 . S
C341 C339 1.444 . S
C341 C346 1.385 . S
C342 C338 1.432 . S
C342 C339 1.317 . S
C342 H354 0.930 . S
C343 C345 1.392 . S
C343 C346 1.370 . S
C343 H355 0.931 . S
N344 C337 1.359 . S
N344 C345 1.327 . S
N344 Tb347 2.600 . S
C345 C343 1.392 . S
C345 N344 1.327 . S
C345 H352 0.930 . S
C346 C341 1.385 . S
C346 C343 1.370 . S
C346 H365 0.930 . S
Tb347 N344 2.600 . S
Tb347 N348 2.660 . S
Tb347 O381 2.362 . S
Tb347 O382 2.421 . S
Tb347 O386 2.546 . S
Tb347 O387 2.610 . S
Tb347 O389 2.320 1_554 S
Tb347 O390 2.552 . S
Tb347 O391 2.413 . S
Tb347 C411 2.833 . S
N348 C340 1.360 . S
N348 Tb347 2.660 . S
N348 C349 1.305 1_554 S
C349 N348 1.305 1_556 S
C349 C351 1.407 . S
C349 H356 0.930 . S
C350 C338 1.398 1_556 S
C350 C351 1.350 . S
C350 H358 0.937 . S
C351 C349 1.407 . S
C351 C350 1.350 . S
C351 H353 0.930 . S
H352 C345 0.930 . S
H353 C351 0.930 . S
H354 C342 0.930 . S
H355 C343 0.931 . S
H356 C349 0.930 . S
H357 C371 0.931 . S
H358 C350 0.937 . S
H359 C377 0.881 1_545 S
H360 C368 0.930 1_545 S
H361 C375 0.931 . S
H362 C339 0.929 . S
H363 C369 0.930 . S
H364 C402 0.930 1_554 S
H365 C346 0.930 . S
H366 C401 0.929 . S
N367 Tb336 2.660 1_565 S
N367 C368 1.305 . S
N367 C372 1.360 1_455 S
C368 H360 0.930 1_565 S
C368 N367 1.305 . S
C368 C371 1.407 1_455 S
C369 H363 0.930 . S
C369 C370 1.410 . S
C369 C371 1.345 . S
C370 C369 1.410 . S
C370 C372 1.417 . S
C370 C402 1.432 1_554 S
C371 H357 0.931 . S
C371 C368 1.407 1_655 S
C371 C369 1.345 . S
C372 N367 1.360 1_655 S
C372 C370 1.417 . S
C372 C376 1.432 1_554 S
H373 C378 0.930 . S
N374 Tb336 2.600 1_566 S
N374 C376 1.359 1_455 S
N374 C377 1.327 . S
C375 H361 0.931 . S
C375 C377 1.392 1_655 S
C375 C378 1.370 . S
C376 C372 1.432 1_556 S
C376 N374 1.359 1_655 S
C376 C379 1.414 . S
C377 H359 0.881 1_565 S
C377 N374 1.327 . S
C377 C375 1.392 1_455 S
C378 H373 0.930 . S
C378 C375 1.370 . S
C378 C379 1.385 . S
C379 C376 1.414 . S
C379 C378 1.385 . S
C379 C401 1.444 . S
O380 Tb336 2.546 1_656 S
O380 C400 1.251 . S
O381 Tb336 2.610 . S
O381 Tb347 2.362 . S
O381 C392 1.283 . S
O382 Tb347 2.421 . S
O382 C399 1.262 . S
O383 Tb336 2.320 . S
O383 C399 1.260 . S
O384 Tb336 2.570 . S
O384 C392 1.270 . S
O385 Tb336 2.413 1_655 S
O385 C400 1.256 1_554 S
O386 Tb347 2.546 . S
O386 C411 1.251 . S
O387 Tb336 2.362 . S
O387 Tb347 2.610 . S
O387 C403 1.283 . S
O388 Tb336 2.421 1_556 S
O388 C410 1.262 . S
O389 Tb347 2.320 1_556 S
O389 C410 1.260 . S
O390 Tb347 2.552 . S
O390 C403 1.243 . S
O391 Tb347 2.413 . S
O391 C411 1.256 . S
C392 O381 1.283 . S
C392 O384 1.270 . S
C393 C395 1.382 1_556 S
C393 C397 1.393 . S
C393 C400 1.500 . S
C394 C395 1.400 1_556 S
C394 C396 1.384 . S
C395 C393 1.382 1_554 S
C395 C394 1.400 1_554 S
C395 H412 0.930 . S
C396 C394 1.384 . S
C396 C398 1.392 . S
C396 H413 0.931 . S
C397 C393 1.393 . S
C397 C398 1.401 . S
C397 H414 0.930 . S
C398 C396 1.392 . S
C398 C397 1.401 . S
C398 H415 0.930 . S
C399 O382 1.262 . S
C399 O383 1.260 . S
C400 Tb336 2.833 1_656 S
C400 O380 1.251 . S
C400 O385 1.256 1_556 S
C400 C393 1.500 . S
C401 H366 0.929 . S
C401 C379 1.444 . S
C401 C402 1.317 . S
C402 H364 0.930 1_556 S
C402 C370 1.432 1_556 S
C402 C401 1.317 . S
C403 O387 1.283 . S
C403 O390 1.243 . S
C404 C405 1.382 . S
C404 C408 1.393 . S
C404 C411 1.500 . S
C405 C404 1.382 . S
C405 C406 1.400 . S
C405 H416 0.930 . S
C406 C405 1.400 . S
C406 C407 1.384 . S
C407 C406 1.384 . S
C407 C409 1.392 . S
C407 H417 0.931 . S
C408 C404 1.393 . S
C408 C409 1.401 . S
C408 H418 0.930 . S
C409 C407 1.392 . S
C409 C408 1.401 . S
C409 H419 0.930 . S
C410 O388 1.262 . S
C410 O389 1.260 . S
C411 Tb347 2.833 . S
C411 O386 1.251 . S
C411 O391 1.256 . S
C411 C404 1.500 . S
H412 C395 0.930 . S
H413 C396 0.931 . S
H414 C397 0.930 . S
H415 C398 0.930 . S
H416 C405 0.930 . S
H417 C407 0.931 . S
H418 C408 0.930 . S
H419 C409 0.930 . S
Tb420 N451 2.660 . S
Tb420 N458 2.600 . S
Tb420 O464 2.546 . S
Tb420 O465 2.610 . S
Tb420 O467 2.320 . S
Tb420 O468 2.552 . S
Tb420 O469 2.413 . S
Tb420 O471 2.362 . S
Tb420 O472 2.421 . S
Tb420 C484 2.833 . S
C421 C424 1.432 . S
C421 C425 1.414 . S
C421 N428 1.359 . S
C422 C424 1.417 . S
C422 C426 1.432 . S
C422 C434 1.410 . S
C423 C425 1.444 . S
C423 C426 1.317 . S
C423 H446 0.929 . S
C424 C421 1.432 . S
C424 C422 1.417 . S
C424 N432 1.360 . S
C425 C421 1.414 . S
C425 C423 1.444 . S
C425 C430 1.385 . S
C426 C422 1.432 . S
C426 C423 1.317 . S
C426 H438 0.930 . S
C427 C429 1.392 . S
C427 C430 1.370 . S
C427 H439 0.931 . S
N428 C421 1.359 . S
N428 C429 1.327 . S
N428 Tb431 2.600 . S
C429 C427 1.392 . S
C429 N428 1.327 . S
C429 H436 0.930 . S
C430 C425 1.385 . S
C430 C427 1.370 . S
C430 H449 0.930 . S
Tb431 N428 2.600 . S
Tb431 N432 2.660 . S
Tb431 O465 2.362 . S
Tb431 O466 2.421 . S
Tb431 O470 2.546 . S
Tb431 O471 2.610 . S
Tb431 O473 2.320 . S
Tb431 O474 2.552 . S
Tb431 O475 2.413 . S
Tb431 C495 2.833 . S
N432 C424 1.360 . S
N432 Tb431 2.660 . S
N432 C433 1.305 . S
C433 N432 1.305 . S
C433 C435 1.407 . S
C433 H440 0.930 . S
C434 C422 1.410 . S
C434 C435 1.345 . S
C434 H442 0.930 . S
C435 C433 1.407 . S
C435 C434 1.345 . S
C435 H437 0.930 . S
H436 C429 0.930 . S
H437 C435 0.930 . S
H438 C426 0.930 . S
H439 C427 0.931 . S
H440 C433 0.930 . S
H441 C455 0.930 . S
H442 C434 0.930 . S
H443 C461 0.930 . S
H444 C452 0.930 . S
H445 C459 0.931 . S
H446 C423 0.929 . S
H447 C453 0.930 . S
H448 C486 0.930 . S
H449 C430 0.930 . S
H450 C485 0.929 . S
N451 Tb420 2.660 . S
N451 C452 1.305 . S
N451 C456 1.360 . S
C452 H444 0.930 . S
C452 N451 1.305 . S
C452 C455 1.407 . S
C453 H447 0.930 . S
C453 C454 1.410 . S
C453 C455 1.345 . S
C454 C453 1.410 . S
C454 C456 1.417 . S
C454 C486 1.432 . S
C455 H441 0.930 . S
C455 C452 1.407 . S
C455 C453 1.345 . S
C456 N451 1.360 . S
C456 C454 1.417 . S
C456 C460 1.432 . S
H457 C462 0.930 . S
N458 Tb420 2.600 . S
N458 C460 1.359 . S
N458 C461 1.327 . S
C459 H445 0.931 . S
C459 C461 1.392 . S
C459 C462 1.370 . S
C460 C456 1.432 . S
C460 N458 1.359 . S
C460 C463 1.414 . S
C461 H443 0.930 . S
C461 N458 1.327 . S
C461 C459 1.392 . S
C462 H457 0.930 . S
C462 C459 1.370 . S
C462 C463 1.385 . S
C463 C460 1.414 . S
C463 C462 1.385 . S
C463 C485 1.444 . S
O464 Tb420 2.546 . S
O464 C484 1.251 . S
O465 Tb420 2.610 . S
O465 Tb431 2.362 . S
O465 C476 1.283 . S
O466 Tb431 2.421 . S
O466 C483 1.262 . S
O467 Tb420 2.320 . S
O467 C483 1.260 . S
O468 Tb420 2.552 . S
O468 C476 1.243 . S
O469 Tb420 2.413 . S
O469 C484 1.256 . S
O470 Tb431 2.546 . S
O470 C495 1.251 . S
O471 Tb420 2.362 . S
O471 Tb431 2.610 . S
O471 C487 1.283 . S
O472 Tb420 2.421 . S
O472 C494 1.262 . S
O473 Tb431 2.320 . S
O473 C494 1.260 . S
O474 Tb431 2.552 . S
O474 C487 1.243 . S
O475 Tb431 2.413 . S
O475 C495 1.256 . S
C476 O465 1.283 . S
C476 O468 1.243 . S
C477 C479 1.382 . S
C477 C481 1.393 . S
C477 C484 1.500 . S
C478 C479 1.400 . S
C478 C480 1.384 . S
C479 C477 1.382 . S
C479 C478 1.400 . S
C479 H496 0.930 . S
C480 C478 1.384 . S
C480 C482 1.392 . S
C480 H497 0.931 . S
C481 C477 1.393 . S
C481 C482 1.401 . S
C481 H498 0.930 . S
C482 C480 1.392 . S
C482 C481 1.401 . S
C482 H499 0.930 . S
C483 O466 1.262 . S
C483 O467 1.260 . S
C484 Tb420 2.833 . S
C484 O464 1.251 . S
C484 O469 1.256 . S
C484 C477 1.500 . S
C485 H450 0.929 . S
C485 C463 1.444 . S
C485 C486 1.317 . S
C486 H448 0.930 . S
C486 C454 1.432 . S
C486 C485 1.317 . S
C487 O471 1.283 . S
C487 O474 1.243 . S
C488 C489 1.382 . S
C488 C492 1.393 . S
C488 C495 1.500 . S
C489 C488 1.382 . S
C489 C490 1.400 . S
C489 H500 0.930 . S
C490 C489 1.400 . S
C490 C491 1.384 . S
C491 C490 1.384 . S
C491 C493 1.392 . S
C491 H501 0.931 . S
C492 C488 1.393 . S
C492 C493 1.401 . S
C492 H502 0.930 . S
C493 C491 1.392 . S
C493 C492 1.401 . S
C493 H503 0.930 . S
C494 O472 1.262 . S
C494 O473 1.260 . S
C495 Tb431 2.833 . S
C495 O470 1.251 . S
C495 O475 1.256 . S
C495 C488 1.500 . S
H496 C479 0.930 . S
H497 C480 0.931 . S
H498 C481 0.930 . S
H499 C482 0.930 . S
H500 C489 0.930 . S
H501 C491 0.931 . S
H502 C492 0.930 . S
H503 C493 0.930 . S
Tb504 N535 2.660 . S
Tb504 N542 2.600 . S
Tb504 O548 2.546 . S
Tb504 O549 2.610 . S
Tb504 O551 2.320 . S
Tb504 O552 2.552 . S
Tb504 O553 2.413 . S
Tb504 O555 2.362 . S
Tb504 O556 2.421 . S
Tb504 C568 2.833 . S
C505 C508 1.432 . S
C505 C509 1.414 . S
C505 N512 1.359 1_565 S
C506 C508 1.417 . S
C506 C510 1.432 . S
C506 C518 1.410 . S
C507 C509 1.444 . S
C507 C510 1.317 . S
C507 H530 0.929 . S
C508 C505 1.432 . S
C508 C506 1.417 . S
C508 N516 1.360 1_565 S
C509 C505 1.414 . S
C509 C507 1.444 . S
C509 C514 1.385 . S
C510 C506 1.432 . S
C510 C507 1.317 . S
C510 H522 0.930 . S
C511 C513 1.392 . S
C511 C514 1.370 1_545 S
C511 H523 0.931 . S
N512 C505 1.359 1_545 S
N512 C513 1.327 . S
N512 Tb515 2.600 . S
C513 C511 1.392 . S
C513 N512 1.327 . S
C513 H520 0.930 . S
C514 C509 1.385 . S
C514 C511 1.370 1_565 S
C514 H533 0.930 . S
Tb515 N512 2.600 . S
Tb515 N516 2.660 . S
Tb515 O549 2.362 . S
Tb515 O550 2.421 . S
Tb515 O554 2.546 . S
Tb515 O555 2.610 . S
Tb515 O557 2.320 . S
Tb515 O558 2.552 . S
Tb515 O559 2.413 . S
Tb515 C579 2.833 . S
N516 C508 1.360 1_545 S
N516 Tb515 2.660 . S
N516 C517 1.305 1_545 S
C517 N516 1.305 1_565 S
C517 C519 1.407 . S
C517 H524 0.930 1_565 S
C518 C506 1.410 . S
C518 C519 1.345 . S
C518 H526 0.930 . S
C519 C517 1.407 . S
C519 C518 1.345 . S
C519 H521 0.930 . S
H520 C513 0.930 . S
H521 C519 0.930 . S
H522 C510 0.930 . S
H523 C511 0.931 . S
H524 C517 0.930 1_545 S
H525 C539 0.930 . S
H526 C518 0.930 . S
H527 C545 0.930 . S
H528 C536 0.930 . S
H529 C543 0.931 . S
H530 C507 0.929 . S
H531 C537 0.930 . S
H532 C570 0.930 . S
H533 C514 0.930 . S
H534 C569 0.929 . S
N535 Tb504 2.660 . S
N535 C536 1.305 . S
N535 C540 1.360 . S
C536 H528 0.930 . S
C536 N535 1.305 . S
C536 C539 1.407 . S
C537 H531 0.930 . S
C537 C538 1.410 . S
C537 C539 1.345 . S
C538 C537 1.410 . S
C538 C540 1.417 . S
C538 C570 1.432 . S
C539 H525 0.930 . S
C539 C536 1.407 . S
C539 C537 1.345 . S
C540 N535 1.360 . S
C540 C538 1.417 . S
C540 C544 1.432 . S
H541 C546 0.930 . S
N542 Tb504 2.600 . S
N542 C544 1.359 . S
N542 C545 1.327 . S
C543 H529 0.931 . S
C543 C545 1.392 . S
C543 C546 1.370 . S
C544 C540 1.432 . S
C544 N542 1.359 . S
C544 C547 1.414 . S
C545 H527 0.930 . S
C545 N542 1.327 . S
C545 C543 1.392 . S
C546 H541 0.930 . S
C546 C543 1.370 . S
C546 C547 1.385 . S
C547 C544 1.414 . S
C547 C546 1.385 . S
C547 C569 1.444 . S
O548 Tb504 2.546 . S
O548 C568 1.251 . S
O549 Tb504 2.610 . S
O549 Tb515 2.362 . S
O549 C560 1.283 . S
O550 Tb515 2.421 . S
O550 C567 1.262 . S
O551 Tb504 2.320 . S
O551 C567 1.260 . S
O552 Tb504 2.552 . S
O552 C560 1.243 . S
O553 Tb504 2.413 . S
O553 C568 1.256 . S
O554 Tb515 2.546 . S
O554 C579 1.251 . S
O555 Tb504 2.362 . S
O555 Tb515 2.610 . S
O555 C571 1.283 . S
O556 Tb504 2.421 . S
O556 C578 1.262 . S
O557 Tb515 2.320 . S
O557 C578 1.260 . S
O558 Tb515 2.552 . S
O558 C571 1.243 . S
O559 Tb515 2.413 . S
O559 C579 1.256 . S
C560 O549 1.283 . S
C560 O552 1.243 . S
C561 C563 1.382 . S
C561 C565 1.393 . S
C561 C568 1.500 . S
C562 C563 1.400 1_565 S
C562 C564 1.384 . S
C563 C561 1.382 . S
C563 C562 1.400 1_545 S
C563 H580 0.930 . S
C564 C562 1.384 . S
C564 C566 1.392 1_565 S
C564 H581 0.931 . S
C565 C561 1.393 . S
C565 C566 1.401 . S
C565 H582 0.930 . S
C566 C564 1.392 1_545 S
C566 C565 1.401 . S
C566 H583 0.930 . S
C567 O550 1.262 . S
C567 O551 1.260 . S
C568 Tb504 2.833 . S
C568 O548 1.251 . S
C568 O553 1.256 . S
C568 C561 1.500 . S
C569 H534 0.929 . S
C569 C547 1.444 . S
C569 C570 1.317 . S
C570 H532 0.930 . S
C570 C538 1.432 . S
C570 C569 1.317 . S
C571 O555 1.283 . S
C571 O558 1.243 . S
C572 C573 1.382 . S
C572 C576 1.393 . S
C572 C579 1.500 . S
C573 C572 1.382 . S
C573 C574 1.400 . S
C573 H584 0.930 . S
C574 C573 1.400 . S
C574 C575 1.384 . S
C575 C574 1.384 . S
C575 C577 1.392 . S
C575 H585 0.931 . S
C576 C572 1.393 . S
C576 C577 1.401 . S
C576 H586 0.930 . S
C577 C575 1.392 . S
C577 C576 1.401 . S
C577 H587 0.930 . S
C578 O556 1.262 . S
C578 O557 1.260 . S
C579 Tb515 2.833 . S
C579 O554 1.251 . S
C579 O559 1.256 . S
C579 C572 1.500 . S
H580 C563 0.930 . S
H581 C564 0.931 . S
H582 C565 0.930 . S
H583 C566 0.930 . S
H584 C573 0.930 . S
H585 C575 0.931 . S
H586 C576 0.930 . S
H587 C577 0.930 . S
Tb588 N619 2.660 . S
Tb588 N626 2.600 . S
Tb588 O632 2.546 . S
Tb588 O633 2.610 . S
Tb588 O635 2.320 . S
Tb588 O636 2.552 . S
Tb588 O637 2.413 . S
Tb588 O639 2.362 . S
Tb588 O640 2.421 . S
Tb588 C652 2.833 . S
C589 C592 1.432 . S
C589 C593 1.414 . S
C589 N596 1.359 . S
C590 C592 1.417 . S
C590 C594 1.432 . S
C590 C602 1.410 . S
C591 C593 1.444 . S
C591 C594 1.317 . S
C591 H614 0.929 . S
C592 C589 1.432 . S
C592 C590 1.417 . S
C592 N600 1.360 . S
C593 C589 1.414 . S
C593 C591 1.444 . S
C593 C598 1.385 . S
C594 C590 1.432 . S
C594 C591 1.317 . S
C594 H606 0.930 . S
C595 C597 1.392 . S
C595 C598 1.370 . S
C595 H607 0.931 . S
N596 C589 1.359 . S
N596 C597 1.327 . S
N596 Tb599 2.600 . S
C597 C595 1.392 . S
C597 N596 1.327 . S
C597 H604 0.930 . S
C598 C593 1.385 . S
C598 C595 1.370 . S
C598 H617 0.930 . S
Tb599 N596 2.600 . S
Tb599 N600 2.660 . S
Tb599 O633 2.362 . S
Tb599 O634 2.421 . S
Tb599 O638 2.546 . S
Tb599 O639 2.610 . S
Tb599 O641 2.320 . S
Tb599 O642 2.552 . S
Tb599 O643 2.413 . S
Tb599 C663 2.833 . S
N600 C592 1.360 . S
N600 Tb599 2.660 . S
N600 C601 1.305 . S
C601 N600 1.305 . S
C601 C603 1.407 . S
C601 H608 0.930 . S
C602 C590 1.410 . S
C602 C603 1.345 . S
C602 H610 0.930 . S
C603 C601 1.407 . S
C603 C602 1.345 . S
C603 H605 0.930 . S
H604 C597 0.930 . S
H605 C603 0.930 . S
H606 C594 0.930 . S
H607 C595 0.931 . S
H608 C601 0.930 . S
H609 C623 0.930 . S
H610 C602 0.930 . S
H611 C629 0.930 . S
H612 C620 0.930 . S
H613 C627 0.931 . S
H614 C591 0.929 . S
H615 C621 0.930 . S
H616 C654 0.930 . S
H617 C598 0.930 . S
H618 C653 0.929 . S
N619 Tb588 2.660 . S
N619 C620 1.305 . S
N619 C624 1.360 . S
C620 H612 0.930 . S
C620 N619 1.305 . S
C620 C623 1.407 . S
C621 H615 0.930 . S
C621 C622 1.410 . S
C621 C623 1.345 . S
C622 C621 1.410 . S
C622 C624 1.417 . S
C622 C654 1.432 . S
C623 H609 0.930 . S
C623 C620 1.407 . S
C623 C621 1.345 . S
C624 N619 1.360 . S
C624 C622 1.417 . S
C624 C628 1.432 . S
H625 C630 0.930 . S
N626 Tb588 2.600 . S
N626 C628 1.359 . S
N626 C629 1.327 . S
C627 H613 0.931 . S
C627 C629 1.392 . S
C627 C630 1.370 . S
C628 C624 1.432 . S
C628 N626 1.359 . S
C628 C631 1.414 . S
C629 H611 0.930 . S
C629 N626 1.327 . S
C629 C627 1.392 . S
C630 H625 0.930 . S
C630 C627 1.370 . S
C630 C631 1.385 . S
C631 C628 1.414 . S
C631 C630 1.385 . S
C631 C653 1.444 . S
O632 Tb588 2.546 . S
O632 C652 1.251 . S
O633 Tb588 2.610 . S
O633 Tb599 2.362 . S
O633 C644 1.283 . S
O634 Tb599 2.421 . S
O634 C651 1.262 . S
O635 Tb588 2.320 . S
O635 C651 1.260 . S
O636 Tb588 2.552 . S
O636 C644 1.243 . S
O637 Tb588 2.413 . S
O637 C652 1.256 . S
O638 Tb599 2.546 . S
O638 C663 1.251 . S
O639 Tb588 2.362 . S
O639 Tb599 2.610 . S
O639 C655 1.283 . S
O640 Tb588 2.421 . S
O640 C662 1.262 . S
O641 Tb599 2.320 . S
O641 C662 1.260 . S
O642 Tb599 2.552 . S
O642 C655 1.243 . S
O643 Tb599 2.413 . S
O643 C663 1.256 . S
C644 O633 1.283 . S
C644 O636 1.243 . S
C645 C647 1.382 . S
C645 C649 1.393 . S
C645 C652 1.500 . S
C646 C647 1.400 . S
C646 C648 1.384 . S
C647 C645 1.382 . S
C647 C646 1.400 . S
C647 H664 0.930 . S
C648 C646 1.384 . S
C648 C650 1.392 . S
C648 H665 0.931 . S
C649 C645 1.393 . S
C649 C650 1.401 . S
C649 H666 0.930 . S
C650 C648 1.392 . S
C650 C649 1.401 . S
C650 H667 0.930 . S
C651 O634 1.262 . S
C651 O635 1.260 . S
C652 Tb588 2.833 . S
C652 O632 1.251 . S
C652 O637 1.256 . S
C652 C645 1.500 . S
C653 H618 0.929 . S
C653 C631 1.444 . S
C653 C654 1.317 . S
C654 H616 0.930 . S
C654 C622 1.432 . S
C654 C653 1.317 . S
C655 O639 1.283 . S
C655 O642 1.243 . S
C656 C657 1.382 . S
C656 C660 1.393 . S
C656 C663 1.500 . S
C657 C656 1.382 . S
C657 C658 1.400 . S
C657 H668 0.930 . S
C658 C657 1.400 . S
C658 C659 1.384 . S
C659 C658 1.384 . S
C659 C661 1.392 . S
C659 H669 0.931 . S
C660 C656 1.393 . S
C660 C661 1.401 . S
C660 H670 0.930 . S
C661 C659 1.392 . S
C661 C660 1.401 . S
C661 H671 0.930 . S
C662 O640 1.262 . S
C662 O641 1.260 . S
C663 Tb599 2.833 . S
C663 O638 1.251 . S
C663 O643 1.256 . S
C663 C656 1.500 . S
H664 C647 0.930 . S
H665 C648 0.931 . S
H666 C649 0.930 . S
H667 C650 0.930 . S
H668 C657 0.930 . S
H669 C659 0.931 . S
H670 C660 0.930 . S
H671 C661 0.930 . S
Tb672 N703 2.660 . S
Tb672 N710 2.600 . S
Tb672 O716 2.546 . S
Tb672 O717 2.610 . S
Tb672 O719 2.320 . S
Tb672 O720 2.552 . S
Tb672 O721 2.413 . S
Tb672 O723 2.362 . S
Tb672 O724 2.421 . S
Tb672 C736 2.833 . S
C673 C676 1.432 . S
C673 C677 1.414 . S
C673 N680 1.359 . S
C674 C676 1.417 . S
C674 C678 1.432 . S
C674 C686 1.410 . S
C675 C677 1.444 . S
C675 C678 1.317 . S
C675 H698 0.929 . S
C676 C673 1.432 . S
C676 C674 1.417 . S
C676 N684 1.360 . S
C677 C673 1.414 . S
C677 C675 1.444 . S
C677 C682 1.385 . S
C678 C674 1.432 . S
C678 C675 1.317 . S
C678 H690 0.930 . S
C679 C681 1.392 . S
C679 C682 1.370 . S
C679 H691 0.931 . S
N680 C673 1.359 . S
N680 C681 1.327 . S
N680 Tb683 2.600 1_565 S
C681 C679 1.392 . S
C681 N680 1.327 . S
C681 H688 0.930 1_565 S
C682 C677 1.385 . S
C682 C679 1.370 . S
C682 H701 0.930 . S
Tb683 N680 2.600 1_545 S
Tb683 N684 2.660 1_545 S
Tb683 O717 2.362 . S
Tb683 O718 2.421 . S
Tb683 O722 2.546 1_545 S
Tb683 O723 2.610 . S
Tb683 O725 2.320 . S
Tb683 O726 2.552 . S
Tb683 O727 2.413 1_545 S
Tb683 C747 2.833 1_545 S
N684 C676 1.360 . S
N684 Tb683 2.660 1_565 S
N684 C685 1.305 . S
C685 N684 1.305 . S
C685 C687 1.407 1_455 S
C685 H692 0.930 . S
C686 C674 1.410 . S
C686 C687 1.345 1_455 S
C686 H694 0.930 1_455 S
C687 C685 1.407 1_655 S
C687 C686 1.345 1_655 S
C687 H689 0.930 . S
H688 C681 0.930 1_545 S
H689 C687 0.930 . S
H690 C678 0.930 . S
H691 C679 0.931 . S
H692 C685 0.930 . S
H693 C707 0.930 . S
H694 C686 0.930 1_655 S
H695 C713 0.930 1_655 S
H696 C704 0.930 . S
H697 C711 0.931 . S
H698 C675 0.929 . S
H699 C705 0.930 . S
H700 C738 0.930 . S
H701 C682 0.930 . S
H702 C737 0.929 . S
N703 Tb672 2.660 . S
N703 C704 1.305 . S
N703 C708 1.360 . S
C704 H696 0.930 . S
C704 N703 1.305 . S
C704 C707 1.407 . S
C705 H699 0.930 . S
C705 C706 1.410 . S
C705 C707 1.345 . S
C706 C705 1.410 . S
C706 C708 1.417 . S
C706 C738 1.432 . S
C707 H693 0.930 . S
C707 C704 1.407 . S
C707 C705 1.345 . S
C708 N703 1.360 . S
C708 C706 1.417 . S
C708 C712 1.432 . S
H709 C714 0.930 . S
N710 Tb672 2.600 . S
N710 C712 1.359 . S
N710 C713 1.327 . S
C711 H697 0.931 . S
C711 C713 1.392 1_655 S
C711 C714 1.370 1_655 S
C712 C708 1.432 . S
C712 N710 1.359 . S
C712 C715 1.414 . S
C713 H695 0.930 1_455 S
C713 N710 1.327 . S
C713 C711 1.392 1_455 S
C714 H709 0.930 . S
C714 C711 1.370 1_455 S
C714 C715 1.385 . S
C715 C712 1.414 . S
C715 C714 1.385 . S
C715 C737 1.444 . S
O716 Tb672 2.546 . S
O716 C736 1.251 . S
O717 Tb672 2.610 . S
O717 Tb683 2.362 . S
O717 C728 1.283 . S
O718 Tb683 2.421 . S
O718 C735 1.262 . S
O719 Tb672 2.320 . S
O719 C735 1.260 . S
O720 Tb672 2.552 . S
O720 C728 1.243 . S
O721 Tb672 2.413 . S
O721 C736 1.256 . S
O722 Tb683 2.546 1_565 S
O722 C747 1.251 . S
O723 Tb672 2.362 . S
O723 Tb683 2.610 . S
O723 C739 1.283 . S
O724 Tb672 2.421 . S
O724 C746 1.262 . S
O725 Tb683 2.320 . S
O725 C746 1.260 . S
O726 Tb683 2.552 . S
O726 C739 1.243 . S
O727 Tb683 2.413 1_565 S
O727 C747 1.256 . S
C728 O717 1.283 . S
C728 O720 1.243 . S
C729 C731 1.382 . S
C729 C733 1.393 . S
C729 C736 1.500 . S
C730 C731 1.400 . S
C730 C732 1.384 . S
C731 C729 1.382 . S
C731 C730 1.400 . S
C731 H748 0.930 . S
C732 C730 1.384 . S
C732 C734 1.392 . S
C732 H749 0.931 . S
C733 C729 1.393 . S
C733 C734 1.401 . S
C733 H750 0.930 . S
C734 C732 1.392 . S
C734 C733 1.401 . S
C734 H751 0.930 . S
C735 O718 1.262 . S
C735 O719 1.260 . S
C736 Tb672 2.833 . S
C736 O716 1.251 . S
C736 O721 1.256 . S
C736 C729 1.500 . S
C737 H702 0.929 . S
C737 C715 1.444 . S
C737 C738 1.317 . S
C738 H700 0.930 . S
C738 C706 1.432 . S
C738 C737 1.317 . S
C739 O723 1.283 . S
C739 O726 1.243 . S
C740 C741 1.382 . S
C740 C744 1.393 . S
C740 C747 1.500 . S
C741 C740 1.382 . S
C741 C742 1.400 . S
C741 H752 0.930 . S
C742 C741 1.400 . S
C742 C743 1.384 . S
C743 C742 1.384 . S
C743 C745 1.392 . S
C743 H753 0.931 . S
C744 C740 1.393 . S
C744 C745 1.401 . S
C744 H754 0.930 . S
C745 C743 1.392 . S
C745 C744 1.401 . S
C745 H755 0.930 . S
C746 O724 1.262 . S
C746 O725 1.260 . S
C747 Tb683 2.833 1_565 S
C747 O722 1.251 . S
C747 O727 1.256 . S
C747 C740 1.500 . S
H748 C731 0.930 . S
H749 C732 0.931 . S
H750 C733 0.930 . S
H751 C734 0.930 . S
H752 C741 0.930 . S
H753 C743 0.931 . S
H754 C744 0.930 . S
H755 C745 0.930 . S
Tb756 N787 2.660 . S
Tb756 N794 2.600 . S
Tb756 O800 2.546 . S
Tb756 O801 2.610 . S
Tb756 O803 2.320 . S
Tb756 O804 2.552 . S
Tb756 O805 2.413 . S
Tb756 O807 2.362 . S
Tb756 O808 2.421 . S
Tb756 C820 2.833 . S
C757 C760 1.432 . S
C757 C761 1.414 . S
C757 N764 1.359 . S
C758 C760 1.417 . S
C758 C762 1.432 . S
C758 C770 1.410 . S
C759 C761 1.444 . S
C759 C762 1.317 . S
C759 H782 0.929 . S
C760 C757 1.432 . S
C760 C758 1.417 . S
C760 N768 1.360 . S
C761 C757 1.414 . S
C761 C759 1.444 . S
C761 C766 1.385 . S
C762 C758 1.432 . S
C762 C759 1.317 . S
C762 H774 0.930 . S
C763 C765 1.392 . S
C763 C766 1.370 . S
C763 H775 0.931 . S
N764 C757 1.359 . S
N764 C765 1.327 . S
N764 Tb767 2.600 . S
C765 C763 1.392 . S
C765 N764 1.327 . S
C765 H772 0.930 . S
C766 C761 1.385 . S
C766 C763 1.370 . S
C766 H785 0.930 . S
Tb767 N764 2.600 . S
Tb767 N768 2.660 . S
Tb767 O801 2.362 . S
Tb767 O802 2.421 . S
Tb767 O806 2.546 . S
Tb767 O807 2.610 . S
Tb767 O809 2.320 . S
Tb767 O810 2.552 . S
Tb767 O811 2.413 . S
Tb767 C831 2.833 . S
N768 C760 1.360 . S
N768 Tb767 2.660 . S
N768 C769 1.305 . S
C769 N768 1.305 . S
C769 C771 1.407 . S
C769 H776 0.930 . S
C770 C758 1.410 . S
C770 C771 1.345 . S
C770 H778 0.930 . S
C771 C769 1.407 . S
C771 C770 1.345 . S
C771 H773 0.930 . S
H772 C765 0.930 . S
H773 C771 0.930 . S
H774 C762 0.930 . S
H775 C763 0.931 . S
H776 C769 0.930 . S
H777 C791 0.930 . S
H778 C770 0.930 . S
H779 C797 0.930 . S
H780 C788 0.930 . S
H781 C795 0.931 . S
H782 C759 0.929 . S
H783 C789 0.930 . S
H784 C822 0.930 . S
H785 C766 0.930 . S
H786 C821 0.929 . S
N787 Tb756 2.660 . S
N787 C788 1.305 . S
N787 C792 1.360 . S
C788 H780 0.930 . S
C788 N787 1.305 . S
C788 C791 1.407 . S
C789 H783 0.930 . S
C789 C790 1.410 . S
C789 C791 1.345 . S
C790 C789 1.410 . S
C790 C792 1.417 . S
C790 C822 1.432 . S
C791 H777 0.930 . S
C791 C788 1.407 . S
C791 C789 1.345 . S
C792 N787 1.360 . S
C792 C790 1.417 . S
C792 C796 1.432 . S
H793 C798 0.930 . S
N794 Tb756 2.600 . S
N794 C796 1.359 . S
N794 C797 1.327 . S
C795 H781 0.931 . S
C795 C797 1.392 . S
C795 C798 1.370 . S
C796 C792 1.432 . S
C796 N794 1.359 . S
C796 C799 1.414 . S
C797 H779 0.930 . S
C797 N794 1.327 . S
C797 C795 1.392 . S
C798 H793 0.930 . S
C798 C795 1.370 . S
C798 C799 1.385 . S
C799 C796 1.414 . S
C799 C798 1.385 . S
C799 C821 1.444 . S
O800 Tb756 2.546 . S
O800 C820 1.251 . S
O801 Tb756 2.610 . S
O801 Tb767 2.362 . S
O801 C812 1.283 . S
O802 Tb767 2.421 . S
O802 C819 1.262 . S
O803 Tb756 2.320 . S
O803 C819 1.260 . S
O804 Tb756 2.552 . S
O804 C812 1.243 . S
O805 Tb756 2.413 . S
O805 C820 1.256 . S
O806 Tb767 2.546 . S
O806 C831 1.251 . S
O807 Tb756 2.362 . S
O807 Tb767 2.610 . S
O807 C823 1.283 . S
O808 Tb756 2.421 . S
O808 C830 1.262 . S
O809 Tb767 2.320 . S
O809 C830 1.260 . S
O810 Tb767 2.552 . S
O810 C823 1.243 . S
O811 Tb767 2.413 . S
O811 C831 1.256 . S
C812 O801 1.283 . S
C812 O804 1.243 . S
C813 C815 1.382 . S
C813 C817 1.393 . S
C813 C820 1.500 . S
C814 C815 1.400 . S
C814 C816 1.384 . S
C815 C813 1.382 . S
C815 C814 1.400 . S
C815 H832 0.930 . S
C816 C814 1.384 . S
C816 C818 1.392 . S
C816 H833 0.931 . S
C817 C813 1.393 . S
C817 C818 1.401 . S
C817 H834 0.930 . S
C818 C816 1.392 . S
C818 C817 1.401 . S
C818 H835 0.930 . S
C819 O802 1.262 . S
C819 O803 1.260 . S
C820 Tb756 2.833 . S
C820 O800 1.251 . S
C820 O805 1.256 . S
C820 C813 1.500 . S
C821 H786 0.929 . S
C821 C799 1.444 . S
C821 C822 1.317 . S
C822 H784 0.930 . S
C822 C790 1.432 . S
C822 C821 1.317 . S
C823 O807 1.283 . S
C823 O810 1.243 . S
C824 C825 1.382 . S
C824 C828 1.393 . S
C824 C831 1.500 . S
C825 C824 1.382 . S
C825 C826 1.400 . S
C825 H836 0.930 . S
C826 C825 1.400 . S
C826 C827 1.384 . S
C827 C826 1.384 . S
C827 C829 1.392 . S
C827 H837 0.931 . S
C828 C824 1.393 . S
C828 C829 1.401 . S
C828 H838 0.930 . S
C829 C827 1.392 . S
C829 C828 1.401 . S
C829 H839 0.930 . S
C830 O808 1.262 . S
C830 O809 1.260 . S
C831 Tb767 2.833 . S
C831 O806 1.251 . S
C831 O811 1.256 . S
C831 C824 1.500 . S
H832 C815 0.930 . S
H833 C816 0.931 . S
H834 C817 0.930 . S
H835 C818 0.930 . S
H836 C825 0.930 . S
H837 C827 0.931 . S
H838 C828 0.930 . S
H839 C829 0.930 . S
Tb840 N871 2.660 . S
Tb840 N878 2.600 . S
Tb840 O884 2.546 . S
Tb840 O885 2.610 . S
Tb840 O887 2.320 . S
Tb840 O888 2.552 . S
Tb840 O889 2.413 . S
Tb840 O891 2.362 . S
Tb840 O892 2.389 1_545 S
Tb840 C904 2.833 . S
C841 C844 1.432 . S
C841 C845 1.414 . S
C841 N848 1.359 . S
C842 C844 1.417 . S
C842 C846 1.432 . S
C842 C854 1.410 1_545 S
C843 C845 1.444 . S
C843 C846 1.317 . S
C843 H866 0.929 . S
C844 C841 1.432 . S
C844 C842 1.417 . S
C844 N852 1.360 . S
C845 C841 1.414 . S
C845 C843 1.444 . S
C845 C850 1.385 . S
C846 C842 1.432 . S
C846 C843 1.317 . S
C846 H858 0.930 . S
C847 C849 1.392 . S
C847 C850 1.370 . S
C847 H859 0.931 . S
N848 C841 1.359 . S
N848 C849 1.327 . S
N848 Tb851 2.600 . S
C849 C847 1.392 . S
C849 N848 1.327 . S
C849 H856 0.930 . S
C850 C845 1.385 . S
C850 C847 1.370 . S
C850 H869 0.930 . S
Tb851 N848 2.600 . S
Tb851 N852 2.660 . S
Tb851 O885 2.362 1_556 S
Tb851 O886 2.421 1_556 S
Tb851 O890 2.546 . S
Tb851 O891 2.610 1_556 S
Tb851 O893 2.320 . S
Tb851 O894 2.552 . S
Tb851 O895 2.413 . S
Tb851 C915 2.833 . S
N852 C844 1.360 . S
N852 Tb851 2.660 . S
N852 C853 1.305 1_545 S
C853 N852 1.305 1_565 S
C853 C855 1.407 . S
C853 H860 0.930 . S
C854 C842 1.410 1_565 S
C854 C855 1.345 . S
C854 H862 0.930 . S
C855 C853 1.407 . S
C855 C854 1.345 . S
C855 H857 0.930 . S
H856 C849 0.930 . S
H857 C855 0.930 . S
H858 C846 0.930 . S
H859 C847 0.931 . S
H860 C853 0.930 . S
H861 C875 0.930 . S
H862 C854 0.930 . S
H863 C881 0.930 . S
H864 C872 0.930 . S
H865 C879 0.931 . S
H866 C843 0.929 . S
H867 C873 0.930 . S
H868 C906 0.930 . S
H869 C850 0.930 . S
H870 C905 0.929 . S
N871 Tb840 2.660 . S
N871 C872 1.305 . S
N871 C876 1.360 . S
C872 H864 0.930 . S
C872 N871 1.305 . S
C872 C875 1.407 . S
C873 H867 0.930 . S
C873 C874 1.410 . S
C873 C875 1.345 . S
C874 C873 1.410 . S
C874 C876 1.417 . S
C874 C906 1.432 . S
C875 H861 0.930 . S
C875 C872 1.407 . S
C875 C873 1.345 . S
C876 N871 1.360 . S
C876 C874 1.417 . S
C876 C880 1.432 . S
H877 C882 0.930 . S
N878 Tb840 2.600 . S
N878 C880 1.359 . S
N878 C881 1.327 1_545 S
C879 H865 0.931 . S
C879 C881 1.392 . S
C879 C882 1.370 . S
C880 C876 1.432 . S
C880 N878 1.359 . S
C880 C883 1.414 . S
C881 H863 0.930 . S
C881 N878 1.327 1_565 S
C881 C879 1.392 . S
C882 H877 0.930 . S
C882 C879 1.370 . S
C882 C883 1.385 1_565 S
C883 C880 1.414 . S
C883 C882 1.385 1_545 S
C883 C905 1.444 . S
O884 Tb840 2.546 . S
O884 C904 1.251 . S
O885 Tb840 2.610 . S
O885 Tb851 2.362 1_554 S
O885 C896 1.283 . S
O886 Tb851 2.421 1_554 S
O886 C903 1.262 . S
O887 Tb840 2.320 . S
O887 C903 1.260 . S
O888 Tb840 2.552 . S
O888 C896 1.243 . S
O889 Tb840 2.413 . S
O889 C904 1.256 . S
O890 Tb851 2.546 . S
O890 C915 1.251 . S
O891 Tb840 2.362 . S
O891 Tb851 2.610 1_554 S
O891 C907 1.283 . S
O892 Tb840 2.389 1_565 S
O892 C914 1.249 1_564 S
O893 Tb851 2.320 . S
O893 C914 1.272 . S
O894 Tb851 2.552 . S
O894 C907 1.243 1_556 S
O895 Tb851 2.413 . S
O895 C915 1.256 . S
C896 O885 1.283 . S
C896 O888 1.243 . S
C897 C899 1.382 . S
C897 C901 1.393 1_545 S
C897 C904 1.500 . S
C898 C899 1.400 . S
C898 C900 1.384 . S
C899 C897 1.382 . S
C899 C898 1.400 . S
C899 H916 0.930 . S
C900 C898 1.384 . S
C900 C902 1.392 1_545 S
C900 H917 0.949 . S
C901 C897 1.393 1_565 S
C901 C902 1.401 . S
C901 H918 0.930 . S
C902 C900 1.392 1_565 S
C902 C901 1.401 . S
C902 H919 0.930 . S
C903 O886 1.262 . S
C903 O887 1.260 . S
C904 Tb840 2.833 . S
C904 O884 1.251 . S
C904 O889 1.256 . S
C904 C897 1.500 . S
C905 H870 0.929 . S
C905 C883 1.444 . S
C905 C906 1.317 . S
C906 H868 0.930 . S
C906 C874 1.432 . S
C906 C905 1.317 . S
C907 O891 1.283 . S
C907 O894 1.243 1_554 S
C908 C909 1.382 . S
C908 C912 1.393 . S
C908 C915 1.500 . S
C909 C908 1.382 . S
C909 C910 1.400 . S
C909 H920 0.930 . S
C910 C909 1.400 . S
C910 C911 1.384 . S
C911 C910 1.384 . S
C911 C913 1.392 . S
C911 H921 0.931 . S
C912 C908 1.393 . S
C912 C913 1.401 . S
C912 H922 0.930 . S
C913 C911 1.392 . S
C913 C912 1.401 . S
C913 H923 0.930 . S
C914 O892 1.249 1_546 S
C914 O893 1.272 . S
C915 Tb851 2.833 . S
C915 O890 1.251 . S
C915 O895 1.256 . S
C915 C908 1.500 . S
H916 C899 0.930 . S
H917 C900 0.949 . S
H918 C901 0.930 . S
H919 C902 0.930 . S
H920 C909 0.930 . S
H921 C911 0.931 . S
H922 C912 0.930 . S
H923 C913 0.930 . S
Tb924 N955 2.660 . S
Tb924 N962 2.600 . S
Tb924 O968 2.546 . S
Tb924 O969 2.610 . S
Tb924 O971 2.320 . S
Tb924 O972 2.552 . S
Tb924 O973 2.413 . S
Tb924 O975 2.362 . S
Tb924 O976 2.421 . S
Tb924 C988 2.833 . S
C925 C928 1.432 . S
C925 C929 1.414 . S
C925 N932 1.359 . S
C926 C928 1.417 . S
C926 C930 1.432 . S
C926 C938 1.410 . S
C927 C929 1.444 . S
C927 C930 1.317 . S
C927 H950 0.929 . S
C928 C925 1.432 . S
C928 C926 1.417 . S
C928 N936 1.360 . S
C929 C925 1.414 . S
C929 C927 1.444 . S
C929 C934 1.385 . S
C930 C926 1.432 . S
C930 C927 1.317 . S
C930 H942 0.930 . S
C931 C933 1.392 . S
C931 C934 1.370 . S
C931 H943 0.931 . S
N932 C925 1.359 . S
N932 C933 1.327 . S
N932 Tb935 2.600 . S
C933 C931 1.392 . S
C933 N932 1.327 . S
C933 H940 0.930 . S
C934 C929 1.385 . S
C934 C931 1.370 . S
C934 H953 0.930 . S
Tb935 N932 2.600 . S
Tb935 N936 2.660 . S
Tb935 O969 2.362 . S
Tb935 O970 2.421 . S
Tb935 O974 2.546 . S
Tb935 O975 2.610 . S
Tb935 O977 2.320 . S
Tb935 O978 2.552 . S
Tb935 O979 2.413 . S
Tb935 C999 2.833 . S
N936 C928 1.360 . S
N936 Tb935 2.660 . S
N936 C937 1.305 . S
C937 N936 1.305 . S
C937 C939 1.407 . S
C937 H944 0.930 . S
C938 C926 1.410 . S
C938 C939 1.345 . S
C938 H946 0.930 . S
C939 C937 1.407 . S
C939 C938 1.345 . S
C939 H941 0.930 . S
H940 C933 0.930 . S
H941 C939 0.930 . S
H942 C930 0.930 . S
H943 C931 0.931 . S
H944 C937 0.930 . S
H945 C959 0.930 . S
H946 C938 0.930 . S
H947 C965 0.930 . S
H948 C956 0.930 . S
H949 C963 0.931 . S
H950 C927 0.929 . S
H951 C957 0.930 . S
H952 C990 0.930 . S
H953 C934 0.930 . S
H954 C989 0.929 . S
N955 Tb924 2.660 . S
N955 C956 1.305 . S
N955 C960 1.360 . S
C956 H948 0.930 . S
C956 N955 1.305 . S
C956 C959 1.407 . S
C957 H951 0.930 . S
C957 C958 1.410 . S
C957 C959 1.345 . S
C958 C957 1.410 . S
C958 C960 1.417 . S
C958 C990 1.432 . S
C959 H945 0.930 . S
C959 C956 1.407 . S
C959 C957 1.345 . S
C960 N955 1.360 . S
C960 C958 1.417 . S
C960 C964 1.432 . S
H961 C966 0.930 . S
N962 Tb924 2.600 . S
N962 C964 1.359 . S
N962 C965 1.327 . S
C963 H949 0.931 . S
C963 C965 1.392 . S
C963 C966 1.370 . S
C964 C960 1.432 . S
C964 N962 1.359 . S
C964 C967 1.414 . S
C965 H947 0.930 . S
C965 N962 1.327 . S
C965 C963 1.392 . S
C966 H961 0.930 . S
C966 C963 1.370 . S
C966 C967 1.385 . S
C967 C964 1.414 . S
C967 C966 1.385 . S
C967 C989 1.444 . S
O968 Tb924 2.546 . S
O968 C988 1.251 . S
O969 Tb924 2.610 . S
O969 Tb935 2.362 . S
O969 C980 1.283 . S
O970 Tb935 2.421 . S
O970 C987 1.262 . S
O971 Tb924 2.320 . S
O971 C987 1.260 . S
O972 Tb924 2.552 . S
O972 C980 1.243 . S
O973 Tb924 2.413 . S
O973 C988 1.256 . S
O974 Tb935 2.546 . S
O974 C999 1.251 . S
O975 Tb924 2.362 . S
O975 Tb935 2.610 . S
O975 C991 1.283 . S
O976 Tb924 2.421 . S
O976 C998 1.262 . S
O977 Tb935 2.320 . S
O977 C998 1.260 . S
O978 Tb935 2.552 . S
O978 C991 1.243 . S
O979 Tb935 2.413 . S
O979 C999 1.256 . S
C980 O969 1.283 . S
C980 O972 1.243 . S
C981 C983 1.382 . S
C981 C985 1.393 . S
C981 C988 1.500 . S
C982 C983 1.400 . S
C982 C984 1.384 . S
C983 C981 1.382 . S
C983 C982 1.400 . S
C983 H1000 0.930 . S
C984 C982 1.384 . S
C984 C986 1.392 . S
C984 H1001 0.931 . S
C985 C981 1.393 . S
C985 C986 1.401 . S
C985 H1002 0.930 . S
C986 C984 1.392 . S
C986 C985 1.401 . S
C986 H1003 0.930 . S
C987 O970 1.262 . S
C987 O971 1.260 . S
C988 Tb924 2.833 . S
C988 O968 1.251 . S
C988 O973 1.256 . S
C988 C981 1.500 . S
C989 H954 0.929 . S
C989 C967 1.444 . S
C989 C990 1.317 . S
C990 H952 0.930 . S
C990 C958 1.432 . S
C990 C989 1.317 . S
C991 O975 1.283 . S
C991 O978 1.243 . S
C992 C993 1.382 . S
C992 C996 1.393 . S
C992 C999 1.500 . S
C993 C992 1.382 . S
C993 C994 1.400 . S
C993 H1004 0.930 . S
C994 C993 1.400 . S
C994 C995 1.384 . S
C995 C994 1.384 . S
C995 C997 1.392 . S
C995 H1005 0.931 . S
C996 C992 1.393 . S
C996 C997 1.401 . S
C996 H1006 0.930 . S
C997 C995 1.392 . S
C997 C996 1.401 . S
C997 H1007 0.930 . S
C998 O976 1.262 . S
C998 O977 1.260 . S
C999 Tb935 2.833 . S
C999 O974 1.251 . S
C999 O979 1.256 . S
C999 C992 1.500 . S
H1000 C983 0.930 . S
H1001 C984 0.931 . S
H1002 C985 0.930 . S
H1003 C986 0.930 . S
H1004 C993 0.930 . S
H1005 C995 0.931 . S
H1006 C996 0.930 . S
H1007 C997 0.930 . S
Tb1008 N1039 2.660 . S
Tb1008 N1046 2.600 . S
Tb1008 O1052 2.546 . S
Tb1008 O1053 2.610 1_554 S
Tb1008 O1055 2.320 . S
Tb1008 O1056 2.552 1_554 S
Tb1008 O1057 2.413 . S
Tb1008 O1059 2.362 . S
Tb1008 O1060 2.421 . S
Tb1008 C1072 2.833 . S
C1009 C1012 1.432 . S
C1009 C1013 1.414 . S
C1009 N1016 1.359 . S
C1010 C1012 1.417 . S
C1010 C1014 1.432 . S
C1010 C1022 1.410 . S
C1011 C1013 1.444 . S
C1011 C1014 1.317 . S
C1011 H1034 0.929 . S
C1012 C1009 1.432 . S
C1012 C1010 1.417 . S
C1012 N1020 1.360 . S
C1013 C1009 1.414 . S
C1013 C1011 1.444 . S
C1013 C1018 1.385 . S
C1014 C1010 1.432 . S
C1014 C1011 1.317 . S
C1014 H1026 0.930 . S
C1015 C1017 1.392 . S
C1015 C1018 1.370 . S
C1015 H1027 0.931 . S
N1016 C1009 1.359 . S
N1016 C1017 1.327 . S
N1016 Tb1019 2.600 1_556 S
C1017 C1015 1.392 . S
C1017 N1016 1.327 . S
C1017 H1024 0.930 . S
C1018 C1013 1.385 . S
C1018 C1015 1.370 . S
C1018 H1037 0.930 . S
Tb1019 N1016 2.600 1_554 S
Tb1019 N1020 2.660 1_554 S
Tb1019 O1053 2.362 1_554 S
Tb1019 O1054 2.421 . S
Tb1019 O1058 2.546 . S
Tb1019 O1059 2.610 . S
Tb1019 O1061 2.320 . S
Tb1019 O1062 2.552 . S
Tb1019 O1063 2.413 . S
Tb1019 C1083 2.833 . S
N1020 C1012 1.360 . S
N1020 Tb1019 2.660 1_556 S
N1020 C1021 1.305 . S
C1021 N1020 1.305 . S
C1021 C1023 1.407 . S
C1021 H1028 0.930 . S
C1022 C1010 1.410 . S
C1022 C1023 1.345 . S
C1022 H1030 0.930 . S
C1023 C1021 1.407 . S
C1023 C1022 1.345 . S
C1023 H1025 0.930 . S
H1024 C1017 0.930 . S
H1025 C1023 0.930 . S
H1026 C1014 0.930 . S
H1027 C1015 0.931 . S
H1028 C1021 0.930 . S
H1029 C1043 0.930 . S
H1030 C1022 0.930 . S
H1031 C1049 0.930 . S
H1032 C1040 0.930 . S
H1033 C1047 0.931 . S
H1034 C1011 0.929 . S
H1035 C1041 0.930 . S
H1036 C1074 0.930 . S
H1037 C1018 0.930 . S
H1038 C1073 0.929 . S
N1039 Tb1008 2.660 . S
N1039 C1040 1.305 . S
N1039 C1044 1.360 . S
C1040 H1032 0.930 . S
C1040 N1039 1.305 . S
C1040 C1043 1.407 . S
C1041 H1035 0.930 . S
C1041 C1042 1.410 . S
C1041 C1043 1.345 . S
C1042 C1041 1.410 . S
C1042 C1044 1.417 . S
C1042 C1074 1.432 . S
C1043 H1029 0.930 . S
C1043 C1040 1.407 . S
C1043 C1041 1.345 . S
C1044 N1039 1.360 . S
C1044 C1042 1.417 . S
C1044 C1048 1.432 . S
H1045 C1050 0.930 . S
N1046 Tb1008 2.600 . S
N1046 C1048 1.359 . S
N1046 C1049 1.327 . S
C1047 H1033 0.931 . S
C1047 C1049 1.392 . S
C1047 C1050 1.370 . S
C1048 C1044 1.432 . S
C1048 N1046 1.359 . S
C1048 C1051 1.414 . S
C1049 H1031 0.930 . S
C1049 N1046 1.327 . S
C1049 C1047 1.392 . S
C1050 H1045 0.930 . S
C1050 C1047 1.370 . S
C1050 C1051 1.385 . S
C1051 C1048 1.414 . S
C1051 C1050 1.385 . S
C1051 C1073 1.444 . S
O1052 Tb1008 2.546 . S
O1052 C1072 1.251 . S
O1053 Tb1008 2.610 1_556 S
O1053 Tb1019 2.362 1_556 S
O1053 C1064 1.283 . S
O1054 Tb1019 2.421 . S
O1054 C1071 1.262 . S
O1055 Tb1008 2.320 . S
O1055 C1071 1.260 . S
O1056 Tb1008 2.552 1_556 S
O1056 C1064 1.243 . S
O1057 Tb1008 2.413 . S
O1057 C1072 1.256 . S
O1058 Tb1019 2.546 . S
O1058 C1083 1.251 . S
O1059 Tb1008 2.362 . S
O1059 Tb1019 2.610 . S
O1059 C1075 1.283 . S
O1060 Tb1008 2.421 . S
O1060 C1082 1.262 . S
O1061 Tb1019 2.320 . S
O1061 C1082 1.260 . S
O1062 Tb1019 2.552 . S
O1062 C1075 1.243 . S
O1063 Tb1019 2.413 . S
O1063 C1083 1.256 . S
C1064 O1053 1.283 . S
C1064 O1056 1.243 . S
C1065 C1067 1.382 . S
C1065 C1069 1.393 . S
C1065 C1072 1.500 . S
C1066 C1067 1.422 . S
C1066 C1068 1.397 . S
C1067 C1065 1.382 . S
C1067 C1066 1.422 . S
C1067 H1084 0.930 . S
C1068 C1066 1.397 . S
C1068 C1070 1.392 . S
C1068 H1085 0.931 . S
C1069 C1065 1.393 . S
C1069 C1070 1.401 . S
C1069 H1086 0.930 . S
C1070 C1068 1.392 . S
C1070 C1069 1.401 . S
C1070 H1087 0.930 . S
C1071 O1054 1.262 . S
C1071 O1055 1.260 . S
C1072 Tb1008 2.833 . S
C1072 O1052 1.251 . S
C1072 O1057 1.256 . S
C1072 C1065 1.500 . S
C1073 H1038 0.929 . S
C1073 C1051 1.444 . S
C1073 C1074 1.317 . S
C1074 H1036 0.930 . S
C1074 C1042 1.432 . S
C1074 C1073 1.317 . S
C1075 O1059 1.283 . S
C1075 O1062 1.243 . S
C1076 C1077 1.382 . S
C1076 C1080 1.393 . S
C1076 C1083 1.500 . S
C1077 C1076 1.382 . S
C1077 C1078 1.400 . S
C1077 H1088 0.930 . S
C1078 C1077 1.400 . S
C1078 C1079 1.384 . S
C1079 C1078 1.384 . S
C1079 C1081 1.392 . S
C1079 H1089 0.931 . S
C1080 C1076 1.393 . S
C1080 C1081 1.401 . S
C1080 H1090 0.930 . S
C1081 C1079 1.392 . S
C1081 C1080 1.401 . S
C1081 H1091 0.930 . S
C1082 O1060 1.262 . S
C1082 O1061 1.260 . S
C1083 Tb1019 2.833 . S
C1083 O1058 1.251 . S
C1083 O1063 1.256 . S
C1083 C1076 1.500 . S
H1084 C1067 0.930 . S
H1085 C1068 0.931 . S
H1086 C1069 0.930 . S
H1087 C1070 0.930 . S
H1088 C1077 0.930 . S
H1089 C1079 0.931 . S
H1090 C1080 0.930 . S
H1091 C1081 0.930 . S
Tb1092 N1123 2.660 . S
Tb1092 N1130 2.600 . S
Tb1092 O1136 2.546 . S
Tb1092 O1137 2.610 . S
Tb1092 O1139 2.320 . S
Tb1092 O1140 2.552 . S
Tb1092 O1141 2.413 . S
Tb1092 O1143 2.362 . S
Tb1092 O1144 2.421 . S
Tb1092 C1156 2.833 . S
C1093 C1096 1.432 . S
C1093 C1097 1.414 . S
C1093 N1100 1.359 . S
C1094 C1096 1.417 . S
C1094 C1098 1.432 . S
C1094 C1106 1.410 . S
C1095 C1097 1.444 . S
C1095 C1098 1.317 . S
C1095 H1118 0.929 . S
C1096 C1093 1.432 . S
C1096 C1094 1.417 . S
C1096 N1104 1.360 . S
C1097 C1093 1.414 . S
C1097 C1095 1.444 . S
C1097 C1102 1.385 . S
C1098 C1094 1.432 . S
C1098 C1095 1.317 . S
C1098 H1110 0.930 . S
C1099 C1101 1.392 . S
C1099 C1102 1.370 . S
C1099 H1111 0.931 . S
N1100 C1093 1.359 . S
N1100 C1101 1.327 . S
N1100 Tb1103 2.600 . S
C1101 C1099 1.392 . S
C1101 N1100 1.327 . S
C1101 H1108 0.930 . S
C1102 C1097 1.385 . S
C1102 C1099 1.370 . S
C1102 H1121 0.930 . S
Tb1103 N1100 2.600 . S
Tb1103 N1104 2.660 . S
Tb1103 O1137 2.362 . S
Tb1103 O1138 2.421 . S
Tb1103 O1142 2.546 . S
Tb1103 O1143 2.610 . S
Tb1103 O1145 2.320 . S
Tb1103 O1146 2.552 . S
Tb1103 O1147 2.413 . S
Tb1103 C1167 2.833 . S
N1104 C1096 1.360 . S
N1104 Tb1103 2.660 . S
N1104 C1105 1.305 . S
C1105 N1104 1.305 . S
C1105 C1107 1.407 . S
C1105 H1112 0.930 . S
C1106 C1094 1.410 . S
C1106 C1107 1.345 . S
C1106 H1114 0.930 . S
C1107 C1105 1.407 . S
C1107 C1106 1.345 . S
C1107 H1109 0.930 . S
H1108 C1101 0.930 . S
H1109 C1107 0.930 . S
H1110 C1098 0.930 . S
H1111 C1099 0.931 . S
H1112 C1105 0.930 . S
H1113 C1127 0.930 . S
H1114 C1106 0.930 . S
H1115 C1133 0.930 . S
H1116 C1124 0.930 . S
H1117 C1131 0.931 . S
H1118 C1095 0.929 . S
H1119 C1125 0.930 . S
H1120 C1158 0.930 . S
H1121 C1102 0.930 . S
H1122 C1157 0.929 . S
N1123 Tb1092 2.660 . S
N1123 C1124 1.305 . S
N1123 C1128 1.360 . S
C1124 H1116 0.930 . S
C1124 N1123 1.305 . S
C1124 C1127 1.407 . S
C1125 H1119 0.930 . S
C1125 C1126 1.410 . S
C1125 C1127 1.345 . S
C1126 C1125 1.410 . S
C1126 C1128 1.417 . S
C1126 C1158 1.432 . S
C1127 H1113 0.930 . S
C1127 C1124 1.407 . S
C1127 C1125 1.345 . S
C1128 N1123 1.360 . S
C1128 C1126 1.417 . S
C1128 C1132 1.432 . S
H1129 C1134 0.930 . S
N1130 Tb1092 2.600 . S
N1130 C1132 1.359 . S
N1130 C1133 1.327 . S
C1131 H1117 0.931 . S
C1131 C1133 1.392 . S
C1131 C1134 1.370 . S
C1132 C1128 1.432 . S
C1132 N1130 1.359 . S
C1132 C1135 1.414 . S
C1133 H1115 0.930 . S
C1133 N1130 1.327 . S
C1133 C1131 1.392 . S
C1134 H1129 0.930 . S
C1134 C1131 1.370 . S
C1134 C1135 1.385 . S
C1135 C1132 1.414 . S
C1135 C1134 1.385 . S
C1135 C1157 1.444 . S
O1136 Tb1092 2.546 . S
O1136 C1156 1.251 . S
O1137 Tb1092 2.610 . S
O1137 Tb1103 2.362 . S
O1137 C1148 1.283 . S
O1138 Tb1103 2.421 . S
O1138 C1155 1.262 . S
O1139 Tb1092 2.320 . S
O1139 C1155 1.260 . S
O1140 Tb1092 2.552 . S
O1140 C1148 1.243 . S
O1141 Tb1092 2.413 . S
O1141 C1156 1.256 . S
O1142 Tb1103 2.546 . S
O1142 C1167 1.251 . S
O1143 Tb1092 2.362 . S
O1143 Tb1103 2.610 . S
O1143 C1159 1.283 . S
O1144 Tb1092 2.421 . S
O1144 C1166 1.262 . S
O1145 Tb1103 2.320 . S
O1145 C1166 1.260 . S
O1146 Tb1103 2.552 . S
O1146 C1159 1.243 . S
O1147 Tb1103 2.413 . S
O1147 C1167 1.256 . S
C1148 O1137 1.283 . S
C1148 O1140 1.243 . S
C1149 C1151 1.382 . S
C1149 C1153 1.393 . S
C1149 C1156 1.500 . S
C1150 C1151 1.400 . S
C1150 C1152 1.384 . S
C1151 C1149 1.382 . S
C1151 C1150 1.400 . S
C1151 H1168 0.930 . S
C1152 C1150 1.384 . S
C1152 C1154 1.392 . S
C1152 H1169 0.931 . S
C1153 C1149 1.393 . S
C1153 C1154 1.401 . S
C1153 H1170 0.930 . S
C1154 C1152 1.392 . S
C1154 C1153 1.401 . S
C1154 H1171 0.930 . S
C1155 O1138 1.262 . S
C1155 O1139 1.260 . S
C1156 Tb1092 2.833 . S
C1156 O1136 1.251 . S
C1156 O1141 1.256 . S
C1156 C1149 1.500 . S
C1157 H1122 0.929 . S
C1157 C1135 1.444 . S
C1157 C1158 1.317 . S
C1158 H1120 0.930 . S
C1158 C1126 1.432 . S
C1158 C1157 1.317 . S
C1159 O1143 1.283 . S
C1159 O1146 1.243 . S
C1160 C1161 1.382 . S
C1160 C1164 1.393 . S
C1160 C1167 1.500 . S
C1161 C1160 1.382 . S
C1161 C1162 1.400 . S
C1161 H1172 0.930 . S
C1162 C1161 1.400 . S
C1162 C1163 1.384 . S
C1163 C1162 1.384 . S
C1163 C1165 1.392 . S
C1163 H1173 0.931 . S
C1164 C1160 1.393 . S
C1164 C1165 1.401 . S
C1164 H1174 0.930 . S
C1165 C1163 1.392 . S
C1165 C1164 1.401 . S
C1165 H1175 0.930 . S
C1166 O1144 1.262 . S
C1166 O1145 1.260 . S
C1167 Tb1103 2.833 . S
C1167 O1142 1.251 . S
C1167 O1147 1.256 . S
C1167 C1160 1.500 . S
H1168 C1151 0.930 . S
H1169 C1152 0.931 . S
H1170 C1153 0.930 . S
H1171 C1154 0.930 . S
H1172 C1161 0.930 . S
H1173 C1163 0.931 . S
H1174 C1164 0.930 . S
H1175 C1165 0.930 . S
Tb1176 N1207 2.660 . S
Tb1176 N1214 2.600 . S
Tb1176 O1220 2.546 . S
Tb1176 O1221 2.610 . S
Tb1176 O1223 2.320 . S
Tb1176 O1224 2.552 . S
Tb1176 O1225 2.413 . S
Tb1176 O1227 2.362 . S
Tb1176 O1228 2.421 . S
Tb1176 C1240 2.833 . S
C1177 C1180 1.429 . S
C1177 C1181 1.414 1_455 S
C1177 N1184 1.359 . S
C1178 C1180 1.398 1_655 S
C1178 C1182 1.432 . S
C1178 C1190 1.410 . S
C1179 C1181 1.444 . S
C1179 C1182 1.317 . S
C1179 H1202 0.929 . S
C1180 C1177 1.429 . S
C1180 C1178 1.398 1_455 S
C1180 N1188 1.382 . S
C1181 C1177 1.414 1_655 S
C1181 C1179 1.444 . S
C1181 C1186 1.385 . S
C1182 C1178 1.432 . S
C1182 C1179 1.317 . S
C1182 H1194 0.930 . S
C1183 C1185 1.392 . S
C1183 C1186 1.370 1_455 S
C1183 H1195 0.931 . S
N1184 C1177 1.359 . S
N1184 C1185 1.327 . S
N1184 Tb1187 2.600 . S
C1185 C1183 1.392 . S
C1185 N1184 1.327 . S
C1185 H1192 0.930 . S
C1186 C1181 1.385 . S
C1186 C1183 1.370 1_655 S
C1186 H1205 0.930 . S
Tb1187 N1184 2.600 . S
Tb1187 N1188 2.660 . S
Tb1187 O1221 2.362 . S
Tb1187 O1222 2.421 . S
Tb1187 O1226 2.546 . S
Tb1187 O1227 2.610 . S
Tb1187 O1229 2.320 . S
Tb1187 O1230 2.552 . S
Tb1187 O1231 2.413 . S
Tb1187 C1251 2.833 . S
N1188 C1180 1.382 . S
N1188 Tb1187 2.660 . S
N1188 C1189 1.305 . S
C1189 N1188 1.305 . S
C1189 C1191 1.407 1_455 S
C1189 H1196 0.930 . S
C1190 C1178 1.410 . S
C1190 C1191 1.345 . S
C1190 H1198 0.930 . S
C1191 C1189 1.407 1_655 S
C1191 C1190 1.345 . S
C1191 H1193 0.930 . S
H1192 C1185 0.930 . S
H1193 C1191 0.930 . S
H1194 C1182 0.930 . S
H1195 C1183 0.931 . S
H1196 C1189 0.930 . S
H1197 C1211 0.930 . S
H1198 C1190 0.930 . S
H1199 C1217 0.930 . S
H1200 C1208 0.930 . S
H1201 C1215 0.931 . S
H1202 C1179 0.929 . S
H1203 C1209 0.930 . S
H1204 C1242 0.930 . S
H1205 C1186 0.930 . S
H1206 C1241 0.929 . S
N1207 Tb1176 2.660 . S
N1207 C1208 1.305 . S
N1207 C1212 1.360 . S
C1208 H1200 0.930 . S
C1208 N1207 1.305 . S
C1208 C1211 1.407 . S
C1209 H1203 0.930 . S
C1209 C1210 1.410 . S
C1209 C1211 1.345 . S
C1210 C1209 1.410 . S
C1210 C1212 1.417 . S
C1210 C1242 1.432 . S
C1211 H1197 0.930 . S
C1211 C1208 1.407 . S
C1211 C1209 1.345 . S
C1212 N1207 1.360 . S
C1212 C1210 1.417 . S
C1212 C1216 1.432 . S
H1213 C1218 0.930 . S
N1214 Tb1176 2.600 . S
N1214 C1216 1.359 . S
N1214 C1217 1.327 . S
C1215 H1201 0.931 . S
C1215 C1217 1.392 . S
C1215 C1218 1.370 . S
C1216 C1212 1.432 . S
C1216 N1214 1.359 . S
C1216 C1219 1.414 . S
C1217 H1199 0.930 . S
C1217 N1214 1.327 . S
C1217 C1215 1.392 . S
C1218 H1213 0.930 . S
C1218 C1215 1.370 . S
C1218 C1219 1.385 . S
C1219 C1216 1.414 . S
C1219 C1218 1.385 . S
C1219 C1241 1.444 . S
O1220 Tb1176 2.546 . S
O1220 C1240 1.251 . S
O1221 Tb1176 2.610 . S
O1221 Tb1187 2.362 . S
O1221 C1232 1.283 . S
O1222 Tb1187 2.421 . S
O1222 C1239 1.262 . S
O1223 Tb1176 2.320 . S
O1223 C1239 1.260 . S
O1224 Tb1176 2.552 . S
O1224 C1232 1.243 . S
O1225 Tb1176 2.413 . S
O1225 C1240 1.256 . S
O1226 Tb1187 2.546 . S
O1226 C1251 1.251 . S
O1227 Tb1176 2.362 . S
O1227 Tb1187 2.610 . S
O1227 C1243 1.283 . S
O1228 Tb1176 2.421 . S
O1228 C1250 1.262 . S
O1229 Tb1187 2.320 . S
O1229 C1250 1.260 . S
O1230 Tb1187 2.552 . S
O1230 C1243 1.243 . S
O1231 Tb1187 2.413 . S
O1231 C1251 1.256 . S
C1232 O1221 1.283 . S
C1232 O1224 1.243 . S
C1233 C1235 1.382 . S
C1233 C1237 1.393 . S
C1233 C1240 1.500 . S
C1234 C1235 1.400 . S
C1234 C1236 1.384 . S
C1235 C1233 1.382 . S
C1235 C1234 1.400 . S
C1235 H1252 0.930 . S
C1236 C1234 1.384 . S
C1236 C1238 1.392 . S
C1236 H1253 0.931 . S
C1237 C1233 1.393 . S
C1237 C1238 1.401 . S
C1237 H1254 0.930 . S
C1238 C1236 1.392 . S
C1238 C1237 1.401 . S
C1238 H1255 0.930 . S
C1239 O1222 1.262 . S
C1239 O1223 1.260 . S
C1240 Tb1176 2.833 . S
C1240 O1220 1.251 . S
C1240 O1225 1.256 . S
C1240 C1233 1.500 . S
C1241 H1206 0.929 . S
C1241 C1219 1.444 . S
C1241 C1242 1.317 . S
C1242 H1204 0.930 . S
C1242 C1210 1.432 . S
C1242 C1241 1.317 . S
C1243 O1227 1.283 . S
C1243 O1230 1.243 . S
C1244 C1245 1.382 . S
C1244 C1248 1.393 . S
C1244 C1251 1.500 . S
C1245 C1244 1.382 . S
C1245 C1246 1.400 . S
C1245 H1256 0.930 . S
C1246 C1245 1.400 . S
C1246 C1247 1.384 . S
C1247 C1246 1.384 . S
C1247 C1249 1.392 . S
C1247 H1257 0.931 . S
C1248 C1244 1.393 . S
C1248 C1249 1.401 . S
C1248 H1258 0.930 . S
C1249 C1247 1.392 . S
C1249 C1248 1.401 . S
C1249 H1259 0.930 . S
C1250 O1228 1.262 . S
C1250 O1229 1.260 . S
C1251 Tb1187 2.833 . S
C1251 O1226 1.251 . S
C1251 O1231 1.256 . S
C1251 C1244 1.500 . S
H1252 C1235 0.930 . S
H1253 C1236 0.931 . S
H1254 C1237 0.930 . S
H1255 C1238 0.930 . S
H1256 C1245 0.930 . S
H1257 C1247 0.931 . S
H1258 C1248 0.930 . S
H1259 C1249 0.930 . S
Tb1260 N1291 2.660 . S
Tb1260 N1298 2.600 . S
Tb1260 O1304 2.546 . S
Tb1260 O1305 2.610 . S
Tb1260 O1307 2.320 . S
Tb1260 O1308 2.552 . S
Tb1260 O1309 2.413 . S
Tb1260 O1311 2.362 . S
Tb1260 O1312 2.421 . S
Tb1260 C1324 2.833 . S
C1261 C1264 1.432 . S
C1261 C1265 1.414 . S
C1261 N1268 1.359 . S
C1262 C1264 1.417 . S
C1262 C1266 1.432 . S
C1262 C1274 1.410 . S
C1263 C1265 1.444 . S
C1263 C1266 1.317 . S
C1263 H1286 0.929 . S
C1264 C1261 1.432 . S
C1264 C1262 1.417 . S
C1264 N1272 1.360 . S
C1265 C1261 1.414 . S
C1265 C1263 1.444 . S
C1265 C1270 1.385 . S
C1266 C1262 1.432 . S
C1266 C1263 1.317 . S
C1266 H1278 0.930 . S
C1267 C1269 1.392 . S
C1267 C1270 1.370 . S
C1267 H1279 0.931 . S
N1268 C1261 1.359 . S
N1268 C1269 1.327 . S
N1268 Tb1271 2.600 . S
C1269 C1267 1.392 . S
C1269 N1268 1.327 . S
C1269 H1276 0.930 . S
C1270 C1265 1.385 . S
C1270 C1267 1.370 . S
C1270 H1289 0.930 . S
Tb1271 N1268 2.600 . S
Tb1271 N1272 2.660 . S
Tb1271 O1305 2.362 . S
Tb1271 O1306 2.421 . S
Tb1271 O1310 2.546 . S
Tb1271 O1311 2.610 . S
Tb1271 O1313 2.320 . S
Tb1271 O1314 2.552 . S
Tb1271 O1315 2.413 . S
Tb1271 C1335 2.833 . S
N1272 C1264 1.360 . S
N1272 Tb1271 2.660 . S
N1272 C1273 1.305 . S
C1273 N1272 1.305 . S
C1273 C1275 1.407 . S
C1273 H1280 0.930 . S
C1274 C1262 1.410 . S
C1274 C1275 1.345 . S
C1274 H1282 0.930 . S
C1275 C1273 1.407 . S
C1275 C1274 1.345 . S
C1275 H1277 0.930 . S
H1276 C1269 0.930 . S
H1277 C1275 0.930 . S
H1278 C1266 0.930 . S
H1279 C1267 0.931 . S
H1280 C1273 0.930 . S
H1281 C1295 0.930 . S
H1282 C1274 0.930 . S
H1283 C1301 0.930 . S
H1284 C1292 0.930 . S
H1285 C1299 0.931 . S
H1286 C1263 0.929 . S
H1287 C1293 0.930 . S
H1288 C1326 0.930 . S
H1289 C1270 0.930 . S
H1290 C1325 0.929 . S
N1291 Tb1260 2.660 . S
N1291 C1292 1.305 . S
N1291 C1296 1.360 . S
C1292 H1284 0.930 . S
C1292 N1291 1.305 . S
C1292 C1295 1.407 . S
C1293 H1287 0.930 . S
C1293 C1294 1.410 . S
C1293 C1295 1.345 . S
C1294 C1293 1.410 . S
C1294 C1296 1.417 . S
C1294 C1326 1.432 . S
C1295 H1281 0.930 . S
C1295 C1292 1.407 . S
C1295 C1293 1.345 . S
C1296 N1291 1.360 . S
C1296 C1294 1.417 . S
C1296 C1300 1.432 . S
H1297 C1302 0.930 . S
N1298 Tb1260 2.600 . S
N1298 C1300 1.359 . S
N1298 C1301 1.327 . S
C1299 H1285 0.931 . S
C1299 C1301 1.392 . S
C1299 C1302 1.370 . S
C1300 C1296 1.432 . S
C1300 N1298 1.359 . S
C1300 C1303 1.414 . S
C1301 H1283 0.930 . S
C1301 N1298 1.327 . S
C1301 C1299 1.392 . S
C1302 H1297 0.930 . S
C1302 C1299 1.370 . S
C1302 C1303 1.385 . S
C1303 C1300 1.414 . S
C1303 C1302 1.385 . S
C1303 C1325 1.444 . S
O1304 Tb1260 2.546 . S
O1304 C1324 1.251 . S
O1305 Tb1260 2.610 . S
O1305 Tb1271 2.362 . S
O1305 C1316 1.283 . S
O1306 Tb1271 2.421 . S
O1306 C1323 1.262 . S
O1307 Tb1260 2.320 . S
O1307 C1323 1.260 . S
O1308 Tb1260 2.552 . S
O1308 C1316 1.243 . S
O1309 Tb1260 2.413 . S
O1309 C1324 1.256 . S
O1310 Tb1271 2.546 . S
O1310 C1335 1.251 . S
O1311 Tb1260 2.362 . S
O1311 Tb1271 2.610 . S
O1311 C1327 1.283 . S
O1312 Tb1260 2.421 . S
O1312 C1334 1.262 . S
O1313 Tb1271 2.320 . S
O1313 C1334 1.260 . S
O1314 Tb1271 2.552 . S
O1314 C1327 1.243 . S
O1315 Tb1271 2.413 . S
O1315 C1335 1.256 . S
C1316 O1305 1.283 . S
C1316 O1308 1.243 . S
C1317 C1319 1.382 . S
C1317 C1321 1.393 . S
C1317 C1324 1.500 . S
C1318 C1319 1.400 . S
C1318 C1320 1.384 . S
C1319 C1317 1.382 . S
C1319 C1318 1.400 . S
C1319 H1336 0.930 . S
C1320 C1318 1.384 . S
C1320 C1322 1.392 . S
C1320 H1337 0.931 . S
C1321 C1317 1.393 . S
C1321 C1322 1.401 . S
C1321 H1338 0.930 . S
C1322 C1320 1.392 . S
C1322 C1321 1.401 . S
C1322 H1339 0.930 . S
C1323 O1306 1.262 . S
C1323 O1307 1.260 . S
C1324 Tb1260 2.833 . S
C1324 O1304 1.251 . S
C1324 O1309 1.256 . S
C1324 C1317 1.500 . S
C1325 H1290 0.929 . S
C1325 C1303 1.444 . S
C1325 C1326 1.317 . S
C1326 H1288 0.930 . S
C1326 C1294 1.432 . S
C1326 C1325 1.317 . S
C1327 O1311 1.283 . S
C1327 O1314 1.243 . S
C1328 C1329 1.382 . S
C1328 C1332 1.393 . S
C1328 C1335 1.500 . S
C1329 C1328 1.382 . S
C1329 C1330 1.400 . S
C1329 H1340 0.930 . S
C1330 C1329 1.400 . S
C1330 C1331 1.384 . S
C1331 C1330 1.384 . S
C1331 C1333 1.392 . S
C1331 H1341 0.931 . S
C1332 C1328 1.393 . S
C1332 C1333 1.401 . S
C1332 H1342 0.930 . S
C1333 C1331 1.392 . S
C1333 C1332 1.401 . S
C1333 H1343 0.930 . S
C1334 O1312 1.262 . S
C1334 O1313 1.260 . S
C1335 Tb1271 2.833 . S
C1335 O1310 1.251 . S
C1335 O1315 1.256 . S
C1335 C1328 1.500 . S
H1336 C1319 0.930 . S
H1337 C1320 0.931 . S
H1338 C1321 0.930 . S
H1339 C1322 0.930 . S
H1340 C1329 0.930 . S
H1341 C1331 0.931 . S
H1342 C1332 0.930 . S
H1343 C1333 0.930 . S
Tb1344 N1375 2.660 . S
Tb1344 N1382 2.600 . S
Tb1344 O1388 2.546 . S
Tb1344 O1389 2.610 . S
Tb1344 O1391 2.320 . S
Tb1344 O1392 2.552 . S
Tb1344 O1393 2.413 . S
Tb1344 O1395 2.362 . S
Tb1344 O1396 2.421 . S
Tb1344 C1408 2.833 . S
C1345 C1348 1.432 . S
C1345 C1349 1.414 . S
C1345 N1352 1.359 . S
C1346 C1348 1.417 . S
C1346 C1350 1.432 . S
C1346 C1358 1.410 . S
C1347 C1349 1.444 . S
C1347 C1350 1.317 . S
C1347 H1370 0.929 . S
C1348 C1345 1.432 . S
C1348 C1346 1.417 . S
C1348 N1356 1.360 . S
C1349 C1345 1.414 . S
C1349 C1347 1.444 . S
C1349 C1354 1.385 . S
C1350 C1346 1.432 . S
C1350 C1347 1.317 . S
C1350 H1362 0.930 . S
C1351 C1353 1.392 . S
C1351 C1354 1.370 . S
C1351 H1363 0.931 . S
N1352 C1345 1.359 . S
N1352 C1353 1.327 . S
N1352 Tb1355 2.600 . S
C1353 C1351 1.392 . S
C1353 N1352 1.327 . S
C1353 H1360 0.930 . S
C1354 C1349 1.385 . S
C1354 C1351 1.370 . S
C1354 H1373 0.930 . S
Tb1355 N1352 2.600 . S
Tb1355 N1356 2.660 . S
Tb1355 O1389 2.362 . S
Tb1355 O1390 2.421 . S
Tb1355 O1394 2.546 . S
Tb1355 O1395 2.610 . S
Tb1355 O1397 2.320 . S
Tb1355 O1398 2.552 . S
Tb1355 O1399 2.413 . S
Tb1355 C1419 2.833 . S
N1356 C1348 1.360 . S
N1356 Tb1355 2.660 . S
N1356 C1357 1.305 . S
C1357 N1356 1.305 . S
C1357 C1359 1.407 . S
C1357 H1364 0.930 . S
C1358 C1346 1.410 . S
C1358 C1359 1.345 . S
C1358 H1366 0.930 . S
C1359 C1357 1.407 . S
C1359 C1358 1.345 . S
C1359 H1361 0.930 . S
H1360 C1353 0.930 . S
H1361 C1359 0.930 . S
H1362 C1350 0.930 . S
H1363 C1351 0.931 . S
H1364 C1357 0.930 . S
H1365 C1379 0.930 . S
H1366 C1358 0.930 . S
H1367 C1385 0.930 . S
H1368 C1376 0.930 . S
H1369 C1383 0.931 . S
H1370 C1347 0.929 . S
H1371 C1377 0.930 . S
H1372 C1410 0.930 . S
H1373 C1354 0.930 . S
H1374 C1409 0.929 . S
N1375 Tb1344 2.660 . S
N1375 C1376 1.305 . S
N1375 C1380 1.360 . S
C1376 H1368 0.930 . S
C1376 N1375 1.305 . S
C1376 C1379 1.407 . S
C1377 H1371 0.930 . S
C1377 C1378 1.410 . S
C1377 C1379 1.345 . S
C1378 C1377 1.410 . S
C1378 C1380 1.417 . S
C1378 C1410 1.432 . S
C1379 H1365 0.930 . S
C1379 C1376 1.407 . S
C1379 C1377 1.345 . S
C1380 N1375 1.360 . S
C1380 C1378 1.417 . S
C1380 C1384 1.432 . S
H1381 C1386 0.930 . S
N1382 Tb1344 2.600 . S
N1382 C1384 1.359 . S
N1382 C1385 1.327 . S
C1383 H1369 0.931 . S
C1383 C1385 1.392 . S
C1383 C1386 1.370 . S
C1384 C1380 1.432 . S
C1384 N1382 1.359 . S
C1384 C1387 1.414 . S
C1385 H1367 0.930 . S
C1385 N1382 1.327 . S
C1385 C1383 1.392 . S
C1386 H1381 0.930 . S
C1386 C1383 1.370 . S
C1386 C1387 1.385 . S
C1387 C1384 1.414 . S
C1387 C1386 1.385 . S
C1387 C1409 1.444 . S
O1388 Tb1344 2.546 . S
O1388 C1408 1.251 . S
O1389 Tb1344 2.610 . S
O1389 Tb1355 2.362 . S
O1389 C1400 1.283 . S
O1390 Tb1355 2.421 . S
O1390 C1407 1.262 . S
O1391 Tb1344 2.320 . S
O1391 C1407 1.260 . S
O1392 Tb1344 2.552 . S
O1392 C1400 1.243 . S
O1393 Tb1344 2.413 . S
O1393 C1408 1.256 . S
O1394 Tb1355 2.546 . S
O1394 C1419 1.251 . S
O1395 Tb1344 2.362 . S
O1395 Tb1355 2.610 . S
O1395 C1411 1.283 . S
O1396 Tb1344 2.421 . S
O1396 C1418 1.262 . S
O1397 Tb1355 2.320 . S
O1397 C1418 1.260 . S
O1398 Tb1355 2.552 . S
O1398 C1411 1.243 . S
O1399 Tb1355 2.413 . S
O1399 C1419 1.256 . S
C1400 O1389 1.283 . S
C1400 O1392 1.243 . S
C1401 C1403 1.382 . S
C1401 C1405 1.393 . S
C1401 C1408 1.500 . S
C1402 C1403 1.400 . S
C1402 C1404 1.384 . S
C1403 C1401 1.382 . S
C1403 C1402 1.400 . S
C1403 H1420 0.930 . S
C1404 C1402 1.384 . S
C1404 C1406 1.392 . S
C1404 H1421 0.931 . S
C1405 C1401 1.393 . S
C1405 C1406 1.401 . S
C1405 H1422 0.930 . S
C1406 C1404 1.392 . S
C1406 C1405 1.401 . S
C1406 H1423 0.930 . S
C1407 O1390 1.262 . S
C1407 O1391 1.260 . S
C1408 Tb1344 2.833 . S
C1408 O1388 1.251 . S
C1408 O1393 1.256 . S
C1408 C1401 1.500 . S
C1409 H1374 0.929 . S
C1409 C1387 1.444 . S
C1409 C1410 1.317 . S
C1410 H1372 0.930 . S
C1410 C1378 1.432 . S
C1410 C1409 1.317 . S
C1411 O1395 1.283 . S
C1411 O1398 1.243 . S
C1412 C1413 1.382 . S
C1412 C1416 1.393 . S
C1412 C1419 1.500 . S
C1413 C1412 1.382 . S
C1413 C1414 1.400 . S
C1413 H1424 0.930 . S
C1414 C1413 1.400 . S
C1414 C1415 1.384 . S
C1415 C1414 1.384 . S
C1415 C1417 1.392 . S
C1415 H1425 0.931 . S
C1416 C1412 1.393 . S
C1416 C1417 1.401 . S
C1416 H1426 0.930 . S
C1417 C1415 1.392 . S
C1417 C1416 1.401 . S
C1417 H1427 0.930 . S
C1418 O1396 1.262 . S
C1418 O1397 1.260 . S
C1419 Tb1355 2.833 . S
C1419 O1394 1.251 . S
C1419 O1399 1.256 . S
C1419 C1412 1.500 . S
H1420 C1403 0.930 . S
H1421 C1404 0.931 . S
H1422 C1405 0.930 . S
H1423 C1406 0.930 . S
H1424 C1413 0.930 . S
H1425 C1415 0.931 . S
H1426 C1416 0.930 . S
H1427 C1417 0.930 . S
Tb1428 N1459 2.660 . S
Tb1428 N1466 2.600 . S
Tb1428 O1472 2.546 . S
Tb1428 O1473 2.610 . S
Tb1428 O1475 2.320 . S
Tb1428 O1476 2.552 . S
Tb1428 O1477 2.413 . S
Tb1428 O1479 2.362 . S
Tb1428 O1480 2.421 . S
Tb1428 C1492 2.833 . S
C1429 C1432 1.432 . S
C1429 C1433 1.414 . S
C1429 N1436 1.359 . S
C1430 C1432 1.417 . S
C1430 C1434 1.432 . S
C1430 C1442 1.410 . S
C1431 C1433 1.444 . S
C1431 C1434 1.317 . S
C1431 H1454 0.929 . S
C1432 C1429 1.432 . S
C1432 C1430 1.417 . S
C1432 N1440 1.360 . S
C1433 C1429 1.414 . S
C1433 C1431 1.444 . S
C1433 C1438 1.385 . S
C1434 C1430 1.432 . S
C1434 C1431 1.317 . S
C1434 H1446 0.930 . S
C1435 C1437 1.392 . S
C1435 C1438 1.370 . S
C1435 H1447 0.931 . S
N1436 C1429 1.359 . S
N1436 C1437 1.327 . S
N1436 Tb1439 2.600 . S
C1437 C1435 1.392 . S
C1437 N1436 1.327 . S
C1437 H1444 0.930 . S
C1438 C1433 1.385 . S
C1438 C1435 1.370 . S
C1438 H1457 0.930 . S
Tb1439 N1436 2.600 . S
Tb1439 N1440 2.660 . S
Tb1439 O1473 2.362 . S
Tb1439 O1474 2.421 . S
Tb1439 O1478 2.546 . S
Tb1439 O1479 2.610 . S
Tb1439 O1481 2.320 . S
Tb1439 O1482 2.552 . S
Tb1439 O1483 2.413 . S
Tb1439 C1503 2.833 . S
N1440 C1432 1.360 . S
N1440 Tb1439 2.660 . S
N1440 C1441 1.305 . S
C1441 N1440 1.305 . S
C1441 C1443 1.407 . S
C1441 H1448 0.930 . S
C1442 C1430 1.410 . S
C1442 C1443 1.345 . S
C1442 H1450 0.930 . S
C1443 C1441 1.407 . S
C1443 C1442 1.345 . S
C1443 H1445 0.930 . S
H1444 C1437 0.930 . S
H1445 C1443 0.930 . S
H1446 C1434 0.930 . S
H1447 C1435 0.931 . S
H1448 C1441 0.930 . S
H1449 C1463 0.930 . S
H1450 C1442 0.930 . S
H1451 C1469 0.930 . S
H1452 C1460 0.930 . S
H1453 C1467 0.931 . S
H1454 C1431 0.929 . S
H1455 C1461 0.930 . S
H1456 C1494 0.930 . S
H1457 C1438 0.930 . S
H1458 C1493 0.929 . S
N1459 Tb1428 2.660 . S
N1459 C1460 1.305 . S
N1459 C1464 1.360 . S
C1460 H1452 0.930 . S
C1460 N1459 1.305 . S
C1460 C1463 1.407 . S
C1461 H1455 0.930 . S
C1461 C1462 1.410 . S
C1461 C1463 1.345 . S
C1462 C1461 1.410 . S
C1462 C1464 1.417 . S
C1462 C1494 1.432 . S
C1463 H1449 0.930 . S
C1463 C1460 1.407 . S
C1463 C1461 1.345 . S
C1464 N1459 1.360 . S
C1464 C1462 1.417 . S
C1464 C1468 1.432 . S
H1465 C1470 0.930 . S
N1466 Tb1428 2.600 . S
N1466 C1468 1.359 . S
N1466 C1469 1.327 . S
C1467 H1453 0.931 . S
C1467 C1469 1.392 . S
C1467 C1470 1.370 . S
C1468 C1464 1.432 . S
C1468 N1466 1.359 . S
C1468 C1471 1.414 . S
C1469 H1451 0.930 . S
C1469 N1466 1.327 . S
C1469 C1467 1.392 . S
C1470 H1465 0.930 . S
C1470 C1467 1.370 . S
C1470 C1471 1.385 . S
C1471 C1468 1.414 . S
C1471 C1470 1.385 . S
C1471 C1493 1.444 . S
O1472 Tb1428 2.546 . S
O1472 C1492 1.251 . S
O1473 Tb1428 2.610 . S
O1473 Tb1439 2.362 . S
O1473 C1484 1.283 . S
O1474 Tb1439 2.421 . S
O1474 C1491 1.262 . S
O1475 Tb1428 2.320 . S
O1475 C1491 1.260 . S
O1476 Tb1428 2.552 . S
O1476 C1484 1.243 . S
O1477 Tb1428 2.413 . S
O1477 C1492 1.256 . S
O1478 Tb1439 2.546 . S
O1478 C1503 1.251 . S
O1479 Tb1428 2.362 . S
O1479 Tb1439 2.610 . S
O1479 C1495 1.283 . S
O1480 Tb1428 2.421 . S
O1480 C1502 1.262 . S
O1481 Tb1439 2.320 . S
O1481 C1502 1.260 . S
O1482 Tb1439 2.552 . S
O1482 C1495 1.243 . S
O1483 Tb1439 2.413 . S
O1483 C1503 1.256 . S
C1484 O1473 1.283 . S
C1484 O1476 1.243 . S
C1485 C1487 1.382 . S
C1485 C1489 1.393 . S
C1485 C1492 1.500 . S
C1486 C1487 1.400 . S
C1486 C1488 1.384 . S
C1487 C1485 1.382 . S
C1487 C1486 1.400 . S
C1487 H1504 0.930 . S
C1488 C1486 1.384 . S
C1488 C1490 1.392 . S
C1488 H1505 0.931 . S
C1489 C1485 1.393 . S
C1489 C1490 1.401 . S
C1489 H1506 0.930 . S
C1490 C1488 1.392 . S
C1490 C1489 1.401 . S
C1490 H1507 0.930 . S
C1491 O1474 1.262 . S
C1491 O1475 1.260 . S
C1492 Tb1428 2.833 . S
C1492 O1472 1.251 . S
C1492 O1477 1.256 . S
C1492 C1485 1.500 . S
C1493 H1458 0.929 . S
C1493 C1471 1.444 . S
C1493 C1494 1.317 . S
C1494 H1456 0.930 . S
C1494 C1462 1.432 . S
C1494 C1493 1.317 . S
C1495 O1479 1.283 . S
C1495 O1482 1.243 . S
C1496 C1497 1.382 . S
C1496 C1500 1.393 . S
C1496 C1503 1.500 . S
C1497 C1496 1.382 . S
C1497 C1498 1.400 . S
C1497 H1508 0.930 . S
C1498 C1497 1.400 . S
C1498 C1499 1.384 . S
C1499 C1498 1.384 . S
C1499 C1501 1.392 . S
C1499 H1509 0.931 . S
C1500 C1496 1.393 . S
C1500 C1501 1.401 . S
C1500 H1510 0.930 . S
C1501 C1499 1.392 . S
C1501 C1500 1.401 . S
C1501 H1511 0.930 . S
C1502 O1480 1.262 . S
C1502 O1481 1.260 . S
C1503 Tb1439 2.833 . S
C1503 O1478 1.251 . S
C1503 O1483 1.256 . S
C1503 C1496 1.500 . S
H1504 C1487 0.930 . S
H1505 C1488 0.931 . S
H1506 C1489 0.930 . S
H1507 C1490 0.930 . S
H1508 C1497 0.930 . S
H1509 C1499 0.931 . S
H1510 C1500 0.930 . S
H1511 C1501 0.930 . S
Tb1512 N1543 2.660 . S
Tb1512 N1550 2.600 . S
Tb1512 O1556 2.546 . S
Tb1512 O1557 2.610 . S
Tb1512 O1559 2.320 . S
Tb1512 O1560 2.552 . S
Tb1512 O1561 2.413 . S
Tb1512 O1563 2.362 . S
Tb1512 O1564 2.421 . S
Tb1512 C1576 2.833 . S
C1513 C1516 1.432 . S
C1513 C1517 1.414 . S
C1513 N1520 1.359 . S
C1514 C1516 1.417 . S
C1514 C1518 1.432 . S
C1514 C1526 1.410 . S
C1515 C1517 1.444 . S
C1515 C1518 1.317 . S
C1515 H1538 0.929 . S
C1516 C1513 1.432 . S
C1516 C1514 1.417 . S
C1516 N1524 1.360 . S
C1517 C1513 1.414 . S
C1517 C1515 1.444 . S
C1517 C1522 1.385 . S
C1518 C1514 1.432 . S
C1518 C1515 1.317 . S
C1518 H1530 0.930 . S
C1519 C1521 1.392 . S
C1519 C1522 1.370 . S
C1519 H1531 0.931 . S
N1520 C1513 1.359 . S
N1520 C1521 1.327 . S
N1520 Tb1523 2.600 . S
C1521 C1519 1.392 . S
C1521 N1520 1.327 . S
C1521 H1528 0.930 . S
C1522 C1517 1.385 . S
C1522 C1519 1.370 . S
C1522 H1541 0.930 . S
Tb1523 N1520 2.600 . S
Tb1523 N1524 2.660 . S
Tb1523 O1557 2.362 . S
Tb1523 O1558 2.421 . S
Tb1523 O1562 2.546 . S
Tb1523 O1563 2.610 . S
Tb1523 O1565 2.320 . S
Tb1523 O1566 2.552 . S
Tb1523 O1567 2.413 . S
Tb1523 C1587 2.833 . S
N1524 C1516 1.360 . S
N1524 Tb1523 2.660 . S
N1524 C1525 1.305 . S
C1525 N1524 1.305 . S
C1525 C1527 1.407 . S
C1525 H1532 0.930 . S
C1526 C1514 1.410 . S
C1526 C1527 1.345 . S
C1526 H1534 0.930 . S
C1527 C1525 1.407 . S
C1527 C1526 1.345 . S
C1527 H1529 0.930 . S
H1528 C1521 0.930 . S
H1529 C1527 0.930 . S
H1530 C1518 0.930 . S
H1531 C1519 0.931 . S
H1532 C1525 0.930 . S
H1533 C1547 0.930 . S
H1534 C1526 0.930 . S
H1535 C1553 0.930 . S
H1536 C1544 0.930 . S
H1537 C1551 0.931 . S
H1538 C1515 0.929 . S
H1539 C1545 0.930 . S
H1540 C1578 0.930 . S
H1541 C1522 0.930 . S
H1542 C1577 0.929 . S
N1543 Tb1512 2.660 . S
N1543 C1544 1.305 . S
N1543 C1548 1.360 . S
C1544 H1536 0.930 . S
C1544 N1543 1.305 . S
C1544 C1547 1.407 . S
C1545 H1539 0.930 . S
C1545 C1546 1.410 . S
C1545 C1547 1.345 . S
C1546 C1545 1.410 . S
C1546 C1548 1.417 . S
C1546 C1578 1.432 . S
C1547 H1533 0.930 . S
C1547 C1544 1.407 . S
C1547 C1545 1.345 . S
C1548 N1543 1.360 . S
C1548 C1546 1.417 . S
C1548 C1552 1.432 . S
H1549 C1554 0.930 . S
N1550 Tb1512 2.600 . S
N1550 C1552 1.359 . S
N1550 C1553 1.327 . S
C1551 H1537 0.931 . S
C1551 C1553 1.392 . S
C1551 C1554 1.370 . S
C1552 C1548 1.432 . S
C1552 N1550 1.359 . S
C1552 C1555 1.414 . S
C1553 H1535 0.930 . S
C1553 N1550 1.327 . S
C1553 C1551 1.392 . S
C1554 H1549 0.930 . S
C1554 C1551 1.370 . S
C1554 C1555 1.385 . S
C1555 C1552 1.414 . S
C1555 C1554 1.385 . S
C1555 C1577 1.444 . S
O1556 Tb1512 2.546 . S
O1556 C1576 1.251 . S
O1557 Tb1512 2.610 . S
O1557 Tb1523 2.362 . S
O1557 C1568 1.283 . S
O1558 Tb1523 2.421 . S
O1558 C1575 1.262 . S
O1559 Tb1512 2.320 . S
O1559 C1575 1.260 . S
O1560 Tb1512 2.552 . S
O1560 C1568 1.243 . S
O1561 Tb1512 2.413 . S
O1561 C1576 1.256 . S
O1562 Tb1523 2.546 . S
O1562 C1587 1.251 . S
O1563 Tb1512 2.362 . S
O1563 Tb1523 2.610 . S
O1563 C1579 1.283 . S
O1564 Tb1512 2.421 . S
O1564 C1586 1.262 . S
O1565 Tb1523 2.320 . S
O1565 C1586 1.260 . S
O1566 Tb1523 2.552 . S
O1566 C1579 1.243 . S
O1567 Tb1523 2.413 . S
O1567 C1587 1.256 . S
C1568 O1557 1.283 . S
C1568 O1560 1.243 . S
C1569 C1571 1.382 . S
C1569 C1573 1.393 . S
C1569 C1576 1.500 . S
C1570 C1571 1.400 . S
C1570 C1572 1.384 . S
C1571 C1569 1.382 . S
C1571 C1570 1.400 . S
C1571 H1588 0.930 . S
C1572 C1570 1.384 . S
C1572 C1574 1.392 . S
C1572 H1589 0.931 . S
C1573 C1569 1.393 . S
C1573 C1574 1.401 . S
C1573 H1590 0.930 . S
C1574 C1572 1.392 . S
C1574 C1573 1.401 . S
C1574 H1591 0.930 . S
C1575 O1558 1.262 . S
C1575 O1559 1.260 . S
C1576 Tb1512 2.833 . S
C1576 O1556 1.251 . S
C1576 O1561 1.256 . S
C1576 C1569 1.500 . S
C1577 H1542 0.929 . S
C1577 C1555 1.444 . S
C1577 C1578 1.317 . S
C1578 H1540 0.930 . S
C1578 C1546 1.432 . S
C1578 C1577 1.317 . S
C1579 O1563 1.283 . S
C1579 O1566 1.243 . S
C1580 C1581 1.382 . S
C1580 C1584 1.393 . S
C1580 C1587 1.500 . S
C1581 C1580 1.382 . S
C1581 C1582 1.400 . S
C1581 H1592 0.930 . S
C1582 C1581 1.400 . S
C1582 C1583 1.384 . S
C1583 C1582 1.384 . S
C1583 C1585 1.392 . S
C1583 H1593 0.931 . S
C1584 C1580 1.393 . S
C1584 C1585 1.401 . S
C1584 H1594 0.930 . S
C1585 C1583 1.392 . S
C1585 C1584 1.401 . S
C1585 H1595 0.930 . S
C1586 O1564 1.262 . S
C1586 O1565 1.260 . S
C1587 Tb1523 2.833 . S
C1587 O1562 1.251 . S
C1587 O1567 1.256 . S
C1587 C1580 1.500 . S
H1588 C1571 0.930 . S
H1589 C1572 0.931 . S
H1590 C1573 0.930 . S
H1591 C1574 0.930 . S
H1592 C1581 0.930 . S
H1593 C1583 0.931 . S
H1594 C1584 0.930 . S
H1595 C1585 0.930 . S
Tb1596 N1627 2.660 . S
Tb1596 N1634 2.600 1_554 S
Tb1596 O1640 2.546 1_554 S
Tb1596 O1641 2.610 . S
Tb1596 O1643 2.320 . S
Tb1596 O1644 2.551 . S
Tb1596 O1645 2.413 . S
Tb1596 O1647 2.362 . S
Tb1596 O1648 2.421 1_554 S
Tb1596 C1660 2.833 1_554 S
C1597 C1600 1.432 . S
C1597 C1601 1.414 . S
C1597 N1604 1.359 1_655 S
C1598 C1600 1.417 . S
C1598 C1602 1.432 . S
C1598 C1610 1.410 1_554 S
C1599 C1601 1.444 . S
C1599 C1602 1.317 . S
C1599 H1622 0.929 . S
C1600 C1597 1.432 . S
C1600 C1598 1.417 . S
C1600 N1608 1.368 . S
C1601 C1597 1.414 . S
C1601 C1599 1.444 . S
C1601 C1606 1.385 . S
C1602 C1598 1.432 . S
C1602 C1599 1.317 . S
C1602 H1614 0.930 . S
C1603 C1605 1.402 . S
C1603 C1606 1.359 1_455 S
C1603 H1615 0.932 . S
N1604 C1597 1.359 1_455 S
N1604 C1605 1.327 . S
N1604 Tb1607 2.600 . S
C1605 C1603 1.402 . S
C1605 N1604 1.327 . S
C1605 H1612 0.930 . S
C1606 C1601 1.385 . S
C1606 C1603 1.359 1_655 S
C1606 H1625 0.930 . S
Tb1607 N1604 2.600 . S
Tb1607 N1608 2.651 1_455 S
Tb1607 O1641 2.362 . S
Tb1607 O1642 2.421 . S
Tb1607 O1646 2.546 . S
Tb1607 O1647 2.610 . S
Tb1607 O1649 2.320 1_554 S
Tb1607 O1650 2.552 . S
Tb1607 O1651 2.413 1_455 S
Tb1607 C1671 2.833 1_455 S
N1608 C1600 1.368 . S
N1608 Tb1607 2.651 1_655 S
N1608 C1609 1.306 1_554 S
C1609 N1608 1.306 1_556 S
C1609 C1611 1.407 . S
C1609 H1616 0.930 1_655 S
C1610 C1598 1.410 1_556 S
C1610 C1611 1.345 . S
C1610 H1618 0.930 . S
C1611 C1609 1.407 . S
C1611 C1610 1.345 . S
C1611 H1613 0.930 . S
H1612 C1605 0.930 . S
H1613 C1611 0.930 . S
H1614 C1602 0.930 . S
H1615 C1603 0.932 . S
H1616 C1609 0.930 1_455 S
H1617 C1631 0.930 . S
H1618 C1610 0.930 . S
H1619 C1637 0.930 . S
H1620 C1628 0.930 . S
H1621 C1635 0.931 . S
H1622 C1599 0.929 . S
H1623 C1629 0.930 . S
H1624 C1662 0.930 . S
H1625 C1606 0.930 . S
H1626 C1661 0.929 . S
N1627 Tb1596 2.660 . S
N1627 C1628 1.305 . S
N1627 C1632 1.360 . S
C1628 H1620 0.930 . S
C1628 N1627 1.305 . S
C1628 C1631 1.407 . S
C1629 H1623 0.930 . S
C1629 C1630 1.410 . S
C1629 C1631 1.345 . S
C1630 C1629 1.410 . S
C1630 C1632 1.417 . S
C1630 C1662 1.432 . S
C1631 H1617 0.930 . S
C1631 C1628 1.407 . S
C1631 C1629 1.345 . S
C1632 N1627 1.360 . S
C1632 C1630 1.417 . S
C1632 C1636 1.432 1_554 S
H1633 C1638 0.930 . S
N1634 Tb1596 2.600 1_556 S
N1634 C1636 1.359 . S
N1634 C1637 1.327 . S
C1635 H1621 0.931 . S
C1635 C1637 1.392 . S
C1635 C1638 1.370 . S
C1636 C1632 1.432 1_556 S
C1636 N1634 1.359 . S
C1636 C1639 1.414 . S
C1637 H1619 0.930 . S
C1637 N1634 1.327 . S
C1637 C1635 1.392 . S
C1638 H1633 0.930 . S
C1638 C1635 1.370 . S
C1638 C1639 1.385 . S
C1639 C1636 1.414 . S
C1639 C1638 1.385 . S
C1639 C1661 1.444 . S
O1640 Tb1596 2.546 1_556 S
O1640 C1660 1.251 . S
O1641 Tb1596 2.610 . S
O1641 Tb1607 2.362 . S
O1641 C1652 1.283 . S
O1642 Tb1607 2.421 . S
O1642 C1659 1.262 . S
O1643 Tb1596 2.320 . S
O1643 C1659 1.260 . S
O1644 Tb1596 2.551 . S
O1644 C1652 1.246 . S
O1645 Tb1596 2.413 . S
O1645 C1660 1.256 1_554 S
O1646 Tb1607 2.546 . S
O1646 C1671 1.251 1_455 S
O1647 Tb1596 2.362 . S
O1647 Tb1607 2.610 . S
O1647 C1663 1.283 . S
O1648 Tb1596 2.421 1_556 S
O1648 C1670 1.262 . S
O1649 Tb1607 2.320 1_556 S
O1649 C1670 1.260 . S
O1650 Tb1607 2.552 . S
O1650 C1663 1.243 . S
O1651 Tb1607 2.413 1_655 S
O1651 C1671 1.256 . S
C1652 O1641 1.283 . S
C1652 O1644 1.246 . S
C1653 C1655 1.382 1_556 S
C1653 C1657 1.393 . S
C1653 C1660 1.500 . S
C1654 C1655 1.400 . S
C1654 C1656 1.386 1_554 S
C1655 C1653 1.382 1_554 S
C1655 C1654 1.400 . S
C1655 H1672 0.930 . S
C1656 C1654 1.386 1_556 S
C1656 C1658 1.392 . S
C1656 H1673 0.931 . S
C1657 C1653 1.393 . S
C1657 C1658 1.401 . S
C1657 H1674 0.930 . S
C1658 C1656 1.392 . S
C1658 C1657 1.401 . S
C1658 H1675 0.930 . S
C1659 O1642 1.262 . S
C1659 O1643 1.260 . S
C1660 Tb1596 2.833 1_556 S
C1660 O1640 1.251 . S
C1660 O1645 1.256 1_556 S
C1660 C1653 1.500 . S
C1661 H1626 0.929 . S
C1661 C1639 1.444 . S
C1661 C1662 1.317 1_556 S
C1662 H1624 0.930 . S
C1662 C1630 1.432 . S
C1662 C1661 1.317 1_554 S
C1663 O1647 1.283 . S
C1663 O1650 1.243 . S
C1664 C1665 1.382 . S
C1664 C1668 1.393 . S
C1664 C1671 1.500 . S
C1665 C1664 1.382 . S
C1665 C1666 1.400 . S
C1665 H1676 0.930 . S
C1666 C1665 1.400 . S
C1666 C1667 1.384 . S
C1667 C1666 1.384 . S
C1667 C1669 1.392 . S
C1667 H1677 0.931 . S
C1668 C1664 1.393 . S
C1668 C1669 1.401 . S
C1668 H1678 0.930 . S
C1669 C1667 1.392 . S
C1669 C1668 1.401 . S
C1669 H1679 0.930 . S
C1670 O1648 1.262 . S
C1670 O1649 1.260 . S
C1671 Tb1607 2.833 1_655 S
C1671 O1646 1.251 1_655 S
C1671 O1651 1.256 . S
C1671 C1664 1.500 . S
H1672 C1655 0.930 . S
H1673 C1656 0.931 . S
H1674 C1657 0.930 . S
H1675 C1658 0.930 . S
H1676 C1665 0.930 . S
H1677 C1667 0.931 . S
H1678 C1668 0.930 . S
H1679 C1669 0.930 . S
H1680 C1698 0.951 . S
H1681 C1700 0.951 . S
H1682 C1702 0.950 1_554 S
H1683 C1703 0.950 . S
H1684 C1705 0.950 . S
H1685 C1708 0.950 . S
H1686 C1709 0.950 . S
H1687 C1711 0.950 . S
H1688 C1712 0.950 . S
H1689 C1713 0.951 . S
H1690 C1715 0.951 . S
H1691 C1717 0.950 . S
H1692 C1718 0.950 . S
H1693 C1720 0.950 . S
H1694 C1723 0.950 1_556 S
H1695 C1724 0.950 . S
H1696 C1726 0.950 . S
H1697 C1727 0.950 . S
C1698 H1680 0.951 . S
C1698 C1699 1.366 . S
C1698 C1700 1.388 . S
C1699 C1698 1.366 . S
C1699 C1703 1.385 . S
C1700 H1681 0.951 . S
C1700 C1698 1.388 . S
C1700 C1701 1.366 . S
C1701 C1700 1.366 . S
C1701 C1702 1.414 . S
C1701 C1704 1.499 . S
C1702 H1682 0.950 1_556 S
C1702 C1701 1.414 . S
C1702 C1703 1.374 . S
C1703 H1683 0.950 . S
C1703 C1699 1.385 . S
C1703 C1702 1.374 . S
C1704 C1701 1.499 . S
C1704 C1705 1.373 . S
C1704 C1706 1.389 . S
C1705 H1684 0.950 . S
C1705 C1704 1.373 . S
C1705 C1721 1.377 . S
C1706 C1704 1.389 . S
C1706 C1707 1.524 1_455 S
C1706 C1720 1.377 . S
C1707 C1706 1.524 1_655 S
C1707 C1708 1.397 . S
C1707 C1712 1.363 . S
C1708 H1685 0.950 . S
C1708 C1707 1.397 . S
C1708 C1709 1.334 . S
C1709 H1686 0.950 . S
C1709 C1708 1.334 . S
C1709 C1710 1.287 . S
C1710 C1709 1.287 . S
C1710 C1711 1.524 . S
C1710 H1729 0.913 . S
C1711 H1687 0.950 . S
C1711 C1710 1.524 . S
C1711 C1712 1.415 . S
C1712 H1688 0.950 . S
C1712 C1707 1.363 . S
C1712 C1711 1.415 . S
C1713 H1689 0.951 . S
C1713 C1714 1.366 . S
C1713 C1715 1.388 . S
C1714 C1713 1.366 . S
C1714 C1718 1.385 1_554 S
C1715 H1690 0.951 . S
C1715 C1713 1.388 . S
C1715 C1716 1.307 1_554 S
C1716 C1715 1.307 1_556 S
C1716 C1717 1.444 . S
C1716 C1719 1.530 . S
C1717 H1691 0.950 . S
C1717 C1716 1.444 . S
C1717 C1718 1.374 . S
C1718 H1692 0.950 . S
C1718 C1714 1.385 1_556 S
C1718 C1717 1.374 . S
C1719 C1716 1.530 . S
C1719 C1720 1.373 . S
C1719 C1721 1.389 . S
C1720 H1693 0.950 . S
C1720 C1706 1.377 . S
C1720 C1719 1.373 . S
C1721 C1705 1.377 . S
C1721 C1719 1.389 . S
C1721 C1722 1.524 1_556 S
C1722 C1721 1.524 1_554 S
C1722 C1723 1.397 . S
C1722 C1727 1.363 . S
C1723 H1694 0.950 1_554 S
C1723 C1722 1.397 . S
C1723 C1724 1.334 . S
C1724 H1695 0.950 . S
C1724 C1723 1.334 . S
C1724 C1725 1.287 . S
C1725 C1724 1.287 . S
C1725 C1726 1.524 . S
C1725 H1728 0.999 . S
C1726 H1696 0.950 . S
C1726 C1725 1.524 . S
C1726 C1727 1.415 . S
C1727 H1697 0.950 . S
C1727 C1722 1.363 . S
C1727 C1726 1.415 . S
H1728 C1725 0.999 . S
H1729 C1710 0.913 . S
H1730 C1748 0.951 . S
H1731 C1750 0.951 . S
H1732 C1752 0.950 . S
H1733 C1753 0.950 . S
H1734 C1755 0.950 . S
H1735 C1758 0.950 . S
H1736 C1759 0.950 . S
H1737 C1761 0.950 . S
H1738 C1762 0.950 . S
H1739 C1763 0.951 . S
H1740 C1765 0.951 . S
H1741 C1767 0.950 . S
H1742 C1768 0.950 . S
H1743 C1770 0.950 . S
H1744 C1773 0.950 . S
H1745 C1774 0.950 . S
H1746 C1776 0.950 . S
H1747 C1777 0.950 . S
C1748 H1730 0.951 . S
C1748 C1749 1.366 . S
C1748 C1750 1.388 . S
C1749 C1748 1.366 . S
C1749 C1753 1.385 . S
C1750 H1731 0.951 . S
C1750 C1748 1.388 . S
C1750 C1751 1.366 . S
C1751 C1750 1.366 . S
C1751 C1752 1.414 . S
C1751 C1754 1.499 . S
C1752 H1732 0.950 . S
C1752 C1751 1.414 . S
C1752 C1753 1.374 . S
C1753 H1733 0.950 . S
C1753 C1749 1.385 . S
C1753 C1752 1.374 . S
C1754 C1751 1.499 . S
C1754 C1755 1.373 . S
C1754 C1756 1.389 . S
C1755 H1734 0.950 . S
C1755 C1754 1.373 . S
C1755 C1771 1.377 . S
C1756 C1754 1.389 . S
C1756 C1757 1.524 . S
C1756 C1770 1.377 . S
C1757 C1756 1.524 . S
C1757 C1758 1.397 . S
C1757 C1762 1.363 . S
C1758 H1735 0.950 . S
C1758 C1757 1.397 . S
C1758 C1759 1.334 . S
C1759 H1736 0.950 . S
C1759 C1758 1.334 . S
C1759 C1760 1.287 . S
C1760 C1759 1.287 . S
C1760 C1761 1.524 . S
C1760 H1779 0.913 . S
C1761 H1737 0.950 . S
C1761 C1760 1.524 . S
C1761 C1762 1.415 . S
C1762 H1738 0.950 . S
C1762 C1757 1.363 . S
C1762 C1761 1.415 . S
C1763 H1739 0.951 . S
C1763 C1764 1.366 . S
C1763 C1765 1.388 . S
C1764 C1763 1.366 . S
C1764 C1768 1.385 . S
C1765 H1740 0.951 . S
C1765 C1763 1.388 . S
C1765 C1766 1.366 . S
C1766 C1765 1.366 . S
C1766 C1767 1.414 . S
C1766 C1769 1.499 . S
C1767 H1741 0.950 . S
C1767 C1766 1.414 . S
C1767 C1768 1.374 . S
C1768 H1742 0.950 . S
C1768 C1764 1.385 . S
C1768 C1767 1.374 . S
C1769 C1766 1.499 . S
C1769 C1770 1.373 . S
C1769 C1771 1.389 . S
C1770 H1743 0.950 . S
C1770 C1756 1.377 . S
C1770 C1769 1.373 . S
C1771 C1755 1.377 . S
C1771 C1769 1.389 . S
C1771 C1772 1.524 . S
C1772 C1771 1.524 . S
C1772 C1773 1.397 . S
C1772 C1777 1.363 . S
C1773 H1744 0.950 . S
C1773 C1772 1.397 . S
C1773 C1774 1.334 . S
C1774 H1745 0.950 . S
C1774 C1773 1.334 . S
C1774 C1775 1.287 . S
C1775 C1774 1.287 . S
C1775 C1776 1.524 . S
C1775 H1778 0.999 . S
C1776 H1746 0.950 . S
C1776 C1775 1.524 . S
C1776 C1777 1.415 . S
C1777 H1747 0.950 . S
C1777 C1772 1.363 . S
C1777 C1776 1.415 . S
H1778 C1775 0.999 . S
H1779 C1760 0.913 . S
H1780 C1798 0.951 . S
H1781 C1800 0.951 . S
H1782 C1802 0.950 . S
H1783 C1803 0.950 . S
H1784 C1805 0.950 . S
H1785 C1808 0.950 . S
H1786 C1809 0.950 . S
H1787 C1811 0.950 . S
H1788 C1812 0.950 . S
H1789 C1813 0.951 . S
H1790 C1815 0.951 . S
H1791 C1817 0.950 . S
H1792 C1818 0.950 . S
H1793 C1820 0.950 . S
H1794 C1823 0.950 . S
H1795 C1824 0.950 . S
H1796 C1826 0.950 . S
H1797 C1827 0.950 . S
C1798 H1780 0.951 . S
C1798 C1799 1.366 . S
C1798 C1800 1.388 . S
C1799 C1798 1.366 . S
C1799 C1803 1.385 . S
C1800 H1781 0.951 . S
C1800 C1798 1.388 . S
C1800 C1801 1.366 . S
C1801 C1800 1.366 . S
C1801 C1802 1.414 . S
C1801 C1804 1.499 . S
C1802 H1782 0.950 . S
C1802 C1801 1.414 . S
C1802 C1803 1.374 . S
C1803 H1783 0.950 . S
C1803 C1799 1.385 . S
C1803 C1802 1.374 . S
C1804 C1801 1.499 . S
C1804 C1805 1.373 . S
C1804 C1806 1.389 . S
C1805 H1784 0.950 . S
C1805 C1804 1.373 . S
C1805 C1821 1.377 . S
C1806 C1804 1.389 . S
C1806 C1807 1.524 . S
C1806 C1820 1.377 . S
C1807 C1806 1.524 . S
C1807 C1808 1.397 . S
C1807 C1812 1.363 . S
C1808 H1785 0.950 . S
C1808 C1807 1.397 . S
C1808 C1809 1.334 . S
C1809 H1786 0.950 . S
C1809 C1808 1.334 . S
C1809 C1810 1.287 . S
C1810 C1809 1.287 . S
C1810 C1811 1.524 . S
C1810 H1829 0.913 . S
C1811 H1787 0.950 . S
C1811 C1810 1.524 . S
C1811 C1812 1.415 . S
C1812 H1788 0.950 . S
C1812 C1807 1.363 . S
C1812 C1811 1.415 . S
C1813 H1789 0.951 . S
C1813 C1814 1.366 . S
C1813 C1815 1.388 . S
C1814 C1813 1.366 . S
C1814 C1818 1.385 . S
C1815 H1790 0.951 . S
C1815 C1813 1.388 . S
C1815 C1816 1.366 . S
C1816 C1815 1.366 . S
C1816 C1817 1.414 . S
C1816 C1819 1.499 . S
C1817 H1791 0.950 . S
C1817 C1816 1.414 . S
C1817 C1818 1.374 . S
C1818 H1792 0.950 . S
C1818 C1814 1.385 . S
C1818 C1817 1.374 . S
C1819 C1816 1.499 . S
C1819 C1820 1.373 . S
C1819 C1821 1.389 . S
C1820 H1793 0.950 . S
C1820 C1806 1.377 . S
C1820 C1819 1.373 . S
C1821 C1805 1.377 . S
C1821 C1819 1.389 . S
C1821 C1822 1.524 . S
C1822 C1821 1.524 . S
C1822 C1823 1.397 . S
C1822 C1827 1.363 . S
C1823 H1794 0.950 . S
C1823 C1822 1.397 . S
C1823 C1824 1.334 . S
C1824 H1795 0.950 . S
C1824 C1823 1.334 . S
C1824 C1825 1.287 . S
C1825 C1824 1.287 . S
C1825 C1826 1.524 . S
C1825 H1828 0.999 . S
C1826 H1796 0.950 . S
C1826 C1825 1.524 . S
C1826 C1827 1.415 . S
C1827 H1797 0.950 . S
C1827 C1822 1.363 . S
C1827 C1826 1.415 . S
H1828 C1825 0.999 . S
H1829 C1810 0.913 . S
H1830 C1848 0.951 . S
H1831 C1850 0.951 . S
H1832 C1852 0.950 . S
H1833 C1853 0.950 . S
H1834 C1855 0.950 . S
H1835 C1858 0.950 . S
H1836 C1859 0.950 . S
H1837 C1861 0.950 . S
H1838 C1862 0.950 . S
H1839 C1863 0.951 . S
H1840 C1865 0.951 . S
H1841 C1867 0.950 . S
H1842 C1868 0.950 . S
H1843 C1870 0.950 . S
H1844 C1873 0.950 . S
H1845 C1874 0.950 . S
H1846 C1876 0.950 . S
H1847 C1877 0.950 . S
C1848 H1830 0.951 . S
C1848 C1849 1.366 . S
C1848 C1850 1.388 . S
C1849 C1848 1.366 . S
C1849 C1853 1.385 . S
C1850 H1831 0.951 . S
C1850 C1848 1.388 . S
C1850 C1851 1.366 . S
C1851 C1850 1.366 . S
C1851 C1852 1.414 . S
C1851 C1854 1.499 . S
C1852 H1832 0.950 . S
C1852 C1851 1.414 . S
C1852 C1853 1.374 . S
C1853 H1833 0.950 . S
C1853 C1849 1.385 . S
C1853 C1852 1.374 . S
C1854 C1851 1.499 . S
C1854 C1855 1.373 . S
C1854 C1856 1.389 . S
C1855 H1834 0.950 . S
C1855 C1854 1.373 . S
C1855 C1871 1.377 . S
C1856 C1854 1.389 . S
C1856 C1857 1.524 . S
C1856 C1870 1.377 . S
C1857 C1856 1.524 . S
C1857 C1858 1.397 . S
C1857 C1862 1.363 . S
C1858 H1835 0.950 . S
C1858 C1857 1.397 . S
C1858 C1859 1.334 . S
C1859 H1836 0.950 . S
C1859 C1858 1.334 . S
C1859 C1860 1.287 . S
C1860 C1859 1.287 . S
C1860 C1861 1.524 . S
C1860 H1879 0.913 . S
C1861 H1837 0.950 . S
C1861 C1860 1.524 . S
C1861 C1862 1.415 . S
C1862 H1838 0.950 . S
C1862 C1857 1.363 . S
C1862 C1861 1.415 . S
C1863 H1839 0.951 . S
C1863 C1864 1.366 . S
C1863 C1865 1.388 . S
C1864 C1863 1.366 . S
C1864 C1868 1.385 . S
C1865 H1840 0.951 . S
C1865 C1863 1.388 . S
C1865 C1866 1.366 . S
C1866 C1865 1.366 . S
C1866 C1867 1.414 . S
C1866 C1869 1.499 . S
C1867 H1841 0.950 . S
C1867 C1866 1.414 . S
C1867 C1868 1.374 . S
C1868 H1842 0.950 . S
C1868 C1864 1.385 . S
C1868 C1867 1.374 . S
C1869 C1866 1.499 . S
C1869 C1870 1.373 . S
C1869 C1871 1.389 . S
C1870 H1843 0.950 . S
C1870 C1856 1.377 . S
C1870 C1869 1.373 . S
C1871 C1855 1.377 . S
C1871 C1869 1.389 . S
C1871 C1872 1.524 . S
C1872 C1871 1.524 . S
C1872 C1873 1.397 . S
C1872 C1877 1.363 . S
C1873 H1844 0.950 . S
C1873 C1872 1.397 . S
C1873 C1874 1.334 . S
C1874 H1845 0.950 . S
C1874 C1873 1.334 . S
C1874 C1875 1.287 . S
C1875 C1874 1.287 . S
C1875 C1876 1.524 . S
C1875 H1878 0.999 . S
C1876 H1846 0.950 . S
C1876 C1875 1.524 . S
C1876 C1877 1.415 . S
C1877 H1847 0.950 . S
C1877 C1872 1.363 . S
C1877 C1876 1.415 . S
H1878 C1875 0.999 . S
H1879 C1860 0.913 . S
H1880 C1898 0.951 . S
H1881 C1900 0.951 . S
H1882 C1902 0.950 . S
H1883 C1903 0.950 . S
H1884 C1905 0.922 1_655 S
H1885 C1908 0.950 . S
H1886 C1909 0.950 . S
H1887 C1911 0.950 . S
H1888 C1912 0.950 . S
H1889 C1913 0.951 . S
H1890 C1915 0.951 . S
H1891 C1917 0.950 . S
H1892 C1918 0.950 . S
H1893 C1920 0.950 . S
H1894 C1923 0.950 . S
H1895 C1924 0.950 . S
H1896 C1926 0.950 . S
H1897 C1927 0.950 . S
C1898 H1880 0.951 . S
C1898 C1899 1.366 . S
C1898 C1900 1.388 . S
C1899 C1898 1.366 . S
C1899 C1903 1.385 1_455 S
C1900 H1881 0.951 . S
C1900 C1898 1.388 . S
C1900 C1901 1.366 . S
C1901 C1900 1.366 . S
C1901 C1902 1.414 1_455 S
C1901 C1904 1.499 . S
C1902 H1882 0.950 . S
C1902 C1901 1.414 1_655 S
C1902 C1903 1.374 . S
C1903 H1883 0.950 . S
C1903 C1899 1.385 1_655 S
C1903 C1902 1.374 . S
C1904 C1901 1.499 . S
C1904 C1905 1.400 . S
C1904 C1906 1.389 . S
C1905 H1884 0.922 1_455 S
C1905 C1904 1.400 . S
C1905 C1921 1.378 . S
C1906 C1904 1.389 . S
C1906 C1907 1.524 . S
C1906 C1920 1.377 . S
C1907 C1906 1.524 . S
C1907 C1908 1.397 . S
C1907 C1912 1.363 . S
C1908 H1885 0.950 . S
C1908 C1907 1.397 . S
C1908 C1909 1.334 . S
C1909 H1886 0.950 . S
C1909 C1908 1.334 . S
C1909 C1910 1.287 . S
C1910 C1909 1.287 . S
C1910 C1911 1.524 . S
C1910 H1929 0.913 . S
C1911 H1887 0.950 . S
C1911 C1910 1.524 . S
C1911 C1912 1.415 . S
C1912 H1888 0.950 . S
C1912 C1907 1.363 . S
C1912 C1911 1.415 . S
C1913 H1889 0.951 . S
C1913 C1914 1.366 . S
C1913 C1915 1.388 . S
C1914 C1913 1.366 . S
C1914 C1918 1.385 . S
C1915 H1890 0.951 . S
C1915 C1913 1.388 . S
C1915 C1916 1.366 . S
C1916 C1915 1.366 . S
C1916 C1917 1.414 . S
C1916 C1919 1.499 . S
C1917 H1891 0.950 . S
C1917 C1916 1.414 . S
C1917 C1918 1.374 . S
C1918 H1892 0.950 . S
C1918 C1914 1.385 . S
C1918 C1917 1.374 . S
C1919 C1916 1.499 . S
C1919 C1920 1.373 . S
C1919 C1921 1.389 . S
C1920 H1893 0.950 . S
C1920 C1906 1.377 . S
C1920 C1919 1.373 . S
C1921 C1905 1.378 . S
C1921 C1919 1.389 . S
C1921 C1922 1.524 1_455 S
C1922 C1921 1.524 1_655 S
C1922 C1923 1.397 . S
C1922 C1927 1.363 . S
C1923 H1894 0.950 . S
C1923 C1922 1.397 . S
C1923 C1924 1.334 . S
C1924 H1895 0.950 . S
C1924 C1923 1.334 . S
C1924 C1925 1.287 . S
C1925 C1924 1.287 . S
C1925 C1926 1.524 . S
C1925 H1928 0.999 . S
C1926 H1896 0.950 . S
C1926 C1925 1.524 . S
C1926 C1927 1.415 . S
C1927 H1897 0.950 . S
C1927 C1922 1.363 . S
C1927 C1926 1.415 . S
H1928 C1925 0.999 . S
H1929 C1910 0.913 . S
H1930 C1948 0.951 . S
H1931 C1950 0.951 . S
H1932 C1952 0.950 . S
H1933 C1953 0.950 . S
H1934 C1955 0.950 . S
H1935 C1958 0.950 . S
H1936 C1959 0.950 . S
H1937 C1961 0.950 . S
H1938 C1962 0.950 . S
H1939 C1963 0.951 . S
H1940 C1965 0.951 . S
H1941 C1967 0.950 . S
H1942 C1968 0.950 . S
H1943 C1970 0.950 . S
H1944 C1973 0.950 . S
H1945 C1974 0.950 . S
H1946 C1976 0.950 . S
H1947 C1977 0.950 . S
C1948 H1930 0.951 . S
C1948 C1949 1.366 . S
C1948 C1950 1.388 . S
C1949 C1948 1.366 . S
C1949 C1953 1.385 . S
C1950 H1931 0.951 . S
C1950 C1948 1.388 . S
C1950 C1951 1.366 . S
C1951 C1950 1.366 . S
C1951 C1952 1.414 . S
C1951 C1954 1.499 . S
C1952 H1932 0.950 . S
C1952 C1951 1.414 . S
C1952 C1953 1.374 . S
C1953 H1933 0.950 . S
C1953 C1949 1.385 . S
C1953 C1952 1.374 . S
C1954 C1951 1.499 . S
C1954 C1955 1.373 . S
C1954 C1956 1.389 . S
C1955 H1934 0.950 . S
C1955 C1954 1.373 . S
C1955 C1971 1.377 . S
C1956 C1954 1.389 . S
C1956 C1957 1.524 . S
C1956 C1970 1.377 . S
C1957 C1956 1.524 . S
C1957 C1958 1.397 . S
C1957 C1962 1.363 . S
C1958 H1935 0.950 . S
C1958 C1957 1.397 . S
C1958 C1959 1.334 . S
C1959 H1936 0.950 . S
C1959 C1958 1.334 . S
C1959 C1960 1.287 . S
C1960 C1959 1.287 . S
C1960 C1961 1.524 . S
C1960 H1979 0.913 . S
C1961 H1937 0.950 . S
C1961 C1960 1.524 . S
C1961 C1962 1.415 . S
C1962 H1938 0.950 . S
C1962 C1957 1.363 . S
C1962 C1961 1.415 . S
C1963 H1939 0.951 . S
C1963 C1964 1.366 . S
C1963 C1965 1.388 . S
C1964 C1963 1.366 . S
C1964 C1968 1.385 . S
C1965 H1940 0.951 . S
C1965 C1963 1.388 . S
C1965 C1966 1.366 . S
C1966 C1965 1.366 . S
C1966 C1967 1.414 . S
C1966 C1969 1.499 . S
C1967 H1941 0.950 . S
C1967 C1966 1.414 . S
C1967 C1968 1.374 . S
C1968 H1942 0.950 . S
C1968 C1964 1.385 . S
C1968 C1967 1.374 . S
C1969 C1966 1.499 . S
C1969 C1970 1.373 . S
C1969 C1971 1.389 . S
C1970 H1943 0.950 . S
C1970 C1956 1.377 . S
C1970 C1969 1.373 . S
C1971 C1955 1.377 . S
C1971 C1969 1.389 . S
C1971 C1972 1.524 . S
C1972 C1971 1.524 . S
C1972 C1973 1.397 . S
C1972 C1977 1.363 . S
C1973 H1944 0.950 . S
C1973 C1972 1.397 . S
C1973 C1974 1.334 . S
C1974 H1945 0.950 . S
C1974 C1973 1.334 . S
C1974 C1975 1.287 . S
C1975 C1974 1.287 . S
C1975 C1976 1.524 . S
C1975 H1978 0.999 . S
C1976 H1946 0.950 . S
C1976 C1975 1.524 . S
C1976 C1977 1.415 . S
C1977 H1947 0.950 . S
C1977 C1972 1.363 . S
C1977 C1976 1.415 . S
H1978 C1975 0.999 . S
H1979 C1960 0.913 . S
H1980 C1998 0.951 . S
H1981 C2000 0.951 . S
H1982 C2002 0.950 . S
H1983 C2003 0.950 . S
H1984 C2005 0.950 . S
H1985 C2008 0.950 . S
H1986 C2009 0.950 . S
H1987 C2011 0.950 . S
H1988 C2012 0.950 . S
H1989 C2013 0.951 . S
H1990 C2015 0.951 . S
H1991 C2017 0.950 . S
H1992 C2018 0.950 . S
H1993 C2020 0.950 . S
H1994 C2023 0.950 . S
H1995 C2024 0.950 . S
H1996 C2026 0.950 . S
H1997 C2027 0.950 . S
C1998 H1980 0.951 . S
C1998 C1999 1.366 . S
C1998 C2000 1.388 . S
C1999 C1998 1.366 . S
C1999 C2003 1.385 . S
C2000 H1981 0.951 . S
C2000 C1998 1.388 . S
C2000 C2001 1.366 . S
C2001 C2000 1.366 . S
C2001 C2002 1.414 . S
C2001 C2004 1.499 . S
C2002 H1982 0.950 . S
C2002 C2001 1.414 . S
C2002 C2003 1.374 . S
C2003 H1983 0.950 . S
C2003 C1999 1.385 . S
C2003 C2002 1.374 . S
C2004 C2001 1.499 . S
C2004 C2005 1.373 . S
C2004 C2006 1.389 . S
C2005 H1984 0.950 . S
C2005 C2004 1.373 . S
C2005 C2021 1.377 . S
C2006 C2004 1.389 . S
C2006 C2007 1.524 . S
C2006 C2020 1.377 . S
C2007 C2006 1.524 . S
C2007 C2008 1.397 . S
C2007 C2012 1.363 . S
C2008 H1985 0.950 . S
C2008 C2007 1.397 . S
C2008 C2009 1.334 . S
C2009 H1986 0.950 . S
C2009 C2008 1.334 . S
C2009 C2010 1.287 . S
C2010 C2009 1.287 . S
C2010 C2011 1.524 . S
C2010 H2029 0.913 . S
C2011 H1987 0.950 . S
C2011 C2010 1.524 . S
C2011 C2012 1.415 . S
C2012 H1988 0.950 . S
C2012 C2007 1.363 . S
C2012 C2011 1.415 . S
C2013 H1989 0.951 . S
C2013 C2014 1.366 . S
C2013 C2015 1.388 . S
C2014 C2013 1.366 . S
C2014 C2018 1.385 . S
C2015 H1990 0.951 . S
C2015 C2013 1.388 . S
C2015 C2016 1.366 . S
C2016 C2015 1.366 . S
C2016 C2017 1.414 . S
C2016 C2019 1.499 . S
C2017 H1991 0.950 . S
C2017 C2016 1.414 . S
C2017 C2018 1.374 . S
C2018 H1992 0.950 . S
C2018 C2014 1.385 . S
C2018 C2017 1.374 . S
C2019 C2016 1.499 . S
C2019 C2020 1.373 . S
C2019 C2021 1.389 . S
C2020 H1993 0.950 . S
C2020 C2006 1.377 . S
C2020 C2019 1.373 . S
C2021 C2005 1.377 . S
C2021 C2019 1.389 . S
C2021 C2022 1.524 . S
C2022 C2021 1.524 . S
C2022 C2023 1.397 . S
C2022 C2027 1.363 . S
C2023 H1994 0.950 . S
C2023 C2022 1.397 . S
C2023 C2024 1.334 . S
C2024 H1995 0.950 . S
C2024 C2023 1.334 . S
C2024 C2025 1.287 . S
C2025 C2024 1.287 . S
C2025 C2026 1.524 . S
C2025 H2028 0.999 . S
C2026 H1996 0.950 . S
C2026 C2025 1.524 . S
C2026 C2027 1.415 . S
C2027 H1997 0.950 . S
C2027 C2022 1.363 . S
C2027 C2026 1.415 . S
H2028 C2025 0.999 . S
H2029 C2010 0.913 . S
H2030 C2048 0.951 . S
H2031 C2050 0.951 . S
H2032 C2052 0.950 . S
H2033 C2053 0.950 . S
H2034 C2055 0.950 . S
H2035 C2058 0.950 . S
H2036 C2059 0.950 . S
H2037 C2061 0.950 . S
H2038 C2062 0.950 . S
H2039 C2063 0.951 . S
H2040 C2065 0.951 . S
H2041 C2067 0.950 . S
H2042 C2068 0.950 . S
H2043 C2070 0.950 . S
H2044 C2073 0.950 . S
H2045 C2074 0.950 . S
H2046 C2076 0.950 . S
H2047 C2077 0.950 . S
C2048 H2030 0.951 . S
C2048 C2049 1.366 . S
C2048 C2050 1.388 . S
C2049 C2048 1.366 . S
C2049 C2053 1.385 . S
C2050 H2031 0.951 . S
C2050 C2048 1.388 . S
C2050 C2051 1.366 . S
C2051 C2050 1.366 . S
C2051 C2052 1.414 . S
C2051 C2054 1.499 . S
C2052 H2032 0.950 . S
C2052 C2051 1.414 . S
C2052 C2053 1.374 . S
C2053 H2033 0.950 . S
C2053 C2049 1.385 . S
C2053 C2052 1.374 . S
C2054 C2051 1.499 . S
C2054 C2055 1.373 . S
C2054 C2056 1.389 . S
C2055 H2034 0.950 . S
C2055 C2054 1.373 . S
C2055 C2071 1.377 . S
C2056 C2054 1.389 . S
C2056 C2057 1.524 . S
C2056 C2070 1.377 . S
C2057 C2056 1.524 . S
C2057 C2058 1.397 . S
C2057 C2062 1.363 . S
C2058 H2035 0.950 . S
C2058 C2057 1.397 . S
C2058 C2059 1.334 . S
C2059 H2036 0.950 . S
C2059 C2058 1.334 . S
C2059 C2060 1.287 . S
C2060 C2059 1.287 . S
C2060 C2061 1.524 . S
C2060 H2079 0.913 . S
C2061 H2037 0.950 . S
C2061 C2060 1.524 . S
C2061 C2062 1.415 . S
C2062 H2038 0.950 . S
C2062 C2057 1.363 . S
C2062 C2061 1.415 . S
C2063 H2039 0.951 . S
C2063 C2064 1.366 . S
C2063 C2065 1.388 . S
C2064 C2063 1.366 . S
C2064 C2068 1.385 . S
C2065 H2040 0.951 . S
C2065 C2063 1.388 . S
C2065 C2066 1.366 . S
C2066 C2065 1.366 . S
C2066 C2067 1.414 . S
C2066 C2069 1.499 . S
C2067 H2041 0.950 . S
C2067 C2066 1.414 . S
C2067 C2068 1.374 . S
C2068 H2042 0.950 . S
C2068 C2064 1.385 . S
C2068 C2067 1.374 . S
C2069 C2066 1.499 . S
C2069 C2070 1.373 . S
C2069 C2071 1.389 . S
C2070 H2043 0.950 . S
C2070 C2056 1.377 . S
C2070 C2069 1.373 . S
C2071 C2055 1.377 . S
C2071 C2069 1.389 . S
C2071 C2072 1.524 . S
C2072 C2071 1.524 . S
C2072 C2073 1.397 . S
C2072 C2077 1.363 . S
C2073 H2044 0.950 . S
C2073 C2072 1.397 . S
C2073 C2074 1.334 . S
C2074 H2045 0.950 . S
C2074 C2073 1.334 . S
C2074 C2075 1.287 . S
C2075 C2074 1.287 . S
C2075 C2076 1.524 . S
C2075 H2078 0.999 . S
C2076 H2046 0.950 . S
C2076 C2075 1.524 . S
C2076 C2077 1.415 . S
C2077 H2047 0.950 . S
C2077 C2072 1.363 . S
C2077 C2076 1.415 . S
H2078 C2075 0.999 . S
H2079 C2060 0.913 . S
H2080 C2098 0.951 . S
H2081 C2100 0.951 . S
H2082 C2102 0.950 . S
H2083 C2103 0.950 . S
H2084 C2105 0.950 . S
H2085 C2108 0.950 . S
H2086 C2109 0.950 . S
H2087 C2111 0.950 . S
H2088 C2112 0.950 . S
H2089 C2113 0.951 . S
H2090 C2115 0.951 . S
H2091 C2117 0.950 1_655 S
H2092 C2118 0.950 . S
H2093 C2120 0.950 . S
H2094 C2123 0.950 . S
H2095 C2124 0.950 . S
H2096 C2126 0.950 . S
H2097 C2127 0.950 . S
C2098 H2080 0.951 . S
C2098 C2099 1.366 . S
C2098 C2100 1.388 . S
C2099 C2098 1.366 . S
C2099 C2103 1.385 . S
C2100 H2081 0.951 . S
C2100 C2098 1.388 . S
C2100 C2101 1.366 . S
C2101 C2100 1.366 . S
C2101 C2102 1.414 . S
C2101 C2104 1.499 . S
C2102 H2082 0.950 . S
C2102 C2101 1.414 . S
C2102 C2103 1.374 . S
C2103 H2083 0.950 . S
C2103 C2099 1.385 . S
C2103 C2102 1.374 . S
C2104 C2101 1.499 . S
C2104 C2105 1.373 1_655 S
C2104 C2106 1.389 . S
C2105 H2084 0.950 . S
C2105 C2104 1.373 1_455 S
C2105 C2121 1.377 . S
C2106 C2104 1.389 . S
C2106 C2107 1.524 . S
C2106 C2120 1.377 . S
C2107 C2106 1.524 . S
C2107 C2108 1.397 . S
C2107 C2112 1.363 . S
C2108 H2085 0.950 . S
C2108 C2107 1.397 . S
C2108 C2109 1.334 . S
C2109 H2086 0.950 . S
C2109 C2108 1.334 . S
C2109 C2110 1.287 . S
C2110 C2109 1.287 . S
C2110 C2111 1.524 . S
C2110 H2129 0.913 . S
C2111 H2087 0.950 . S
C2111 C2110 1.524 . S
C2111 C2112 1.415 . S
C2112 H2088 0.950 . S
C2112 C2107 1.363 . S
C2112 C2111 1.415 . S
C2113 H2089 0.951 . S
C2113 C2114 1.366 . S
C2113 C2115 1.388 . S
C2114 C2113 1.366 . S
C2114 C2118 1.385 . S
C2115 H2090 0.951 . S
C2115 C2113 1.388 . S
C2115 C2116 1.366 . S
C2116 C2115 1.366 . S
C2116 C2117 1.414 . S
C2116 C2119 1.499 . S
C2117 H2091 0.950 1_455 S
C2117 C2116 1.414 . S
C2117 C2118 1.374 . S
C2118 H2092 0.950 . S
C2118 C2114 1.385 . S
C2118 C2117 1.374 . S
C2119 C2116 1.499 . S
C2119 C2120 1.373 1_455 S
C2119 C2121 1.389 . S
C2120 H2093 0.950 . S
C2120 C2106 1.377 . S
C2120 C2119 1.373 1_655 S
C2121 C2105 1.377 . S
C2121 C2119 1.389 . S
C2121 C2122 1.524 . S
C2122 C2121 1.524 . S
C2122 C2123 1.397 . S
C2122 C2127 1.363 . S
C2123 H2094 0.950 . S
C2123 C2122 1.397 . S
C2123 C2124 1.334 . S
C2124 H2095 0.950 . S
C2124 C2123 1.334 . S
C2124 C2125 1.287 . S
C2125 C2124 1.287 . S
C2125 C2126 1.524 . S
C2125 H2128 0.999 . S
C2126 H2096 0.950 . S
C2126 C2125 1.524 . S
C2126 C2127 1.415 . S
C2127 H2097 0.950 . S
C2127 C2122 1.363 . S
C2127 C2126 1.415 . S
H2128 C2125 0.999 . S
H2129 C2110 0.913 . S
H2130 C2148 0.951 . S
H2131 C2150 0.951 . S
H2132 C2152 0.950 . S
H2133 C2153 0.950 . S
H2134 C2155 0.950 . S
H2135 C2158 0.950 . S
H2136 C2159 0.950 . S
H2137 C2161 0.950 . S
H2138 C2162 0.950 . S
H2139 C2163 0.951 . S
H2140 C2165 0.951 . S
H2141 C2167 0.950 . S
H2142 C2168 0.950 . S
H2143 C2170 0.950 . S
H2144 C2173 0.950 . S
H2145 C2174 0.950 . S
H2146 C2176 0.950 . S
H2147 C2177 0.950 . S
C2148 H2130 0.951 . S
C2148 C2149 1.366 . S
C2148 C2150 1.388 . S
C2149 C2148 1.366 . S
C2149 C2153 1.385 . S
C2150 H2131 0.951 . S
C2150 C2148 1.388 . S
C2150 C2151 1.366 . S
C2151 C2150 1.366 . S
C2151 C2152 1.414 . S
C2151 C2154 1.499 . S
C2152 H2132 0.950 . S
C2152 C2151 1.414 . S
C2152 C2153 1.374 . S
C2153 H2133 0.950 . S
C2153 C2149 1.385 . S
C2153 C2152 1.374 . S
C2154 C2151 1.499 . S
C2154 C2155 1.373 . S
C2154 C2156 1.389 . S
C2155 H2134 0.950 . S
C2155 C2154 1.373 . S
C2155 C2171 1.377 . S
C2156 C2154 1.389 . S
C2156 C2157 1.524 . S
C2156 C2170 1.377 . S
C2157 C2156 1.524 . S
C2157 C2158 1.397 . S
C2157 C2162 1.363 . S
C2158 H2135 0.950 . S
C2158 C2157 1.397 . S
C2158 C2159 1.334 . S
C2159 H2136 0.950 . S
C2159 C2158 1.334 . S
C2159 C2160 1.287 . S
C2160 C2159 1.287 . S
C2160 C2161 1.524 . S
C2160 H2179 0.913 . S
C2161 H2137 0.950 . S
C2161 C2160 1.524 . S
C2161 C2162 1.415 . S
C2162 H2138 0.950 . S
C2162 C2157 1.363 . S
C2162 C2161 1.415 . S
C2163 H2139 0.951 . S
C2163 C2164 1.366 . S
C2163 C2165 1.388 . S
C2164 C2163 1.366 . S
C2164 C2168 1.385 . S
C2165 H2140 0.951 . S
C2165 C2163 1.388 . S
C2165 C2166 1.366 . S
C2166 C2165 1.366 . S
C2166 C2167 1.414 . S
C2166 C2169 1.499 . S
C2167 H2141 0.950 . S
C2167 C2166 1.414 . S
C2167 C2168 1.374 . S
C2168 H2142 0.950 . S
C2168 C2164 1.385 . S
C2168 C2167 1.374 . S
C2169 C2166 1.499 . S
C2169 C2170 1.373 . S
C2169 C2171 1.389 . S
C2170 H2143 0.950 . S
C2170 C2156 1.377 . S
C2170 C2169 1.373 . S
C2171 C2155 1.377 . S
C2171 C2169 1.389 . S
C2171 C2172 1.524 . S
C2172 C2171 1.524 . S
C2172 C2173 1.397 . S
C2172 C2177 1.363 . S
C2173 H2144 0.950 . S
C2173 C2172 1.397 . S
C2173 C2174 1.334 . S
C2174 H2145 0.950 . S
C2174 C2173 1.334 . S
C2174 C2175 1.287 . S
C2175 C2174 1.287 . S
C2175 C2176 1.524 . S
C2175 H2178 0.999 . S
C2176 H2146 0.950 . S
C2176 C2175 1.524 . S
C2176 C2177 1.415 . S
C2177 H2147 0.950 . S
C2177 C2172 1.363 . S
C2177 C2176 1.415 . S
H2178 C2175 0.999 . S
H2179 C2160 0.913 . S
H2180 C2198 0.951 . S
H2181 C2200 0.951 . S
H2182 C2202 0.950 . S
H2183 C2203 0.950 . S
H2184 C2205 0.950 . S
H2185 C2208 0.950 . S
H2186 C2209 0.950 . S
H2187 C2211 0.950 . S
H2188 C2212 0.950 1_545 S
H2189 C2213 0.951 . S
H2190 C2215 0.951 . S
H2191 C2217 0.950 . S
H2192 C2218 0.950 . S
H2193 C2220 0.950 . S
H2194 C2223 0.950 . S
H2195 C2224 0.950 . S
H2196 C2226 0.950 . S
H2197 C2227 0.950 . S
C2198 H2180 0.951 . S
C2198 C2199 1.366 . S
C2198 C2200 1.388 . S
C2199 C2198 1.366 . S
C2199 C2203 1.385 . S
C2200 H2181 0.951 . S
C2200 C2198 1.388 . S
C2200 C2201 1.366 . S
C2201 C2200 1.366 . S
C2201 C2202 1.414 . S
C2201 C2204 1.499 . S
C2202 H2182 0.950 . S
C2202 C2201 1.414 . S
C2202 C2203 1.374 . S
C2203 H2183 0.950 . S
C2203 C2199 1.385 . S
C2203 C2202 1.374 . S
C2204 C2201 1.499 . S
C2204 C2205 1.373 . S
C2204 C2206 1.389 . S
C2205 H2184 0.950 . S
C2205 C2204 1.373 . S
C2205 C2221 1.377 . S
C2206 C2204 1.389 . S
C2206 C2207 1.524 . S
C2206 C2220 1.377 . S
C2207 C2206 1.524 . S
C2207 C2208 1.397 1_545 S
C2207 C2212 1.363 1_545 S
C2208 H2185 0.950 . S
C2208 C2207 1.397 1_565 S
C2208 C2209 1.334 . S
C2209 H2186 0.950 . S
C2209 C2208 1.334 . S
C2209 C2210 1.287 . S
C2210 C2209 1.287 . S
C2210 C2211 1.524 . S
C2210 H2229 0.913 . S
C2211 H2187 0.950 . S
C2211 C2210 1.524 . S
C2211 C2212 1.415 . S
C2212 H2188 0.950 1_565 S
C2212 C2207 1.363 1_565 S
C2212 C2211 1.415 . S
C2213 H2189 0.951 . S
C2213 C2214 1.366 . S
C2213 C2215 1.388 . S
C2214 C2213 1.366 . S
C2214 C2218 1.385 . S
C2215 H2190 0.951 . S
C2215 C2213 1.388 . S
C2215 C2216 1.366 . S
C2216 C2215 1.366 . S
C2216 C2217 1.414 . S
C2216 C2219 1.499 . S
C2217 H2191 0.950 . S
C2217 C2216 1.414 . S
C2217 C2218 1.374 . S
C2218 H2192 0.950 . S
C2218 C2214 1.385 . S
C2218 C2217 1.374 . S
C2219 C2216 1.499 . S
C2219 C2220 1.373 . S
C2219 C2221 1.389 . S
C2220 H2193 0.950 . S
C2220 C2206 1.377 . S
C2220 C2219 1.373 . S
C2221 C2205 1.377 . S
C2221 C2219 1.389 . S
C2221 C2222 1.524 . S
C2222 C2221 1.524 . S
C2222 C2223 1.397 . S
C2222 C2227 1.363 . S
C2223 H2194 0.950 . S
C2223 C2222 1.397 . S
C2223 C2224 1.334 . S
C2224 H2195 0.950 . S
C2224 C2223 1.334 . S
C2224 C2225 1.287 . S
C2225 C2224 1.287 . S
C2225 C2226 1.524 . S
C2225 H2228 0.999 . S
C2226 H2196 0.950 . S
C2226 C2225 1.524 . S
C2226 C2227 1.415 . S
C2227 H2197 0.950 . S
C2227 C2222 1.363 . S
C2227 C2226 1.415 . S
H2228 C2225 0.999 . S
H2229 C2210 0.913 . S
H2230 C2248 0.951 . S
H2231 C2250 0.951 . S
H2232 C2252 0.950 . S
H2233 C2253 0.950 . S
H2234 C2255 0.950 . S
H2235 C2258 0.950 . S
H2236 C2259 0.950 . S
H2237 C2261 0.950 . S
H2238 C2262 0.950 . S
H2239 C2263 0.951 . S
H2240 C2265 0.951 . S
H2241 C2267 0.950 . S
H2242 C2268 0.950 . S
H2243 C2270 0.950 . S
H2244 C2273 0.950 . S
H2245 C2274 0.950 . S
H2246 C2276 0.950 . S
H2247 C2277 0.950 . S
C2248 H2230 0.951 . S
C2248 C2249 1.366 . S
C2248 C2250 1.388 . S
C2249 C2248 1.366 . S
C2249 C2253 1.385 . S
C2250 H2231 0.951 . S
C2250 C2248 1.388 . S
C2250 C2251 1.366 . S
C2251 C2250 1.366 . S
C2251 C2252 1.414 . S
C2251 C2254 1.499 . S
C2252 H2232 0.950 . S
C2252 C2251 1.414 . S
C2252 C2253 1.374 . S
C2253 H2233 0.950 . S
C2253 C2249 1.385 . S
C2253 C2252 1.374 . S
C2254 C2251 1.499 . S
C2254 C2255 1.373 . S
C2254 C2256 1.389 . S
C2255 H2234 0.950 . S
C2255 C2254 1.373 . S
C2255 C2271 1.377 . S
C2256 C2254 1.389 . S
C2256 C2257 1.524 . S
C2256 C2270 1.377 . S
C2257 C2256 1.524 . S
C2257 C2258 1.397 . S
C2257 C2262 1.363 . S
C2258 H2235 0.950 . S
C2258 C2257 1.397 . S
C2258 C2259 1.334 . S
C2259 H2236 0.950 . S
C2259 C2258 1.334 . S
C2259 C2260 1.287 . S
C2260 C2259 1.287 . S
C2260 C2261 1.524 . S
C2260 H2279 0.913 . S
C2261 H2237 0.950 . S
C2261 C2260 1.524 . S
C2261 C2262 1.415 . S
C2262 H2238 0.950 . S
C2262 C2257 1.363 . S
C2262 C2261 1.415 . S
C2263 H2239 0.951 . S
C2263 C2264 1.366 . S
C2263 C2265 1.388 . S
C2264 C2263 1.366 . S
C2264 C2268 1.385 . S
C2265 H2240 0.951 . S
C2265 C2263 1.388 . S
C2265 C2266 1.366 . S
C2266 C2265 1.366 . S
C2266 C2267 1.414 . S
C2266 C2269 1.499 . S
C2267 H2241 0.950 . S
C2267 C2266 1.414 . S
C2267 C2268 1.374 . S
C2268 H2242 0.950 . S
C2268 C2264 1.385 . S
C2268 C2267 1.374 . S
C2269 C2266 1.499 . S
C2269 C2270 1.373 . S
C2269 C2271 1.389 . S
C2270 H2243 0.950 . S
C2270 C2256 1.377 . S
C2270 C2269 1.373 . S
C2271 C2255 1.377 . S
C2271 C2269 1.389 . S
C2271 C2272 1.524 . S
C2272 C2271 1.524 . S
C2272 C2273 1.397 . S
C2272 C2277 1.363 . S
C2273 H2244 0.950 . S
C2273 C2272 1.397 . S
C2273 C2274 1.334 . S
C2274 H2245 0.950 . S
C2274 C2273 1.334 . S
C2274 C2275 1.287 . S
C2275 C2274 1.287 . S
C2275 C2276 1.524 . S
C2275 H2278 0.999 . S
C2276 H2246 0.950 . S
C2276 C2275 1.524 . S
C2276 C2277 1.415 . S
C2277 H2247 0.950 . S
C2277 C2272 1.363 . S
C2277 C2276 1.415 . S
H2278 C2275 0.999 . S
H2279 C2260 0.913 . S
H2280 C2298 0.951 . S
H2281 C2300 0.951 . S
H2282 C2302 0.950 . S
H2283 C2303 0.950 . S
H2284 C2305 0.950 . S
H2285 C2308 0.950 . S
H2286 C2309 0.950 . S
H2287 C2311 0.950 . S
H2288 C2312 0.950 . S
H2289 C2313 0.951 . S
H2290 C2315 0.951 . S
H2291 C2317 0.950 . S
H2292 C2318 0.950 . S
H2293 C2320 0.950 . S
H2294 C2323 0.950 . S
H2295 C2324 0.950 . S
H2296 C2326 0.950 . S
H2297 C2327 0.950 . S
C2298 H2280 0.951 . S
C2298 C2299 1.366 . S
C2298 C2300 1.388 . S
C2299 C2298 1.366 . S
C2299 C2303 1.385 . S
C2300 H2281 0.951 . S
C2300 C2298 1.388 . S
C2300 C2301 1.366 . S
C2301 C2300 1.366 . S
C2301 C2302 1.414 . S
C2301 C2304 1.499 . S
C2302 H2282 0.950 . S
C2302 C2301 1.414 . S
C2302 C2303 1.374 . S
C2303 H2283 0.950 . S
C2303 C2299 1.385 . S
C2303 C2302 1.374 . S
C2304 C2301 1.499 . S
C2304 C2305 1.373 1_655 S
C2304 C2306 1.389 . S
C2305 H2284 0.950 . S
C2305 C2304 1.373 1_455 S
C2305 C2321 1.377 . S
C2306 C2304 1.389 . S
C2306 C2307 1.524 . S
C2306 C2320 1.377 . S
C2307 C2306 1.524 . S
C2307 C2308 1.397 . S
C2307 C2312 1.363 . S
C2308 H2285 0.950 . S
C2308 C2307 1.397 . S
C2308 C2309 1.334 . S
C2309 H2286 0.950 . S
C2309 C2308 1.334 . S
C2309 C2310 1.287 . S
C2310 C2309 1.287 . S
C2310 C2311 1.524 1_545 S
C2310 H2329 0.913 1_545 S
C2311 H2287 0.950 . S
C2311 C2310 1.524 1_565 S
C2311 C2312 1.415 1_565 S
C2312 H2288 0.950 . S
C2312 C2307 1.363 . S
C2312 C2311 1.415 1_545 S
C2313 H2289 0.951 . S
C2313 C2314 1.366 . S
C2313 C2315 1.388 . S
C2314 C2313 1.366 . S
C2314 C2318 1.385 . S
C2315 H2290 0.951 . S
C2315 C2313 1.388 . S
C2315 C2316 1.366 . S
C2316 C2315 1.366 . S
C2316 C2317 1.414 . S
C2316 C2319 1.499 . S
C2317 H2291 0.950 . S
C2317 C2316 1.414 . S
C2317 C2318 1.374 . S
C2318 H2292 0.950 . S
C2318 C2314 1.385 . S
C2318 C2317 1.374 . S
C2319 C2316 1.499 . S
C2319 C2320 1.373 1_455 S
C2319 C2321 1.389 . S
C2320 H2293 0.950 . S
C2320 C2306 1.377 . S
C2320 C2319 1.373 1_655 S
C2321 C2305 1.377 . S
C2321 C2319 1.389 . S
C2321 C2322 1.524 . S
C2322 C2321 1.524 . S
C2322 C2323 1.397 . S
C2322 C2327 1.363 . S
C2323 H2294 0.950 . S
C2323 C2322 1.397 . S
C2323 C2324 1.334 . S
C2324 H2295 0.950 . S
C2324 C2323 1.334 . S
C2324 C2325 1.287 . S
C2325 C2324 1.287 . S
C2325 C2326 1.524 . S
C2325 H2328 0.999 . S
C2326 H2296 0.950 . S
C2326 C2325 1.524 . S
C2326 C2327 1.415 . S
C2327 H2297 0.950 . S
C2327 C2322 1.363 . S
C2327 C2326 1.415 . S
H2328 C2325 0.999 . S
H2329 C2310 0.913 1_565 S
H2330 C2348 0.951 . S
H2331 C2350 0.951 . S
H2332 C2352 0.950 . S
H2333 C2353 0.950 . S
H2334 C2355 0.950 . S
H2335 C2358 0.950 . S
H2336 C2359 0.950 . S
H2337 C2361 0.950 . S
H2338 C2362 0.950 . S
H2339 C2363 0.951 . S
H2340 C2365 0.951 . S
H2341 C2367 0.950 . S
H2342 C2368 0.950 . S
H2343 C2370 0.950 . S
H2344 C2373 0.950 . S
H2345 C2374 0.950 . S
H2346 C2376 0.950 . S
H2347 C2377 0.950 . S
C2348 H2330 0.951 . S
C2348 C2349 1.366 . S
C2348 C2350 1.388 . S
C2349 C2348 1.366 . S
C2349 C2353 1.385 . S
C2350 H2331 0.951 . S
C2350 C2348 1.388 . S
C2350 C2351 1.366 . S
C2351 C2350 1.366 . S
C2351 C2352 1.414 . S
C2351 C2354 1.499 . S
C2352 H2332 0.950 . S
C2352 C2351 1.414 . S
C2352 C2353 1.374 . S
C2353 H2333 0.950 . S
C2353 C2349 1.385 . S
C2353 C2352 1.374 . S
C2354 C2351 1.499 . S
C2354 C2355 1.373 . S
C2354 C2356 1.389 . S
C2355 H2334 0.950 . S
C2355 C2354 1.373 . S
C2355 C2371 1.377 . S
C2356 C2354 1.389 . S
C2356 C2357 1.524 . S
C2356 C2370 1.377 . S
C2357 C2356 1.524 . S
C2357 C2358 1.397 . S
C2357 C2362 1.363 . S
C2358 H2335 0.950 . S
C2358 C2357 1.397 . S
C2358 C2359 1.334 . S
C2359 H2336 0.950 . S
C2359 C2358 1.334 . S
C2359 C2360 1.287 . S
C2360 C2359 1.287 . S
C2360 C2361 1.524 . S
C2360 H2379 0.913 . S
C2361 H2337 0.950 . S
C2361 C2360 1.524 . S
C2361 C2362 1.415 . S
C2362 H2338 0.950 . S
C2362 C2357 1.363 . S
C2362 C2361 1.415 . S
C2363 H2339 0.951 . S
C2363 C2364 1.366 . S
C2363 C2365 1.388 . S
C2364 C2363 1.366 . S
C2364 C2368 1.385 . S
C2365 H2340 0.951 . S
C2365 C2363 1.388 . S
C2365 C2366 1.366 . S
C2366 C2365 1.366 . S
C2366 C2367 1.414 . S
C2366 C2369 1.499 . S
C2367 H2341 0.950 . S
C2367 C2366 1.414 . S
C2367 C2368 1.374 . S
C2368 H2342 0.950 . S
C2368 C2364 1.385 . S
C2368 C2367 1.374 . S
C2369 C2366 1.499 . S
C2369 C2370 1.373 . S
C2369 C2371 1.389 . S
C2370 H2343 0.950 . S
C2370 C2356 1.377 . S
C2370 C2369 1.373 . S
C2371 C2355 1.377 . S
C2371 C2369 1.389 . S
C2371 C2372 1.524 . S
C2372 C2371 1.524 . S
C2372 C2373 1.397 . S
C2372 C2377 1.363 . S
C2373 H2344 0.950 . S
C2373 C2372 1.397 . S
C2373 C2374 1.334 . S
C2374 H2345 0.950 . S
C2374 C2373 1.334 . S
C2374 C2375 1.287 . S
C2375 C2374 1.287 . S
C2375 C2376 1.524 . S
C2375 H2378 0.999 . S
C2376 H2346 0.950 . S
C2376 C2375 1.524 . S
C2376 C2377 1.415 . S
C2377 H2347 0.950 . S
C2377 C2372 1.363 . S
C2377 C2376 1.415 . S
H2378 C2375 0.999 . S
H2379 C2360 0.913 . S
H2380 C2398 0.951 . S
H2381 C2400 0.951 . S
H2382 C2402 0.950 . S
H2383 C2403 0.950 . S
H2384 C2405 0.950 . S
H2385 C2408 0.984 . S
H2386 C2409 0.950 . S
H2387 C2411 0.950 . S
H2388 C2412 0.950 . S
H2389 C2413 0.951 . S
H2390 C2415 0.951 . S
H2391 C2417 0.950 . S
H2392 C2418 0.950 . S
H2393 C2420 0.950 . S
H2394 C2423 0.950 . S
H2395 C2424 0.950 . S
H2396 C2426 0.950 . S
H2397 C2427 0.950 . S
C2398 H2380 0.951 . S
C2398 C2399 1.366 . S
C2398 C2400 1.388 . S
C2399 C2398 1.366 . S
C2399 C2403 1.385 . S
C2400 H2381 0.951 . S
C2400 C2398 1.388 . S
C2400 C2401 1.366 . S
C2401 C2400 1.366 . S
C2401 C2402 1.414 . S
C2401 C2404 1.499 . S
C2402 H2382 0.950 . S
C2402 C2401 1.414 . S
C2402 C2403 1.374 . S
C2403 H2383 0.950 . S
C2403 C2399 1.385 . S
C2403 C2402 1.374 . S
C2404 C2401 1.499 . S
C2404 C2405 1.373 . S
C2404 C2406 1.389 . S
C2405 H2384 0.950 . S
C2405 C2404 1.373 . S
C2405 C2421 1.377 . S
C2406 C2404 1.389 . S
C2406 C2407 1.524 . S
C2406 C2420 1.377 . S
C2407 C2406 1.524 . S
C2407 C2408 1.416 . S
C2407 C2412 1.363 . S
C2408 H2385 0.984 . S
C2408 C2407 1.416 . S
C2408 C2409 1.284 1_545 S
C2409 H2386 0.950 . S
C2409 C2408 1.284 1_565 S
C2409 C2410 1.287 . S
C2410 C2409 1.287 . S
C2410 C2411 1.524 . S
C2410 H2429 0.913 . S
C2411 H2387 0.950 . S
C2411 C2410 1.524 . S
C2411 C2412 1.415 1_565 S
C2412 H2388 0.950 . S
C2412 C2407 1.363 . S
C2412 C2411 1.415 1_545 S
C2413 H2389 0.951 . S
C2413 C2414 1.366 . S
C2413 C2415 1.388 . S
C2414 C2413 1.366 . S
C2414 C2418 1.385 . S
C2415 H2390 0.951 . S
C2415 C2413 1.388 . S
C2415 C2416 1.366 . S
C2416 C2415 1.366 . S
C2416 C2417 1.414 . S
C2416 C2419 1.499 . S
C2417 H2391 0.950 . S
C2417 C2416 1.414 . S
C2417 C2418 1.374 . S
C2418 H2392 0.950 . S
C2418 C2414 1.385 . S
C2418 C2417 1.374 . S
C2419 C2416 1.499 . S
C2419 C2420 1.373 . S
C2419 C2421 1.389 . S
C2420 H2393 0.950 . S
C2420 C2406 1.377 . S
C2420 C2419 1.373 . S
C2421 C2405 1.377 . S
C2421 C2419 1.389 . S
C2421 C2422 1.524 . S
C2422 C2421 1.524 . S
C2422 C2423 1.397 . S
C2422 C2427 1.363 . S
C2423 H2394 0.950 . S
C2423 C2422 1.397 . S
C2423 C2424 1.334 . S
C2424 H2395 0.950 . S
C2424 C2423 1.334 . S
C2424 C2425 1.287 . S
C2425 C2424 1.287 . S
C2425 C2426 1.524 . S
C2425 H2428 0.999 . S
C2426 H2396 0.950 . S
C2426 C2425 1.524 . S
C2426 C2427 1.415 . S
C2427 H2397 0.950 . S
C2427 C2422 1.363 . S
C2427 C2426 1.415 . S
H2428 C2425 0.999 . S
H2429 C2410 0.913 . S
H2430 C2448 0.951 . S
H2431 C2450 0.951 . S
H2432 C2452 0.950 . S
H2433 C2453 0.950 . S
H2434 C2455 0.950 . S
H2435 C2458 0.950 . S
H2436 C2459 0.950 . S
H2437 C2461 0.950 . S
H2438 C2462 0.950 . S
H2439 C2463 0.951 . S
H2440 C2465 0.951 . S
H2441 C2467 0.950 . S
H2442 C2468 0.950 . S
H2443 C2470 0.950 . S
H2444 C2473 0.950 . S
H2445 C2474 0.950 . S
H2446 C2476 0.950 . S
H2447 C2477 0.950 . S
C2448 H2430 0.951 . S
C2448 C2449 1.366 . S
C2448 C2450 1.388 . S
C2449 C2448 1.366 . S
C2449 C2453 1.385 . S
C2450 H2431 0.951 . S
C2450 C2448 1.388 . S
C2450 C2451 1.366 . S
C2451 C2450 1.366 . S
C2451 C2452 1.414 . S
C2451 C2454 1.499 . S
C2452 H2432 0.950 . S
C2452 C2451 1.414 . S
C2452 C2453 1.374 . S
C2453 H2433 0.950 . S
C2453 C2449 1.385 . S
C2453 C2452 1.374 . S
C2454 C2451 1.499 . S
C2454 C2455 1.373 . S
C2454 C2456 1.389 . S
C2455 H2434 0.950 . S
C2455 C2454 1.373 . S
C2455 C2471 1.377 . S
C2456 C2454 1.389 . S
C2456 C2457 1.524 . S
C2456 C2470 1.377 . S
C2457 C2456 1.524 . S
C2457 C2458 1.397 . S
C2457 C2462 1.363 . S
C2458 H2435 0.950 . S
C2458 C2457 1.397 . S
C2458 C2459 1.334 . S
C2459 H2436 0.950 . S
C2459 C2458 1.334 . S
C2459 C2460 1.287 . S
C2460 C2459 1.287 . S
C2460 C2461 1.524 . S
C2460 H2479 0.913 . S
C2461 H2437 0.950 . S
C2461 C2460 1.524 . S
C2461 C2462 1.415 . S
C2462 H2438 0.950 . S
C2462 C2457 1.363 . S
C2462 C2461 1.415 . S
C2463 H2439 0.951 . S
C2463 C2464 1.366 . S
C2463 C2465 1.388 . S
C2464 C2463 1.366 . S
C2464 C2468 1.385 . S
C2465 H2440 0.951 . S
C2465 C2463 1.388 . S
C2465 C2466 1.366 . S
C2466 C2465 1.366 . S
C2466 C2467 1.414 . S
C2466 C2469 1.499 . S
C2467 H2441 0.950 . S
C2467 C2466 1.414 . S
C2467 C2468 1.374 . S
C2468 H2442 0.950 . S
C2468 C2464 1.385 . S
C2468 C2467 1.374 . S
C2469 C2466 1.499 . S
C2469 C2470 1.373 . S
C2469 C2471 1.389 . S
C2470 H2443 0.950 . S
C2470 C2456 1.377 . S
C2470 C2469 1.373 . S
C2471 C2455 1.377 . S
C2471 C2469 1.389 . S
C2471 C2472 1.524 . S
C2472 C2471 1.524 . S
C2472 C2473 1.397 . S
C2472 C2477 1.363 . S
C2473 H2444 0.950 . S
C2473 C2472 1.397 . S
C2473 C2474 1.334 . S
C2474 H2445 0.950 . S
C2474 C2473 1.334 . S
C2474 C2475 1.287 . S
C2475 C2474 1.287 . S
C2475 C2476 1.524 . S
C2475 H2478 0.999 . S
C2476 H2446 0.950 . S
C2476 C2475 1.524 . S
C2476 C2477 1.415 . S
C2477 H2447 0.950 . S
C2477 C2472 1.363 . S
C2477 C2476 1.415 . S
H2478 C2475 0.999 . S
H2479 C2460 0.913 . S
H2480 C2498 0.951 . S
H2481 C2500 0.951 . S
H2482 C2502 0.950 . S
H2483 C2503 0.950 . S
H2484 C2505 0.950 . S
H2485 C2508 0.950 . S
H2486 C2509 0.950 . S
H2487 C2511 0.950 . S
H2488 C2512 0.950 . S
H2489 C2513 0.936 1_565 S
H2490 C2515 0.951 . S
H2491 C2517 0.950 . S
H2492 C2518 0.950 . S
H2493 C2520 0.950 . S
H2494 C2523 0.950 . S
H2495 C2524 0.950 . S
H2496 C2526 0.950 . S
H2497 C2527 0.950 . S
C2498 H2480 0.951 . S
C2498 C2499 1.366 . S
C2498 C2500 1.388 . S
C2499 C2498 1.366 . S
C2499 C2503 1.385 . S
C2500 H2481 0.951 . S
C2500 C2498 1.388 . S
C2500 C2501 1.366 . S
C2501 C2500 1.366 . S
C2501 C2502 1.414 . S
C2501 C2504 1.499 . S
C2502 H2482 0.950 . S
C2502 C2501 1.414 . S
C2502 C2503 1.374 . S
C2503 H2483 0.950 . S
C2503 C2499 1.385 . S
C2503 C2502 1.374 . S
C2504 C2501 1.499 . S
C2504 C2505 1.373 . S
C2504 C2506 1.389 1_565 S
C2505 H2484 0.950 . S
C2505 C2504 1.373 . S
C2505 C2521 1.377 . S
C2506 C2504 1.389 1_545 S
C2506 C2507 1.524 . S
C2506 C2520 1.377 . S
C2507 C2506 1.524 . S
C2507 C2508 1.397 . S
C2507 C2512 1.363 . S
C2508 H2485 0.950 . S
C2508 C2507 1.397 . S
C2508 C2509 1.334 . S
C2509 H2486 0.950 . S
C2509 C2508 1.334 . S
C2509 C2510 1.287 . S
C2510 C2509 1.287 . S
C2510 C2511 1.524 . S
C2510 H2529 0.913 . S
C2511 H2487 0.950 . S
C2511 C2510 1.524 . S
C2511 C2512 1.415 . S
C2512 H2488 0.950 . S
C2512 C2507 1.363 . S
C2512 C2511 1.415 . S
C2513 H2489 0.936 1_545 S
C2513 C2514 1.406 . S
C2513 C2515 1.364 1_545 S
C2514 C2513 1.406 . S
C2514 C2518 1.385 . S
C2515 H2490 0.951 . S
C2515 C2513 1.364 1_565 S
C2515 C2516 1.347 1_565 S
C2516 C2515 1.347 1_545 S
C2516 C2517 1.468 . S
C2516 C2519 1.469 1_545 S
C2517 H2491 0.950 . S
C2517 C2516 1.468 . S
C2517 C2518 1.374 . S
C2518 H2492 0.950 . S
C2518 C2514 1.385 . S
C2518 C2517 1.374 . S
C2519 C2516 1.469 1_565 S
C2519 C2520 1.373 1_565 S
C2519 C2521 1.389 . S
C2520 H2493 0.950 . S
C2520 C2506 1.377 . S
C2520 C2519 1.373 1_545 S
C2521 C2505 1.377 . S
C2521 C2519 1.389 . S
C2521 C2522 1.524 . S
C2522 C2521 1.524 . S
C2522 C2523 1.397 1_554 S
C2522 C2527 1.363 . S
C2523 H2494 0.950 . S
C2523 C2522 1.397 1_556 S
C2523 C2524 1.334 . S
C2524 H2495 0.950 . S
C2524 C2523 1.334 . S
C2524 C2525 1.322 . S
C2525 C2524 1.322 . S
C2525 C2526 1.480 1_556 S
C2525 H2528 1.004 . S
C2526 H2496 0.950 . S
C2526 C2525 1.480 1_554 S
C2526 C2527 1.415 . S
C2527 H2497 0.950 . S
C2527 C2522 1.363 . S
C2527 C2526 1.415 . S
H2528 C2525 1.004 . S
H2529 C2510 0.913 . S
H2530 C2548 0.951 . S
H2531 C2550 0.951 . S
H2532 C2552 0.950 . S
H2533 C2553 0.950 . S
H2534 C2555 0.950 . S
H2535 C2558 0.950 . S
H2536 C2559 0.950 . S
H2537 C2561 0.950 . S
H2538 C2562 0.950 . S
H2539 C2563 0.951 . S
H2540 C2565 0.951 . S
H2541 C2567 0.950 . S
H2542 C2568 0.950 . S
H2543 C2570 0.950 . S
H2544 C2573 0.950 . S
H2545 C2574 0.950 . S
H2546 C2576 0.950 . S
H2547 C2577 0.950 . S
C2548 H2530 0.951 . S
C2548 C2549 1.366 . S
C2548 C2550 1.388 . S
C2549 C2548 1.366 . S
C2549 C2553 1.385 1_556 S
C2550 H2531 0.951 . S
C2550 C2548 1.388 . S
C2550 C2551 1.366 . S
C2551 C2550 1.366 . S
C2551 C2552 1.414 1_556 S
C2551 C2554 1.506 . S
C2552 H2532 0.950 . S
C2552 C2551 1.414 1_554 S
C2552 C2553 1.374 . S
C2553 H2533 0.950 . S
C2553 C2549 1.385 1_554 S
C2553 C2552 1.374 . S
C2554 C2551 1.506 . S
C2554 C2555 1.340 1_556 S
C2554 C2556 1.415 . S
C2555 H2534 0.950 . S
C2555 C2554 1.340 1_554 S
C2555 C2571 1.377 . S
C2556 C2554 1.415 . S
C2556 C2557 1.524 . S
C2556 C2570 1.377 . S
C2557 C2556 1.524 . S
C2557 C2558 1.397 . S
C2557 C2562 1.363 . S
C2558 H2535 0.950 . S
C2558 C2557 1.397 . S
C2558 C2559 1.334 . S
C2559 H2536 0.950 . S
C2559 C2558 1.334 . S
C2559 C2560 1.287 . S
C2560 C2559 1.287 . S
C2560 C2561 1.524 . S
C2560 H2579 0.913 . S
C2561 H2537 0.950 . S
C2561 C2560 1.524 . S
C2561 C2562 1.415 . S
C2562 H2538 0.950 . S
C2562 C2557 1.363 . S
C2562 C2561 1.415 . S
C2563 H2539 0.951 . S
C2563 C2564 1.366 . S
C2563 C2565 1.388 . S
C2564 C2563 1.366 . S
C2564 C2568 1.385 1_554 S
C2565 H2540 0.951 . S
C2565 C2563 1.388 . S
C2565 C2566 1.366 . S
C2566 C2565 1.366 . S
C2566 C2567 1.414 1_554 S
C2566 C2569 1.499 . S
C2567 H2541 0.950 . S
C2567 C2566 1.414 1_556 S
C2567 C2568 1.374 . S
C2568 H2542 0.950 . S
C2568 C2564 1.385 1_556 S
C2568 C2567 1.374 . S
C2569 C2566 1.499 . S
C2569 C2570 1.373 1_554 S
C2569 C2571 1.389 . S
C2570 H2543 0.950 . S
C2570 C2556 1.377 . S
C2570 C2569 1.373 1_556 S
C2571 C2555 1.377 . S
C2571 C2569 1.389 . S
C2571 C2572 1.524 . S
C2572 C2571 1.524 . S
C2572 C2573 1.397 . S
C2572 C2577 1.363 . S
C2573 H2544 0.950 . S
C2573 C2572 1.397 . S
C2573 C2574 1.334 . S
C2574 H2545 0.950 . S
C2574 C2573 1.334 . S
C2574 C2575 1.287 . S
C2575 C2574 1.287 . S
C2575 C2576 1.524 . S
C2575 H2578 0.999 . S
C2576 H2546 0.950 . S
C2576 C2575 1.524 . S
C2576 C2577 1.415 . S
C2577 H2547 0.950 . S
C2577 C2572 1.363 . S
C2577 C2576 1.415 . S
H2578 C2575 0.999 . S
H2579 C2560 0.913 . S
H2580 C2598 0.951 . S
H2581 C2600 0.951 . S
H2582 C2602 0.950 . S
H2583 C2603 0.950 . S
H2584 C2605 0.950 . S
H2585 C2608 0.950 . S
H2586 C2609 0.950 . S
H2587 C2611 0.950 . S
H2588 C2612 0.950 . S
H2589 C2613 0.951 . S
H2590 C2615 0.951 . S
H2591 C2617 0.950 . S
H2592 C2618 0.950 . S
H2593 C2620 0.950 . S
H2594 C2623 0.950 . S
H2595 C2624 0.950 . S
H2596 C2626 0.950 . S
H2597 C2627 0.950 . S
C2598 H2580 0.951 . S
C2598 C2599 1.366 . S
C2598 C2600 1.388 . S
C2599 C2598 1.366 . S
C2599 C2603 1.385 . S
C2600 H2581 0.951 . S
C2600 C2598 1.388 . S
C2600 C2601 1.366 . S
C2601 C2600 1.366 . S
C2601 C2602 1.414 . S
C2601 C2604 1.499 . S
C2602 H2582 0.950 . S
C2602 C2601 1.414 . S
C2602 C2603 1.374 . S
C2603 H2583 0.950 . S
C2603 C2599 1.385 . S
C2603 C2602 1.374 . S
C2604 C2601 1.499 . S
C2604 C2605 1.373 . S
C2604 C2606 1.389 . S
C2605 H2584 0.950 . S
C2605 C2604 1.373 . S
C2605 C2621 1.377 . S
C2606 C2604 1.389 . S
C2606 C2607 1.524 . S
C2606 C2620 1.377 . S
C2607 C2606 1.524 . S
C2607 C2608 1.397 . S
C2607 C2612 1.363 . S
C2608 H2585 0.950 . S
C2608 C2607 1.397 . S
C2608 C2609 1.334 . S
C2609 H2586 0.950 . S
C2609 C2608 1.334 . S
C2609 C2610 1.287 . S
C2610 C2609 1.287 . S
C2610 C2611 1.524 . S
C2610 H2629 0.913 . S
C2611 H2587 0.950 . S
C2611 C2610 1.524 . S
C2611 C2612 1.415 . S
C2612 H2588 0.950 . S
C2612 C2607 1.363 . S
C2612 C2611 1.415 . S
C2613 H2589 0.951 . S
C2613 C2614 1.366 . S
C2613 C2615 1.388 . S
C2614 C2613 1.366 . S
C2614 C2618 1.385 . S
C2615 H2590 0.951 . S
C2615 C2613 1.388 . S
C2615 C2616 1.366 . S
C2616 C2615 1.366 . S
C2616 C2617 1.414 . S
C2616 C2619 1.499 . S
C2617 H2591 0.950 . S
C2617 C2616 1.414 . S
C2617 C2618 1.374 . S
C2618 H2592 0.950 . S
C2618 C2614 1.385 . S
C2618 C2617 1.374 . S
C2619 C2616 1.499 . S
C2619 C2620 1.373 . S
C2619 C2621 1.389 . S
C2620 H2593 0.950 . S
C2620 C2606 1.377 . S
C2620 C2619 1.373 . S
C2621 C2605 1.377 . S
C2621 C2619 1.389 . S
C2621 C2622 1.524 . S
C2622 C2621 1.524 . S
C2622 C2623 1.397 . S
C2622 C2627 1.363 . S
C2623 H2594 0.950 . S
C2623 C2622 1.397 . S
C2623 C2624 1.334 . S
C2624 H2595 0.950 . S
C2624 C2623 1.334 . S
C2624 C2625 1.287 . S
C2625 C2624 1.287 . S
C2625 C2626 1.524 . S
C2625 H2628 0.999 . S
C2626 H2596 0.950 . S
C2626 C2625 1.524 . S
C2626 C2627 1.415 . S
C2627 H2597 0.950 . S
C2627 C2622 1.363 . S
C2627 C2626 1.415 . S
H2628 C2625 0.999 . S
H2629 C2610 0.913 . S
H2630 C2648 0.951 . S
H2631 C2650 0.951 . S
H2632 C2652 0.950 . S
H2633 C2653 0.950 . S
H2634 C2655 0.950 . S
H2635 C2658 0.950 . S
H2636 C2659 0.950 . S
H2637 C2661 0.950 . S
H2638 C2662 0.950 . S
H2639 C2663 0.946 1_455 S
H2640 C2665 0.951 . S
H2641 C2667 0.950 . S
H2642 C2668 0.950 . S
H2643 C2670 0.950 . S
H2644 C2673 0.950 . S
H2645 C2674 0.950 . S
H2646 C2676 0.950 . S
H2647 C2677 0.950 . S
C2648 H2630 0.951 . S
C2648 C2649 1.366 . S
C2648 C2650 1.388 . S
C2649 C2648 1.366 . S
C2649 C2653 1.385 . S
C2650 H2631 0.951 . S
C2650 C2648 1.388 . S
C2650 C2651 1.366 . S
C2651 C2650 1.366 . S
C2651 C2652 1.414 . S
C2651 C2654 1.499 . S
C2652 H2632 0.950 . S
C2652 C2651 1.414 . S
C2652 C2653 1.374 . S
C2653 H2633 0.950 . S
C2653 C2649 1.385 . S
C2653 C2652 1.374 . S
C2654 C2651 1.499 . S
C2654 C2655 1.373 . S
C2654 C2656 1.389 . S
C2655 H2634 0.950 . S
C2655 C2654 1.373 . S
C2655 C2671 1.377 . S
C2656 C2654 1.389 . S
C2656 C2657 1.524 . S
C2656 C2670 1.377 . S
C2657 C2656 1.524 . S
C2657 C2658 1.397 . S
C2657 C2662 1.363 . S
C2658 H2635 0.950 . S
C2658 C2657 1.397 . S
C2658 C2659 1.334 . S
C2659 H2636 0.950 . S
C2659 C2658 1.334 . S
C2659 C2660 1.287 . S
C2660 C2659 1.287 . S
C2660 C2661 1.524 . S
C2660 H2679 0.913 . S
C2661 H2637 0.950 . S
C2661 C2660 1.524 . S
C2661 C2662 1.415 . S
C2662 H2638 0.950 . S
C2662 C2657 1.363 . S
C2662 C2661 1.415 . S
C2663 H2639 0.946 1_655 S
C2663 C2664 1.332 1_655 S
C2663 C2665 1.428 . S
C2664 C2663 1.332 1_455 S
C2664 C2668 1.385 . S
C2665 H2640 0.951 . S
C2665 C2663 1.428 . S
C2665 C2666 1.366 . S
C2666 C2665 1.366 . S
C2666 C2667 1.414 . S
C2666 C2669 1.499 . S
C2667 H2641 0.950 . S
C2667 C2666 1.414 . S
C2667 C2668 1.374 1_655 S
C2668 H2642 0.950 . S
C2668 C2664 1.385 . S
C2668 C2667 1.374 1_455 S
C2669 C2666 1.499 . S
C2669 C2670 1.373 . S
C2669 C2671 1.389 . S
C2670 H2643 0.950 . S
C2670 C2656 1.377 . S
C2670 C2669 1.373 . S
C2671 C2655 1.377 . S
C2671 C2669 1.389 . S
C2671 C2672 1.524 . S
C2672 C2671 1.524 . S
C2672 C2673 1.397 . S
C2672 C2677 1.363 . S
C2673 H2644 0.950 . S
C2673 C2672 1.397 . S
C2673 C2674 1.334 . S
C2674 H2645 0.950 . S
C2674 C2673 1.334 . S
C2674 C2675 1.287 . S
C2675 C2674 1.287 . S
C2675 C2676 1.524 . S
C2675 H2678 0.999 . S
C2676 H2646 0.950 . S
C2676 C2675 1.524 . S
C2676 C2677 1.415 . S
C2677 H2647 0.950 . S
C2677 C2672 1.363 . S
C2677 C2676 1.415 . S
H2678 C2675 0.999 . S
H2679 C2660 0.913 . S
H2680 C2698 0.951 . S
H2681 C2700 0.951 . S
H2682 C2702 0.950 . S
H2683 C2703 0.950 . S
H2684 C2705 0.950 . S
H2685 C2708 0.950 . S
H2686 C2709 0.950 . S
H2687 C2711 0.950 . S
H2688 C2712 0.950 . S
H2689 C2713 0.951 . S
H2690 C2715 0.951 . S
H2691 C2717 0.950 . S
H2692 C2718 0.950 . S
H2693 C2720 0.950 . S
H2694 C2723 0.950 . S
H2695 C2724 0.950 . S
H2696 C2726 0.950 . S
H2697 C2727 0.950 . S
C2698 H2680 0.951 . S
C2698 C2699 1.366 . S
C2698 C2700 1.388 . S
C2699 C2698 1.366 . S
C2699 C2703 1.385 . S
C2700 H2681 0.951 . S
C2700 C2698 1.388 . S
C2700 C2701 1.366 . S
C2701 C2700 1.366 . S
C2701 C2702 1.414 . S
C2701 C2704 1.499 . S
C2702 H2682 0.950 . S
C2702 C2701 1.414 . S
C2702 C2703 1.374 . S
C2703 H2683 0.950 . S
C2703 C2699 1.385 . S
C2703 C2702 1.374 . S
C2704 C2701 1.499 . S
C2704 C2705 1.373 . S
C2704 C2706 1.389 . S
C2705 H2684 0.950 . S
C2705 C2704 1.373 . S
C2705 C2721 1.377 . S
C2706 C2704 1.389 . S
C2706 C2707 1.524 . S
C2706 C2720 1.377 . S
C2707 C2706 1.524 . S
C2707 C2708 1.397 . S
C2707 C2712 1.363 . S
C2708 H2685 0.950 . S
C2708 C2707 1.397 . S
C2708 C2709 1.334 . S
C2709 H2686 0.950 . S
C2709 C2708 1.334 . S
C2709 C2710 1.287 . S
C2710 C2709 1.287 . S
C2710 C2711 1.524 . S
C2710 H2729 0.913 . S
C2711 H2687 0.950 . S
C2711 C2710 1.524 . S
C2711 C2712 1.415 . S
C2712 H2688 0.950 . S
C2712 C2707 1.363 . S
C2712 C2711 1.415 . S
C2713 H2689 0.951 . S
C2713 C2714 1.366 . S
C2713 C2715 1.388 . S
C2714 C2713 1.366 . S
C2714 C2718 1.385 . S
C2715 H2690 0.951 . S
C2715 C2713 1.388 . S
C2715 C2716 1.366 . S
C2716 C2715 1.366 . S
C2716 C2717 1.414 . S
C2716 C2719 1.499 . S
C2717 H2691 0.950 . S
C2717 C2716 1.414 . S
C2717 C2718 1.374 . S
C2718 H2692 0.950 . S
C2718 C2714 1.385 . S
C2718 C2717 1.374 . S
C2719 C2716 1.499 . S
C2719 C2720 1.373 . S
C2719 C2721 1.389 . S
C2720 H2693 0.950 . S
C2720 C2706 1.377 . S
C2720 C2719 1.373 . S
C2721 C2705 1.377 . S
C2721 C2719 1.389 . S
C2721 C2722 1.524 . S
C2722 C2721 1.524 . S
C2722 C2723 1.397 . S
C2722 C2727 1.363 . S
C2723 H2694 0.950 . S
C2723 C2722 1.397 . S
C2723 C2724 1.334 . S
C2724 H2695 0.950 . S
C2724 C2723 1.334 . S
C2724 C2725 1.287 . S
C2725 C2724 1.287 . S
C2725 C2726 1.524 . S
C2725 H2728 0.999 . S
C2726 H2696 0.950 . S
C2726 C2725 1.524 . S
C2726 C2727 1.415 . S
C2727 H2697 0.950 . S
C2727 C2722 1.363 . S
C2727 C2726 1.415 . S
H2728 C2725 0.999 . S
H2729 C2710 0.913 . S
H2730 C2748 0.951 . S
H2731 C2750 0.951 . S
H2732 C2752 0.950 . S
H2733 C2753 0.950 . S
H2734 C2755 0.950 . S
H2735 C2758 0.950 . S
H2736 C2759 0.950 . S
H2737 C2761 0.950 . S
H2738 C2762 0.950 . S
H2739 C2763 0.951 . S
H2740 C2765 0.951 . S
H2741 C2767 0.950 . S
H2742 C2768 0.950 . S
H2743 C2770 0.950 . S
H2744 C2773 0.950 . S
H2745 C2774 0.950 . S
H2746 C2776 0.950 . S
H2747 C2777 0.950 . S
C2748 H2730 0.951 . S
C2748 C2749 1.366 . S
C2748 C2750 1.388 . S
C2749 C2748 1.366 . S
C2749 C2753 1.385 . S
C2750 H2731 0.951 . S
C2750 C2748 1.388 . S
C2750 C2751 1.366 . S
C2751 C2750 1.366 . S
C2751 C2752 1.414 . S
C2751 C2754 1.499 . S
C2752 H2732 0.950 . S
C2752 C2751 1.414 . S
C2752 C2753 1.374 . S
C2753 H2733 0.950 . S
C2753 C2749 1.385 . S
C2753 C2752 1.374 . S
C2754 C2751 1.499 . S
C2754 C2755 1.373 . S
C2754 C2756 1.389 . S
C2755 H2734 0.950 . S
C2755 C2754 1.373 . S
C2755 C2771 1.377 . S
C2756 C2754 1.389 . S
C2756 C2757 1.524 . S
C2756 C2770 1.377 . S
C2757 C2756 1.524 . S
C2757 C2758 1.397 . S
C2757 C2762 1.363 . S
C2758 H2735 0.950 . S
C2758 C2757 1.397 . S
C2758 C2759 1.334 . S
C2759 H2736 0.950 . S
C2759 C2758 1.334 . S
C2759 C2760 1.287 . S
C2760 C2759 1.287 . S
C2760 C2761 1.524 . S
C2760 H2779 0.913 . S
C2761 H2737 0.950 . S
C2761 C2760 1.524 . S
C2761 C2762 1.415 . S
C2762 H2738 0.950 . S
C2762 C2757 1.363 . S
C2762 C2761 1.415 . S
C2763 H2739 0.951 . S
C2763 C2764 1.366 . S
C2763 C2765 1.388 . S
C2764 C2763 1.366 . S
C2764 C2768 1.385 . S
C2765 H2740 0.951 . S
C2765 C2763 1.388 . S
C2765 C2766 1.366 . S
C2766 C2765 1.366 . S
C2766 C2767 1.414 . S
C2766 C2769 1.499 . S
C2767 H2741 0.950 . S
C2767 C2766 1.414 . S
C2767 C2768 1.374 . S
C2768 H2742 0.950 . S
C2768 C2764 1.385 . S
C2768 C2767 1.374 . S
C2769 C2766 1.499 . S
C2769 C2770 1.373 . S
C2769 C2771 1.389 . S
C2770 H2743 0.950 . S
C2770 C2756 1.377 . S
C2770 C2769 1.373 . S
C2771 C2755 1.377 . S
C2771 C2769 1.389 . S
C2771 C2772 1.524 . S
C2772 C2771 1.524 . S
C2772 C2773 1.397 . S
C2772 C2777 1.363 . S
C2773 H2744 0.950 . S
C2773 C2772 1.397 . S
C2773 C2774 1.334 . S
C2774 H2745 0.950 . S
C2774 C2773 1.334 . S
C2774 C2775 1.287 . S
C2775 C2774 1.287 . S
C2775 C2776 1.524 . S
C2775 H2778 0.999 . S
C2776 H2746 0.950 . S
C2776 C2775 1.524 . S
C2776 C2777 1.415 . S
C2777 H2747 0.950 . S
C2777 C2772 1.363 . S
C2777 C2776 1.415 . S
H2778 C2775 0.999 . S
H2779 C2760 0.913 . S
H2780 C2798 0.951 . S
H2781 C2800 0.951 . S
H2782 C2802 0.950 . S
H2783 C2803 0.950 . S
H2784 C2805 0.950 . S
H2785 C2808 0.950 . S
H2786 C2809 0.950 . S
H2787 C2811 0.950 . S
H2788 C2812 0.950 . S
H2789 C2813 0.951 . S
H2790 C2815 0.951 . S
H2791 C2817 0.950 . S
H2792 C2818 0.950 . S
H2793 C2820 0.950 . S
H2794 C2823 0.950 . S
H2795 C2824 0.950 . S
H2796 C2826 0.950 . S
H2797 C2827 0.950 . S
C2798 H2780 0.951 . S
C2798 C2799 1.366 . S
C2798 C2800 1.388 . S
C2799 C2798 1.366 . S
C2799 C2803 1.385 . S
C2800 H2781 0.951 . S
C2800 C2798 1.388 . S
C2800 C2801 1.366 . S
C2801 C2800 1.366 . S
C2801 C2802 1.414 . S
C2801 C2804 1.499 . S
C2802 H2782 0.950 . S
C2802 C2801 1.414 . S
C2802 C2803 1.374 . S
C2803 H2783 0.950 . S
C2803 C2799 1.385 . S
C2803 C2802 1.374 . S
C2804 C2801 1.499 . S
C2804 C2805 1.373 . S
C2804 C2806 1.389 . S
C2805 H2784 0.950 . S
C2805 C2804 1.373 . S
C2805 C2821 1.377 . S
C2806 C2804 1.389 . S
C2806 C2807 1.524 . S
C2806 C2820 1.377 . S
C2807 C2806 1.524 . S
C2807 C2808 1.397 . S
C2807 C2812 1.363 . S
C2808 H2785 0.950 . S
C2808 C2807 1.397 . S
C2808 C2809 1.334 . S
C2809 H2786 0.950 . S
C2809 C2808 1.334 . S
C2809 C2810 1.287 . S
C2810 C2809 1.287 . S
C2810 C2811 1.524 . S
C2810 H2829 0.913 . S
C2811 H2787 0.950 . S
C2811 C2810 1.524 . S
C2811 C2812 1.415 . S
C2812 H2788 0.950 . S
C2812 C2807 1.363 . S
C2812 C2811 1.415 . S
C2813 H2789 0.951 . S
C2813 C2814 1.366 . S
C2813 C2815 1.388 . S
C2814 C2813 1.366 . S
C2814 C2818 1.385 . S
C2815 H2790 0.951 . S
C2815 C2813 1.388 . S
C2815 C2816 1.366 . S
C2816 C2815 1.366 . S
C2816 C2817 1.414 . S
C2816 C2819 1.499 . S
C2817 H2791 0.950 . S
C2817 C2816 1.414 . S
C2817 C2818 1.374 . S
C2818 H2792 0.950 . S
C2818 C2814 1.385 . S
C2818 C2817 1.374 . S
C2819 C2816 1.499 . S
C2819 C2820 1.373 . S
C2819 C2821 1.389 . S
C2820 H2793 0.950 . S
C2820 C2806 1.377 . S
C2820 C2819 1.373 . S
C2821 C2805 1.377 . S
C2821 C2819 1.389 . S
C2821 C2822 1.524 . S
C2822 C2821 1.524 . S
C2822 C2823 1.397 . S
C2822 C2827 1.363 . S
C2823 H2794 0.950 . S
C2823 C2822 1.397 . S
C2823 C2824 1.334 . S
C2824 H2795 0.950 . S
C2824 C2823 1.334 . S
C2824 C2825 1.287 . S
C2825 C2824 1.287 . S
C2825 C2826 1.524 . S
C2825 H2828 0.999 . S
C2826 H2796 0.950 . S
C2826 C2825 1.524 . S
C2826 C2827 1.415 . S
C2827 H2797 0.950 . S
C2827 C2822 1.363 . S
C2827 C2826 1.415 . S
H2828 C2825 0.999 . S
H2829 C2810 0.913 . S
H2830 C2848 0.951 . S
H2831 C2850 0.951 . S
H2832 C2852 0.950 . S
H2833 C2853 0.950 . S
H2834 C2855 0.950 . S
H2835 C2858 0.950 . S
H2836 C2859 0.950 . S
H2837 C2861 0.950 . S
H2838 C2862 0.950 . S
H2839 C2863 0.951 . S
H2840 C2865 0.951 . S
H2841 C2867 0.950 . S
H2842 C2868 0.950 . S
H2843 C2870 0.950 . S
H2844 C2873 0.950 . S
H2845 C2874 0.950 . S
H2846 C2876 0.950 . S
H2847 C2877 0.950 . S
C2848 H2830 0.951 . S
C2848 C2849 1.366 . S
C2848 C2850 1.388 . S
C2849 C2848 1.366 . S
C2849 C2853 1.385 . S
C2850 H2831 0.951 . S
C2850 C2848 1.388 . S
C2850 C2851 1.366 . S
C2851 C2850 1.366 . S
C2851 C2852 1.414 . S
C2851 C2854 1.499 . S
C2852 H2832 0.950 . S
C2852 C2851 1.414 . S
C2852 C2853 1.374 . S
C2853 H2833 0.950 . S
C2853 C2849 1.385 . S
C2853 C2852 1.374 . S
C2854 C2851 1.499 . S
C2854 C2855 1.373 . S
C2854 C2856 1.389 . S
C2855 H2834 0.950 . S
C2855 C2854 1.373 . S
C2855 C2871 1.377 . S
C2856 C2854 1.389 . S
C2856 C2857 1.524 . S
C2856 C2870 1.377 . S
C2857 C2856 1.524 . S
C2857 C2858 1.397 . S
C2857 C2862 1.363 . S
C2858 H2835 0.950 . S
C2858 C2857 1.397 . S
C2858 C2859 1.334 . S
C2859 H2836 0.950 . S
C2859 C2858 1.334 . S
C2859 C2860 1.287 . S
C2860 C2859 1.287 . S
C2860 C2861 1.524 . S
C2860 H2879 0.913 . S
C2861 H2837 0.950 . S
C2861 C2860 1.524 . S
C2861 C2862 1.415 . S
C2862 H2838 0.950 . S
C2862 C2857 1.363 . S
C2862 C2861 1.415 . S
C2863 H2839 0.951 . S
C2863 C2864 1.366 . S
C2863 C2865 1.388 . S
C2864 C2863 1.366 . S
C2864 C2868 1.385 . S
C2865 H2840 0.951 . S
C2865 C2863 1.388 . S
C2865 C2866 1.366 . S
C2866 C2865 1.366 . S
C2866 C2867 1.414 . S
C2866 C2869 1.499 . S
C2867 H2841 0.950 . S
C2867 C2866 1.414 . S
C2867 C2868 1.374 . S
C2868 H2842 0.950 . S
C2868 C2864 1.385 . S
C2868 C2867 1.374 . S
C2869 C2866 1.499 . S
C2869 C2870 1.373 . S
C2869 C2871 1.389 . S
C2870 H2843 0.950 . S
C2870 C2856 1.377 . S
C2870 C2869 1.373 . S
C2871 C2855 1.377 . S
C2871 C2869 1.389 . S
C2871 C2872 1.524 . S
C2872 C2871 1.524 . S
C2872 C2873 1.397 . S
C2872 C2877 1.363 . S
C2873 H2844 0.950 . S
C2873 C2872 1.397 . S
C2873 C2874 1.334 . S
C2874 H2845 0.950 . S
C2874 C2873 1.334 . S
C2874 C2875 1.287 . S
C2875 C2874 1.287 . S
C2875 C2876 1.524 . S
C2875 H2878 0.999 . S
C2876 H2846 0.950 . S
C2876 C2875 1.524 . S
C2876 C2877 1.415 . S
C2877 H2847 0.950 . S
C2877 C2872 1.363 . S
C2877 C2876 1.415 . S
H2878 C2875 0.999 . S
H2879 C2860 0.913 . S
H2880 C2898 0.951 . S
H2881 C2900 0.951 . S
H2882 C2902 0.950 . S
H2883 C2903 0.950 . S
H2884 C2905 0.950 . S
H2885 C2908 0.950 . S
H2886 C2909 0.950 . S
H2887 C2911 0.950 . S
H2888 C2912 0.950 . S
H2889 C2913 0.951 . S
H2890 C2915 0.951 . S
H2891 C2917 0.950 . S
H2892 C2918 0.950 . S
H2893 C2920 0.950 . S
H2894 C2923 0.967 . S
H2895 C2924 0.950 . S
H2896 C2926 0.950 1_655 S
H2897 C2927 0.950 . S
C2898 H2880 0.951 . S
C2898 C2899 1.366 . S
C2898 C2900 1.388 . S
C2899 C2898 1.366 . S
C2899 C2903 1.385 . S
C2900 H2881 0.951 . S
C2900 C2898 1.388 . S
C2900 C2901 1.366 . S
C2901 C2900 1.366 . S
C2901 C2902 1.414 . S
C2901 C2904 1.499 . S
C2902 H2882 0.950 . S
C2902 C2901 1.414 . S
C2902 C2903 1.374 . S
C2903 H2883 0.950 . S
C2903 C2899 1.385 . S
C2903 C2902 1.374 . S
C2904 C2901 1.499 . S
C2904 C2905 1.373 . S
C2904 C2906 1.389 . S
C2905 H2884 0.950 . S
C2905 C2904 1.373 . S
C2905 C2921 1.377 . S
C2906 C2904 1.389 . S
C2906 C2907 1.524 . S
C2906 C2920 1.377 . S
C2907 C2906 1.524 . S
C2907 C2908 1.397 . S
C2907 C2912 1.363 . S
C2908 H2885 0.950 . S
C2908 C2907 1.397 . S
C2908 C2909 1.334 . S
C2909 H2886 0.950 . S
C2909 C2908 1.334 . S
C2909 C2910 1.287 . S
C2910 C2909 1.287 . S
C2910 C2911 1.524 . S
C2910 H2929 0.913 . S
C2911 H2887 0.950 . S
C2911 C2910 1.524 . S
C2911 C2912 1.415 . S
C2912 H2888 0.950 . S
C2912 C2907 1.363 . S
C2912 C2911 1.415 . S
C2913 H2889 0.951 . S
C2913 C2914 1.366 . S
C2913 C2915 1.388 . S
C2914 C2913 1.366 . S
C2914 C2918 1.385 . S
C2915 H2890 0.951 . S
C2915 C2913 1.388 . S
C2915 C2916 1.366 . S
C2916 C2915 1.366 . S
C2916 C2917 1.414 . S
C2916 C2919 1.499 . S
C2917 H2891 0.950 . S
C2917 C2916 1.414 . S
C2917 C2918 1.374 . S
C2918 H2892 0.950 . S
C2918 C2914 1.385 . S
C2918 C2917 1.374 . S
C2919 C2916 1.499 . S
C2919 C2920 1.373 . S
C2919 C2921 1.389 . S
C2920 H2893 0.950 . S
C2920 C2906 1.377 . S
C2920 C2919 1.373 . S
C2921 C2905 1.377 . S
C2921 C2919 1.389 . S
C2921 C2922 1.524 . S
C2922 C2921 1.524 . S
C2922 C2923 1.397 . S
C2922 C2927 1.363 . S
C2923 H2894 0.967 . S
C2923 C2922 1.397 . S
C2923 C2924 1.334 1_554 S
C2924 H2895 0.950 . S
C2924 C2923 1.334 1_556 S
C2924 C2925 1.287 . S
C2925 C2924 1.287 . S
C2925 C2926 1.524 1_556 S
C2925 H2928 0.999 1_455 S
C2926 H2896 0.950 1_455 S
C2926 C2925 1.524 1_554 S
C2926 C2927 1.415 . S
C2927 H2897 0.950 . S
C2927 C2922 1.363 . S
C2927 C2926 1.415 . S
H2928 C2925 0.999 1_655 S
H2929 C2910 0.913 . S
H2930 C2948 0.951 . S
H2931 C2950 0.951 . S
H2932 C2952 0.950 . S
H2933 C2953 0.950 . S
H2934 C2955 0.950 . S
H2935 C2958 0.950 . S
H2936 C2959 0.950 . S
H2937 C2961 0.950 . S
H2938 C2962 0.950 . S
H2939 C2963 0.951 . S
H2940 C2965 0.951 . S
H2941 C2967 0.950 . S
H2942 C2968 0.950 . S
H2943 C2970 0.950 . S
H2944 C2973 0.950 . S
H2945 C2974 0.950 . S
H2946 C2976 0.950 . S
H2947 C2977 0.950 . S
C2948 H2930 0.951 . S
C2948 C2949 1.366 . S
C2948 C2950 1.388 . S
C2949 C2948 1.366 . S
C2949 C2953 1.385 . S
C2950 H2931 0.951 . S
C2950 C2948 1.388 . S
C2950 C2951 1.366 . S
C2951 C2950 1.366 . S
C2951 C2952 1.414 . S
C2951 C2954 1.499 . S
C2952 H2932 0.950 . S
C2952 C2951 1.414 . S
C2952 C2953 1.374 . S
C2953 H2933 0.950 . S
C2953 C2949 1.385 . S
C2953 C2952 1.374 . S
C2954 C2951 1.499 . S
C2954 C2955 1.373 . S
C2954 C2956 1.389 . S
C2955 H2934 0.950 . S
C2955 C2954 1.373 . S
C2955 C2971 1.377 . S
C2956 C2954 1.389 . S
C2956 C2957 1.524 . S
C2956 C2970 1.377 . S
C2957 C2956 1.524 . S
C2957 C2958 1.397 . S
C2957 C2962 1.363 . S
C2958 H2935 0.950 . S
C2958 C2957 1.397 . S
C2958 C2959 1.334 . S
C2959 H2936 0.950 . S
C2959 C2958 1.334 . S
C2959 C2960 1.287 . S
C2960 C2959 1.287 . S
C2960 C2961 1.524 . S
C2960 H2979 0.913 . S
C2961 H2937 0.950 . S
C2961 C2960 1.524 . S
C2961 C2962 1.415 . S
C2962 H2938 0.950 . S
C2962 C2957 1.363 . S
C2962 C2961 1.415 . S
C2963 H2939 0.951 . S
C2963 C2964 1.366 . S
C2963 C2965 1.388 . S
C2964 C2963 1.366 . S
C2964 C2968 1.385 . S
C2965 H2940 0.951 . S
C2965 C2963 1.388 . S
C2965 C2966 1.366 . S
C2966 C2965 1.366 . S
C2966 C2967 1.414 . S
C2966 C2969 1.499 . S
C2967 H2941 0.950 . S
C2967 C2966 1.414 . S
C2967 C2968 1.374 . S
C2968 H2942 0.950 . S
C2968 C2964 1.385 . S
C2968 C2967 1.374 . S
C2969 C2966 1.499 . S
C2969 C2970 1.373 . S
C2969 C2971 1.389 . S
C2970 H2943 0.950 . S
C2970 C2956 1.377 . S
C2970 C2969 1.373 . S
C2971 C2955 1.377 . S
C2971 C2969 1.389 . S
C2971 C2972 1.524 . S
C2972 C2971 1.524 . S
C2972 C2973 1.397 . S
C2972 C2977 1.363 . S
C2973 H2944 0.950 . S
C2973 C2972 1.397 . S
C2973 C2974 1.334 . S
C2974 H2945 0.950 . S
C2974 C2973 1.334 . S
C2974 C2975 1.287 . S
C2975 C2974 1.287 . S
C2975 C2976 1.524 . S
C2975 H2978 0.999 . S
C2976 H2946 0.950 . S
C2976 C2975 1.524 . S
C2976 C2977 1.415 . S
C2977 H2947 0.950 . S
C2977 C2972 1.363 . S
C2977 C2976 1.415 . S
H2978 C2975 0.999 . S
H2979 C2960 0.913 . S
H2980 C2998 0.951 . S
H2981 C3000 0.951 . S
H2982 C3002 0.950 . S
H2983 C3003 0.950 . S
H2984 C3005 0.950 . S
H2985 C3008 0.950 . S
H2986 C3009 0.950 . S
H2987 C3011 0.950 . S
H2988 C3012 0.950 . S
H2989 C3013 0.951 . S
H2990 C3015 0.951 . S
H2991 C3017 0.950 . S
H2992 C3018 0.950 . S
H2993 C3020 0.950 . S
H2994 C3023 0.950 . S
H2995 C3024 0.950 . S
H2996 C3026 0.950 . S
H2997 C3027 0.950 . S
C2998 H2980 0.951 . S
C2998 C2999 1.366 . S
C2998 C3000 1.388 . S
C2999 C2998 1.366 . S
C2999 C3003 1.385 . S
C3000 H2981 0.951 . S
C3000 C2998 1.388 . S
C3000 C3001 1.366 . S
C3001 C3000 1.366 . S
C3001 C3002 1.414 . S
C3001 C3004 1.499 . S
C3002 H2982 0.950 . S
C3002 C3001 1.414 . S
C3002 C3003 1.374 . S
C3003 H2983 0.950 . S
C3003 C2999 1.385 . S
C3003 C3002 1.374 . S
C3004 C3001 1.499 . S
C3004 C3005 1.373 . S
C3004 C3006 1.389 . S
C3005 H2984 0.950 . S
C3005 C3004 1.373 . S
C3005 C3021 1.377 . S
C3006 C3004 1.389 . S
C3006 C3007 1.524 . S
C3006 C3020 1.377 . S
C3007 C3006 1.524 . S
C3007 C3008 1.397 . S
C3007 C3012 1.363 . S
C3008 H2985 0.950 . S
C3008 C3007 1.397 . S
C3008 C3009 1.334 . S
C3009 H2986 0.950 . S
C3009 C3008 1.334 . S
C3009 C3010 1.287 . S
C3010 C3009 1.287 . S
C3010 C3011 1.524 . S
C3010 H3029 0.913 . S
C3011 H2987 0.950 . S
C3011 C3010 1.524 . S
C3011 C3012 1.415 . S
C3012 H2988 0.950 . S
C3012 C3007 1.363 . S
C3012 C3011 1.415 . S
C3013 H2989 0.951 . S
C3013 C3014 1.366 . S
C3013 C3015 1.388 . S
C3014 C3013 1.366 . S
C3014 C3018 1.385 . S
C3015 H2990 0.951 . S
C3015 C3013 1.388 . S
C3015 C3016 1.366 . S
C3016 C3015 1.366 . S
C3016 C3017 1.414 . S
C3016 C3019 1.499 . S
C3017 H2991 0.950 . S
C3017 C3016 1.414 . S
C3017 C3018 1.374 . S
C3018 H2992 0.950 . S
C3018 C3014 1.385 . S
C3018 C3017 1.374 . S
C3019 C3016 1.499 . S
C3019 C3020 1.373 . S
C3019 C3021 1.389 . S
C3020 H2993 0.950 . S
C3020 C3006 1.377 . S
C3020 C3019 1.373 . S
C3021 C3005 1.377 . S
C3021 C3019 1.389 . S
C3021 C3022 1.524 . S
C3022 C3021 1.524 . S
C3022 C3023 1.397 . S
C3022 C3027 1.363 . S
C3023 H2994 0.950 . S
C3023 C3022 1.397 . S
C3023 C3024 1.334 . S
C3024 H2995 0.950 . S
C3024 C3023 1.334 . S
C3024 C3025 1.287 . S
C3025 C3024 1.287 . S
C3025 C3026 1.524 . S
C3025 H3028 0.999 . S
C3026 H2996 0.950 . S
C3026 C3025 1.524 . S
C3026 C3027 1.415 . S
C3027 H2997 0.950 . S
C3027 C3022 1.363 . S
C3027 C3026 1.415 . S
H3028 C3025 0.999 . S
H3029 C3010 0.913 . S
H3030 C3048 0.951 . S
H3031 C3050 0.951 . S
H3032 C3052 0.950 . S
H3033 C3053 0.950 . S
H3034 C3055 0.950 . S
H3035 C3058 0.950 . S
H3036 C3059 0.950 . S
H3037 C3061 0.950 . S
H3038 C3062 0.950 . S
H3039 C3063 0.951 . S
H3040 C3065 0.951 . S
H3041 C3067 0.950 . S
H3042 C3068 0.950 . S
H3043 C3070 0.950 . S
H3044 C3073 0.950 . S
H3045 C3074 0.950 . S
H3046 C3076 0.950 . S
H3047 C3077 0.950 . S
C3048 H3030 0.951 . S
C3048 C3049 1.366 . S
C3048 C3050 1.388 . S
C3049 C3048 1.366 . S
C3049 C3053 1.385 . S
C3050 H3031 0.951 . S
C3050 C3048 1.388 . S
C3050 C3051 1.366 . S
C3051 C3050 1.366 . S
C3051 C3052 1.414 . S
C3051 C3054 1.499 . S
C3052 H3032 0.950 . S
C3052 C3051 1.414 . S
C3052 C3053 1.374 . S
C3053 H3033 0.950 . S
C3053 C3049 1.385 . S
C3053 C3052 1.374 . S
C3054 C3051 1.499 . S
C3054 C3055 1.373 . S
C3054 C3056 1.389 . S
C3055 H3034 0.950 . S
C3055 C3054 1.373 . S
C3055 C3071 1.377 . S
C3056 C3054 1.389 . S
C3056 C3057 1.524 . S
C3056 C3070 1.377 . S
C3057 C3056 1.524 . S
C3057 C3058 1.397 . S
C3057 C3062 1.363 . S
C3058 H3035 0.950 . S
C3058 C3057 1.397 . S
C3058 C3059 1.334 . S
C3059 H3036 0.950 . S
C3059 C3058 1.334 . S
C3059 C3060 1.287 . S
C3060 C3059 1.287 . S
C3060 C3061 1.524 . S
C3060 H3079 0.913 . S
C3061 H3037 0.950 . S
C3061 C3060 1.524 . S
C3061 C3062 1.415 . S
C3062 H3038 0.950 . S
C3062 C3057 1.363 . S
C3062 C3061 1.415 . S
C3063 H3039 0.951 . S
C3063 C3064 1.366 . S
C3063 C3065 1.388 . S
C3064 C3063 1.366 . S
C3064 C3068 1.385 . S
C3065 H3040 0.951 . S
C3065 C3063 1.388 . S
C3065 C3066 1.366 . S
C3066 C3065 1.366 . S
C3066 C3067 1.414 . S
C3066 C3069 1.499 . S
C3067 H3041 0.950 . S
C3067 C3066 1.414 . S
C3067 C3068 1.374 . S
C3068 H3042 0.950 . S
C3068 C3064 1.385 . S
C3068 C3067 1.374 . S
C3069 C3066 1.499 . S
C3069 C3070 1.373 . S
C3069 C3071 1.389 . S
C3070 H3043 0.950 . S
C3070 C3056 1.377 . S
C3070 C3069 1.373 . S
C3071 C3055 1.377 . S
C3071 C3069 1.389 . S
C3071 C3072 1.524 . S
C3072 C3071 1.524 . S
C3072 C3073 1.397 . S
C3072 C3077 1.363 . S
C3073 H3044 0.950 . S
C3073 C3072 1.397 . S
C3073 C3074 1.334 . S
C3074 H3045 0.950 . S
C3074 C3073 1.334 . S
C3074 C3075 1.287 . S
C3075 C3074 1.287 . S
C3075 C3076 1.524 . S
C3075 H3078 0.999 . S
C3076 H3046 0.950 . S
C3076 C3075 1.524 . S
C3076 C3077 1.415 . S
C3077 H3047 0.950 . S
C3077 C3072 1.363 . S
C3077 C3076 1.415 . S
H3078 C3075 0.999 . S
H3079 C3060 0.913 . S
H3080 C3098 0.951 . S
H3081 C3100 0.951 . S
H3082 C3102 0.950 . S
H3083 C3103 0.950 . S
H3084 C3105 0.950 . S
H3085 C3108 0.950 . S
H3086 C3109 0.950 . S
H3087 C3111 0.950 . S
H3088 C3112 0.950 . S
H3089 C3113 0.951 . S
H3090 C3115 0.951 . S
H3091 C3117 0.950 . S
H3092 C3118 0.950 . S
H3093 C3120 0.950 . S
H3094 C3123 0.950 . S
H3095 C3124 0.950 . S
H3096 C3126 0.918 1_655 S
H3097 C3127 0.950 . S
C3098 H3080 0.951 . S
C3098 C3099 1.366 . S
C3098 C3100 1.388 . S
C3099 C3098 1.366 . S
C3099 C3103 1.385 . S
C3100 H3081 0.951 . S
C3100 C3098 1.388 . S
C3100 C3101 1.366 . S
C3101 C3100 1.366 . S
C3101 C3102 1.414 . S
C3101 C3104 1.499 . S
C3102 H3082 0.950 . S
C3102 C3101 1.414 . S
C3102 C3103 1.374 . S
C3103 H3083 0.950 . S
C3103 C3099 1.385 . S
C3103 C3102 1.374 . S
C3104 C3101 1.499 . S
C3104 C3105 1.373 . S
C3104 C3106 1.389 . S
C3105 H3084 0.950 . S
C3105 C3104 1.373 . S
C3105 C3121 1.377 . S
C3106 C3104 1.389 . S
C3106 C3107 1.524 . S
C3106 C3120 1.377 . S
C3107 C3106 1.524 . S
C3107 C3108 1.397 . S
C3107 C3112 1.363 . S
C3108 H3085 0.950 . S
C3108 C3107 1.397 . S
C3108 C3109 1.334 . S
C3109 H3086 0.950 . S
C3109 C3108 1.334 . S
C3109 C3110 1.287 . S
C3110 C3109 1.287 . S
C3110 C3111 1.524 . S
C3110 H3129 0.913 . S
C3111 H3087 0.950 . S
C3111 C3110 1.524 . S
C3111 C3112 1.415 . S
C3112 H3088 0.950 . S
C3112 C3107 1.363 . S
C3112 C3111 1.415 . S
C3113 H3089 0.951 . S
C3113 C3114 1.366 . S
C3113 C3115 1.388 . S
C3114 C3113 1.366 . S
C3114 C3118 1.385 . S
C3115 H3090 0.951 . S
C3115 C3113 1.388 . S
C3115 C3116 1.366 . S
C3116 C3115 1.366 . S
C3116 C3117 1.414 . S
C3116 C3119 1.499 . S
C3117 H3091 0.950 . S
C3117 C3116 1.414 . S
C3117 C3118 1.374 . S
C3118 H3092 0.950 . S
C3118 C3114 1.385 . S
C3118 C3117 1.374 . S
C3119 C3116 1.499 . S
C3119 C3120 1.373 . S
C3119 C3121 1.389 . S
C3120 H3093 0.950 . S
C3120 C3106 1.377 . S
C3120 C3119 1.373 . S
C3121 C3105 1.377 . S
C3121 C3119 1.389 . S
C3121 C3122 1.524 . S
C3122 C3121 1.524 . S
C3122 C3123 1.397 . S
C3122 C3127 1.363 . S
C3123 H3094 0.950 . S
C3123 C3122 1.397 . S
C3123 C3124 1.334 . S
C3124 H3095 0.950 . S
C3124 C3123 1.334 . S
C3124 C3125 1.287 . S
C3125 C3124 1.287 . S
C3125 C3126 1.524 . S
C3125 H3128 0.999 . S
C3126 H3096 0.918 1_455 S
C3126 C3125 1.524 . S
C3126 C3127 1.415 . S
C3127 H3097 0.950 . S
C3127 C3122 1.363 . S
C3127 C3126 1.415 . S
H3128 C3125 0.999 . S
H3129 C3110 0.913 . S
H3130 C3148 0.951 . S
H3131 C3150 0.951 . S
H3132 C3152 0.950 . S
H3133 C3153 0.950 . S
H3134 C3155 0.950 . S
H3135 C3158 0.950 . S
H3136 C3159 0.950 . S
H3137 C3161 0.950 . S
H3138 C3162 0.950 . S
H3139 C3163 0.951 . S
H3140 C3165 0.951 . S
H3141 C3167 0.950 . S
H3142 C3168 0.950 . S
H3143 C3170 0.950 . S
H3144 C3173 0.950 . S
H3145 C3174 0.950 . S
H3146 C3176 0.950 . S
H3147 C3177 0.950 . S
C3148 H3130 0.951 . S
C3148 C3149 1.366 . S
C3148 C3150 1.388 . S
C3149 C3148 1.366 . S
C3149 C3153 1.385 . S
C3150 H3131 0.951 . S
C3150 C3148 1.388 . S
C3150 C3151 1.366 . S
C3151 C3150 1.366 . S
C3151 C3152 1.414 . S
C3151 C3154 1.499 . S
C3152 H3132 0.950 . S
C3152 C3151 1.414 . S
C3152 C3153 1.374 . S
C3153 H3133 0.950 . S
C3153 C3149 1.385 . S
C3153 C3152 1.374 . S
C3154 C3151 1.499 . S
C3154 C3155 1.373 . S
C3154 C3156 1.389 . S
C3155 H3134 0.950 . S
C3155 C3154 1.373 . S
C3155 C3171 1.377 . S
C3156 C3154 1.389 . S
C3156 C3157 1.524 . S
C3156 C3170 1.377 . S
C3157 C3156 1.524 . S
C3157 C3158 1.397 . S
C3157 C3162 1.363 . S
C3158 H3135 0.950 . S
C3158 C3157 1.397 . S
C3158 C3159 1.334 . S
C3159 H3136 0.950 . S
C3159 C3158 1.334 . S
C3159 C3160 1.287 . S
C3160 C3159 1.287 . S
C3160 C3161 1.524 . S
C3160 H3179 0.913 . S
C3161 H3137 0.950 . S
C3161 C3160 1.524 . S
C3161 C3162 1.415 . S
C3162 H3138 0.950 . S
C3162 C3157 1.363 . S
C3162 C3161 1.415 . S
C3163 H3139 0.951 . S
C3163 C3164 1.366 . S
C3163 C3165 1.388 . S
C3164 C3163 1.366 . S
C3164 C3168 1.385 . S
C3165 H3140 0.951 . S
C3165 C3163 1.388 . S
C3165 C3166 1.366 . S
C3166 C3165 1.366 . S
C3166 C3167 1.414 . S
C3166 C3169 1.499 . S
C3167 H3141 0.950 . S
C3167 C3166 1.414 . S
C3167 C3168 1.374 . S
C3168 H3142 0.950 . S
C3168 C3164 1.385 . S
C3168 C3167 1.374 . S
C3169 C3166 1.499 . S
C3169 C3170 1.373 . S
C3169 C3171 1.389 . S
C3170 H3143 0.950 . S
C3170 C3156 1.377 . S
C3170 C3169 1.373 . S
C3171 C3155 1.377 . S
C3171 C3169 1.389 . S
C3171 C3172 1.524 . S
C3172 C3171 1.524 . S
C3172 C3173 1.397 . S
C3172 C3177 1.363 . S
C3173 H3144 0.950 . S
C3173 C3172 1.397 . S
C3173 C3174 1.334 . S
C3174 H3145 0.950 . S
C3174 C3173 1.334 . S
C3174 C3175 1.287 . S
C3175 C3174 1.287 . S
C3175 C3176 1.524 . S
C3175 H3178 0.999 . S
C3176 H3146 0.950 . S
C3176 C3175 1.524 . S
C3176 C3177 1.415 . S
C3177 H3147 0.950 . S
C3177 C3172 1.363 . S
C3177 C3176 1.415 . S
H3178 C3175 0.999 . S
H3179 C3160 0.913 . S
H3180 C3198 0.951 . S
H3181 C3200 0.951 . S
H3182 C3202 0.950 . S
H3183 C3203 0.950 . S
H3184 C3205 0.950 . S
H3185 C3208 0.950 . S
H3186 C3209 0.950 . S
H3187 C3211 0.950 . S
H3188 C3212 0.950 . S
H3189 C3213 0.956 . S
H3190 C3215 0.951 . S
H3191 C3217 0.950 . S
H3192 C3218 0.950 . S
H3193 C3220 0.950 . S
H3194 C3223 0.950 . S
H3195 C3224 0.950 . S
H3196 C3226 0.950 . S
H3197 C3227 0.950 1_556 S
C3198 H3180 0.951 . S
C3198 C3199 1.366 . S
C3198 C3200 1.388 . S
C3199 C3198 1.366 . S
C3199 C3203 1.385 . S
C3200 H3181 0.951 . S
C3200 C3198 1.388 . S
C3200 C3201 1.366 . S
C3201 C3200 1.366 . S
C3201 C3202 1.414 . S
C3201 C3204 1.499 . S
C3202 H3182 0.950 . S
C3202 C3201 1.414 . S
C3202 C3203 1.374 . S
C3203 H3183 0.950 . S
C3203 C3199 1.385 . S
C3203 C3202 1.374 . S
C3204 C3201 1.499 . S
C3204 C3205 1.373 . S
C3204 C3206 1.389 . S
C3205 H3184 0.950 . S
C3205 C3204 1.373 . S
C3205 C3221 1.377 . S
C3206 C3204 1.389 . S
C3206 C3207 1.524 . S
C3206 C3220 1.377 . S
C3207 C3206 1.524 . S
C3207 C3208 1.397 . S
C3207 C3212 1.363 . S
C3208 H3185 0.950 . S
C3208 C3207 1.397 . S
C3208 C3209 1.334 . S
C3209 H3186 0.950 . S
C3209 C3208 1.334 . S
C3209 C3210 1.287 . S
C3210 C3209 1.287 . S
C3210 C3211 1.524 . S
C3210 H3229 0.913 . S
C3211 H3187 0.950 . S
C3211 C3210 1.524 . S
C3211 C3212 1.415 . S
C3212 H3188 0.950 . S
C3212 C3207 1.363 . S
C3212 C3211 1.415 . S
C3213 H3189 0.956 . S
C3213 C3214 1.366 1_554 S
C3213 C3215 1.388 1_554 S
C3214 C3213 1.366 1_556 S
C3214 C3218 1.385 . S
C3215 H3190 0.951 . S
C3215 C3213 1.388 1_556 S
C3215 C3216 1.366 . S
C3216 C3215 1.366 . S
C3216 C3217 1.414 . S
C3216 C3219 1.499 . S
C3217 H3191 0.950 . S
C3217 C3216 1.414 . S
C3217 C3218 1.374 . S
C3218 H3192 0.950 . S
C3218 C3214 1.385 . S
C3218 C3217 1.374 . S
C3219 C3216 1.499 . S
C3219 C3220 1.373 . S
C3219 C3221 1.389 . S
C3220 H3193 0.950 . S
C3220 C3206 1.377 . S
C3220 C3219 1.373 . S
C3221 C3205 1.377 . S
C3221 C3219 1.389 . S
C3221 C3222 1.524 . S
C3222 C3221 1.524 . S
C3222 C3223 1.397 . S
C3222 C3227 1.363 1_556 S
C3223 H3194 0.950 . S
C3223 C3222 1.397 . S
C3223 C3224 1.334 1_556 S
C3224 H3195 0.950 . S
C3224 C3223 1.334 1_554 S
C3224 C3225 1.287 . S
C3225 C3224 1.287 . S
C3225 C3226 1.524 . S
C3225 H3228 0.999 . S
C3226 H3196 0.950 . S
C3226 C3225 1.524 . S
C3226 C3227 1.415 . S
C3227 H3197 0.950 1_554 S
C3227 C3222 1.363 1_554 S
C3227 C3226 1.415 . S
H3228 C3225 0.999 . S
H3229 C3210 0.913 . S
H3230 C3248 0.951 . S
H3231 C3250 0.951 . S
H3232 C3252 0.950 . S
H3233 C3253 0.950 . S
H3234 C3255 0.950 . S
H3235 C3258 0.950 . S
H3236 C3259 0.950 . S
H3237 C3261 0.950 . S
H3238 C3262 0.950 . S
H3239 C3263 0.951 . S
H3240 C3265 0.951 . S
H3241 C3267 0.950 . S
H3242 C3268 0.950 . S
H3243 C3270 0.950 . S
H3244 C3273 0.950 . S
H3245 C3274 0.950 . S
H3246 C3276 0.950 . S
H3247 C3277 0.950 . S
C3248 H3230 0.951 . S
C3248 C3249 1.366 . S
C3248 C3250 1.388 . S
C3249 C3248 1.366 . S
C3249 C3253 1.385 . S
C3250 H3231 0.951 . S
C3250 C3248 1.388 . S
C3250 C3251 1.366 . S
C3251 C3250 1.366 . S
C3251 C3252 1.414 . S
C3251 C3254 1.499 . S
C3252 H3232 0.950 . S
C3252 C3251 1.414 . S
C3252 C3253 1.374 . S
C3253 H3233 0.950 . S
C3253 C3249 1.385 . S
C3253 C3252 1.374 . S
C3254 C3251 1.499 . S
C3254 C3255 1.373 . S
C3254 C3256 1.389 . S
C3255 H3234 0.950 . S
C3255 C3254 1.373 . S
C3255 C3271 1.377 . S
C3256 C3254 1.389 . S
C3256 C3257 1.524 . S
C3256 C3270 1.377 . S
C3257 C3256 1.524 . S
C3257 C3258 1.397 . S
C3257 C3262 1.363 . S
C3258 H3235 0.950 . S
C3258 C3257 1.397 . S
C3258 C3259 1.334 . S
C3259 H3236 0.950 . S
C3259 C3258 1.334 . S
C3259 C3260 1.287 . S
C3260 C3259 1.287 . S
C3260 C3261 1.524 . S
C3260 H3279 0.913 . S
C3261 H3237 0.950 . S
C3261 C3260 1.524 . S
C3261 C3262 1.415 . S
C3262 H3238 0.950 . S
C3262 C3257 1.363 . S
C3262 C3261 1.415 . S
C3263 H3239 0.951 . S
C3263 C3264 1.366 . S
C3263 C3265 1.388 . S
C3264 C3263 1.366 . S
C3264 C3268 1.385 . S
C3265 H3240 0.951 . S
C3265 C3263 1.388 . S
C3265 C3266 1.366 . S
C3266 C3265 1.366 . S
C3266 C3267 1.414 . S
C3266 C3269 1.499 . S
C3267 H3241 0.950 . S
C3267 C3266 1.414 . S
C3267 C3268 1.374 . S
C3268 H3242 0.950 . S
C3268 C3264 1.385 . S
C3268 C3267 1.374 . S
C3269 C3266 1.499 . S
C3269 C3270 1.373 . S
C3269 C3271 1.389 . S
C3270 H3243 0.950 . S
C3270 C3256 1.377 . S
C3270 C3269 1.373 . S
C3271 C3255 1.377 . S
C3271 C3269 1.389 . S
C3271 C3272 1.524 . S
C3272 C3271 1.524 . S
C3272 C3273 1.397 . S
C3272 C3277 1.363 . S
C3273 H3244 0.950 . S
C3273 C3272 1.397 . S
C3273 C3274 1.334 . S
C3274 H3245 0.950 . S
C3274 C3273 1.334 . S
C3274 C3275 1.287 . S
C3275 C3274 1.287 . S
C3275 C3276 1.524 . S
C3275 H3278 0.999 . S
C3276 H3246 0.950 . S
C3276 C3275 1.524 . S
C3276 C3277 1.415 . S
C3277 H3247 0.950 . S
C3277 C3272 1.363 . S
C3277 C3276 1.415 . S
H3278 C3275 0.999 . S
H3279 C3260 0.913 . S
H3280 C3298 0.951 . S
H3281 C3300 0.951 . S
H3282 C3302 0.950 . S
H3283 C3303 0.950 . S
H3284 C3305 0.950 . S
H3285 C3308 0.950 . S
H3286 C3309 0.950 . S
H3287 C3311 0.950 . S
H3288 C3312 0.950 1_545 S
H3289 C3313 0.951 . S
H3290 C3315 0.951 . S
H3291 C3317 0.950 . S
H3292 C3318 0.950 . S
H3293 C3320 0.950 . S
H3294 C3323 0.950 . S
H3295 C3324 0.950 . S
H3296 C3326 0.950 . S
H3297 C3327 0.950 . S
C3298 H3280 0.951 . S
C3298 C3299 1.366 . S
C3298 C3300 1.388 . S
C3299 C3298 1.366 . S
C3299 C3303 1.385 1_545 S
C3300 H3281 0.951 . S
C3300 C3298 1.388 . S
C3300 C3301 1.366 . S
C3301 C3300 1.366 . S
C3301 C3302 1.414 1_545 S
C3301 C3304 1.499 . S
C3302 H3282 0.950 . S
C3302 C3301 1.414 1_565 S
C3302 C3303 1.374 . S
C3303 H3283 0.950 . S
C3303 C3299 1.385 1_565 S
C3303 C3302 1.374 . S
C3304 C3301 1.499 . S
C3304 C3305 1.373 . S
C3304 C3306 1.389 . S
C3305 H3284 0.950 . S
C3305 C3304 1.373 . S
C3305 C3321 1.377 . S
C3306 C3304 1.389 . S
C3306 C3307 1.524 1_545 S
C3306 C3320 1.377 . S
C3307 C3306 1.524 1_565 S
C3307 C3308 1.397 . S
C3307 C3312 1.363 . S
C3308 H3285 0.950 . S
C3308 C3307 1.397 . S
C3308 C3309 1.334 . S
C3309 H3286 0.950 . S
C3309 C3308 1.334 . S
C3309 C3310 1.287 . S
C3310 C3309 1.287 . S
C3310 C3311 1.524 . S
C3310 H3329 0.913 . S
C3311 H3287 0.950 . S
C3311 C3310 1.524 . S
C3311 C3312 1.415 . S
C3312 H3288 0.950 1_565 S
C3312 C3307 1.363 . S
C3312 C3311 1.415 . S
C3313 H3289 0.951 . S
C3313 C3314 1.366 . S
C3313 C3315 1.388 . S
C3314 C3313 1.366 . S
C3314 C3318 1.385 . S
C3315 H3290 0.951 . S
C3315 C3313 1.388 . S
C3315 C3316 1.366 . S
C3316 C3315 1.366 . S
C3316 C3317 1.414 . S
C3316 C3319 1.499 . S
C3317 H3291 0.950 . S
C3317 C3316 1.414 . S
C3317 C3318 1.374 . S
C3318 H3292 0.950 . S
C3318 C3314 1.385 . S
C3318 C3317 1.374 . S
C3319 C3316 1.499 . S
C3319 C3320 1.373 . S
C3319 C3321 1.389 . S
C3320 H3293 0.950 . S
C3320 C3306 1.377 . S
C3320 C3319 1.373 . S
C3321 C3305 1.377 . S
C3321 C3319 1.389 . S
C3321 C3322 1.524 . S
C3322 C3321 1.524 . S
C3322 C3323 1.397 . S
C3322 C3327 1.363 . S
C3323 H3294 0.950 . S
C3323 C3322 1.397 . S
C3323 C3324 1.334 . S
C3324 H3295 0.950 . S
C3324 C3323 1.334 . S
C3324 C3325 1.287 . S
C3325 C3324 1.287 . S
C3325 C3326 1.524 . S
C3325 H3328 0.999 . S
C3326 H3296 0.950 . S
C3326 C3325 1.524 . S
C3326 C3327 1.415 . S
C3327 H3297 0.950 . S
C3327 C3322 1.363 . S
C3327 C3326 1.415 . S
H3328 C3325 0.999 . S
H3329 C3310 0.913 . S
H3330 C3348 0.951 . S
H3331 C3350 0.951 . S
H3332 C3352 0.950 . S
H3333 C3353 0.950 . S
H3334 C3355 0.950 . S
H3335 C3358 0.950 . S
H3336 C3359 0.950 . S
H3337 C3361 0.950 . S
H3338 C3362 0.950 . S
H3339 C3363 0.951 . S
H3340 C3365 0.951 . S
H3341 C3367 0.950 . S
H3342 C3368 0.950 . S
H3343 C3370 0.950 . S
H3344 C3373 0.950 . S
H3345 C3374 0.950 . S
H3346 C3376 0.950 . S
H3347 C3377 0.950 . S
C3348 H3330 0.951 . S
C3348 C3349 1.366 . S
C3348 C3350 1.388 . S
C3349 C3348 1.366 . S
C3349 C3353 1.385 . S
C3350 H3331 0.951 . S
C3350 C3348 1.388 . S
C3350 C3351 1.366 . S
C3351 C3350 1.366 . S
C3351 C3352 1.414 . S
C3351 C3354 1.499 . S
C3352 H3332 0.950 . S
C3352 C3351 1.414 . S
C3352 C3353 1.374 . S
C3353 H3333 0.950 . S
C3353 C3349 1.385 . S
C3353 C3352 1.374 . S
C3354 C3351 1.499 . S
C3354 C3355 1.373 . S
C3354 C3356 1.389 . S
C3355 H3334 0.950 . S
C3355 C3354 1.373 . S
C3355 C3371 1.377 . S
C3356 C3354 1.389 . S
C3356 C3357 1.524 . S
C3356 C3370 1.377 . S
C3357 C3356 1.524 . S
C3357 C3358 1.397 . S
C3357 C3362 1.363 . S
C3358 H3335 0.950 . S
C3358 C3357 1.397 . S
C3358 C3359 1.334 . S
C3359 H3336 0.950 . S
C3359 C3358 1.334 . S
C3359 C3360 1.287 . S
C3360 C3359 1.287 . S
C3360 C3361 1.524 . S
C3360 H3379 0.913 . S
C3361 H3337 0.950 . S
C3361 C3360 1.524 . S
C3361 C3362 1.415 . S
C3362 H3338 0.950 . S
C3362 C3357 1.363 . S
C3362 C3361 1.415 . S
C3363 H3339 0.951 . S
C3363 C3364 1.366 . S
C3363 C3365 1.388 . S
C3364 C3363 1.366 . S
C3364 C3368 1.385 . S
C3365 H3340 0.951 . S
C3365 C3363 1.388 . S
C3365 C3366 1.366 . S
C3366 C3365 1.366 . S
C3366 C3367 1.414 . S
C3366 C3369 1.499 . S
C3367 H3341 0.950 . S
C3367 C3366 1.414 . S
C3367 C3368 1.374 . S
C3368 H3342 0.950 . S
C3368 C3364 1.385 . S
C3368 C3367 1.374 . S
C3369 C3366 1.499 . S
C3369 C3370 1.373 . S
C3369 C3371 1.389 . S
C3370 H3343 0.950 . S
C3370 C3356 1.377 . S
C3370 C3369 1.373 . S
C3371 C3355 1.377 . S
C3371 C3369 1.389 . S
C3371 C3372 1.524 . S
C3372 C3371 1.524 . S
C3372 C3373 1.397 . S
C3372 C3377 1.363 . S
C3373 H3344 0.950 . S
C3373 C3372 1.397 . S
C3373 C3374 1.334 . S
C3374 H3345 0.950 . S
C3374 C3373 1.334 . S
C3374 C3375 1.287 . S
C3375 C3374 1.287 . S
C3375 C3376 1.524 . S
C3375 H3378 0.999 . S
C3376 H3346 0.950 . S
C3376 C3375 1.524 . S
C3376 C3377 1.415 . S
C3377 H3347 0.950 . S
C3377 C3372 1.363 . S
C3377 C3376 1.415 . S
H3378 C3375 0.999 . S
H3379 C3360 0.913 . S
H3380 C3398 0.951 . S
H3381 C3400 0.951 . S
H3382 C3402 0.950 . S
H3383 C3403 0.950 . S
H3384 C3405 0.950 . S
H3385 C3408 0.950 . S
H3386 C3409 0.950 . S
H3387 C3411 0.950 . S
H3388 C3412 0.950 . S
H3389 C3413 0.951 . S
H3390 C3415 0.951 . S
H3391 C3417 0.950 . S
H3392 C3418 0.950 . S
H3393 C3420 0.950 . S
H3394 C3423 0.928 1_545 S
H3395 C3424 0.950 . S
H3396 C3426 0.950 . S
H3397 C3427 0.950 1_545 S
C3398 H3380 0.951 . S
C3398 C3399 1.366 . S
C3398 C3400 1.388 . S
C3399 C3398 1.366 . S
C3399 C3403 1.385 . S
C3400 H3381 0.951 . S
C3400 C3398 1.388 . S
C3400 C3401 1.366 . S
C3401 C3400 1.366 . S
C3401 C3402 1.414 . S
C3401 C3404 1.499 . S
C3402 H3382 0.950 . S
C3402 C3401 1.414 . S
C3402 C3403 1.374 . S
C3403 H3383 0.950 . S
C3403 C3399 1.385 . S
C3403 C3402 1.374 . S
C3404 C3401 1.499 . S
C3404 C3405 1.373 . S
C3404 C3406 1.389 . S
C3405 H3384 0.950 . S
C3405 C3404 1.373 . S
C3405 C3421 1.377 . S
C3406 C3404 1.389 . S
C3406 C3407 1.524 . S
C3406 C3420 1.377 . S
C3407 C3406 1.524 . S
C3407 C3408 1.397 . S
C3407 C3412 1.363 . S
C3408 H3385 0.950 . S
C3408 C3407 1.397 . S
C3408 C3409 1.334 . S
C3409 H3386 0.950 . S
C3409 C3408 1.334 . S
C3409 C3410 1.287 . S
C3410 C3409 1.287 . S
C3410 C3411 1.524 . S
C3410 H3429 0.913 . S
C3411 H3387 0.950 . S
C3411 C3410 1.524 . S
C3411 C3412 1.415 . S
C3412 H3388 0.950 . S
C3412 C3407 1.363 . S
C3412 C3411 1.415 . S
C3413 H3389 0.951 . S
C3413 C3414 1.366 . S
C3413 C3415 1.388 . S
C3414 C3413 1.366 . S
C3414 C3418 1.385 . S
C3415 H3390 0.951 . S
C3415 C3413 1.388 . S
C3415 C3416 1.366 . S
C3416 C3415 1.366 . S
C3416 C3417 1.414 . S
C3416 C3419 1.499 . S
C3417 H3391 0.950 . S
C3417 C3416 1.414 . S
C3417 C3418 1.374 . S
C3418 H3392 0.950 . S
C3418 C3414 1.385 . S
C3418 C3417 1.374 . S
C3419 C3416 1.499 . S
C3419 C3420 1.373 . S
C3419 C3421 1.389 . S
C3420 H3393 0.950 . S
C3420 C3406 1.377 . S
C3420 C3419 1.373 . S
C3421 C3405 1.377 . S
C3421 C3419 1.389 . S
C3421 C3422 1.524 . S
C3422 C3421 1.524 . S
C3422 C3423 1.377 1_545 S
C3422 C3427 1.363 1_545 S
C3423 H3394 0.928 1_565 S
C3423 C3422 1.377 1_565 S
C3423 C3424 1.376 . S
C3424 H3395 0.950 . S
C3424 C3423 1.376 . S
C3424 C3425 1.287 . S
C3425 C3424 1.287 . S
C3425 C3426 1.524 . S
C3425 H3428 0.999 . S
C3426 H3396 0.950 . S
C3426 C3425 1.524 . S
C3426 C3427 1.415 . S
C3427 H3397 0.950 1_565 S
C3427 C3422 1.363 1_565 S
C3427 C3426 1.415 . S
H3428 C3425 0.999 . S
H3429 C3410 0.913 . S
H3430 C3448 0.951 . S
H3431 C3450 0.951 . S
H3432 C3452 0.950 . S
H3433 C3453 0.950 . S
H3434 C3455 0.950 . S
H3435 C3458 0.950 . S
H3436 C3459 0.950 . S
H3437 C3461 0.950 . S
H3438 C3462 0.950 . S
H3439 C3463 0.951 . S
H3440 C3465 0.951 . S
H3441 C3467 0.950 . S
H3442 C3468 0.950 . S
H3443 C3470 0.950 . S
H3444 C3473 0.950 . S
H3445 C3474 0.950 . S
H3446 C3476 0.950 . S
H3447 C3477 0.950 . S
C3448 H3430 0.951 . S
C3448 C3449 1.366 . S
C3448 C3450 1.388 . S
C3449 C3448 1.366 . S
C3449 C3453 1.385 . S
C3450 H3431 0.951 . S
C3450 C3448 1.388 . S
C3450 C3451 1.366 . S
C3451 C3450 1.366 . S
C3451 C3452 1.414 . S
C3451 C3454 1.499 . S
C3452 H3432 0.950 . S
C3452 C3451 1.414 . S
C3452 C3453 1.374 . S
C3453 H3433 0.950 . S
C3453 C3449 1.385 . S
C3453 C3452 1.374 . S
C3454 C3451 1.499 . S
C3454 C3455 1.373 . S
C3454 C3456 1.389 . S
C3455 H3434 0.950 . S
C3455 C3454 1.373 . S
C3455 C3471 1.377 . S
C3456 C3454 1.389 . S
C3456 C3457 1.524 . S
C3456 C3470 1.377 . S
C3457 C3456 1.524 . S
C3457 C3458 1.397 . S
C3457 C3462 1.363 . S
C3458 H3435 0.950 . S
C3458 C3457 1.397 . S
C3458 C3459 1.334 . S
C3459 H3436 0.950 . S
C3459 C3458 1.334 . S
C3459 C3460 1.287 . S
C3460 C3459 1.287 . S
C3460 C3461 1.524 . S
C3460 H3479 0.913 . S
C3461 H3437 0.950 . S
C3461 C3460 1.524 . S
C3461 C3462 1.415 . S
C3462 H3438 0.950 . S
C3462 C3457 1.363 . S
C3462 C3461 1.415 . S
C3463 H3439 0.951 . S
C3463 C3464 1.366 . S
C3463 C3465 1.388 . S
C3464 C3463 1.366 . S
C3464 C3468 1.385 . S
C3465 H3440 0.951 . S
C3465 C3463 1.388 . S
C3465 C3466 1.366 . S
C3466 C3465 1.366 . S
C3466 C3467 1.414 . S
C3466 C3469 1.499 . S
C3467 H3441 0.950 . S
C3467 C3466 1.414 . S
C3467 C3468 1.374 . S
C3468 H3442 0.950 . S
C3468 C3464 1.385 . S
C3468 C3467 1.374 . S
C3469 C3466 1.499 . S
C3469 C3470 1.373 . S
C3469 C3471 1.389 . S
C3470 H3443 0.950 . S
C3470 C3456 1.377 . S
C3470 C3469 1.373 . S
C3471 C3455 1.377 . S
C3471 C3469 1.389 . S
C3471 C3472 1.524 . S
C3472 C3471 1.524 . S
C3472 C3473 1.397 . S
C3472 C3477 1.363 . S
C3473 H3444 0.950 . S
C3473 C3472 1.397 . S
C3473 C3474 1.334 . S
C3474 H3445 0.950 . S
C3474 C3473 1.334 . S
C3474 C3475 1.287 . S
C3475 C3474 1.287 . S
C3475 C3476 1.524 . S
C3475 H3478 0.999 . S
C3476 H3446 0.950 . S
C3476 C3475 1.524 . S
C3476 C3477 1.415 . S
C3477 H3447 0.950 . S
C3477 C3472 1.363 . S
C3477 C3476 1.415 . S
H3478 C3475 0.999 . S
H3479 C3460 0.913 . S
H3480 C3498 0.951 . S
H3481 C3500 0.951 . S
H3482 C3502 0.950 . S
H3483 C3503 0.950 . S
H3484 C3505 0.950 1_565 S
H3485 C3508 0.950 1_565 S
H3486 C3509 0.950 1_565 S
H3487 C3511 0.950 . S
H3488 C3512 0.950 . S
H3489 C3513 0.951 . S
H3490 C3515 0.951 1_565 S
H3491 C3517 0.950 . S
H3492 C3518 0.950 . S
H3493 C3520 0.950 . S
H3494 C3523 0.950 . S
H3495 C3524 0.950 . S
H3496 C3526 0.950 . S
H3497 C3527 0.950 . S
C3498 H3480 0.951 . S
C3498 C3499 1.366 1_545 S
C3498 C3500 1.388 . S
C3499 C3498 1.366 1_565 S
C3499 C3503 1.385 . S
C3500 H3481 0.951 . S
C3500 C3498 1.388 . S
C3500 C3501 1.366 . S
C3501 C3500 1.366 . S
C3501 C3502 1.414 1_545 S
C3501 C3504 1.499 . S
C3502 H3482 0.950 . S
C3502 C3501 1.414 1_565 S
C3502 C3503 1.374 . S
C3503 H3483 0.950 . S
C3503 C3499 1.385 . S
C3503 C3502 1.374 . S
C3504 C3501 1.499 . S
C3504 C3505 1.373 . S
C3504 C3506 1.389 . S
C3505 H3484 0.950 1_545 S
C3505 C3504 1.373 . S
C3505 C3521 1.377 . S
C3506 C3504 1.389 . S
C3506 C3507 1.524 . S
C3506 C3520 1.377 . S
C3507 C3506 1.524 . S
C3507 C3508 1.397 . S
C3507 C3512 1.363 . S
C3508 H3485 0.950 1_545 S
C3508 C3507 1.397 . S
C3508 C3509 1.334 . S
C3509 H3486 0.950 1_545 S
C3509 C3508 1.334 . S
C3509 C3510 1.287 . S
C3510 C3509 1.287 . S
C3510 C3511 1.524 . S
C3510 H3529 0.913 . S
C3511 H3487 0.950 . S
C3511 C3510 1.524 . S
C3511 C3512 1.415 . S
C3512 H3488 0.950 . S
C3512 C3507 1.363 . S
C3512 C3511 1.415 . S
C3513 H3489 0.951 . S
C3513 C3514 1.366 . S
C3513 C3515 1.388 . S
C3514 C3513 1.366 . S
C3514 C3518 1.385 . S
C3515 H3490 0.951 1_545 S
C3515 C3513 1.388 . S
C3515 C3516 1.366 . S
C3516 C3515 1.366 . S
C3516 C3517 1.414 . S
C3516 C3519 1.499 . S
C3517 H3491 0.950 . S
C3517 C3516 1.414 . S
C3517 C3518 1.374 . S
C3518 H3492 0.950 . S
C3518 C3514 1.385 . S
C3518 C3517 1.374 . S
C3519 C3516 1.499 . S
C3519 C3520 1.373 . S
C3519 C3521 1.389 . S
C3520 H3493 0.950 . S
C3520 C3506 1.377 . S
C3520 C3519 1.373 . S
C3521 C3505 1.377 . S
C3521 C3519 1.389 . S
C3521 C3522 1.524 . S
C3522 C3521 1.524 . S
C3522 C3523 1.397 . S
C3522 C3527 1.363 1_545 S
C3523 H3494 0.950 . S
C3523 C3522 1.397 . S
C3523 C3524 1.334 . S
C3524 H3495 0.950 . S
C3524 C3523 1.334 . S
C3524 C3525 1.287 . S
C3525 C3524 1.287 . S
C3525 C3526 1.524 1_545 S
C3525 H3528 0.999 . S
C3526 H3496 0.950 . S
C3526 C3525 1.524 1_565 S
C3526 C3527 1.415 . S
C3527 H3497 0.950 . S
C3527 C3522 1.363 1_565 S
C3527 C3526 1.415 . S
H3528 C3525 0.999 . S
H3529 C3510 0.913 . S
H3530 C3548 0.951 . S
H3531 C3550 0.951 . S
H3532 C3552 0.950 . S
H3533 C3553 0.950 . S
H3534 C3555 0.950 . S
H3535 C3558 0.950 . S
H3536 C3559 0.950 . S
H3537 C3561 0.950 . S
H3538 C3562 0.950 . S
H3539 C3563 0.951 . S
H3540 C3565 0.951 . S
H3541 C3567 0.950 . S
H3542 C3568 0.950 . S
H3543 C3570 0.950 . S
H3544 C3573 0.950 . S
H3545 C3574 0.950 . S
H3546 C3576 0.950 . S
H3547 C3577 0.950 . S
C3548 H3530 0.951 . S
C3548 C3549 1.366 . S
C3548 C3550 1.388 . S
C3549 C3548 1.366 . S
C3549 C3553 1.385 . S
C3550 H3531 0.951 . S
C3550 C3548 1.388 . S
C3550 C3551 1.366 . S
C3551 C3550 1.366 . S
C3551 C3552 1.414 . S
C3551 C3554 1.499 . S
C3552 H3532 0.950 . S
C3552 C3551 1.414 . S
C3552 C3553 1.374 . S
C3553 H3533 0.950 . S
C3553 C3549 1.385 . S
C3553 C3552 1.374 . S
C3554 C3551 1.499 . S
C3554 C3555 1.373 . S
C3554 C3556 1.389 . S
C3555 H3534 0.950 . S
C3555 C3554 1.373 . S
C3555 C3571 1.377 . S
C3556 C3554 1.389 . S
C3556 C3557 1.524 . S
C3556 C3570 1.377 . S
C3557 C3556 1.524 . S
C3557 C3558 1.397 . S
C3557 C3562 1.363 . S
C3558 H3535 0.950 . S
C3558 C3557 1.397 . S
C3558 C3559 1.334 . S
C3559 H3536 0.950 . S
C3559 C3558 1.334 . S
C3559 C3560 1.287 . S
C3560 C3559 1.287 . S
C3560 C3561 1.524 . S
C3560 H3579 0.913 . S
C3561 H3537 0.950 . S
C3561 C3560 1.524 . S
C3561 C3562 1.415 . S
C3562 H3538 0.950 . S
C3562 C3557 1.363 . S
C3562 C3561 1.415 . S
C3563 H3539 0.951 . S
C3563 C3564 1.366 . S
C3563 C3565 1.388 . S
C3564 C3563 1.366 . S
C3564 C3568 1.385 . S
C3565 H3540 0.951 . S
C3565 C3563 1.388 . S
C3565 C3566 1.366 . S
C3566 C3565 1.366 . S
C3566 C3567 1.414 . S
C3566 C3569 1.499 . S
C3567 H3541 0.950 . S
C3567 C3566 1.414 . S
C3567 C3568 1.374 . S
C3568 H3542 0.950 . S
C3568 C3564 1.385 . S
C3568 C3567 1.374 . S
C3569 C3566 1.499 . S
C3569 C3570 1.373 . S
C3569 C3571 1.389 . S
C3570 H3543 0.950 . S
C3570 C3556 1.377 . S
C3570 C3569 1.373 . S
C3571 C3555 1.377 . S
C3571 C3569 1.389 . S
C3571 C3572 1.524 . S
C3572 C3571 1.524 . S
C3572 C3573 1.397 . S
C3572 C3577 1.363 . S
C3573 H3544 0.950 . S
C3573 C3572 1.397 . S
C3573 C3574 1.334 . S
C3574 H3545 0.950 . S
C3574 C3573 1.334 . S
C3574 C3575 1.287 . S
C3575 C3574 1.287 . S
C3575 C3576 1.524 . S
C3575 H3578 0.999 . S
C3576 H3546 0.950 . S
C3576 C3575 1.524 . S
C3576 C3577 1.415 . S
C3577 H3547 0.950 . S
C3577 C3572 1.363 . S
C3577 C3576 1.415 . S
H3578 C3575 0.999 . S
H3579 C3560 0.913 . S
H3580 C3598 0.951 . S
H3581 C3600 0.951 . S
H3582 C3602 0.950 . S
H3583 C3603 0.950 . S
H3584 C3605 0.950 . S
H3585 C3608 0.950 . S
H3586 C3609 0.950 . S
H3587 C3611 0.950 . S
H3588 C3612 0.950 . S
H3589 C3613 0.951 . S
H3590 C3615 0.951 . S
H3591 C3617 0.950 . S
H3592 C3618 0.950 . S
H3593 C3620 0.950 1_565 S
H3594 C3623 0.950 . S
H3595 C3624 0.950 . S
H3596 C3626 0.950 . S
H3597 C3627 0.950 . S
C3598 H3580 0.951 . S
C3598 C3599 1.366 . S
C3598 C3600 1.388 . S
C3599 C3598 1.366 . S
C3599 C3603 1.385 . S
C3600 H3581 0.951 . S
C3600 C3598 1.388 . S
C3600 C3601 1.366 . S
C3601 C3600 1.366 . S
C3601 C3602 1.414 . S
C3601 C3604 1.499 . S
C3602 H3582 0.950 . S
C3602 C3601 1.414 . S
C3602 C3603 1.374 . S
C3603 H3583 0.950 . S
C3603 C3599 1.385 . S
C3603 C3602 1.374 . S
C3604 C3601 1.499 . S
C3604 C3605 1.373 . S
C3604 C3606 1.389 . S
C3605 H3584 0.950 . S
C3605 C3604 1.373 . S
C3605 C3621 1.377 . S
C3606 C3604 1.389 . S
C3606 C3607 1.524 1_545 S
C3606 C3620 1.377 . S
C3607 C3606 1.524 1_565 S
C3607 C3608 1.397 . S
C3607 C3612 1.363 . S
C3608 H3585 0.950 . S
C3608 C3607 1.397 . S
C3608 C3609 1.334 . S
C3609 H3586 0.950 . S
C3609 C3608 1.334 . S
C3609 C3610 1.287 . S
C3610 C3609 1.287 . S
C3610 C3611 1.524 . S
C3610 H3629 0.913 . S
C3611 H3587 0.950 . S
C3611 C3610 1.524 . S
C3611 C3612 1.415 . S
C3612 H3588 0.950 . S
C3612 C3607 1.363 . S
C3612 C3611 1.415 . S
C3613 H3589 0.951 . S
C3613 C3614 1.366 . S
C3613 C3615 1.388 . S
C3614 C3613 1.366 . S
C3614 C3618 1.385 . S
C3615 H3590 0.951 . S
C3615 C3613 1.388 . S
C3615 C3616 1.366 . S
C3616 C3615 1.366 . S
C3616 C3617 1.414 . S
C3616 C3619 1.499 . S
C3617 H3591 0.950 . S
C3617 C3616 1.414 . S
C3617 C3618 1.374 . S
C3618 H3592 0.950 . S
C3618 C3614 1.385 . S
C3618 C3617 1.374 . S
C3619 C3616 1.499 . S
C3619 C3620 1.373 . S
C3619 C3621 1.389 . S
C3620 H3593 0.950 1_545 S
C3620 C3606 1.377 . S
C3620 C3619 1.373 . S
C3621 C3605 1.377 . S
C3621 C3619 1.389 . S
C3621 C3622 1.524 . S
C3622 C3621 1.524 . S
C3622 C3623 1.397 . S
C3622 C3627 1.363 . S
C3623 H3594 0.950 . S
C3623 C3622 1.397 . S
C3623 C3624 1.334 . S
C3624 H3595 0.950 . S
C3624 C3623 1.334 . S
C3624 C3625 1.287 . S
C3625 C3624 1.287 . S
C3625 C3626 1.524 . S
C3625 H3628 0.999 . S
C3626 H3596 0.950 . S
C3626 C3625 1.524 . S
C3626 C3627 1.415 . S
C3627 H3597 0.950 . S
C3627 C3622 1.363 . S
C3627 C3626 1.415 . S
H3628 C3625 0.999 . S
H3629 C3610 0.913 . S
H3630 C3648 0.951 . S
H3631 C3650 0.951 . S
H3632 C3652 0.950 . S
H3633 C3653 0.950 . S
H3634 C3655 0.950 . S
H3635 C3658 0.950 . S
H3636 C3659 0.950 . S
H3637 C3661 0.950 . S
H3638 C3662 0.950 . S
H3639 C3663 0.951 . S
H3640 C3665 0.951 . S
H3641 C3667 0.950 . S
H3642 C3668 0.950 . S
H3643 C3670 0.950 . S
H3644 C3673 0.950 . S
H3645 C3674 0.950 . S
H3646 C3676 0.950 . S
H3647 C3677 0.950 . S
C3648 H3630 0.951 . S
C3648 C3649 1.366 . S
C3648 C3650 1.388 . S
C3649 C3648 1.366 . S
C3649 C3653 1.385 . S
C3650 H3631 0.951 . S
C3650 C3648 1.388 . S
C3650 C3651 1.366 . S
C3651 C3650 1.366 . S
C3651 C3652 1.414 . S
C3651 C3654 1.499 . S
C3652 H3632 0.950 . S
C3652 C3651 1.414 . S
C3652 C3653 1.374 . S
C3653 H3633 0.950 . S
C3653 C3649 1.385 . S
C3653 C3652 1.374 . S
C3654 C3651 1.499 . S
C3654 C3655 1.373 . S
C3654 C3656 1.389 . S
C3655 H3634 0.950 . S
C3655 C3654 1.373 . S
C3655 C3671 1.377 . S
C3656 C3654 1.389 . S
C3656 C3657 1.524 . S
C3656 C3670 1.377 . S
C3657 C3656 1.524 . S
C3657 C3658 1.397 . S
C3657 C3662 1.363 . S
C3658 H3635 0.950 . S
C3658 C3657 1.397 . S
C3658 C3659 1.334 . S
C3659 H3636 0.950 . S
C3659 C3658 1.334 . S
C3659 C3660 1.287 . S
C3660 C3659 1.287 . S
C3660 C3661 1.524 . S
C3660 H3679 0.913 . S
C3661 H3637 0.950 . S
C3661 C3660 1.524 . S
C3661 C3662 1.415 . S
C3662 H3638 0.950 . S
C3662 C3657 1.363 . S
C3662 C3661 1.415 . S
C3663 H3639 0.951 . S
C3663 C3664 1.366 . S
C3663 C3665 1.388 . S
C3664 C3663 1.366 . S
C3664 C3668 1.385 . S
C3665 H3640 0.951 . S
C3665 C3663 1.388 . S
C3665 C3666 1.366 . S
C3666 C3665 1.366 . S
C3666 C3667 1.414 . S
C3666 C3669 1.499 . S
C3667 H3641 0.950 . S
C3667 C3666 1.414 . S
C3667 C3668 1.374 . S
C3668 H3642 0.950 . S
C3668 C3664 1.385 . S
C3668 C3667 1.374 . S
C3669 C3666 1.499 . S
C3669 C3670 1.373 . S
C3669 C3671 1.389 . S
C3670 H3643 0.950 . S
C3670 C3656 1.377 . S
C3670 C3669 1.373 . S
C3671 C3655 1.377 . S
C3671 C3669 1.389 . S
C3671 C3672 1.524 . S
C3672 C3671 1.524 . S
C3672 C3673 1.397 . S
C3672 C3677 1.363 . S
C3673 H3644 0.950 . S
C3673 C3672 1.397 . S
C3673 C3674 1.334 . S
C3674 H3645 0.950 . S
C3674 C3673 1.334 . S
C3674 C3675 1.287 . S
C3675 C3674 1.287 . S
C3675 C3676 1.524 . S
C3675 H3678 0.999 . S
C3676 H3646 0.950 . S
C3676 C3675 1.524 . S
C3676 C3677 1.415 . S
C3677 H3647 0.950 . S
C3677 C3672 1.363 . S
C3677 C3676 1.415 . S
H3678 C3675 0.999 . S
H3679 C3660 0.913 . S
H3680 C3698 0.951 . S
H3681 C3700 0.951 . S
H3682 C3702 0.969 . S
H3683 C3703 0.950 1_556 S
H3684 C3705 0.974 . S
H3685 C3708 0.950 . S
H3686 C3709 0.950 . S
H3687 C3711 0.950 . S
H3688 C3712 0.950 . S
H3689 C3713 0.951 . S
H3690 C3715 0.951 . S
H3691 C3717 0.950 . S
H3692 C3718 0.950 . S
H3693 C3720 0.950 . S
H3694 C3723 0.950 1_554 S
H3695 C3724 0.950 . S
H3696 C3726 0.950 . S
H3697 C3727 0.950 . S
C3698 H3680 0.951 . S
C3698 C3699 1.366 . S
C3698 C3700 1.388 . S
C3699 C3698 1.366 . S
C3699 C3703 1.385 . S
C3700 H3681 0.951 . S
C3700 C3698 1.388 . S
C3700 C3701 1.366 . S
C3701 C3700 1.366 . S
C3701 C3702 1.397 1_554 S
C3701 C3704 1.499 . S
C3702 H3682 0.969 . S
C3702 C3701 1.397 1_556 S
C3702 C3703 1.373 1_556 S
C3703 H3683 0.950 1_554 S
C3703 C3699 1.385 . S
C3703 C3702 1.373 1_554 S
C3704 C3701 1.499 . S
C3704 C3705 1.350 1_554 S
C3704 C3706 1.389 . S
C3705 H3684 0.974 . S
C3705 C3704 1.350 1_556 S
C3705 C3721 1.377 . S
C3706 C3704 1.389 . S
C3706 C3707 1.524 . S
C3706 C3720 1.377 . S
C3707 C3706 1.524 . S
C3707 C3708 1.397 . S
C3707 C3712 1.363 . S
C3708 H3685 0.950 . S
C3708 C3707 1.397 . S
C3708 C3709 1.334 . S
C3709 H3686 0.950 . S
C3709 C3708 1.334 . S
C3709 C3710 1.287 . S
C3710 C3709 1.287 . S
C3710 C3711 1.524 . S
C3710 H3729 0.913 . S
C3711 H3687 0.950 . S
C3711 C3710 1.524 . S
C3711 C3712 1.415 . S
C3712 H3688 0.950 . S
C3712 C3707 1.363 . S
C3712 C3711 1.415 . S
C3713 H3689 0.951 . S
C3713 C3714 1.366 1_556 S
C3713 C3715 1.388 . S
C3714 C3713 1.366 1_554 S
C3714 C3718 1.385 . S
C3715 H3690 0.951 . S
C3715 C3713 1.388 . S
C3715 C3716 1.366 1_556 S
C3716 C3715 1.366 1_554 S
C3716 C3717 1.414 . S
C3716 C3719 1.499 . S
C3717 H3691 0.950 . S
C3717 C3716 1.414 . S
C3717 C3718 1.374 . S
C3718 H3692 0.950 . S
C3718 C3714 1.385 . S
C3718 C3717 1.374 . S
C3719 C3716 1.499 . S
C3719 C3720 1.373 . S
C3719 C3721 1.389 1_554 S
C3720 H3693 0.950 . S
C3720 C3706 1.377 . S
C3720 C3719 1.373 . S
C3721 C3705 1.377 . S
C3721 C3719 1.389 1_556 S
C3721 C3722 1.524 . S
C3722 C3721 1.524 . S
C3722 C3723 1.397 . S
C3722 C3727 1.363 . S
C3723 H3694 0.950 1_556 S
C3723 C3722 1.397 . S
C3723 C3724 1.334 . S
C3724 H3695 0.950 . S
C3724 C3723 1.334 . S
C3724 C3725 1.287 . S
C3725 C3724 1.287 . S
C3725 C3726 1.524 . S
C3725 H3728 0.999 . S
C3726 H3696 0.950 . S
C3726 C3725 1.524 . S
C3726 C3727 1.415 . S
C3727 H3697 0.950 . S
C3727 C3722 1.363 . S
C3727 C3726 1.415 . S
H3728 C3725 0.999 . S
H3729 C3710 0.913 . S
H3730 C3748 0.951 . S
H3731 C3750 0.951 . S
H3732 C3752 0.950 . S
H3733 C3753 0.950 . S
H3734 C3755 0.950 . S
H3735 C3758 0.950 . S
H3736 C3759 0.950 . S
H3737 C3761 0.950 . S
H3738 C3762 0.950 . S
H3739 C3763 0.951 . S
H3740 C3765 0.951 . S
H3741 C3767 0.950 . S
H3742 C3768 0.950 . S
H3743 C3770 0.950 . S
H3744 C3773 0.950 . S
H3745 C3774 0.944 1_554 S
H3746 C3776 0.950 . S
H3747 C3777 0.950 . S
C3748 H3730 0.951 . S
C3748 C3749 1.366 . S
C3748 C3750 1.388 . S
C3749 C3748 1.366 . S
C3749 C3753 1.385 . S
C3750 H3731 0.951 . S
C3750 C3748 1.388 . S
C3750 C3751 1.366 . S
C3751 C3750 1.366 . S
C3751 C3752 1.414 . S
C3751 C3754 1.499 . S
C3752 H3732 0.950 . S
C3752 C3751 1.414 . S
C3752 C3753 1.374 . S
C3753 H3733 0.950 . S
C3753 C3749 1.385 . S
C3753 C3752 1.374 . S
C3754 C3751 1.499 . S
C3754 C3755 1.373 . S
C3754 C3756 1.389 . S
C3755 H3734 0.950 . S
C3755 C3754 1.373 . S
C3755 C3771 1.377 . S
C3756 C3754 1.389 . S
C3756 C3757 1.524 . S
C3756 C3770 1.377 . S
C3757 C3756 1.524 . S
C3757 C3758 1.397 . S
C3757 C3762 1.363 . S
C3758 H3735 0.950 . S
C3758 C3757 1.397 . S
C3758 C3759 1.334 . S
C3759 H3736 0.950 . S
C3759 C3758 1.334 . S
C3759 C3760 1.287 . S
C3760 C3759 1.287 . S
C3760 C3761 1.524 . S
C3760 H3779 0.913 . S
C3761 H3737 0.950 . S
C3761 C3760 1.524 . S
C3761 C3762 1.415 . S
C3762 H3738 0.950 . S
C3762 C3757 1.363 . S
C3762 C3761 1.415 . S
C3763 H3739 0.951 . S
C3763 C3764 1.366 . S
C3763 C3765 1.388 . S
C3764 C3763 1.366 . S
C3764 C3768 1.385 . S
C3765 H3740 0.951 . S
C3765 C3763 1.388 . S
C3765 C3766 1.366 . S
C3766 C3765 1.366 . S
C3766 C3767 1.414 . S
C3766 C3769 1.499 . S
C3767 H3741 0.950 . S
C3767 C3766 1.414 . S
C3767 C3768 1.374 . S
C3768 H3742 0.950 . S
C3768 C3764 1.385 . S
C3768 C3767 1.374 . S
C3769 C3766 1.499 . S
C3769 C3770 1.373 . S
C3769 C3771 1.389 . S
C3770 H3743 0.950 . S
C3770 C3756 1.377 . S
C3770 C3769 1.373 . S
C3771 C3755 1.377 . S
C3771 C3769 1.389 . S
C3771 C3772 1.524 . S
C3772 C3771 1.524 . S
C3772 C3773 1.397 . S
C3772 C3777 1.363 1_554 S
C3773 H3744 0.950 . S
C3773 C3772 1.397 . S
C3773 C3774 1.319 1_554 S
C3774 H3745 0.944 1_556 S
C3774 C3773 1.319 1_556 S
C3774 C3775 1.309 . S
C3775 C3774 1.309 . S
C3775 C3776 1.524 . S
C3775 H3778 0.999 . S
C3776 H3746 0.950 . S
C3776 C3775 1.524 . S
C3776 C3777 1.415 . S
C3777 H3747 0.950 . S
C3777 C3772 1.363 1_556 S
C3777 C3776 1.415 . S
H3778 C3775 0.999 . S
H3779 C3760 0.913 . S
H3780 C3798 0.951 . S
H3781 C3800 0.951 . S
H3782 C3802 0.950 . S
H3783 C3803 0.950 . S
H3784 C3805 0.950 . S
H3785 C3808 0.950 . S
H3786 C3809 0.950 . S
H3787 C3811 0.950 . S
H3788 C3812 0.950 . S
H3789 C3813 0.951 . S
H3790 C3815 0.951 . S
H3791 C3817 0.950 . S
H3792 C3818 0.950 . S
H3793 C3820 0.950 . S
H3794 C3823 0.950 . S
H3795 C3824 0.950 . S
H3796 C3826 0.950 . S
H3797 C3827 0.950 . S
C3798 H3780 0.951 . S
C3798 C3799 1.366 . S
C3798 C3800 1.388 . S
C3799 C3798 1.366 . S
C3799 C3803 1.385 . S
C3800 H3781 0.951 . S
C3800 C3798 1.388 . S
C3800 C3801 1.366 . S
C3801 C3800 1.366 . S
C3801 C3802 1.414 . S
C3801 C3804 1.499 . S
C3802 H3782 0.950 . S
C3802 C3801 1.414 . S
C3802 C3803 1.374 . S
C3803 H3783 0.950 . S
C3803 C3799 1.385 . S
C3803 C3802 1.374 . S
C3804 C3801 1.499 . S
C3804 C3805 1.373 . S
C3804 C3806 1.389 . S
C3805 H3784 0.950 . S
C3805 C3804 1.373 . S
C3805 C3821 1.377 . S
C3806 C3804 1.389 . S
C3806 C3807 1.524 . S
C3806 C3820 1.377 . S
C3807 C3806 1.524 . S
C3807 C3808 1.397 . S
C3807 C3812 1.363 . S
C3808 H3785 0.950 . S
C3808 C3807 1.397 . S
C3808 C3809 1.334 . S
C3809 H3786 0.950 . S
C3809 C3808 1.334 . S
C3809 C3810 1.287 . S
C3810 C3809 1.287 . S
C3810 C3811 1.524 . S
C3810 H3829 0.913 . S
C3811 H3787 0.950 . S
C3811 C3810 1.524 . S
C3811 C3812 1.415 . S
C3812 H3788 0.950 . S
C3812 C3807 1.363 . S
C3812 C3811 1.415 . S
C3813 H3789 0.951 . S
C3813 C3814 1.366 . S
C3813 C3815 1.388 . S
C3814 C3813 1.366 . S
C3814 C3818 1.385 . S
C3815 H3790 0.951 . S
C3815 C3813 1.388 . S
C3815 C3816 1.366 . S
C3816 C3815 1.366 . S
C3816 C3817 1.414 . S
C3816 C3819 1.499 . S
C3817 H3791 0.950 . S
C3817 C3816 1.414 . S
C3817 C3818 1.374 . S
C3818 H3792 0.950 . S
C3818 C3814 1.385 . S
C3818 C3817 1.374 . S
C3819 C3816 1.499 . S
C3819 C3820 1.373 . S
C3819 C3821 1.389 . S
C3820 H3793 0.950 . S
C3820 C3806 1.377 . S
C3820 C3819 1.373 . S
C3821 C3805 1.377 . S
C3821 C3819 1.389 . S
C3821 C3822 1.524 . S
C3822 C3821 1.524 . S
C3822 C3823 1.397 . S
C3822 C3827 1.363 . S
C3823 H3794 0.950 . S
C3823 C3822 1.397 . S
C3823 C3824 1.334 . S
C3824 H3795 0.950 . S
C3824 C3823 1.334 . S
C3824 C3825 1.287 . S
C3825 C3824 1.287 . S
C3825 C3826 1.524 . S
C3825 H3828 0.999 . S
C3826 H3796 0.950 . S
C3826 C3825 1.524 . S
C3826 C3827 1.415 . S
C3827 H3797 0.950 . S
C3827 C3822 1.363 . S
C3827 C3826 1.415 . S
H3828 C3825 0.999 . S
H3829 C3810 0.913 . S
H3830 C3848 0.951 . S
H3831 C3850 0.951 . S
H3832 C3852 0.950 . S
H3833 C3853 0.950 . S
H3834 C3855 0.950 . S
H3835 C3858 0.950 . S
H3836 C3859 0.950 . S
H3837 C3861 0.950 . S
H3838 C3862 0.950 . S
H3839 C3863 0.951 . S
H3840 C3865 0.951 . S
H3841 C3867 0.950 . S
H3842 C3868 0.950 . S
H3843 C3870 0.950 . S
H3844 C3873 0.950 . S
H3845 C3874 0.950 . S
H3846 C3876 0.950 . S
H3847 C3877 0.950 . S
C3848 H3830 0.951 . S
C3848 C3849 1.366 . S
C3848 C3850 1.388 . S
C3849 C3848 1.366 . S
C3849 C3853 1.385 . S
C3850 H3831 0.951 . S
C3850 C3848 1.388 . S
C3850 C3851 1.366 . S
C3851 C3850 1.366 . S
C3851 C3852 1.414 . S
C3851 C3854 1.499 . S
C3852 H3832 0.950 . S
C3852 C3851 1.414 . S
C3852 C3853 1.374 . S
C3853 H3833 0.950 . S
C3853 C3849 1.385 . S
C3853 C3852 1.374 . S
C3854 C3851 1.499 . S
C3854 C3855 1.373 . S
C3854 C3856 1.389 . S
C3855 H3834 0.950 . S
C3855 C3854 1.373 . S
C3855 C3871 1.377 . S
C3856 C3854 1.389 . S
C3856 C3857 1.524 . S
C3856 C3870 1.377 . S
C3857 C3856 1.524 . S
C3857 C3858 1.397 . S
C3857 C3862 1.363 . S
C3858 H3835 0.950 . S
C3858 C3857 1.397 . S
C3858 C3859 1.334 . S
C3859 H3836 0.950 . S
C3859 C3858 1.334 . S
C3859 C3860 1.287 . S
C3860 C3859 1.287 . S
C3860 C3861 1.524 . S
C3860 H3879 0.913 . S
C3861 H3837 0.950 . S
C3861 C3860 1.524 . S
C3861 C3862 1.415 . S
C3862 H3838 0.950 . S
C3862 C3857 1.363 . S
C3862 C3861 1.415 . S
C3863 H3839 0.951 . S
C3863 C3864 1.366 . S
C3863 C3865 1.388 . S
C3864 C3863 1.366 . S
C3864 C3868 1.385 . S
C3865 H3840 0.951 . S
C3865 C3863 1.388 . S
C3865 C3866 1.366 . S
C3866 C3865 1.366 . S
C3866 C3867 1.414 . S
C3866 C3869 1.499 . S
C3867 H3841 0.950 . S
C3867 C3866 1.414 . S
C3867 C3868 1.374 . S
C3868 H3842 0.950 . S
C3868 C3864 1.385 . S
C3868 C3867 1.374 . S
C3869 C3866 1.499 . S
C3869 C3870 1.373 . S
C3869 C3871 1.389 . S
C3870 H3843 0.950 . S
C3870 C3856 1.377 . S
C3870 C3869 1.373 . S
C3871 C3855 1.377 . S
C3871 C3869 1.389 . S
C3871 C3872 1.524 . S
C3872 C3871 1.524 . S
C3872 C3873 1.397 . S
C3872 C3877 1.363 . S
C3873 H3844 0.950 . S
C3873 C3872 1.397 . S
C3873 C3874 1.334 . S
C3874 H3845 0.950 . S
C3874 C3873 1.334 . S
C3874 C3875 1.287 . S
C3875 C3874 1.287 . S
C3875 C3876 1.524 . S
C3875 H3878 0.999 . S
C3876 H3846 0.950 . S
C3876 C3875 1.524 . S
C3876 C3877 1.415 . S
C3877 H3847 0.950 . S
C3877 C3872 1.363 . S
C3877 C3876 1.415 . S
H3878 C3875 0.999 . S
H3879 C3860 0.913 . S
H3880 C3898 0.951 . S
H3881 C3900 0.951 . S
H3882 C3902 0.950 . S
H3883 C3903 0.950 . S
H3884 C3905 0.950 . S
H3885 C3908 0.950 . S
H3886 C3909 0.950 . S
H3887 C3911 0.950 . S
H3888 C3912 0.950 . S
H3889 C3913 0.951 . S
H3890 C3915 0.951 . S
H3891 C3917 0.950 . S
H3892 C3918 0.950 . S
H3893 C3920 0.950 . S
H3894 C3923 0.950 . S
H3895 C3924 0.950 . S
H3896 C3926 0.950 . S
H3897 C3927 0.950 . S
C3898 H3880 0.951 . S
C3898 C3899 1.366 1_565 S
C3898 C3900 1.388 . S
C3899 C3898 1.366 1_545 S
C3899 C3903 1.385 . S
C3900 H3881 0.951 . S
C3900 C3898 1.388 . S
C3900 C3901 1.366 . S
C3901 C3900 1.366 . S
C3901 C3902 1.414 . S
C3901 C3904 1.499 . S
C3902 H3882 0.950 . S
C3902 C3901 1.414 . S
C3902 C3903 1.374 1_565 S
C3903 H3883 0.950 . S
C3903 C3899 1.385 . S
C3903 C3902 1.374 1_545 S
C3904 C3901 1.499 . S
C3904 C3905 1.373 . S
C3904 C3906 1.389 . S
C3905 H3884 0.950 . S
C3905 C3904 1.373 . S
C3905 C3921 1.377 . S
C3906 C3904 1.389 . S
C3906 C3907 1.524 . S
C3906 C3920 1.377 . S
C3907 C3906 1.524 . S
C3907 C3908 1.397 1_565 S
C3907 C3912 1.363 . S
C3908 H3885 0.950 . S
C3908 C3907 1.397 1_545 S
C3908 C3909 1.334 . S
C3909 H3886 0.950 . S
C3909 C3908 1.334 . S
C3909 C3910 1.287 . S
C3910 C3909 1.287 . S
C3910 C3911 1.524 1_545 S
C3910 H3929 0.913 . S
C3911 H3887 0.950 . S
C3911 C3910 1.524 1_565 S
C3911 C3912 1.415 . S
C3912 H3888 0.950 . S
C3912 C3907 1.363 . S
C3912 C3911 1.415 . S
C3913 H3889 0.951 . S
C3913 C3914 1.366 . S
C3913 C3915 1.388 . S
C3914 C3913 1.366 . S
C3914 C3918 1.385 . S
C3915 H3890 0.951 . S
C3915 C3913 1.388 . S
C3915 C3916 1.366 . S
C3916 C3915 1.366 . S
C3916 C3917 1.414 . S
C3916 C3919 1.499 . S
C3917 H3891 0.950 . S
C3917 C3916 1.414 . S
C3917 C3918 1.374 . S
C3918 H3892 0.950 . S
C3918 C3914 1.385 . S
C3918 C3917 1.374 . S
C3919 C3916 1.499 . S
C3919 C3920 1.373 . S
C3919 C3921 1.389 . S
C3920 H3893 0.950 . S
C3920 C3906 1.377 . S
C3920 C3919 1.373 . S
C3921 C3905 1.377 . S
C3921 C3919 1.389 . S
C3921 C3922 1.524 . S
C3922 C3921 1.524 . S
C3922 C3923 1.397 . S
C3922 C3927 1.363 . S
C3923 H3894 0.950 . S
C3923 C3922 1.397 . S
C3923 C3924 1.334 . S
C3924 H3895 0.950 . S
C3924 C3923 1.334 . S
C3924 C3925 1.287 . S
C3925 C3924 1.287 . S
C3925 C3926 1.524 . S
C3925 H3928 0.999 . S
C3926 H3896 0.950 . S
C3926 C3925 1.524 . S
C3926 C3927 1.415 . S
C3927 H3897 0.950 . S
C3927 C3922 1.363 . S
C3927 C3926 1.415 . S
H3928 C3925 0.999 . S
H3929 C3910 0.913 . S
H3930 C3948 0.951 . S
H3931 C3950 0.951 . S
H3932 C3952 0.950 . S
H3933 C3953 0.950 . S
H3934 C3955 0.950 . S
H3935 C3958 0.950 . S
H3936 C3959 0.950 . S
H3937 C3961 0.950 . S
H3938 C3962 0.950 . S
H3939 C3963 0.951 1_545 S
H3940 C3965 0.951 . S
H3941 C3967 0.950 . S
H3942 C3968 0.950 . S
H3943 C3970 0.950 . S
H3944 C3973 0.950 . S
H3945 C3974 0.948 . S
H3946 C3976 0.950 . S
H3947 C3977 0.944 . S
C3948 H3930 0.951 . S
C3948 C3949 1.366 . S
C3948 C3950 1.388 . S
C3949 C3948 1.366 . S
C3949 C3953 1.385 . S
C3950 H3931 0.951 . S
C3950 C3948 1.388 . S
C3950 C3951 1.366 . S
C3951 C3950 1.366 . S
C3951 C3952 1.414 . S
C3951 C3954 1.499 . S
C3952 H3932 0.950 . S
C3952 C3951 1.414 . S
C3952 C3953 1.374 . S
C3953 H3933 0.950 . S
C3953 C3949 1.385 . S
C3953 C3952 1.374 . S
C3954 C3951 1.499 . S
C3954 C3955 1.373 . S
C3954 C3956 1.389 . S
C3955 H3934 0.950 . S
C3955 C3954 1.373 . S
C3955 C3971 1.377 . S
C3956 C3954 1.389 . S
C3956 C3957 1.524 . S
C3956 C3970 1.377 . S
C3957 C3956 1.524 . S
C3957 C3958 1.397 . S
C3957 C3962 1.363 . S
C3958 H3935 0.950 . S
C3958 C3957 1.397 . S
C3958 C3959 1.334 . S
C3959 H3936 0.950 . S
C3959 C3958 1.334 . S
C3959 C3960 1.287 . S
C3960 C3959 1.287 . S
C3960 C3961 1.524 . S
C3960 H3979 0.913 . S
C3961 H3937 0.950 . S
C3961 C3960 1.524 . S
C3961 C3962 1.415 . S
C3962 H3938 0.950 . S
C3962 C3957 1.363 . S
C3962 C3961 1.415 . S
C3963 H3939 0.951 1_565 S
C3963 C3964 1.366 . S
C3963 C3965 1.388 . S
C3964 C3963 1.366 . S
C3964 C3968 1.385 . S
C3965 H3940 0.951 . S
C3965 C3963 1.388 . S
C3965 C3966 1.366 . S
C3966 C3965 1.366 . S
C3966 C3967 1.414 . S
C3966 C3969 1.499 . S
C3967 H3941 0.950 . S
C3967 C3966 1.414 . S
C3967 C3968 1.374 . S
C3968 H3942 0.950 . S
C3968 C3964 1.385 . S
C3968 C3967 1.374 . S
C3969 C3966 1.499 . S
C3969 C3970 1.373 . S
C3969 C3971 1.389 . S
C3970 H3943 0.950 . S
C3970 C3956 1.377 . S
C3970 C3969 1.373 . S
C3971 C3955 1.377 . S
C3971 C3969 1.389 . S
C3971 C3972 1.524 . S
C3972 C3971 1.524 . S
C3972 C3973 1.397 . S
C3972 C3977 1.368 . S
C3973 H3944 0.950 . S
C3973 C3972 1.397 . S
C3973 C3974 1.348 . S
C3974 H3945 0.948 . S
C3974 C3973 1.348 . S
C3974 C3975 1.276 1_565 S
C3975 C3974 1.276 1_545 S
C3975 C3976 1.524 . S
C3975 H3978 0.999 . S
C3976 H3946 0.950 . S
C3976 C3975 1.524 . S
C3976 C3977 1.408 1_545 S
C3977 H3947 0.944 . S
C3977 C3972 1.368 . S
C3977 C3976 1.408 1_565 S
H3978 C3975 0.999 . S
H3979 C3960 0.913 . S
H3980 C3998 0.951 . S
H3981 C4000 0.951 . S
H3982 C4002 0.950 . S
H3983 C4003 0.950 . S
H3984 C4005 0.950 . S
H3985 C4008 0.950 . S
H3986 C4009 0.950 . S
H3987 C4011 0.950 . S
H3988 C4012 0.950 . S
H3989 C4013 0.951 . S
H3990 C4015 0.951 . S
H3991 C4017 0.950 . S
H3992 C4018 0.950 . S
H3993 C4020 0.950 . S
H3994 C4023 0.950 . S
H3995 C4024 0.950 . S
H3996 C4026 0.950 . S
H3997 C4027 0.950 . S
C3998 H3980 0.951 . S
C3998 C3999 1.366 . S
C3998 C4000 1.388 . S
C3999 C3998 1.366 . S
C3999 C4003 1.385 . S
C4000 H3981 0.951 . S
C4000 C3998 1.388 . S
C4000 C4001 1.366 . S
C4001 C4000 1.366 . S
C4001 C4002 1.414 . S
C4001 C4004 1.499 . S
C4002 H3982 0.950 . S
C4002 C4001 1.414 . S
C4002 C4003 1.374 . S
C4003 H3983 0.950 . S
C4003 C3999 1.385 . S
C4003 C4002 1.374 . S
C4004 C4001 1.499 . S
C4004 C4005 1.373 . S
C4004 C4006 1.389 . S
C4005 H3984 0.950 . S
C4005 C4004 1.373 . S
C4005 C4021 1.377 . S
C4006 C4004 1.389 . S
C4006 C4007 1.524 . S
C4006 C4020 1.377 . S
C4007 C4006 1.524 . S
C4007 C4008 1.397 . S
C4007 C4012 1.363 . S
C4008 H3985 0.950 . S
C4008 C4007 1.397 . S
C4008 C4009 1.334 . S
C4009 H3986 0.950 . S
C4009 C4008 1.334 . S
C4009 C4010 1.287 . S
C4010 C4009 1.287 . S
C4010 C4011 1.524 . S
C4010 H4029 0.913 . S
C4011 H3987 0.950 . S
C4011 C4010 1.524 . S
C4011 C4012 1.415 . S
C4012 H3988 0.950 . S
C4012 C4007 1.363 . S
C4012 C4011 1.415 . S
C4013 H3989 0.951 . S
C4013 C4014 1.366 . S
C4013 C4015 1.388 . S
C4014 C4013 1.366 . S
C4014 C4018 1.385 . S
C4015 H3990 0.951 . S
C4015 C4013 1.388 . S
C4015 C4016 1.366 . S
C4016 C4015 1.366 . S
C4016 C4017 1.414 . S
C4016 C4019 1.499 . S
C4017 H3991 0.950 . S
C4017 C4016 1.414 . S
C4017 C4018 1.374 . S
C4018 H3992 0.950 . S
C4018 C4014 1.385 . S
C4018 C4017 1.374 . S
C4019 C4016 1.499 . S
C4019 C4020 1.373 . S
C4019 C4021 1.389 . S
C4020 H3993 0.950 . S
C4020 C4006 1.377 . S
C4020 C4019 1.373 . S
C4021 C4005 1.377 . S
C4021 C4019 1.389 . S
C4021 C4022 1.524 . S
C4022 C4021 1.524 . S
C4022 C4023 1.397 . S
C4022 C4027 1.363 . S
C4023 H3994 0.950 . S
C4023 C4022 1.397 . S
C4023 C4024 1.334 . S
C4024 H3995 0.950 . S
C4024 C4023 1.334 . S
C4024 C4025 1.287 . S
C4025 C4024 1.287 . S
C4025 C4026 1.524 . S
C4025 H4028 0.999 . S
C4026 H3996 0.950 . S
C4026 C4025 1.524 . S
C4026 C4027 1.415 . S
C4027 H3997 0.950 . S
C4027 C4022 1.363 . S
C4027 C4026 1.415 . S
H4028 C4025 0.999 . S
H4029 C4010 0.913 . S
H4030 C4048 0.951 . S
H4031 C4050 0.951 . S
H4032 C4052 0.950 . S
H4033 C4053 0.950 . S
H4034 C4055 0.950 . S
H4035 C4058 0.950 . S
H4036 C4059 0.950 . S
H4037 C4061 0.950 . S
H4038 C4062 0.950 . S
H4039 C4063 0.951 . S
H4040 C4065 0.951 . S
H4041 C4067 0.950 . S
H4042 C4068 0.950 . S
H4043 C4070 0.950 . S
H4044 C4073 0.950 . S
H4045 C4074 0.950 . S
H4046 C4076 0.950 . S
H4047 C4077 0.950 . S
C4048 H4030 0.951 . S
C4048 C4049 1.366 . S
C4048 C4050 1.388 . S
C4049 C4048 1.366 . S
C4049 C4053 1.385 . S
C4050 H4031 0.951 . S
C4050 C4048 1.388 . S
C4050 C4051 1.366 . S
C4051 C4050 1.366 . S
C4051 C4052 1.414 . S
C4051 C4054 1.499 . S
C4052 H4032 0.950 . S
C4052 C4051 1.414 . S
C4052 C4053 1.374 . S
C4053 H4033 0.950 . S
C4053 C4049 1.385 . S
C4053 C4052 1.374 . S
C4054 C4051 1.499 . S
C4054 C4055 1.373 . S
C4054 C4056 1.389 . S
C4055 H4034 0.950 . S
C4055 C4054 1.373 . S
C4055 C4071 1.377 . S
C4056 C4054 1.389 . S
C4056 C4057 1.524 . S
C4056 C4070 1.377 . S
C4057 C4056 1.524 . S
C4057 C4058 1.397 . S
C4057 C4062 1.363 . S
C4058 H4035 0.950 . S
C4058 C4057 1.397 . S
C4058 C4059 1.334 . S
C4059 H4036 0.950 . S
C4059 C4058 1.334 . S
C4059 C4060 1.287 . S
C4060 C4059 1.287 . S
C4060 C4061 1.524 . S
C4060 H4079 0.913 . S
C4061 H4037 0.950 . S
C4061 C4060 1.524 . S
C4061 C4062 1.415 . S
C4062 H4038 0.950 . S
C4062 C4057 1.363 . S
C4062 C4061 1.415 . S
C4063 H4039 0.951 . S
C4063 C4064 1.366 . S
C4063 C4065 1.388 . S
C4064 C4063 1.366 . S
C4064 C4068 1.385 . S
C4065 H4040 0.951 . S
C4065 C4063 1.388 . S
C4065 C4066 1.366 . S
C4066 C4065 1.366 . S
C4066 C4067 1.414 . S
C4066 C4069 1.499 . S
C4067 H4041 0.950 . S
C4067 C4066 1.414 . S
C4067 C4068 1.374 . S
C4068 H4042 0.950 . S
C4068 C4064 1.385 . S
C4068 C4067 1.374 . S
C4069 C4066 1.499 . S
C4069 C4070 1.373 . S
C4069 C4071 1.389 . S
C4070 H4043 0.950 . S
C4070 C4056 1.377 . S
C4070 C4069 1.373 . S
C4071 C4055 1.377 . S
C4071 C4069 1.389 . S
C4071 C4072 1.524 . S
C4072 C4071 1.524 . S
C4072 C4073 1.397 . S
C4072 C4077 1.363 . S
C4073 H4044 0.950 . S
C4073 C4072 1.397 . S
C4073 C4074 1.334 . S
C4074 H4045 0.950 . S
C4074 C4073 1.334 . S
C4074 C4075 1.287 . S
C4075 C4074 1.287 . S
C4075 C4076 1.524 . S
C4075 H4078 0.999 . S
C4076 H4046 0.950 . S
C4076 C4075 1.524 . S
C4076 C4077 1.415 . S
C4077 H4047 0.950 . S
C4077 C4072 1.363 . S
C4077 C4076 1.415 . S
H4078 C4075 0.999 . S
H4079 C4060 0.913 . S
H4080 C4098 0.951 . S
H4081 C4100 0.951 . S
H4082 C4102 0.950 . S
H4083 C4103 0.950 . S
H4084 C4105 0.950 . S
H4085 C4108 0.950 . S
H4086 C4109 0.950 . S
H4087 C4111 0.950 . S
H4088 C4112 0.950 . S
H4089 C4113 0.951 . S
H4090 C4115 0.951 . S
H4091 C4117 0.950 . S
H4092 C4118 0.950 . S
H4093 C4120 0.950 . S
H4094 C4123 0.950 . S
H4095 C4124 0.950 . S
H4096 C4126 0.950 . S
H4097 C4127 0.950 . S
C4098 H4080 0.951 . S
C4098 C4099 1.366 . S
C4098 C4100 1.388 . S
C4099 C4098 1.366 . S
C4099 C4103 1.385 . S
C4100 H4081 0.951 . S
C4100 C4098 1.388 . S
C4100 C4101 1.366 . S
C4101 C4100 1.366 . S
C4101 C4102 1.414 . S
C4101 C4104 1.499 . S
C4102 H4082 0.950 . S
C4102 C4101 1.414 . S
C4102 C4103 1.374 . S
C4103 H4083 0.950 . S
C4103 C4099 1.385 . S
C4103 C4102 1.374 . S
C4104 C4101 1.499 . S
C4104 C4105 1.373 . S
C4104 C4106 1.389 . S
C4105 H4084 0.950 . S
C4105 C4104 1.373 . S
C4105 C4121 1.377 . S
C4106 C4104 1.389 . S
C4106 C4107 1.524 . S
C4106 C4120 1.377 . S
C4107 C4106 1.524 . S
C4107 C4108 1.397 . S
C4107 C4112 1.363 . S
C4108 H4085 0.950 . S
C4108 C4107 1.397 . S
C4108 C4109 1.334 . S
C4109 H4086 0.950 . S
C4109 C4108 1.334 . S
C4109 C4110 1.287 . S
C4110 C4109 1.287 . S
C4110 C4111 1.524 . S
C4110 H4129 0.913 . S
C4111 H4087 0.950 . S
C4111 C4110 1.524 . S
C4111 C4112 1.415 . S
C4112 H4088 0.950 . S
C4112 C4107 1.363 . S
C4112 C4111 1.415 . S
C4113 H4089 0.951 . S
C4113 C4114 1.366 . S
C4113 C4115 1.388 . S
C4114 C4113 1.366 . S
C4114 C4118 1.385 . S
C4115 H4090 0.951 . S
C4115 C4113 1.388 . S
C4115 C4116 1.366 . S
C4116 C4115 1.366 . S
C4116 C4117 1.414 . S
C4116 C4119 1.499 . S
C4117 H4091 0.950 . S
C4117 C4116 1.414 . S
C4117 C4118 1.374 . S
C4118 H4092 0.950 . S
C4118 C4114 1.385 . S
C4118 C4117 1.374 . S
C4119 C4116 1.499 . S
C4119 C4120 1.373 . S
C4119 C4121 1.389 . S
C4120 H4093 0.950 . S
C4120 C4106 1.377 . S
C4120 C4119 1.373 . S
C4121 C4105 1.377 . S
C4121 C4119 1.389 . S
C4121 C4122 1.524 . S
C4122 C4121 1.524 . S
C4122 C4123 1.397 . S
C4122 C4127 1.363 . S
C4123 H4094 0.950 . S
C4123 C4122 1.397 . S
C4123 C4124 1.334 . S
C4124 H4095 0.950 . S
C4124 C4123 1.334 . S
C4124 C4125 1.287 . S
C4125 C4124 1.287 . S
C4125 C4126 1.524 . S
C4125 H4128 0.999 . S
C4126 H4096 0.950 . S
C4126 C4125 1.524 . S
C4126 C4127 1.415 . S
C4127 H4097 0.950 . S
C4127 C4122 1.363 . S
C4127 C4126 1.415 . S
H4128 C4125 0.999 . S
H4129 C4110 0.913 . S
H4130 C4148 0.951 . S
H4131 C4150 0.951 . S
H4132 C4152 0.950 . S
H4133 C4153 0.950 . S
H4134 C4155 0.950 . S
H4135 C4158 0.950 . S
H4136 C4159 0.950 . S
H4137 C4161 0.950 . S
H4138 C4162 0.950 . S
H4139 C4163 0.951 . S
H4140 C4165 0.951 . S
H4141 C4167 0.950 . S
H4142 C4168 0.950 . S
H4143 C4170 0.950 . S
H4144 C4173 0.950 . S
H4145 C4174 0.950 . S
H4146 C4176 0.950 . S
H4147 C4177 0.950 . S
C4148 H4130 0.951 . S
C4148 C4149 1.366 . S
C4148 C4150 1.388 . S
C4149 C4148 1.366 . S
C4149 C4153 1.385 . S
C4150 H4131 0.951 . S
C4150 C4148 1.388 . S
C4150 C4151 1.366 . S
C4151 C4150 1.366 . S
C4151 C4152 1.414 . S
C4151 C4154 1.499 . S
C4152 H4132 0.950 . S
C4152 C4151 1.414 . S
C4152 C4153 1.374 . S
C4153 H4133 0.950 . S
C4153 C4149 1.385 . S
C4153 C4152 1.374 . S
C4154 C4151 1.499 . S
C4154 C4155 1.373 . S
C4154 C4156 1.389 . S
C4155 H4134 0.950 . S
C4155 C4154 1.373 . S
C4155 C4171 1.377 . S
C4156 C4154 1.389 . S
C4156 C4157 1.524 . S
C4156 C4170 1.377 . S
C4157 C4156 1.524 . S
C4157 C4158 1.397 . S
C4157 C4162 1.363 . S
C4158 H4135 0.950 . S
C4158 C4157 1.397 . S
C4158 C4159 1.334 . S
C4159 H4136 0.950 . S
C4159 C4158 1.334 . S
C4159 C4160 1.287 . S
C4160 C4159 1.287 . S
C4160 C4161 1.524 . S
C4160 H4179 0.913 . S
C4161 H4137 0.950 . S
C4161 C4160 1.524 . S
C4161 C4162 1.415 . S
C4162 H4138 0.950 . S
C4162 C4157 1.363 . S
C4162 C4161 1.415 . S
C4163 H4139 0.951 . S
C4163 C4164 1.366 . S
C4163 C4165 1.388 . S
C4164 C4163 1.366 . S
C4164 C4168 1.385 . S
C4165 H4140 0.951 . S
C4165 C4163 1.388 . S
C4165 C4166 1.366 . S
C4166 C4165 1.366 . S
C4166 C4167 1.414 . S
C4166 C4169 1.499 . S
C4167 H4141 0.950 . S
C4167 C4166 1.414 . S
C4167 C4168 1.374 . S
C4168 H4142 0.950 . S
C4168 C4164 1.385 . S
C4168 C4167 1.374 . S
C4169 C4166 1.499 . S
C4169 C4170 1.373 . S
C4169 C4171 1.389 . S
C4170 H4143 0.950 . S
C4170 C4156 1.377 . S
C4170 C4169 1.373 . S
C4171 C4155 1.377 . S
C4171 C4169 1.389 . S
C4171 C4172 1.524 . S
C4172 C4171 1.524 . S
C4172 C4173 1.397 . S
C4172 C4177 1.363 . S
C4173 H4144 0.950 . S
C4173 C4172 1.397 . S
C4173 C4174 1.334 . S
C4174 H4145 0.950 . S
C4174 C4173 1.334 . S
C4174 C4175 1.287 . S
C4175 C4174 1.287 . S
C4175 C4176 1.524 . S
C4175 H4178 0.999 . S
C4176 H4146 0.950 . S
C4176 C4175 1.524 . S
C4176 C4177 1.415 . S
C4177 H4147 0.950 . S
C4177 C4172 1.363 . S
C4177 C4176 1.415 . S
H4178 C4175 0.999 . S
H4179 C4160 0.913 . S
H4180 C4198 0.951 . S
H4181 C4200 0.951 . S
H4182 C4202 0.950 . S
H4183 C4203 0.923 1_655 S
H4184 C4205 0.950 . S
H4185 C4208 0.950 . S
H4186 C4209 0.950 . S
H4187 C4211 0.950 . S
H4188 C4212 0.950 . S
H4189 C4213 0.951 . S
H4190 C4215 0.951 . S
H4191 C4217 0.950 . S
H4192 C4218 0.950 . S
H4193 C4220 0.950 . S
H4194 C4223 0.950 . S
H4195 C4224 0.950 . S
H4196 C4226 0.950 . S
H4197 C4227 0.950 . S
C4198 H4180 0.951 . S
C4198 C4199 1.366 . S
C4198 C4200 1.388 . S
C4199 C4198 1.366 . S
C4199 C4203 1.385 . S
C4200 H4181 0.951 . S
C4200 C4198 1.388 . S
C4200 C4201 1.366 . S
C4201 C4200 1.366 . S
C4201 C4202 1.414 . S
C4201 C4204 1.499 . S
C4202 H4182 0.950 . S
C4202 C4201 1.414 . S
C4202 C4203 1.374 . S
C4203 H4183 0.923 1_455 S
C4203 C4199 1.385 . S
C4203 C4202 1.374 . S
C4204 C4201 1.499 . S
C4204 C4205 1.373 . S
C4204 C4206 1.403 . S
C4205 H4184 0.950 . S
C4205 C4204 1.373 . S
C4205 C4221 1.377 . S
C4206 C4204 1.403 . S
C4206 C4207 1.510 1_556 S
C4206 C4220 1.376 1_556 S
C4207 C4206 1.510 1_554 S
C4207 C4208 1.397 . S
C4207 C4212 1.363 . S
C4208 H4185 0.950 . S
C4208 C4207 1.397 . S
C4208 C4209 1.334 . S
C4209 H4186 0.950 . S
C4209 C4208 1.334 . S
C4209 C4210 1.287 . S
C4210 C4209 1.287 . S
C4210 C4211 1.524 . S
C4210 H4229 0.913 . S
C4211 H4187 0.950 . S
C4211 C4210 1.524 . S
C4211 C4212 1.415 . S
C4212 H4188 0.950 . S
C4212 C4207 1.363 . S
C4212 C4211 1.415 . S
C4213 H4189 0.951 . S
C4213 C4214 1.366 1_556 S
C4213 C4215 1.388 . S
C4214 C4213 1.366 1_554 S
C4214 C4218 1.385 . S
C4215 H4190 0.951 . S
C4215 C4213 1.388 . S
C4215 C4216 1.366 . S
C4216 C4215 1.366 . S
C4216 C4217 1.414 1_556 S
C4216 C4219 1.499 . S
C4217 H4191 0.950 . S
C4217 C4216 1.414 1_554 S
C4217 C4218 1.374 . S
C4218 H4192 0.950 . S
C4218 C4214 1.385 . S
C4218 C4217 1.374 . S
C4219 C4216 1.499 . S
C4219 C4220 1.373 1_556 S
C4219 C4221 1.389 . S
C4220 H4193 0.950 . S
C4220 C4206 1.376 1_554 S
C4220 C4219 1.373 1_554 S
C4221 C4205 1.377 . S
C4221 C4219 1.389 . S
C4221 C4222 1.524 . S
C4222 C4221 1.524 . S
C4222 C4223 1.397 . S
C4222 C4227 1.363 . S
C4223 H4194 0.950 . S
C4223 C4222 1.397 . S
C4223 C4224 1.334 . S
C4224 H4195 0.950 . S
C4224 C4223 1.334 . S
C4224 C4225 1.287 . S
C4225 C4224 1.287 . S
C4225 C4226 1.524 . S
C4225 H4228 0.999 . S
C4226 H4196 0.950 . S
C4226 C4225 1.524 . S
C4226 C4227 1.415 . S
C4227 H4197 0.950 . S
C4227 C4222 1.363 . S
C4227 C4226 1.415 . S
H4228 C4225 0.999 . S
H4229 C4210 0.913 . S
H4230 C4248 0.951 . S
H4231 C4250 0.951 . S
H4232 C4252 0.950 1_655 S
H4233 C4253 0.950 . S
H4234 C4255 0.950 . S
H4235 C4258 0.950 . S
H4236 C4259 0.950 . S
H4237 C4261 0.950 . S
H4238 C4262 0.950 . S
H4239 C4263 0.951 . S
H4240 C4265 0.951 . S
H4241 C4267 0.950 . S
H4242 C4268 0.950 . S
H4243 C4270 0.950 . S
H4244 C4273 0.950 . S
H4245 C4274 0.950 . S
H4246 C4276 0.950 . S
H4247 C4277 0.950 . S
C4248 H4230 0.951 . S
C4248 C4249 1.366 . S
C4248 C4250 1.388 . S
C4249 C4248 1.366 . S
C4249 C4253 1.385 . S
C4250 H4231 0.951 . S
C4250 C4248 1.388 . S
C4250 C4251 1.366 . S
C4251 C4250 1.366 . S
C4251 C4252 1.414 . S
C4251 C4254 1.499 1_455 S
C4252 H4232 0.950 1_455 S
C4252 C4251 1.414 . S
C4252 C4253 1.374 . S
C4253 H4233 0.950 . S
C4253 C4249 1.385 . S
C4253 C4252 1.374 . S
C4254 C4251 1.499 1_655 S
C4254 C4255 1.373 . S
C4254 C4256 1.389 . S
C4255 H4234 0.950 . S
C4255 C4254 1.373 . S
C4255 C4271 1.377 . S
C4256 C4254 1.389 . S
C4256 C4257 1.524 . S
C4256 C4270 1.377 . S
C4257 C4256 1.524 . S
C4257 C4258 1.397 . S
C4257 C4262 1.363 . S
C4258 H4235 0.950 . S
C4258 C4257 1.397 . S
C4258 C4259 1.334 . S
C4259 H4236 0.950 . S
C4259 C4258 1.334 . S
C4259 C4260 1.287 . S
C4260 C4259 1.287 . S
C4260 C4261 1.524 . S
C4260 H4279 0.913 . S
C4261 H4237 0.950 . S
C4261 C4260 1.524 . S
C4261 C4262 1.415 . S
C4262 H4238 0.950 . S
C4262 C4257 1.363 . S
C4262 C4261 1.415 . S
C4263 H4239 0.951 . S
C4263 C4264 1.366 . S
C4263 C4265 1.388 . S
C4264 C4263 1.366 . S
C4264 C4268 1.385 . S
C4265 H4240 0.951 . S
C4265 C4263 1.388 . S
C4265 C4266 1.366 . S
C4266 C4265 1.366 . S
C4266 C4267 1.414 . S
C4266 C4269 1.499 . S
C4267 H4241 0.950 . S
C4267 C4266 1.414 . S
C4267 C4268 1.374 . S
C4268 H4242 0.950 . S
C4268 C4264 1.385 . S
C4268 C4267 1.374 . S
C4269 C4266 1.499 . S
C4269 C4270 1.373 . S
C4269 C4271 1.389 . S
C4270 H4243 0.950 . S
C4270 C4256 1.377 . S
C4270 C4269 1.373 . S
C4271 C4255 1.377 . S
C4271 C4269 1.389 . S
C4271 C4272 1.524 . S
C4272 C4271 1.524 . S
C4272 C4273 1.397 . S
C4272 C4277 1.363 . S
C4273 H4244 0.950 . S
C4273 C4272 1.397 . S
C4273 C4274 1.334 . S
C4274 H4245 0.950 . S
C4274 C4273 1.334 . S
C4274 C4275 1.287 . S
C4275 C4274 1.287 . S
C4275 C4276 1.524 . S
C4275 H4278 0.999 . S
C4276 H4246 0.950 . S
C4276 C4275 1.524 . S
C4276 C4277 1.415 . S
C4277 H4247 0.950 . S
C4277 C4272 1.363 . S
C4277 C4276 1.415 . S
H4278 C4275 0.999 . S
H4279 C4260 0.913 . S
H4280 C4298 0.951 . S
H4281 C4300 0.951 . S
H4282 C4302 0.950 . S
H4283 C4303 0.950 . S
H4284 C4305 0.950 . S
H4285 C4308 0.950 . S
H4286 C4309 0.950 . S
H4287 C4311 0.950 . S
H4288 C4312 0.950 . S
H4289 C4313 0.951 . S
H4290 C4315 0.951 . S
H4291 C4317 0.950 . S
H4292 C4318 0.950 . S
H4293 C4320 0.950 . S
H4294 C4323 0.950 . S
H4295 C4324 0.950 . S
H4296 C4326 0.950 . S
H4297 C4327 0.950 . S
C4298 H4280 0.951 . S
C4298 C4299 1.366 . S
C4298 C4300 1.388 . S
C4299 C4298 1.366 . S
C4299 C4303 1.385 . S
C4300 H4281 0.951 . S
C4300 C4298 1.388 . S
C4300 C4301 1.366 . S
C4301 C4300 1.366 . S
C4301 C4302 1.414 . S
C4301 C4304 1.499 . S
C4302 H4282 0.950 . S
C4302 C4301 1.414 . S
C4302 C4303 1.374 . S
C4303 H4283 0.950 . S
C4303 C4299 1.385 . S
C4303 C4302 1.374 . S
C4304 C4301 1.499 . S
C4304 C4305 1.373 . S
C4304 C4306 1.389 . S
C4305 H4284 0.950 . S
C4305 C4304 1.373 . S
C4305 C4321 1.377 . S
C4306 C4304 1.389 . S
C4306 C4307 1.524 . S
C4306 C4320 1.377 . S
C4307 C4306 1.524 . S
C4307 C4308 1.397 . S
C4307 C4312 1.363 . S
C4308 H4285 0.950 . S
C4308 C4307 1.397 . S
C4308 C4309 1.334 . S
C4309 H4286 0.950 . S
C4309 C4308 1.334 . S
C4309 C4310 1.287 . S
C4310 C4309 1.287 . S
C4310 C4311 1.524 . S
C4310 H4329 0.913 . S
C4311 H4287 0.950 . S
C4311 C4310 1.524 . S
C4311 C4312 1.415 . S
C4312 H4288 0.950 . S
C4312 C4307 1.363 . S
C4312 C4311 1.415 . S
C4313 H4289 0.951 . S
C4313 C4314 1.366 . S
C4313 C4315 1.388 . S
C4314 C4313 1.366 . S
C4314 C4318 1.385 . S
C4315 H4290 0.951 . S
C4315 C4313 1.388 . S
C4315 C4316 1.366 . S
C4316 C4315 1.366 . S
C4316 C4317 1.414 . S
C4316 C4319 1.499 . S
C4317 H4291 0.950 . S
C4317 C4316 1.414 . S
C4317 C4318 1.374 . S
C4318 H4292 0.950 . S
C4318 C4314 1.385 . S
C4318 C4317 1.374 . S
C4319 C4316 1.499 . S
C4319 C4320 1.373 . S
C4319 C4321 1.389 . S
C4320 H4293 0.950 . S
C4320 C4306 1.377 . S
C4320 C4319 1.373 . S
C4321 C4305 1.377 . S
C4321 C4319 1.389 . S
C4321 C4322 1.524 . S
C4322 C4321 1.524 . S
C4322 C4323 1.397 . S
C4322 C4327 1.363 . S
C4323 H4294 0.950 . S
C4323 C4322 1.397 . S
C4323 C4324 1.334 . S
C4324 H4295 0.950 . S
C4324 C4323 1.334 . S
C4324 C4325 1.287 . S
C4325 C4324 1.287 . S
C4325 C4326 1.524 . S
C4325 H4328 0.999 . S
C4326 H4296 0.950 . S
C4326 C4325 1.524 . S
C4326 C4327 1.415 . S
C4327 H4297 0.950 . S
C4327 C4322 1.363 . S
C4327 C4326 1.415 . S
H4328 C4325 0.999 . S
H4329 C4310 0.913 . S
H4330 C4348 0.951 . S
H4331 C4350 0.951 . S
H4332 C4352 0.950 . S
H4333 C4353 0.950 . S
H4334 C4355 0.950 1_455 S
H4335 C4358 0.950 . S
H4336 C4359 0.950 1_455 S
H4337 C4361 0.950 . S
H4338 C4362 0.950 . S
H4339 C4363 0.951 . S
H4340 C4365 0.951 . S
H4341 C4367 0.950 . S
H4342 C4368 0.950 . S
H4343 C4370 0.950 . S
H4344 C4373 0.950 . S
H4345 C4374 0.950 . S
H4346 C4376 0.950 . S
H4347 C4377 0.950 . S
C4348 H4330 0.951 . S
C4348 C4349 1.366 . S
C4348 C4350 1.388 . S
C4349 C4348 1.366 . S
C4349 C4353 1.385 . S
C4350 H4331 0.951 . S
C4350 C4348 1.388 . S
C4350 C4351 1.366 . S
C4351 C4350 1.366 . S
C4351 C4352 1.414 . S
C4351 C4354 1.499 1_455 S
C4352 H4332 0.950 . S
C4352 C4351 1.414 . S
C4352 C4353 1.374 . S
C4353 H4333 0.950 . S
C4353 C4349 1.385 . S
C4353 C4352 1.374 . S
C4354 C4351 1.499 1_655 S
C4354 C4355 1.373 . S
C4354 C4356 1.389 . S
C4355 H4334 0.950 1_655 S
C4355 C4354 1.373 . S
C4355 C4371 1.377 . S
C4356 C4354 1.389 . S
C4356 C4357 1.524 . S
C4356 C4370 1.377 . S
C4357 C4356 1.524 . S
C4357 C4358 1.397 . S
C4357 C4362 1.363 . S
C4358 H4335 0.950 . S
C4358 C4357 1.397 . S
C4358 C4359 1.334 . S
C4359 H4336 0.950 1_655 S
C4359 C4358 1.334 . S
C4359 C4360 1.287 . S
C4360 C4359 1.287 . S
C4360 C4361 1.524 . S
C4360 H4379 0.913 . S
C4361 H4337 0.950 . S
C4361 C4360 1.524 . S
C4361 C4362 1.415 . S
C4362 H4338 0.950 . S
C4362 C4357 1.363 . S
C4362 C4361 1.415 . S
C4363 H4339 0.951 . S
C4363 C4364 1.366 . S
C4363 C4365 1.388 . S
C4364 C4363 1.366 . S
C4364 C4368 1.385 . S
C4365 H4340 0.951 . S
C4365 C4363 1.388 . S
C4365 C4366 1.366 . S
C4366 C4365 1.366 . S
C4366 C4367 1.414 . S
C4366 C4369 1.499 . S
C4367 H4341 0.950 . S
C4367 C4366 1.414 . S
C4367 C4368 1.374 . S
C4368 H4342 0.950 . S
C4368 C4364 1.385 . S
C4368 C4367 1.374 . S
C4369 C4366 1.499 . S
C4369 C4370 1.373 . S
C4369 C4371 1.389 . S
C4370 H4343 0.950 . S
C4370 C4356 1.377 . S
C4370 C4369 1.373 . S
C4371 C4355 1.377 . S
C4371 C4369 1.389 . S
C4371 C4372 1.524 . S
C4372 C4371 1.524 . S
C4372 C4373 1.397 . S
C4372 C4377 1.363 . S
C4373 H4344 0.950 . S
C4373 C4372 1.397 . S
C4373 C4374 1.334 . S
C4374 H4345 0.950 . S
C4374 C4373 1.334 . S
C4374 C4375 1.287 . S
C4375 C4374 1.287 . S
C4375 C4376 1.524 . S
C4375 H4378 0.999 . S
C4376 H4346 0.950 . S
C4376 C4375 1.524 . S
C4376 C4377 1.415 . S
C4377 H4347 0.950 . S
C4377 C4372 1.363 . S
C4377 C4376 1.415 . S
H4378 C4375 0.999 . S
H4379 C4360 0.913 . S
H4380 C4398 0.951 . S
H4381 C4400 0.951 . S
H4382 C4402 0.950 . S
H4383 C4403 0.950 . S
H4384 C4405 0.950 . S
H4385 C4408 0.950 . S
H4386 C4409 0.950 . S
H4387 C4411 0.950 . S
H4388 C4412 0.950 . S
H4389 C4413 0.951 . S
H4390 C4415 0.951 . S
H4391 C4417 0.950 . S
H4392 C4418 0.950 . S
H4393 C4420 0.950 . S
H4394 C4423 0.950 . S
H4395 C4424 0.950 . S
H4396 C4426 0.950 . S
H4397 C4427 0.950 . S
C4398 H4380 0.951 . S
C4398 C4399 1.366 1_455 S
C4398 C4400 1.388 . S
C4399 C4398 1.366 1_655 S
C4399 C4403 1.385 . S
C4400 H4381 0.951 . S
C4400 C4398 1.388 . S
C4400 C4401 1.366 . S
C4401 C4400 1.366 . S
C4401 C4402 1.414 1_455 S
C4401 C4404 1.499 . S
C4402 H4382 0.950 . S
C4402 C4401 1.414 1_655 S
C4402 C4403 1.374 . S
C4403 H4383 0.950 . S
C4403 C4399 1.385 . S
C4403 C4402 1.374 . S
C4404 C4401 1.499 . S
C4404 C4405 1.373 1_455 S
C4404 C4406 1.389 . S
C4405 H4384 0.950 . S
C4405 C4404 1.373 1_655 S
C4405 C4421 1.388 . S
C4406 C4404 1.389 . S
C4406 C4407 1.524 . S
C4406 C4420 1.377 . S
C4407 C4406 1.524 . S
C4407 C4408 1.397 . S
C4407 C4412 1.363 . S
C4408 H4385 0.950 . S
C4408 C4407 1.397 . S
C4408 C4409 1.334 . S
C4409 H4386 0.950 . S
C4409 C4408 1.334 . S
C4409 C4410 1.287 . S
C4410 C4409 1.287 . S
C4410 C4411 1.524 . S
C4410 H4429 0.913 . S
C4411 H4387 0.950 . S
C4411 C4410 1.524 . S
C4411 C4412 1.415 . S
C4412 H4388 0.950 . S
C4412 C4407 1.363 . S
C4412 C4411 1.415 . S
C4413 H4389 0.951 . S
C4413 C4414 1.366 . S
C4413 C4415 1.388 . S
C4414 C4413 1.366 . S
C4414 C4418 1.385 . S
C4415 H4390 0.951 . S
C4415 C4413 1.388 . S
C4415 C4416 1.366 . S
C4416 C4415 1.366 . S
C4416 C4417 1.414 . S
C4416 C4419 1.499 . S
C4417 H4391 0.950 . S
C4417 C4416 1.414 . S
C4417 C4418 1.374 . S
C4418 H4392 0.950 . S
C4418 C4414 1.385 . S
C4418 C4417 1.374 . S
C4419 C4416 1.499 . S
C4419 C4420 1.373 . S
C4419 C4421 1.367 1_455 S
C4420 H4393 0.950 . S
C4420 C4406 1.377 . S
C4420 C4419 1.373 . S
C4421 C4405 1.388 . S
C4421 C4419 1.367 1_655 S
C4421 C4422 1.537 . S
C4422 C4421 1.537 . S
C4422 C4423 1.397 . S
C4422 C4427 1.363 . S
C4423 H4394 0.950 . S
C4423 C4422 1.397 . S
C4423 C4424 1.334 . S
C4424 H4395 0.950 . S
C4424 C4423 1.334 . S
C4424 C4425 1.287 . S
C4425 C4424 1.287 . S
C4425 C4426 1.524 . S
C4425 H4428 0.999 . S
C4426 H4396 0.950 . S
C4426 C4425 1.524 . S
C4426 C4427 1.415 . S
C4427 H4397 0.950 . S
C4427 C4422 1.363 . S
C4427 C4426 1.415 . S
H4428 C4425 0.999 . S
H4429 C4410 0.913 . S
H4430 C4448 0.951 . S
H4431 C4450 0.951 . S
H4432 C4452 0.950 . S
H4433 C4453 0.950 . S
H4434 C4455 0.950 . S
H4435 C4458 0.950 . S
H4436 C4459 0.950 . S
H4437 C4461 0.950 . S
H4438 C4462 0.950 . S
H4439 C4463 0.951 . S
H4440 C4465 0.951 . S
H4441 C4467 0.950 . S
H4442 C4468 0.950 . S
H4443 C4470 0.950 . S
H4444 C4473 0.950 . S
H4445 C4474 0.950 . S
H4446 C4476 0.950 . S
H4447 C4477 0.950 . S
C4448 H4430 0.951 . S
C4448 C4449 1.366 . S
C4448 C4450 1.388 . S
C4449 C4448 1.366 . S
C4449 C4453 1.385 . S
C4450 H4431 0.951 . S
C4450 C4448 1.388 . S
C4450 C4451 1.366 . S
C4451 C4450 1.366 . S
C4451 C4452 1.414 . S
C4451 C4454 1.499 . S
C4452 H4432 0.950 . S
C4452 C4451 1.414 . S
C4452 C4453 1.374 . S
C4453 H4433 0.950 . S
C4453 C4449 1.385 . S
C4453 C4452 1.374 . S
C4454 C4451 1.499 . S
C4454 C4455 1.373 . S
C4454 C4456 1.389 . S
C4455 H4434 0.950 . S
C4455 C4454 1.373 . S
C4455 C4471 1.377 . S
C4456 C4454 1.389 . S
C4456 C4457 1.524 . S
C4456 C4470 1.377 . S
C4457 C4456 1.524 . S
C4457 C4458 1.397 . S
C4457 C4462 1.363 . S
C4458 H4435 0.950 . S
C4458 C4457 1.397 . S
C4458 C4459 1.334 . S
C4459 H4436 0.950 . S
C4459 C4458 1.334 . S
C4459 C4460 1.287 . S
C4460 C4459 1.287 . S
C4460 C4461 1.524 . S
C4460 H4479 0.913 . S
C4461 H4437 0.950 . S
C4461 C4460 1.524 . S
C4461 C4462 1.415 . S
C4462 H4438 0.950 . S
C4462 C4457 1.363 . S
C4462 C4461 1.415 . S
C4463 H4439 0.951 . S
C4463 C4464 1.366 . S
C4463 C4465 1.388 . S
C4464 C4463 1.366 . S
C4464 C4468 1.385 . S
C4465 H4440 0.951 . S
C4465 C4463 1.388 . S
C4465 C4466 1.366 . S
C4466 C4465 1.366 . S
C4466 C4467 1.414 . S
C4466 C4469 1.499 . S
C4467 H4441 0.950 . S
C4467 C4466 1.414 . S
C4467 C4468 1.374 . S
C4468 H4442 0.950 . S
C4468 C4464 1.385 . S
C4468 C4467 1.374 . S
C4469 C4466 1.499 . S
C4469 C4470 1.373 . S
C4469 C4471 1.389 . S
C4470 H4443 0.950 . S
C4470 C4456 1.377 . S
C4470 C4469 1.373 . S
C4471 C4455 1.377 . S
C4471 C4469 1.389 . S
C4471 C4472 1.524 . S
C4472 C4471 1.524 . S
C4472 C4473 1.397 . S
C4472 C4477 1.363 . S
C4473 H4444 0.950 . S
C4473 C4472 1.397 . S
C4473 C4474 1.334 . S
C4474 H4445 0.950 . S
C4474 C4473 1.334 . S
C4474 C4475 1.287 . S
C4475 C4474 1.287 . S
C4475 C4476 1.524 . S
C4475 H4478 0.999 . S
C4476 H4446 0.950 . S
C4476 C4475 1.524 . S
C4476 C4477 1.415 . S
C4477 H4447 0.950 . S
C4477 C4472 1.363 . S
C4477 C4476 1.415 . S
H4478 C4475 0.999 . S
H4479 C4460 0.913 . S
H4480 C4498 0.951 . S
H4481 C4500 0.951 . S
H4482 C4502 0.950 . S
H4483 C4503 0.950 . S
H4484 C4505 0.950 . S
H4485 C4508 0.950 . S
H4486 C4509 0.950 . S
H4487 C4511 0.950 . S
H4488 C4512 0.950 . S
H4489 C4513 0.951 . S
H4490 C4515 0.951 . S
H4491 C4517 0.950 . S
H4492 C4518 0.950 . S
H4493 C4520 0.950 . S
H4494 C4523 0.950 . S
H4495 C4524 0.950 . S
H4496 C4526 0.950 . S
H4497 C4527 0.950 . S
C4498 H4480 0.951 . S
C4498 C4499 1.366 . S
C4498 C4500 1.388 . S
C4499 C4498 1.366 . S
C4499 C4503 1.385 . S
C4500 H4481 0.951 . S
C4500 C4498 1.388 . S
C4500 C4501 1.366 . S
C4501 C4500 1.366 . S
C4501 C4502 1.414 . S
C4501 C4504 1.499 . S
C4502 H4482 0.950 . S
C4502 C4501 1.414 . S
C4502 C4503 1.374 . S
C4503 H4483 0.950 . S
C4503 C4499 1.385 . S
C4503 C4502 1.374 . S
C4504 C4501 1.499 . S
C4504 C4505 1.373 . S
C4504 C4506 1.389 . S
C4505 H4484 0.950 . S
C4505 C4504 1.373 . S
C4505 C4521 1.377 . S
C4506 C4504 1.389 . S
C4506 C4507 1.524 . S
C4506 C4520 1.377 . S
C4507 C4506 1.524 . S
C4507 C4508 1.397 . S
C4507 C4512 1.363 . S
C4508 H4485 0.950 . S
C4508 C4507 1.397 . S
C4508 C4509 1.334 . S
C4509 H4486 0.950 . S
C4509 C4508 1.334 . S
C4509 C4510 1.287 . S
C4510 C4509 1.287 . S
C4510 C4511 1.524 . S
C4510 H4529 0.913 . S
C4511 H4487 0.950 . S
C4511 C4510 1.524 . S
C4511 C4512 1.415 . S
C4512 H4488 0.950 . S
C4512 C4507 1.363 . S
C4512 C4511 1.415 . S
C4513 H4489 0.951 . S
C4513 C4514 1.366 . S
C4513 C4515 1.388 . S
C4514 C4513 1.366 . S
C4514 C4518 1.385 . S
C4515 H4490 0.951 . S
C4515 C4513 1.388 . S
C4515 C4516 1.366 . S
C4516 C4515 1.366 . S
C4516 C4517 1.414 . S
C4516 C4519 1.499 . S
C4517 H4491 0.950 . S
C4517 C4516 1.414 . S
C4517 C4518 1.374 . S
C4518 H4492 0.950 . S
C4518 C4514 1.385 . S
C4518 C4517 1.374 . S
C4519 C4516 1.499 . S
C4519 C4520 1.373 . S
C4519 C4521 1.389 . S
C4520 H4493 0.950 . S
C4520 C4506 1.377 . S
C4520 C4519 1.373 . S
C4521 C4505 1.377 . S
C4521 C4519 1.389 . S
C4521 C4522 1.524 . S
C4522 C4521 1.524 . S
C4522 C4523 1.397 . S
C4522 C4527 1.363 . S
C4523 H4494 0.950 . S
C4523 C4522 1.397 . S
C4523 C4524 1.334 . S
C4524 H4495 0.950 . S
C4524 C4523 1.334 . S
C4524 C4525 1.287 . S
C4525 C4524 1.287 . S
C4525 C4526 1.524 . S
C4525 H4528 0.999 . S
C4526 H4496 0.950 . S
C4526 C4525 1.524 . S
C4526 C4527 1.415 . S
C4527 H4497 0.950 . S
C4527 C4522 1.363 . S
C4527 C4526 1.415 . S
H4528 C4525 0.999 . S
H4529 C4510 0.913 . S
H4530 C4548 0.951 . S
H4531 C4550 0.951 . S
H4532 C4552 0.950 . S
H4533 C4553 0.950 1_554 S
H4534 C4555 0.950 . S
H4535 C4558 0.950 . S
H4536 C4559 0.950 . S
H4537 C4561 0.950 . S
H4538 C4562 0.950 . S
H4539 C4563 0.951 . S
H4540 C4565 0.951 . S
H4541 C4567 0.950 . S
H4542 C4568 0.950 . S
H4543 C4570 0.950 . S
H4544 C4573 0.950 . S
H4545 C4574 0.950 . S
H4546 C4576 0.950 . S
H4547 C4577 0.950 . S
C4548 H4530 0.951 . S
C4548 C4549 1.366 . S
C4548 C4550 1.388 . S
C4549 C4548 1.366 . S
C4549 C4553 1.385 . S
C4550 H4531 0.951 . S
C4550 C4548 1.388 . S
C4550 C4551 1.366 . S
C4551 C4550 1.366 . S
C4551 C4552 1.414 . S
C4551 C4554 1.499 . S
C4552 H4532 0.950 . S
C4552 C4551 1.414 . S
C4552 C4553 1.374 . S
C4553 H4533 0.950 1_556 S
C4553 C4549 1.385 . S
C4553 C4552 1.374 . S
C4554 C4551 1.499 . S
C4554 C4555 1.373 . S
C4554 C4556 1.389 . S
C4555 H4534 0.950 . S
C4555 C4554 1.373 . S
C4555 C4571 1.377 . S
C4556 C4554 1.389 . S
C4556 C4557 1.524 . S
C4556 C4570 1.377 . S
C4557 C4556 1.524 . S
C4557 C4558 1.397 . S
C4557 C4562 1.363 . S
C4558 H4535 0.950 . S
C4558 C4557 1.397 . S
C4558 C4559 1.334 . S
C4559 H4536 0.950 . S
C4559 C4558 1.334 . S
C4559 C4560 1.287 . S
C4560 C4559 1.287 . S
C4560 C4561 1.524 . S
C4560 H4579 0.913 . S
C4561 H4537 0.950 . S
C4561 C4560 1.524 . S
C4561 C4562 1.415 . S
C4562 H4538 0.950 . S
C4562 C4557 1.363 . S
C4562 C4561 1.415 . S
C4563 H4539 0.951 . S
C4563 C4564 1.366 . S
C4563 C4565 1.388 . S
C4564 C4563 1.366 . S
C4564 C4568 1.385 . S
C4565 H4540 0.951 . S
C4565 C4563 1.388 . S
C4565 C4566 1.366 . S
C4566 C4565 1.366 . S
C4566 C4567 1.414 . S
C4566 C4569 1.499 . S
C4567 H4541 0.950 . S
C4567 C4566 1.414 . S
C4567 C4568 1.374 . S
C4568 H4542 0.950 . S
C4568 C4564 1.385 . S
C4568 C4567 1.374 . S
C4569 C4566 1.499 . S
C4569 C4570 1.373 . S
C4569 C4571 1.389 . S
C4570 H4543 0.950 . S
C4570 C4556 1.377 . S
C4570 C4569 1.373 . S
C4571 C4555 1.377 . S
C4571 C4569 1.389 . S
C4571 C4572 1.524 . S
C4572 C4571 1.524 . S
C4572 C4573 1.397 . S
C4572 C4577 1.363 . S
C4573 H4544 0.950 . S
C4573 C4572 1.397 . S
C4573 C4574 1.334 . S
C4574 H4545 0.950 . S
C4574 C4573 1.334 . S
C4574 C4575 1.287 . S
C4575 C4574 1.287 . S
C4575 C4576 1.524 . S
C4575 H4578 0.999 . S
C4576 H4546 0.950 . S
C4576 C4575 1.524 . S
C4576 C4577 1.415 . S
C4577 H4547 0.950 . S
C4577 C4572 1.363 . S
C4577 C4576 1.415 . S
H4578 C4575 0.999 . S
H4579 C4560 0.913 . S
H4580 C4598 0.951 . S
H4581 C4600 0.951 . S
H4582 C4602 0.950 . S
H4583 C4603 0.950 . S
H4584 C4605 0.950 . S
H4585 C4608 0.950 . S
H4586 C4609 0.950 . S
H4587 C4611 0.950 . S
H4588 C4612 0.950 . S
H4589 C4613 0.951 . S
H4590 C4615 0.951 . S
H4591 C4617 0.950 . S
H4592 C4618 0.950 . S
H4593 C4620 0.950 . S
H4594 C4623 0.950 . S
H4595 C4624 0.950 . S
H4596 C4626 0.950 . S
H4597 C4627 0.950 . S
C4598 H4580 0.951 . S
C4598 C4599 1.366 . S
C4598 C4600 1.388 . S
C4599 C4598 1.366 . S
C4599 C4603 1.385 . S
C4600 H4581 0.951 . S
C4600 C4598 1.388 . S
C4600 C4601 1.366 . S
C4601 C4600 1.366 . S
C4601 C4602 1.414 . S
C4601 C4604 1.499 . S
C4602 H4582 0.950 . S
C4602 C4601 1.414 . S
C4602 C4603 1.374 . S
C4603 H4583 0.950 . S
C4603 C4599 1.385 . S
C4603 C4602 1.374 . S
C4604 C4601 1.499 . S
C4604 C4605 1.373 . S
C4604 C4606 1.389 . S
C4605 H4584 0.950 . S
C4605 C4604 1.373 . S
C4605 C4621 1.377 . S
C4606 C4604 1.389 . S
C4606 C4607 1.524 . S
C4606 C4620 1.377 . S
C4607 C4606 1.524 . S
C4607 C4608 1.397 . S
C4607 C4612 1.363 . S
C4608 H4585 0.950 . S
C4608 C4607 1.397 . S
C4608 C4609 1.334 . S
C4609 H4586 0.950 . S
C4609 C4608 1.334 . S
C4609 C4610 1.287 . S
C4610 C4609 1.287 . S
C4610 C4611 1.524 . S
C4610 H4629 0.913 . S
C4611 H4587 0.950 . S
C4611 C4610 1.524 . S
C4611 C4612 1.415 . S
C4612 H4588 0.950 . S
C4612 C4607 1.363 . S
C4612 C4611 1.415 . S
C4613 H4589 0.951 . S
C4613 C4614 1.366 . S
C4613 C4615 1.388 . S
C4614 C4613 1.366 . S
C4614 C4618 1.385 . S
C4615 H4590 0.951 . S
C4615 C4613 1.388 . S
C4615 C4616 1.366 . S
C4616 C4615 1.366 . S
C4616 C4617 1.414 . S
C4616 C4619 1.499 . S
C4617 H4591 0.950 . S
C4617 C4616 1.414 . S
C4617 C4618 1.374 . S
C4618 H4592 0.950 . S
C4618 C4614 1.385 . S
C4618 C4617 1.374 . S
C4619 C4616 1.499 . S
C4619 C4620 1.373 . S
C4619 C4621 1.389 . S
C4620 H4593 0.950 . S
C4620 C4606 1.377 . S
C4620 C4619 1.373 . S
C4621 C4605 1.377 . S
C4621 C4619 1.389 . S
C4621 C4622 1.524 . S
C4622 C4621 1.524 . S
C4622 C4623 1.397 . S
C4622 C4627 1.363 . S
C4623 H4594 0.950 . S
C4623 C4622 1.397 . S
C4623 C4624 1.334 . S
C4624 H4595 0.950 . S
C4624 C4623 1.334 . S
C4624 C4625 1.287 . S
C4625 C4624 1.287 . S
C4625 C4626 1.524 . S
C4625 H4628 0.999 . S
C4626 H4596 0.950 . S
C4626 C4625 1.524 . S
C4626 C4627 1.415 . S
C4627 H4597 0.950 . S
C4627 C4622 1.363 . S
C4627 C4626 1.415 . S
H4628 C4625 0.999 . S
H4629 C4610 0.913 . S
H4630 C4648 0.951 . S
H4631 C4650 0.951 . S
H4632 C4652 0.950 . S
H4633 C4653 0.950 . S
H4634 C4655 0.950 . S
H4635 C4658 0.950 . S
H4636 C4659 0.950 . S
H4637 C4661 0.950 . S
H4638 C4662 0.950 . S
H4639 C4663 0.951 . S
H4640 C4665 0.951 . S
H4641 C4667 0.950 . S
H4642 C4668 0.950 . S
H4643 C4670 0.950 . S
H4644 C4673 0.950 . S
H4645 C4674 0.950 . S
H4646 C4676 0.950 . S
H4647 C4677 0.950 . S
C4648 H4630 0.951 . S
C4648 C4649 1.366 . S
C4648 C4650 1.388 . S
C4649 C4648 1.366 . S
C4649 C4653 1.385 . S
C4650 H4631 0.951 . S
C4650 C4648 1.388 . S
C4650 C4651 1.366 . S
C4651 C4650 1.366 . S
C4651 C4652 1.414 . S
C4651 C4654 1.499 . S
C4652 H4632 0.950 . S
C4652 C4651 1.414 . S
C4652 C4653 1.374 . S
C4653 H4633 0.950 . S
C4653 C4649 1.385 . S
C4653 C4652 1.374 . S
C4654 C4651 1.499 . S
C4654 C4655 1.373 . S
C4654 C4656 1.389 . S
C4655 H4634 0.950 . S
C4655 C4654 1.373 . S
C4655 C4671 1.377 . S
C4656 C4654 1.389 . S
C4656 C4657 1.524 . S
C4656 C4670 1.377 . S
C4657 C4656 1.524 . S
C4657 C4658 1.397 . S
C4657 C4662 1.363 . S
C4658 H4635 0.950 . S
C4658 C4657 1.397 . S
C4658 C4659 1.334 . S
C4659 H4636 0.950 . S
C4659 C4658 1.334 . S
C4659 C4660 1.287 . S
C4660 C4659 1.287 . S
C4660 C4661 1.524 . S
C4660 H4679 0.913 . S
C4661 H4637 0.950 . S
C4661 C4660 1.524 . S
C4661 C4662 1.415 . S
C4662 H4638 0.950 . S
C4662 C4657 1.363 . S
C4662 C4661 1.415 . S
C4663 H4639 0.951 . S
C4663 C4664 1.366 . S
C4663 C4665 1.388 . S
C4664 C4663 1.366 . S
C4664 C4668 1.385 . S
C4665 H4640 0.951 . S
C4665 C4663 1.388 . S
C4665 C4666 1.366 . S
C4666 C4665 1.366 . S
C4666 C4667 1.414 . S
C4666 C4669 1.499 . S
C4667 H4641 0.950 . S
C4667 C4666 1.414 . S
C4667 C4668 1.374 . S
C4668 H4642 0.950 . S
C4668 C4664 1.385 . S
C4668 C4667 1.374 . S
C4669 C4666 1.499 . S
C4669 C4670 1.373 . S
C4669 C4671 1.389 . S
C4670 H4643 0.950 . S
C4670 C4656 1.377 . S
C4670 C4669 1.373 . S
C4671 C4655 1.377 . S
C4671 C4669 1.389 . S
C4671 C4672 1.524 . S
C4672 C4671 1.524 . S
C4672 C4673 1.397 . S
C4672 C4677 1.363 . S
C4673 H4644 0.950 . S
C4673 C4672 1.397 . S
C4673 C4674 1.334 . S
C4674 H4645 0.950 . S
C4674 C4673 1.334 . S
C4674 C4675 1.287 . S
C4675 C4674 1.287 . S
C4675 C4676 1.524 . S
C4675 H4678 0.999 . S
C4676 H4646 0.950 . S
C4676 C4675 1.524 . S
C4676 C4677 1.415 . S
C4677 H4647 0.950 . S
C4677 C4672 1.363 . S
C4677 C4676 1.415 . S
H4678 C4675 0.999 . S
H4679 C4660 0.913 . S
H4680 C4698 0.951 . S
H4681 C4700 0.951 . S
H4682 C4702 0.950 . S
H4683 C4703 0.950 . S
H4684 C4705 0.950 . S
H4685 C4708 0.950 . S
H4686 C4709 0.950 . S
H4687 C4711 0.950 . S
H4688 C4712 0.950 . S
H4689 C4713 0.951 . S
H4690 C4715 0.951 . S
H4691 C4717 0.950 . S
H4692 C4718 0.950 . S
H4693 C4720 0.950 . S
H4694 C4723 0.950 . S
H4695 C4724 0.950 . S
H4696 C4726 0.950 . S
H4697 C4727 0.950 . S
C4698 H4680 0.951 . S
C4698 C4699 1.366 . S
C4698 C4700 1.388 . S
C4699 C4698 1.366 . S
C4699 C4703 1.385 . S
C4700 H4681 0.951 . S
C4700 C4698 1.388 . S
C4700 C4701 1.366 . S
C4701 C4700 1.366 . S
C4701 C4702 1.414 . S
C4701 C4704 1.499 . S
C4702 H4682 0.950 . S
C4702 C4701 1.414 . S
C4702 C4703 1.374 . S
C4703 H4683 0.950 . S
C4703 C4699 1.385 . S
C4703 C4702 1.374 . S
C4704 C4701 1.499 . S
C4704 C4705 1.373 . S
C4704 C4706 1.389 . S
C4705 H4684 0.950 . S
C4705 C4704 1.373 . S
C4705 C4721 1.377 . S
C4706 C4704 1.389 . S
C4706 C4707 1.524 . S
C4706 C4720 1.377 . S
C4707 C4706 1.524 . S
C4707 C4708 1.397 . S
C4707 C4712 1.363 . S
C4708 H4685 0.950 . S
C4708 C4707 1.397 . S
C4708 C4709 1.334 . S
C4709 H4686 0.950 . S
C4709 C4708 1.334 . S
C4709 C4710 1.287 . S
C4710 C4709 1.287 . S
C4710 C4711 1.524 . S
C4710 H4729 0.913 . S
C4711 H4687 0.950 . S
C4711 C4710 1.524 . S
C4711 C4712 1.415 . S
C4712 H4688 0.950 . S
C4712 C4707 1.363 . S
C4712 C4711 1.415 . S
C4713 H4689 0.951 . S
C4713 C4714 1.366 . S
C4713 C4715 1.388 . S
C4714 C4713 1.366 . S
C4714 C4718 1.385 . S
C4715 H4690 0.951 . S
C4715 C4713 1.388 . S
C4715 C4716 1.366 . S
C4716 C4715 1.366 . S
C4716 C4717 1.414 . S
C4716 C4719 1.499 . S
C4717 H4691 0.950 . S
C4717 C4716 1.414 . S
C4717 C4718 1.374 . S
C4718 H4692 0.950 . S
C4718 C4714 1.385 . S
C4718 C4717 1.374 . S
C4719 C4716 1.499 . S
C4719 C4720 1.373 . S
C4719 C4721 1.389 . S
C4720 H4693 0.950 . S
C4720 C4706 1.377 . S
C4720 C4719 1.373 . S
C4721 C4705 1.377 . S
C4721 C4719 1.389 . S
C4721 C4722 1.524 . S
C4722 C4721 1.524 . S
C4722 C4723 1.397 . S
C4722 C4727 1.363 . S
C4723 H4694 0.950 . S
C4723 C4722 1.397 . S
C4723 C4724 1.334 . S
C4724 H4695 0.950 . S
C4724 C4723 1.334 . S
C4724 C4725 1.287 . S
C4725 C4724 1.287 . S
C4725 C4726 1.524 . S
C4725 H4728 0.999 . S
C4726 H4696 0.950 . S
C4726 C4725 1.524 . S
C4726 C4727 1.415 . S
C4727 H4697 0.950 . S
C4727 C4722 1.363 . S
C4727 C4726 1.415 . S
H4728 C4725 0.999 . S
H4729 C4710 0.913 . S
H4730 C4748 0.951 . S
H4731 C4750 0.951 . S
H4732 C4752 0.950 . S
H4733 C4753 0.950 . S
H4734 C4755 0.950 . S
H4735 C4758 0.950 . S
H4736 C4759 0.950 . S
H4737 C4761 0.950 . S
H4738 C4762 0.950 . S
H4739 C4763 0.951 . S
H4740 C4765 0.951 . S
H4741 C4767 0.950 . S
H4742 C4768 0.950 . S
H4743 C4770 0.950 . S
H4744 C4773 0.950 . S
H4745 C4774 0.950 . S
H4746 C4776 0.950 . S
H4747 C4777 0.950 . S
C4748 H4730 0.951 . S
C4748 C4749 1.366 . S
C4748 C4750 1.388 . S
C4749 C4748 1.366 . S
C4749 C4753 1.385 . S
C4750 H4731 0.951 . S
C4750 C4748 1.388 . S
C4750 C4751 1.366 . S
C4751 C4750 1.366 . S
C4751 C4752 1.414 . S
C4751 C4754 1.499 . S
C4752 H4732 0.950 . S
C4752 C4751 1.414 . S
C4752 C4753 1.374 . S
C4753 H4733 0.950 . S
C4753 C4749 1.385 . S
C4753 C4752 1.374 . S
C4754 C4751 1.499 . S
C4754 C4755 1.373 . S
C4754 C4756 1.389 . S
C4755 H4734 0.950 . S
C4755 C4754 1.373 . S
C4755 C4771 1.377 . S
C4756 C4754 1.389 . S
C4756 C4757 1.524 . S
C4756 C4770 1.377 . S
C4757 C4756 1.524 . S
C4757 C4758 1.397 . S
C4757 C4762 1.363 . S
C4758 H4735 0.950 . S
C4758 C4757 1.397 . S
C4758 C4759 1.334 . S
C4759 H4736 0.950 . S
C4759 C4758 1.334 . S
C4759 C4760 1.287 . S
C4760 C4759 1.287 . S
C4760 C4761 1.524 . S
C4760 H4779 0.913 . S
C4761 H4737 0.950 . S
C4761 C4760 1.524 . S
C4761 C4762 1.415 . S
C4762 H4738 0.950 . S
C4762 C4757 1.363 . S
C4762 C4761 1.415 . S
C4763 H4739 0.951 . S
C4763 C4764 1.366 . S
C4763 C4765 1.388 . S
C4764 C4763 1.366 . S
C4764 C4768 1.385 . S
C4765 H4740 0.951 . S
C4765 C4763 1.388 . S
C4765 C4766 1.366 . S
C4766 C4765 1.366 . S
C4766 C4767 1.414 . S
C4766 C4769 1.499 . S
C4767 H4741 0.950 . S
C4767 C4766 1.414 . S
C4767 C4768 1.374 . S
C4768 H4742 0.950 . S
C4768 C4764 1.385 . S
C4768 C4767 1.374 . S
C4769 C4766 1.499 . S
C4769 C4770 1.373 . S
C4769 C4771 1.389 . S
C4770 H4743 0.950 . S
C4770 C4756 1.377 . S
C4770 C4769 1.373 . S
C4771 C4755 1.377 . S
C4771 C4769 1.389 . S
C4771 C4772 1.524 . S
C4772 C4771 1.524 . S
C4772 C4773 1.397 . S
C4772 C4777 1.363 . S
C4773 H4744 0.950 . S
C4773 C4772 1.397 . S
C4773 C4774 1.334 . S
C4774 H4745 0.950 . S
C4774 C4773 1.334 . S
C4774 C4775 1.287 . S
C4775 C4774 1.287 . S
C4775 C4776 1.524 . S
C4775 H4778 0.999 . S
C4776 H4746 0.950 . S
C4776 C4775 1.524 . S
C4776 C4777 1.415 . S
C4777 H4747 0.950 . S
C4777 C4772 1.363 . S
C4777 C4776 1.415 . S
H4778 C4775 0.999 . S
H4779 C4760 0.913 . S
H4780 C4798 0.951 . S
H4781 C4800 0.951 . S
H4782 C4802 0.950 . S
H4783 C4803 0.950 . S
H4784 C4805 0.950 . S
H4785 C4808 0.950 . S
H4786 C4809 0.950 . S
H4787 C4811 0.950 . S
H4788 C4812 0.950 . S
H4789 C4813 0.951 . S
H4790 C4815 0.951 . S
H4791 C4817 0.950 . S
H4792 C4818 0.950 . S
H4793 C4820 0.950 . S
H4794 C4823 0.950 . S
H4795 C4824 0.950 . S
H4796 C4826 0.950 . S
H4797 C4827 0.950 . S
C4798 H4780 0.951 . S
C4798 C4799 1.366 . S
C4798 C4800 1.388 . S
C4799 C4798 1.366 . S
C4799 C4803 1.385 . S
C4800 H4781 0.951 . S
C4800 C4798 1.388 . S
C4800 C4801 1.366 . S
C4801 C4800 1.366 . S
C4801 C4802 1.414 . S
C4801 C4804 1.499 . S
C4802 H4782 0.950 . S
C4802 C4801 1.414 . S
C4802 C4803 1.374 . S
C4803 H4783 0.950 . S
C4803 C4799 1.385 . S
C4803 C4802 1.374 . S
C4804 C4801 1.499 . S
C4804 C4805 1.373 . S
C4804 C4806 1.389 . S
C4805 H4784 0.950 . S
C4805 C4804 1.373 . S
C4805 C4821 1.377 . S
C4806 C4804 1.389 . S
C4806 C4807 1.524 . S
C4806 C4820 1.377 . S
C4807 C4806 1.524 . S
C4807 C4808 1.397 . S
C4807 C4812 1.363 . S
C4808 H4785 0.950 . S
C4808 C4807 1.397 . S
C4808 C4809 1.334 . S
C4809 H4786 0.950 . S
C4809 C4808 1.334 . S
C4809 C4810 1.287 . S
C4810 C4809 1.287 . S
C4810 C4811 1.524 . S
C4810 H4829 0.913 . S
C4811 H4787 0.950 . S
C4811 C4810 1.524 . S
C4811 C4812 1.415 . S
C4812 H4788 0.950 . S
C4812 C4807 1.363 . S
C4812 C4811 1.415 . S
C4813 H4789 0.951 . S
C4813 C4814 1.366 . S
C4813 C4815 1.388 . S
C4814 C4813 1.366 . S
C4814 C4818 1.385 . S
C4815 H4790 0.951 . S
C4815 C4813 1.388 . S
C4815 C4816 1.366 . S
C4816 C4815 1.366 . S
C4816 C4817 1.414 . S
C4816 C4819 1.499 . S
C4817 H4791 0.950 . S
C4817 C4816 1.414 . S
C4817 C4818 1.374 . S
C4818 H4792 0.950 . S
C4818 C4814 1.385 . S
C4818 C4817 1.374 . S
C4819 C4816 1.499 . S
C4819 C4820 1.373 . S
C4819 C4821 1.389 . S
C4820 H4793 0.950 . S
C4820 C4806 1.377 . S
C4820 C4819 1.373 . S
C4821 C4805 1.377 . S
C4821 C4819 1.389 . S
C4821 C4822 1.524 . S
C4822 C4821 1.524 . S
C4822 C4823 1.397 . S
C4822 C4827 1.363 . S
C4823 H4794 0.950 . S
C4823 C4822 1.397 . S
C4823 C4824 1.334 . S
C4824 H4795 0.950 . S
C4824 C4823 1.334 . S
C4824 C4825 1.287 . S
C4825 C4824 1.287 . S
C4825 C4826 1.524 . S
C4825 H4828 0.999 . S
C4826 H4796 0.950 . S
C4826 C4825 1.524 . S
C4826 C4827 1.415 . S
C4827 H4797 0.950 . S
C4827 C4822 1.363 . S
C4827 C4826 1.415 . S
H4828 C4825 0.999 . S
H4829 C4810 0.913 . S
H4830 C4848 0.951 . S
H4831 C4850 0.951 . S
H4832 C4852 0.950 . S
H4833 C4853 0.950 . S
H4834 C4855 0.950 . S
H4835 C4858 0.950 . S
H4836 C4859 0.950 . S
H4837 C4861 0.950 . S
H4838 C4862 0.950 . S
H4839 C4863 0.951 . S
H4840 C4865 0.951 . S
H4841 C4867 0.950 . S
H4842 C4868 0.950 . S
H4843 C4870 0.950 . S
H4844 C4873 0.950 . S
H4845 C4874 0.950 . S
H4846 C4876 0.950 . S
H4847 C4877 0.950 . S
C4848 H4830 0.951 . S
C4848 C4849 1.366 . S
C4848 C4850 1.388 . S
C4849 C4848 1.366 . S
C4849 C4853 1.385 . S
C4850 H4831 0.951 . S
C4850 C4848 1.388 . S
C4850 C4851 1.366 . S
C4851 C4850 1.366 . S
C4851 C4852 1.414 . S
C4851 C4854 1.499 . S
C4852 H4832 0.950 . S
C4852 C4851 1.414 . S
C4852 C4853 1.374 . S
C4853 H4833 0.950 . S
C4853 C4849 1.385 . S
C4853 C4852 1.374 . S
C4854 C4851 1.499 . S
C4854 C4855 1.373 . S
C4854 C4856 1.389 . S
C4855 H4834 0.950 . S
C4855 C4854 1.373 . S
C4855 C4871 1.377 . S
C4856 C4854 1.389 . S
C4856 C4857 1.524 . S
C4856 C4870 1.377 . S
C4857 C4856 1.524 . S
C4857 C4858 1.397 . S
C4857 C4862 1.363 . S
C4858 H4835 0.950 . S
C4858 C4857 1.397 . S
C4858 C4859 1.334 . S
C4859 H4836 0.950 . S
C4859 C4858 1.334 . S
C4859 C4860 1.287 . S
C4860 C4859 1.287 . S
C4860 C4861 1.524 . S
C4860 H4879 0.913 . S
C4861 H4837 0.950 . S
C4861 C4860 1.524 . S
C4861 C4862 1.415 . S
C4862 H4838 0.950 . S
C4862 C4857 1.363 . S
C4862 C4861 1.415 . S
C4863 H4839 0.951 . S
C4863 C4864 1.366 . S
C4863 C4865 1.388 . S
C4864 C4863 1.366 . S
C4864 C4868 1.385 . S
C4865 H4840 0.951 . S
C4865 C4863 1.388 . S
C4865 C4866 1.366 . S
C4866 C4865 1.366 . S
C4866 C4867 1.414 . S
C4866 C4869 1.499 . S
C4867 H4841 0.950 . S
C4867 C4866 1.414 . S
C4867 C4868 1.374 . S
C4868 H4842 0.950 . S
C4868 C4864 1.385 . S
C4868 C4867 1.374 . S
C4869 C4866 1.499 . S
C4869 C4870 1.373 . S
C4869 C4871 1.389 . S
C4870 H4843 0.950 . S
C4870 C4856 1.377 . S
C4870 C4869 1.373 . S
C4871 C4855 1.377 . S
C4871 C4869 1.389 . S
C4871 C4872 1.524 . S
C4872 C4871 1.524 . S
C4872 C4873 1.397 . S
C4872 C4877 1.363 . S
C4873 H4844 0.950 . S
C4873 C4872 1.397 . S
C4873 C4874 1.334 . S
C4874 H4845 0.950 . S
C4874 C4873 1.334 . S
C4874 C4875 1.287 . S
C4875 C4874 1.287 . S
C4875 C4876 1.524 . S
C4875 H4878 0.999 . S
C4876 H4846 0.950 . S
C4876 C4875 1.524 . S
C4876 C4877 1.415 . S
C4877 H4847 0.950 . S
C4877 C4872 1.363 . S
C4877 C4876 1.415 . S
H4878 C4875 0.999 . S
H4879 C4860 0.913 . S
H4880 C4898 0.951 . S
H4881 C4900 0.951 . S
H4882 C4902 0.950 . S
H4883 C4903 0.950 . S
H4884 C4905 0.950 . S
H4885 C4908 0.950 . S
H4886 C4909 0.950 . S
H4887 C4911 0.950 . S
H4888 C4912 0.950 . S
H4889 C4913 0.951 . S
H4890 C4915 0.951 . S
H4891 C4917 0.950 . S
H4892 C4918 0.950 . S
H4893 C4920 0.950 . S
H4894 C4923 0.950 . S
H4895 C4924 0.950 . S
H4896 C4926 0.950 . S
H4897 C4927 0.950 . S
C4898 H4880 0.951 . S
C4898 C4899 1.366 . S
C4898 C4900 1.388 . S
C4899 C4898 1.366 . S
C4899 C4903 1.385 . S
C4900 H4881 0.951 . S
C4900 C4898 1.388 . S
C4900 C4901 1.366 . S
C4901 C4900 1.366 . S
C4901 C4902 1.414 . S
C4901 C4904 1.499 . S
C4902 H4882 0.950 . S
C4902 C4901 1.414 . S
C4902 C4903 1.374 . S
C4903 H4883 0.950 . S
C4903 C4899 1.385 . S
C4903 C4902 1.374 . S
C4904 C4901 1.499 . S
C4904 C4905 1.373 . S
C4904 C4906 1.389 . S
C4905 H4884 0.950 . S
C4905 C4904 1.373 . S
C4905 C4921 1.377 . S
C4906 C4904 1.389 . S
C4906 C4907 1.524 . S
C4906 C4920 1.377 . S
C4907 C4906 1.524 . S
C4907 C4908 1.397 . S
C4907 C4912 1.363 . S
C4908 H4885 0.950 . S
C4908 C4907 1.397 . S
C4908 C4909 1.334 . S
C4909 H4886 0.950 . S
C4909 C4908 1.334 . S
C4909 C4910 1.287 . S
C4910 C4909 1.287 . S
C4910 C4911 1.524 . S
C4910 H4929 0.913 . S
C4911 H4887 0.950 . S
C4911 C4910 1.524 . S
C4911 C4912 1.415 . S
C4912 H4888 0.950 . S
C4912 C4907 1.363 . S
C4912 C4911 1.415 . S
C4913 H4889 0.951 . S
C4913 C4914 1.366 . S
C4913 C4915 1.388 . S
C4914 C4913 1.366 . S
C4914 C4918 1.385 . S
C4915 H4890 0.951 . S
C4915 C4913 1.388 . S
C4915 C4916 1.366 . S
C4916 C4915 1.366 . S
C4916 C4917 1.414 . S
C4916 C4919 1.499 . S
C4917 H4891 0.950 . S
C4917 C4916 1.414 . S
C4917 C4918 1.374 . S
C4918 H4892 0.950 . S
C4918 C4914 1.385 . S
C4918 C4917 1.374 . S
C4919 C4916 1.499 . S
C4919 C4920 1.373 . S
C4919 C4921 1.389 . S
C4920 H4893 0.950 . S
C4920 C4906 1.377 . S
C4920 C4919 1.373 . S
C4921 C4905 1.377 . S
C4921 C4919 1.389 . S
C4921 C4922 1.524 . S
C4922 C4921 1.524 . S
C4922 C4923 1.397 . S
C4922 C4927 1.363 . S
C4923 H4894 0.950 . S
C4923 C4922 1.397 . S
C4923 C4924 1.334 . S
C4924 H4895 0.950 . S
C4924 C4923 1.334 . S
C4924 C4925 1.287 . S
C4925 C4924 1.287 . S
C4925 C4926 1.524 . S
C4925 H4928 0.999 . S
C4926 H4896 0.950 . S
C4926 C4925 1.524 . S
C4926 C4927 1.415 . S
C4927 H4897 0.950 . S
C4927 C4922 1.363 . S
C4927 C4926 1.415 . S
H4928 C4925 0.999 . S
H4929 C4910 0.913 . S
H4930 C4948 0.951 . S
H4931 C4950 0.951 . S
H4932 C4952 0.950 . S
H4933 C4953 0.950 . S
H4934 C4955 0.950 . S
H4935 C4958 0.950 . S
H4936 C4959 0.950 . S
H4937 C4961 0.950 . S
H4938 C4962 0.950 . S
H4939 C4963 0.951 . S
H4940 C4965 0.951 . S
H4941 C4967 0.950 . S
H4942 C4968 0.950 . S
H4943 C4970 0.950 . S
H4944 C4973 0.950 . S
H4945 C4974 0.950 . S
H4946 C4976 0.950 . S
H4947 C4977 0.950 . S
C4948 H4930 0.951 . S
C4948 C4949 1.366 . S
C4948 C4950 1.388 . S
C4949 C4948 1.366 . S
C4949 C4953 1.385 . S
C4950 H4931 0.951 . S
C4950 C4948 1.388 . S
C4950 C4951 1.366 . S
C4951 C4950 1.366 . S
C4951 C4952 1.414 . S
C4951 C4954 1.499 . S
C4952 H4932 0.950 . S
C4952 C4951 1.414 . S
C4952 C4953 1.374 . S
C4953 H4933 0.950 . S
C4953 C4949 1.385 . S
C4953 C4952 1.374 . S
C4954 C4951 1.499 . S
C4954 C4955 1.373 . S
C4954 C4956 1.389 . S
C4955 H4934 0.950 . S
C4955 C4954 1.373 . S
C4955 C4971 1.377 . S
C4956 C4954 1.389 . S
C4956 C4957 1.524 . S
C4956 C4970 1.377 . S
C4957 C4956 1.524 . S
C4957 C4958 1.397 . S
C4957 C4962 1.363 . S
C4958 H4935 0.950 . S
C4958 C4957 1.397 . S
C4958 C4959 1.334 . S
C4959 H4936 0.950 . S
C4959 C4958 1.334 . S
C4959 C4960 1.287 . S
C4960 C4959 1.287 . S
C4960 C4961 1.524 . S
C4960 H4979 0.913 . S
C4961 H4937 0.950 . S
C4961 C4960 1.524 . S
C4961 C4962 1.415 . S
C4962 H4938 0.950 . S
C4962 C4957 1.363 . S
C4962 C4961 1.415 . S
C4963 H4939 0.951 . S
C4963 C4964 1.366 . S
C4963 C4965 1.388 . S
C4964 C4963 1.366 . S
C4964 C4968 1.385 . S
C4965 H4940 0.951 . S
C4965 C4963 1.388 . S
C4965 C4966 1.366 . S
C4966 C4965 1.366 . S
C4966 C4967 1.414 . S
C4966 C4969 1.499 . S
C4967 H4941 0.950 . S
C4967 C4966 1.414 . S
C4967 C4968 1.374 . S
C4968 H4942 0.950 . S
C4968 C4964 1.385 . S
C4968 C4967 1.374 . S
C4969 C4966 1.499 . S
C4969 C4970 1.373 . S
C4969 C4971 1.389 . S
C4970 H4943 0.950 . S
C4970 C4956 1.377 . S
C4970 C4969 1.373 . S
C4971 C4955 1.377 . S
C4971 C4969 1.389 . S
C4971 C4972 1.524 . S
C4972 C4971 1.524 . S
C4972 C4973 1.397 . S
C4972 C4977 1.363 . S
C4973 H4944 0.950 . S
C4973 C4972 1.397 . S
C4973 C4974 1.334 . S
C4974 H4945 0.950 . S
C4974 C4973 1.334 . S
C4974 C4975 1.287 . S
C4975 C4974 1.287 . S
C4975 C4976 1.524 . S
C4975 H4978 0.999 . S
C4976 H4946 0.950 . S
C4976 C4975 1.524 . S
C4976 C4977 1.415 . S
C4977 H4947 0.950 . S
C4977 C4972 1.363 . S
C4977 C4976 1.415 . S
H4978 C4975 0.999 . S
H4979 C4960 0.913 . S
H4980 C4998 0.951 . S
H4981 C5000 0.951 . S
H4982 C5002 0.950 . S
H4983 C5003 0.950 . S
H4984 C5005 0.950 . S
H4985 C5008 0.950 . S
H4986 C5009 0.950 . S
H4987 C5011 0.950 . S
H4988 C5012 0.950 . S
H4989 C5013 0.951 . S
H4990 C5015 0.951 . S
H4991 C5017 0.950 . S
H4992 C5018 0.950 . S
H4993 C5020 0.950 . S
H4994 C5023 0.950 . S
H4995 C5024 0.950 . S
H4996 C5026 0.950 . S
H4997 C5027 0.950 . S
C4998 H4980 0.951 . S
C4998 C4999 1.366 . S
C4998 C5000 1.388 . S
C4999 C4998 1.366 . S
C4999 C5003 1.385 . S
C5000 H4981 0.951 . S
C5000 C4998 1.388 . S
C5000 C5001 1.366 . S
C5001 C5000 1.366 . S
C5001 C5002 1.414 . S
C5001 C5004 1.499 . S
C5002 H4982 0.950 . S
C5002 C5001 1.414 . S
C5002 C5003 1.374 . S
C5003 H4983 0.950 . S
C5003 C4999 1.385 . S
C5003 C5002 1.374 . S
C5004 C5001 1.499 . S
C5004 C5005 1.373 . S
C5004 C5006 1.389 . S
C5005 H4984 0.950 . S
C5005 C5004 1.373 . S
C5005 C5021 1.377 . S
C5006 C5004 1.389 . S
C5006 C5007 1.524 . S
C5006 C5020 1.377 . S
C5007 C5006 1.524 . S
C5007 C5008 1.397 . S
C5007 C5012 1.363 . S
C5008 H4985 0.950 . S
C5008 C5007 1.397 . S
C5008 C5009 1.334 . S
C5009 H4986 0.950 . S
C5009 C5008 1.334 . S
C5009 C5010 1.287 . S
C5010 C5009 1.287 . S
C5010 C5011 1.524 . S
C5010 H5029 0.913 . S
C5011 H4987 0.950 . S
C5011 C5010 1.524 . S
C5011 C5012 1.415 . S
C5012 H4988 0.950 . S
C5012 C5007 1.363 . S
C5012 C5011 1.415 . S
C5013 H4989 0.951 . S
C5013 C5014 1.366 . S
C5013 C5015 1.388 . S
C5014 C5013 1.366 . S
C5014 C5018 1.385 . S
C5015 H4990 0.951 . S
C5015 C5013 1.388 . S
C5015 C5016 1.366 . S
C5016 C5015 1.366 . S
C5016 C5017 1.414 . S
C5016 C5019 1.499 . S
C5017 H4991 0.950 . S
C5017 C5016 1.414 . S
C5017 C5018 1.374 . S
C5018 H4992 0.950 . S
C5018 C5014 1.385 . S
C5018 C5017 1.374 . S
C5019 C5016 1.499 . S
C5019 C5020 1.373 . S
C5019 C5021 1.389 . S
C5020 H4993 0.950 . S
C5020 C5006 1.377 . S
C5020 C5019 1.373 . S
C5021 C5005 1.377 . S
C5021 C5019 1.389 . S
C5021 C5022 1.524 . S
C5022 C5021 1.524 . S
C5022 C5023 1.397 . S
C5022 C5027 1.363 . S
C5023 H4994 0.950 . S
C5023 C5022 1.397 . S
C5023 C5024 1.334 . S
C5024 H4995 0.950 . S
C5024 C5023 1.334 . S
C5024 C5025 1.287 . S
C5025 C5024 1.287 . S
C5025 C5026 1.524 . S
C5025 H5028 0.999 . S
C5026 H4996 0.950 . S
C5026 C5025 1.524 . S
C5026 C5027 1.415 . S
C5027 H4997 0.950 . S
C5027 C5022 1.363 . S
C5027 C5026 1.415 . S
H5028 C5025 0.999 . S
H5029 C5010 0.913 . S
H5030 C5048 0.951 1_556 S
H5031 C5050 0.951 1_556 S
H5032 C5052 0.950 . S
H5033 C5053 0.950 . S
H5034 C5055 0.950 . S
H5035 C5058 0.950 . S
H5036 C5059 0.950 . S
H5037 C5061 0.950 . S
H5038 C5062 0.950 . S
H5039 C5063 0.951 . S
H5040 C5065 0.951 . S
H5041 C5067 0.950 1_566 S
H5042 C5068 0.950 1_556 S
H5043 C5070 0.950 . S
H5044 C5073 0.950 . S
H5045 C5074 0.950 . S
H5046 C5076 0.950 . S
H5047 C5077 0.950 . S
C5048 H5030 0.951 1_554 S
C5048 C5049 1.366 . S
C5048 C5050 1.388 . S
C5049 C5048 1.366 . S
C5049 C5053 1.385 . S
C5050 H5031 0.951 1_554 S
C5050 C5048 1.388 . S
C5050 C5051 1.366 . S
C5051 C5050 1.366 . S
C5051 C5052 1.414 . S
C5051 C5054 1.499 . S
C5052 H5032 0.950 . S
C5052 C5051 1.414 . S
C5052 C5053 1.374 . S
C5053 H5033 0.950 . S
C5053 C5049 1.385 . S
C5053 C5052 1.374 . S
C5054 C5051 1.499 . S
C5054 C5055 1.373 1_565 S
C5054 C5056 1.389 . S
C5055 H5034 0.950 . S
C5055 C5054 1.373 1_545 S
C5055 C5071 1.377 . S
C5056 C5054 1.389 . S
C5056 C5057 1.524 . S
C5056 C5070 1.377 . S
C5057 C5056 1.524 . S
C5057 C5058 1.397 . S
C5057 C5062 1.363 1_554 S
C5058 H5035 0.950 . S
C5058 C5057 1.397 . S
C5058 C5059 1.334 . S
C5059 H5036 0.950 . S
C5059 C5058 1.334 . S
C5059 C5060 1.287 1_554 S
C5060 C5059 1.287 1_556 S
C5060 C5061 1.524 . S
C5060 H5079 0.913 . S
C5061 H5037 0.950 . S
C5061 C5060 1.524 . S
C5061 C5062 1.415 . S
C5062 H5038 0.950 . S
C5062 C5057 1.363 1_556 S
C5062 C5061 1.415 . S
C5063 H5039 0.951 . S
C5063 C5064 1.366 . S
C5063 C5065 1.388 . S
C5064 C5063 1.366 . S
C5064 C5068 1.385 . S
C5065 H5040 0.951 . S
C5065 C5063 1.388 . S
C5065 C5066 1.366 . S
C5066 C5065 1.366 . S
C5066 C5067 1.414 . S
C5066 C5069 1.502 . S
C5067 H5041 0.950 1_544 S
C5067 C5066 1.414 . S
C5067 C5068 1.374 . S
C5068 H5042 0.950 1_554 S
C5068 C5064 1.385 . S
C5068 C5067 1.374 . S
C5069 C5066 1.502 . S
C5069 C5070 1.356 1_545 S
C5069 C5071 1.403 . S
C5070 H5043 0.950 . S
C5070 C5056 1.377 . S
C5070 C5069 1.356 1_565 S
C5071 C5055 1.377 . S
C5071 C5069 1.403 . S
C5071 C5072 1.524 . S
C5072 C5071 1.524 . S
C5072 C5073 1.397 . S
C5072 C5077 1.363 . S
C5073 H5044 0.950 . S
C5073 C5072 1.397 . S
C5073 C5074 1.334 . S
C5074 H5045 0.950 . S
C5074 C5073 1.334 . S
C5074 C5075 1.287 . S
C5075 C5074 1.287 . S
C5075 C5076 1.524 . S
C5075 H5078 0.999 . S
C5076 H5046 0.950 . S
C5076 C5075 1.524 . S
C5076 C5077 1.415 . S
C5077 H5047 0.950 . S
C5077 C5072 1.363 . S
C5077 C5076 1.415 . S
H5078 C5075 0.999 . S
H5079 C5060 0.913 . S
H5080 C5098 0.951 . S
H5081 C5100 0.951 . S
H5082 C5102 0.950 . S
H5083 C5103 0.950 . S
H5084 C5105 0.950 . S
H5085 C5108 0.950 . S
H5086 C5109 0.950 . S
H5087 C5111 0.950 . S
H5088 C5112 0.950 . S
H5089 C5113 0.951 . S
H5090 C5115 0.951 . S
H5091 C5117 0.950 . S
H5092 C5118 0.950 . S
H5093 C5120 0.950 . S
H5094 C5123 0.950 . S
H5095 C5124 0.950 . S
H5096 C5126 0.950 . S
H5097 C5127 0.950 . S
C5098 H5080 0.951 . S
C5098 C5099 1.366 . S
C5098 C5100 1.388 . S
C5099 C5098 1.366 . S
C5099 C5103 1.385 . S
C5100 H5081 0.951 . S
C5100 C5098 1.388 . S
C5100 C5101 1.366 . S
C5101 C5100 1.366 . S
C5101 C5102 1.414 . S
C5101 C5104 1.499 . S
C5102 H5082 0.950 . S
C5102 C5101 1.414 . S
C5102 C5103 1.374 . S
C5103 H5083 0.950 . S
C5103 C5099 1.385 . S
C5103 C5102 1.374 . S
C5104 C5101 1.499 . S
C5104 C5105 1.373 . S
C5104 C5106 1.389 . S
C5105 H5084 0.950 . S
C5105 C5104 1.373 . S
C5105 C5121 1.377 . S
C5106 C5104 1.389 . S
C5106 C5107 1.524 . S
C5106 C5120 1.377 . S
C5107 C5106 1.524 . S
C5107 C5108 1.397 . S
C5107 C5112 1.363 . S
C5108 H5085 0.950 . S
C5108 C5107 1.397 . S
C5108 C5109 1.334 . S
C5109 H5086 0.950 . S
C5109 C5108 1.334 . S
C5109 C5110 1.287 . S
C5110 C5109 1.287 . S
C5110 C5111 1.524 . S
C5110 H5129 0.913 . S
C5111 H5087 0.950 . S
C5111 C5110 1.524 . S
C5111 C5112 1.415 . S
C5112 H5088 0.950 . S
C5112 C5107 1.363 . S
C5112 C5111 1.415 . S
C5113 H5089 0.951 . S
C5113 C5114 1.366 . S
C5113 C5115 1.388 . S
C5114 C5113 1.366 . S
C5114 C5118 1.385 . S
C5115 H5090 0.951 . S
C5115 C5113 1.388 . S
C5115 C5116 1.366 . S
C5116 C5115 1.366 . S
C5116 C5117 1.414 . S
C5116 C5119 1.499 . S
C5117 H5091 0.950 . S
C5117 C5116 1.414 . S
C5117 C5118 1.374 . S
C5118 H5092 0.950 . S
C5118 C5114 1.385 . S
C5118 C5117 1.374 . S
C5119 C5116 1.499 . S
C5119 C5120 1.373 . S
C5119 C5121 1.389 . S
C5120 H5093 0.950 . S
C5120 C5106 1.377 . S
C5120 C5119 1.373 . S
C5121 C5105 1.377 . S
C5121 C5119 1.389 . S
C5121 C5122 1.524 . S
C5122 C5121 1.524 . S
C5122 C5123 1.397 . S
C5122 C5127 1.363 . S
C5123 H5094 0.950 . S
C5123 C5122 1.397 . S
C5123 C5124 1.334 . S
C5124 H5095 0.950 . S
C5124 C5123 1.334 . S
C5124 C5125 1.287 . S
C5125 C5124 1.287 . S
C5125 C5126 1.524 . S
C5125 H5128 0.999 . S
C5126 H5096 0.950 . S
C5126 C5125 1.524 . S
C5126 C5127 1.415 . S
C5127 H5097 0.950 . S
C5127 C5122 1.363 . S
C5127 C5126 1.415 . S
H5128 C5125 0.999 . S
H5129 C5110 0.913 . S
H5130 C5148 0.951 . S
H5131 C5150 0.951 . S
H5132 C5152 0.950 . S
H5133 C5153 0.950 . S
H5134 C5155 0.950 . S
H5135 C5158 0.950 . S
H5136 C5159 0.950 1_554 S
H5137 C5161 0.950 . S
H5138 C5162 0.950 . S
H5139 C5163 0.951 . S
H5140 C5165 0.951 . S
H5141 C5167 0.950 1_556 S
H5142 C5168 0.950 1_556 S
H5143 C5170 0.952 . S
H5144 C5173 0.950 . S
H5145 C5174 0.950 . S
H5146 C5176 0.950 . S
H5147 C5177 0.950 . S
C5148 H5130 0.951 . S
C5148 C5149 1.366 1_556 S
C5148 C5150 1.388 . S
C5149 C5148 1.366 1_554 S
C5149 C5153 1.385 . S
C5150 H5131 0.951 . S
C5150 C5148 1.388 . S
C5150 C5151 1.366 1_556 S
C5151 C5150 1.366 1_554 S
C5151 C5152 1.414 . S
C5151 C5154 1.499 . S
C5152 H5132 0.950 . S
C5152 C5151 1.414 . S
C5152 C5153 1.374 . S
C5153 H5133 0.950 . S
C5153 C5149 1.385 . S
C5153 C5152 1.374 . S
C5154 C5151 1.499 . S
C5154 C5155 1.373 . S
C5154 C5156 1.389 . S
C5155 H5134 0.950 . S
C5155 C5154 1.373 . S
C5155 C5171 1.377 . S
C5156 C5154 1.389 . S
C5156 C5157 1.524 1_554 S
C5156 C5170 1.377 . S
C5157 C5156 1.524 1_556 S
C5157 C5158 1.397 1_556 S
C5157 C5162 1.363 . S
C5158 H5135 0.950 . S
C5158 C5157 1.397 1_554 S
C5158 C5159 1.334 1_554 S
C5159 H5136 0.950 1_556 S
C5159 C5158 1.334 1_556 S
C5159 C5160 1.287 . S
C5160 C5159 1.287 . S
C5160 C5161 1.524 . S
C5160 H5179 0.913 . S
C5161 H5137 0.950 . S
C5161 C5160 1.524 . S
C5161 C5162 1.415 . S
C5162 H5138 0.950 . S
C5162 C5157 1.363 . S
C5162 C5161 1.415 . S
C5163 H5139 0.951 . S
C5163 C5164 1.366 . S
C5163 C5165 1.388 . S
C5164 C5163 1.366 . S
C5164 C5168 1.385 . S
C5165 H5140 0.951 . S
C5165 C5163 1.388 . S
C5165 C5166 1.366 . S
C5166 C5165 1.366 . S
C5166 C5167 1.414 . S
C5166 C5169 1.499 . S
C5167 H5141 0.950 1_554 S
C5167 C5166 1.414 . S
C5167 C5168 1.374 . S
C5168 H5142 0.950 1_554 S
C5168 C5164 1.385 . S
C5168 C5167 1.374 . S
C5169 C5166 1.499 . S
C5169 C5170 1.373 . S
C5169 C5171 1.389 . S
C5170 H5143 0.952 . S
C5170 C5156 1.377 . S
C5170 C5169 1.373 . S
C5171 C5155 1.377 . S
C5171 C5169 1.389 . S
C5171 C5172 1.524 . S
C5172 C5171 1.524 . S
C5172 C5173 1.397 . S
C5172 C5177 1.363 . S
C5173 H5144 0.950 . S
C5173 C5172 1.397 . S
C5173 C5174 1.334 . S
C5174 H5145 0.950 . S
C5174 C5173 1.334 . S
C5174 C5175 1.287 . S
C5175 C5174 1.287 . S
C5175 C5176 1.524 . S
C5175 H5178 0.999 . S
C5176 H5146 0.950 . S
C5176 C5175 1.524 . S
C5176 C5177 1.415 . S
C5177 H5147 0.950 . S
C5177 C5172 1.363 . S
C5177 C5176 1.415 . S
H5178 C5175 0.999 . S
H5179 C5160 0.913 . S
H5180 C5198 0.951 . S
H5181 C5200 0.951 . S
H5182 C5202 0.950 . S
H5183 C5203 0.950 . S
H5184 C5205 0.950 . S
H5185 C5208 0.950 . S
H5186 C5209 0.950 . S
H5187 C5211 0.950 . S
H5188 C5212 0.950 . S
H5189 C5213 0.951 . S
H5190 C5215 0.951 . S
H5191 C5217 0.950 . S
H5192 C5218 0.950 . S
H5193 C5220 0.950 . S
H5194 C5223 0.950 . S
H5195 C5224 0.950 . S
H5196 C5226 0.950 . S
H5197 C5227 0.950 . S
C5198 H5180 0.951 . S
C5198 C5199 1.366 . S
C5198 C5200 1.388 . S
C5199 C5198 1.366 . S
C5199 C5203 1.385 . S
C5200 H5181 0.951 . S
C5200 C5198 1.388 . S
C5200 C5201 1.366 . S
C5201 C5200 1.366 . S
C5201 C5202 1.414 . S
C5201 C5204 1.499 . S
C5202 H5182 0.950 . S
C5202 C5201 1.414 . S
C5202 C5203 1.374 . S
C5203 H5183 0.950 . S
C5203 C5199 1.385 . S
C5203 C5202 1.374 . S
C5204 C5201 1.499 . S
C5204 C5205 1.373 . S
C5204 C5206 1.389 . S
C5205 H5184 0.950 . S
C5205 C5204 1.373 . S
C5205 C5221 1.377 . S
C5206 C5204 1.389 . S
C5206 C5207 1.524 . S
C5206 C5220 1.377 . S
C5207 C5206 1.524 . S
C5207 C5208 1.397 . S
C5207 C5212 1.363 . S
C5208 H5185 0.950 . S
C5208 C5207 1.397 . S
C5208 C5209 1.334 . S
C5209 H5186 0.950 . S
C5209 C5208 1.334 . S
C5209 C5210 1.287 . S
C5210 C5209 1.287 . S
C5210 C5211 1.524 . S
C5210 H5229 0.913 . S
C5211 H5187 0.950 . S
C5211 C5210 1.524 . S
C5211 C5212 1.415 . S
C5212 H5188 0.950 . S
C5212 C5207 1.363 . S
C5212 C5211 1.415 . S
C5213 H5189 0.951 . S
C5213 C5214 1.366 . S
C5213 C5215 1.388 . S
C5214 C5213 1.366 . S
C5214 C5218 1.385 . S
C5215 H5190 0.951 . S
C5215 C5213 1.388 . S
C5215 C5216 1.366 . S
C5216 C5215 1.366 . S
C5216 C5217 1.414 . S
C5216 C5219 1.499 . S
C5217 H5191 0.950 . S
C5217 C5216 1.414 . S
C5217 C5218 1.374 . S
C5218 H5192 0.950 . S
C5218 C5214 1.385 . S
C5218 C5217 1.374 . S
C5219 C5216 1.499 . S
C5219 C5220 1.373 . S
C5219 C5221 1.389 . S
C5220 H5193 0.950 . S
C5220 C5206 1.377 . S
C5220 C5219 1.373 . S
C5221 C5205 1.377 . S
C5221 C5219 1.389 . S
C5221 C5222 1.524 . S
C5222 C5221 1.524 . S
C5222 C5223 1.397 . S
C5222 C5227 1.363 . S
C5223 H5194 0.950 . S
C5223 C5222 1.397 . S
C5223 C5224 1.334 . S
C5224 H5195 0.950 . S
C5224 C5223 1.334 . S
C5224 C5225 1.287 . S
C5225 C5224 1.287 . S
C5225 C5226 1.524 . S
C5225 H5228 0.999 . S
C5226 H5196 0.950 . S
C5226 C5225 1.524 . S
C5226 C5227 1.415 . S
C5227 H5197 0.950 . S
C5227 C5222 1.363 . S
C5227 C5226 1.415 . S
H5228 C5225 0.999 . S
H5229 C5210 0.913 . S
H5230 C5248 0.951 . S
H5231 C5250 0.951 . S
H5232 C5252 0.950 . S
H5233 C5253 0.950 1_545 S
H5234 C5255 0.950 . S
H5235 C5258 0.950 . S
H5236 C5259 0.950 . S
H5237 C5261 0.950 . S
H5238 C5262 0.950 . S
H5239 C5263 0.951 . S
H5240 C5265 0.951 . S
H5241 C5267 0.950 . S
H5242 C5268 0.950 . S
H5243 C5270 0.950 . S
H5244 C5273 0.950 . S
H5245 C5274 0.950 . S
H5246 C5276 0.950 . S
H5247 C5277 0.950 . S
C5248 H5230 0.951 . S
C5248 C5249 1.366 . S
C5248 C5250 1.388 . S
C5249 C5248 1.366 . S
C5249 C5253 1.385 . S
C5250 H5231 0.951 . S
C5250 C5248 1.388 . S
C5250 C5251 1.366 . S
C5251 C5250 1.366 . S
C5251 C5252 1.414 . S
C5251 C5254 1.499 . S
C5252 H5232 0.950 . S
C5252 C5251 1.414 . S
C5252 C5253 1.374 . S
C5253 H5233 0.950 1_565 S
C5253 C5249 1.385 . S
C5253 C5252 1.374 . S
C5254 C5251 1.499 . S
C5254 C5255 1.373 . S
C5254 C5256 1.389 . S
C5255 H5234 0.950 . S
C5255 C5254 1.373 . S
C5255 C5271 1.377 . S
C5256 C5254 1.389 . S
C5256 C5257 1.524 . S
C5256 C5270 1.377 . S
C5257 C5256 1.524 . S
C5257 C5258 1.397 . S
C5257 C5262 1.363 . S
C5258 H5235 0.950 . S
C5258 C5257 1.397 . S
C5258 C5259 1.334 . S
C5259 H5236 0.950 . S
C5259 C5258 1.334 . S
C5259 C5260 1.287 . S
C5260 C5259 1.287 . S
C5260 C5261 1.524 . S
C5260 H5279 0.913 . S
C5261 H5237 0.950 . S
C5261 C5260 1.524 . S
C5261 C5262 1.415 . S
C5262 H5238 0.950 . S
C5262 C5257 1.363 . S
C5262 C5261 1.415 . S
C5263 H5239 0.951 . S
C5263 C5264 1.366 . S
C5263 C5265 1.388 . S
C5264 C5263 1.366 . S
C5264 C5268 1.385 . S
C5265 H5240 0.951 . S
C5265 C5263 1.388 . S
C5265 C5266 1.366 . S
C5266 C5265 1.366 . S
C5266 C5267 1.414 . S
C5266 C5269 1.499 . S
C5267 H5241 0.950 . S
C5267 C5266 1.414 . S
C5267 C5268 1.374 . S
C5268 H5242 0.950 . S
C5268 C5264 1.385 . S
C5268 C5267 1.374 . S
C5269 C5266 1.499 . S
C5269 C5270 1.373 . S
C5269 C5271 1.389 . S
C5270 H5243 0.950 . S
C5270 C5256 1.377 . S
C5270 C5269 1.373 . S
C5271 C5255 1.377 . S
C5271 C5269 1.389 . S
C5271 C5272 1.524 . S
C5272 C5271 1.524 . S
C5272 C5273 1.397 . S
C5272 C5277 1.363 . S
C5273 H5244 0.950 . S
C5273 C5272 1.397 . S
C5273 C5274 1.334 . S
C5274 H5245 0.950 . S
C5274 C5273 1.334 . S
C5274 C5275 1.287 . S
C5275 C5274 1.287 . S
C5275 C5276 1.524 . S
C5275 H5278 0.999 . S
C5276 H5246 0.950 . S
C5276 C5275 1.524 . S
C5276 C5277 1.415 . S
C5277 H5247 0.950 . S
C5277 C5272 1.363 . S
C5277 C5276 1.415 . S
H5278 C5275 0.999 . S
H5279 C5260 0.913 . S
H5280 C5298 0.951 . S
H5281 C5300 0.951 . S
H5282 C5302 0.950 . S
H5283 C5303 0.950 . S
H5284 C5305 0.950 . S
H5285 C5308 0.950 . S
H5286 C5309 0.950 . S
H5287 C5311 0.950 . S
H5288 C5312 0.950 . S
H5289 C5313 0.951 . S
H5290 C5315 0.951 . S
H5291 C5317 0.950 . S
H5292 C5318 0.950 . S
H5293 C5320 0.950 . S
H5294 C5323 0.950 . S
H5295 C5324 0.950 . S
H5296 C5326 0.950 . S
H5297 C5327 0.950 . S
C5298 H5280 0.951 . S
C5298 C5299 1.366 . S
C5298 C5300 1.388 . S
C5299 C5298 1.366 . S
C5299 C5303 1.385 . S
C5300 H5281 0.951 . S
C5300 C5298 1.388 . S
C5300 C5301 1.366 . S
C5301 C5300 1.366 . S
C5301 C5302 1.414 . S
C5301 C5304 1.499 . S
C5302 H5282 0.950 . S
C5302 C5301 1.414 . S
C5302 C5303 1.374 . S
C5303 H5283 0.950 . S
C5303 C5299 1.385 . S
C5303 C5302 1.374 . S
C5304 C5301 1.499 . S
C5304 C5305 1.373 . S
C5304 C5306 1.389 . S
C5305 H5284 0.950 . S
C5305 C5304 1.373 . S
C5305 C5321 1.377 . S
C5306 C5304 1.389 . S
C5306 C5307 1.524 . S
C5306 C5320 1.377 . S
C5307 C5306 1.524 . S
C5307 C5308 1.397 . S
C5307 C5312 1.363 . S
C5308 H5285 0.950 . S
C5308 C5307 1.397 . S
C5308 C5309 1.334 . S
C5309 H5286 0.950 . S
C5309 C5308 1.334 . S
C5309 C5310 1.287 . S
C5310 C5309 1.287 . S
C5310 C5311 1.524 . S
C5310 H5329 0.913 . S
C5311 H5287 0.950 . S
C5311 C5310 1.524 . S
C5311 C5312 1.415 . S
C5312 H5288 0.950 . S
C5312 C5307 1.363 . S
C5312 C5311 1.415 . S
C5313 H5289 0.951 . S
C5313 C5314 1.366 . S
C5313 C5315 1.388 . S
C5314 C5313 1.366 . S
C5314 C5318 1.385 . S
C5315 H5290 0.951 . S
C5315 C5313 1.388 . S
C5315 C5316 1.366 . S
C5316 C5315 1.366 . S
C5316 C5317 1.414 . S
C5316 C5319 1.499 . S
C5317 H5291 0.950 . S
C5317 C5316 1.414 . S
C5317 C5318 1.374 . S
C5318 H5292 0.950 . S
C5318 C5314 1.385 . S
C5318 C5317 1.374 . S
C5319 C5316 1.499 . S
C5319 C5320 1.373 . S
C5319 C5321 1.389 . S
C5320 H5293 0.950 . S
C5320 C5306 1.377 . S
C5320 C5319 1.373 . S
C5321 C5305 1.377 . S
C5321 C5319 1.389 . S
C5321 C5322 1.524 . S
C5322 C5321 1.524 . S
C5322 C5323 1.397 . S
C5322 C5327 1.363 . S
C5323 H5294 0.950 . S
C5323 C5322 1.397 . S
C5323 C5324 1.334 . S
C5324 H5295 0.950 . S
C5324 C5323 1.334 . S
C5324 C5325 1.287 . S
C5325 C5324 1.287 . S
C5325 C5326 1.524 . S
C5325 H5328 0.999 . S
C5326 H5296 0.950 . S
C5326 C5325 1.524 . S
C5326 C5327 1.415 . S
C5327 H5297 0.950 . S
C5327 C5322 1.363 . S
C5327 C5326 1.415 . S
H5328 C5325 0.999 . S
H5329 C5310 0.913 . S
H5330 C5348 0.951 . S
H5331 C5350 0.951 . S
H5332 C5352 0.950 . S
H5333 C5353 0.950 . S
H5334 C5355 0.950 . S
H5335 C5358 0.950 . S
H5336 C5359 0.950 . S
H5337 C5361 0.950 . S
H5338 C5362 0.950 . S
H5339 C5363 0.951 . S
H5340 C5365 0.951 . S
H5341 C5367 0.950 . S
H5342 C5368 0.950 . S
H5343 C5370 0.950 . S
H5344 C5373 0.950 . S
H5345 C5374 0.950 . S
H5346 C5376 0.950 . S
H5347 C5377 0.950 . S
C5348 H5330 0.951 . S
C5348 C5349 1.366 . S
C5348 C5350 1.388 . S
C5349 C5348 1.366 . S
C5349 C5353 1.385 . S
C5350 H5331 0.951 . S
C5350 C5348 1.388 . S
C5350 C5351 1.366 . S
C5351 C5350 1.366 . S
C5351 C5352 1.414 . S
C5351 C5354 1.499 . S
C5352 H5332 0.950 . S
C5352 C5351 1.414 . S
C5352 C5353 1.374 . S
C5353 H5333 0.950 . S
C5353 C5349 1.385 . S
C5353 C5352 1.374 . S
C5354 C5351 1.499 . S
C5354 C5355 1.373 . S
C5354 C5356 1.389 . S
C5355 H5334 0.950 . S
C5355 C5354 1.373 . S
C5355 C5371 1.377 . S
C5356 C5354 1.389 . S
C5356 C5357 1.524 . S
C5356 C5370 1.377 . S
C5357 C5356 1.524 . S
C5357 C5358 1.397 . S
C5357 C5362 1.363 . S
C5358 H5335 0.950 . S
C5358 C5357 1.397 . S
C5358 C5359 1.334 . S
C5359 H5336 0.950 . S
C5359 C5358 1.334 . S
C5359 C5360 1.287 . S
C5360 C5359 1.287 . S
C5360 C5361 1.524 . S
C5360 H5379 0.913 . S
C5361 H5337 0.950 . S
C5361 C5360 1.524 . S
C5361 C5362 1.415 . S
C5362 H5338 0.950 . S
C5362 C5357 1.363 . S
C5362 C5361 1.415 . S
C5363 H5339 0.951 . S
C5363 C5364 1.366 . S
C5363 C5365 1.388 . S
C5364 C5363 1.366 . S
C5364 C5368 1.385 . S
C5365 H5340 0.951 . S
C5365 C5363 1.388 . S
C5365 C5366 1.366 . S
C5366 C5365 1.366 . S
C5366 C5367 1.414 . S
C5366 C5369 1.499 . S
C5367 H5341 0.950 . S
C5367 C5366 1.414 . S
C5367 C5368 1.374 . S
C5368 H5342 0.950 . S
C5368 C5364 1.385 . S
C5368 C5367 1.374 . S
C5369 C5366 1.499 . S
C5369 C5370 1.373 . S
C5369 C5371 1.389 . S
C5370 H5343 0.950 . S
C5370 C5356 1.377 . S
C5370 C5369 1.373 . S
C5371 C5355 1.377 . S
C5371 C5369 1.389 . S
C5371 C5372 1.524 . S
C5372 C5371 1.524 . S
C5372 C5373 1.397 . S
C5372 C5377 1.363 . S
C5373 H5344 0.950 . S
C5373 C5372 1.397 . S
C5373 C5374 1.334 . S
C5374 H5345 0.950 . S
C5374 C5373 1.334 . S
C5374 C5375 1.287 . S
C5375 C5374 1.287 . S
C5375 C5376 1.524 . S
C5375 H5378 0.999 . S
C5376 H5346 0.950 . S
C5376 C5375 1.524 . S
C5376 C5377 1.415 . S
C5377 H5347 0.950 . S
C5377 C5372 1.363 . S
C5377 C5376 1.415 . S
H5378 C5375 0.999 . S
H5379 C5360 0.913 . S
H5380 C5398 0.951 . S
H5381 C5400 0.951 . S
H5382 C5402 0.950 . S
H5383 C5403 0.950 . S
H5384 C5405 0.950 . S
H5385 C5408 0.950 . S
H5386 C5409 0.950 . S
H5387 C5411 0.950 . S
H5388 C5412 0.950 . S
H5389 C5413 0.949 . S
H5390 C5415 0.951 . S
H5391 C5417 0.950 . S
H5392 C5418 0.950 . S
H5393 C5420 0.950 . S
H5394 C5423 0.950 . S
H5395 C5424 0.932 1_655 S
H5396 C5426 0.975 1_556 S
H5397 C5427 0.950 . S
C5398 H5380 0.951 . S
C5398 C5399 1.366 . S
C5398 C5400 1.388 . S
C5399 C5398 1.366 . S
C5399 C5403 1.385 . S
C5400 H5381 0.951 . S
C5400 C5398 1.388 . S
C5400 C5401 1.366 . S
C5401 C5400 1.366 . S
C5401 C5402 1.414 . S
C5401 C5404 1.499 . S
C5402 H5382 0.950 . S
C5402 C5401 1.414 . S
C5402 C5403 1.374 . S
C5403 H5383 0.950 . S
C5403 C5399 1.385 . S
C5403 C5402 1.374 . S
C5404 C5401 1.499 . S
C5404 C5405 1.373 . S
C5404 C5406 1.389 . S
C5405 H5384 0.950 . S
C5405 C5404 1.373 . S
C5405 C5421 1.377 . S
C5406 C5404 1.389 . S
C5406 C5407 1.524 . S
C5406 C5420 1.377 . S
C5407 C5406 1.524 . S
C5407 C5408 1.397 . S
C5407 C5412 1.363 . S
C5408 H5385 0.950 . S
C5408 C5407 1.397 . S
C5408 C5409 1.334 . S
C5409 H5386 0.950 . S
C5409 C5408 1.334 . S
C5409 C5410 1.287 . S
C5410 C5409 1.287 . S
C5410 C5411 1.524 . S
C5410 H5429 0.913 . S
C5411 H5387 0.950 . S
C5411 C5410 1.524 . S
C5411 C5412 1.415 . S
C5412 H5388 0.950 . S
C5412 C5407 1.363 . S
C5412 C5411 1.415 . S
C5413 H5389 0.949 . S
C5413 C5414 1.366 . S
C5413 C5415 1.388 . S
C5414 C5413 1.366 . S
C5414 C5418 1.385 . S
C5415 H5390 0.951 . S
C5415 C5413 1.388 . S
C5415 C5416 1.366 . S
C5416 C5415 1.366 . S
C5416 C5417 1.414 . S
C5416 C5419 1.499 . S
C5417 H5391 0.950 . S
C5417 C5416 1.414 . S
C5417 C5418 1.374 . S
C5418 H5392 0.950 . S
C5418 C5414 1.385 . S
C5418 C5417 1.374 . S
C5419 C5416 1.499 . S
C5419 C5420 1.373 . S
C5419 C5421 1.389 . S
C5420 H5393 0.950 . S
C5420 C5406 1.377 . S
C5420 C5419 1.373 . S
C5421 C5405 1.377 . S
C5421 C5419 1.389 . S
C5421 C5422 1.524 . S
C5422 C5421 1.524 . S
C5422 C5423 1.397 . S
C5422 C5427 1.363 . S
C5423 H5394 0.950 . S
C5423 C5422 1.397 . S
C5423 C5424 1.372 . S
C5424 H5395 0.932 1_455 S
C5424 C5423 1.372 . S
C5424 C5425 1.270 1_455 S
C5425 C5424 1.270 1_655 S
C5425 C5426 1.524 1_655 S
C5425 H5428 0.999 . S
C5426 H5396 0.975 1_554 S
C5426 C5425 1.524 1_455 S
C5426 C5427 1.415 . S
C5427 H5397 0.950 . S
C5427 C5422 1.363 . S
C5427 C5426 1.415 . S
H5428 C5425 0.999 . S
H5429 C5410 0.913 . S
H5430 C5448 0.951 . S
H5431 C5450 0.951 . S
H5432 C5452 0.950 . S
H5433 C5453 0.950 . S
H5434 C5455 0.950 . S
H5435 C5458 0.950 . S
H5436 C5459 0.950 . S
H5437 C5461 0.950 . S
H5438 C5462 0.950 . S
H5439 C5463 0.951 . S
H5440 C5465 0.951 . S
H5441 C5467 0.950 . S
H5442 C5468 0.950 . S
H5443 C5470 0.950 . S
H5444 C5473 0.950 . S
H5445 C5474 0.950 . S
H5446 C5476 0.950 . S
H5447 C5477 0.950 . S
C5448 H5430 0.951 . S
C5448 C5449 1.366 . S
C5448 C5450 1.388 . S
C5449 C5448 1.366 . S
C5449 C5453 1.385 . S
C5450 H5431 0.951 . S
C5450 C5448 1.388 . S
C5450 C5451 1.366 . S
C5451 C5450 1.366 . S
C5451 C5452 1.414 . S
C5451 C5454 1.499 . S
C5452 H5432 0.950 . S
C5452 C5451 1.414 . S
C5452 C5453 1.374 . S
C5453 H5433 0.950 . S
C5453 C5449 1.385 . S
C5453 C5452 1.374 . S
C5454 C5451 1.499 . S
C5454 C5455 1.373 . S
C5454 C5456 1.389 . S
C5455 H5434 0.950 . S
C5455 C5454 1.373 . S
C5455 C5471 1.377 . S
C5456 C5454 1.389 . S
C5456 C5457 1.524 . S
C5456 C5470 1.377 . S
C5457 C5456 1.524 . S
C5457 C5458 1.397 . S
C5457 C5462 1.363 . S
C5458 H5435 0.950 . S
C5458 C5457 1.397 . S
C5458 C5459 1.334 . S
C5459 H5436 0.950 . S
C5459 C5458 1.334 . S
C5459 C5460 1.287 . S
C5460 C5459 1.287 . S
C5460 C5461 1.524 . S
C5460 H5479 0.913 . S
C5461 H5437 0.950 . S
C5461 C5460 1.524 . S
C5461 C5462 1.415 . S
C5462 H5438 0.950 . S
C5462 C5457 1.363 . S
C5462 C5461 1.415 . S
C5463 H5439 0.951 . S
C5463 C5464 1.366 . S
C5463 C5465 1.388 . S
C5464 C5463 1.366 . S
C5464 C5468 1.385 . S
C5465 H5440 0.951 . S
C5465 C5463 1.388 . S
C5465 C5466 1.366 . S
C5466 C5465 1.366 . S
C5466 C5467 1.414 . S
C5466 C5469 1.499 . S
C5467 H5441 0.950 . S
C5467 C5466 1.414 . S
C5467 C5468 1.374 . S
C5468 H5442 0.950 . S
C5468 C5464 1.385 . S
C5468 C5467 1.374 . S
C5469 C5466 1.499 . S
C5469 C5470 1.373 . S
C5469 C5471 1.389 . S
C5470 H5443 0.950 . S
C5470 C5456 1.377 . S
C5470 C5469 1.373 . S
C5471 C5455 1.377 . S
C5471 C5469 1.389 . S
C5471 C5472 1.524 . S
C5472 C5471 1.524 . S
C5472 C5473 1.397 . S
C5472 C5477 1.363 . S
C5473 H5444 0.950 . S
C5473 C5472 1.397 . S
C5473 C5474 1.334 . S
C5474 H5445 0.950 . S
C5474 C5473 1.334 . S
C5474 C5475 1.287 . S
C5475 C5474 1.287 . S
C5475 C5476 1.524 . S
C5475 H5478 0.999 . S
C5476 H5446 0.950 . S
C5476 C5475 1.524 . S
C5476 C5477 1.415 . S
C5477 H5447 0.950 . S
C5477 C5472 1.363 . S
C5477 C5476 1.415 . S
H5478 C5475 0.999 . S
H5479 C5460 0.913 . S
H5480 C5498 0.951 . S
H5481 C5500 0.951 . S
H5482 C5502 0.950 . S
H5483 C5503 0.950 . S
H5484 C5505 0.950 . S
H5485 C5508 0.950 . S
H5486 C5509 0.950 . S
H5487 C5511 0.950 . S
H5488 C5512 0.950 . S
H5489 C5513 0.930 1_554 S
H5490 C5515 0.951 . S
H5491 C5517 0.950 . S
H5492 C5518 0.950 . S
H5493 C5520 0.950 . S
H5494 C5523 0.950 . S
H5495 C5524 0.950 . S
H5496 C5526 0.950 . S
H5497 C5527 0.950 . S
C5498 H5480 0.951 . S
C5498 C5499 1.366 . S
C5498 C5500 1.388 . S
C5499 C5498 1.366 . S
C5499 C5503 1.385 . S
C5500 H5481 0.951 . S
C5500 C5498 1.388 . S
C5500 C5501 1.366 . S
C5501 C5500 1.366 . S
C5501 C5502 1.414 . S
C5501 C5504 1.499 . S
C5502 H5482 0.950 . S
C5502 C5501 1.414 . S
C5502 C5503 1.374 . S
C5503 H5483 0.950 . S
C5503 C5499 1.385 . S
C5503 C5502 1.374 . S
C5504 C5501 1.499 . S
C5504 C5505 1.373 . S
C5504 C5506 1.389 . S
C5505 H5484 0.950 . S
C5505 C5504 1.373 . S
C5505 C5521 1.377 . S
C5506 C5504 1.389 . S
C5506 C5507 1.524 . S
C5506 C5520 1.377 . S
C5507 C5506 1.524 . S
C5507 C5508 1.397 . S
C5507 C5512 1.363 . S
C5508 H5485 0.950 . S
C5508 C5507 1.397 . S
C5508 C5509 1.334 . S
C5509 H5486 0.950 . S
C5509 C5508 1.334 . S
C5509 C5510 1.287 . S
C5510 C5509 1.287 . S
C5510 C5511 1.524 . S
C5510 H5529 0.913 . S
C5511 H5487 0.950 . S
C5511 C5510 1.524 . S
C5511 C5512 1.415 . S
C5512 H5488 0.950 . S
C5512 C5507 1.363 . S
C5512 C5511 1.415 . S
C5513 H5489 0.930 1_556 S
C5513 C5514 1.373 . S
C5513 C5515 1.402 . S
C5514 C5513 1.373 . S
C5514 C5518 1.385 . S
C5515 H5490 0.951 . S
C5515 C5513 1.402 . S
C5515 C5516 1.366 . S
C5516 C5515 1.366 . S
C5516 C5517 1.414 . S
C5516 C5519 1.499 . S
C5517 H5491 0.950 . S
C5517 C5516 1.414 . S
C5517 C5518 1.374 . S
C5518 H5492 0.950 . S
C5518 C5514 1.385 . S
C5518 C5517 1.374 . S
C5519 C5516 1.499 . S
C5519 C5520 1.373 . S
C5519 C5521 1.389 . S
C5520 H5493 0.950 . S
C5520 C5506 1.377 . S
C5520 C5519 1.373 . S
C5521 C5505 1.377 . S
C5521 C5519 1.389 . S
C5521 C5522 1.524 . S
C5522 C5521 1.524 . S
C5522 C5523 1.397 . S
C5522 C5527 1.363 . S
C5523 H5494 0.950 . S
C5523 C5522 1.397 . S
C5523 C5524 1.334 . S
C5524 H5495 0.950 . S
C5524 C5523 1.334 . S
C5524 C5525 1.287 . S
C5525 C5524 1.287 . S
C5525 C5526 1.524 1_556 S
C5525 H5528 0.999 1_556 S
C5526 H5496 0.950 . S
C5526 C5525 1.524 1_554 S
C5526 C5527 1.415 1_554 S
C5527 H5497 0.950 . S
C5527 C5522 1.363 . S
C5527 C5526 1.415 1_556 S
H5528 C5525 0.999 1_554 S
H5529 C5510 0.913 . S
H5530 C5548 0.951 . S
H5531 C5550 0.951 . S
H5532 C5552 0.950 . S
H5533 C5553 0.950 . S
H5534 C5555 0.950 . S
H5535 C5558 0.950 . S
H5536 C5559 0.950 . S
H5537 C5561 0.950 . S
H5538 C5562 0.950 . S
H5539 C5563 0.951 . S
H5540 C5565 0.951 . S
H5541 C5567 0.950 . S
H5542 C5568 0.950 . S
H5543 C5570 0.950 . S
H5544 C5573 0.950 . S
H5545 C5574 0.950 . S
H5546 C5576 0.950 . S
H5547 C5577 0.950 . S
C5548 H5530 0.951 . S
C5548 C5549 1.366 . S
C5548 C5550 1.388 . S
C5549 C5548 1.366 . S
C5549 C5553 1.385 . S
C5550 H5531 0.951 . S
C5550 C5548 1.388 . S
C5550 C5551 1.366 . S
C5551 C5550 1.366 . S
C5551 C5552 1.414 . S
C5551 C5554 1.499 . S
C5552 H5532 0.950 . S
C5552 C5551 1.414 . S
C5552 C5553 1.374 . S
C5553 H5533 0.950 . S
C5553 C5549 1.385 . S
C5553 C5552 1.374 . S
C5554 C5551 1.499 . S
C5554 C5555 1.373 . S
C5554 C5556 1.389 . S
C5555 H5534 0.950 . S
C5555 C5554 1.373 . S
C5555 C5571 1.377 . S
C5556 C5554 1.389 . S
C5556 C5557 1.524 . S
C5556 C5570 1.377 . S
C5557 C5556 1.524 . S
C5557 C5558 1.397 . S
C5557 C5562 1.363 . S
C5558 H5535 0.950 . S
C5558 C5557 1.397 . S
C5558 C5559 1.334 . S
C5559 H5536 0.950 . S
C5559 C5558 1.334 . S
C5559 C5560 1.287 . S
C5560 C5559 1.287 . S
C5560 C5561 1.524 . S
C5560 H5579 0.913 . S
C5561 H5537 0.950 . S
C5561 C5560 1.524 . S
C5561 C5562 1.415 . S
C5562 H5538 0.950 . S
C5562 C5557 1.363 . S
C5562 C5561 1.415 . S
C5563 H5539 0.951 . S
C5563 C5564 1.366 . S
C5563 C5565 1.388 . S
C5564 C5563 1.366 . S
C5564 C5568 1.385 . S
C5565 H5540 0.951 . S
C5565 C5563 1.388 . S
C5565 C5566 1.366 . S
C5566 C5565 1.366 . S
C5566 C5567 1.414 . S
C5566 C5569 1.499 . S
C5567 H5541 0.950 . S
C5567 C5566 1.414 . S
C5567 C5568 1.374 . S
C5568 H5542 0.950 . S
C5568 C5564 1.385 . S
C5568 C5567 1.374 . S
C5569 C5566 1.499 . S
C5569 C5570 1.373 . S
C5569 C5571 1.389 . S
C5570 H5543 0.950 . S
C5570 C5556 1.377 . S
C5570 C5569 1.373 . S
C5571 C5555 1.377 . S
C5571 C5569 1.389 . S
C5571 C5572 1.524 . S
C5572 C5571 1.524 . S
C5572 C5573 1.397 . S
C5572 C5577 1.363 . S
C5573 H5544 0.950 . S
C5573 C5572 1.397 . S
C5573 C5574 1.334 . S
C5574 H5545 0.950 . S
C5574 C5573 1.334 . S
C5574 C5575 1.287 . S
C5575 C5574 1.287 . S
C5575 C5576 1.524 . S
C5575 H5578 0.999 . S
C5576 H5546 0.950 . S
C5576 C5575 1.524 . S
C5576 C5577 1.415 . S
C5577 H5547 0.950 . S
C5577 C5572 1.363 . S
C5577 C5576 1.415 . S
H5578 C5575 0.999 . S
H5579 C5560 0.913 . S
H5580 C5598 0.951 . S
H5581 C5600 0.951 . S
H5582 C5602 0.950 . S
H5583 C5603 0.950 . S
H5584 C5605 0.950 . S
H5585 C5608 0.950 . S
H5586 C5609 0.950 . S
H5587 C5611 0.950 . S
H5588 C5612 0.950 . S
H5589 C5613 0.951 . S
H5590 C5615 0.951 . S
H5591 C5617 0.950 . S
H5592 C5618 0.950 . S
H5593 C5620 0.950 . S
H5594 C5623 0.950 . S
H5595 C5624 0.950 . S
H5596 C5626 0.950 . S
H5597 C5627 0.950 . S
C5598 H5580 0.951 . S
C5598 C5599 1.366 . S
C5598 C5600 1.388 . S
C5599 C5598 1.366 . S
C5599 C5603 1.385 . S
C5600 H5581 0.951 . S
C5600 C5598 1.388 . S
C5600 C5601 1.366 . S
C5601 C5600 1.366 . S
C5601 C5602 1.414 . S
C5601 C5604 1.499 . S
C5602 H5582 0.950 . S
C5602 C5601 1.414 . S
C5602 C5603 1.374 . S
C5603 H5583 0.950 . S
C5603 C5599 1.385 . S
C5603 C5602 1.374 . S
C5604 C5601 1.499 . S
C5604 C5605 1.373 . S
C5604 C5606 1.389 . S
C5605 H5584 0.950 . S
C5605 C5604 1.373 . S
C5605 C5621 1.377 . S
C5606 C5604 1.389 . S
C5606 C5607 1.524 . S
C5606 C5620 1.377 . S
C5607 C5606 1.524 . S
C5607 C5608 1.397 . S
C5607 C5612 1.363 . S
C5608 H5585 0.950 . S
C5608 C5607 1.397 . S
C5608 C5609 1.334 . S
C5609 H5586 0.950 . S
C5609 C5608 1.334 . S
C5609 C5610 1.287 . S
C5610 C5609 1.287 . S
C5610 C5611 1.524 . S
C5610 H5629 0.913 . S
C5611 H5587 0.950 . S
C5611 C5610 1.524 . S
C5611 C5612 1.415 . S
C5612 H5588 0.950 . S
C5612 C5607 1.363 . S
C5612 C5611 1.415 . S
C5613 H5589 0.951 . S
C5613 C5614 1.366 . S
C5613 C5615 1.388 . S
C5614 C5613 1.366 . S
C5614 C5618 1.385 . S
C5615 H5590 0.951 . S
C5615 C5613 1.388 . S
C5615 C5616 1.366 . S
C5616 C5615 1.366 . S
C5616 C5617 1.414 . S
C5616 C5619 1.499 . S
C5617 H5591 0.950 . S
C5617 C5616 1.414 . S
C5617 C5618 1.374 . S
C5618 H5592 0.950 . S
C5618 C5614 1.385 . S
C5618 C5617 1.374 . S
C5619 C5616 1.499 . S
C5619 C5620 1.373 . S
C5619 C5621 1.389 . S
C5620 H5593 0.950 . S
C5620 C5606 1.377 . S
C5620 C5619 1.373 . S
C5621 C5605 1.377 . S
C5621 C5619 1.389 . S
C5621 C5622 1.524 . S
C5622 C5621 1.524 . S
C5622 C5623 1.397 . S
C5622 C5627 1.363 . S
C5623 H5594 0.950 . S
C5623 C5622 1.397 . S
C5623 C5624 1.334 . S
C5624 H5595 0.950 . S
C5624 C5623 1.334 . S
C5624 C5625 1.287 . S
C5625 C5624 1.287 . S
C5625 C5626 1.524 . S
C5625 H5628 0.999 . S
C5626 H5596 0.950 . S
C5626 C5625 1.524 . S
C5626 C5627 1.415 . S
C5627 H5597 0.950 . S
C5627 C5622 1.363 . S
C5627 C5626 1.415 . S
H5628 C5625 0.999 . S
H5629 C5610 0.913 . S
H5630 C5648 0.951 . S
H5631 C5650 0.951 . S
H5632 C5652 0.950 . S
H5633 C5653 0.950 . S
H5634 C5655 0.950 . S
H5635 C5658 0.950 . S
H5636 C5659 0.950 . S
H5637 C5661 0.950 . S
H5638 C5662 0.950 . S
H5639 C5663 0.951 . S
H5640 C5665 0.951 . S
H5641 C5667 0.950 . S
H5642 C5668 0.950 . S
H5643 C5670 0.950 . S
H5644 C5673 0.950 . S
H5645 C5674 0.950 . S
H5646 C5676 0.950 . S
H5647 C5677 0.950 . S
C5648 H5630 0.951 . S
C5648 C5649 1.366 . S
C5648 C5650 1.388 . S
C5649 C5648 1.366 . S
C5649 C5653 1.385 . S
C5650 H5631 0.951 . S
C5650 C5648 1.388 . S
C5650 C5651 1.366 . S
C5651 C5650 1.366 . S
C5651 C5652 1.414 . S
C5651 C5654 1.499 . S
C5652 H5632 0.950 . S
C5652 C5651 1.414 . S
C5652 C5653 1.374 . S
C5653 H5633 0.950 . S
C5653 C5649 1.385 . S
C5653 C5652 1.374 . S
C5654 C5651 1.499 . S
C5654 C5655 1.373 . S
C5654 C5656 1.389 . S
C5655 H5634 0.950 . S
C5655 C5654 1.373 . S
C5655 C5671 1.377 . S
C5656 C5654 1.389 . S
C5656 C5657 1.524 . S
C5656 C5670 1.377 . S
C5657 C5656 1.524 . S
C5657 C5658 1.397 . S
C5657 C5662 1.363 . S
C5658 H5635 0.950 . S
C5658 C5657 1.397 . S
C5658 C5659 1.334 . S
C5659 H5636 0.950 . S
C5659 C5658 1.334 . S
C5659 C5660 1.287 . S
C5660 C5659 1.287 . S
C5660 C5661 1.524 . S
C5660 H5679 0.913 . S
C5661 H5637 0.950 . S
C5661 C5660 1.524 . S
C5661 C5662 1.415 . S
C5662 H5638 0.950 . S
C5662 C5657 1.363 . S
C5662 C5661 1.415 . S
C5663 H5639 0.951 . S
C5663 C5664 1.366 . S
C5663 C5665 1.388 . S
C5664 C5663 1.366 . S
C5664 C5668 1.385 . S
C5665 H5640 0.951 . S
C5665 C5663 1.388 . S
C5665 C5666 1.366 . S
C5666 C5665 1.366 . S
C5666 C5667 1.414 . S
C5666 C5669 1.499 . S
C5667 H5641 0.950 . S
C5667 C5666 1.414 . S
C5667 C5668 1.374 . S
C5668 H5642 0.950 . S
C5668 C5664 1.385 . S
C5668 C5667 1.374 . S
C5669 C5666 1.499 . S
C5669 C5670 1.373 . S
C5669 C5671 1.389 . S
C5670 H5643 0.950 . S
C5670 C5656 1.377 . S
C5670 C5669 1.373 . S
C5671 C5655 1.377 . S
C5671 C5669 1.389 . S
C5671 C5672 1.524 . S
C5672 C5671 1.524 . S
C5672 C5673 1.397 . S
C5672 C5677 1.363 . S
C5673 H5644 0.950 . S
C5673 C5672 1.397 . S
C5673 C5674 1.334 . S
C5674 H5645 0.950 . S
C5674 C5673 1.334 . S
C5674 C5675 1.287 . S
C5675 C5674 1.287 . S
C5675 C5676 1.524 . S
C5675 H5678 0.999 . S
C5676 H5646 0.950 . S
C5676 C5675 1.524 . S
C5676 C5677 1.415 . S
C5677 H5647 0.950 . S
C5677 C5672 1.363 . S
C5677 C5676 1.415 . S
H5678 C5675 0.999 . S
H5679 C5660 0.913 . S
H5680 C5698 0.951 . S
H5681 C5700 0.951 . S
H5682 C5702 0.950 . S
H5683 C5703 0.950 . S
H5684 C5705 0.950 . S
H5685 C5708 0.950 . S
H5686 C5709 0.950 . S
H5687 C5711 0.950 . S
H5688 C5712 0.950 . S
H5689 C5713 0.951 . S
H5690 C5715 0.951 . S
H5691 C5717 0.950 . S
H5692 C5718 0.950 . S
H5693 C5720 0.950 . S
H5694 C5723 0.950 . S
H5695 C5724 0.950 . S
H5696 C5726 0.950 . S
H5697 C5727 0.950 . S
C5698 H5680 0.951 . S
C5698 C5699 1.366 . S
C5698 C5700 1.388 . S
C5699 C5698 1.366 . S
C5699 C5703 1.385 . S
C5700 H5681 0.951 . S
C5700 C5698 1.388 . S
C5700 C5701 1.366 . S
C5701 C5700 1.366 . S
C5701 C5702 1.414 . S
C5701 C5704 1.499 . S
C5702 H5682 0.950 . S
C5702 C5701 1.414 . S
C5702 C5703 1.374 . S
C5703 H5683 0.950 . S
C5703 C5699 1.385 . S
C5703 C5702 1.374 . S
C5704 C5701 1.499 . S
C5704 C5705 1.373 . S
C5704 C5706 1.389 . S
C5705 H5684 0.950 . S
C5705 C5704 1.373 . S
C5705 C5721 1.377 . S
C5706 C5704 1.389 . S
C5706 C5707 1.524 . S
C5706 C5720 1.377 . S
C5707 C5706 1.524 . S
C5707 C5708 1.397 . S
C5707 C5712 1.363 . S
C5708 H5685 0.950 . S
C5708 C5707 1.397 . S
C5708 C5709 1.334 . S
C5709 H5686 0.950 . S
C5709 C5708 1.334 . S
C5709 C5710 1.287 . S
C5710 C5709 1.287 . S
C5710 C5711 1.524 . S
C5710 H5729 0.913 . S
C5711 H5687 0.950 . S
C5711 C5710 1.524 . S
C5711 C5712 1.415 . S
C5712 H5688 0.950 . S
C5712 C5707 1.363 . S
C5712 C5711 1.415 . S
C5713 H5689 0.951 . S
C5713 C5714 1.366 . S
C5713 C5715 1.388 . S
C5714 C5713 1.366 . S
C5714 C5718 1.385 . S
C5715 H5690 0.951 . S
C5715 C5713 1.388 . S
C5715 C5716 1.366 . S
C5716 C5715 1.366 . S
C5716 C5717 1.414 . S
C5716 C5719 1.499 . S
C5717 H5691 0.950 . S
C5717 C5716 1.414 . S
C5717 C5718 1.374 . S
C5718 H5692 0.950 . S
C5718 C5714 1.385 . S
C5718 C5717 1.374 . S
C5719 C5716 1.499 . S
C5719 C5720 1.373 . S
C5719 C5721 1.389 . S
C5720 H5693 0.950 . S
C5720 C5706 1.377 . S
C5720 C5719 1.373 . S
C5721 C5705 1.377 . S
C5721 C5719 1.389 . S
C5721 C5722 1.524 . S
C5722 C5721 1.524 . S
C5722 C5723 1.397 . S
C5722 C5727 1.363 . S
C5723 H5694 0.950 . S
C5723 C5722 1.397 . S
C5723 C5724 1.334 . S
C5724 H5695 0.950 . S
C5724 C5723 1.334 . S
C5724 C5725 1.287 . S
C5725 C5724 1.287 . S
C5725 C5726 1.524 . S
C5725 H5728 0.999 . S
C5726 H5696 0.950 . S
C5726 C5725 1.524 . S
C5726 C5727 1.415 . S
C5727 H5697 0.950 . S
C5727 C5722 1.363 . S
C5727 C5726 1.415 . S
H5728 C5725 0.999 . S
H5729 C5710 0.913 . S
H5730 C5748 0.951 . S
H5731 C5750 0.951 . S
H5732 C5752 0.950 . S
H5733 C5753 0.950 . S
H5734 C5755 0.950 . S
H5735 C5758 0.950 . S
H5736 C5759 0.950 . S
H5737 C5761 0.950 . S
H5738 C5762 0.950 . S
H5739 C5763 0.951 . S
H5740 C5765 0.951 . S
H5741 C5767 0.950 . S
H5742 C5768 0.950 . S
H5743 C5770 0.950 . S
H5744 C5773 0.950 . S
H5745 C5774 0.950 . S
H5746 C5776 0.950 . S
H5747 C5777 0.950 . S
C5748 H5730 0.951 . S
C5748 C5749 1.366 . S
C5748 C5750 1.388 . S
C5749 C5748 1.366 . S
C5749 C5753 1.385 . S
C5750 H5731 0.951 . S
C5750 C5748 1.388 . S
C5750 C5751 1.366 . S
C5751 C5750 1.366 . S
C5751 C5752 1.414 . S
C5751 C5754 1.499 . S
C5752 H5732 0.950 . S
C5752 C5751 1.414 . S
C5752 C5753 1.374 . S
C5753 H5733 0.950 . S
C5753 C5749 1.385 . S
C5753 C5752 1.374 . S
C5754 C5751 1.499 . S
C5754 C5755 1.373 . S
C5754 C5756 1.389 . S
C5755 H5734 0.950 . S
C5755 C5754 1.373 . S
C5755 C5771 1.377 . S
C5756 C5754 1.389 . S
C5756 C5757 1.524 . S
C5756 C5770 1.377 . S
C5757 C5756 1.524 . S
C5757 C5758 1.397 . S
C5757 C5762 1.363 . S
C5758 H5735 0.950 . S
C5758 C5757 1.397 . S
C5758 C5759 1.334 . S
C5759 H5736 0.950 . S
C5759 C5758 1.334 . S
C5759 C5760 1.287 . S
C5760 C5759 1.287 . S
C5760 C5761 1.524 . S
C5760 H5779 0.913 . S
C5761 H5737 0.950 . S
C5761 C5760 1.524 . S
C5761 C5762 1.415 . S
C5762 H5738 0.950 . S
C5762 C5757 1.363 . S
C5762 C5761 1.415 . S
C5763 H5739 0.951 . S
C5763 C5764 1.366 . S
C5763 C5765 1.388 . S
C5764 C5763 1.366 . S
C5764 C5768 1.385 . S
C5765 H5740 0.951 . S
C5765 C5763 1.388 . S
C5765 C5766 1.366 . S
C5766 C5765 1.366 . S
C5766 C5767 1.414 . S
C5766 C5769 1.499 . S
C5767 H5741 0.950 . S
C5767 C5766 1.414 . S
C5767 C5768 1.374 . S
C5768 H5742 0.950 . S
C5768 C5764 1.385 . S
C5768 C5767 1.374 . S
C5769 C5766 1.499 . S
C5769 C5770 1.373 . S
C5769 C5771 1.389 . S
C5770 H5743 0.950 . S
C5770 C5756 1.377 . S
C5770 C5769 1.373 . S
C5771 C5755 1.377 . S
C5771 C5769 1.389 . S
C5771 C5772 1.524 . S
C5772 C5771 1.524 . S
C5772 C5773 1.397 . S
C5772 C5777 1.363 . S
C5773 H5744 0.950 . S
C5773 C5772 1.397 . S
C5773 C5774 1.334 . S
C5774 H5745 0.950 . S
C5774 C5773 1.334 . S
C5774 C5775 1.287 . S
C5775 C5774 1.287 . S
C5775 C5776 1.524 . S
C5775 H5778 0.999 . S
C5776 H5746 0.950 . S
C5776 C5775 1.524 . S
C5776 C5777 1.415 . S
C5777 H5747 0.950 . S
C5777 C5772 1.363 . S
C5777 C5776 1.415 . S
H5778 C5775 0.999 . S
H5779 C5760 0.913 . S
H5780 C5798 0.951 . S
H5781 C5800 0.951 . S
H5782 C5802 0.950 . S
H5783 C5803 0.950 . S
H5784 C5805 0.950 . S
H5785 C5808 0.950 . S
H5786 C5809 0.950 . S
H5787 C5811 0.950 . S
H5788 C5812 0.950 . S
H5789 C5813 0.951 . S
H5790 C5815 0.951 . S
H5791 C5817 0.950 . S
H5792 C5818 0.950 . S
H5793 C5820 0.950 . S
H5794 C5823 0.950 . S
H5795 C5824 0.950 . S
H5796 C5826 0.950 . S
H5797 C5827 0.950 . S
C5798 H5780 0.951 . S
C5798 C5799 1.366 . S
C5798 C5800 1.388 . S
C5799 C5798 1.366 . S
C5799 C5803 1.385 . S
C5800 H5781 0.951 . S
C5800 C5798 1.388 . S
C5800 C5801 1.366 . S
C5801 C5800 1.366 . S
C5801 C5802 1.414 . S
C5801 C5804 1.499 . S
C5802 H5782 0.950 . S
C5802 C5801 1.414 . S
C5802 C5803 1.374 . S
C5803 H5783 0.950 . S
C5803 C5799 1.385 . S
C5803 C5802 1.374 . S
C5804 C5801 1.499 . S
C5804 C5805 1.373 . S
C5804 C5806 1.389 . S
C5805 H5784 0.950 . S
C5805 C5804 1.373 . S
C5805 C5821 1.377 . S
C5806 C5804 1.389 . S
C5806 C5807 1.524 . S
C5806 C5820 1.377 . S
C5807 C5806 1.524 . S
C5807 C5808 1.397 . S
C5807 C5812 1.363 . S
C5808 H5785 0.950 . S
C5808 C5807 1.397 . S
C5808 C5809 1.334 . S
C5809 H5786 0.950 . S
C5809 C5808 1.334 . S
C5809 C5810 1.287 . S
C5810 C5809 1.287 . S
C5810 C5811 1.524 . S
C5810 H5829 0.913 . S
C5811 H5787 0.950 . S
C5811 C5810 1.524 . S
C5811 C5812 1.415 . S
C5812 H5788 0.950 . S
C5812 C5807 1.363 . S
C5812 C5811 1.415 . S
C5813 H5789 0.951 . S
C5813 C5814 1.366 . S
C5813 C5815 1.388 1_455 S
C5814 C5813 1.366 . S
C5814 C5818 1.385 . S
C5815 H5790 0.951 . S
C5815 C5813 1.388 1_655 S
C5815 C5816 1.366 1_655 S
C5816 C5815 1.366 1_455 S
C5816 C5817 1.414 . S
C5816 C5819 1.499 1_455 S
C5817 H5791 0.950 . S
C5817 C5816 1.414 . S
C5817 C5818 1.374 . S
C5818 H5792 0.950 . S
C5818 C5814 1.385 . S
C5818 C5817 1.374 . S
C5819 C5816 1.499 1_655 S
C5819 C5820 1.373 . S
C5819 C5821 1.389 . S
C5820 H5793 0.950 . S
C5820 C5806 1.377 . S
C5820 C5819 1.373 . S
C5821 C5805 1.377 . S
C5821 C5819 1.389 . S
C5821 C5822 1.524 . S
C5822 C5821 1.524 . S
C5822 C5823 1.397 1_655 S
C5822 C5827 1.363 . S
C5823 H5794 0.950 . S
C5823 C5822 1.397 1_455 S
C5823 C5824 1.334 . S
C5824 H5795 0.950 . S
C5824 C5823 1.334 . S
C5824 C5825 1.287 . S
C5825 C5824 1.287 . S
C5825 C5826 1.524 1_455 S
C5825 H5828 0.999 . S
C5826 H5796 0.950 . S
C5826 C5825 1.524 1_655 S
C5826 C5827 1.415 . S
C5827 H5797 0.950 . S
C5827 C5822 1.363 . S
C5827 C5826 1.415 . S
H5828 C5825 0.999 . S
H5829 C5810 0.913 . S
H5830 C5848 0.951 . S
H5831 C5850 0.951 . S
H5832 C5852 0.950 . S
H5833 C5853 0.950 . S
H5834 C5855 0.950 . S
H5835 C5858 0.950 . S
H5836 C5859 0.950 . S
H5837 C5861 0.950 . S
H5838 C5862 0.950 . S
H5839 C5863 0.951 . S
H5840 C5865 0.951 . S
H5841 C5867 0.950 . S
H5842 C5868 0.950 . S
H5843 C5870 0.950 . S
H5844 C5873 0.950 . S
H5845 C5874 0.950 . S
H5846 C5876 0.950 . S
H5847 C5877 0.950 . S
C5848 H5830 0.951 . S
C5848 C5849 1.366 . S
C5848 C5850 1.388 . S
C5849 C5848 1.366 . S
C5849 C5853 1.385 . S
C5850 H5831 0.951 . S
C5850 C5848 1.388 . S
C5850 C5851 1.366 . S
C5851 C5850 1.366 . S
C5851 C5852 1.414 . S
C5851 C5854 1.499 . S
C5852 H5832 0.950 . S
C5852 C5851 1.414 . S
C5852 C5853 1.374 . S
C5853 H5833 0.950 . S
C5853 C5849 1.385 . S
C5853 C5852 1.374 . S
C5854 C5851 1.499 . S
C5854 C5855 1.373 . S
C5854 C5856 1.389 . S
C5855 H5834 0.950 . S
C5855 C5854 1.373 . S
C5855 C5871 1.377 . S
C5856 C5854 1.389 . S
C5856 C5857 1.524 . S
C5856 C5870 1.377 . S
C5857 C5856 1.524 . S
C5857 C5858 1.397 . S
C5857 C5862 1.363 . S
C5858 H5835 0.950 . S
C5858 C5857 1.397 . S
C5858 C5859 1.334 . S
C5859 H5836 0.950 . S
C5859 C5858 1.334 . S
C5859 C5860 1.287 . S
C5860 C5859 1.287 . S
C5860 C5861 1.524 . S
C5860 H5879 0.913 . S
C5861 H5837 0.950 . S
C5861 C5860 1.524 . S
C5861 C5862 1.415 . S
C5862 H5838 0.950 . S
C5862 C5857 1.363 . S
C5862 C5861 1.415 . S
C5863 H5839 0.951 . S
C5863 C5864 1.366 . S
C5863 C5865 1.388 . S
C5864 C5863 1.366 . S
C5864 C5868 1.385 . S
C5865 H5840 0.951 . S
C5865 C5863 1.388 . S
C5865 C5866 1.366 . S
C5866 C5865 1.366 . S
C5866 C5867 1.414 . S
C5866 C5869 1.499 . S
C5867 H5841 0.950 . S
C5867 C5866 1.414 . S
C5867 C5868 1.374 . S
C5868 H5842 0.950 . S
C5868 C5864 1.385 . S
C5868 C5867 1.374 . S
C5869 C5866 1.499 . S
C5869 C5870 1.373 . S
C5869 C5871 1.389 . S
C5870 H5843 0.950 . S
C5870 C5856 1.377 . S
C5870 C5869 1.373 . S
C5871 C5855 1.377 . S
C5871 C5869 1.389 . S
C5871 C5872 1.524 . S
C5872 C5871 1.524 . S
C5872 C5873 1.397 . S
C5872 C5877 1.363 . S
C5873 H5844 0.950 . S
C5873 C5872 1.397 . S
C5873 C5874 1.334 . S
C5874 H5845 0.950 . S
C5874 C5873 1.334 . S
C5874 C5875 1.287 . S
C5875 C5874 1.287 . S
C5875 C5876 1.524 . S
C5875 H5878 0.999 . S
C5876 H5846 0.950 . S
C5876 C5875 1.524 . S
C5876 C5877 1.415 . S
C5877 H5847 0.950 . S
C5877 C5872 1.363 . S
C5877 C5876 1.415 . S
H5878 C5875 0.999 . S
H5879 C5860 0.913 . S
H5880 C5898 0.951 . S
H5881 C5900 0.951 . S
H5882 C5902 0.950 . S
H5883 C5903 0.950 . S
H5884 C5905 0.950 . S
H5885 C5908 0.950 . S
H5886 C5909 0.950 . S
H5887 C5911 0.950 . S
H5888 C5912 0.950 . S
H5889 C5913 0.951 . S
H5890 C5915 0.951 . S
H5891 C5917 0.950 . S
H5892 C5918 0.950 . S
H5893 C5920 0.950 . S
H5894 C5923 0.950 . S
H5895 C5924 0.950 . S
H5896 C5926 0.950 . S
H5897 C5927 0.950 . S
C5898 H5880 0.951 . S
C5898 C5899 1.366 . S
C5898 C5900 1.388 . S
C5899 C5898 1.366 . S
C5899 C5903 1.385 . S
C5900 H5881 0.951 . S
C5900 C5898 1.388 . S
C5900 C5901 1.366 . S
C5901 C5900 1.366 . S
C5901 C5902 1.414 . S
C5901 C5904 1.499 . S
C5902 H5882 0.950 . S
C5902 C5901 1.414 . S
C5902 C5903 1.374 . S
C5903 H5883 0.950 . S
C5903 C5899 1.385 . S
C5903 C5902 1.374 . S
C5904 C5901 1.499 . S
C5904 C5905 1.373 . S
C5904 C5906 1.389 . S
C5905 H5884 0.950 . S
C5905 C5904 1.373 . S
C5905 C5921 1.377 . S
C5906 C5904 1.389 . S
C5906 C5907 1.524 . S
C5906 C5920 1.377 . S
C5907 C5906 1.524 . S
C5907 C5908 1.397 . S
C5907 C5912 1.363 . S
C5908 H5885 0.950 . S
C5908 C5907 1.397 . S
C5908 C5909 1.334 . S
C5909 H5886 0.950 . S
C5909 C5908 1.334 . S
C5909 C5910 1.287 . S
C5910 C5909 1.287 . S
C5910 C5911 1.524 . S
C5910 H5929 0.913 . S
C5911 H5887 0.950 . S
C5911 C5910 1.524 . S
C5911 C5912 1.415 . S
C5912 H5888 0.950 . S
C5912 C5907 1.363 . S
C5912 C5911 1.415 . S
C5913 H5889 0.951 . S
C5913 C5914 1.366 . S
C5913 C5915 1.388 . S
C5914 C5913 1.366 . S
C5914 C5918 1.385 . S
C5915 H5890 0.951 . S
C5915 C5913 1.388 . S
C5915 C5916 1.366 . S
C5916 C5915 1.366 . S
C5916 C5917 1.414 . S
C5916 C5919 1.499 . S
C5917 H5891 0.950 . S
C5917 C5916 1.414 . S
C5917 C5918 1.374 . S
C5918 H5892 0.950 . S
C5918 C5914 1.385 . S
C5918 C5917 1.374 . S
C5919 C5916 1.499 . S
C5919 C5920 1.373 . S
C5919 C5921 1.389 . S
C5920 H5893 0.950 . S
C5920 C5906 1.377 . S
C5920 C5919 1.373 . S
C5921 C5905 1.377 . S
C5921 C5919 1.389 . S
C5921 C5922 1.524 . S
C5922 C5921 1.524 . S
C5922 C5923 1.397 . S
C5922 C5927 1.363 . S
C5923 H5894 0.950 . S
C5923 C5922 1.397 . S
C5923 C5924 1.334 . S
C5924 H5895 0.950 . S
C5924 C5923 1.334 . S
C5924 C5925 1.287 . S
C5925 C5924 1.287 . S
C5925 C5926 1.524 . S
C5925 H5928 0.999 . S
C5926 H5896 0.950 . S
C5926 C5925 1.524 . S
C5926 C5927 1.415 . S
C5927 H5897 0.950 . S
C5927 C5922 1.363 . S
C5927 C5926 1.415 . S
H5928 C5925 0.999 . S
H5929 C5910 0.913 . S
H5930 C5948 0.951 . S
H5931 C5950 0.951 . S
H5932 C5952 0.950 . S
H5933 C5953 0.950 . S
H5934 C5955 0.950 . S
H5935 C5958 0.950 . S
H5936 C5959 0.950 . S
H5937 C5961 0.950 . S
H5938 C5962 0.950 . S
H5939 C5963 0.951 . S
H5940 C5965 0.951 . S
H5941 C5967 0.950 . S
H5942 C5968 0.950 . S
H5943 C5970 0.950 . S
H5944 C5973 0.950 . S
H5945 C5974 0.950 . S
H5946 C5976 0.950 . S
H5947 C5977 0.950 . S
C5948 H5930 0.951 . S
C5948 C5949 1.366 . S
C5948 C5950 1.388 . S
C5949 C5948 1.366 . S
C5949 C5953 1.385 . S
C5950 H5931 0.951 . S
C5950 C5948 1.388 . S
C5950 C5951 1.366 . S
C5951 C5950 1.366 . S
C5951 C5952 1.414 . S
C5951 C5954 1.499 . S
C5952 H5932 0.950 . S
C5952 C5951 1.414 . S
C5952 C5953 1.374 . S
C5953 H5933 0.950 . S
C5953 C5949 1.385 . S
C5953 C5952 1.374 . S
C5954 C5951 1.499 . S
C5954 C5955 1.373 . S
C5954 C5956 1.389 . S
C5955 H5934 0.950 . S
C5955 C5954 1.373 . S
C5955 C5971 1.377 . S
C5956 C5954 1.389 . S
C5956 C5957 1.524 . S
C5956 C5970 1.377 . S
C5957 C5956 1.524 . S
C5957 C5958 1.397 . S
C5957 C5962 1.363 . S
C5958 H5935 0.950 . S
C5958 C5957 1.397 . S
C5958 C5959 1.334 . S
C5959 H5936 0.950 . S
C5959 C5958 1.334 . S
C5959 C5960 1.287 . S
C5960 C5959 1.287 . S
C5960 C5961 1.524 . S
C5960 H5979 0.913 . S
C5961 H5937 0.950 . S
C5961 C5960 1.524 . S
C5961 C5962 1.415 . S
C5962 H5938 0.950 . S
C5962 C5957 1.363 . S
C5962 C5961 1.415 . S
C5963 H5939 0.951 . S
C5963 C5964 1.366 . S
C5963 C5965 1.388 . S
C5964 C5963 1.366 . S
C5964 C5968 1.385 . S
C5965 H5940 0.951 . S
C5965 C5963 1.388 . S
C5965 C5966 1.366 . S
C5966 C5965 1.366 . S
C5966 C5967 1.414 . S
C5966 C5969 1.499 . S
C5967 H5941 0.950 . S
C5967 C5966 1.414 . S
C5967 C5968 1.374 . S
C5968 H5942 0.950 . S
C5968 C5964 1.385 . S
C5968 C5967 1.374 . S
C5969 C5966 1.499 . S
C5969 C5970 1.373 . S
C5969 C5971 1.389 . S
C5970 H5943 0.950 . S
C5970 C5956 1.377 . S
C5970 C5969 1.373 . S
C5971 C5955 1.377 . S
C5971 C5969 1.389 . S
C5971 C5972 1.524 . S
C5972 C5971 1.524 . S
C5972 C5973 1.397 . S
C5972 C5977 1.363 . S
C5973 H5944 0.950 . S
C5973 C5972 1.397 . S
C5973 C5974 1.334 . S
C5974 H5945 0.950 . S
C5974 C5973 1.334 . S
C5974 C5975 1.287 . S
C5975 C5974 1.287 . S
C5975 C5976 1.524 . S
C5975 H5978 0.999 . S
C5976 H5946 0.950 . S
C5976 C5975 1.524 . S
C5976 C5977 1.415 . S
C5977 H5947 0.950 . S
C5977 C5972 1.363 . S
C5977 C5976 1.415 . S
H5978 C5975 0.999 . S
H5979 C5960 0.913 . S
H5980 C5998 0.951 . S
H5981 C6000 0.951 . S
H5982 C6002 0.950 . S
H5983 C6003 0.950 . S
H5984 C6005 0.950 . S
H5985 C6008 0.950 . S
H5986 C6009 0.950 . S
H5987 C6011 0.950 . S
H5988 C6012 0.950 . S
H5989 C6013 0.951 . S
H5990 C6015 0.951 . S
H5991 C6017 0.950 . S
H5992 C6018 0.950 . S
H5993 C6020 0.950 . S
H5994 C6023 0.950 1_655 S
H5995 C6024 0.950 . S
H5996 C6026 0.950 . S
H5997 C6027 0.950 . S
C5998 H5980 0.951 . S
C5998 C5999 1.366 . S
C5998 C6000 1.388 . S
C5999 C5998 1.366 . S
C5999 C6003 1.385 . S
C6000 H5981 0.951 . S
C6000 C5998 1.388 . S
C6000 C6001 1.366 . S
C6001 C6000 1.366 . S
C6001 C6002 1.414 . S
C6001 C6004 1.499 . S
C6002 H5982 0.950 . S
C6002 C6001 1.414 . S
C6002 C6003 1.374 . S
C6003 H5983 0.950 . S
C6003 C5999 1.385 . S
C6003 C6002 1.374 . S
C6004 C6001 1.499 . S
C6004 C6005 1.373 . S
C6004 C6006 1.389 . S
C6005 H5984 0.950 . S
C6005 C6004 1.373 . S
C6005 C6021 1.377 . S
C6006 C6004 1.389 . S
C6006 C6007 1.524 . S
C6006 C6020 1.377 . S
C6007 C6006 1.524 . S
C6007 C6008 1.397 . S
C6007 C6012 1.363 . S
C6008 H5985 0.950 . S
C6008 C6007 1.397 . S
C6008 C6009 1.334 . S
C6009 H5986 0.950 . S
C6009 C6008 1.334 . S
C6009 C6010 1.287 . S
C6010 C6009 1.287 . S
C6010 C6011 1.524 . S
C6010 H6029 0.913 . S
C6011 H5987 0.950 . S
C6011 C6010 1.524 . S
C6011 C6012 1.415 . S
C6012 H5988 0.950 . S
C6012 C6007 1.363 . S
C6012 C6011 1.415 . S
C6013 H5989 0.951 . S
C6013 C6014 1.366 . S
C6013 C6015 1.388 . S
C6014 C6013 1.366 . S
C6014 C6018 1.385 1_455 S
C6015 H5990 0.951 . S
C6015 C6013 1.388 . S
C6015 C6016 1.366 1_455 S
C6016 C6015 1.366 1_655 S
C6016 C6017 1.414 . S
C6016 C6019 1.499 . S
C6017 H5991 0.950 . S
C6017 C6016 1.414 . S
C6017 C6018 1.374 . S
C6018 H5992 0.950 . S
C6018 C6014 1.385 1_655 S
C6018 C6017 1.374 . S
C6019 C6016 1.499 . S
C6019 C6020 1.373 . S
C6019 C6021 1.389 . S
C6020 H5993 0.950 . S
C6020 C6006 1.377 . S
C6020 C6019 1.373 . S
C6021 C6005 1.377 . S
C6021 C6019 1.389 . S
C6021 C6022 1.524 1_655 S
C6022 C6021 1.524 1_455 S
C6022 C6023 1.397 . S
C6022 C6027 1.363 . S
C6023 H5994 0.950 1_455 S
C6023 C6022 1.397 . S
C6023 C6024 1.334 . S
C6024 H5995 0.950 . S
C6024 C6023 1.334 . S
C6024 C6025 1.287 . S
C6025 C6024 1.287 . S
C6025 C6026 1.524 . S
C6025 H6028 0.999 . S
C6026 H5996 0.950 . S
C6026 C6025 1.524 . S
C6026 C6027 1.415 . S
C6027 H5997 0.950 . S
C6027 C6022 1.363 . S
C6027 C6026 1.415 . S
H6028 C6025 0.999 . S
H6029 C6010 0.913 . S
H6030 C6048 0.951 . S
H6031 C6050 0.951 . S
H6032 C6052 0.950 . S
H6033 C6053 0.950 . S
H6034 C6055 0.950 . S
H6035 C6058 0.950 . S
H6036 C6059 0.950 . S
H6037 C6061 0.950 . S
H6038 C6062 0.950 . S
H6039 C6063 0.951 . S
H6040 C6065 0.951 . S
H6041 C6067 0.950 . S
H6042 C6068 0.950 . S
H6043 C6070 0.950 . S
H6044 C6073 0.950 . S
H6045 C6074 0.950 . S
H6046 C6076 0.950 . S
H6047 C6077 0.950 . S
C6048 H6030 0.951 . S
C6048 C6049 1.366 . S
C6048 C6050 1.388 . S
C6049 C6048 1.366 . S
C6049 C6053 1.385 . S
C6050 H6031 0.951 . S
C6050 C6048 1.388 . S
C6050 C6051 1.366 . S
C6051 C6050 1.366 . S
C6051 C6052 1.414 . S
C6051 C6054 1.499 . S
C6052 H6032 0.950 . S
C6052 C6051 1.414 . S
C6052 C6053 1.374 . S
C6053 H6033 0.950 . S
C6053 C6049 1.385 . S
C6053 C6052 1.374 . S
C6054 C6051 1.499 . S
C6054 C6055 1.373 . S
C6054 C6056 1.389 . S
C6055 H6034 0.950 . S
C6055 C6054 1.373 . S
C6055 C6071 1.377 . S
C6056 C6054 1.389 . S
C6056 C6057 1.524 . S
C6056 C6070 1.377 . S
C6057 C6056 1.524 . S
C6057 C6058 1.397 . S
C6057 C6062 1.363 . S
C6058 H6035 0.950 . S
C6058 C6057 1.397 . S
C6058 C6059 1.334 . S
C6059 H6036 0.950 . S
C6059 C6058 1.334 . S
C6059 C6060 1.287 . S
C6060 C6059 1.287 . S
C6060 C6061 1.524 . S
C6060 H6079 0.913 . S
C6061 H6037 0.950 . S
C6061 C6060 1.524 . S
C6061 C6062 1.415 . S
C6062 H6038 0.950 . S
C6062 C6057 1.363 . S
C6062 C6061 1.415 . S
C6063 H6039 0.951 . S
C6063 C6064 1.366 . S
C6063 C6065 1.388 . S
C6064 C6063 1.366 . S
C6064 C6068 1.385 . S
C6065 H6040 0.951 . S
C6065 C6063 1.388 . S
C6065 C6066 1.366 . S
C6066 C6065 1.366 . S
C6066 C6067 1.414 . S
C6066 C6069 1.499 . S
C6067 H6041 0.950 . S
C6067 C6066 1.414 . S
C6067 C6068 1.374 . S
C6068 H6042 0.950 . S
C6068 C6064 1.385 . S
C6068 C6067 1.374 . S
C6069 C6066 1.499 . S
C6069 C6070 1.373 . S
C6069 C6071 1.389 . S
C6070 H6043 0.950 . S
C6070 C6056 1.377 . S
C6070 C6069 1.373 . S
C6071 C6055 1.377 . S
C6071 C6069 1.389 . S
C6071 C6072 1.524 . S
C6072 C6071 1.524 . S
C6072 C6073 1.397 . S
C6072 C6077 1.363 . S
C6073 H6044 0.950 . S
C6073 C6072 1.397 . S
C6073 C6074 1.334 . S
C6074 H6045 0.950 . S
C6074 C6073 1.334 . S
C6074 C6075 1.287 . S
C6075 C6074 1.287 . S
C6075 C6076 1.524 . S
C6075 H6078 0.999 . S
C6076 H6046 0.950 . S
C6076 C6075 1.524 . S
C6076 C6077 1.415 . S
C6077 H6047 0.950 . S
C6077 C6072 1.363 . S
C6077 C6076 1.415 . S
H6078 C6075 0.999 . S
H6079 C6060 0.913 . S
H6080 C6098 0.951 . S
H6081 C6100 0.951 . S
H6082 C6102 0.950 . S
H6083 C6103 0.950 . S
H6084 C6105 0.950 . S
H6085 C6108 0.950 . S
H6086 C6109 0.950 . S
H6087 C6111 0.950 . S
H6088 C6112 0.950 . S
H6089 C6113 0.951 . S
H6090 C6115 0.951 . S
H6091 C6117 0.950 . S
H6092 C6118 0.950 . S
H6093 C6120 0.950 . S
H6094 C6123 0.950 . S
H6095 C6124 0.950 . S
H6096 C6126 0.950 . S
H6097 C6127 0.950 . S
C6098 H6080 0.951 . S
C6098 C6099 1.366 . S
C6098 C6100 1.388 . S
C6099 C6098 1.366 . S
C6099 C6103 1.385 . S
C6100 H6081 0.951 . S
C6100 C6098 1.388 . S
C6100 C6101 1.366 . S
C6101 C6100 1.366 . S
C6101 C6102 1.414 . S
C6101 C6104 1.499 . S
C6102 H6082 0.950 . S
C6102 C6101 1.414 . S
C6102 C6103 1.374 . S
C6103 H6083 0.950 . S
C6103 C6099 1.385 . S
C6103 C6102 1.374 . S
C6104 C6101 1.499 . S
C6104 C6105 1.373 . S
C6104 C6106 1.389 . S
C6105 H6084 0.950 . S
C6105 C6104 1.373 . S
C6105 C6121 1.377 . S
C6106 C6104 1.389 . S
C6106 C6107 1.524 . S
C6106 C6120 1.377 . S
C6107 C6106 1.524 . S
C6107 C6108 1.397 . S
C6107 C6112 1.363 . S
C6108 H6085 0.950 . S
C6108 C6107 1.397 . S
C6108 C6109 1.334 . S
C6109 H6086 0.950 . S
C6109 C6108 1.334 . S
C6109 C6110 1.287 . S
C6110 C6109 1.287 . S
C6110 C6111 1.524 . S
C6110 H6129 0.913 . S
C6111 H6087 0.950 . S
C6111 C6110 1.524 . S
C6111 C6112 1.415 . S
C6112 H6088 0.950 . S
C6112 C6107 1.363 . S
C6112 C6111 1.415 . S
C6113 H6089 0.951 . S
C6113 C6114 1.366 . S
C6113 C6115 1.388 . S
C6114 C6113 1.366 . S
C6114 C6118 1.385 . S
C6115 H6090 0.951 . S
C6115 C6113 1.388 . S
C6115 C6116 1.366 . S
C6116 C6115 1.366 . S
C6116 C6117 1.414 . S
C6116 C6119 1.499 . S
C6117 H6091 0.950 . S
C6117 C6116 1.414 . S
C6117 C6118 1.374 . S
C6118 H6092 0.950 . S
C6118 C6114 1.385 . S
C6118 C6117 1.374 . S
C6119 C6116 1.499 . S
C6119 C6120 1.373 . S
C6119 C6121 1.389 . S
C6120 H6093 0.950 . S
C6120 C6106 1.377 . S
C6120 C6119 1.373 . S
C6121 C6105 1.377 . S
C6121 C6119 1.389 . S
C6121 C6122 1.524 . S
C6122 C6121 1.524 . S
C6122 C6123 1.397 . S
C6122 C6127 1.363 . S
C6123 H6094 0.950 . S
C6123 C6122 1.397 . S
C6123 C6124 1.334 . S
C6124 H6095 0.950 . S
C6124 C6123 1.334 . S
C6124 C6125 1.287 . S
C6125 C6124 1.287 . S
C6125 C6126 1.524 . S
C6125 H6128 0.999 . S
C6126 H6096 0.950 . S
C6126 C6125 1.524 . S
C6126 C6127 1.415 . S
C6127 H6097 0.950 . S
C6127 C6122 1.363 . S
C6127 C6126 1.415 . S
H6128 C6125 0.999 . S
H6129 C6110 0.913 . S
H6130 C6148 0.951 . S
H6131 C6150 0.951 . S
H6132 C6152 0.950 . S
H6133 C6153 0.950 . S
H6134 C6155 0.950 . S
H6135 C6158 0.950 . S
H6136 C6159 0.950 . S
H6137 C6161 0.950 . S
H6138 C6162 0.950 . S
H6139 C6163 0.951 . S
H6140 C6165 0.951 . S
H6141 C6167 0.950 . S
H6142 C6168 0.950 . S
H6143 C6170 0.950 . S
H6144 C6173 0.950 1_545 S
H6145 C6174 0.950 . S
H6146 C6176 0.950 . S
H6147 C6177 0.950 . S
C6148 H6130 0.951 . S
C6148 C6149 1.366 . S
C6148 C6150 1.388 . S
C6149 C6148 1.366 . S
C6149 C6153 1.385 . S
C6150 H6131 0.951 . S
C6150 C6148 1.388 . S
C6150 C6151 1.366 . S
C6151 C6150 1.366 . S
C6151 C6152 1.414 . S
C6151 C6154 1.499 . S
C6152 H6132 0.950 . S
C6152 C6151 1.414 . S
C6152 C6153 1.374 . S
C6153 H6133 0.950 . S
C6153 C6149 1.385 . S
C6153 C6152 1.374 . S
C6154 C6151 1.499 . S
C6154 C6155 1.373 . S
C6154 C6156 1.389 . S
C6155 H6134 0.950 . S
C6155 C6154 1.373 . S
C6155 C6171 1.377 . S
C6156 C6154 1.389 . S
C6156 C6157 1.524 . S
C6156 C6170 1.377 . S
C6157 C6156 1.524 . S
C6157 C6158 1.397 . S
C6157 C6162 1.363 . S
C6158 H6135 0.950 . S
C6158 C6157 1.397 . S
C6158 C6159 1.334 . S
C6159 H6136 0.950 . S
C6159 C6158 1.334 . S
C6159 C6160 1.287 . S
C6160 C6159 1.287 . S
C6160 C6161 1.524 . S
C6160 H6179 0.913 . S
C6161 H6137 0.950 . S
C6161 C6160 1.524 . S
C6161 C6162 1.415 . S
C6162 H6138 0.950 . S
C6162 C6157 1.363 . S
C6162 C6161 1.415 . S
C6163 H6139 0.951 . S
C6163 C6164 1.366 1_565 S
C6163 C6165 1.388 . S
C6164 C6163 1.366 1_545 S
C6164 C6168 1.385 . S
C6165 H6140 0.951 . S
C6165 C6163 1.388 . S
C6165 C6166 1.366 . S
C6166 C6165 1.366 . S
C6166 C6167 1.414 1_565 S
C6166 C6169 1.499 . S
C6167 H6141 0.950 . S
C6167 C6166 1.414 1_545 S
C6167 C6168 1.374 . S
C6168 H6142 0.950 . S
C6168 C6164 1.385 . S
C6168 C6167 1.374 . S
C6169 C6166 1.499 . S
C6169 C6170 1.373 . S
C6169 C6171 1.389 . S
C6170 H6143 0.950 . S
C6170 C6156 1.377 . S
C6170 C6169 1.373 . S
C6171 C6155 1.377 . S
C6171 C6169 1.389 . S
C6171 C6172 1.524 . S
C6172 C6171 1.524 . S
C6172 C6173 1.397 . S
C6172 C6177 1.363 . S
C6173 H6144 0.950 1_565 S
C6173 C6172 1.397 . S
C6173 C6174 1.334 1_565 S
C6174 H6145 0.950 . S
C6174 C6173 1.334 1_545 S
C6174 C6175 1.287 1_545 S
C6175 C6174 1.287 1_565 S
C6175 C6176 1.524 . S
C6175 H6178 0.999 . S
C6176 H6146 0.950 . S
C6176 C6175 1.524 . S
C6176 C6177 1.415 . S
C6177 H6147 0.950 . S
C6177 C6172 1.363 . S
C6177 C6176 1.415 . S
H6178 C6175 0.999 . S
H6179 C6160 0.913 . S
H6180 C6198 0.951 . S
H6181 C6200 0.951 . S
H6182 C6202 0.950 . S
H6183 C6203 0.950 . S
H6184 C6205 0.950 . S
H6185 C6208 0.950 . S
H6186 C6209 0.950 . S
H6187 C6211 0.950 . S
H6188 C6212 0.950 . S
H6189 C6213 0.951 . S
H6190 C6215 0.951 . S
H6191 C6217 0.950 . S
H6192 C6218 0.950 . S
H6193 C6220 0.950 . S
H6194 C6223 0.950 . S
H6195 C6224 0.950 . S
H6196 C6226 0.950 . S
H6197 C6227 0.950 . S
C6198 H6180 0.951 . S
C6198 C6199 1.366 . S
C6198 C6200 1.388 . S
C6199 C6198 1.366 . S
C6199 C6203 1.385 . S
C6200 H6181 0.951 . S
C6200 C6198 1.388 . S
C6200 C6201 1.366 . S
C6201 C6200 1.366 . S
C6201 C6202 1.414 . S
C6201 C6204 1.499 . S
C6202 H6182 0.950 . S
C6202 C6201 1.414 . S
C6202 C6203 1.374 . S
C6203 H6183 0.950 . S
C6203 C6199 1.385 . S
C6203 C6202 1.374 . S
C6204 C6201 1.499 . S
C6204 C6205 1.373 . S
C6204 C6206 1.389 . S
C6205 H6184 0.950 . S
C6205 C6204 1.373 . S
C6205 C6221 1.377 . S
C6206 C6204 1.389 . S
C6206 C6207 1.524 . S
C6206 C6220 1.377 . S
C6207 C6206 1.524 . S
C6207 C6208 1.397 . S
C6207 C6212 1.363 . S
C6208 H6185 0.950 . S
C6208 C6207 1.397 . S
C6208 C6209 1.334 . S
C6209 H6186 0.950 . S
C6209 C6208 1.334 . S
C6209 C6210 1.287 . S
C6210 C6209 1.287 . S
C6210 C6211 1.524 . S
C6210 H6229 0.913 . S
C6211 H6187 0.950 . S
C6211 C6210 1.524 . S
C6211 C6212 1.415 . S
C6212 H6188 0.950 . S
C6212 C6207 1.363 . S
C6212 C6211 1.415 . S
C6213 H6189 0.951 . S
C6213 C6214 1.366 . S
C6213 C6215 1.388 . S
C6214 C6213 1.366 . S
C6214 C6218 1.385 . S
C6215 H6190 0.951 . S
C6215 C6213 1.388 . S
C6215 C6216 1.366 . S
C6216 C6215 1.366 . S
C6216 C6217 1.414 . S
C6216 C6219 1.499 . S
C6217 H6191 0.950 . S
C6217 C6216 1.414 . S
C6217 C6218 1.374 . S
C6218 H6192 0.950 . S
C6218 C6214 1.385 . S
C6218 C6217 1.374 . S
C6219 C6216 1.499 . S
C6219 C6220 1.373 . S
C6219 C6221 1.389 . S
C6220 H6193 0.950 . S
C6220 C6206 1.377 . S
C6220 C6219 1.373 . S
C6221 C6205 1.377 . S
C6221 C6219 1.389 . S
C6221 C6222 1.524 . S
C6222 C6221 1.524 . S
C6222 C6223 1.397 . S
C6222 C6227 1.363 . S
C6223 H6194 0.950 . S
C6223 C6222 1.397 . S
C6223 C6224 1.334 . S
C6224 H6195 0.950 . S
C6224 C6223 1.334 . S
C6224 C6225 1.287 . S
C6225 C6224 1.287 . S
C6225 C6226 1.524 . S
C6225 H6228 0.999 . S
C6226 H6196 0.950 . S
C6226 C6225 1.524 . S
C6226 C6227 1.415 . S
C6227 H6197 0.950 . S
C6227 C6222 1.363 . S
C6227 C6226 1.415 . S
H6228 C6225 0.999 . S
H6229 C6210 0.913 . S
H6230 C6248 0.951 . S
H6231 C6250 0.951 . S
H6232 C6252 0.950 . S
H6233 C6253 0.950 . S
H6234 C6255 0.950 1_556 S
H6235 C6258 0.950 . S
H6236 C6259 0.950 . S
H6237 C6261 0.950 . S
H6238 C6262 0.950 . S
H6239 C6263 0.951 . S
H6240 C6265 0.951 . S
H6241 C6267 0.950 . S
H6242 C6268 0.950 . S
H6243 C6270 0.950 . S
H6244 C6273 0.950 . S
H6245 C6274 0.950 . S
H6246 C6276 0.950 . S
H6247 C6277 0.950 . S
C6248 H6230 0.951 . S
C6248 C6249 1.366 . S
C6248 C6250 1.388 . S
C6249 C6248 1.366 . S
C6249 C6253 1.385 . S
C6250 H6231 0.951 . S
C6250 C6248 1.388 . S
C6250 C6251 1.366 . S
C6251 C6250 1.366 . S
C6251 C6252 1.414 . S
C6251 C6254 1.499 . S
C6252 H6232 0.950 . S
C6252 C6251 1.414 . S
C6252 C6253 1.374 . S
C6253 H6233 0.950 . S
C6253 C6249 1.385 . S
C6253 C6252 1.374 . S
C6254 C6251 1.499 . S
C6254 C6255 1.373 . S
C6254 C6256 1.389 . S
C6255 H6234 0.950 1_554 S
C6255 C6254 1.373 . S
C6255 C6271 1.375 . S
C6256 C6254 1.389 . S
C6256 C6257 1.524 . S
C6256 C6270 1.377 . S
C6257 C6256 1.524 . S
C6257 C6258 1.397 . S
C6257 C6262 1.363 . S
C6258 H6235 0.950 . S
C6258 C6257 1.397 . S
C6258 C6259 1.334 . S
C6259 H6236 0.950 . S
C6259 C6258 1.334 . S
C6259 C6260 1.287 . S
C6260 C6259 1.287 . S
C6260 C6261 1.524 . S
C6260 H6279 0.913 . S
C6261 H6237 0.950 . S
C6261 C6260 1.524 . S
C6261 C6262 1.415 . S
C6262 H6238 0.950 . S
C6262 C6257 1.363 . S
C6262 C6261 1.415 . S
C6263 H6239 0.951 . S
C6263 C6264 1.366 . S
C6263 C6265 1.388 . S
C6264 C6263 1.366 . S
C6264 C6268 1.385 . S
C6265 H6240 0.951 . S
C6265 C6263 1.388 . S
C6265 C6266 1.366 . S
C6266 C6265 1.366 . S
C6266 C6267 1.414 . S
C6266 C6269 1.499 . S
C6267 H6241 0.950 . S
C6267 C6266 1.414 . S
C6267 C6268 1.374 . S
C6268 H6242 0.950 . S
C6268 C6264 1.385 . S
C6268 C6267 1.374 . S
C6269 C6266 1.499 . S
C6269 C6270 1.373 . S
C6269 C6271 1.406 . S
C6270 H6243 0.950 . S
C6270 C6256 1.377 . S
C6270 C6269 1.373 . S
C6271 C6255 1.375 . S
C6271 C6269 1.406 . S
C6271 C6272 1.508 1_554 S
C6272 C6271 1.508 1_556 S
C6272 C6273 1.397 . S
C6272 C6277 1.363 . S
C6273 H6244 0.950 . S
C6273 C6272 1.397 . S
C6273 C6274 1.334 . S
C6274 H6245 0.950 . S
C6274 C6273 1.334 . S
C6274 C6275 1.287 . S
C6275 C6274 1.287 . S
C6275 C6276 1.524 . S
C6275 H6278 0.999 . S
C6276 H6246 0.950 . S
C6276 C6275 1.524 . S
C6276 C6277 1.415 . S
C6277 H6247 0.950 . S
C6277 C6272 1.363 . S
C6277 C6276 1.415 . S
H6278 C6275 0.999 . S
H6279 C6260 0.913 . S
H6280 C6298 0.951 . S
H6281 C6300 0.951 . S
H6282 C6302 0.950 . S
H6283 C6303 0.950 . S
H6284 C6305 0.950 . S
H6285 C6308 0.950 . S
H6286 C6309 0.950 . S
H6287 C6311 0.950 . S
H6288 C6312 0.950 . S
H6289 C6313 0.951 . S
H6290 C6315 0.951 . S
H6291 C6317 0.950 . S
H6292 C6318 0.950 . S
H6293 C6320 0.950 . S
H6294 C6323 0.950 . S
H6295 C6324 0.950 . S
H6296 C6326 0.950 . S
H6297 C6327 0.950 . S
C6298 H6280 0.951 . S
C6298 C6299 1.366 . S
C6298 C6300 1.388 . S
C6299 C6298 1.366 . S
C6299 C6303 1.385 . S
C6300 H6281 0.951 . S
C6300 C6298 1.388 . S
C6300 C6301 1.366 . S
C6301 C6300 1.366 . S
C6301 C6302 1.414 . S
C6301 C6304 1.499 . S
C6302 H6282 0.950 . S
C6302 C6301 1.414 . S
C6302 C6303 1.374 . S
C6303 H6283 0.950 . S
C6303 C6299 1.385 . S
C6303 C6302 1.374 . S
C6304 C6301 1.499 . S
C6304 C6305 1.373 . S
C6304 C6306 1.389 . S
C6305 H6284 0.950 . S
C6305 C6304 1.373 . S
C6305 C6321 1.377 . S
C6306 C6304 1.389 . S
C6306 C6307 1.524 . S
C6306 C6320 1.377 . S
C6307 C6306 1.524 . S
C6307 C6308 1.397 . S
C6307 C6312 1.363 . S
C6308 H6285 0.950 . S
C6308 C6307 1.397 . S
C6308 C6309 1.334 . S
C6309 H6286 0.950 . S
C6309 C6308 1.334 . S
C6309 C6310 1.287 . S
C6310 C6309 1.287 . S
C6310 C6311 1.524 . S
C6310 H6329 0.913 . S
C6311 H6287 0.950 . S
C6311 C6310 1.524 . S
C6311 C6312 1.415 . S
C6312 H6288 0.950 . S
C6312 C6307 1.363 . S
C6312 C6311 1.415 . S
C6313 H6289 0.951 . S
C6313 C6314 1.366 . S
C6313 C6315 1.388 . S
C6314 C6313 1.366 . S
C6314 C6318 1.385 . S
C6315 H6290 0.951 . S
C6315 C6313 1.388 . S
C6315 C6316 1.366 . S
C6316 C6315 1.366 . S
C6316 C6317 1.414 . S
C6316 C6319 1.499 . S
C6317 H6291 0.950 . S
C6317 C6316 1.414 . S
C6317 C6318 1.374 . S
C6318 H6292 0.950 . S
C6318 C6314 1.385 . S
C6318 C6317 1.374 . S
C6319 C6316 1.499 . S
C6319 C6320 1.373 . S
C6319 C6321 1.389 . S
C6320 H6293 0.950 . S
C6320 C6306 1.377 . S
C6320 C6319 1.373 . S
C6321 C6305 1.377 . S
C6321 C6319 1.389 . S
C6321 C6322 1.524 . S
C6322 C6321 1.524 . S
C6322 C6323 1.397 . S
C6322 C6327 1.363 . S
C6323 H6294 0.950 . S
C6323 C6322 1.397 . S
C6323 C6324 1.334 . S
C6324 H6295 0.950 . S
C6324 C6323 1.334 . S
C6324 C6325 1.287 . S
C6325 C6324 1.287 . S
C6325 C6326 1.524 . S
C6325 H6328 0.999 . S
C6326 H6296 0.950 . S
C6326 C6325 1.524 . S
C6326 C6327 1.415 . S
C6327 H6297 0.950 . S
C6327 C6322 1.363 . S
C6327 C6326 1.415 . S
H6328 C6325 0.999 . S
H6329 C6310 0.913 . S
H6330 C6348 0.951 . S
H6331 C6350 0.951 . S
H6332 C6352 0.950 . S
H6333 C6353 0.950 . S
H6334 C6355 0.950 . S
H6335 C6358 0.950 . S
H6336 C6359 0.950 . S
H6337 C6361 0.950 . S
H6338 C6362 0.950 . S
H6339 C6363 0.951 . S
H6340 C6365 0.951 . S
H6341 C6367 0.950 . S
H6342 C6368 0.950 . S
H6343 C6370 0.950 . S
H6344 C6373 0.950 . S
H6345 C6374 0.950 . S
H6346 C6376 0.950 . S
H6347 C6377 0.950 . S
C6348 H6330 0.951 . S
C6348 C6349 1.366 . S
C6348 C6350 1.388 . S
C6349 C6348 1.366 . S
C6349 C6353 1.385 . S
C6350 H6331 0.951 . S
C6350 C6348 1.388 . S
C6350 C6351 1.366 . S
C6351 C6350 1.366 . S
C6351 C6352 1.414 . S
C6351 C6354 1.499 . S
C6352 H6332 0.950 . S
C6352 C6351 1.414 . S
C6352 C6353 1.374 . S
C6353 H6333 0.950 . S
C6353 C6349 1.385 . S
C6353 C6352 1.374 . S
C6354 C6351 1.499 . S
C6354 C6355 1.373 . S
C6354 C6356 1.389 . S
C6355 H6334 0.950 . S
C6355 C6354 1.373 . S
C6355 C6371 1.377 . S
C6356 C6354 1.389 . S
C6356 C6357 1.524 . S
C6356 C6370 1.377 . S
C6357 C6356 1.524 . S
C6357 C6358 1.397 1_554 S
C6357 C6362 1.363 . S
C6358 H6335 0.950 . S
C6358 C6357 1.397 1_556 S
C6358 C6359 1.334 . S
C6359 H6336 0.950 . S
C6359 C6358 1.334 . S
C6359 C6360 1.287 . S
C6360 C6359 1.287 . S
C6360 C6361 1.524 . S
C6360 H6379 0.913 . S
C6361 H6337 0.950 . S
C6361 C6360 1.524 . S
C6361 C6362 1.415 1_556 S
C6362 H6338 0.950 . S
C6362 C6357 1.363 . S
C6362 C6361 1.415 1_554 S
C6363 H6339 0.951 . S
C6363 C6364 1.366 . S
C6363 C6365 1.388 . S
C6364 C6363 1.366 . S
C6364 C6368 1.385 . S
C6365 H6340 0.951 . S
C6365 C6363 1.388 . S
C6365 C6366 1.366 . S
C6366 C6365 1.366 . S
C6366 C6367 1.414 . S
C6366 C6369 1.499 . S
C6367 H6341 0.950 . S
C6367 C6366 1.414 . S
C6367 C6368 1.374 . S
C6368 H6342 0.950 . S
C6368 C6364 1.385 . S
C6368 C6367 1.374 . S
C6369 C6366 1.499 . S
C6369 C6370 1.373 . S
C6369 C6371 1.389 . S
C6370 H6343 0.950 . S
C6370 C6356 1.377 . S
C6370 C6369 1.373 . S
C6371 C6355 1.377 . S
C6371 C6369 1.389 . S
C6371 C6372 1.524 . S
C6372 C6371 1.524 . S
C6372 C6373 1.397 . S
C6372 C6377 1.363 . S
C6373 H6344 0.950 . S
C6373 C6372 1.397 . S
C6373 C6374 1.334 . S
C6374 H6345 0.950 . S
C6374 C6373 1.334 . S
C6374 C6375 1.287 . S
C6375 C6374 1.287 . S
C6375 C6376 1.524 . S
C6375 H6378 0.999 . S
C6376 H6346 0.950 . S
C6376 C6375 1.524 . S
C6376 C6377 1.415 . S
C6377 H6347 0.950 . S
C6377 C6372 1.363 . S
C6377 C6376 1.415 . S
H6378 C6375 0.999 . S
H6379 C6360 0.913 . S
H6380 C6398 0.951 . S
H6381 C6400 0.951 . S
H6382 C6402 0.950 . S
H6383 C6403 0.950 . S
H6384 C6405 0.950 . S
H6385 C6408 0.950 . S
H6386 C6409 0.950 . S
H6387 C6411 0.950 . S
H6388 C6412 0.950 . S
H6389 C6413 0.951 . S
H6390 C6415 0.951 . S
H6391 C6417 0.950 . S
H6392 C6418 0.950 . S
H6393 C6420 0.950 . S
H6394 C6423 0.950 . S
H6395 C6424 0.950 . S
H6396 C6426 0.950 . S
H6397 C6427 0.950 . S
C6398 H6380 0.951 . S
C6398 C6399 1.366 . S
C6398 C6400 1.388 1_545 S
C6399 C6398 1.366 . S
C6399 C6403 1.385 . S
C6400 H6381 0.951 . S
C6400 C6398 1.388 1_565 S
C6400 C6401 1.366 . S
C6401 C6400 1.366 . S
C6401 C6402 1.414 . S
C6401 C6404 1.499 . S
C6402 H6382 0.950 . S
C6402 C6401 1.414 . S
C6402 C6403 1.374 1_565 S
C6403 H6383 0.950 . S
C6403 C6399 1.385 . S
C6403 C6402 1.374 1_545 S
C6404 C6401 1.499 . S
C6404 C6405 1.373 . S
C6404 C6406 1.389 . S
C6405 H6384 0.950 . S
C6405 C6404 1.373 . S
C6405 C6421 1.377 . S
C6406 C6404 1.389 . S
C6406 C6407 1.524 . S
C6406 C6420 1.377 . S
C6407 C6406 1.524 . S
C6407 C6408 1.397 . S
C6407 C6412 1.363 . S
C6408 H6385 0.950 . S
C6408 C6407 1.397 . S
C6408 C6409 1.334 . S
C6409 H6386 0.950 . S
C6409 C6408 1.334 . S
C6409 C6410 1.287 . S
C6410 C6409 1.287 . S
C6410 C6411 1.524 . S
C6410 H6429 0.913 . S
C6411 H6387 0.950 . S
C6411 C6410 1.524 . S
C6411 C6412 1.415 . S
C6412 H6388 0.950 . S
C6412 C6407 1.363 . S
C6412 C6411 1.415 . S
C6413 H6389 0.951 . S
C6413 C6414 1.366 . S
C6413 C6415 1.388 . S
C6414 C6413 1.366 . S
C6414 C6418 1.385 . S
C6415 H6390 0.951 . S
C6415 C6413 1.388 . S
C6415 C6416 1.366 . S
C6416 C6415 1.366 . S
C6416 C6417 1.414 . S
C6416 C6419 1.499 . S
C6417 H6391 0.950 . S
C6417 C6416 1.414 . S
C6417 C6418 1.374 . S
C6418 H6392 0.950 . S
C6418 C6414 1.385 . S
C6418 C6417 1.374 . S
C6419 C6416 1.499 . S
C6419 C6420 1.373 . S
C6419 C6421 1.389 . S
C6420 H6393 0.950 . S
C6420 C6406 1.377 . S
C6420 C6419 1.373 . S
C6421 C6405 1.377 . S
C6421 C6419 1.389 . S
C6421 C6422 1.524 . S
C6422 C6421 1.524 . S
C6422 C6423 1.397 . S
C6422 C6427 1.363 . S
C6423 H6394 0.950 . S
C6423 C6422 1.397 . S
C6423 C6424 1.334 . S
C6424 H6395 0.950 . S
C6424 C6423 1.334 . S
C6424 C6425 1.287 . S
C6425 C6424 1.287 . S
C6425 C6426 1.524 . S
C6425 H6428 0.999 . S
C6426 H6396 0.950 . S
C6426 C6425 1.524 . S
C6426 C6427 1.415 . S
C6427 H6397 0.950 . S
C6427 C6422 1.363 . S
C6427 C6426 1.415 . S
H6428 C6425 0.999 . S
H6429 C6410 0.913 . S
H6430 C6448 0.951 . S
H6431 C6450 0.951 . S
H6432 C6452 0.950 . S
H6433 C6453 0.950 . S
H6434 C6455 0.950 . S
H6435 C6458 0.950 . S
H6436 C6459 0.950 . S
H6437 C6461 0.950 . S
H6438 C6462 0.950 . S
H6439 C6463 0.951 . S
H6440 C6465 0.951 . S
H6441 C6467 0.950 . S
H6442 C6468 0.950 . S
H6443 C6470 0.950 . S
H6444 C6473 0.950 . S
H6445 C6474 0.950 . S
H6446 C6476 0.950 . S
H6447 C6477 0.950 . S
C6448 H6430 0.951 . S
C6448 C6449 1.366 . S
C6448 C6450 1.388 . S
C6449 C6448 1.366 . S
C6449 C6453 1.385 . S
C6450 H6431 0.951 . S
C6450 C6448 1.388 . S
C6450 C6451 1.366 . S
C6451 C6450 1.366 . S
C6451 C6452 1.414 . S
C6451 C6454 1.499 . S
C6452 H6432 0.950 . S
C6452 C6451 1.414 . S
C6452 C6453 1.374 . S
C6453 H6433 0.950 . S
C6453 C6449 1.385 . S
C6453 C6452 1.374 . S
C6454 C6451 1.499 . S
C6454 C6455 1.373 . S
C6454 C6456 1.389 . S
C6455 H6434 0.950 . S
C6455 C6454 1.373 . S
C6455 C6471 1.377 . S
C6456 C6454 1.389 . S
C6456 C6457 1.524 . S
C6456 C6470 1.377 . S
C6457 C6456 1.524 . S
C6457 C6458 1.397 . S
C6457 C6462 1.363 . S
C6458 H6435 0.950 . S
C6458 C6457 1.397 . S
C6458 C6459 1.334 . S
C6459 H6436 0.950 . S
C6459 C6458 1.334 . S
C6459 C6460 1.287 . S
C6460 C6459 1.287 . S
C6460 C6461 1.524 . S
C6460 H6479 0.913 . S
C6461 H6437 0.950 . S
C6461 C6460 1.524 . S
C6461 C6462 1.415 . S
C6462 H6438 0.950 . S
C6462 C6457 1.363 . S
C6462 C6461 1.415 . S
C6463 H6439 0.951 . S
C6463 C6464 1.366 . S
C6463 C6465 1.388 . S
C6464 C6463 1.366 . S
C6464 C6468 1.385 . S
C6465 H6440 0.951 . S
C6465 C6463 1.388 . S
C6465 C6466 1.366 . S
C6466 C6465 1.366 . S
C6466 C6467 1.414 . S
C6466 C6469 1.499 . S
C6467 H6441 0.950 . S
C6467 C6466 1.414 . S
C6467 C6468 1.374 . S
C6468 H6442 0.950 . S
C6468 C6464 1.385 . S
C6468 C6467 1.374 . S
C6469 C6466 1.499 . S
C6469 C6470 1.373 . S
C6469 C6471 1.389 . S
C6470 H6443 0.950 . S
C6470 C6456 1.377 . S
C6470 C6469 1.373 . S
C6471 C6455 1.377 . S
C6471 C6469 1.389 . S
C6471 C6472 1.524 . S
C6472 C6471 1.524 . S
C6472 C6473 1.397 . S
C6472 C6477 1.363 . S
C6473 H6444 0.950 . S
C6473 C6472 1.397 . S
C6473 C6474 1.334 . S
C6474 H6445 0.950 . S
C6474 C6473 1.334 . S
C6474 C6475 1.287 . S
C6475 C6474 1.287 . S
C6475 C6476 1.524 . S
C6475 H6478 0.999 . S
C6476 H6446 0.950 . S
C6476 C6475 1.524 . S
C6476 C6477 1.415 . S
C6477 H6447 0.950 . S
C6477 C6472 1.363 . S
C6477 C6476 1.415 . S
H6478 C6475 0.999 . S
H6479 C6460 0.913 . S
C1699 C109 1.495 . S
C1714 C392 1.385 . S
C1749 C61 1.889 . S
C1764 C483 2.055 . S
C1799 C74 1.413 . S
C1814 C560 1.364 1_565 S
C1864 C658 1.572 . S
C1849 C96 1.730 . S
C1899 C25 1.487 1_455 S
C1914 C742 1.405 . S
C1964 C814 0.864 . S
C1949 C40 0.919 . S
C2014 C903 0.717 . S
C1999 C46 0.714 . S
C2049 C5 0.961 . S
C2064 C980 1.111 . S
C2114 C399 1.825 . S
C2099 C229 1.671 . S
C2149 C249 0.503 . S
C2164 C490 0.590 . S
C2214 C567 0.969 . S
C2199 C271 0.894 . S
C2264 C644 1.602 . S
C2249 C172 1.647 1_556 S
C2299 C236 1.947 . S
C2314 C728 1.801 . S
C2364 C830 1.237 . S
C2349 C242 1.294 . S
C2414 C910 0.686 . S
C2399 C278 0.643 . S
C2464 C987 1.375 . S
C2449 C179 1.450 . S
C2514 C406 1.350 . S
C2499 C159 1.243 . S
C2549 C285 1.704 . S
C2564 C1071 1.843 . S
C2614 C1159 2.030 . S
C2599 C333 2.161 . S
C2664 C1232 0.454 . S
C2649 C320 0.244 . S
C2699 C123 0.550 . S
C2714 C994 0.600 . S
C2749 C138 1.444 . S
C2764 C574 1.361 . S
C2799 C326 2.409 . S
C2814 C1323 2.342 . S
C2864 C1400 0.718 . S
C2849 C298 0.709 . S
C2914 C403 1.359 1_565 S
C2899 C67 1.427 . S
C2964 C1418 2.003 . S
C2949 C110 2.065 . S
C2999 C88 1.411 . S
C3014 C571 1.359 . S
C3049 C75 1.365 . S
C3064 C1318 1.467 . S
C3114 C730 1.391 . S
C3099 C11 1.433 . S
C3149 C47 0.819 . S
C3164 C1162 0.822 . S
C3214 C914 0.553 1_565 S
C3199 C32 0.621 . S
C3264 C1495 1.106 . S
C3249 C26 1.230 . S
C3314 C410 1.911 . S
C3299 C152 2.019 . S
C3364 C1402 0.584 . S
C3349 C319 0.504 . S
C3399 C124 0.990 . S
C3414 C578 0.964 . S
C3449 C284 1.696 . S
C3464 C1327 1.612 . S
C3499 C145 1.806 . S
C3514 C739 1.784 . S
C3564 C1155 1.115 . S
C3549 C312 1.164 . S
C3599 C117 0.688 . S
C3614 C898 0.599 . S
C3649 C291 1.308 . S
C3664 C1502 1.232 . S
C3699 C194 1.496 . S
C3714 C394 1.392 1_554 S
C3749 C180 1.898 . S
C3764 C1082 1.816 . S
C3799 C263 2.018 . S
C3814 C812 1.872 . S
C3849 C243 0.660 . S
C3864 C1243 0.450 . S
C3914 C1486 0.650 . S
C3899 C277 0.665 . S
C3949 C215 1.232 . S
C3964 C562 1.336 . S
C4014 C662 2.236 . S
C3999 C256 2.266 . S
C4064 C487 0.785 . S
C4049 C200 0.792 . S
C4099 C81 1.495 . S
C4114 C1568 1.385 . S
C4164 C1407 2.056 . S
C4149 C89 1.889 . S
C4199 C102 1.413 . S
C4214 C1652 1.366 . S
C4249 C68 1.730 . S
C4264 C1330 1.572 . S
C4299 C53 1.487 . S
C4314 C1078 1.405 . S
C4364 C1150 0.865 . S
C4349 C12 0.919 . S
C4414 C1239 0.716 . S
C4399 C18 0.714 . S
C4464 C1484 1.109 . S
C4449 C33 0.958 . S
C4514 C1575 1.824 . S
C4499 C257 1.672 . S
C4549 C193 0.505 . S
C4564 C1414 0.593 . S
C4614 C1659 0.966 . S
C4599 C201 0.891 . S
C4664 C1316 1.602 . S
C4649 C214 1.648 . S
C4714 C1064 1.801 . S
C4699 C264 1.947 . S
C4749 C186 1.293 . S
C4764 C1166 1.238 . S
C4814 C1246 0.685 . S
C4799 C208 0.643 . S
C4849 C221 1.450 . S
C4864 C1491 1.375 . S
C4914 C1582 1.350 . S
C4899 C313 1.243 . S
C4949 C131 1.704 . S
C4964 C735 1.845 . S
C5014 C823 2.030 . S
C4999 C151 2.168 . S
C5064 C896 0.455 . S
C5049 C166 0.246 . S
C5114 C1498 0.602 . S
C5099 C305 0.550 . S
C5149 C292 1.442 1_554 S
C5164 C1666 1.358 . S
C5214 C651 2.340 . S
C5199 C144 2.401 . S
C5264 C476 0.715 . S
C5249 C116 0.707 1_565 S
C5299 C95 1.427 . S
C5314 C1579 1.359 . S
C5364 C494 2.003 . S
C5349 C82 2.065 . S
C5399 C60 1.411 . S
C5414 C1663 1.360 . S
C5449 C103 1.366 . S
C5464 C646 1.469 . S
C5499 C39 1.434 . S
C5514 C1066 1.356 1_556 S
C5564 C826 0.822 . S
C5549 C19 0.819 . S
C5599 C4 0.622 . S
C5614 C1250 0.559 . S
C5649 C54 1.230 . S
C5664 C991 1.105 . S
C5714 C1586 1.911 . S
C5699 C334 2.019 . S
C5749 C165 0.506 . S
C5764 C478 0.581 . S
C5814 C1670 0.962 . S
C5799 C306 0.990 . S
C5849 C130 1.696 . S
C5864 C655 1.618 . S
C5899 C327 1.806 . S
C5914 C1075 1.785 . S
C5964 C819 1.116 . S
C5949 C158 1.165 . S
C5999 C299 0.688 . S
C6014 C1234 0.600 . S
C6064 C998 1.227 . S
C6049 C137 1.308 . S
C6114 C1570 1.392 . S
C6099 C250 1.496 . S
C6164 C746 1.816 1_655 S
C6149 C222 1.899 . S
C6199 C235 2.018 . S
C6214 C1148 1.872 . S
C6264 C907 0.451 . S
C6249 C187 0.661 . S
C6299 C207 0.665 . S
C6314 C982 0.650 . S
C6349 C173 1.232 . S
C6364 C1654 1.334 . S
C6414 C1334 2.237 . S
C6399 C228 2.266 . S
C6464 C1411 0.783 . S
C6449 C270 0.792 . S
