# Generated by pormake.
# Topology pts, (4,4)-cn, num edge types: 1
# Building blocks:
#     Node 0, Type 0, BuildingBlock: ESEHIV_clean_sbu_0, # of connection points: 4
#     Node 1, Type 0, BuildingBlock: ESEHIV_clean_sbu_0, # of connection points: 4
#     Node 2, Type 1, BuildingBlock: UXUYUI_clean_sbu_0, # of connection points: 4
#     Node 3, Type 1, BuildingBlock: UXUYUI_clean_sbu_0, # of connection points: 4
#     Edge 4, Type (0, 1), BuildingBlock: MIFKUJ_clean_linker_0, # of connection points: 2
#     Edge 5, Type (0, 1), BuildingBlock: MIFKUJ_clean_linker_0, # of connection points: 2
#     Edge 6, Type (0, 1), BuildingBlock: MIFKUJ_clean_linker_0, # of connection points: 2
#     Edge 7, Type (0, 1), BuildingBlock: MIFKUJ_clean_linker_0, # of connection points: 2
#     Edge 8, Type (0, 1), BuildingBlock: MIFKUJ_clean_linker_0, # of connection points: 2
#     Edge 9, Type (0, 1), BuildingBlock: MIFKUJ_clean_linker_0, # of connection points: 2
#     Edge 10, Type (0, 1), BuildingBlock: MIFKUJ_clean_linker_0, # of connection points: 2
#     Edge 11, Type (0, 1), BuildingBlock: MIFKUJ_clean_linker_0, # of connection points: 2
# Relax obj value: 0.002
# Max RMSD: 0.096
# Mean RMSD: 0.062
data_MOF--net-pts--node1-ESEHIV_clean_sbu_0--node2-UXUYUI_clean_sbu_0--edge1-MIFKUJ_clean_linker_0
_symmetry_space_group_name_H-M    P1
_symmetry_Int_Tables_number       1
_symmetry_cell_setting            triclinic
loop_
_symmetry_equiv_pos_as_xyz
'x, y, z'
_cell_length_a     38.193958
_cell_length_b     38.119495
_cell_length_c     56.623852
_cell_angle_alpha  92.413608
_cell_angle_beta   92.465326
_cell_angle_gamma 89.937312
loop_
_atom_site_label
_atom_site_type_symbol
_atom_site_fract_x
_atom_site_fract_y
_atom_site_fract_z
_atom_type_partial_charge
Cu0 Cu 0.5364 0.03314 0.01661 0.0
N1 N 0.56321 1.006 0.99563 0.0
N2 N 0.60614 0.99287 0.97093 0.0
C3 C 0.59468 0.01545 0.98797 0.0
C4 C 0.58089 0.96807 0.96793 0.0
C5 C 0.5545 0.97621 0.9832 0.0
O6 O 0.57028 0.05613 0.0393 0.0
C7 C 0.50326 0.06434 0.97619 0.0
O8 O 0.52895 0.05012 0.96446 0.0
H9 H 0.60801 0.03945 0.99395 0.0
H10 H 0.53015 0.96212 0.98454 0.0
N11 N 0.50599 1.00588 0.03356 0.0
N12 N 0.46103 0.9934 0.05599 0.0
C13 C 0.47744 0.01841 0.04434 0.0
C14 C 0.50752 0.9716 0.03833 0.0
C15 C 0.47997 0.96389 0.05229 0.0
C16 C 0.5873 0.03502 0.05245 0.0
O17 O 0.58006 1.00136 0.05003 0.0
H18 H 0.46938 0.04564 0.04411 0.0
H19 H 0.5275 0.95359 0.03235 0.0
O20 O 0.50447 0.06372 0.99873 0.0
H21 H 0.58115 0.9459 0.95536 0.0
H22 H 0.47425 0.93852 0.05912 0.0
Cu23 Cu 0.06115 0.54652 0.51852 0.0
N24 N 0.08804 0.51662 0.53769 0.0
N25 N 0.0994 0.47155 0.56119 0.0
C26 C 0.07525 0.48764 0.54719 0.0
C27 C 0.12863 0.49137 0.56035 0.0
C28 C 0.12154 0.51909 0.54593 0.0
O29 O 0.03221 0.51469 0.49776 0.0
C30 C 0.05987 0.60218 0.55001 0.0
O31 O 0.09334 0.59752 0.54643 0.0
H32 H 0.04831 0.47921 0.54434 0.0
H33 H 0.13943 0.53987 0.54218 0.0
N34 N 0.0871 0.57418 0.49865 0.0
N35 N 0.09751 0.61706 0.47392 0.0
C36 C 0.07311 0.6001 0.48575 0.0
C37 C 0.12162 0.57458 0.49474 0.0
C38 C 0.12812 0.60106 0.47957 0.0
C39 C 0.05021 0.49763 0.48262 0.0
O40 O 0.08402 0.50377 0.48241 0.0
H41 H 0.04559 0.60693 0.48559 0.0
H42 H 0.14077 0.55698 0.50235 0.0
O43 O 0.03797 0.5807 0.53963 0.0
H44 H 0.15346 0.4864 0.56952 0.0
H45 H 0.15338 0.6078 0.47308 0.0
Li46 Li 0.03489 0.08158 0.28513 0.0
Li47 Li 0.03414 0.01853 0.28352 0.0
Li48 Li 0.06682 0.05139 0.25283 0.0
Li49 Li 1.0003 0.05004 0.25389 0.0
C50 C 0.10039 0.06781 0.30202 0.0
N51 N 0.14927 0.10434 0.33085 0.0
C52 C 0.09498 0.07327 0.32617 0.0
C53 C 0.13072 0.08089 0.29256 0.0
C54 C 0.11997 0.09183 0.34044 0.0
C55 C 0.15511 0.09929 0.30743 0.0
C56 C 0.9797 0.03278 0.30605 0.0
C57 C 0.94495 0.98487 0.31884 0.0
N58 N 0.95382 0.99429 0.34174 0.0
C59 C 0.98851 0.04194 0.32973 0.0
C60 C 0.95775 1.004 0.30054 0.0
C61 C 0.97512 0.02219 0.34751 0.0
C62 C 1.00249 0.13212 0.31539 0.0
N63 N 0.03353 0.12434 0.30546 0.0
C64 C 0.05912 0.17686 0.32357 0.0
C65 C 0.06143 0.14645 0.30895 0.0
C66 C 0.02757 0.18518 0.33451 0.0
C67 C 0.99896 0.16231 0.33004 0.0
H68 H 0.98021 0.11497 0.31177 0.0
H69 H 0.08555 0.14069 0.3003 0.0
C70 C 0.02693 0.94475 0.29253 0.0
N71 N 0.03759 0.9766 0.30198 0.0
C72 C 0.03025 0.9146 0.30582 0.0
C73 C 0.05554 0.95041 0.33831 0.0
C74 C 0.05168 0.97977 0.32444 0.0
C75 C 0.04497 0.91711 0.32905 0.0
H76 H 0.01615 0.94262 0.27458 0.0
H77 H 0.05997 1.00516 0.33166 0.0
C78 C 0.02676 0.12555 0.25073 0.0
N79 N 0.01481 0.19704 0.25388 0.0
C80 C 0.99262 0.13839 0.25238 0.0
C81 C 0.05482 0.14903 0.25067 0.0
C82 C 0.98713 0.17464 0.25396 0.0
C83 C 0.04823 0.1851 0.25227 0.0
C84 C 0.01841 0.99447 0.22851 0.0
C85 C 0.03225 0.9995 0.20645 0.0
C86 C 0.98805 0.97434 0.22992 0.0
C87 C 0.01541 0.98435 0.18613 0.0
C88 C 0.97194 0.9597 0.20919 0.0
N89 N 0.98584 0.96496 0.18791 0.0
C90 C 0.12547 0.01859 0.23281 0.0
C91 C 0.11514 0.07558 0.21901 0.0
C92 C 0.15421 0.01428 0.21844 0.0
N93 N 0.10658 0.04885 0.23287 0.0
C94 C 0.14394 0.07253 0.20452 0.0
C95 C 0.16403 0.04148 0.20399 0.0
H96 H 0.11791 0.99757 0.2438 0.0
H97 H 0.09956 0.09925 0.21911 0.0
C98 C 0.92625 0.04763 0.24264 0.0
N99 N 0.95826 0.052 0.23355 0.0
C100 C 0.8957 0.04982 0.22819 0.0
C101 C 0.93143 0.06165 0.1953 0.0
C102 C 0.96129 0.05919 0.21039 0.0
C103 C 0.89794 0.05692 0.20411 0.0
H104 H 0.92431 0.04293 0.26122 0.0
H105 H 0.98699 0.06313 0.20363 0.0
O106 O 0.07644 0.04941 0.28773 0.0
O107 O 0.99342 0.05115 0.28835 0.0
O108 O 0.03271 0.09016 0.24994 0.0
O109 O 0.03406 0.00975 0.24856 0.0
H110 H 0.07138 0.06405 0.33375 0.0
H111 H 0.13544 0.07692 0.27396 0.0
H112 H 0.11597 0.09647 0.3591 0.0
H113 H 0.17867 0.10957 0.30033 0.0
H114 H 0.9281 0.96243 0.31481 0.0
H115 H 0.00589 0.06376 0.33435 0.0
H116 H 0.95111 0.99613 0.28234 0.0
H117 H 0.98184 0.02892 0.3659 0.0
H118 H 0.08202 0.19346 0.32643 0.0
H119 H 0.9738 0.16792 0.33745 0.0
H120 H 0.02206 0.88949 0.29779 0.0
H121 H 0.06651 0.95386 0.35621 0.0
H122 H 0.97065 0.12056 0.25273 0.0
H123 H 0.08146 0.13953 0.24989 0.0
H124 H 0.96087 0.18495 0.25535 0.0
H125 H 0.06971 0.20359 0.2524 0.0
H126 H 0.05554 0.01521 0.20497 0.0
H127 H 0.97672 0.97051 0.24679 0.0
H128 H 0.02578 0.98813 0.16894 0.0
H129 H 0.94831 0.94426 0.21001 0.0
H130 H 0.16817 0.98955 0.2184 0.0
H131 H 0.15051 0.09446 0.19401 0.0
H132 H 0.87054 0.04667 0.23595 0.0
H133 H 0.93459 0.0669 0.17687 0.0
Li134 Li 0.00922 0.04796 0.7852 0.0
Li135 Li 0.07653 0.04763 0.78617 0.0
Li136 Li 0.04305 0.07643 0.7556 0.0
Li137 Li 0.04375 0.01257 0.75383 0.0
C138 C 0.04408 0.12303 0.79027 0.0
N139 N 0.04606 0.19513 0.78738 0.0
C140 C 0.07624 0.14041 0.78997 0.0
C141 C 0.01293 0.14226 0.7892 0.0
C142 C 0.07668 0.1769 0.78846 0.0
C143 C 0.01449 0.17873 0.78775 0.0
C144 C 0.04848 0.98488 0.80642 0.0
C145 C 0.07247 0.93095 0.82096 0.0
N146 N 0.05921 0.93886 0.84245 0.0
C147 C 0.0348 0.99232 0.82859 0.0
C148 C 0.0672 0.9538 0.80249 0.0
C149 C 0.04062 0.96878 0.8466 0.0
C150 C 0.94677 0.01735 0.79964 0.0
N151 N 0.96822 0.04559 0.80374 0.0
C152 C 0.93217 0.06746 0.8347 0.0
C153 C 0.96155 0.07044 0.8209 0.0
C154 C 0.90947 0.03845 0.83099 0.0
C155 C 0.91725 0.01321 0.81309 0.0
H156 H 0.95289 0.99773 0.78608 0.0
H157 H 0.97919 0.09247 0.82404 0.0
C158 C 0.14806 0.06414 0.7984 0.0
N159 N 0.11846 0.05057 0.807 0.0
C160 C 0.17877 0.06771 0.81274 0.0
C161 C 0.1481 0.04384 0.84478 0.0
C162 C 0.11796 0.04079 0.82982 0.0
C163 C 0.17921 0.05746 0.83634 0.0
H164 H 0.14777 0.07259 0.7804 0.0
H165 H 0.09411 0.03091 0.8366 0.0
C166 C 0.9829 0.05545 0.73138 0.0
N167 N 0.94421 0.07974 0.69314 0.0
C168 C 0.99642 0.05321 0.70883 0.0
C169 C 0.94964 0.06976 0.73451 0.0
C170 C 0.97647 0.06575 0.68972 0.0
C171 C 0.93049 0.08195 0.71493 0.0
C172 C 0.11254 0.02637 0.74446 0.0
C173 C 0.12794 0.03317 0.72318 0.0
C174 C 0.1259 0.9996 0.75834 0.0
C175 C 0.15659 0.01307 0.71617 0.0
C176 C 0.15461 0.98012 0.75075 0.0
N177 N 0.16923 0.98719 0.72999 0.0
C178 C 0.07689 0.12533 0.72802 0.0
C179 C 0.01625 0.137 0.73026 0.0
C180 C 0.08106 0.15406 0.71379 0.0
N181 N 0.04484 0.11711 0.73584 0.0
C182 C 0.01917 0.16582 0.71589 0.0
C183 C 0.05194 0.17473 0.70739 0.0
H184 H 0.0994 0.10964 0.73297 0.0
H185 H 0.99116 0.13079 0.73713 0.0
C186 C 0.02626 0.94097 0.74243 0.0
N187 N 0.04181 0.96989 0.73423 0.0
C188 C 0.02362 0.90984 0.72841 0.0
C189 C 0.05269 0.93881 0.69761 0.0
C190 C 0.05478 0.96935 0.71222 0.0
C191 C 0.03697 0.90836 0.7056 0.0
H192 H 0.01576 0.94212 0.75989 0.0
H193 H 0.06646 0.99278 0.70587 0.0
O194 O 0.04311 0.08726 0.79103 0.0
O195 O 0.04266 0.00743 0.7885 0.0
O196 O 1.00206 0.0436 0.75034 0.0
O197 O 0.08401 0.04538 0.75129 0.0
H198 H 0.10056 0.12584 0.79062 0.0
H199 H 0.98782 0.12912 0.78908 0.0
H200 H 0.10137 0.1907 0.78807 0.0
H201 H 0.99059 0.19395 0.78676 0.0
H202 H 0.08702 0.90687 0.81819 0.0
H203 H 0.02021 0.01621 0.83194 0.0
H204 H 0.07743 0.94726 0.78534 0.0
H205 H 0.03038 0.97432 0.86388 0.0
H206 H 0.92723 0.08784 0.84804 0.0
H207 H 0.90111 0.99005 0.80977 0.0
H208 H 0.20174 0.07905 0.80548 0.0
H209 H 0.14703 0.03535 0.86274 0.0
H210 H 0.0222 0.04234 0.70619 0.0
H211 H 0.93886 0.07159 0.7519 0.0
H212 H 0.98667 0.06442 0.67217 0.0
H213 H 0.90476 0.09322 0.71707 0.0
H214 H 0.11767 0.05355 0.71208 0.0
H215 H 0.11433 0.99403 0.77483 0.0
H216 H 0.16872 0.01799 0.69971 0.0
H217 H 0.16525 0.95937 0.76136 0.0
H218 H 0.1068 0.1597 0.70761 0.0
H219 H 0.99609 0.18133 0.7118 0.0
H220 H 0.0116 0.88705 0.7355 0.0
H221 H 0.06281 0.93929 0.68006 0.0
H222 H 0.4059 0.0369 0.04829 0.0
H223 H 0.35481 0.04506 0.0726 0.0
H224 H 0.39625 0.96846 0.12033 0.0
H225 H 0.4468 0.95958 0.09563 0.0
H226 H 0.3299 0.9584 0.11471 0.0
H227 H 0.39994 0.06086 0.13287 0.0
H228 H 0.43342 0.11383 0.12442 0.0
H229 H 0.34077 0.15957 0.09297 0.0
H230 H 0.30682 0.10665 0.10097 0.0
H231 H 0.22598 1.00615 0.21273 0.0
H232 H 0.27504 0.99778 0.18683 0.0
H233 H 0.22211 0.05977 0.13435 0.0
H234 H 0.17223 0.06731 0.15972 0.0
H235 H 0.29315 0.07762 0.14212 0.0
H236 H 0.22339 0.97364 0.12587 0.0
H237 H 0.19138 0.92073 0.1363 0.0
H238 H 0.28621 0.87806 0.16684 0.0
H239 H 0.3187 0.93098 0.15689 0.0
C240 C 0.40414 0.02194 0.06402 0.0
C241 C 0.43053 0.99775 0.0701 0.0
C242 C 0.37494 0.02667 0.07799 0.0
C243 C 0.37177 0.0079 0.09868 0.0
C244 C 0.3979 0.98333 0.10453 0.0
C245 C 0.42684 0.97823 0.09038 0.0
C246 C 0.34131 0.01372 0.11418 0.0
C247 C 0.32225 0.98449 0.12091 0.0
C248 C 0.33063 0.04775 0.12208 0.0
C249 C 0.35093 0.07965 0.1173 0.0
C250 C 0.38677 0.08211 0.124 0.0
C251 C 0.40582 0.11214 0.11932 0.0
C252 C 0.38926 0.14001 0.1081 0.0
C253 C 0.35358 0.13794 0.10162 0.0
C254 C 0.33441 0.10795 0.10624 0.0
C255 C 0.22437 0.01768 0.19557 0.0
C256 C 0.19472 0.03728 0.18841 0.0
C257 C 0.25266 0.013 0.18081 0.0
C258 C 0.25222 0.02792 0.15854 0.0
C259 C 0.22311 0.04806 0.15147 0.0
C260 C 0.19462 0.05249 0.16613 0.0
C261 C 0.28206 0.02235 0.14262 0.0
C262 C 0.30091 0.0516 0.13584 0.0
C263 C 0.29285 0.98834 0.13495 0.0
C264 C 0.2734 0.95643 0.14084 0.0
C265 C 0.23736 0.9531 0.13498 0.0
C266 C 0.21914 0.92309 0.14078 0.0
C267 C 0.23673 0.89609 0.15228 0.0
C268 C 0.27261 0.89901 0.15796 0.0
C269 C 0.29094 0.929 0.15223 0.0
H270 H 0.22258 0.87286 0.15675 0.0
H271 H 0.40405 0.16324 0.10449 0.0
H272 H 0.13825 0.45165 0.59987 0.0
H273 H 0.12946 0.40029 0.62318 0.0
H274 H 0.04028 0.36982 0.57774 0.0
H275 H 0.04921 0.42086 0.55397 0.0
H276 H 0.02654 0.36532 0.62493 0.0
H277 H 0.11559 0.32589 0.57313 0.0
H278 H 0.17179 0.32909 0.55348 0.0
H279 H 0.22763 0.32876 0.62093 0.0
H280 H 0.1717 0.32606 0.64103 0.0
H281 H 0.00833 0.1949 0.67056 0.0
H282 H 0.01549 0.24431 0.64497 0.0
H283 H 0.11145 0.27342 0.68379 0.0
H284 H 0.10461 0.22384 0.70924 0.0
H285 H 0.12068 0.27778 0.63851 0.0
H286 H 0.03208 0.31913 0.69054 0.0
H287 H 0.97606 0.31693 0.71053 0.0
H288 H 0.91959 0.31462 0.64325 0.0
H289 H 0.97532 0.31634 0.62283 0.0
C290 C 0.117 0.43393 0.59455 0.0
C291 C 0.0945 0.44071 0.57489 0.0
C292 C 0.11193 0.40451 0.60802 0.0
C293 C 0.08429 0.38099 0.6022 0.0
C294 C 0.06169 0.38763 0.58268 0.0
C295 C 0.06682 0.417 0.56911 0.0
C296 C 0.07892 0.3497 0.61665 0.0
C297 C 0.04693 0.34588 0.62762 0.0
C298 C 0.10575 0.32468 0.62063 0.0
C299 C 0.13943 0.32609 0.6086 0.0
C300 C 0.13984 0.32677 0.58379 0.0
C301 C 0.17165 0.32845 0.57257 0.0
C302 C 0.20326 0.32921 0.58595 0.0
C303 C 0.20312 0.3282 0.61059 0.0
C304 C 0.17137 0.32657 0.6219 0.0
C305 C 0.03079 0.21201 0.6738 0.0
C306 C 0.05585 0.20534 0.69203 0.0
C307 C 0.03487 0.24033 0.65913 0.0
C308 C 0.06384 0.26304 0.66252 0.0
C309 C 0.08891 0.25635 0.68069 0.0
C310 C 0.08498 0.2279 0.69524 0.0
C311 C 0.06834 0.29346 0.64704 0.0
C312 C 0.1002 0.29713 0.63583 0.0
C313 C 0.04141 0.31841 0.64292 0.0
C314 C 0.00788 0.3175 0.65516 0.0
C315 C 0.00772 0.31789 0.68 0.0
C316 C 0.97603 0.31677 0.69141 0.0
C317 C 0.94429 0.31554 0.67817 0.0
C318 C 0.94419 0.31552 0.65348 0.0
C319 C 0.97582 0.31659 0.64199 0.0
H320 H 0.91978 0.31468 0.68703 0.0
H321 H 0.22786 0.33051 0.57723 0.0
H322 H 0.61001 1.00174 0.09146 0.0
H323 H 0.66123 0.0149 0.11735 0.0
H324 H 0.68231 0.10644 0.07804 0.0
H325 H 0.63033 0.09328 0.05178 0.0
H326 H 0.74145 0.06394 0.08526 0.0
H327 H 0.65522 0.11804 0.13281 0.0
H328 H 0.59935 0.12286 0.15294 0.0
H329 H 0.62832 0.03547 0.19503 0.0
H330 H 0.68417 0.02978 0.17491 0.0
H331 H 0.88373 0.10359 0.16915 0.0
H332 H 0.83058 0.10783 0.14371 0.0
H333 H 0.78556 0.02076 0.17805 0.0
H334 H 0.83855 0.01633 0.20348 0.0
H335 H 0.73819 0.07099 0.17282 0.0
H336 H 0.82016 0.01221 0.1222 0.0
H337 H 0.87551 1.00535 0.10161 0.0
H338 H 0.8541 0.09995 0.06503 0.0
H339 H 0.79881 0.10762 0.08567 0.0
C340 C 0.62519 0.025 0.08844 0.0
C341 C 0.61602 0.04652 0.06956 0.0
C342 C 0.65449 0.03255 0.10335 0.0
C343 C 0.67562 0.06177 0.0998 0.0
C344 C 0.66633 0.0838 0.08118 0.0
C345 C 0.63652 0.07643 0.06631 0.0
C346 C 0.70816 0.06769 0.11498 0.0
C347 C 0.74074 0.06635 0.10439 0.0
C348 C 0.70735 0.06997 0.13999 0.0
C349 C 0.67383 0.07336 0.15223 0.0
C350 C 0.64958 0.09968 0.14624 0.0
C351 C 0.61793 0.1026 0.15767 0.0
C352 C 0.61027 0.07945 0.17523 0.0
C353 C 0.63429 0.05338 0.18142 0.0
C354 C 0.66598 0.05033 0.17003 0.0
C355 C 0.86267 0.0851 0.17115 0.0
C356 C 0.86559 0.05955 0.1884 0.0
C357 C 0.83219 0.08762 0.15659 0.0
C358 C 0.804 0.06445 0.15875 0.0
C359 C 0.80679 0.03908 0.17604 0.0
C360 C 0.83716 0.03662 0.19064 0.0
C361 C 0.77154 0.06644 0.14314 0.0
C362 C 0.73895 0.0692 0.15368 0.0
C363 C 0.77237 0.06529 0.1181 0.0
C364 C 0.80558 0.06072 0.10569 0.0
C365 C 0.8274 0.03171 0.10992 0.0
C366 C 0.85873 0.02765 0.09822 0.0
C367 C 0.86837 0.05227 0.08209 0.0
C368 C 0.84664 0.08095 0.07758 0.0
C369 C 0.8153 0.08516 0.08926 0.0
H370 H 0.89263 0.04907 0.07303 0.0
H371 H 0.58574 0.08175 0.18405 0.0
H372 H 0.09742 0.6614 0.55922 0.0
H373 H 0.08577 0.71015 0.58666 0.0
H374 H 0.98791 0.6626 0.60319 0.0
H375 H 0.99933 0.61309 0.57495 0.0
H376 H 0.98346 0.7364 0.60044 0.0
H377 H 0.05591 0.65478 0.6412 0.0
H378 H 0.10562 0.61416 0.6466 0.0
H379 H 0.17797 0.69924 0.64103 0.0
H380 H 0.1287 0.7403 0.63524 0.0
H381 H 0.98284 0.86044 0.70047 0.0
H382 H 0.97996 0.8062 0.67571 0.0
H383 H 0.08255 0.82769 0.65079 0.0
H384 H 0.08615 0.88112 0.67604 0.0
H385 H 0.07782 0.76103 0.66188 0.0
H386 H 1.00524 0.84095 0.61693 0.0
H387 H 0.95562 0.8815 0.61081 0.0
H388 H 0.88332 0.79943 0.62465 0.0
H389 H 0.93258 0.7585 0.63115 0.0
C390 C 0.07324 0.66115 0.56854 0.0
C391 C 0.04954 0.63298 0.56514 0.0
C392 C 0.06665 0.68918 0.5843 0.0
C393 C 0.03641 0.68974 0.59747 0.0
C394 C 0.01162 0.66258 0.59336 0.0
C395 C 0.01812 0.63434 0.57725 0.0
C396 C 0.03223 0.71827 0.61602 0.0
C397 C 1.00368 0.74139 0.61421 0.0
C398 C 0.0588 0.72512 0.63386 0.0
C399 C 0.08857 0.7006 0.63767 0.0
C400 C 0.08242 0.6648 0.641 0.0
C401 C 0.11052 0.6417 0.64414 0.0
C402 C 0.14493 0.6541 0.64413 0.0
C403 C 0.1513 0.68967 0.64104 0.0
C404 C 0.12329 0.71288 0.63786 0.0
C405 C 1.00494 0.85351 0.68987 0.0
C406 C 0.03473 0.87537 0.6903 0.0
C407 C 1.00307 0.82261 0.6755 0.0
C408 C 0.03089 0.81289 0.66113 0.0
C409 C 0.06067 0.83456 0.66163 0.0
C410 C 0.06257 0.86537 0.67597 0.0
C411 C 0.02966 0.77992 0.64588 0.0
C412 C 0.05727 0.75584 0.64837 0.0
C413 C 1.00217 0.77225 0.62878 0.0
C414 C 0.9726 0.7968 0.62479 0.0
C415 C 0.97878 0.83164 0.61885 0.0
C416 C 0.95072 0.85467 0.61528 0.0
C417 C 0.91634 0.84308 0.61741 0.0
C418 C 0.90996 0.80839 0.62305 0.0
C419 C 0.93793 0.78526 0.62666 0.0
H420 H 0.89466 0.86095 0.61464 0.0
H421 H 0.16665 0.63617 0.64655 0.0
H422 H 0.44056 0.08646 0.99411 0.0
H423 H 0.38427 0.09251 0.97224 0.0
H424 H 0.43435 0.06763 0.90678 0.0
H425 H 0.4906 0.06276 0.92831 0.0
H426 H 0.38634 0.11519 0.89931 0.0
H427 H 0.38965 1.00458 0.93863 0.0
H428 H 0.39653 0.96862 0.97375 0.0
H429 H 0.30934 0.02157 1.00477 0.0
H430 H 0.30221 0.05815 0.96993 0.0
H431 H 0.24761 0.04663 0.8246 0.0
H432 H 0.30067 0.05397 0.84994 0.0
H433 H 0.23815 0.08363 0.90914 0.0
H434 H 0.18483 0.0768 0.88382 0.0
H435 H 0.28955 0.03867 0.92225 0.0
H436 H 0.28285 0.14545 0.88109 0.0
H437 H 0.27681 0.1822 0.84634 0.0
H438 H 0.3706 0.13705 0.81896 0.0
H439 H 0.37693 0.09963 0.85339 0.0
C440 C 0.43973 0.083 0.97501 0.0
C441 C 0.4702 0.07385 0.96304 0.0
C442 C 0.4074 0.08614 0.96252 0.0
C443 C 0.40474 0.07968 0.93784 0.0
C444 C 0.43549 0.07255 0.92579 0.0
C445 C 0.46777 0.06972 0.93819 0.0
C446 C 0.37002 0.07846 0.92454 0.0
C447 C 0.36532 0.09823 0.90425 0.0
C448 C 0.34205 0.05703 0.9312 0.0
C449 C 0.34561 0.03431 0.95179 0.0
C450 C 0.37202 0.00861 0.95298 0.0
C451 C 0.37597 0.98814 0.97284 0.0
C452 C 0.35346 0.99288 0.99152 0.0
C453 C 0.32679 0.01796 0.99031 0.0
C454 C 0.32276 0.03855 0.9705 0.0
C455 C 0.24503 0.0551 0.84293 0.0
C456 C 0.21173 0.0613 0.85202 0.0
C457 C 0.2755 0.0592 0.85746 0.0
C458 C 0.27357 0.06979 0.88145 0.0
C459 C 0.2404 0.07543 0.89072 0.0
C460 C 0.20987 0.07137 0.87618 0.0
C461 C 0.30619 0.07488 0.89676 0.0
C462 C 0.31047 0.05584 0.91741 0.0
C463 C 0.33381 0.09694 0.89042 0.0
C464 C 0.33019 0.11952 0.86973 0.0
C465 C 0.30205 0.14317 0.86757 0.0
C466 C 0.29859 0.16415 0.84795 0.0
C467 C 0.32326 0.1619 0.83043 0.0
C468 C 0.35149 0.13873 0.83253 0.0
C469 C 0.35504 0.11766 0.85211 0.0
H470 H 0.32054 0.17817 0.81525 0.0
H471 H 0.35663 0.97709 1.00691 0.0
H472 H 0.99736 0.45025 0.48968 0.0
H473 H 0.9827 0.39732 0.46468 0.0
H474 H 0.05664 0.4287 0.41408 0.0
H475 H 0.07112 0.48099 0.43872 0.0
H476 H 0.99849 0.40043 0.3919 0.0
H477 H 0.07979 0.3722 0.45695 0.0
H478 H 0.09691 0.36913 0.49933 0.0
H479 H 0.00855 0.30267 0.50941 0.0
H480 H 0.99063 0.3058 0.46712 0.0
H481 H 0.0572 0.25013 0.32964 0.0
H482 H 0.0522 0.30273 0.35528 0.0
H483 H 0.98448 0.24744 0.40008 0.0
H484 H 0.99077 0.19403 0.37514 0.0
H485 H 0.02879 0.28644 0.42669 0.0
H486 H 0.95183 0.30813 0.36038 0.0
H487 H 0.93404 0.31204 0.31819 0.0
H488 H 0.01223 0.39113 0.31052 0.0
H489 H 0.03083 0.38734 0.35259 0.0
C490 C 0.00967 0.44621 0.47291 0.0
C491 C 0.03542 0.46967 0.46616 0.0
C492 C 1.00156 0.41585 0.45874 0.0
C493 C 0.01892 0.40876 0.43759 0.0
C494 C 0.04291 0.43345 0.43025 0.0
C495 C 0.05121 0.46336 0.44442 0.0
C496 C 0.01457 0.37478 0.42371 0.0
C497 C 1.00513 0.3755 0.39949 0.0
C498 C 0.02244 0.34207 0.43368 0.0
C499 C 0.03365 0.33956 0.45896 0.0
C500 C 0.06391 0.3571 0.46824 0.0
C501 C 0.07376 0.35534 0.49223 0.0
C502 C 0.05377 0.33582 0.50707 0.0
C503 C 0.02397 0.31786 0.49791 0.0
C504 C 0.01396 0.3196 0.47393 0.0
C505 C 0.04155 0.24887 0.34508 0.0
C506 C 0.02434 0.2176 0.35017 0.0
C507 C 0.03832 0.27925 0.35961 0.0
C508 C 0.0174 0.27942 0.37946 0.0
C509 C 1.00057 0.24817 0.38481 0.0
C510 C 1.00394 0.21767 0.37035 0.0
C511 C 0.01351 0.31215 0.39465 0.0
C512 C 0.02148 0.3112 0.4191 0.0
C513 C 1.00417 0.3447 0.3849 0.0
C514 C 0.99288 0.34727 0.35962 0.0
C515 C 0.96538 0.3262 0.34966 0.0
C516 C 0.95513 0.32842 0.32577 0.0
C517 C 0.97203 0.35178 0.31168 0.0
C518 C 0.99916 0.37304 0.32146 0.0
C519 C 0.00954 0.3709 0.34534 0.0
H520 H 0.96407 0.35344 0.29318 0.0
H521 H 0.0614 0.33455 0.52565 0.0
H522 H 0.66753 0.02427 0.98555 0.0
H523 H 0.71946 0.03171 0.96245 0.0
H524 H 0.66741 0.97732 0.90251 0.0
H525 H 0.61567 0.96936 0.92567 0.0
H526 H 0.73233 0.95629 0.90584 0.0
H527 H 0.6771 0.06932 0.90693 0.0
H528 H 0.65123 0.12267 0.92514 0.0
H529 H 0.74911 0.14667 0.96243 0.0
H530 H 0.77545 0.09318 0.94468 0.0
H531 H 0.84444 0.01165 0.81726 0.0
H532 H 0.79412 1.00334 0.84162 0.0
H533 H 0.85233 0.0481 0.90246 0.0
H534 H 0.90318 0.05577 0.87839 0.0
H535 H 0.78524 0.07405 0.89907 0.0
H536 H 0.84034 0.96076 0.89667 0.0
H537 H 0.8655 0.90781 0.87747 0.0
H538 H 0.76653 0.88495 0.84129 0.0
H539 H 0.7409 0.93807 0.86002 0.0
C540 C 0.66708 0.01401 0.96743 0.0
C541 C 0.63728 0.99633 0.95748 0.0
C542 C 0.69683 0.01834 0.95418 0.0
C543 C 0.69734 1.00562 0.93051 0.0
C544 C 0.66782 0.98742 0.92069 0.0
C545 C 0.63819 0.9828 0.934 0.0
C546 C 0.72852 0.01123 0.91598 0.0
C547 C 0.74354 0.98215 0.90414 0.0
C548 C 0.74385 0.04481 0.91403 0.0
C549 C 0.72813 0.07706 0.92465 0.0
C550 C 0.69303 0.08584 0.91914 0.0
C551 C 0.6783 0.11612 0.92936 0.0
C552 C 0.69849 0.13799 0.94498 0.0
C553 C 0.73349 0.12967 0.95036 0.0
C554 C 0.74834 0.0994 0.94021 0.0
C555 C 0.84684 0.01939 0.83587 0.0
C556 C 0.87821 0.03425 0.84577 0.0
C557 C 0.81787 0.01473 0.84979 0.0
C558 C 0.81945 0.02477 0.87397 0.0
C559 C 0.8504 0.04018 0.88385 0.0
C560 C 0.87947 0.0447 0.86997 0.0
C561 C 0.78884 0.01916 0.88892 0.0
C562 C 0.77397 0.04822 0.90082 0.0
C563 C 0.7735 0.98562 0.89078 0.0
C564 C 0.7888 0.95358 0.87958 0.0
C565 C 0.82402 0.94459 0.88448 0.0
C566 C 0.83835 0.91452 0.8737 0.0
C567 C 0.81765 0.89308 0.85812 0.0
C568 C 0.78254 0.90161 0.85333 0.0
C569 C 0.76809 0.93168 0.86404 0.0
H570 H 0.8288 0.86981 0.8498 0.0
H571 H 0.68703 0.16143 0.95288 0.0
H572 H 0.03911 0.63185 0.44716 0.0
H573 H 0.02961 0.6822 0.42217 0.0
H574 H 0.13381 0.71969 0.44154 0.0
H575 H 0.14335 0.6695 0.46668 0.0
H576 H 0.08391 0.77253 0.44391 0.0
H577 H 0.11775 0.68113 0.38834 0.0
H578 H 0.11409 0.62263 0.36809 0.0
H579 H 0.00874 0.64414 0.34328 0.0
H580 H 0.01161 0.70263 0.36368 0.0
H581 H 0.101 0.90081 0.35849 0.0
H582 H 0.10865 0.84966 0.38271 0.0
H583 H 0.00804 0.80983 0.35656 0.0
H584 H 1.00019 0.86109 0.33219 0.0
H585 H 0.05439 0.75786 0.35787 0.0
H586 H 0.0195 0.84859 0.41252 0.0
H587 H 0.02132 0.90688 0.43313 0.0
H588 H 0.12574 0.8866 0.46032 0.0
H589 H 0.12474 0.82835 0.43957 0.0
C590 C 0.05995 0.65087 0.44618 0.0
C591 C 0.09203 0.64656 0.45892 0.0
C592 C 0.05457 0.67954 0.43175 0.0
C593 C 0.08107 0.70468 0.42983 0.0
C594 C 0.113 0.70063 0.44269 0.0
C595 C 0.11852 0.67177 0.45692 0.0
C596 C 0.07542 0.73533 0.41458 0.0
C597 C 0.07792 0.76934 0.42504 0.0
C598 C 0.06653 0.73122 0.39007 0.0
C599 C 0.06477 0.69611 0.37775 0.0
C600 C 0.09369 0.67327 0.37874 0.0
C601 C 0.09178 0.64014 0.3672 0.0
C602 C 0.06117 0.62963 0.35447 0.0
C603 C 0.03242 0.65229 0.35319 0.0
C604 C 0.03418 0.68545 0.36472 0.0
C605 C 0.08029 0.88138 0.35802 0.0
C606 C 0.04981 0.88535 0.34348 0.0
C607 C 0.08474 0.85204 0.3719 0.0
C608 C 0.0587 0.826 0.37181 0.0
C609 C 0.02852 0.82951 0.35699 0.0
C610 C 0.0241 0.85884 0.34301 0.0
C611 C 0.06311 0.79519 0.38715 0.0
C612 C 0.06033 0.76113 0.37674 0.0
C613 C 0.07145 0.79924 0.41176 0.0
C614 C 0.07216 0.83423 0.4243 0.0
C615 C 0.04296 0.85667 0.42274 0.0
C616 C 0.04383 0.88968 0.43447 0.0
C617 C 0.07366 0.90047 0.44797 0.0
C618 C 0.10267 0.87822 0.44982 0.0
C619 C 0.10195 0.84519 0.43809 0.0
H620 H 0.07428 0.92604 0.45705 0.0
H621 H 0.05974 0.60397 0.34554 0.0
loop_
_geom_bond_atom_site_label_1
_geom_bond_atom_site_label_2
_geom_bond_distance
_geom_bond_site_symmetry_2
_ccdc_geom_bond_type
Cu0 N1 1.999 1_554 S
Cu0 O6 1.974 . S
Cu0 N11 1.985 . S
Cu0 O20 1.959 1_554 S
N1 Cu0 1.999 1_556 S
N1 C3 1.263 . S
N1 C5 1.389 . S
N2 C3 1.358 . S
N2 C4 1.400 . S
C3 N1 1.263 . S
C3 N2 1.358 . S
C3 H9 0.930 . S
C4 N2 1.400 . S
C4 C5 1.351 . S
C4 H21 0.930 . S
C5 N1 1.389 . S
C5 C4 1.351 . S
C5 H10 0.930 . S
O6 Cu0 1.974 . S
O6 C16 1.282 . S
C7 O8 1.242 1_545 S
C7 O20 1.251 . S
O8 C7 1.242 1_565 S
H9 C3 0.930 . S
H10 C5 0.930 . S
N11 Cu0 1.985 . S
N11 C13 1.335 . S
N11 C14 1.390 . S
N12 C13 1.345 . S
N12 C15 1.336 . S
C13 N11 1.335 . S
C13 N12 1.345 . S
C13 H18 0.930 . S
C14 N11 1.390 . S
C14 C15 1.346 . S
C14 H19 0.930 . S
C15 N12 1.336 . S
C15 C14 1.346 . S
C15 H22 0.929 . S
C16 O6 1.282 . S
C16 O17 1.216 1_545 S
O17 C16 1.216 1_565 S
H18 C13 0.930 . S
H19 C14 0.930 . S
O20 Cu0 1.959 1_556 S
O20 C7 1.251 . S
H21 C4 0.930 . S
H22 C15 0.929 . S
Cu23 N24 1.999 . S
Cu23 O29 1.974 . S
Cu23 N34 1.985 . S
Cu23 O43 1.959 . S
N24 Cu23 1.999 . S
N24 C26 1.263 . S
N24 C28 1.389 . S
N25 C26 1.358 . S
N25 C27 1.400 . S
C26 N24 1.263 . S
C26 N25 1.358 . S
C26 H32 0.930 . S
C27 N25 1.400 . S
C27 C28 1.351 . S
C27 H44 0.930 1_455 S
C28 N24 1.389 . S
C28 C27 1.351 . S
C28 H33 0.930 1_455 S
O29 Cu23 1.974 . S
O29 C39 1.282 . S
C30 O31 1.261 . S
C30 O43 1.251 . S
O31 C30 1.261 . S
H32 C26 0.930 . S
H33 C28 0.930 1_655 S
N34 Cu23 1.985 . S
N34 C36 1.335 . S
N34 C37 1.390 . S
N35 C36 1.345 . S
N35 C38 1.336 . S
C36 N34 1.335 . S
C36 N35 1.345 . S
C36 H41 0.930 . S
C37 N34 1.390 . S
C37 C38 1.346 . S
C37 H42 0.930 . S
C38 N35 1.336 . S
C38 C37 1.346 . S
C38 H45 0.929 . S
C39 O29 1.282 . S
C39 O40 1.216 . S
O40 C39 1.216 . S
H41 C36 0.930 . S
H42 C37 0.930 . S
O43 Cu23 1.959 . S
O43 C30 1.251 . S
H44 C27 0.930 1_655 S
H45 C38 0.929 . S
Li46 N63 1.990 . S
Li46 O106 1.956 . S
Li46 O107 1.970 1_455 S
Li46 O108 1.961 . S
Li47 N71 1.990 1_545 S
Li47 O106 1.970 . S
Li47 O107 1.956 1_455 S
Li47 O109 1.961 . S
Li48 N93 1.990 . S
Li48 O106 1.961 . S
Li48 O108 1.956 . S
Li48 O109 1.970 . S
Li49 N99 1.990 . S
Li49 O107 1.961 . S
Li49 O108 1.970 1_655 S
Li49 O109 1.956 1_655 S
C50 C52 1.348 . S
C50 C53 1.356 . S
C50 O106 1.325 . S
N51 C54 1.314 . S
N51 C55 1.279 . S
C52 C50 1.348 . S
C52 C54 1.353 . S
C52 H110 0.929 . S
C53 C50 1.356 . S
C53 C55 1.358 . S
C53 H111 0.930 . S
C54 N51 1.314 . S
C54 C52 1.353 . S
C54 H112 0.930 . S
C55 N51 1.279 . S
C55 C53 1.358 . S
C55 H113 0.930 . S
C56 C59 1.348 . S
C56 C60 1.356 . S
C56 O107 1.325 . S
C57 N58 1.279 . S
C57 C60 1.358 . S
C57 H114 0.930 . S
N58 C57 1.279 . S
N58 C61 1.314 . S
C59 C56 1.348 . S
C59 C61 1.353 . S
C59 H115 0.929 . S
C60 C56 1.356 . S
C60 C57 1.358 . S
C60 H116 0.930 . S
C61 N58 1.314 . S
C61 C59 1.353 . S
C61 H117 0.930 . S
C62 N63 1.314 . S
C62 C67 1.353 . S
C62 H68 0.933 . S
N63 Li46 1.990 . S
N63 C62 1.314 . S
N63 C65 1.279 . S
C64 C65 1.358 . S
C64 C66 1.356 . S
C64 H118 0.930 . S
C65 N63 1.279 . S
C65 C64 1.358 . S
C65 H69 0.930 . S
C66 C64 1.356 . S
C66 C67 1.348 . S
C67 C62 1.353 . S
C67 C66 1.348 . S
C67 H119 0.929 1_455 S
H68 C62 0.933 . S
H69 C65 0.930 . S
C70 N71 1.314 . S
C70 C72 1.353 . S
C70 H76 0.930 . S
N71 Li47 1.990 1_565 S
N71 C70 1.314 . S
N71 C74 1.279 . S
C72 C70 1.353 . S
C72 C75 1.348 . S
C72 H120 0.929 . S
C73 C74 1.358 . S
C73 C75 1.356 . S
C73 H121 0.930 1_455 S
C74 N71 1.279 . S
C74 C73 1.358 . S
C74 H77 0.930 1_455 S
C75 C72 1.348 . S
C75 C73 1.356 . S
H76 C70 0.930 . S
H77 C74 0.930 1_655 S
C78 C80 1.348 . S
C78 C81 1.356 . S
C78 O108 1.325 . S
N79 C82 1.314 . S
N79 C83 1.279 . S
C80 C78 1.348 . S
C80 C82 1.353 . S
C80 H122 0.929 1_455 S
C81 C78 1.356 . S
C81 C83 1.358 . S
C81 H123 0.930 . S
C82 N79 1.314 . S
C82 C80 1.353 . S
C82 H124 0.930 1_455 S
C83 N79 1.279 . S
C83 C81 1.358 . S
C83 H125 0.930 . S
C84 C85 1.348 . S
C84 C86 1.356 . S
C84 O109 1.325 1_565 S
C85 C84 1.348 . S
C85 C87 1.353 . S
C85 H126 0.929 . S
C86 C84 1.356 . S
C86 C88 1.358 . S
C86 H127 0.930 1_455 S
C87 C85 1.353 . S
C87 N89 1.314 . S
C87 H128 0.930 . S
C88 C86 1.358 . S
C88 N89 1.279 . S
C88 H129 0.930 1_455 S
N89 C87 1.314 . S
N89 C88 1.279 . S
C90 C92 1.353 . S
C90 N93 1.314 . S
C90 H96 0.930 . S
C91 N93 1.279 . S
C91 C94 1.358 . S
C91 H97 0.930 . S
C92 C90 1.353 . S
C92 C95 1.348 . S
C92 H130 0.929 . S
N93 Li48 1.990 . S
N93 C90 1.314 . S
N93 C91 1.279 . S
C94 C91 1.358 . S
C94 C95 1.356 . S
C94 H131 0.930 . S
C95 C92 1.348 . S
C95 C94 1.356 . S
H96 C90 0.930 . S
H97 C91 0.930 . S
C98 N99 1.314 . S
C98 C100 1.353 . S
C98 H104 0.930 . S
N99 Li49 1.990 . S
N99 C98 1.314 . S
N99 C102 1.279 . S
C100 C98 1.353 . S
C100 C103 1.348 . S
C100 H132 0.929 . S
C101 C102 1.358 . S
C101 C103 1.356 . S
C101 H133 0.930 . S
C102 N99 1.279 . S
C102 C101 1.358 . S
C102 H105 0.930 . S
C103 C100 1.348 . S
C103 C101 1.356 . S
H104 C98 0.930 . S
H105 C102 0.930 . S
O106 Li46 1.956 . S
O106 Li47 1.970 . S
O106 Li48 1.961 . S
O106 C50 1.325 . S
O107 Li46 1.970 1_655 S
O107 Li47 1.956 1_655 S
O107 Li49 1.961 . S
O107 C56 1.325 . S
O108 Li46 1.961 . S
O108 Li48 1.956 . S
O108 Li49 1.970 1_455 S
O108 C78 1.325 . S
O109 Li47 1.961 . S
O109 Li48 1.970 . S
O109 Li49 1.956 1_455 S
O109 C84 1.325 1_545 S
H110 C52 0.929 . S
H111 C53 0.930 . S
H112 C54 0.930 . S
H113 C55 0.930 . S
H114 C57 0.930 . S
H115 C59 0.929 . S
H116 C60 0.930 . S
H117 C61 0.930 . S
H118 C64 0.930 . S
H119 C67 0.929 1_655 S
H120 C72 0.929 . S
H121 C73 0.930 1_655 S
H122 C80 0.929 1_655 S
H123 C81 0.930 . S
H124 C82 0.930 1_655 S
H125 C83 0.930 . S
H126 C85 0.929 . S
H127 C86 0.930 1_655 S
H128 C87 0.930 . S
H129 C88 0.930 1_655 S
H130 C92 0.929 . S
H131 C94 0.930 . S
H132 C100 0.929 . S
H133 C101 0.930 . S
Li134 N151 1.990 1_455 S
Li134 O194 1.956 . S
Li134 O195 1.970 1_545 S
Li134 O196 1.961 . S
Li135 N159 1.990 . S
Li135 O194 1.970 . S
Li135 O195 1.956 1_545 S
Li135 O197 1.961 . S
Li136 N181 1.990 . S
Li136 O194 1.961 . S
Li136 O196 1.956 . S
Li136 O197 1.970 . S
Li137 N187 1.990 . S
Li137 O195 1.961 . S
Li137 O196 1.970 1_565 S
Li137 O197 1.956 1_565 S
C138 C140 1.348 . S
C138 C141 1.356 . S
C138 O194 1.325 . S
N139 C142 1.314 . S
N139 C143 1.279 . S
C140 C138 1.348 . S
C140 C142 1.353 . S
C140 H198 0.929 . S
C141 C138 1.356 . S
C141 C143 1.358 . S
C141 H199 0.930 . S
C142 N139 1.314 . S
C142 C140 1.353 . S
C142 H200 0.930 . S
C143 N139 1.279 . S
C143 C141 1.358 . S
C143 H201 0.930 . S
C144 C147 1.348 . S
C144 C148 1.356 . S
C144 O195 1.325 . S
C145 N146 1.279 . S
C145 C148 1.358 . S
C145 H202 0.930 . S
N146 C145 1.279 . S
N146 C149 1.314 . S
C147 C144 1.348 . S
C147 C149 1.353 . S
C147 H203 0.929 . S
C148 C144 1.356 . S
C148 C145 1.358 . S
C148 H204 0.930 . S
C149 N146 1.314 . S
C149 C147 1.353 . S
C149 H205 0.930 . S
C150 N151 1.314 . S
C150 C155 1.353 . S
C150 H156 0.929 1_545 S
N151 Li134 1.990 1_655 S
N151 C150 1.314 . S
N151 C153 1.279 . S
C152 C153 1.358 . S
C152 C154 1.356 . S
C152 H206 0.930 . S
C153 N151 1.279 . S
C153 C152 1.358 . S
C153 H157 0.930 . S
C154 C152 1.356 . S
C154 C155 1.348 . S
C155 C150 1.353 . S
C155 C154 1.348 . S
C155 H207 0.929 1_545 S
H156 C150 0.929 1_565 S
H157 C153 0.930 . S
C158 N159 1.314 . S
C158 C160 1.353 . S
C158 H164 0.930 . S
N159 Li135 1.990 . S
N159 C158 1.314 . S
N159 C162 1.279 . S
C160 C158 1.353 . S
C160 C163 1.348 . S
C160 H208 0.929 . S
C161 C162 1.358 . S
C161 C163 1.356 . S
C161 H209 0.930 1_545 S
C162 N159 1.279 . S
C162 C161 1.358 . S
C162 H165 0.930 1_545 S
C163 C160 1.348 . S
C163 C161 1.356 . S
H164 C158 0.930 . S
H165 C162 0.930 1_565 S
C166 C168 1.348 . S
C166 C169 1.356 . S
C166 O196 1.325 1_655 S
N167 C170 1.314 . S
N167 C171 1.279 . S
C168 C166 1.348 . S
C168 C170 1.353 . S
C168 H210 0.929 1_545 S
C169 C166 1.356 . S
C169 C171 1.358 . S
C169 H211 0.930 . S
C170 N167 1.314 . S
C170 C168 1.353 . S
C170 H212 0.930 1_545 S
C171 N167 1.279 . S
C171 C169 1.358 . S
C171 H213 0.930 . S
C172 C173 1.348 . S
C172 C174 1.356 . S
C172 O197 1.325 . S
C173 C172 1.348 . S
C173 C175 1.353 . S
C173 H214 0.929 . S
C174 C172 1.356 . S
C174 C176 1.358 . S
C174 H215 0.930 1_545 S
C175 C173 1.353 . S
C175 N177 1.314 . S
C175 H216 0.930 . S
C176 C174 1.358 . S
C176 N177 1.279 . S
C176 H217 0.930 1_545 S
N177 C175 1.314 . S
N177 C176 1.279 . S
C178 C180 1.353 . S
C178 N181 1.314 . S
C178 H184 0.930 . S
C179 N181 1.279 . S
C179 C182 1.358 . S
C179 H185 0.930 . S
C180 C178 1.353 . S
C180 C183 1.348 . S
C180 H218 0.929 . S
N181 Li136 1.990 . S
N181 C178 1.314 . S
N181 C179 1.279 . S
C182 C179 1.358 . S
C182 C183 1.356 . S
C182 H219 0.930 . S
C183 C180 1.348 . S
C183 C182 1.356 . S
H184 C178 0.930 . S
H185 C179 0.930 . S
C186 N187 1.314 . S
C186 C188 1.353 . S
C186 H192 0.930 . S
N187 Li137 1.990 . S
N187 C186 1.314 . S
N187 C190 1.279 . S
C188 C186 1.353 . S
C188 C191 1.348 . S
C188 H220 0.929 . S
C189 C190 1.358 . S
C189 C191 1.356 . S
C189 H221 0.930 . S
C190 N187 1.279 . S
C190 C189 1.358 . S
C190 H193 0.930 . S
C191 C188 1.348 . S
C191 C189 1.356 . S
H192 C186 0.930 . S
H193 C190 0.930 . S
O194 Li134 1.956 . S
O194 Li135 1.970 . S
O194 Li136 1.961 . S
O194 C138 1.325 . S
O195 Li134 1.970 1_565 S
O195 Li135 1.956 1_565 S
O195 Li137 1.961 . S
O195 C144 1.325 . S
O196 Li134 1.961 . S
O196 Li136 1.956 . S
O196 Li137 1.970 1_545 S
O196 C166 1.325 1_455 S
O197 Li135 1.961 . S
O197 Li136 1.970 . S
O197 Li137 1.956 1_545 S
O197 C172 1.325 . S
H198 C140 0.929 . S
H199 C141 0.930 . S
H200 C142 0.930 . S
H201 C143 0.930 . S
H202 C145 0.930 . S
H203 C147 0.929 . S
H204 C148 0.930 . S
H205 C149 0.930 . S
H206 C152 0.930 . S
H207 C155 0.929 1_565 S
H208 C160 0.929 . S
H209 C161 0.930 1_565 S
H210 C168 0.929 1_565 S
H211 C169 0.930 . S
H212 C170 0.930 1_565 S
H213 C171 0.930 . S
H214 C173 0.929 . S
H215 C174 0.930 1_565 S
H216 C175 0.930 . S
H217 C176 0.930 1_565 S
H218 C180 0.929 . S
H219 C182 0.930 . S
H220 C188 0.929 . S
H221 C189 0.930 . S
H222 C240 0.951 . S
H223 C242 0.951 . S
H224 C244 0.950 . S
H225 C245 0.950 . S
H226 C247 0.950 1_565 S
H227 C250 0.950 . S
H228 C251 0.950 . S
H229 C253 0.950 . S
H230 C254 0.950 . S
H231 C255 0.951 . S
H232 C257 0.951 . S
H233 C259 0.950 . S
H234 C260 0.950 . S
H235 C262 0.950 . S
H236 C265 0.950 . S
H237 C266 0.950 . S
H238 C268 0.950 . S
H239 C269 0.950 . S
C240 H222 0.951 . S
C240 C241 1.366 . S
C240 C242 1.388 . S
C241 C240 1.366 . S
C241 C245 1.385 . S
C242 H223 0.951 . S
C242 C240 1.388 . S
C242 C243 1.366 . S
C243 C242 1.366 . S
C243 C244 1.414 . S
C243 C246 1.499 . S
C244 H224 0.950 . S
C244 C243 1.414 . S
C244 C245 1.374 . S
C245 H225 0.950 . S
C245 C241 1.385 . S
C245 C244 1.374 . S
C246 C243 1.499 . S
C246 C247 1.373 . S
C246 C248 1.389 . S
C247 H226 0.950 1_545 S
C247 C246 1.373 . S
C247 C263 1.377 . S
C248 C246 1.389 . S
C248 C249 1.524 . S
C248 C262 1.377 . S
C249 C248 1.524 . S
C249 C250 1.397 . S
C249 C254 1.363 . S
C250 H227 0.950 . S
C250 C249 1.397 . S
C250 C251 1.334 . S
C251 H228 0.950 . S
C251 C250 1.334 . S
C251 C252 1.287 . S
C252 C251 1.287 . S
C252 C253 1.524 . S
C252 H271 0.913 . S
C253 H229 0.950 . S
C253 C252 1.524 . S
C253 C254 1.415 . S
C254 H230 0.950 . S
C254 C249 1.363 . S
C254 C253 1.415 . S
C255 H231 0.951 . S
C255 C256 1.366 . S
C255 C257 1.388 . S
C256 C255 1.366 . S
C256 C260 1.385 . S
C257 H232 0.951 . S
C257 C255 1.388 . S
C257 C258 1.366 . S
C258 C257 1.366 . S
C258 C259 1.414 . S
C258 C261 1.499 . S
C259 H233 0.950 . S
C259 C258 1.414 . S
C259 C260 1.374 . S
C260 H234 0.950 . S
C260 C256 1.385 . S
C260 C259 1.374 . S
C261 C258 1.499 . S
C261 C262 1.373 . S
C261 C263 1.389 . S
C262 H235 0.950 . S
C262 C248 1.377 . S
C262 C261 1.373 . S
C263 C247 1.377 . S
C263 C261 1.389 . S
C263 C264 1.524 1_545 S
C264 C263 1.524 1_565 S
C264 C265 1.397 . S
C264 C269 1.363 . S
C265 H236 0.950 . S
C265 C264 1.397 . S
C265 C266 1.334 . S
C266 H237 0.950 . S
C266 C265 1.334 . S
C266 C267 1.287 . S
C267 C266 1.287 . S
C267 C268 1.524 . S
C267 H270 0.999 . S
C268 H238 0.950 . S
C268 C267 1.524 . S
C268 C269 1.415 . S
C269 H239 0.950 . S
C269 C264 1.363 . S
C269 C268 1.415 . S
H270 C267 0.999 . S
H271 C252 0.913 . S
H272 C290 0.951 . S
H273 C292 0.951 . S
H274 C294 0.950 . S
H275 C295 0.950 1_655 S
H276 C297 0.950 1_655 S
H277 C300 0.950 . S
H278 C301 0.950 . S
H279 C303 0.950 . S
H280 C304 0.950 . S
H281 C305 0.951 . S
H282 C307 0.951 . S
H283 C309 0.950 . S
H284 C310 0.950 . S
H285 C312 0.950 . S
H286 C315 0.950 . S
H287 C316 0.950 . S
H288 C318 0.950 . S
H289 C319 0.950 . S
C290 H272 0.951 . S
C290 C291 1.366 . S
C290 C292 1.388 . S
C291 C290 1.366 . S
C291 C295 1.385 . S
C292 H273 0.951 . S
C292 C290 1.388 . S
C292 C293 1.366 . S
C293 C292 1.366 . S
C293 C294 1.414 . S
C293 C296 1.499 . S
C294 H274 0.950 . S
C294 C293 1.414 . S
C294 C295 1.374 . S
C295 H275 0.950 1_455 S
C295 C291 1.385 . S
C295 C294 1.374 . S
C296 C293 1.499 . S
C296 C297 1.373 . S
C296 C298 1.389 . S
C297 H276 0.950 1_455 S
C297 C296 1.373 . S
C297 C313 1.377 . S
C298 C296 1.389 . S
C298 C299 1.524 . S
C298 C312 1.377 . S
C299 C298 1.524 . S
C299 C300 1.397 . S
C299 C304 1.363 . S
C300 H277 0.950 . S
C300 C299 1.397 . S
C300 C301 1.334 . S
C301 H278 0.950 . S
C301 C300 1.334 . S
C301 C302 1.287 . S
C302 C301 1.287 . S
C302 C303 1.524 . S
C302 H321 0.913 . S
C303 H279 0.950 . S
C303 C302 1.524 . S
C303 C304 1.415 . S
C304 H280 0.950 . S
C304 C299 1.363 . S
C304 C303 1.415 . S
C305 H281 0.951 . S
C305 C306 1.366 . S
C305 C307 1.388 . S
C306 C305 1.366 . S
C306 C310 1.385 . S
C307 H282 0.951 . S
C307 C305 1.388 . S
C307 C308 1.366 . S
C308 C307 1.366 . S
C308 C309 1.414 . S
C308 C311 1.499 . S
C309 H283 0.950 . S
C309 C308 1.414 . S
C309 C310 1.374 . S
C310 H284 0.950 . S
C310 C306 1.385 . S
C310 C309 1.374 . S
C311 C308 1.499 . S
C311 C312 1.373 . S
C311 C313 1.389 . S
C312 H285 0.950 . S
C312 C298 1.377 . S
C312 C311 1.373 . S
C313 C297 1.377 . S
C313 C311 1.389 . S
C313 C314 1.524 1_455 S
C314 C313 1.524 1_655 S
C314 C315 1.397 . S
C314 C319 1.363 . S
C315 H286 0.950 . S
C315 C314 1.397 . S
C315 C316 1.334 . S
C316 H287 0.950 . S
C316 C315 1.334 . S
C316 C317 1.287 . S
C317 C316 1.287 . S
C317 C318 1.524 . S
C317 H320 0.999 . S
C318 H288 0.950 . S
C318 C317 1.524 . S
C318 C319 1.415 . S
C319 H289 0.950 . S
C319 C314 1.363 . S
C319 C318 1.415 . S
H320 C317 0.999 . S
H321 C302 0.913 . S
H322 C340 0.951 1_565 S
H323 C342 0.948 1_565 S
H324 C344 0.950 . S
H325 C345 0.950 . S
H326 C347 0.950 . S
H327 C350 0.950 . S
H328 C351 0.950 . S
H329 C353 0.950 . S
H330 C354 0.950 . S
H331 C355 0.951 . S
H332 C357 0.951 . S
H333 C359 0.950 . S
H334 C360 0.950 . S
H335 C362 0.950 . S
H336 C365 0.950 . S
H337 C366 0.950 . S
H338 C368 0.950 . S
H339 C369 0.950 . S
C340 H322 0.951 1_545 S
C340 C341 1.366 . S
C340 C342 1.388 . S
C341 C340 1.366 . S
C341 C345 1.385 . S
C342 H323 0.948 1_545 S
C342 C340 1.388 . S
C342 C343 1.366 . S
C343 C342 1.366 . S
C343 C344 1.414 . S
C343 C346 1.499 . S
C344 H324 0.950 . S
C344 C343 1.414 . S
C344 C345 1.374 . S
C345 H325 0.950 . S
C345 C341 1.385 . S
C345 C344 1.374 . S
C346 C343 1.499 . S
C346 C347 1.373 . S
C346 C348 1.389 . S
C347 H326 0.950 . S
C347 C346 1.373 . S
C347 C363 1.377 . S
C348 C346 1.389 . S
C348 C349 1.524 . S
C348 C362 1.377 . S
C349 C348 1.524 . S
C349 C350 1.397 . S
C349 C354 1.363 . S
C350 H327 0.950 . S
C350 C349 1.397 . S
C350 C351 1.334 . S
C351 H328 0.950 . S
C351 C350 1.334 . S
C351 C352 1.287 . S
C352 C351 1.287 . S
C352 C353 1.524 . S
C352 H371 0.913 . S
C353 H329 0.950 . S
C353 C352 1.524 . S
C353 C354 1.415 . S
C354 H330 0.950 . S
C354 C349 1.363 . S
C354 C353 1.415 . S
C355 H331 0.951 . S
C355 C356 1.366 . S
C355 C357 1.388 . S
C356 C355 1.366 . S
C356 C360 1.385 . S
C357 H332 0.951 . S
C357 C355 1.388 . S
C357 C358 1.366 . S
C358 C357 1.366 . S
C358 C359 1.414 . S
C358 C361 1.499 . S
C359 H333 0.950 . S
C359 C358 1.414 . S
C359 C360 1.374 . S
C360 H334 0.950 . S
C360 C356 1.385 . S
C360 C359 1.374 . S
C361 C358 1.499 . S
C361 C362 1.373 . S
C361 C363 1.389 . S
C362 H335 0.950 . S
C362 C348 1.377 . S
C362 C361 1.373 . S
C363 C347 1.377 . S
C363 C361 1.389 . S
C363 C364 1.524 . S
C364 C363 1.524 . S
C364 C365 1.397 1_545 S
C364 C369 1.363 . S
C365 H336 0.950 . S
C365 C364 1.397 1_565 S
C365 C366 1.334 . S
C366 H337 0.950 . S
C366 C365 1.334 . S
C366 C367 1.287 1_565 S
C367 C366 1.287 1_545 S
C367 C368 1.524 . S
C367 H370 0.999 1_545 S
C368 H338 0.950 . S
C368 C367 1.524 . S
C368 C369 1.415 . S
C369 H339 0.950 . S
C369 C364 1.363 . S
C369 C368 1.415 . S
H370 C367 0.999 1_565 S
H371 C352 0.913 . S
H372 C390 0.951 . S
H373 C392 0.951 . S
H374 C394 0.950 . S
H375 C395 0.950 . S
H376 C397 0.950 1_655 S
H377 C400 0.950 . S
H378 C401 0.950 . S
H379 C403 0.950 . S
H380 C404 0.950 . S
H381 C405 0.951 . S
H382 C407 0.951 . S
H383 C409 0.950 . S
H384 C410 0.950 . S
H385 C412 0.950 . S
H386 C415 0.950 . S
H387 C416 0.950 . S
H388 C418 0.950 . S
H389 C419 0.950 . S
C390 H372 0.951 . S
C390 C391 1.366 . S
C390 C392 1.388 . S
C391 C390 1.366 . S
C391 C395 1.385 . S
C392 H373 0.951 . S
C392 C390 1.388 . S
C392 C393 1.366 . S
C393 C392 1.366 . S
C393 C394 1.414 . S
C393 C396 1.499 . S
C394 H374 0.950 . S
C394 C393 1.414 . S
C394 C395 1.374 . S
C395 H375 0.950 . S
C395 C391 1.385 . S
C395 C394 1.374 . S
C396 C393 1.499 . S
C396 C397 1.373 . S
C396 C398 1.389 . S
C397 H376 0.950 1_455 S
C397 C396 1.373 . S
C397 C413 1.377 . S
C398 C396 1.389 . S
C398 C399 1.524 . S
C398 C412 1.377 . S
C399 C398 1.524 . S
C399 C400 1.397 . S
C399 C404 1.363 . S
C400 H377 0.950 . S
C400 C399 1.397 . S
C400 C401 1.334 . S
C401 H378 0.950 . S
C401 C400 1.334 . S
C401 C402 1.287 . S
C402 C401 1.287 . S
C402 C403 1.524 . S
C402 H421 0.913 . S
C403 H379 0.950 . S
C403 C402 1.524 . S
C403 C404 1.415 . S
C404 H380 0.950 . S
C404 C399 1.363 . S
C404 C403 1.415 . S
C405 H381 0.951 . S
C405 C406 1.366 . S
C405 C407 1.388 . S
C406 C405 1.366 . S
C406 C410 1.385 . S
C407 H382 0.951 . S
C407 C405 1.388 . S
C407 C408 1.366 . S
C408 C407 1.366 . S
C408 C409 1.414 . S
C408 C411 1.499 . S
C409 H383 0.950 . S
C409 C408 1.414 . S
C409 C410 1.374 . S
C410 H384 0.950 . S
C410 C406 1.385 . S
C410 C409 1.374 . S
C411 C408 1.499 . S
C411 C412 1.373 . S
C411 C413 1.389 . S
C412 H385 0.950 . S
C412 C398 1.377 . S
C412 C411 1.373 . S
C413 C397 1.377 . S
C413 C411 1.389 . S
C413 C414 1.524 1_455 S
C414 C413 1.524 1_655 S
C414 C415 1.397 . S
C414 C419 1.363 . S
C415 H386 0.950 . S
C415 C414 1.397 . S
C415 C416 1.334 . S
C416 H387 0.950 . S
C416 C415 1.334 . S
C416 C417 1.287 . S
C417 C416 1.287 . S
C417 C418 1.524 . S
C417 H420 0.999 . S
C418 H388 0.950 . S
C418 C417 1.524 . S
C418 C419 1.415 . S
C419 H389 0.950 . S
C419 C414 1.363 . S
C419 C418 1.415 . S
H420 C417 0.999 . S
H421 C402 0.913 . S
H422 C440 0.951 . S
H423 C442 0.951 . S
H424 C444 0.950 . S
H425 C445 0.950 . S
H426 C447 0.950 . S
H427 C450 0.950 . S
H428 C451 0.950 . S
H429 C453 0.950 . S
H430 C454 0.950 . S
H431 C455 0.951 . S
H432 C457 0.951 . S
H433 C459 0.950 . S
H434 C460 0.950 . S
H435 C462 0.950 1_565 S
H436 C465 0.950 . S
H437 C466 0.950 . S
H438 C468 0.950 . S
H439 C469 0.950 . S
C440 H422 0.951 . S
C440 C441 1.366 . S
C440 C442 1.388 . S
C441 C440 1.366 . S
C441 C445 1.385 . S
C442 H423 0.951 . S
C442 C440 1.388 . S
C442 C443 1.366 . S
C443 C442 1.366 . S
C443 C444 1.414 . S
C443 C446 1.499 . S
C444 H424 0.950 . S
C444 C443 1.414 . S
C444 C445 1.374 . S
C445 H425 0.950 . S
C445 C441 1.385 . S
C445 C444 1.374 . S
C446 C443 1.499 . S
C446 C447 1.373 . S
C446 C448 1.391 . S
C447 H426 0.950 . S
C447 C446 1.373 . S
C447 C463 1.377 . S
C448 C446 1.391 . S
C448 C449 1.523 1_545 S
C448 C462 1.377 . S
C449 C448 1.523 1_565 S
C449 C450 1.397 . S
C449 C454 1.363 . S
C450 H427 0.950 . S
C450 C449 1.397 . S
C450 C451 1.334 . S
C451 H428 0.950 . S
C451 C450 1.334 . S
C451 C452 1.287 . S
C452 C451 1.287 . S
C452 C453 1.524 . S
C452 H471 0.913 . S
C453 H429 0.950 . S
C453 C452 1.524 . S
C453 C454 1.415 . S
C454 H430 0.950 . S
C454 C449 1.363 . S
C454 C453 1.415 . S
C455 H431 0.951 . S
C455 C456 1.366 . S
C455 C457 1.388 . S
C456 C455 1.366 . S
C456 C460 1.385 . S
C457 H432 0.951 . S
C457 C455 1.388 . S
C457 C458 1.366 . S
C458 C457 1.366 . S
C458 C459 1.414 . S
C458 C461 1.499 . S
C459 H433 0.950 . S
C459 C458 1.414 . S
C459 C460 1.374 . S
C460 H434 0.950 . S
C460 C456 1.385 . S
C460 C459 1.374 . S
C461 C458 1.499 . S
C461 C462 1.373 . S
C461 C463 1.389 . S
C462 H435 0.950 1_545 S
C462 C448 1.377 . S
C462 C461 1.373 . S
C463 C447 1.377 . S
C463 C461 1.389 . S
C463 C464 1.524 . S
C464 C463 1.524 . S
C464 C465 1.397 . S
C464 C469 1.363 . S
C465 H436 0.950 . S
C465 C464 1.397 . S
C465 C466 1.334 . S
C466 H437 0.950 . S
C466 C465 1.334 . S
C466 C467 1.287 . S
C467 C466 1.287 . S
C467 C468 1.524 . S
C467 H470 0.999 . S
C468 H438 0.950 . S
C468 C467 1.524 . S
C468 C469 1.415 . S
C469 H439 0.950 . S
C469 C464 1.363 . S
C469 C468 1.415 . S
H470 C467 0.999 . S
H471 C452 0.913 . S
H472 C490 0.951 1_655 S
H473 C492 0.951 1_655 S
H474 C494 0.950 . S
H475 C495 0.950 . S
H476 C497 0.950 . S
H477 C500 0.950 . S
H478 C501 0.950 . S
H479 C503 0.950 . S
H480 C504 0.950 . S
H481 C505 0.951 . S
H482 C507 0.951 . S
H483 C509 0.950 1_655 S
H484 C510 0.950 1_655 S
H485 C512 0.950 . S
H486 C515 0.950 . S
H487 C516 0.950 . S
H488 C518 0.950 . S
H489 C519 0.950 . S
C490 H472 0.951 1_455 S
C490 C491 1.366 . S
C490 C492 1.388 . S
C491 C490 1.366 . S
C491 C495 1.385 . S
C492 H473 0.951 1_455 S
C492 C490 1.388 . S
C492 C493 1.366 . S
C493 C492 1.366 . S
C493 C494 1.414 . S
C493 C496 1.499 . S
C494 H474 0.950 . S
C494 C493 1.414 . S
C494 C495 1.374 . S
C495 H475 0.950 . S
C495 C491 1.385 . S
C495 C494 1.374 . S
C496 C493 1.499 . S
C496 C497 1.373 . S
C496 C498 1.389 . S
C497 H476 0.950 . S
C497 C496 1.373 . S
C497 C513 1.377 . S
C498 C496 1.389 . S
C498 C499 1.524 . S
C498 C512 1.377 . S
C499 C498 1.524 . S
C499 C500 1.397 . S
C499 C504 1.363 1_455 S
C500 H477 0.950 . S
C500 C499 1.397 . S
C500 C501 1.334 . S
C501 H478 0.950 . S
C501 C500 1.334 . S
C501 C502 1.287 . S
C502 C501 1.287 . S
C502 C503 1.524 1_455 S
C502 H521 0.913 . S
C503 H479 0.950 . S
C503 C502 1.524 1_655 S
C503 C504 1.415 . S
C504 H480 0.950 . S
C504 C499 1.363 1_655 S
C504 C503 1.415 . S
C505 H481 0.951 . S
C505 C506 1.366 . S
C505 C507 1.388 . S
C506 C505 1.366 . S
C506 C510 1.385 . S
C507 H482 0.951 . S
C507 C505 1.388 . S
C507 C508 1.366 . S
C508 C507 1.366 . S
C508 C509 1.414 . S
C508 C511 1.499 . S
C509 H483 0.950 1_455 S
C509 C508 1.414 . S
C509 C510 1.374 . S
C510 H484 0.950 1_455 S
C510 C506 1.385 . S
C510 C509 1.374 . S
C511 C508 1.499 . S
C511 C512 1.373 . S
C511 C513 1.389 . S
C512 H485 0.950 . S
C512 C498 1.377 . S
C512 C511 1.373 . S
C513 C497 1.377 . S
C513 C511 1.389 . S
C513 C514 1.524 . S
C514 C513 1.524 . S
C514 C515 1.397 . S
C514 C519 1.363 . S
C515 H486 0.950 . S
C515 C514 1.397 . S
C515 C516 1.334 . S
C516 H487 0.950 . S
C516 C515 1.334 . S
C516 C517 1.287 . S
C517 C516 1.287 . S
C517 C518 1.524 . S
C517 H520 0.999 . S
C518 H488 0.950 . S
C518 C517 1.524 . S
C518 C519 1.415 . S
C519 H489 0.950 . S
C519 C514 1.363 . S
C519 C518 1.415 . S
H520 C517 0.999 . S
H521 C502 0.913 . S
H522 C540 0.951 . S
H523 C542 0.951 . S
H524 C544 0.950 . S
H525 C545 0.950 . S
H526 C547 0.950 1_565 S
H527 C550 0.950 . S
H528 C551 0.950 . S
H529 C553 0.950 . S
H530 C554 0.950 . S
H531 C555 0.951 . S
H532 C557 0.951 . S
H533 C559 0.950 . S
H534 C560 0.950 . S
H535 C562 0.950 . S
H536 C565 0.950 . S
H537 C566 0.950 . S
H538 C568 0.950 . S
H539 C569 0.950 . S
C540 H522 0.951 . S
C540 C541 1.366 . S
C540 C542 1.388 . S
C541 C540 1.366 . S
C541 C545 1.385 . S
C542 H523 0.951 . S
C542 C540 1.388 . S
C542 C543 1.366 . S
C543 C542 1.366 . S
C543 C544 1.414 . S
C543 C546 1.499 . S
C544 H524 0.950 . S
C544 C543 1.414 . S
C544 C545 1.374 . S
C545 H525 0.950 . S
C545 C541 1.385 . S
C545 C544 1.374 . S
C546 C543 1.499 . S
C546 C547 1.373 . S
C546 C548 1.389 . S
C547 H526 0.950 1_545 S
C547 C546 1.373 . S
C547 C563 1.377 . S
C548 C546 1.389 . S
C548 C549 1.524 . S
C548 C562 1.377 . S
C549 C548 1.524 . S
C549 C550 1.397 . S
C549 C554 1.363 . S
C550 H527 0.950 . S
C550 C549 1.397 . S
C550 C551 1.334 . S
C551 H528 0.950 . S
C551 C550 1.334 . S
C551 C552 1.287 . S
C552 C551 1.287 . S
C552 C553 1.524 . S
C552 H571 0.913 . S
C553 H529 0.950 . S
C553 C552 1.524 . S
C553 C554 1.415 . S
C554 H530 0.950 . S
C554 C549 1.363 . S
C554 C553 1.415 . S
C555 H531 0.951 . S
C555 C556 1.366 . S
C555 C557 1.388 . S
C556 C555 1.366 . S
C556 C560 1.385 . S
C557 H532 0.951 . S
C557 C555 1.388 . S
C557 C558 1.366 . S
C558 C557 1.366 . S
C558 C559 1.414 . S
C558 C561 1.499 . S
C559 H533 0.950 . S
C559 C558 1.414 . S
C559 C560 1.374 . S
C560 H534 0.950 . S
C560 C556 1.385 . S
C560 C559 1.374 . S
C561 C558 1.499 . S
C561 C562 1.373 . S
C561 C563 1.389 . S
C562 H535 0.950 . S
C562 C548 1.377 . S
C562 C561 1.373 . S
C563 C547 1.377 . S
C563 C561 1.389 . S
C563 C564 1.524 1_545 S
C564 C563 1.524 1_565 S
C564 C565 1.397 . S
C564 C569 1.363 . S
C565 H536 0.950 . S
C565 C564 1.397 . S
C565 C566 1.334 . S
C566 H537 0.950 . S
C566 C565 1.334 . S
C566 C567 1.287 . S
C567 C566 1.287 . S
C567 C568 1.524 . S
C567 H570 0.999 . S
C568 H538 0.950 . S
C568 C567 1.524 . S
C568 C569 1.415 . S
C569 H539 0.950 . S
C569 C564 1.363 . S
C569 C568 1.415 . S
H570 C567 0.999 . S
H571 C552 0.913 . S
H572 C590 0.951 . S
H573 C592 0.951 . S
H574 C594 0.950 . S
H575 C595 0.950 . S
H576 C597 0.950 . S
H577 C600 0.950 . S
H578 C601 0.950 . S
H579 C603 0.950 . S
H580 C604 0.950 . S
H581 C605 0.951 . S
H582 C607 0.951 . S
H583 C609 0.950 . S
H584 C610 0.950 . S
H585 C612 0.950 . S
H586 C615 0.950 . S
H587 C616 0.950 . S
H588 C618 0.950 . S
H589 C619 0.959 . S
C590 H572 0.951 . S
C590 C591 1.366 . S
C590 C592 1.388 . S
C591 C590 1.366 . S
C591 C595 1.385 . S
C592 H573 0.951 . S
C592 C590 1.388 . S
C592 C593 1.366 . S
C593 C592 1.366 . S
C593 C594 1.414 . S
C593 C596 1.499 . S
C594 H574 0.950 . S
C594 C593 1.414 . S
C594 C595 1.374 . S
C595 H575 0.950 . S
C595 C591 1.385 . S
C595 C594 1.374 . S
C596 C593 1.499 . S
C596 C597 1.373 . S
C596 C598 1.389 . S
C597 H576 0.950 . S
C597 C596 1.373 . S
C597 C613 1.377 . S
C598 C596 1.389 . S
C598 C599 1.524 . S
C598 C612 1.377 . S
C599 C598 1.524 . S
C599 C600 1.397 . S
C599 C604 1.363 . S
C600 H577 0.950 . S
C600 C599 1.397 . S
C600 C601 1.334 . S
C601 H578 0.950 . S
C601 C600 1.334 . S
C601 C602 1.287 . S
C602 C601 1.287 . S
C602 C603 1.524 . S
C602 H621 0.913 . S
C603 H579 0.950 . S
C603 C602 1.524 . S
C603 C604 1.415 . S
C604 H580 0.950 . S
C604 C599 1.363 . S
C604 C603 1.415 . S
C605 H581 0.951 . S
C605 C606 1.366 . S
C605 C607 1.388 . S
C606 C605 1.366 . S
C606 C610 1.385 . S
C607 H582 0.951 . S
C607 C605 1.388 . S
C607 C608 1.366 . S
C608 C607 1.366 . S
C608 C609 1.414 . S
C608 C611 1.499 . S
C609 H583 0.950 . S
C609 C608 1.414 . S
C609 C610 1.374 . S
C610 H584 0.950 . S
C610 C606 1.385 . S
C610 C609 1.374 . S
C611 C608 1.499 . S
C611 C612 1.373 . S
C611 C613 1.389 . S
C612 H585 0.950 . S
C612 C598 1.377 . S
C612 C611 1.373 . S
C613 C597 1.377 . S
C613 C611 1.389 . S
C613 C614 1.524 1_455 S
C614 C613 1.524 1_655 S
C614 C615 1.397 . S
C614 C619 1.361 1_655 S
C615 H586 0.950 . S
C615 C614 1.397 . S
C615 C616 1.334 . S
C616 H587 0.950 . S
C616 C615 1.334 . S
C616 C617 1.287 . S
C617 C616 1.287 . S
C617 C618 1.524 . S
C617 H620 0.999 . S
C618 H588 0.950 . S
C618 C617 1.524 . S
C618 C619 1.408 1_655 S
C619 H589 0.959 . S
C619 C614 1.361 1_455 S
C619 C618 1.408 1_455 S
H620 C617 0.999 . S
H621 C602 0.913 . S
C256 C95 1.452 . S
C241 N12 1.418 . S
C306 C183 1.497 . S
C291 N25 1.465 . S
C356 C103 1.434 . S
C341 C16 1.430 . S
C406 C191 1.486 . S
C391 C30 1.486 . S
C456 C163 1.486 . S
C441 C7 1.486 . S
C506 C66 1.434 . S
C491 C39 1.429 . S
C556 C154 1.497 . S
C541 N2 1.466 . S
C591 N35 1.419 . S
C606 C75 1.452 . S
