# Generated by pormake.
# Topology pth, (4,4)-cn, num edge types: 1
# Building blocks:
#     Node 0, Type 0, BuildingBlock: GALJAG_clean_sbu_0, # of connection points: 4
#     Node 1, Type 0, BuildingBlock: GALJAG_clean_sbu_0, # of connection points: 4
#     Node 2, Type 0, BuildingBlock: GALJAG_clean_sbu_0, # of connection points: 4
#     Node 3, Type 1, BuildingBlock: MUDLON_clean_sbu_0, # of connection points: 4
#     Node 4, Type 1, BuildingBlock: MUDLON_clean_sbu_0, # of connection points: 4
#     Node 5, Type 1, BuildingBlock: MUDLON_clean_sbu_0, # of connection points: 4
#     Edge 6, Type (0, 1), BuildingBlock: XUDNAN_clean_linker_2, # of connection points: 2
#     Edge 7, Type (0, 1), BuildingBlock: XUDNAN_clean_linker_2, # of connection points: 2
#     Edge 8, Type (0, 1), BuildingBlock: XUDNAN_clean_linker_2, # of connection points: 2
#     Edge 9, Type (0, 1), BuildingBlock: XUDNAN_clean_linker_2, # of connection points: 2
#     Edge 10, Type (0, 1), BuildingBlock: XUDNAN_clean_linker_2, # of connection points: 2
#     Edge 11, Type (0, 1), BuildingBlock: XUDNAN_clean_linker_2, # of connection points: 2
#     Edge 12, Type (0, 1), BuildingBlock: XUDNAN_clean_linker_2, # of connection points: 2
#     Edge 13, Type (0, 1), BuildingBlock: XUDNAN_clean_linker_2, # of connection points: 2
#     Edge 14, Type (0, 1), BuildingBlock: XUDNAN_clean_linker_2, # of connection points: 2
#     Edge 15, Type (0, 1), BuildingBlock: XUDNAN_clean_linker_2, # of connection points: 2
#     Edge 16, Type (0, 1), BuildingBlock: XUDNAN_clean_linker_2, # of connection points: 2
#     Edge 17, Type (0, 1), BuildingBlock: XUDNAN_clean_linker_2, # of connection points: 2
# Relax obj value: 0.043
# Max RMSD: 0.088
# Mean RMSD: 0.080
data_MOF--net-pth--node1-GALJAG_clean_sbu_0--node2-MUDLON_clean_sbu_0--edge1-XUDNAN_clean_linker_2
_symmetry_space_group_name_H-M    P1
_symmetry_Int_Tables_number       1
_symmetry_cell_setting            triclinic
loop_
_symmetry_equiv_pos_as_xyz
'x, y, z'
_cell_length_a     23.150836
_cell_length_b     23.108128
_cell_length_c     58.315537
_cell_angle_alpha  89.995391
_cell_angle_beta   90.329101
_cell_angle_gamma 119.92444
loop_
_atom_site_label
_atom_site_type_symbol
_atom_site_fract_x
_atom_site_fract_y
_atom_site_fract_z
_atom_type_partial_charge
In0 In 0.04428 0.0109 0.09211 0.0
O1 O 0.97884 0.02131 0.1198 0.0
O2 O 0.0405 0.10554 0.09914 0.0
C3 C 0.95279 0.8999 0.06917 0.0
C4 C 0.12235 0.10061 0.06011 0.0
C5 C 0.10289 0.9667 0.12275 0.0
O6 O 0.93711 0.93877 0.079 0.0
O7 O 0.01309 0.91642 0.07139 0.0
O8 O 0.10354 0.95877 0.10141 0.0
O9 O 0.07586 1.00004 0.12869 0.0
C10 C 0.9989 0.08195 0.11519 0.0
O11 O 0.14639 0.09201 0.07849 0.0
O12 O 0.06032 0.06306 0.05785 0.0
In13 In 0.97069 0.98275 0.42412 0.0
O14 O 0.05091 0.08978 0.41359 0.0
O15 O 0.95844 0.04271 0.39573 0.0
C16 C 0.03339 0.95563 0.4583 0.0
C17 C 0.87241 0.9934 0.44511 0.0
C18 C 0.95531 0.88641 0.39401 0.0
O19 O 0.06419 1.00462 0.44492 0.0
O20 O 0.97138 0.92173 0.45471 0.0
O21 O 0.90792 0.88118 0.40611 0.0
O22 O 1.00971 0.93985 0.39708 0.0
C23 C 0.01489 0.09405 0.39805 0.0
O24 O 0.86234 0.95607 0.42796 0.0
O25 O 0.932 0.0242 0.45224 0.0
In26 In 1.0076 0.05533 0.75162 0.0
O27 O 0.95295 0.95306 0.76946 0.0
O28 O 0.93075 0.029 0.77914 0.0
C29 C 0.09495 0.05983 0.72051 0.0
C30 C 0.91344 0.05033 0.72315 0.0
C31 C 0.10263 0.1439 0.78008 0.0
O32 O 0.0639 0.0098 0.73363 0.0
O33 O 0.08076 0.10557 0.72308 0.0
O34 O 0.07414 0.16169 0.76533 0.0
O35 O 0.08165 0.08195 0.78082 0.0
C36 C 0.9188 0.96983 0.78191 0.0
O37 O 0.94098 0.0954 0.73836 0.0
O38 O 0.93457 0.00949 0.72208 0.0
Mg39 Mg 0.04023 0.51616 0.25355 0.0
C40 C 0.03841 0.43677 0.29275 0.0
O41 O 0.97723 0.42584 0.29055 0.0
C42 C 0.10148 0.61696 0.2151 0.0
O43 O 0.06291 0.56333 0.20294 0.0
C44 C 0.98388 0.3814 0.22873 0.0
O45 O 1.00102 0.36477 0.24805 0.0
O46 O 0.99047 0.43938 0.22688 0.0
O47 O 0.08254 0.47769 0.27903 0.0
O48 O 0.97949 0.54553 0.27358 0.0
C49 C 0.01736 0.5963 0.28584 0.0
O50 O 0.08203 0.62009 0.28479 0.0
O51 O 0.10756 0.61075 0.23655 0.0
Mg52 Mg 0.47963 0.99996 0.58177 0.0
C53 C 0.33163 0.91158 0.56836 0.0
O54 O 0.3217 0.90796 0.59058 0.0
C55 C 0.57244 0.96152 0.60633 0.0
O56 O 0.60458 0.97918 0.5868 0.0
C57 C 0.42018 0.03012 0.62083 0.0
O58 O 0.42 0.97506 0.62654 0.0
O59 O 0.44812 0.05878 0.60212 0.0
O60 O 0.39094 0.93842 0.56086 0.0
O61 O 0.56117 0.04893 0.55729 0.0
C62 C 0.54701 0.04725 0.5361 0.0
O63 O 0.48521 0.02823 0.53022 0.0
O64 O 0.51526 0.95652 0.60761 0.0
Mg65 Mg 0.5355 0.52001 0.92059 0.0
C66 C 0.45367 0.38997 0.89431 0.0
O67 O 0.42314 0.36969 0.91405 0.0
C68 C 0.62486 0.59684 0.95666 0.0
O69 O 0.58004 0.61554 0.95431 0.0
C70 C 0.45219 0.44851 0.96004 0.0
O71 O 0.50706 0.44585 0.96313 0.0
O72 O 0.44887 0.48144 0.94303 0.0
O73 O 0.50781 0.44566 0.89342 0.0
O74 O 0.56771 0.61041 0.9005 0.0
C75 C 0.61463 0.61793 0.88726 0.0
O76 O 0.63306 0.57257 0.88774 0.0
O77 O 0.62085 0.55091 0.94349 0.0
H78 H 0.96713 0.07485 0.16081 0.0
H79 H 0.99048 0.18725 0.0987 0.0
H80 H 0.97243 0.26823 0.12062 0.0
H81 H 0.84338 0.11027 0.1898 0.0
H82 H 0.8819 0.11891 0.21749 0.0
H83 H 0.88404 0.06298 0.19639 0.0
H84 H 0.01282 0.12379 0.19972 0.0
H85 H 0.01105 0.1798 0.22073 0.0
H86 H 0.06027 0.21273 0.19519 0.0
H87 H 0.96403 0.34338 0.14963 0.0
H88 H 0.97323 0.41063 0.1838 0.0
H89 H 0.96065 0.25279 0.22756 0.0
C90 C 0.96609 0.11527 0.15178 0.0
C91 C 0.97897 0.12429 0.12803 0.0
C92 C 0.97995 0.17918 0.11687 0.0
C93 C 0.96951 0.22527 0.12916 0.0
C94 C 0.95863 0.21615 0.15268 0.0
C95 C 0.95699 0.16259 0.16393 0.0
C96 C 0.95259 0.16889 0.18967 0.0
C97 C 0.88654 0.11187 0.19888 0.0
C98 C 0.01277 0.17149 0.20204 0.0
C99 C 0.95438 0.23533 0.19114 0.0
C100 C 0.95629 0.26099 0.16959 0.0
C101 C 0.9617 0.32341 0.16661 0.0
C102 C 0.96683 0.36128 0.18614 0.0
C103 C 0.96756 0.33709 0.2084 0.0
C104 C 0.95976 0.27259 0.21081 0.0
H105 H 0.86433 0.03402 0.48884 0.0
H106 H 0.76049 0.97529 0.42341 0.0
H107 H 0.67229 0.99451 0.43875 0.0
H108 H 0.71696 0.95122 0.52291 0.0
H109 H 0.74733 0.01393 0.54515 0.0
H110 H 0.80521 1.00103 0.5285 0.0
H111 H 0.86742 0.12617 0.51736 0.0
H112 H 0.80923 0.13925 0.53382 0.0
H113 H 0.82195 0.16172 0.50392 0.0
H114 H 0.59514 0.01876 0.46091 0.0
H115 H 0.52571 0.03206 0.48987 0.0
H116 H 0.67501 0.06897 0.54206 0.0
C117 C 0.8232 0.02574 0.47775 0.0
C118 C 0.81933 1.00359 0.45489 0.0
C119 C 0.7643 0.99215 0.44098 0.0
C120 C 0.71425 1.00342 0.44948 0.0
C121 C 0.71946 0.02538 0.47204 0.0
C122 C 0.7719 0.03546 0.48614 0.0
C123 C 0.76251 0.05407 0.51026 0.0
C124 C 0.75769 1.00195 0.52773 0.0
C125 C 0.81863 0.1245 0.51671 0.0
C126 C 0.69634 0.05222 0.50752 0.0
C127 C 0.6732 0.0368 0.4852 0.0
C128 C 0.6127 0.03088 0.47845 0.0
C129 C 0.57367 0.03876 0.49506 0.0
C130 C 0.59466 0.05151 0.51831 0.0
C131 C 0.65767 0.05978 0.52443 0.0
H132 H 0.88672 0.84187 0.79417 0.0
H133 H 0.83487 0.99541 0.80685 0.0
H134 H 0.74888 0.92144 0.83423 0.0
H135 H 0.71905 0.7007 0.79748 0.0
H136 H 0.74451 0.6479 0.81185 0.0
H137 H 0.80111 0.71242 0.79277 0.0
H138 H 0.8896 0.76221 0.82528 0.0
H139 H 0.83334 0.69776 0.84442 0.0
H140 H 0.86792 0.78433 0.85224 0.0
H141 H 0.66842 0.83059 0.86074 0.0
H142 H 0.603 0.73098 0.88504 0.0
H143 H 0.7083 0.63802 0.85525 0.0
C144 C 0.85713 0.85978 0.80267 0.0
C145 C 0.86754 0.92441 0.79834 0.0
C146 C 0.82792 0.9461 0.80989 0.0
C147 C 0.77876 0.9044 0.82546 0.0
C148 C 0.76969 0.84101 0.82938 0.0
C149 C 0.80789 0.81882 0.81837 0.0
C150 C 0.78907 0.74903 0.82605 0.0
C151 C 0.76181 0.6996 0.80583 0.0
C152 C 0.84852 0.74833 0.83769 0.0
C153 C 0.73474 0.73574 0.84313 0.0
C154 C 0.72392 0.78915 0.84475 0.0
C155 C 0.67639 0.78835 0.8596 0.0
C156 C 0.63937 0.73159 0.8733 0.0
C157 C 0.65045 0.67671 0.8721 0.0
C158 C 0.69852 0.67907 0.85665 0.0
H159 H 0.11187 0.85493 0.11539 0.0
H160 H 0.13546 0.99739 0.16811 0.0
H161 H 0.15513 0.93034 0.19698 0.0
H162 H 0.01629 0.71527 0.14807 0.0
H163 H 0.0494 0.66549 0.13653 0.0
H164 H 0.05015 0.73071 0.11951 0.0
H165 H 0.17778 0.78457 0.11425 0.0
H166 H 0.17742 0.71928 0.13129 0.0
H167 H 0.23115 0.80553 0.13914 0.0
H168 H 0.16121 0.84173 0.22068 0.0
H169 H 0.14339 0.73601 0.23755 0.0
H170 H 0.10914 0.64851 0.16951 0.0
C171 C 0.12343 0.87317 0.13287 0.0
C172 C 0.12351 0.93205 0.13947 0.0
C173 C 0.13614 0.95292 0.16267 0.0
C174 C 0.14753 0.91522 0.17914 0.0
C175 C 0.14559 0.85647 0.17218 0.0
C176 C 0.13356 0.83545 0.14957 0.0
C177 C 0.12555 0.76655 0.14695 0.0
C178 C 0.05624 0.71659 0.1372 0.0
C179 C 0.18131 0.76917 0.13202 0.0
C180 C 0.13296 0.75111 0.17169 0.0
C181 C 0.14611 0.80419 0.18592 0.0
C182 C 0.15168 0.80021 0.20964 0.0
C183 C 0.14171 0.73992 0.21907 0.0
C184 C 0.12508 0.6839 0.20487 0.0
C185 C 0.12232 0.6905 0.18083 0.0
H186 H 0.16769 1.00236 0.46391 0.0
H187 H 0.97469 0.86777 0.49343 0.0
H188 H 0.0293 0.8358 0.52339 0.0
H189 H 0.23961 0.89588 0.47389 0.0
H190 H 0.32138 0.96464 0.48054 0.0
H191 H 0.26722 0.97661 0.46121 0.0
H192 H 0.27791 0.07364 0.48657 0.0
H193 H 0.33254 0.06234 0.50581 0.0
H194 H 0.25836 0.05939 0.51665 0.0
H195 H 0.10553 0.82325 0.55148 0.0
H196 H 0.19782 0.83079 0.57532 0.0
H197 H 0.34053 0.96827 0.52628 0.0
C198 C 0.13698 0.96622 0.4767 0.0
C199 C 0.06692 0.93775 0.4764 0.0
C200 C 0.02843 0.89025 0.49333 0.0
C201 C 0.05899 0.87166 0.5104 0.0
C202 C 0.1281 0.90035 0.51016 0.0
C203 C 0.16664 0.9464 0.4937 0.0
C204 C 0.24 0.9701 0.49743 0.0
C205 C 0.26873 0.95062 0.47705 0.0
C206 C 0.27951 0.04585 0.50188 0.0
C207 C 0.23676 0.93106 0.51875 0.0
C208 C 0.17175 0.89111 0.52584 0.0
C209 C 0.15657 0.85361 0.54592 0.0
C210 C 0.20926 0.85806 0.55933 0.0
C211 C 0.27628 0.89914 0.5525 0.0
C212 C 0.28982 0.93504 0.53169 0.0
H213 H 0.13938 0.12205 0.82234 0.0
H214 H 0.19542 0.27246 0.76953 0.0
H215 H 0.29768 0.34805 0.79154 0.0
H216 H 0.19312 0.23826 0.86977 0.0
H217 H 0.22053 0.19138 0.88687 0.0
H218 H 0.15398 0.14898 0.86634 0.0
H219 H 0.21974 0.09832 0.8473 0.0
H220 H 0.28706 0.1416 0.86754 0.0
H221 H 0.30313 0.15302 0.8372 0.0
H222 H 0.39602 0.40503 0.81873 0.0
H223 H 0.47243 0.44785 0.85201 0.0
H224 H 0.34762 0.26325 0.88847 0.0
C225 C 0.17315 0.17104 0.81548 0.0
C226 C 0.15991 0.19155 0.79422 0.0
C227 C 0.20466 0.25612 0.78585 0.0
C228 C 0.26308 0.29901 0.79812 0.0
C229 C 0.2753 0.27684 0.81888 0.0
C230 C 0.2308 0.21496 0.82774 0.0
C231 C 0.25333 0.20484 0.85112 0.0
C232 C 0.20221 0.19534 0.86962 0.0
C233 C 0.2666 0.14595 0.85075 0.0
C234 C 0.31752 0.27072 0.85405 0.0
C235 C 0.33003 0.31096 0.83505 0.0
C236 C 0.38653 0.37407 0.83374 0.0
C237 C 0.43 0.39774 0.85269 0.0
C238 C 0.41607 0.3589 0.87288 0.0
C239 C 0.35976 0.294 0.87327 0.0
H240 H 0.88402 1.00282 0.67925 0.0
H241 H 0.81604 0.07848 0.73469 0.0
H242 H 0.71578 0.05431 0.71186 0.0
H243 H 0.83289 0.07499 0.63395 0.0
H244 H 0.8103 1.00625 0.61449 0.0
H245 H 0.87448 0.02674 0.63572 0.0
H246 H 0.80994 0.90534 0.65087 0.0
H247 H 0.74499 0.88479 0.62992 0.0
H248 H 0.72476 0.87111 0.65995 0.0
H249 H 0.62059 0.01668 0.68363 0.0
H250 H 0.5476 0.98872 0.6496 0.0
H251 H 0.68265 0.94687 0.61112 0.0
C252 C 0.84802 0.01445 0.6865 0.0
C253 C 0.85726 0.04217 0.70872 0.0
C254 C 0.80979 0.05754 0.71763 0.0
C255 C 0.75252 0.04339 0.70488 0.0
C256 C 0.74429 0.01506 0.68313 0.0
C257 C 0.79154 1.00229 0.67378 0.0
C258 C 0.77304 0.97607 0.64944 0.0
C259 C 0.8258 0.02388 0.6324 0.0
C260 C 0.76256 0.90511 0.64744 0.0
C261 C 0.70786 0.9759 0.64655 0.0
C262 C 0.69147 0.99715 0.66637 0.0
C263 C 0.63315 1.0004 0.66798 0.0
C264 C 0.59168 0.98383 0.64858 0.0
C265 C 0.60939 0.96557 0.62767 0.0
C266 C 0.66772 0.9605 0.62686 0.0
H267 H 0.82864 0.86884 0.05314 0.0
H268 H 0.97404 0.80264 0.05182 0.0
H269 H 0.90324 0.71317 0.02447 0.0
H270 H 0.67906 0.70234 0.04776 0.0
H271 H 0.63683 0.73247 0.02944 0.0
H272 H 0.69606 0.78713 0.05057 0.0
H273 H 0.76206 0.87289 0.01874 0.0
H274 H 0.70334 0.81839 0.99752 0.0
H275 H 0.79087 0.84686 0.99429 0.0
H276 H 0.81981 0.6354 0.99496 0.0
H277 H 0.72982 0.57566 0.96621 0.0
H278 H 0.64055 0.69394 0.9868 0.0
C279 C 0.84485 0.83463 0.04746 0.0
C280 C 0.9066 0.84242 0.05471 0.0
C281 C 0.92674 0.79744 0.04654 0.0
C282 C 0.88685 0.74639 0.03101 0.0
C283 C 0.82687 0.74086 0.02378 0.0
C284 C 0.80578 0.78358 0.03183 0.0
C285 C 0.74112 0.76937 0.02041 0.0
C286 C 0.68494 0.74645 0.0381 0.0
C287 C 0.74992 0.83051 1.00694 0.0
C288 C 0.72976 0.71283 1.00447 0.0
C289 C 0.7794 0.69666 1.00673 0.0
C290 C 0.78032 0.64726 0.99318 0.0
C291 C 0.72913 0.61366 0.97688 0.0
C292 C 0.67808 0.62995 0.97423 0.0
C293 C 0.67861 0.67996 0.98838 0.0
H294 H 0.05455 0.88353 0.37003 0.0
H295 H 0.84118 0.77136 0.38123 0.0
H296 H 0.83169 0.68464 0.35395 0.0
H297 H 0.05102 0.84818 0.30984 0.0
H298 H 0.12544 0.84181 0.31124 0.0
H299 H 0.11419 0.89493 0.33113 0.0
H300 H 0.13082 0.8325 0.36521 0.0
H301 H 0.14219 0.77926 0.34543 0.0
H302 H 0.07902 0.74308 0.36719 0.0
H303 H 0.84722 0.60958 0.3249 0.0
H304 H 0.88689 0.55289 0.29836 0.0
H305 H 0.08971 0.71544 0.30771 0.0
C306 C 1.0057 0.8409 0.3667 0.0
C307 C 0.94855 0.83426 0.37768 0.0
C308 C 0.88564 0.77744 0.37297 0.0
C309 C 0.87979 0.72802 0.35748 0.0
C310 C 0.93736 0.73615 0.34695 0.0
C311 C 0.9991 0.79121 0.35148 0.0
C312 C 0.05372 0.788 0.33849 0.0
C313 C 0.08809 0.84671 0.32168 0.0
C314 C 0.1044 0.78554 0.35507 0.0
C315 C 0.01333 0.72247 0.32593 0.0
C316 C 0.94625 0.69317 0.33082 0.0
C317 C 0.89971 0.63218 0.32099 0.0
C318 C 0.92259 0.60037 0.30592 0.0
C319 C 0.99137 0.6295 0.30101 0.0
C320 C 0.03681 0.69146 0.31115 0.0
H321 H 0.14997 0.97895 0.71488 0.0
H322 H 0.15472 0.15653 0.68813 0.0
H323 H 0.24143 0.17137 0.66057 0.0
H324 H 0.32681 0.04113 0.71084 0.0
H325 H 0.31725 0.96173 0.70245 0.0
H326 H 0.2551 0.96468 0.72007 0.0
H327 H 0.16344 0.89164 0.69044 0.0
H328 H 0.22524 0.88807 0.67284 0.0
H329 H 0.17291 0.91788 0.66092 0.0
H330 H 0.32691 0.16589 0.63523 0.0
H331 H 0.40288 0.13873 0.61401 0.0
H332 H 0.34419 0.96719 0.65817 0.0
C333 C 0.1691 0.02076 0.70316 0.0
C334 C 0.14545 0.06645 0.70363 0.0
C335 C 0.17206 0.12081 0.6881 0.0
C336 C 0.22144 0.1298 0.67238 0.0
C337 C 0.24412 0.08423 0.67245 0.0
C338 C 0.21884 0.03078 0.68743 0.0
C339 C 0.25176 0.989 0.68394 0.0
C340 C 0.29 0.98918 0.70562 0.0
C341 C 0.20026 0.91742 0.67659 0.0
C342 C 0.29898 0.02699 0.66458 0.0
C343 C 0.29399 0.08181 0.65817 0.0
C344 C 0.33154 0.12326 0.64019 0.0
C345 C 0.37467 0.10761 0.62827 0.0
C346 C 0.3799 0.05115 0.63446 0.0
C347 C 0.34197 0.0111 0.65306 0.0
H348 H 0.25882 0.18036 0.05777 0.0
H349 H 0.07454 0.14071 0.0244 0.0
H350 H 0.13827 0.23126 0.99684 0.0
H351 H 0.34697 0.36028 0.05114 0.0
H352 H 0.42588 0.36569 0.04528 0.0
H353 H 0.36574 0.2995 0.06307 0.0
H354 H 0.36877 0.21141 0.03635 0.0
H355 H 0.42935 0.27733 0.01863 0.0
H356 H 0.3529 0.21258 1.0061 0.0
H357 H 0.22231 0.32597 0.97254 0.0
H358 H 0.32101 0.41063 0.95147 0.0
H359 H 0.45001 0.38666 1.00016 0.0
C360 C 0.23196 0.1909 0.04469 0.0
C361 C 0.16174 0.1536 0.04327 0.0
C362 C 0.12838 0.16855 0.0258 0.0
C363 C 0.16409 0.22017 1.01013 0.0
C364 C 0.23325 0.2563 1.01205 0.0
C365 C 0.26692 0.24195 0.02875 0.0
C366 C 0.34159 0.28626 0.02638 0.0
C367 C 0.3718 0.33056 0.04774 0.0
C368 C 0.3751 0.24439 0.02157 0.0
C369 C 0.34457 0.32731 1.00569 0.0
C370 C 0.28159 0.30989 0.99781 0.0
C371 C 0.27194 0.3402 0.9786 0.0
C372 C 0.32824 0.38848 0.9668 0.0
C373 C 0.39317 0.40535 0.97416 0.0
C374 C 0.40105 0.37502 0.9941 0.0
H375 H 0.93351 0.12258 0.37286 0.0
H376 H 0.14125 0.20118 0.39114 0.0
H377 H 0.17225 0.2993 0.36606 0.0
H378 H 0.95683 0.17212 0.31434 0.0
H379 H 0.89126 0.19267 0.31423 0.0
H380 H 0.88704 0.12968 0.33342 0.0
H381 H 0.87595 0.19388 0.36803 0.0
H382 H 0.88004 0.25702 0.34894 0.0
H383 H 0.93806 0.2802 0.37256 0.0
H384 H 0.17901 0.3874 0.33691 0.0
H385 H 0.15998 0.45848 0.30937 0.0
H386 H 0.94703 0.32149 0.31294 0.0
C387 C 0.98564 0.16033 0.37161 0.0
C388 C 0.0351 0.15414 0.3838 0.0
C389 C 0.10261 0.20504 0.3819 0.0
C390 C 0.12058 0.26077 0.36767 0.0
C391 C 0.0703 0.26504 0.35574 0.0
C392 C 1.00413 0.21624 0.35785 0.0
C393 C 0.95893 0.23228 0.34379 0.0
C394 C 0.92133 0.1785 0.32535 0.0
C395 C 0.91041 0.2414 0.35926 0.0
C396 C 1.00977 0.29761 0.33321 0.0
C397 C 0.0739 0.31586 0.34005 0.0
C398 C 0.12886 0.37369 0.33166 0.0
C399 C 0.11768 0.4137 0.31601 0.0
C400 C 0.05204 0.39598 0.30919 0.0
C401 C 0.99782 0.33715 0.31802 0.0
loop_
_geom_bond_atom_site_label_1
_geom_bond_atom_site_label_2
_geom_bond_distance
_geom_bond_site_symmetry_2
_ccdc_geom_bond_type
In0 O1 2.294 1_455 S
In0 O2 2.326 . S
In0 O6 2.266 1_445 S
In0 O7 2.326 1_445 S
In0 O8 2.266 1_545 S
In0 O9 2.326 1_445 S
In0 O11 2.294 . S
In0 O12 2.326 . S
O1 In0 2.294 1_655 S
O1 C10 1.240 1_655 S
O2 In0 2.326 . S
O2 C10 1.252 . S
C3 O6 1.252 . S
C3 O7 1.260 . S
C4 O11 1.240 . S
C4 O12 1.252 . S
C5 O8 1.245 1_655 S
C5 O9 1.271 . S
O6 In0 2.266 1_665 S
O6 C3 1.252 . S
O7 In0 2.326 1_665 S
O7 C3 1.260 . S
O8 In0 2.266 1_565 S
O8 C5 1.245 1_455 S
O9 In0 2.326 1_665 S
O9 C5 1.271 . S
C10 O1 1.240 1_455 S
C10 O2 1.252 . S
O11 In0 2.294 . S
O11 C4 1.240 . S
O12 In0 2.326 . S
O12 C4 1.252 . S
In13 O14 2.294 . S
In13 O15 2.326 1_455 S
In13 O19 2.266 . S
In13 O20 2.326 1_545 S
In13 O21 2.266 1_445 S
In13 O22 2.326 1_545 S
In13 O24 2.294 1_445 S
In13 O25 2.326 1_455 S
O14 In13 2.294 . S
O14 C23 1.240 1_455 S
O15 In13 2.326 1_655 S
O15 C23 1.252 . S
C16 O19 1.252 1_565 S
C16 O20 1.260 . S
C17 O24 1.240 1_545 S
C17 O25 1.252 . S
C18 O21 1.252 1_455 S
C18 O22 1.260 . S
O19 In13 2.266 . S
O19 C16 1.252 1_545 S
O20 In13 2.326 1_565 S
O20 C16 1.260 . S
O21 In13 2.266 1_665 S
O21 C18 1.252 1_655 S
O22 In13 2.326 1_565 S
O22 C18 1.260 . S
C23 O14 1.240 1_655 S
C23 O15 1.252 . S
O24 In13 2.294 1_665 S
O24 C17 1.240 1_565 S
O25 In13 2.326 1_655 S
O25 C17 1.252 . S
In26 O27 2.294 1_445 S
In26 O28 2.326 1_445 S
In26 O32 2.266 1_545 S
In26 O33 2.326 . S
In26 O34 2.266 . S
In26 O35 2.326 . S
In26 O37 2.294 1_455 S
In26 O38 2.326 1_445 S
O27 In26 2.294 1_665 S
O27 C36 1.240 . S
O28 In26 2.326 1_665 S
O28 C36 1.252 . S
C29 O32 1.252 1_545 S
C29 O33 1.260 . S
C30 O37 1.240 1_565 S
C30 O38 1.252 . S
C31 O34 1.252 . S
C31 O35 1.260 . S
O32 In26 2.266 1_565 S
O32 C29 1.252 1_565 S
O33 In26 2.326 . S
O33 C29 1.260 . S
O34 In26 2.266 . S
O34 C31 1.252 . S
O35 In26 2.326 . S
O35 C31 1.260 . S
C36 O27 1.240 . S
C36 O28 1.252 . S
O37 In26 2.294 1_655 S
O37 C30 1.240 1_545 S
O38 In26 2.326 1_665 S
O38 C30 1.252 . S
Mg39 O46 2.141 . S
Mg39 O47 2.048 . S
Mg39 O48 2.048 . S
Mg39 O51 2.141 . S
C40 O41 1.313 . S
C40 O47 1.195 1_655 S
O41 C40 1.313 . S
C42 O43 1.245 . S
C42 O51 1.289 1_655 S
O43 C42 1.245 . S
C44 O45 1.245 . S
C44 O46 1.289 1_655 S
O45 C44 1.245 . S
O46 Mg39 2.141 . S
O46 C44 1.289 1_455 S
O47 Mg39 2.048 . S
O47 C40 1.195 1_455 S
O48 Mg39 2.048 . S
O48 C49 1.195 1_455 S
C49 O48 1.195 1_655 S
C49 O50 1.313 . S
O50 C49 1.313 . S
O51 Mg39 2.141 . S
O51 C42 1.289 1_455 S
Mg52 O59 2.141 . S
Mg52 O60 2.048 . S
Mg52 O61 2.048 . S
Mg52 O64 2.141 . S
C53 O54 1.313 . S
C53 O60 1.195 1_565 S
O54 C53 1.313 . S
C55 O56 1.245 . S
C55 O64 1.289 1_565 S
O56 C55 1.245 . S
C57 O58 1.245 . S
C57 O59 1.289 1_565 S
O58 C57 1.245 . S
O59 Mg52 2.141 . S
O59 C57 1.289 1_545 S
O60 Mg52 2.048 . S
O60 C53 1.195 1_545 S
O61 Mg52 2.048 . S
O61 C62 1.195 1_545 S
C62 O61 1.195 1_565 S
C62 O63 1.313 . S
O63 C62 1.313 . S
O64 Mg52 2.141 . S
O64 C55 1.289 1_545 S
Mg65 O72 2.141 . S
Mg65 O73 2.048 . S
Mg65 O74 2.048 . S
Mg65 O77 2.141 . S
C66 O67 1.313 . S
C66 O73 1.195 . S
O67 C66 1.313 . S
C68 O69 1.245 . S
C68 O77 1.289 . S
O69 C68 1.245 . S
C70 O71 1.245 . S
C70 O72 1.289 . S
O71 C70 1.245 . S
O72 Mg65 2.141 . S
O72 C70 1.289 . S
O73 Mg65 2.048 . S
O73 C66 1.195 . S
O74 Mg65 2.048 . S
O74 C75 1.195 . S
C75 O74 1.195 . S
C75 O76 1.313 . S
O76 C75 1.313 . S
O77 Mg65 2.141 . S
O77 C68 1.289 . S
H78 C90 0.930 . S
H79 C92 0.930 . S
H80 C93 0.930 . S
H81 C97 0.959 . S
H82 C97 0.959 . S
H83 C97 0.961 . S
H84 C98 0.960 . S
H85 C98 0.961 . S
H86 C98 0.959 . S
H87 C101 0.929 . S
H88 C102 0.931 . S
H89 C104 0.930 . S
C90 H78 0.930 . S
C90 C91 1.399 1_655 S
C90 C95 1.399 . S
C91 C90 1.399 1_455 S
C91 C92 1.376 . S
C92 H79 0.930 . S
C92 C91 1.376 . S
C92 C93 1.388 . S
C93 H80 0.930 . S
C93 C92 1.388 . S
C93 C94 1.390 . S
C94 C93 1.390 . S
C94 C95 1.394 1_455 S
C94 C100 1.465 . S
C95 C90 1.399 . S
C95 C94 1.394 1_655 S
C95 C96 1.516 . S
C96 C95 1.516 . S
C96 C97 1.502 . S
C96 C98 1.561 . S
C96 C99 1.526 . S
C97 H81 0.959 . S
C97 H82 0.959 . S
C97 H83 0.961 . S
C97 C96 1.502 . S
C98 H84 0.960 . S
C98 H85 0.961 . S
C98 H86 0.959 . S
C98 C96 1.561 . S
C99 C96 1.526 . S
C99 C100 1.396 1_655 S
C99 C104 1.390 . S
C100 C94 1.465 . S
C100 C99 1.396 1_455 S
C100 C101 1.399 . S
C101 H87 0.929 . S
C101 C100 1.399 . S
C101 C102 1.385 . S
C102 H88 0.931 . S
C102 C101 1.385 . S
C102 C103 1.389 . S
C103 C102 1.389 . S
C103 C104 1.387 1_455 S
C104 H89 0.930 . S
C104 C99 1.390 . S
C104 C103 1.387 1_655 S
H105 C117 0.930 . S
H106 C119 0.930 . S
H107 C120 0.930 . S
H108 C124 0.959 . S
H109 C124 0.959 . S
H110 C124 0.961 . S
H111 C125 0.960 . S
H112 C125 0.961 . S
H113 C125 0.959 . S
H114 C128 0.929 . S
H115 C129 0.931 . S
H116 C131 0.930 . S
C117 H105 0.930 . S
C117 C118 1.399 . S
C117 C122 1.399 . S
C118 C117 1.399 . S
C118 C119 1.376 1_545 S
C119 H106 0.930 . S
C119 C118 1.376 1_565 S
C119 C120 1.388 . S
C120 H107 0.930 . S
C120 C119 1.388 . S
C120 C121 1.390 . S
C121 C120 1.390 . S
C121 C122 1.394 1_565 S
C121 C127 1.465 . S
C122 C117 1.399 . S
C122 C121 1.394 1_545 S
C122 C123 1.516 . S
C123 C122 1.516 . S
C123 C124 1.502 . S
C123 C125 1.561 . S
C123 C126 1.526 . S
C124 H108 0.959 . S
C124 H109 0.959 . S
C124 H110 0.961 . S
C124 C123 1.502 . S
C125 H111 0.960 . S
C125 H112 0.961 . S
C125 H113 0.959 . S
C125 C123 1.561 . S
C126 C123 1.526 . S
C126 C127 1.396 1_545 S
C126 C131 1.390 . S
C127 C121 1.465 . S
C127 C126 1.396 1_565 S
C127 C128 1.399 . S
C128 H114 0.929 . S
C128 C127 1.399 . S
C128 C129 1.385 . S
C129 H115 0.931 . S
C129 C128 1.385 . S
C129 C130 1.389 . S
C130 C129 1.389 . S
C130 C131 1.387 1_565 S
C131 H116 0.930 . S
C131 C126 1.390 . S
C131 C130 1.387 1_545 S
H132 C144 0.930 . S
H133 C146 0.930 . S
H134 C147 0.930 . S
H135 C151 0.959 . S
H136 C151 0.959 . S
H137 C151 0.961 . S
H138 C152 0.960 . S
H139 C152 0.961 . S
H140 C152 0.959 . S
H141 C155 0.929 . S
H142 C156 0.931 . S
H143 C158 0.930 . S
C144 H132 0.930 . S
C144 C145 1.399 . S
C144 C149 1.399 . S
C145 C144 1.399 . S
C145 C146 1.376 . S
C146 H133 0.930 . S
C146 C145 1.376 . S
C146 C147 1.388 . S
C147 H134 0.930 . S
C147 C146 1.388 . S
C147 C148 1.390 . S
C148 C147 1.390 . S
C148 C149 1.394 . S
C148 C154 1.465 . S
C149 C144 1.399 . S
C149 C148 1.394 . S
C149 C150 1.516 . S
C150 C149 1.516 . S
C150 C151 1.502 . S
C150 C152 1.561 . S
C150 C153 1.526 . S
C151 H135 0.959 . S
C151 H136 0.959 . S
C151 H137 0.961 . S
C151 C150 1.502 . S
C152 H138 0.960 . S
C152 H139 0.961 . S
C152 H140 0.959 . S
C152 C150 1.561 . S
C153 C150 1.526 . S
C153 C154 1.396 . S
C153 C158 1.390 . S
C154 C148 1.465 . S
C154 C153 1.396 . S
C154 C155 1.399 . S
C155 H141 0.929 . S
C155 C154 1.399 . S
C155 C156 1.385 . S
C156 H142 0.931 . S
C156 C155 1.385 . S
C156 C157 1.389 . S
C157 C156 1.389 . S
C157 C158 1.387 . S
C158 H143 0.930 . S
C158 C153 1.390 . S
C158 C157 1.387 . S
H159 C171 0.930 . S
H160 C173 0.930 . S
H161 C174 0.930 . S
H162 C178 0.959 . S
H163 C178 0.959 . S
H164 C178 0.961 . S
H165 C179 0.960 . S
H166 C179 0.961 . S
H167 C179 0.959 . S
H168 C182 0.929 . S
H169 C183 0.931 . S
H170 C185 0.930 1_655 S
C171 H159 0.930 . S
C171 C172 1.399 1_655 S
C171 C176 1.399 1_655 S
C172 C171 1.399 1_455 S
C172 C173 1.376 . S
C173 H160 0.930 . S
C173 C172 1.376 . S
C173 C174 1.388 . S
C174 H161 0.930 . S
C174 C173 1.388 . S
C174 C175 1.390 . S
C175 C174 1.390 . S
C175 C176 1.394 . S
C175 C181 1.465 . S
C176 C171 1.399 1_455 S
C176 C175 1.394 . S
C176 C177 1.516 . S
C177 C176 1.516 . S
C177 C178 1.502 1_455 S
C177 C179 1.561 . S
C177 C180 1.526 . S
C178 H162 0.959 . S
C178 H163 0.959 . S
C178 H164 0.961 . S
C178 C177 1.502 1_655 S
C179 H165 0.960 . S
C179 H166 0.961 . S
C179 H167 0.959 . S
C179 C177 1.561 . S
C180 C177 1.526 . S
C180 C181 1.396 . S
C180 C185 1.390 . S
C181 C175 1.465 . S
C181 C180 1.396 . S
C181 C182 1.399 . S
C182 H168 0.929 . S
C182 C181 1.399 . S
C182 C183 1.385 . S
C183 H169 0.931 . S
C183 C182 1.385 . S
C183 C184 1.389 . S
C184 C183 1.389 . S
C184 C185 1.387 . S
C185 H170 0.930 1_455 S
C185 C180 1.390 . S
C185 C184 1.387 . S
H186 C198 0.930 . S
H187 C200 0.930 . S
H188 C201 0.930 . S
H189 C205 0.959 . S
H190 C205 0.959 . S
H191 C205 0.961 . S
H192 C206 0.960 . S
H193 C206 0.961 . S
H194 C206 0.959 . S
H195 C209 0.929 . S
H196 C210 0.931 . S
H197 C212 0.930 . S
C198 H186 0.930 . S
C198 C199 1.399 1_545 S
C198 C203 1.399 . S
C199 C198 1.399 1_565 S
C199 C200 1.376 . S
C200 H187 0.930 . S
C200 C199 1.376 . S
C200 C201 1.388 . S
C201 H188 0.930 . S
C201 C200 1.388 . S
C201 C202 1.390 . S
C202 C201 1.390 . S
C202 C203 1.394 1_565 S
C202 C208 1.465 . S
C203 C198 1.399 . S
C203 C202 1.394 1_545 S
C203 C204 1.516 . S
C204 C203 1.516 . S
C204 C205 1.502 . S
C204 C206 1.561 . S
C204 C207 1.526 . S
C205 H189 0.959 . S
C205 H190 0.959 . S
C205 H191 0.961 . S
C205 C204 1.502 . S
C206 H192 0.960 . S
C206 H193 0.961 . S
C206 H194 0.959 . S
C206 C204 1.561 . S
C207 C204 1.526 . S
C207 C208 1.396 1_545 S
C207 C212 1.390 . S
C208 C202 1.465 . S
C208 C207 1.396 1_565 S
C208 C209 1.399 . S
C209 H195 0.929 . S
C209 C208 1.399 . S
C209 C210 1.385 . S
C210 H196 0.931 . S
C210 C209 1.385 . S
C210 C211 1.389 . S
C211 C210 1.389 . S
C211 C212 1.387 1_565 S
C212 H197 0.930 . S
C212 C207 1.390 . S
C212 C211 1.387 1_545 S
H213 C225 0.930 . S
H214 C227 0.930 . S
H215 C228 0.930 . S
H216 C232 0.959 . S
H217 C232 0.959 . S
H218 C232 0.961 . S
H219 C233 0.960 . S
H220 C233 0.961 . S
H221 C233 0.959 . S
H222 C236 0.929 . S
H223 C237 0.931 . S
H224 C239 0.930 . S
C225 H213 0.930 . S
C225 C226 1.399 . S
C225 C230 1.399 . S
C226 C225 1.399 . S
C226 C227 1.376 . S
C227 H214 0.930 . S
C227 C226 1.376 . S
C227 C228 1.388 . S
C228 H215 0.930 . S
C228 C227 1.388 . S
C228 C229 1.390 . S
C229 C228 1.390 . S
C229 C230 1.394 . S
C229 C235 1.465 . S
C230 C225 1.399 . S
C230 C229 1.394 . S
C230 C231 1.516 . S
C231 C230 1.516 . S
C231 C232 1.502 . S
C231 C233 1.561 . S
C231 C234 1.526 . S
C232 H216 0.959 . S
C232 H217 0.959 . S
C232 H218 0.961 . S
C232 C231 1.502 . S
C233 H219 0.960 . S
C233 H220 0.961 . S
C233 H221 0.959 . S
C233 C231 1.561 . S
C234 C231 1.526 . S
C234 C235 1.396 . S
C234 C239 1.390 . S
C235 C229 1.465 . S
C235 C234 1.396 . S
C235 C236 1.399 . S
C236 H222 0.929 . S
C236 C235 1.399 . S
C236 C237 1.385 . S
C237 H223 0.931 . S
C237 C236 1.385 . S
C237 C238 1.389 . S
C238 C237 1.389 . S
C238 C239 1.387 . S
C239 H224 0.930 . S
C239 C234 1.390 . S
C239 C238 1.387 . S
H240 C252 0.930 . S
H241 C254 0.930 . S
H242 C255 0.930 . S
H243 C259 0.959 . S
H244 C259 0.959 . S
H245 C259 0.961 . S
H246 C260 0.960 . S
H247 C260 0.961 . S
H248 C260 0.959 . S
H249 C263 0.929 . S
H250 C264 0.931 . S
H251 C266 0.930 . S
C252 H240 0.930 . S
C252 C253 1.399 1_565 S
C252 C257 1.399 . S
C253 C252 1.399 1_545 S
C253 C254 1.376 . S
C254 H241 0.930 . S
C254 C253 1.376 . S
C254 C255 1.388 . S
C255 H242 0.930 . S
C255 C254 1.388 . S
C255 C256 1.390 . S
C256 C255 1.390 . S
C256 C257 1.394 1_545 S
C256 C262 1.465 . S
C257 C252 1.399 . S
C257 C256 1.394 1_565 S
C257 C258 1.516 . S
C258 C257 1.516 . S
C258 C259 1.502 . S
C258 C260 1.561 . S
C258 C261 1.526 . S
C259 H243 0.959 . S
C259 H244 0.959 . S
C259 H245 0.961 . S
C259 C258 1.502 . S
C260 H246 0.960 . S
C260 H247 0.961 . S
C260 H248 0.959 . S
C260 C258 1.561 . S
C261 C258 1.526 . S
C261 C262 1.396 1_565 S
C261 C266 1.390 . S
C262 C256 1.465 . S
C262 C261 1.396 1_545 S
C262 C263 1.399 . S
C263 H249 0.929 . S
C263 C262 1.399 . S
C263 C264 1.385 . S
C264 H250 0.931 . S
C264 C263 1.385 . S
C264 C265 1.389 . S
C265 C264 1.389 . S
C265 C266 1.387 1_545 S
C266 H251 0.930 . S
C266 C261 1.390 . S
C266 C265 1.387 1_565 S
H267 C279 0.930 . S
H268 C281 0.930 . S
H269 C282 0.930 . S
H270 C286 0.959 . S
H271 C286 0.959 . S
H272 C286 0.961 . S
H273 C287 0.960 . S
H274 C287 0.961 . S
H275 C287 0.959 . S
H276 C290 0.929 1_554 S
H277 C291 0.931 . S
H278 C293 0.930 . S
C279 H267 0.930 . S
C279 C280 1.399 . S
C279 C284 1.399 . S
C280 C279 1.399 . S
C280 C281 1.376 . S
C281 H268 0.930 . S
C281 C280 1.376 . S
C281 C282 1.388 . S
C282 H269 0.930 . S
C282 C281 1.388 . S
C282 C283 1.390 . S
C283 C282 1.390 . S
C283 C284 1.394 . S
C283 C289 1.465 1_554 S
C284 C279 1.399 . S
C284 C283 1.394 . S
C284 C285 1.516 1_554 S
C285 C284 1.516 1_556 S
C285 C286 1.502 . S
C285 C287 1.561 . S
C285 C288 1.526 . S
C286 H270 0.959 . S
C286 H271 0.959 . S
C286 H272 0.961 . S
C286 C285 1.502 . S
C287 H273 0.960 . S
C287 H274 0.961 . S
C287 H275 0.959 . S
C287 C285 1.561 . S
C288 C285 1.526 . S
C288 C289 1.396 . S
C288 C293 1.390 . S
C289 C283 1.465 1_556 S
C289 C288 1.396 . S
C289 C290 1.399 . S
C290 H276 0.929 1_556 S
C290 C289 1.399 . S
C290 C291 1.385 . S
C291 H277 0.931 . S
C291 C290 1.385 . S
C291 C292 1.389 . S
C292 C291 1.389 . S
C292 C293 1.387 . S
C293 H278 0.930 . S
C293 C288 1.390 . S
C293 C292 1.387 . S
H294 C306 0.930 . S
H295 C308 0.930 . S
H296 C309 0.930 . S
H297 C313 0.959 . S
H298 C313 0.959 . S
H299 C313 0.961 . S
H300 C314 0.960 . S
H301 C314 0.961 . S
H302 C314 0.959 . S
H303 C317 0.929 . S
H304 C318 0.931 . S
H305 C320 0.930 . S
C306 H294 0.930 . S
C306 C307 1.399 . S
C306 C311 1.399 . S
C307 C306 1.399 . S
C307 C308 1.376 1_455 S
C308 H295 0.930 . S
C308 C307 1.376 1_655 S
C308 C309 1.388 . S
C309 H296 0.930 . S
C309 C308 1.388 . S
C309 C310 1.390 . S
C310 C309 1.390 . S
C310 C311 1.394 1_655 S
C310 C316 1.465 . S
C311 C306 1.399 . S
C311 C310 1.394 1_455 S
C311 C312 1.516 . S
C312 C311 1.516 . S
C312 C313 1.502 . S
C312 C314 1.561 . S
C312 C315 1.526 . S
C313 H297 0.959 . S
C313 H298 0.959 . S
C313 H299 0.961 . S
C313 C312 1.502 . S
C314 H300 0.960 . S
C314 H301 0.961 . S
C314 H302 0.959 . S
C314 C312 1.561 . S
C315 C312 1.526 . S
C315 C316 1.396 1_455 S
C315 C320 1.390 . S
C316 C310 1.465 . S
C316 C315 1.396 1_655 S
C316 C317 1.399 . S
C317 H303 0.929 . S
C317 C316 1.399 . S
C317 C318 1.385 . S
C318 H304 0.931 . S
C318 C317 1.385 . S
C318 C319 1.386 1_655 S
C319 C318 1.386 1_455 S
C319 C320 1.387 . S
C320 H305 0.930 . S
C320 C315 1.390 . S
C320 C319 1.387 . S
H321 C333 0.930 . S
H322 C335 0.930 . S
H323 C336 0.930 . S
H324 C340 0.959 . S
H325 C340 0.959 . S
H326 C340 0.961 . S
H327 C341 0.960 . S
H328 C341 0.961 . S
H329 C341 0.959 . S
H330 C344 0.929 . S
H331 C345 0.931 . S
H332 C347 0.930 . S
C333 H321 0.930 . S
C333 C334 1.399 1_565 S
C333 C338 1.399 . S
C334 C333 1.399 1_545 S
C334 C335 1.376 . S
C335 H322 0.930 . S
C335 C334 1.376 . S
C335 C336 1.388 . S
C336 H323 0.930 . S
C336 C335 1.388 . S
C336 C337 1.390 . S
C337 C336 1.390 . S
C337 C338 1.394 1_545 S
C337 C343 1.465 . S
C338 C333 1.399 . S
C338 C337 1.394 1_565 S
C338 C339 1.516 . S
C339 C338 1.516 . S
C339 C340 1.502 . S
C339 C341 1.561 . S
C339 C342 1.526 . S
C340 H324 0.959 . S
C340 H325 0.959 . S
C340 H326 0.961 . S
C340 C339 1.502 . S
C341 H327 0.960 . S
C341 H328 0.961 . S
C341 H329 0.959 . S
C341 C339 1.561 . S
C342 C339 1.526 . S
C342 C343 1.396 1_565 S
C342 C347 1.390 . S
C343 C337 1.465 . S
C343 C342 1.396 1_545 S
C343 C344 1.399 . S
C344 H330 0.929 . S
C344 C343 1.399 . S
C344 C345 1.385 . S
C345 H331 0.931 . S
C345 C344 1.385 . S
C345 C346 1.389 . S
C346 C345 1.389 . S
C346 C347 1.387 1_545 S
C347 H332 0.930 . S
C347 C342 1.390 . S
C347 C346 1.387 1_565 S
H348 C360 0.930 . S
H349 C362 0.930 . S
H350 C363 0.930 . S
H351 C367 0.959 . S
H352 C367 0.959 . S
H353 C367 0.961 . S
H354 C368 0.960 . S
H355 C368 0.961 . S
H356 C368 0.959 . S
H357 C371 0.929 1_554 S
H358 C372 0.931 . S
H359 C374 0.930 . S
C360 H348 0.930 . S
C360 C361 1.399 . S
C360 C365 1.399 . S
C361 C360 1.399 . S
C361 C362 1.376 . S
C362 H349 0.930 . S
C362 C361 1.376 . S
C362 C363 1.388 . S
C363 H350 0.930 . S
C363 C362 1.388 . S
C363 C364 1.390 . S
C364 C363 1.390 . S
C364 C365 1.394 . S
C364 C370 1.465 1_554 S
C365 C360 1.399 . S
C365 C364 1.394 . S
C365 C366 1.516 1_554 S
C366 C365 1.516 1_556 S
C366 C367 1.502 . S
C366 C368 1.561 . S
C366 C369 1.526 . S
C367 H351 0.959 . S
C367 H352 0.959 . S
C367 H353 0.961 . S
C367 C366 1.502 . S
C368 H354 0.960 . S
C368 H355 0.961 . S
C368 H356 0.959 . S
C368 C366 1.561 . S
C369 C366 1.526 . S
C369 C370 1.396 . S
C369 C374 1.390 . S
C370 C364 1.465 1_556 S
C370 C369 1.396 . S
C370 C371 1.399 . S
C371 H357 0.929 1_556 S
C371 C370 1.399 . S
C371 C372 1.385 . S
C372 H358 0.931 . S
C372 C371 1.385 . S
C372 C373 1.389 . S
C373 C372 1.389 . S
C373 C374 1.387 . S
C374 H359 0.930 . S
C374 C369 1.390 . S
C374 C373 1.387 . S
H375 C387 0.930 . S
H376 C389 0.930 . S
H377 C390 0.930 . S
H378 C394 0.959 . S
H379 C394 0.959 . S
H380 C394 0.961 . S
H381 C395 0.960 . S
H382 C395 0.961 . S
H383 C395 0.959 . S
H384 C398 0.929 . S
H385 C399 0.931 . S
H386 C401 0.930 . S
C387 H375 0.930 . S
C387 C388 1.399 1_655 S
C387 C392 1.399 . S
C388 C387 1.399 1_455 S
C388 C389 1.376 . S
C389 H376 0.930 . S
C389 C388 1.376 . S
C389 C390 1.388 . S
C390 H377 0.930 . S
C390 C389 1.388 . S
C390 C391 1.390 . S
C391 C390 1.390 . S
C391 C392 1.394 1_455 S
C391 C397 1.465 . S
C392 C387 1.399 . S
C392 C391 1.394 1_655 S
C392 C393 1.516 . S
C393 C392 1.516 . S
C393 C394 1.502 . S
C393 C395 1.561 . S
C393 C396 1.526 . S
C394 H378 0.959 . S
C394 H379 0.959 . S
C394 H380 0.961 . S
C394 C393 1.502 . S
C395 H381 0.960 . S
C395 H382 0.961 . S
C395 H383 0.959 . S
C395 C393 1.561 . S
C396 C393 1.526 . S
C396 C397 1.396 1_655 S
C396 C401 1.390 . S
C397 C391 1.465 . S
C397 C396 1.396 1_455 S
C397 C398 1.399 . S
C398 H384 0.929 . S
C398 C397 1.399 . S
C398 C399 1.385 . S
C399 H385 0.931 . S
C399 C398 1.385 . S
C399 C400 1.389 . S
C400 C399 1.389 . S
C400 C401 1.387 1_455 S
C401 H386 0.930 . S
C401 C396 1.390 . S
C401 C400 1.387 1_655 S
C103 C44 1.454 1_455 S
C91 C10 1.446 . S
C118 C17 1.512 . S
C130 C62 1.496 . S
C145 C36 1.516 . S
C157 C75 1.512 . S
C172 C5 1.437 1_455 S
C184 C42 1.441 1_455 S
C211 C53 1.495 . S
C199 C16 1.511 . S
C226 C31 1.523 . S
C238 C66 1.526 . S
C265 C55 1.449 1_545 S
C253 C30 1.442 1_545 S
C280 C3 1.451 . S
C292 C68 1.425 . S
C319 C49 1.509 1_455 S
C307 C18 1.520 . S
C346 C57 1.452 1_545 S
C334 C29 1.441 . S
C373 C70 1.450 . S
C361 C4 1.450 . S
C388 C23 1.514 1_455 S
C400 C40 1.518 1_455 S
