# Generated by pormake.
# Topology ctn, (3,4)-cn, num edge types: 1
# Building blocks:
#     Node 0, Type 0, BuildingBlock: WUSLED_clean_sbu_0, # of connection points: 3
#     Node 1, Type 0, BuildingBlock: WUSLED_clean_sbu_0, # of connection points: 3
#     Node 2, Type 0, BuildingBlock: WUSLED_clean_sbu_0, # of connection points: 3
#     Node 3, Type 0, BuildingBlock: WUSLED_clean_sbu_0, # of connection points: 3
#     Node 4, Type 0, BuildingBlock: WUSLED_clean_sbu_0, # of connection points: 3
#     Node 5, Type 0, BuildingBlock: WUSLED_clean_sbu_0, # of connection points: 3
#     Node 6, Type 0, BuildingBlock: WUSLED_clean_sbu_0, # of connection points: 3
#     Node 7, Type 0, BuildingBlock: WUSLED_clean_sbu_0, # of connection points: 3
#     Node 8, Type 0, BuildingBlock: WUSLED_clean_sbu_0, # of connection points: 3
#     Node 9, Type 0, BuildingBlock: WUSLED_clean_sbu_0, # of connection points: 3
#     Node 10, Type 0, BuildingBlock: WUSLED_clean_sbu_0, # of connection points: 3
#     Node 11, Type 0, BuildingBlock: WUSLED_clean_sbu_0, # of connection points: 3
#     Node 12, Type 0, BuildingBlock: WUSLED_clean_sbu_0, # of connection points: 3
#     Node 13, Type 0, BuildingBlock: WUSLED_clean_sbu_0, # of connection points: 3
#     Node 14, Type 0, BuildingBlock: WUSLED_clean_sbu_0, # of connection points: 3
#     Node 15, Type 0, BuildingBlock: WUSLED_clean_sbu_0, # of connection points: 3
#     Node 16, Type 1, BuildingBlock: KUFVIS_clean_sbu_0, # of connection points: 4
#     Node 17, Type 1, BuildingBlock: KUFVIS_clean_sbu_0, # of connection points: 4
#     Node 18, Type 1, BuildingBlock: KUFVIS_clean_sbu_0, # of connection points: 4
#     Node 19, Type 1, BuildingBlock: KUFVIS_clean_sbu_0, # of connection points: 4
#     Node 20, Type 1, BuildingBlock: KUFVIS_clean_sbu_0, # of connection points: 4
#     Node 21, Type 1, BuildingBlock: KUFVIS_clean_sbu_0, # of connection points: 4
#     Node 22, Type 1, BuildingBlock: KUFVIS_clean_sbu_0, # of connection points: 4
#     Node 23, Type 1, BuildingBlock: KUFVIS_clean_sbu_0, # of connection points: 4
#     Node 24, Type 1, BuildingBlock: KUFVIS_clean_sbu_0, # of connection points: 4
#     Node 25, Type 1, BuildingBlock: KUFVIS_clean_sbu_0, # of connection points: 4
#     Node 26, Type 1, BuildingBlock: KUFVIS_clean_sbu_0, # of connection points: 4
#     Node 27, Type 1, BuildingBlock: KUFVIS_clean_sbu_0, # of connection points: 4
#     Edge 28, Type (0, 1), BuildingBlock: XIVTED_clean_linker_0, # of connection points: 2
#     Edge 29, Type (0, 1), BuildingBlock: XIVTED_clean_linker_0, # of connection points: 2
#     Edge 30, Type (0, 1), BuildingBlock: XIVTED_clean_linker_0, # of connection points: 2
#     Edge 31, Type (0, 1), BuildingBlock: XIVTED_clean_linker_0, # of connection points: 2
#     Edge 32, Type (0, 1), BuildingBlock: XIVTED_clean_linker_0, # of connection points: 2
#     Edge 33, Type (0, 1), BuildingBlock: XIVTED_clean_linker_0, # of connection points: 2
#     Edge 34, Type (0, 1), BuildingBlock: XIVTED_clean_linker_0, # of connection points: 2
#     Edge 35, Type (0, 1), BuildingBlock: XIVTED_clean_linker_0, # of connection points: 2
#     Edge 36, Type (0, 1), BuildingBlock: XIVTED_clean_linker_0, # of connection points: 2
#     Edge 37, Type (0, 1), BuildingBlock: XIVTED_clean_linker_0, # of connection points: 2
#     Edge 38, Type (0, 1), BuildingBlock: XIVTED_clean_linker_0, # of connection points: 2
#     Edge 39, Type (0, 1), BuildingBlock: XIVTED_clean_linker_0, # of connection points: 2
#     Edge 40, Type (0, 1), BuildingBlock: XIVTED_clean_linker_0, # of connection points: 2
#     Edge 41, Type (0, 1), BuildingBlock: XIVTED_clean_linker_0, # of connection points: 2
#     Edge 42, Type (0, 1), BuildingBlock: XIVTED_clean_linker_0, # of connection points: 2
#     Edge 43, Type (0, 1), BuildingBlock: XIVTED_clean_linker_0, # of connection points: 2
#     Edge 44, Type (0, 1), BuildingBlock: XIVTED_clean_linker_0, # of connection points: 2
#     Edge 45, Type (0, 1), BuildingBlock: XIVTED_clean_linker_0, # of connection points: 2
#     Edge 46, Type (0, 1), BuildingBlock: XIVTED_clean_linker_0, # of connection points: 2
#     Edge 47, Type (0, 1), BuildingBlock: XIVTED_clean_linker_0, # of connection points: 2
#     Edge 48, Type (0, 1), BuildingBlock: XIVTED_clean_linker_0, # of connection points: 2
#     Edge 49, Type (0, 1), BuildingBlock: XIVTED_clean_linker_0, # of connection points: 2
#     Edge 50, Type (0, 1), BuildingBlock: XIVTED_clean_linker_0, # of connection points: 2
#     Edge 51, Type (0, 1), BuildingBlock: XIVTED_clean_linker_0, # of connection points: 2
#     Edge 52, Type (0, 1), BuildingBlock: XIVTED_clean_linker_0, # of connection points: 2
#     Edge 53, Type (0, 1), BuildingBlock: XIVTED_clean_linker_0, # of connection points: 2
#     Edge 54, Type (0, 1), BuildingBlock: XIVTED_clean_linker_0, # of connection points: 2
#     Edge 55, Type (0, 1), BuildingBlock: XIVTED_clean_linker_0, # of connection points: 2
#     Edge 56, Type (0, 1), BuildingBlock: XIVTED_clean_linker_0, # of connection points: 2
#     Edge 57, Type (0, 1), BuildingBlock: XIVTED_clean_linker_0, # of connection points: 2
#     Edge 58, Type (0, 1), BuildingBlock: XIVTED_clean_linker_0, # of connection points: 2
#     Edge 59, Type (0, 1), BuildingBlock: XIVTED_clean_linker_0, # of connection points: 2
#     Edge 60, Type (0, 1), BuildingBlock: XIVTED_clean_linker_0, # of connection points: 2
#     Edge 61, Type (0, 1), BuildingBlock: XIVTED_clean_linker_0, # of connection points: 2
#     Edge 62, Type (0, 1), BuildingBlock: XIVTED_clean_linker_0, # of connection points: 2
#     Edge 63, Type (0, 1), BuildingBlock: XIVTED_clean_linker_0, # of connection points: 2
#     Edge 64, Type (0, 1), BuildingBlock: XIVTED_clean_linker_0, # of connection points: 2
#     Edge 65, Type (0, 1), BuildingBlock: XIVTED_clean_linker_0, # of connection points: 2
#     Edge 66, Type (0, 1), BuildingBlock: XIVTED_clean_linker_0, # of connection points: 2
#     Edge 67, Type (0, 1), BuildingBlock: XIVTED_clean_linker_0, # of connection points: 2
#     Edge 68, Type (0, 1), BuildingBlock: XIVTED_clean_linker_0, # of connection points: 2
#     Edge 69, Type (0, 1), BuildingBlock: XIVTED_clean_linker_0, # of connection points: 2
#     Edge 70, Type (0, 1), BuildingBlock: XIVTED_clean_linker_0, # of connection points: 2
#     Edge 71, Type (0, 1), BuildingBlock: XIVTED_clean_linker_0, # of connection points: 2
#     Edge 72, Type (0, 1), BuildingBlock: XIVTED_clean_linker_0, # of connection points: 2
#     Edge 73, Type (0, 1), BuildingBlock: XIVTED_clean_linker_0, # of connection points: 2
#     Edge 74, Type (0, 1), BuildingBlock: XIVTED_clean_linker_0, # of connection points: 2
#     Edge 75, Type (0, 1), BuildingBlock: XIVTED_clean_linker_0, # of connection points: 2
# Relax obj value: 0.013
# Max RMSD: 0.064
# Mean RMSD: 0.032
data_MOF--net-ctn--node1-WUSLED_clean_sbu_0--node2-KUFVIS_clean_sbu_0--edge1-XIVTED_clean_linker_0
_symmetry_space_group_name_H-M    P1
_symmetry_Int_Tables_number       1
_symmetry_cell_setting            triclinic
loop_
_symmetry_equiv_pos_as_xyz
'x, y, z'
_cell_length_a     70.598145
_cell_length_b     70.933493
_cell_length_c     71.039703
_cell_angle_alpha  91.480613
_cell_angle_beta   90.230092
_cell_angle_gamma 91.36485
loop_
_atom_site_label
_atom_site_type_symbol
_atom_site_fract_x
_atom_site_fract_y
_atom_site_fract_z
_atom_type_partial_charge
C0 C 0.01523 0.05232 0.09194 0.0
C1 C 1.00783 0.03378 0.09308 0.0
C2 C 0.99547 0.04059 0.12459 0.0
C3 C 0.99809 0.028 0.1092 0.0
C4 C 1.00329 0.05899 0.12354 0.0
C5 C 0.01296 0.06477 0.10742 0.0
U6 U 0.05308 0.05247 0.05235 0.0
O7 O 0.04948 0.05706 0.02195 0.0
O8 O 0.06723 0.07669 0.03911 0.0
C9 C 0.0597 0.0728 0.02246 0.0
C10 C 0.02409 0.05945 0.07446 0.0
C11 C 0.05212 0.08884 0.01212 0.0
C12 C 0.03506 0.11827 0.01074 0.0
C13 C 0.041 0.10267 0.02087 0.0
C14 C 0.051 0.10617 0.98302 0.0
C15 C 0.0402 0.12034 0.99172 0.0
C16 C 0.05688 0.09065 0.99311 0.0
C17 C 0.09325 0.01571 0.0532 0.0
C18 C 0.11005 0.997 0.02958 0.0
C19 C 0.12468 1.00395 0.05989 0.0
C20 C 0.10879 0.0141 0.06541 0.0
C21 C 0.12545 0.99497 0.042 0.0
C22 C 0.09413 1.00722 0.03511 0.0
C23 C 0.0759 0.02492 0.06032 0.0
O24 O 0.04068 0.06812 0.07638 0.0
O25 O 0.0229 0.04849 0.05926 0.0
O26 O 0.06028 0.02246 0.05032 0.0
O27 O 0.07806 0.04216 0.06737 0.0
H28 H 1.00922 0.02382 0.08138 0.0
H29 H 0.99213 0.0138 0.10935 0.0
H30 H 1.00191 0.06902 0.13517 0.0
H31 H 0.01844 0.07915 0.10694 0.0
H32 H 0.02686 0.12893 0.01794 0.0
H33 H 0.03716 0.10157 0.03555 0.0
H34 H 0.05494 0.10703 0.96835 0.0
H35 H 0.06539 0.08012 0.98606 0.0
H36 H 0.11001 0.99018 0.01576 0.0
H37 H 0.13635 1.00304 0.06973 0.0
H38 H 0.10848 0.02044 0.07945 0.0
H39 H 0.08237 1.0081 0.02537 0.0
C40 C 0.29961 0.74415 0.17096 0.0
C41 C 0.28362 0.75535 0.16917 0.0
C42 C 0.2989 0.77332 0.14437 0.0
C43 C 0.28326 0.76977 0.15611 0.0
C44 C 0.31501 0.76218 0.14628 0.0
C45 C 0.31539 0.74778 0.15945 0.0
U46 U 0.31834 0.71534 0.21255 0.0
O47 O 0.30238 0.70229 0.23556 0.0
O48 O 0.31837 0.68451 0.21589 0.0
C49 C 0.30624 0.68501 0.22989 0.0
C50 C 0.2989 0.72824 0.18414 0.0
C51 C 0.29023 0.67094 0.22922 0.0
C52 C 0.25903 0.6604 0.23996 0.0
C53 C 0.27317 0.67449 0.23871 0.0
C54 C 0.27841 0.63893 0.22192 0.0
C55 C 0.26157 0.64232 0.23185 0.0
C56 C 0.29259 0.65302 0.22071 0.0
C57 C 0.36443 0.73258 0.23827 0.0
C58 C 0.37823 0.71898 0.26618 0.0
C59 C 0.39301 0.74652 0.25248 0.0
C60 C 0.37903 0.7463 0.23849 0.0
C61 C 0.39273 0.73301 0.26665 0.0
C62 C 0.36414 0.7188 0.25213 0.0
C63 C 0.34953 0.73346 0.22372 0.0
O64 O 0.31186 0.71531 0.18221 0.0
O65 O 0.29528 0.73261 0.20184 0.0
O66 O 0.33256 0.73776 0.22973 0.0
O67 O 0.34926 0.71999 0.21065 0.0
H68 H 0.27119 0.75275 0.17772 0.0
H69 H 0.2705 0.77783 0.15488 0.0
H70 H 0.32738 0.76463 0.13762 0.0
H71 H 0.32796 0.7394 0.16048 0.0
H72 H 0.24615 0.66361 0.24751 0.0
H73 H 0.27087 0.68803 0.24561 0.0
H74 H 0.28098 0.62513 0.2157 0.0
H75 H 0.30566 0.64967 0.21357 0.0
H76 H 0.37751 0.70843 0.27692 0.0
H77 H 0.40411 0.75731 0.25215 0.0
H78 H 0.37954 0.757 0.22788 0.0
H79 H 0.35294 0.7081 0.2522 0.0
C80 C 0.97774 0.43614 0.01404 0.0
C81 C 0.96525 0.42054 0.01188 0.0
C82 C 0.98967 0.40215 0.99618 0.0
C83 C 0.97111 0.40379 1.00313 0.0
C84 C 1.00223 0.41779 0.99835 0.0
C85 C 0.99636 0.43459 1.00721 0.0
U86 U 0.9777 0.47709 0.05138 0.0
O87 O 0.9719 0.5072 0.04793 0.0
O88 O 0.95336 0.48998 0.06572 0.0
C89 C 0.95646 0.50651 0.05823 0.0
C90 C 0.97057 0.45399 0.02249 0.0
C91 C 0.93963 0.51634 0.05126 0.0
C92 C 0.9204 0.52911 0.02616 0.0
C93 C 0.93576 0.51835 0.03198 0.0
C94 C 0.91243 0.53559 0.05874 0.0
C95 C 0.90873 0.53815 0.0395 0.0
C96 C 0.92766 0.52486 0.06451 0.0
C97 C 0.01515 0.47746 0.09197 0.0
C98 C 0.03391 0.50139 0.10953 0.0
C99 C 0.02698 0.47126 0.12346 0.0
C100 C 0.0168 0.46548 0.10729 0.0
C101 C 0.03594 0.4892 0.12473 0.0
C102 C 0.02367 0.49559 0.09333 0.0
C103 C 1.00588 0.47005 0.07438 0.0
O104 O 0.96203 0.4526 0.03882 0.0
O105 O 0.98146 0.46924 0.02143 0.0
O106 O 1.0079 0.48001 0.05911 0.0
O107 O 0.98876 0.4626 0.07608 0.0
H108 H 0.95076 0.42139 0.01676 0.0
H109 H 0.9609 0.39222 1.00143 0.0
H110 H 0.01666 0.41702 0.99331 0.0
H111 H 1.00636 0.44636 1.00858 0.0
H112 H 0.91803 0.53081 0.01124 0.0
H113 H 0.94478 0.51191 0.02145 0.0
H114 H 0.90356 0.54198 0.06943 0.0
H115 H 0.9303 0.52348 0.07944 0.0
H116 H 0.04073 0.51523 0.10989 0.0
H117 H 0.02789 0.46159 0.13495 0.0
H118 H 0.01047 0.45141 0.10661 0.0
H119 H 0.02278 0.50516 0.08174 0.0
C120 C 0.70891 0.7747 0.17479 0.0
C121 C 0.70827 0.78231 0.1567 0.0
C122 C 0.71846 0.7525 0.1425 0.0
C123 C 0.71296 0.77133 0.14075 0.0
C124 C 0.71933 0.74503 0.16064 0.0
C125 C 0.71455 0.75596 0.17654 0.0
U126 U 0.71285 0.81602 0.21152 0.0
O127 O 0.6902 0.83266 0.22472 0.0
O128 O 0.70874 0.81585 0.2422 0.0
C129 C 0.6937 0.82643 0.24162 0.0
C130 C 0.70267 0.78548 0.19181 0.0
C131 C 0.67706 0.82039 0.25285 0.0
C132 C 0.65954 0.79698 0.27088 0.0
C133 C 0.6746 0.80178 0.25895 0.0
C134 C 0.64885 0.82912 0.27042 0.0
C135 C 0.64656 0.81064 0.27693 0.0
C136 C 0.66393 0.83392 0.25858 0.0
C137 C 0.7536 0.85318 0.20635 0.0
C138 C 0.76189 0.87858 0.22881 0.0
C139 C 0.77874 0.87593 0.19928 0.0
C140 C 0.76762 0.86 0.1942 0.0
C141 C 0.77609 0.88545 0.21667 0.0
C142 C 0.75073 0.8626 0.22368 0.0
C143 C 0.74254 0.83604 0.20065 0.0
O144 O 0.71387 0.78521 0.20663 0.0
O145 O 0.6954 0.80213 0.18921 0.0
O146 O 0.72527 0.83863 0.19441 0.0
O147 O 0.74364 0.82165 0.21186 0.0
H148 H 0.70395 0.79669 0.15478 0.0
H149 H 0.71233 0.77763 0.12705 0.0
H150 H 0.72324 0.73053 0.16253 0.0
H151 H 0.71496 0.74963 0.19025 0.0
H152 H 0.65808 0.78255 0.27538 0.0
H153 H 0.68445 0.79101 0.25473 0.0
H154 H 0.63932 0.84007 0.27493 0.0
H155 H 0.66558 0.84838 0.2542 0.0
H156 H 0.75929 0.88564 0.24221 0.0
H157 H 0.78969 0.88054 0.18969 0.0
H158 H 0.77011 0.85287 0.1808 0.0
H159 H 0.73994 0.85756 0.23325 0.0
C160 C 0.0131 0.97437 0.43958 0.0
C161 C 1.00733 0.99313 0.4379 0.0
C162 C 0.99469 0.986 0.40631 0.0
C163 C 0.99819 0.99886 0.42146 0.0
C164 C 1.00058 0.9673 0.40809 0.0
C165 C 1.0096 0.96159 0.42449 0.0
U166 U 0.05142 0.97509 0.47899 0.0
O167 O 0.04865 0.96895 0.50912 0.0
O168 O 0.06635 0.95116 0.49096 0.0
C169 C 0.05915 0.9539 0.50781 0.0
C170 C 0.02195 0.96741 0.45703 0.0
C171 C 0.05266 0.93685 0.51784 0.0
C172 C 0.02842 0.91786 0.53351 0.0
C173 C 0.03356 0.9333 0.5224 0.0
C174 C 0.0613 0.90915 0.53521 0.0
C175 C 0.04231 0.9058 0.54037 0.0
C176 C 0.06638 0.92446 0.52413 0.0
C177 C 0.09196 0.01306 0.47803 0.0
C178 C 0.11542 0.0207 0.50251 0.0
C179 C 0.11946 0.03303 0.47129 0.0
C180 C 0.10259 0.0239 0.46547 0.0
C181 C 0.12618 0.03154 0.48986 0.0
C182 C 0.09848 0.01148 0.49662 0.0
C183 C 0.07418 1.00376 0.47119 0.0
O184 O 0.03839 0.9593 0.45494 0.0
O185 O 0.02113 0.97818 0.47235 0.0
O186 O 0.05923 1.00527 0.48207 0.0
O187 O 0.07579 0.98683 0.46353 0.0
H188 H 1.00979 1.00335 0.44928 0.0
H189 H 0.994 0.01339 0.42055 0.0
H190 H 0.99786 0.95689 0.39693 0.0
H191 H 0.01369 0.94701 0.42546 0.0
H192 H 0.01368 0.91576 0.53725 0.0
H193 H 0.02267 0.94264 0.51775 0.0
H194 H 0.07234 0.89999 0.53988 0.0
H195 H 0.08119 0.92686 0.52079 0.0
H196 H 0.12022 0.01912 0.51687 0.0
H197 H 0.12711 0.0415 0.46123 0.0
H198 H 0.09778 0.02537 0.45109 0.0
H199 H 0.09052 1.00312 0.50655 0.0
C200 C 0.21002 0.75125 0.85346 0.0
C201 C 0.1994 0.74969 0.87007 0.0
C202 C 0.21913 0.7741 0.88584 0.0
C203 C 0.20393 0.7609 0.88607 0.0
C204 C 0.22984 0.77555 0.86924 0.0
C205 C 0.22534 0.7643 0.85326 0.0
U206 U 0.21528 0.7114 0.8155 0.0
O207 O 0.19317 0.69316 0.80191 0.0
O208 O 0.21054 0.71226 0.78491 0.0
C209 C 0.19603 0.7003 0.78524 0.0
C210 C 0.20404 0.74033 0.83618 0.0
C211 C 0.17892 0.70554 0.77468 0.0
C212 C 0.15691 0.72878 0.76348 0.0
C213 C 0.17276 0.72423 0.77432 0.0
C214 C 0.15303 0.69603 0.75351 0.0
C215 C 0.14685 0.71473 0.75288 0.0
C216 C 0.16886 0.69152 0.76427 0.0
C217 C 0.2581 0.67796 0.81919 0.0
C218 C 0.26248 0.64509 0.80954 0.0
C219 C 0.28982 0.6657 0.81526 0.0
C220 C 0.27785 0.6806 0.8197 0.0
C221 C 0.28234 0.64769 0.81022 0.0
C222 C 0.25048 0.66007 0.81395 0.0
C223 C 0.24606 0.6938 0.82534 0.0
O224 O 0.21476 0.74202 0.82119 0.0
O225 O 0.19778 0.72294 0.83852 0.0
O226 O 0.22908 0.6895 0.83172 0.0
O227 O 0.24635 0.70872 0.81475 0.0
H228 H 0.18739 0.73993 0.87064 0.0
H229 H 0.1955 0.75917 0.89863 0.0
H230 H 0.24145 0.78574 0.86838 0.0
H231 H 0.23371 0.76612 0.84066 0.0
H232 H 0.15245 0.74328 0.76352 0.0
H233 H 0.18026 0.7353 0.7823 0.0
H234 H 0.14587 0.68486 0.74536 0.0
H235 H 0.17341 0.67703 0.76427 0.0
H236 H 0.25621 0.6315 0.8055 0.0
H237 H 0.30498 0.66823 0.81623 0.0
H238 H 0.28407 0.69419 0.82388 0.0
H239 H 0.23529 0.65761 0.81343 0.0
C240 C 0.97855 0.59014 0.51826 0.0
C241 C 0.99669 0.59804 0.51526 0.0
C242 C 0.99 0.62422 0.53717 0.0
C243 C 1.00239 0.61491 0.5247 0.0
C244 C 0.9719 0.61608 0.5401 0.0
C245 C 0.96628 0.59928 0.53075 0.0
U246 U 0.97957 0.55051 0.47938 0.0
O247 O 0.97246 0.52026 0.48198 0.0
O248 O 0.95527 0.5377 0.4638 0.0
C249 C 0.95715 0.52118 0.47145 0.0
C250 C 0.97182 0.57252 0.50863 0.0
C251 C 0.93947 0.51208 0.47842 0.0
C252 C 0.92055 0.49726 0.50293 0.0
C253 C 0.93728 0.50655 0.49719 0.0
C254 C 0.90794 0.49905 0.47133 0.0
C255 C 0.90564 0.49342 0.49005 0.0
C256 C 0.92462 0.50821 0.46561 0.0
C257 C 0.01728 0.55161 0.4396 0.0
C258 C 0.0332 0.52765 0.42055 0.0
C259 C 0.02902 0.5588 0.40833 0.0
C260 C 0.01992 0.5643 0.42496 0.0
C261 C 0.03583 0.54041 0.40586 0.0
C262 C 0.02398 0.53317 0.43724 0.0
C263 C 1.00841 0.55848 0.45735 0.0
O264 O 0.96419 0.57436 0.4919 0.0
O265 O 0.9828 0.55785 0.50958 0.0
O266 O 1.0098 0.54799 0.47228 0.0
O267 O 0.99168 0.56601 0.45562 0.0
H268 H 1.00637 0.59122 0.50561 0.0
H269 H 0.01637 0.62082 0.52199 0.0
H270 H 0.96209 0.62259 0.54983 0.0
H271 H 0.95225 0.59339 0.53332 0.0
H272 H 0.91923 0.49325 0.51748 0.0
H273 H 0.94849 0.50932 0.50742 0.0
H274 H 0.89696 0.49605 0.46092 0.0
H275 H 0.926 0.51212 0.45102 0.0
H276 H 0.03814 0.51335 0.4191 0.0
H277 H 0.03108 0.56915 0.39754 0.0
H278 H 0.01513 0.57866 0.42648 0.0
H279 H 0.02222 0.52305 0.44828 0.0
C280 C 0.80397 0.79186 0.86469 0.0
C281 C 0.80875 0.77348 0.85891 0.0
C282 C 0.8042 0.76236 0.89091 0.0
C283 C 0.80882 0.75889 0.87187 0.0
C284 C 0.80017 0.78094 0.89675 0.0
C285 C 0.80001 0.79548 0.88377 0.0
U286 U 0.81877 0.82057 0.82116 0.0
O287 O 0.80079 0.83154 0.79867 0.0
O288 O 0.81742 0.85116 0.81693 0.0
C289 C 0.80454 0.84925 0.80354 0.0
C290 C 0.80172 0.80713 0.85103 0.0
C291 C 0.78816 0.86202 0.80439 0.0
C292 C 0.77022 0.8871 0.81966 0.0
C293 C 0.7848 0.87398 0.82008 0.0
C294 C 0.76186 0.87628 0.78808 0.0
C295 C 0.75864 0.88853 0.80358 0.0
C296 C 0.77643 0.86326 0.78848 0.0
C297 C 0.86464 0.80672 0.79402 0.0
C298 C 0.87447 0.80416 0.76115 0.0
C299 C 0.89812 0.80731 0.78583 0.0
C300 C 0.88379 0.8082 0.79934 0.0
C301 C 0.8937 0.80482 0.76658 0.0
C302 C 0.86008 0.80504 0.77472 0.0
C303 C 0.85008 0.80506 0.80895 0.0
O304 O 0.81432 0.82108 0.85194 0.0
O305 O 0.79721 0.80191 0.83366 0.0
O306 O 0.83301 0.79901 0.80387 0.0
O307 O 0.84991 0.81861 0.82193 0.0
H308 H 0.81201 0.77028 0.8443 0.0
H309 H 0.81223 0.74482 0.86691 0.0
H310 H 0.79635 0.78413 0.91121 0.0
H311 H 0.79622 0.80952 0.88856 0.0
H312 H 0.76804 0.89614 0.83194 0.0
H313 H 0.79359 0.87344 0.83257 0.0
H314 H 0.75348 0.87712 0.77534 0.0
H315 H 0.77883 0.85439 0.7761 0.0
H316 H 0.87053 0.80211 0.74648 0.0
H317 H 0.91274 0.80819 0.79053 0.0
H318 H 0.88772 0.80945 0.81409 0.0
H319 H 0.84545 0.80381 0.77013 0.0
C320 C 0.30382 0.29161 0.36581 0.0
C321 C 0.30683 0.27296 0.35955 0.0
C322 C 0.30333 0.26175 0.39164 0.0
C323 C 0.30653 0.2582 0.37231 0.0
C324 C 0.30112 0.28054 0.39793 0.0
C325 C 0.30131 0.29527 0.38514 0.0
U326 U 0.31781 0.31911 0.32134 0.0
O327 O 0.29942 0.33131 0.30003 0.0
O328 O 0.31852 0.34985 0.31696 0.0
C329 C 0.30477 0.34876 0.30442 0.0
C330 C 0.30191 0.30719 0.35245 0.0
C331 C 0.2896 0.36277 0.30639 0.0
C332 C 0.25645 0.37083 0.31053 0.0
C333 C 0.2708 0.35747 0.31062 0.0
C334 C 0.27953 0.39508 0.3026 0.0
C335 C 0.26058 0.38979 0.30629 0.0
C336 C 0.29382 0.38172 0.30262 0.0
C337 C 0.35976 0.30032 0.29082 0.0
C338 C 0.38622 0.31364 0.27303 0.0
C339 C 0.37539 0.28149 0.26662 0.0
C340 C 0.36135 0.28344 0.28029 0.0
C341 C 0.38834 0.29636 0.26314 0.0
C342 C 0.37211 0.31558 0.28682 0.0
C343 C 0.34651 0.30067 0.307 0.0
O344 O 0.31571 0.31995 0.35239 0.0
O345 O 0.29565 0.30249 0.33547 0.0
O346 O 0.32871 0.29602 0.30337 0.0
O347 O 0.34851 0.31453 0.31956 0.0
H348 H 0.30894 0.26971 0.34473 0.0
H349 H 0.30855 0.24394 0.367 0.0
H350 H 0.29844 0.28381 0.41263 0.0
H351 H 0.29891 0.30952 0.39031 0.0
H352 H 0.24209 0.36628 0.31369 0.0
H353 H 0.26712 0.34296 0.31364 0.0
H354 H 0.28326 0.40945 0.29904 0.0
H355 H 0.30817 0.38614 0.29919 0.0
H356 H 0.39598 0.32535 0.27073 0.0
H357 H 0.37639 0.2681 0.25904 0.0
H358 H 0.35208 0.27145 0.28308 0.0
H359 H 0.37129 0.32879 0.29473 0.0
C360 C 0.47888 0.9377 0.51167 0.0
C361 C 0.49787 0.93532 0.50633 0.0
C362 C 0.49041 0.90344 0.49412 0.0
C363 C 0.50356 0.91839 0.4976 0.0
C364 C 0.47148 0.90587 0.49966 0.0
C365 C 0.46581 0.92277 0.50827 0.0
U366 U 0.4799 0.97927 0.54824 0.0
O367 O 0.47561 1.0096 0.54398 0.0
O368 O 0.45611 0.99363 0.56192 0.0
C369 C 0.4599 1.00977 0.55386 0.0
C370 C 0.47202 0.95577 0.51985 0.0
C371 C 0.44373 0.02002 0.54585 0.0
C372 C 0.41028 0.02216 0.53742 0.0
C373 C 0.42573 0.01144 0.54299 0.0
C374 C 0.43065 0.05004 0.53695 0.0
C375 C 0.41246 0.0417 0.53467 0.0
C376 C 0.44603 0.03935 0.5425 0.0
C377 C 0.51849 0.9792 0.58778 0.0
C378 C 0.51989 0.99654 0.61787 0.0
C379 C 0.54722 0.97957 0.60684 0.0
C380 C 0.53726 0.97385 0.59055 0.0
C381 C 0.53864 0.99081 0.62086 0.0
C382 C 0.50988 0.99075 0.60149 0.0
C383 C 0.50822 0.97175 0.57089 0.0
O384 O 0.46359 0.95486 0.53628 0.0
O385 O 0.48319 0.97077 0.51843 0.0
O386 O 0.51035 0.98127 0.55539 0.0
O387 O 0.49076 0.96545 0.57335 0.0
H388 H 0.50832 0.94655 0.50874 0.0
H389 H 0.51827 0.91697 0.49369 0.0
H390 H 0.46087 0.89485 0.49696 0.0
H391 H 0.45106 0.92428 0.51206 0.0
H392 H 0.39649 0.01525 0.53595 0.0
H393 H 0.42344 0.99657 0.54551 0.0
H394 H 0.43301 0.06494 0.53463 0.0
H395 H 0.45971 0.04634 0.54462 0.0
H396 H 0.51279 1.0051 0.62838 0.0
H397 H 0.56171 0.97518 0.60843 0.0
H398 H 0.54419 0.96499 0.58014 0.0
H399 H 0.49539 0.99505 0.59966 0.0
C400 C 0.20954 0.27411 0.67573 0.0
C401 C 0.20854 0.28148 0.65755 0.0
C402 C 0.21885 0.25162 0.64357 0.0
C403 C 0.21312 0.27036 0.64168 0.0
C404 C 0.22011 0.2444 0.66179 0.0
C405 C 0.21544 0.25548 0.67763 0.0
U406 U 0.21348 0.31571 0.71218 0.0
O407 O 0.19079 0.33238 0.72527 0.0
O408 O 0.2094 0.31576 0.74287 0.0
C409 C 0.19433 0.32629 0.74222 0.0
C410 C 0.20333 0.28502 0.69269 0.0
C411 C 0.17771 0.32021 0.75345 0.0
C412 C 0.15975 0.29644 0.77057 0.0
C413 C 0.17479 0.30138 0.75866 0.0
C414 C 0.15003 0.32892 0.77183 0.0
C415 C 0.14727 0.31018 0.77747 0.0
C416 C 0.16509 0.33386 0.76001 0.0
C417 C 0.25417 0.35289 0.70674 0.0
C418 C 0.26231 0.37854 0.72897 0.0
C419 C 0.27942 0.3755 0.69962 0.0
C420 C 0.26831 0.35954 0.69464 0.0
C421 C 0.27663 0.38523 0.71688 0.0
C422 C 0.25116 0.36252 0.72394 0.0
C423 C 0.24313 0.3357 0.70115 0.0
O424 O 0.21457 0.28488 0.7075 0.0
O425 O 0.19603 0.30162 0.68999 0.0
O426 O 0.22585 0.33822 0.69491 0.0
O427 O 0.24427 0.32139 0.71246 0.0
H428 H 0.204 0.29576 0.65552 0.0
H429 H 0.21219 0.27647 0.6279 0.0
H430 H 0.22422 0.22998 0.66381 0.0
H431 H 0.21613 0.24933 0.69141 0.0
H432 H 0.15792 0.28183 0.77438 0.0
H433 H 0.18425 0.29052 0.75376 0.0
H434 H 0.14088 0.33993 0.777 0.0
H435 H 0.1671 0.34848 0.75629 0.0
H436 H 0.2596 0.38576 0.74227 0.0
H437 H 0.29046 0.37998 0.69008 0.0
H438 H 0.27091 0.35224 0.68134 0.0
H439 H 0.24028 0.35761 0.73347 0.0
C440 C 0.80131 0.24227 0.6679 0.0
C441 C 0.80648 0.26091 0.67325 0.0
C442 C 0.80117 0.27125 0.64112 0.0
C443 C 0.80636 0.27526 0.66001 0.0
C444 C 0.79644 0.25247 0.6358 0.0
C445 C 0.79648 0.23818 0.64904 0.0
U446 U 0.8181 0.21536 0.71149 0.0
O447 O 0.80118 0.20308 0.73427 0.0
O448 O 0.81808 0.18472 0.71598 0.0
C449 C 0.80536 0.18565 0.72943 0.0
C450 C 0.79988 0.22702 0.68173 0.0
C451 C 0.78945 0.17146 0.72866 0.0
C452 C 0.75857 0.16046 0.73987 0.0
C453 C 0.77261 0.17466 0.73867 0.0
C454 C 0.7776 0.13957 0.72078 0.0
C455 C 0.761 0.14261 0.73122 0.0
C456 C 0.79168 0.15377 0.7196 0.0
C457 C 0.86326 0.23341 0.73832 0.0
C458 C 0.87786 0.21885 0.7653 0.0
C459 C 0.89023 0.2487 0.75427 0.0
C460 C 0.8765 0.24838 0.74005 0.0
C461 C 0.89107 0.23402 0.7672 0.0
C462 C 0.86403 0.21857 0.751 0.0
C463 C 0.84889 0.23385 0.72321 0.0
O464 O 0.81297 0.21416 0.6808 0.0
O465 O 0.79559 0.23207 0.69911 0.0
O466 O 0.83172 0.23838 0.72843 0.0
O467 O 0.84905 0.21997 0.71059 0.0
H468 H 0.81037 0.26445 0.68771 0.0
H469 H 0.81031 0.2895 0.66458 0.0
H470 H 0.79213 0.24885 0.62148 0.0
H471 H 0.79236 0.22394 0.64459 0.0
H472 H 0.74588 0.16342 0.74782 0.0
H473 H 0.77044 0.188 0.74601 0.0
H474 H 0.78009 0.12596 0.71412 0.0
H475 H 0.80457 0.15067 0.71204 0.0
H476 H 0.878 0.20738 0.77507 0.0
H477 H 0.90034 0.26042 0.75502 0.0
H478 H 0.8762 0.25991 0.73034 0.0
H479 H 0.8539 0.20688 0.7499 0.0
C480 C 0.51264 0.55276 0.59042 0.0
C481 C 0.52071 0.5398 0.60254 0.0
C482 C 0.49295 0.54119 0.62302 0.0
C483 C 0.51093 0.53403 0.61869 0.0
C484 C 0.4849 0.55393 0.61058 0.0
C485 C 0.49464 0.55964 0.59451 0.0
U486 U 0.55202 0.55151 0.55245 0.0
O487 O 0.54978 0.55747 0.52228 0.0
O488 O 0.56811 0.57544 0.54057 0.0
C489 C 0.56049 0.57286 0.52375 0.0
C490 C 0.52271 0.55977 0.5737 0.0
C491 C 0.55365 0.58996 0.5144 0.0
C492 C 0.52958 0.60678 0.49717 0.0
C493 C 0.53507 0.59108 0.50735 0.0
C494 C 0.56097 0.62071 0.50128 0.0
C495 C 0.54254 0.62173 0.49377 0.0
C496 C 0.56644 0.60503 0.51139 0.0
C497 C 0.5891 0.51171 0.55339 0.0
C498 C 0.6188 0.50977 0.53614 0.0
C499 C 0.60757 0.4832 0.55403 0.0
C500 C 0.5916 0.49327 0.55941 0.0
C501 C 0.62152 0.49134 0.54246 0.0
C502 C 0.60275 0.51989 0.54158 0.0
C503 C 0.57242 0.52205 0.56018 0.0
O504 O 0.53983 0.56698 0.5766 0.0
O505 O 0.52141 0.54911 0.55832 0.0
O506 O 0.55726 0.52105 0.54937 0.0
O507 O 0.57567 0.53898 0.56764 0.0
H508 H 0.53461 0.53431 0.59963 0.0
H509 H 0.51764 0.52431 0.62798 0.0
H510 H 0.47096 0.55947 0.6132 0.0
H511 H 0.48812 0.56958 0.5853 0.0
H512 H 0.51533 0.60691 0.49149 0.0
H513 H 0.52485 0.57969 0.50936 0.0
H514 H 0.57127 0.63204 0.49931 0.0
H515 H 0.58086 0.60454 0.51662 0.0
H516 H 0.62928 0.51655 0.52732 0.0
H517 H 0.60893 0.46895 0.55888 0.0
H518 H 0.5812 0.48666 0.56846 0.0
H519 H 0.6011 0.53413 0.53677 0.0
C520 C 0.51169 0.47833 0.94145 0.0
C521 C 0.52234 0.48374 0.92571 0.0
C522 C 0.49336 0.49058 0.90843 0.0
C523 C 0.51327 0.48975 0.90938 0.0
C524 C 0.48283 0.48574 0.92446 0.0
C525 C 0.49189 0.47965 0.94073 0.0
U526 U 0.55039 0.47607 0.98024 0.0
O527 O 0.54751 0.46873 1.01005 0.0
O528 O 0.56473 0.45125 0.99113 0.0
C529 C 0.55771 0.45353 1.00812 0.0
C530 C 0.52065 0.4701 0.95821 0.0
C531 C 0.55108 0.43629 0.01774 0.0
C532 C 0.52694 0.41765 0.03395 0.0
C533 C 0.53207 0.43314 0.02291 0.0
C534 C 0.55959 0.40808 0.03435 0.0
C535 C 0.54074 0.40516 0.04015 0.0
C536 C 0.56467 0.42342 0.02332 0.0
C537 C 0.59167 0.51342 0.98213 0.0
C538 C 0.62619 0.51448 0.98465 0.0
C539 C 0.60817 0.5404 0.99735 0.0
C540 C 0.59132 0.5311 0.99154 0.0
C541 C 0.62586 0.53235 0.99374 0.0
C542 C 0.60933 0.50514 0.97891 0.0
C543 C 0.57379 0.50476 0.9743 0.0
O544 O 0.53696 0.46188 0.95557 0.0
O545 O 0.52008 0.48012 0.97403 0.0
O546 O 0.55856 0.50608 0.98481 0.0
O547 O 0.57495 0.48829 0.96551 0.0
H548 H 0.53764 0.48298 0.92587 0.0
H549 H 0.52186 0.49361 0.89743 0.0
H550 H 0.4675 0.48598 0.92422 0.0
H551 H 0.48336 0.47548 0.95263 0.0
H552 H 0.5123 0.41587 0.03819 0.0
H553 H 0.52128 0.44286 0.01884 0.0
H554 H 0.57055 0.39859 0.03854 0.0
H555 H 0.57941 0.42554 0.01955 0.0
H556 H 0.63952 0.50773 0.98183 0.0
H557 H 0.60735 0.55423 1.00407 0.0
H558 H 0.57799 0.53799 0.99399 0.0
H559 H 0.61022 0.4916 0.97161 0.0
C560 C 0.70945 0.25111 0.35363 0.0
C561 C 0.72417 0.26482 0.35309 0.0
C562 C 0.71855 0.27412 0.38591 0.0
C563 C 0.72868 0.27613 0.36902 0.0
C564 C 0.70394 0.2603 0.38648 0.0
C565 C 0.69941 0.24901 0.37054 0.0
U566 U 0.71394 0.21042 0.31641 0.0
O567 O 0.69145 0.19268 0.30284 0.0
O568 O 0.70967 0.21087 0.28571 0.0
C569 C 0.69482 0.19933 0.28605 0.0
C570 C 0.70345 0.24013 0.33638 0.0
C571 C 0.67805 0.20475 0.27507 0.0
C572 C 0.65633 0.22809 0.26355 0.0
C573 C 0.67199 0.22346 0.27463 0.0
C574 C 0.65251 0.19536 0.25345 0.0
C575 C 0.64637 0.21407 0.2528 0.0
C576 C 0.66815 0.19079 0.26444 0.0
C577 C 0.75476 0.17493 0.32149 0.0
C578 C 0.77358 0.15732 0.29866 0.0
C579 C 0.77144 0.1469 0.33076 0.0
C580 C 0.75963 0.16195 0.33519 0.0
C581 C 0.7788 0.14451 0.3125 0.0
C582 C 0.76168 0.17235 0.30309 0.0
C583 C 0.74363 0.1916 0.32718 0.0
O584 O 0.71458 0.24115 0.32161 0.0
O585 O 0.69642 0.22303 0.33882 0.0
O586 O 0.72641 0.1882 0.33341 0.0
O587 O 0.74475 0.20636 0.31637 0.0
H588 H 0.73203 0.2671 0.34025 0.0
H589 H 0.73981 0.2868 0.3679 0.0
H590 H 0.69596 0.25815 0.39926 0.0
H591 H 0.68783 0.23877 0.37139 0.0
H592 H 0.6519 0.2426 0.26357 0.0
H593 H 0.67939 0.23447 0.28278 0.0
H594 H 0.64545 0.18423 0.24517 0.0
H595 H 0.67263 0.17628 0.2645 0.0
H596 H 0.77875 0.15578 0.28439 0.0
H597 H 0.77529 0.13749 0.34183 0.0
H598 H 0.7546 0.1637 0.34951 0.0
H599 H 0.75814 0.18208 0.29219 0.0
C600 C 0.47914 0.09015 0.01718 0.0
C601 C 0.49699 0.09846 0.01363 0.0
C602 C 0.49009 0.12481 0.03524 0.0
C603 C 0.50245 0.11563 0.02264 0.0
C604 C 0.47229 0.11628 0.03871 0.0
C605 C 0.4669 0.09919 0.02978 0.0
U606 U 0.48044 0.04958 0.97929 0.0
O607 O 0.47487 0.01914 0.98318 0.0
O608 O 0.45629 0.03517 0.96502 0.0
C609 C 0.45915 0.01906 0.97319 0.0
C610 C 0.47276 0.07209 1.00818 0.0
C611 C 0.4423 1.00967 0.98151 0.0
C612 C 0.41041 0.01066 0.99446 0.0
C613 C 0.4269 0.01999 0.98831 0.0
C614 C 0.42472 0.98056 0.98787 0.0
C615 C 0.40899 0.99081 0.99407 0.0
C616 C 0.44115 0.98989 0.98162 0.0
C617 C 0.51721 0.051 0.9386 0.0
C618 C 0.53296 0.02683 0.91968 0.0
C619 C 0.52933 0.05805 0.90745 0.0
C620 C 0.52013 0.06366 0.92399 0.0
C621 C 0.53594 0.03958 0.90504 0.0
C622 C 0.52365 0.03245 0.93629 0.0
C623 C 0.50833 0.058 0.95627 0.0
O624 O 0.46453 0.07319 0.99164 0.0
O625 O 0.48432 0.05788 1.00918 0.0
O626 O 0.51057 0.04811 0.97151 0.0
O627 O 0.4912 0.06464 0.95464 0.0
H628 H 0.50664 0.09171 1.00391 0.0
H629 H 0.5162 0.12185 0.01953 0.0
H630 H 0.46253 0.12269 0.04856 0.0
H631 H 0.45311 0.09297 0.03279 0.0
H632 H 0.39868 0.01901 0.99937 0.0
H633 H 0.42745 0.03527 0.98851 0.0
H634 H 0.4241 0.96529 0.98717 0.0
H635 H 0.45282 0.98163 0.9764 0.0
H636 H 0.53772 0.01246 0.91828 0.0
H637 H 0.53165 0.0684 0.89671 0.0
H638 H 0.51552 0.07808 0.92549 0.0
H639 H 0.52163 0.02235 0.94732 0.0
Mn640 Mn 0.26292 0.88278 0.01801 0.0
Mn641 Mn 0.26084 0.89923 0.97377 0.0
C642 C 0.24852 0.86476 0.99389 0.0
C643 C 0.27688 0.86603 0.04234 0.0
C644 C 0.23528 0.91301 1.00514 0.0
O645 O 0.28381 0.90347 0.01843 0.0
O646 O 0.28093 0.91315 0.98854 0.0
C647 C 0.29824 0.88643 0.96052 0.0
N648 N 0.27905 0.88658 0.95848 0.0
C649 C 0.28033 0.86662 0.93061 0.0
C650 C 0.30011 0.86636 0.93235 0.0
C651 C 0.30909 0.87628 0.9474 0.0
C652 C 0.27026 0.87705 0.94407 0.0
H653 H 0.30521 0.89397 0.9721 0.0
C654 C 0.2888 0.91403 1.00486 0.0
O655 O 0.26491 0.87928 0.04568 0.0
O656 O 0.28148 0.86305 0.02484 0.0
N657 N 0.24219 0.88688 0.95782 0.0
C658 C 0.22295 0.88791 0.95861 0.0
C659 C 0.21181 0.87847 0.94474 0.0
C660 C 0.22055 0.86819 0.93016 0.0
C661 C 0.24037 0.86751 0.92953 0.0
C662 C 0.25074 0.87735 0.94363 0.0
H663 H 0.21615 0.89578 0.96979 0.0
O664 O 0.2439 0.86212 0.01131 0.0
O665 O 0.26109 0.87804 0.99109 0.0
O666 O 0.24219 0.90266 0.01775 0.0
O667 O 0.2412 0.91286 0.98817 0.0
C668 C 0.25022 0.85716 0.91566 0.0
C669 C 0.27018 0.85668 0.91623 0.0
H670 H 0.30853 0.85847 0.92232 0.0
H671 H 0.32435 0.87607 0.94889 0.0
H672 H 0.19652 0.87905 0.94533 0.0
H673 H 0.2119 0.86075 0.9196 0.0
H674 H 0.24257 0.8493 0.90465 0.0
H675 H 0.27758 0.84845 0.90564 0.0
Mn676 Mn 0.14822 0.51307 0.26624 0.0
Mn677 Mn 0.13105 0.5571 0.26407 0.0
C678 C 0.16615 0.53727 0.25299 0.0
C679 C 0.16534 0.48925 0.28055 0.0
C680 C 0.11803 0.52509 0.23768 0.0
O681 O 0.12716 0.51268 0.28615 0.0
O682 O 0.11706 0.54245 0.28329 0.0
C683 C 0.14312 0.57125 0.30194 0.0
N684 N 0.14324 0.57294 0.28288 0.0
C685 C 0.16272 0.60121 0.28531 0.0
C686 C 0.16271 0.59984 0.30496 0.0
C687 C 0.1529 0.58477 0.3133 0.0
C688 C 0.15264 0.58738 0.27471 0.0
H689 H 0.13566 0.55966 0.30841 0.0
C690 C 0.11631 0.52623 0.29087 0.0
O691 O 0.15227 0.48543 0.26807 0.0
O692 O 0.1679 0.50691 0.28543 0.0
N693 N 0.14348 0.5729 0.24623 0.0
C694 C 0.1429 0.57164 0.22706 0.0
C695 C 0.1524 0.58541 0.21655 0.0
C696 C 0.1623 0.60036 0.22583 0.0
C697 C 0.16254 0.60146 0.24556 0.0
C698 C 0.15266 0.58743 0.2553 0.0
H699 H 0.13534 0.56016 0.21985 0.0
O700 O 0.16913 0.5198 0.24828 0.0
O701 O 0.15259 0.54007 0.26496 0.0
O702 O 0.12852 0.51269 0.2448 0.0
O703 O 0.11786 0.54216 0.24382 0.0
C704 C 0.1725 0.61571 0.25595 0.0
C705 C 0.17263 0.61556 0.27581 0.0
H706 H 0.17032 0.61018 0.31378 0.0
H707 H 0.1529 0.58356 0.32846 0.0
H708 H 0.15217 0.58445 0.20132 0.0
H709 H 0.16978 0.61084 0.21767 0.0
H710 H 0.18037 0.62668 0.24881 0.0
H711 H 0.18059 0.62643 0.28363 0.0
Mn712 Mn 0.76803 0.63518 0.01384 0.0
Mn713 Mn 0.7269 0.64844 0.99404 0.0
C714 C 0.74071 0.61606 0.0158 0.0
C715 C 0.79733 0.62001 0.01327 0.0
C716 C 0.74288 0.66609 0.0304 0.0
O717 O 0.77674 0.65564 0.99536 0.0
O718 O 0.74865 0.66084 0.98128 0.0
C719 C 0.73147 0.63001 0.95649 0.0
N720 N 0.72105 0.63282 0.97236 0.0
C721 C 0.69604 0.61208 0.96049 0.0
C722 C 0.70633 0.60928 0.94385 0.0
C723 C 0.72418 0.61819 0.9419 0.0
C724 C 0.70403 0.62403 0.97453 0.0
H725 H 0.7453 0.63659 0.95508 0.0
C726 C 0.76663 0.66343 0.98282 0.0
O727 O 0.79382 0.63369 0.02509 0.0
O728 O 0.78407 0.61557 1.0011 0.0
N729 N 0.7046 0.63733 1.00482 0.0
C730 C 0.69706 0.64054 0.02221 0.0
C731 C 0.67953 0.63206 0.02673 0.0
C732 C 0.66986 0.62055 0.01329 0.0
C733 C 0.67779 0.61765 0.99541 0.0
C734 C 0.69524 0.62654 0.99168 0.0
H735 H 0.70435 0.64946 0.03257 0.0
O736 O 0.75443 0.61449 0.02783 0.0
O737 O 0.74337 0.62868 1.00314 0.0
O738 O 0.75701 0.65532 0.0315 0.0
O739 O 0.73118 0.66521 0.0166 0.0
C740 C 0.66922 0.60598 0.98128 0.0
C741 C 0.67838 0.60313 0.96386 0.0
H742 H 0.7008 0.60011 0.9326 0.0
H743 H 0.73233 0.61589 0.92921 0.0
H744 H 0.6735 0.63439 0.04055 0.0
H745 H 0.65642 0.61391 0.01688 0.0
H746 H 0.65577 0.59884 0.98381 0.0
H747 H 0.67185 0.59382 0.95326 0.0
Mn748 Mn 0.88561 0.01605 0.26534 0.0
Mn749 Mn 0.90208 0.97175 0.26071 0.0
C750 C 0.86735 0.99225 0.25046 0.0
C751 C 0.86887 0.04032 0.2804 0.0
C752 C 0.91566 1.00373 0.23636 0.0
O753 O 0.90649 0.01593 0.28564 0.0
O754 O 0.91628 0.9861 0.28089 0.0
C755 C 0.88976 0.95762 0.29769 0.0
N756 N 0.88965 0.95601 0.27854 0.0
C757 C 0.86976 0.92801 0.27923 0.0
C758 C 0.86976 0.9293 0.29896 0.0
C759 C 0.87978 0.94419 0.30822 0.0
C760 C 0.88004 0.94175 0.26949 0.0
H761 H 0.89738 0.96908 0.30488 0.0
C762 C 0.91719 1.00219 0.28955 0.0
O763 O 0.88224 0.04374 0.26842 0.0
O764 O 0.86583 0.02275 0.28447 0.0
N765 N 0.88946 0.9562 0.2419 0.0
C766 C 0.89016 0.95747 0.2228 0.0
C767 C 0.88054 0.94383 0.21144 0.0
C768 C 0.87042 0.92899 0.2198 0.0
C769 C 0.87007 0.92786 0.23947 0.0
C770 C 0.88007 0.94176 0.25008 0.0
H771 H 0.89791 0.96885 0.21629 0.0
O772 O 0.86477 1.00981 0.24668 0.0
O773 O 0.88076 0.9891 0.26247 0.0
O774 O 0.90543 0.01619 0.24425 0.0
O775 O 0.91553 0.98658 0.24137 0.0
C776 C 0.85988 0.91371 0.24898 0.0
C777 C 0.85969 0.91381 0.26884 0.0
H778 H 0.862 0.91903 0.30713 0.0
H779 H 0.87977 0.94534 0.32344 0.0
H780 H 0.88086 0.94481 0.19626 0.0
H781 H 0.86284 0.91862 0.211 0.0
H782 H 0.85191 0.90285 0.24116 0.0
H783 H 0.85158 0.90302 0.27599 0.0
Mn784 Mn 0.26722 0.13418 0.51426 0.0
Mn785 Mn 0.22566 0.14727 0.49524 0.0
C786 C 0.24008 0.11479 0.51637 0.0
C787 C 0.29659 0.11917 0.51297 0.0
C788 C 0.24202 0.16468 0.53155 0.0
O789 O 0.27549 0.15487 0.49583 0.0
O790 O 0.24709 0.16009 0.4824 0.0
C791 C 0.22989 0.12954 0.45733 0.0
N792 N 0.21971 0.1319 0.47341 0.0
C793 C 0.19482 0.11099 0.46159 0.0
C794 C 0.20489 0.10862 0.44476 0.0
C795 C 0.22255 0.11784 0.44267 0.0
C796 C 0.20285 0.12283 0.4757 0.0
H797 H 0.24357 0.13642 0.45577 0.0
C798 C 0.26508 0.16277 0.4836 0.0
O799 O 0.29325 0.13269 0.52504 0.0
O800 O 0.2831 0.11482 0.50101 0.0
N801 N 0.20366 0.13572 0.50616 0.0
C802 C 0.19632 0.13856 0.52369 0.0
C803 C 0.17899 0.12977 0.52833 0.0
C804 C 0.16928 0.11832 0.51486 0.0
C805 C 0.177 0.11578 0.49685 0.0
C806 C 0.19428 0.12497 0.493 0.0
H807 H 0.20364 0.14744 0.53408 0.0
O808 O 0.25397 0.11321 0.52821 0.0
O809 O 0.24247 0.1276 0.50386 0.0
O810 O 0.25633 0.1541 0.5323 0.0
O811 O 0.23007 0.16376 0.51797 0.0
C812 C 0.16838 0.10422 0.48267 0.0
C813 C 0.17733 0.10175 0.46508 0.0
H814 H 0.19931 0.09954 0.43345 0.0
H815 H 0.23052 0.1159 0.42981 0.0
H816 H 0.17312 0.13182 0.54227 0.0
H817 H 0.15599 0.11144 0.51855 0.0
H818 H 0.15507 0.09685 0.48527 0.0
H819 H 0.17077 0.09251 0.45444 0.0
Mn820 Mn 0.38619 0.51601 0.76495 0.0
Mn821 Mn 0.40247 0.47157 0.76117 0.0
C822 C 0.36795 0.4921 0.75023 0.0
C823 C 0.36953 0.54064 0.77948 0.0
C824 C 0.41646 0.5031 0.73646 0.0
O825 O 0.40686 0.51605 0.78546 0.0
O826 O 0.41654 0.48612 0.78131 0.0
C827 C 0.38967 0.45804 0.79823 0.0
N828 N 0.38976 0.45616 0.7791 0.0
C829 C 0.36971 0.42827 0.77997 0.0
C830 C 0.36951 0.42985 0.79968 0.0
C831 C 0.37951 0.44482 0.80884 0.0
C832 C 0.38017 0.44182 0.77014 0.0
H833 H 0.39728 0.46955 0.80533 0.0
C834 C 0.41743 0.50234 0.78974 0.0
O835 O 0.38304 0.54375 0.76758 0.0
O836 O 0.36626 0.52317 0.78377 0.0
N837 N 0.38996 0.45582 0.74244 0.0
C838 C 0.39087 0.45681 0.72333 0.0
C839 C 0.38129 0.44307 0.71206 0.0
C840 C 0.371 0.4284 0.72053 0.0
C841 C 0.37044 0.42756 0.74022 0.0
C842 C 0.3804 0.44155 0.75073 0.0
H843 H 0.39874 0.46806 0.71673 0.0
O844 O 0.36552 0.50962 0.74616 0.0
O845 O 0.38122 0.48905 0.76244 0.0
O846 O 0.40622 0.51571 0.74407 0.0
O847 O 0.4162 0.48602 0.74174 0.0
C848 C 0.36008 0.4136 0.74982 0.0
C849 C 0.35967 0.41399 0.76968 0.0
H850 H 0.36161 0.41973 0.80792 0.0
H851 H 0.37935 0.44618 0.82405 0.0
H852 H 0.38178 0.44383 0.69687 0.0
H853 H 0.36346 0.41795 0.71179 0.0
H854 H 0.35214 0.40267 0.74207 0.0
H855 H 0.35144 0.40333 0.7769 0.0
Mn856 Mn 0.76213 0.3831 0.51791 0.0
Mn857 Mn 0.75927 0.39969 0.47377 0.0
C858 C 0.74766 0.36499 0.49386 0.0
C859 C 0.77666 0.36627 0.54186 0.0
C860 C 0.73389 0.41301 0.50549 0.0
O861 O 0.78275 0.40408 0.51821 0.0
O862 O 0.77931 0.41381 0.4884 0.0
C863 C 0.79672 0.38748 0.46007 0.0
N864 N 0.77751 0.38736 0.45823 0.0
C865 C 0.77877 0.36756 0.43026 0.0
C866 C 0.79858 0.36757 0.4318 0.0
C867 C 0.80758 0.37755 0.44679 0.0
C868 C 0.76869 0.37778 0.44387 0.0
H869 H 0.8037 0.39507 0.47161 0.0
C870 C 0.78737 0.41477 0.50461 0.0
O871 O 0.76458 0.37934 0.54554 0.0
O872 O 0.78105 0.36358 0.52427 0.0
N873 N 0.74062 0.38715 0.45796 0.0
C874 C 0.72138 0.38788 0.45897 0.0
C875 C 0.71022 0.37834 0.44518 0.0
C876 C 0.71895 0.36825 0.43045 0.0
C877 C 0.73878 0.36787 0.4296 0.0
C878 C 0.74916 0.3778 0.44364 0.0
H879 H 0.71459 0.39561 0.47025 0.0
O880 O 0.7433 0.36222 0.51131 0.0
O881 O 0.76001 0.37846 0.49098 0.0
O882 O 0.7411 0.40272 0.51801 0.0
O883 O 0.73961 0.41296 0.48845 0.0
C884 C 0.74863 0.35773 0.41559 0.0
C885 C 0.76861 0.35753 0.41594 0.0
H886 H 0.807 0.35984 0.42164 0.0
H887 H 0.82286 0.37755 0.44812 0.0
H888 H 0.69493 0.37869 0.44594 0.0
H889 H 0.7103 0.36073 0.41996 0.0
H890 H 0.74098 0.3498 0.40463 0.0
H891 H 0.77601 0.34946 0.40525 0.0
Mn892 Mn 0.64745 0.01321 0.76477 0.0
Mn893 Mn 0.63068 0.05743 0.76281 0.0
C894 C 0.66563 0.03735 0.75171 0.0
C895 C 0.66419 0.98898 0.77882 0.0
C896 C 0.61743 0.0257 0.73623 0.0
O897 O 0.62637 0.0129 0.78466 0.0
O898 O 0.61647 0.04275 0.78186 0.0
C899 C 0.64273 0.07119 0.80082 0.0
N900 N 0.64293 0.07302 0.78178 0.0
C901 C 0.66264 0.10113 0.78449 0.0
C902 C 0.66254 0.0996 0.80413 0.0
C903 C 0.65257 0.08455 0.81232 0.0
C904 C 0.65249 0.08744 0.77375 0.0
H905 H 0.63514 0.05961 0.80718 0.0
C906 C 0.61557 0.0265 0.78936 0.0
O907 O 0.65106 0.98552 0.76632 0.0
O908 O 0.66707 1.00655 0.78388 0.0
N909 N 0.64331 0.07326 0.74515 0.0
C910 C 0.64277 0.07217 0.72597 0.0
C911 C 0.6524 0.08596 0.71559 0.0
C912 C 0.66238 0.10076 0.72502 0.0
C913 C 0.66258 0.10169 0.74476 0.0
C914 C 0.65258 0.08765 0.75435 0.0
H915 H 0.63513 0.06081 0.71865 0.0
O916 O 0.66844 0.01987 0.74688 0.0
O917 O 0.65208 0.0402 0.76369 0.0
O918 O 0.62779 0.0132 0.74334 0.0
O919 O 0.61741 0.04277 0.74241 0.0
C920 C 0.67263 0.11579 0.75528 0.0
C921 C 0.6727 0.11548 0.77513 0.0
H922 H 0.6702 0.10982 0.81305 0.0
H923 H 0.6525 0.08323 0.82746 0.0
H924 H 0.6522 0.08513 0.70036 0.0
H925 H 0.66997 0.11126 0.71696 0.0
H926 H 0.68059 0.12677 0.74825 0.0
H927 H 0.6807 0.12623 0.78306 0.0
Mn928 Mn 0.01808 0.26063 0.88441 0.0
Mn929 Mn 0.97381 0.25766 0.90232 0.0
C930 C 0.9931 0.2475 0.86652 0.0
C931 C 0.0427 0.27521 0.86751 0.0
C932 C 1.00513 0.23173 0.91374 0.0
O933 O 0.01915 0.28048 0.90608 0.0
O934 O 0.98909 0.27717 0.91659 0.0
C935 C 0.96056 0.29537 0.89209 0.0
N936 N 0.95843 0.27623 0.89118 0.0
C937 C 0.93024 0.27815 0.87223 0.0
C938 C 0.93208 0.29788 0.87305 0.0
C939 C 0.94732 0.30652 0.883 0.0
C940 C 0.9438 0.26777 0.88165 0.0
H941 H 0.97229 0.30208 0.89966 0.0
C942 C 1.00566 0.28502 0.91723 0.0
O943 O 0.04589 0.26263 0.87997 0.0
O944 O 0.02519 0.28008 0.86545 0.0
N945 N 0.95756 0.23952 0.88948 0.0
C946 C 0.95847 0.22034 0.8891 0.0
C947 C 0.94456 0.20955 0.87924 0.0
C948 C 0.92984 0.21857 0.86993 0.0
C949 C 0.92914 0.23832 0.87062 0.0
C950 C 0.94331 0.24833 0.88081 0.0
H951 H 0.96978 0.21334 0.89618 0.0
O952 O 0.01042 0.24283 0.863 0.0
O953 O 0.99094 0.25919 0.88066 0.0
O954 O 0.01769 0.23902 0.90313 0.0
O955 O 0.98819 0.23762 0.91456 0.0
C956 C 0.91515 0.24847 0.8613 0.0
C957 C 0.91571 0.26837 0.86209 0.0
H958 H 0.92197 0.30652 0.86596 0.0
H959 H 0.94889 0.32174 0.88362 0.0
H960 H 0.94522 0.19432 0.87874 0.0
H961 H 0.91925 0.21021 0.86218 0.0
H962 H 0.90407 0.24111 0.85324 0.0
H963 H 0.90504 0.27601 0.85463 0.0
Mn964 Mn 0.51867 0.76017 0.38488 0.0
Mn965 Mn 0.47415 0.75711 0.40214 0.0
C966 C 0.49398 0.74688 0.36669 0.0
C967 C 0.54344 0.77478 0.36822 0.0
C968 C 0.50536 0.73129 0.41409 0.0
O969 O 0.51938 0.7801 0.40649 0.0
O970 O 0.4892 0.77666 0.41659 0.0
C971 C 0.46103 0.79479 0.39163 0.0
N972 N 0.45893 0.77565 0.39073 0.0
C973 C 0.43106 0.77751 0.37129 0.0
C974 C 0.43287 0.79724 0.37211 0.0
C975 C 0.44795 0.80591 0.38229 0.0
C976 C 0.44447 0.76716 0.38096 0.0
H977 H 0.47263 0.80153 0.39938 0.0
C978 C 0.50572 0.78458 0.41745 0.0
O979 O 0.54654 0.76228 0.38079 0.0
O980 O 0.52594 0.77955 0.36592 0.0
N981 N 0.45809 0.73893 0.3891 0.0
C982 C 0.45896 0.71976 0.38885 0.0
C983 C 0.44519 0.70894 0.37883 0.0
C984 C 0.43065 0.71793 0.36924 0.0
C985 C 0.42997 0.73767 0.36981 0.0
C986 C 0.44399 0.74771 0.38017 0.0
H987 H 0.47014 0.71277 0.39616 0.0
O988 O 0.51136 0.74225 0.36343 0.0
O989 O 0.4916 0.75861 0.38075 0.0
O990 O 0.51809 0.73862 0.4037 0.0
O991 O 0.48839 0.73711 0.4146 0.0
C992 C 0.41614 0.74779 0.36023 0.0
C993 C 0.41669 0.7677 0.36095 0.0
H994 H 0.42288 0.80586 0.36483 0.0
H995 H 0.44949 0.82113 0.38291 0.0
H996 H 0.44583 0.69371 0.37842 0.0
H997 H 0.42016 0.70954 0.36136 0.0
H998 H 0.40518 0.74042 0.35203 0.0
H999 H 0.40615 0.77532 0.3533 0.0
Mn1000 Mn 0.01766 0.76568 0.63875 0.0
Mn1001 Mn 0.9973 0.72511 0.65393 0.0
C1002 C 0.01781 0.73825 0.61992 0.0
C1003 C 0.01742 0.79452 0.62312 0.0
C1004 C 0.03552 0.73991 0.66804 0.0
O1005 O 1.00028 0.77515 0.65999 0.0
O1006 O 0.98786 0.74708 0.66868 0.0
C1007 C 0.95808 0.73215 0.64148 0.0
N1008 N 0.97353 0.72103 0.64132 0.0
C1009 C 0.95761 0.69773 0.62131 0.0
C1010 C 0.94148 0.70889 0.62135 0.0
C1011 C 0.94174 0.7262 0.63144 0.0
C1012 C 0.97348 0.70441 0.63156 0.0
H1013 H 0.95823 0.74547 0.6492 0.0
C1014 C 0.98946 0.76508 0.67034 0.0
O1015 O 0.0298 0.79112 0.63604 0.0
O1016 O 1.0046 0.78142 0.61971 0.0
N1017 N 1.00496 0.70257 0.641 0.0
C1018 C 0.02187 0.69374 0.64197 0.0
C1019 C 0.02404 0.67633 0.63247 0.0
C1020 C 1.00877 0.66806 0.62225 0.0
C1021 C 0.99142 0.67725 0.62173 0.0
C1022 C 0.99006 0.69452 0.63158 0.0
H1023 H 0.03362 0.69998 0.64988 0.0
O1024 O 0.03042 0.75159 0.61756 0.0
O1025 O 1.00563 0.74125 0.63327 0.0
O1026 O 0.03586 0.75471 0.65818 0.0
O1027 O 0.02181 0.72782 0.66742 0.0
C1028 C 0.97552 0.6701 0.61157 0.0
C1029 C 0.95865 0.68037 0.6113 0.0
H1030 H 0.92886 0.70437 0.6136 0.0
H1031 H 0.92937 0.73493 0.63147 0.0
H1032 H 0.03747 0.6693 0.63298 0.0
H1033 H 0.01056 0.65472 0.61479 0.0
H1034 H 0.9762 0.65684 0.60371 0.0
H1035 H 0.9466 0.67485 0.60324 0.0
Mn1036 Mn 0.51747 0.26483 0.13813 0.0
Mn1037 Mn 0.49816 0.22323 0.15184 0.0
C1038 C 0.51864 0.23794 0.11852 0.0
C1039 C 0.51653 0.29399 0.12312 0.0
C1040 C 0.53573 0.23885 0.16693 0.0
O1041 O 0.49957 0.27319 0.15948 0.0
O1042 O 0.48773 0.2445 0.16683 0.0
C1043 C 0.45891 0.22925 0.13885 0.0
N1044 N 0.47474 0.21865 0.13873 0.0
C1045 C 0.4599 0.19525 0.11803 0.0
C1046 C 0.4434 0.20587 0.11801 0.0
C1047 C 0.44293 0.22297 0.12842 0.0
C1048 C 0.47539 0.20224 0.12867 0.0
H1049 H 0.4585 0.2424 0.14682 0.0
C1050 C 0.48879 0.26246 0.16924 0.0
O1051 O 0.52887 0.29069 0.13613 0.0
O1052 O 0.50409 0.28062 0.11936 0.0
N1053 N 0.50681 0.20128 0.13856 0.0
C1054 C 0.52399 0.19301 0.13964 0.0
C1055 C 0.52688 0.17584 0.1299 0.0
C1056 C 0.51202 0.16725 0.11933 0.0
C1057 C 0.49438 0.17589 0.11866 0.0
C1058 C 0.4923 0.19292 0.12876 0.0
H1059 H 0.53542 0.19948 0.14783 0.0
O1060 O 0.53087 0.25171 0.11668 0.0
O1061 O 0.50626 0.2402 0.13182 0.0
O1062 O 0.53582 0.25389 0.15743 0.0
O1063 O 0.52235 0.22643 0.16583 0.0
C1064 C 0.47887 0.16841 0.10813 0.0
C1065 C 0.46168 0.17814 0.10773 0.0
H1066 H 0.43105 0.20109 0.10997 0.0
H1067 H 0.43027 0.23128 0.12841 0.0
H1068 H 0.54053 0.16925 0.13051 0.0
H1069 H 0.51436 0.15411 0.11169 0.0
H1070 H 0.4801 0.15533 0.10006 0.0
H1071 H 0.44994 0.17239 0.09936 0.0
H1072 H 0.25412 0.78588 0.8995 0.0
H1073 H 0.21338 0.85024 0.98405 0.0
H1074 H 0.19437 0.79087 0.91073 0.0
H1075 H 0.27269 0.84572 0.97128 0.0
H1076 H 0.20596 0.82706 0.95853 0.0
H1077 H 0.26108 0.80692 0.92649 0.0
C1078 C 0.24243 0.79141 0.90758 0.0
C1079 C 0.2236 0.78653 0.90269 0.0
C1080 C 0.22061 0.83112 0.96132 0.0
C1081 C 0.23154 0.81051 0.93402 0.0
C1082 C 0.2248 0.84431 0.97586 0.0
C1083 C 0.24358 0.85034 0.9792 0.0
C1084 C 0.23538 0.82367 0.95037 0.0
C1085 C 0.25796 0.8419 0.96863 0.0
C1086 C 0.24643 0.80334 0.92313 0.0
C1087 C 0.20911 0.79396 0.91403 0.0
N1088 N 0.25357 0.82914 0.9546 0.0
N1089 N 0.21338 0.80559 0.92909 0.0
H1090 H 0.02691 0.5496 0.36968 0.0
H1091 H 0.11855 0.50372 0.322 0.0
H1092 H 0.06758 0.51866 0.40133 0.0
H1093 H 0.08298 0.54416 0.2957 0.0
H1094 H 0.09762 0.50444 0.34968 0.0
H1095 H 0.0449 0.54322 0.34111 0.0
C1096 C 0.03964 0.54145 0.37065 0.0
C1097 C 0.04585 0.53493 0.38808 0.0
C1098 C 0.09433 0.51297 0.33773 0.0
C1099 C 0.06658 0.52737 0.35512 0.0
C1100 C 0.10618 0.51245 0.32188 0.0
C1101 C 0.10259 0.52397 0.30653 0.0
C1102 C 0.07869 0.52492 0.33809 0.0
C1103 C 0.08643 0.53516 0.30725 0.0
C1104 C 0.04989 0.53773 0.35427 0.0
C1105 C 0.06221 0.52397 0.38825 0.0
N1106 N 0.07519 0.53539 0.32272 0.0
N1107 N 0.0721 0.52067 0.37207 0.0
H1108 H 0.8153 0.76128 0.92825 0.0
H1109 H 0.75587 0.66727 0.94648 0.0
H1110 H 0.7881 0.72731 0.88423 0.0
H1111 H 0.7972 0.6886 0.98704 0.0
H1112 H 0.76759 0.68982 0.92397 0.0
H1113 H 0.80896 0.73585 0.95042 0.0
C1114 C 0.80812 0.74846 0.9232 0.0
C1115 C 0.80218 0.74651 0.90429 0.0
C1116 C 0.77431 0.68952 0.93769 0.0
C1117 C 0.79485 0.71741 0.92963 0.0
C1118 C 0.7676 0.67659 0.95062 0.0
C1119 C 0.77556 0.67596 0.96874 0.0
C1120 C 0.7889 0.70241 0.94287 0.0
C1121 C 0.79073 0.68851 0.9732 0.0
C1122 C 0.80462 0.73392 0.93585 0.0
C1123 C 0.79312 0.72947 0.89856 0.0
N1124 N 0.79674 0.70144 0.96043 0.0
N1125 N 0.78958 0.71575 0.91117 0.0
H1126 H 0.96417 1.00943 0.40275 0.0
H1127 H 0.95064 0.98441 0.29305 0.0
H1128 H 1.00253 0.97578 0.36968 0.0
H1129 H 0.91469 0.02337 0.32271 0.0
H1130 H 0.97076 0.98304 0.32083 0.0
H1131 H 0.94689 0.01654 0.37382 0.0
C1132 C 0.96912 1.0037 0.38942 0.0
C1133 C 0.98477 0.99177 0.38877 0.0
C1134 C 0.95861 0.99207 0.32132 0.0
C1135 C 0.96488 0.99977 0.35557 0.0
C1136 C 0.94709 0.99289 0.30538 0.0
C1137 C 0.93087 1.00397 0.30552 0.0
C1138 C 0.95385 1.00219 0.33781 0.0
C1139 C 0.9271 0.01471 0.32194 0.0
C1140 C 0.95917 1.00772 0.37291 0.0
C1141 C 0.99035 0.98468 0.37104 0.0
N1142 N 0.93836 0.01336 0.33752 0.0
N1143 N 0.98039 0.98868 0.35527 0.0
H1144 H 0.24745 0.22626 0.63887 0.0
H1145 H 0.21341 0.1902 0.5359 0.0
H1146 H 0.19987 0.24916 0.60962 0.0
H1147 H 0.26338 0.17044 0.56376 0.0
H1148 H 0.20819 0.21186 0.56263 0.0
H1149 H 0.25338 0.20568 0.6115 0.0
C1150 C 0.2382 0.22695 0.62672 0.0
C1151 C 0.22309 0.23949 0.62665 0.0
C1152 C 0.22033 0.20283 0.56286 0.0
C1153 C 0.22989 0.21591 0.59506 0.0
C1154 C 0.22334 0.19042 0.54757 0.0
C1155 C 0.23889 0.17838 0.54747 0.0
C1156 C 0.23289 0.20323 0.57829 0.0
C1157 C 0.2512 0.17939 0.5631 0.0
C1158 C 0.24167 0.21524 0.61102 0.0
C1159 C 0.2118 0.2399 0.6103 0.0
N1160 N 0.24791 0.19151 0.57783 0.0
N1161 N 0.21538 0.22825 0.59525 0.0
H1162 H 0.47211 0.56365 0.64677 0.0
H1163 H 0.43942 0.48039 0.71473 0.0
H1164 H 0.49019 0.50626 0.63932 0.0
H1165 H 0.42175 0.53806 0.7212 0.0
H1166 H 0.45875 0.4895 0.68775 0.0
H1167 H 0.45425 0.55443 0.6745 0.0
C1168 C 0.47228 0.54906 0.65089 0.0
C1169 C 0.48261 0.53571 0.64049 0.0
C1170 C 0.45068 0.50016 0.69512 0.0
C1171 C 0.46219 0.52503 0.67261 0.0
C1172 C 0.43963 0.49498 0.71058 0.0
C1173 C 0.42885 0.50845 0.72037 0.0
C1174 C 0.45101 0.51896 0.68931 0.0
C1175 C 0.42975 0.52712 0.71418 0.0
C1176 C 0.46213 0.54382 0.66685 0.0
C1177 C 0.48256 0.5171 0.6469 0.0
N1178 N 0.44056 0.53178 0.6991 0.0
N1179 N 0.47247 0.51231 0.66246 0.0
H1180 H 0.78765 0.30705 0.6464 0.0
H1181 H 0.79848 0.33484 0.53806 0.0
H1182 H 0.81183 0.27051 0.60384 0.0
H1183 H 0.7701 0.36905 0.57981 0.0
H1184 H 0.80646 0.31262 0.56255 0.0
H1185 H 0.78409 0.33129 0.62288 0.0
C1186 C 0.79243 0.30417 0.63217 0.0
C1187 C 0.79999 0.2866 0.62715 0.0
C1188 C 0.79861 0.32507 0.56639 0.0
C1189 C 0.79573 0.31436 0.59996 0.0
C1190 C 0.79412 0.33782 0.55241 0.0
C1191 C 0.78353 0.35383 0.55684 0.0
C1192 C 0.7925 0.32833 0.58498 0.0
C1193 C 0.77823 0.35689 0.5757 0.0
C1194 C 0.79027 0.318 0.61869 0.0
C1195 C 0.80566 0.28369 0.60835 0.0
N1196 N 0.78268 0.34424 0.58901 0.0
N1197 N 0.80337 0.29736 0.59547 0.0
H1198 H 0.53931 0.02482 0.64071 0.0
H1199 H 0.61347 0.99102 0.71822 0.0
H1200 H 0.56218 0.96897 0.64156 0.0
H1201 H 0.59319 0.0479 0.71644 0.0
H1202 H 0.59375 0.98254 0.69087 0.0
H1203 H 0.55767 0.03328 0.66919 0.0
C1204 C 0.54808 0.01429 0.64692 0.0
C1205 C 0.54924 0.99617 0.63856 0.0
C1206 C 0.59357 0.99688 0.69646 0.0
C1207 C 0.57046 1.00583 0.67119 0.0
C1208 C 0.60486 1.00175 0.71215 0.0
C1209 C 0.60509 0.02025 0.71976 0.0
C1210 C 0.58233 0.01054 0.6882 0.0
C1211 C 0.59353 0.03347 0.71114 0.0
C1212 C 0.55865 0.01917 0.66314 0.0
C1213 C 0.56104 0.98321 0.64723 0.0
N1214 N 0.58267 0.02837 0.69585 0.0
N1215 N 0.57114 0.98828 0.66298 0.0
H1216 H 0.91231 0.20519 0.78115 0.0
H1217 H 0.97233 0.27456 0.85105 0.0
H1218 H 0.90299 0.26482 0.78853 0.0
H1219 H 0.98097 0.21467 0.84805 0.0
H1220 H 0.94733 0.27083 0.82738 0.0
H1221 H 0.93724 0.20771 0.80538 0.0
C1222 C 0.91539 0.21877 0.78792 0.0
C1223 C 0.90561 0.23486 0.78258 0.0
C1224 C 0.95457 0.25842 0.83186 0.0
C1225 C 0.93429 0.23787 0.81017 0.0
C1226 C 0.9688 0.26055 0.84544 0.0
C1227 C 0.97824 0.24481 0.85191 0.0
C1228 C 0.94979 0.24037 0.82443 0.0
C1229 C 0.97369 0.22709 0.84367 0.0
C1230 C 0.92971 0.22022 0.80167 0.0
C1231 C 0.91035 0.2521 0.79181 0.0
N1232 N 0.95962 0.22529 0.83045 0.0
N1233 N 0.92432 0.25313 0.80503 0.0
H1234 H 0.51473 0.89854 0.46409 0.0
H1235 H 0.4883 0.78871 0.45129 0.0
H1236 H 0.47919 0.86719 0.50206 0.0
H1237 H 0.52766 0.81721 0.4148 0.0
H1238 H 0.48726 0.81697 0.47139 0.0
H1239 H 0.52188 0.86895 0.4472 0.0
C1240 C 0.5086 0.88544 0.46904 0.0
C1241 C 0.49614 0.88547 0.48446 0.0
C1242 C 0.49633 0.81708 0.45914 0.0
C1243 C 0.50418 0.8515 0.46504 0.0
C1244 C 0.49697 0.80088 0.44765 0.0
C1245 C 0.50804 0.80058 0.43127 0.0
C1246 C 0.50661 0.8334 0.45418 0.0
C1247 C 0.51902 0.81678 0.42734 0.0
C1248 C 0.51264 0.86855 0.45932 0.0
C1249 C 0.48853 0.86801 0.49005 0.0
N1250 N 0.51782 0.83264 0.43856 0.0
N1251 N 0.49257 0.85186 0.48032 0.0
H1252 H 0.14859 0.28607 0.8071 0.0
H1253 H 0.04049 0.29995 0.83835 0.0
H1254 H 0.11069 0.323 0.77881 0.0
H1255 H 0.08013 0.26618 0.86824 0.0
H1256 H 0.06585 0.30893 0.81658 0.0
H1257 H 0.12345 0.27851 0.82938 0.0
C1258 C 0.13494 0.29249 0.80545 0.0
C1259 C 0.13182 0.30517 0.79095 0.0
C1260 C 0.06902 0.29965 0.82797 0.0
C1261 C 0.10286 0.29672 0.81672 0.0
C1262 C 0.05455 0.29456 0.84045 0.0
C1263 C 0.05815 0.28228 0.85518 0.0
C1264 C 0.08723 0.29234 0.83015 0.0
C1265 C 0.07665 0.27568 0.85713 0.0
C1266 C 0.1206 0.28828 0.81831 0.0
C1267 C 0.11386 0.3133 0.78984 0.0
N1268 N 0.09041 0.28071 0.84475 0.0
N1269 N 0.10009 0.30891 0.80249 0.0
H1270 H 0.56427 0.64091 0.4681 0.0
H1271 H 0.48267 0.71138 0.43847 0.0
H1272 H 0.50831 0.63984 0.49239 0.0
H1273 H 0.53981 0.71419 0.41711 0.0
H1274 H 0.49148 0.68494 0.45788 0.0
H1275 H 0.55532 0.66749 0.44915 0.0
C1276 C 0.55013 0.64632 0.46961 0.0
C1277 C 0.5371 0.63804 0.48205 0.0
C1278 C 0.5021 0.69135 0.44896 0.0
C1279 C 0.5266 0.66854 0.45995 0.0
C1280 C 0.49707 0.70649 0.43784 0.0
C1281 C 0.51049 0.71517 0.42607 0.0
C1282 C 0.52069 0.6847 0.44835 0.0
C1283 C 0.52893 0.70807 0.42591 0.0
C1284 C 0.54498 0.66148 0.45864 0.0
C1285 C 0.51883 0.64554 0.48292 0.0
N1286 N 0.53344 0.69331 0.43684 0.0
N1287 N 0.51415 0.66033 0.47207 0.0
H1288 H 0.89729 0.81827 0.73046 0.0
H1289 H 0.98398 0.75235 0.70544 0.0
H1290 H 0.92511 0.78341 0.77052 0.0
H1291 H 0.9684 0.79747 0.66942 0.0
H1292 H 0.96196 0.76381 0.72915 0.0
H1293 H 0.92222 0.81097 0.70747 0.0
C1294 C 0.90864 0.80916 0.73447 0.0
C1295 C 0.90907 0.8015 0.75254 0.0
C1296 C 0.96342 0.77141 0.71618 0.0
C1297 C 0.93759 0.79309 0.72628 0.0
C1298 C 0.97603 0.76486 0.70263 0.0
C1299 C 0.97805 0.77399 0.68546 0.0
C1300 C 0.95231 0.78707 0.71251 0.0
C1301 C 0.96737 0.79014 0.68256 0.0
C1302 C 0.92292 0.80511 0.72137 0.0
C1303 C 0.92424 0.78989 0.75693 0.0
N1304 N 0.95473 0.79604 0.69586 0.0
N1305 N 0.93772 0.78597 0.74391 0.0
H1306 H 0.06159 0.89543 0.57182 0.0
H1307 H 0.99535 0.80505 0.59317 0.0
H1308 H 0.01172 0.88063 0.53886 0.0
H1309 H 0.04322 0.82367 0.62732 0.0
H1310 H 1.00017 0.83277 0.57353 0.0
H1311 H 0.05439 0.86933 0.59243 0.0
C1312 C 0.04914 0.88663 0.56884 0.0
C1313 C 0.03738 0.8902 0.55339 0.0
C1314 C 1.00952 0.83083 0.5854 0.0
C1315 C 0.02886 0.86011 0.57726 0.0
C1316 C 1.00675 0.81503 0.59665 0.0
C1317 C 0.01892 0.81196 0.61193 0.0
C1318 C 0.02462 0.84364 0.5894 0.0
C1319 C 0.03349 0.82537 0.6157 0.0
C1320 C 0.04495 0.87175 0.58073 0.0
C1321 C 0.02118 0.87849 0.5506 0.0
N1322 N 0.03597 0.84049 0.6045 0.0
N1323 N 0.01747 0.86391 0.56232 0.0
H1324 H 0.14196 0.74577 0.73093 0.0
H1325 H 0.04042 0.70995 0.69117 0.0
H1326 H 0.11351 0.69439 0.74766 0.0
H1327 H 0.06785 0.76188 0.67437 0.0
H1328 H 0.067 0.7044 0.71214 0.0
H1329 H 0.11485 0.75241 0.71072 0.0
C1330 C 0.12997 0.73595 0.7305 0.0
C1331 C 0.13014 0.71943 0.74102 0.0
C1332 C 0.06723 0.71703 0.70389 0.0
C1333 C 0.09905 0.72688 0.71766 0.0
C1334 C 0.05201 0.72023 0.69186 0.0
C1335 C 0.05178 0.73644 0.68088 0.0
C1336 C 0.0825 0.73008 0.70508 0.0
C1337 C 0.06733 0.74918 0.6825 0.0
C1338 C 0.11453 0.7397 0.71884 0.0
C1339 C 0.11424 0.70714 0.73962 0.0
N1340 N 0.08203 0.74572 0.69433 0.0
N1341 N 0.09942 0.7111 0.72818 0.0
H1342 H 0.02451 0.63448 0.55332 0.0
H1343 H 0.98578 0.72992 0.60006 0.0
H1344 H 0.96842 0.65533 0.54392 0.0
H1345 H 0.04355 0.71292 0.60628 0.0
H1346 H 0.98006 0.70366 0.57762 0.0
H1347 H 0.03259 0.66362 0.57124 0.0
C1348 C 0.01395 0.64524 0.55482 0.0
C1349 C 0.99568 0.6423 0.54717 0.0
C1350 C 0.99404 0.70564 0.58377 0.0
C1351 C 1.00484 0.67571 0.56777 0.0
C1352 C 0.99726 0.72057 0.59665 0.0
C1353 C 0.01494 0.72308 0.60548 0.0
C1354 C 1.00862 0.69301 0.57972 0.0
C1355 C 0.02958 0.71109 0.60008 0.0
C1356 C 0.01857 0.66185 0.56512 0.0
C1357 C 0.98256 0.65673 0.54981 0.0
N1358 N 0.02601 0.69633 0.58778 0.0
N1359 N 0.98736 0.67268 0.55992 0.0
H1360 H 0.79121 0.89509 0.25149 0.0
H1361 H 0.8522 0.98395 0.21554 0.0
H1362 H 0.78917 0.91408 0.19429 0.0
H1363 H 0.84866 0.96846 0.27364 0.0
H1364 H 0.82878 0.9588 0.20733 0.0
H1365 H 0.81213 0.92199 0.2598 0.0
C1366 C 0.79497 0.905 0.2407 0.0
C1367 C 0.78834 0.90221 0.22213 0.0
C1368 C 0.8331 0.9609 0.22188 0.0
C1369 C 0.81256 0.93311 0.23157 0.0
C1370 C 0.84645 0.97523 0.22653 0.0
C1371 C 0.85284 0.9777 0.24514 0.0
C1372 C 0.82589 0.94924 0.23605 0.0
C1373 C 0.84459 0.96647 0.259 0.0
C1374 C 0.80702 0.92035 0.24545 0.0
C1375 C 0.79408 0.91544 0.20873 0.0
N1376 N 0.8317 0.95261 0.25416 0.0
N1377 N 0.80586 0.93023 0.21369 0.0
H1378 H 0.81092 0.14618 0.29086 0.0
H1379 H 0.83749 0.03775 0.30323 0.0
H1380 H 0.77782 0.10775 0.32431 0.0
H1381 H 0.87189 0.07793 0.27316 0.0
H1382 H 0.81573 0.06304 0.31171 0.0
H1383 H 0.83327 0.12114 0.28428 0.0
C1384 C 0.80824 0.13244 0.29672 0.0
C1385 C 0.79235 0.12913 0.30812 0.0
C1386 C 0.82811 0.06634 0.30337 0.0
C1387 C 0.81818 0.10027 0.3008 0.0
C1388 C 0.84059 0.05191 0.29859 0.0
C1389 C 0.85656 0.05568 0.28745 0.0
C1390 C 0.83157 0.08468 0.2969 0.0
C1391 C 0.85978 0.07431 0.28175 0.0
C1392 C 0.82113 0.11815 0.29307 0.0
C1393 C 0.78992 0.11105 0.31559 0.0
N1394 N 0.84738 0.08803 0.28644 0.0
N1395 N 0.80264 0.09732 0.31176 0.0
H1396 H 0.40379 0.95832 0.01421 0.0
H1397 H 0.29425 0.9474 0.98745 0.0
H1398 H 0.37274 1.00032 0.98488 0.0
H1399 H 0.32084 0.91107 0.02695 0.0
H1400 H 0.32286 0.96728 0.98732 0.0
H1401 H 0.37391 0.94101 0.01974 0.0
C1402 C 0.39071 0.96396 1.009 0.0
C1403 C 0.39086 0.98082 0.99898 0.0
C1404 C 0.32245 0.95511 0.99621 0.0
C1405 C 0.35656 0.96102 1.00529 0.0
C1406 C 0.30607 0.94372 0.9963 0.0
C1407 C 0.30513 0.92749 1.0072 0.0
C1408 C 0.33829 0.95015 1.00685 0.0
C1409 C 0.3209 0.9235 0.01842 0.0
C1410 C 0.37364 0.95411 0.01227 0.0
C1411 C 0.37339 0.98752 0.99281 0.0
N1412 N 0.33694 0.93461 0.01776 0.0
N1413 N 0.35705 0.97754 0.9959 0.0
H1414 H 0.22486 0.38459 0.29115 0.0
H1415 H 0.19683 0.49325 0.30335 0.0
H1416 H 0.26116 0.42719 0.31798 0.0
H1417 H 0.1627 0.45119 0.27308 0.0
H1418 H 0.2191 0.46876 0.31155 0.0
H1419 H 0.20061 0.4082 0.28718 0.0
C1420 C 0.22768 0.39884 0.29643 0.0
C1421 C 0.24519 0.40384 0.30487 0.0
C1422 C 0.20667 0.46486 0.30324 0.0
C1423 C 0.21742 0.43115 0.30011 0.0
C1424 C 0.19388 0.47884 0.29861 0.0
C1425 C 0.17787 0.47432 0.28744 0.0
C1426 C 0.20344 0.44617 0.29668 0.0
C1427 C 0.17486 0.45538 0.28167 0.0
C1428 C 0.21384 0.41238 0.29402 0.0
C1429 C 0.24803 0.42268 0.31114 0.0
N1430 N 0.18754 0.44207 0.28626 0.0
N1431 N 0.23435 0.43562 0.30859 0.0
H1432 H 0.13468 0.0506 0.52338 0.0
H1433 H 0.23281 0.09278 0.48551 0.0
H1434 H 0.15918 0.03497 0.46983 0.0
H1435 H 0.21423 0.1024 0.54252 0.0
H1436 H 0.20674 0.06993 0.48051 0.0
H1437 H 0.16396 0.06834 0.53159 0.0
C1438 C 0.14627 0.05068 0.51344 0.0
C1439 C 0.14431 0.04137 0.49578 0.0
C1440 C 0.20835 0.07687 0.4942 0.0
C1441 C 0.17789 0.06172 0.5051 0.0
C1442 C 0.2232 0.08997 0.49701 0.0
C1443 C 0.22522 0.09986 0.51424 0.0
C1444 C 0.19525 0.0737 0.50871 0.0
C1445 C 0.21282 0.09531 0.52889 0.0
C1446 C 0.16298 0.06085 0.51813 0.0
C1447 C 0.1598 0.04219 0.48343 0.0
N1448 N 0.19809 0.08281 0.5257 0.0
N1449 N 0.17579 0.05224 0.48827 0.0
H1450 H 0.74168 0.13384 0.76337 0.0
H1451 H 0.68149 0.04666 0.71782 0.0
H1452 H 0.7479 0.11553 0.70536 0.0
H1453 H 0.68367 0.06052 0.77717 0.0
H1454 H 0.70508 0.07209 0.71231 0.0
H1455 H 0.71897 0.10796 0.76795 0.0
C1456 C 0.73818 0.12448 0.75152 0.0
C1457 C 0.74675 0.12699 0.73392 0.0
C1458 C 0.70039 0.06955 0.72654 0.0
C1459 C 0.72084 0.0969 0.73921 0.0
C1460 C 0.68696 0.05509 0.72965 0.0
C1461 C 0.68018 0.05206 0.74787 0.0
C1462 C 0.70723 0.0808 0.74183 0.0
C1463 C 0.68805 0.06293 0.76282 0.0
C1464 C 0.72531 0.10954 0.75421 0.0
C1465 C 0.74183 0.11408 0.71923 0.0
N1466 N 0.70099 0.0769 0.75947 0.0
N1467 N 0.72918 0.09964 0.72218 0.0
H1468 H 0.40487 0.07723 0.54843 0.0
H1469 H 0.30584 0.08642 0.49372 0.0
H1470 H 0.38177 0.03334 0.51126 0.0
H1471 H 0.32785 0.12715 0.53484 0.0
H1472 H 0.33432 0.0677 0.49796 0.0
H1473 H 0.37765 0.09647 0.54169 0.0
C1474 C 0.39418 0.07166 0.53868 0.0
C1475 C 0.39579 0.05358 0.53035 0.0
C1476 C 0.33295 0.08078 0.50597 0.0
C1477 C 0.36415 0.07565 0.52272 0.0
C1478 C 0.31673 0.09153 0.50348 0.0
C1479 C 0.3144 0.1084 0.51395 0.0
C1480 C 0.347 0.08697 0.51896 0.0
C1481 C 0.32896 0.11425 0.52648 0.0
C1482 C 0.37851 0.08265 0.53494 0.0
C1483 C 0.38113 0.04709 0.51816 0.0
N1484 N 0.34454 0.10357 0.52864 0.0
N1485 N 0.36596 0.0581 0.51471 0.0
H1486 H 0.64243 0.46848 0.56477 0.0
H1487 H 0.71419 0.43702 0.48315 0.0
H1488 H 0.64025 0.48961 0.50841 0.0
H1489 H 0.71676 0.41726 0.54006 0.0
H1490 H 0.68752 0.45665 0.4921 0.0
H1491 H 0.66985 0.44997 0.55593 0.0
C1492 C 0.64764 0.46919 0.55049 0.0
C1493 C 0.63881 0.48058 0.5373 0.0
C1494 C 0.69394 0.44806 0.50264 0.0
C1495 C 0.67057 0.45941 0.52708 0.0
C1496 C 0.70922 0.43681 0.49755 0.0
C1497 C 0.71786 0.42537 0.51084 0.0
C1498 C 0.6871 0.44792 0.52119 0.0
C1499 C 0.71065 0.42577 0.52928 0.0
C1500 C 0.66342 0.45866 0.54548 0.0
C1501 C 0.64659 0.48117 0.51911 0.0
N1502 N 0.69573 0.43679 0.53386 0.0
N1503 N 0.66193 0.47069 0.51453 0.0
H1504 H 0.75346 0.28709 0.39873 0.0
H1505 H 0.71265 0.34993 0.48436 0.0
H1506 H 0.69385 0.28983 0.41153 0.0
H1507 H 0.7719 0.34645 0.47091 0.0
H1508 H 0.70533 0.32672 0.45884 0.0
H1509 H 0.76037 0.30819 0.42568 0.0
C1510 C 0.74179 0.29213 0.40715 0.0
C1511 C 0.72301 0.2866 0.40272 0.0
C1512 C 0.71994 0.33101 0.46148 0.0
C1513 C 0.73091 0.31068 0.43399 0.0
C1514 C 0.72408 0.34422 0.47601 0.0
C1515 C 0.7428 0.35056 0.47917 0.0
C1516 C 0.73471 0.32386 0.45033 0.0
C1517 C 0.7572 0.34239 0.46841 0.0
C1518 C 0.74577 0.3041 0.42267 0.0
C1519 C 0.70856 0.29344 0.41447 0.0
N1520 N 0.75286 0.32961 0.45438 0.0
N1521 N 0.7128 0.30513 0.42949 0.0
H1522 H 0.56742 0.0174 0.90096 0.0
H1523 H 0.58182 0.04375 0.79328 0.0
H1524 H 0.52779 0.04904 0.86873 0.0
H1525 H 0.6179 1.00478 0.82105 0.0
H1526 H 0.56117 0.04418 0.82061 0.0
H1527 H 0.5853 0.01095 0.87202 0.0
C1528 C 0.56232 0.0228 0.8878 0.0
C1529 C 0.54615 0.03401 0.88741 0.0
C1530 C 0.57346 0.03535 0.82076 0.0
C1531 C 0.5667 0.02681 0.85422 0.0
C1532 C 0.58529 0.03508 0.80509 0.0
C1533 C 0.60169 0.02426 0.80487 0.0
C1534 C 0.5781 0.02495 0.83662 0.0
C1535 C 0.60536 0.01325 0.82058 0.0
C1536 C 0.5726 0.01916 0.87128 0.0
C1537 C 0.54037 0.04071 0.8699 0.0
N1538 N 0.5938 0.01407 0.83595 0.0
N1539 N 0.55067 0.03713 0.85414 0.0
H1540 H 0.31648 0.25919 0.42822 0.0
H1541 H 0.25233 0.16845 0.44818 0.0
H1542 H 0.28419 0.22812 0.38552 0.0
H1543 H 0.29696 0.1865 0.48671 0.0
H1544 H 0.26387 0.19101 0.42564 0.0
H1545 H 0.30965 0.23383 0.45034 0.0
C1546 C 0.30806 0.24702 0.42344 0.0
C1547 C 0.30087 0.24586 0.40492 0.0
C1548 C 0.27133 0.19001 0.43892 0.0
C1549 C 0.29298 0.21685 0.43021 0.0
C1550 C 0.26471 0.17707 0.45189 0.0
C1551 C 0.27366 0.1755 0.46946 0.0
C1552 C 0.28688 0.20194 0.4435 0.0
C1553 C 0.28967 0.18716 0.47332 0.0
C1554 C 0.30428 0.2325 0.43606 0.0
C1555 C 0.29022 0.22963 0.39952 0.0
N1556 N 0.29564 0.20009 0.46053 0.0
N1557 N 0.28647 0.21594 0.41211 0.0
H1558 H 0.4618 0.5123 0.90364 0.0
H1559 H 0.45037 0.48387 0.79462 0.0
H1560 H 0.50229 0.47965 0.87224 0.0
H1561 H 0.41479 0.52473 0.82204 0.0
H1562 H 0.47002 0.48329 0.82285 0.0
H1563 H 0.44473 0.51786 0.87423 0.0
C1564 C 0.46716 0.50635 0.89058 0.0
C1565 C 0.48354 0.49541 0.89052 0.0
C1566 C 0.45806 0.49256 0.82272 0.0
C1567 C 0.464 0.50177 0.85671 0.0
C1568 C 0.4468 0.49292 0.80655 0.0
C1569 C 0.43084 0.50433 0.80593 0.0
C1570 C 0.45326 0.50348 0.83869 0.0
C1571 C 0.42701 0.51579 0.82184 0.0
C1572 C 0.45745 0.50963 0.87377 0.0
C1573 C 0.4899 0.48831 0.87307 0.0
N1574 N 0.43799 0.51489 0.83766 0.0
N1575 N 0.48006 0.49147 0.85698 0.0
H1576 H 0.74693 0.727 0.13802 0.0
H1577 H 0.71444 0.69191 0.03427 0.0
H1578 H 0.70009 0.75059 0.10819 0.0
H1579 H 0.76378 0.67171 0.06289 0.0
H1580 H 0.70894 0.71355 0.06098 0.0
H1581 H 0.7532 0.70667 0.11056 0.0
C1582 C 0.73792 0.72789 0.12572 0.0
C1583 C 0.7229 0.74054 0.12552 0.0
C1584 C 0.72101 0.70442 0.06137 0.0
C1585 C 0.7301 0.71724 0.09382 0.0
C1586 C 0.72418 0.69204 0.04609 0.0
C1587 C 0.73962 0.67987 0.04622 0.0
C1588 C 0.73329 0.70466 0.07701 0.0
C1589 C 0.75168 0.68075 0.06205 0.0
C1590 C 0.74158 0.71632 0.10997 0.0
C1591 C 0.71193 0.74122 0.10898 0.0
N1592 N 0.74823 0.69284 0.07676 0.0
N1593 N 0.71568 0.7297 0.09388 0.0
H1594 H 0.99418 1.00614 0.14192 0.0
H1595 H 0.91981 0.0387 0.22083 0.0
H1596 H 0.97079 0.06178 0.14575 0.0
H1597 H 0.93959 0.98172 0.21501 0.0
H1598 H 0.93939 0.04756 0.19409 0.0
H1599 H 0.97515 0.99708 0.16911 0.0
C1600 C 0.98502 0.01646 0.14839 0.0
C1601 C 0.98421 0.03482 0.14142 0.0
C1602 C 0.93948 0.03311 0.19866 0.0
C1603 C 0.96243 0.02451 0.17284 0.0
C1604 C 0.92829 0.02802 0.214 0.0
C1605 C 0.92796 1.00939 0.22031 0.0
C1606 C 0.95055 0.01954 0.18943 0.0
C1607 C 0.93933 0.99625 0.21074 0.0
C1608 C 0.97422 0.01128 0.16401 0.0
C1609 C 0.97222 0.04759 0.1507 0.0
N1610 N 0.95012 1.00157 0.19582 0.0
N1611 N 0.96186 0.0422 0.16584 0.0
H1612 H 0.28382 0.80859 0.14794 0.0
H1613 H 0.29858 0.83435 0.03955 0.0
H1614 H 0.31202 0.77227 0.10786 0.0
H1615 H 0.26967 0.86959 0.08006 0.0
H1616 H 0.30599 0.81263 0.06472 0.0
H1617 H 0.28061 0.83205 0.12365 0.0
C1618 C 0.28934 0.80552 0.13402 0.0
C1619 C 0.29807 0.78829 0.12997 0.0
C1620 C 0.29816 0.8252 0.06812 0.0
C1621 C 0.29454 0.81531 0.10194 0.0
C1622 C 0.29399 0.83765 0.05376 0.0
C1623 C 0.28341 0.85381 0.05765 0.0
C1624 C 0.29171 0.82889 0.08653 0.0
C1625 C 0.27779 0.8573 0.07634 0.0
C1626 C 0.28759 0.81899 0.12015 0.0
C1627 C 0.3053 0.78536 0.11172 0.0
N1628 N 0.2819 0.84492 0.09001 0.0
N1629 N 0.30325 0.79864 0.09838 0.0
H1630 H 0.03927 0.52405 0.14285 0.0
H1631 H 0.11346 0.49012 0.22027 0.0
H1632 H 0.05979 0.46731 0.14517 0.0
H1633 H 0.09429 0.54734 0.21744 0.0
H1634 H 0.09346 0.48149 0.19311 0.0
H1635 H 0.05902 0.53284 0.17025 0.0
C1636 C 0.04796 0.51343 0.14904 0.0
C1637 C 0.04775 0.49486 0.1416 0.0
C1638 C 0.0936 0.49594 0.19843 0.0
C1639 C 0.07036 0.50485 0.17322 0.0
C1640 C 0.10505 0.5009 0.214 0.0
C1641 C 0.10564 0.51952 0.22128 0.0
C1642 C 0.08259 0.50965 0.18996 0.0
C1643 C 0.09434 0.5328 0.21242 0.0
C1644 C 0.05917 0.51846 0.16477 0.0
C1645 C 0.05917 0.48171 0.15049 0.0
N1646 N 0.08333 0.52762 0.19727 0.0
N1647 N 0.06997 0.48696 0.16575 0.0
H1648 H 0.41181 0.70394 0.28296 0.0
H1649 H 0.47372 0.77395 0.35063 0.0
H1650 H 0.40687 0.76447 0.28547 0.0
H1651 H 0.48181 0.71395 0.34841 0.0
H1652 H 0.44903 0.7702 0.32666 0.0
H1653 H 0.43667 0.70661 0.30728 0.0
C1654 C 0.41586 0.71777 0.28866 0.0
C1655 C 0.40732 0.73402 0.28196 0.0
C1656 C 0.4561 0.75777 0.33135 0.0
C1657 C 0.43587 0.73717 0.30967 0.0
C1658 C 0.47015 0.75992 0.34511 0.0
C1659 C 0.47935 0.74417 0.35187 0.0
C1660 C 0.45121 0.73969 0.32408 0.0
C1661 C 0.47472 0.72639 0.34378 0.0
C1662 C 0.43014 0.71928 0.30246 0.0
C1663 C 0.41325 0.75156 0.28985 0.0
N1664 N 0.4608 0.72458 0.33042 0.0
N1665 N 0.4271 0.75264 0.30319 0.0
H1666 H 0.98096 0.36573 1.00573 0.0
H1667 H 0.02797 0.31735 0.91432 0.0
H1668 H 0.01186 0.3976 0.96447 0.0
H1669 H 0.98853 0.28948 0.95121 0.0
H1670 H 0.02697 0.34575 0.93499 0.0
H1671 H 0.98813 0.33674 0.9883 0.0
C1672 C 0.98927 0.36667 0.99299 0.0
C1673 C 0.99555 0.38426 0.98646 0.0
C1674 C 0.01875 0.3333 0.93866 0.0
C1675 C 1.00402 0.35084 0.96636 0.0
C1676 C 0.01946 0.31705 0.92696 0.0
C1677 C 1.00825 0.30103 0.93099 0.0
C1678 C 1.0069 0.33343 0.95455 0.0
C1679 C 0.99729 0.30152 0.94745 0.0
C1680 C 0.99344 0.35005 0.98306 0.0
C1681 C 1.00672 0.38441 0.97009 0.0
N1682 N 0.99683 0.31742 0.95851 0.0
N1683 N 0.01045 0.36799 0.96052 0.0
H1684 H 0.60962 0.82245 0.27706 0.0
H1685 H 0.58106 0.76663 0.37001 0.0
H1686 H 0.64803 0.78798 0.30773 0.0
H1687 H 0.54131 0.79855 0.33826 0.0
H1688 H 0.60605 0.77574 0.34816 0.0
H1689 H 0.58478 0.81505 0.29985 0.0
C1690 C 0.61288 0.81337 0.2886 0.0
C1691 C 0.63103 0.80583 0.29039 0.0
C1692 C 0.5919 0.78085 0.34598 0.0
C1693 C 0.6025 0.79723 0.3166 0.0
C1694 C 0.5776 0.77571 0.35853 0.0
C1695 C 0.559 0.78181 0.356 0.0
C1696 C 0.58767 0.79221 0.33068 0.0
C1697 C 0.55542 0.79353 0.3408 0.0
C1698 C 0.59863 0.8091 0.30159 0.0
C1699 C 0.63424 0.79394 0.30556 0.0
N1700 N 0.56959 0.79828 0.32869 0.0
N1701 N 0.62018 0.79006 0.31803 0.0
H1702 H 1.00637 0.13917 0.99238 0.0
H1703 H 0.03945 0.21432 0.91571 0.0
H1704 H 0.06156 0.14032 0.96649 0.0
H1705 H 0.98301 0.21206 0.93887 0.0
H1706 H 0.04788 0.18779 0.93499 0.0
H1707 H 0.99777 0.16647 0.97395 0.0
C1708 C 0.01673 0.14519 0.98292 0.0
C1709 C 0.03471 0.13727 0.98096 0.0
C1710 C 0.03364 0.19308 0.93589 0.0
C1711 C 0.02487 0.16855 0.95967 0.0
C1712 C 0.02879 0.2083 0.92485 0.0
C1713 C 0.01045 0.21557 0.92558 0.0
C1714 C 0.02011 0.18494 0.94787 0.0
C1715 C 0.99732 0.20702 0.93778 0.0
C1716 C 0.01176 0.16073 0.97231 0.0
C1717 C 0.04743 0.14565 0.96829 0.0
N1718 N 1.00241 0.19221 0.9484 0.0
N1719 N 0.04228 0.16076 0.95818 0.0
H1720 H 0.41093 0.26583 0.26137 0.0
H1721 H 0.47223 0.29766 0.17215 0.0
H1722 H 0.40329 0.31962 0.23578 0.0
H1723 H 0.47724 0.2451 0.20079 0.0
H1724 H 0.4488 0.30771 0.19592 0.0
H1725 H 0.43674 0.25953 0.23984 0.0
C1726 C 0.41463 0.27631 0.25111 0.0
C1727 C 0.40467 0.29315 0.25024 0.0
C1728 C 0.4552 0.29406 0.19702 0.0
C1729 C 0.43467 0.28608 0.22533 0.0
C1730 C 0.46864 0.28838 0.18353 0.0
C1731 C 0.47658 0.27043 0.18435 0.0
C1732 C 0.44985 0.28172 0.21139 0.0
C1733 C 0.47134 0.25895 0.19937 0.0
C1734 C 0.42952 0.27277 0.23882 0.0
C1735 C 0.41054 0.30642 0.23692 0.0
N1736 N 0.45834 0.26474 0.21212 0.0
N1737 N 0.42506 0.30254 0.22486 0.0
H1738 H 0.5607 0.39437 0.07101 0.0
H1739 H 0.49426 0.30449 0.09333 0.0
H1740 H 0.50971 0.38054 0.03942 0.0
H1741 H 0.54205 0.32339 0.12746 0.0
H1742 H 0.49889 0.33223 0.0737 0.0
H1743 H 0.55359 0.36838 0.09179 0.0
C1744 C 0.54801 0.3858 0.06837 0.0
C1745 C 0.5359 0.3896 0.05326 0.0
C1746 C 0.50826 0.33037 0.08558 0.0
C1747 C 0.52751 0.35965 0.07732 0.0
C1748 C 0.5056 0.31455 0.09683 0.0
C1749 C 0.5178 0.31154 0.11209 0.0
C1750 C 0.52331 0.34324 0.08954 0.0
C1751 C 0.53229 0.32504 0.11587 0.0
C1752 C 0.54388 0.37099 0.08037 0.0
C1753 C 0.51944 0.37819 0.05089 0.0
N1754 N 0.53468 0.34016 0.10465 0.0
N1755 N 0.5158 0.36367 0.06269 0.0
H1756 H 0.64158 0.2452 0.23089 0.0
H1757 H 0.54082 0.2087 0.18974 0.0
H1758 H 0.61312 0.1937 0.24726 0.0
H1759 H 0.56765 0.26127 0.17394 0.0
H1760 H 0.56723 0.2033 0.21096 0.0
H1761 H 0.61463 0.25179 0.21043 0.0
C1762 C 0.62963 0.23534 0.23033 0.0
C1763 C 0.62975 0.21879 0.24081 0.0
C1764 C 0.56737 0.21604 0.20289 0.0
C1765 C 0.59886 0.22619 0.21717 0.0
C1766 C 0.55224 0.21916 0.1907 0.0
C1767 C 0.55189 0.2355 0.17993 0.0
C1768 C 0.58242 0.22932 0.20442 0.0
C1769 C 0.56723 0.24847 0.1819 0.0
C1770 C 0.61428 0.23907 0.21853 0.0
C1771 C 0.61389 0.20646 0.23925 0.0
N1772 N 0.58184 0.24509 0.19387 0.0
N1773 N 0.59918 0.21039 0.22768 0.0
H1774 H 0.46782 0.1554 0.04197 0.0
H1775 H 0.54519 0.21374 0.10436 0.0
H1776 H 0.5247 0.13624 0.0505 0.0
H1777 H 0.48694 0.22925 0.09826 0.0
H1778 H 0.53957 0.18749 0.08145 0.0
H1779 H 0.47594 0.18431 0.05973 0.0
C1780 C 0.48206 0.15725 0.04757 0.0
C1781 C 0.49552 0.14317 0.04486 0.0
C1782 C 0.52806 0.19673 0.08501 0.0
C1783 C 0.50505 0.17664 0.06515 0.0
C1784 C 0.53128 0.21167 0.09805 0.0
C1785 C 0.51629 0.2231 0.10367 0.0
C1786 C 0.50981 0.19355 0.07732 0.0
C1787 C 0.49868 0.22027 0.09476 0.0
C1788 C 0.48673 0.17388 0.05763 0.0
C1789 C 0.51387 0.14669 0.05214 0.0
N1790 N 0.49587 0.20568 0.08221 0.0
N1791 N 0.51805 0.16298 0.06207 0.0
H1792 H 0.29143 0.39527 0.75174 0.0
H1793 H 0.35314 0.4834 0.71526 0.0
H1794 H 0.29001 0.41355 0.69427 0.0
H1795 H 0.34889 0.46872 0.77354 0.0
H1796 H 0.32969 0.45826 0.70713 0.0
H1797 H 0.31235 0.42221 0.75992 0.0
C1798 C 0.29532 0.40504 0.74086 0.0
C1799 C 0.28887 0.40203 0.72225 0.0
C1800 C 0.33386 0.46054 0.72171 0.0
C1801 C 0.3131 0.43296 0.73155 0.0
C1802 C 0.34723 0.47486 0.72631 0.0
C1803 C 0.35342 0.47756 0.74496 0.0
C1804 C 0.32644 0.4491 0.73595 0.0
C1805 C 0.34497 0.46655 0.75888 0.0
C1806 C 0.30737 0.4204 0.74554 0.0
C1807 C 0.29478 0.41507 0.70874 0.0
N1808 N 0.33207 0.45269 0.75409 0.0
N1809 N 0.30656 0.42989 0.71363 0.0
H1810 H 0.31582 0.64865 0.79066 0.0
H1811 H 0.33718 0.53869 0.80105 0.0
H1812 H 0.27855 0.61034 0.81992 0.0
H1813 H 0.37399 0.57825 0.77289 0.0
H1814 H 0.31592 0.56458 0.80908 0.0
H1815 H 0.33744 0.62291 0.78468 0.0
C1816 C 0.31219 0.63485 0.79593 0.0
C1817 C 0.29529 0.63178 0.8059 0.0
C1818 C 0.32872 0.56759 0.80124 0.0
C1819 C 0.3201 0.60196 0.79891 0.0
C1820 C 0.34091 0.55283 0.79673 0.0
C1821 C 0.35742 0.55626 0.78626 0.0
C1822 C 0.33304 0.58593 0.79521 0.0
C1823 C 0.36144 0.57488 0.78096 0.0
C1824 C 0.32455 0.62008 0.79243 0.0
C1825 C 0.29128 0.61339 0.81201 0.0
N1826 N 0.34934 0.58893 0.78542 0.0
N1827 N 0.30358 0.59922 0.80845 0.0
H1828 H 0.90124 0.46303 0.51337 0.0
H1829 H 0.79152 0.44836 0.48748 0.0
H1830 H 0.86916 0.501 0.4799 0.0
H1831 H 0.82002 0.41248 0.52605 0.0
H1832 H 0.81959 0.46887 0.48671 0.0
H1833 H 0.87178 0.44545 0.52025 0.0
C1834 C 0.88801 0.46783 0.50765 0.0
C1835 C 0.88778 0.48343 0.49581 0.0
C1836 C 0.81976 0.45665 0.49553 0.0
C1837 C 0.85401 0.46326 0.50354 0.0
C1838 C 0.80366 0.44491 0.49599 0.0
C1839 C 0.80341 0.42861 0.50678 0.0
C1840 C 0.83602 0.45202 0.5057 0.0
C1841 C 0.81956 0.42495 0.51761 0.0
C1842 C 0.8712 0.45772 0.51153 0.0
C1843 C 0.87018 0.48885 0.48873 0.0
N1844 N 0.83533 0.43642 0.51659 0.0
N1845 N 0.85412 0.47875 0.49259 0.0
H1846 H 0.76012 0.9254 0.8169 0.0
H1847 H 0.66007 0.95105 0.7716 0.0
H1848 H 0.72298 0.88502 0.78789 0.0
H1849 H 0.69639 0.99198 0.80085 0.0
H1850 H 0.68199 0.92635 0.77957 0.0
H1851 H 0.73617 0.94946 0.81331 0.0
C1852 C 0.74686 0.92149 0.80997 0.0
C1853 C 0.74369 0.90309 0.8026 0.0
C1854 C 0.68514 0.94069 0.78439 0.0
C1855 C 0.71619 0.93076 0.79824 0.0
C1856 C 0.67257 0.95484 0.77987 0.0
C1857 C 0.67639 0.97368 0.7855 0.0
C1858 C 0.7018 0.94533 0.79455 0.0
C1859 C 0.69285 0.97766 0.79621 0.0
C1860 C 0.73322 0.93531 0.80782 0.0
C1861 C 0.72627 0.89904 0.79353 0.0
N1862 N 0.705 0.96365 0.80027 0.0
N1863 N 0.71327 0.91273 0.79155 0.0
H1864 H 0.63441 0.55404 0.0256 0.0
H1865 H 0.73264 0.59359 0.98536 0.0
H1866 H 0.65842 0.53507 0.97286 0.0
H1867 H 0.71482 0.60488 0.04234 0.0
H1868 H 0.70604 0.57113 0.98113 0.0
H1869 H 0.6636 0.57245 0.03234 0.0
C1870 C 0.64581 0.55368 0.01545 0.0
C1871 C 0.64388 0.54291 0.99861 0.0
C1872 C 0.70794 0.57836 0.99464 0.0
C1873 C 0.67746 0.56388 1.00636 0.0
C1874 C 0.72308 0.59124 0.997 0.0
C1875 C 0.72547 0.60147 0.01401 0.0
C1876 C 0.69497 0.57578 1.00936 0.0
C1877 C 0.71313 0.59753 0.02887 0.0
C1878 C 0.66254 0.56408 0.0194 0.0
C1879 C 0.65928 0.54289 0.98613 0.0
N1880 N 0.69815 0.58524 0.02611 0.0
N1881 N 0.67529 0.55328 0.99019 0.0
H1882 H 0.24155 0.63437 0.2638 0.0
H1883 H 0.18195 0.54642 0.21903 0.0
H1884 H 0.24887 0.61477 0.20633 0.0
H1885 H 0.184 0.5608 0.27828 0.0
H1886 H 0.20544 0.57189 0.21335 0.0
H1887 H 0.21871 0.60861 0.26852 0.0
C1888 C 0.23826 0.62475 0.25209 0.0
C1889 C 0.24719 0.62684 0.23461 0.0
C1890 C 0.20074 0.56947 0.22758 0.0
C1891 C 0.22113 0.59693 0.24006 0.0
C1892 C 0.18736 0.55498 0.2308 0.0
C1893 C 0.18057 0.55207 0.24904 0.0
C1894 C 0.20751 0.58086 0.24279 0.0
C1895 C 0.18837 0.5631 0.26391 0.0
C1896 C 0.22532 0.60989 0.25486 0.0
C1897 C 0.24252 0.61364 0.2201 0.0
N1898 N 0.20126 0.5771 0.26046 0.0
N1899 N 0.22979 0.59929 0.22313 0.0
H1900 H 0.88288 0.53291 0.01031 0.0
H1901 H 0.82747 0.62754 0.03668 0.0
H1902 H 0.89894 0.57218 0.05528 0.0
H1903 H 0.80753 0.58756 0.99385 0.0
H1904 H 0.85511 0.60834 0.04161 0.0
H1905 H 0.85668 0.55346 1.00214 0.0
C1906 C 0.88101 0.54588 0.01839 0.0
C1907 C 0.89309 0.55067 0.03365 0.0
C1908 C 0.84479 0.60375 0.03104 0.0
C1909 C 0.86308 0.57426 0.02438 0.0
C1910 C 0.82896 0.61478 0.02817 0.0
C1911 C 0.81505 0.60917 0.01485 0.0
C1912 C 0.84686 0.58683 0.02059 0.0
C1913 C 0.81788 0.59245 1.00426 0.0
C1914 C 0.86598 0.55757 0.01376 0.0
C1915 C 0.88984 0.56764 0.04365 0.0
N1916 N 0.8334 0.58182 1.00743 0.0
N1917 N 0.87521 0.57872 0.03887 0.0
H1918 H 0.14547 0.97125 0.06427 0.0
H1919 H 0.21554 0.93665 0.9824 0.0
H1920 H 0.1431 0.9913 1.00748 0.0
H1921 H 0.21846 0.91811 0.03974 0.0
H1922 H 0.18914 0.95673 0.99119 0.0
H1923 H 0.1723 0.95192 0.05545 0.0
C1924 C 0.15066 0.97175 0.04997 0.0
C1925 C 0.14194 0.9831 0.03665 0.0
C1926 C 0.19558 0.94829 1.00185 0.0
C1927 C 0.17272 0.96057 0.02633 0.0
C1928 C 0.21071 0.9368 0.99685 0.0
C1929 C 0.21936 0.92559 0.01033 0.0
C1930 C 0.18894 0.94865 0.02048 0.0
C1931 C 0.21233 0.92644 0.02882 0.0
C1932 C 0.16595 0.96056 0.0449 0.0
C1933 C 0.14915 0.9827 0.01821 0.0
N1934 N 0.19758 0.93771 0.03331 0.0
N1935 N 0.16409 0.97167 0.01362 0.0
loop_
_geom_bond_atom_site_label_1
_geom_bond_atom_site_label_2
_geom_bond_distance
_geom_bond_site_symmetry_2
_ccdc_geom_bond_type
C0 C1 1.264 . S
C0 C5 1.479 . S
C0 C10 1.465 1_655 S
C1 C0 1.264 . S
C1 C3 1.339 . S
C1 H28 0.931 1_645 S
C2 C3 1.395 . S
C2 C4 1.320 . S
C3 C1 1.339 . S
C3 C2 1.395 . S
C3 H29 0.929 1_545 S
C4 C2 1.320 . S
C4 C5 1.405 . S
C4 H30 0.930 . S
C5 C0 1.479 . S
C5 C4 1.405 . S
C5 H31 0.931 . S
U6 O7 2.454 . S
U6 O8 2.458 . S
U6 C9 2.984 . S
U6 C10 2.847 . S
U6 C23 2.882 . S
U6 O24 2.441 . S
U6 O25 2.420 . S
U6 O26 2.455 . S
U6 O27 2.476 . S
O7 U6 2.454 . S
O7 C9 1.353 . S
O8 U6 2.458 . S
O8 C9 1.286 . S
C9 U6 2.984 . S
C9 O7 1.353 . S
C9 O8 1.286 . S
C9 C11 1.363 1_554 S
C10 C0 1.465 1_455 S
C10 U6 2.847 . S
C10 O24 1.249 . S
C10 O25 1.202 . S
C11 C9 1.363 1_556 S
C11 C13 1.408 . S
C11 C16 1.342 . S
C12 C13 1.310 . S
C12 C15 1.461 . S
C12 H32 0.932 . S
C13 C11 1.408 . S
C13 C12 1.310 . S
C13 H33 0.930 1_556 S
C14 C15 1.474 . S
C14 C16 1.285 . S
C14 H34 0.929 . S
C15 C12 1.461 . S
C15 C14 1.474 . S
C16 C11 1.342 . S
C16 C14 1.285 . S
C16 H35 0.930 . S
C17 C20 1.424 . S
C17 C22 1.245 . S
C17 C23 1.428 1_565 S
C18 C21 1.260 . S
C18 C22 1.477 . S
C18 H36 0.931 . S
C19 C20 1.384 . S
C19 C21 1.479 . S
C19 H37 0.929 . S
C20 C17 1.424 . S
C20 C19 1.384 . S
C20 H38 0.928 . S
C21 C18 1.260 . S
C21 C19 1.479 . S
C22 C17 1.245 . S
C22 C18 1.477 . S
C22 H39 0.932 1_565 S
C23 U6 2.882 . S
C23 C17 1.428 1_545 S
C23 O26 1.301 . S
C23 O27 1.288 . S
O24 U6 2.441 . S
O24 C10 1.249 . S
O25 U6 2.420 . S
O25 C10 1.202 . S
O26 U6 2.455 . S
O26 C23 1.301 . S
O27 U6 2.476 . S
O27 C23 1.288 . S
H28 C1 0.931 1_465 S
H29 C3 0.929 1_565 S
H30 C4 0.930 . S
H31 C5 0.931 . S
H32 C12 0.932 . S
H33 C13 0.930 1_554 S
H34 C14 0.929 . S
H35 C16 0.930 . S
H36 C18 0.931 . S
H37 C19 0.929 . S
H38 C20 0.928 . S
H39 C22 0.932 1_545 S
C40 C41 1.264 . S
C40 C45 1.479 . S
C40 C50 1.465 . S
C41 C40 1.264 . S
C41 C43 1.339 . S
C41 H68 0.931 . S
C42 C43 1.395 . S
C42 C44 1.320 . S
C43 C41 1.339 . S
C43 C42 1.395 . S
C43 H69 0.929 . S
C44 C42 1.320 . S
C44 C45 1.405 . S
C44 H70 0.930 . S
C45 C40 1.479 . S
C45 C44 1.405 . S
C45 H71 0.931 . S
U46 O47 2.454 . S
U46 O48 2.458 . S
U46 C49 2.984 . S
U46 C50 2.847 . S
U46 C63 2.882 . S
U46 O64 2.441 . S
U46 O65 2.420 . S
U46 O66 2.455 . S
U46 O67 2.449 . S
O47 U46 2.454 . S
O47 C49 1.353 . S
O48 U46 2.458 . S
O48 C49 1.286 . S
C49 U46 2.984 . S
C49 O47 1.353 . S
C49 O48 1.286 . S
C49 C51 1.363 . S
C50 C40 1.465 . S
C50 U46 2.847 . S
C50 O64 1.249 . S
C50 O65 1.202 . S
C51 C49 1.363 . S
C51 C53 1.408 . S
C51 C56 1.342 . S
C52 C53 1.310 . S
C52 C55 1.461 . S
C52 H72 0.932 . S
C53 C51 1.408 . S
C53 C52 1.310 . S
C53 H73 0.930 . S
C54 C55 1.474 . S
C54 C56 1.285 . S
C54 H74 0.929 . S
C55 C52 1.461 . S
C55 C54 1.474 . S
C56 C51 1.342 . S
C56 C54 1.285 . S
C56 H75 0.930 . S
C57 C60 1.424 . S
C57 C62 1.245 . S
C57 C63 1.428 . S
C58 C61 1.260 . S
C58 C62 1.477 . S
C58 H76 0.932 . S
C59 C60 1.384 . S
C59 C61 1.479 . S
C59 H77 0.929 . S
C60 C57 1.424 . S
C60 C59 1.384 . S
C60 H78 0.928 . S
C61 C58 1.260 . S
C61 C59 1.479 . S
C62 C57 1.245 . S
C62 C58 1.477 . S
C62 H79 0.932 . S
C63 U46 2.882 . S
C63 C57 1.428 . S
C63 O66 1.301 . S
C63 O67 1.282 . S
O64 U46 2.441 . S
O64 C50 1.249 . S
O65 U46 2.420 . S
O65 C50 1.202 . S
O66 U46 2.455 . S
O66 C63 1.301 . S
O67 U46 2.449 . S
O67 C63 1.282 . S
H68 C41 0.931 . S
H69 C43 0.929 . S
H70 C44 0.930 . S
H71 C45 0.931 . S
H72 C52 0.932 . S
H73 C53 0.930 . S
H74 C54 0.929 . S
H75 C56 0.930 . S
H76 C58 0.932 . S
H77 C59 0.929 . S
H78 C60 0.928 . S
H79 C62 0.932 . S
C80 C81 1.264 . S
C80 C85 1.479 . S
C80 C90 1.465 1_556 S
C81 C80 1.264 . S
C81 C83 1.338 1_655 S
C81 H108 0.931 1_656 S
C82 C83 1.391 1_655 S
C82 C84 1.320 . S
C83 C81 1.338 1_455 S
C83 C82 1.391 1_455 S
C83 H109 0.933 . S
C84 C82 1.320 . S
C84 C85 1.405 . S
C84 H110 0.930 . S
C85 C80 1.479 . S
C85 C84 1.405 . S
C85 H111 0.931 . S
U86 O87 2.454 . S
U86 O88 2.458 . S
U86 C89 2.984 . S
U86 C90 2.847 . S
U86 C103 2.882 1_655 S
U86 O104 2.484 . S
U86 O105 2.420 . S
U86 O106 2.455 . S
U86 O107 2.449 1_655 S
O87 U86 2.454 . S
O87 C89 1.353 . S
O88 U86 2.458 . S
O88 C89 1.286 . S
C89 U86 2.984 . S
C89 O87 1.353 . S
C89 O88 1.286 . S
C89 C91 1.363 . S
C90 C80 1.465 1_554 S
C90 U86 2.847 . S
C90 O104 1.255 . S
C90 O105 1.202 . S
C91 C89 1.363 . S
C91 C93 1.408 . S
C91 C96 1.342 . S
C92 C93 1.310 . S
C92 C95 1.461 . S
C92 H112 0.932 1_554 S
C93 C91 1.408 . S
C93 C92 1.310 . S
C93 H113 0.926 . S
C94 C95 1.474 . S
C94 C96 1.285 . S
C94 H114 0.929 . S
C95 C92 1.461 . S
C95 C94 1.474 . S
C96 C91 1.342 . S
C96 C94 1.285 . S
C96 H115 0.930 . S
C97 C100 1.424 . S
C97 C102 1.245 . S
C97 C103 1.428 . S
C98 C101 1.260 . S
C98 C102 1.477 . S
C98 H116 0.932 . S
C99 C100 1.384 . S
C99 C101 1.479 . S
C99 H117 0.929 . S
C100 C97 1.424 . S
C100 C99 1.384 . S
C100 H118 0.928 . S
C101 C98 1.260 . S
C101 C99 1.479 . S
C102 C97 1.245 . S
C102 C98 1.477 . S
C102 H119 0.884 1_455 S
C103 U86 2.882 1_455 S
C103 C97 1.428 . S
C103 O106 1.301 1_455 S
C103 O107 1.282 . S
O104 U86 2.484 . S
O104 C90 1.255 . S
O105 U86 2.420 . S
O105 C90 1.202 . S
O106 U86 2.455 . S
O106 C103 1.301 1_655 S
O107 U86 2.449 1_455 S
O107 C103 1.282 . S
H108 C81 0.931 1_454 S
H109 C83 0.933 . S
H110 C84 0.930 . S
H111 C85 0.931 . S
H112 C92 0.932 1_556 S
H113 C93 0.926 . S
H114 C94 0.929 . S
H115 C96 0.930 . S
H116 C98 0.932 . S
H117 C99 0.929 . S
H118 C100 0.928 . S
H119 C102 0.884 1_655 S
C120 C121 1.264 . S
C120 C125 1.479 . S
C120 C130 1.465 . S
C121 C120 1.264 . S
C121 C123 1.339 . S
C121 H148 0.931 . S
C122 C123 1.395 . S
C122 C124 1.320 . S
C123 C121 1.339 . S
C123 C122 1.395 . S
C123 H149 0.929 . S
C124 C122 1.320 . S
C124 C125 1.405 . S
C124 H150 0.930 . S
C125 C120 1.479 . S
C125 C124 1.405 . S
C125 H151 0.931 . S
U126 O127 2.454 . S
U126 O128 2.458 . S
U126 C129 2.984 . S
U126 C130 2.847 . S
U126 C143 2.882 . S
U126 O144 2.441 . S
U126 O145 2.420 . S
U126 O146 2.455 . S
U126 O147 2.449 . S
O127 U126 2.454 . S
O127 C129 1.353 . S
O128 U126 2.458 . S
O128 C129 1.286 . S
C129 U126 2.984 . S
C129 O127 1.353 . S
C129 O128 1.286 . S
C129 C131 1.363 . S
C130 C120 1.465 . S
C130 U126 2.847 . S
C130 O144 1.249 . S
C130 O145 1.202 . S
C131 C129 1.363 . S
C131 C133 1.408 . S
C131 C136 1.342 . S
C132 C133 1.310 . S
C132 C135 1.461 . S
C132 H152 0.932 . S
C133 C131 1.408 . S
C133 C132 1.310 . S
C133 H153 0.930 . S
C134 C135 1.474 . S
C134 C136 1.285 . S
C134 H154 0.929 . S
C135 C132 1.461 . S
C135 C134 1.474 . S
C136 C131 1.342 . S
C136 C134 1.285 . S
C136 H155 0.930 . S
C137 C140 1.424 . S
C137 C142 1.245 . S
C137 C143 1.428 . S
C138 C141 1.260 . S
C138 C142 1.477 . S
C138 H156 0.932 . S
C139 C140 1.384 . S
C139 C141 1.479 . S
C139 H157 0.929 . S
C140 C137 1.424 . S
C140 C139 1.384 . S
C140 H158 0.928 . S
C141 C138 1.260 . S
C141 C139 1.479 . S
C142 C137 1.245 . S
C142 C138 1.477 . S
C142 H159 0.932 . S
C143 U126 2.882 . S
C143 C137 1.428 . S
C143 O146 1.301 . S
C143 O147 1.282 . S
O144 U126 2.441 . S
O144 C130 1.249 . S
O145 U126 2.420 . S
O145 C130 1.202 . S
O146 U126 2.455 . S
O146 C143 1.301 . S
O147 U126 2.449 . S
O147 C143 1.282 . S
H148 C121 0.931 . S
H149 C123 0.929 . S
H150 C124 0.930 . S
H151 C125 0.931 . S
H152 C132 0.932 . S
H153 C133 0.930 . S
H154 C134 0.929 . S
H155 C136 0.930 . S
H156 C138 0.932 . S
H157 C139 0.929 . S
H158 C140 0.928 . S
H159 C142 0.932 . S
C160 C161 1.258 1_655 S
C160 C165 1.479 . S
C160 C170 1.465 1_655 S
C161 C160 1.258 1_455 S
C161 C163 1.310 1_465 S
C161 H188 0.963 1_565 S
C162 C163 1.370 1_565 S
C162 C164 1.320 . S
C163 C161 1.310 1_645 S
C163 C162 1.370 1_545 S
C163 H189 0.960 . S
C164 C162 1.320 . S
C164 C165 1.405 . S
C164 H190 0.930 . S
C165 C160 1.479 . S
C165 C164 1.405 . S
C165 H191 0.931 . S
U166 O167 2.454 . S
U166 O168 2.458 . S
U166 C169 2.984 . S
U166 C170 2.847 . S
U166 C183 2.882 1_565 S
U166 O184 2.441 . S
U166 O185 2.420 . S
U166 O186 2.455 . S
U166 O187 2.449 1_565 S
O167 U166 2.454 . S
O167 C169 1.353 . S
O168 U166 2.458 . S
O168 C169 1.286 . S
C169 U166 2.984 . S
C169 O167 1.353 . S
C169 O168 1.286 . S
C169 C171 1.363 . S
C170 C160 1.465 1_455 S
C170 U166 2.847 . S
C170 O184 1.249 . S
C170 O185 1.202 . S
C171 C169 1.363 . S
C171 C173 1.408 . S
C171 C176 1.342 . S
C172 C173 1.310 . S
C172 C175 1.461 . S
C172 H192 0.932 . S
C173 C171 1.408 . S
C173 C172 1.310 . S
C173 H193 0.930 . S
C174 C175 1.474 . S
C174 C176 1.285 . S
C174 H194 0.929 . S
C175 C172 1.461 . S
C175 C174 1.474 . S
C176 C171 1.342 . S
C176 C174 1.285 . S
C176 H195 0.930 . S
C177 C180 1.424 . S
C177 C182 1.245 . S
C177 C183 1.428 . S
C178 C181 1.260 . S
C178 C182 1.477 . S
C178 H196 0.932 . S
C179 C180 1.384 . S
C179 C181 1.479 . S
C179 H197 0.929 . S
C180 C177 1.424 . S
C180 C179 1.384 . S
C180 H198 0.928 . S
C181 C178 1.260 . S
C181 C179 1.479 . S
C182 C177 1.245 . S
C182 C178 1.477 . S
C182 H199 0.980 . S
C183 U166 2.882 1_545 S
C183 C177 1.428 . S
C183 O186 1.301 1_545 S
C183 O187 1.282 . S
O184 U166 2.441 . S
O184 C170 1.249 . S
O185 U166 2.420 . S
O185 C170 1.202 . S
O186 U166 2.455 . S
O186 C183 1.301 1_565 S
O187 U166 2.449 1_545 S
O187 C183 1.282 . S
H188 C161 0.963 1_545 S
H189 C163 0.960 . S
H190 C164 0.930 . S
H191 C165 0.931 . S
H192 C172 0.932 . S
H193 C173 0.930 . S
H194 C174 0.929 . S
H195 C176 0.930 . S
H196 C178 0.932 . S
H197 C179 0.929 . S
H198 C180 0.928 . S
H199 C182 0.980 . S
C200 C201 1.264 . S
C200 C205 1.479 . S
C200 C210 1.465 . S
C201 C200 1.264 . S
C201 C203 1.339 . S
C201 H228 0.931 . S
C202 C203 1.395 . S
C202 C204 1.320 . S
C203 C201 1.339 . S
C203 C202 1.395 . S
C203 H229 0.929 . S
C204 C202 1.320 . S
C204 C205 1.405 . S
C204 H230 0.930 . S
C205 C200 1.479 . S
C205 C204 1.405 . S
C205 H231 0.931 . S
U206 O207 2.454 . S
U206 O208 2.458 . S
U206 C209 2.984 . S
U206 C210 2.847 . S
U206 C223 2.882 . S
U206 O224 2.441 . S
U206 O225 2.420 . S
U206 O226 2.455 . S
U206 O227 2.449 . S
O207 U206 2.454 . S
O207 C209 1.353 . S
O208 U206 2.458 . S
O208 C209 1.286 . S
C209 U206 2.984 . S
C209 O207 1.353 . S
C209 O208 1.286 . S
C209 C211 1.363 . S
C210 C200 1.465 . S
C210 U206 2.847 . S
C210 O224 1.249 . S
C210 O225 1.202 . S
C211 C209 1.363 . S
C211 C213 1.408 . S
C211 C216 1.342 . S
C212 C213 1.310 . S
C212 C215 1.461 . S
C212 H232 0.932 . S
C213 C211 1.408 . S
C213 C212 1.310 . S
C213 H233 0.930 . S
C214 C215 1.474 . S
C214 C216 1.285 . S
C214 H234 0.929 . S
C215 C212 1.461 . S
C215 C214 1.474 . S
C216 C211 1.342 . S
C216 C214 1.285 . S
C216 H235 0.930 . S
C217 C220 1.424 . S
C217 C222 1.245 . S
C217 C223 1.428 . S
C218 C221 1.260 . S
C218 C222 1.477 . S
C218 H236 0.932 . S
C219 C220 1.384 . S
C219 C221 1.479 . S
C219 H237 0.929 . S
C220 C217 1.424 . S
C220 C219 1.384 . S
C220 H238 0.928 . S
C221 C218 1.260 . S
C221 C219 1.479 . S
C222 C217 1.245 . S
C222 C218 1.477 . S
C222 H239 0.932 . S
C223 U206 2.882 . S
C223 C217 1.428 . S
C223 O226 1.301 . S
C223 O227 1.282 . S
O224 U206 2.441 . S
O224 C210 1.249 . S
O225 U206 2.420 . S
O225 C210 1.202 . S
O226 U206 2.455 . S
O226 C223 1.301 . S
O227 U206 2.449 . S
O227 C223 1.282 . S
H228 C201 0.931 . S
H229 C203 0.929 . S
H230 C204 0.930 . S
H231 C205 0.931 . S
H232 C212 0.932 . S
H233 C213 0.930 . S
H234 C214 0.929 . S
H235 C216 0.930 . S
H236 C218 0.932 . S
H237 C219 0.929 . S
H238 C220 0.928 . S
H239 C222 0.932 . S
C240 C241 1.264 1_655 S
C240 C245 1.479 . S
C240 C250 1.465 . S
C241 C240 1.264 1_455 S
C241 C243 1.339 . S
C241 H268 0.931 . S
C242 C243 1.395 1_655 S
C242 C244 1.320 . S
C243 C241 1.339 . S
C243 C242 1.395 1_455 S
C243 H269 0.929 . S
C244 C242 1.320 . S
C244 C245 1.405 . S
C244 H270 0.930 . S
C245 C240 1.479 . S
C245 C244 1.405 . S
C245 H271 0.931 . S
U246 O247 2.454 . S
U246 O248 2.458 . S
U246 C249 2.984 . S
U246 C250 2.847 . S
U246 C263 2.882 1_655 S
U246 O264 2.441 . S
U246 O265 2.420 . S
U246 O266 2.455 . S
U246 O267 2.449 1_655 S
O247 U246 2.454 . S
O247 C249 1.353 . S
O248 U246 2.458 . S
O248 C249 1.286 . S
C249 U246 2.984 . S
C249 O247 1.353 . S
C249 O248 1.286 . S
C249 C251 1.363 . S
C250 C240 1.465 . S
C250 U246 2.847 . S
C250 O264 1.249 . S
C250 O265 1.202 . S
C251 C249 1.363 . S
C251 C253 1.408 . S
C251 C256 1.342 . S
C252 C253 1.310 . S
C252 C255 1.461 . S
C252 H272 0.932 . S
C253 C251 1.408 . S
C253 C252 1.310 . S
C253 H273 0.930 . S
C254 C255 1.474 . S
C254 C256 1.285 . S
C254 H274 0.929 . S
C255 C252 1.461 . S
C255 C254 1.474 . S
C256 C251 1.342 . S
C256 C254 1.285 . S
C256 H275 0.930 . S
C257 C260 1.424 . S
C257 C262 1.245 . S
C257 C263 1.428 . S
C258 C261 1.260 . S
C258 C262 1.477 . S
C258 H276 0.932 . S
C259 C260 1.384 . S
C259 C261 1.479 . S
C259 H277 0.929 . S
C260 C257 1.424 . S
C260 C259 1.384 . S
C260 H278 0.928 . S
C261 C258 1.260 . S
C261 C259 1.479 . S
C262 C257 1.245 . S
C262 C258 1.477 . S
C262 H279 0.932 . S
C263 U246 2.882 1_455 S
C263 C257 1.428 . S
C263 O266 1.301 1_455 S
C263 O267 1.282 . S
O264 U246 2.441 . S
O264 C250 1.249 . S
O265 U246 2.420 . S
O265 C250 1.202 . S
O266 U246 2.455 . S
O266 C263 1.301 1_655 S
O267 U246 2.449 1_455 S
O267 C263 1.282 . S
H268 C241 0.931 . S
H269 C243 0.929 . S
H270 C244 0.930 . S
H271 C245 0.931 . S
H272 C252 0.932 . S
H273 C253 0.930 . S
H274 C254 0.929 . S
H275 C256 0.930 . S
H276 C258 0.932 . S
H277 C259 0.929 . S
H278 C260 0.928 . S
H279 C262 0.932 . S
C280 C281 1.264 . S
C280 C285 1.479 . S
C280 C290 1.465 . S
C281 C280 1.264 . S
C281 C283 1.339 . S
C281 H308 0.931 . S
C282 C283 1.395 . S
C282 C284 1.320 . S
C283 C281 1.339 . S
C283 C282 1.395 . S
C283 H309 0.929 . S
C284 C282 1.320 . S
C284 C285 1.405 . S
C284 H310 0.930 . S
C285 C280 1.479 . S
C285 C284 1.405 . S
C285 H311 0.931 . S
U286 O287 2.454 . S
U286 O288 2.458 . S
U286 C289 2.984 . S
U286 C290 2.847 . S
U286 C303 2.882 . S
U286 O304 2.441 . S
U286 O305 2.420 . S
U286 O306 2.455 . S
U286 O307 2.449 . S
O287 U286 2.454 . S
O287 C289 1.353 . S
O288 U286 2.458 . S
O288 C289 1.286 . S
C289 U286 2.984 . S
C289 O287 1.353 . S
C289 O288 1.286 . S
C289 C291 1.363 . S
C290 C280 1.465 . S
C290 U286 2.847 . S
C290 O304 1.249 . S
C290 O305 1.202 . S
C291 C289 1.363 . S
C291 C293 1.408 . S
C291 C296 1.342 . S
C292 C293 1.310 . S
C292 C295 1.461 . S
C292 H312 0.932 . S
C293 C291 1.408 . S
C293 C292 1.310 . S
C293 H313 0.930 . S
C294 C295 1.474 . S
C294 C296 1.285 . S
C294 H314 0.929 . S
C295 C292 1.461 . S
C295 C294 1.474 . S
C296 C291 1.342 . S
C296 C294 1.285 . S
C296 H315 0.930 . S
C297 C300 1.424 . S
C297 C302 1.245 . S
C297 C303 1.428 . S
C298 C301 1.260 . S
C298 C302 1.477 . S
C298 H316 0.932 . S
C299 C300 1.384 . S
C299 C301 1.479 . S
C299 H317 0.929 . S
C300 C297 1.424 . S
C300 C299 1.384 . S
C300 H318 0.928 . S
C301 C298 1.260 . S
C301 C299 1.479 . S
C302 C297 1.245 . S
C302 C298 1.477 . S
C302 H319 0.932 . S
C303 U286 2.882 . S
C303 C297 1.428 . S
C303 O306 1.301 . S
C303 O307 1.282 . S
O304 U286 2.441 . S
O304 C290 1.249 . S
O305 U286 2.420 . S
O305 C290 1.202 . S
O306 U286 2.455 . S
O306 C303 1.301 . S
O307 U286 2.449 . S
O307 C303 1.282 . S
H308 C281 0.931 . S
H309 C283 0.929 . S
H310 C284 0.930 . S
H311 C285 0.931 . S
H312 C292 0.932 . S
H313 C293 0.930 . S
H314 C294 0.929 . S
H315 C296 0.930 . S
H316 C298 0.932 . S
H317 C299 0.929 . S
H318 C300 0.928 . S
H319 C302 0.932 . S
C320 C321 1.264 . S
C320 C325 1.479 . S
C320 C330 1.465 . S
C321 C320 1.264 . S
C321 C323 1.339 . S
C321 H348 0.931 . S
C322 C323 1.395 . S
C322 C324 1.320 . S
C323 C321 1.339 . S
C323 C322 1.395 . S
C323 H349 0.929 . S
C324 C322 1.320 . S
C324 C325 1.405 . S
C324 H350 0.930 . S
C325 C320 1.479 . S
C325 C324 1.405 . S
C325 H351 0.931 . S
U326 O327 2.454 . S
U326 O328 2.458 . S
U326 C329 2.984 . S
U326 C330 2.847 . S
U326 C343 2.882 . S
U326 O344 2.441 . S
U326 O345 2.420 . S
U326 O346 2.455 . S
U326 O347 2.449 . S
O327 U326 2.454 . S
O327 C329 1.353 . S
O328 U326 2.458 . S
O328 C329 1.286 . S
C329 U326 2.984 . S
C329 O327 1.353 . S
C329 O328 1.286 . S
C329 C331 1.363 . S
C330 C320 1.465 . S
C330 U326 2.847 . S
C330 O344 1.249 . S
C330 O345 1.202 . S
C331 C329 1.363 . S
C331 C333 1.408 . S
C331 C336 1.342 . S
C332 C333 1.310 . S
C332 C335 1.461 . S
C332 H352 0.932 . S
C333 C331 1.408 . S
C333 C332 1.310 . S
C333 H353 0.930 . S
C334 C335 1.474 . S
C334 C336 1.285 . S
C334 H354 0.929 . S
C335 C332 1.461 . S
C335 C334 1.474 . S
C336 C331 1.342 . S
C336 C334 1.285 . S
C336 H355 0.930 . S
C337 C340 1.424 . S
C337 C342 1.245 . S
C337 C343 1.428 . S
C338 C341 1.260 . S
C338 C342 1.477 . S
C338 H356 0.932 . S
C339 C340 1.384 . S
C339 C341 1.479 . S
C339 H357 0.929 . S
C340 C337 1.424 . S
C340 C339 1.384 . S
C340 H358 0.928 . S
C341 C338 1.260 . S
C341 C339 1.479 . S
C342 C337 1.245 . S
C342 C338 1.477 . S
C342 H359 0.932 . S
C343 U326 2.882 . S
C343 C337 1.428 . S
C343 O346 1.301 . S
C343 O347 1.282 . S
O344 U326 2.441 . S
O344 C330 1.249 . S
O345 U326 2.420 . S
O345 C330 1.202 . S
O346 U326 2.455 . S
O346 C343 1.301 . S
O347 U326 2.449 . S
O347 C343 1.282 . S
H348 C321 0.931 . S
H349 C323 0.929 . S
H350 C324 0.930 . S
H351 C325 0.931 . S
H352 C332 0.932 . S
H353 C333 0.930 . S
H354 C334 0.929 . S
H355 C336 0.930 . S
H356 C338 0.932 . S
H357 C339 0.929 . S
H358 C340 0.928 . S
H359 C342 0.932 . S
C360 C361 1.264 . S
C360 C365 1.479 . S
C360 C370 1.465 . S
C361 C360 1.264 . S
C361 C363 1.339 . S
C361 H388 0.931 . S
C362 C363 1.395 . S
C362 C364 1.320 . S
C363 C361 1.339 . S
C363 C362 1.395 . S
C363 H389 0.929 . S
C364 C362 1.320 . S
C364 C365 1.405 . S
C364 H390 0.930 . S
C365 C360 1.479 . S
C365 C364 1.405 . S
C365 H391 0.931 . S
U366 O367 2.454 . S
U366 O368 2.491 . S
U366 C369 2.984 . S
U366 C370 2.847 . S
U366 C383 2.882 . S
U366 O384 2.441 . S
U366 O385 2.420 . S
U366 O386 2.455 . S
U366 O387 2.449 . S
O367 U366 2.454 . S
O367 C369 1.353 . S
O368 U366 2.491 . S
O368 C369 1.287 . S
C369 U366 2.984 . S
C369 O367 1.353 . S
C369 O368 1.287 . S
C369 C371 1.363 1_565 S
C370 C360 1.465 . S
C370 U366 2.847 . S
C370 O384 1.249 . S
C370 O385 1.202 . S
C371 C369 1.363 1_545 S
C371 C373 1.408 . S
C371 C376 1.342 . S
C372 C373 1.310 . S
C372 C375 1.461 . S
C372 H392 0.932 . S
C373 C371 1.408 . S
C373 C372 1.310 . S
C373 H393 0.930 1_545 S
C374 C375 1.474 . S
C374 C376 1.285 . S
C374 H394 0.929 . S
C375 C372 1.461 . S
C375 C374 1.474 . S
C376 C371 1.342 . S
C376 C374 1.285 . S
C376 H395 0.930 . S
C377 C380 1.424 . S
C377 C382 1.245 . S
C377 C383 1.428 . S
C378 C381 1.260 . S
C378 C382 1.477 . S
C378 H396 0.932 1_565 S
C379 C380 1.384 . S
C379 C381 1.479 . S
C379 H397 0.929 . S
C380 C377 1.424 . S
C380 C379 1.384 . S
C380 H398 0.928 . S
C381 C378 1.260 . S
C381 C379 1.479 . S
C382 C377 1.245 . S
C382 C378 1.477 . S
C382 H399 0.932 1_565 S
C383 U366 2.882 . S
C383 C377 1.428 . S
C383 O386 1.301 . S
C383 O387 1.282 . S
O384 U366 2.441 . S
O384 C370 1.249 . S
O385 U366 2.420 . S
O385 C370 1.202 . S
O386 U366 2.455 . S
O386 C383 1.301 . S
O387 U366 2.449 . S
O387 C383 1.282 . S
H388 C361 0.931 . S
H389 C363 0.929 . S
H390 C364 0.930 . S
H391 C365 0.931 . S
H392 C372 0.932 . S
H393 C373 0.930 1_565 S
H394 C374 0.929 . S
H395 C376 0.930 . S
H396 C378 0.932 1_545 S
H397 C379 0.929 . S
H398 C380 0.928 . S
H399 C382 0.932 1_545 S
C400 C401 1.264 . S
C400 C405 1.479 . S
C400 C410 1.465 . S
C401 C400 1.264 . S
C401 C403 1.339 . S
C401 H428 0.931 . S
C402 C403 1.395 . S
C402 C404 1.320 . S
C403 C401 1.339 . S
C403 C402 1.395 . S
C403 H429 0.929 . S
C404 C402 1.320 . S
C404 C405 1.405 . S
C404 H430 0.930 . S
C405 C400 1.479 . S
C405 C404 1.405 . S
C405 H431 0.931 . S
U406 O407 2.454 . S
U406 O408 2.458 . S
U406 C409 2.984 . S
U406 C410 2.847 . S
U406 C423 2.882 . S
U406 O424 2.441 . S
U406 O425 2.420 . S
U406 O426 2.455 . S
U406 O427 2.449 . S
O407 U406 2.454 . S
O407 C409 1.353 . S
O408 U406 2.458 . S
O408 C409 1.286 . S
C409 U406 2.984 . S
C409 O407 1.353 . S
C409 O408 1.286 . S
C409 C411 1.363 . S
C410 C400 1.465 . S
C410 U406 2.847 . S
C410 O424 1.249 . S
C410 O425 1.202 . S
C411 C409 1.363 . S
C411 C413 1.408 . S
C411 C416 1.342 . S
C412 C413 1.310 . S
C412 C415 1.461 . S
C412 H432 0.932 . S
C413 C411 1.408 . S
C413 C412 1.310 . S
C413 H433 0.930 . S
C414 C415 1.474 . S
C414 C416 1.285 . S
C414 H434 0.929 . S
C415 C412 1.461 . S
C415 C414 1.474 . S
C416 C411 1.342 . S
C416 C414 1.285 . S
C416 H435 0.930 . S
C417 C420 1.424 . S
C417 C422 1.245 . S
C417 C423 1.428 . S
C418 C421 1.260 . S
C418 C422 1.477 . S
C418 H436 0.932 . S
C419 C420 1.384 . S
C419 C421 1.479 . S
C419 H437 0.929 . S
C420 C417 1.424 . S
C420 C419 1.384 . S
C420 H438 0.928 . S
C421 C418 1.260 . S
C421 C419 1.479 . S
C422 C417 1.245 . S
C422 C418 1.477 . S
C422 H439 0.932 . S
C423 U406 2.882 . S
C423 C417 1.428 . S
C423 O426 1.301 . S
C423 O427 1.282 . S
O424 U406 2.441 . S
O424 C410 1.249 . S
O425 U406 2.420 . S
O425 C410 1.202 . S
O426 U406 2.455 . S
O426 C423 1.301 . S
O427 U406 2.449 . S
O427 C423 1.282 . S
H428 C401 0.931 . S
H429 C403 0.929 . S
H430 C404 0.930 . S
H431 C405 0.931 . S
H432 C412 0.932 . S
H433 C413 0.930 . S
H434 C414 0.929 . S
H435 C416 0.930 . S
H436 C418 0.932 . S
H437 C419 0.929 . S
H438 C420 0.928 . S
H439 C422 0.932 . S
C440 C441 1.264 . S
C440 C445 1.479 . S
C440 C450 1.465 . S
C441 C440 1.264 . S
C441 C443 1.339 . S
C441 H468 0.931 . S
C442 C443 1.395 . S
C442 C444 1.320 . S
C443 C441 1.339 . S
C443 C442 1.395 . S
C443 H469 0.929 . S
C444 C442 1.320 . S
C444 C445 1.405 . S
C444 H470 0.930 . S
C445 C440 1.479 . S
C445 C444 1.405 . S
C445 H471 0.931 . S
U446 O447 2.454 . S
U446 O448 2.458 . S
U446 C449 2.984 . S
U446 C450 2.847 . S
U446 C463 2.882 . S
U446 O464 2.441 . S
U446 O465 2.420 . S
U446 O466 2.455 . S
U446 O467 2.449 . S
O447 U446 2.454 . S
O447 C449 1.353 . S
O448 U446 2.458 . S
O448 C449 1.286 . S
C449 U446 2.984 . S
C449 O447 1.353 . S
C449 O448 1.286 . S
C449 C451 1.363 . S
C450 C440 1.465 . S
C450 U446 2.847 . S
C450 O464 1.249 . S
C450 O465 1.202 . S
C451 C449 1.363 . S
C451 C453 1.408 . S
C451 C456 1.342 . S
C452 C453 1.310 . S
C452 C455 1.461 . S
C452 H472 0.932 . S
C453 C451 1.408 . S
C453 C452 1.310 . S
C453 H473 0.930 . S
C454 C455 1.474 . S
C454 C456 1.285 . S
C454 H474 0.929 . S
C455 C452 1.461 . S
C455 C454 1.474 . S
C456 C451 1.342 . S
C456 C454 1.285 . S
C456 H475 0.930 . S
C457 C460 1.424 . S
C457 C462 1.245 . S
C457 C463 1.428 . S
C458 C461 1.260 . S
C458 C462 1.477 . S
C458 H476 0.932 . S
C459 C460 1.384 . S
C459 C461 1.479 . S
C459 H477 0.929 . S
C460 C457 1.424 . S
C460 C459 1.384 . S
C460 H478 0.928 . S
C461 C458 1.260 . S
C461 C459 1.479 . S
C462 C457 1.245 . S
C462 C458 1.477 . S
C462 H479 0.932 . S
C463 U446 2.882 . S
C463 C457 1.428 . S
C463 O466 1.301 . S
C463 O467 1.282 . S
O464 U446 2.441 . S
O464 C450 1.249 . S
O465 U446 2.420 . S
O465 C450 1.202 . S
O466 U446 2.455 . S
O466 C463 1.301 . S
O467 U446 2.449 . S
O467 C463 1.282 . S
H468 C441 0.931 . S
H469 C443 0.929 . S
H470 C444 0.930 . S
H471 C445 0.931 . S
H472 C452 0.932 . S
H473 C453 0.930 . S
H474 C454 0.929 . S
H475 C456 0.930 . S
H476 C458 0.932 . S
H477 C459 0.929 . S
H478 C460 0.928 . S
H479 C462 0.932 . S
C480 C481 1.264 . S
C480 C485 1.479 . S
C480 C490 1.465 . S
C481 C480 1.264 . S
C481 C483 1.339 . S
C481 H508 0.931 . S
C482 C483 1.395 . S
C482 C484 1.320 . S
C483 C481 1.339 . S
C483 C482 1.395 . S
C483 H509 0.929 . S
C484 C482 1.320 . S
C484 C485 1.405 . S
C484 H510 0.930 . S
C485 C480 1.479 . S
C485 C484 1.405 . S
C485 H511 0.931 . S
U486 O487 2.454 . S
U486 O488 2.458 . S
U486 C489 2.984 . S
U486 C490 2.847 . S
U486 C503 2.882 . S
U486 O504 2.441 . S
U486 O505 2.420 . S
U486 O506 2.455 . S
U486 O507 2.449 . S
O487 U486 2.454 . S
O487 C489 1.353 . S
O488 U486 2.458 . S
O488 C489 1.286 . S
C489 U486 2.984 . S
C489 O487 1.353 . S
C489 O488 1.286 . S
C489 C491 1.363 . S
C490 C480 1.465 . S
C490 U486 2.847 . S
C490 O504 1.249 . S
C490 O505 1.202 . S
C491 C489 1.363 . S
C491 C493 1.408 . S
C491 C496 1.342 . S
C492 C493 1.310 . S
C492 C495 1.461 . S
C492 H512 0.932 . S
C493 C491 1.408 . S
C493 C492 1.310 . S
C493 H513 0.930 . S
C494 C495 1.474 . S
C494 C496 1.285 . S
C494 H514 0.929 . S
C495 C492 1.461 . S
C495 C494 1.474 . S
C496 C491 1.342 . S
C496 C494 1.285 . S
C496 H515 0.930 . S
C497 C500 1.424 . S
C497 C502 1.245 . S
C497 C503 1.428 . S
C498 C501 1.260 . S
C498 C502 1.477 . S
C498 H516 0.932 . S
C499 C500 1.384 . S
C499 C501 1.479 . S
C499 H517 0.929 . S
C500 C497 1.424 . S
C500 C499 1.384 . S
C500 H518 0.928 . S
C501 C498 1.260 . S
C501 C499 1.479 . S
C502 C497 1.245 . S
C502 C498 1.477 . S
C502 H519 0.932 . S
C503 U486 2.882 . S
C503 C497 1.428 . S
C503 O506 1.301 . S
C503 O507 1.282 . S
O504 U486 2.441 . S
O504 C490 1.249 . S
O505 U486 2.420 . S
O505 C490 1.202 . S
O506 U486 2.455 . S
O506 C503 1.301 . S
O507 U486 2.449 . S
O507 C503 1.282 . S
H508 C481 0.931 . S
H509 C483 0.929 . S
H510 C484 0.930 . S
H511 C485 0.931 . S
H512 C492 0.932 . S
H513 C493 0.930 . S
H514 C494 0.929 . S
H515 C496 0.930 . S
H516 C498 0.932 . S
H517 C499 0.929 . S
H518 C500 0.928 . S
H519 C502 0.932 . S
C520 C521 1.264 . S
C520 C525 1.479 . S
C520 C530 1.465 . S
C521 C520 1.264 . S
C521 C523 1.339 . S
C521 H548 0.931 . S
C522 C523 1.395 . S
C522 C524 1.320 . S
C523 C521 1.339 . S
C523 C522 1.395 . S
C523 H549 0.929 . S
C524 C522 1.320 . S
C524 C525 1.405 . S
C524 H550 0.930 . S
C525 C520 1.479 . S
C525 C524 1.405 . S
C525 H551 0.931 . S
U526 O527 2.454 . S
U526 O528 2.458 . S
U526 C529 2.984 . S
U526 C530 2.847 . S
U526 C543 2.882 . S
U526 O544 2.441 . S
U526 O545 2.420 . S
U526 O546 2.455 . S
U526 O547 2.449 . S
O527 U526 2.454 . S
O527 C529 1.353 . S
O528 U526 2.458 . S
O528 C529 1.286 . S
C529 U526 2.984 . S
C529 O527 1.353 . S
C529 O528 1.286 . S
C529 C531 1.363 1_556 S
C530 C520 1.465 . S
C530 U526 2.847 . S
C530 O544 1.249 . S
C530 O545 1.202 . S
C531 C529 1.363 1_554 S
C531 C533 1.408 . S
C531 C536 1.342 . S
C532 C533 1.310 . S
C532 C535 1.461 . S
C532 H552 0.932 . S
C533 C531 1.408 . S
C533 C532 1.310 . S
C533 H553 0.930 1_554 S
C534 C535 1.474 . S
C534 C536 1.285 . S
C534 H554 0.929 . S
C535 C532 1.461 . S
C535 C534 1.474 . S
C536 C531 1.342 . S
C536 C534 1.285 . S
C536 H555 0.930 . S
C537 C540 1.424 . S
C537 C542 1.245 . S
C537 C543 1.428 . S
C538 C541 1.260 . S
C538 C542 1.477 . S
C538 H556 0.932 1_556 S
C539 C540 1.384 . S
C539 C541 1.479 . S
C539 H557 0.929 . S
C540 C537 1.424 . S
C540 C539 1.384 . S
C540 H558 0.928 . S
C541 C538 1.260 . S
C541 C539 1.479 . S
C542 C537 1.245 . S
C542 C538 1.477 . S
C542 H559 0.932 1_556 S
C543 U526 2.882 . S
C543 C537 1.428 . S
C543 O546 1.301 . S
C543 O547 1.282 . S
O544 U526 2.441 . S
O544 C530 1.249 . S
O545 U526 2.420 . S
O545 C530 1.202 . S
O546 U526 2.455 . S
O546 C543 1.301 . S
O547 U526 2.449 . S
O547 C543 1.282 . S
H548 C521 0.931 . S
H549 C523 0.929 . S
H550 C524 0.930 . S
H551 C525 0.931 . S
H552 C532 0.932 . S
H553 C533 0.930 1_556 S
H554 C534 0.929 . S
H555 C536 0.930 . S
H556 C538 0.932 1_554 S
H557 C539 0.929 . S
H558 C540 0.928 . S
H559 C542 0.932 1_554 S
C560 C561 1.264 . S
C560 C565 1.479 . S
C560 C570 1.465 . S
C561 C560 1.264 . S
C561 C563 1.339 . S
C561 H588 0.931 . S
C562 C563 1.395 . S
C562 C564 1.320 . S
C563 C561 1.339 . S
C563 C562 1.395 . S
C563 H589 0.929 . S
C564 C562 1.320 . S
C564 C565 1.405 . S
C564 H590 0.930 . S
C565 C560 1.479 . S
C565 C564 1.405 . S
C565 H591 0.931 . S
U566 O567 2.454 . S
U566 O568 2.458 . S
U566 C569 2.984 . S
U566 C570 2.847 . S
U566 C583 2.882 . S
U566 O584 2.441 . S
U566 O585 2.420 . S
U566 O586 2.455 . S
U566 O587 2.449 . S
O567 U566 2.454 . S
O567 C569 1.353 . S
O568 U566 2.458 . S
O568 C569 1.286 . S
C569 U566 2.984 . S
C569 O567 1.353 . S
C569 O568 1.286 . S
C569 C571 1.363 . S
C570 C560 1.465 . S
C570 U566 2.847 . S
C570 O584 1.249 . S
C570 O585 1.202 . S
C571 C569 1.363 . S
C571 C573 1.408 . S
C571 C576 1.342 . S
C572 C573 1.310 . S
C572 C575 1.461 . S
C572 H592 0.932 . S
C573 C571 1.408 . S
C573 C572 1.310 . S
C573 H593 0.930 . S
C574 C575 1.474 . S
C574 C576 1.285 . S
C574 H594 0.929 . S
C575 C572 1.461 . S
C575 C574 1.474 . S
C576 C571 1.342 . S
C576 C574 1.285 . S
C576 H595 0.930 . S
C577 C580 1.424 . S
C577 C582 1.245 . S
C577 C583 1.428 . S
C578 C581 1.260 . S
C578 C582 1.477 . S
C578 H596 0.932 . S
C579 C580 1.384 . S
C579 C581 1.479 . S
C579 H597 0.929 . S
C580 C577 1.424 . S
C580 C579 1.384 . S
C580 H598 0.928 . S
C581 C578 1.260 . S
C581 C579 1.479 . S
C582 C577 1.245 . S
C582 C578 1.477 . S
C582 H599 0.932 . S
C583 U566 2.882 . S
C583 C577 1.428 . S
C583 O586 1.301 . S
C583 O587 1.282 . S
O584 U566 2.441 . S
O584 C570 1.249 . S
O585 U566 2.420 . S
O585 C570 1.202 . S
O586 U566 2.455 . S
O586 C583 1.301 . S
O587 U566 2.449 . S
O587 C583 1.282 . S
H588 C561 0.931 . S
H589 C563 0.929 . S
H590 C564 0.930 . S
H591 C565 0.931 . S
H592 C572 0.932 . S
H593 C573 0.930 . S
H594 C574 0.929 . S
H595 C576 0.930 . S
H596 C578 0.932 . S
H597 C579 0.929 . S
H598 C580 0.928 . S
H599 C582 0.932 . S
C600 C601 1.264 . S
C600 C605 1.479 . S
C600 C610 1.465 . S
C601 C600 1.264 . S
C601 C603 1.339 . S
C601 H628 0.931 . S
C602 C603 1.395 . S
C602 C604 1.320 . S
C603 C601 1.339 . S
C603 C602 1.395 . S
C603 H629 0.929 . S
C604 C602 1.320 . S
C604 C605 1.405 . S
C604 H630 0.930 . S
C605 C600 1.479 . S
C605 C604 1.405 . S
C605 H631 0.931 . S
U606 O607 2.454 . S
U606 O608 2.458 . S
U606 C609 2.984 . S
U606 C610 2.847 1_556 S
U606 C623 2.882 . S
U606 O624 2.441 1_556 S
U606 O625 2.420 . S
U606 O626 2.455 . S
U606 O627 2.449 . S
O607 U606 2.454 . S
O607 C609 1.353 . S
O608 U606 2.458 . S
O608 C609 1.286 . S
C609 U606 2.984 . S
C609 O607 1.353 . S
C609 O608 1.286 . S
C609 C611 1.363 1_545 S
C610 C600 1.465 . S
C610 U606 2.847 1_554 S
C610 O624 1.249 . S
C610 O625 1.202 1_554 S
C611 C609 1.363 1_565 S
C611 C613 1.415 . S
C611 C616 1.342 . S
C612 C613 1.309 1_554 S
C612 C615 1.461 1_554 S
C612 H632 0.932 . S
C613 C611 1.415 . S
C613 C612 1.309 1_556 S
C613 H633 0.924 1_566 S
C614 C615 1.474 . S
C614 C616 1.285 . S
C614 H634 0.929 . S
C615 C612 1.461 1_556 S
C615 C614 1.474 . S
C616 C611 1.342 . S
C616 C614 1.285 . S
C616 H635 0.930 . S
C617 C620 1.424 . S
C617 C622 1.245 . S
C617 C623 1.428 . S
C618 C621 1.260 . S
C618 C622 1.477 . S
C618 H636 0.909 1_545 S
C619 C620 1.384 . S
C619 C621 1.479 . S
C619 H637 0.929 . S
C620 C617 1.424 . S
C620 C619 1.384 . S
C620 H638 0.928 . S
C621 C618 1.260 . S
C621 C619 1.479 . S
C622 C617 1.245 . S
C622 C618 1.477 . S
C622 H639 0.932 . S
C623 U606 2.882 . S
C623 C617 1.428 . S
C623 O626 1.301 . S
C623 O627 1.282 . S
O624 U606 2.441 1_554 S
O624 C610 1.249 . S
O625 U606 2.420 . S
O625 C610 1.202 1_556 S
O626 U606 2.455 . S
O626 C623 1.301 . S
O627 U606 2.449 . S
O627 C623 1.282 . S
H628 C601 0.931 . S
H629 C603 0.929 . S
H630 C604 0.930 . S
H631 C605 0.931 . S
H632 C612 0.932 . S
H633 C613 0.924 1_544 S
H634 C614 0.929 . S
H635 C616 0.930 . S
H636 C618 0.909 1_565 S
H637 C619 0.929 . S
H638 C620 0.928 . S
H639 C622 0.932 . S
Mn640 O645 2.095 . S
Mn640 O655 2.162 . S
Mn640 O656 2.297 . S
Mn640 O664 2.385 . S
Mn640 O665 2.209 1_554 S
Mn640 O666 2.094 . S
Mn641 O646 2.121 . S
Mn641 N648 2.257 . S
Mn641 N657 2.282 . S
Mn641 O665 2.215 . S
Mn641 O667 2.117 . S
C642 O664 1.234 1_556 S
C642 O665 1.283 . S
C643 O655 1.281 . S
C643 O656 1.236 . S
C644 O666 1.240 . S
C644 O667 1.264 1_554 S
O645 Mn640 2.095 . S
O645 C654 1.250 . S
O646 Mn641 2.121 . S
O646 C654 1.258 1_556 S
C647 N648 1.326 . S
C647 C651 1.460 . S
C647 H653 0.929 . S
N648 Mn641 2.257 . S
N648 C647 1.326 . S
N648 C652 1.362 . S
C649 C650 1.258 . S
C649 C652 1.431 . S
C649 C669 1.449 . S
C650 C649 1.258 . S
C650 C651 1.477 . S
C650 H670 0.931 . S
C651 C647 1.460 . S
C651 C650 1.477 . S
C651 H671 0.930 . S
C652 N648 1.362 . S
C652 C649 1.431 . S
C652 C662 1.476 . S
H653 C647 0.929 . S
C654 O645 1.250 . S
C654 O646 1.258 1_554 S
O655 Mn640 2.162 . S
O655 C643 1.281 . S
O656 Mn640 2.297 . S
O656 C643 1.236 . S
N657 Mn641 2.282 . S
N657 C658 1.328 . S
N657 C662 1.318 . S
C658 N657 1.328 . S
C658 C659 1.457 . S
C658 H663 0.929 . S
C659 C658 1.457 . S
C659 C660 1.291 . S
C659 H672 0.931 . S
C660 C659 1.291 . S
C660 C661 1.373 . S
C660 H673 0.929 . S
C661 C660 1.373 . S
C661 C662 1.396 . S
C661 C668 1.403 . S
C662 C652 1.476 . S
C662 N657 1.318 . S
C662 C661 1.396 . S
H663 C658 0.929 . S
O664 Mn640 2.385 . S
O664 C642 1.234 1_554 S
O665 Mn640 2.209 1_556 S
O665 Mn641 2.215 . S
O665 C642 1.283 . S
O666 Mn640 2.094 . S
O666 C644 1.240 . S
O667 Mn641 2.117 . S
O667 C644 1.264 1_556 S
C668 C661 1.403 . S
C668 C669 1.399 . S
C668 H674 0.929 . S
C669 C649 1.449 . S
C669 C668 1.399 . S
C669 H675 0.930 . S
H670 C650 0.931 . S
H671 C651 0.930 . S
H672 C659 0.931 . S
H673 C660 0.929 . S
H674 C668 0.929 . S
H675 C669 0.930 . S
Mn676 O681 2.095 . S
Mn676 O691 2.162 . S
Mn676 O692 2.297 . S
Mn676 O700 2.385 . S
Mn676 O701 2.209 . S
Mn676 O702 2.094 . S
Mn677 O682 2.121 . S
Mn677 N684 2.257 . S
Mn677 N693 2.282 . S
Mn677 O701 2.215 . S
Mn677 O703 2.117 . S
C678 O700 1.234 . S
C678 O701 1.283 . S
C679 O691 1.281 . S
C679 O692 1.236 . S
C680 O702 1.240 . S
C680 O703 1.264 . S
O681 Mn676 2.095 . S
O681 C690 1.250 . S
O682 Mn677 2.121 . S
O682 C690 1.258 . S
C683 N684 1.326 . S
C683 C687 1.460 . S
C683 H689 0.929 . S
N684 Mn677 2.257 . S
N684 C683 1.326 . S
N684 C688 1.362 . S
C685 C686 1.258 . S
C685 C688 1.431 . S
C685 C705 1.449 . S
C686 C685 1.258 . S
C686 C687 1.477 . S
C686 H706 0.931 . S
C687 C683 1.460 . S
C687 C686 1.477 . S
C687 H707 0.930 . S
C688 N684 1.362 . S
C688 C685 1.431 . S
C688 C698 1.476 . S
H689 C683 0.929 . S
C690 O681 1.250 . S
C690 O682 1.258 . S
O691 Mn676 2.162 . S
O691 C679 1.281 . S
O692 Mn676 2.297 . S
O692 C679 1.236 . S
N693 Mn677 2.282 . S
N693 C694 1.328 . S
N693 C698 1.318 . S
C694 N693 1.328 . S
C694 C695 1.457 . S
C694 H699 0.929 . S
C695 C694 1.457 . S
C695 C696 1.291 . S
C695 H708 0.931 . S
C696 C695 1.291 . S
C696 C697 1.373 . S
C696 H709 0.929 . S
C697 C696 1.373 . S
C697 C698 1.396 . S
C697 C704 1.403 . S
C698 C688 1.476 . S
C698 N693 1.318 . S
C698 C697 1.396 . S
H699 C694 0.929 . S
O700 Mn676 2.385 . S
O700 C678 1.234 . S
O701 Mn676 2.209 . S
O701 Mn677 2.215 . S
O701 C678 1.283 . S
O702 Mn676 2.094 . S
O702 C680 1.240 . S
O703 Mn677 2.117 . S
O703 C680 1.264 . S
C704 C697 1.403 . S
C704 C705 1.399 . S
C704 H710 0.929 . S
C705 C685 1.449 . S
C705 C704 1.399 . S
C705 H711 0.930 . S
H706 C686 0.931 . S
H707 C687 0.930 . S
H708 C695 0.931 . S
H709 C696 0.929 . S
H710 C704 0.929 . S
H711 C705 0.930 . S
Mn712 O717 2.095 1_554 S
Mn712 O727 2.162 . S
Mn712 O728 2.297 1_554 S
Mn712 O736 2.385 . S
Mn712 O737 2.209 1_554 S
Mn712 O738 2.094 . S
Mn713 O718 2.121 . S
Mn713 N720 2.257 . S
Mn713 N729 2.282 . S
Mn713 O737 2.215 . S
Mn713 O739 2.117 1_556 S
C714 O736 1.198 1_556 S
C714 O737 1.309 . S
C715 O727 1.281 . S
C715 O728 1.236 1_554 S
C716 O738 1.240 . S
C716 O739 1.264 . S
O717 Mn712 2.095 1_556 S
O717 C726 1.250 . S
O718 Mn713 2.121 . S
O718 C726 1.258 . S
C719 N720 1.326 . S
C719 C723 1.460 . S
C719 H725 0.929 . S
N720 Mn713 2.257 . S
N720 C719 1.326 . S
N720 C724 1.362 . S
C721 C722 1.258 . S
C721 C724 1.431 . S
C721 C741 1.449 . S
C722 C721 1.258 . S
C722 C723 1.477 . S
C722 H742 0.931 . S
C723 C719 1.460 . S
C723 C722 1.477 . S
C723 H743 0.930 . S
C724 N720 1.362 . S
C724 C721 1.431 . S
C724 C734 1.476 . S
H725 C719 0.929 . S
C726 O717 1.250 . S
C726 O718 1.258 . S
O727 Mn712 2.162 . S
O727 C715 1.281 . S
O728 Mn712 2.297 1_556 S
O728 C715 1.236 1_556 S
N729 Mn713 2.282 . S
N729 C730 1.328 1_556 S
N729 C734 1.318 . S
C730 N729 1.328 1_554 S
C730 C731 1.457 . S
C730 H735 0.929 . S
C731 C730 1.457 . S
C731 C732 1.291 . S
C731 H744 0.931 . S
C732 C731 1.291 . S
C732 C733 1.373 1_554 S
C732 H745 0.929 . S
C733 C732 1.373 1_556 S
C733 C734 1.396 . S
C733 C740 1.403 . S
C734 C724 1.476 . S
C734 N729 1.318 . S
C734 C733 1.396 . S
H735 C730 0.929 . S
O736 Mn712 2.385 . S
O736 C714 1.198 1_554 S
O737 Mn712 2.209 1_556 S
O737 Mn713 2.215 . S
O737 C714 1.309 . S
O738 Mn712 2.094 . S
O738 C716 1.240 . S
O739 Mn713 2.117 1_554 S
O739 C716 1.264 . S
C740 C733 1.403 . S
C740 C741 1.399 . S
C740 H746 0.929 . S
C741 C721 1.449 . S
C741 C740 1.399 . S
C741 H747 0.930 . S
H742 C722 0.931 . S
H743 C723 0.930 . S
H744 C731 0.931 . S
H745 C732 0.929 . S
H746 C740 0.929 . S
H747 C741 0.930 . S
Mn748 O753 2.095 . S
Mn748 O763 2.162 . S
Mn748 O764 2.297 . S
Mn748 O772 2.369 1_545 S
Mn748 O773 2.209 1_545 S
Mn748 O774 2.094 . S
Mn749 O754 2.121 . S
Mn749 N756 2.257 . S
Mn749 N765 2.282 . S
Mn749 O773 2.215 . S
Mn749 O775 2.117 . S
C750 O772 1.266 . S
C750 O773 1.283 . S
C751 O763 1.281 . S
C751 O764 1.236 . S
C752 O774 1.240 . S
C752 O775 1.264 1_545 S
O753 Mn748 2.095 . S
O753 C762 1.296 . S
O754 Mn749 2.121 . S
O754 C762 1.201 1_565 S
C755 N756 1.326 . S
C755 C759 1.460 . S
C755 H761 0.929 . S
N756 Mn749 2.257 . S
N756 C755 1.326 . S
N756 C760 1.362 . S
C757 C758 1.258 . S
C757 C760 1.431 . S
C757 C777 1.449 . S
C758 C757 1.258 . S
C758 C759 1.477 . S
C758 H778 0.931 . S
C759 C755 1.460 . S
C759 C758 1.477 . S
C759 H779 0.930 . S
C760 N756 1.362 . S
C760 C757 1.431 . S
C760 C770 1.476 . S
H761 C755 0.929 . S
C762 O753 1.296 . S
C762 O754 1.201 1_545 S
O763 Mn748 2.162 . S
O763 C751 1.281 . S
O764 Mn748 2.297 . S
O764 C751 1.236 . S
N765 Mn749 2.282 . S
N765 C766 1.328 . S
N765 C770 1.318 . S
C766 N765 1.328 . S
C766 C767 1.457 . S
C766 H771 0.929 . S
C767 C766 1.457 . S
C767 C768 1.291 . S
C767 H780 0.931 . S
C768 C767 1.291 . S
C768 C769 1.373 . S
C768 H781 0.929 . S
C769 C768 1.373 . S
C769 C770 1.396 . S
C769 C776 1.403 . S
C770 C760 1.476 . S
C770 N765 1.318 . S
C770 C769 1.396 . S
H771 C766 0.929 . S
O772 Mn748 2.369 1_565 S
O772 C750 1.266 . S
O773 Mn748 2.209 1_565 S
O773 Mn749 2.215 . S
O773 C750 1.283 . S
O774 Mn748 2.094 . S
O774 C752 1.240 . S
O775 Mn749 2.117 . S
O775 C752 1.264 1_565 S
C776 C769 1.403 . S
C776 C777 1.399 . S
C776 H782 0.929 . S
C777 C757 1.449 . S
C777 C776 1.399 . S
C777 H783 0.930 . S
H778 C758 0.931 . S
H779 C759 0.930 . S
H780 C767 0.931 . S
H781 C768 0.929 . S
H782 C776 0.929 . S
H783 C777 0.930 . S
Mn784 O789 2.095 . S
Mn784 O799 2.162 . S
Mn784 O800 2.297 . S
Mn784 O808 2.385 . S
Mn784 O809 2.209 . S
Mn784 O810 2.094 . S
Mn785 O790 2.121 . S
Mn785 N792 2.257 . S
Mn785 N801 2.282 . S
Mn785 O809 2.215 . S
Mn785 O811 2.117 . S
C786 O808 1.234 . S
C786 O809 1.283 . S
C787 O799 1.281 . S
C787 O800 1.236 . S
C788 O810 1.240 . S
C788 O811 1.264 . S
O789 Mn784 2.095 . S
O789 C798 1.250 . S
O790 Mn785 2.121 . S
O790 C798 1.258 . S
C791 N792 1.326 . S
C791 C795 1.460 . S
C791 H797 0.929 . S
N792 Mn785 2.257 . S
N792 C791 1.326 . S
N792 C796 1.362 . S
C793 C794 1.258 . S
C793 C796 1.431 . S
C793 C813 1.449 . S
C794 C793 1.258 . S
C794 C795 1.477 . S
C794 H814 0.931 . S
C795 C791 1.460 . S
C795 C794 1.477 . S
C795 H815 0.930 . S
C796 N792 1.362 . S
C796 C793 1.431 . S
C796 C806 1.476 . S
H797 C791 0.929 . S
C798 O789 1.250 . S
C798 O790 1.258 . S
O799 Mn784 2.162 . S
O799 C787 1.281 . S
O800 Mn784 2.297 . S
O800 C787 1.236 . S
N801 Mn785 2.282 . S
N801 C802 1.328 . S
N801 C806 1.318 . S
C802 N801 1.328 . S
C802 C803 1.457 . S
C802 H807 0.929 . S
C803 C802 1.457 . S
C803 C804 1.291 . S
C803 H816 0.931 . S
C804 C803 1.291 . S
C804 C805 1.373 . S
C804 H817 0.929 . S
C805 C804 1.373 . S
C805 C806 1.396 . S
C805 C812 1.403 . S
C806 C796 1.476 . S
C806 N801 1.318 . S
C806 C805 1.396 . S
H807 C802 0.929 . S
O808 Mn784 2.385 . S
O808 C786 1.234 . S
O809 Mn784 2.209 . S
O809 Mn785 2.215 . S
O809 C786 1.283 . S
O810 Mn784 2.094 . S
O810 C788 1.240 . S
O811 Mn785 2.117 . S
O811 C788 1.264 . S
C812 C805 1.403 . S
C812 C813 1.399 . S
C812 H818 0.929 . S
C813 C793 1.449 . S
C813 C812 1.399 . S
C813 H819 0.930 . S
H814 C794 0.931 . S
H815 C795 0.930 . S
H816 C803 0.931 . S
H817 C804 0.929 . S
H818 C812 0.929 . S
H819 C813 0.930 . S
Mn820 O825 2.095 . S
Mn820 O835 2.162 . S
Mn820 O836 2.297 . S
Mn820 O844 2.385 . S
Mn820 O845 2.209 . S
Mn820 O846 2.094 . S
Mn821 O826 2.121 . S
Mn821 N828 2.257 . S
Mn821 N837 2.282 . S
Mn821 O845 2.215 . S
Mn821 O847 2.117 . S
C822 O844 1.234 . S
C822 O845 1.283 . S
C823 O835 1.281 . S
C823 O836 1.236 . S
C824 O846 1.240 . S
C824 O847 1.264 . S
O825 Mn820 2.095 . S
O825 C834 1.250 . S
O826 Mn821 2.121 . S
O826 C834 1.258 . S
C827 N828 1.326 . S
C827 C831 1.460 . S
C827 H833 0.929 . S
N828 Mn821 2.257 . S
N828 C827 1.326 . S
N828 C832 1.362 . S
C829 C830 1.258 . S
C829 C832 1.431 . S
C829 C849 1.449 . S
C830 C829 1.258 . S
C830 C831 1.477 . S
C830 H850 0.931 . S
C831 C827 1.460 . S
C831 C830 1.477 . S
C831 H851 0.930 . S
C832 N828 1.362 . S
C832 C829 1.431 . S
C832 C842 1.476 . S
H833 C827 0.929 . S
C834 O825 1.250 . S
C834 O826 1.258 . S
O835 Mn820 2.162 . S
O835 C823 1.281 . S
O836 Mn820 2.297 . S
O836 C823 1.236 . S
N837 Mn821 2.282 . S
N837 C838 1.328 . S
N837 C842 1.318 . S
C838 N837 1.328 . S
C838 C839 1.457 . S
C838 H843 0.929 . S
C839 C838 1.457 . S
C839 C840 1.291 . S
C839 H852 0.931 . S
C840 C839 1.291 . S
C840 C841 1.373 . S
C840 H853 0.929 . S
C841 C840 1.373 . S
C841 C842 1.396 . S
C841 C848 1.403 . S
C842 C832 1.476 . S
C842 N837 1.318 . S
C842 C841 1.396 . S
H843 C838 0.929 . S
O844 Mn820 2.385 . S
O844 C822 1.234 . S
O845 Mn820 2.209 . S
O845 Mn821 2.215 . S
O845 C822 1.283 . S
O846 Mn820 2.094 . S
O846 C824 1.240 . S
O847 Mn821 2.117 . S
O847 C824 1.264 . S
C848 C841 1.403 . S
C848 C849 1.399 . S
C848 H854 0.929 . S
C849 C829 1.449 . S
C849 C848 1.399 . S
C849 H855 0.930 . S
H850 C830 0.931 . S
H851 C831 0.930 . S
H852 C839 0.931 . S
H853 C840 0.929 . S
H854 C848 0.929 . S
H855 C849 0.930 . S
Mn856 O861 2.095 . S
Mn856 O871 2.162 . S
Mn856 O872 2.297 . S
Mn856 O880 2.385 . S
Mn856 O881 2.209 . S
Mn856 O882 2.094 . S
Mn857 O862 2.121 . S
Mn857 N864 2.257 . S
Mn857 N873 2.282 . S
Mn857 O881 2.215 . S
Mn857 O883 2.117 . S
C858 O880 1.234 . S
C858 O881 1.283 . S
C859 O871 1.281 . S
C859 O872 1.236 . S
C860 O882 1.240 . S
C860 O883 1.264 . S
O861 Mn856 2.095 . S
O861 C870 1.250 . S
O862 Mn857 2.121 . S
O862 C870 1.258 . S
C863 N864 1.326 . S
C863 C867 1.460 . S
C863 H869 0.929 . S
N864 Mn857 2.257 . S
N864 C863 1.326 . S
N864 C868 1.362 . S
C865 C866 1.258 . S
C865 C868 1.431 . S
C865 C885 1.449 . S
C866 C865 1.258 . S
C866 C867 1.477 . S
C866 H886 0.931 . S
C867 C863 1.460 . S
C867 C866 1.477 . S
C867 H887 0.930 . S
C868 N864 1.362 . S
C868 C865 1.431 . S
C868 C878 1.476 . S
H869 C863 0.929 . S
C870 O861 1.250 . S
C870 O862 1.258 . S
O871 Mn856 2.162 . S
O871 C859 1.281 . S
O872 Mn856 2.297 . S
O872 C859 1.236 . S
N873 Mn857 2.282 . S
N873 C874 1.328 . S
N873 C878 1.318 . S
C874 N873 1.328 . S
C874 C875 1.457 . S
C874 H879 0.929 . S
C875 C874 1.457 . S
C875 C876 1.291 . S
C875 H888 0.931 . S
C876 C875 1.291 . S
C876 C877 1.373 . S
C876 H889 0.929 . S
C877 C876 1.373 . S
C877 C878 1.396 . S
C877 C884 1.403 . S
C878 C868 1.476 . S
C878 N873 1.318 . S
C878 C877 1.396 . S
H879 C874 0.929 . S
O880 Mn856 2.385 . S
O880 C858 1.234 . S
O881 Mn856 2.209 . S
O881 Mn857 2.215 . S
O881 C858 1.283 . S
O882 Mn856 2.094 . S
O882 C860 1.240 . S
O883 Mn857 2.117 . S
O883 C860 1.264 . S
C884 C877 1.403 . S
C884 C885 1.399 . S
C884 H890 0.929 . S
C885 C865 1.449 . S
C885 C884 1.399 . S
C885 H891 0.930 . S
H886 C866 0.931 . S
H887 C867 0.930 . S
H888 C875 0.931 . S
H889 C876 0.929 . S
H890 C884 0.929 . S
H891 C885 0.930 . S
Mn892 O897 2.095 . S
Mn892 O907 2.162 . S
Mn892 O908 2.297 . S
Mn892 O916 2.385 1_565 S
Mn892 O917 2.209 1_565 S
Mn892 O918 2.094 . S
Mn893 O898 2.121 . S
Mn893 N900 2.257 . S
Mn893 N909 2.282 . S
Mn893 O917 2.215 . S
Mn893 O919 2.117 . S
C894 O916 1.234 . S
C894 O917 1.283 . S
C895 O907 1.281 . S
C895 O908 1.236 . S
C896 O918 1.220 1_545 S
C896 O919 1.290 . S
O897 Mn892 2.095 . S
O897 C906 1.250 1_565 S
O898 Mn893 2.121 . S
O898 C906 1.258 . S
C899 N900 1.326 . S
C899 C903 1.460 . S
C899 H905 0.929 . S
N900 Mn893 2.257 . S
N900 C899 1.326 . S
N900 C904 1.362 . S
C901 C902 1.258 . S
C901 C904 1.431 . S
C901 C921 1.449 . S
C902 C901 1.258 . S
C902 C903 1.477 . S
C902 H922 0.931 . S
C903 C899 1.460 . S
C903 C902 1.477 . S
C903 H923 0.930 . S
C904 N900 1.362 . S
C904 C901 1.431 . S
C904 C914 1.476 . S
H905 C899 0.929 . S
C906 O897 1.250 1_545 S
C906 O898 1.258 . S
O907 Mn892 2.162 . S
O907 C895 1.281 . S
O908 Mn892 2.297 . S
O908 C895 1.236 . S
N909 Mn893 2.282 . S
N909 C910 1.328 . S
N909 C914 1.318 . S
C910 N909 1.328 . S
C910 C911 1.457 . S
C910 H915 0.929 . S
C911 C910 1.457 . S
C911 C912 1.291 . S
C911 H924 0.931 . S
C912 C911 1.291 . S
C912 C913 1.373 . S
C912 H925 0.929 . S
C913 C912 1.373 . S
C913 C914 1.396 . S
C913 C920 1.403 . S
C914 C904 1.476 . S
C914 N909 1.318 . S
C914 C913 1.396 . S
H915 C910 0.929 . S
O916 Mn892 2.385 1_545 S
O916 C894 1.234 . S
O917 Mn892 2.209 1_545 S
O917 Mn893 2.215 . S
O917 C894 1.283 . S
O918 Mn892 2.094 . S
O918 C896 1.220 1_565 S
O919 Mn893 2.117 . S
O919 C896 1.290 . S
C920 C913 1.403 . S
C920 C921 1.399 . S
C920 H926 0.929 . S
C921 C901 1.449 . S
C921 C920 1.399 . S
C921 H927 0.930 . S
H922 C902 0.931 . S
H923 C903 0.930 . S
H924 C911 0.931 . S
H925 C912 0.929 . S
H926 C920 0.929 . S
H927 C921 0.930 . S
Mn928 O933 2.095 . S
Mn928 O943 2.162 . S
Mn928 O944 2.297 . S
Mn928 O952 2.374 1_455 S
Mn928 O953 2.209 1_455 S
Mn928 O954 2.094 . S
Mn929 O934 2.121 . S
Mn929 N936 2.257 . S
Mn929 N945 2.282 . S
Mn929 O953 2.215 . S
Mn929 O955 2.117 . S
C930 O952 1.255 . S
C930 O953 1.283 . S
C931 O943 1.281 . S
C931 O944 1.236 . S
C932 O954 1.240 . S
C932 O955 1.264 1_455 S
O933 Mn928 2.095 . S
O933 C942 1.250 . S
O934 Mn929 2.121 . S
O934 C942 1.258 1_655 S
C935 N936 1.326 . S
C935 C939 1.460 . S
C935 H941 0.929 . S
N936 Mn929 2.257 . S
N936 C935 1.326 . S
N936 C940 1.362 . S
C937 C938 1.258 . S
C937 C940 1.431 . S
C937 C957 1.449 . S
C938 C937 1.258 . S
C938 C939 1.477 . S
C938 H958 0.931 . S
C939 C935 1.460 . S
C939 C938 1.477 . S
C939 H959 0.930 . S
C940 N936 1.362 . S
C940 C937 1.431 . S
C940 C950 1.476 . S
H941 C935 0.929 . S
C942 O933 1.250 . S
C942 O934 1.258 1_455 S
O943 Mn928 2.162 . S
O943 C931 1.281 . S
O944 Mn928 2.297 . S
O944 C931 1.236 . S
N945 Mn929 2.282 . S
N945 C946 1.328 . S
N945 C950 1.318 . S
C946 N945 1.328 . S
C946 C947 1.457 . S
C946 H951 0.929 . S
C947 C946 1.457 . S
C947 C948 1.291 . S
C947 H960 0.931 . S
C948 C947 1.291 . S
C948 C949 1.373 . S
C948 H961 0.929 . S
C949 C948 1.373 . S
C949 C950 1.396 . S
C949 C956 1.403 . S
C950 C940 1.476 . S
C950 N945 1.318 . S
C950 C949 1.396 . S
H951 C946 0.929 . S
O952 Mn928 2.374 1_655 S
O952 C930 1.255 . S
O953 Mn928 2.209 1_655 S
O953 Mn929 2.215 . S
O953 C930 1.283 . S
O954 Mn928 2.094 . S
O954 C932 1.240 . S
O955 Mn929 2.117 . S
O955 C932 1.264 1_655 S
C956 C949 1.403 . S
C956 C957 1.399 . S
C956 H962 0.929 . S
C957 C937 1.449 . S
C957 C956 1.399 . S
C957 H963 0.930 . S
H958 C938 0.931 . S
H959 C939 0.930 . S
H960 C947 0.931 . S
H961 C948 0.929 . S
H962 C956 0.929 . S
H963 C957 0.930 . S
Mn964 O969 2.095 . S
Mn964 O979 2.162 . S
Mn964 O980 2.297 . S
Mn964 O988 2.385 . S
Mn964 O989 2.209 . S
Mn964 O990 2.094 . S
Mn965 O970 2.121 . S
Mn965 N972 2.257 . S
Mn965 N981 2.282 . S
Mn965 O989 2.215 . S
Mn965 O991 2.117 . S
C966 O988 1.234 . S
C966 O989 1.283 . S
C967 O979 1.281 . S
C967 O980 1.236 . S
C968 O990 1.240 . S
C968 O991 1.264 . S
O969 Mn964 2.095 . S
O969 C978 1.250 . S
O970 Mn965 2.121 . S
O970 C978 1.258 . S
C971 N972 1.326 . S
C971 C975 1.460 . S
C971 H977 0.929 . S
N972 Mn965 2.257 . S
N972 C971 1.326 . S
N972 C976 1.362 . S
C973 C974 1.258 . S
C973 C976 1.431 . S
C973 C993 1.449 . S
C974 C973 1.258 . S
C974 C975 1.477 . S
C974 H994 0.931 . S
C975 C971 1.460 . S
C975 C974 1.477 . S
C975 H995 0.930 . S
C976 N972 1.362 . S
C976 C973 1.431 . S
C976 C986 1.476 . S
H977 C971 0.929 . S
C978 O969 1.250 . S
C978 O970 1.258 . S
O979 Mn964 2.162 . S
O979 C967 1.281 . S
O980 Mn964 2.297 . S
O980 C967 1.236 . S
N981 Mn965 2.282 . S
N981 C982 1.328 . S
N981 C986 1.318 . S
C982 N981 1.328 . S
C982 C983 1.457 . S
C982 H987 0.929 . S
C983 C982 1.457 . S
C983 C984 1.291 . S
C983 H996 0.931 . S
C984 C983 1.291 . S
C984 C985 1.373 . S
C984 H997 0.929 . S
C985 C984 1.373 . S
C985 C986 1.396 . S
C985 C992 1.403 . S
C986 C976 1.476 . S
C986 N981 1.318 . S
C986 C985 1.396 . S
H987 C982 0.929 . S
O988 Mn964 2.385 . S
O988 C966 1.234 . S
O989 Mn964 2.209 . S
O989 Mn965 2.215 . S
O989 C966 1.283 . S
O990 Mn964 2.094 . S
O990 C968 1.240 . S
O991 Mn965 2.117 . S
O991 C968 1.264 . S
C992 C985 1.403 . S
C992 C993 1.399 . S
C992 H998 0.929 . S
C993 C973 1.449 . S
C993 C992 1.399 . S
C993 H999 0.930 . S
H994 C974 0.931 . S
H995 C975 0.930 . S
H996 C983 0.931 . S
H997 C984 0.929 . S
H998 C992 0.929 . S
H999 C993 0.930 . S
Mn1000 O1005 2.095 1_455 S
Mn1000 O1015 2.162 . S
Mn1000 O1016 2.297 1_455 S
Mn1000 O1024 2.385 . S
Mn1000 O1025 2.209 1_455 S
Mn1000 O1026 2.094 . S
Mn1001 O1006 2.121 . S
Mn1001 N1008 2.257 . S
Mn1001 N1017 2.282 1_655 S
Mn1001 O1025 2.215 . S
Mn1001 O1027 2.117 1_655 S
C1002 O1024 1.234 . S
C1002 O1025 1.283 1_455 S
C1003 O1015 1.281 . S
C1003 O1016 1.236 1_455 S
C1004 O1026 1.240 . S
C1004 O1027 1.264 . S
O1005 Mn1000 2.095 1_655 S
O1005 C1014 1.250 . S
O1006 Mn1001 2.121 . S
O1006 C1014 1.258 . S
C1007 N1008 1.326 . S
C1007 C1011 1.460 . S
C1007 H1013 0.929 . S
N1008 Mn1001 2.257 . S
N1008 C1007 1.326 . S
N1008 C1012 1.362 . S
C1009 C1010 1.258 . S
C1009 C1012 1.431 . S
C1009 C1029 1.449 . S
C1010 C1009 1.258 . S
C1010 C1011 1.477 . S
C1010 H1030 0.931 . S
C1011 C1007 1.460 . S
C1011 C1010 1.477 . S
C1011 H1031 0.930 . S
C1012 N1008 1.362 . S
C1012 C1009 1.431 . S
C1012 C1022 1.476 . S
H1013 C1007 0.929 . S
C1014 O1005 1.250 . S
C1014 O1006 1.258 . S
O1015 Mn1000 2.162 . S
O1015 C1003 1.281 . S
O1016 Mn1000 2.297 1_655 S
O1016 C1003 1.236 1_655 S
N1017 Mn1001 2.282 1_455 S
N1017 C1018 1.328 . S
N1017 C1022 1.318 1_455 S
C1018 N1017 1.328 . S
C1018 C1019 1.457 . S
C1018 H1023 0.929 . S
C1019 C1018 1.457 . S
C1019 C1020 1.291 . S
C1019 H1032 0.931 . S
C1020 C1019 1.291 . S
C1020 C1021 1.316 1_455 S
C1020 H1033 0.929 . S
C1021 C1020 1.316 1_655 S
C1021 C1022 1.412 . S
C1021 C1028 1.444 . S
C1022 C1012 1.476 . S
C1022 N1017 1.318 1_655 S
C1022 C1021 1.412 . S
H1023 C1018 0.929 . S
O1024 Mn1000 2.385 . S
O1024 C1002 1.234 . S
O1025 Mn1000 2.209 1_655 S
O1025 Mn1001 2.215 . S
O1025 C1002 1.283 1_655 S
O1026 Mn1000 2.094 . S
O1026 C1004 1.240 . S
O1027 Mn1001 2.117 1_455 S
O1027 C1004 1.264 . S
C1028 C1021 1.444 . S
C1028 C1029 1.399 . S
C1028 H1034 0.929 . S
C1029 C1009 1.449 . S
C1029 C1028 1.399 . S
C1029 H1035 0.930 . S
H1030 C1010 0.931 . S
H1031 C1011 0.930 . S
H1032 C1019 0.931 . S
H1033 C1020 0.929 . S
H1034 C1028 0.929 . S
H1035 C1029 0.930 . S
Mn1036 O1041 2.095 . S
Mn1036 O1051 2.162 . S
Mn1036 O1052 2.297 . S
Mn1036 O1060 2.385 . S
Mn1036 O1061 2.209 . S
Mn1036 O1062 2.094 . S
Mn1037 O1042 2.121 . S
Mn1037 N1044 2.257 . S
Mn1037 N1053 2.282 . S
Mn1037 O1061 2.215 . S
Mn1037 O1063 2.117 . S
C1038 O1060 1.234 . S
C1038 O1061 1.283 . S
C1039 O1051 1.281 . S
C1039 O1052 1.236 . S
C1040 O1062 1.240 . S
C1040 O1063 1.264 . S
O1041 Mn1036 2.095 . S
O1041 C1050 1.250 . S
O1042 Mn1037 2.121 . S
O1042 C1050 1.258 . S
C1043 N1044 1.326 . S
C1043 C1047 1.460 . S
C1043 H1049 0.929 . S
N1044 Mn1037 2.257 . S
N1044 C1043 1.326 . S
N1044 C1048 1.362 . S
C1045 C1046 1.258 . S
C1045 C1048 1.431 . S
C1045 C1065 1.449 . S
C1046 C1045 1.258 . S
C1046 C1047 1.477 . S
C1046 H1066 0.931 . S
C1047 C1043 1.460 . S
C1047 C1046 1.477 . S
C1047 H1067 0.930 . S
C1048 N1044 1.362 . S
C1048 C1045 1.431 . S
C1048 C1058 1.476 . S
H1049 C1043 0.929 . S
C1050 O1041 1.250 . S
C1050 O1042 1.258 . S
O1051 Mn1036 2.162 . S
O1051 C1039 1.281 . S
O1052 Mn1036 2.297 . S
O1052 C1039 1.236 . S
N1053 Mn1037 2.282 . S
N1053 C1054 1.328 . S
N1053 C1058 1.318 . S
C1054 N1053 1.328 . S
C1054 C1055 1.457 . S
C1054 H1059 0.929 . S
C1055 C1054 1.457 . S
C1055 C1056 1.291 . S
C1055 H1068 0.931 . S
C1056 C1055 1.291 . S
C1056 C1057 1.373 . S
C1056 H1069 0.929 . S
C1057 C1056 1.373 . S
C1057 C1058 1.396 . S
C1057 C1064 1.403 . S
C1058 C1048 1.476 . S
C1058 N1053 1.318 . S
C1058 C1057 1.396 . S
H1059 C1054 0.929 . S
O1060 Mn1036 2.385 . S
O1060 C1038 1.234 . S
O1061 Mn1036 2.209 . S
O1061 Mn1037 2.215 . S
O1061 C1038 1.283 . S
O1062 Mn1036 2.094 . S
O1062 C1040 1.240 . S
O1063 Mn1037 2.117 . S
O1063 C1040 1.264 . S
C1064 C1057 1.403 . S
C1064 C1065 1.399 . S
C1064 H1070 0.929 . S
C1065 C1045 1.449 . S
C1065 C1064 1.399 . S
C1065 H1071 0.930 . S
H1066 C1046 0.931 . S
H1067 C1047 0.930 . S
H1068 C1055 0.931 . S
H1069 C1056 0.929 . S
H1070 C1064 0.929 . S
H1071 C1065 0.930 . S
H1072 C1078 0.930 . S
H1073 C1082 0.930 . S
H1074 C1087 0.929 . S
H1075 C1085 0.929 . S
H1076 C1080 0.929 . S
H1077 C1086 0.929 . S
C1078 H1072 0.930 . S
C1078 C1079 1.367 . S
C1078 C1086 1.378 . S
C1079 C1078 1.367 . S
C1079 C1087 1.433 . S
C1080 H1076 0.929 . S
C1080 C1082 1.378 . S
C1080 C1084 1.350 . S
C1081 C1084 1.463 . S
C1081 C1086 1.350 . S
C1081 N1089 1.427 . S
C1082 H1073 0.930 . S
C1082 C1080 1.378 . S
C1082 C1083 1.367 . S
C1083 C1082 1.367 . S
C1083 C1085 1.433 . S
C1084 C1080 1.350 . S
C1084 C1081 1.463 . S
C1084 N1088 1.427 . S
C1085 H1075 0.929 . S
C1085 C1083 1.433 . S
C1085 N1088 1.384 . S
C1086 H1077 0.929 . S
C1086 C1078 1.378 . S
C1086 C1081 1.350 . S
C1087 H1074 0.929 . S
C1087 C1079 1.433 . S
C1087 N1089 1.384 . S
N1088 C1084 1.427 . S
N1088 C1085 1.384 . S
N1089 C1081 1.427 . S
N1089 C1087 1.384 . S
H1090 C1096 0.930 . S
H1091 C1100 0.930 . S
H1092 C1105 0.929 . S
H1093 C1103 0.929 . S
H1094 C1098 0.929 . S
H1095 C1104 0.929 . S
C1096 H1090 0.930 . S
C1096 C1097 1.367 . S
C1096 C1104 1.378 . S
C1097 C1096 1.367 . S
C1097 C1105 1.433 . S
C1098 H1094 0.929 . S
C1098 C1100 1.378 . S
C1098 C1102 1.350 . S
C1099 C1102 1.463 . S
C1099 C1104 1.350 . S
C1099 N1107 1.427 . S
C1100 H1091 0.930 . S
C1100 C1098 1.378 . S
C1100 C1101 1.367 . S
C1101 C1100 1.367 . S
C1101 C1103 1.433 . S
C1102 C1098 1.350 . S
C1102 C1099 1.463 . S
C1102 N1106 1.427 . S
C1103 H1093 0.929 . S
C1103 C1101 1.433 . S
C1103 N1106 1.384 . S
C1104 H1095 0.929 . S
C1104 C1096 1.378 . S
C1104 C1099 1.350 . S
C1105 H1092 0.929 . S
C1105 C1097 1.433 . S
C1105 N1107 1.384 . S
N1106 C1102 1.427 . S
N1106 C1103 1.384 . S
N1107 C1099 1.427 . S
N1107 C1105 1.384 . S
H1108 C1114 0.930 . S
H1109 C1118 0.930 . S
H1110 C1123 0.929 . S
H1111 C1121 0.929 . S
H1112 C1116 0.929 . S
H1113 C1122 0.929 . S
C1114 H1108 0.930 . S
C1114 C1115 1.367 . S
C1114 C1122 1.378 . S
C1115 C1114 1.367 . S
C1115 C1123 1.433 . S
C1116 H1112 0.929 . S
C1116 C1118 1.378 . S
C1116 C1120 1.350 . S
C1117 C1120 1.463 . S
C1117 C1122 1.350 . S
C1117 N1125 1.427 . S
C1118 H1109 0.930 . S
C1118 C1116 1.378 . S
C1118 C1119 1.367 . S
C1119 C1118 1.367 . S
C1119 C1121 1.433 . S
C1120 C1116 1.350 . S
C1120 C1117 1.463 . S
C1120 N1124 1.427 . S
C1121 H1111 0.929 . S
C1121 C1119 1.433 . S
C1121 N1124 1.384 . S
C1122 H1113 0.929 . S
C1122 C1114 1.378 . S
C1122 C1117 1.350 . S
C1123 H1110 0.929 . S
C1123 C1115 1.433 . S
C1123 N1125 1.384 . S
N1124 C1120 1.427 . S
N1124 C1121 1.384 . S
N1125 C1117 1.427 . S
N1125 C1123 1.384 . S
H1126 C1132 0.930 . S
H1127 C1136 0.930 . S
H1128 C1141 0.929 . S
H1129 C1139 0.929 . S
H1130 C1134 0.929 . S
H1131 C1140 0.929 . S
C1132 H1126 0.930 . S
C1132 C1133 1.367 1_545 S
C1132 C1140 1.378 . S
C1133 C1132 1.367 1_565 S
C1133 C1141 1.433 . S
C1134 H1130 0.929 . S
C1134 C1136 1.378 . S
C1134 C1138 1.350 . S
C1135 C1138 1.463 . S
C1135 C1140 1.350 1_565 S
C1135 N1143 1.427 . S
C1136 H1127 0.930 . S
C1136 C1134 1.378 . S
C1136 C1137 1.367 1_565 S
C1137 C1136 1.367 1_545 S
C1137 C1139 1.433 . S
C1138 C1134 1.350 . S
C1138 C1135 1.463 . S
C1138 N1142 1.427 1_565 S
C1139 H1129 0.929 . S
C1139 C1137 1.433 . S
C1139 N1142 1.384 . S
C1140 H1131 0.929 . S
C1140 C1132 1.378 . S
C1140 C1135 1.350 1_545 S
C1141 H1128 0.929 . S
C1141 C1133 1.433 . S
C1141 N1143 1.384 . S
N1142 C1138 1.427 1_545 S
N1142 C1139 1.384 . S
N1143 C1135 1.427 . S
N1143 C1141 1.384 . S
H1144 C1150 0.930 . S
H1145 C1154 0.930 . S
H1146 C1159 0.929 . S
H1147 C1157 0.929 . S
H1148 C1152 0.929 . S
H1149 C1158 0.929 . S
C1150 H1144 0.930 . S
C1150 C1151 1.367 . S
C1150 C1158 1.378 . S
C1151 C1150 1.367 . S
C1151 C1159 1.433 . S
C1152 H1148 0.929 . S
C1152 C1154 1.378 . S
C1152 C1156 1.350 . S
C1153 C1156 1.463 . S
C1153 C1158 1.350 . S
C1153 N1161 1.427 . S
C1154 H1145 0.930 . S
C1154 C1152 1.378 . S
C1154 C1155 1.367 . S
C1155 C1154 1.367 . S
C1155 C1157 1.433 . S
C1156 C1152 1.350 . S
C1156 C1153 1.463 . S
C1156 N1160 1.427 . S
C1157 H1147 0.929 . S
C1157 C1155 1.433 . S
C1157 N1160 1.384 . S
C1158 H1149 0.929 . S
C1158 C1150 1.378 . S
C1158 C1153 1.350 . S
C1159 H1146 0.929 . S
C1159 C1151 1.433 . S
C1159 N1161 1.384 . S
N1160 C1156 1.427 . S
N1160 C1157 1.384 . S
N1161 C1153 1.427 . S
N1161 C1159 1.384 . S
H1162 C1168 0.930 . S
H1163 C1172 0.930 . S
H1164 C1177 0.929 . S
H1165 C1175 0.929 . S
H1166 C1170 0.929 . S
H1167 C1176 0.929 . S
C1168 H1162 0.930 . S
C1168 C1169 1.367 . S
C1168 C1176 1.378 . S
C1169 C1168 1.367 . S
C1169 C1177 1.433 . S
C1170 H1166 0.929 . S
C1170 C1172 1.378 . S
C1170 C1174 1.350 . S
C1171 C1174 1.463 . S
C1171 C1176 1.350 . S
C1171 N1179 1.427 . S
C1172 H1163 0.930 . S
C1172 C1170 1.378 . S
C1172 C1173 1.367 . S
C1173 C1172 1.367 . S
C1173 C1175 1.433 . S
C1174 C1170 1.350 . S
C1174 C1171 1.463 . S
C1174 N1178 1.427 . S
C1175 H1165 0.929 . S
C1175 C1173 1.433 . S
C1175 N1178 1.384 . S
C1176 H1167 0.929 . S
C1176 C1168 1.378 . S
C1176 C1171 1.350 . S
C1177 H1164 0.929 . S
C1177 C1169 1.433 . S
C1177 N1179 1.384 . S
N1178 C1174 1.427 . S
N1178 C1175 1.384 . S
N1179 C1171 1.427 . S
N1179 C1177 1.384 . S
H1180 C1186 0.930 . S
H1181 C1190 0.930 . S
H1182 C1195 0.929 . S
H1183 C1193 0.929 . S
H1184 C1188 0.929 . S
H1185 C1194 0.929 . S
C1186 H1180 0.930 . S
C1186 C1187 1.367 . S
C1186 C1194 1.378 . S
C1187 C1186 1.367 . S
C1187 C1195 1.433 . S
C1188 H1184 0.929 . S
C1188 C1190 1.378 . S
C1188 C1192 1.350 . S
C1189 C1192 1.463 . S
C1189 C1194 1.350 . S
C1189 N1197 1.427 . S
C1190 H1181 0.930 . S
C1190 C1188 1.378 . S
C1190 C1191 1.367 . S
C1191 C1190 1.367 . S
C1191 C1193 1.433 . S
C1192 C1188 1.350 . S
C1192 C1189 1.463 . S
C1192 N1196 1.427 . S
C1193 H1183 0.929 . S
C1193 C1191 1.433 . S
C1193 N1196 1.384 . S
C1194 H1185 0.929 . S
C1194 C1186 1.378 . S
C1194 C1189 1.350 . S
C1195 H1182 0.929 . S
C1195 C1187 1.433 . S
C1195 N1197 1.384 . S
N1196 C1192 1.427 . S
N1196 C1193 1.384 . S
N1197 C1189 1.427 . S
N1197 C1195 1.384 . S
H1198 C1204 0.930 . S
H1199 C1208 0.930 . S
H1200 C1213 0.929 . S
H1201 C1211 0.929 . S
H1202 C1206 0.929 . S
H1203 C1212 0.929 . S
C1204 H1198 0.930 . S
C1204 C1205 1.367 1_545 S
C1204 C1212 1.378 . S
C1205 C1204 1.367 1_565 S
C1205 C1213 1.433 . S
C1206 H1202 0.929 . S
C1206 C1208 1.378 . S
C1206 C1210 1.350 . S
C1207 C1210 1.463 . S
C1207 C1212 1.350 1_565 S
C1207 N1215 1.427 . S
C1208 H1199 0.930 . S
C1208 C1206 1.378 . S
C1208 C1209 1.367 . S
C1209 C1208 1.367 . S
C1209 C1211 1.433 1_565 S
C1210 C1206 1.350 . S
C1210 C1207 1.463 . S
C1210 N1214 1.427 1_565 S
C1211 H1201 0.929 . S
C1211 C1209 1.433 1_545 S
C1211 N1214 1.384 . S
C1212 H1203 0.929 . S
C1212 C1204 1.378 . S
C1212 C1207 1.350 1_545 S
C1213 H1200 0.929 . S
C1213 C1205 1.433 . S
C1213 N1215 1.384 . S
N1214 C1210 1.427 1_545 S
N1214 C1211 1.384 . S
N1215 C1207 1.427 . S
N1215 C1213 1.384 . S
H1216 C1222 0.930 . S
H1217 C1226 0.930 . S
H1218 C1231 0.929 . S
H1219 C1229 0.929 . S
H1220 C1224 0.929 . S
H1221 C1230 0.929 . S
C1222 H1216 0.930 . S
C1222 C1223 1.367 . S
C1222 C1230 1.378 . S
C1223 C1222 1.367 . S
C1223 C1231 1.433 . S
C1224 H1220 0.929 . S
C1224 C1226 1.378 . S
C1224 C1228 1.350 . S
C1225 C1228 1.463 . S
C1225 C1230 1.350 . S
C1225 N1233 1.427 . S
C1226 H1217 0.930 . S
C1226 C1224 1.378 . S
C1226 C1227 1.367 . S
C1227 C1226 1.367 . S
C1227 C1229 1.433 . S
C1228 C1224 1.350 . S
C1228 C1225 1.463 . S
C1228 N1232 1.427 . S
C1229 H1219 0.929 . S
C1229 C1227 1.433 . S
C1229 N1232 1.384 . S
C1230 H1221 0.929 . S
C1230 C1222 1.378 . S
C1230 C1225 1.350 . S
C1231 H1218 0.929 . S
C1231 C1223 1.433 . S
C1231 N1233 1.384 . S
N1232 C1228 1.427 . S
N1232 C1229 1.384 . S
N1233 C1225 1.427 . S
N1233 C1231 1.384 . S
H1234 C1240 0.930 . S
H1235 C1244 0.930 . S
H1236 C1249 0.929 . S
H1237 C1247 0.929 . S
H1238 C1242 0.929 . S
H1239 C1248 0.929 . S
C1240 H1234 0.930 . S
C1240 C1241 1.367 . S
C1240 C1248 1.378 . S
C1241 C1240 1.367 . S
C1241 C1249 1.433 . S
C1242 H1238 0.929 . S
C1242 C1244 1.378 . S
C1242 C1246 1.350 . S
C1243 C1246 1.463 . S
C1243 C1248 1.350 . S
C1243 N1251 1.427 . S
C1244 H1235 0.930 . S
C1244 C1242 1.378 . S
C1244 C1245 1.367 . S
C1245 C1244 1.367 . S
C1245 C1247 1.433 . S
C1246 C1242 1.350 . S
C1246 C1243 1.463 . S
C1246 N1250 1.427 . S
C1247 H1237 0.929 . S
C1247 C1245 1.433 . S
C1247 N1250 1.384 . S
C1248 H1239 0.929 . S
C1248 C1240 1.378 . S
C1248 C1243 1.350 . S
C1249 H1236 0.929 . S
C1249 C1241 1.433 . S
C1249 N1251 1.384 . S
N1250 C1246 1.427 . S
N1250 C1247 1.384 . S
N1251 C1243 1.427 . S
N1251 C1249 1.384 . S
H1252 C1258 0.930 . S
H1253 C1262 0.930 . S
H1254 C1267 0.929 . S
H1255 C1265 0.929 . S
H1256 C1260 0.929 . S
H1257 C1266 0.929 . S
C1258 H1252 0.930 . S
C1258 C1259 1.367 . S
C1258 C1266 1.378 . S
C1259 C1258 1.367 . S
C1259 C1267 1.433 . S
C1260 H1256 0.929 . S
C1260 C1262 1.378 . S
C1260 C1264 1.350 . S
C1261 C1264 1.463 . S
C1261 C1266 1.350 . S
C1261 N1269 1.427 . S
C1262 H1253 0.930 . S
C1262 C1260 1.378 . S
C1262 C1263 1.367 . S
C1263 C1262 1.367 . S
C1263 C1265 1.433 . S
C1264 C1260 1.350 . S
C1264 C1261 1.463 . S
C1264 N1268 1.427 . S
C1265 H1255 0.929 . S
C1265 C1263 1.433 . S
C1265 N1268 1.384 . S
C1266 H1257 0.929 . S
C1266 C1258 1.378 . S
C1266 C1261 1.350 . S
C1267 H1254 0.929 . S
C1267 C1259 1.433 . S
C1267 N1269 1.384 . S
N1268 C1264 1.427 . S
N1268 C1265 1.384 . S
N1269 C1261 1.427 . S
N1269 C1267 1.384 . S
H1270 C1276 0.930 . S
H1271 C1280 0.930 . S
H1272 C1285 0.929 . S
H1273 C1283 0.929 . S
H1274 C1278 0.929 . S
H1275 C1284 0.929 . S
C1276 H1270 0.930 . S
C1276 C1277 1.367 . S
C1276 C1284 1.378 . S
C1277 C1276 1.367 . S
C1277 C1285 1.433 . S
C1278 H1274 0.929 . S
C1278 C1280 1.378 . S
C1278 C1282 1.350 . S
C1279 C1282 1.463 . S
C1279 C1284 1.350 . S
C1279 N1287 1.427 . S
C1280 H1271 0.930 . S
C1280 C1278 1.378 . S
C1280 C1281 1.367 . S
C1281 C1280 1.367 . S
C1281 C1283 1.433 . S
C1282 C1278 1.350 . S
C1282 C1279 1.463 . S
C1282 N1286 1.427 . S
C1283 H1273 0.929 . S
C1283 C1281 1.433 . S
C1283 N1286 1.384 . S
C1284 H1275 0.929 . S
C1284 C1276 1.378 . S
C1284 C1279 1.350 . S
C1285 H1272 0.929 . S
C1285 C1277 1.433 . S
C1285 N1287 1.384 . S
N1286 C1282 1.427 . S
N1286 C1283 1.384 . S
N1287 C1279 1.427 . S
N1287 C1285 1.384 . S
H1288 C1294 0.930 . S
H1289 C1298 0.930 . S
H1290 C1303 0.929 . S
H1291 C1301 0.929 . S
H1292 C1296 0.929 . S
H1293 C1302 0.929 . S
C1294 H1288 0.930 . S
C1294 C1295 1.367 . S
C1294 C1302 1.378 . S
C1295 C1294 1.367 . S
C1295 C1303 1.433 . S
C1296 H1292 0.929 . S
C1296 C1298 1.378 . S
C1296 C1300 1.350 . S
C1297 C1300 1.463 . S
C1297 C1302 1.350 . S
C1297 N1305 1.427 . S
C1298 H1289 0.930 . S
C1298 C1296 1.378 . S
C1298 C1299 1.367 . S
C1299 C1298 1.367 . S
C1299 C1301 1.433 . S
C1300 C1296 1.350 . S
C1300 C1297 1.463 . S
C1300 N1304 1.427 . S
C1301 H1291 0.929 . S
C1301 C1299 1.433 . S
C1301 N1304 1.384 . S
C1302 H1293 0.929 . S
C1302 C1294 1.378 . S
C1302 C1297 1.350 . S
C1303 H1290 0.929 . S
C1303 C1295 1.433 . S
C1303 N1305 1.384 . S
N1304 C1300 1.427 . S
N1304 C1301 1.384 . S
N1305 C1297 1.427 . S
N1305 C1303 1.384 . S
H1306 C1312 0.930 . S
H1307 C1316 0.930 . S
H1308 C1321 0.929 . S
H1309 C1319 0.929 . S
H1310 C1314 0.929 . S
H1311 C1320 0.929 . S
C1312 H1306 0.930 . S
C1312 C1313 1.367 . S
C1312 C1320 1.378 . S
C1313 C1312 1.367 . S
C1313 C1321 1.433 . S
C1314 H1310 0.929 . S
C1314 C1316 1.378 . S
C1314 C1318 1.350 . S
C1315 C1318 1.463 . S
C1315 C1320 1.350 . S
C1315 N1323 1.427 . S
C1316 H1307 0.930 . S
C1316 C1314 1.378 . S
C1316 C1317 1.367 . S
C1317 C1316 1.367 . S
C1317 C1319 1.433 . S
C1318 C1314 1.350 . S
C1318 C1315 1.463 . S
C1318 N1322 1.427 . S
C1319 H1309 0.929 . S
C1319 C1317 1.433 . S
C1319 N1322 1.384 . S
C1320 H1311 0.929 . S
C1320 C1312 1.378 . S
C1320 C1315 1.350 . S
C1321 H1308 0.929 . S
C1321 C1313 1.433 . S
C1321 N1323 1.384 . S
N1322 C1318 1.427 . S
N1322 C1319 1.384 . S
N1323 C1315 1.427 . S
N1323 C1321 1.384 . S
H1324 C1330 0.930 . S
H1325 C1334 0.930 . S
H1326 C1339 0.929 . S
H1327 C1337 0.929 . S
H1328 C1332 0.929 . S
H1329 C1338 0.929 . S
C1330 H1324 0.930 . S
C1330 C1331 1.367 . S
C1330 C1338 1.378 . S
C1331 C1330 1.367 . S
C1331 C1339 1.433 . S
C1332 H1328 0.929 . S
C1332 C1334 1.378 . S
C1332 C1336 1.350 . S
C1333 C1336 1.463 . S
C1333 C1338 1.350 . S
C1333 N1341 1.427 . S
C1334 H1325 0.930 . S
C1334 C1332 1.378 . S
C1334 C1335 1.367 . S
C1335 C1334 1.367 . S
C1335 C1337 1.433 . S
C1336 C1332 1.350 . S
C1336 C1333 1.463 . S
C1336 N1340 1.427 . S
C1337 H1327 0.929 . S
C1337 C1335 1.433 . S
C1337 N1340 1.384 . S
C1338 H1329 0.929 . S
C1338 C1330 1.378 . S
C1338 C1333 1.350 . S
C1339 H1326 0.929 . S
C1339 C1331 1.433 . S
C1339 N1341 1.384 . S
N1340 C1336 1.427 . S
N1340 C1337 1.384 . S
N1341 C1333 1.427 . S
N1341 C1339 1.384 . S
H1342 C1348 0.930 . S
H1343 C1352 0.930 . S
H1344 C1357 0.929 . S
H1345 C1355 0.929 . S
H1346 C1350 0.929 . S
H1347 C1356 0.929 . S
C1348 H1342 0.930 . S
C1348 C1349 1.367 1_455 S
C1348 C1356 1.378 . S
C1349 C1348 1.367 1_655 S
C1349 C1357 1.433 . S
C1350 H1346 0.929 . S
C1350 C1352 1.378 . S
C1350 C1354 1.338 1_655 S
C1351 C1354 1.461 1_655 S
C1351 C1356 1.331 1_655 S
C1351 N1359 1.453 . S
C1352 H1343 0.930 . S
C1352 C1350 1.378 . S
C1352 C1353 1.367 1_655 S
C1353 C1352 1.367 1_455 S
C1353 C1355 1.433 . S
C1354 C1350 1.338 1_455 S
C1354 C1351 1.461 1_455 S
C1354 N1358 1.443 . S
C1355 H1345 0.929 . S
C1355 C1353 1.433 . S
C1355 N1358 1.384 . S
C1356 H1347 0.929 . S
C1356 C1348 1.378 . S
C1356 C1351 1.331 1_455 S
C1357 H1344 0.929 . S
C1357 C1349 1.433 . S
C1357 N1359 1.384 . S
N1358 C1354 1.443 . S
N1358 C1355 1.384 . S
N1359 C1351 1.453 . S
N1359 C1357 1.384 . S
H1360 C1366 0.930 . S
H1361 C1370 0.930 . S
H1362 C1375 0.929 . S
H1363 C1373 0.929 . S
H1364 C1368 0.929 . S
H1365 C1374 0.929 . S
C1366 H1360 0.930 . S
C1366 C1367 1.367 . S
C1366 C1374 1.378 . S
C1367 C1366 1.367 . S
C1367 C1375 1.433 . S
C1368 H1364 0.929 . S
C1368 C1370 1.378 . S
C1368 C1372 1.350 . S
C1369 C1372 1.463 . S
C1369 C1374 1.350 . S
C1369 N1377 1.427 . S
C1370 H1361 0.930 . S
C1370 C1368 1.378 . S
C1370 C1371 1.367 . S
C1371 C1370 1.367 . S
C1371 C1373 1.433 . S
C1372 C1368 1.350 . S
C1372 C1369 1.463 . S
C1372 N1376 1.427 . S
C1373 H1363 0.929 . S
C1373 C1371 1.433 . S
C1373 N1376 1.384 . S
C1374 H1365 0.929 . S
C1374 C1366 1.378 . S
C1374 C1369 1.350 . S
C1375 H1362 0.929 . S
C1375 C1367 1.433 . S
C1375 N1377 1.384 . S
N1376 C1372 1.427 . S
N1376 C1373 1.384 . S
N1377 C1369 1.427 . S
N1377 C1375 1.384 . S
H1378 C1384 0.930 . S
H1379 C1388 0.930 . S
H1380 C1393 0.929 . S
H1381 C1391 0.929 . S
H1382 C1386 0.929 . S
H1383 C1392 0.929 . S
C1384 H1378 0.930 . S
C1384 C1385 1.367 . S
C1384 C1392 1.378 . S
C1385 C1384 1.367 . S
C1385 C1393 1.433 . S
C1386 H1382 0.929 . S
C1386 C1388 1.378 . S
C1386 C1390 1.350 . S
C1387 C1390 1.463 . S
C1387 C1392 1.350 . S
C1387 N1395 1.427 . S
C1388 H1379 0.930 . S
C1388 C1386 1.378 . S
C1388 C1389 1.367 . S
C1389 C1388 1.367 . S
C1389 C1391 1.433 . S
C1390 C1386 1.350 . S
C1390 C1387 1.463 . S
C1390 N1394 1.427 . S
C1391 H1381 0.929 . S
C1391 C1389 1.433 . S
C1391 N1394 1.384 . S
C1392 H1383 0.929 . S
C1392 C1384 1.378 . S
C1392 C1387 1.350 . S
C1393 H1380 0.929 . S
C1393 C1385 1.433 . S
C1393 N1395 1.384 . S
N1394 C1390 1.427 . S
N1394 C1391 1.384 . S
N1395 C1387 1.427 . S
N1395 C1393 1.384 . S
H1396 C1402 0.930 . S
H1397 C1406 0.930 . S
H1398 C1411 0.929 . S
H1399 C1409 0.929 . S
H1400 C1404 0.935 . S
H1401 C1410 0.929 1_554 S
C1402 H1396 0.930 . S
C1402 C1403 1.367 . S
C1402 C1410 1.378 . S
C1403 C1402 1.367 . S
C1403 C1411 1.433 . S
C1404 H1400 0.935 . S
C1404 C1406 1.374 1_556 S
C1404 C1408 1.347 1_556 S
C1405 C1408 1.455 1_556 S
C1405 C1410 1.350 . S
C1405 N1413 1.427 . S
C1406 H1397 0.930 . S
C1406 C1404 1.374 1_554 S
C1406 C1407 1.367 . S
C1407 C1406 1.367 . S
C1407 C1409 1.433 . S
C1408 C1404 1.347 1_554 S
C1408 C1405 1.455 1_554 S
C1408 N1412 1.439 . S
C1409 H1399 0.929 . S
C1409 C1407 1.433 . S
C1409 N1412 1.384 . S
C1410 H1401 0.929 1_556 S
C1410 C1402 1.378 . S
C1410 C1405 1.350 . S
C1411 H1398 0.929 . S
C1411 C1403 1.433 . S
C1411 N1413 1.384 . S
N1412 C1408 1.439 . S
N1412 C1409 1.384 . S
N1413 C1405 1.427 . S
N1413 C1411 1.384 . S
H1414 C1420 0.930 . S
H1415 C1424 0.930 . S
H1416 C1429 0.929 . S
H1417 C1427 0.929 . S
H1418 C1422 0.929 . S
H1419 C1428 0.929 . S
C1420 H1414 0.930 . S
C1420 C1421 1.367 . S
C1420 C1428 1.378 . S
C1421 C1420 1.367 . S
C1421 C1429 1.433 . S
C1422 H1418 0.929 . S
C1422 C1424 1.378 . S
C1422 C1426 1.350 . S
C1423 C1426 1.463 . S
C1423 C1428 1.350 . S
C1423 N1431 1.427 . S
C1424 H1415 0.930 . S
C1424 C1422 1.378 . S
C1424 C1425 1.367 . S
C1425 C1424 1.367 . S
C1425 C1427 1.433 . S
C1426 C1422 1.350 . S
C1426 C1423 1.463 . S
C1426 N1430 1.427 . S
C1427 H1417 0.929 . S
C1427 C1425 1.433 . S
C1427 N1430 1.384 . S
C1428 H1419 0.929 . S
C1428 C1420 1.378 . S
C1428 C1423 1.350 . S
C1429 H1416 0.929 . S
C1429 C1421 1.433 . S
C1429 N1431 1.384 . S
N1430 C1426 1.427 . S
N1430 C1427 1.384 . S
N1431 C1423 1.427 . S
N1431 C1429 1.384 . S
H1432 C1438 0.930 . S
H1433 C1442 0.930 . S
H1434 C1447 0.929 . S
H1435 C1445 0.929 . S
H1436 C1440 0.929 . S
H1437 C1446 0.929 . S
C1438 H1432 0.930 . S
C1438 C1439 1.367 . S
C1438 C1446 1.378 . S
C1439 C1438 1.367 . S
C1439 C1447 1.433 . S
C1440 H1436 0.929 . S
C1440 C1442 1.378 . S
C1440 C1444 1.350 . S
C1441 C1444 1.463 . S
C1441 C1446 1.350 . S
C1441 N1449 1.427 . S
C1442 H1433 0.930 . S
C1442 C1440 1.378 . S
C1442 C1443 1.367 . S
C1443 C1442 1.367 . S
C1443 C1445 1.433 . S
C1444 C1440 1.350 . S
C1444 C1441 1.463 . S
C1444 N1448 1.427 . S
C1445 H1435 0.929 . S
C1445 C1443 1.433 . S
C1445 N1448 1.384 . S
C1446 H1437 0.929 . S
C1446 C1438 1.378 . S
C1446 C1441 1.350 . S
C1447 H1434 0.929 . S
C1447 C1439 1.433 . S
C1447 N1449 1.384 . S
N1448 C1444 1.427 . S
N1448 C1445 1.384 . S
N1449 C1441 1.427 . S
N1449 C1447 1.384 . S
H1450 C1456 0.930 . S
H1451 C1460 0.930 . S
H1452 C1465 0.929 . S
H1453 C1463 0.929 . S
H1454 C1458 0.929 . S
H1455 C1464 0.929 . S
C1456 H1450 0.930 . S
C1456 C1457 1.367 . S
C1456 C1464 1.378 . S
C1457 C1456 1.367 . S
C1457 C1465 1.433 . S
C1458 H1454 0.929 . S
C1458 C1460 1.378 . S
C1458 C1462 1.350 . S
C1459 C1462 1.463 . S
C1459 C1464 1.350 . S
C1459 N1467 1.427 . S
C1460 H1451 0.930 . S
C1460 C1458 1.378 . S
C1460 C1461 1.367 . S
C1461 C1460 1.367 . S
C1461 C1463 1.433 . S
C1462 C1458 1.350 . S
C1462 C1459 1.463 . S
C1462 N1466 1.427 . S
C1463 H1453 0.929 . S
C1463 C1461 1.433 . S
C1463 N1466 1.384 . S
C1464 H1455 0.929 . S
C1464 C1456 1.378 . S
C1464 C1459 1.350 . S
C1465 H1452 0.929 . S
C1465 C1457 1.433 . S
C1465 N1467 1.384 . S
N1466 C1462 1.427 . S
N1466 C1463 1.384 . S
N1467 C1459 1.427 . S
N1467 C1465 1.384 . S
H1468 C1474 0.930 . S
H1469 C1478 0.930 . S
H1470 C1483 0.929 . S
H1471 C1481 0.929 . S
H1472 C1476 0.929 . S
H1473 C1482 0.929 . S
C1474 H1468 0.930 . S
C1474 C1475 1.367 . S
C1474 C1482 1.378 . S
C1475 C1474 1.367 . S
C1475 C1483 1.433 . S
C1476 H1472 0.929 . S
C1476 C1478 1.378 . S
C1476 C1480 1.350 . S
C1477 C1480 1.463 . S
C1477 C1482 1.350 . S
C1477 N1485 1.427 . S
C1478 H1469 0.930 . S
C1478 C1476 1.378 . S
C1478 C1479 1.367 . S
C1479 C1478 1.367 . S
C1479 C1481 1.433 . S
C1480 C1476 1.350 . S
C1480 C1477 1.463 . S
C1480 N1484 1.427 . S
C1481 H1471 0.929 . S
C1481 C1479 1.433 . S
C1481 N1484 1.384 . S
C1482 H1473 0.929 . S
C1482 C1474 1.378 . S
C1482 C1477 1.350 . S
C1483 H1470 0.929 . S
C1483 C1475 1.433 . S
C1483 N1485 1.384 . S
N1484 C1480 1.427 . S
N1484 C1481 1.384 . S
N1485 C1477 1.427 . S
N1485 C1483 1.384 . S
H1486 C1492 0.930 . S
H1487 C1496 0.930 . S
H1488 C1501 0.929 . S
H1489 C1499 0.929 . S
H1490 C1494 0.929 . S
H1491 C1500 0.929 . S
C1492 H1486 0.930 . S
C1492 C1493 1.367 . S
C1492 C1500 1.378 . S
C1493 C1492 1.367 . S
C1493 C1501 1.433 . S
C1494 H1490 0.929 . S
C1494 C1496 1.378 . S
C1494 C1498 1.350 . S
C1495 C1498 1.463 . S
C1495 C1500 1.350 . S
C1495 N1503 1.427 . S
C1496 H1487 0.930 . S
C1496 C1494 1.378 . S
C1496 C1497 1.367 . S
C1497 C1496 1.367 . S
C1497 C1499 1.433 . S
C1498 C1494 1.350 . S
C1498 C1495 1.463 . S
C1498 N1502 1.427 . S
C1499 H1489 0.929 . S
C1499 C1497 1.433 . S
C1499 N1502 1.384 . S
C1500 H1491 0.929 . S
C1500 C1492 1.378 . S
C1500 C1495 1.350 . S
C1501 H1488 0.929 . S
C1501 C1493 1.433 . S
C1501 N1503 1.384 . S
N1502 C1498 1.427 . S
N1502 C1499 1.384 . S
N1503 C1495 1.427 . S
N1503 C1501 1.384 . S
H1504 C1510 0.930 . S
H1505 C1514 0.930 . S
H1506 C1519 0.929 . S
H1507 C1517 0.929 . S
H1508 C1512 0.929 . S
H1509 C1518 0.929 . S
C1510 H1504 0.930 . S
C1510 C1511 1.367 . S
C1510 C1518 1.378 . S
C1511 C1510 1.367 . S
C1511 C1519 1.433 . S
C1512 H1508 0.929 . S
C1512 C1514 1.378 . S
C1512 C1516 1.350 . S
C1513 C1516 1.463 . S
C1513 C1518 1.350 . S
C1513 N1521 1.427 . S
C1514 H1505 0.930 . S
C1514 C1512 1.378 . S
C1514 C1515 1.367 . S
C1515 C1514 1.367 . S
C1515 C1517 1.433 . S
C1516 C1512 1.350 . S
C1516 C1513 1.463 . S
C1516 N1520 1.427 . S
C1517 H1507 0.929 . S
C1517 C1515 1.433 . S
C1517 N1520 1.384 . S
C1518 H1509 0.929 . S
C1518 C1510 1.378 . S
C1518 C1513 1.350 . S
C1519 H1506 0.929 . S
C1519 C1511 1.433 . S
C1519 N1521 1.384 . S
N1520 C1516 1.427 . S
N1520 C1517 1.384 . S
N1521 C1513 1.427 . S
N1521 C1519 1.384 . S
H1522 C1528 0.930 1_565 S
H1523 C1532 0.930 . S
H1524 C1537 0.929 . S
H1525 C1535 0.929 . S
H1526 C1530 0.929 . S
H1527 C1536 0.929 1_565 S
C1528 H1522 0.930 1_545 S
C1528 C1529 1.367 . S
C1528 C1536 1.378 . S
C1529 C1528 1.367 . S
C1529 C1537 1.433 . S
C1530 H1526 0.929 . S
C1530 C1532 1.378 . S
C1530 C1534 1.350 . S
C1531 C1534 1.463 . S
C1531 C1536 1.350 . S
C1531 N1539 1.427 . S
C1532 H1523 0.930 . S
C1532 C1530 1.378 . S
C1532 C1533 1.367 . S
C1533 C1532 1.367 . S
C1533 C1535 1.433 1_545 S
C1534 C1530 1.350 . S
C1534 C1531 1.463 . S
C1534 N1538 1.427 1_545 S
C1535 H1525 0.929 . S
C1535 C1533 1.433 1_565 S
C1535 N1538 1.384 . S
C1536 H1527 0.929 1_545 S
C1536 C1528 1.378 . S
C1536 C1531 1.350 . S
C1537 H1524 0.929 . S
C1537 C1529 1.433 . S
C1537 N1539 1.384 . S
N1538 C1534 1.427 1_565 S
N1538 C1535 1.384 . S
N1539 C1531 1.427 . S
N1539 C1537 1.384 . S
H1540 C1546 0.930 . S
H1541 C1550 0.930 . S
H1542 C1555 0.929 . S
H1543 C1553 0.929 . S
H1544 C1548 0.929 . S
H1545 C1554 0.929 . S
C1546 H1540 0.930 . S
C1546 C1547 1.367 . S
C1546 C1554 1.378 . S
C1547 C1546 1.367 . S
C1547 C1555 1.433 . S
C1548 H1544 0.929 . S
C1548 C1550 1.378 . S
C1548 C1552 1.350 . S
C1549 C1552 1.463 . S
C1549 C1554 1.350 . S
C1549 N1557 1.427 . S
C1550 H1541 0.930 . S
C1550 C1548 1.378 . S
C1550 C1551 1.367 . S
C1551 C1550 1.367 . S
C1551 C1553 1.433 . S
C1552 C1548 1.350 . S
C1552 C1549 1.463 . S
C1552 N1556 1.427 . S
C1553 H1543 0.929 . S
C1553 C1551 1.433 . S
C1553 N1556 1.384 . S
C1554 H1545 0.929 . S
C1554 C1546 1.378 . S
C1554 C1549 1.350 . S
C1555 H1542 0.929 . S
C1555 C1547 1.433 . S
C1555 N1557 1.384 . S
N1556 C1552 1.427 . S
N1556 C1553 1.384 . S
N1557 C1549 1.427 . S
N1557 C1555 1.384 . S
H1558 C1564 0.930 . S
H1559 C1568 0.930 . S
H1560 C1573 0.929 . S
H1561 C1571 0.929 . S
H1562 C1566 0.929 . S
H1563 C1572 0.929 . S
C1564 H1558 0.930 . S
C1564 C1565 1.367 . S
C1564 C1572 1.378 . S
C1565 C1564 1.367 . S
C1565 C1573 1.433 . S
C1566 H1562 0.929 . S
C1566 C1568 1.378 . S
C1566 C1570 1.350 . S
C1567 C1570 1.463 . S
C1567 C1572 1.350 . S
C1567 N1575 1.427 . S
C1568 H1559 0.930 . S
C1568 C1566 1.378 . S
C1568 C1569 1.367 . S
C1569 C1568 1.367 . S
C1569 C1571 1.433 . S
C1570 C1566 1.350 . S
C1570 C1567 1.463 . S
C1570 N1574 1.427 . S
C1571 H1561 0.929 . S
C1571 C1569 1.433 . S
C1571 N1574 1.384 . S
C1572 H1563 0.929 . S
C1572 C1564 1.378 . S
C1572 C1567 1.350 . S
C1573 H1560 0.929 . S
C1573 C1565 1.433 . S
C1573 N1575 1.384 . S
N1574 C1570 1.427 . S
N1574 C1571 1.384 . S
N1575 C1567 1.427 . S
N1575 C1573 1.384 . S
H1576 C1582 0.930 . S
H1577 C1586 0.930 . S
H1578 C1591 0.929 . S
H1579 C1589 0.929 . S
H1580 C1584 0.929 . S
H1581 C1590 0.929 . S
C1582 H1576 0.930 . S
C1582 C1583 1.367 . S
C1582 C1590 1.378 . S
C1583 C1582 1.367 . S
C1583 C1591 1.433 . S
C1584 H1580 0.929 . S
C1584 C1586 1.378 . S
C1584 C1588 1.350 . S
C1585 C1588 1.463 . S
C1585 C1590 1.350 . S
C1585 N1593 1.427 . S
C1586 H1577 0.930 . S
C1586 C1584 1.378 . S
C1586 C1587 1.367 . S
C1587 C1586 1.367 . S
C1587 C1589 1.433 . S
C1588 C1584 1.350 . S
C1588 C1585 1.463 . S
C1588 N1592 1.427 . S
C1589 H1579 0.929 . S
C1589 C1587 1.433 . S
C1589 N1592 1.384 . S
C1590 H1581 0.929 . S
C1590 C1582 1.378 . S
C1590 C1585 1.350 . S
C1591 H1578 0.929 . S
C1591 C1583 1.433 . S
C1591 N1593 1.384 . S
N1592 C1588 1.427 . S
N1592 C1589 1.384 . S
N1593 C1585 1.427 . S
N1593 C1591 1.384 . S
H1594 C1600 0.930 . S
H1595 C1604 0.930 . S
H1596 C1609 0.929 . S
H1597 C1607 0.929 . S
H1598 C1602 0.929 . S
H1599 C1608 0.929 . S
C1600 H1594 0.930 . S
C1600 C1601 1.367 . S
C1600 C1608 1.378 . S
C1601 C1600 1.367 . S
C1601 C1609 1.433 . S
C1602 H1598 0.929 . S
C1602 C1604 1.378 . S
C1602 C1606 1.350 . S
C1603 C1606 1.463 . S
C1603 C1608 1.350 . S
C1603 N1611 1.427 . S
C1604 H1595 0.930 . S
C1604 C1602 1.378 . S
C1604 C1605 1.367 . S
C1605 C1604 1.367 . S
C1605 C1607 1.433 . S
C1606 C1602 1.350 . S
C1606 C1603 1.463 . S
C1606 N1610 1.427 . S
C1607 H1597 0.929 . S
C1607 C1605 1.433 . S
C1607 N1610 1.384 . S
C1608 H1599 0.929 . S
C1608 C1600 1.378 . S
C1608 C1603 1.350 . S
C1609 H1596 0.929 . S
C1609 C1601 1.433 . S
C1609 N1611 1.384 . S
N1610 C1606 1.427 . S
N1610 C1607 1.384 . S
N1611 C1603 1.427 . S
N1611 C1609 1.384 . S
H1612 C1618 0.930 . S
H1613 C1622 0.930 . S
H1614 C1627 0.929 . S
H1615 C1625 0.929 . S
H1616 C1620 0.929 . S
H1617 C1626 0.929 . S
C1618 H1612 0.930 . S
C1618 C1619 1.367 . S
C1618 C1626 1.378 . S
C1619 C1618 1.367 . S
C1619 C1627 1.433 . S
C1620 H1616 0.929 . S
C1620 C1622 1.378 . S
C1620 C1624 1.350 . S
C1621 C1624 1.463 . S
C1621 C1626 1.350 . S
C1621 N1629 1.427 . S
C1622 H1613 0.930 . S
C1622 C1620 1.378 . S
C1622 C1623 1.367 . S
C1623 C1622 1.367 . S
C1623 C1625 1.433 . S
C1624 C1620 1.350 . S
C1624 C1621 1.463 . S
C1624 N1628 1.427 . S
C1625 H1615 0.929 . S
C1625 C1623 1.433 . S
C1625 N1628 1.384 . S
C1626 H1617 0.929 . S
C1626 C1618 1.378 . S
C1626 C1621 1.350 . S
C1627 H1614 0.929 . S
C1627 C1619 1.433 . S
C1627 N1629 1.384 . S
N1628 C1624 1.427 . S
N1628 C1625 1.384 . S
N1629 C1621 1.427 . S
N1629 C1627 1.384 . S
H1630 C1636 0.930 . S
H1631 C1640 0.930 . S
H1632 C1645 0.929 . S
H1633 C1643 0.929 . S
H1634 C1638 0.929 . S
H1635 C1644 0.929 . S
C1636 H1630 0.930 . S
C1636 C1637 1.367 . S
C1636 C1644 1.378 . S
C1637 C1636 1.367 . S
C1637 C1645 1.433 . S
C1638 H1634 0.929 . S
C1638 C1640 1.378 . S
C1638 C1642 1.350 . S
C1639 C1642 1.463 . S
C1639 C1644 1.350 . S
C1639 N1647 1.427 . S
C1640 H1631 0.930 . S
C1640 C1638 1.378 . S
C1640 C1641 1.367 . S
C1641 C1640 1.367 . S
C1641 C1643 1.433 . S
C1642 C1638 1.350 . S
C1642 C1639 1.463 . S
C1642 N1646 1.427 . S
C1643 H1633 0.929 . S
C1643 C1641 1.433 . S
C1643 N1646 1.384 . S
C1644 H1635 0.929 . S
C1644 C1636 1.378 . S
C1644 C1639 1.350 . S
C1645 H1632 0.929 . S
C1645 C1637 1.433 . S
C1645 N1647 1.384 . S
N1646 C1642 1.427 . S
N1646 C1643 1.384 . S
N1647 C1639 1.427 . S
N1647 C1645 1.384 . S
H1648 C1654 0.930 . S
H1649 C1658 0.930 . S
H1650 C1663 0.929 . S
H1651 C1661 0.929 . S
H1652 C1656 0.929 . S
H1653 C1662 0.929 . S
C1654 H1648 0.930 . S
C1654 C1655 1.367 . S
C1654 C1662 1.378 . S
C1655 C1654 1.367 . S
C1655 C1663 1.433 . S
C1656 H1652 0.929 . S
C1656 C1658 1.378 . S
C1656 C1660 1.350 . S
C1657 C1660 1.463 . S
C1657 C1662 1.350 . S
C1657 N1665 1.427 . S
C1658 H1649 0.930 . S
C1658 C1656 1.378 . S
C1658 C1659 1.367 . S
C1659 C1658 1.367 . S
C1659 C1661 1.433 . S
C1660 C1656 1.350 . S
C1660 C1657 1.463 . S
C1660 N1664 1.427 . S
C1661 H1651 0.929 . S
C1661 C1659 1.433 . S
C1661 N1664 1.384 . S
C1662 H1653 0.929 . S
C1662 C1654 1.378 . S
C1662 C1657 1.350 . S
C1663 H1650 0.929 . S
C1663 C1655 1.433 . S
C1663 N1665 1.384 . S
N1664 C1660 1.427 . S
N1664 C1661 1.384 . S
N1665 C1657 1.427 . S
N1665 C1663 1.384 . S
H1666 C1672 0.930 . S
H1667 C1676 0.930 . S
H1668 C1681 0.929 . S
H1669 C1679 0.929 . S
H1670 C1674 0.929 . S
H1671 C1680 0.929 . S
C1672 H1666 0.930 . S
C1672 C1673 1.367 1_455 S
C1672 C1680 1.378 . S
C1673 C1672 1.367 1_655 S
C1673 C1681 1.433 . S
C1674 H1670 0.929 . S
C1674 C1676 1.378 . S
C1674 C1678 1.350 . S
C1675 C1678 1.463 . S
C1675 C1680 1.350 1_655 S
C1675 N1683 1.427 . S
C1676 H1667 0.930 . S
C1676 C1674 1.378 . S
C1676 C1677 1.367 1_655 S
C1677 C1676 1.367 1_455 S
C1677 C1679 1.433 . S
C1678 C1674 1.350 . S
C1678 C1675 1.463 . S
C1678 N1682 1.427 1_655 S
C1679 H1669 0.929 . S
C1679 C1677 1.433 . S
C1679 N1682 1.384 . S
C1680 H1671 0.929 . S
C1680 C1672 1.378 . S
C1680 C1675 1.350 1_455 S
C1681 H1668 0.929 . S
C1681 C1673 1.433 . S
C1681 N1683 1.384 . S
N1682 C1678 1.427 1_455 S
N1682 C1679 1.384 . S
N1683 C1675 1.427 . S
N1683 C1681 1.384 . S
H1684 C1690 0.930 . S
H1685 C1694 0.930 . S
H1686 C1699 0.929 . S
H1687 C1697 0.929 . S
H1688 C1692 0.929 . S
H1689 C1698 0.929 . S
C1690 H1684 0.930 . S
C1690 C1691 1.367 . S
C1690 C1698 1.378 . S
C1691 C1690 1.367 . S
C1691 C1699 1.433 . S
C1692 H1688 0.929 . S
C1692 C1694 1.378 . S
C1692 C1696 1.350 . S
C1693 C1696 1.463 . S
C1693 C1698 1.350 . S
C1693 N1701 1.427 . S
C1694 H1685 0.930 . S
C1694 C1692 1.378 . S
C1694 C1695 1.367 . S
C1695 C1694 1.367 . S
C1695 C1697 1.433 . S
C1696 C1692 1.350 . S
C1696 C1693 1.463 . S
C1696 N1700 1.427 . S
C1697 H1687 0.929 . S
C1697 C1695 1.433 . S
C1697 N1700 1.384 . S
C1698 H1689 0.929 . S
C1698 C1690 1.378 . S
C1698 C1693 1.350 . S
C1699 H1686 0.929 . S
C1699 C1691 1.433 . S
C1699 N1701 1.384 . S
N1700 C1696 1.427 . S
N1700 C1697 1.384 . S
N1701 C1693 1.427 . S
N1701 C1699 1.384 . S
H1702 C1708 0.930 . S
H1703 C1712 0.930 . S
H1704 C1717 0.929 . S
H1705 C1715 0.929 . S
H1706 C1710 0.929 . S
H1707 C1716 0.929 1_655 S
C1708 H1702 0.930 . S
C1708 C1709 1.367 . S
C1708 C1716 1.378 . S
C1709 C1708 1.367 . S
C1709 C1717 1.433 . S
C1710 H1706 0.929 . S
C1710 C1712 1.378 . S
C1710 C1714 1.350 . S
C1711 C1714 1.463 . S
C1711 C1716 1.350 . S
C1711 N1719 1.427 . S
C1712 H1703 0.930 . S
C1712 C1710 1.378 . S
C1712 C1713 1.367 . S
C1713 C1712 1.367 . S
C1713 C1715 1.433 1_455 S
C1714 C1710 1.350 . S
C1714 C1711 1.463 . S
C1714 N1718 1.427 . S
C1715 H1705 0.929 . S
C1715 C1713 1.433 1_655 S
C1715 N1718 1.384 1_655 S
C1716 H1707 0.929 1_455 S
C1716 C1708 1.378 . S
C1716 C1711 1.350 . S
C1717 H1704 0.929 . S
C1717 C1709 1.433 . S
C1717 N1719 1.384 . S
N1718 C1714 1.427 . S
N1718 C1715 1.384 1_455 S
N1719 C1711 1.427 . S
N1719 C1717 1.384 . S
H1720 C1726 0.930 . S
H1721 C1730 0.930 . S
H1722 C1735 0.929 . S
H1723 C1733 0.929 . S
H1724 C1728 0.929 . S
H1725 C1734 0.929 . S
C1726 H1720 0.930 . S
C1726 C1727 1.367 . S
C1726 C1734 1.378 . S
C1727 C1726 1.367 . S
C1727 C1735 1.433 . S
C1728 H1724 0.929 . S
C1728 C1730 1.378 . S
C1728 C1732 1.350 . S
C1729 C1732 1.463 . S
C1729 C1734 1.350 . S
C1729 N1737 1.427 . S
C1730 H1721 0.930 . S
C1730 C1728 1.378 . S
C1730 C1731 1.367 . S
C1731 C1730 1.367 . S
C1731 C1733 1.433 . S
C1732 C1728 1.350 . S
C1732 C1729 1.463 . S
C1732 N1736 1.427 . S
C1733 H1723 0.929 . S
C1733 C1731 1.433 . S
C1733 N1736 1.384 . S
C1734 H1725 0.929 . S
C1734 C1726 1.378 . S
C1734 C1729 1.350 . S
C1735 H1722 0.929 . S
C1735 C1727 1.433 . S
C1735 N1737 1.384 . S
N1736 C1732 1.427 . S
N1736 C1733 1.384 . S
N1737 C1729 1.427 . S
N1737 C1735 1.384 . S
H1738 C1744 0.930 . S
H1739 C1748 0.930 . S
H1740 C1753 0.929 . S
H1741 C1751 0.929 . S
H1742 C1746 0.929 . S
H1743 C1752 0.929 . S
C1744 H1738 0.930 . S
C1744 C1745 1.367 . S
C1744 C1752 1.378 . S
C1745 C1744 1.367 . S
C1745 C1753 1.433 . S
C1746 H1742 0.929 . S
C1746 C1748 1.378 . S
C1746 C1750 1.350 . S
C1747 C1750 1.463 . S
C1747 C1752 1.350 . S
C1747 N1755 1.427 . S
C1748 H1739 0.930 . S
C1748 C1746 1.378 . S
C1748 C1749 1.367 . S
C1749 C1748 1.367 . S
C1749 C1751 1.433 . S
C1750 C1746 1.350 . S
C1750 C1747 1.463 . S
C1750 N1754 1.427 . S
C1751 H1741 0.929 . S
C1751 C1749 1.433 . S
C1751 N1754 1.384 . S
C1752 H1743 0.929 . S
C1752 C1744 1.378 . S
C1752 C1747 1.350 . S
C1753 H1740 0.929 . S
C1753 C1745 1.433 . S
C1753 N1755 1.384 . S
N1754 C1750 1.427 . S
N1754 C1751 1.384 . S
N1755 C1747 1.427 . S
N1755 C1753 1.384 . S
H1756 C1762 0.930 . S
H1757 C1766 0.930 . S
H1758 C1771 0.929 . S
H1759 C1769 0.929 . S
H1760 C1764 0.929 . S
H1761 C1770 0.929 . S
C1762 H1756 0.930 . S
C1762 C1763 1.367 . S
C1762 C1770 1.378 . S
C1763 C1762 1.367 . S
C1763 C1771 1.433 . S
C1764 H1760 0.929 . S
C1764 C1766 1.378 . S
C1764 C1768 1.350 . S
C1765 C1768 1.463 . S
C1765 C1770 1.350 . S
C1765 N1773 1.427 . S
C1766 H1757 0.930 . S
C1766 C1764 1.378 . S
C1766 C1767 1.367 . S
C1767 C1766 1.367 . S
C1767 C1769 1.433 . S
C1768 C1764 1.350 . S
C1768 C1765 1.463 . S
C1768 N1772 1.427 . S
C1769 H1759 0.929 . S
C1769 C1767 1.433 . S
C1769 N1772 1.384 . S
C1770 H1761 0.929 . S
C1770 C1762 1.378 . S
C1770 C1765 1.350 . S
C1771 H1758 0.929 . S
C1771 C1763 1.433 . S
C1771 N1773 1.384 . S
N1772 C1768 1.427 . S
N1772 C1769 1.384 . S
N1773 C1765 1.427 . S
N1773 C1771 1.384 . S
H1774 C1780 0.930 . S
H1775 C1784 0.930 . S
H1776 C1789 0.929 . S
H1777 C1787 0.929 . S
H1778 C1782 0.929 . S
H1779 C1788 0.929 . S
C1780 H1774 0.930 . S
C1780 C1781 1.367 . S
C1780 C1788 1.378 . S
C1781 C1780 1.367 . S
C1781 C1789 1.433 . S
C1782 H1778 0.929 . S
C1782 C1784 1.378 . S
C1782 C1786 1.350 . S
C1783 C1786 1.463 . S
C1783 C1788 1.350 . S
C1783 N1791 1.427 . S
C1784 H1775 0.930 . S
C1784 C1782 1.378 . S
C1784 C1785 1.367 . S
C1785 C1784 1.367 . S
C1785 C1787 1.433 . S
C1786 C1782 1.350 . S
C1786 C1783 1.463 . S
C1786 N1790 1.427 . S
C1787 H1777 0.929 . S
C1787 C1785 1.433 . S
C1787 N1790 1.384 . S
C1788 H1779 0.929 . S
C1788 C1780 1.378 . S
C1788 C1783 1.350 . S
C1789 H1776 0.929 . S
C1789 C1781 1.433 . S
C1789 N1791 1.384 . S
N1790 C1786 1.427 . S
N1790 C1787 1.384 . S
N1791 C1783 1.427 . S
N1791 C1789 1.384 . S
H1792 C1798 0.930 . S
H1793 C1802 0.930 . S
H1794 C1807 0.929 . S
H1795 C1805 0.929 . S
H1796 C1800 0.929 . S
H1797 C1806 0.929 . S
C1798 H1792 0.930 . S
C1798 C1799 1.367 . S
C1798 C1806 1.378 . S
C1799 C1798 1.367 . S
C1799 C1807 1.433 . S
C1800 H1796 0.929 . S
C1800 C1802 1.378 . S
C1800 C1804 1.350 . S
C1801 C1804 1.463 . S
C1801 C1806 1.350 . S
C1801 N1809 1.427 . S
C1802 H1793 0.930 . S
C1802 C1800 1.378 . S
C1802 C1803 1.367 . S
C1803 C1802 1.367 . S
C1803 C1805 1.433 . S
C1804 C1800 1.350 . S
C1804 C1801 1.463 . S
C1804 N1808 1.427 . S
C1805 H1795 0.929 . S
C1805 C1803 1.433 . S
C1805 N1808 1.384 . S
C1806 H1797 0.929 . S
C1806 C1798 1.378 . S
C1806 C1801 1.350 . S
C1807 H1794 0.929 . S
C1807 C1799 1.433 . S
C1807 N1809 1.384 . S
N1808 C1804 1.427 . S
N1808 C1805 1.384 . S
N1809 C1801 1.427 . S
N1809 C1807 1.384 . S
H1810 C1816 0.930 . S
H1811 C1820 0.930 . S
H1812 C1825 0.929 . S
H1813 C1823 0.929 . S
H1814 C1818 0.929 . S
H1815 C1824 0.929 . S
C1816 H1810 0.930 . S
C1816 C1817 1.367 . S
C1816 C1824 1.378 . S
C1817 C1816 1.367 . S
C1817 C1825 1.433 . S
C1818 H1814 0.929 . S
C1818 C1820 1.378 . S
C1818 C1822 1.350 . S
C1819 C1822 1.463 . S
C1819 C1824 1.350 . S
C1819 N1827 1.427 . S
C1820 H1811 0.930 . S
C1820 C1818 1.378 . S
C1820 C1821 1.367 . S
C1821 C1820 1.367 . S
C1821 C1823 1.433 . S
C1822 C1818 1.350 . S
C1822 C1819 1.463 . S
C1822 N1826 1.427 . S
C1823 H1813 0.929 . S
C1823 C1821 1.433 . S
C1823 N1826 1.384 . S
C1824 H1815 0.929 . S
C1824 C1816 1.378 . S
C1824 C1819 1.350 . S
C1825 H1812 0.929 . S
C1825 C1817 1.433 . S
C1825 N1827 1.384 . S
N1826 C1822 1.427 . S
N1826 C1823 1.384 . S
N1827 C1819 1.427 . S
N1827 C1825 1.384 . S
H1828 C1834 0.930 . S
H1829 C1838 0.930 . S
H1830 C1843 0.929 . S
H1831 C1841 0.929 . S
H1832 C1836 0.929 . S
H1833 C1842 0.929 . S
C1834 H1828 0.930 . S
C1834 C1835 1.367 . S
C1834 C1842 1.378 . S
C1835 C1834 1.367 . S
C1835 C1843 1.433 . S
C1836 H1832 0.929 . S
C1836 C1838 1.378 . S
C1836 C1840 1.350 . S
C1837 C1840 1.463 . S
C1837 C1842 1.350 . S
C1837 N1845 1.427 . S
C1838 H1829 0.930 . S
C1838 C1836 1.378 . S
C1838 C1839 1.367 . S
C1839 C1838 1.367 . S
C1839 C1841 1.433 . S
C1840 C1836 1.350 . S
C1840 C1837 1.463 . S
C1840 N1844 1.427 . S
C1841 H1831 0.929 . S
C1841 C1839 1.433 . S
C1841 N1844 1.384 . S
C1842 H1833 0.929 . S
C1842 C1834 1.378 . S
C1842 C1837 1.350 . S
C1843 H1830 0.929 . S
C1843 C1835 1.433 . S
C1843 N1845 1.384 . S
N1844 C1840 1.427 . S
N1844 C1841 1.384 . S
N1845 C1837 1.427 . S
N1845 C1843 1.384 . S
H1846 C1852 0.930 . S
H1847 C1856 0.930 . S
H1848 C1861 0.929 . S
H1849 C1859 0.929 . S
H1850 C1854 0.929 . S
H1851 C1860 0.929 . S
C1852 H1846 0.930 . S
C1852 C1853 1.367 . S
C1852 C1860 1.378 . S
C1853 C1852 1.367 . S
C1853 C1861 1.433 . S
C1854 H1850 0.929 . S
C1854 C1856 1.378 . S
C1854 C1858 1.350 . S
C1855 C1858 1.463 . S
C1855 C1860 1.350 . S
C1855 N1863 1.427 . S
C1856 H1847 0.930 . S
C1856 C1854 1.378 . S
C1856 C1857 1.367 . S
C1857 C1856 1.367 . S
C1857 C1859 1.433 . S
C1858 C1854 1.350 . S
C1858 C1855 1.463 . S
C1858 N1862 1.427 . S
C1859 H1849 0.929 . S
C1859 C1857 1.433 . S
C1859 N1862 1.384 . S
C1860 H1851 0.929 . S
C1860 C1852 1.378 . S
C1860 C1855 1.350 . S
C1861 H1848 0.929 . S
C1861 C1853 1.433 . S
C1861 N1863 1.384 . S
N1862 C1858 1.427 . S
N1862 C1859 1.384 . S
N1863 C1855 1.427 . S
N1863 C1861 1.384 . S
H1864 C1870 0.930 . S
H1865 C1874 0.930 . S
H1866 C1879 0.929 . S
H1867 C1877 0.929 1_554 S
H1868 C1872 0.929 . S
H1869 C1878 0.929 . S
C1870 H1864 0.930 . S
C1870 C1871 1.367 . S
C1870 C1878 1.378 . S
C1871 C1870 1.367 . S
C1871 C1879 1.433 . S
C1872 H1868 0.929 . S
C1872 C1874 1.378 . S
C1872 C1876 1.350 . S
C1873 C1876 1.463 . S
C1873 C1878 1.350 . S
C1873 N1881 1.427 . S
C1874 H1865 0.930 . S
C1874 C1872 1.378 . S
C1874 C1875 1.367 . S
C1875 C1874 1.367 . S
C1875 C1877 1.433 . S
C1876 C1872 1.350 . S
C1876 C1873 1.463 . S
C1876 N1880 1.427 . S
C1877 H1867 0.929 1_556 S
C1877 C1875 1.433 . S
C1877 N1880 1.384 . S
C1878 H1869 0.929 . S
C1878 C1870 1.378 . S
C1878 C1873 1.350 . S
C1879 H1866 0.929 . S
C1879 C1871 1.433 . S
C1879 N1881 1.384 . S
N1880 C1876 1.427 . S
N1880 C1877 1.384 . S
N1881 C1873 1.427 . S
N1881 C1879 1.384 . S
H1882 C1888 0.930 . S
H1883 C1892 0.930 . S
H1884 C1897 0.929 . S
H1885 C1895 0.929 . S
H1886 C1890 0.929 . S
H1887 C1896 0.929 . S
C1888 H1882 0.930 . S
C1888 C1889 1.367 . S
C1888 C1896 1.378 . S
C1889 C1888 1.367 . S
C1889 C1897 1.433 . S
C1890 H1886 0.929 . S
C1890 C1892 1.378 . S
C1890 C1894 1.350 . S
C1891 C1894 1.463 . S
C1891 C1896 1.350 . S
C1891 N1899 1.427 . S
C1892 H1883 0.930 . S
C1892 C1890 1.378 . S
C1892 C1893 1.367 . S
C1893 C1892 1.367 . S
C1893 C1895 1.433 . S
C1894 C1890 1.350 . S
C1894 C1891 1.463 . S
C1894 N1898 1.427 . S
C1895 H1885 0.929 . S
C1895 C1893 1.433 . S
C1895 N1898 1.384 . S
C1896 H1887 0.929 . S
C1896 C1888 1.378 . S
C1896 C1891 1.350 . S
C1897 H1884 0.929 . S
C1897 C1889 1.433 . S
C1897 N1899 1.384 . S
N1898 C1894 1.427 . S
N1898 C1895 1.384 . S
N1899 C1891 1.427 . S
N1899 C1897 1.384 . S
H1900 C1906 0.930 1_556 S
H1901 C1910 0.930 . S
H1902 C1915 0.929 . S
H1903 C1913 0.929 . S
H1904 C1908 0.929 . S
H1905 C1914 0.919 1_556 S
C1906 H1900 0.930 1_554 S
C1906 C1907 1.367 . S
C1906 C1914 1.380 . S
C1907 C1906 1.367 . S
C1907 C1915 1.433 . S
C1908 H1904 0.929 . S
C1908 C1910 1.378 . S
C1908 C1912 1.350 . S
C1909 C1912 1.463 . S
C1909 C1914 1.358 . S
C1909 N1917 1.427 . S
C1910 H1901 0.930 . S
C1910 C1908 1.378 . S
C1910 C1911 1.367 . S
C1911 C1910 1.367 . S
C1911 C1913 1.433 1_554 S
C1912 C1908 1.350 . S
C1912 C1909 1.463 . S
C1912 N1916 1.427 1_554 S
C1913 H1903 0.929 . S
C1913 C1911 1.433 1_556 S
C1913 N1916 1.384 . S
C1914 H1905 0.919 1_554 S
C1914 C1906 1.380 . S
C1914 C1909 1.358 . S
C1915 H1902 0.929 . S
C1915 C1907 1.433 . S
C1915 N1917 1.384 . S
N1916 C1912 1.427 1_556 S
N1916 C1913 1.384 . S
N1917 C1909 1.427 . S
N1917 C1915 1.384 . S
H1918 C1924 0.930 . S
H1919 C1928 0.930 . S
H1920 C1933 0.929 . S
H1921 C1931 0.929 . S
H1922 C1926 0.929 . S
H1923 C1932 0.929 . S
C1924 H1918 0.930 . S
C1924 C1925 1.367 . S
C1924 C1932 1.378 . S
C1925 C1924 1.367 . S
C1925 C1933 1.433 . S
C1926 H1922 0.929 . S
C1926 C1928 1.378 . S
C1926 C1930 1.350 . S
C1927 C1930 1.463 . S
C1927 C1932 1.350 . S
C1927 N1935 1.427 . S
C1928 H1919 0.930 . S
C1928 C1926 1.378 . S
C1928 C1929 1.367 . S
C1929 C1928 1.367 . S
C1929 C1931 1.433 . S
C1930 C1926 1.350 . S
C1930 C1927 1.463 . S
C1930 N1934 1.427 . S
C1931 H1921 0.929 . S
C1931 C1929 1.433 . S
C1931 N1934 1.384 . S
C1932 H1923 0.929 . S
C1932 C1924 1.378 . S
C1932 C1927 1.350 . S
C1933 H1920 0.929 . S
C1933 C1925 1.433 . S
C1933 N1935 1.384 . S
N1934 C1930 1.427 . S
N1934 C1931 1.384 . S
N1935 C1927 1.427 . S
N1935 C1933 1.384 . S
C1083 C642 1.451 . S
C1079 C202 1.469 . S
C1101 C690 1.661 . S
C1097 C261 1.702 . S
C1115 C282 1.406 . S
C1119 C726 1.393 . S
C1137 C762 1.586 . S
C1133 C162 1.631 . S
C1155 C788 1.478 . S
C1151 C402 1.485 . S
C1173 C824 1.597 . S
C1169 C482 1.600 . S
C1187 C442 1.473 . S
C1191 C859 1.518 . S
C1209 C896 1.625 1_565 S
C1205 C381 1.626 . S
C1223 C461 1.459 . S
C1227 C930 1.483 . S
C1245 C978 1.532 . S
C1241 C362 1.577 . S
C1259 C415 1.426 . S
C1263 C931 1.443 . S
C1281 C968 1.643 . S
C1277 C495 1.646 . S
C1295 C301 1.473 . S
C1299 C1014 1.434 . S
C1313 C175 1.654 . S
C1317 C1003 1.650 . S
C1331 C215 1.475 . S
C1335 C1004 1.470 . S
C1349 C242 1.629 . S
C1353 C1002 1.635 . S
C1367 C141 1.538 . S
C1371 C750 1.504 . S
C1385 C581 1.508 . S
C1389 C751 1.507 . S
C1407 C654 1.560 . S
C1403 C615 1.618 . S
C1425 C679 1.460 . S
C1421 C335 1.448 . S
C1439 C181 1.689 . S
C1443 C786 1.693 . S
C1461 C894 1.461 . S
C1457 C455 1.468 . S
C1479 C787 1.555 . S
C1475 C375 1.561 . S
C1497 C860 1.678 . S
C1493 C501 1.683 . S
C1515 C858 1.457 . S
C1511 C562 1.475 . S
C1529 C621 1.701 . S
C1533 C906 1.654 . S
C1547 C322 1.408 . S
C1551 C798 1.389 . S
C1569 C834 1.588 . S
C1565 C522 1.629 . S
C1583 C122 1.486 . S
C1587 C716 1.474 . S
C1605 C752 1.598 . S
C1601 C2 1.603 . S
C1623 C643 1.518 . S
C1619 C42 1.475 . S
C1641 C680 1.628 . S
C1637 C101 1.627 . S
C1655 C61 1.457 . S
C1659 C966 1.482 . S
C1673 C82 1.579 . S
C1677 C942 1.535 . S
C1691 C135 1.430 . S
C1695 C967 1.444 . S
C1709 C15 1.645 . S
C1713 C932 1.644 . S
C1731 C1050 1.450 . S
C1727 C341 1.477 . S
C1749 C1039 1.650 . S
C1745 C535 1.654 . S
C1767 C1040 1.470 . S
C1763 C575 1.475 . S
C1781 C602 1.630 . S
C1785 C1038 1.632 . S
C1799 C421 1.539 . S
C1803 C822 1.508 . S
C1821 C823 1.505 . S
C1817 C221 1.506 . S
C1839 C870 1.561 . S
C1835 C255 1.617 . S
C1857 C895 1.459 . S
C1853 C295 1.455 . S
C1871 C541 1.689 . S
C1875 C714 1.701 . S
C1893 C678 1.460 . S
C1889 C55 1.470 . S
C1907 C95 1.560 . S
C1911 C715 1.551 . S
C1929 C644 1.680 . S
C1925 C21 1.682 . S
