# Generated by pormake.
# Topology csq, (4,8)-cn, num edge types: 1
# Building blocks:
#     Node 0, Type 0, BuildingBlock: KOZSID_clean_sbu_0, # of connection points: 4
#     Node 1, Type 0, BuildingBlock: KOZSID_clean_sbu_0, # of connection points: 4
#     Node 2, Type 0, BuildingBlock: KOZSID_clean_sbu_0, # of connection points: 4
#     Node 3, Type 0, BuildingBlock: KOZSID_clean_sbu_0, # of connection points: 4
#     Node 4, Type 0, BuildingBlock: KOZSID_clean_sbu_0, # of connection points: 4
#     Node 5, Type 0, BuildingBlock: KOZSID_clean_sbu_0, # of connection points: 4
#     Node 6, Type 1, BuildingBlock: TAGTUT_clean_sbu_3, # of connection points: 8
#     Node 7, Type 1, BuildingBlock: TAGTUT_clean_sbu_3, # of connection points: 8
#     Node 8, Type 1, BuildingBlock: TAGTUT_clean_sbu_3, # of connection points: 8
#     Edge 9, Type (0, 1), BuildingBlock: XUDNAN_clean_linker_2, # of connection points: 2
#     Edge 10, Type (0, 1), BuildingBlock: XUDNAN_clean_linker_2, # of connection points: 2
#     Edge 11, Type (0, 1), BuildingBlock: XUDNAN_clean_linker_2, # of connection points: 2
#     Edge 12, Type (0, 1), BuildingBlock: XUDNAN_clean_linker_2, # of connection points: 2
#     Edge 13, Type (0, 1), BuildingBlock: XUDNAN_clean_linker_2, # of connection points: 2
#     Edge 14, Type (0, 1), BuildingBlock: XUDNAN_clean_linker_2, # of connection points: 2
#     Edge 15, Type (0, 1), BuildingBlock: XUDNAN_clean_linker_2, # of connection points: 2
#     Edge 16, Type (0, 1), BuildingBlock: XUDNAN_clean_linker_2, # of connection points: 2
#     Edge 17, Type (0, 1), BuildingBlock: XUDNAN_clean_linker_2, # of connection points: 2
#     Edge 18, Type (0, 1), BuildingBlock: XUDNAN_clean_linker_2, # of connection points: 2
#     Edge 19, Type (0, 1), BuildingBlock: XUDNAN_clean_linker_2, # of connection points: 2
#     Edge 20, Type (0, 1), BuildingBlock: XUDNAN_clean_linker_2, # of connection points: 2
#     Edge 21, Type (0, 1), BuildingBlock: XUDNAN_clean_linker_2, # of connection points: 2
#     Edge 22, Type (0, 1), BuildingBlock: XUDNAN_clean_linker_2, # of connection points: 2
#     Edge 23, Type (0, 1), BuildingBlock: XUDNAN_clean_linker_2, # of connection points: 2
#     Edge 24, Type (0, 1), BuildingBlock: XUDNAN_clean_linker_2, # of connection points: 2
#     Edge 25, Type (0, 1), BuildingBlock: XUDNAN_clean_linker_2, # of connection points: 2
#     Edge 26, Type (0, 1), BuildingBlock: XUDNAN_clean_linker_2, # of connection points: 2
#     Edge 27, Type (0, 1), BuildingBlock: XUDNAN_clean_linker_2, # of connection points: 2
#     Edge 28, Type (0, 1), BuildingBlock: XUDNAN_clean_linker_2, # of connection points: 2
#     Edge 29, Type (0, 1), BuildingBlock: XUDNAN_clean_linker_2, # of connection points: 2
#     Edge 30, Type (0, 1), BuildingBlock: XUDNAN_clean_linker_2, # of connection points: 2
#     Edge 31, Type (0, 1), BuildingBlock: XUDNAN_clean_linker_2, # of connection points: 2
#     Edge 32, Type (0, 1), BuildingBlock: XUDNAN_clean_linker_2, # of connection points: 2
# Relax obj value: 0.032
# Max RMSD: 0.125
# Mean RMSD: 0.043
data_MOF--net-csq--node1-KOZSID_clean_sbu_0--node2-TAGTUT_clean_sbu_3--edge1-XUDNAN_clean_linker_2
_symmetry_space_group_name_H-M    P1
_symmetry_Int_Tables_number       1
_symmetry_cell_setting            triclinic
loop_
_symmetry_equiv_pos_as_xyz
'x, y, z'
_cell_length_a     57.146235
_cell_length_b     56.335945
_cell_length_c     20.343338
_cell_angle_alpha  87.785505
_cell_angle_beta   97.292806
_cell_angle_gamma 119.95413
loop_
_atom_site_label
_atom_site_type_symbol
_atom_site_fract_x
_atom_site_fract_y
_atom_site_fract_z
_atom_type_partial_charge
C0 C 0.29979 0.52826 0.24307 0.0
C1 C 0.31453 0.55666 0.24633 0.0
C2 C 0.29892 0.56546 0.20766 0.0
C3 C 0.27567 0.54198 0.18302 0.0
N4 N 0.27579 0.51916 0.20413 0.0
Co5 Co 0.24775 0.48088 0.17852 0.0
N6 N 0.23327 0.49265 0.09825 0.0
C7 C 0.23752 0.51821 0.08753 0.0
C8 C 0.22432 0.52019 0.0282 0.0
C9 C 0.21063 0.49423 1.00046 0.0
C10 C 0.21619 0.4777 0.04467 0.0
N11 N 0.22004 0.4424 0.15319 0.0
C12 C 0.20426 0.43158 0.0948 0.0
C13 C 0.18712 0.40351 0.09899 0.0
C14 C 0.19197 0.39676 0.16269 0.0
C15 C 0.2118 0.42094 0.19375 0.0
N16 N 0.26192 0.46938 0.25941 0.0
C17 C 0.24881 0.44563 0.29052 0.0
C18 C 0.2646 0.44368 0.34497 0.0
C19 C 0.28911 0.46766 0.34767 0.0
C20 C 0.2868 0.48284 0.29438 0.0
N21 N 0.22218 0.48405 0.22884 0.0
C22 C 0.18642 0.49082 0.29843 0.0
C23 C 0.21389 0.50188 0.32372 0.0
C24 C 0.23132 0.49796 0.28871 0.0
C25 C 0.17709 0.4759 0.23821 0.0
C26 C 0.19532 0.47302 0.20393 0.0
N27 N 0.27364 0.47816 0.12882 0.0
C28 C 0.30151 0.45823 0.11435 0.0
C29 C 0.31646 0.4793 0.07239 0.0
C30 C 0.30885 0.49911 0.05712 0.0
C31 C 0.28762 0.49834 0.08628 0.0
C32 C 0.27983 0.45773 0.14102 0.0
H33 H 0.28326 0.51473 0.07623 0.0
H34 H 0.26871 0.44136 0.17341 0.0
H35 H 0.25231 0.50648 0.30983 0.0
H36 H 0.18769 0.46214 0.15684 0.0
C37 C 0.25679 0.54033 0.12963 0.0
C38 C 0.30815 0.51005 0.27828 0.0
C39 C 0.20178 0.44759 0.03841 0.0
C40 C 0.22508 0.42374 0.25824 0.0
H41 H 0.33452 0.56958 0.2729 0.0
H42 H 0.30465 0.5864 0.19568 0.0
H43 H 0.22495 0.53839 0.00701 0.0
H44 H 0.1974 0.48803 0.95389 0.0
H45 H 0.17199 0.38956 0.06062 0.0
H46 H 0.18236 0.3766 0.18359 0.0
H47 H 0.25962 0.42622 0.37625 0.0
H48 H 0.30676 0.4731 0.38377 0.0
H49 H 0.22183 0.51337 0.37046 0.0
H50 H 0.15601 0.46716 0.21683 0.0
H51 H 0.30665 0.44238 0.12677 0.0
H52 H 0.31998 0.51577 0.02502 0.0
C53 C 0.81482 0.27973 0.01608 0.0
C54 C 0.83314 0.27553 0.98655 0.0
C55 C 0.82868 0.25012 0.00362 0.0
C56 C 0.80813 0.24034 0.04278 0.0
N57 N 0.799 0.25787 0.05162 0.0
Co58 Co 0.77065 0.25242 0.10901 0.0
N59 N 0.76396 0.21484 0.13331 0.0
C60 C 0.77584 0.20163 0.11092 0.0
C61 C 0.76563 0.17523 0.13138 0.0
C62 C 0.74583 0.17113 0.1687 0.0
C63 C 0.7453 0.19552 0.16946 0.0
N64 N 0.74286 0.24725 0.16803 0.0
C65 C 0.72698 0.2253 0.20337 0.0
C66 C 0.71047 0.23045 0.23793 0.0
C67 C 0.71576 0.25638 0.22309 0.0
C68 C 0.73524 0.26564 0.18083 0.0
N69 N 0.77675 0.28968 0.08264 0.0
C70 C 0.7637 0.30224 0.10175 0.0
C71 C 0.77198 0.32757 0.07528 0.0
C72 C 0.79147 0.33145 0.03687 0.0
C73 C 0.79406 0.30822 0.04234 0.0
N74 N 0.74142 0.23551 0.03375 0.0
C75 C 0.6936 0.20055 0.95131 0.0
C76 C 0.69509 0.22158 0.98887 0.0
C77 C 0.71923 0.23907 0.02844 0.0
C78 C 0.71751 0.19955 0.9497 0.0
C79 C 0.74106 0.21714 0.99097 0.0
N80 N 0.79961 0.26905 0.18522 0.0
C81 C 0.82333 0.30361 0.27288 0.0
C82 C 0.84244 0.2951 0.28884 0.0
C83 C 0.83918 0.27264 0.25353 0.0
C84 C 0.81772 0.25995 0.20241 0.0
C85 C 0.80227 0.29037 0.22166 0.0
H86 H 0.81644 0.2431 0.17694 0.0
H87 H 0.78877 0.29823 0.21168 0.0
H88 H 0.71899 0.25442 0.05675 0.0
H89 H 0.75834 0.21472 0.98952 0.0
C90 C 0.7964 0.21447 0.0702 0.0
C91 C 0.8133 0.30482 0.00849 0.0
C92 C 0.72656 0.19913 0.20502 0.0
C93 C 0.74506 0.29047 0.14794 0.0
H94 H 0.84822 0.28942 0.95582 0.0
H95 H 0.83913 0.23994 0.98913 0.0
H96 H 0.77161 0.16057 0.11974 0.0
H97 H 0.73303 0.15218 0.19211 0.0
H98 H 0.69579 0.21673 0.26972 0.0
H99 H 0.70603 0.26694 0.23976 0.0
H100 H 0.76499 0.34173 0.08379 0.0
H101 H 0.80272 0.34944 0.0085 0.0
H102 H 0.6774 0.22376 0.99082 0.0
H103 H 0.71788 0.1846 0.91855 0.0
H104 H 0.82516 0.3212 0.29786 0.0
H105 H 0.85334 0.26512 0.26455 0.0
C106 C 0.54649 0.7371 0.12947 0.0
C107 C 0.56987 0.73824 0.16248 0.0
C108 C 0.59046 0.76476 0.1603 0.0
C109 C 0.57873 0.77828 0.12546 0.0
N110 N 0.55206 0.76191 0.10469 0.0
Co111 Co 0.52792 0.77341 0.05043 0.0
N112 N 0.55946 0.80855 0.02665 0.0
C113 C 0.58534 0.81948 0.05596 0.0
C114 C 0.60304 0.84337 0.02824 0.0
C115 C 0.58734 0.84814 0.97908 0.0
C116 C 0.56071 0.82699 0.98007 0.0
N117 N 0.50371 0.78491 0.99647 0.0
C118 C 0.50954 0.80579 0.95373 0.0
C119 C 0.48619 0.80684 0.92971 0.0
C120 C 0.46523 0.78624 0.95868 0.0
C121 C 0.47678 0.77378 0.99878 0.0
N122 N 0.49637 0.73835 0.07442 0.0
C123 C 0.47037 0.73278 0.06856 0.0
C124 C 0.45296 0.7076 0.0916 0.0
C125 C 0.46898 0.6966 0.11402 0.0
C126 C 0.49539 0.71571 0.103 0.0
N127 N 0.52682 0.7915 0.12914 0.0
C128 C 0.53026 0.81943 0.24374 0.0
C129 C 0.52547 0.79255 0.24679 0.0
C130 C 0.52389 0.77899 0.18898 0.0
C131 C 0.53224 0.83164 0.18191 0.0
C132 C 0.53036 0.81734 0.12537 0.0
N133 N 0.52935 0.7554 0.97224 0.0
C134 C 0.50691 0.72324 0.87978 0.0
C135 C 0.53184 0.72614 0.8681 0.0
C136 C 0.55555 0.74502 0.90727 0.0
C137 C 0.55386 0.75935 0.95887 0.0
C138 C 0.50611 0.7381 0.93222 0.0
H139 H 0.57244 0.77303 0.9891 0.0
H140 H 0.48664 0.73496 0.94162 0.0
H141 H 0.52092 0.75859 0.19323 0.0
H142 H 0.53235 0.82751 0.07889 0.0
C143 C 0.59283 0.80489 0.10263 0.0
C144 C 0.51917 0.71272 0.1268 0.0
C145 C 0.53708 0.82714 0.94164 0.0
C146 C 0.46265 0.75021 0.03442 0.0
H147 H 0.57197 0.72172 0.18593 0.0
H148 H 0.61167 0.77294 0.17965 0.0
H149 H 0.62488 0.85552 0.04107 0.0
H150 H 0.59459 0.86557 0.94713 0.0
H151 H 0.48446 0.82146 0.89637 0.0
H152 H 0.44405 0.78091 0.95109 0.0
H153 H 0.43116 0.69818 0.09125 0.0
H154 H 0.46202 0.67699 0.13726 0.0
H155 H 0.52377 0.78239 0.29368 0.0
H156 H 0.53534 0.85221 0.17721 0.0
H157 H 0.48808 0.70871 0.85079 0.0
H158 H 0.57527 0.74812 0.89934 0.0
C159 C 0.83113 0.5686 0.1505 0.0
C160 C 0.8545 0.59422 0.16037 0.0
C161 C 0.8509 0.61118 0.11599 0.0
C162 C 0.8259 0.595 0.08102 0.0
N163 N 0.813 0.56878 0.10099 0.0
Co164 Co 0.77816 0.53757 0.05706 0.0
N165 N 0.77394 0.56214 0.98835 0.0
C166 C 0.79067 0.58941 0.98381 0.0
C167 C 0.78093 0.60144 0.93688 0.0
C168 C 0.75608 0.5808 0.91101 0.0
C169 C 0.75219 0.55715 0.94341 0.0
N170 N 0.74412 0.50617 0.0111 0.0
C171 C 0.72621 0.50632 0.96098 0.0
C172 C 0.70487 0.48008 0.9439 0.0
C173 C 0.70892 0.46282 0.98667 0.0
C174 C 0.73252 0.47944 0.02679 0.0
N175 N 0.78166 0.51317 0.12712 0.0
C176 C 0.76374 0.48636 0.13451 0.0
C177 C 0.77168 0.47504 0.18732 0.0
C178 C 0.79628 0.49577 0.21483 0.0
C179 C 0.80202 0.51857 0.17671 0.0
N180 N 0.75634 0.54534 0.11269 0.0
C181 C 0.7241 0.55668 0.18712 0.0
C182 C 0.71519 0.5301 0.16347 0.0
C183 C 0.73166 0.52486 0.12819 0.0
C184 C 0.74978 0.57737 0.17309 0.0
C185 C 0.76513 0.57142 0.13533 0.0
N186 N 0.80016 0.5298 0.00232 0.0
C187 C 0.81574 0.49929 0.97247 0.0
C188 C 0.83813 0.52088 0.94675 0.0
C189 C 0.83995 0.54663 0.94526 0.0
C190 C 0.82063 0.55044 0.97184 0.0
C191 C 0.79728 0.50418 0.99993 0.0
H192 H 0.82321 0.57051 0.96913 0.0
H193 H 0.78128 0.487 0.02061 0.0
H194 H 0.72373 0.50402 0.11346 0.0
H195 H 0.78404 0.58838 0.12501 0.0
C196 C 0.8144 0.60354 0.02761 0.0
C197 C 0.82749 0.54456 0.18788 0.0
C198 C 0.72681 0.53093 0.93419 0.0
C199 C 0.74171 0.47156 0.08599 0.0
H200 H 0.87266 0.60008 0.19482 0.0
H201 H 0.86517 0.63254 0.1087 0.0
H202 H 0.79022 0.62292 0.92515 0.0
H203 H 0.74216 0.58341 0.87444 0.0
H204 H 0.68738 0.47432 0.90699 0.0
H205 H 0.69531 0.44106 0.99091 0.0
H206 H 0.76142 0.45393 0.20224 0.0
H207 H 0.80893 0.49408 0.25696 0.0
H208 H 0.6954 0.51315 0.17099 0.0
H209 H 0.75833 0.59823 0.19114 0.0
H210 H 0.81252 0.47866 0.9725 0.0
H211 H 0.85669 0.5642 0.92584 0.0
C212 C 0.28798 0.80578 0.2032 0.0
C213 C 0.28571 0.82355 0.24415 0.0
C214 C 0.2586 0.81537 0.23972 0.0
C215 C 0.24576 0.79303 0.19695 0.0
N216 N 0.2631 0.78673 0.17372 0.0
Co217 Co 0.25247 0.7546 0.11505 0.0
N218 N 0.2156 0.74968 0.08758 0.0
C219 C 0.20351 0.7603 0.11942 0.0
C220 C 0.17764 0.75274 0.09038 0.0
C221 C 0.17303 0.73602 0.03734 0.0
C222 C 0.19642 0.7343 0.0372 0.0
N223 N 0.24194 0.7224 0.05681 0.0
C224 C 0.22078 0.70964 0.00846 0.0
C225 C 0.22076 0.68742 0.98089 0.0
C226 C 0.2425 0.68615 0.01366 0.0
C227 C 0.25454 0.70752 0.05919 0.0
N228 N 0.28928 0.75944 0.14268 0.0
C229 C 0.29715 0.74102 0.13351 0.0
C230 C 0.32446 0.75107 0.15124 0.0
C231 C 0.33439 0.77731 0.17377 0.0
C232 C 0.31235 0.78165 0.17026 0.0
N233 N 0.23839 0.73029 0.18896 0.0
C234 C 0.21238 0.70095 0.29646 0.0
C235 C 0.23892 0.72333 0.30662 0.0
C236 C 0.25165 0.73766 0.25204 0.0
C237 C 0.20021 0.69219 0.23131 0.0
C238 C 0.2135 0.70703 0.17852 0.0
N239 N 0.26609 0.77896 0.04117 0.0
C240 C 0.29215 0.79345 0.94895 0.0
C241 C 0.28639 0.81482 0.93715 0.0
C242 C 0.26967 0.81738 0.97769 0.0
C243 C 0.25977 0.79929 0.02927 0.0
C244 C 0.28187 0.77582 0.0011 0.0
H245 H 0.24725 0.80202 0.06011 0.0
H246 H 0.28689 0.7598 0.0093 0.0
H247 H 0.27164 0.75547 0.26115 0.0
H248 H 0.20289 0.70035 0.12938 0.0
C249 C 0.2182 0.77968 0.17123 0.0
C250 C 0.31361 0.80597 0.19883 0.0
C251 C 0.19869 0.71588 0.99269 0.0
C252 C 0.27981 0.7168 0.09676 0.0
H253 H 0.30181 0.84034 0.27521 0.0
H254 H 0.24943 0.82489 0.26394 0.0
H255 H 0.16395 0.75901 0.10518 0.0
H256 H 0.15441 0.72583 0.00343 0.0
H257 H 0.20627 0.67326 0.94198 0.0
H258 H 0.24918 0.67184 0.00405 0.0
H259 H 0.33605 0.74104 0.1452 0.0
H260 H 0.35553 0.79152 0.19078 0.0
H261 H 0.24921 0.73057 0.35625 0.0
H262 H 0.18005 0.67445 0.22109 0.0
H263 H 0.3047 0.79042 0.91839 0.0
H264 H 0.26494 0.83376 0.97108 0.0
C265 C 0.49803 0.20983 0.24374 0.0
C266 C 0.52186 0.21162 0.27574 0.0
C267 C 0.54285 0.23566 0.25773 0.0
C268 C 0.5308 0.24711 0.21562 0.0
N269 N 0.5033 0.23203 0.20612 0.0
Co270 Co 0.47794 0.24048 0.14507 0.0
N271 N 0.50903 0.27415 0.11271 0.0
C272 C 0.53587 0.28365 0.13139 0.0
C273 C 0.55256 0.30631 0.09824 0.0
C274 C 0.53542 0.31184 0.05628 0.0
C275 C 0.50907 0.29237 0.06688 0.0
N276 N 0.45255 0.24889 0.08393 0.0
C277 C 0.45781 0.27031 0.04332 0.0
C278 C 0.43391 0.26875 0.01262 0.0
C279 C 0.41291 0.24549 0.03367 0.0
C280 C 0.425 0.23427 0.07638 0.0
N281 N 0.44685 0.20667 0.17705 0.0
C282 C 0.42001 0.19737 0.15949 0.0
C283 C 0.40341 0.17349 0.18899 0.0
C284 C 0.42066 0.16685 0.22696 0.0
C285 C 0.4469 0.18707 0.21804 0.0
N286 N 0.47695 0.26281 0.2172 0.0
C287 C 0.47588 0.29641 0.31475 0.0
C288 C 0.45207 0.27785 0.27577 0.0
C289 C 0.453 0.26116 0.22833 0.0
C290 C 0.50016 0.29752 0.30533 0.0
C291 C 0.50028 0.28087 0.25626 0.0
N292 N 0.479 0.21833 0.07312 0.0
C293 C 0.45613 0.18557 0.98125 0.0
C294 C 0.48065 0.18774 0.9693 0.0
C295 C 0.50426 0.20517 0.01061 0.0
C296 C 0.50302 0.22028 0.06155 0.0
C297 C 0.45573 0.20074 0.03336 0.0
H298 H 0.52179 0.23345 0.09072 0.0
H299 H 0.43637 0.19787 0.04061 0.0
H300 H 0.43408 0.24735 0.20087 0.0
H301 H 0.51957 0.28336 0.2502 0.0
C302 C 0.5448 0.27063 0.17954 0.0
C303 C 0.47105 0.18597 0.24732 0.0
C304 C 0.48496 0.29294 0.03415 0.0
C305 C 0.41104 0.21072 0.11245 0.0
H306 H 0.52409 0.19682 0.3073 0.0
H307 H 0.56439 0.24335 0.27159 0.0
H308 H 0.57459 0.31745 0.10384 0.0
H309 H 0.54163 0.32854 0.02215 0.0
H310 H 0.43163 0.28308 0.97934 0.0
H311 H 0.39136 0.23797 0.02054 0.0
H312 H 0.38138 0.16192 0.18241 0.0
H313 H 0.41465 0.14885 0.25677 0.0
H314 H 0.43277 0.27626 0.28177 0.0
H315 H 0.51916 0.31188 0.33411 0.0
H316 H 0.43723 0.1719 0.95108 0.0
H317 H 0.52373 0.20752 0.003 0.0
C318 C 0.04952 0.4848 0.55802 0.0
C319 C 0.04518 0.43732 0.78857 0.0
C320 C 0.96692 0.43413 0.78054 0.0
Mg321 Mg 0.01987 0.51988 0.50158 0.0
Mg322 Mg 0.01393 0.55775 0.60925 0.0
O323 O 0.00406 0.52214 0.58236 0.0
Mg324 Mg 0.01614 0.50188 0.64706 0.0
O325 O 0.0283 0.48009 0.70682 0.0
Mg326 Mg 0.00626 0.44348 0.6581 0.0
Mg327 Mg 0.0266 0.48058 0.79874 0.0
C328 C 0.98372 0.5234 0.72951 0.0
O329 O 0.04927 0.53994 0.70782 0.0
O330 O 0.99302 0.53741 0.44572 0.0
O331 O 0.04975 0.52571 0.8132 0.0
O332 O 0.05665 0.56333 0.51633 0.0
O333 O 0.99151 0.56336 0.52485 0.0
O334 O 0.05641 0.58611 0.60307 0.0
O335 O 0.98425 0.46223 0.5928 0.0
O336 O 0.98512 0.47553 0.48795 0.0
C337 C 0.97631 0.45685 0.53092 0.0
C338 C 0.98499 0.55336 0.46559 0.0
O339 O 0.98737 0.50333 0.71647 0.0
O340 O 0.03193 0.42968 0.7302 0.0
O341 O 0.99475 0.54631 0.69969 0.0
O342 O 0.97248 0.42746 0.72762 0.0
O343 O 0.04587 0.45636 0.82287 0.0
O344 O 0.98443 0.45543 0.81543 0.0
O345 O 0.04364 0.50304 0.5724 0.0
O346 O 0.03915 0.46149 0.58602 0.0
C347 C 0.06804 0.58416 0.55578 0.0
C348 C 0.05767 0.54476 0.77024 0.0
C349 C 0.49264 0.03721 0.45214 0.0
C350 C 0.58953 0.04524 0.43688 0.0
C351 C 0.54813 0.96272 0.51309 0.0
Mg352 Mg 0.45079 0.00292 0.56169 0.0
Mg353 Mg 0.47756 0.99524 0.70773 0.0
O354 O 0.4716 0.98729 0.61637 0.0
Mg355 Mg 0.50536 0.00397 0.57381 0.0
O356 O 0.53822 0.02112 0.52704 0.0
Mg357 Mg 0.52217 1.00092 0.43944 0.0
Mg358 Mg 0.56802 0.01882 0.57075 0.0
C359 C 0.51754 0.97205 0.70348 0.0
O360 O 0.53046 0.03687 0.65573 0.0
O361 O 0.4144 0.97227 0.62162 0.0
O362 O 0.57091 0.03834 0.66395 0.0
O363 O 0.46293 0.0384 0.63639 0.0
O364 O 0.43608 0.96932 0.71972 0.0
O365 O 0.48845 0.03683 0.7267 0.0
O366 O 0.48245 0.97243 0.48836 0.0
O367 O 0.44177 0.96969 0.4848 0.0
C368 C 0.45755 0.96261 0.46273 0.0
C369 C 0.41428 0.96229 0.67998 0.0
O370 O 0.51826 0.976 0.64064 0.0
O371 O 0.56521 0.03255 0.40536 0.0
O372 O 0.50569 0.98048 0.73803 0.0
O373 O 0.53649 0.96987 0.46521 0.0
O374 O 0.59454 0.04216 0.49891 0.0
O375 O 0.55989 0.9773 0.56601 0.0
O376 O 0.4903 0.03037 0.51296 0.0
O377 O 0.50529 0.03007 0.41687 0.0
C378 C 0.47765 0.04889 0.69162 0.0
C379 C 0.55473 0.04528 0.68444 0.0
C380 C 0.53005 0.57123 0.68123 0.0
C381 C 0.4573 0.49315 0.81532 0.0
C382 C 0.49174 0.44557 0.76244 0.0
Mg383 Mg 0.55768 0.56803 0.55391 0.0
Mg384 Mg 0.52411 0.51687 0.44483 0.0
O385 O 0.53679 0.52752 0.53389 0.0
Mg386 Mg 0.51187 0.51403 0.60454 0.0
O387 O 0.48905 0.50295 0.6796 0.0
Mg388 Mg 0.51776 0.51472 0.75784 0.0
Mg389 Mg 0.45819 0.46787 0.68135 0.0
C390 C 0.49493 0.45892 0.51396 0.0
O391 O 0.47393 0.50722 0.53797 0.0
O392 O 0.58732 0.57088 0.47973 0.0
O393 O 0.43925 0.47167 0.58308 0.0
O394 O 0.53342 0.57831 0.46662 0.0
O395 O 0.56379 0.53282 0.41383 0.0
O396 O 0.50716 0.5414 0.40058 0.0
O397 O 0.54717 0.52014 0.68089 0.0
O398 O 0.58092 0.5569 0.63968 0.0
C399 C 0.57236 0.53824 0.68305 0.0
C400 C 0.58576 0.55504 0.4333 0.0
O401 O 0.49976 0.46971 0.57243 0.0
O402 O 0.48353 0.50744 0.8235 0.0
O403 O 0.50005 0.47311 0.46118 0.0
O404 O 0.50797 0.47084 0.77796 0.0
O405 O 0.4439 0.47742 0.76421 0.0
O406 O 0.4711 0.43824 0.71827 0.0
O407 O 0.52545 0.55898 0.62551 0.0
O408 O 0.52729 0.55847 0.73569 0.0
C409 C 0.5159 0.56651 0.41565 0.0
C410 C 0.44856 0.48983 0.53835 0.0
H411 H 0.13802 0.45228 0.34022 0.0
H412 H 0.19316 0.53987 0.33729 0.0
H413 H 0.16245 0.54808 0.39655 0.0
H414 H 0.0745 0.45373 0.32093 0.0
H415 H 0.05878 0.42656 0.37793 0.0
H416 H 0.08406 0.42765 0.33126 0.0
H417 H 0.11252 0.42691 0.44033 0.0
H418 H 0.08728 0.42567 0.48723 0.0
H419 H 0.12228 0.4524 0.50473 0.0
H420 H 0.12558 0.54662 0.45653 0.0
H421 H 0.08811 0.53562 0.52243 0.0
H422 H 0.0583 0.44882 0.4921 0.0
C423 C 0.14341 0.47317 0.35158 0.0
C424 C 0.16781 0.4955 0.33385 0.0
C425 C 0.17454 0.52253 0.35053 0.0
C426 C 0.15716 0.52736 0.38383 0.0
C427 C 0.13326 0.50492 0.40081 0.0
C428 C 0.12653 0.47833 0.38595 0.0
C429 C 0.1006 0.4578 0.41362 0.0
C430 C 0.07816 0.44041 0.35758 0.0
C431 C 0.106 0.43963 0.4645 0.0
C432 C 0.09385 0.47696 0.44662 0.0
C433 C 0.1127 0.50406 0.43776 0.0
C434 C 0.11073 0.52546 0.4638 0.0
C435 C 0.08927 0.519 0.50093 0.0
C436 C 0.07025 0.49136 0.51261 0.0
C437 C 0.07253 0.47015 0.48428 0.0
H438 H 0.67066 0.16604 0.18933 0.0
H439 H 0.74397 0.18232 0.31768 0.0
H440 H 0.71679 0.14289 0.3855 0.0
H441 H 0.62714 0.14639 0.3212 0.0
H442 H 0.59761 0.12015 0.27141 0.0
H443 H 0.62284 0.1495 0.23254 0.0
H444 H 0.62816 0.11718 0.15628 0.0
H445 H 0.60322 0.08772 0.19556 0.0
H446 H 0.63664 0.09234 0.19276 0.0
H447 H 0.68279 0.10162 0.43649 0.0
H448 H 0.6429 0.06345 0.47846 0.0
H449 H 0.58983 0.07358 0.32112 0.0
C450 C 0.68078 0.16131 0.23217 0.0
C451 C 0.70936 0.17698 0.24855 0.0
C452 C 0.72211 0.17042 0.30467 0.0
C453 C 0.70687 0.14803 0.34308 0.0
C454 C 0.67883 0.13258 0.32503 0.0
C455 C 0.66575 0.13908 0.27167 0.0
C456 C 0.63519 0.11938 0.26485 0.0
C457 C 0.61979 0.13477 0.27301 0.0
C458 C 0.62522 0.1032 0.19841 0.0
C459 C 0.63322 0.10085 0.3228 0.0
C460 C 0.65879 0.10882 0.35604 0.0
C461 C 0.66264 0.09527 0.41121 0.0
C462 C 0.63974 0.07353 0.43461 0.0
C463 C 0.61308 0.06548 0.40346 0.0
C464 C 0.60987 0.07903 0.34576 0.0
H465 H 0.5336 0.70643 0.25851 0.0
H466 H 0.4943 0.66093 0.07254 0.0
H467 H 0.48506 0.61781 0.12893 0.0
H468 H 0.56773 0.66865 0.31186 0.0
H469 H 0.56451 0.67045 0.39828 0.0
H470 H 0.566 0.69704 0.34397 0.0
H471 H 0.52042 0.6889 0.378 0.0
H472 H 0.51861 0.66198 0.4317 0.0
H473 H 0.49087 0.6551 0.36792 0.0
H474 H 0.48024 0.57963 0.2063 0.0
H475 H 0.48536 0.55031 0.29338 0.0
H476 H 0.5309 0.62123 0.42779 0.0
C477 C 0.5233 0.6874 0.22958 0.0
C478 C 0.5149 0.687 0.16088 0.0
C479 C 0.50104 0.66165 0.12503 0.0
C480 C 0.4956 0.6371 0.15677 0.0
C481 C 0.50431 0.63821 0.22447 0.0
C482 C 0.51822 0.66278 0.26024 0.0
C483 C 0.52694 0.65861 0.33141 0.0
C484 C 0.55814 0.67463 0.3473 0.0
C485 C 0.5134 0.66663 0.38012 0.0
C486 C 0.51599 0.62789 0.33004 0.0
C487 C 0.50254 0.61644 0.26823 0.0
C488 C 0.49084 0.58844 0.25476 0.0
C489 C 0.49378 0.57189 0.30487 0.0
C490 C 0.50868 0.58333 0.36775 0.0
C491 C 0.51934 0.61169 0.38056 0.0
H492 H 0.85879 0.52021 0.18767 0.0
H493 H 0.84573 0.57491 0.30233 0.0
H494 H 0.887 0.5855 0.37944 0.0
H495 H 0.88211 0.49297 0.33303 0.0
H496 H 0.90637 0.48981 0.29088 0.0
H497 H 0.87588 0.48669 0.24458 0.0
H498 H 0.90536 0.52519 0.16828 0.0
H499 H 0.93599 0.52888 0.21528 0.0
H500 H 0.93115 0.55812 0.20431 0.0
H501 H 0.93092 0.59354 0.43613 0.0
H502 H 0.97031 0.5909 0.48945 0.0
H503 H 0.95373 0.52719 0.34664 0.0
C504 C 0.86455 0.53407 0.22971 0.0
C505 C 0.84963 0.54722 0.23902 0.0
C506 C 0.85728 0.565 0.29454 0.0
C507 C 0.8807 0.57123 0.33805 0.0
C508 C 0.89571 0.55891 0.32607 0.0
C509 C 0.8876 0.54003 0.27474 0.0
C510 C 0.90689 0.52877 0.27582 0.0
C511 C 0.89192 0.49772 0.28676 0.0
C512 C 0.92066 0.53566 0.21212 0.0
C513 C 0.92719 0.54451 0.33552 0.0
C514 C 0.92048 0.56216 0.36242 0.0
C515 C 0.93617 0.57947 0.41644 0.0
C516 C 0.95863 0.5778 0.44621 0.0
C517 C 0.96498 0.55847 0.42306 0.0
C518 C 0.94947 0.54215 0.36557 0.0
H519 H 0.33983 0.86212 0.19048 0.0
H520 H 0.34347 0.79681 0.30255 0.0
H521 H 0.38634 0.83063 0.36719 0.0
H522 H 0.41295 0.91134 0.195 0.0
H523 H 0.40924 0.94041 0.21157 0.0
H524 H 0.38179 0.91111 0.16469 0.0
H525 H 0.34887 0.90635 0.24758 0.0
H526 H 0.37607 0.93585 0.2939 0.0
H527 H 0.35785 0.90388 0.33477 0.0
H528 H 0.42866 0.87141 0.42034 0.0
H529 H 0.46004 0.91591 0.47894 0.0
H530 H 0.42442 0.95486 0.34702 0.0
C531 C 0.35002 0.85502 0.2278 0.0
C532 C 0.33922 0.82674 0.23884 0.0
C533 C 0.35223 0.81825 0.29066 0.0
C534 C 0.37656 0.83732 0.32776 0.0
C535 C 0.38707 0.865 0.31458 0.0
C536 C 0.3737 0.87392 0.26754 0.0
C537 C 0.38663 0.90485 0.27136 0.0
C538 C 0.39835 0.91768 0.2068 0.0
C539 C 0.36614 0.91322 0.28792 0.0
C540 C 0.40914 0.91182 0.32827 0.0
C541 C 0.40967 0.88861 0.3507 0.0
C542 C 0.42846 0.88974 0.4033 0.0
C543 C 0.44635 0.9151 0.4359 0.0
C544 C 0.44465 0.93865 0.41698 0.0
C545 C 0.42626 0.93711 0.36163 0.0
H546 H 0.45598 0.33107 0.28793 0.0
H547 H 0.4965 0.30603 0.44634 0.0
H548 H 0.49879 0.34077 0.5222 0.0
H549 H 0.49698 0.40051 0.32181 0.0
H550 H 0.47057 0.40906 0.29976 0.0
H551 H 0.46797 0.37927 0.26269 0.0
H552 H 0.42084 0.34906 0.30363 0.0
H553 H 0.42343 0.37885 0.34135 0.0
H554 H 0.41765 0.34954 0.39054 0.0
H555 H 0.49989 0.38103 0.57771 0.0
H556 H 0.50521 0.42627 0.60278 0.0
H557 H 0.46595 0.42579 0.40551 0.0
C558 C 0.46462 0.33242 0.33915 0.0
C559 C 0.47565 0.31567 0.36186 0.0
C560 C 0.48775 0.31861 0.4284 0.0
C561 C 0.48894 0.33812 0.47181 0.0
C562 C 0.4781 0.3546 0.44765 0.0
C563 C 0.46638 0.35204 0.38258 0.0
C564 C 0.45941 0.37437 0.36607 0.0
C565 C 0.47465 0.39183 0.30927 0.0
C566 C 0.42849 0.36222 0.34943 0.0
C567 C 0.4698 0.39044 0.43128 0.0
C568 C 0.47984 0.37837 0.47843 0.0
C569 C 0.49186 0.3905 0.54132 0.0
C570 C 0.49467 0.41612 0.55531 0.0
C571 C 0.48603 0.42951 0.50602 0.0
C572 C 0.47264 0.41597 0.44423 0.0
H573 H 0.52219 0.83612 0.81171 0.0
H574 H 0.55864 0.8768 0.00422 0.0
H575 H 0.56341 0.91993 0.95817 0.0
H576 H 0.56118 0.89564 0.70866 0.0
H577 H 0.53213 0.88723 0.64802 0.0
H578 H 0.53477 0.8604 0.69336 0.0
H579 H 0.48766 0.84377 0.73224 0.0
H580 H 0.48499 0.87051 0.68663 0.0
H581 H 0.4819 0.86769 0.77408 0.0
H582 H 0.5614 0.95752 0.8952 0.0
H583 H 0.54893 0.98637 0.82184 0.0
H584 H 0.51186 0.92215 0.6691 0.0
C585 C 0.53164 0.85432 0.84357 0.0
C586 C 0.54081 0.85334 0.91117 0.0
C587 C 0.55223 0.87729 0.95197 0.0
C588 C 0.55497 0.90188 0.92623 0.0
C589 C 0.54584 0.90225 0.85955 0.0
C590 C 0.53411 0.87909 0.81876 0.0
C591 C 0.52364 0.8846 0.75059 0.0
C592 C 0.53885 0.8818 0.697 0.0
C593 C 0.49271 0.86551 0.735 0.0
C594 C 0.53082 0.91428 0.75999 0.0
C595 C 0.54403 0.92407 0.82306 0.0
C596 C 0.55136 0.95021 0.84547 0.0
C597 C 0.54425 0.96649 0.80338 0.0
C598 C 0.52991 0.95674 0.73936 0.0
C599 C 0.52366 0.93049 0.71682 0.0
H600 H 0.71216 0.54267 0.8087 0.0
H601 H 0.68296 0.51598 0.99934 0.0
H602 H 0.63954 0.51422 0.95616 0.0
H603 H 0.68499 0.58841 0.78171 0.0
H604 H 0.6771 0.58178 0.69338 0.0
H605 H 0.70488 0.579 0.73818 0.0
H606 H 0.68341 0.52916 0.69249 0.0
H607 H 0.65559 0.5318 0.64753 0.0
H608 H 0.64884 0.50453 0.70478 0.0
H609 H 0.59886 0.51427 0.89012 0.0
H610 H 0.56547 0.51936 0.8093 0.0
H611 H 0.62391 0.55123 0.66706 0.0
C612 C 0.69669 0.53675 0.8414 0.0
C613 C 0.70083 0.52975 0.90738 0.0
C614 C 0.68 0.52146 0.94856 0.0
C615 C 0.6554 0.52045 0.92454 0.0
C616 C 0.65218 0.52814 0.85955 0.0
C617 C 0.67239 0.53641 0.81883 0.0
C618 C 0.66444 0.54487 0.75211 0.0
C619 C 0.68401 0.57532 0.7407 0.0
C620 C 0.66298 0.52649 0.69593 0.0
C621 C 0.63649 0.53985 0.76136 0.0
C622 C 0.62959 0.52984 0.82328 0.0
C623 C 0.60418 0.52243 0.84181 0.0
C624 C 0.58537 0.52536 0.79571 0.0
C625 C 0.59235 0.53611 0.7326 0.0
C626 C 0.61828 0.54355 0.71559 0.0
H627 H 0.15393 0.67008 0.02632 0.0
H628 H 0.1913 0.71677 0.85818 0.0
H629 H 0.15645 0.67893 0.78204 0.0
H630 H 0.14158 0.60798 0.96883 0.0
H631 H 0.10929 0.5871 0.99963 0.0
H632 H 0.13383 0.61938 0.04043 0.0
H633 H 0.09853 0.63579 0.02531 0.0
H634 H 0.0736 0.60332 0.98555 0.0
H635 H 0.08141 0.63476 0.94378 0.0
H636 H 0.12278 0.63401 0.72696 0.0
H637 H 0.08976 0.58601 0.6944 0.0
H638 H 0.07258 0.56796 0.89728 0.0
C639 C 0.1539 0.67265 0.97327 0.0
C640 C 0.17463 0.69641 0.94738 0.0
C641 C 0.17503 0.6989 0.8782 0.0
C642 C 0.15546 0.67749 0.83491 0.0
C643 C 0.13572 0.65387 0.86196 0.0
C644 C 0.13452 0.65143 0.92947 0.0
C645 C 0.11273 0.62298 0.94597 0.0
C646 C 0.12511 0.60852 0.99139 0.0
C647 C 0.09023 0.6243 0.97697 0.0
C648 C 0.1024 0.60952 0.87736 0.0
C649 C 0.11589 0.62781 0.82975 0.0
C650 C 0.11146 0.61978 0.7635 0.0
C651 C 0.09247 0.59249 0.74524 0.0
C652 C 0.07779 0.57343 0.7924 0.0
C653 C 0.08305 0.58211 0.85965 0.0
H654 H 0.50559 0.1568 0.97395 0.0
H655 H 0.457 0.1822 0.84128 0.0
H656 H 0.45596 0.15344 0.751 0.0
H657 H 0.54483 0.15124 0.84724 0.0
H658 H 0.54391 0.1213 0.88462 0.0
H659 H 0.54415 0.14696 0.93539 0.0
H660 H 0.50001 0.10945 0.97963 0.0
H661 H 0.49968 0.08396 0.9284 0.0
H662 H 0.47044 0.08857 0.92153 0.0
H663 H 0.45695 0.11937 0.67839 0.0
H664 H 0.45716 0.08 0.63048 0.0
H665 H 0.50447 0.0759 0.81094 0.0
C666 C 0.49531 0.15679 0.92539 0.0
C667 C 0.48149 0.17179 0.91429 0.0
C668 C 0.46762 0.17075 0.85071 0.0
C669 C 0.46714 0.15469 0.79907 0.0
C670 C 0.48065 0.13983 0.81181 0.0
C671 C 0.49448 0.1407 0.87341 0.0
C672 C 0.50505 0.12074 0.87584 0.0
C673 C 0.53634 0.13598 0.88638 0.0
C674 C 0.49307 0.09942 0.92951 0.0
C675 C 0.49414 0.10783 0.8068 0.0
C676 C 0.48065 0.11956 0.77025 0.0
C677 C 0.46765 0.11016 0.70631 0.0
C678 C 0.46784 0.08772 0.67958 0.0
C679 C 0.48068 0.07469 0.71705 0.0
C680 C 0.49455 0.08541 0.78088 0.0
H681 H 0.32546 0.4813 0.9428 0.0
H682 H 0.36162 0.48209 0.14366 0.0
H683 H 0.40316 0.48845 0.10109 0.0
H684 H 0.35051 0.44198 0.87172 0.0
H685 H 0.35556 0.45986 0.79481 0.0
H686 H 0.32961 0.45673 0.84207 0.0
H687 H 0.35092 0.50956 0.8443 0.0
H688 H 0.37707 0.51285 0.79752 0.0
H689 H 0.38627 0.53089 0.87619 0.0
H690 H 0.44168 0.4965 0.03469 0.0
H691 H 0.47089 0.49925 0.95078 0.0
H692 H 0.4075 0.48941 0.79404 0.0
C693 C 0.34217 0.48282 0.97766 0.0
C694 C 0.34055 0.48141 0.04648 0.0
C695 C 0.3626 0.48312 0.09075 0.0
C696 C 0.38626 0.48687 0.06698 0.0
C697 C 0.38734 0.4884 0.99867 0.0
C698 C 0.36563 0.48594 0.95466 0.0
C699 C 0.37119 0.48675 0.88355 0.0
C700 C 0.35049 0.45972 0.84583 0.0
C701 C 0.37138 0.51149 0.84834 0.0
C702 C 0.3994 0.49009 0.8942 0.0
C703 C 0.40865 0.4915 0.96087 0.0
C704 C 0.43451 0.4952 0.98237 0.0
C705 C 0.45103 0.49691 0.93448 0.0
C706 C 0.44139 0.49437 0.86604 0.0
C707 C 0.41534 0.49118 0.84606 0.0
H708 H 0.86089 0.35334 0.03983 0.0
H709 H 0.80467 0.30232 0.87404 0.0
H710 H 0.83622 0.33288 0.79626 0.0
H711 H 0.8866 0.42056 0.95214 0.0
H712 H 0.92077 0.43349 0.99293 0.0
H713 H 0.89216 0.40992 0.0346 0.0
H714 H 0.91226 0.37752 0.05208 0.0
H715 H 0.94074 0.40082 0.01004 0.0
H716 H 0.91997 0.36559 0.98129 0.0
H717 H 0.87605 0.36495 0.73844 0.0
H718 H 0.92064 0.39765 0.70326 0.0
H719 H 0.95139 0.42938 0.90575 0.0
C720 C 0.85498 0.34927 0.98697 0.0
C721 C 0.83028 0.32583 0.96239 0.0
C722 C 0.82335 0.32047 0.89328 0.0
C723 C 0.84116 0.33768 0.84895 0.0
C724 C 0.86571 0.36031 0.87458 0.0
C725 C 0.87252 0.36641 0.94192 0.0
C726 C 0.90101 0.39092 0.95659 0.0
C727 C 0.90007 0.41516 0.9858 0.0
C728 C 0.91958 0.38324 0.00271 0.0
C729 C 0.90954 0.3969 0.88741 0.0
C730 C 0.88874 0.37913 0.84084 0.0
C731 C 0.8923 0.37928 0.77429 0.0
C732 C 0.9178 0.39788 0.75484 0.0
C733 C 0.93954 0.41621 0.80162 0.0
C734 C 0.93509 0.41594 0.86862 0.0
H735 H 0.86984 0.5475 0.84694 0.0
H736 H 0.85586 0.48507 0.99359 0.0
H737 H 0.89144 0.47851 0.95488 0.0
H738 H 0.88429 0.51789 0.71832 0.0
H739 H 0.9109 0.55021 0.6932 0.0
H740 H 0.88344 0.54895 0.73076 0.0
H741 H 0.91828 0.58475 0.82065 0.0
H742 H 0.94585 0.58607 0.78342 0.0
H743 H 0.94287 0.57812 0.8697 0.0
H744 H 0.92853 0.47818 0.89699 0.0
H745 H 0.96465 0.486 0.82898 0.0
H746 H 0.9563 0.55133 0.72946 0.0
C747 C 0.87431 0.53265 0.87184 0.0
C748 C 0.8596 0.51669 0.92316 0.0
C749 C 0.86616 0.49716 0.95302 0.0
C750 C 0.88661 0.49344 0.93186 0.0
C751 C 0.90073 0.50969 0.88149 0.0
C752 C 0.89498 0.52908 0.85241 0.0
C753 C 0.91349 0.54451 0.80052 0.0
C754 C 0.89704 0.54011 0.73164 0.0
C755 C 0.93117 0.57518 0.81975 0.0
C756 C 0.93042 0.53064 0.80445 0.0
C757 C 0.92273 0.51045 0.85099 0.0
C758 C 0.93489 0.49417 0.86093 0.0
C759 C 0.95536 0.49868 0.82201 0.0
C760 C 0.96359 0.51943 0.7744 0.0
C761 C 0.95097 0.53564 0.7663 0.0
H762 H 0.33864 0.83773 0.90956 0.0
H763 H 0.26371 0.83914 0.85072 0.0
H764 H 0.28691 0.87549 0.77109 0.0
H765 H 0.38248 0.90815 0.9073 0.0
H766 H 0.4093 0.90544 0.8765 0.0
H767 H 0.38594 0.87831 0.92409 0.0
H768 H 0.37358 0.8433 0.82844 0.0
H769 H 0.39702 0.87036 0.78057 0.0
H770 H 0.36192 0.84932 0.7463 0.0
H771 H 0.32044 0.91411 0.69996 0.0
H772 H 0.36056 0.95098 0.65103 0.0
H773 H 0.41138 0.92195 0.75937 0.0
C774 C 0.32682 0.84512 0.87888 0.0
C775 C 0.29929 0.83537 0.886 0.0
C776 C 0.2849 0.84636 0.84627 0.0
C777 C 0.29785 0.86689 0.80061 0.0
C778 C 0.32518 0.87616 0.79527 0.0
C779 C 0.33935 0.86547 0.83353 0.0
C780 C 0.36881 0.8796 0.82202 0.0
C781 C 0.38773 0.89371 0.88628 0.0
C782 C 0.37572 0.85944 0.79256 0.0
C783 C 0.36925 0.90025 0.77202 0.0
C784 C 0.34401 0.89804 0.75622 0.0
C785 C 0.34026 0.91588 0.71193 0.0
C786 C 0.36305 0.93669 0.68423 0.0
C787 C 0.3891 0.93953 0.702 0.0
C788 C 0.39182 0.92064 0.74537 0.0
H789 H 0.46726 0.29942 0.90394 0.0
H790 H 0.51027 0.34412 0.08946 0.0
H791 H 0.51881 0.38734 0.03635 0.0
H792 H 0.50689 0.35105 0.79125 0.0
H793 H 0.47816 0.34541 0.73215 0.0
H794 H 0.47667 0.31772 0.78235 0.0
H795 H 0.43293 0.31061 0.82533 0.0
H796 H 0.43411 0.33807 0.77472 0.0
H797 H 0.43309 0.3392 0.86271 0.0
H798 H 0.52474 0.42531 0.96439 0.0
H799 H 0.52165 0.45681 0.88301 0.0
H800 H 0.46943 0.38858 0.74382 0.0
C801 C 0.47829 0.31834 0.93328 0.0
C802 C 0.48842 0.3185 1.00081 0.0
C803 C 0.5027 0.34361 0.03763 0.0
C804 C 0.50764 0.36822 0.00785 0.0
C805 C 0.49759 0.36742 0.94142 0.0
C806 C 0.48265 0.34318 0.90474 0.0
C807 C 0.4726 0.3483 0.83545 0.0
C808 C 0.48428 0.34013 0.78215 0.0
C809 C 0.44132 0.33315 0.82388 0.0
C810 C 0.48443 0.37924 0.83912 0.0
C811 C 0.49922 0.38963 0.90053 0.0
C812 C 0.51298 0.41744 0.91638 0.0
C813 C 0.51115 0.43523 0.86912 0.0
C814 C 0.49515 0.42537 0.80642 0.0
C815 C 0.48172 0.39684 0.79112 0.0
H816 H 0.15293 0.43766 0.0649 0.0
H817 H 0.19409 0.43091 0.90846 0.0
H818 H 0.15246 0.4171 0.82847 0.0
H819 H 0.08115 0.38283 0.00151 0.0
H820 H 0.06774 0.40353 0.02674 0.0
H821 H 0.09767 0.40545 0.07347 0.0
H822 H 0.12407 0.458 0.05887 0.0
H823 H 0.09447 0.45632 0.01202 0.0
H824 H 0.12604 0.47135 0.97651 0.0
H825 H 0.10933 0.41166 0.76367 0.0
H826 H 0.07139 0.41923 0.71852 0.0
H827 H 0.06014 0.4322 0.91804 0.0
C828 C 0.15266 0.43212 0.01433 0.0
C829 C 0.17616 0.43464 0.99248 0.0
C830 C 0.17585 0.42842 0.92575 0.0
C831 C 0.15233 0.42053 0.88037 0.0
C832 C 0.12956 0.41905 0.90304 0.0
C833 C 0.12964 0.42468 0.96872 0.0
C834 C 0.1048 0.42638 0.97903 0.0
C835 C 0.08677 0.40316 0.02277 0.0
C836 C 0.11284 0.45468 0.00825 0.0
C837 C 0.09131 0.42226 0.9084 0.0
C838 C 0.10532 0.41715 0.86544 0.0
C839 C 0.09791 0.41508 0.79698 0.0
C840 C 0.07628 0.41933 0.77176 0.0
C841 C 0.06288 0.42622 0.81499 0.0
C842 C 0.06992 0.42671 0.88405 0.0
H843 H 0.67669 0.14606 0.93788 0.0
H844 H 0.65044 0.20555 0.88881 0.0
H845 H 0.60675 0.16878 0.83338 0.0
H846 H 0.65366 0.11283 0.78523 0.0
H847 H 0.64387 0.07922 0.81682 0.0
H848 H 0.67037 0.10909 0.86299 0.0
H849 H 0.64386 0.0931 0.96534 0.0
H850 H 0.61699 0.0633 0.91883 0.0
H851 H 0.60928 0.08634 0.95782 0.0
H852 H 0.56816 0.12655 0.77264 0.0
H853 H 0.54138 0.0848 0.70102 0.0
H854 H 0.59448 0.05416 0.78517 0.0
C855 C 0.66184 0.15151 0.91557 0.0
C856 C 0.66713 0.17879 0.91773 0.0
C857 C 0.64681 0.18477 0.88871 0.0
C858 C 0.62187 0.16399 0.85724 0.0
C859 C 0.61756 0.13737 0.85538 0.0
C860 C 0.63713 0.1312 0.88344 0.0
C861 C 0.62918 0.10193 0.86793 0.0
C862 C 0.65052 0.10072 0.83102 0.0
C863 C 0.62455 0.08518 0.93126 0.0
C864 C 0.60271 0.09295 0.82365 0.0
C865 C 0.59581 0.11331 0.81879 0.0
C866 C 0.57317 0.11034 0.77681 0.0
C867 C 0.55799 0.0865 0.73657 0.0
C868 C 0.56596 0.06637 0.73783 0.0
C869 C 0.58792 0.06923 0.78368 0.0
H870 H 0.55909 0.69821 0.89108 0.0
H871 H 0.50639 0.71132 0.7398 0.0
H872 H 0.50682 0.67775 0.6651 0.0
H873 H 0.59913 0.68628 0.77949 0.0
H874 H 0.6 0.66005 0.83162 0.0
H875 H 0.59909 0.68826 0.86771 0.0
H876 H 0.55603 0.65406 0.92118 0.0
H877 H 0.55695 0.62589 0.88578 0.0
H878 H 0.52665 0.62863 0.86925 0.0
H879 H 0.50986 0.63933 0.61172 0.0
H880 H 0.51042 0.59654 0.5911 0.0
H881 H 0.56014 0.60888 0.77992 0.0
C882 C 0.54834 0.69471 0.84142 0.0
C883 C 0.53312 0.70767 0.8206 0.0
C884 C 0.51834 0.70168 0.75636 0.0
C885 C 0.51869 0.68287 0.71354 0.0
C886 C 0.53388 0.6703 0.73595 0.0
C887 C 0.54831 0.67596 0.7987 0.0
C888 C 0.56018 0.65746 0.81484 0.0
C889 C 0.59146 0.674 0.82393 0.0
C890 C 0.54928 0.64051 0.87634 0.0
C891 C 0.5494 0.63972 0.75238 0.0
C892 C 0.53489 0.6478 0.70651 0.0
C893 C 0.52149 0.63309 0.64693 0.0
C894 C 0.52203 0.60892 0.63541 0.0
C895 C 0.53537 0.5996 0.68402 0.0
C896 C 0.54998 0.61575 0.74183 0.0
H897 H 0.48446 0.17303 0.37414 0.0
H898 H 0.45122 0.1391 0.17444 0.0
H899 H 0.44736 0.09502 0.21058 0.0
H900 H 0.52616 0.14301 0.40414 0.0
H901 H 0.5217 0.13665 0.49045 0.0
H902 H 0.51864 0.16432 0.45117 0.0
H903 H 0.47048 0.1442 0.48684 0.0
H904 H 0.4734 0.11635 0.52585 0.0
H905 H 0.44504 0.10924 0.46385 0.0
H906 H 0.45094 0.0566 0.26424 0.0
H907 H 0.46389 0.0265 0.33074 0.0
H908 H 0.49553 0.08438 0.49731 0.0
C909 C 0.47615 0.15615 0.33843 0.0
C910 C 0.46811 0.15933 0.27143 0.0
C911 C 0.45737 0.13694 0.22591 0.0
C912 C 0.45504 0.11186 0.24608 0.0
C913 C 0.46351 0.10943 0.31212 0.0
C914 C 0.47395 0.13094 0.35773 0.0
C915 C 0.48372 0.1235 0.42423 0.0
C916 C 0.51437 0.14302 0.44361 0.0
C917 C 0.46717 0.12331 0.47839 0.0
C918 C 0.47771 0.0947 0.40832 0.0
C919 C 0.4657 0.08697 0.34351 0.0
C920 C 0.45994 0.06222 0.31529 0.0
C921 C 0.46735 0.04525 0.35346 0.0
C922 C 0.48031 0.05294 0.4193 0.0
C923 C 0.48494 0.07768 0.44772 0.0
H924 H 0.3447 0.49614 0.24882 0.0
H925 H 0.33158 0.54336 0.38767 0.0
H926 H 0.37065 0.54758 0.46432 0.0
H927 H 0.35606 0.4567 0.3549 0.0
H928 H 0.38321 0.45564 0.3211 0.0
H929 H 0.35974 0.46249 0.26806 0.0
H930 H 0.39929 0.5084 0.23272 0.0
H931 H 0.42299 0.50093 0.28322 0.0
H932 H 0.42379 0.53285 0.29545 0.0
H933 H 0.40211 0.53719 0.53467 0.0
H934 H 0.43049 0.51904 0.59076 0.0
H935 H 0.42562 0.47956 0.40681 0.0
C936 C 0.35125 0.50871 0.29371 0.0
C937 C 0.3359 0.52012 0.31215 0.0
C938 C 0.34383 0.53535 0.37228 0.0
C939 C 0.36582 0.53764 0.41611 0.0
C940 C 0.37974 0.52489 0.39831 0.0
C941 C 0.37342 0.51144 0.33768 0.0
C942 C 0.38974 0.49705 0.3341 0.0
C943 C 0.37106 0.46614 0.31865 0.0
C944 C 0.41016 0.51061 0.28336 0.0
C945 C 0.40434 0.50251 0.40409 0.0
C946 C 0.39853 0.51899 0.43968 0.0
C947 C 0.40743 0.52494 0.50694 0.0
C948 C 0.42316 0.51425 0.53848 0.0
C949 C 0.42982 0.49785 0.50287 0.0
C950 C 0.42059 0.49204 0.43473 0.0
H951 H 0.84526 0.31919 0.40661 0.0
H952 H 0.895 0.30936 0.27781 0.0
H953 H 0.9363 0.34466 0.34379 0.0
H954 H 0.87899 0.38716 0.41233 0.0
H955 H 0.87691 0.39256 0.49767 0.0
H956 H 0.85165 0.36135 0.45414 0.0
H957 H 0.86198 0.33287 0.54404 0.0
H958 H 0.88716 0.36413 0.58859 0.0
H959 H 0.89641 0.33966 0.56519 0.0
H960 H 0.97047 0.38764 0.4026 0.0
H961 H 0.99565 0.43377 0.45616 0.0
H962 H 0.92494 0.41674 0.54911 0.0
C963 C 0.86489 0.32385 0.39373 0.0
C964 C 0.86689 0.31146 0.33713 0.0
C965 C 0.89291 0.31815 0.32157 0.0
C966 C 0.91654 0.33828 0.35876 0.0
C967 C 0.91382 0.35124 0.41188 0.0
C968 C 0.88867 0.34397 0.43029 0.0
C969 C 0.89111 0.36365 0.48309 0.0
C970 C 0.87365 0.37696 0.46039 0.0
C971 C 0.88373 0.34921 0.54915 0.0
C972 C 0.92122 0.38428 0.48762 0.0
C973 C 0.93402 0.37636 0.44718 0.0
C974 C 0.96094 0.39365 0.43606 0.0
C975 C 0.97498 0.41982 0.46612 0.0
C976 C 0.96211 0.42833 0.50686 0.0
C977 C 0.93522 0.41019 0.51928 0.0
H978 H 0.56913 0.87205 0.2776 0.0
H979 H 0.49864 0.80217 0.34545 0.0
H980 H 0.50156 0.83041 0.43973 0.0
H981 H 0.60505 0.90424 0.44566 0.0
H982 H 0.61653 0.93818 0.41441 0.0
H983 H 0.6122 0.9111 0.36102 0.0
H984 H 0.57981 0.91991 0.27555 0.0
H985 H 0.58418 0.94699 0.32829 0.0
H986 H 0.55047 0.91906 0.30204 0.0
H987 H 0.5067 0.86821 0.51204 0.0
H988 H 0.51362 0.9121 0.55498 0.0
H989 H 0.58129 0.95681 0.44189 0.0
C990 C 0.55466 0.86257 0.31314 0.0
C991 C 0.53364 0.83503 0.30442 0.0
C992 C 0.51506 0.82322 0.35178 0.0
C993 C 0.51662 0.83908 0.40546 0.0
C994 C 0.53716 0.86651 0.41152 0.0
C995 C 0.55602 0.87804 0.36685 0.0
C996 C 0.57409 0.90857 0.37926 0.0
C997 C 0.60373 0.91595 0.40143 0.0
C998 C 0.57198 0.92455 0.31767 0.0
C999 C 0.56149 0.91277 0.43547 0.0
C1000 C 0.54056 0.88822 0.45447 0.0
C1001 C 0.52365 0.88743 0.49939 0.0
C1002 C 0.52779 0.91236 0.52394 0.0
C1003 C 0.54867 0.93747 0.5036 0.0
C1004 C 0.56605 0.93767 0.46024 0.0
H1005 H 0.68414 0.52153 0.264 0.0
H1006 H 0.72367 0.60551 0.19713 0.0
H1007 H 0.69544 0.61521 0.26049 0.0
H1008 H 0.61761 0.51373 0.24082 0.0
H1009 H 0.60651 0.49174 0.31042 0.0
H1010 H 0.63208 0.49227 0.26604 0.0
H1011 H 0.66469 0.50398 0.37575 0.0
H1012 H 0.63929 0.5037 0.42042 0.0
H1013 H 0.67273 0.53358 0.42519 0.0
H1014 H 0.6624 0.61585 0.33251 0.0
H1015 H 0.6238 0.60551 0.3946 0.0
H1016 H 0.60241 0.52008 0.40005 0.0
C1017 C 0.68693 0.54197 0.26151 0.0
C1018 C 0.70678 0.56273 0.2255 0.0
C1019 C 0.70949 0.58924 0.2256 0.0
C1020 C 0.6933 0.595 0.26117 0.0
C1021 C 0.67397 0.57397 0.29556 0.0
C1022 C 0.67043 0.54787 0.29496 0.0
C1023 C 0.6468 0.52828 0.33135 0.0
C1024 C 0.62443 0.50515 0.28435 0.0
C1025 C 0.65647 0.51671 0.39176 0.0
C1026 C 0.63755 0.54742 0.3524 0.0
C1027 C 0.65379 0.57385 0.33258 0.0
C1028 C 0.64944 0.59519 0.34786 0.0
C1029 C 0.62761 0.5892 0.38329 0.0
C1030 C 0.61013 0.56202 0.40144 0.0
C1031 C 0.61536 0.54101 0.38611 0.0
H1032 H 0.15976 0.6866 0.30376 0.0
H1033 H 0.22896 0.68521 0.41517 0.0
H1034 H 0.20058 0.66004 0.50399 0.0
H1035 H 0.12933 0.69324 0.44602 0.0
H1036 H 0.09519 0.67105 0.4069 0.0
H1037 H 0.12191 0.69179 0.35696 0.0
H1038 H 0.11136 0.64834 0.29105 0.0
H1039 H 0.08457 0.62758 0.34035 0.0
H1040 H 0.11145 0.62002 0.33529 0.0
H1041 H 0.16261 0.62963 0.57279 0.0
H1042 H 0.11903 0.59717 0.61439 0.0
H1043 H 0.07555 0.61983 0.45846 0.0
C1044 C 0.16905 0.6812 0.34708 0.0
C1045 C 0.19649 0.68766 0.35248 0.0
C1046 C 0.20799 0.68056 0.41028 0.0
C1047 C 0.19203 0.66629 0.46087 0.0
C1048 C 0.16479 0.65971 0.45315 0.0
C1049 C 0.15352 0.66713 0.39773 0.0
C1050 C 0.1234 0.65603 0.39836 0.0
C1051 C 0.1171 0.67943 0.40232 0.0
C1052 C 0.10673 0.63685 0.3377 0.0
C1053 C 0.11916 0.64042 0.46188 0.0
C1054 C 0.14327 0.64296 0.49337 0.0
C1055 C 0.14379 0.62818 0.54969 0.0
C1056 C 0.119 0.61 0.57347 0.0
C1057 C 0.09425 0.60706 0.54117 0.0
C1058 C 0.09444 0.62268 0.48538 0.0
loop_
_geom_bond_atom_site_label_1
_geom_bond_atom_site_label_2
_geom_bond_distance
_geom_bond_site_symmetry_2
_ccdc_geom_bond_type
C0 C1 1.443 . S
C0 N4 1.376 . S
C0 C38 1.389 . S
C1 C0 1.443 . S
C1 C2 1.340 . S
C1 H41 0.951 . S
C2 C1 1.340 . S
C2 C3 1.439 . S
C2 H42 0.950 . S
C3 C2 1.439 . S
C3 N4 1.374 . S
C3 C37 1.395 . S
N4 C0 1.376 . S
N4 C3 1.374 . S
N4 Co5 2.008 . S
Co5 N4 2.008 . S
Co5 N6 1.995 . S
Co5 N11 2.008 . S
Co5 N16 1.995 . S
Co5 N21 2.282 . S
Co5 N27 2.282 . S
N6 Co5 1.995 . S
N6 C7 1.376 . S
N6 C10 1.383 . S
C7 N6 1.376 . S
C7 C8 1.446 . S
C7 C37 1.391 . S
C8 C7 1.446 . S
C8 C9 1.339 . S
C8 H43 0.949 . S
C9 C8 1.339 . S
C9 C10 1.439 . S
C9 H44 0.950 . S
C10 N6 1.383 . S
C10 C9 1.439 . S
C10 C39 1.392 . S
N11 Co5 2.008 . S
N11 C12 1.376 . S
N11 C15 1.374 . S
C12 N11 1.376 . S
C12 C13 1.443 . S
C12 C39 1.389 . S
C13 C12 1.443 . S
C13 C14 1.340 . S
C13 H45 0.951 . S
C14 C13 1.340 . S
C14 C15 1.439 . S
C14 H46 0.950 . S
C15 N11 1.374 . S
C15 C14 1.439 . S
C15 C40 1.395 . S
N16 Co5 1.995 . S
N16 C17 1.376 . S
N16 C20 1.383 . S
C17 N16 1.376 . S
C17 C18 1.446 . S
C17 C40 1.391 . S
C18 C17 1.446 . S
C18 C19 1.339 . S
C18 H47 0.949 . S
C19 C18 1.339 . S
C19 C20 1.439 . S
C19 H48 0.950 . S
C20 N16 1.383 . S
C20 C19 1.439 . S
C20 C38 1.392 . S
N21 Co5 2.282 . S
N21 C24 1.332 . S
N21 C26 1.332 . S
C22 C23 1.386 . S
C22 C25 1.388 . S
C23 C22 1.386 . S
C23 C24 1.382 . S
C23 H49 0.950 . S
C24 N21 1.332 . S
C24 C23 1.382 . S
C24 H35 0.952 . S
C25 C22 1.388 . S
C25 C26 1.382 . S
C25 H50 0.950 . S
C26 N21 1.332 . S
C26 C25 1.382 . S
C26 H36 0.948 . S
N27 Co5 2.282 . S
N27 C31 1.332 . S
N27 C32 1.332 . S
C28 C29 1.388 . S
C28 C32 1.382 . S
C28 H51 0.950 . S
C29 C28 1.388 . S
C29 C30 1.386 . S
C30 C29 1.386 . S
C30 C31 1.382 . S
C30 H52 0.950 . S
C31 N27 1.332 . S
C31 C30 1.382 . S
C31 H33 0.952 . S
C32 N27 1.332 . S
C32 C28 1.382 . S
C32 H34 0.948 . S
H33 C31 0.952 . S
H34 C32 0.948 . S
H35 C24 0.952 . S
H36 C26 0.948 . S
C37 C3 1.395 . S
C37 C7 1.391 . S
C38 C0 1.389 . S
C38 C20 1.392 . S
C39 C10 1.392 . S
C39 C12 1.389 . S
C40 C15 1.395 . S
C40 C17 1.391 . S
H41 C1 0.951 . S
H42 C2 0.950 . S
H43 C8 0.949 . S
H44 C9 0.950 . S
H45 C13 0.951 . S
H46 C14 0.950 . S
H47 C18 0.949 . S
H48 C19 0.950 . S
H49 C23 0.950 . S
H50 C25 0.950 . S
H51 C28 0.950 . S
H52 C30 0.950 . S
C53 C54 1.443 . S
C53 N57 1.376 . S
C53 C91 1.389 . S
C54 C53 1.443 . S
C54 C55 1.340 . S
C54 H94 0.951 . S
C55 C54 1.340 . S
C55 C56 1.439 . S
C55 H95 0.950 . S
C56 C55 1.439 . S
C56 N57 1.374 . S
C56 C90 1.395 . S
N57 C53 1.376 . S
N57 C56 1.374 . S
N57 Co58 2.008 . S
Co58 N57 2.008 . S
Co58 N59 1.995 . S
Co58 N64 2.008 . S
Co58 N69 1.995 . S
Co58 N74 2.282 . S
Co58 N80 2.282 . S
N59 Co58 1.995 . S
N59 C60 1.376 . S
N59 C63 1.383 . S
C60 N59 1.376 . S
C60 C61 1.446 . S
C60 C90 1.391 . S
C61 C60 1.446 . S
C61 C62 1.339 . S
C61 H96 0.949 . S
C62 C61 1.339 . S
C62 C63 1.439 . S
C62 H97 0.950 . S
C63 N59 1.383 . S
C63 C62 1.439 . S
C63 C92 1.392 . S
N64 Co58 2.008 . S
N64 C65 1.376 . S
N64 C68 1.374 . S
C65 N64 1.376 . S
C65 C66 1.443 . S
C65 C92 1.389 . S
C66 C65 1.443 . S
C66 C67 1.340 . S
C66 H98 0.951 . S
C67 C66 1.340 . S
C67 C68 1.439 . S
C67 H99 0.950 . S
C68 N64 1.374 . S
C68 C67 1.439 . S
C68 C93 1.395 . S
N69 Co58 1.995 . S
N69 C70 1.376 . S
N69 C73 1.383 . S
C70 N69 1.376 . S
C70 C71 1.446 . S
C70 C93 1.391 . S
C71 C70 1.446 . S
C71 C72 1.340 . S
C71 H100 0.949 . S
C72 C71 1.340 . S
C72 C73 1.440 . S
C72 H101 0.947 1_554 S
C73 N69 1.383 . S
C73 C72 1.440 . S
C73 C91 1.392 . S
N74 Co58 2.282 . S
N74 C77 1.324 1_554 S
N74 C79 1.332 . S
C75 C76 1.386 . S
C75 C78 1.388 . S
C76 C75 1.386 . S
C76 C77 1.391 . S
C76 H102 0.950 . S
C77 N74 1.324 1_556 S
C77 C76 1.391 . S
C77 H88 0.951 1_556 S
C78 C75 1.388 . S
C78 C79 1.382 1_556 S
C78 H103 0.950 . S
C79 N74 1.332 . S
C79 C78 1.382 1_554 S
C79 H89 0.948 . S
N80 Co58 2.282 . S
N80 C84 1.332 . S
N80 C85 1.332 . S
C81 C82 1.388 . S
C81 C85 1.382 . S
C81 H104 0.950 . S
C82 C81 1.388 . S
C82 C83 1.386 . S
C83 C82 1.386 . S
C83 C84 1.382 . S
C83 H105 0.950 . S
C84 N80 1.332 . S
C84 C83 1.382 . S
C84 H86 0.952 . S
C85 N80 1.332 . S
C85 C81 1.382 . S
C85 H87 0.948 . S
H86 C84 0.952 . S
H87 C85 0.948 . S
H88 C77 0.951 1_554 S
H89 C79 0.948 . S
C90 C56 1.395 . S
C90 C60 1.391 . S
C91 C53 1.389 . S
C91 C73 1.392 . S
C92 C63 1.392 . S
C92 C65 1.389 . S
C93 C68 1.395 . S
C93 C70 1.391 . S
H94 C54 0.951 . S
H95 C55 0.950 . S
H96 C61 0.949 . S
H97 C62 0.950 . S
H98 C66 0.951 . S
H99 C67 0.950 . S
H100 C71 0.949 . S
H101 C72 0.947 1_556 S
H102 C76 0.950 . S
H103 C78 0.950 . S
H104 C81 0.950 . S
H105 C83 0.950 . S
C106 C107 1.443 . S
C106 N110 1.376 . S
C106 C144 1.389 . S
C107 C106 1.443 . S
C107 C108 1.340 . S
C107 H147 0.951 . S
C108 C107 1.340 . S
C108 C109 1.439 . S
C108 H148 0.950 . S
C109 C108 1.439 . S
C109 N110 1.374 . S
C109 C143 1.395 . S
N110 C106 1.376 . S
N110 C109 1.374 . S
N110 Co111 2.008 . S
Co111 N110 2.008 . S
Co111 N112 1.995 1_554 S
Co111 N117 2.008 1_554 S
Co111 N122 1.995 . S
Co111 N127 2.282 . S
Co111 N133 2.282 1_554 S
N112 Co111 1.995 1_556 S
N112 C113 1.376 . S
N112 C116 1.383 . S
C113 N112 1.376 . S
C113 C114 1.446 . S
C113 C143 1.391 1_556 S
C114 C113 1.446 . S
C114 C115 1.339 . S
C114 H149 0.949 . S
C115 C114 1.339 . S
C115 C116 1.439 . S
C115 H150 0.950 . S
C116 N112 1.383 . S
C116 C115 1.439 . S
C116 C145 1.392 . S
N117 Co111 2.008 1_556 S
N117 C118 1.376 . S
N117 C121 1.374 . S
C118 N117 1.376 . S
C118 C119 1.443 . S
C118 C145 1.389 . S
C119 C118 1.443 . S
C119 C120 1.340 . S
C119 H151 0.951 . S
C120 C119 1.340 . S
C120 C121 1.439 . S
C120 H152 0.950 . S
C121 N117 1.374 . S
C121 C120 1.439 . S
C121 C146 1.395 1_556 S
N122 Co111 1.995 . S
N122 C123 1.376 . S
N122 C126 1.383 . S
C123 N122 1.376 . S
C123 C124 1.446 . S
C123 C146 1.391 . S
C124 C123 1.446 . S
C124 C125 1.339 . S
C124 H153 0.949 . S
C125 C124 1.339 . S
C125 C126 1.439 . S
C125 H154 0.950 . S
C126 N122 1.383 . S
C126 C125 1.439 . S
C126 C144 1.392 . S
N127 Co111 2.282 . S
N127 C130 1.332 . S
N127 C132 1.332 . S
C128 C129 1.386 . S
C128 C131 1.388 . S
C129 C128 1.386 . S
C129 C130 1.382 . S
C129 H155 0.950 . S
C130 N127 1.332 . S
C130 C129 1.382 . S
C130 H141 0.952 . S
C131 C128 1.388 . S
C131 C132 1.382 . S
C131 H156 0.950 . S
C132 N127 1.332 . S
C132 C131 1.382 . S
C132 H142 0.948 . S
N133 Co111 2.282 1_556 S
N133 C137 1.332 . S
N133 C138 1.332 . S
C134 C135 1.388 . S
C134 C138 1.382 . S
C134 H157 0.950 . S
C135 C134 1.388 . S
C135 C136 1.386 . S
C136 C135 1.386 . S
C136 C137 1.382 . S
C136 H158 0.950 . S
C137 N133 1.332 . S
C137 C136 1.382 . S
C137 H139 0.952 . S
C138 N133 1.332 . S
C138 C134 1.382 . S
C138 H140 0.948 . S
H139 C137 0.952 . S
H140 C138 0.948 . S
H141 C130 0.952 . S
H142 C132 0.948 . S
C143 C109 1.395 . S
C143 C113 1.391 1_554 S
C144 C106 1.389 . S
C144 C126 1.392 . S
C145 C116 1.392 . S
C145 C118 1.389 . S
C146 C121 1.395 1_554 S
C146 C123 1.391 . S
H147 C107 0.951 . S
H148 C108 0.950 . S
H149 C114 0.949 . S
H150 C115 0.950 . S
H151 C119 0.951 . S
H152 C120 0.950 . S
H153 C124 0.949 . S
H154 C125 0.950 . S
H155 C129 0.950 . S
H156 C131 0.950 . S
H157 C134 0.950 . S
H158 C136 0.950 . S
C159 C160 1.443 . S
C159 N163 1.376 . S
C159 C197 1.389 . S
C160 C159 1.443 . S
C160 C161 1.340 . S
C160 H200 0.951 . S
C161 C160 1.340 . S
C161 C162 1.439 . S
C161 H201 0.950 . S
C162 C161 1.439 . S
C162 N163 1.374 . S
C162 C196 1.395 . S
N163 C159 1.376 . S
N163 C162 1.374 . S
N163 Co164 2.008 . S
Co164 N163 2.008 . S
Co164 N165 1.995 1_554 S
Co164 N170 2.008 1_554 S
Co164 N175 1.995 . S
Co164 N180 2.282 . S
Co164 N186 2.282 1_554 S
N165 Co164 1.995 1_556 S
N165 C166 1.376 . S
N165 C169 1.383 . S
C166 N165 1.376 . S
C166 C167 1.446 . S
C166 C196 1.391 1_556 S
C167 C166 1.446 . S
C167 C168 1.339 . S
C167 H202 0.949 . S
C168 C167 1.339 . S
C168 C169 1.439 . S
C168 H203 0.950 . S
C169 N165 1.383 . S
C169 C168 1.439 . S
C169 C198 1.392 . S
N170 Co164 2.008 1_556 S
N170 C171 1.376 . S
N170 C174 1.374 . S
C171 N170 1.376 . S
C171 C172 1.443 . S
C171 C198 1.389 . S
C172 C171 1.443 . S
C172 C173 1.340 . S
C172 H204 0.951 . S
C173 C172 1.340 . S
C173 C174 1.439 . S
C173 H205 0.950 . S
C174 N170 1.374 . S
C174 C173 1.439 . S
C174 C199 1.395 1_556 S
N175 Co164 1.995 . S
N175 C176 1.376 . S
N175 C179 1.383 . S
C176 N175 1.376 . S
C176 C177 1.446 . S
C176 C199 1.391 . S
C177 C176 1.446 . S
C177 C178 1.339 . S
C177 H206 0.949 . S
C178 C177 1.339 . S
C178 C179 1.439 . S
C178 H207 0.950 . S
C179 N175 1.383 . S
C179 C178 1.439 . S
C179 C197 1.392 . S
N180 Co164 2.282 . S
N180 C183 1.332 . S
N180 C185 1.332 . S
C181 C182 1.386 . S
C181 C184 1.388 . S
C182 C181 1.386 . S
C182 C183 1.382 . S
C182 H208 0.950 . S
C183 N180 1.332 . S
C183 C182 1.382 . S
C183 H194 0.952 . S
C184 C181 1.388 . S
C184 C185 1.382 . S
C184 H209 0.950 . S
C185 N180 1.332 . S
C185 C184 1.382 . S
C185 H195 0.948 . S
N186 Co164 2.282 1_556 S
N186 C190 1.332 . S
N186 C191 1.332 . S
C187 C188 1.388 . S
C187 C191 1.382 . S
C187 H210 0.950 . S
C188 C187 1.388 . S
C188 C189 1.386 . S
C189 C188 1.386 . S
C189 C190 1.382 . S
C189 H211 0.950 . S
C190 N186 1.332 . S
C190 C189 1.382 . S
C190 H192 0.952 . S
C191 N186 1.332 . S
C191 C187 1.382 . S
C191 H193 0.948 . S
H192 C190 0.952 . S
H193 C191 0.948 . S
H194 C183 0.952 . S
H195 C185 0.948 . S
C196 C162 1.395 . S
C196 C166 1.391 1_554 S
C197 C159 1.389 . S
C197 C179 1.392 . S
C198 C169 1.392 . S
C198 C171 1.389 . S
C199 C174 1.395 1_554 S
C199 C176 1.391 . S
H200 C160 0.951 . S
H201 C161 0.950 . S
H202 C167 0.949 . S
H203 C168 0.950 . S
H204 C172 0.951 . S
H205 C173 0.950 . S
H206 C177 0.949 . S
H207 C178 0.950 . S
H208 C182 0.950 . S
H209 C184 0.950 . S
H210 C187 0.950 . S
H211 C189 0.950 . S
C212 C213 1.443 . S
C212 N216 1.376 . S
C212 C250 1.389 . S
C213 C212 1.443 . S
C213 C214 1.340 . S
C213 H253 0.951 . S
C214 C213 1.340 . S
C214 C215 1.439 . S
C214 H254 0.950 . S
C215 C214 1.439 . S
C215 N216 1.374 . S
C215 C249 1.395 . S
N216 C212 1.376 . S
N216 C215 1.374 . S
N216 Co217 2.008 . S
Co217 N216 2.008 . S
Co217 N218 1.995 . S
Co217 N223 2.008 . S
Co217 N228 1.995 . S
Co217 N233 2.282 . S
Co217 N239 2.282 . S
N218 Co217 1.995 . S
N218 C219 1.376 . S
N218 C222 1.383 . S
C219 N218 1.376 . S
C219 C220 1.446 1_554 S
C219 C249 1.391 . S
C220 C219 1.446 1_556 S
C220 C221 1.339 . S
C220 H255 0.949 . S
C221 C220 1.339 . S
C221 C222 1.439 1_556 S
C221 H256 0.950 . S
C222 N218 1.383 . S
C222 C221 1.439 1_554 S
C222 C251 1.392 1_554 S
N223 Co217 2.008 . S
N223 C224 1.376 . S
N223 C227 1.374 . S
C224 N223 1.376 . S
C224 C225 1.443 . S
C224 C251 1.389 1_554 S
C225 C224 1.443 . S
C225 C226 1.340 . S
C225 H257 0.951 1_554 S
C226 C225 1.340 . S
C226 C227 1.439 . S
C226 H258 0.950 . S
C227 N223 1.374 . S
C227 C226 1.439 . S
C227 C252 1.395 . S
N228 Co217 1.995 . S
N228 C229 1.376 . S
N228 C232 1.383 . S
C229 N228 1.376 . S
C229 C230 1.446 . S
C229 C252 1.391 . S
C230 C229 1.446 . S
C230 C231 1.339 . S
C230 H259 0.949 . S
C231 C230 1.339 . S
C231 C232 1.439 . S
C231 H260 0.950 . S
C232 N228 1.383 . S
C232 C231 1.439 . S
C232 C250 1.392 . S
N233 Co217 2.282 . S
N233 C236 1.332 . S
N233 C238 1.332 . S
C234 C235 1.386 . S
C234 C237 1.388 . S
C235 C234 1.386 . S
C235 C236 1.382 . S
C235 H261 0.950 . S
C236 N233 1.332 . S
C236 C235 1.382 . S
C236 H247 0.952 . S
C237 C234 1.388 . S
C237 C238 1.382 . S
C237 H262 0.950 . S
C238 N233 1.332 . S
C238 C237 1.382 . S
C238 H248 0.948 . S
N239 Co217 2.282 . S
N239 C243 1.332 1_554 S
N239 C244 1.332 . S
C240 C241 1.388 . S
C240 C244 1.382 1_556 S
C240 H263 0.950 . S
C241 C240 1.388 . S
C241 C242 1.386 . S
C242 C241 1.386 . S
C242 C243 1.382 . S
C242 H264 0.950 . S
C243 N239 1.332 1_556 S
C243 C242 1.382 . S
C243 H245 0.952 . S
C244 N239 1.332 . S
C244 C240 1.382 1_554 S
C244 H246 0.948 . S
H245 C243 0.952 . S
H246 C244 0.948 . S
H247 C236 0.952 . S
H248 C238 0.948 . S
C249 C215 1.395 . S
C249 C219 1.391 . S
C250 C212 1.389 . S
C250 C232 1.392 . S
C251 C222 1.392 1_556 S
C251 C224 1.389 1_556 S
C252 C227 1.395 . S
C252 C229 1.391 . S
H253 C213 0.951 . S
H254 C214 0.950 . S
H255 C220 0.949 . S
H256 C221 0.950 . S
H257 C225 0.951 1_556 S
H258 C226 0.950 . S
H259 C230 0.949 . S
H260 C231 0.950 . S
H261 C235 0.950 . S
H262 C237 0.950 . S
H263 C240 0.950 . S
H264 C242 0.950 . S
C265 C266 1.443 . S
C265 N269 1.376 . S
C265 C303 1.389 . S
C266 C265 1.443 . S
C266 C267 1.340 . S
C266 H306 0.951 . S
C267 C266 1.340 . S
C267 C268 1.439 . S
C267 H307 0.950 . S
C268 C267 1.439 . S
C268 N269 1.374 . S
C268 C302 1.395 . S
N269 C265 1.376 . S
N269 C268 1.374 . S
N269 Co270 2.008 . S
Co270 N269 2.008 . S
Co270 N271 1.995 . S
Co270 N276 2.008 . S
Co270 N281 1.995 . S
Co270 N286 2.282 . S
Co270 N292 2.282 . S
N271 Co270 1.995 . S
N271 C272 1.376 . S
N271 C275 1.383 . S
C272 N271 1.376 . S
C272 C273 1.446 . S
C272 C302 1.391 . S
C273 C272 1.446 . S
C273 C274 1.339 . S
C273 H308 0.949 . S
C274 C273 1.339 . S
C274 C275 1.439 . S
C274 H309 0.950 . S
C275 N271 1.383 . S
C275 C274 1.439 . S
C275 C304 1.392 . S
N276 Co270 2.008 . S
N276 C277 1.376 . S
N276 C280 1.374 . S
C277 N276 1.376 . S
C277 C278 1.443 . S
C277 C304 1.389 . S
C278 C277 1.443 . S
C278 C279 1.340 . S
C278 H310 0.951 . S
C279 C278 1.340 . S
C279 C280 1.439 . S
C279 H311 0.950 . S
C280 N276 1.374 . S
C280 C279 1.439 . S
C280 C305 1.395 . S
N281 Co270 1.995 . S
N281 C282 1.376 . S
N281 C285 1.383 . S
C282 N281 1.376 . S
C282 C283 1.446 . S
C282 C305 1.391 . S
C283 C282 1.446 . S
C283 C284 1.339 . S
C283 H312 0.949 . S
C284 C283 1.339 . S
C284 C285 1.439 . S
C284 H313 0.950 . S
C285 N281 1.383 . S
C285 C284 1.439 . S
C285 C303 1.392 . S
N286 Co270 2.282 . S
N286 C289 1.332 . S
N286 C291 1.332 . S
C287 C288 1.386 . S
C287 C290 1.388 . S
C288 C287 1.386 . S
C288 C289 1.382 . S
C288 H314 0.950 . S
C289 N286 1.332 . S
C289 C288 1.382 . S
C289 H300 0.952 . S
C290 C287 1.388 . S
C290 C291 1.382 . S
C290 H315 0.950 . S
C291 N286 1.332 . S
C291 C290 1.382 . S
C291 H301 0.948 . S
N292 Co270 2.282 . S
N292 C296 1.332 . S
N292 C297 1.332 . S
C293 C294 1.388 . S
C293 C297 1.382 . S
C293 H316 0.950 . S
C294 C293 1.388 . S
C294 C295 1.386 . S
C295 C294 1.386 . S
C295 C296 1.382 . S
C295 H317 0.950 . S
C296 N292 1.332 . S
C296 C295 1.382 . S
C296 H298 0.952 . S
C297 N292 1.332 . S
C297 C293 1.382 . S
C297 H299 0.948 . S
H298 C296 0.952 . S
H299 C297 0.948 . S
H300 C289 0.952 . S
H301 C291 0.948 . S
C302 C268 1.395 . S
C302 C272 1.391 . S
C303 C265 1.389 . S
C303 C285 1.392 . S
C304 C275 1.392 . S
C304 C277 1.389 . S
C305 C280 1.395 . S
C305 C282 1.391 . S
H306 C266 0.951 . S
H307 C267 0.950 . S
H308 C273 0.949 . S
H309 C274 0.950 . S
H310 C278 0.951 . S
H311 C279 0.950 . S
H312 C283 0.949 . S
H313 C284 0.950 . S
H314 C288 0.950 . S
H315 C290 0.950 . S
H316 C293 0.950 . S
H317 C295 0.950 . S
C318 O345 1.312 . S
C318 O346 1.208 . S
C319 O340 1.331 . S
C319 O343 1.244 . S
C320 O342 1.264 . S
C320 O344 1.273 . S
Mg321 O323 1.936 1_455 S
Mg321 O330 2.081 1_455 S
Mg321 O332 2.023 . S
Mg321 O336 2.031 1_455 S
Mg321 O345 2.291 . S
Mg322 O323 1.963 . S
Mg322 O333 1.942 . S
Mg322 O334 1.955 1_655 S
Mg322 O341 1.986 . S
O323 Mg321 1.936 1_655 S
O323 Mg322 1.963 . S
O323 Mg324 1.915 1_655 S
Mg324 O323 1.915 1_455 S
Mg324 O325 1.915 . S
Mg324 O329 2.013 . S
Mg324 O335 2.114 1_455 S
Mg324 O339 2.013 1_455 S
Mg324 O345 2.114 . S
O325 Mg324 1.915 . S
O325 Mg326 1.936 . S
O325 Mg327 1.963 . S
Mg326 O325 1.936 . S
Mg326 O335 2.291 1_455 S
Mg326 O340 2.081 . S
Mg326 O342 2.023 1_455 S
Mg326 O346 2.031 . S
Mg327 O325 1.963 . S
Mg327 O331 1.986 . S
Mg327 O343 1.942 . S
Mg327 O344 1.955 1_455 S
C328 O339 1.191 . S
C328 O341 1.307 . S
O329 Mg324 2.013 . S
O329 C348 1.191 . S
O330 Mg321 2.081 1_655 S
O330 C338 1.331 . S
O331 Mg327 1.986 . S
O331 C348 1.307 . S
O332 Mg321 2.023 . S
O332 C347 1.264 . S
O333 Mg322 1.942 . S
O333 C338 1.244 . S
O334 Mg322 1.955 1_455 S
O334 C347 1.273 . S
O335 Mg324 2.114 1_655 S
O335 Mg326 2.291 1_655 S
O335 C337 1.312 . S
O336 Mg321 2.031 1_655 S
O336 C337 1.208 . S
C337 O335 1.312 . S
C337 O336 1.208 . S
C338 O330 1.331 . S
C338 O333 1.244 . S
O339 Mg324 2.013 1_655 S
O339 C328 1.191 . S
O340 C319 1.331 . S
O340 Mg326 2.081 . S
O341 Mg322 1.986 . S
O341 C328 1.307 . S
O342 C320 1.264 . S
O342 Mg326 2.023 1_655 S
O343 C319 1.244 . S
O343 Mg327 1.942 . S
O344 C320 1.273 . S
O344 Mg327 1.955 1_655 S
O345 C318 1.312 . S
O345 Mg321 2.291 . S
O345 Mg324 2.114 . S
O346 C318 1.208 . S
O346 Mg326 2.031 . S
C347 O332 1.264 . S
C347 O334 1.273 . S
C348 O329 1.191 . S
C348 O331 1.307 . S
C349 O376 1.312 . S
C349 O377 1.208 . S
C350 O371 1.331 . S
C350 O374 1.244 . S
C351 O373 1.264 . S
C351 O375 1.273 . S
Mg352 O354 1.936 1_545 S
Mg352 O361 2.081 1_545 S
Mg352 O363 2.023 . S
Mg352 O367 2.031 1_545 S
Mg352 O376 2.291 . S
Mg353 O354 1.963 . S
Mg353 O364 1.942 . S
Mg353 O365 1.955 1_565 S
Mg353 O372 1.986 . S
O354 Mg352 1.936 1_565 S
O354 Mg353 1.963 . S
O354 Mg355 1.915 1_565 S
Mg355 O354 1.915 1_545 S
Mg355 O356 1.915 . S
Mg355 O360 2.013 . S
Mg355 O366 2.114 1_545 S
Mg355 O370 2.013 1_545 S
Mg355 O376 2.114 . S
O356 Mg355 1.915 . S
O356 Mg357 1.936 . S
O356 Mg358 1.963 . S
Mg357 O356 1.936 . S
Mg357 O366 2.291 1_545 S
Mg357 O371 2.081 . S
Mg357 O373 2.023 1_545 S
Mg357 O377 2.031 . S
Mg358 O356 1.963 . S
Mg358 O362 1.986 . S
Mg358 O374 1.942 . S
Mg358 O375 1.955 1_545 S
C359 O370 1.191 . S
C359 O372 1.307 . S
O360 Mg355 2.013 . S
O360 C379 1.191 . S
O361 Mg352 2.081 1_565 S
O361 C369 1.331 . S
O362 Mg358 1.986 . S
O362 C379 1.307 . S
O363 Mg352 2.023 . S
O363 C378 1.264 . S
O364 Mg353 1.942 . S
O364 C369 1.244 . S
O365 Mg353 1.955 1_545 S
O365 C378 1.273 . S
O366 Mg355 2.114 1_565 S
O366 Mg357 2.291 1_565 S
O366 C368 1.312 . S
O367 Mg352 2.031 1_565 S
O367 C368 1.208 . S
C368 O366 1.312 . S
C368 O367 1.208 . S
C369 O361 1.331 . S
C369 O364 1.244 . S
O370 Mg355 2.013 1_565 S
O370 C359 1.191 . S
O371 C350 1.331 . S
O371 Mg357 2.081 . S
O372 Mg353 1.986 . S
O372 C359 1.307 . S
O373 C351 1.264 . S
O373 Mg357 2.023 1_565 S
O374 C350 1.244 . S
O374 Mg358 1.942 . S
O375 C351 1.273 . S
O375 Mg358 1.955 1_565 S
O376 C349 1.312 . S
O376 Mg352 2.291 . S
O376 Mg355 2.114 . S
O377 C349 1.208 . S
O377 Mg357 2.031 . S
C378 O363 1.264 . S
C378 O365 1.273 . S
C379 O360 1.191 . S
C379 O362 1.307 . S
C380 O407 1.312 . S
C380 O408 1.208 . S
C381 O402 1.331 . S
C381 O405 1.244 . S
C382 O404 1.264 . S
C382 O406 1.273 . S
Mg383 O385 1.936 . S
Mg383 O392 2.081 . S
Mg383 O394 2.023 . S
Mg383 O398 2.031 . S
Mg383 O407 2.291 . S
Mg384 O385 1.963 . S
Mg384 O395 1.942 . S
Mg384 O396 1.955 . S
Mg384 O403 1.986 . S
O385 Mg383 1.936 . S
O385 Mg384 1.963 . S
O385 Mg386 1.915 . S
Mg386 O385 1.915 . S
Mg386 O387 1.915 . S
Mg386 O391 2.013 . S
Mg386 O397 2.114 . S
Mg386 O401 2.013 . S
Mg386 O407 2.114 . S
O387 Mg386 1.915 . S
O387 Mg388 1.936 . S
O387 Mg389 1.963 . S
Mg388 O387 1.936 . S
Mg388 O397 2.291 . S
Mg388 O402 2.081 . S
Mg388 O404 2.023 . S
Mg388 O408 2.031 . S
Mg389 O387 1.963 . S
Mg389 O393 1.986 . S
Mg389 O405 1.942 . S
Mg389 O406 1.955 . S
C390 O401 1.191 . S
C390 O403 1.307 . S
O391 Mg386 2.013 . S
O391 C410 1.191 . S
O392 Mg383 2.081 . S
O392 C400 1.331 . S
O393 Mg389 1.986 . S
O393 C410 1.307 . S
O394 Mg383 2.023 . S
O394 C409 1.264 . S
O395 Mg384 1.942 . S
O395 C400 1.244 . S
O396 Mg384 1.955 . S
O396 C409 1.273 . S
O397 Mg386 2.114 . S
O397 Mg388 2.291 . S
O397 C399 1.312 . S
O398 Mg383 2.031 . S
O398 C399 1.208 . S
C399 O397 1.312 . S
C399 O398 1.208 . S
C400 O392 1.331 . S
C400 O395 1.244 . S
O401 Mg386 2.013 . S
O401 C390 1.191 . S
O402 C381 1.331 . S
O402 Mg388 2.081 . S
O403 Mg384 1.986 . S
O403 C390 1.307 . S
O404 C382 1.264 . S
O404 Mg388 2.023 . S
O405 C381 1.244 . S
O405 Mg389 1.942 . S
O406 C382 1.273 . S
O406 Mg389 1.955 . S
O407 C380 1.312 . S
O407 Mg383 2.291 . S
O407 Mg386 2.114 . S
O408 C380 1.208 . S
O408 Mg388 2.031 . S
C409 O394 1.264 . S
C409 O396 1.273 . S
C410 O391 1.191 . S
C410 O393 1.307 . S
H411 C423 0.930 . S
H412 C425 0.930 . S
H413 C426 0.930 . S
H414 C430 0.959 . S
H415 C430 0.959 . S
H416 C430 0.961 . S
H417 C431 0.960 . S
H418 C431 0.961 . S
H419 C431 0.959 . S
H420 C434 0.929 . S
H421 C435 0.931 . S
H422 C437 0.930 . S
C423 H411 0.930 . S
C423 C424 1.399 . S
C423 C428 1.399 . S
C424 C423 1.399 . S
C424 C425 1.376 . S
C425 H412 0.930 . S
C425 C424 1.376 . S
C425 C426 1.388 . S
C426 H413 0.930 . S
C426 C425 1.388 . S
C426 C427 1.390 . S
C427 C426 1.390 . S
C427 C428 1.394 . S
C427 C433 1.465 . S
C428 C423 1.399 . S
C428 C427 1.394 . S
C428 C429 1.516 . S
C429 C428 1.516 . S
C429 C430 1.502 . S
C429 C431 1.561 . S
C429 C432 1.526 . S
C430 H414 0.959 . S
C430 H415 0.959 . S
C430 H416 0.961 . S
C430 C429 1.502 . S
C431 H417 0.960 . S
C431 H418 0.961 . S
C431 H419 0.959 . S
C431 C429 1.561 . S
C432 C429 1.526 . S
C432 C433 1.396 . S
C432 C437 1.390 . S
C433 C427 1.465 . S
C433 C432 1.396 . S
C433 C434 1.399 . S
C434 H420 0.929 . S
C434 C433 1.399 . S
C434 C435 1.385 . S
C435 H421 0.931 . S
C435 C434 1.385 . S
C435 C436 1.389 . S
C436 C435 1.389 . S
C436 C437 1.387 . S
C437 H422 0.930 . S
C437 C432 1.390 . S
C437 C436 1.387 . S
H438 C450 0.930 . S
H439 C452 0.930 . S
H440 C453 0.930 . S
H441 C457 0.959 . S
H442 C457 0.959 . S
H443 C457 0.961 . S
H444 C458 0.960 . S
H445 C458 0.961 . S
H446 C458 0.959 . S
H447 C461 0.929 . S
H448 C462 0.931 . S
H449 C464 0.930 . S
C450 H438 0.930 . S
C450 C451 1.399 . S
C450 C455 1.399 . S
C451 C450 1.399 . S
C451 C452 1.376 . S
C452 H439 0.930 . S
C452 C451 1.376 . S
C452 C453 1.388 . S
C453 H440 0.930 . S
C453 C452 1.388 . S
C453 C454 1.390 . S
C454 C453 1.390 . S
C454 C455 1.394 . S
C454 C460 1.465 . S
C455 C450 1.399 . S
C455 C454 1.394 . S
C455 C456 1.516 . S
C456 C455 1.516 . S
C456 C457 1.502 . S
C456 C458 1.561 . S
C456 C459 1.526 . S
C457 H441 0.959 . S
C457 H442 0.959 . S
C457 H443 0.961 . S
C457 C456 1.502 . S
C458 H444 0.960 . S
C458 H445 0.961 . S
C458 H446 0.959 . S
C458 C456 1.561 . S
C459 C456 1.526 . S
C459 C460 1.396 . S
C459 C464 1.390 . S
C460 C454 1.465 . S
C460 C459 1.396 . S
C460 C461 1.399 . S
C461 H447 0.929 . S
C461 C460 1.399 . S
C461 C462 1.385 . S
C462 H448 0.931 . S
C462 C461 1.385 . S
C462 C463 1.389 . S
C463 C462 1.389 . S
C463 C464 1.387 . S
C464 H449 0.930 . S
C464 C459 1.390 . S
C464 C463 1.387 . S
H465 C477 0.930 . S
H466 C479 0.930 . S
H467 C480 0.930 . S
H468 C484 0.959 . S
H469 C484 0.959 . S
H470 C484 0.961 . S
H471 C485 0.960 . S
H472 C485 0.961 . S
H473 C485 0.959 . S
H474 C488 0.929 . S
H475 C489 0.931 . S
H476 C491 0.930 . S
C477 H465 0.930 . S
C477 C478 1.399 . S
C477 C482 1.399 . S
C478 C477 1.399 . S
C478 C479 1.376 . S
C479 H466 0.930 . S
C479 C478 1.376 . S
C479 C480 1.388 . S
C480 H467 0.930 . S
C480 C479 1.388 . S
C480 C481 1.390 . S
C481 C480 1.390 . S
C481 C482 1.394 . S
C481 C487 1.465 . S
C482 C477 1.399 . S
C482 C481 1.394 . S
C482 C483 1.516 . S
C483 C482 1.516 . S
C483 C484 1.502 . S
C483 C485 1.561 . S
C483 C486 1.526 . S
C484 H468 0.959 . S
C484 H469 0.959 . S
C484 H470 0.961 . S
C484 C483 1.502 . S
C485 H471 0.960 . S
C485 H472 0.961 . S
C485 H473 0.959 . S
C485 C483 1.561 . S
C486 C483 1.526 . S
C486 C487 1.396 . S
C486 C491 1.390 . S
C487 C481 1.465 . S
C487 C486 1.396 . S
C487 C488 1.399 . S
C488 H474 0.929 . S
C488 C487 1.399 . S
C488 C489 1.385 . S
C489 H475 0.931 . S
C489 C488 1.385 . S
C489 C490 1.389 . S
C490 C489 1.389 . S
C490 C491 1.387 . S
C491 H476 0.930 . S
C491 C486 1.390 . S
C491 C490 1.387 . S
H492 C504 0.930 . S
H493 C506 0.930 . S
H494 C507 0.930 . S
H495 C511 0.959 . S
H496 C511 0.959 . S
H497 C511 0.961 . S
H498 C512 0.960 . S
H499 C512 0.961 . S
H500 C512 0.959 . S
H501 C515 0.929 . S
H502 C516 0.931 . S
H503 C518 0.930 . S
C504 H492 0.930 . S
C504 C505 1.399 . S
C504 C509 1.399 . S
C505 C504 1.399 . S
C505 C506 1.376 . S
C506 H493 0.930 . S
C506 C505 1.376 . S
C506 C507 1.388 . S
C507 H494 0.930 . S
C507 C506 1.388 . S
C507 C508 1.390 . S
C508 C507 1.390 . S
C508 C509 1.394 . S
C508 C514 1.465 . S
C509 C504 1.399 . S
C509 C508 1.394 . S
C509 C510 1.516 . S
C510 C509 1.516 . S
C510 C511 1.502 . S
C510 C512 1.561 . S
C510 C513 1.526 . S
C511 H495 0.959 . S
C511 H496 0.959 . S
C511 H497 0.961 . S
C511 C510 1.502 . S
C512 H498 0.960 . S
C512 H499 0.961 . S
C512 H500 0.959 . S
C512 C510 1.561 . S
C513 C510 1.526 . S
C513 C514 1.396 . S
C513 C518 1.390 . S
C514 C508 1.465 . S
C514 C513 1.396 . S
C514 C515 1.399 . S
C515 H501 0.929 . S
C515 C514 1.399 . S
C515 C516 1.385 . S
C516 H502 0.931 . S
C516 C515 1.385 . S
C516 C517 1.389 . S
C517 C516 1.389 . S
C517 C518 1.387 . S
C518 H503 0.930 . S
C518 C513 1.390 . S
C518 C517 1.387 . S
H519 C531 0.930 . S
H520 C533 0.930 . S
H521 C534 0.930 . S
H522 C538 0.959 . S
H523 C538 0.959 . S
H524 C538 0.961 . S
H525 C539 0.960 . S
H526 C539 0.961 . S
H527 C539 0.959 . S
H528 C542 0.929 . S
H529 C543 0.931 . S
H530 C545 0.930 . S
C531 H519 0.930 . S
C531 C532 1.399 . S
C531 C536 1.399 . S
C532 C531 1.399 . S
C532 C533 1.376 . S
C533 H520 0.930 . S
C533 C532 1.376 . S
C533 C534 1.388 . S
C534 H521 0.930 . S
C534 C533 1.388 . S
C534 C535 1.390 . S
C535 C534 1.390 . S
C535 C536 1.394 . S
C535 C541 1.465 . S
C536 C531 1.399 . S
C536 C535 1.394 . S
C536 C537 1.516 . S
C537 C536 1.516 . S
C537 C538 1.502 . S
C537 C539 1.561 . S
C537 C540 1.526 . S
C538 H522 0.959 . S
C538 H523 0.959 . S
C538 H524 0.961 . S
C538 C537 1.502 . S
C539 H525 0.960 . S
C539 H526 0.961 . S
C539 H527 0.959 . S
C539 C537 1.561 . S
C540 C537 1.526 . S
C540 C541 1.396 . S
C540 C545 1.390 . S
C541 C535 1.465 . S
C541 C540 1.396 . S
C541 C542 1.399 . S
C542 H528 0.929 . S
C542 C541 1.399 . S
C542 C543 1.385 . S
C543 H529 0.931 . S
C543 C542 1.385 . S
C543 C544 1.389 . S
C544 C543 1.389 . S
C544 C545 1.387 . S
C545 H530 0.930 . S
C545 C540 1.390 . S
C545 C544 1.387 . S
H546 C558 0.930 . S
H547 C560 0.930 . S
H548 C561 0.930 . S
H549 C565 0.959 . S
H550 C565 0.959 . S
H551 C565 0.961 . S
H552 C566 0.960 . S
H553 C566 0.961 . S
H554 C566 0.959 . S
H555 C569 0.929 . S
H556 C570 0.931 . S
H557 C572 0.930 . S
C558 H546 0.930 . S
C558 C559 1.399 . S
C558 C563 1.399 . S
C559 C558 1.399 . S
C559 C560 1.376 . S
C560 H547 0.930 . S
C560 C559 1.376 . S
C560 C561 1.388 . S
C561 H548 0.930 . S
C561 C560 1.388 . S
C561 C562 1.390 . S
C562 C561 1.390 . S
C562 C563 1.394 . S
C562 C568 1.465 . S
C563 C558 1.399 . S
C563 C562 1.394 . S
C563 C564 1.516 . S
C564 C563 1.516 . S
C564 C565 1.502 . S
C564 C566 1.561 . S
C564 C567 1.526 . S
C565 H549 0.959 . S
C565 H550 0.959 . S
C565 H551 0.961 . S
C565 C564 1.502 . S
C566 H552 0.960 . S
C566 H553 0.961 . S
C566 H554 0.959 . S
C566 C564 1.561 . S
C567 C564 1.526 . S
C567 C568 1.396 . S
C567 C572 1.390 . S
C568 C562 1.465 . S
C568 C567 1.396 . S
C568 C569 1.399 . S
C569 H555 0.929 . S
C569 C568 1.399 . S
C569 C570 1.385 . S
C570 H556 0.931 . S
C570 C569 1.385 . S
C570 C571 1.389 . S
C571 C570 1.389 . S
C571 C572 1.387 . S
C572 H557 0.930 . S
C572 C567 1.390 . S
C572 C571 1.387 . S
H573 C585 0.930 . S
H574 C587 0.930 . S
H575 C588 0.930 . S
H576 C592 0.959 . S
H577 C592 0.959 . S
H578 C592 0.961 . S
H579 C593 0.960 . S
H580 C593 0.961 . S
H581 C593 0.959 . S
H582 C596 0.929 . S
H583 C597 0.931 . S
H584 C599 0.930 . S
C585 H573 0.930 . S
C585 C586 1.399 . S
C585 C590 1.399 . S
C586 C585 1.399 . S
C586 C587 1.376 . S
C587 H574 0.930 . S
C587 C586 1.376 . S
C587 C588 1.388 . S
C588 H575 0.930 . S
C588 C587 1.388 . S
C588 C589 1.390 . S
C589 C588 1.390 . S
C589 C590 1.394 . S
C589 C595 1.465 . S
C590 C585 1.399 . S
C590 C589 1.394 . S
C590 C591 1.516 . S
C591 C590 1.516 . S
C591 C592 1.502 . S
C591 C593 1.561 . S
C591 C594 1.526 . S
C592 H576 0.959 . S
C592 H577 0.959 . S
C592 H578 0.961 . S
C592 C591 1.502 . S
C593 H579 0.960 . S
C593 H580 0.961 . S
C593 H581 0.959 . S
C593 C591 1.561 . S
C594 C591 1.526 . S
C594 C595 1.396 . S
C594 C599 1.390 . S
C595 C589 1.465 . S
C595 C594 1.396 . S
C595 C596 1.399 . S
C596 H582 0.929 . S
C596 C595 1.399 . S
C596 C597 1.385 . S
C597 H583 0.931 . S
C597 C596 1.385 . S
C597 C598 1.389 . S
C598 C597 1.389 . S
C598 C599 1.387 . S
C599 H584 0.930 . S
C599 C594 1.390 . S
C599 C598 1.387 . S
H600 C612 0.930 . S
H601 C614 0.930 . S
H602 C615 0.930 . S
H603 C619 0.959 . S
H604 C619 0.959 . S
H605 C619 0.961 . S
H606 C620 0.960 . S
H607 C620 0.961 . S
H608 C620 0.959 . S
H609 C623 0.929 . S
H610 C624 0.931 . S
H611 C626 0.930 . S
C612 H600 0.930 . S
C612 C613 1.399 . S
C612 C617 1.399 . S
C613 C612 1.399 . S
C613 C614 1.376 . S
C614 H601 0.930 . S
C614 C613 1.376 . S
C614 C615 1.388 . S
C615 H602 0.930 . S
C615 C614 1.388 . S
C615 C616 1.390 . S
C616 C615 1.390 . S
C616 C617 1.394 . S
C616 C622 1.465 . S
C617 C612 1.399 . S
C617 C616 1.394 . S
C617 C618 1.516 . S
C618 C617 1.516 . S
C618 C619 1.502 . S
C618 C620 1.561 . S
C618 C621 1.526 . S
C619 H603 0.959 . S
C619 H604 0.959 . S
C619 H605 0.961 . S
C619 C618 1.502 . S
C620 H606 0.960 . S
C620 H607 0.961 . S
C620 H608 0.959 . S
C620 C618 1.561 . S
C621 C618 1.526 . S
C621 C622 1.396 . S
C621 C626 1.390 . S
C622 C616 1.465 . S
C622 C621 1.396 . S
C622 C623 1.399 . S
C623 H609 0.929 . S
C623 C622 1.399 . S
C623 C624 1.385 . S
C624 H610 0.931 . S
C624 C623 1.385 . S
C624 C625 1.389 . S
C625 C624 1.389 . S
C625 C626 1.387 . S
C626 H611 0.930 . S
C626 C621 1.390 . S
C626 C625 1.387 . S
H627 C639 0.930 . S
H628 C641 0.930 . S
H629 C642 0.930 . S
H630 C646 0.959 . S
H631 C646 0.959 . S
H632 C646 0.961 . S
H633 C647 0.960 1_554 S
H634 C647 0.961 . S
H635 C647 0.959 . S
H636 C650 0.929 . S
H637 C651 0.931 . S
H638 C653 0.930 . S
C639 H627 0.930 . S
C639 C640 1.399 . S
C639 C644 1.399 . S
C640 C639 1.399 . S
C640 C641 1.376 . S
C641 H628 0.930 . S
C641 C640 1.376 . S
C641 C642 1.388 . S
C642 H629 0.930 . S
C642 C641 1.388 . S
C642 C643 1.390 . S
C643 C642 1.390 . S
C643 C644 1.394 . S
C643 C649 1.465 . S
C644 C639 1.399 . S
C644 C643 1.394 . S
C644 C645 1.516 . S
C645 C644 1.516 . S
C645 C646 1.502 . S
C645 C647 1.561 . S
C645 C648 1.526 . S
C646 H630 0.959 . S
C646 H631 0.959 . S
C646 H632 0.961 . S
C646 C645 1.502 . S
C647 H633 0.960 1_556 S
C647 H634 0.961 . S
C647 H635 0.959 . S
C647 C645 1.561 . S
C648 C645 1.526 . S
C648 C649 1.396 . S
C648 C653 1.390 . S
C649 C643 1.465 . S
C649 C648 1.396 . S
C649 C650 1.399 . S
C650 H636 0.929 . S
C650 C649 1.399 . S
C650 C651 1.385 . S
C651 H637 0.931 . S
C651 C650 1.385 . S
C651 C652 1.389 . S
C652 C651 1.389 . S
C652 C653 1.387 . S
C653 H638 0.930 . S
C653 C648 1.390 . S
C653 C652 1.387 . S
H654 C666 0.930 1_554 S
H655 C668 0.930 . S
H656 C669 0.930 . S
H657 C673 0.959 . S
H658 C673 0.959 . S
H659 C673 0.961 . S
H660 C674 0.960 1_554 S
H661 C674 0.961 . S
H662 C674 0.959 . S
H663 C677 0.929 . S
H664 C678 0.931 . S
H665 C680 0.930 . S
C666 H654 0.930 1_556 S
C666 C667 1.399 . S
C666 C671 1.399 . S
C667 C666 1.399 . S
C667 C668 1.376 . S
C668 H655 0.930 . S
C668 C667 1.376 . S
C668 C669 1.388 . S
C669 H656 0.930 . S
C669 C668 1.388 . S
C669 C670 1.390 . S
C670 C669 1.390 . S
C670 C671 1.394 . S
C670 C676 1.465 . S
C671 C666 1.399 . S
C671 C670 1.394 . S
C671 C672 1.516 . S
C672 C671 1.516 . S
C672 C673 1.502 . S
C672 C674 1.561 . S
C672 C675 1.526 . S
C673 H657 0.959 . S
C673 H658 0.959 . S
C673 H659 0.961 . S
C673 C672 1.502 . S
C674 H660 0.960 1_556 S
C674 H661 0.961 . S
C674 H662 0.959 . S
C674 C672 1.561 . S
C675 C672 1.526 . S
C675 C676 1.396 . S
C675 C680 1.390 . S
C676 C670 1.465 . S
C676 C675 1.396 . S
C676 C677 1.399 . S
C677 H663 0.929 . S
C677 C676 1.399 . S
C677 C678 1.385 . S
C678 H664 0.931 . S
C678 C677 1.385 . S
C678 C679 1.389 . S
C679 C678 1.389 . S
C679 C680 1.387 . S
C680 H665 0.930 . S
C680 C675 1.390 . S
C680 C679 1.387 . S
H681 C693 0.929 1_554 S
H682 C695 0.930 . S
H683 C696 0.930 . S
H684 C700 0.959 . S
H685 C700 0.959 . S
H686 C700 0.961 . S
H687 C701 0.960 1_554 S
H688 C701 0.961 . S
H689 C701 0.959 1_554 S
H690 C704 0.929 . S
H691 C705 0.931 . S
H692 C707 0.930 . S
C693 H681 0.929 1_556 S
C693 C694 1.397 1_556 S
C693 C698 1.402 . S
C694 C693 1.397 1_554 S
C694 C695 1.376 . S
C695 H682 0.930 . S
C695 C694 1.376 . S
C695 C696 1.388 1_554 S
C696 H683 0.930 . S
C696 C695 1.388 1_556 S
C696 C697 1.390 . S
C697 C696 1.390 . S
C697 C698 1.394 . S
C697 C703 1.465 . S
C698 C693 1.402 . S
C698 C697 1.394 . S
C698 C699 1.516 . S
C699 C698 1.516 . S
C699 C700 1.502 . S
C699 C701 1.561 . S
C699 C702 1.526 . S
C700 H684 0.959 . S
C700 H685 0.959 . S
C700 H686 0.961 . S
C700 C699 1.502 . S
C701 H687 0.960 1_556 S
C701 H688 0.961 . S
C701 H689 0.959 1_556 S
C701 C699 1.561 . S
C702 C699 1.526 . S
C702 C703 1.396 . S
C702 C707 1.390 . S
C703 C697 1.465 . S
C703 C702 1.396 . S
C703 C704 1.399 . S
C704 H690 0.929 . S
C704 C703 1.399 . S
C704 C705 1.385 . S
C705 H691 0.931 . S
C705 C704 1.385 . S
C705 C706 1.389 . S
C706 C705 1.389 . S
C706 C707 1.387 . S
C707 H692 0.930 . S
C707 C702 1.390 . S
C707 C706 1.387 . S
H708 C720 0.930 1_554 S
H709 C722 0.930 . S
H710 C723 0.930 . S
H711 C727 0.964 . S
H712 C727 0.959 . S
H713 C727 0.961 . S
H714 C728 0.960 1_554 S
H715 C728 0.960 1_554 S
H716 C728 0.959 . S
H717 C731 0.929 . S
H718 C732 0.931 . S
H719 C734 0.930 . S
C720 H708 0.930 1_556 S
C720 C721 1.399 . S
C720 C725 1.399 . S
C721 C720 1.399 . S
C721 C722 1.376 . S
C722 H709 0.930 . S
C722 C721 1.376 . S
C722 C723 1.388 . S
C723 H710 0.930 . S
C723 C722 1.388 . S
C723 C724 1.390 . S
C724 C723 1.390 . S
C724 C725 1.394 . S
C724 C730 1.465 . S
C725 C720 1.399 . S
C725 C724 1.394 . S
C725 C726 1.516 . S
C726 C725 1.516 . S
C726 C727 1.502 1_556 S
C726 C728 1.561 . S
C726 C729 1.526 . S
C727 H711 0.964 . S
C727 H712 0.959 . S
C727 H713 0.961 . S
C727 C726 1.502 1_554 S
C728 H714 0.960 1_556 S
C728 H715 0.960 1_556 S
C728 H716 0.959 . S
C728 C726 1.561 . S
C729 C726 1.526 . S
C729 C730 1.396 . S
C729 C734 1.390 . S
C730 C724 1.465 . S
C730 C729 1.396 . S
C730 C731 1.399 . S
C731 H717 0.929 . S
C731 C730 1.399 . S
C731 C732 1.385 . S
C732 H718 0.931 . S
C732 C731 1.385 . S
C732 C733 1.389 . S
C733 C732 1.389 . S
C733 C734 1.387 . S
C734 H719 0.930 . S
C734 C729 1.390 . S
C734 C733 1.387 . S
H735 C747 0.930 . S
H736 C749 0.930 . S
H737 C750 0.930 . S
H738 C754 0.959 . S
H739 C754 0.959 . S
H740 C754 0.961 . S
H741 C755 0.960 . S
H742 C755 0.961 . S
H743 C755 0.959 . S
H744 C758 0.929 . S
H745 C759 0.931 . S
H746 C761 0.930 . S
C747 H735 0.930 . S
C747 C748 1.399 . S
C747 C752 1.399 . S
C748 C747 1.399 . S
C748 C749 1.376 . S
C749 H736 0.930 . S
C749 C748 1.376 . S
C749 C750 1.388 . S
C750 H737 0.930 . S
C750 C749 1.388 . S
C750 C751 1.390 . S
C751 C750 1.390 . S
C751 C752 1.394 . S
C751 C757 1.465 . S
C752 C747 1.399 . S
C752 C751 1.394 . S
C752 C753 1.516 . S
C753 C752 1.516 . S
C753 C754 1.502 . S
C753 C755 1.561 . S
C753 C756 1.526 . S
C754 H738 0.959 . S
C754 H739 0.959 . S
C754 H740 0.961 . S
C754 C753 1.502 . S
C755 H741 0.960 . S
C755 H742 0.961 . S
C755 H743 0.959 . S
C755 C753 1.561 . S
C756 C753 1.526 . S
C756 C757 1.396 . S
C756 C761 1.390 . S
C757 C751 1.465 . S
C757 C756 1.396 . S
C757 C758 1.399 . S
C758 H744 0.929 . S
C758 C757 1.399 . S
C758 C759 1.385 . S
C759 H745 0.931 . S
C759 C758 1.385 . S
C759 C760 1.389 . S
C760 C759 1.389 . S
C760 C761 1.387 . S
C761 H746 0.930 . S
C761 C756 1.390 . S
C761 C760 1.387 . S
H762 C774 0.930 . S
H763 C776 0.930 . S
H764 C777 0.930 . S
H765 C781 0.959 . S
H766 C781 0.959 . S
H767 C781 0.961 . S
H768 C782 0.960 . S
H769 C782 0.961 . S
H770 C782 0.959 . S
H771 C785 0.929 . S
H772 C786 0.931 . S
H773 C788 0.930 . S
C774 H762 0.930 . S
C774 C775 1.399 . S
C774 C779 1.399 . S
C775 C774 1.399 . S
C775 C776 1.376 . S
C776 H763 0.930 . S
C776 C775 1.376 . S
C776 C777 1.388 . S
C777 H764 0.930 . S
C777 C776 1.388 . S
C777 C778 1.390 . S
C778 C777 1.390 . S
C778 C779 1.394 . S
C778 C784 1.465 . S
C779 C774 1.399 . S
C779 C778 1.394 . S
C779 C780 1.516 . S
C780 C779 1.516 . S
C780 C781 1.502 . S
C780 C782 1.561 . S
C780 C783 1.526 . S
C781 H765 0.959 . S
C781 H766 0.959 . S
C781 H767 0.961 . S
C781 C780 1.502 . S
C782 H768 0.960 . S
C782 H769 0.961 . S
C782 H770 0.959 . S
C782 C780 1.561 . S
C783 C780 1.526 . S
C783 C784 1.396 . S
C783 C788 1.390 . S
C784 C778 1.465 . S
C784 C783 1.396 . S
C784 C785 1.399 . S
C785 H771 0.929 . S
C785 C784 1.399 . S
C785 C786 1.385 . S
C786 H772 0.931 . S
C786 C785 1.385 . S
C786 C787 1.389 . S
C787 C786 1.389 . S
C787 C788 1.387 . S
C788 H773 0.930 . S
C788 C783 1.390 . S
C788 C787 1.387 . S
H789 C801 0.930 . S
H790 C803 0.930 . S
H791 C804 0.930 . S
H792 C808 0.959 . S
H793 C808 0.959 . S
H794 C808 0.961 . S
H795 C809 0.960 . S
H796 C809 0.961 . S
H797 C809 0.959 . S
H798 C812 0.929 . S
H799 C813 0.931 . S
H800 C815 0.930 . S
C801 H789 0.930 . S
C801 C802 1.399 1_556 S
C801 C806 1.399 . S
C802 C801 1.399 1_554 S
C802 C803 1.376 . S
C803 H790 0.930 . S
C803 C802 1.376 . S
C803 C804 1.388 . S
C804 H791 0.930 . S
C804 C803 1.388 . S
C804 C805 1.390 1_554 S
C805 C804 1.390 1_556 S
C805 C806 1.394 . S
C805 C811 1.465 . S
C806 C801 1.399 . S
C806 C805 1.394 . S
C806 C807 1.516 . S
C807 C806 1.516 . S
C807 C808 1.502 . S
C807 C809 1.561 . S
C807 C810 1.526 . S
C808 H792 0.959 . S
C808 H793 0.959 . S
C808 H794 0.961 . S
C808 C807 1.502 . S
C809 H795 0.960 . S
C809 H796 0.961 . S
C809 H797 0.959 . S
C809 C807 1.561 . S
C810 C807 1.526 . S
C810 C811 1.396 . S
C810 C815 1.390 . S
C811 C805 1.465 . S
C811 C810 1.396 . S
C811 C812 1.399 . S
C812 H798 0.929 . S
C812 C811 1.399 . S
C812 C813 1.385 . S
C813 H799 0.931 . S
C813 C812 1.385 . S
C813 C814 1.389 . S
C814 C813 1.389 . S
C814 C815 1.387 . S
C815 H800 0.930 . S
C815 C810 1.390 . S
C815 C814 1.387 . S
H816 C828 0.930 . S
H817 C830 0.930 . S
H818 C831 0.930 . S
H819 C835 0.959 . S
H820 C835 0.959 . S
H821 C835 0.961 . S
H822 C836 0.960 . S
H823 C836 0.961 . S
H824 C836 0.959 . S
H825 C839 0.929 . S
H826 C840 0.931 . S
H827 C842 0.930 . S
C828 H816 0.930 . S
C828 C829 1.399 . S
C828 C833 1.399 . S
C829 C828 1.399 . S
C829 C830 1.376 . S
C830 H817 0.930 . S
C830 C829 1.376 . S
C830 C831 1.388 1_554 S
C831 H818 0.930 . S
C831 C830 1.388 1_556 S
C831 C832 1.390 . S
C832 C831 1.390 . S
C832 C833 1.394 1_556 S
C832 C838 1.465 . S
C833 C828 1.399 . S
C833 C832 1.394 1_554 S
C833 C834 1.516 1_554 S
C834 C833 1.516 1_556 S
C834 C835 1.502 1_556 S
C834 C836 1.561 . S
C834 C837 1.526 . S
C835 H819 0.959 . S
C835 H820 0.959 . S
C835 H821 0.961 . S
C835 C834 1.502 1_554 S
C836 H822 0.960 . S
C836 H823 0.961 . S
C836 H824 0.959 . S
C836 C834 1.561 . S
C837 C834 1.526 . S
C837 C838 1.396 . S
C837 C842 1.390 . S
C838 C832 1.465 . S
C838 C837 1.396 . S
C838 C839 1.399 . S
C839 H825 0.929 . S
C839 C838 1.399 . S
C839 C840 1.385 . S
C840 H826 0.931 . S
C840 C839 1.385 . S
C840 C841 1.389 . S
C841 C840 1.389 . S
C841 C842 1.387 . S
C842 H827 0.930 . S
C842 C837 1.390 . S
C842 C841 1.387 . S
H843 C855 0.930 . S
H844 C857 0.930 . S
H845 C858 0.930 . S
H846 C862 0.959 . S
H847 C862 0.959 . S
H848 C862 0.961 . S
H849 C863 0.960 . S
H850 C863 0.961 . S
H851 C863 0.959 . S
H852 C866 0.929 . S
H853 C867 0.931 . S
H854 C869 0.930 . S
C855 H843 0.930 . S
C855 C856 1.399 . S
C855 C860 1.399 . S
C856 C855 1.399 . S
C856 C857 1.376 . S
C857 H844 0.930 . S
C857 C856 1.376 . S
C857 C858 1.388 . S
C858 H845 0.930 . S
C858 C857 1.388 . S
C858 C859 1.390 . S
C859 C858 1.390 . S
C859 C860 1.394 . S
C859 C865 1.465 . S
C860 C855 1.399 . S
C860 C859 1.394 . S
C860 C861 1.516 . S
C861 C860 1.516 . S
C861 C862 1.502 . S
C861 C863 1.561 . S
C861 C864 1.526 . S
C862 H846 0.959 . S
C862 H847 0.959 . S
C862 H848 0.961 . S
C862 C861 1.502 . S
C863 H849 0.960 . S
C863 H850 0.961 . S
C863 H851 0.959 . S
C863 C861 1.561 . S
C864 C861 1.526 . S
C864 C865 1.396 . S
C864 C869 1.390 . S
C865 C859 1.465 . S
C865 C864 1.396 . S
C865 C866 1.399 . S
C866 H852 0.929 . S
C866 C865 1.399 . S
C866 C867 1.385 . S
C867 H853 0.931 . S
C867 C866 1.385 . S
C867 C868 1.389 . S
C868 C867 1.389 . S
C868 C869 1.387 . S
C869 H854 0.930 . S
C869 C864 1.390 . S
C869 C868 1.387 . S
H870 C882 0.930 . S
H871 C884 0.930 . S
H872 C885 0.930 . S
H873 C889 0.959 . S
H874 C889 0.959 . S
H875 C889 0.961 . S
H876 C890 0.960 . S
H877 C890 0.961 . S
H878 C890 0.959 . S
H879 C893 0.929 . S
H880 C894 0.931 . S
H881 C896 0.930 . S
C882 H870 0.930 . S
C882 C883 1.399 . S
C882 C887 1.399 . S
C883 C882 1.399 . S
C883 C884 1.376 . S
C884 H871 0.930 . S
C884 C883 1.376 . S
C884 C885 1.388 . S
C885 H872 0.930 . S
C885 C884 1.388 . S
C885 C886 1.390 . S
C886 C885 1.390 . S
C886 C887 1.394 . S
C886 C892 1.465 . S
C887 C882 1.399 . S
C887 C886 1.394 . S
C887 C888 1.516 . S
C888 C887 1.516 . S
C888 C889 1.502 . S
C888 C890 1.561 . S
C888 C891 1.526 . S
C889 H873 0.959 . S
C889 H874 0.959 . S
C889 H875 0.961 . S
C889 C888 1.502 . S
C890 H876 0.960 . S
C890 H877 0.961 . S
C890 H878 0.959 . S
C890 C888 1.561 . S
C891 C888 1.526 . S
C891 C892 1.396 . S
C891 C896 1.390 . S
C892 C886 1.465 . S
C892 C891 1.396 . S
C892 C893 1.399 . S
C893 H879 0.929 . S
C893 C892 1.399 . S
C893 C894 1.385 . S
C894 H880 0.931 . S
C894 C893 1.385 . S
C894 C895 1.389 . S
C895 C894 1.389 . S
C895 C896 1.387 . S
C896 H881 0.930 . S
C896 C891 1.390 . S
C896 C895 1.387 . S
H897 C909 0.930 . S
H898 C911 0.930 . S
H899 C912 0.930 . S
H900 C916 0.959 . S
H901 C916 0.959 . S
H902 C916 0.961 . S
H903 C917 0.960 . S
H904 C917 0.961 . S
H905 C917 0.959 . S
H906 C920 0.929 . S
H907 C921 0.931 . S
H908 C923 0.930 . S
C909 H897 0.930 . S
C909 C910 1.399 . S
C909 C914 1.399 . S
C910 C909 1.399 . S
C910 C911 1.376 . S
C911 H898 0.930 . S
C911 C910 1.376 . S
C911 C912 1.388 . S
C912 H899 0.930 . S
C912 C911 1.388 . S
C912 C913 1.390 . S
C913 C912 1.390 . S
C913 C914 1.394 . S
C913 C919 1.465 . S
C914 C909 1.399 . S
C914 C913 1.394 . S
C914 C915 1.516 . S
C915 C914 1.516 . S
C915 C916 1.502 . S
C915 C917 1.561 . S
C915 C918 1.526 . S
C916 H900 0.959 . S
C916 H901 0.959 . S
C916 H902 0.961 . S
C916 C915 1.502 . S
C917 H903 0.960 . S
C917 H904 0.961 . S
C917 H905 0.959 . S
C917 C915 1.561 . S
C918 C915 1.526 . S
C918 C919 1.396 . S
C918 C923 1.390 . S
C919 C913 1.465 . S
C919 C918 1.396 . S
C919 C920 1.399 . S
C920 H906 0.929 . S
C920 C919 1.399 . S
C920 C921 1.385 . S
C921 H907 0.931 . S
C921 C920 1.385 . S
C921 C922 1.389 . S
C922 C921 1.389 . S
C922 C923 1.387 . S
C923 H908 0.930 . S
C923 C918 1.390 . S
C923 C922 1.387 . S
H924 C936 0.930 . S
H925 C938 0.930 . S
H926 C939 0.930 . S
H927 C943 0.959 . S
H928 C943 0.959 . S
H929 C943 0.961 . S
H930 C944 0.960 . S
H931 C944 0.961 . S
H932 C944 0.959 . S
H933 C947 0.929 . S
H934 C948 0.931 . S
H935 C950 0.930 . S
C936 H924 0.930 . S
C936 C937 1.399 . S
C936 C941 1.399 . S
C937 C936 1.399 . S
C937 C938 1.376 . S
C938 H925 0.930 . S
C938 C937 1.376 . S
C938 C939 1.388 . S
C939 H926 0.930 . S
C939 C938 1.388 . S
C939 C940 1.390 . S
C940 C939 1.390 . S
C940 C941 1.394 . S
C940 C946 1.465 . S
C941 C936 1.399 . S
C941 C940 1.394 . S
C941 C942 1.516 . S
C942 C941 1.516 . S
C942 C943 1.502 . S
C942 C944 1.561 . S
C942 C945 1.526 . S
C943 H927 0.959 . S
C943 H928 0.959 . S
C943 H929 0.961 . S
C943 C942 1.502 . S
C944 H930 0.960 . S
C944 H931 0.961 . S
C944 H932 0.959 . S
C944 C942 1.561 . S
C945 C942 1.526 . S
C945 C946 1.396 . S
C945 C950 1.390 . S
C946 C940 1.465 . S
C946 C945 1.396 . S
C946 C947 1.399 . S
C947 H933 0.929 . S
C947 C946 1.399 . S
C947 C948 1.385 . S
C948 H934 0.931 . S
C948 C947 1.385 . S
C948 C949 1.389 . S
C949 C948 1.389 . S
C949 C950 1.387 . S
C950 H935 0.930 . S
C950 C945 1.390 . S
C950 C949 1.387 . S
H951 C963 0.930 . S
H952 C965 0.930 . S
H953 C966 0.930 . S
H954 C970 0.959 . S
H955 C970 0.959 . S
H956 C970 0.961 . S
H957 C971 0.960 . S
H958 C971 0.961 . S
H959 C971 0.959 . S
H960 C974 0.929 . S
H961 C975 0.931 . S
H962 C977 0.930 . S
C963 H951 0.930 . S
C963 C964 1.399 . S
C963 C968 1.399 . S
C964 C963 1.399 . S
C964 C965 1.376 . S
C965 H952 0.930 . S
C965 C964 1.376 . S
C965 C966 1.388 . S
C966 H953 0.930 . S
C966 C965 1.388 . S
C966 C967 1.390 . S
C967 C966 1.390 . S
C967 C968 1.394 . S
C967 C973 1.465 . S
C968 C963 1.399 . S
C968 C967 1.394 . S
C968 C969 1.516 . S
C969 C968 1.516 . S
C969 C970 1.502 . S
C969 C971 1.561 . S
C969 C972 1.526 . S
C970 H954 0.959 . S
C970 H955 0.959 . S
C970 H956 0.961 . S
C970 C969 1.502 . S
C971 H957 0.960 . S
C971 H958 0.961 . S
C971 H959 0.959 . S
C971 C969 1.561 . S
C972 C969 1.526 . S
C972 C973 1.396 . S
C972 C977 1.390 . S
C973 C967 1.465 . S
C973 C972 1.396 . S
C973 C974 1.399 . S
C974 H960 0.929 . S
C974 C973 1.399 . S
C974 C975 1.385 . S
C975 H961 0.931 . S
C975 C974 1.385 . S
C975 C976 1.389 . S
C976 C975 1.389 . S
C976 C977 1.387 . S
C977 H962 0.930 . S
C977 C972 1.390 . S
C977 C976 1.387 . S
H978 C990 0.930 . S
H979 C992 0.930 . S
H980 C993 0.930 . S
H981 C997 0.959 . S
H982 C997 0.959 . S
H983 C997 0.961 . S
H984 C998 0.960 . S
H985 C998 0.961 . S
H986 C998 0.959 . S
H987 C1001 0.929 . S
H988 C1002 0.931 . S
H989 C1004 0.930 . S
C990 H978 0.930 . S
C990 C991 1.399 . S
C990 C995 1.399 . S
C991 C990 1.399 . S
C991 C992 1.376 . S
C992 H979 0.930 . S
C992 C991 1.376 . S
C992 C993 1.388 . S
C993 H980 0.930 . S
C993 C992 1.388 . S
C993 C994 1.390 . S
C994 C993 1.390 . S
C994 C995 1.394 . S
C994 C1000 1.465 . S
C995 C990 1.399 . S
C995 C994 1.394 . S
C995 C996 1.516 . S
C996 C995 1.516 . S
C996 C997 1.502 . S
C996 C998 1.561 . S
C996 C999 1.526 . S
C997 H981 0.959 . S
C997 H982 0.959 . S
C997 H983 0.961 . S
C997 C996 1.502 . S
C998 H984 0.960 . S
C998 H985 0.961 . S
C998 H986 0.959 . S
C998 C996 1.561 . S
C999 C996 1.526 . S
C999 C1000 1.396 . S
C999 C1004 1.390 . S
C1000 C994 1.465 . S
C1000 C999 1.396 . S
C1000 C1001 1.399 . S
C1001 H987 0.929 . S
C1001 C1000 1.399 . S
C1001 C1002 1.385 . S
C1002 H988 0.931 . S
C1002 C1001 1.385 . S
C1002 C1003 1.389 . S
C1003 C1002 1.389 . S
C1003 C1004 1.387 . S
C1004 H989 0.930 . S
C1004 C999 1.390 . S
C1004 C1003 1.387 . S
H1005 C1017 0.930 . S
H1006 C1019 0.930 . S
H1007 C1020 0.930 . S
H1008 C1024 0.959 . S
H1009 C1024 0.959 . S
H1010 C1024 0.961 . S
H1011 C1025 0.960 . S
H1012 C1025 0.961 . S
H1013 C1025 0.959 . S
H1014 C1028 0.929 . S
H1015 C1029 0.931 . S
H1016 C1031 0.930 . S
C1017 H1005 0.930 . S
C1017 C1018 1.399 . S
C1017 C1022 1.399 . S
C1018 C1017 1.399 . S
C1018 C1019 1.376 . S
C1019 H1006 0.930 . S
C1019 C1018 1.376 . S
C1019 C1020 1.388 . S
C1020 H1007 0.930 . S
C1020 C1019 1.388 . S
C1020 C1021 1.390 . S
C1021 C1020 1.390 . S
C1021 C1022 1.394 . S
C1021 C1027 1.465 . S
C1022 C1017 1.399 . S
C1022 C1021 1.394 . S
C1022 C1023 1.516 . S
C1023 C1022 1.516 . S
C1023 C1024 1.502 . S
C1023 C1025 1.561 . S
C1023 C1026 1.526 . S
C1024 H1008 0.959 . S
C1024 H1009 0.959 . S
C1024 H1010 0.961 . S
C1024 C1023 1.502 . S
C1025 H1011 0.960 . S
C1025 H1012 0.961 . S
C1025 H1013 0.959 . S
C1025 C1023 1.561 . S
C1026 C1023 1.526 . S
C1026 C1027 1.396 . S
C1026 C1031 1.390 . S
C1027 C1021 1.465 . S
C1027 C1026 1.396 . S
C1027 C1028 1.399 . S
C1028 H1014 0.929 . S
C1028 C1027 1.399 . S
C1028 C1029 1.385 . S
C1029 H1015 0.931 . S
C1029 C1028 1.385 . S
C1029 C1030 1.389 . S
C1030 C1029 1.389 . S
C1030 C1031 1.387 . S
C1031 H1016 0.930 . S
C1031 C1026 1.390 . S
C1031 C1030 1.387 . S
H1032 C1044 0.930 . S
H1033 C1046 0.930 . S
H1034 C1047 0.930 . S
H1035 C1051 0.959 . S
H1036 C1051 0.959 . S
H1037 C1051 0.961 . S
H1038 C1052 0.960 . S
H1039 C1052 0.961 . S
H1040 C1052 0.959 . S
H1041 C1055 0.929 . S
H1042 C1056 0.931 . S
H1043 C1058 0.930 . S
C1044 H1032 0.930 . S
C1044 C1045 1.399 . S
C1044 C1049 1.399 . S
C1045 C1044 1.399 . S
C1045 C1046 1.376 . S
C1046 H1033 0.930 . S
C1046 C1045 1.376 . S
C1046 C1047 1.388 . S
C1047 H1034 0.930 . S
C1047 C1046 1.388 . S
C1047 C1048 1.390 . S
C1048 C1047 1.390 . S
C1048 C1049 1.394 . S
C1048 C1054 1.465 . S
C1049 C1044 1.399 . S
C1049 C1048 1.394 . S
C1049 C1050 1.516 . S
C1050 C1049 1.516 . S
C1050 C1051 1.502 . S
C1050 C1052 1.561 . S
C1050 C1053 1.526 . S
C1051 H1035 0.959 . S
C1051 H1036 0.959 . S
C1051 H1037 0.961 . S
C1051 C1050 1.502 . S
C1052 H1038 0.960 . S
C1052 H1039 0.961 . S
C1052 H1040 0.959 . S
C1052 C1050 1.561 . S
C1053 C1050 1.526 . S
C1053 C1054 1.396 . S
C1053 C1058 1.390 . S
C1054 C1048 1.465 . S
C1054 C1053 1.396 . S
C1054 C1055 1.399 . S
C1055 H1041 0.929 . S
C1055 C1054 1.399 . S
C1055 C1056 1.385 . S
C1056 H1042 0.931 . S
C1056 C1055 1.385 . S
C1056 C1057 1.389 . S
C1057 C1056 1.389 . S
C1057 C1058 1.387 . S
C1058 H1043 0.930 . S
C1058 C1053 1.390 . S
C1058 C1057 1.387 . S
C424 C22 1.759 . S
C436 C318 1.727 . S
C451 C92 1.778 . S
C463 C350 1.750 . S
C490 C409 2.032 . S
C478 C144 2.053 . S
C517 C338 1.584 . S
C505 C197 1.580 . S
C532 C250 1.887 . S
C544 C368 1.752 . S
C571 C390 1.282 . S
C559 C287 1.310 . S
C598 C359 1.789 . S
C586 C145 1.818 . S
C613 C198 1.436 . S
C625 C399 1.368 . S
C652 C348 1.797 . S
C640 C251 1.838 . S
C667 C294 1.531 1_556 S
C679 C378 1.469 . S
C694 C29 1.828 . S
C706 C381 1.747 . S
C733 C320 1.840 . S
C721 C91 1.861 1_556 S
C760 C328 1.500 . S
C748 C188 1.500 . S
C787 C369 1.281 . S
C775 C241 1.318 . S
C814 C382 1.835 . S
C802 C304 1.913 . S
C841 C319 1.418 . S
C829 C39 1.444 . S
C868 C379 1.361 . S
C856 C75 1.340 . S
C883 C135 1.113 . S
C895 C380 1.156 . S
C922 C349 1.540 . S
C910 C303 1.629 . S
C949 C410 1.143 . S
C937 C38 1.199 . S
C976 C337 1.278 . S
C964 C82 1.408 . S
C1003 C351 1.377 . S
C991 C128 1.386 . S
C1018 C181 1.673 . S
C1030 C400 1.609 . S
C1045 C234 1.405 . S
C1057 C347 1.382 . S
