# Generated by pormake.
# Topology tsx, (6,3)-cn, num edge types: 1
# Building blocks:
#     Node 0, Type 0, BuildingBlock: FUNLAD_clean_sbu_0, # of connection points: 6
#     Node 1, Type 0, BuildingBlock: FUNLAD_clean_sbu_0, # of connection points: 6
#     Node 2, Type 1, BuildingBlock: OLANEW_clean_sbu_2, # of connection points: 3
#     Node 3, Type 1, BuildingBlock: OLANEW_clean_sbu_2, # of connection points: 3
#     Node 4, Type 1, BuildingBlock: OLANEW_clean_sbu_2, # of connection points: 3
#     Node 5, Type 1, BuildingBlock: OLANEW_clean_sbu_2, # of connection points: 3
#     Edge 6, Type (0, 1), BuildingBlock: XIVTED_clean_linker_0, # of connection points: 2
#     Edge 7, Type (0, 1), BuildingBlock: XIVTED_clean_linker_0, # of connection points: 2
#     Edge 8, Type (0, 1), BuildingBlock: XIVTED_clean_linker_0, # of connection points: 2
#     Edge 9, Type (0, 1), BuildingBlock: XIVTED_clean_linker_0, # of connection points: 2
#     Edge 10, Type (0, 1), BuildingBlock: XIVTED_clean_linker_0, # of connection points: 2
#     Edge 11, Type (0, 1), BuildingBlock: XIVTED_clean_linker_0, # of connection points: 2
#     Edge 12, Type (0, 1), BuildingBlock: XIVTED_clean_linker_0, # of connection points: 2
#     Edge 13, Type (0, 1), BuildingBlock: XIVTED_clean_linker_0, # of connection points: 2
#     Edge 14, Type (0, 1), BuildingBlock: XIVTED_clean_linker_0, # of connection points: 2
#     Edge 15, Type (0, 1), BuildingBlock: XIVTED_clean_linker_0, # of connection points: 2
#     Edge 16, Type (0, 1), BuildingBlock: XIVTED_clean_linker_0, # of connection points: 2
#     Edge 17, Type (0, 1), BuildingBlock: XIVTED_clean_linker_0, # of connection points: 2
# Relax obj value: 0.080
# Max RMSD: 0.101
# Mean RMSD: 0.089
data_MOF--net-tsx--node1-FUNLAD_clean_sbu_0--node2-OLANEW_clean_sbu_2--edge1-XIVTED_clean_linker_0
_symmetry_space_group_name_H-M    P1
_symmetry_Int_Tables_number       1
_symmetry_cell_setting            triclinic
loop_
_symmetry_equiv_pos_as_xyz
'x, y, z'
_cell_length_a     21.129008
_cell_length_b     23.116632
_cell_length_c     41.003689
_cell_angle_alpha  95.908048
_cell_angle_beta   91.970469
_cell_angle_gamma 89.658003
loop_
_atom_site_label
_atom_site_type_symbol
_atom_site_fract_x
_atom_site_fract_y
_atom_site_fract_z
_atom_type_partial_charge
C0 C 0.93871 0.92649 0.9848 0.0
N1 N 0.01365 0.0213 0.06981 0.0
C2 C 0.95883 0.00867 0.08399 0.0
C3 C 0.95765 0.00548 0.11781 0.0
C4 C 0.01327 0.0161 0.13733 0.0
C5 C 0.06878 0.03015 0.12196 0.0
C6 C 0.06804 0.03198 0.08809 0.0
Zn7 Zn 0.01705 0.02182 0.02013 0.0
C8 C 0.12171 0.94889 -0.00761 0.0
N9 N 0.02624 0.02149 0.91625 0.0
C10 C 0.97685 0.00665 0.89489 0.0
C11 C 0.08422 0.03402 0.90532 0.0
C12 C 0.09436 0.032 0.87186 0.0
C13 C 0.04481 0.01568 0.84933 0.0
C14 C 0.98534 0.00291 0.86104 0.0
Zn15 Zn 0.01849 0.02188 0.96586 0.0
O16 O 0.95757 0.94851 0.01308 0.0
C17 C 0.91311 0.09372 -0.00748 0.0
O18 O 0.95689 0.94828 0.95946 0.0
H19 H 0.12335 0.04445 0.92254 0.0
H20 H 0.91612 0.00025 0.069 0.0
H21 H 0.9312 0.99676 0.90407 0.0
O22 O 0.93614 0.07846 0.01948 0.0
O23 O 0.93899 0.0762 0.96575 0.0
H24 H 0.11126 0.04159 0.07636 0.0
O25 O 0.07883 0.0963 0.97336 0.0
O26 O 0.07665 0.09506 0.02662 0.0
O27 O 0.09787 0.96665 0.96639 0.0
O28 O 0.0973 0.96516 0.01973 0.0
C29 C 0.09602 0.11796 0.00199 0.0
H30 H 0.91387 0.99372 0.12836 0.0
H31 H 0.11253 0.03993 0.1359 0.0
H32 H 0.1411 0.04125 0.86367 0.0
H33 H 0.94605 0.99017 0.84422 0.0
C34 C 0.41704 0.43028 0.48426 0.0
N35 N 0.50098 0.52753 0.56635 0.0
C36 C 0.44504 0.52471 0.58158 0.0
C37 C 0.44437 0.5221 0.61548 0.0
C38 C 0.50181 0.52254 0.63386 0.0
C39 C 0.55865 0.52704 0.61755 0.0
C40 C 0.55715 0.5294 0.58369 0.0
Zn41 Zn 0.50323 0.52333 0.51633 0.0
C42 C 0.60198 0.43725 0.49096 0.0
N43 N 0.5126 0.50963 0.41197 0.0
C44 C 0.45851 0.50958 0.39298 0.0
C45 C 0.57051 0.51219 0.39864 0.0
C46 C 0.57558 0.51667 0.36516 0.0
C47 C 0.52053 0.51887 0.34516 0.0
C48 C 0.4614 0.51428 0.35937 0.0
Zn49 Zn 0.50797 0.51338 0.46187 0.0
O50 O 0.43355 0.45753 0.51172 0.0
C51 C 0.40978 0.59994 0.48697 0.0
O52 O 0.44178 0.4436 0.45819 0.0
H53 H 0.61294 0.51267 0.41418 0.0
H54 H 0.40093 0.52328 0.56733 0.0
H55 H 0.41297 0.50748 0.40407 0.0
O56 O 0.43147 0.58797 0.51482 0.0
O57 O 0.43243 0.57426 0.46101 0.0
H58 H 0.60113 0.53119 0.57111 0.0
O59 O 0.57472 0.58251 0.4664 0.0
O60 O 0.57229 0.58924 0.52007 0.0
O61 O 0.58296 0.45322 0.46356 0.0
O62 O 0.57584 0.45845 0.51701 0.0
C63 C 0.59428 0.60612 0.49423 0.0
H64 H 0.39941 0.51942 0.62713 0.0
H65 H 0.60405 0.52677 0.63062 0.0
H66 H 0.62208 0.52066 0.35531 0.0
H67 H 0.41781 0.51497 0.34473 0.0
O68 O 0.97055 0.00027 0.39671 0.0
Cd69 Cd 0.98142 0.9867 0.45465 0.0
O70 O 0.06573 0.03838 0.39832 0.0
Cd71 Cd 0.05207 0.07186 0.44936 0.0
O72 O 0.99337 0.14416 0.46947 0.0
C73 C 0.94876 0.14023 0.48915 0.0
O74 O 0.93927 0.09058 0.50117 0.0
C75 C 0.01809 0.0164 0.38183 0.0
C76 C 0.07461 0.90214 0.46139 0.0
O77 O 0.01696 0.88804 0.45395 0.0
O78 O 0.08828 0.95633 0.46601 0.0
O79 O 0.09995 0.99739 0.59252 0.0
Cd80 Cd 0.08858 0.99221 0.53282 0.0
O81 O 0.13212 0.90717 0.59484 0.0
Cd82 Cd 0.10715 0.884 0.54344 0.0
O83 O 0.02184 0.84518 0.51975 0.0
C84 C 0.97092 0.86314 0.53298 0.0
O85 O 0.97425 0.90399 0.55775 0.0
C86 C 0.11962 0.95706 0.60919 0.0
C87 C 0.14711 0.08821 0.51098 0.0
O88 O 0.09031 0.09138 0.521 0.0
O89 O 0.17607 0.03931 0.51076 0.0
O90 O 0.46132 0.4462 0.88615 0.0
Cd91 Cd 0.45268 0.43584 0.9446 0.0
O92 O 0.53876 0.50959 0.89421 0.0
Cd93 Cd 0.51539 0.52895 0.94547 0.0
O94 O 0.45437 0.59727 0.96765 0.0
C95 C 0.45272 0.64189 0.95195 0.0
O96 O 0.48787 0.64228 0.92614 0.0
C97 C 0.50341 0.47679 0.87468 0.0
C98 C 0.54441 0.35782 0.96396 0.0
O99 O 0.49097 0.34001 0.95112 0.0
O100 O 0.55439 0.41276 0.96816 0.0
O101 O 0.49357 0.59781 0.09279 0.0
Cd102 Cd 0.48092 0.6013 0.0336 0.0
O103 O 0.56384 0.5273 0.08684 0.0
Cd104 Cd 0.53243 0.50484 0.03596 0.0
O105 O 0.45417 0.44937 0.01622 0.0
C106 C 0.41783 0.4366 0.03847 0.0
O107 O 0.42981 0.45911 0.06879 0.0
C108 C 0.53394 0.56478 0.10536 0.0
C109 C 0.58091 0.66205 0.01047 0.0
O110 O 0.52855 0.68769 0.01773 0.0
O111 O 0.58589 0.60774 0.01392 0.0
H112 H 0.13374 0.1792 0.0598 0.0
H113 H 0.37789 0.38076 0.9788 0.0
H114 H 0.1569 0.17163 0.95523 0.0
H115 H 0.33933 0.39535 0.08202 0.0
H116 H 0.29598 0.30582 0.96893 0.0
H117 H 0.20797 0.25997 0.06779 0.0
C118 C 0.1543 0.19465 0.03847 0.0
C119 C 0.13919 0.16846 0.00679 0.0
C120 C 0.30531 0.3257 -0.0063 0.0
C121 C 0.22471 0.26111 0.0158 0.0
C122 C 0.35213 0.36841 -0.00066 0.0
C123 C 0.3659 0.39407 0.03131 0.0
C124 C 0.27226 0.3085 0.02024 0.0
C125 C 0.33062 0.37668 0.05698 0.0
C126 C 0.19671 0.24091 0.04305 0.0
C127 C 0.16724 0.19053 0.98009 0.0
N128 N 0.28578 0.33484 0.0509 0.0
N129 N 0.20894 0.23543 0.98521 0.0
H130 H 0.16731 0.8786 0.0382 0.0
H131 H 0.43497 0.73928 0.92061 0.0
H132 H 0.19965 0.92666 0.94117 0.0
H133 H 0.37338 0.65764 0.00411 0.0
H134 H 0.35986 0.81785 0.93325 0.0
H135 H 0.25317 0.80659 0.0312 0.0
C136 C 0.19281 0.8744 0.0156 0.0
C137 C 0.17609 0.90836 -0.00986 0.0
C138 C 0.36281 0.7829 0.94892 0.0
C139 C 0.274 0.82667 0.9821 0.0
C140 C 0.40585 0.73796 0.94175 0.0
C141 C 0.41002 0.69141 0.96112 0.0
C142 C 0.32358 0.78166 0.97577 0.0
C143 C 0.37129 0.69245 0.98835 0.0
C144 C 0.24152 0.83322 0.01159 0.0
C145 C 0.21054 0.90111 0.96135 0.0
N146 N 0.32939 0.73681 -0.00517 0.0
N147 N 0.2577 0.86111 0.95813 0.0
H148 H 0.93326 0.83822 0.02344 0.0
H149 H 0.57839 0.76389 0.98181 0.0
H150 H 0.83848 0.90743 0.94105 0.0
H151 H 0.70639 0.63485 0.01551 0.0
H152 H 0.66992 0.82178 0.96931 0.0
H153 H 0.84831 0.76679 0.024 0.0
C154 C 0.8949 0.83773 0.00519 0.0
C155 C 0.89268 0.87851 0.98214 0.0
C156 C 0.67777 0.7804 0.97903 0.0
C157 C 0.7948 0.7983 0.98323 0.0
C158 C 0.62574 0.74761 0.98635 0.0
C159 C 0.63501 0.69482 -4e-05 0.0
C160 C 0.73922 0.76088 0.9862 0.0
C161 C 0.69723 0.67538 0.0051 0.0
C162 C 0.84662 0.797 0.00547 0.0
C163 C 0.84195 0.87632 0.95905 0.0
N164 N 0.74704 0.70892 -0.00123 0.0
N165 N 0.79416 0.83753 0.96057 0.0
H166 H 0.87118 0.17562 0.04035 0.0
H167 H 0.55295 0.2431 0.94125 0.0
H168 H 0.82502 0.09515 0.94285 0.0
H169 H 0.64931 0.37739 0.00487 0.0
H170 H 0.64011 0.17625 0.95109 0.0
H171 H 0.77751 0.23892 0.03651 0.0
C172 C 0.84108 0.17101 0.01831 0.0
C173 C 0.85591 0.13053 -0.00823 0.0
C174 C 0.64184 0.22026 0.96305 0.0
C175 C 0.749 0.2014 0.98755 0.0
C176 C 0.59209 0.25833 0.95759 0.0
C177 C 0.59424 0.316 0.97205 0.0
C178 C 0.69354 0.23961 0.98359 0.0
C179 C 0.64618 0.3334 -0.007 0.0
C180 C 0.78804 0.20714 0.01612 0.0
C181 C 0.81558 0.12623 0.96373 0.0
N182 N 0.69392 0.29528 -0.0018 0.0
N183 N 0.76379 0.16101 0.96242 0.0
H184 H 0.6747 0.63178 0.44677 0.0
H185 H 0.85935 0.87648 0.56448 0.0
H186 H 0.62759 0.68211 0.54737 0.0
H187 H 0.94396 0.78302 0.4802 0.0
H188 H 0.76255 0.82018 0.55235 0.0
H189 H 0.76256 0.70132 0.45307 0.0
C190 C 0.68241 0.65789 0.47005 0.0
C191 C 0.64414 0.65093 0.49669 0.0
C192 C 0.80215 0.81232 0.53638 0.0
C193 C 0.74391 0.73047 0.50389 0.0
C194 C 0.85737 0.84458 0.54318 0.0
C195 C 0.91008 0.83392 0.52353 0.0
C196 C 0.79934 0.76943 0.50956 0.0
C197 C 0.90462 0.79217 0.49618 0.0
C198 C 0.73261 0.69732 0.47363 0.0
C199 C 0.65626 0.68575 0.52629 0.0
N200 N 0.85023 0.76117 0.49007 0.0
N201 N 0.70514 0.72398 0.5291 0.0
H202 H 0.68738 0.40671 0.44386 0.0
H203 H 0.85072 0.15171 0.53187 0.0
H204 H 0.63758 0.37299 0.54135 0.0
H205 H 0.94046 0.23824 0.45731 0.0
H206 H 0.76786 0.22684 0.53459 0.0
H207 H 0.77517 0.33808 0.44633 0.0
C208 C 0.69482 0.38473 0.46578 0.0
C209 C 0.65501 0.39547 0.49241 0.0
C210 C 0.80614 0.22951 0.51792 0.0
C211 C 0.75545 0.31661 0.49534 0.0
C212 C 0.8534 0.18672 0.51634 0.0
C213 C 0.90244 0.18842 0.49418 0.0
C214 C 0.8075 0.2736 0.49681 0.0
C215 C 0.90357 0.23492 0.4747 0.0
C216 C 0.74521 0.34583 0.46725 0.0
C217 C 0.66722 0.36599 0.52028 0.0
N218 N 0.85644 0.27516 0.47619 0.0
N219 N 0.71613 0.32745 0.52093 0.0
H220 H 0.40495 0.33456 0.43912 0.0
H221 H 0.1136 0.20203 0.52533 0.0
H222 H 0.32435 0.41728 0.52739 0.0
H223 H 0.25438 0.09291 0.47564 0.0
H224 H 0.17392 0.28792 0.51478 0.0
H225 H 0.3332 0.2517 0.44131 0.0
C226 C 0.3716 0.3356 0.45866 0.0
C227 C 0.37075 0.3825 0.48325 0.0
C228 C 0.19117 0.24513 0.50596 0.0
C229 C 0.28856 0.28888 0.48557 0.0
C230 C 0.15676 0.19615 0.51184 0.0
C231 C 0.17949 0.14027 0.50168 0.0
C232 C 0.24803 0.2382 0.48926 0.0
C233 C 0.23562 0.13523 0.48422 0.0
C234 C 0.33105 0.28835 0.45996 0.0
C235 C 0.32687 0.38168 0.50812 0.0
N236 N 0.2681 0.18364 0.47857 0.0
N237 N 0.28741 0.33565 0.50861 0.0
H238 H 0.38257 0.69302 0.53117 0.0
H239 H 0.06936 0.78701 0.43833 0.0
H240 H 0.32251 0.60682 0.43694 0.0
H241 H 0.19102 0.91451 0.4928 0.0
H242 H 0.15069 0.71265 0.44497 0.0
H243 H 0.30068 0.76751 0.52507 0.0
C244 C 0.35185 0.68957 0.50935 0.0
C245 C 0.35927 0.64387 0.48448 0.0
C246 C 0.15943 0.75697 0.4554 0.0
C247 C 0.26555 0.72801 0.47764 0.0
C248 C 0.11313 0.79935 0.4517 0.0
C249 C 0.12362 0.85705 0.46493 0.0
C250 C 0.21591 0.77212 0.47312 0.0
C251 C 0.18124 0.87062 0.48202 0.0
C252 C 0.30557 0.73215 0.50582 0.0
C253 C 0.31852 0.64155 0.4566 0.0
N254 N 0.22507 0.82831 0.48592 0.0
N255 N 0.27301 0.6828 0.45404 0.0
H256 H 0.10938 0.97771 0.17677 0.0
H257 H 0.91453 0.0042 0.34004 0.0
H258 H 0.9183 0.04536 0.18048 0.0
H259 H 0.11823 0.01876 0.34136 0.0
H260 H 0.91253 0.00122 0.28018 0.0
H261 H 0.11075 0.97556 0.23613 0.0
C262 C 0.0678 0.99249 0.18994 0.0
C263 C 0.01381 0.01236 0.17338 0.0
C264 C 0.95759 0.00494 0.29363 0.0
C265 C 0.01476 0.00817 0.24135 0.0
C266 C 0.95886 0.00635 0.32772 0.0
C267 C 0.01667 0.01195 0.34566 0.0
C268 C 0.01458 0.00812 0.27736 0.0
C269 C 0.07264 0.01478 0.32846 0.0
C270 C 0.06861 0.99083 0.22384 0.0
C271 C 0.96076 0.02908 0.19193 0.0
N272 N 0.07025 0.01259 0.29519 0.0
N273 N 0.96254 0.02651 0.22491 0.0
H274 H 0.09771 0.09511 0.81363 0.0
H275 H 0.12256 0.87422 0.65216 0.0
H276 H 0.0205 0.92174 0.80494 0.0
H277 H 0.11585 0.06021 0.64855 0.0
H278 H 0.1068 0.88921 0.7112 0.0
H279 H 0.12329 0.08141 0.75536 0.0
C280 C 0.08601 0.05429 0.79934 0.0
C281 C 0.05665 0.00956 0.81385 0.0
C282 C 0.10926 0.92668 0.69747 0.0
C283 C 0.08685 0.99325 0.74784 0.0
C284 C 0.11884 0.91826 0.66385 0.0
C285 C 0.12007 0.96607 0.64538 0.0
C286 C 0.10179 0.98329 0.71279 0.0
C287 C 0.11473 0.02213 0.66184 0.0
C288 C 0.10057 0.04653 0.76625 0.0
C289 C 0.04247 0.95745 0.79447 0.0
N290 N 0.1057 0.02924 0.69467 0.0
N291 N 0.05815 0.95052 0.76245 0.0
H292 H 0.57752 0.57917 0.68263 0.0
H293 H 0.43332 0.41464 0.82573 0.0
H294 H 0.42922 0.45074 0.66646 0.0
H295 H 0.58221 0.5426 0.8418 0.0
H296 H 0.43395 0.42451 0.76702 0.0
H297 H 0.58173 0.5646 0.74082 0.0
C298 C 0.54592 0.5478 0.69129 0.0
C299 C 0.50293 0.51614 0.66957 0.0
C300 C 0.46671 0.45023 0.78336 0.0
C301 C 0.50733 0.49939 0.73629 0.0
C302 C 0.46654 0.44447 0.81691 0.0
C303 C 0.50759 0.47803 0.8388 0.0
C304 C 0.50814 0.48993 0.77156 0.0
C305 C 0.54961 0.51592 0.82589 0.0
C306 C 0.54824 0.53961 0.72456 0.0
C307 C 0.46251 0.47669 0.68233 0.0
N308 N 0.54856 0.52104 0.79316 0.0
N309 N 0.46578 0.46939 0.71481 0.0
H310 H 0.44747 0.59055 0.31019 0.0
H311 H 0.61542 0.50025 0.14057 0.0
H312 H 0.60396 0.46988 0.3003 0.0
H313 H 0.46722 0.62939 0.15239 0.0
H314 H 0.61584 0.4921 0.19948 0.0
H315 H 0.45602 0.60709 0.25266 0.0
C316 C 0.48336 0.56719 0.29584 0.0
C317 C 0.52479 0.52846 0.31005 0.0
C318 C 0.5836 0.52258 0.18924 0.0
C319 C 0.53545 0.54782 0.24418 0.0
C320 C 0.58345 0.52741 0.15559 0.0
C321 C 0.54085 0.56525 0.14143 0.0
C322 C 0.54059 0.55557 0.20889 0.0
C323 C 0.5007 0.59946 0.16217 0.0
C324 C 0.48861 0.57707 0.26306 0.0
C325 C 0.57127 0.50037 0.29043 0.0
N326 N 0.50117 0.59341 0.19478 0.0
N327 N 0.57516 0.51041 0.25847 0.0
loop_
_geom_bond_atom_site_label_1
_geom_bond_atom_site_label_2
_geom_bond_distance
_geom_bond_site_symmetry_2
_ccdc_geom_bond_type
C0 O16 1.251 . S
C0 O18 1.254 1_554 S
N1 C2 1.333 1_455 S
N1 C6 1.307 . S
N1 Zn7 2.020 . S
C2 N1 1.333 1_655 S
C2 C3 1.379 . S
C2 H20 0.952 1_545 S
C3 C2 1.379 . S
C3 C4 1.390 1_655 S
C3 H30 0.949 . S
C4 C3 1.390 1_455 S
C4 C5 1.357 . S
C5 C4 1.357 . S
C5 C6 1.370 . S
C5 H31 0.950 . S
C6 N1 1.307 . S
C6 C5 1.370 . S
C6 H24 0.948 . S
Zn7 N1 2.020 . S
Zn7 O16 2.039 1_445 S
Zn7 O22 2.034 1_455 S
Zn7 O26 2.025 . S
Zn7 O28 2.024 1_545 S
C8 O27 1.246 1_554 S
C8 O28 1.249 . S
N9 C10 1.307 1_445 S
N9 C11 1.333 . S
N9 Zn15 2.020 . S
C10 N9 1.307 1_665 S
C10 C14 1.370 . S
C10 H21 0.948 . S
C11 N9 1.333 . S
C11 C12 1.379 . S
C11 H19 0.952 . S
C12 C11 1.379 . S
C12 C13 1.390 . S
C12 H32 0.949 . S
C13 C12 1.390 . S
C13 C14 1.357 1_445 S
C14 C10 1.370 . S
C14 C13 1.357 1_665 S
C14 H33 0.950 . S
Zn15 N9 2.020 . S
Zn15 O18 2.025 1_445 S
Zn15 O23 2.024 1_455 S
Zn15 O25 2.039 . S
Zn15 O27 2.034 1_545 S
O16 C0 1.251 . S
O16 Zn7 2.039 1_665 S
C17 O22 1.246 . S
C17 O23 1.249 1_554 S
O18 C0 1.254 1_556 S
O18 Zn15 2.025 1_665 S
H19 C11 0.952 . S
H20 C2 0.952 1_565 S
H21 C10 0.948 . S
O22 Zn7 2.034 1_655 S
O22 C17 1.246 . S
O23 Zn15 2.024 1_655 S
O23 C17 1.249 1_556 S
H24 C6 0.948 . S
O25 Zn15 2.039 . S
O25 C29 1.251 1_556 S
O26 Zn7 2.025 . S
O26 C29 1.254 . S
O27 C8 1.246 1_556 S
O27 Zn15 2.034 1_565 S
O28 Zn7 2.024 1_565 S
O28 C8 1.249 . S
C29 O25 1.251 1_554 S
C29 O26 1.254 . S
H30 C3 0.949 . S
H31 C5 0.950 . S
H32 C12 0.949 . S
H33 C14 0.950 . S
C34 O50 1.251 . S
C34 O52 1.254 . S
N35 C36 1.333 . S
N35 C40 1.307 . S
N35 Zn41 2.020 . S
C36 N35 1.333 . S
C36 C37 1.379 . S
C36 H54 0.952 . S
C37 C36 1.379 . S
C37 C38 1.390 . S
C37 H64 0.949 . S
C38 C37 1.390 . S
C38 C39 1.357 . S
C39 C38 1.357 . S
C39 C40 1.370 . S
C39 H65 0.950 . S
C40 N35 1.307 . S
C40 C39 1.370 . S
C40 H58 0.948 . S
Zn41 N35 2.020 . S
Zn41 O50 2.039 . S
Zn41 O56 2.034 . S
Zn41 O60 2.025 . S
Zn41 O62 2.024 . S
C42 O61 1.246 . S
C42 O62 1.249 . S
N43 C44 1.307 . S
N43 C45 1.333 . S
N43 Zn49 2.020 . S
C44 N43 1.307 . S
C44 C48 1.370 . S
C44 H55 0.948 . S
C45 N43 1.333 . S
C45 C46 1.379 . S
C45 H53 0.952 . S
C46 C45 1.379 . S
C46 C47 1.390 . S
C46 H66 0.949 . S
C47 C46 1.390 . S
C47 C48 1.357 . S
C48 C44 1.370 . S
C48 C47 1.357 . S
C48 H67 0.950 . S
Zn49 N43 2.020 . S
Zn49 O52 2.025 . S
Zn49 O57 2.024 . S
Zn49 O59 2.039 . S
Zn49 O61 2.034 . S
O50 C34 1.251 . S
O50 Zn41 2.039 . S
C51 O56 1.246 . S
C51 O57 1.249 . S
O52 C34 1.254 . S
O52 Zn49 2.025 . S
H53 C45 0.952 . S
H54 C36 0.952 . S
H55 C44 0.948 . S
O56 Zn41 2.034 . S
O56 C51 1.246 . S
O57 Zn49 2.024 . S
O57 C51 1.249 . S
H58 C40 0.948 . S
O59 Zn49 2.039 . S
O59 C63 1.251 . S
O60 Zn41 2.025 . S
O60 C63 1.254 . S
O61 C42 1.246 . S
O61 Zn49 2.034 . S
O62 Zn41 2.024 . S
O62 C42 1.249 . S
C63 O59 1.251 . S
C63 O60 1.254 . S
H64 C37 0.949 . S
H65 C39 0.950 . S
H66 C46 0.949 . S
H67 C48 0.950 . S
O68 Cd69 2.300 1_565 S
O68 C75 1.275 1_565 S
Cd69 O68 2.300 1_545 S
Cd69 O77 2.381 1_545 S
Cd69 O78 2.378 1_545 S
O70 Cd71 2.385 . S
O70 C75 1.255 . S
Cd71 O70 2.385 . S
Cd71 O72 2.317 1_455 S
O72 Cd71 2.317 1_655 S
O72 C73 1.232 . S
C73 O72 1.232 . S
C73 O74 1.218 . S
O74 C73 1.218 . S
C75 O68 1.275 1_545 S
C75 O70 1.255 . S
C76 O77 1.258 . S
C76 O78 1.256 . S
O77 Cd69 2.381 1_565 S
O77 C76 1.258 . S
O78 Cd69 2.378 1_565 S
O78 C76 1.256 . S
O79 Cd80 2.300 . S
O79 C86 1.275 1_545 S
Cd80 O79 2.300 . S
Cd80 O88 2.381 . S
Cd80 O89 2.378 . S
O81 Cd82 2.385 . S
O81 C86 1.255 . S
Cd82 O81 2.385 . S
Cd82 O83 2.317 1_455 S
O83 Cd82 2.317 1_655 S
O83 C84 1.232 . S
C84 O83 1.232 . S
C84 O85 1.218 . S
O85 C84 1.218 . S
C86 O79 1.275 1_565 S
C86 O81 1.255 . S
C87 O88 1.258 . S
C87 O89 1.256 . S
O88 Cd80 2.381 . S
O88 C87 1.258 . S
O89 Cd80 2.378 . S
O89 C87 1.256 . S
O90 Cd91 2.300 . S
O90 C97 1.275 . S
Cd91 O90 2.300 . S
Cd91 O99 2.381 . S
Cd91 O100 2.378 1_556 S
O92 Cd93 2.385 . S
O92 C97 1.255 . S
Cd93 O92 2.385 . S
Cd93 O94 2.317 . S
O94 Cd93 2.317 . S
O94 C95 1.232 . S
C95 O94 1.232 . S
C95 O96 1.218 . S
O96 C95 1.218 . S
C97 O90 1.275 . S
C97 O92 1.255 . S
C98 O99 1.258 . S
C98 O100 1.256 1_556 S
O99 Cd91 2.381 . S
O99 C98 1.258 . S
O100 Cd91 2.378 1_554 S
O100 C98 1.256 1_554 S
O101 Cd102 2.300 . S
O101 C108 1.275 . S
Cd102 O101 2.300 . S
Cd102 O110 2.381 . S
Cd102 O111 2.378 . S
O103 Cd104 2.385 . S
O103 C108 1.255 . S
Cd104 O103 2.385 . S
Cd104 O105 2.317 . S
O105 Cd104 2.317 . S
O105 C106 1.232 . S
C106 O105 1.232 . S
C106 O107 1.218 . S
O107 C106 1.218 . S
C108 O101 1.275 . S
C108 O103 1.255 . S
C109 O110 1.258 . S
C109 O111 1.256 . S
O110 Cd102 2.381 . S
O110 C109 1.258 . S
O111 Cd102 2.378 . S
O111 C109 1.256 . S
H112 C118 0.930 . S
H113 C122 0.930 . S
H114 C127 0.929 . S
H115 C125 0.929 . S
H116 C120 0.929 . S
H117 C126 0.929 . S
C118 H112 0.930 . S
C118 C119 1.367 . S
C118 C126 1.378 . S
C119 C118 1.367 . S
C119 C127 1.433 1_554 S
C120 H116 0.929 . S
C120 C122 1.378 . S
C120 C124 1.350 1_556 S
C121 C124 1.463 . S
C121 C126 1.350 . S
C121 N129 1.427 1_554 S
C122 H113 0.930 . S
C122 C120 1.378 . S
C122 C123 1.367 1_556 S
C123 C122 1.367 1_554 S
C123 C125 1.433 . S
C124 C120 1.350 1_554 S
C124 C121 1.463 . S
C124 N128 1.427 . S
C125 H115 0.929 . S
C125 C123 1.433 . S
C125 N128 1.384 . S
C126 H117 0.929 . S
C126 C118 1.378 . S
C126 C121 1.350 . S
C127 H114 0.929 . S
C127 C119 1.433 1_556 S
C127 N129 1.384 . S
N128 C124 1.427 . S
N128 C125 1.384 . S
N129 C121 1.427 1_556 S
N129 C127 1.384 . S
H130 C136 0.930 . S
H131 C140 0.930 . S
H132 C145 0.929 . S
H133 C143 0.929 . S
H134 C138 0.929 . S
H135 C144 0.929 . S
C136 H130 0.930 . S
C136 C137 1.347 1_554 S
C136 C144 1.378 . S
C137 C136 1.347 1_556 S
C137 C145 1.454 . S
C138 H134 0.929 . S
C138 C140 1.378 . S
C138 C142 1.350 . S
C139 C142 1.463 . S
C139 C144 1.350 1_556 S
C139 N147 1.427 . S
C140 H131 0.930 . S
C140 C138 1.378 . S
C140 C141 1.367 . S
C141 C140 1.367 . S
C141 C143 1.433 1_556 S
C142 C138 1.350 . S
C142 C139 1.463 . S
C142 N146 1.427 1_556 S
C143 H133 0.929 . S
C143 C141 1.433 1_554 S
C143 N146 1.384 . S
C144 H135 0.929 . S
C144 C136 1.378 . S
C144 C139 1.350 1_554 S
C145 H132 0.929 . S
C145 C137 1.454 . S
C145 N147 1.384 . S
N146 C142 1.427 1_554 S
N146 C143 1.384 . S
N147 C139 1.427 . S
N147 C145 1.384 . S
H148 C154 0.930 . S
H149 C158 0.930 . S
H150 C163 0.929 . S
H151 C161 0.929 . S
H152 C156 0.929 . S
H153 C162 0.929 . S
C154 H148 0.930 . S
C154 C155 1.367 . S
C154 C162 1.378 . S
C155 C154 1.367 . S
C155 C163 1.433 1_554 S
C156 H152 0.929 . S
C156 C158 1.378 . S
C156 C160 1.350 1_556 S
C157 C160 1.463 . S
C157 C162 1.350 . S
C157 N165 1.427 1_554 S
C158 H149 0.930 . S
C158 C156 1.378 . S
C158 C159 1.367 1_556 S
C159 C158 1.367 1_554 S
C159 C161 1.433 . S
C160 C156 1.350 1_554 S
C160 C157 1.463 . S
C160 N164 1.427 . S
C161 H151 0.929 . S
C161 C159 1.433 . S
C161 N164 1.384 . S
C162 H153 0.929 . S
C162 C154 1.378 . S
C162 C157 1.350 . S
C163 H150 0.929 . S
C163 C155 1.433 1_556 S
C163 N165 1.384 . S
N164 C160 1.427 . S
N164 C161 1.384 . S
N165 C157 1.427 1_556 S
N165 C163 1.384 . S
H166 C172 0.930 . S
H167 C176 0.930 . S
H168 C181 0.929 . S
H169 C179 0.929 . S
H170 C174 0.929 . S
H171 C180 0.929 . S
C172 H166 0.930 . S
C172 C173 1.367 . S
C172 C180 1.378 . S
C173 C172 1.367 . S
C173 C181 1.433 1_554 S
C174 H170 0.929 . S
C174 C176 1.378 . S
C174 C178 1.350 1_556 S
C175 C178 1.463 . S
C175 C180 1.350 . S
C175 N183 1.427 1_554 S
C176 H167 0.930 . S
C176 C174 1.378 . S
C176 C177 1.368 1_556 S
C177 C176 1.368 1_554 S
C177 C179 1.432 . S
C178 C174 1.350 1_554 S
C178 C175 1.463 . S
C178 N182 1.427 . S
C179 H169 0.929 . S
C179 C177 1.432 . S
C179 N182 1.384 . S
C180 H171 0.929 . S
C180 C172 1.378 . S
C180 C175 1.350 . S
C181 H168 0.929 . S
C181 C173 1.433 1_556 S
C181 N183 1.384 . S
N182 C178 1.427 . S
N182 C179 1.384 . S
N183 C175 1.427 1_556 S
N183 C181 1.384 . S
H184 C190 0.930 . S
H185 C194 0.930 . S
H186 C199 0.929 . S
H187 C197 0.929 . S
H188 C192 0.929 . S
H189 C198 0.929 . S
C190 H184 0.930 . S
C190 C191 1.367 . S
C190 C198 1.378 . S
C191 C190 1.367 . S
C191 C199 1.433 . S
C192 H188 0.929 . S
C192 C194 1.378 . S
C192 C196 1.350 . S
C193 C196 1.463 . S
C193 C198 1.350 . S
C193 N201 1.427 . S
C194 H185 0.930 . S
C194 C192 1.378 . S
C194 C195 1.367 . S
C195 C194 1.367 . S
C195 C197 1.433 . S
C196 C192 1.350 . S
C196 C193 1.463 . S
C196 N200 1.427 . S
C197 H187 0.929 . S
C197 C195 1.433 . S
C197 N200 1.384 . S
C198 H189 0.929 . S
C198 C190 1.378 . S
C198 C193 1.350 . S
C199 H186 0.929 . S
C199 C191 1.433 . S
C199 N201 1.384 . S
N200 C196 1.427 . S
N200 C197 1.384 . S
N201 C193 1.427 . S
N201 C199 1.384 . S
H202 C208 0.930 . S
H203 C212 0.930 . S
H204 C217 0.929 . S
H205 C215 0.929 . S
H206 C210 0.929 . S
H207 C216 0.929 . S
C208 H202 0.930 . S
C208 C209 1.367 . S
C208 C216 1.378 . S
C209 C208 1.367 . S
C209 C217 1.433 . S
C210 H206 0.929 . S
C210 C212 1.378 . S
C210 C214 1.350 . S
C211 C214 1.463 . S
C211 C216 1.350 . S
C211 N219 1.427 . S
C212 H203 0.930 . S
C212 C210 1.378 . S
C212 C213 1.367 . S
C213 C212 1.367 . S
C213 C215 1.433 . S
C214 C210 1.350 . S
C214 C211 1.463 . S
C214 N218 1.427 . S
C215 H205 0.929 . S
C215 C213 1.433 . S
C215 N218 1.384 . S
C216 H207 0.929 . S
C216 C208 1.378 . S
C216 C211 1.350 . S
C217 H204 0.929 . S
C217 C209 1.433 . S
C217 N219 1.384 . S
N218 C214 1.427 . S
N218 C215 1.384 . S
N219 C211 1.427 . S
N219 C217 1.384 . S
H220 C226 0.930 . S
H221 C230 0.930 . S
H222 C235 0.929 . S
H223 C233 0.929 . S
H224 C228 0.929 . S
H225 C234 0.929 . S
C226 H220 0.930 . S
C226 C227 1.367 . S
C226 C234 1.378 . S
C227 C226 1.367 . S
C227 C235 1.433 . S
C228 H224 0.929 . S
C228 C230 1.378 . S
C228 C232 1.350 . S
C229 C232 1.463 . S
C229 C234 1.350 . S
C229 N237 1.427 . S
C230 H221 0.930 . S
C230 C228 1.378 . S
C230 C231 1.367 . S
C231 C230 1.367 . S
C231 C233 1.433 . S
C232 C228 1.350 . S
C232 C229 1.463 . S
C232 N236 1.427 . S
C233 H223 0.929 . S
C233 C231 1.433 . S
C233 N236 1.384 . S
C234 H225 0.929 . S
C234 C226 1.378 . S
C234 C229 1.350 . S
C235 H222 0.929 . S
C235 C227 1.433 . S
C235 N237 1.384 . S
N236 C232 1.427 . S
N236 C233 1.384 . S
N237 C229 1.427 . S
N237 C235 1.384 . S
H238 C244 0.930 . S
H239 C248 0.930 . S
H240 C253 0.929 . S
H241 C251 0.929 . S
H242 C246 0.929 . S
H243 C252 0.929 . S
C244 H238 0.930 . S
C244 C245 1.367 . S
C244 C252 1.378 . S
C245 C244 1.367 . S
C245 C253 1.433 . S
C246 H242 0.929 . S
C246 C248 1.378 . S
C246 C250 1.350 . S
C247 C250 1.463 . S
C247 C252 1.350 . S
C247 N255 1.427 . S
C248 H239 0.930 . S
C248 C246 1.378 . S
C248 C249 1.367 . S
C249 C248 1.367 . S
C249 C251 1.433 . S
C250 C246 1.350 . S
C250 C247 1.463 . S
C250 N254 1.427 . S
C251 H241 0.929 . S
C251 C249 1.433 . S
C251 N254 1.384 . S
C252 H243 0.929 . S
C252 C244 1.378 . S
C252 C247 1.350 . S
C253 H240 0.929 . S
C253 C245 1.433 . S
C253 N255 1.384 . S
N254 C250 1.427 . S
N254 C251 1.384 . S
N255 C247 1.427 . S
N255 C253 1.384 . S
H256 C262 0.930 . S
H257 C266 0.930 . S
H258 C271 0.929 . S
H259 C269 0.929 . S
H260 C264 0.929 . S
H261 C270 0.929 . S
C262 H256 0.930 . S
C262 C263 1.367 1_565 S
C262 C270 1.378 . S
C263 C262 1.367 1_545 S
C263 C271 1.433 1_455 S
C264 H260 0.929 . S
C264 C266 1.378 . S
C264 C268 1.350 1_655 S
C265 C268 1.463 . S
C265 C270 1.350 1_545 S
C265 N273 1.427 1_455 S
C266 H257 0.930 . S
C266 C264 1.378 . S
C266 C267 1.367 1_655 S
C267 C266 1.367 1_455 S
C267 C269 1.433 1_545 S
C268 C264 1.350 1_455 S
C268 C265 1.463 . S
C268 N272 1.427 1_545 S
C269 H259 0.929 . S
C269 C267 1.433 1_565 S
C269 N272 1.384 . S
C270 H261 0.929 . S
C270 C262 1.378 . S
C270 C265 1.350 1_565 S
C271 H258 0.929 . S
C271 C263 1.433 1_655 S
C271 N273 1.384 . S
N272 C268 1.427 1_565 S
N272 C269 1.384 . S
N273 C265 1.427 1_655 S
N273 C271 1.384 . S
H274 C280 0.930 . S
H275 C284 0.930 . S
H276 C289 0.929 . S
H277 C287 0.929 . S
H278 C282 0.929 . S
H279 C288 0.929 . S
C280 H274 0.930 . S
C280 C281 1.367 . S
C280 C288 1.378 . S
C281 C280 1.367 . S
C281 C289 1.433 1_445 S
C282 H278 0.929 . S
C282 C284 1.378 . S
C282 C286 1.350 1_655 S
C283 C286 1.463 1_545 S
C283 C288 1.354 . S
C283 N291 1.422 1_445 S
C284 H275 0.930 . S
C284 C282 1.378 . S
C284 C285 1.367 1_655 S
C285 C284 1.367 1_455 S
C285 C287 1.433 1_565 S
C286 C282 1.350 1_455 S
C286 C283 1.463 1_565 S
C286 N290 1.427 1_565 S
C287 H277 0.929 . S
C287 C285 1.433 1_545 S
C287 N290 1.384 . S
C288 H279 0.929 . S
C288 C280 1.378 . S
C288 C283 1.354 . S
C289 H276 0.929 . S
C289 C281 1.433 1_665 S
C289 N291 1.384 . S
N290 C286 1.427 1_545 S
N290 C287 1.384 . S
N291 C283 1.422 1_665 S
N291 C289 1.384 . S
H292 C298 0.930 . S
H293 C302 0.930 . S
H294 C307 0.929 . S
H295 C305 0.929 . S
H296 C300 0.929 . S
H297 C306 0.929 . S
C298 H292 0.930 . S
C298 C299 1.367 . S
C298 C306 1.378 . S
C299 C298 1.367 . S
C299 C307 1.433 . S
C300 H296 0.929 . S
C300 C302 1.378 . S
C300 C304 1.350 . S
C301 C304 1.463 . S
C301 C306 1.350 . S
C301 N309 1.427 . S
C302 H293 0.930 . S
C302 C300 1.378 . S
C302 C303 1.367 . S
C303 C302 1.367 . S
C303 C305 1.433 . S
C304 C300 1.350 . S
C304 C301 1.463 . S
C304 N308 1.427 . S
C305 H295 0.929 . S
C305 C303 1.433 . S
C305 N308 1.384 . S
C306 H297 0.929 . S
C306 C298 1.378 . S
C306 C301 1.350 . S
C307 H294 0.929 . S
C307 C299 1.433 . S
C307 N309 1.384 . S
N308 C304 1.427 . S
N308 C305 1.384 . S
N309 C301 1.427 . S
N309 C307 1.384 . S
H310 C316 0.930 . S
H311 C320 0.930 . S
H312 C325 0.929 . S
H313 C323 0.929 . S
H314 C318 0.929 . S
H315 C324 0.929 . S
C316 H310 0.930 . S
C316 C317 1.367 . S
C316 C324 1.378 . S
C317 C316 1.367 . S
C317 C325 1.433 . S
C318 H314 0.929 . S
C318 C320 1.378 . S
C318 C322 1.350 . S
C319 C322 1.463 . S
C319 C324 1.350 . S
C319 N327 1.427 . S
C320 H311 0.930 . S
C320 C318 1.378 . S
C320 C321 1.367 . S
C321 C320 1.367 . S
C321 C323 1.433 . S
C322 C318 1.350 . S
C322 C319 1.463 . S
C322 N326 1.427 . S
C323 H313 0.929 . S
C323 C321 1.433 . S
C323 N326 1.384 . S
C324 H315 0.929 . S
C324 C316 1.378 . S
C324 C319 1.350 . S
C325 H312 0.929 . S
C325 C317 1.433 . S
C325 N327 1.384 . S
N326 C322 1.427 . S
N326 C323 1.384 . S
N327 C319 1.427 . S
N327 C325 1.384 . S
C123 C106 1.278 . S
C119 C29 1.487 . S
C137 C8 1.489 1_556 S
C141 C95 1.261 . S
C155 C0 1.446 . S
C159 C109 1.420 . S
C173 C17 1.440 . S
C177 C98 1.402 1_554 S
C191 C63 1.488 . S
C195 C84 1.260 . S
C209 C42 1.488 . S
C213 C73 1.277 . S
C231 C87 1.412 . S
C227 C34 1.447 . S
C249 C76 1.399 . S
C245 C51 1.440 . S
C263 C4 1.510 . S
C267 C75 1.462 . S
C281 C13 1.502 . S
C285 C86 1.458 . S
C303 C97 1.451 . S
C299 C38 1.511 . S
C317 C47 1.502 . S
C321 C108 1.458 . S
