# Generated by pormake.
# Topology pth, (4,4)-cn, num edge types: 1
# Building blocks:
#     Node 0, Type 0, BuildingBlock: UXUYUI_clean_sbu_0, # of connection points: 4
#     Node 1, Type 0, BuildingBlock: UXUYUI_clean_sbu_0, # of connection points: 4
#     Node 2, Type 0, BuildingBlock: UXUYUI_clean_sbu_0, # of connection points: 4
#     Node 3, Type 1, BuildingBlock: MUDLON_clean_sbu_0, # of connection points: 4
#     Node 4, Type 1, BuildingBlock: MUDLON_clean_sbu_0, # of connection points: 4
#     Node 5, Type 1, BuildingBlock: MUDLON_clean_sbu_0, # of connection points: 4
#     Edge 6, Type (0, 1), BuildingBlock: XUDNAN_clean_linker_2, # of connection points: 2
#     Edge 7, Type (0, 1), BuildingBlock: XUDNAN_clean_linker_2, # of connection points: 2
#     Edge 8, Type (0, 1), BuildingBlock: XUDNAN_clean_linker_2, # of connection points: 2
#     Edge 9, Type (0, 1), BuildingBlock: XUDNAN_clean_linker_2, # of connection points: 2
#     Edge 10, Type (0, 1), BuildingBlock: XUDNAN_clean_linker_2, # of connection points: 2
#     Edge 11, Type (0, 1), BuildingBlock: XUDNAN_clean_linker_2, # of connection points: 2
#     Edge 12, Type (0, 1), BuildingBlock: XUDNAN_clean_linker_2, # of connection points: 2
#     Edge 13, Type (0, 1), BuildingBlock: XUDNAN_clean_linker_2, # of connection points: 2
#     Edge 14, Type (0, 1), BuildingBlock: XUDNAN_clean_linker_2, # of connection points: 2
#     Edge 15, Type (0, 1), BuildingBlock: XUDNAN_clean_linker_2, # of connection points: 2
#     Edge 16, Type (0, 1), BuildingBlock: XUDNAN_clean_linker_2, # of connection points: 2
#     Edge 17, Type (0, 1), BuildingBlock: XUDNAN_clean_linker_2, # of connection points: 2
# Relax obj value: 0.110
# Max RMSD: 0.229
# Mean RMSD: 0.139
data_MOF--net-pth--node1-UXUYUI_clean_sbu_0--node2-MUDLON_clean_sbu_0--edge1-XUDNAN_clean_linker_2
_symmetry_space_group_name_H-M    P1
_symmetry_Int_Tables_number       1
_symmetry_cell_setting            triclinic
loop_
_symmetry_equiv_pos_as_xyz
'x, y, z'
_cell_length_a     27.743594
_cell_length_b     27.796201
_cell_length_c     73.717632
_cell_angle_alpha  89.936771
_cell_angle_beta   89.977187
_cell_angle_gamma 120.03254
loop_
_atom_site_label
_atom_site_type_symbol
_atom_site_fract_x
_atom_site_fract_y
_atom_site_fract_z
_atom_type_partial_charge
Li0 Li 0.05453 0.03306 0.09441 0.0
Li1 Li 0.99594 0.03807 0.11768 0.0
Li2 Li 0.02279 0.96697 0.11938 0.0
Li3 Li 0.95715 0.96072 0.09679 0.0
C4 C 0.12464 0.06108 0.1252 0.0
N5 N 0.23086 0.08486 0.13442 0.0
C6 C 0.15167 0.09508 0.14008 0.0
C7 C 0.15167 0.03921 0.115 0.0
C8 C 0.20536 0.10661 0.14452 0.0
C9 C 0.20535 0.05171 0.11987 0.0
C10 C 1.00408 0.09357 0.08531 0.0
C11 C 0.99524 0.15728 0.06524 0.0
N12 N 0.03826 0.20067 0.07392 0.0
C13 C 0.04822 0.13879 0.09404 0.0
C14 C 0.97736 0.10282 0.07079 0.0
C15 C 0.06486 0.1926 0.08808 0.0
C16 C 0.10576 0.05762 0.06002 0.0
N17 N 0.11314 0.07562 0.07749 0.0
C18 C 0.20228 0.15333 0.07018 0.0
C19 C 0.15989 0.12293 0.08268 0.0
C20 C 0.19574 0.13573 0.05207 0.0
C21 C 0.1466 0.08751 0.04696 0.0
H22 H 0.06789 0.0202 0.05623 0.0
H23 H 0.16427 0.13736 0.09651 0.0
C24 C 0.94907 0.10726 0.12623 0.0
N25 N 0.98137 0.08637 0.13216 0.0
C26 C 0.93978 0.14263 0.13733 0.0
C27 C 0.99669 0.1338 0.16043 0.0
C28 C 1.00465 0.09849 0.14894 0.0
C29 C 0.96417 0.15669 0.15463 0.0
H30 H 0.93068 0.09672 0.11286 0.0
H31 H 0.02944 0.08062 0.15339 0.0
C32 C 1.00599 0.89686 0.09012 0.0
N33 N 0.97051 0.78613 0.08379 0.0
C34 C 0.96573 0.85581 0.10133 0.0
C35 C 0.0282 0.88163 0.0757 0.0
C36 C 0.94833 0.80006 0.09791 0.0
C37 C 0.00974 0.8254 0.07272 0.0
C38 C 0.89663 0.94954 0.12852 0.0
C39 C 0.87083 0.92038 0.14438 0.0
C40 C 0.86981 0.9703 0.11767 0.0
C41 C 0.81857 0.91245 0.14912 0.0
C42 C 0.81761 0.96154 0.12288 0.0
N43 N 0.79328 0.93303 0.13837 0.0
C44 C 0.01742 0.91062 0.15194 0.0
C45 C 0.0799 0.90991 0.13022 0.0
C46 C 0.02944 0.87907 0.16394 0.0
N47 N 0.04245 0.92517 0.13543 0.0
C48 C 0.09409 0.8794 0.14193 0.0
C49 C 0.06849 0.86302 0.15907 0.0
H50 H 0.98761 0.92309 0.15572 0.0
H51 H 0.09876 0.92123 0.11692 0.0
C52 C 0.89562 0.91221 0.06455 0.0
N53 N 0.89393 0.90819 0.08296 0.0
C54 C 0.85281 0.871 0.05404 0.0
C55 C 0.80636 0.82381 0.08167 0.0
C56 C 0.85039 0.86507 0.09157 0.0
C57 C 0.80768 0.82539 0.06259 0.0
H58 H 0.93121 0.94644 0.05802 0.0
H59 H 0.85038 0.86152 0.10614 0.0
O60 O 0.07191 0.04924 0.12078 0.0
O61 O 0.98704 0.04035 0.09077 0.0
O62 O 0.0234 0.95176 0.09304 0.0
O63 O 0.9481 0.95805 0.12384 0.0
H64 H 0.13138 0.11243 0.1481 0.0
H65 H 0.13151 0.01296 0.1034 0.0
H66 H 0.22677 0.13286 0.15601 0.0
H67 H 0.22671 0.03504 0.11209 0.0
H68 H 0.97493 0.16506 0.05402 0.0
H69 H 0.0694 0.13256 0.10531 0.0
H70 H 0.94317 0.06822 0.06388 0.0
H71 H 0.09894 0.22796 0.09471 0.0
H72 H 0.23926 0.19091 0.07451 0.0
H73 H 0.14013 0.07293 0.03307 0.0
H74 H 0.91475 0.15964 0.13228 0.0
H75 H 0.01553 0.14278 0.17377 0.0
H76 H 0.94796 0.86676 0.11254 0.0
H77 H 0.05933 0.91297 0.06688 0.0
H78 H 0.91715 0.76786 0.10646 0.0
H79 H 0.02655 0.81299 0.0616 0.0
H80 H 0.89091 0.90398 0.15294 0.0
H81 H 0.88887 0.99277 0.10531 0.0
H82 H 0.79813 0.88994 0.16136 0.0
H83 H 0.79643 0.97738 0.1146 0.0
H84 H 1.00744 0.86666 0.17674 0.0
H85 H 0.12505 0.86908 0.13754 0.0
H86 H 0.85627 0.87382 0.0394 0.0
H87 H 0.77218 0.79029 0.08898 0.0
Li88 Li 0.99667 0.95343 0.43036 0.0
Li89 Li 0.06354 0.02528 0.45213 0.0
Li90 Li 0.96331 0.99375 0.45196 0.0
Li91 Li 0.01717 0.04986 0.42716 0.0
C92 C 0.98964 0.89665 0.45851 0.0
N93 N 0.96983 0.78886 0.45884 0.0
C94 C 0.03399 0.88643 0.45719 0.0
C95 C 0.93524 0.85209 0.46001 0.0
C96 C 0.02311 0.83163 0.45739 0.0
C97 C 0.92608 0.79788 0.46015 0.0
C98 C 0.10541 0.05178 0.41185 0.0
C99 C 0.17299 0.14177 0.40009 0.0
N100 N 0.17368 0.11773 0.38411 0.0
C101 C 0.10656 0.02803 0.39526 0.0
C102 C 0.13874 0.10915 0.41426 0.0
C103 C 0.14147 0.06204 0.38143 0.0
C104 C 0.92891 0.85438 0.41072 0.0
N105 N 0.98175 0.88919 0.41646 0.0
C106 C 0.01516 0.83852 0.39947 0.0
C107 C 0.0245 0.88147 0.41137 0.0
C108 C 0.96115 0.8029 0.39282 0.0
C109 C 0.91756 0.81062 0.39898 0.0
H110 H 0.89566 0.86132 0.41486 0.0
H111 H 0.06623 0.90987 0.41609 0.0
C112 C 0.12345 0.01451 0.4813 0.0
N113 N 0.12832 0.04702 0.46682 0.0
C114 C 0.16992 0.02645 0.49189 0.0
C115 C 0.22528 0.10656 0.47298 0.0
C116 C 0.17781 0.09283 0.46269 0.0
C117 C 0.22202 0.07274 0.48768 0.0
H118 H 0.08354 0.97865 0.48447 0.0
H119 H 0.18075 0.11861 0.45133 0.0
C120 C 0.89105 0.96812 0.42414 0.0
N121 N 0.78137 0.94228 0.42094 0.0
C122 C 0.87802 0.00508 0.41556 0.0
C123 C 0.84819 0.91793 0.43103 0.0
C124 C 0.82234 0.99125 0.41408 0.0
C125 C 0.79304 0.90568 0.42931 0.0
C126 C 0.01216 0.09228 0.46721 0.0
C127 C 0.98453 0.12205 0.4643 0.0
C128 C 0.02168 0.08103 0.48491 0.0
C129 C 0.96644 0.13976 0.47922 0.0
C130 C 1.00287 0.0994 0.49947 0.0
N131 N 0.97585 0.12811 0.49635 0.0
C132 C 0.89567 0.94916 0.48341 0.0
C133 C 0.8691 1.00085 0.46446 0.0
C134 C 0.85233 0.93797 0.49546 0.0
N135 N 0.90288 0.97963 0.46814 0.0
C136 C 0.82452 0.98952 0.47587 0.0
C137 C 0.81576 0.95766 0.49156 0.0
H138 H 0.9238 0.93381 0.48627 0.0
H139 H 0.87675 0.02673 0.45265 0.0
C140 C 0.01559 0.08031 0.39173 0.0
N141 N 0.02522 0.10172 0.40875 0.0
C142 C 0.01528 0.1116 0.37704 0.0
C143 C 0.03539 0.18717 0.39754 0.0
C144 C 0.03615 0.15445 0.41191 0.0
C145 C 0.0235 0.1652 0.37986 0.0
H146 H 1.00669 0.03813 0.38966 0.0
H147 H 0.04381 0.1705 0.4256 0.0
O148 O 0.99928 0.94991 0.45775 0.0
O149 O 0.07069 0.01935 0.42545 0.0
O150 O 0.9454 0.98094 0.42563 0.0
O151 O 0.0288 0.07318 0.45281 0.0
H152 H 0.07628 0.92042 0.45572 0.0
H153 H 0.90043 0.85925 0.46095 0.0
H154 H 0.05699 0.82308 0.45628 0.0
H155 H 0.88418 0.76298 0.46125 0.0
H156 H 0.19864 0.18626 0.40174 0.0
H157 H 0.08043 0.98392 0.39299 0.0
H158 H 0.13677 0.12856 0.42672 0.0
H159 H 0.14274 0.0442 0.36853 0.0
H160 H 0.0503 0.83477 0.39499 0.0
H161 H 0.8751 0.78368 0.39456 0.0
H162 H 0.16523 0.99874 0.50294 0.0
H163 H 0.26416 0.14329 0.46941 0.0
H164 H 0.91046 0.04417 0.41018 0.0
H165 H 0.85741 0.88921 0.43798 0.0
H166 H 0.8117 0.01953 0.40752 0.0
H167 H 0.75955 0.8672 0.43472 0.0
H168 H 0.9763 0.13055 0.45068 0.0
H169 H 0.04268 0.0577 0.48737 0.0
H170 H 0.94464 0.16249 0.47719 0.0
H171 H 0.00959 0.09066 0.51325 0.0
H172 H 0.84701 0.91371 0.50758 0.0
H173 H 0.79774 0.00634 0.47266 0.0
H174 H 1.00723 0.0933 0.36364 0.0
H175 H 0.04168 0.22813 0.40037 0.0
Li176 Li 0.04642 0.00656 0.76086 0.0
Li177 Li 0.04008 0.06275 0.78386 0.0
Li178 Li 0.97301 0.96465 0.78473 0.0
Li179 Li 0.97102 0.02725 0.76054 0.0
C180 C 0.09634 0.02228 0.79946 0.0
N181 N 0.18086 0.07294 0.82462 0.0
C182 C 0.15108 0.05727 0.79371 0.0
C183 C 0.08458 0.01255 0.81798 0.0
C184 C 0.19324 0.08261 0.80665 0.0
C185 C 0.12791 0.03869 0.83049 0.0
C186 C 0.05942 0.13092 0.7537 0.0
C187 C 0.03926 0.20451 0.75941 0.0
N188 N 0.07419 0.23459 0.74567 0.0
C189 C 0.09506 0.16254 0.73964 0.0
C190 C 0.03122 0.15202 0.76368 0.0
C191 C 0.10201 0.21487 0.73579 0.0
C192 C 0.10443 0.01553 0.72844 0.0
N193 N 0.09488 0.99453 0.74554 0.0
C194 C 0.15101 0.95302 0.74011 0.0
C195 C 0.11813 0.9646 0.75164 0.0
C196 C 0.16178 0.97399 0.72225 0.0
C197 C 0.1383 0.00626 0.7166 0.0
H198 H 0.08565 0.03951 0.724 0.0
H199 H 0.11002 0.94856 0.76535 0.0
C200 C 0.06461 0.12189 0.81685 0.0
N201 N 0.08291 0.12473 0.79955 0.0
C202 C 0.09609 0.16436 0.82917 0.0
C203 C 0.16339 0.21312 0.80543 0.0
C204 C 0.13125 0.16914 0.79368 0.0
C205 C 0.14615 0.21063 0.82347 0.0
H206 H 0.02618 0.08589 0.82117 0.0
H207 H 0.14544 0.16997 0.77996 0.0
C208 C 0.96188 0.91244 0.74675 0.0
N209 N 0.95977 0.83186 0.72425 0.0
C210 C 0.93542 0.90166 0.72989 0.0
C211 C 0.98643 0.88152 0.75226 0.0
C212 C 0.93497 0.86092 0.71869 0.0
C213 C 0.98521 0.84121 0.74067 0.0
C214 C 0.90383 0.00792 0.79117 0.0
C215 C 0.86299 0.96139 0.78193 0.0
C216 C 0.88803 0.03335 0.80439 0.0
C217 C 0.80695 0.94117 0.78607 0.0
C218 C 0.83154 0.01187 0.80813 0.0
N219 N 0.79251 0.96662 0.79897 0.0
C220 C 0.9157 0.91298 0.81707 0.0
C221 C 0.91012 0.8494 0.79472 0.0
C222 C 0.88198 0.86933 0.8288 0.0
N223 N 0.92874 0.90238 0.80033 0.0
C224 C 0.87742 0.80457 0.80615 0.0
C225 C 0.86223 0.81394 0.82344 0.0
H226 H 0.9309 0.95548 0.82124 0.0
H227 H 0.92021 0.84157 0.78135 0.0
C228 C 0.92875 0.03407 0.72674 0.0
N229 N 0.92608 0.04328 0.74471 0.0
C230 C 0.89631 0.04328 0.71428 0.0
C231 C 0.86194 0.07531 0.73887 0.0
C232 C 0.89451 0.06473 0.75089 0.0
C233 C 0.86191 0.06363 0.72035 0.0
H234 H 0.95626 0.01965 0.72208 0.0
H235 H 0.89453 0.07376 0.76513 0.0
O236 O 0.0543 0.99861 0.78704 0.0
O237 O 0.05207 0.07943 0.75746 0.0
O238 O 0.96357 0.95282 0.75782 0.0
O239 O 0.95912 0.02854 0.78754 0.0
H240 H 0.16071 0.06536 0.77941 0.0
H241 H 0.04234 0.98566 0.82262 0.0
H242 H 0.23575 0.11016 0.80241 0.0
H243 H 0.11941 0.03193 0.84487 0.0
H244 H 0.01772 0.22132 0.76701 0.0
H245 H 0.11712 0.14675 0.73178 0.0
H246 H 1.00347 0.12831 0.77461 0.0
H247 H 0.12949 0.23979 0.72495 0.0
H248 H 0.16694 0.92712 0.74516 0.0
H249 H 0.14623 0.02476 0.70322 0.0
H250 H 0.08165 0.16103 0.84302 0.0
H251 H 0.20223 0.24779 0.80066 0.0
H252 H 0.91479 0.92391 0.72556 0.0
H253 H 1.00673 0.88902 0.76532 0.0
H254 H 0.91473 0.85227 0.7056 0.0
H255 H 1.00456 0.81741 0.74473 0.0
H256 H 0.8742 0.941 0.77167 0.0
H257 H 0.91918 0.06933 0.81168 0.0
H258 H 0.77492 0.90523 0.77902 0.0
H259 H 0.81873 0.03116 0.81832 0.0
H260 H 0.8708 0.87916 0.84178 0.0
H261 H 0.86444 0.76302 0.80139 0.0
H262 H 0.89829 0.03485 0.70004 0.0
H263 H 0.8361 0.09123 0.74405 0.0
Mg264 Mg 0.01015 0.50981 0.27162 0.0
C265 C 0.99439 0.41715 0.29253 0.0
O266 O 0.94588 0.40707 0.28626 0.0
C267 C 0.06859 0.62629 0.25668 0.0
O268 O 0.03773 0.63139 0.26919 0.0
C269 C 0.99897 0.43807 0.24233 0.0
O270 O 0.05139 0.4647 0.24744 0.0
O271 O 0.96515 0.44928 0.25037 0.0
O272 O 0.03707 0.46395 0.28897 0.0
O273 O 0.96354 0.5357 0.28884 0.0
C274 C 0.98505 0.55272 0.30443 0.0
O275 O 0.02934 0.54965 0.30881 0.0
O276 O 0.07075 0.58163 0.2561 0.0
Mg277 Mg 0.50106 0.00946 0.60411 0.0
C278 C 0.49656 0.07245 0.57121 0.0
O279 O 0.53961 0.06751 0.56658 0.0
C280 C 0.58101 0.02301 0.63142 0.0
O281 O 0.55035 0.96942 0.6283 0.0
C282 C 0.38861 0.96233 0.62259 0.0
O283 O 0.37987 0.9879 0.60909 0.0
O284 O 0.4332 0.95991 0.62277 0.0
O285 O 0.47513 0.05603 0.58684 0.0
O286 O 0.52607 0.96354 0.58597 0.0
C287 C 0.57816 0.98461 0.58329 0.0
O288 O 0.61284 0.03037 0.5919 0.0
O289 O 0.57043 0.05604 0.6226 0.0
Mg290 Mg 0.5127 0.49929 0.93889 0.0
C291 C 0.42295 0.43736 0.91393 0.0
O292 O 0.44581 0.40686 0.91747 0.0
C293 C 0.56737 0.55131 0.9723 0.0
O294 O 0.5724 0.50711 0.9702 0.0
C295 C 0.43235 0.40297 0.9603 0.0
O296 O 0.40556 0.42942 0.95632 0.0
O297 O 0.48145 0.42172 0.95415 0.0
O298 O 0.44306 0.48479 0.92146 0.0
O299 O 0.58031 0.52034 0.91977 0.0
C300 C 0.62334 0.56855 0.92016 0.0
O301 O 0.62947 0.60195 0.93366 0.0
O302 O 0.54216 0.56275 0.9601 0.0
H303 H 0.04387 0.24142 0.17488 0.0
H304 H 0.86852 0.16086 0.16113 0.0
H305 H 0.85741 0.22557 0.18148 0.0
H306 H 0.02897 0.26273 0.22171 0.0
H307 H 0.09219 0.32916 0.22258 0.0
H308 H 0.08576 0.27746 0.20655 0.0
H309 H 0.10867 0.34765 0.18022 0.0
H310 H 0.11508 0.39955 0.19618 0.0
H311 H 0.06749 0.38078 0.17738 0.0
H312 H 0.86595 0.29851 0.20466 0.0
H313 H 0.89399 0.37309 0.22763 0.0
H314 H 0.06344 0.40381 0.22531 0.0
C315 C 1.003 0.23709 0.1762 0.0
C316 C 0.95701 0.19592 0.16648 0.0
C317 C 0.90446 0.19239 0.16835 0.0
C318 C 0.89771 0.2288 0.17993 0.0
C319 C 0.944 0.26869 0.18944 0.0
C320 C 0.99564 0.27303 0.18758 0.0
C321 C 0.03889 0.31893 0.19927 0.0
C322 C 0.06283 0.29566 0.21336 0.0
C323 C 0.08525 0.36442 0.18756 0.0
C324 C 1.00359 0.33961 0.20815 0.0
C325 C 0.94894 0.31035 0.20238 0.0
C326 C 0.90875 0.32184 0.20917 0.0
C327 C 0.92499 0.36422 0.2222 0.0
C328 C 0.9809 0.39447 0.22823 0.0
C329 C 0.02038 0.38183 0.22097 0.0
H330 H 0.82296 0.98617 0.52721 0.0
H331 H 0.7051 0.90658 0.48349 0.0
H332 H 0.62815 0.89393 0.50371 0.0
H333 H 0.7307 0.90506 0.56527 0.0
H334 H 0.75771 0.96503 0.57985 0.0
H335 H 0.80177 0.96039 0.56279 0.0
H336 H 0.82204 0.05504 0.54942 0.0
H337 H 0.77825 0.05999 0.56643 0.0
H338 H 0.7647 0.06432 0.54275 0.0
H339 H 0.5652 0.89569 0.52824 0.0
H340 H 0.52321 0.91944 0.55388 0.0
H341 H 0.68368 1.00227 0.5808 0.0
C342 C 0.78069 0.96487 0.5221 0.0
C343 C 0.76946 0.9465 0.50397 0.0
C344 C 0.71411 0.92043 0.49745 0.0
C345 C 0.67028 0.91288 0.50884 0.0
C346 C 0.68272 0.93209 0.52665 0.0
C347 C 0.73669 0.95791 0.53319 0.0
C348 C 0.73996 0.98012 0.55216 0.0
C349 C 0.75863 0.95089 0.56582 0.0
C350 C 0.7785 0.04361 0.55271 0.0
C351 C 0.67971 0.9639 0.55512 0.0
C352 C 0.64703 0.93519 0.54044 0.0
C353 C 0.59031 0.91776 0.53987 0.0
C354 C 0.56676 0.93123 0.55451 0.0
C355 C 0.6002 0.96265 0.56929 0.0
C356 C 0.65706 0.97809 0.56968 0.0
H357 H 0.86101 0.80987 0.86102 0.0
H358 H 0.77763 0.70984 0.81356 0.0
H359 H 0.71584 0.63209 0.83342 0.0
H360 H 0.84845 0.69852 0.89041 0.0
H361 H 0.83372 0.72666 0.91029 0.0
H362 H 0.87654 0.77246 0.89242 0.0
H363 H 0.81063 0.81301 0.88968 0.0
H364 H 0.768 0.76777 0.90762 0.0
H365 H 0.73731 0.76663 0.88596 0.0
H366 H 0.65914 0.56639 0.85839 0.0
H367 H 0.60646 0.52184 0.88633 0.0
H368 H 0.72207 0.66682 0.91737 0.0
C369 C 0.82987 0.7718 0.85468 0.0
C370 C 0.82522 0.76634 0.83556 0.0
C371 C 0.78368 0.71514 0.82808 0.0
C372 C 0.74796 0.67055 0.83928 0.0
C373 C 0.75368 0.67762 0.858 0.0
C374 C 0.79322 0.72716 0.86565 0.0
C375 C 0.78749 0.72572 0.88611 0.0
C376 C 0.83966 0.73115 0.89535 0.0
C377 C 0.7751 0.77095 0.89272 0.0
C378 C 0.73778 0.66804 0.88873 0.0
C379 C 0.71959 0.64055 0.87238 0.0
C380 C 0.67319 0.58739 0.87129 0.0
C381 C 0.64363 0.56232 0.88727 0.0
C382 C 0.6601 0.59078 0.90406 0.0
C383 C 0.70856 0.64382 0.90477 0.0
H384 H 0.0688 0.8626 0.19663 0.0
H385 H 0.09578 0.78318 0.15004 0.0
H386 H 0.11367 0.7241 0.17056 0.0
H387 H 0.16761 0.85461 0.22782 0.0
H388 H 0.12163 0.83788 0.24701 0.0
H389 H 0.11938 0.88014 0.22884 0.0
H390 H 0.01382 0.81151 0.22463 0.0
H391 H 0.0157 0.76949 0.24287 0.0
H392 H 0.98991 0.73889 0.22092 0.0
H393 H 0.12108 0.66787 0.19602 0.0
H394 H 0.10808 0.61356 0.22394 0.0
H395 H 0.07034 0.72538 0.25371 0.0
C396 C 0.07858 0.83301 0.19063 0.0
C397 C 0.0814 0.82848 0.17156 0.0
C398 C 0.09479 0.78905 0.16451 0.0
C399 C 0.10485 0.75492 0.17609 0.0
C400 C 0.10113 0.76024 0.19475 0.0
C401 C 0.08786 0.798 0.20196 0.0
C402 C 0.08079 0.79161 0.22236 0.0
C403 C 0.125 0.8442 0.23208 0.0
C404 C 0.02154 0.77698 0.22802 0.0
C405 C 0.09061 0.74329 0.22543 0.0
C406 C 0.10351 0.72657 0.20939 0.0
C407 C 0.11153 0.68093 0.20869 0.0
C408 C 0.10426 0.65042 0.22466 0.0
C409 C 0.08826 0.66518 0.24105 0.0
C410 C 0.08304 0.71325 0.24146 0.0
H411 H 0.23163 0.05937 0.52442 0.0
H412 H 0.32763 0.11102 0.47446 0.0
H413 H 0.41089 0.12629 0.49123 0.0
H414 H 0.34337 0.15377 0.555 0.0
H415 H 0.32203 0.10272 0.57284 0.0
H416 H 0.27111 0.10122 0.55733 0.0
H417 H 0.23982 0.99908 0.54912 0.0
H418 H 0.29039 1.00023 0.56466 0.0
H419 H 0.29084 0.9818 0.54125 0.0
H420 H 0.48191 0.12873 0.51279 0.0
H421 H 0.53456 0.11573 0.53742 0.0
H422 H 0.39243 0.0612 0.57332 0.0
C423 C 0.27015 0.07414 0.51698 0.0
C424 C 0.27289 0.08442 0.49808 0.0
C425 C 0.32445 0.10396 0.48897 0.0
C426 C 0.37206 0.11256 0.49837 0.0
C427 C 0.36771 0.10157 0.51692 0.0
C428 C 0.31809 0.08278 0.52614 0.0
C429 C 0.32377 0.07086 0.54586 0.0
C430 C 0.31453 0.10946 0.5585 0.0
C431 C 0.28385 0.00935 0.55049 0.0
C432 C 0.38398 0.08462 0.54617 0.0
C433 C 0.40873 0.10281 0.52938 0.0
C434 C 0.46319 0.11515 0.52605 0.0
C435 C 0.49279 0.10763 0.54014 0.0
C436 C 0.46786 0.08781 0.55735 0.0
C437 C 0.41306 0.07727 0.56043 0.0
H438 H 0.18457 0.19674 0.85585 0.0
H439 H 0.19012 0.32316 0.82008 0.0
H440 H 0.25446 0.39641 0.84133 0.0
H441 H 0.19539 0.26683 0.89925 0.0
H442 H 0.23999 0.24386 0.90903 0.0
H443 H 0.1892 0.2019 0.89218 0.0
H444 H 0.26703 0.20263 0.87249 0.0
H445 H 0.3179 0.24434 0.88927 0.0
H446 H 0.32648 0.26819 0.86612 0.0
H447 H 0.32229 0.45597 0.86619 0.0
H448 H 0.39388 0.49579 0.89045 0.0
H449 H 0.34625 0.32933 0.90849 0.0
C450 C 0.19836 0.23982 0.85273 0.0
C451 C 0.18191 0.25451 0.83654 0.0
C452 C 0.20213 0.31129 0.83254 0.0
C453 C 0.23836 0.35301 0.84456 0.0
C454 C 0.25424 0.33716 0.86041 0.0
C455 C 0.23512 0.28183 0.8644 0.0
C456 C 0.26242 0.27561 0.88129 0.0
C457 C 0.21916 0.24526 0.89633 0.0
C458 C 0.29542 0.24597 0.87703 0.0
C459 C 0.30065 0.33603 0.88604 0.0
C460 C 0.29469 0.37109 0.87411 0.0
C461 C 0.32705 0.42884 0.87566 0.0
C462 C 0.36738 0.45114 0.88949 0.0
C463 C 0.3755 0.41558 0.90125 0.0
C464 C 0.34093 0.35748 0.89964 0.0
H465 H 0.79268 0.98904 0.69531 0.0
H466 H 0.84673 0.15356 0.71665 0.0
H467 H 0.78325 0.16373 0.69532 0.0
H468 H 0.77746 0.01771 0.64844 0.0
H469 H 0.71615 0.95085 0.64501 0.0
H470 H 0.76777 0.95834 0.66133 0.0
H471 H 0.69204 0.91756 0.6864 0.0
H472 H 0.64024 0.90994 0.67018 0.0
H473 H 0.65006 0.94914 0.69066 0.0
H474 H 0.71275 0.15487 0.6712 0.0
H475 H 0.63785 0.12526 0.64819 0.0
H476 H 0.62941 0.96553 0.6441 0.0
C477 C 0.79169 0.0275 0.69533 0.0
C478 C 0.82489 0.07074 0.70747 0.0
C479 C 0.8215 0.11994 0.70742 0.0
C480 C 0.78582 0.12614 0.69531 0.0
C481 C 0.75353 0.08255 0.68349 0.0
C482 C 0.75597 0.03405 0.68354 0.0
C483 C 0.71533 0.99224 0.67018 0.0
C484 C 0.74603 0.97904 0.65536 0.0
C485 C 0.67185 0.9391 0.67995 0.0
C486 C 0.68943 0.0246 0.6626 0.0
C487 C 0.71222 0.07683 0.67024 0.0
C488 C 0.69458 0.11399 0.66517 0.0
C489 C 0.65218 0.09695 0.65208 0.0
C490 C 0.62761 0.04304 0.64446 0.0
C491 C 0.64699 0.00687 0.64977 0.0
H492 H 0.7624 0.82666 0.02902 0.0
H493 H 0.75613 0.71506 0.07153 0.0
H494 H 0.68582 0.63548 0.05434 0.0
H495 H 0.61487 0.74748 0.01593 0.0
H496 H 0.62936 0.76053 0.99203 0.0
H497 H 0.67533 0.8106 1.00841 0.0
H498 H 0.75888 0.80613 0.99462 0.0
H499 H 0.71327 0.75638 0.97815 0.0
H500 H 0.75538 0.73982 0.9926 0.0
H501 H 0.6224 0.56742 0.0323 0.0
H502 H 0.57186 0.51323 1.00545 0.0
H503 H 0.61847 0.66569 0.97602 0.0
C504 C 0.74607 0.78555 0.03477 0.0
C505 C 0.76428 0.7777 0.05193 0.0
C506 C 0.74183 0.72289 0.0588 0.0
C507 C 0.70194 0.67711 0.04906 0.0
C508 C 0.68487 0.68633 0.03233 0.0
C509 C 0.70628 0.73897 0.02511 0.0
C510 C 0.68333 0.73636 1.00618 0.0
C511 C 0.64866 0.76548 1.00561 0.0
C512 C 0.73053 0.76113 0.99205 0.0
C513 C 0.64672 0.67393 1.00382 0.0
C514 C 0.64799 0.64621 0.01924 0.0
C515 C 0.62052 0.58853 0.02021 0.0
C516 C 0.59201 0.55815 1.00488 0.0
C517 C 0.59094 0.58529 0.98876 0.0
C518 C 0.61766 0.64398 0.98832 0.0
H519 H 0.01025 0.73806 0.38986 0.0
H520 H 0.88981 0.77165 0.36374 0.0
H521 H 0.87586 0.70418 0.33979 0.0
H522 H 0.07499 0.73218 0.34946 0.0
H523 H 0.08739 0.67778 0.3572 0.0
H524 H 0.0833 0.72413 0.37333 0.0
H525 H 1.00521 0.63983 0.39064 0.0
H526 H 0.00896 0.59317 0.3745 0.0
H527 H 0.94356 0.59036 0.37863 0.0
H528 H 0.87996 0.63782 0.31733 0.0
H529 H 0.90417 0.5803 0.29797 0.0
H530 H 0.02345 0.59243 0.33841 0.0
C531 C 0.98074 0.73117 0.37917 0.0
C532 C 0.9508 0.76001 0.37887 0.0
C533 C 0.9124 0.74931 0.36459 0.0
C534 C 0.90434 0.71119 0.35083 0.0
C535 C 0.93494 0.68398 0.35146 0.0
C536 C 0.97239 0.69352 0.36527 0.0
C537 C 1.00264 0.66156 0.36223 0.0
C538 C 0.06581 0.70128 0.36045 0.0
C539 C 0.98927 0.61868 0.3774 0.0
C540 C 0.9772 0.63348 0.34437 0.0
C541 C 0.93778 0.64638 0.33845 0.0
C542 C 0.91039 0.627 0.32191 0.0
C543 C 0.92434 0.59431 0.31101 0.0
C544 C 0.96557 0.58172 0.31667 0.0
C545 C 0.9915 0.60097 0.33371 0.0
H546 H 0.15614 0.96488 0.68475 0.0
H547 H 0.25025 0.95903 0.73105 0.0
H548 H 0.30949 0.94162 0.71048 0.0
H549 H 0.16707 0.86396 0.65605 0.0
H550 H 0.17716 0.90372 0.63565 0.0
H551 H 0.13663 0.90781 0.65407 0.0
H552 H 0.20037 0.01486 0.65502 0.0
H553 H 0.24062 0.01111 0.63651 0.0
H554 H 0.27451 0.04415 0.65745 0.0
H555 H 0.36243 0.93019 0.68486 0.0
H556 H 0.41131 0.93659 0.65623 0.0
H557 H 0.28815 0.95807 0.62658 0.0
C558 C 0.18913 0.9601 0.69071 0.0
C559 C 0.19749 0.96271 0.70973 0.0
C560 C 0.24131 0.95562 0.71667 0.0
C561 C 0.27561 0.94594 0.70506 0.0
C562 C 0.26624 0.94399 0.68645 0.0
C563 C 0.22451 0.95155 0.6793 0.0
C564 C 0.22666 0.95307 0.65875 0.0
C565 C 0.17373 0.90422 0.65066 0.0
C566 C 0.23613 0.00913 0.65152 0.0
C567 C 0.27696 0.94645 0.65548 0.0
C568 C 0.29838 0.93998 0.67163 0.0
C569 C 0.34587 0.93495 0.67213 0.0
C570 C 0.37324 0.93843 0.65576 0.0
C571 C 0.35362 0.94786 0.63913 0.0
C572 C 0.30404 0.95053 0.63903 0.0
H573 H 0.18332 0.17898 0.02039 0.0
H574 H 0.30637 0.16851 0.05369 0.0
H575 H 0.38019 0.22831 0.03179 0.0
H576 H 0.24563 0.1839 0.97579 0.0
H577 H 0.22859 0.23402 0.96692 0.0
H578 H 0.18495 0.185 0.98398 0.0
H579 H 0.19724 0.26616 1.00446 0.0
H580 H 0.2407 0.3153 0.98747 0.0
H581 H 0.26643 0.32057 0.01025 0.0
H582 H 0.4411 0.29323 1.00682 0.0
H583 H 0.4848 0.36441 0.98267 0.0
H584 H 0.32184 0.33553 0.9669 0.0
C585 C 0.22566 0.18837 0.02281 0.0
C586 C 0.23932 0.16871 0.03851 0.0
C587 C 0.2953 0.18307 0.04162 0.0
C588 C 0.3373 0.21669 0.02924 0.0
C589 C 0.3226 0.23592 0.01391 0.0
C590 C 0.26813 0.22258 0.01076 0.0
C591 C 0.26391 0.25275 0.99428 0.0
C592 C 0.22868 0.21144 0.97936 0.0
C593 C 0.24073 0.29096 0.99943 0.0
C594 C 0.32457 0.2859 0.98882 0.0
C595 C 0.35775 0.27489 1.00006 0.0
C596 C 0.41546 0.3019 0.99788 0.0
C597 C 0.43991 0.34206 0.98409 0.0
C598 C 0.40667 0.35537 0.97296 0.0
C599 C 0.34828 0.32614 0.97521 0.0
H600 H 0.08217 0.27822 0.37191 0.0
H601 H 0.94407 0.12077 0.35356 0.0
H602 H 0.92821 0.16826 0.3282 0.0
H603 H 0.01654 0.35832 0.36229 0.0
H604 H 0.0793 0.41926 0.35482 0.0
H605 H 0.08314 0.37285 0.37106 0.0
H606 H 0.15169 0.36155 0.35007 0.0
H607 H 0.14785 0.40776 0.33371 0.0
H608 H 0.1319 0.33902 0.32697 0.0
H609 H 0.92299 0.23077 0.30597 0.0
H610 H 0.92686 0.3071 0.28801 0.0
H611 H 0.06744 0.42682 0.31992 0.0
C612 C 0.04872 0.25378 0.36252 0.0
C613 C 0.0151 0.19541 0.3646 0.0
C614 C 0.97155 0.16512 0.35203 0.0
C615 C 0.96191 0.19177 0.33759 0.0
C616 C 0.9959 0.24895 0.33585 0.0
C617 C 0.0383 0.27989 0.34793 0.0
C618 C 0.06682 0.34136 0.34318 0.0
C619 C 0.06109 0.37492 0.35876 0.0
C620 C 0.12822 0.36373 0.33818 0.0
C621 C 0.03313 0.33988 0.32672 0.0
C622 C 0.99272 0.28589 0.32278 0.0
C623 C 0.95464 0.27322 0.30881 0.0
C624 C 0.95712 0.31694 0.29872 0.0
C625 C 0.99751 0.37277 0.30255 0.0
C626 C 0.0367 0.38442 0.31655 0.0
loop_
_geom_bond_atom_site_label_1
_geom_bond_atom_site_label_2
_geom_bond_distance
_geom_bond_site_symmetry_2
_ccdc_geom_bond_type
Li0 N17 1.990 . S
Li0 O60 1.956 . S
Li0 O61 1.970 1_455 S
Li0 O62 1.961 1_545 S
Li1 N25 1.990 . S
Li1 O60 1.970 1_655 S
Li1 O61 1.956 . S
Li1 O63 1.961 1_545 S
Li2 N47 1.990 . S
Li2 O60 1.961 1_565 S
Li2 O62 1.956 . S
Li2 O63 1.970 1_455 S
Li3 N53 1.990 . S
Li3 O61 1.961 1_565 S
Li3 O62 1.970 1_655 S
Li3 O63 1.956 . S
C4 C6 1.348 . S
C4 C7 1.356 . S
C4 O60 1.325 . S
N5 C8 1.314 . S
N5 C9 1.279 . S
C6 C4 1.348 . S
C6 C8 1.353 . S
C6 H64 0.929 . S
C7 C4 1.356 . S
C7 C9 1.358 . S
C7 H65 0.930 . S
C8 N5 1.314 . S
C8 C6 1.353 . S
C8 H66 0.930 . S
C9 N5 1.279 . S
C9 C7 1.358 . S
C9 H67 0.930 . S
C10 C13 1.348 1_655 S
C10 C14 1.356 . S
C10 O61 1.325 . S
C11 N12 1.279 . S
C11 C14 1.358 . S
C11 H68 0.930 . S
N12 C11 1.279 . S
N12 C15 1.314 . S
C13 C10 1.348 1_455 S
C13 C15 1.353 1_455 S
C13 H69 0.929 . S
C14 C10 1.356 . S
C14 C11 1.358 . S
C14 H70 0.930 . S
C15 N12 1.314 . S
C15 C13 1.353 1_655 S
C15 H71 0.930 1_655 S
C16 N17 1.314 . S
C16 C21 1.353 . S
C16 H22 0.930 . S
N17 Li0 1.990 . S
N17 C16 1.314 . S
N17 C19 1.279 . S
C18 C19 1.358 . S
C18 C20 1.356 . S
C18 H72 0.930 . S
C19 N17 1.279 . S
C19 C18 1.358 . S
C19 H23 0.930 . S
C20 C18 1.356 . S
C20 C21 1.348 . S
C21 C16 1.353 . S
C21 C20 1.348 . S
C21 H73 0.929 . S
H22 C16 0.930 . S
H23 C19 0.930 . S
C24 N25 1.314 . S
C24 C26 1.353 . S
C24 H30 0.930 . S
N25 Li1 1.990 . S
N25 C24 1.314 . S
N25 C28 1.279 . S
C26 C24 1.353 . S
C26 C29 1.348 . S
C26 H74 0.929 . S
C27 C28 1.358 . S
C27 C29 1.356 . S
C27 H75 0.930 . S
C28 N25 1.279 . S
C28 C27 1.358 . S
C28 H31 0.930 . S
C29 C26 1.348 . S
C29 C27 1.356 . S
H30 C24 0.930 . S
H31 C28 0.930 . S
C32 C34 1.348 1_455 S
C32 C35 1.356 . S
C32 O62 1.325 . S
N33 C36 1.314 . S
N33 C37 1.279 . S
C34 C32 1.348 1_655 S
C34 C36 1.353 1_655 S
C34 H76 0.929 . S
C35 C32 1.356 . S
C35 C37 1.358 . S
C35 H77 0.930 . S
C36 N33 1.314 . S
C36 C34 1.353 1_455 S
C36 H78 0.930 1_455 S
C37 N33 1.279 . S
C37 C35 1.358 . S
C37 H79 0.930 . S
C38 C39 1.348 . S
C38 C40 1.356 . S
C38 O63 1.325 . S
C39 C38 1.348 . S
C39 C41 1.353 . S
C39 H80 0.929 . S
C40 C38 1.356 . S
C40 C42 1.358 . S
C40 H81 0.930 . S
C41 C39 1.353 . S
C41 N43 1.314 . S
C41 H82 0.930 . S
C42 C40 1.358 . S
C42 N43 1.279 . S
C42 H83 0.930 . S
N43 C41 1.314 . S
N43 C42 1.279 . S
C44 C46 1.353 . S
C44 N47 1.314 . S
C44 H50 0.930 . S
C45 N47 1.279 . S
C45 C48 1.358 . S
C45 H51 0.930 . S
C46 C44 1.353 . S
C46 C49 1.348 . S
C46 H84 0.929 . S
N47 Li2 1.990 . S
N47 C44 1.314 . S
N47 C45 1.279 . S
C48 C45 1.358 . S
C48 C49 1.356 . S
C48 H85 0.930 . S
C49 C46 1.348 . S
C49 C48 1.356 . S
H50 C44 0.930 . S
H51 C45 0.930 . S
C52 N53 1.314 . S
C52 C54 1.353 . S
C52 H58 0.930 . S
N53 Li3 1.990 . S
N53 C52 1.314 . S
N53 C56 1.279 . S
C54 C52 1.353 . S
C54 C57 1.348 . S
C54 H86 0.929 . S
C55 C56 1.358 . S
C55 C57 1.356 . S
C55 H87 0.930 . S
C56 N53 1.279 . S
C56 C55 1.358 . S
C56 H59 0.930 . S
C57 C54 1.348 . S
C57 C55 1.356 . S
H58 C52 0.930 . S
H59 C56 0.930 . S
O60 Li0 1.956 . S
O60 Li1 1.970 1_455 S
O60 Li2 1.961 1_545 S
O60 C4 1.325 . S
O61 Li0 1.970 1_655 S
O61 Li1 1.956 . S
O61 Li3 1.961 1_545 S
O61 C10 1.325 . S
O62 Li0 1.961 1_565 S
O62 Li2 1.956 . S
O62 Li3 1.970 1_455 S
O62 C32 1.325 . S
O63 Li1 1.961 1_565 S
O63 Li2 1.970 1_655 S
O63 Li3 1.956 . S
O63 C38 1.325 . S
H64 C6 0.929 . S
H65 C7 0.930 . S
H66 C8 0.930 . S
H67 C9 0.930 . S
H68 C11 0.930 . S
H69 C13 0.929 . S
H70 C14 0.930 . S
H71 C15 0.930 1_455 S
H72 C18 0.930 . S
H73 C21 0.929 . S
H74 C26 0.929 . S
H75 C27 0.930 . S
H76 C34 0.929 . S
H77 C35 0.930 . S
H78 C36 0.930 1_655 S
H79 C37 0.930 . S
H80 C39 0.929 . S
H81 C40 0.930 . S
H82 C41 0.930 . S
H83 C42 0.930 . S
H84 C46 0.929 . S
H85 C48 0.930 . S
H86 C54 0.929 . S
H87 C55 0.930 . S
Li88 N105 1.990 . S
Li88 O148 1.956 . S
Li88 O149 1.970 1_665 S
Li88 O150 1.961 . S
Li89 N113 1.990 . S
Li89 O148 1.970 1_445 S
Li89 O149 1.956 . S
Li89 O151 1.961 . S
Li90 N135 1.990 . S
Li90 O148 1.961 . S
Li90 O150 1.956 . S
Li90 O151 1.970 1_665 S
Li91 N141 1.990 . S
Li91 O149 1.961 . S
Li91 O150 1.970 1_445 S
Li91 O151 1.956 . S
C92 C94 1.348 1_655 S
C92 C95 1.356 . S
C92 O148 1.325 . S
N93 C96 1.314 . S
N93 C97 1.279 . S
C94 C92 1.348 1_455 S
C94 C96 1.353 1_455 S
C94 H152 0.929 . S
C95 C92 1.356 . S
C95 C97 1.358 . S
C95 H153 0.930 . S
C96 N93 1.314 . S
C96 C94 1.353 1_655 S
C96 H154 0.930 1_655 S
C97 N93 1.279 . S
C97 C95 1.358 . S
C97 H155 0.930 . S
C98 C101 1.348 1_545 S
C98 C102 1.356 . S
C98 O149 1.325 . S
C99 N100 1.279 . S
C99 C102 1.358 . S
C99 H156 0.930 . S
N100 C99 1.279 . S
N100 C103 1.314 . S
C101 C98 1.348 1_565 S
C101 C103 1.353 1_565 S
C101 H157 0.929 . S
C102 C98 1.356 . S
C102 C99 1.358 . S
C102 H158 0.930 . S
C103 N100 1.314 . S
C103 C101 1.353 1_545 S
C103 H159 0.930 1_545 S
C104 N105 1.314 . S
C104 C109 1.353 . S
C104 H110 0.930 . S
N105 Li88 1.990 . S
N105 C104 1.314 . S
N105 C107 1.279 . S
C106 C107 1.358 . S
C106 C108 1.356 . S
C106 H160 0.930 . S
C107 N105 1.279 . S
C107 C106 1.358 . S
C107 H111 0.930 . S
C108 C106 1.356 . S
C108 C109 1.348 . S
C109 C104 1.353 . S
C109 C108 1.348 . S
C109 H161 0.929 . S
H110 C104 0.930 . S
H111 C107 0.930 . S
C112 N113 1.314 . S
C112 C114 1.353 . S
C112 H118 0.930 . S
N113 Li89 1.990 . S
N113 C112 1.314 . S
N113 C116 1.279 . S
C114 C112 1.353 . S
C114 C117 1.348 . S
C114 H162 0.929 . S
C115 C116 1.358 . S
C115 C117 1.356 . S
C115 H163 0.930 . S
C116 N113 1.279 . S
C116 C115 1.358 . S
C116 H119 0.930 . S
C117 C114 1.348 . S
C117 C115 1.356 . S
H118 C112 0.930 . S
H119 C116 0.930 . S
C120 C122 1.348 1_565 S
C120 C123 1.356 . S
C120 O150 1.325 . S
N121 C124 1.314 . S
N121 C125 1.279 . S
C122 C120 1.348 1_545 S
C122 C124 1.353 1_545 S
C122 H164 0.929 . S
C123 C120 1.356 . S
C123 C125 1.358 . S
C123 H165 0.930 . S
C124 N121 1.314 . S
C124 C122 1.353 1_565 S
C124 H166 0.930 1_565 S
C125 N121 1.279 . S
C125 C123 1.358 . S
C125 H167 0.930 . S
C126 C127 1.348 1_455 S
C126 C128 1.356 . S
C126 O151 1.325 . S
C127 C126 1.348 1_655 S
C127 C129 1.353 1_655 S
C127 H168 0.929 . S
C128 C126 1.356 . S
C128 C130 1.358 . S
C128 H169 0.930 . S
C129 C127 1.353 1_455 S
C129 N131 1.314 . S
C129 H170 0.930 1_455 S
C130 C128 1.358 . S
C130 N131 1.279 . S
C130 H171 0.930 . S
N131 C129 1.314 . S
N131 C130 1.279 . S
C132 C134 1.353 . S
C132 N135 1.314 . S
C132 H138 0.930 . S
C133 N135 1.279 . S
C133 C136 1.358 . S
C133 H139 0.930 . S
C134 C132 1.353 . S
C134 C137 1.348 . S
C134 H172 0.929 . S
N135 Li90 1.990 . S
N135 C132 1.314 . S
N135 C133 1.279 . S
C136 C133 1.358 . S
C136 C137 1.356 . S
C136 H173 0.930 . S
C137 C134 1.348 . S
C137 C136 1.356 . S
H138 C132 0.930 . S
H139 C133 0.930 . S
C140 N141 1.314 . S
C140 C142 1.353 . S
C140 H146 0.930 . S
N141 Li91 1.990 . S
N141 C140 1.314 . S
N141 C144 1.279 . S
C142 C140 1.353 . S
C142 C145 1.348 . S
C142 H174 0.929 . S
C143 C144 1.358 . S
C143 C145 1.356 . S
C143 H175 0.930 . S
C144 N141 1.279 . S
C144 C143 1.358 . S
C144 H147 0.930 . S
C145 C142 1.348 . S
C145 C143 1.356 . S
H146 C140 0.930 . S
H147 C144 0.930 . S
O148 Li88 1.956 . S
O148 Li89 1.970 1_665 S
O148 Li90 1.961 . S
O148 C92 1.325 . S
O149 Li88 1.970 1_445 S
O149 Li89 1.956 . S
O149 Li91 1.961 . S
O149 C98 1.325 . S
O150 Li88 1.961 . S
O150 Li90 1.956 . S
O150 Li91 1.970 1_665 S
O150 C120 1.325 . S
O151 Li89 1.961 . S
O151 Li90 1.970 1_445 S
O151 Li91 1.956 . S
O151 C126 1.325 . S
H152 C94 0.929 . S
H153 C95 0.930 . S
H154 C96 0.930 1_455 S
H155 C97 0.930 . S
H156 C99 0.930 . S
H157 C101 0.929 . S
H158 C102 0.930 . S
H159 C103 0.930 1_565 S
H160 C106 0.930 . S
H161 C109 0.929 . S
H162 C114 0.929 . S
H163 C115 0.930 . S
H164 C122 0.929 . S
H165 C123 0.930 . S
H166 C124 0.930 1_545 S
H167 C125 0.930 . S
H168 C127 0.929 . S
H169 C128 0.930 . S
H170 C129 0.930 1_655 S
H171 C130 0.930 . S
H172 C134 0.929 . S
H173 C136 0.930 . S
H174 C142 0.929 . S
H175 C143 0.930 . S
Li176 N193 1.990 . S
Li176 O236 1.956 . S
Li176 O237 1.970 1_565 S
Li176 O238 1.961 1_455 S
Li177 N201 1.990 . S
Li177 O236 1.970 1_545 S
Li177 O237 1.956 . S
Li177 O239 1.961 1_455 S
Li178 N223 1.990 . S
Li178 O236 1.961 1_655 S
Li178 O238 1.956 . S
Li178 O239 1.970 1_565 S
Li179 N229 1.990 . S
Li179 O237 1.961 1_655 S
Li179 O238 1.970 1_545 S
Li179 O239 1.956 . S
C180 C182 1.348 1_565 S
C180 C183 1.356 . S
C180 O236 1.325 . S
N181 C184 1.314 . S
N181 C185 1.279 . S
C182 C180 1.348 1_545 S
C182 C184 1.353 1_545 S
C182 H240 0.929 . S
C183 C180 1.356 . S
C183 C185 1.358 . S
C183 H241 0.930 . S
C184 N181 1.314 . S
C184 C182 1.353 1_565 S
C184 H242 0.930 1_565 S
C185 N181 1.279 . S
C185 C183 1.358 . S
C185 H243 0.930 . S
C186 C189 1.348 . S
C186 C190 1.356 . S
C186 O237 1.325 . S
C187 N188 1.279 . S
C187 C190 1.358 . S
C187 H244 0.930 . S
N188 C187 1.279 . S
N188 C191 1.314 . S
C189 C186 1.348 . S
C189 C191 1.353 . S
C189 H245 0.929 . S
C190 C186 1.356 . S
C190 C187 1.358 . S
C190 H246 0.930 . S
C191 N188 1.314 . S
C191 C189 1.353 . S
C191 H247 0.930 . S
C192 N193 1.314 . S
C192 C197 1.353 . S
C192 H198 0.930 . S
N193 Li176 1.990 . S
N193 C192 1.314 . S
N193 C195 1.279 . S
C194 C195 1.358 . S
C194 C196 1.356 . S
C194 H248 0.930 . S
C195 N193 1.279 . S
C195 C194 1.358 . S
C195 H199 0.930 . S
C196 C194 1.356 . S
C196 C197 1.348 . S
C197 C192 1.353 . S
C197 C196 1.348 . S
C197 H249 0.929 . S
H198 C192 0.930 . S
H199 C195 0.930 . S
C200 N201 1.314 . S
C200 C202 1.353 . S
C200 H206 0.930 . S
N201 Li177 1.990 . S
N201 C200 1.314 . S
N201 C204 1.279 . S
C202 C200 1.353 . S
C202 C205 1.348 . S
C202 H250 0.929 . S
C203 C204 1.358 . S
C203 C205 1.356 . S
C203 H251 0.930 . S
C204 N201 1.279 . S
C204 C203 1.358 . S
C204 H207 0.930 . S
C205 C202 1.348 . S
C205 C203 1.356 . S
H206 C200 0.930 . S
H207 C204 0.930 . S
C208 C210 1.348 . S
C208 C211 1.356 . S
C208 O238 1.325 . S
N209 C212 1.314 . S
N209 C213 1.279 . S
C210 C208 1.348 . S
C210 C212 1.353 . S
C210 H252 0.929 . S
C211 C208 1.356 . S
C211 C213 1.358 . S
C211 H253 0.930 . S
C212 N209 1.314 . S
C212 C210 1.353 . S
C212 H254 0.930 . S
C213 N209 1.279 . S
C213 C211 1.358 . S
C213 H255 0.930 . S
C214 C215 1.348 1_545 S
C214 C216 1.356 . S
C214 O239 1.325 . S
C215 C214 1.348 1_565 S
C215 C217 1.353 1_565 S
C215 H256 0.929 . S
C216 C214 1.356 . S
C216 C218 1.358 . S
C216 H257 0.930 . S
C217 C215 1.353 1_545 S
C217 N219 1.314 . S
C217 H258 0.930 1_545 S
C218 C216 1.358 . S
C218 N219 1.279 . S
C218 H259 0.930 . S
N219 C217 1.314 . S
N219 C218 1.279 . S
C220 C222 1.353 . S
C220 N223 1.314 . S
C220 H226 0.930 . S
C221 N223 1.279 . S
C221 C224 1.358 . S
C221 H227 0.930 . S
C222 C220 1.353 . S
C222 C225 1.348 . S
C222 H260 0.929 . S
N223 Li178 1.990 . S
N223 C220 1.314 . S
N223 C221 1.279 . S
C224 C221 1.358 . S
C224 C225 1.356 . S
C224 H261 0.930 . S
C225 C222 1.348 . S
C225 C224 1.356 . S
H226 C220 0.930 . S
H227 C221 0.930 . S
C228 N229 1.314 . S
C228 C230 1.353 . S
C228 H234 0.930 . S
N229 Li179 1.990 . S
N229 C228 1.314 . S
N229 C232 1.279 . S
C230 C228 1.353 . S
C230 C233 1.348 . S
C230 H262 0.929 . S
C231 C232 1.358 . S
C231 C233 1.356 . S
C231 H263 0.930 . S
C232 N229 1.279 . S
C232 C231 1.358 . S
C232 H235 0.930 . S
C233 C230 1.348 . S
C233 C231 1.356 . S
H234 C228 0.930 . S
H235 C232 0.930 . S
O236 Li176 1.956 . S
O236 Li177 1.970 1_565 S
O236 Li178 1.961 1_455 S
O236 C180 1.325 . S
O237 Li176 1.970 1_545 S
O237 Li177 1.956 . S
O237 Li179 1.961 1_455 S
O237 C186 1.325 . S
O238 Li176 1.961 1_655 S
O238 Li178 1.956 . S
O238 Li179 1.970 1_565 S
O238 C208 1.325 . S
O239 Li177 1.961 1_655 S
O239 Li178 1.970 1_545 S
O239 Li179 1.956 . S
O239 C214 1.325 . S
H240 C182 0.929 . S
H241 C183 0.930 . S
H242 C184 0.930 1_545 S
H243 C185 0.930 . S
H244 C187 0.930 . S
H245 C189 0.929 . S
H246 C190 0.930 . S
H247 C191 0.930 . S
H248 C194 0.930 . S
H249 C197 0.929 . S
H250 C202 0.929 . S
H251 C203 0.930 . S
H252 C210 0.929 . S
H253 C211 0.930 . S
H254 C212 0.930 . S
H255 C213 0.930 . S
H256 C215 0.929 . S
H257 C216 0.930 . S
H258 C217 0.930 1_565 S
H259 C218 0.930 . S
H260 C222 0.929 . S
H261 C224 0.930 . S
H262 C230 0.929 . S
H263 C231 0.930 . S
Mg264 O271 2.141 . S
Mg264 O272 2.048 . S
Mg264 O273 2.048 . S
Mg264 O276 2.141 . S
C265 O266 1.313 . S
C265 O272 1.195 1_655 S
O266 C265 1.313 . S
C267 O268 1.245 . S
C267 O276 1.289 1_655 S
O268 C267 1.245 . S
C269 O270 1.245 . S
C269 O271 1.289 1_655 S
O270 C269 1.245 . S
O271 Mg264 2.141 . S
O271 C269 1.289 1_455 S
O272 Mg264 2.048 . S
O272 C265 1.195 1_455 S
O273 Mg264 2.048 . S
O273 C274 1.195 1_455 S
C274 O273 1.195 1_655 S
C274 O275 1.313 . S
O275 C274 1.313 . S
O276 Mg264 2.141 . S
O276 C267 1.289 1_455 S
Mg277 O284 2.141 . S
Mg277 O285 2.048 . S
Mg277 O286 2.048 . S
Mg277 O289 2.141 . S
C278 O279 1.313 . S
C278 O285 1.195 1_565 S
O279 C278 1.313 . S
C280 O281 1.245 . S
C280 O289 1.289 1_565 S
O281 C280 1.245 . S
C282 O283 1.245 . S
C282 O284 1.289 1_565 S
O283 C282 1.245 . S
O284 Mg277 2.141 . S
O284 C282 1.289 1_545 S
O285 Mg277 2.048 . S
O285 C278 1.195 1_545 S
O286 Mg277 2.048 . S
O286 C287 1.195 1_545 S
C287 O286 1.195 1_565 S
C287 O288 1.313 . S
O288 C287 1.313 . S
O289 Mg277 2.141 . S
O289 C280 1.289 1_545 S
Mg290 O297 2.141 . S
Mg290 O298 2.048 . S
Mg290 O299 2.048 . S
Mg290 O302 2.141 . S
C291 O292 1.313 . S
C291 O298 1.195 . S
O292 C291 1.313 . S
C293 O294 1.245 . S
C293 O302 1.289 . S
O294 C293 1.245 . S
C295 O296 1.245 . S
C295 O297 1.289 . S
O296 C295 1.245 . S
O297 Mg290 2.141 . S
O297 C295 1.289 . S
O298 Mg290 2.048 . S
O298 C291 1.195 . S
O299 Mg290 2.048 . S
O299 C300 1.195 . S
C300 O299 1.195 . S
C300 O301 1.313 . S
O301 C300 1.313 . S
O302 Mg290 2.141 . S
O302 C293 1.289 . S
H303 C315 0.930 . S
H304 C317 0.930 . S
H305 C318 0.930 . S
H306 C322 0.959 1_455 S
H307 C322 0.959 . S
H308 C322 0.961 . S
H309 C323 0.960 . S
H310 C323 0.961 . S
H311 C323 0.959 . S
H312 C326 0.929 . S
H313 C327 0.931 1_455 S
H314 C329 0.930 . S
C315 H303 0.930 . S
C315 C316 1.399 . S
C315 C320 1.399 . S
C316 C315 1.399 . S
C316 C317 1.376 . S
C317 H304 0.930 . S
C317 C316 1.376 . S
C317 C318 1.388 . S
C318 H305 0.930 . S
C318 C317 1.388 . S
C318 C319 1.390 . S
C319 C318 1.390 . S
C319 C320 1.394 . S
C319 C325 1.465 . S
C320 C315 1.399 . S
C320 C319 1.394 . S
C320 C321 1.516 . S
C321 C320 1.516 . S
C321 C322 1.502 . S
C321 C323 1.561 . S
C321 C324 1.526 . S
C322 H306 0.959 1_655 S
C322 H307 0.959 . S
C322 H308 0.961 . S
C322 C321 1.502 . S
C323 H309 0.960 . S
C323 H310 0.961 . S
C323 H311 0.959 . S
C323 C321 1.561 . S
C324 C321 1.526 . S
C324 C325 1.396 . S
C324 C329 1.390 . S
C325 C319 1.465 . S
C325 C324 1.396 . S
C325 C326 1.399 . S
C326 H312 0.929 . S
C326 C325 1.399 . S
C326 C327 1.385 . S
C327 H313 0.931 1_655 S
C327 C326 1.385 . S
C327 C328 1.389 . S
C328 C327 1.389 . S
C328 C329 1.387 . S
C329 H314 0.930 . S
C329 C324 1.390 . S
C329 C328 1.387 . S
H330 C342 0.930 . S
H331 C344 0.930 . S
H332 C345 0.930 . S
H333 C349 0.959 . S
H334 C349 0.959 . S
H335 C349 0.961 . S
H336 C350 0.960 . S
H337 C350 0.961 . S
H338 C350 0.959 . S
H339 C353 0.929 . S
H340 C354 0.931 . S
H341 C356 0.930 . S
C342 H330 0.930 . S
C342 C343 1.399 . S
C342 C347 1.399 . S
C343 C342 1.399 . S
C343 C344 1.376 . S
C344 H331 0.930 . S
C344 C343 1.376 . S
C344 C345 1.388 . S
C345 H332 0.930 . S
C345 C344 1.388 . S
C345 C346 1.390 . S
C346 C345 1.390 . S
C346 C347 1.394 . S
C346 C352 1.465 . S
C347 C342 1.399 . S
C347 C346 1.394 . S
C347 C348 1.516 . S
C348 C347 1.516 . S
C348 C349 1.502 . S
C348 C350 1.561 1_565 S
C348 C351 1.526 . S
C349 H333 0.959 . S
C349 H334 0.959 . S
C349 H335 0.961 . S
C349 C348 1.502 . S
C350 H336 0.960 . S
C350 H337 0.961 . S
C350 H338 0.959 . S
C350 C348 1.561 1_545 S
C351 C348 1.526 . S
C351 C352 1.396 . S
C351 C356 1.390 . S
C352 C346 1.465 . S
C352 C351 1.396 . S
C352 C353 1.399 . S
C353 H339 0.929 . S
C353 C352 1.399 . S
C353 C354 1.385 . S
C354 H340 0.931 . S
C354 C353 1.385 . S
C354 C355 1.389 . S
C355 C354 1.389 . S
C355 C356 1.387 . S
C356 H341 0.930 . S
C356 C351 1.390 . S
C356 C355 1.387 . S
H357 C369 0.930 . S
H358 C371 0.930 . S
H359 C372 0.930 . S
H360 C376 0.959 . S
H361 C376 0.959 . S
H362 C376 0.961 . S
H363 C377 0.960 . S
H364 C377 0.961 . S
H365 C377 0.959 . S
H366 C380 0.929 . S
H367 C381 0.931 . S
H368 C383 0.930 . S
C369 H357 0.930 . S
C369 C370 1.399 . S
C369 C374 1.399 . S
C370 C369 1.399 . S
C370 C371 1.376 . S
C371 H358 0.930 . S
C371 C370 1.376 . S
C371 C372 1.388 . S
C372 H359 0.930 . S
C372 C371 1.388 . S
C372 C373 1.390 . S
C373 C372 1.390 . S
C373 C374 1.394 . S
C373 C379 1.465 . S
C374 C369 1.399 . S
C374 C373 1.394 . S
C374 C375 1.516 . S
C375 C374 1.516 . S
C375 C376 1.502 . S
C375 C377 1.561 . S
C375 C378 1.526 . S
C376 H360 0.959 . S
C376 H361 0.959 . S
C376 H362 0.961 . S
C376 C375 1.502 . S
C377 H363 0.960 . S
C377 H364 0.961 . S
C377 H365 0.959 . S
C377 C375 1.561 . S
C378 C375 1.526 . S
C378 C379 1.396 . S
C378 C383 1.390 . S
C379 C373 1.465 . S
C379 C378 1.396 . S
C379 C380 1.399 . S
C380 H366 0.929 . S
C380 C379 1.399 . S
C380 C381 1.385 . S
C381 H367 0.931 . S
C381 C380 1.385 . S
C381 C382 1.389 . S
C382 C381 1.389 . S
C382 C383 1.387 . S
C383 H368 0.930 . S
C383 C378 1.390 . S
C383 C382 1.387 . S
H384 C396 0.930 . S
H385 C398 0.930 1_655 S
H386 C399 0.930 . S
H387 C403 0.959 . S
H388 C403 0.959 . S
H389 C403 0.961 . S
H390 C404 0.960 . S
H391 C404 0.961 . S
H392 C404 0.959 . S
H393 C407 0.929 . S
H394 C408 0.931 . S
H395 C410 0.930 . S
C396 H384 0.930 . S
C396 C397 1.399 . S
C396 C401 1.399 . S
C397 C396 1.399 . S
C397 C398 1.376 . S
C398 H385 0.930 1_455 S
C398 C397 1.376 . S
C398 C399 1.388 1_455 S
C399 H386 0.930 . S
C399 C398 1.388 1_655 S
C399 C400 1.390 1_655 S
C400 C399 1.390 1_455 S
C400 C401 1.394 . S
C400 C406 1.466 1_455 S
C401 C396 1.399 . S
C401 C400 1.394 . S
C401 C402 1.516 . S
C402 C401 1.516 . S
C402 C403 1.502 . S
C402 C404 1.561 . S
C402 C405 1.526 . S
C403 H387 0.959 . S
C403 H388 0.959 . S
C403 H389 0.961 . S
C403 C402 1.502 . S
C404 H390 0.960 . S
C404 H391 0.961 . S
C404 H392 0.959 . S
C404 C402 1.561 . S
C405 C402 1.526 . S
C405 C406 1.395 1_455 S
C405 C410 1.390 . S
C406 C400 1.466 1_655 S
C406 C405 1.395 1_655 S
C406 C407 1.399 . S
C407 H393 0.929 . S
C407 C406 1.399 . S
C407 C408 1.385 . S
C408 H394 0.931 . S
C408 C407 1.385 . S
C408 C409 1.389 . S
C409 C408 1.389 . S
C409 C410 1.387 1_655 S
C410 H395 0.930 . S
C410 C405 1.390 . S
C410 C409 1.387 1_455 S
H411 C423 0.930 . S
H412 C425 0.930 . S
H413 C426 0.930 . S
H414 C430 0.959 . S
H415 C430 0.959 . S
H416 C430 0.961 . S
H417 C431 0.960 . S
H418 C431 0.961 . S
H419 C431 0.959 . S
H420 C434 0.929 . S
H421 C435 0.931 . S
H422 C437 0.930 . S
C423 H411 0.930 . S
C423 C424 1.399 . S
C423 C428 1.399 . S
C424 C423 1.399 . S
C424 C425 1.376 1_545 S
C425 H412 0.930 . S
C425 C424 1.376 1_565 S
C425 C426 1.388 . S
C426 H413 0.930 . S
C426 C425 1.388 . S
C426 C427 1.390 1_565 S
C427 C426 1.390 1_545 S
C427 C428 1.394 . S
C427 C433 1.465 1_545 S
C428 C423 1.399 . S
C428 C427 1.394 . S
C428 C429 1.516 . S
C429 C428 1.516 . S
C429 C430 1.502 . S
C429 C431 1.561 . S
C429 C432 1.526 . S
C430 H414 0.959 . S
C430 H415 0.959 . S
C430 H416 0.961 . S
C430 C429 1.502 . S
C431 H417 0.960 . S
C431 H418 0.961 . S
C431 H419 0.959 . S
C431 C429 1.561 . S
C432 C429 1.526 . S
C432 C433 1.396 1_545 S
C432 C437 1.390 . S
C433 C427 1.465 1_565 S
C433 C432 1.396 1_565 S
C433 C434 1.399 . S
C434 H420 0.929 . S
C434 C433 1.399 . S
C434 C435 1.385 . S
C435 H421 0.931 . S
C435 C434 1.385 . S
C435 C436 1.393 . S
C436 C435 1.393 . S
C436 C437 1.381 1_565 S
C437 H422 0.930 . S
C437 C432 1.390 . S
C437 C436 1.381 1_545 S
H438 C450 0.930 . S
H439 C452 0.930 . S
H440 C453 0.930 . S
H441 C457 0.959 . S
H442 C457 0.959 . S
H443 C457 0.961 . S
H444 C458 0.960 . S
H445 C458 0.961 . S
H446 C458 0.959 . S
H447 C461 0.929 . S
H448 C462 0.931 . S
H449 C464 0.930 . S
C450 H438 0.930 . S
C450 C451 1.399 . S
C450 C455 1.399 . S
C451 C450 1.399 . S
C451 C452 1.376 . S
C452 H439 0.930 . S
C452 C451 1.376 . S
C452 C453 1.388 . S
C453 H440 0.930 . S
C453 C452 1.388 . S
C453 C454 1.390 . S
C454 C453 1.390 . S
C454 C455 1.394 . S
C454 C460 1.465 . S
C455 C450 1.399 . S
C455 C454 1.394 . S
C455 C456 1.516 . S
C456 C455 1.516 . S
C456 C457 1.502 . S
C456 C458 1.561 . S
C456 C459 1.526 . S
C457 H441 0.959 . S
C457 H442 0.959 . S
C457 H443 0.961 . S
C457 C456 1.502 . S
C458 H444 0.960 . S
C458 H445 0.961 . S
C458 H446 0.959 . S
C458 C456 1.561 . S
C459 C456 1.526 . S
C459 C460 1.396 . S
C459 C464 1.390 . S
C460 C454 1.465 . S
C460 C459 1.396 . S
C460 C461 1.399 . S
C461 H447 0.929 . S
C461 C460 1.399 . S
C461 C462 1.385 . S
C462 H448 0.931 . S
C462 C461 1.385 . S
C462 C463 1.389 . S
C463 C462 1.389 . S
C463 C464 1.387 . S
C464 H449 0.930 . S
C464 C459 1.390 . S
C464 C463 1.387 . S
H465 C477 0.930 . S
H466 C479 0.930 . S
H467 C480 0.930 . S
H468 C484 0.959 1_545 S
H469 C484 0.959 . S
H470 C484 0.961 . S
H471 C485 0.960 . S
H472 C485 0.961 . S
H473 C485 0.959 . S
H474 C488 0.929 . S
H475 C489 0.931 . S
H476 C491 0.930 . S
C477 H465 0.930 . S
C477 C478 1.399 . S
C477 C482 1.399 . S
C478 C477 1.399 . S
C478 C479 1.376 . S
C479 H466 0.930 . S
C479 C478 1.376 . S
C479 C480 1.388 . S
C480 H467 0.930 . S
C480 C479 1.388 . S
C480 C481 1.390 . S
C481 C480 1.390 . S
C481 C482 1.394 . S
C481 C487 1.465 . S
C482 C477 1.399 . S
C482 C481 1.394 . S
C482 C483 1.516 1_545 S
C483 C482 1.516 1_565 S
C483 C484 1.502 . S
C483 C485 1.561 . S
C483 C486 1.526 1_565 S
C484 H468 0.959 1_565 S
C484 H469 0.959 . S
C484 H470 0.961 . S
C484 C483 1.502 . S
C485 H471 0.960 . S
C485 H472 0.961 . S
C485 H473 0.959 . S
C485 C483 1.561 . S
C486 C483 1.526 1_545 S
C486 C487 1.396 . S
C486 C491 1.390 1_545 S
C487 C481 1.465 . S
C487 C486 1.396 . S
C487 C488 1.399 . S
C488 H474 0.929 . S
C488 C487 1.399 . S
C488 C489 1.385 . S
C489 H475 0.931 . S
C489 C488 1.385 . S
C489 C490 1.389 . S
C490 C489 1.389 . S
C490 C491 1.387 1_545 S
C491 H476 0.930 . S
C491 C486 1.390 1_565 S
C491 C490 1.387 1_565 S
H492 C504 0.930 . S
H493 C506 0.930 . S
H494 C507 0.930 . S
H495 C511 0.959 1_554 S
H496 C511 0.959 . S
H497 C511 0.961 . S
H498 C512 0.960 . S
H499 C512 0.961 . S
H500 C512 0.959 . S
H501 C515 0.929 1_554 S
H502 C516 0.931 . S
H503 C518 0.930 . S
C504 H492 0.930 . S
C504 C505 1.399 . S
C504 C509 1.399 . S
C505 C504 1.399 . S
C505 C506 1.376 . S
C506 H493 0.930 . S
C506 C505 1.376 . S
C506 C507 1.388 . S
C507 H494 0.930 . S
C507 C506 1.388 . S
C507 C508 1.390 . S
C508 C507 1.390 . S
C508 C509 1.394 . S
C508 C514 1.463 . S
C509 C504 1.399 . S
C509 C508 1.394 . S
C509 C510 1.516 1_554 S
C510 C509 1.516 1_556 S
C510 C511 1.502 . S
C510 C512 1.561 . S
C510 C513 1.526 . S
C511 H495 0.959 1_556 S
C511 H496 0.959 . S
C511 H497 0.961 . S
C511 C510 1.502 . S
C512 H498 0.960 . S
C512 H499 0.961 . S
C512 H500 0.959 . S
C512 C510 1.561 . S
C513 C510 1.526 . S
C513 C514 1.398 1_556 S
C513 C518 1.390 . S
C514 C508 1.463 . S
C514 C513 1.398 1_554 S
C514 C515 1.399 1_554 S
C515 H501 0.929 1_556 S
C515 C514 1.399 1_556 S
C515 C516 1.385 . S
C516 H502 0.931 . S
C516 C515 1.385 . S
C516 C517 1.389 . S
C517 C516 1.389 . S
C517 C518 1.387 . S
C518 H503 0.930 . S
C518 C513 1.390 . S
C518 C517 1.387 . S
H519 C531 0.930 . S
H520 C533 0.930 1_455 S
H521 C534 0.930 . S
H522 C538 0.959 . S
H523 C538 0.959 . S
H524 C538 0.961 . S
H525 C539 0.960 . S
H526 C539 0.961 . S
H527 C539 0.959 . S
H528 C542 0.929 . S
H529 C543 0.931 . S
H530 C545 0.930 . S
C531 H519 0.930 . S
C531 C532 1.399 . S
C531 C536 1.399 . S
C532 C531 1.399 . S
C532 C533 1.376 . S
C533 H520 0.930 1_655 S
C533 C532 1.376 . S
C533 C534 1.388 1_655 S
C534 H521 0.930 . S
C534 C533 1.388 1_455 S
C534 C535 1.390 1_455 S
C535 C534 1.390 1_655 S
C535 C536 1.394 . S
C535 C541 1.465 . S
C536 C531 1.399 . S
C536 C535 1.394 . S
C536 C537 1.516 . S
C537 C536 1.516 . S
C537 C538 1.502 . S
C537 C539 1.561 . S
C537 C540 1.526 . S
C538 H522 0.959 . S
C538 H523 0.959 . S
C538 H524 0.961 . S
C538 C537 1.502 . S
C539 H525 0.960 . S
C539 H526 0.961 . S
C539 H527 0.959 . S
C539 C537 1.561 . S
C540 C537 1.526 . S
C540 C541 1.396 . S
C540 C545 1.390 . S
C541 C535 1.465 . S
C541 C540 1.396 . S
C541 C542 1.399 1_655 S
C542 H528 0.929 . S
C542 C541 1.399 1_455 S
C542 C543 1.385 . S
C543 H529 0.931 . S
C543 C542 1.385 . S
C543 C544 1.384 1_455 S
C544 C543 1.384 1_655 S
C544 C545 1.404 . S
C545 H530 0.930 . S
C545 C540 1.390 . S
C545 C544 1.404 . S
H546 C558 0.930 . S
H547 C560 0.930 . S
H548 C561 0.930 . S
H549 C565 0.959 . S
H550 C565 0.959 . S
H551 C565 0.961 . S
H552 C566 0.960 . S
H553 C566 0.961 . S
H554 C566 0.959 . S
H555 C569 0.929 . S
H556 C570 0.931 . S
H557 C572 0.930 . S
C558 H546 0.930 . S
C558 C559 1.399 . S
C558 C563 1.399 . S
C559 C558 1.399 . S
C559 C560 1.376 1_565 S
C560 H547 0.930 . S
C560 C559 1.376 1_545 S
C560 C561 1.388 . S
C561 H548 0.930 . S
C561 C560 1.388 . S
C561 C562 1.390 1_545 S
C562 C561 1.390 1_565 S
C562 C563 1.394 . S
C562 C568 1.469 1_565 S
C563 C558 1.399 . S
C563 C562 1.394 . S
C563 C564 1.516 . S
C564 C563 1.516 . S
C564 C565 1.502 . S
C564 C566 1.561 . S
C564 C567 1.526 . S
C565 H549 0.959 . S
C565 H550 0.959 . S
C565 H551 0.961 . S
C565 C564 1.502 . S
C566 H552 0.960 . S
C566 H553 0.961 . S
C566 H554 0.959 . S
C566 C564 1.561 . S
C567 C564 1.526 . S
C567 C568 1.377 1_565 S
C567 C572 1.390 . S
C568 C562 1.469 1_545 S
C568 C567 1.377 1_545 S
C568 C569 1.411 . S
C569 H555 0.929 . S
C569 C568 1.411 . S
C569 C570 1.385 . S
C570 H556 0.931 . S
C570 C569 1.385 . S
C570 C571 1.404 . S
C571 C570 1.404 . S
C571 C572 1.377 1_545 S
C572 H557 0.930 . S
C572 C567 1.390 . S
C572 C571 1.377 1_565 S
H573 C585 0.930 . S
H574 C587 0.930 . S
H575 C588 0.930 . S
H576 C592 0.959 . S
H577 C592 0.959 . S
H578 C592 0.961 . S
H579 C593 0.960 . S
H580 C593 0.961 . S
H581 C593 0.959 . S
H582 C596 0.929 . S
H583 C597 0.931 . S
H584 C599 0.930 . S
C585 H573 0.930 . S
C585 C586 1.399 . S
C585 C590 1.399 . S
C586 C585 1.399 . S
C586 C587 1.376 . S
C587 H574 0.930 . S
C587 C586 1.376 . S
C587 C588 1.388 . S
C588 H575 0.930 . S
C588 C587 1.388 . S
C588 C589 1.390 . S
C589 C588 1.390 . S
C589 C590 1.394 . S
C589 C595 1.465 . S
C590 C585 1.399 . S
C590 C589 1.394 . S
C590 C591 1.516 1_554 S
C591 C590 1.516 1_556 S
C591 C592 1.502 . S
C591 C593 1.561 . S
C591 C594 1.526 . S
C592 H576 0.959 . S
C592 H577 0.959 . S
C592 H578 0.961 . S
C592 C591 1.502 . S
C593 H579 0.960 . S
C593 H580 0.961 . S
C593 H581 0.959 . S
C593 C591 1.561 . S
C594 C591 1.526 . S
C594 C595 1.396 1_556 S
C594 C599 1.390 . S
C595 C589 1.465 . S
C595 C594 1.396 1_554 S
C595 C596 1.399 . S
C596 H582 0.929 . S
C596 C595 1.399 . S
C596 C597 1.385 1_554 S
C597 H583 0.931 . S
C597 C596 1.385 1_556 S
C597 C598 1.389 . S
C598 C597 1.389 . S
C598 C599 1.387 . S
C599 H584 0.930 . S
C599 C594 1.390 . S
C599 C598 1.387 . S
H600 C612 0.930 . S
H601 C614 0.931 . S
H602 C615 0.930 . S
H603 C619 0.959 . S
H604 C619 0.959 . S
H605 C619 0.961 . S
H606 C620 0.960 . S
H607 C620 0.961 . S
H608 C620 0.959 . S
H609 C623 0.929 . S
H610 C624 0.931 . S
H611 C626 0.930 . S
C612 H600 0.930 . S
C612 C613 1.399 . S
C612 C617 1.399 . S
C613 C612 1.399 . S
C613 C614 1.371 1_455 S
C614 H601 0.931 . S
C614 C613 1.371 1_655 S
C614 C615 1.393 . S
C615 H602 0.930 . S
C615 C614 1.393 . S
C615 C616 1.390 1_655 S
C616 C615 1.390 1_455 S
C616 C617 1.394 . S
C616 C622 1.474 . S
C617 C612 1.399 . S
C617 C616 1.394 . S
C617 C618 1.516 . S
C618 C617 1.516 . S
C618 C619 1.502 . S
C618 C620 1.561 . S
C618 C621 1.526 . S
C619 H603 0.959 . S
C619 H604 0.959 . S
C619 H605 0.961 . S
C619 C618 1.502 . S
C620 H606 0.960 . S
C620 H607 0.961 . S
C620 H608 0.959 . S
C620 C618 1.561 . S
C621 C618 1.526 . S
C621 C622 1.403 . S
C621 C626 1.390 . S
C622 C616 1.474 . S
C622 C621 1.403 . S
C622 C623 1.385 1_455 S
C623 H609 0.929 . S
C623 C622 1.385 1_655 S
C623 C624 1.385 . S
C624 H610 0.931 . S
C624 C623 1.385 . S
C624 C625 1.388 1_655 S
C625 C624 1.388 1_455 S
C625 C626 1.390 . S
C626 H611 0.930 . S
C626 C621 1.390 . S
C626 C625 1.390 . S
C328 C269 1.389 . S
C316 C29 1.389 . S
C343 C137 1.460 . S
C355 C287 1.462 . S
C370 C225 1.437 . S
C382 C300 1.495 . S
C397 C49 1.365 . S
C409 C267 1.412 . S
C436 C278 1.490 . S
C424 C117 1.430 . S
C451 C205 1.463 . S
C463 C291 1.484 . S
C490 C280 1.409 1_545 S
C478 C233 1.405 . S
C505 C57 1.363 . S
C517 C293 1.411 . S
C544 C274 1.477 . S
C532 C108 1.440 . S
C571 C282 1.405 1_545 S
C559 C196 1.355 . S
C598 C295 1.376 . S
C586 C20 1.393 . S
C613 C145 1.434 . S
C625 C265 1.484 1_455 S
