# Generated by pormake.
# Topology gar, (4,6)-cn, num edge types: 1
# Building blocks:
#     Node 0, Type 0, BuildingBlock: UXUYUI_clean_sbu_0, # of connection points: 4
#     Node 1, Type 0, BuildingBlock: UXUYUI_clean_sbu_0, # of connection points: 4
#     Node 2, Type 0, BuildingBlock: UXUYUI_clean_sbu_0, # of connection points: 4
#     Node 3, Type 0, BuildingBlock: UXUYUI_clean_sbu_0, # of connection points: 4
#     Node 4, Type 0, BuildingBlock: UXUYUI_clean_sbu_0, # of connection points: 4
#     Node 5, Type 0, BuildingBlock: UXUYUI_clean_sbu_0, # of connection points: 4
#     Node 6, Type 0, BuildingBlock: UXUYUI_clean_sbu_0, # of connection points: 4
#     Node 7, Type 0, BuildingBlock: UXUYUI_clean_sbu_0, # of connection points: 4
#     Node 8, Type 0, BuildingBlock: UXUYUI_clean_sbu_0, # of connection points: 4
#     Node 9, Type 0, BuildingBlock: UXUYUI_clean_sbu_0, # of connection points: 4
#     Node 10, Type 0, BuildingBlock: UXUYUI_clean_sbu_0, # of connection points: 4
#     Node 11, Type 0, BuildingBlock: UXUYUI_clean_sbu_0, # of connection points: 4
#     Node 12, Type 0, BuildingBlock: UXUYUI_clean_sbu_0, # of connection points: 4
#     Node 13, Type 0, BuildingBlock: UXUYUI_clean_sbu_0, # of connection points: 4
#     Node 14, Type 0, BuildingBlock: UXUYUI_clean_sbu_0, # of connection points: 4
#     Node 15, Type 0, BuildingBlock: UXUYUI_clean_sbu_0, # of connection points: 4
#     Node 16, Type 0, BuildingBlock: UXUYUI_clean_sbu_0, # of connection points: 4
#     Node 17, Type 0, BuildingBlock: UXUYUI_clean_sbu_0, # of connection points: 4
#     Node 18, Type 0, BuildingBlock: UXUYUI_clean_sbu_0, # of connection points: 4
#     Node 19, Type 0, BuildingBlock: UXUYUI_clean_sbu_0, # of connection points: 4
#     Node 20, Type 0, BuildingBlock: UXUYUI_clean_sbu_0, # of connection points: 4
#     Node 21, Type 0, BuildingBlock: UXUYUI_clean_sbu_0, # of connection points: 4
#     Node 22, Type 0, BuildingBlock: UXUYUI_clean_sbu_0, # of connection points: 4
#     Node 23, Type 0, BuildingBlock: UXUYUI_clean_sbu_0, # of connection points: 4
#     Node 24, Type 1, BuildingBlock: KUMBOL_clean_sbu_0, # of connection points: 6
#     Node 25, Type 1, BuildingBlock: KUMBOL_clean_sbu_0, # of connection points: 6
#     Node 26, Type 1, BuildingBlock: KUMBOL_clean_sbu_0, # of connection points: 6
#     Node 27, Type 1, BuildingBlock: KUMBOL_clean_sbu_0, # of connection points: 6
#     Node 28, Type 1, BuildingBlock: KUMBOL_clean_sbu_0, # of connection points: 6
#     Node 29, Type 1, BuildingBlock: KUMBOL_clean_sbu_0, # of connection points: 6
#     Node 30, Type 1, BuildingBlock: KUMBOL_clean_sbu_0, # of connection points: 6
#     Node 31, Type 1, BuildingBlock: KUMBOL_clean_sbu_0, # of connection points: 6
#     Node 32, Type 1, BuildingBlock: KUMBOL_clean_sbu_0, # of connection points: 6
#     Node 33, Type 1, BuildingBlock: KUMBOL_clean_sbu_0, # of connection points: 6
#     Node 34, Type 1, BuildingBlock: KUMBOL_clean_sbu_0, # of connection points: 6
#     Node 35, Type 1, BuildingBlock: KUMBOL_clean_sbu_0, # of connection points: 6
#     Node 36, Type 1, BuildingBlock: KUMBOL_clean_sbu_0, # of connection points: 6
#     Node 37, Type 1, BuildingBlock: KUMBOL_clean_sbu_0, # of connection points: 6
#     Node 38, Type 1, BuildingBlock: KUMBOL_clean_sbu_0, # of connection points: 6
#     Node 39, Type 1, BuildingBlock: KUMBOL_clean_sbu_0, # of connection points: 6
#     Edge 40, Type (0, 1), BuildingBlock: KIFKEQ_clean_linker_1, # of connection points: 2
#     Edge 41, Type (0, 1), BuildingBlock: KIFKEQ_clean_linker_1, # of connection points: 2
#     Edge 42, Type (0, 1), BuildingBlock: KIFKEQ_clean_linker_1, # of connection points: 2
#     Edge 43, Type (0, 1), BuildingBlock: KIFKEQ_clean_linker_1, # of connection points: 2
#     Edge 44, Type (0, 1), BuildingBlock: KIFKEQ_clean_linker_1, # of connection points: 2
#     Edge 45, Type (0, 1), BuildingBlock: KIFKEQ_clean_linker_1, # of connection points: 2
#     Edge 46, Type (0, 1), BuildingBlock: KIFKEQ_clean_linker_1, # of connection points: 2
#     Edge 47, Type (0, 1), BuildingBlock: KIFKEQ_clean_linker_1, # of connection points: 2
#     Edge 48, Type (0, 1), BuildingBlock: KIFKEQ_clean_linker_1, # of connection points: 2
#     Edge 49, Type (0, 1), BuildingBlock: KIFKEQ_clean_linker_1, # of connection points: 2
#     Edge 50, Type (0, 1), BuildingBlock: KIFKEQ_clean_linker_1, # of connection points: 2
#     Edge 51, Type (0, 1), BuildingBlock: KIFKEQ_clean_linker_1, # of connection points: 2
#     Edge 52, Type (0, 1), BuildingBlock: KIFKEQ_clean_linker_1, # of connection points: 2
#     Edge 53, Type (0, 1), BuildingBlock: KIFKEQ_clean_linker_1, # of connection points: 2
#     Edge 54, Type (0, 1), BuildingBlock: KIFKEQ_clean_linker_1, # of connection points: 2
#     Edge 55, Type (0, 1), BuildingBlock: KIFKEQ_clean_linker_1, # of connection points: 2
#     Edge 56, Type (0, 1), BuildingBlock: KIFKEQ_clean_linker_1, # of connection points: 2
#     Edge 57, Type (0, 1), BuildingBlock: KIFKEQ_clean_linker_1, # of connection points: 2
#     Edge 58, Type (0, 1), BuildingBlock: KIFKEQ_clean_linker_1, # of connection points: 2
#     Edge 59, Type (0, 1), BuildingBlock: KIFKEQ_clean_linker_1, # of connection points: 2
#     Edge 60, Type (0, 1), BuildingBlock: KIFKEQ_clean_linker_1, # of connection points: 2
#     Edge 61, Type (0, 1), BuildingBlock: KIFKEQ_clean_linker_1, # of connection points: 2
#     Edge 62, Type (0, 1), BuildingBlock: KIFKEQ_clean_linker_1, # of connection points: 2
#     Edge 63, Type (0, 1), BuildingBlock: KIFKEQ_clean_linker_1, # of connection points: 2
#     Edge 64, Type (0, 1), BuildingBlock: KIFKEQ_clean_linker_1, # of connection points: 2
#     Edge 65, Type (0, 1), BuildingBlock: KIFKEQ_clean_linker_1, # of connection points: 2
#     Edge 66, Type (0, 1), BuildingBlock: KIFKEQ_clean_linker_1, # of connection points: 2
#     Edge 67, Type (0, 1), BuildingBlock: KIFKEQ_clean_linker_1, # of connection points: 2
#     Edge 68, Type (0, 1), BuildingBlock: KIFKEQ_clean_linker_1, # of connection points: 2
#     Edge 69, Type (0, 1), BuildingBlock: KIFKEQ_clean_linker_1, # of connection points: 2
#     Edge 70, Type (0, 1), BuildingBlock: KIFKEQ_clean_linker_1, # of connection points: 2
#     Edge 71, Type (0, 1), BuildingBlock: KIFKEQ_clean_linker_1, # of connection points: 2
#     Edge 72, Type (0, 1), BuildingBlock: KIFKEQ_clean_linker_1, # of connection points: 2
#     Edge 73, Type (0, 1), BuildingBlock: KIFKEQ_clean_linker_1, # of connection points: 2
#     Edge 74, Type (0, 1), BuildingBlock: KIFKEQ_clean_linker_1, # of connection points: 2
#     Edge 75, Type (0, 1), BuildingBlock: KIFKEQ_clean_linker_1, # of connection points: 2
#     Edge 76, Type (0, 1), BuildingBlock: KIFKEQ_clean_linker_1, # of connection points: 2
#     Edge 77, Type (0, 1), BuildingBlock: KIFKEQ_clean_linker_1, # of connection points: 2
#     Edge 78, Type (0, 1), BuildingBlock: KIFKEQ_clean_linker_1, # of connection points: 2
#     Edge 79, Type (0, 1), BuildingBlock: KIFKEQ_clean_linker_1, # of connection points: 2
#     Edge 80, Type (0, 1), BuildingBlock: KIFKEQ_clean_linker_1, # of connection points: 2
#     Edge 81, Type (0, 1), BuildingBlock: KIFKEQ_clean_linker_1, # of connection points: 2
#     Edge 82, Type (0, 1), BuildingBlock: KIFKEQ_clean_linker_1, # of connection points: 2
#     Edge 83, Type (0, 1), BuildingBlock: KIFKEQ_clean_linker_1, # of connection points: 2
#     Edge 84, Type (0, 1), BuildingBlock: KIFKEQ_clean_linker_1, # of connection points: 2
#     Edge 85, Type (0, 1), BuildingBlock: KIFKEQ_clean_linker_1, # of connection points: 2
#     Edge 86, Type (0, 1), BuildingBlock: KIFKEQ_clean_linker_1, # of connection points: 2
#     Edge 87, Type (0, 1), BuildingBlock: KIFKEQ_clean_linker_1, # of connection points: 2
#     Edge 88, Type (0, 1), BuildingBlock: KIFKEQ_clean_linker_1, # of connection points: 2
#     Edge 89, Type (0, 1), BuildingBlock: KIFKEQ_clean_linker_1, # of connection points: 2
#     Edge 90, Type (0, 1), BuildingBlock: KIFKEQ_clean_linker_1, # of connection points: 2
#     Edge 91, Type (0, 1), BuildingBlock: KIFKEQ_clean_linker_1, # of connection points: 2
#     Edge 92, Type (0, 1), BuildingBlock: KIFKEQ_clean_linker_1, # of connection points: 2
#     Edge 93, Type (0, 1), BuildingBlock: KIFKEQ_clean_linker_1, # of connection points: 2
#     Edge 94, Type (0, 1), BuildingBlock: KIFKEQ_clean_linker_1, # of connection points: 2
#     Edge 95, Type (0, 1), BuildingBlock: KIFKEQ_clean_linker_1, # of connection points: 2
#     Edge 96, Type (0, 1), BuildingBlock: KIFKEQ_clean_linker_1, # of connection points: 2
#     Edge 97, Type (0, 1), BuildingBlock: KIFKEQ_clean_linker_1, # of connection points: 2
#     Edge 98, Type (0, 1), BuildingBlock: KIFKEQ_clean_linker_1, # of connection points: 2
#     Edge 99, Type (0, 1), BuildingBlock: KIFKEQ_clean_linker_1, # of connection points: 2
#     Edge 100, Type (0, 1), BuildingBlock: KIFKEQ_clean_linker_1, # of connection points: 2
#     Edge 101, Type (0, 1), BuildingBlock: KIFKEQ_clean_linker_1, # of connection points: 2
#     Edge 102, Type (0, 1), BuildingBlock: KIFKEQ_clean_linker_1, # of connection points: 2
#     Edge 103, Type (0, 1), BuildingBlock: KIFKEQ_clean_linker_1, # of connection points: 2
#     Edge 104, Type (0, 1), BuildingBlock: KIFKEQ_clean_linker_1, # of connection points: 2
#     Edge 105, Type (0, 1), BuildingBlock: KIFKEQ_clean_linker_1, # of connection points: 2
#     Edge 106, Type (0, 1), BuildingBlock: KIFKEQ_clean_linker_1, # of connection points: 2
#     Edge 107, Type (0, 1), BuildingBlock: KIFKEQ_clean_linker_1, # of connection points: 2
#     Edge 108, Type (0, 1), BuildingBlock: KIFKEQ_clean_linker_1, # of connection points: 2
#     Edge 109, Type (0, 1), BuildingBlock: KIFKEQ_clean_linker_1, # of connection points: 2
#     Edge 110, Type (0, 1), BuildingBlock: KIFKEQ_clean_linker_1, # of connection points: 2
#     Edge 111, Type (0, 1), BuildingBlock: KIFKEQ_clean_linker_1, # of connection points: 2
#     Edge 112, Type (0, 1), BuildingBlock: KIFKEQ_clean_linker_1, # of connection points: 2
#     Edge 113, Type (0, 1), BuildingBlock: KIFKEQ_clean_linker_1, # of connection points: 2
#     Edge 114, Type (0, 1), BuildingBlock: KIFKEQ_clean_linker_1, # of connection points: 2
#     Edge 115, Type (0, 1), BuildingBlock: KIFKEQ_clean_linker_1, # of connection points: 2
#     Edge 116, Type (0, 1), BuildingBlock: KIFKEQ_clean_linker_1, # of connection points: 2
#     Edge 117, Type (0, 1), BuildingBlock: KIFKEQ_clean_linker_1, # of connection points: 2
#     Edge 118, Type (0, 1), BuildingBlock: KIFKEQ_clean_linker_1, # of connection points: 2
#     Edge 119, Type (0, 1), BuildingBlock: KIFKEQ_clean_linker_1, # of connection points: 2
#     Edge 120, Type (0, 1), BuildingBlock: KIFKEQ_clean_linker_1, # of connection points: 2
#     Edge 121, Type (0, 1), BuildingBlock: KIFKEQ_clean_linker_1, # of connection points: 2
#     Edge 122, Type (0, 1), BuildingBlock: KIFKEQ_clean_linker_1, # of connection points: 2
#     Edge 123, Type (0, 1), BuildingBlock: KIFKEQ_clean_linker_1, # of connection points: 2
#     Edge 124, Type (0, 1), BuildingBlock: KIFKEQ_clean_linker_1, # of connection points: 2
#     Edge 125, Type (0, 1), BuildingBlock: KIFKEQ_clean_linker_1, # of connection points: 2
#     Edge 126, Type (0, 1), BuildingBlock: KIFKEQ_clean_linker_1, # of connection points: 2
#     Edge 127, Type (0, 1), BuildingBlock: KIFKEQ_clean_linker_1, # of connection points: 2
#     Edge 128, Type (0, 1), BuildingBlock: KIFKEQ_clean_linker_1, # of connection points: 2
#     Edge 129, Type (0, 1), BuildingBlock: KIFKEQ_clean_linker_1, # of connection points: 2
#     Edge 130, Type (0, 1), BuildingBlock: KIFKEQ_clean_linker_1, # of connection points: 2
#     Edge 131, Type (0, 1), BuildingBlock: KIFKEQ_clean_linker_1, # of connection points: 2
#     Edge 132, Type (0, 1), BuildingBlock: KIFKEQ_clean_linker_1, # of connection points: 2
#     Edge 133, Type (0, 1), BuildingBlock: KIFKEQ_clean_linker_1, # of connection points: 2
#     Edge 134, Type (0, 1), BuildingBlock: KIFKEQ_clean_linker_1, # of connection points: 2
#     Edge 135, Type (0, 1), BuildingBlock: KIFKEQ_clean_linker_1, # of connection points: 2
# Relax obj value: 0.141
# Max RMSD: 0.308
# Mean RMSD: 0.195
data_MOF--net-gar--node1-UXUYUI_clean_sbu_0--node2-KUMBOL_clean_sbu_0--edge1-KIFKEQ_clean_linker_1
_symmetry_space_group_name_H-M    P1
_symmetry_Int_Tables_number       1
_symmetry_cell_setting            triclinic
loop_
_symmetry_equiv_pos_as_xyz
'x, y, z'
_cell_length_a     74.163857
_cell_length_b     70.064114
_cell_length_c     70.355292
_cell_angle_alpha  99.985404
_cell_angle_beta   93.054099
_cell_angle_gamma 102.36251
loop_
_atom_site_label
_atom_site_type_symbol
_atom_site_fract_x
_atom_site_fract_y
_atom_site_fract_z
_atom_type_partial_charge
Li0 Li 0.08512 0.32144 0.37651 0.0
Li1 Li 0.11074 0.33908 0.39954 0.0
Li2 Li 0.1162 0.31711 0.37101 0.0
Li3 Li 0.10021 0.30344 0.3982 0.0
C4 C 0.10492 0.3519 0.35803 0.0
N5 N 0.10097 0.37315 0.32901 0.0
C6 C 0.10328 0.37166 0.36267 0.0
C7 C 0.10478 0.34307 0.3386 0.0
C8 C 0.1012 0.38211 0.34781 0.0
C9 C 0.10273 0.35403 0.32415 0.0
C10 C 0.07415 0.33497 0.41309 0.0
C11 C 0.0491 0.338 0.43307 0.0
N12 N 0.0496 0.3564 0.42905 0.0
C13 C 0.07444 0.35391 0.4092 0.0
C14 C 0.06142 0.32694 0.42516 0.0
C15 C 0.06192 0.36451 0.41739 0.0
C16 C 0.04895 0.3051 0.35768 0.0
N17 N 0.06191 0.32227 0.36426 0.0
C18 C 0.04225 0.34132 0.35241 0.0
C19 C 0.05869 0.34018 0.36214 0.0
C20 C 0.02889 0.32382 0.34479 0.0
C21 C 0.03225 0.30552 0.34775 0.0
H22 H 0.05168 0.29106 0.3599 0.0
H23 H 0.06884 0.35367 0.36803 0.0
C24 C 0.12928 0.37925 0.40859 0.0
N25 N 0.12008 0.36388 0.41627 0.0
C26 C 0.13144 0.39877 0.4185 0.0
C27 C 0.11657 0.38593 0.44492 0.0
C28 C 0.11461 0.3667 0.43446 0.0
C29 C 0.12421 0.40226 0.43649 0.0
H30 H 0.13365 0.37644 0.39415 0.0
H31 H 0.10734 0.35412 0.44016 0.0
C32 C 0.08809 0.28191 0.35339 0.0
N33 N 0.07841 0.25309 0.32013 0.0
C34 C 0.08837 0.26214 0.35398 0.0
C35 C 0.0827 0.28699 0.33595 0.0
C36 C 0.08348 0.24779 0.33698 0.0
C37 C 0.07791 0.27222 0.31927 0.0
C38 C 0.13993 0.32945 0.41209 0.0
C39 C 0.15548 0.34179 0.40672 0.0
C40 C 0.13814 0.32889 0.43167 0.0
C41 C 0.169 0.35347 0.42111 0.0
C42 C 0.15196 0.3408 0.44562 0.0
N43 N 0.16697 0.35275 0.44009 0.0
C44 C 0.145 0.32964 0.34908 0.0
C45 C 0.13379 0.29462 0.34339 0.0
C46 C 0.1588 0.32775 0.33665 0.0
N47 N 0.13304 0.31319 0.35236 0.0
C48 C 0.14729 0.29203 0.33075 0.0
C49 C 0.1603 0.30871 0.32763 0.0
H50 H 0.14418 0.34421 0.35662 0.0
H51 H 0.12437 0.28176 0.34652 0.0
C52 C 0.07836 0.27519 0.41574 0.0
N53 N 0.09607 0.28262 0.41226 0.0
C54 C 0.07459 0.2606 0.42709 0.0
C55 C 0.10735 0.26125 0.4306 0.0
C56 C 0.11049 0.2759 0.41922 0.0
C57 C 0.08921 0.25353 0.43483 0.0
H58 H 0.06721 0.28084 0.40992 0.0
H59 H 0.12443 0.28209 0.41612 0.0
O60 O 0.10726 0.34157 0.37249 0.0
O61 O 0.08639 0.32435 0.40537 0.0
O62 O 0.09283 0.2961 0.36993 0.0
O63 O 0.12626 0.3184 0.39829 0.0
H64 H 0.1033 0.3788 0.37759 0.0
H65 H 0.10649 0.32802 0.33468 0.0
H66 H 0.09976 0.39734 0.35122 0.0
H67 H 0.10261 0.34736 0.30906 0.0
H68 H 0.03917 0.33196 0.44243 0.0
H69 H 0.08433 0.36043 0.40006 0.0
H70 H 0.06109 0.31235 0.42843 0.0
H71 H 0.06202 0.37921 0.41451 0.0
H72 H 0.04001 0.35579 0.35097 0.0
H73 H 0.02228 0.29167 0.34214 0.0
H74 H 0.13764 0.41098 0.41165 0.0
H75 H 0.11067 0.38795 0.45869 0.0
H76 H 0.0924 0.25797 0.36742 0.0
H77 H 0.08194 0.30209 0.33533 0.0
H78 H 0.08371 0.23245 0.3372 0.0
H79 H 0.07371 0.27595 0.30568 0.0
H80 H 0.157 0.34248 0.39163 0.0
H81 H 0.12607 0.31958 0.43607 0.0
H82 H 0.18107 0.36317 0.41718 0.0
H83 H 0.15072 0.34061 0.46084 0.0
H84 H 0.16877 0.34098 0.33497 0.0
H85 H 0.14794 0.2771 0.32403 0.0
H86 H 0.06043 0.25531 0.43016 0.0
H87 H 0.119 0.25604 0.436 0.0
Li88 Li 0.01008 0.78481 0.6432 0.0
Li89 Li 0.02614 0.76992 0.66735 0.0
Li90 Li 1.00293 0.74938 0.64213 0.0
Li91 Li 0.99316 0.76934 0.66916 0.0
C92 C 0.03299 0.75594 0.62351 0.0
N93 N 0.04374 0.73269 0.59223 0.0
C94 C 0.04641 0.74517 0.62633 0.0
C95 C 0.02519 0.75508 0.60477 0.0
C96 C 0.05163 0.73346 0.61033 0.0
C97 C 0.03075 0.74318 0.58915 0.0
C98 C 0.02286 0.80619 0.68852 0.0
C99 C 0.03061 0.81423 0.72312 0.0
N100 N 0.04091 0.83228 0.72134 0.0
C101 C 0.03345 0.82484 0.68701 0.0
C102 C 0.02134 0.80085 0.7067 0.0
C103 C 0.04249 0.83782 0.70379 0.0
C104 C 1.00032 0.81468 0.62457 0.0
N105 N 0.01379 0.80514 0.62856 0.0
C106 C 0.03428 0.82309 0.60947 0.0
C107 C 0.03057 0.80915 0.62146 0.0
C108 C 0.02061 0.83307 0.60481 0.0
C109 C 1.00344 0.82879 0.61258 0.0
H110 H 0.98708 0.81109 0.63044 0.0
H111 H 0.04098 0.80125 0.62488 0.0
C112 C 0.05116 0.75153 0.68223 0.0
N113 N 0.04873 0.76998 0.6811 0.0
C114 C 0.06754 0.74917 0.6911 0.0
C115 C 0.07875 0.78494 0.69759 0.0
C116 C 0.06211 0.78659 0.68842 0.0
C117 C 0.08162 0.76599 0.69885 0.0
H118 H 0.04043 0.73856 0.67594 0.0
H119 H 0.06006 0.80106 0.68686 0.0
C120 C 0.97171 0.75873 0.62596 0.0
N121 N 0.94442 0.74291 0.59559 0.0
C122 C 0.95554 0.74536 0.62862 0.0
C123 C 0.97392 0.76417 0.60787 0.0
C124 C 0.94194 0.73749 0.61308 0.0
C125 C 0.95999 0.75598 0.59269 0.0
C126 C 1.00097 0.73562 0.68237 0.0
C127 C 0.98821 0.7174 0.67642 0.0
C128 C 0.00896 0.74104 0.70152 0.0
C129 C 0.98343 0.70505 0.68982 0.0
C130 C 1.00386 0.72826 0.71448 0.0
N131 N 0.99129 0.71069 0.70842 0.0
C132 C 0.00875 0.71238 0.63415 0.0
C133 C 0.98702 0.71636 0.61002 0.0
C134 C 0.0079 0.69301 0.62493 0.0
N135 N 0.99837 0.72359 0.62671 0.0
C136 C 0.98571 0.69691 0.60026 0.0
C137 C 0.99629 0.68504 0.60775 0.0
H138 H 0.018 0.71869 0.64716 0.0
H139 H 0.97927 0.72561 0.60402 0.0
C140 C 0.97254 0.78626 0.69828 0.0
N141 N 0.97412 0.76967 0.68583 0.0
C142 C 0.95764 0.78554 0.70969 0.0
C143 C 0.94655 0.75071 0.69528 0.0
C144 C 0.96157 0.75213 0.68423 0.0
C145 C 0.94429 0.76762 0.70797 0.0
H146 H 0.98257 0.80013 0.69901 0.0
H147 H 0.96297 0.73929 0.67401 0.0
O148 O 0.02735 0.7671 0.63903 0.0
O149 O 0.01398 0.79329 0.67226 0.0
O150 O 0.98503 0.76691 0.64111 0.0
O151 O 0.0061 0.74772 0.66931 0.0
H152 H 0.05263 0.74572 0.64073 0.0
H153 H 0.01484 0.76338 0.60234 0.0
H154 H 0.06193 0.72495 0.6123 0.0
H155 H 0.02473 0.74226 0.57458 0.0
H156 H 0.02957 0.81028 0.73729 0.0
H157 H 0.03471 0.82918 0.67302 0.0
H158 H 0.01302 0.78658 0.7081 0.0
H159 H 0.05078 0.85228 0.70286 0.0
H160 H 0.0476 0.82569 0.60357 0.0
H161 H 0.99259 0.83629 0.60949 0.0
H162 H 0.06915 0.73432 0.69191 0.0
H163 H 0.0894 0.79825 0.70318 0.0
H164 H 0.95349 0.74104 0.64248 0.0
H165 H 0.98626 0.77453 0.6055 0.0
H166 H 0.92939 0.72708 0.61494 0.0
H167 H 0.96156 0.76001 0.57861 0.0
H168 H 0.98186 0.71294 0.66165 0.0
H169 H 0.01917 0.75485 0.7063 0.0
H170 H 0.97348 0.69098 0.68542 0.0
H171 H 0.00994 0.73227 0.72935 0.0
H172 H 0.01675 0.68461 0.63088 0.0
H173 H 0.97671 0.69131 0.58693 0.0
H174 H 0.95616 0.79896 0.71913 0.0
H175 H 0.93658 0.73661 0.69361 0.0
Li176 Li 0.58498 0.82027 0.87563 0.0
Li177 Li 0.60958 0.83723 0.90057 0.0
Li178 Li 0.617 0.81707 0.87243 0.0
Li179 Li 0.59983 0.80169 0.89813 0.0
C180 C 0.60486 0.85147 0.85949 0.0
N181 N 0.6006 0.87297 0.83075 0.0
C182 C 0.60185 0.8707 0.86425 0.0
C183 C 0.60584 0.84327 0.8401 0.0
C184 C 0.59966 0.88129 0.84953 0.0
C185 C 0.60363 0.85436 0.82579 0.0
C186 C 0.57687 0.83223 0.91819 0.0
C187 C 0.56593 0.83677 0.94998 0.0
N188 N 0.56141 0.85389 0.94693 0.0
C189 C 0.57211 0.84985 0.91538 0.0
C190 C 0.57378 0.82562 0.93564 0.0
C191 C 0.56432 0.8606 0.93009 0.0
C192 C 0.55044 0.80372 0.85318 0.0
N193 N 0.56228 0.82096 0.86211 0.0
C194 C 0.5421 0.8401 0.85137 0.0
C195 C 0.55826 0.83891 0.86165 0.0
C196 C 0.52981 0.82261 0.8416 0.0
C197 C 0.534 0.8042 0.84275 0.0
H198 H 0.5538 0.7896 0.85405 0.0
H199 H 0.56753 0.85237 0.86928 0.0
C200 C 0.62749 0.87718 0.90948 0.0
N201 N 0.6186 0.86206 0.9177 0.0
C202 C 0.63051 0.89679 0.91933 0.0
C203 C 0.6174 0.88462 0.94687 0.0
C204 C 0.61466 0.86524 0.93646 0.0
C205 C 0.62449 0.9007 0.93787 0.0
H206 H 0.6312 0.8741 0.89479 0.0
H207 H 0.60828 0.85289 0.94294 0.0
C208 C 0.59243 0.78145 0.85266 0.0
N209 N 0.5898 0.75346 0.81914 0.0
C210 C 0.59562 0.76267 0.85361 0.0
C211 C 0.58767 0.78591 0.83472 0.0
C212 C 0.59428 0.74874 0.83647 0.0
C213 C 0.58648 0.77159 0.81793 0.0
C214 C 0.63831 0.82786 0.9149 0.0
C215 C 0.65424 0.84104 0.91137 0.0
C216 C 0.63509 0.82587 0.93393 0.0
C217 C 0.66665 0.85216 0.927 0.0
C218 C 0.64785 0.83725 0.94917 0.0
N219 N 0.66322 0.85006 0.94542 0.0
C220 C 0.64702 0.83383 0.85496 0.0
C221 C 0.63811 0.79883 0.84428 0.0
C222 C 0.66189 0.83508 0.84361 0.0
N223 N 0.63559 0.81591 0.85518 0.0
C224 C 0.65268 0.79943 0.83247 0.0
C225 C 0.66489 0.81771 0.8323 0.0
H226 H 0.64472 0.84714 0.86388 0.0
H227 H 0.62915 0.78473 0.84501 0.0
C228 C 0.57758 0.77356 0.91569 0.0
N229 N 0.59522 0.78029 0.91155 0.0
C230 C 0.57368 0.75894 0.92699 0.0
C231 C 0.6061 0.75792 0.92893 0.0
C232 C 0.60939 0.7727 0.91769 0.0
C233 C 0.58806 0.75101 0.93395 0.0
H234 H 0.56662 0.77999 0.91063 0.0
H235 H 0.62329 0.77837 0.91413 0.0
O236 O 0.60725 0.84101 0.87382 0.0
O237 O 0.58454 0.82148 0.904 0.0
O238 O 0.59374 0.79526 0.86928 0.0
O239 O 0.62568 0.81734 0.89986 0.0
H240 H 0.60087 0.87727 0.87914 0.0
H241 H 0.60847 0.82859 0.83611 0.0
H242 H 0.59719 0.89611 0.85302 0.0
H243 H 0.60438 0.84818 0.81073 0.0
H244 H 0.56349 0.83185 0.96356 0.0
H245 H 0.57478 0.8554 0.90217 0.0
H246 H 0.57754 0.81211 0.93814 0.0
H247 H 0.56069 0.87434 0.92815 0.0
H248 H 0.53917 0.85458 0.85126 0.0
H249 H 0.52485 0.79036 0.83544 0.0
H250 H 0.63644 0.90878 0.91208 0.0
H251 H 0.6126 0.88694 0.96118 0.0
H252 H 0.59921 0.75897 0.86742 0.0
H253 H 0.58477 0.8002 0.83377 0.0
H254 H 0.59681 0.73418 0.83696 0.0
H255 H 0.58286 0.77486 0.80393 0.0
H256 H 0.65691 0.8428 0.89674 0.0
H257 H 0.62272 0.81589 0.93692 0.0
H258 H 0.67898 0.8625 0.9245 0.0
H259 H 0.64548 0.83597 0.96398 0.0
H260 H 0.67106 0.84942 0.84382 0.0
H261 H 0.65482 0.78569 0.82416 0.0
H262 H 0.55962 0.75436 0.93069 0.0
H263 H 0.61758 0.75206 0.93368 0.0
Li264 Li 0.50996 0.27986 0.14018 0.0
Li265 Li 0.52541 0.26444 0.16296 0.0
Li266 Li 0.50146 0.24437 0.13686 0.0
Li267 Li 0.49224 0.26365 0.16513 0.0
C268 C 0.53843 0.26763 0.12218 0.0
N269 N 0.56331 0.28214 0.09737 0.0
C270 C 0.55723 0.27477 0.12864 0.0
C271 C 0.53232 0.26773 0.10306 0.0
C272 C 0.56958 0.28207 0.11588 0.0
C273 C 0.5451 0.27518 0.09076 0.0
C274 C 0.52084 0.30214 0.18455 0.0
C275 C 0.52352 0.31582 0.21878 0.0
N276 N 0.53553 0.33239 0.21578 0.0
C277 C 0.53304 0.31943 0.18179 0.0
C278 C 0.51587 0.30043 0.20318 0.0
C279 C 0.54038 0.33451 0.19776 0.0
C280 C 0.49915 0.30475 0.11606 0.0
N281 N 0.51371 0.30132 0.12648 0.0
C282 C 0.53487 0.32648 0.11479 0.0
C283 C 0.53125 0.31217 0.12642 0.0
C284 C 0.5202 0.32997 0.10349 0.0
C285 C 0.50209 0.31924 0.10447 0.0
H286 H 0.48533 0.29596 0.11644 0.0
H287 H 0.54256 0.3093 0.13498 0.0
C288 C 0.55223 0.24595 0.17427 0.0
N289 N 0.54797 0.26408 0.17676 0.0
C290 C 0.56853 0.24359 0.18338 0.0
C291 C 0.57594 0.2787 0.19735 0.0
C292 C 0.55943 0.28037 0.18797 0.0
C293 C 0.58069 0.26011 0.19507 0.0
H294 H 0.54289 0.23329 0.16515 0.0
H295 H 0.55594 0.29468 0.1895 0.0
C296 C 0.47086 0.25118 0.12358 0.0
N297 N 0.44415 0.22668 0.09591 0.0
C298 C 0.45497 0.23962 0.12921 0.0
C299 C 0.47308 0.25043 0.10388 0.0
C300 C 0.44164 0.2273 0.115 0.0
C301 C 0.45944 0.23791 0.09011 0.0
C302 C 0.5053 0.23252 0.17989 0.0
C303 C 0.49917 0.21189 0.17782 0.0
C304 C 0.51239 0.2439 0.19811 0.0
C305 C 0.49992 0.20306 0.1941 0.0
C306 C 0.51296 0.23452 0.21404 0.0
N307 N 0.50673 0.21446 0.21173 0.0
C308 C 0.50391 0.21598 0.1042 0.0
C309 C 0.48163 0.20482 0.12518 0.0
C310 C 0.50112 0.19682 0.09338 0.0
N311 N 0.4945 0.21948 0.11998 0.0
C312 C 0.47864 0.1853 0.11497 0.0
C313 C 0.48879 0.18114 0.09914 0.0
H314 H 0.51425 0.22782 0.1006 0.0
H315 H 0.47435 0.20813 0.13782 0.0
C316 C 0.46842 0.2808 0.18947 0.0
N317 N 0.47311 0.26359 0.18171 0.0
C318 C 0.45353 0.28036 0.20085 0.0
C319 C 0.4486 0.24451 0.19583 0.0
C320 C 0.46362 0.24566 0.18469 0.0
C321 C 0.44331 0.26199 0.20392 0.0
H322 H 0.47605 0.29481 0.18654 0.0
H323 H 0.46739 0.23218 0.17794 0.0
O324 O 0.52615 0.26047 0.13452 0.0
O325 O 0.5133 0.28736 0.16899 0.0
O326 O 0.48428 0.26296 0.13729 0.0
O327 O 0.50473 0.24138 0.16404 0.0
H328 H 0.56223 0.27476 0.14336 0.0
H329 H 0.51784 0.26238 0.09783 0.0
H330 H 0.58415 0.28769 0.1207 0.0
H331 H 0.54053 0.27548 0.07598 0.0
H332 H 0.51982 0.31463 0.23327 0.0
H333 H 0.53688 0.32119 0.1675 0.0
H334 H 0.50607 0.28748 0.20562 0.0
H335 H 0.54993 0.3479 0.19582 0.0
H336 H 0.54899 0.33464 0.11451 0.0
H337 H 0.49047 0.32157 0.09589 0.0
H338 H 0.5715 0.22893 0.18141 0.0
H339 H 0.58504 0.29188 0.20601 0.0
H340 H 0.453 0.24004 0.14437 0.0
H341 H 0.48525 0.25933 0.09928 0.0
H342 H 0.42933 0.21818 0.11915 0.0
H343 H 0.46103 0.23709 0.07482 0.0
H344 H 0.49394 0.20274 0.16381 0.0
H345 H 0.51773 0.25973 0.19988 0.0
H346 H 0.49515 0.18712 0.1927 0.0
H347 H 0.51844 0.24318 0.22822 0.0
H348 H 0.50945 0.19409 0.08144 0.0
H349 H 0.46907 0.17351 0.1198 0.0
H350 H 0.44966 0.29414 0.2066 0.0
H351 H 0.44107 0.23007 0.19789 0.0
Li352 Li 0.08782 0.82951 0.10225 0.0
Li353 Li 0.10617 0.81545 0.12626 0.0
Li354 Li 0.08426 0.79164 0.09838 0.0
Li355 Li 0.07089 0.81018 0.12658 0.0
C356 C 0.1167 0.81961 0.0828 0.0
N357 N 0.1358 0.83346 0.05347 0.0
C358 C 0.13109 0.83666 0.08711 0.0
C359 C 0.11205 0.80954 0.06362 0.0
C360 C 0.14057 0.84344 0.07206 0.0
C361 C 0.12187 0.8168 0.04899 0.0
C362 C 0.09936 0.85137 0.14542 0.0
C363 C 0.10485 0.86837 0.17876 0.0
N364 N 0.11725 0.88344 0.17353 0.0
C365 C 0.11211 0.86702 0.14034 0.0
C366 C 0.09564 0.85203 0.16475 0.0
C367 C 0.12102 0.88311 0.15478 0.0
C368 C 0.07961 0.86778 0.10158 0.0
N369 N 0.08599 0.85333 0.09012 0.0
C370 C 0.08718 0.8723 0.06432 0.0
C371 C 0.08975 0.85539 0.07168 0.0
C372 C 0.08083 0.88759 0.07598 0.0
C373 C 0.07708 0.88494 0.09491 0.0
H374 H 0.07629 0.86595 0.11604 0.0
H375 H 0.09462 0.84388 0.06249 0.0
C376 C 0.13279 0.79826 0.14406 0.0
N377 N 0.12975 0.81635 0.14201 0.0
C378 C 0.1488 0.79665 0.15471 0.0
C379 C 0.15899 0.83231 0.16078 0.0
C380 C 0.14263 0.83326 0.15008 0.0
C381 C 0.16231 0.81379 0.1634 0.0
H382 H 0.12276 0.78488 0.13726 0.0
H383 H 0.14036 0.84757 0.14821 0.0
C384 C 0.05265 0.80026 0.08176 0.0
N385 N 0.02857 0.78521 0.04866 0.0
C386 C 0.03462 0.78974 0.08303 0.0
C387 C 0.05843 0.8032 0.06371 0.0
C388 C 0.02266 0.78221 0.06611 0.0
C389 C 0.04605 0.79547 0.04713 0.0
C390 C 0.08394 0.78039 0.14114 0.0
C391 C 0.07684 0.75982 0.13705 0.0
C392 C 0.08804 0.79038 0.16038 0.0
C393 C 0.07387 0.74956 0.15235 0.0
C394 C 0.08488 0.77959 0.17528 0.0
N395 N 0.07791 0.75957 0.17099 0.0
C396 C 0.09613 0.7578 0.07726 0.0
C397 C 0.064 0.75193 0.08069 0.0
C398 C 0.09459 0.7375 0.06957 0.0
N399 N 0.08099 0.76463 0.08288 0.0
C400 C 0.06184 0.73157 0.07309 0.0
C401 C 0.07732 0.72387 0.06778 0.0
H402 H 0.10962 0.76793 0.07958 0.0
H403 H 0.05219 0.75739 0.08571 0.0
C404 C 0.04401 0.82539 0.14887 0.0
N405 N 0.04951 0.8084 0.14188 0.0
C406 C 0.02815 0.82476 0.15902 0.0
C407 C 0.02377 0.78914 0.15473 0.0
C408 C 0.03963 0.79044 0.14452 0.0
C409 C 0.01769 0.80645 0.16219 0.0
H410 H 0.05181 0.83949 0.14632 0.0
H411 H 0.04393 0.77702 0.13856 0.0
O412 O 0.10728 0.81272 0.0973 0.0
O413 O 0.09031 0.83564 0.13148 0.0
O414 O 0.06458 0.80761 0.09814 0.0
O415 O 0.08682 0.7907 0.12637 0.0
H416 H 0.13485 0.84456 0.10192 0.0
H417 H 0.10097 0.79629 0.06009 0.0
H418 H 0.15173 0.85664 0.07515 0.0
H419 H 0.11841 0.8092 0.03407 0.0
H420 H 0.10212 0.8691 0.19379 0.0
H421 H 0.11512 0.8667 0.12541 0.0
H422 H 0.08569 0.84008 0.16886 0.0
H423 H 0.13096 0.89532 0.15108 0.0
H424 H 0.0904 0.87349 0.04968 0.0
H425 H 0.07186 0.89592 0.1045 0.0
H426 H 0.15069 0.78197 0.15581 0.0
H427 H 0.16881 0.84603 0.16717 0.0
H428 H 0.02997 0.78734 0.09694 0.0
H429 H 0.07233 0.81131 0.06252 0.0
H430 H 0.00868 0.77398 0.06684 0.0
H431 H 0.05033 0.79761 0.03304 0.0
H432 H 0.07363 0.75188 0.12221 0.0
H433 H 0.09362 0.8063 0.16374 0.0
H434 H 0.06836 0.73363 0.14942 0.0
H435 H 0.08796 0.78712 0.19025 0.0
H436 H 0.10701 0.73244 0.06598 0.0
H437 H 0.04817 0.72188 0.07184 0.0
H438 H 0.024 0.83854 0.16402 0.0
H439 H 0.01648 0.77466 0.15688 0.0
Li440 Li 0.52429 0.79226 0.43911 0.0
Li441 Li 0.50319 0.76897 0.41166 0.0
Li442 Li 0.52244 0.7543 0.4369 0.0
Li443 Li 0.53833 0.7725 0.41159 0.0
C444 C 0.49273 0.77404 0.45653 0.0
N445 N 0.47381 0.78212 0.48865 0.0
C446 C 0.47647 0.78092 0.4548 0.0
C447 C 0.49916 0.77089 0.47449 0.0
C448 C 0.46716 0.78503 0.47124 0.0
C449 C 0.48945 0.77516 0.49059 0.0
C450 C 0.52018 0.80301 0.39691 0.0
C451 C 0.51863 0.80603 0.36329 0.0
N452 N 0.51422 0.824 0.36829 0.0
C453 C 0.51569 0.82151 0.40174 0.0
C454 C 0.52172 0.7952 0.37756 0.0
C455 C 0.5127 0.83189 0.38705 0.0
C456 C 0.54479 0.83174 0.45713 0.0
N457 N 0.52747 0.81962 0.45421 0.0
C458 C 0.51452 0.84766 0.46631 0.0
C459 C 0.51247 0.82725 0.45881 0.0
C460 C 0.53217 0.86068 0.46888 0.0
C461 C 0.54745 0.85224 0.46448 0.0
H462 H 0.55654 0.82565 0.453 0.0
H463 H 0.49874 0.81776 0.45574 0.0
C464 C 0.47059 0.75212 0.38219 0.0
N465 N 0.47961 0.768 0.39594 0.0
C466 C 0.45437 0.75288 0.37114 0.0
C467 C 0.45674 0.78619 0.38854 0.0
C468 C 0.47286 0.7848 0.39922 0.0
C469 C 0.4471 0.77013 0.37413 0.0
H470 H 0.47597 0.73881 0.37968 0.0
H471 H 0.48011 0.79735 0.41011 0.0
C472 C 0.55807 0.78246 0.45528 0.0
N473 N 0.58538 0.79314 0.48589 0.0
C474 C 0.57635 0.78175 0.45201 0.0
C475 C 0.55368 0.78872 0.47407 0.0
C476 C 0.58996 0.78716 0.46769 0.0
C477 C 0.56769 0.79404 0.48936 0.0
C478 C 0.52078 0.73343 0.39256 0.0
C479 C 0.52827 0.71768 0.39646 0.0
C480 C 0.51605 0.73465 0.37339 0.0
C481 C 0.53114 0.7035 0.38103 0.0
C482 C 0.51913 0.72017 0.35837 0.0
N483 N 0.52656 0.70503 0.36247 0.0
C484 C 0.51006 0.71624 0.45147 0.0
C485 C 0.54222 0.73008 0.45645 0.0
C486 C 0.51251 0.69947 0.45917 0.0
N487 N 0.52483 0.73124 0.45011 0.0
C488 C 0.54528 0.71364 0.46418 0.0
C489 C 0.53039 0.69774 0.46553 0.0
H490 H 0.49632 0.71699 0.44616 0.0
H491 H 0.55396 0.74175 0.45513 0.0
C492 C 0.56764 0.79144 0.39092 0.0
N493 N 0.55995 0.77399 0.39641 0.0
C494 C 0.58362 0.79323 0.38087 0.0
C495 C 0.58376 0.75917 0.38237 0.0
C496 C 0.56786 0.75807 0.39249 0.0
C497 C 0.59197 0.77693 0.37635 0.0
H498 H 0.56147 0.80411 0.3945 0.0
H499 H 0.56205 0.74455 0.3975 0.0
O500 O 0.50198 0.76985 0.44059 0.0
O501 O 0.52337 0.79274 0.4111 0.0
O502 O 0.5446 0.77731 0.4401 0.0
O503 O 0.51774 0.74735 0.40747 0.0
H504 H 0.47117 0.78318 0.44094 0.0
H505 H 0.51145 0.76508 0.47596 0.0
H506 H 0.45465 0.79052 0.47015 0.0
H507 H 0.49432 0.77289 0.50461 0.0
H508 H 0.5198 0.80019 0.34824 0.0
H509 H 0.51453 0.8278 0.41668 0.0
H510 H 0.52542 0.78102 0.37363 0.0
H511 H 0.50921 0.84623 0.39057 0.0
H512 H 0.50224 0.85332 0.46911 0.0
H513 H 0.56137 0.86147 0.46632 0.0
H514 H 0.4475 0.73993 0.36047 0.0
H515 H 0.45213 0.79997 0.39138 0.0
H516 H 0.57997 0.77701 0.43751 0.0
H517 H 0.53966 0.78968 0.47678 0.0
H518 H 0.60417 0.78663 0.4654 0.0
H519 H 0.5645 0.79894 0.50399 0.0
H520 H 0.53192 0.71647 0.41123 0.0
H521 H 0.51001 0.7466 0.37015 0.0
H522 H 0.53701 0.69127 0.38382 0.0
H523 H 0.51556 0.72093 0.34345 0.0
H524 H 0.50051 0.68768 0.45957 0.0
H525 H 0.55932 0.71343 0.46902 0.0
H526 H 0.58925 0.80722 0.37651 0.0
H527 H 0.58978 0.74628 0.37965 0.0
Li528 Li 0.5884 0.33118 0.60372 0.0
Li529 Li 0.60813 0.31722 0.62722 0.0
Li530 Li 0.58511 0.29341 0.5998 0.0
Li531 Li 0.57188 0.31182 0.62806 0.0
C532 C 0.61709 0.32027 0.58303 0.0
N533 N 0.63572 0.33165 0.55242 0.0
C534 C 0.63236 0.33644 0.58639 0.0
C535 C 0.61136 0.30978 0.56415 0.0
C536 C 0.64158 0.34199 0.5707 0.0
C537 C 0.62094 0.3158 0.54885 0.0
C538 C 0.59822 0.35559 0.64382 0.0
C539 C 0.59583 0.38123 0.67061 0.0
N540 N 0.61064 0.3936 0.66522 0.0
C541 C 0.61337 0.36853 0.6385 0.0
C542 C 0.58933 0.36195 0.65995 0.0
C543 C 0.61946 0.38771 0.64953 0.0
C544 C 0.57863 0.36902 0.60259 0.0
N545 N 0.58622 0.35519 0.5917 0.0
C546 C 0.58826 0.37461 0.56616 0.0
C547 C 0.59099 0.3578 0.57366 0.0
C548 C 0.58072 0.38929 0.57728 0.0
C549 C 0.57595 0.3861 0.5958 0.0
H550 H 0.57443 0.36677 0.61666 0.0
H551 H 0.59682 0.34681 0.56488 0.0
C552 C 0.63642 0.29993 0.64146 0.0
N553 N 0.63197 0.31793 0.64232 0.0
C554 C 0.65249 0.29806 0.65186 0.0
C555 C 0.65993 0.33344 0.66345 0.0
C556 C 0.64348 0.33459 0.65304 0.0
C557 C 0.66476 0.31492 0.66316 0.0
H558 H 0.62728 0.2868 0.63283 0.0
H559 H 0.63999 0.34887 0.65357 0.0
C560 C 0.55319 0.30268 0.58344 0.0
N561 N 0.52879 0.28944 0.5504 0.0
C562 C 0.53506 0.29236 0.58457 0.0
C563 C 0.5589 0.30636 0.56556 0.0
C564 C 0.52293 0.28575 0.56768 0.0
C565 C 0.54636 0.29952 0.54901 0.0
C566 C 0.58179 0.27678 0.63637 0.0
C567 C 0.56493 0.26371 0.6289 0.0
C568 C 0.59154 0.2737 0.65271 0.0
C569 C 0.55827 0.24749 0.63767 0.0
C570 C 0.58439 0.25734 0.6611 0.0
N571 N 0.56806 0.24466 0.65344 0.0
C572 C 0.59765 0.25891 0.58189 0.0
C573 C 0.56508 0.25429 0.5781 0.0
C574 C 0.59627 0.23868 0.57407 0.0
N575 N 0.58217 0.26634 0.58408 0.0
C576 C 0.56306 0.23396 0.57042 0.0
C577 C 0.57876 0.22567 0.56865 0.0
H578 H 0.61112 0.26853 0.58701 0.0
H579 H 0.55285 0.26016 0.58016 0.0
C580 C 0.5363 0.3175 0.63817 0.0
N581 N 0.5508 0.31008 0.6439 0.0
C582 C 0.52041 0.31611 0.64834 0.0
C583 C 0.53451 0.29942 0.67022 0.0
C584 C 0.55018 0.30129 0.65973 0.0
C585 C 0.51922 0.3069 0.66467 0.0
H586 H 0.53703 0.3245 0.62559 0.0
H587 H 0.5618 0.29554 0.66421 0.0
O588 O 0.60794 0.31455 0.59817 0.0
O589 O 0.59189 0.33686 0.63314 0.0
O590 O 0.56526 0.3092 0.5998 0.0
O591 O 0.58851 0.29279 0.62805 0.0
H592 H 0.63703 0.3446 0.60096 0.0
H593 H 0.59964 0.29712 0.56135 0.0
H594 H 0.6534 0.35451 0.57306 0.0
H595 H 0.61663 0.30786 0.53415 0.0
H596 H 0.58911 0.38637 0.68315 0.0
H597 H 0.6203 0.36382 0.62596 0.0
H598 H 0.57751 0.35208 0.66416 0.0
H599 H 0.63117 0.39791 0.64561 0.0
H600 H 0.59229 0.37621 0.55185 0.0
H601 H 0.5698 0.39657 0.60495 0.0
H602 H 0.65495 0.2833 0.65118 0.0
H603 H 0.6688 0.34708 0.67146 0.0
H604 H 0.53046 0.28936 0.59833 0.0
H605 H 0.57286 0.31439 0.56448 0.0
H606 H 0.50887 0.27767 0.56831 0.0
H607 H 0.55059 0.30224 0.53506 0.0
H608 H 0.55695 0.26624 0.61664 0.0
H609 H 0.60439 0.28392 0.65897 0.0
H610 H 0.54526 0.23722 0.632 0.0
H611 H 0.59179 0.25476 0.67373 0.0
H612 H 0.6088 0.2331 0.57321 0.0
H613 H 0.54925 0.2247 0.56629 0.0
H614 H 0.50929 0.32246 0.64354 0.0
H615 H 0.53435 0.2919 0.68242 0.0
Li616 Li 0.02533 0.29148 0.94017 0.0
Li617 Li 1.00485 0.26803 0.91234 0.0
Li618 Li 0.02404 0.2537 0.93763 0.0
Li619 Li 0.0399 0.27205 0.91302 0.0
C620 C 0.99391 0.27309 0.95691 0.0
N621 N 0.9748 0.28146 0.98881 0.0
C622 C 0.97736 0.27934 0.95485 0.0
C623 C 1.00062 0.27081 0.97513 0.0
C624 C 0.96794 0.28359 0.97118 0.0
C625 C 0.99079 0.27519 0.9911 0.0
C626 C 0.02096 0.30202 0.89785 0.0
C627 C 0.01548 0.30302 0.86398 0.0
N628 N 0.0129 0.32183 0.86892 0.0
C629 C 0.01835 0.32139 0.90259 0.0
C630 C 0.01959 0.29277 0.8784 0.0
C631 C 0.01425 0.33114 0.88775 0.0
C632 C 0.04407 0.33099 0.96147 0.0
N633 N 0.02722 0.31857 0.95514 0.0
C634 C 0.01239 0.34592 0.96334 0.0
C635 C 0.01151 0.32571 0.95616 0.0
C636 C 0.02962 0.35926 0.96953 0.0
C637 C 0.04557 0.35134 0.96887 0.0
H638 H 0.0565 0.32534 0.95998 0.0
H639 H 0.99831 0.31594 0.95043 0.0
C640 C 0.97179 0.25069 0.88361 0.0
N641 N 0.98144 0.26698 0.89649 0.0
C642 C 0.95583 0.25158 0.87223 0.0
C643 C 0.95982 0.28589 0.88752 0.0
C644 C 0.97549 0.28426 0.89872 0.0
C645 C 0.94957 0.26945 0.87388 0.0
H646 H 0.97646 0.23694 0.88206 0.0
H647 H 0.9831 0.29705 0.90912 0.0
C648 C 0.0585 0.27999 0.95746 0.0
N649 N 0.08418 0.28703 0.98924 0.0
C650 C 0.07577 0.27535 0.95529 0.0
C651 C 0.0543 0.28828 0.97577 0.0
C652 C 0.08857 0.279 0.97154 0.0
C653 C 0.06746 0.29169 0.99166 0.0
C654 C 0.02434 0.2341 0.893 0.0
C655 C 0.03566 0.22125 0.89649 0.0
C656 C 0.01754 0.23378 0.87402 0.0
C657 C 0.04013 0.2084 0.88088 0.0
C658 C 0.02233 0.22071 0.85879 0.0
N659 N 0.03343 0.2084 0.8625 0.0
C660 C 0.01761 0.21166 0.94056 0.0
C661 C 0.0352 0.2324 0.96824 0.0
C662 C 0.01968 0.19453 0.94765 0.0
N663 N 0.02552 0.2303 0.95065 0.0
C664 C 0.0374 0.21563 0.97602 0.0
C665 C 0.02978 0.19608 0.9657 0.0
H666 H 0.01001 0.20998 0.92659 0.0
H667 H 0.04148 0.24712 0.97631 0.0
C668 C 0.06622 0.28966 0.88865 0.0
N669 N 0.06157 0.27409 0.898 0.0
C670 C 0.08185 0.29178 0.87816 0.0
C671 C 0.08819 0.26219 0.88747 0.0
C672 C 0.07242 0.26064 0.8978 0.0
C673 C 0.09311 0.27788 0.8773 0.0
H674 H 0.05796 0.30068 0.88951 0.0
H675 H 0.06898 0.24876 0.90585 0.0
O676 O 1.00326 0.26875 0.94109 0.0
O677 O 0.02474 0.29213 0.91219 0.0
O678 O 0.04604 0.27712 0.94163 0.0
O679 O 0.01966 0.24665 0.90813 0.0
H680 H 0.9719 0.28097 0.94079 0.0
H681 H 0.01323 0.26564 0.97689 0.0
H682 H 0.95517 0.28855 0.96982 0.0
H683 H 0.99584 0.27356 0.0053 0.0
H684 H 0.01437 0.29603 0.84887 0.0
H685 H 0.01946 0.32883 0.91755 0.0
H686 H 0.02178 0.27789 0.8745 0.0
H687 H 0.01214 0.34612 0.89122 0.0
H688 H 0.99965 0.35112 0.96361 0.0
H689 H 0.05921 0.36093 0.97314 0.0
H690 H 0.94843 0.23826 0.86235 0.0
H691 H 0.95609 0.30015 0.88938 0.0
H692 H 0.07929 0.26909 0.94119 0.0
H693 H 0.04108 0.29219 0.97765 0.0
H694 H 0.10201 0.27553 0.97008 0.0
H695 H 0.0644 0.29811 0.00591 0.0
H696 H 0.04112 0.22136 0.91109 0.0
H697 H 0.00859 0.24343 0.87106 0.0
H698 H 0.04895 0.19845 0.88337 0.0
H699 H 0.01718 0.22033 0.84402 0.0
H700 H 0.01371 0.18019 0.9386 0.0
H701 H 0.04503 0.21813 0.9901 0.0
H702 H 0.08523 0.30444 0.87103 0.0
H703 H 0.09631 0.25104 0.88728 0.0
Li704 Li 0.42549 0.05001 0.31419 0.0
Li705 Li 0.39791 0.03078 0.29372 0.0
Li706 Li 0.42281 0.05222 0.28091 0.0
Li707 Li 0.40191 0.06629 0.30212 0.0
C708 C 0.43388 0.01627 0.2984 0.0
N709 N 0.45423 0.99224 0.31274 0.0
C710 C 0.42489 0.99822 0.30306 0.0
C711 C 0.45324 0.02204 0.301 0.0
C712 C 0.43543 0.98629 0.31028 0.0
C713 C 0.46327 0.00971 0.3083 0.0
C714 C 0.3853 0.04595 0.33157 0.0
C715 C 0.35356 0.04642 0.33701 0.0
N716 N 0.35682 0.04367 0.35544 0.0
C717 C 0.38838 0.04323 0.35059 0.0
C718 C 0.36778 0.04761 0.32473 0.0
C719 C 0.37379 0.04207 0.36242 0.0
C720 C 0.45648 0.06672 0.34076 0.0
N721 N 0.44198 0.05075 0.33554 0.0
C722 C 0.45198 0.03536 0.36054 0.0
C723 C 0.43934 0.03534 0.34519 0.0
C724 C 0.46723 0.05159 0.36615 0.0
C725 C 0.46938 0.06744 0.3561 0.0
H726 H 0.45794 0.07898 0.33312 0.0
H727 H 0.42749 0.02299 0.34083 0.0
C728 C 0.3826 0.99446 0.27061 0.0
N729 N 0.38099 1.00577 0.2879 0.0
C730 C 0.37252 0.9749 0.26557 0.0
C731 C 0.35922 0.97884 0.29627 0.0
C732 C 0.36943 0.9985 0.30062 0.0
C733 C 0.36111 0.96667 0.27875 0.0
H734 H 0.39235 1.00042 0.26107 0.0
H735 H 0.36878 0.00752 0.31452 0.0
C736 C 0.44222 0.08796 0.2965 0.0
N737 N 0.46794 0.1144 0.28116 0.0
C738 C 0.43745 0.10453 0.29083 0.0
C739 C 0.46009 0.08489 0.29446 0.0
C740 C 0.45066 0.11773 0.28311 0.0
C741 C 0.47288 0.09839 0.28662 0.0
C742 C 0.3834 0.03867 0.26079 0.0
C743 C 0.38953 0.03247 0.24278 0.0
C744 C 0.36451 0.03332 0.2633 0.0
C745 C 0.37672 0.02096 0.22766 0.0
C746 C 0.35214 0.02177 0.24783 0.0
N747 N 0.35845 0.01588 0.23048 0.0
C748 C 0.44817 0.04252 0.25543 0.0
C749 C 0.43529 0.06911 0.24868 0.0
C750 C 0.45898 0.04379 0.23998 0.0
N751 N 0.43672 0.05511 0.25951 0.0
C752 C 0.44579 0.07082 0.23291 0.0
C753 C 0.45781 0.05802 0.22847 0.0
H754 H 0.4487 0.03126 0.26399 0.0
H755 H 0.42587 0.07877 0.25219 0.0
C756 C 0.39603 0.10272 0.32246 0.0
N757 N 0.3897 0.08701 0.30764 0.0
C758 C 0.38735 0.11872 0.32492 0.0
C759 C 0.36557 0.10143 0.29731 0.0
C760 C 0.37477 0.08604 0.29525 0.0
C761 C 0.37199 0.11816 0.31211 0.0
H762 H 0.40811 0.10306 0.33195 0.0
H763 H 0.37032 0.07355 0.2834 0.0
O764 O 0.42381 0.02818 0.29126 0.0
O765 O 0.39944 0.04693 0.31981 0.0
O766 O 0.42942 0.07476 0.3039 0.0
O767 O 0.39576 0.05002 0.27579 0.0
H768 H 0.40997 0.99348 0.30128 0.0
H769 H 0.46046 0.03602 0.29766 0.0
H770 H 0.42864 0.97232 0.31398 0.0
H771 H 0.47824 0.01406 0.31049 0.0
H772 H 0.33992 0.04763 0.33187 0.0
H773 H 0.40188 0.04196 0.35613 0.0
H774 H 0.36517 0.04968 0.31008 0.0
H775 H 0.37595 0.0399 0.37715 0.0
H776 H 0.44987 0.02279 0.36787 0.0
H777 H 0.48069 0.08044 0.36029 0.0
H778 H 0.37425 0.96604 0.25185 0.0
H779 H 0.35082 0.97294 0.30696 0.0
H780 H 0.42367 0.1071 0.29226 0.0
H781 H 0.46397 0.07206 0.29862 0.0
H782 H 0.44715 0.13058 0.2786 0.0
H783 H 0.48671 0.09612 0.28483 0.0
H784 H 0.40403 0.03631 0.24047 0.0
H785 H 0.35943 0.0378 0.27708 0.0
H786 H 0.38131 0.01603 0.21368 0.0
H787 H 0.33753 0.01745 0.24964 0.0
H788 H 0.4677 0.0333 0.23669 0.0
H789 H 0.44446 0.08188 0.22423 0.0
H790 H 0.39277 0.1315 0.33636 0.0
H791 H 0.3541 0.10068 0.28679 0.0
Li792 Li 0.30059 0.21056 0.52911 0.0
Li793 Li 0.31543 0.18389 0.51022 0.0
Li794 Li 0.30125 0.20614 0.49299 0.0
Li795 Li 0.2808 0.1797 0.50607 0.0
C796 C 0.33542 0.22801 0.50793 0.0
N797 N 0.3607 0.25697 0.49512 0.0
C798 C 0.35042 0.22312 0.49856 0.0
C799 C 0.33334 0.24763 0.51094 0.0
C800 C 0.36303 0.23797 0.49215 0.0
C801 C 0.34625 0.26206 0.50431 0.0
C802 C 0.29804 0.16706 0.54042 0.0
C803 C 0.296 0.13255 0.54187 0.0
N804 N 0.29986 0.13761 0.56145 0.0
C805 C 0.30198 0.17194 0.56054 0.0
C806 C 0.29502 0.14723 0.53097 0.0
C807 C 0.30284 0.15683 0.57092 0.0
C808 C 0.2851 0.22925 0.56182 0.0
N809 N 0.30121 0.22651 0.55458 0.0
C810 C 0.31806 0.241 0.58556 0.0
C811 C 0.31757 0.23249 0.56593 0.0
C812 C 0.30155 0.24336 0.59371 0.0
C813 C 0.28497 0.2378 0.58138 0.0
H814 H 0.2722 0.224 0.55262 0.0
H815 H 0.33015 0.22989 0.55994 0.0
C816 C 0.3418 0.16273 0.49475 0.0
N817 N 0.33537 0.17022 0.51153 0.0
C818 C 0.35614 0.15259 0.49508 0.0
C819 C 0.35714 0.15815 0.52998 0.0
C820 C 0.34289 0.16833 0.52898 0.0
C821 C 0.36398 0.14999 0.51288 0.0
H822 H 0.3358 0.16467 0.48105 0.0
H823 H 0.33778 0.17464 0.54217 0.0
C824 C 0.26986 0.22172 0.5057 0.0
N825 N 0.2495 0.24905 0.49919 0.0
C826 C 0.25295 0.21546 0.4942 0.0
C827 C 0.27636 0.24182 0.51402 0.0
C828 C 0.24288 0.22953 0.49105 0.0
C829 C 0.26588 0.25542 0.51052 0.0
C830 C 0.29136 0.16223 0.47062 0.0
C831 C 0.28192 0.16646 0.4547 0.0
C832 C 0.29354 0.14289 0.47047 0.0
C833 C 0.2746 0.15114 0.43892 0.0
C834 C 0.28603 0.12799 0.45441 0.0
N835 N 0.27679 0.13238 0.43911 0.0
C836 C 0.31779 0.21407 0.45887 0.0
C837 C 0.2925 0.22933 0.464 0.0
C838 C 0.32003 0.22053 0.44117 0.0
N839 N 0.30418 0.21849 0.46996 0.0
C840 C 0.29408 0.23583 0.44625 0.0
C841 C 0.30791 0.23134 0.43444 0.0
H842 H 0.32664 0.20501 0.46352 0.0
H843 H 0.28165 0.23264 0.47268 0.0
C844 C 0.25081 0.15411 0.51926 0.0
N845 N 0.25674 0.16136 0.50338 0.0
C846 C 0.23315 0.14177 0.5185 0.0
C847 C 0.2276 0.14493 0.48521 0.0
C848 C 0.24549 0.15704 0.48654 0.0
C849 C 0.22119 0.13711 0.50136 0.0
H850 H 0.25961 0.15825 0.53273 0.0
H851 H 0.25019 0.16336 0.47424 0.0
O852 O 0.3229 0.21367 0.51423 0.0
O853 O 0.29705 0.18164 0.53005 0.0
O854 O 0.27982 0.20815 0.50907 0.0
O855 O 0.29885 0.17707 0.48608 0.0
H856 H 0.35224 0.20799 0.49617 0.0
H857 H 0.32189 0.25166 0.51831 0.0
H858 H 0.37467 0.2344 0.4848 0.0
H859 H 0.34479 0.2773 0.50649 0.0
H860 H 0.29367 0.11714 0.53476 0.0
H861 H 0.30432 0.18724 0.56805 0.0
H862 H 0.29184 0.14325 0.51542 0.0
H863 H 0.30587 0.16037 0.58651 0.0
H864 H 0.33121 0.24522 0.5944 0.0
H865 H 0.27187 0.23907 0.58699 0.0
H866 H 0.36111 0.14699 0.4815 0.0
H867 H 0.36247 0.15641 0.54405 0.0
H868 H 0.2477 0.19994 0.48773 0.0
H869 H 0.28932 0.24685 0.52313 0.0
H870 H 0.2298 0.22493 0.48213 0.0
H871 H 0.27075 0.27104 0.51682 0.0
H872 H 0.28013 0.18136 0.45458 0.0
H873 H 0.30104 0.13944 0.48256 0.0
H874 H 0.26719 0.15416 0.42653 0.0
H875 H 0.28759 0.11294 0.45409 0.0
H876 H 0.33075 0.21646 0.43251 0.0
H877 H 0.28449 0.24426 0.4418 0.0
H878 H 0.22868 0.13644 0.53143 0.0
H879 H 0.21885 0.14176 0.4717 0.0
Li880 Li 0.18969 0.03555 0.77055 0.0
Li881 Li 0.16248 0.01418 0.78679 0.0
Li882 Li 0.18682 0.9947 0.76594 0.0
Li883 Li 0.16187 0.01171 0.74678 0.0
C884 C 0.20503 0.0253 0.80461 0.0
N885 N 0.23419 0.04222 0.83269 0.0
C886 C 0.20201 0.03649 0.82212 0.0
C887 C 0.22284 0.0227 0.80135 0.0
C888 C 0.21695 0.04493 0.83615 0.0
C889 C 0.23742 0.03138 0.81574 0.0
C890 C 0.1501 0.04639 0.77354 0.0
C891 C 0.11868 0.05053 0.77381 0.0
N892 N 0.1251 0.06983 0.78278 0.0
C893 C 0.15642 0.06624 0.78278 0.0
C894 C 0.13111 0.03842 0.76904 0.0
C895 C 0.14354 0.07786 0.78733 0.0
C896 C 0.2035 0.07309 0.757 0.0
N897 N 0.20572 0.06405 0.77241 0.0
C898 C 0.2267 0.09476 0.78908 0.0
C899 C 0.21721 0.07469 0.78832 0.0
C900 C 0.22464 0.1046 0.77338 0.0
C901 C 0.21278 0.09304 0.75713 0.0
H902 H 0.19429 0.06484 0.74444 0.0
H903 H 0.21886 0.06783 0.80072 0.0
C904 C 0.14071 0.99906 0.82014 0.0
N905 N 0.14811 0.01564 0.8128 0.0
C906 C 0.13212 1.00027 0.83795 0.0
C907 C 0.13843 0.03557 0.84103 0.0
C908 C 0.14689 0.03372 0.8232 0.0
C909 C 0.13076 0.01877 0.84919 0.0
H910 H 0.1416 0.98461 0.81234 0.0
H911 H 0.15271 0.04707 0.81785 0.0
C912 C 0.19782 0.01142 0.72951 0.0
N913 N 0.21338 1.00523 0.69482 0.0
C914 C 0.19155 0.99352 0.71633 0.0
C915 C 0.21202 0.02617 0.72512 0.0
C916 C 0.19958 0.99068 0.69884 0.0
C917 C 0.21971 0.02275 0.70749 0.0
C918 C 0.14279 0.97401 0.75818 0.0
C919 C 0.14474 0.95651 0.74637 0.0
C920 C 0.12543 0.97566 0.76414 0.0
C921 C 0.12919 0.94084 0.74068 0.0
C922 C 0.11021 0.95965 0.75814 0.0
N923 N 0.11239 0.94272 0.74664 0.0
C924 C 0.2081 0.96644 0.78306 0.0
C925 C 0.20451 0.95841 0.74923 0.0
C926 C 0.21767 0.95078 0.78394 0.0
N927 N 0.2015 0.97037 0.76588 0.0
C928 C 0.21407 0.94261 0.74948 0.0
C929 C 0.22112 0.93811 0.76703 0.0
H930 H 0.20595 0.97547 0.7965 0.0
H931 H 0.19951 0.96096 0.73539 0.0
C932 C 0.14076 0.02987 0.71794 0.0
N933 N 0.14718 0.01316 0.71952 0.0
C934 C 0.13214 0.03251 0.70016 0.0
C935 C 0.13668 1.00098 0.68492 0.0
C936 C 0.14504 0.9988 0.70306 0.0
C937 C 0.12991 0.0181 0.68282 0.0
H938 H 0.14257 0.04168 0.73049 0.0
H939 H 0.15002 0.98548 0.70371 0.0
O940 O 0.19064 0.01703 0.79065 0.0
O941 O 0.16243 0.0347 0.76917 0.0
O942 O 0.19019 0.0144 0.74672 0.0
O943 O 0.15785 0.98942 0.76408 0.0
H944 H 0.1883 0.03868 0.82481 0.0
H945 H 0.22537 0.0141 0.78782 0.0
H946 H 0.21485 0.05365 0.84977 0.0
H947 H 0.25129 0.02951 0.81343 0.0
H948 H 0.10393 0.04458 0.77039 0.0
H949 H 0.1711 0.07258 0.78646 0.0
H950 H 0.12604 0.02305 0.7619 0.0
H951 H 0.14821 0.09326 0.79449 0.0
H952 H 0.23528 0.10258 0.80221 0.0
H953 H 0.21063 0.09919 0.74435 0.0
H954 H 0.12692 0.98657 0.84298 0.0
H955 H 0.13788 0.05034 0.84824 0.0
H956 H 0.1806 0.98195 0.7196 0.0
H957 H 0.21714 0.04003 0.73527 0.0
H958 H 0.19486 0.9769 0.68848 0.0
H959 H 0.23073 0.03402 0.70389 0.0
H960 H 0.15814 0.95505 0.74169 0.0
H961 H 0.12375 0.98911 0.77337 0.0
H962 H 0.13047 0.92717 0.73156 0.0
H963 H 0.09668 0.96068 0.76265 0.0
H964 H 0.22212 0.94869 0.79815 0.0
H965 H 0.21596 0.93411 0.73568 0.0
H966 H 0.12768 0.04621 0.70003 0.0
H967 H 0.13546 0.98902 0.67258 0.0
Li968 Li 0.3032 0.94441 0.0171 0.0
Li969 Li 0.32 0.9245 0.03435 0.0
Li970 Li 0.3365 0.95355 0.02315 0.0
Li971 Li 0.32306 0.92361 1.00064 0.0
C972 C 0.32657 0.96826 0.05629 0.0
N973 N 0.34544 1.00088 0.08325 0.0
C974 C 0.33682 0.96562 0.0725 0.0
C975 C 0.32578 0.98745 0.05385 0.0
C976 C 0.3463 0.98232 0.08595 0.0
C977 C 0.33545 1.00376 0.06763 0.0
C978 C 0.28744 0.90006 0.01805 0.0
C979 C 0.278 0.8659 0.02187 0.0
N980 N 0.26239 0.86984 0.0294 0.0
C981 C 0.27124 0.90375 0.02568 0.0
C982 C 0.2908 0.88096 0.01598 0.0
C983 C 0.25877 0.88828 0.0314 0.0
C984 C 0.27354 0.95598 0.99881 0.0
N985 N 0.28243 0.95524 0.01596 0.0
C986 C 0.26467 0.9755 0.0336 0.0
C987 C 0.27801 0.96426 0.03318 0.0
C988 C 0.25577 0.97727 0.01613 0.0
C989 C 0.25989 0.96694 0.99856 0.0
H990 H 0.27749 0.94864 0.98537 0.0
H991 H 0.28531 0.96328 0.04656 0.0
C992 C 0.33492 0.90391 0.05925 0.0
N993 N 0.31946 0.91028 0.05474 0.0
C994 C 0.33546 0.89342 0.07423 0.0
C995 C 0.30446 0.89707 0.08036 0.0
C996 C 0.30449 0.90743 0.06511 0.0
C997 C 0.32005 0.88979 0.08488 0.0
H998 H 0.34697 0.90723 0.05144 0.0
H999 H 0.29267 0.91334 0.06166 0.0
C1000 C 0.32989 0.95778 0.98316 0.0
N1001 N 0.34691 0.97142 0.95251 0.0
C1002 C 0.34856 0.95791 0.98128 0.0
C1003 C 0.31987 0.96466 0.96945 0.0
C1004 C 0.35693 0.96483 0.9657 0.0
C1005 C 0.32872 0.97148 0.95405 0.0
C1006 C 0.35474 0.91593 0.01499 0.0
C1007 C 0.37261 0.92454 0.01097 0.0
C1008 C 0.34898 0.89521 0.01219 0.0
C1009 C 0.38434 0.91228 0.00406 0.0
C1010 C 0.36112 0.88345 0.00526 0.0
N1011 N 0.37839 0.89216 0.00136 0.0
C1012 C 0.37086 0.97084 0.04108 0.0
C1013 C 0.36104 0.98953 0.01908 0.0
C1014 C 0.38924 0.98015 0.04047 0.0
N1015 N 0.3575 0.9746 0.02932 0.0
C1016 C 0.37938 0.99878 0.01751 0.0
C1017 C 0.39368 0.99278 0.02711 0.0
H1018 H 0.3675 0.95893 0.04913 0.0
H1019 H 0.34995 0.99243 0.01021 0.0
C1020 C 0.31066 0.89151 0.96964 0.0
N1021 N 0.32546 0.90655 0.97723 0.0
C1022 C 0.31178 0.87823 0.95274 0.0
C1023 C 0.34326 0.89632 0.95168 0.0
C1024 C 0.34163 0.90901 0.96871 0.0
C1025 C 0.3282 0.88077 0.94355 0.0
H1026 H 0.29796 0.88987 0.97666 0.0
H1027 H 0.35339 0.92068 0.9751 0.0
O1028 O 0.31767 0.95215 0.04266 0.0
O1029 O 0.29974 0.91497 0.01225 0.0
O1030 O 0.3215 0.95151 0.99858 0.0
O1031 O 0.34303 0.92769 0.02182 0.0
H1032 H 0.33762 0.95085 0.07454 0.0
H1033 H 0.318 0.98971 0.04129 0.0
H1034 H 0.35439 0.98054 0.0985 0.0
H1035 H 0.33508 0.01871 0.06587 0.0
H1036 H 0.28045 0.85106 0.02039 0.0
H1037 H 0.26837 0.91841 0.02728 0.0
H1038 H 0.30311 0.87775 0.00981 0.0
H1039 H 0.24621 0.89094 0.03741 0.0
H1040 H 0.26157 0.98302 0.04742 0.0
H1041 H 0.25323 0.96803 0.98483 0.0
H1042 H 0.34793 0.88853 0.0777 0.0
H1043 H 0.2924 0.89468 0.08843 0.0
H1044 H 0.3566 0.95294 0.99191 0.0
H1045 H 0.30544 0.96486 0.97075 0.0
H1046 H 0.3714 0.96504 0.96416 0.0
H1047 H 0.32113 0.97687 0.94336 0.0
H1048 H 0.37737 0.94051 0.01296 0.0
H1049 H 0.33529 0.88829 0.01536 0.0
H1050 H 0.39816 0.91876 1.00082 0.0
H1051 H 0.3568 0.86741 0.00299 0.0
H1052 H 0.39994 0.97575 0.04866 0.0
H1053 H 0.38226 0.00872 0.0073 0.0
H1054 H 0.29983 0.86645 0.94666 0.0
H1055 H 0.35617 0.89858 0.94496 0.0
Li1056 Li 0.2958 0.40073 0.03168 0.0
Li1057 Li 0.30884 0.37768 0.04869 0.0
Li1058 Li 0.33051 0.40474 0.03481 0.0
Li1059 Li 0.31017 0.37432 0.01244 0.0
C1060 C 0.31228 0.42304 0.06965 0.0
N1061 N 0.31013 0.4548 0.09818 0.0
C1062 C 0.30343 0.41974 0.08623 0.0
C1063 C 0.32025 0.44249 0.06772 0.0
C1064 C 0.30241 0.43599 0.10044 0.0
C1065 C 0.31897 0.45835 0.08226 0.0
C1066 C 0.27367 0.35609 0.02971 0.0
C1067 C 0.2591 0.32115 0.0246 0.0
N1068 N 0.24461 0.32563 0.03411 0.0
C1069 C 0.25853 0.36039 0.03921 0.0
C1070 C 0.2739 0.33635 0.02215 0.0
C1071 C 0.24402 0.34476 0.0414 0.0
C1072 C 0.26884 0.41683 0.01279 0.0
N1073 N 0.2758 0.41464 0.03038 0.0
C1074 C 0.25429 0.43178 0.04612 0.0
C1075 C 0.26857 0.42161 0.04686 0.0
C1076 C 0.24715 0.43478 0.02821 0.0
C1077 C 0.25458 0.42695 0.01137 0.0
H1078 H 0.27434 0.41074 0.99977 0.0
H1079 H 0.27373 0.41913 0.06063 0.0
C1080 C 0.32149 0.35931 0.07895 0.0
N1081 N 0.30656 0.36481 0.07131 0.0
C1082 C 0.32085 0.35205 0.09635 0.0
C1083 C 0.28949 0.35622 0.09789 0.0
C1084 C 0.2907 0.36327 0.08041 0.0
C1085 C 0.30476 0.35064 0.10627 0.0
H1086 H 0.33416 0.3611 0.07185 0.0
H1087 H 0.27915 0.36821 0.07451 0.0
C1088 C 0.31295 0.41634 0.99964 0.0
N1089 N 0.31048 0.4432 0.97569 0.0
C1090 C 0.30886 0.40971 0.97965 0.0
C1091 C 0.31584 0.4366 0.00744 0.0
C1092 C 0.30767 0.42353 0.96778 0.0
C1093 C 0.3145 0.44995 0.9951 0.0
C1094 C 0.3384 0.35971 0.02946 0.0
C1095 C 0.35672 0.36214 0.02476 0.0
C1096 C 0.32811 0.34079 0.03048 0.0
C1097 C 0.36441 0.34548 0.02099 0.0
C1098 C 0.33631 0.32451 0.02663 0.0
N1099 N 0.35413 0.32717 0.02198 0.0
C1100 C 0.36388 0.43242 0.05412 0.0
C1101 C 0.36212 0.42409 0.01987 0.0
C1102 C 0.38171 0.44451 0.05472 0.0
N1103 N 0.35451 0.4225 0.03684 0.0
C1104 C 0.37989 0.43585 0.01981 0.0
C1105 C 0.39005 0.44617 0.0374 0.0
H1106 H 0.35762 0.43075 0.06746 0.0
H1107 H 0.35443 0.41598 0.00634 0.0
C1108 C 0.2931 0.35117 0.9757 0.0
N1109 N 0.30957 0.35824 0.98679 0.0
C1110 C 0.29259 0.34266 0.95604 0.0
C1111 C 0.32592 0.34805 0.95962 0.0
C1112 C 0.32581 0.35666 0.97916 0.0
C1113 C 0.30918 0.34133 0.94758 0.0
H1114 H 0.28038 0.35294 0.98191 0.0
H1115 H 0.3388 0.36294 0.98798 0.0
O1116 O 0.31359 0.40728 0.0557 0.0
O1117 O 0.28788 0.3712 0.02724 0.0
O1118 O 0.31386 0.40296 0.01149 0.0
O1119 O 0.33066 0.37584 0.03317 0.0
H1120 H 0.2973 0.40481 0.08806 0.0
H1121 H 0.32753 0.44532 0.05525 0.0
H1122 H 0.2955 0.43364 0.11328 0.0
H1123 H 0.32508 0.47347 0.08094 0.0
H1124 H 0.25911 0.30579 0.01886 0.0
H1125 H 0.25807 0.37563 0.04495 0.0
H1126 H 0.2853 0.33282 0.01434 0.0
H1127 H 0.23227 0.34785 0.04885 0.0
H1128 H 0.24878 0.43706 0.05948 0.0
H1129 H 0.24968 0.4289 0.99722 0.0
H1130 H 0.33308 0.34824 0.1023 0.0
H1131 H 0.27673 0.35529 0.10484 0.0
H1132 H 0.30657 0.39407 0.97336 0.0
H1133 H 0.31891 0.44195 0.02285 0.0
H1134 H 0.30448 0.41861 0.95229 0.0
H1135 H 0.31663 0.46568 1.00095 0.0
H1136 H 0.36486 0.37674 0.02397 0.0
H1137 H 0.31402 0.33874 0.03437 0.0
H1138 H 0.37856 0.34711 0.01727 0.0
H1139 H 0.32851 0.30976 0.02737 0.0
H1140 H 0.38909 0.45204 0.06861 0.0
H1141 H 0.38564 0.43685 0.00609 0.0
H1142 H 0.27933 0.33761 0.94741 0.0
H1143 H 0.33907 0.34767 0.95376 0.0
Li1144 Li 0.78927 0.16179 0.04099 0.0
Li1145 Li 0.808 0.14013 0.02359 0.0
Li1146 Li 0.78933 0.15825 0.00665 0.0
Li1147 Li 0.77448 0.12989 0.02093 0.0
C1148 C 0.82185 0.18481 0.01999 0.0
N1149 N 0.84371 0.21572 0.00631 0.0
C1150 C 0.83876 0.1828 0.013 0.0
C1151 C 0.81613 0.2026 0.02019 0.0
C1152 C 0.8496 0.19859 0.00611 0.0
C1153 C 0.82735 0.21803 0.01315 0.0
C1154 C 0.79297 0.11984 0.05395 0.0
C1155 C 0.79515 0.08588 0.05323 0.0
N1156 N 0.79407 0.08854 0.07272 0.0
C1157 C 0.79193 0.12226 0.07397 0.0
C1158 C 0.79459 0.10153 0.04347 0.0
C1159 C 0.79248 0.10624 0.08319 0.0
C1160 C 0.77317 0.1728 0.07454 0.0
N1161 N 0.78716 0.179 0.06379 0.0
C1162 C 0.79645 0.21027 0.08538 0.0
C1163 C 0.7988 0.19724 0.06884 0.0
C1164 C 0.78199 0.20436 0.09671 0.0
C1165 C 0.77019 0.18539 0.09107 0.0
H1166 H 0.76422 0.15812 0.07011 0.0
H1167 H 0.80995 0.20161 0.06009 0.0
C1168 C 0.83471 0.1248 0.00533 0.0
N1169 N 0.82937 0.13017 0.02324 0.0
C1170 C 0.84894 0.11478 0.00299 0.0
C1171 C 0.85238 0.11671 0.03773 0.0
C1172 C 0.83801 0.12673 0.0394 0.0
C1173 C 0.85778 0.11034 0.01928 0.0
H1174 H 0.82748 0.12776 0.9928 0.0
H1175 H 0.83339 0.13122 0.05346 0.0
C1176 C 0.75519 0.16557 0.0294 0.0
N1177 N 0.72985 0.18587 0.04545 0.0
C1178 C 0.73915 0.15526 0.03595 0.0
C1179 C 0.75826 0.18619 0.03088 0.0
C1180 C 0.72652 0.16579 0.04403 0.0
C1181 C 0.74532 0.19619 0.03911 0.0
C1182 C 0.78482 0.11523 0.98411 0.0
C1183 C 0.77418 0.11841 0.96844 0.0
C1184 C 0.78944 0.09681 0.9834 0.0
C1185 C 0.76803 0.10296 0.95249 0.0
C1186 C 0.78303 0.08174 0.96719 0.0
N1187 N 0.77253 0.0851 0.9522 0.0
C1188 C 0.80136 0.17707 0.9753 0.0
C1189 C 0.77015 0.17534 0.9822 0.0
C1190 C 0.79937 0.18849 0.96127 0.0
N1191 N 0.787 0.17136 0.98582 0.0
C1192 C 0.76748 0.1865 0.96824 0.0
C1193 C 0.78231 0.19356 0.95787 0.0
H1194 H 0.81444 0.17315 0.97809 0.0
H1195 H 0.75882 0.17008 0.99037 0.0
C1196 C 0.74784 0.10244 0.03492 0.0
N1197 N 0.75302 0.10952 0.01876 0.0
C1198 C 0.72952 0.09302 0.03587 0.0
C1199 C 0.72241 0.09719 0.00308 0.0
C1200 C 0.74091 0.1066 0.00277 0.0
C1201 C 0.71648 0.09122 0.02017 0.0
H1202 H 0.75729 0.10579 0.0478 0.0
H1203 H 0.74511 0.11333 0.99056 0.0
O1204 O 0.81114 0.16956 0.02693 0.0
O1205 O 0.7917 0.13516 0.04467 0.0
O1206 O 0.76768 0.1555 0.0213 0.0
O1207 O 0.79136 0.13034 0.99965 0.0
H1208 H 0.84346 0.16919 0.01288 0.0
H1209 H 0.80312 0.20443 0.02561 0.0
H1210 H 0.86271 0.19723 1.0006 0.0
H1211 H 0.82305 0.23183 0.01312 0.0
H1212 H 0.79636 0.07161 0.04529 0.0
H1213 H 0.79051 0.13632 0.08225 0.0
H1214 H 0.79521 0.09939 0.02798 0.0
H1215 H 0.79158 0.10786 0.09866 0.0
H1216 H 0.80609 0.22461 0.08948 0.0
H1217 H 0.75881 0.18033 0.09934 0.0
H1218 H 0.85246 0.10991 0.98847 0.0
H1219 H 0.859 0.11375 0.05066 0.0
H1220 H 0.73644 0.13933 0.03488 0.0
H1221 H 0.7705 0.19439 0.02576 0.0
H1222 H 0.71407 0.15799 0.04917 0.0
H1223 H 0.74757 0.21215 0.04041 0.0
H1224 H 0.7706 0.1326 0.96864 0.0
H1225 H 0.79807 0.0942 0.99511 0.0
H1226 H 0.7597 0.10519 0.94033 0.0
H1227 H 0.78649 0.06741 0.96647 0.0
H1228 H 0.81102 0.19342 0.95328 0.0
H1229 H 0.75414 0.19013 0.96605 0.0
H1230 H 0.72532 0.08859 0.04927 0.0
H1231 H 0.71259 0.09632 0.99083 0.0
Li1232 Li 0.21123 0.55512 0.24283 0.0
Li1233 Li 0.18453 0.53524 0.25504 0.0
Li1234 Li 0.20462 0.51891 0.23416 0.0
Li1235 Li 0.18309 0.53746 0.22108 0.0
C1236 C 0.22274 0.5392 0.27636 0.0
N1237 N 0.24682 0.54688 0.30951 0.0
C1238 C 0.21823 0.54921 0.2938 0.0
C1239 C 0.23942 0.53296 0.27581 0.0
C1240 C 0.23061 0.55298 0.3104 0.0
C1241 C 0.25144 0.53704 0.29272 0.0
C1242 C 0.17706 0.57445 0.24642 0.0
C1243 C 0.14981 0.58752 0.24248 0.0
N1244 N 0.15942 0.60568 0.25217 0.0
C1245 C 0.18664 0.59322 0.25637 0.0
C1246 C 0.15847 0.57155 0.23943 0.0
C1247 C 0.17749 0.60882 0.25911 0.0
C1248 C 0.23065 0.59009 0.23358 0.0
N1249 N 0.2298 0.57903 0.2477 0.0
C1250 C 0.25248 0.60451 0.26845 0.0
C1251 C 0.24063 0.58568 0.26478 0.0
C1252 C 0.25317 0.61653 0.25438 0.0
C1253 C 0.2424 0.60896 0.23658 0.0
H1254 H 0.22166 0.58453 0.22026 0.0
H1255 H 0.23969 0.5768 0.27586 0.0
C1256 C 0.17159 0.51795 0.28621 0.0
N1257 N 0.17032 0.53265 0.27623 0.0
C1258 C 0.16135 0.5157 0.30208 0.0
C1259 C 0.14853 0.54352 0.29673 0.0
C1260 C 0.15905 0.54527 0.2811 0.0
C1261 C 0.14967 0.52865 0.30748 0.0
H1262 H 0.18066 0.50809 0.28188 0.0
H1263 H 0.15831 0.55683 0.27303 0.0
C1264 C 0.22587 0.54239 0.20829 0.0
N1265 N 0.25903 0.55102 0.19204 0.0
C1266 C 0.22617 0.54735 0.1899 0.0
C1267 C 0.24241 0.5419 0.21847 0.0
C1268 C 0.24308 0.55163 0.1819 0.0
C1269 C 0.25904 0.5463 0.21 0.0
C1270 C 0.16131 0.50122 0.23633 0.0
C1271 C 0.16131 0.48216 0.23976 0.0
C1272 C 0.14494 0.50805 0.23702 0.0
C1273 C 0.14488 0.47024 0.24386 0.0
C1274 C 0.12881 0.49572 0.24126 0.0
N1275 N 0.12911 0.47721 0.24454 0.0
C1276 C 0.21439 0.48711 0.24508 0.0
C1277 C 0.22329 0.49136 0.21388 0.0
C1278 C 0.22325 0.47154 0.24473 0.0
N1279 N 0.21491 0.49684 0.23 0.0
C1280 C 0.23249 0.47586 0.21295 0.0
C1281 C 0.23279 0.46602 0.2287 0.0
H1282 H 0.20762 0.49201 0.25768 0.0
H1283 H 0.22331 0.49939 0.20207 0.0
C1284 C 0.16667 0.55504 0.1942 0.0
N1285 N 0.16717 0.53766 0.19998 0.0
C1286 C 0.15367 0.55532 0.17932 0.0
C1287 C 0.14249 0.51971 0.17635 0.0
C1288 C 0.15565 0.52015 0.19133 0.0
C1289 C 0.14132 0.53749 0.1703 0.0
H1290 H 0.17612 0.56868 0.20145 0.0
H1291 H 0.15662 0.50655 0.19617 0.0
O1292 O 0.2108 0.5353 0.25998 0.0
O1293 O 0.18589 0.55906 0.24349 0.0
O1294 O 0.20946 0.5384 0.21639 0.0
O1295 O 0.1772 0.51301 0.23204 0.0
H1296 H 0.20539 0.55419 0.29445 0.0
H1297 H 0.24306 0.52504 0.26248 0.0
H1298 H 0.22735 0.56079 0.32397 0.0
H1299 H 0.26442 0.53235 0.2925 0.0
H1300 H 0.13544 0.58548 0.23715 0.0
H1301 H 0.20099 0.59573 0.26199 0.0
H1302 H 0.15079 0.55712 0.23178 0.0
H1303 H 0.18475 0.62344 0.26678 0.0
H1304 H 0.26064 0.60984 0.28233 0.0
H1305 H 0.24231 0.61791 0.22548 0.0
H1306 H 0.16257 0.50406 0.31005 0.0
H1307 H 0.13998 0.55407 0.3007 0.0
H1308 H 0.21346 0.54789 0.1819 0.0
H1309 H 0.24238 0.53826 0.23279 0.0
H1310 H 0.24354 0.55545 0.16766 0.0
H1311 H 0.27196 0.54599 0.21771 0.0
H1312 H 0.17382 0.47659 0.23912 0.0
H1313 H 0.14472 0.52275 0.23438 0.0
H1314 H 0.14465 0.45543 0.24648 0.0
H1315 H 0.11606 0.50084 0.24191 0.0
H1316 H 0.22348 0.46467 0.25737 0.0
H1317 H 0.23969 0.47198 0.20036 0.0
H1318 H 0.15309 0.56936 0.17512 0.0
H1319 H 0.13345 0.50563 0.16948 0.0
Li1320 Li 0.79691 0.90015 0.53121 0.0
Li1321 Li 0.81099 0.87776 0.5468 0.0
Li1322 Li 0.83148 0.90581 0.53401 0.0
Li1323 Li 0.8111 0.87532 0.51083 0.0
C1324 C 0.81117 0.91954 0.57054 0.0
N1325 N 0.80397 0.94493 0.6024 0.0
C1326 C 0.79783 0.91254 0.58251 0.0
C1327 C 0.82095 0.9394 0.57482 0.0
C1328 C 0.79437 0.92562 0.59854 0.0
C1329 C 0.81707 0.95202 0.59099 0.0
C1330 C 0.77429 0.8589 0.53173 0.0
C1331 C 0.75315 0.82698 0.52899 0.0
N1332 N 0.74355 0.83509 0.54297 0.0
C1333 C 0.76413 0.86697 0.54592 0.0
C1334 C 0.76869 0.8388 0.52305 0.0
C1335 C 0.74866 0.85466 0.55146 0.0
C1336 C 0.76371 0.90669 0.51416 0.0
N1337 N 0.77627 0.91342 0.53002 0.0
C1338 C 0.75999 0.9386 0.54179 0.0
C1339 C 0.77463 0.92913 0.54372 0.0
C1340 C 0.74708 0.93223 0.52537 0.0
C1341 C 0.7491 0.91604 0.51141 0.0
H1342 H 0.76524 0.89422 0.5034 0.0
H1343 H 0.78477 0.93468 0.55603 0.0
C1344 C 0.81921 0.87501 0.58577 0.0
N1345 N 0.81018 0.86397 0.56877 0.0
C1346 C 0.81864 0.86718 0.60278 0.0
C1347 C 0.80031 0.83616 0.58449 0.0
C1348 C 0.80097 0.84475 0.56783 0.0
C1349 C 0.80909 0.84742 0.60247 0.0
H1350 H 0.82669 0.89015 0.58624 0.0
H1351 H 0.79412 0.83601 0.55417 0.0
C1352 C 0.80795 0.91763 0.50181 0.0
N1353 N 0.79352 0.94425 0.48441 0.0
C1354 C 0.79852 0.91151 0.48328 0.0
C1355 C 0.81012 0.93729 0.51147 0.0
C1356 C 0.79133 0.9252 0.47473 0.0
C1357 C 0.80269 0.95051 0.50244 0.0
C1358 C 0.838 0.8594 0.53034 0.0
C1359 C 0.85647 0.85976 0.53583 0.0
C1360 C 0.8252 0.84118 0.52474 0.0
C1361 C 0.86185 0.8418 0.5356 0.0
C1362 C 0.83111 0.82355 0.52475 0.0
N1363 N 0.84917 0.82422 0.53012 0.0
C1364 C 0.86826 0.9253 0.55137 0.0
C1365 C 0.85885 0.93564 0.52288 0.0
C1366 C 0.88604 0.93759 0.55219 0.0
N1367 N 0.85516 0.92441 0.53675 0.0
C1368 C 0.87632 0.94819 0.52321 0.0
C1369 C 0.8904 0.94909 0.53779 0.0
H1370 H 0.86507 0.91605 0.56212 0.0
H1371 H 0.84835 0.93455 0.51126 0.0
C1372 C 0.79378 0.85335 0.47403 0.0
N1373 N 0.81024 0.85953 0.48521 0.0
C1374 C 0.79313 0.84468 0.45442 0.0
C1375 C 0.82625 0.84801 0.45831 0.0
C1376 C 0.82629 0.85674 0.47783 0.0
C1377 C 0.80958 0.84228 0.44613 0.0
H1378 H 0.78124 0.85591 0.48015 0.0
H1379 H 0.83925 0.86204 0.48692 0.0
O1380 O 0.8149 0.907 0.55484 0.0
O1381 O 0.78949 0.87064 0.52611 0.0
O1382 O 0.8147 0.90435 0.51063 0.0
O1383 O 0.83249 0.87682 0.53047 0.0
H1384 H 0.79028 0.89716 0.57953 0.0
H1385 H 0.83137 0.945 0.56571 0.0
H1386 H 0.78407 0.92042 0.60793 0.0
H1387 H 0.82448 0.96745 0.59446 0.0
H1388 H 0.74871 0.81137 0.52248 0.0
H1389 H 0.76808 0.88257 0.55251 0.0
H1390 H 0.77631 0.83239 0.51188 0.0
H1391 H 0.74069 0.86068 0.56247 0.0
H1392 H 0.7591 0.95118 0.55277 0.0
H1393 H 0.73942 0.91061 0.49855 0.0
H1394 H 0.82541 0.87679 0.6161 0.0
H1395 H 0.79309 0.82077 0.58318 0.0
H1396 H 0.7967 0.89634 0.47564 0.0
H1397 H 0.81727 0.94219 0.52589 0.0
H1398 H 0.78395 0.92067 0.46042 0.0
H1399 H 0.80416 0.96574 0.50978 0.0
H1400 H 0.86652 0.87378 0.54019 0.0
H1401 H 0.81086 0.84068 0.52047 0.0
H1402 H 0.87611 0.84183 0.53978 0.0
H1403 H 0.82136 0.80934 0.52048 0.0
H1404 H 0.8964 0.93753 0.56359 0.0
H1405 H 0.87879 0.95696 0.51197 0.0
H1406 H 0.77991 0.84032 0.44571 0.0
H1407 H 0.8393 0.8467 0.4526 0.0
Li1408 Li 0.94945 0.07238 0.29175 0.0
Li1409 Li 0.92079 0.0492 0.26891 0.0
Li1410 Li 0.94779 0.07061 0.25169 0.0
Li1411 Li 0.92389 0.08953 0.27156 0.0
C1412 C 0.96138 0.03882 0.26886 0.0
N1413 N 0.98843 0.01723 0.26925 0.0
C1414 C 0.95679 0.01909 0.27143 0.0
C1415 C 0.9797 0.0476 0.26649 0.0
C1416 C 0.97069 0.00843 0.27161 0.0
C1417 C 0.99318 0.03641 0.2667 0.0
C1418 C 0.90817 0.06659 0.30468 0.0
C1419 C 0.87754 0.06627 0.31467 0.0
N1420 N 0.88151 0.05741 0.32963 0.0
C1421 C 0.91199 0.05756 0.32017 0.0
C1422 C 0.89085 0.07103 0.30188 0.0
C1423 C 0.8983 0.05298 0.33261 0.0
C1424 C 0.96153 0.08197 0.3364 0.0
N1425 N 0.96434 0.07115 0.31902 0.0
C1426 C 0.98437 0.05569 0.33761 0.0
C1427 C 0.97576 0.05817 0.31978 0.0
C1428 C 0.98162 0.06646 0.35586 0.0
C1429 C 0.96988 0.07991 0.35458 0.0
H1430 H 0.95245 0.09217 0.3364 0.0
H1431 H 0.97812 0.04915 0.30651 0.0
C1432 C 0.89475 0.00947 0.25082 0.0
N1433 N 0.90452 0.02078 0.26751 0.0
C1434 C 0.88514 0.98941 0.25 0.0
C1435 C 0.89541 0.99251 0.28348 0.0
C1436 C 0.90486 0.01241 0.28366 0.0
C1437 C 0.88534 0.98026 0.26645 0.0
H1438 H 0.89468 0.0158 0.23785 0.0
H1439 H 0.91288 0.02103 0.29679 0.0
C1440 C 0.96737 0.10895 0.27036 0.0
N1441 N 0.99634 0.13639 0.26068 0.0
C1442 C 0.96379 0.12265 0.25924 0.0
C1443 C 0.98563 0.10917 0.27659 0.0
C1444 C 0.97865 0.13642 0.25449 0.0
C1445 C 1.0001 0.12318 0.27154 0.0
C1446 C 0.90563 0.06534 0.2341 0.0
C1447 C 0.90972 0.07187 0.21682 0.0
C1448 C 0.88721 0.05799 0.23724 0.0
C1449 C 0.89525 0.07096 0.20291 0.0
C1450 C 0.87312 0.05726 0.22294 0.0
N1451 N 0.8774 0.06372 0.20622 0.0
C1452 C 0.96922 0.05295 0.21874 0.0
C1453 C 0.96341 0.08358 0.21442 0.0
C1454 C 0.97798 0.05111 0.20109 0.0
N1455 N 0.96205 0.0691 0.2255 0.0
C1456 C 0.97167 0.08206 0.19643 0.0
C1457 C 0.97933 0.06564 0.18918 0.0
H1458 H 0.96799 0.04105 0.22685 0.0
H1459 H 0.95779 0.09642 0.21927 0.0
C1460 C 0.90801 0.12728 0.28814 0.0
N1461 N 0.90917 0.11398 0.27165 0.0
C1462 C 0.89855 0.14321 0.288 0.0
C1463 C 0.89106 0.13224 0.25402 0.0
C1464 C 0.90069 0.11661 0.25476 0.0
C1465 C 0.88961 0.14639 0.27074 0.0
H1466 H 0.91452 0.12576 0.30176 0.0
H1467 H 0.90127 0.10653 0.24144 0.0
O1468 O 0.94806 0.0496 0.26877 0.0
O1469 O 0.92146 0.07147 0.29252 0.0
O1470 O 0.95305 0.09521 0.27494 0.0
O1471 O 0.91959 0.06627 0.24794 0.0
H1472 H 0.94268 0.01211 0.27331 0.0
H1473 H 0.98343 0.06287 0.26448 0.0
H1474 H 0.96737 0.99315 0.27363 0.0
H1475 H 0.00741 0.04299 0.26486 0.0
H1476 H 0.86407 0.06964 0.31272 0.0
H1477 H 0.92534 0.05402 0.32251 0.0
H1478 H 0.88776 0.07813 0.28999 0.0
H1479 H 0.90103 0.04593 0.34463 0.0
H1480 H 0.99283 0.04484 0.33691 0.0
H1481 H 0.96703 0.08906 0.36759 0.0
H1482 H 0.87803 0.98105 0.23629 0.0
H1483 H 0.89609 0.98689 0.29682 0.0
H1484 H 0.9497 0.12258 0.25428 0.0
H1485 H 0.98857 0.09863 0.28522 0.0
H1486 H 0.97612 0.1471 0.24586 0.0
H1487 H 0.01432 0.12354 0.27624 0.0
H1488 H 0.9239 0.07769 0.21423 0.0
H1489 H 0.88384 0.05291 0.25058 0.0
H1490 H 0.89821 0.07602 0.18949 0.0
H1491 H 0.85879 0.05158 0.22514 0.0
H1492 H 0.98324 0.03793 0.19656 0.0
H1493 H 0.9722 0.09394 0.18834 0.0
H1494 H 0.89852 0.15308 0.30162 0.0
H1495 H 0.88466 0.13289 0.24007 0.0
Li1496 Li 0.29293 0.66651 0.53825 0.0
Li1497 Li 0.30922 0.6419 0.52178 0.0
Li1498 Li 0.29326 0.66222 0.50315 0.0
Li1499 Li 0.27579 0.63499 0.51793 0.0
C1500 C 0.32615 0.68974 0.52818 0.0
N1501 N 0.3488 0.72739 0.53894 0.0
C1502 C 0.34447 0.69216 0.53576 0.0
C1503 C 0.31937 0.70642 0.52597 0.0
C1504 C 0.3557 0.71133 0.54114 0.0
C1505 C 0.33102 0.72535 0.53153 0.0
C1506 C 0.29245 0.62594 0.55404 0.0
C1507 C 0.29318 0.59288 0.55889 0.0
N1508 N 0.29204 0.59871 0.57817 0.0
C1509 C 0.29134 0.63165 0.57391 0.0
C1510 C 0.29337 0.60643 0.54644 0.0
C1511 C 0.29112 0.61765 0.58587 0.0
C1512 C 0.27683 0.68906 0.56699 0.0
N1513 N 0.29301 0.68492 0.56124 0.0
C1514 C 0.30989 0.70588 0.58981 0.0
C1515 C 0.30936 0.69292 0.57228 0.0
C1516 C 0.29338 0.71048 0.596 0.0
C1517 C 0.27673 0.70207 0.58432 0.0
H1518 H 0.2639 0.68184 0.55854 0.0
H1519 H 0.32192 0.68884 0.56771 0.0
C1520 C 0.33315 0.62109 0.50474 0.0
N1521 N 0.32904 0.62951 0.52235 0.0
C1522 C 0.34595 0.60918 0.50346 0.0
C1523 C 0.3508 0.61574 0.53852 0.0
C1524 C 0.33773 0.62745 0.53913 0.0
C1525 C 0.35465 0.6061 0.52048 0.0
H1526 H 0.32609 0.6232 0.49169 0.0
H1527 H 0.33407 0.63437 0.55291 0.0
C1528 C 0.25779 0.67177 0.52043 0.0
N1529 N 0.22932 0.69152 0.52499 0.0
C1530 C 0.24054 0.66202 0.52505 0.0
C1531 C 0.26052 0.69157 0.5181 0.0
C1532 C 0.22633 0.67225 0.5273 0.0
C1533 C 0.24597 0.7013 0.52048 0.0
C1534 C 0.28549 0.61763 0.48243 0.0
C1535 C 0.27779 0.62091 0.46504 0.0
C1536 C 0.28592 0.59825 0.48452 0.0
C1537 C 0.27034 0.60468 0.45015 0.0
C1538 C 0.27833 0.58242 0.46929 0.0
N1539 N 0.27075 0.58593 0.45257 0.0
C1540 C 0.31043 0.68335 0.47619 0.0
C1541 C 0.27759 0.67768 0.47446 0.0
C1542 C 0.31092 0.6942 0.4613 0.0
N1543 N 0.29393 0.67556 0.48246 0.0
C1544 C 0.27744 0.68859 0.45977 0.0
C1545 C 0.29426 0.69708 0.45316 0.0
H1546 H 0.32317 0.68131 0.48291 0.0
H1547 H 0.26471 0.67095 0.47958 0.0
C1548 C 0.24728 0.60947 0.53178 0.0
N1549 N 0.25345 0.61567 0.51554 0.0
C1550 C 0.22899 0.59925 0.53167 0.0
C1551 C 0.22404 0.60096 0.4978 0.0
C1552 C 0.24241 0.61127 0.49861 0.0
C1553 C 0.21695 0.59564 0.51473 0.0
H1554 H 0.25598 0.61389 0.54527 0.0
H1555 H 0.24738 0.61708 0.48615 0.0
O1556 O 0.31498 0.67107 0.52297 0.0
O1557 O 0.29213 0.63936 0.54212 0.0
O1558 O 0.27185 0.6619 0.51812 0.0
O1559 O 0.29304 0.63337 0.49707 0.0
H1560 H 0.34992 0.67935 0.53754 0.0
H1561 H 0.30528 0.70478 0.52004 0.0
H1562 H 0.3699 0.71345 0.54708 0.0
H1563 H 0.32594 0.7384 0.52994 0.0
H1564 H 0.29388 0.57771 0.5532 0.0
H1565 H 0.2905 0.6467 0.57998 0.0
H1566 H 0.29418 0.60179 0.53112 0.0
H1567 H 0.29018 0.62182 0.60126 0.0
H1568 H 0.32298 0.71199 0.59859 0.0
H1569 H 0.26367 0.70486 0.58892 0.0
H1570 H 0.34887 0.60227 0.4893 0.0
H1571 H 0.35732 0.61366 0.55192 0.0
H1572 H 0.23812 0.64679 0.52707 0.0
H1573 H 0.27368 0.69935 0.51441 0.0
H1574 H 0.21294 0.66488 0.5309 0.0
H1575 H 0.2479 0.71661 0.51872 0.0
H1576 H 0.2775 0.63581 0.46308 0.0
H1577 H 0.29214 0.59546 0.4977 0.0
H1578 H 0.26425 0.607 0.43666 0.0
H1579 H 0.27853 0.56734 0.47074 0.0
H1580 H 0.32411 0.70056 0.45646 0.0
H1581 H 0.26432 0.69024 0.45352 0.0
H1582 H 0.22398 0.59578 0.54513 0.0
H1583 H 0.21517 0.59837 0.48444 0.0
Li1584 Li 0.42084 0.54882 0.76889 0.0
Li1585 Li 0.44883 0.572 0.79152 0.0
Li1586 Li 0.42345 0.58922 0.77179 0.0
Li1587 Li 0.44755 0.57062 0.75172 0.0
C1588 C 0.40875 0.56307 0.80468 0.0
N1589 N 0.38424 0.54734 0.82917 0.0
C1590 C 0.41306 0.54917 0.81517 0.0
C1591 C 0.39195 0.56889 0.80652 0.0
C1592 C 0.40049 0.54142 0.82751 0.0
C1593 C 0.37975 0.56079 0.81902 0.0
C1594 C 0.46169 0.5395 0.77158 0.0
C1595 C 0.49299 0.53546 0.76884 0.0
N1596 N 0.48906 0.51935 0.77754 0.0
C1597 C 0.45801 0.52306 0.78069 0.0
C1598 C 0.47936 0.54591 0.76579 0.0
C1599 C 0.47202 0.51302 0.7835 0.0
C1600 C 0.41185 0.50477 0.75831 0.0
N1601 N 0.40466 0.52025 0.76669 0.0
C1602 C 0.37823 0.49612 0.77376 0.0
C1603 C 0.38793 0.51605 0.77418 0.0
C1604 C 0.38555 0.47971 0.76565 0.0
C1605 C 0.40274 0.4847 0.75778 0.0
H1606 H 0.42503 0.50793 0.75228 0.0
H1607 H 0.38201 0.52814 0.78072 0.0
C1608 C 0.45703 0.5774 0.83615 0.0
N1609 N 0.46364 0.57115 0.81887 0.0
C1610 C 0.46517 0.57525 0.85437 0.0
C1611 C 0.48725 0.56033 0.83764 0.0
C1612 C 0.47883 0.56294 0.81975 0.0
C1613 C 0.48061 0.56631 0.85581 0.0
H1614 H 0.44506 0.5839 0.836 0.0
H1615 H 0.48453 0.55796 0.8065 0.0
C1616 C 0.40658 0.56527 0.73314 0.0
N1617 N 0.38092 0.56361 0.70264 0.0
C1618 C 0.41109 0.57713 0.71928 0.0
C1619 C 0.38903 0.55257 0.73154 0.0
C1620 C 0.39792 0.57609 0.70396 0.0
C1621 C 0.37625 0.55193 0.71598 0.0
C1622 C 0.46728 0.60835 0.77059 0.0
C1623 C 0.46433 0.62284 0.76018 0.0
C1624 C 0.48535 0.60725 0.77611 0.0
C1625 C 0.47961 0.63609 0.75546 0.0
C1626 C 0.50025 0.62078 0.77112 0.0
N1627 N 0.4971 0.63479 0.76099 0.0
C1628 C 0.40151 0.6218 0.78831 0.0
C1629 C 0.40681 0.62156 0.75583 0.0
C1630 C 0.39201 0.6377 0.78839 0.0
N1631 N 0.40888 0.61365 0.77215 0.0
C1632 C 0.39743 0.63743 0.75532 0.0
C1633 C 0.38961 0.64623 0.77174 0.0
H1634 H 0.40298 0.61611 0.80151 0.0
H1635 H 0.41248 0.61565 0.74284 0.0
C1636 C 0.46824 0.55297 0.71816 0.0
N1637 N 0.46157 0.56935 0.72536 0.0
C1638 C 0.47696 0.55125 0.70048 0.0
C1639 C 0.4715 0.58276 0.69661 0.0
C1640 C 0.46331 0.58416 0.71464 0.0
C1641 C 0.47871 0.56614 0.68896 0.0
H1642 H 0.46667 0.54081 0.72598 0.0
H1643 H 0.45814 0.59723 0.71986 0.0
O1644 O 0.42087 0.5708 0.79252 0.0
O1645 O 0.44817 0.54945 0.76851 0.0
O1646 O 0.41927 0.56605 0.74822 0.0
O1647 O 0.45254 0.59506 0.77508 0.0
H1648 H 0.42593 0.54435 0.8137 0.0
H1649 H 0.38835 0.57948 0.79832 0.0
H1650 H 0.40363 0.53065 0.83574 0.0
H1651 H 0.3667 0.56516 0.82062 0.0
H1652 H 0.50671 0.54021 0.76438 0.0
H1653 H 0.44452 0.51817 0.78565 0.0
H1654 H 0.48255 0.55889 0.75913 0.0
H1655 H 0.46936 0.50022 0.79047 0.0
H1656 H 0.36499 0.49377 0.77975 0.0
H1657 H 0.40957 0.47325 0.75155 0.0
H1658 H 0.45909 0.58071 0.86722 0.0
H1659 H 0.49886 0.55327 0.83688 0.0
H1660 H 0.42457 0.58715 0.72043 0.0
H1661 H 0.38535 0.54331 0.74219 0.0
H1662 H 0.40121 0.58523 0.69314 0.0
H1663 H 0.36261 0.54215 0.71452 0.0
H1664 H 0.45039 0.62376 0.75571 0.0
H1665 H 0.48781 0.59602 0.78412 0.0
H1666 H 0.47756 0.64737 0.74737 0.0
H1667 H 0.51433 0.62013 0.77529 0.0
H1668 H 0.38681 0.64339 0.80178 0.0
H1669 H 0.39624 0.64251 0.74176 0.0
H1670 H 0.48188 0.53792 0.69563 0.0
H1671 H 0.47236 0.59491 0.68882 0.0
Li1672 Li 0.68859 0.03921 0.7574 0.0
Li1673 Li 0.71016 0.05334 0.73741 0.0
Li1674 Li 0.6811 0.03104 0.72322 0.0
Li1675 Li 0.7056 0.01779 0.73827 0.0
C1676 C 0.67564 0.07079 0.74842 0.0
N1677 N 0.65655 0.09786 0.76593 0.0
C1678 C 0.68505 0.09033 0.75634 0.0
C1679 C 0.65649 0.0651 0.74928 0.0
C1680 C 0.67516 0.10377 0.76516 0.0
C1681 C 0.6471 0.07898 0.75823 0.0
C1682 C 0.72083 0.04851 0.77841 0.0
C1683 C 0.7273 0.04353 0.81092 0.0
N1684 N 0.73017 0.06348 0.81751 0.0
C1685 C 0.7239 0.06896 0.78549 0.0
C1686 C 0.72257 0.03568 0.7912 0.0
C1687 C 0.72858 0.07624 0.80531 0.0
C1688 C 0.67006 0.02561 0.78756 0.0
N1689 N 0.67834 0.04249 0.78155 0.0
C1690 C 0.66932 0.0626 0.80866 0.0
C1691 C 0.6788 0.06076 0.79215 0.0
C1692 C 0.65968 0.04542 0.81461 0.0
C1693 C 0.66062 0.02672 0.80416 0.0
H1694 H 0.67048 0.01124 0.77924 0.0
H1695 H 0.6862 0.07396 0.78766 0.0
C1696 C 0.72145 0.08932 0.7256 0.0
N1697 N 0.72761 0.07628 0.73501 0.0
C1698 C 0.73284 0.10783 0.72555 0.0
C1699 C 0.75723 0.09849 0.74357 0.0
C1700 C 0.74524 0.08017 0.74345 0.0
C1701 C 0.75085 0.11286 0.73506 0.0
H1702 H 0.70733 0.08566 0.719 0.0
H1703 H 0.74972 0.06933 0.75067 0.0
C1704 C 0.66258 0.99901 0.73702 0.0
N1705 N 0.62924 0.97154 0.72671 0.0
C1706 C 0.66225 0.97983 0.72708 0.0
C1707 C 0.646 1.00413 0.74196 0.0
C1708 C 0.64523 0.96618 0.72192 0.0
C1709 C 0.62928 0.99006 0.73656 0.0
C1710 C 0.71697 0.03946 0.70266 0.0
C1711 C 0.70902 0.04776 0.68857 0.0
C1712 C 0.7362 0.04176 0.70489 0.0
C1713 C 0.7205 0.05834 0.67698 0.0
C1714 C 0.7472 0.05247 0.69304 0.0
N1715 N 0.73919 0.06048 0.67945 0.0
C1716 C 0.65351 0.04004 0.70022 0.0
C1717 C 0.65774 0.00718 0.69115 0.0
C1718 C 0.63963 0.03666 0.68515 0.0
N1719 N 0.66209 0.02533 0.703 0.0
C1720 C 0.64393 1.00314 0.67582 0.0
C1721 C 0.63478 0.01806 0.67267 0.0
H1722 H 0.65779 0.05457 0.70936 0.0
H1723 H 0.66523 0.99599 0.69337 0.0
C1724 C 0.7116 0.98614 0.75312 0.0
N1725 N 0.71649 0.99633 0.73878 0.0
C1726 C 0.72125 0.97218 0.75729 0.0
C1727 C 0.73997 0.97859 0.73093 0.0
C1728 C 0.72993 0.9925 0.72729 0.0
C1729 C 0.73604 0.96873 0.74653 0.0
H1730 H 0.70086 0.98969 0.762 0.0
H1731 H 0.73338 1.00082 0.71591 0.0
O1732 O 0.68506 0.05747 0.73947 0.0
O1733 O 0.71604 0.04109 0.75908 0.0
O1734 O 0.6791 0.01258 0.74215 0.0
O1735 O 0.70603 0.02976 0.71466 0.0
H1736 H 0.69987 0.09502 0.75601 0.0
H1737 H 0.64892 0.05018 0.74299 0.0
H1738 H 0.68229 0.11889 0.77146 0.0
H1739 H 0.63229 0.07474 0.75901 0.0
H1740 H 0.72868 0.03377 0.82099 0.0
H1741 H 0.7224 0.07909 0.77583 0.0
H1742 H 0.72026 0.01982 0.78596 0.0
H1743 H 0.73087 0.09201 0.811 0.0
H1744 H 0.669 0.07735 0.8162 0.0
H1745 H 0.65386 0.01308 0.80854 0.0
H1746 H 0.72712 0.11846 0.7191 0.0
H1747 H 0.77109 0.1016 0.7508 0.0
H1748 H 0.67499 0.97561 0.72326 0.0
H1749 H 0.64605 0.01875 0.75001 0.0
H1750 H 0.64474 0.95133 0.71411 0.0
H1751 H 0.61634 0.99385 0.74025 0.0
H1752 H 0.69417 0.04625 0.68676 0.0
H1753 H 0.74261 0.03578 0.71599 0.0
H1754 H 0.71456 0.06495 0.66608 0.0
H1755 H 0.76212 0.05454 0.69474 0.0
H1756 H 0.6333 0.04874 0.6828 0.0
H1757 H 0.64068 0.98868 0.66636 0.0
H1758 H 0.71791 0.96518 0.76961 0.0
H1759 H 0.75113 0.97614 0.72216 0.0
Li1760 Li 0.79925 0.70948 0.02771 0.0
Li1761 Li 0.81263 0.68325 0.00828 0.0
Li1762 Li 0.79943 0.70747 0.99166 0.0
Li1763 Li 0.77807 0.68066 0.00404 0.0
C1764 C 0.83239 0.73162 0.01729 0.0
N1765 N 0.85498 0.76934 0.02774 0.0
C1766 C 0.85082 0.73413 0.02456 0.0
C1767 C 0.8254 0.74827 0.01544 0.0
C1768 C 0.86203 0.75332 0.02974 0.0
C1769 C 0.83705 0.76722 0.02077 0.0
C1770 C 0.79923 0.6717 0.04235 0.0
C1771 C 0.7948 0.64453 0.05977 0.0
N1772 N 0.80968 0.65454 0.07243 0.0
C1773 C 0.81459 0.68162 0.0554 0.0
C1774 C 0.78933 0.65294 0.04444 0.0
C1775 C 0.8196 0.67274 0.07057 0.0
C1776 C 0.78263 0.72396 0.06048 0.0
N1777 N 0.7995 0.72505 0.05351 0.0
C1778 C 0.81449 0.74316 0.08447 0.0
C1779 C 0.81531 0.73471 0.06499 0.0
C1780 C 0.79724 0.74166 0.0923 0.0
C1781 C 0.78117 0.73224 0.07977 0.0
H1782 H 0.77026 0.71608 0.05115 0.0
H1783 H 0.82863 0.73516 0.05933 0.0
C1784 C 0.84919 0.67693 0.00411 0.0
N1785 N 0.83207 0.66864 0.00881 0.0
C1786 C 0.86379 0.6672 0.0052 0.0
C1787 C 0.84285 0.64039 0.01558 0.0
C1788 C 0.82868 0.65059 0.01424 0.0
C1789 C 0.86081 0.64873 0.01122 0.0
H1790 H 0.85156 0.69122 0.99968 0.0
H1791 H 0.81494 0.64404 0.01757 0.0
C1792 C 0.76849 0.72219 0.00311 0.0
N1793 N 0.748 0.7478 0.99235 0.0
C1794 C 0.75554 0.71592 0.98687 0.0
C1795 C 0.77097 0.74141 0.01397 0.0
C1796 C 0.74532 0.72912 0.98164 0.0
C1797 C 0.7605 0.75416 0.00826 0.0
C1798 C 0.78889 0.66201 0.96937 0.0
C1799 C 0.77982 0.66451 0.95235 0.0
C1800 C 0.79112 0.64312 0.97131 0.0
C1801 C 0.77313 0.64802 0.93752 0.0
C1802 C 0.78426 0.62701 0.95613 0.0
N1803 N 0.77549 0.62977 0.93969 0.0
C1804 C 0.80909 0.71128 0.95394 0.0
C1805 C 0.79685 0.73821 0.96831 0.0
C1806 C 0.81017 0.71836 0.9365 0.0
N1807 N 0.80216 0.72094 0.96935 0.0
C1808 C 0.79797 0.74603 0.9512 0.0
C1809 C 0.80448 0.73598 0.93475 0.0
H1810 H 0.81337 0.69766 0.955 0.0
H1811 H 0.79157 0.74595 0.98065 0.0
C1812 C 0.74699 0.65878 0.01813 0.0
N1813 N 0.75363 0.66321 0.00137 0.0
C1814 C 0.72947 0.64634 0.0179 0.0
C1815 C 0.72537 0.64385 0.98323 0.0
C1816 C 0.7431 0.65619 0.98411 0.0
C1817 C 0.71838 0.63864 1.00029 0.0
H1818 H 0.75527 0.66512 0.03177 0.0
H1819 H 0.7483 0.66033 0.97102 0.0
O1820 O 0.82126 0.71293 0.01205 0.0
O1821 O 0.79396 0.68022 0.02752 0.0
O1822 O 0.7786 0.70953 0.00851 0.0
O1823 O 0.79596 0.67806 0.98385 0.0
H1824 H 0.85639 0.72139 0.02624 0.0
H1825 H 0.81114 0.74657 0.01002 0.0
H1826 H 0.87633 0.75549 0.03537 0.0
H1827 H 0.83184 0.78025 0.01938 0.0
H1828 H 0.78726 0.63003 0.06156 0.0
H1829 H 0.82263 0.69596 0.05374 0.0
H1830 H 0.77767 0.64483 0.03422 0.0
H1831 H 0.83141 0.68028 0.08084 0.0
H1832 H 0.82731 0.75 0.09349 0.0
H1833 H 0.76753 0.73095 0.08489 0.0
H1834 H 0.87737 0.67432 0.0018 0.0
H1835 H 0.8397 0.62603 0.01989 0.0
H1836 H 0.75347 0.70106 0.97835 0.0
H1837 H 0.78092 0.74645 0.02663 0.0
H1838 H 0.73527 0.72452 0.96907 0.0
H1839 H 0.76231 0.76911 0.01648 0.0
H1840 H 0.77777 0.67899 0.95069 0.0
H1841 H 0.79809 0.64093 0.98438 0.0
H1842 H 0.76604 0.64973 0.92429 0.0
H1843 H 0.78593 0.61231 0.95742 0.0
H1844 H 0.81501 0.70971 0.92437 0.0
H1845 H 0.79378 0.75987 0.95097 0.0
H1846 H 0.72449 0.64313 0.03146 0.0
H1847 H 0.71727 0.63832 0.96934 0.0
Li1848 Li 0.89541 0.52946 0.79405 0.0
Li1849 Li 0.92355 0.54993 0.81468 0.0
Li1850 Li 0.89977 0.56403 0.80295 0.0
Li1851 Li 0.9197 0.5507 0.77964 0.0
C1852 C 0.88654 0.55261 0.83349 0.0
N1853 N 0.86474 0.56961 0.85892 0.0
C1854 C 0.89475 0.56611 0.8503 0.0
C1855 C 0.86726 0.54765 0.82967 0.0
C1856 C 0.88348 0.57457 0.86297 0.0
C1857 C 0.85647 0.55645 0.84268 0.0
C1858 C 0.93097 0.51353 0.79168 0.0
C1859 C 0.95793 0.50037 0.78469 0.0
N1860 N 0.9499 0.48345 0.79082 0.0
C1861 C 0.92299 0.49599 0.79791 0.0
C1862 C 0.94859 0.51573 0.78499 0.0
C1863 C 0.93277 0.48096 0.79736 0.0
C1864 C 0.88046 0.4935 0.77001 0.0
N1865 N 0.87972 0.50398 0.78797 0.0
C1866 C 0.86011 0.47585 0.7968 0.0
C1867 C 0.86965 0.49576 0.80128 0.0
C1868 C 0.86102 0.46449 0.77847 0.0
C1869 C 0.8709 0.47377 0.7648 0.0
H1870 H 0.88898 0.50036 0.75993 0.0
H1871 H 0.86974 0.50438 0.81563 0.0
C1872 C 0.94829 0.57039 0.84641 0.0
N1873 N 0.9414 0.552 0.83545 0.0
C1874 C 0.96218 0.57318 0.86142 0.0
C1875 C 0.96141 0.53797 0.8537 0.0
C1876 C 0.94744 0.53586 0.83898 0.0
C1877 C 0.96901 0.55685 0.86503 0.0
H1878 H 0.94309 0.58293 0.84333 0.0
H1879 H 0.94146 0.52134 0.83044 0.0
C1880 C 0.87885 0.53797 0.76234 0.0
N1881 N 0.85128 0.51666 0.73387 0.0
C1882 C 0.88272 0.53424 0.74299 0.0
C1883 C 0.86086 0.53112 0.76715 0.0
C1884 C 0.86862 0.52337 0.72883 0.0
C1885 C 0.84714 0.52029 0.75256 0.0
C1886 C 0.94457 0.58399 0.80155 0.0
C1887 C 0.94792 0.60426 0.80094 0.0
C1888 C 0.95933 0.5745 0.80128 0.0
C1889 C 0.96605 0.61471 0.8 0.0
C1890 C 0.97726 0.58546 0.80037 0.0
N1891 N 0.98022 0.60518 0.79973 0.0
C1892 C 0.89733 0.60247 0.8207 0.0
C1893 C 0.87061 0.58297 0.80087 0.0
C1894 C 0.88946 0.61904 0.82321 0.0
N1895 N 0.88797 0.58512 0.80927 0.0
C1896 C 0.86222 0.59904 0.80299 0.0
C1897 C 0.87188 0.61756 0.8138 0.0
H1898 H 0.91116 0.60363 0.82721 0.0
H1899 H 0.8636 0.56901 0.79181 0.0
C1900 C 0.93157 0.53189 0.74719 0.0
N1901 N 0.93247 0.55052 0.75723 0.0
C1902 C 0.94237 0.52898 0.73188 0.0
C1903 C 0.9539 0.56467 0.73655 0.0
C1904 C 0.94297 0.56688 0.75202 0.0
C1905 C 0.95398 0.54546 0.72669 0.0
H1906 H 0.92287 0.51922 0.75154 0.0
H1907 H 0.94331 0.58154 0.76018 0.0
O1908 O 0.89734 0.54428 0.82085 0.0
O1909 O 0.92148 0.52832 0.79185 0.0
O1910 O 0.89254 0.54859 0.77639 0.0
O1911 O 0.92684 0.57358 0.80221 0.0
H1912 H 0.90965 0.57007 0.85348 0.0
H1913 H 0.86068 0.53721 0.81674 0.0
H1914 H 0.88964 0.58508 0.87601 0.0
H1915 H 0.84153 0.55282 0.83986 0.0
H1916 H 0.97156 0.50189 0.77955 0.0
H1917 H 0.9095 0.49405 0.80336 0.0
H1918 H 0.955 0.52908 0.77996 0.0
H1919 H 0.92677 0.46734 0.80217 0.0
H1920 H 0.85292 0.4692 0.80788 0.0
H1921 H 0.87175 0.46568 0.75042 0.0
H1922 H 0.9677 0.58795 0.8699 0.0
H1923 H 0.96604 0.52494 0.85637 0.0
H1924 H 0.89643 0.53977 0.7389 0.0
H1925 H 0.85758 0.5338 0.78202 0.0
H1926 H 0.87146 0.52032 0.71381 0.0
H1927 H 0.83321 0.51473 0.75612 0.0
H1928 H 0.93661 0.61181 0.80108 0.0
H1929 H 0.95699 0.55887 0.80185 0.0
H1930 H 0.96884 0.6304 0.79945 0.0
H1931 H 0.98882 0.57831 0.80017 0.0
H1932 H 0.89732 0.63301 0.83175 0.0
H1933 H 0.84883 0.59725 0.79512 0.0
H1934 H 0.94192 0.51399 0.72439 0.0
H1935 H 0.96273 0.57768 0.73285 0.0
Li1936 Li 0.81692 0.42121 0.53439 0.0
Li1937 Li 0.80062 0.44008 0.51575 0.0
Li1938 Li 0.81893 0.41658 0.50007 0.0
Li1939 Li 0.83414 0.44857 0.52038 0.0
C1940 C 0.78521 0.39471 0.51879 0.0
N1941 N 0.76307 0.36228 0.5299 0.0
C1942 C 0.76818 0.39611 0.52582 0.0
C1943 C 0.79092 0.37679 0.51725 0.0
C1944 C 0.7572 0.37955 0.53141 0.0
C1945 C 0.77955 0.36057 0.52299 0.0
C1946 C 0.82334 0.46551 0.55496 0.0
C1947 C 0.82981 0.50079 0.56755 0.0
N1948 N 0.83774 0.49776 0.58433 0.0
C1949 C 0.8314 0.46271 0.57238 0.0
C1950 C 0.82237 0.48466 0.55256 0.0
C1951 C 0.83867 0.47923 0.58703 0.0
C1952 C 0.83115 0.40143 0.56029 0.0
N1953 N 0.81609 0.40837 0.55568 0.0
C1954 C 0.8006 0.39611 0.58148 0.0
C1955 C 0.80107 0.40625 0.56604 0.0
C1956 C 0.81584 0.38835 0.58626 0.0
C1957 C 0.83132 0.39128 0.57557 0.0
H1958 H 0.84312 0.4039 0.5522 0.0
H1959 H 0.78947 0.41237 0.56226 0.0
C1960 C 0.77171 0.45319 0.49738 0.0
N1961 N 0.77993 0.45087 0.51428 0.0
C1962 C 0.75733 0.46321 0.49771 0.0
C1963 C 0.76003 0.46754 0.53274 0.0
C1964 C 0.77427 0.45751 0.53172 0.0
C1965 C 0.75147 0.47065 0.51562 0.0
H1966 H 0.77657 0.44765 0.48373 0.0
H1967 H 0.78117 0.4554 0.54487 0.0
C1968 C 0.85269 0.41233 0.51461 0.0
N1969 N 0.87946 0.39229 0.50202 0.0
C1970 C 0.86958 0.42277 0.5098 0.0
C1971 C 0.8495 0.3917 0.51313 0.0
C1972 C 0.88291 0.41238 0.50345 0.0
C1973 C 0.86317 0.38184 0.50668 0.0
C1974 C 0.81813 0.45657 0.4836 0.0
C1975 C 0.82143 0.45121 0.46425 0.0
C1976 C 0.81525 0.47553 0.49042 0.0
C1977 C 0.82187 0.46499 0.45202 0.0
C1978 C 0.81574 0.48887 0.47772 0.0
N1979 N 0.81904 0.48338 0.45895 0.0
C1980 C 0.80412 0.38469 0.47013 0.0
C1981 C 0.83578 0.39953 0.46847 0.0
C1982 C 0.80386 0.37127 0.45298 0.0
N1983 N 0.81993 0.39838 0.47748 0.0
C1984 C 0.83624 0.38617 0.45147 0.0
C1985 C 0.82007 0.372 0.44351 0.0
H1986 H 0.79161 0.38448 0.47737 0.0
H1987 H 0.84792 0.41108 0.47422 0.0
C1988 C 0.86719 0.47222 0.54015 0.0
N1989 N 0.85592 0.46884 0.52348 0.0
C1990 C 0.88553 0.48271 0.5411 0.0
C1991 C 0.87996 0.48691 0.50805 0.0
C1992 C 0.86175 0.47645 0.5078 0.0
C1993 C 0.89231 0.48929 0.52453 0.0
H1994 H 0.86248 0.46532 0.55212 0.0
H1995 H 0.85296 0.47292 0.49444 0.0
O1996 O 0.79609 0.41073 0.51315 0.0
O1997 O 0.81603 0.44951 0.54051 0.0
O1998 O 0.83956 0.4223 0.52114 0.0
O1999 O 0.81826 0.44342 0.49585 0.0
H2000 H 0.76354 0.40987 0.52701 0.0
H2001 H 0.80395 0.37542 0.51163 0.0
H2002 H 0.74401 0.38042 0.53695 0.0
H2003 H 0.78381 0.34662 0.52191 0.0
H2004 H 0.82923 0.51571 0.56587 0.0
H2005 H 0.83215 0.44797 0.57452 0.0
H2006 H 0.81592 0.48705 0.53931 0.0
H2007 H 0.84504 0.4773 0.60055 0.0
H2008 H 0.78846 0.39422 0.58946 0.0
H2009 H 0.84356 0.38605 0.57916 0.0
H2010 H 0.75095 0.4652 0.4842 0.0
H2011 H 0.75615 0.47332 0.54685 0.0
H2012 H 0.87239 0.43871 0.51088 0.0
H2013 H 0.83662 0.38338 0.51695 0.0
H2014 H 0.89601 0.42028 0.49966 0.0
H2015 H 0.86085 0.36587 0.50543 0.0
H2016 H 0.82379 0.43661 0.45879 0.0
H2017 H 0.81273 0.47991 0.50536 0.0
H2018 H 0.82451 0.46108 0.43703 0.0
H2019 H 0.81356 0.50361 0.48281 0.0
H2020 H 0.7911 0.36062 0.44705 0.0
H2021 H 0.84885 0.3874 0.44421 0.0
H2022 H 0.89462 0.48437 0.55413 0.0
H2023 H 0.88467 0.49136 0.49484 0.0
Li2024 Li 0.66216 0.51482 0.28662 0.0
Li2025 Li 0.68947 0.53597 0.27036 0.0
Li2026 Li 0.66099 0.51206 0.24644 0.0
Li2027 Li 0.6862 0.49531 0.26581 0.0
C2028 C 0.64875 0.5459 0.27294 0.0
N2029 N 0.62173 0.56692 0.28137 0.0
C2030 C 0.65371 0.56572 0.28259 0.0
C2031 C 0.63008 0.53676 0.26757 0.0
C2032 C 0.63983 0.5761 0.28674 0.0
C2033 C 0.61661 0.54765 0.27195 0.0
C2034 C 0.70302 0.52506 0.30603 0.0
C2035 C 0.73195 0.52578 0.32377 0.0
N2036 N 0.72848 0.53993 0.33807 0.0
C2037 C 0.69972 0.53957 0.32088 0.0
C2038 C 0.71925 0.51808 0.30743 0.0
C2039 C 0.71278 0.54692 0.33696 0.0
C2040 C 0.64052 0.49986 0.32015 0.0
N2041 N 0.6479 0.51641 0.31273 0.0
C2042 C 0.63828 0.53642 0.34096 0.0
C2043 C 0.64669 0.53451 0.3231 0.0
C2044 C 0.63062 0.51966 0.34917 0.0
C2045 C 0.63196 0.50114 0.33798 0.0
H2046 H 0.64139 0.48539 0.31238 0.0
H2047 H 0.65246 0.54783 0.31769 0.0
C2048 C 0.71313 0.57015 0.25628 0.0
N2049 N 0.70583 0.56442 0.27241 0.0
C2050 C 0.72274 0.59004 0.25651 0.0
C2051 C 0.71725 0.59848 0.28985 0.0
C2052 C 0.70793 0.57837 0.28907 0.0
C2053 C 0.72487 0.60488 0.2734 0.0
H2054 H 0.71113 0.55938 0.24289 0.0
H2055 H 0.70193 0.57411 0.30181 0.0
C2056 C 0.64249 0.47417 0.25885 0.0
N2057 N 0.61272 0.44194 0.24878 0.0
C2058 C 0.64478 0.45647 0.24766 0.0
C2059 C 0.62511 0.47551 0.26496 0.0
C2060 C 0.62954 0.44033 0.24271 0.0
C2061 C 0.61021 0.45903 0.25969 0.0
C2062 C 0.70087 0.51071 0.23235 0.0
C2063 C 0.69395 0.49751 0.21497 0.0
C2064 C 0.71983 0.5194 0.23579 0.0
C2065 C 0.70613 0.49336 0.20117 0.0
C2066 C 0.73156 0.5149 0.2216 0.0
N2067 N 0.72452 0.50209 0.20473 0.0
C2068 C 0.6411 0.53092 0.21741 0.0
C2069 C 0.64214 0.49835 0.20348 0.0
C2070 C 0.63237 0.53355 0.19969 0.0
N2071 N 0.64601 0.51349 0.21941 0.0
C2072 C 0.63367 0.50049 0.18539 0.0
C2073 C 0.6285 0.51837 0.18285 0.0
H2074 H 0.64421 0.54326 0.22956 0.0
H2075 H 0.6458 0.48441 0.20452 0.0
C2076 C 0.70026 0.46093 0.28071 0.0
N2077 N 0.70074 0.47081 0.26543 0.0
C2078 C 0.70956 0.44502 0.28138 0.0
C2079 C 0.72022 0.44883 0.25066 0.0
C2080 C 0.71073 0.46471 0.25054 0.0
C2081 C 0.71999 0.43822 0.26622 0.0
H2082 H 0.69264 0.46537 0.29277 0.0
H2083 H 0.71148 0.47211 0.23825 0.0
O2084 O 0.66207 0.53539 0.26895 0.0
O2085 O 0.69034 0.51753 0.29027 0.0
O2086 O 0.65725 0.49005 0.26401 0.0
O2087 O 0.68918 0.51479 0.24609 0.0
H2088 H 0.6681 0.57298 0.28691 0.0
H2089 H 0.62605 0.52142 0.26006 0.0
H2090 H 0.64346 0.59144 0.29424 0.0
H2091 H 0.6021 0.54078 0.26786 0.0
H2092 H 0.74456 0.52051 0.32509 0.0
H2093 H 0.68723 0.54513 0.31995 0.0
H2094 H 0.72196 0.50681 0.29603 0.0
H2095 H 0.71043 0.55818 0.34857 0.0
H2096 H 0.63775 0.55121 0.34814 0.0
H2097 H 0.62675 0.48747 0.34305 0.0
H2098 H 0.72794 0.59383 0.24324 0.0
H2099 H 0.71845 0.60893 0.30338 0.0
H2100 H 0.6582 0.45524 0.2429 0.0
H2101 H 0.62317 0.4891 0.27373 0.0
H2102 H 0.63108 0.42652 0.23407 0.0
H2103 H 0.59666 0.45983 0.26431 0.0
H2104 H 0.67936 0.49043 0.21226 0.0
H2105 H 0.72542 0.52948 0.24928 0.0
H2106 H 0.70097 0.48316 0.18765 0.0
H2107 H 0.74626 0.52157 0.22401 0.0
H2108 H 0.62915 0.54781 0.19915 0.0
H2109 H 0.63108 0.48795 0.17344 0.0
H2110 H 0.70861 0.43832 0.29412 0.0
H2111 H 0.72758 0.44487 0.23825 0.0
Gd2112 Gd 0.0771 0.05643 0.03103 0.0
Gd2113 Gd 0.03341 0.0263 0.00827 0.0
C2114 C 0.02 0.95841 1.00116 0.0
C2115 C 0.01635 0.94791 0.96614 0.0
C2116 C 0.02345 0.98311 0.98068 0.0
C2117 C 0.024 0.97848 0.99892 0.0
C2118 C 0.01902 0.96787 0.96406 0.0
C2119 C 0.01685 0.94318 0.98468 0.0
C2120 C 0.01824 0.95426 0.0198 0.0
C2121 C 0.01944 0.96986 0.03544 0.0
N2122 N 0.02661 0.99356 0.01445 0.0
C2123 C 0.02326 0.98949 0.03242 0.0
H2124 H 0.02415 1.00135 0.04469 0.0
C2125 C 0.02185 0.00757 0.96179 0.0
N2126 N 0.02556 1.00248 0.97927 0.0
C2127 C 0.01759 0.99304 0.94487 0.0
C2128 C 0.0165 0.97312 0.94596 0.0
H2129 H 0.02269 0.02294 0.96081 0.0
H2130 H 0.01399 0.9277 0.98612 0.0
H2131 H 0.08554 0.08026 0.99339 0.0
H2132 H 0.01519 0.93906 0.02215 0.0
H2133 H 0.01747 0.96681 0.04984 0.0
H2134 H 0.01316 0.936 0.95354 0.0
H2135 H 0.08784 0.06114 0.07854 0.0
H2136 H 0.09699 0.14285 0.01451 0.0
H2137 H 0.09295 0.11428 0.98732 0.0
H2138 H 0.10023 0.14803 0.08341 0.0
H2139 H 0.01515 0.99721 0.93101 0.0
H2140 H 0.01305 0.96186 0.93285 0.0
H2141 H 0.09932 0.15532 0.05043 0.0
H2142 H 0.09608 0.08752 0.10778 0.0
N2143 N 0.08446 0.0889 0.02387 0.0
C2144 C 0.09364 0.12783 0.01732 0.0
C2145 C 0.09144 0.11175 0.00196 0.0
C2146 C 0.09229 0.12431 0.0362 0.0
C2147 C 0.08783 0.10444 0.03903 0.0
C2148 C 0.08721 0.09234 0.00555 0.0
N2149 N 0.08569 0.08113 0.05939 0.0
C2150 C 0.08838 0.10039 0.05746 0.0
C2151 C 0.09383 0.09137 0.09373 0.0
C2152 C 0.09564 0.11124 0.09208 0.0
C2153 C 0.08917 0.07647 0.07712 0.0
C2154 C 0.09333 0.11601 0.07374 0.0
H2155 H 0.09944 0.12279 0.10494 0.0
O2156 O 0.10077 0.04846 0.04438 0.0
O2157 O 0.06057 0.02492 0.02228 0.0
O2158 O 0.0309 0.03587 0.04138 0.0
O2159 O 0.05675 0.06096 0.05446 0.0
O2160 O 0.07404 0.03331 0.04992 0.0
O2161 O 0.10234 0.05776 0.01663 0.0
O2162 O 0.01037 0.03641 0.99634 0.0
O2163 O 0.04973 0.05792 0.01754 0.0
O2164 O 0.07898 0.04708 0.99777 0.0
O2165 O 0.05393 0.02093 0.98522 0.0
O2166 O 0.03661 0.04966 0.98973 0.0
O2167 O 0.00687 0.02072 0.02032 0.0
C2168 C 0.06394 0.0186 0.03775 0.0
C2169 C 0.09661 0.13583 0.07109 0.0
C2170 C 0.09608 0.13998 0.05232 0.0
C2171 C 0.11105 0.05229 0.03053 0.0
C2172 C 0.13024 0.06292 0.03629 0.0
C2173 C 0.13501 0.08258 0.04655 0.0
C2174 C 0.14404 0.05265 0.03162 0.0
C2175 C 0.16275 0.06157 0.03753 0.0
C2176 C 0.15365 0.09177 0.05219 0.0
C2177 C 0.16749 0.08134 0.04778 0.0
C2178 C 0.04005 0.04988 0.05616 0.0
C2179 C 0.04638 0.06442 0.00215 0.0
C2180 C 0.99907 0.02912 0.00809 0.0
C2181 C 0.98024 0.01937 0.99978 0.0
C2182 C 0.97569 1.00014 0.98852 0.0
C2183 C 0.96665 0.03027 0.00279 0.0
C2184 C 0.94846 0.0225 0.99424 0.0
C2185 C 0.95746 0.99202 0.98028 0.0
C2186 C 0.94388 1.00314 0.98306 0.0
C2187 C 0.07024 0.03256 0.98321 0.0
H2188 H 0.12441 0.0907 0.05022 0.0
H2189 H 0.14011 0.03757 0.02335 0.0
H2190 H 0.15737 0.10694 0.06018 0.0
H2191 H 0.1818 0.08859 0.05269 0.0
H2192 H 0.98613 0.99154 0.98605 0.0
H2193 H 0.97037 0.04501 0.01182 0.0
H2194 H 0.95391 0.9772 0.97153 0.0
H2195 H 0.92996 0.99676 0.9762 0.0
Gd2196 Gd 0.29599 0.80348 0.2895 0.0
Gd2197 Gd 0.31356 0.77901 0.2458 0.0
C2198 C 0.28162 0.71662 0.21467 0.0
C2199 C 0.30544 0.69775 0.21458 0.0
C2200 C 0.31175 0.73218 0.23173 0.0
C2201 C 0.29423 0.73355 0.22556 0.0
C2202 C 0.31744 0.71409 0.22658 0.0
C2203 C 0.28749 0.69896 0.20873 0.0
C2204 C 0.26325 0.71762 0.21073 0.0
C2205 C 0.25759 0.73473 0.21862 0.0
N2206 N 0.28902 0.75088 0.23163 0.0
C2207 C 0.27055 0.751 0.2294 0.0
H2208 H 0.26514 0.76292 0.23671 0.0
C2209 C 0.34053 0.74718 0.24963 0.0
N2210 N 0.32302 0.74829 0.24331 0.0
C2211 C 0.34658 0.72951 0.24529 0.0
C2212 C 0.33501 0.71288 0.23365 0.0
H2213 H 0.35045 0.76002 0.25736 0.0
H2214 H 0.27808 0.68595 0.20015 0.0
H2215 H 0.34215 0.82026 0.31156 0.0
H2216 H 0.25315 0.70494 0.20255 0.0
H2217 H 0.24313 0.73525 0.21681 0.0
H2218 H 0.30969 0.68388 0.21026 0.0
H2219 H 0.25714 0.81905 0.27784 0.0
H2220 H 0.35239 0.882 0.3321 0.0
H2221 H 0.36229 0.85033 0.32824 0.0
H2222 H 0.29758 0.90046 0.31151 0.0
H2223 H 0.36042 0.72893 0.25049 0.0
H2224 H 0.33983 0.69926 0.23008 0.0
H2225 H 0.32849 0.90043 0.32562 0.0
H2226 H 0.24662 0.84969 0.27896 0.0
N2227 N 0.31879 0.83279 0.30549 0.0
C2228 C 0.3429 0.86841 0.3247 0.0
C2229 C 0.3485 0.85059 0.32257 0.0
C2230 C 0.3253 0.86857 0.31692 0.0
C2231 C 0.31341 0.85041 0.30723 0.0
C2232 C 0.33642 0.83305 0.31294 0.0
N2233 N 0.28505 0.83314 0.28948 0.0
C2234 C 0.29617 0.85058 0.2989 0.0
C2235 C 0.26072 0.85028 0.28432 0.0
C2236 C 0.27243 0.86836 0.29274 0.0
C2237 C 0.26706 0.83281 0.28331 0.0
C2238 C 0.29021 0.86868 0.30054 0.0
H2239 H 0.26742 0.88191 0.29371 0.0
O2240 O 0.2671 0.79431 0.29363 0.0
O2241 O 0.29366 0.77583 0.2676 0.0
O2242 O 0.28992 0.79 0.23268 0.0
O2243 O 0.27832 0.80314 0.26125 0.0
O2244 O 0.29375 0.77286 0.29658 0.0
O2245 O 0.28736 0.80561 0.31873 0.0
O2246 O 0.34244 0.78606 0.24086 0.0
O2247 O 0.31642 0.80645 0.26809 0.0
O2248 O 0.32005 0.79256 0.30179 0.0
O2249 O 0.3323 0.77998 0.27342 0.0
O2250 O 0.31657 0.8098 0.23917 0.0
O2251 O 0.32142 0.77712 0.21628 0.0
C2252 C 0.29242 0.76358 0.2789 0.0
C2253 C 0.30196 0.88653 0.31019 0.0
C2254 C 0.31949 0.88648 0.31831 0.0
C2255 C 0.27011 0.79689 0.31241 0.0
C2256 C 0.26085 0.77992 0.32082 0.0
C2257 C 0.24269 0.76971 0.31349 0.0
C2258 C 0.27013 0.77309 0.33526 0.0
C2259 C 0.2615 0.756 0.34198 0.0
C2260 C 0.23412 0.75268 0.32011 0.0
C2261 C 0.24348 0.74576 0.33422 0.0
C2262 C 0.27776 0.79874 0.24196 0.0
C2263 C 0.31792 0.81882 0.25693 0.0
C2264 C 0.33905 0.78396 0.22216 0.0
C2265 C 0.34975 0.8001 0.21363 0.0
C2266 C 0.36889 0.8067 0.21908 0.0
C2267 C 0.34127 0.80928 0.20058 0.0
C2268 C 0.35179 0.82507 0.1932 0.0
C2269 C 0.37934 0.82246 0.21188 0.0
C2270 C 0.37086 0.83166 0.19905 0.0
C2271 C 0.33284 0.78472 0.29267 0.0
H2272 H 0.23521 0.77474 0.30239 0.0
H2273 H 0.28415 0.78076 0.34103 0.0
H2274 H 0.22018 0.74483 0.31428 0.0
H2275 H 0.23653 0.73264 0.33935 0.0
H2276 H 0.37576 0.79975 0.22904 0.0
H2277 H 0.32651 0.80436 0.19629 0.0
H2278 H 0.39406 0.82748 0.2162 0.0
H2279 H 0.37928 0.84364 0.19336 0.0
Gd2280 Gd 0.53305 0.03952 0.52681 0.0
Gd2281 Gd 0.58047 0.0469 0.51182 0.0
C2282 C 0.61609 0.10902 0.5129 0.0
C2283 C 0.61999 0.10849 0.47874 0.0
C2284 C 0.60233 0.07932 0.48921 0.0
C2285 C 0.60535 0.08933 0.5082 0.0
C2286 C 0.61003 0.08857 0.4743 0.0
C2287 C 0.62298 0.11871 0.49802 0.0
C2288 C 0.6201 0.11813 0.53244 0.0
C2289 C 0.6141 0.10731 0.54672 0.0
N2290 N 0.59877 0.07939 0.52221 0.0
C2291 C 0.60367 0.08774 0.54132 0.0
H2292 H 0.59916 0.07959 0.55253 0.0
C2293 C 0.59182 0.04866 0.46742 0.0
N2294 N 0.59287 0.06004 0.48549 0.0
C2295 C 0.59912 0.05719 0.45212 0.0
C2296 C 0.60804 0.07732 0.45551 0.0
H2297 H 0.585 0.03308 0.46469 0.0
H2298 H 0.63111 0.1339 0.50132 0.0
H2299 H 0.51381 0.00843 0.48536 0.0
H2300 H 0.62824 0.13325 0.53666 0.0
H2301 H 0.61749 0.11404 0.5619 0.0
H2302 H 0.62586 0.11593 0.46747 0.0
H2303 H 0.53022 0.05125 0.57446 0.0
H2304 H 0.48422 0.95403 0.4994 0.0
H2305 H 0.49496 0.97431 0.47496 0.0
H2306 H 0.48777 0.96847 0.56882 0.0
H2307 H 0.59789 0.04823 0.43774 0.0
H2308 H 0.61377 0.08387 0.44365 0.0
H2309 H 0.48177 0.95191 0.53452 0.0
H2310 H 0.51745 0.03498 0.60085 0.0
N2311 N 0.51444 0.00738 0.51545 0.0
C2312 C 0.49258 0.96901 0.50407 0.0
C2313 C 0.49857 0.98043 0.49024 0.0
C2314 C 0.49693 0.97731 0.52378 0.0
C2315 C 0.50795 0.99683 0.52907 0.0
C2316 C 0.50928 0.99981 0.49623 0.0
N2317 N 0.52116 0.02521 0.55268 0.0
C2318 C 0.51139 1.00605 0.54833 0.0
C2319 C 0.51573 0.02664 0.58616 0.0
C2320 C 0.50636 0.00664 0.58205 0.0
C2321 C 0.52292 0.03581 0.57118 0.0
C2322 C 0.50384 0.99616 0.5629 0.0
H2323 H 0.50074 0.99958 0.59366 0.0
O2324 O 0.51709 0.06068 0.53885 0.0
O2325 O 0.55848 0.06205 0.52339 0.0
O2326 O 0.57901 0.04652 0.54382 0.0
O2327 O 0.55001 0.02749 0.54729 0.0
O2328 O 0.54591 0.06745 0.54854 0.0
O2329 O 0.50881 0.04304 0.51013 0.0
O2330 O 0.59469 0.02327 0.50238 0.0
O2331 O 0.55488 0.02454 0.51506 0.0
O2332 O 0.53405 0.0414 0.49512 0.0
O2333 O 0.56395 0.05748 0.48981 0.0
O2334 O 0.56746 0.01904 0.48997 0.0
O2335 O 0.60604 0.04547 0.52776 0.0
C2336 C 0.55906 0.07472 0.53882 0.0
C2337 C 0.49354 0.9764 0.55782 0.0
C2338 C 0.49013 0.96698 0.53828 0.0
C2339 C 0.5048 0.0561 0.52388 0.0
C2340 C 0.4852 0.05306 0.52801 0.0
C2341 C 0.47706 0.03667 0.53601 0.0
C2342 C 0.47446 0.0665 0.5239 0.0
C2343 C 0.4556 0.0634 0.52763 0.0
C2344 C 0.45856 0.03366 0.53995 0.0
C2345 C 0.44791 0.04687 0.53583 0.0
C2346 C 0.56779 0.03471 0.55307 0.0
C2347 C 0.55408 0.01195 0.49954 0.0
C2348 C 0.60837 0.02991 0.51588 0.0
C2349 C 0.62709 0.03051 0.50949 0.0
C2350 C 0.63488 0.04469 0.49865 0.0
C2351 C 0.63694 0.01624 0.5134 0.0
C2352 C 0.65422 0.01591 0.50603 0.0
C2353 C 0.65201 0.04444 0.49142 0.0
C2354 C 0.66155 0.03007 0.49494 0.0
C2355 C 0.54589 0.05148 0.485 0.0
H2356 H 0.485 0.02619 0.53921 0.0
H2357 H 0.48068 0.07908 0.51754 0.0
H2358 H 0.45243 0.02102 0.54623 0.0
H2359 H 0.43362 0.04422 0.53925 0.0
H2360 H 0.62768 0.05584 0.49563 0.0
H2361 H 0.63101 1.0052 0.52174 0.0
H2362 H 0.65785 0.05536 0.48297 0.0
H2363 H 0.6748 0.03011 0.48913 0.0
Gd2364 Gd 0.32858 0.28728 0.77312 0.0
Gd2365 Gd 0.28208 0.29766 0.76788 0.0
C2366 C 0.25567 0.29209 0.7062 0.0
C2367 C 0.25406 0.32619 0.7053 0.0
C2368 C 0.26638 0.31772 0.73467 0.0
C2369 C 0.26378 0.29819 0.72551 0.0
C2370 C 0.26084 0.33182 0.72496 0.0
C2371 C 0.2515 0.30632 0.69592 0.0
C2372 C 0.25114 0.27177 0.69816 0.0
C2373 C 0.2538 0.25809 0.70967 0.0
N2374 N 0.26755 0.28484 0.73609 0.0
C2375 C 0.26176 0.2649 0.72879 0.0
H2376 H 0.26378 0.25405 0.73733 0.0
C2377 C 0.27141 0.34032 0.76452 0.0
N2378 N 0.27244 0.32242 0.75376 0.0
C2379 C 0.26624 0.35491 0.75554 0.0
C2380 C 0.26131 0.35079 0.73557 0.0
H2381 H 0.27529 0.34358 0.77997 0.0
H2382 H 0.24553 0.30197 0.68098 0.0
H2383 H 0.3463 0.33139 0.80318 0.0
H2384 H 0.24493 0.26646 0.68338 0.0
H2385 H 0.24983 0.24229 0.7038 0.0
H2386 H 0.24999 0.33686 0.69749 0.0
H2387 H 0.33475 0.24108 0.76164 0.0
H2388 H 0.36679 0.32011 0.857 0.0
H2389 H 0.36072 0.34374 0.83646 0.0
H2390 H 0.36294 0.2499 0.84361 0.0
H2391 H 0.26606 0.36931 0.76403 0.0
H2392 H 0.25715 0.36204 0.72867 0.0
H2393 H 0.36716 0.28489 0.85969 0.0
H2394 H 0.34501 0.21601 0.77774 0.0
N2395 N 0.34341 0.30073 0.80467 0.0
C2396 C 0.36037 0.31453 0.84233 0.0
C2397 C 0.35704 0.3279 0.83075 0.0
C2398 C 0.35618 0.29416 0.83449 0.0
C2399 C 0.34776 0.28769 0.81533 0.0
C2400 C 0.34882 0.32075 0.81176 0.0
N2401 N 0.33866 0.26294 0.78748 0.0
C2402 C 0.34526 0.26808 0.80641 0.0
C2403 C 0.34503 0.23055 0.78603 0.0
C2404 C 0.35068 0.23519 0.80586 0.0
C2405 C 0.3393 0.24479 0.77695 0.0
C2406 C 0.35126 0.2543 0.81622 0.0
H2407 H 0.35521 0.22418 0.81285 0.0
O2408 O 0.34636 0.27669 0.75182 0.0
O2409 O 0.30582 0.29002 0.75227 0.0
O2410 O 0.27972 0.26442 0.76883 0.0
O2411 O 0.3085 0.25949 0.77936 0.0
O2412 O 0.3173 0.26538 0.74585 0.0
O2413 O 0.35462 0.30642 0.76835 0.0
O2414 O 0.26442 0.30743 0.78967 0.0
O2415 O 0.30481 0.29481 0.78873 0.0
O2416 O 0.33112 0.32044 0.77152 0.0
O2417 O 0.30207 0.32585 0.76259 0.0
O2418 O 0.29318 0.31929 0.79539 0.0
O2419 O 0.25552 0.27863 0.77143 0.0
C2420 C 0.30558 0.27458 0.73968 0.0
C2421 C 0.3585 0.26033 0.83572 0.0
C2422 C 0.36092 0.28025 0.84487 0.0
C2423 C 0.35932 0.29293 0.75563 0.0
C2424 C 0.37865 0.29055 0.75826 0.0
C2425 C 0.3847 0.28492 0.77522 0.0
C2426 C 0.39129 0.29422 0.74414 0.0
C2427 C 0.40991 0.29262 0.74733 0.0
C2428 C 0.40288 0.28295 0.77824 0.0
C2429 C 0.41538 0.28683 0.76452 0.0
C2430 C 0.29026 0.25293 0.7747 0.0
C2431 C 0.305 0.31014 0.80146 0.0
C2432 C 0.25104 0.29164 0.78482 0.0
C2433 C 0.23208 0.29505 0.78229 0.0
C2434 C 0.22696 0.30267 0.76618 0.0
C2435 C 0.21897 0.29077 0.79581 0.0
C2436 C 0.20085 0.29399 0.793 0.0
C2437 C 0.20936 0.30631 0.7636 0.0
C2438 C 0.19644 0.30208 0.77684 0.0
C2439 C 0.3204 0.33214 0.76649 0.0
H2440 H 0.3754 0.28217 0.78624 0.0
H2441 H 0.3868 0.29874 0.73103 0.0
H2442 H 0.40736 0.27854 0.79139 0.0
H2443 H 0.42944 0.28524 0.76733 0.0
H2444 H 0.23658 0.30578 0.75554 0.0
H2445 H 0.22275 0.28464 0.80817 0.0
H2446 H 0.20566 0.3124 0.75119 0.0
H2447 H 0.18293 0.30525 0.77442 0.0
Gd2448 Gd 0.05986 0.01909 0.50752 0.0
Gd2449 Gd 0.05249 0.06528 0.53073 0.0
C2450 C 0.06039 0.08555 0.59657 0.0
C2451 C 0.02935 0.08831 0.60412 0.0
C2452 C 0.03562 0.07821 0.57072 0.0
C2453 C 0.05392 0.07938 0.57676 0.0
C2454 C 0.02321 0.08309 0.58428 0.0
C2455 C 0.04792 0.08953 0.61025 0.0
C2456 C 0.07932 0.08819 0.60197 0.0
C2457 C 0.09136 0.08544 0.58769 0.0
N2458 N 0.06563 0.07571 0.56313 0.0
C2459 C 0.08428 0.07946 0.56823 0.0
H2460 H 0.09382 0.07746 0.55741 0.0
C2461 C 0.0129 0.07442 0.54464 0.0
N2462 N 0.03022 0.07339 0.55145 0.0
C2463 C 1.00007 0.07907 0.55752 0.0
C2464 C 1.00516 0.08317 0.57745 0.0
H2465 H 0.00879 0.07126 0.52928 0.0
H2466 H 0.0526 0.0941 0.62555 0.0
H2467 H 0.01916 0.00739 0.47961 0.0
H2468 H 0.08484 0.09287 0.61704 0.0
H2469 H 0.10608 0.08787 0.59165 0.0
H2470 H 0.01999 0.09194 0.61477 0.0
H2471 H 0.10211 0.00931 0.51012 0.0
H2472 H 0.02971 0.9933 0.42034 0.0
H2473 H 0.00781 0.99797 0.44511 0.0
H2474 H 0.094 0.99167 0.42451 0.0
H2475 H 0.98626 0.07947 0.55207 0.0
H2476 H 0.99522 0.08685 0.5874 0.0
H2477 H 0.06205 0.99131 0.41276 0.0
H2478 H 0.12486 1.00004 0.48812 0.0
N2479 N 0.04755 0.00917 0.47472 0.0
C2480 C 0.03484 0.99761 0.43553 0.0
C2481 C 0.02244 1.00015 0.44946 0.0
C2482 C 0.05358 0.99974 0.44145 0.0
C2483 C 0.05953 1.00542 0.46142 0.0
C2484 C 0.02901 1.00559 0.46909 0.0
N2485 N 0.08208 0.00959 0.48739 0.0
C2486 C 0.07741 1.00558 0.46799 0.0
C2487 C 0.11161 1.00168 0.48224 0.0
C2488 C 0.10738 0.9986 0.46222 0.0
C2489 C 0.09865 0.00696 0.49469 0.0
C2490 C 0.08997 1.00015 0.45484 0.0
H2491 H 0.11741 0.99442 0.45261 0.0
O2492 O 0.06659 0.99537 0.52071 0.0
O2493 O 0.06081 0.03783 0.53761 0.0
O2494 O 0.08239 0.0681 0.5236 0.0
O2495 O 0.08361 0.04132 0.49951 0.0
O2496 O 0.08302 0.02551 0.53177 0.0
O2497 O 0.04011 0.9907 0.50414 0.0
O2498 O 0.04419 0.08852 0.51808 0.0
O2499 O 0.05177 0.04671 0.50065 0.0
O2500 O 0.02984 0.01734 0.51344 0.0
O2501 O 0.02975 0.04234 0.53951 0.0
O2502 O 0.02932 0.05875 0.50648 0.0
O2503 O 0.07113 0.09443 0.53418 0.0
C2504 C 0.07618 0.03561 0.54547 0.0
C2505 C 0.08449 0.99567 0.43485 0.0
C2506 C 0.06631 0.99548 0.42816 0.0
C2507 C 0.051 0.98295 0.51402 0.0
C2508 C 0.05194 0.96243 0.50652 0.0
C2509 C 0.05703 0.95649 0.4879 0.0
C2510 C 0.04783 0.94859 0.51868 0.0
C2511 C 0.04893 0.92875 0.51256 0.0
C2512 C 0.05797 0.9367 0.48157 0.0
C2513 C 0.05395 0.92287 0.4938 0.0
C2514 C 0.09083 0.05931 0.50969 0.0
C2515 C 0.03639 0.04891 0.49277 0.0
C2516 C 0.05956 0.10152 0.52441 0.0
C2517 C 0.05793 0.12189 0.53156 0.0
C2518 C 0.05115 0.12742 0.5494 0.0
C2519 C 0.06259 0.13585 0.51959 0.0
C2520 C 0.0602 0.15535 0.52502 0.0
C2521 C 0.04897 0.14686 0.55511 0.0
C2522 C 0.05339 0.16075 0.543 0.0
C2523 C 0.02189 0.02507 0.52834 0.0
H2524 H 0.06025 0.96706 0.47835 0.0
H2525 H 0.04365 0.95335 0.53295 0.0
H2526 H 0.06193 0.9321 0.46721 0.0
H2527 H 0.05507 0.90771 0.4887 0.0
H2528 H 0.04743 0.11675 0.55876 0.0
H2529 H 0.06807 0.1314 0.50594 0.0
H2530 H 0.04363 0.15112 0.56885 0.0
H2531 H 0.05115 0.17557 0.54757 0.0
Gd2532 Gd 0.28464 0.77694 0.77615 0.0
Gd2533 Gd 0.3254 0.80733 0.76471 0.0
C2534 C 0.3249 0.86698 0.7471 0.0
C2535 C 0.33263 0.86119 0.71377 0.0
C2536 C 0.33077 0.83512 0.73283 0.0
C2537 C 0.326 0.84739 0.74842 0.0
C2538 C 0.33452 0.84202 0.71545 0.0
C2539 C 0.32781 0.87365 0.72956 0.0
C2540 C 0.32151 0.87951 0.76363 0.0
C2541 C 0.32002 0.87264 0.78107 0.0
N2542 N 0.32361 0.8406 0.76524 0.0
C2543 C 0.32137 0.85315 0.78169 0.0
H2544 H 0.32017 0.84811 0.7953 0.0
C2545 C 0.33943 0.80502 0.72082 0.0
N2546 N 0.33268 0.81677 0.73502 0.0
C2547 C 0.34324 0.81117 0.7033 0.0
C2548 C 0.34057 0.82965 0.7005 0.0
H2549 H 0.34145 0.79066 0.7228 0.0
H2550 H 0.32686 0.88858 0.72823 0.0
H2551 H 0.2917 0.73539 0.74857 0.0
H2552 H 0.32052 0.89463 0.76321 0.0
H2553 H 0.31778 0.88232 0.79405 0.0
H2554 H 0.3353 0.8667 0.70048 0.0
H2555 H 0.26384 0.79393 0.81483 0.0
H2556 H 0.28952 0.69083 0.78337 0.0
H2557 H 0.29414 0.70169 0.75201 0.0
H2558 H 0.26943 0.72044 0.8427 0.0
H2559 H 0.3482 0.80163 0.69195 0.0
H2560 H 0.34359 0.83441 0.68693 0.0
H2561 H 0.28055 0.69808 0.81735 0.0
H2562 H 0.25419 0.78396 0.84523 0.0
N2563 N 0.28664 0.74414 0.77797 0.0
C2564 C 0.28858 0.70575 0.782 0.0
C2565 C 0.29111 0.7118 0.76426 0.0
C2566 C 0.28403 0.71875 0.79748 0.0
C2567 C 0.28302 0.73805 0.79493 0.0
C2568 C 0.28977 0.73101 0.76241 0.0
N2569 N 0.27473 0.76842 0.80551 0.0
C2570 C 0.27674 0.75056 0.80914 0.0
C2571 C 0.26064 0.77448 0.83527 0.0
C2572 C 0.2635 0.75661 0.83965 0.0
C2573 C 0.2662 0.7801 0.81797 0.0
C2574 C 0.27135 0.74423 0.82638 0.0
H2575 H 0.25913 0.75226 0.85303 0.0
O2576 O 0.25635 0.78074 0.7742 0.0
O2577 O 0.2949 0.80652 0.7665 0.0
O2578 O 0.32152 0.8143 0.79662 0.0
O2579 O 0.30252 0.78637 0.80424 0.0
O2580 O 0.27823 0.80685 0.78858 0.0
O2581 O 0.26361 0.7561 0.75556 0.0
O2582 O 0.35356 0.80354 0.76304 0.0
O2583 O 0.31535 0.7778 0.77448 0.0
O2584 O 0.29016 0.76896 0.74488 0.0
O2585 O 0.30611 0.7983 0.73751 0.0
O2586 O 0.3318 0.77756 0.75206 0.0
O2587 O 0.3478 0.82709 0.78451 0.0
C2588 C 0.28655 0.81794 0.77745 0.0
C2589 C 0.27333 0.72548 0.82947 0.0
C2590 C 0.27967 0.71276 0.81505 0.0
C2591 C 0.25035 0.76461 0.76126 0.0
C2592 C 0.23298 0.75165 0.76461 0.0
C2593 C 0.23276 0.73631 0.77507 0.0
C2594 C 0.21626 0.75504 0.75735 0.0
C2595 C 0.19921 0.74326 0.76048 0.0
C2596 C 0.21589 0.72452 0.77827 0.0
C2597 C 0.19918 0.72793 0.77103 0.0
C2598 C 0.31499 0.80328 0.80925 0.0
C2599 C 0.32382 0.76652 0.76344 0.0
C2600 C 0.36047 0.81874 0.77681 0.0
C2601 C 0.37767 0.83187 0.77331 0.0
C2602 C 0.37759 0.84695 0.76258 0.0
C2603 C 0.39455 0.8288 0.78057 0.0
C2604 C 0.41146 0.84068 0.77722 0.0
C2605 C 0.39433 0.85883 0.75915 0.0
C2606 C 0.41119 0.85576 0.76642 0.0
C2607 C 0.29529 0.78042 0.73223 0.0
H2608 H 0.24555 0.73343 0.78072 0.0
H2609 H 0.21658 0.76674 0.74901 0.0
H2610 H 0.21576 0.71273 0.7864 0.0
H2611 H 0.18626 0.71872 0.77383 0.0
H2612 H 0.36469 0.84952 0.75688 0.0
H2613 H 0.39446 0.81726 0.78906 0.0
H2614 H 0.39425 0.87042 0.75081 0.0
H2615 H 0.42399 0.86504 0.76343 0.0
Gd2616 Gd 0.55005 0.04882 0.99667 0.0
Gd2617 Gd 0.55776 0.02903 0.04207 0.0
C2618 C 0.61346 0.06112 0.07665 0.0
C2619 C 0.62988 0.03449 0.07504 0.0
C2620 C 0.59822 0.02783 0.06015 0.0
C2621 C 0.59779 0.04755 0.06607 0.0
C2622 C 0.61407 0.02094 0.06513 0.0
C2623 C 0.6296 0.05456 0.08073 0.0
C2624 C 0.61241 0.08083 0.08302 0.0
C2625 C 0.59592 0.08652 0.07919 0.0
N2626 N 0.58199 0.05344 0.06175 0.0
C2627 C 0.58077 0.0726 0.06866 0.0
H2628 H 0.56843 0.07771 0.06585 0.0
C2629 C 0.58154 0.99505 0.04743 0.0
N2630 N 0.58283 0.01516 0.05036 0.0
C2631 C 0.59686 0.98748 0.052 0.0
C2632 C 0.61335 1.00053 0.06054 0.0
H2633 H 0.56875 0.98482 0.04103 0.0
H2634 H 0.6418 0.06482 0.08864 0.0
H2635 H 0.53792 1.00155 0.97073 0.0
H2636 H 0.62415 0.09169 0.09111 0.0
H2637 H 0.59488 0.10171 0.08424 0.0
H2638 H 0.64226 0.02951 0.07874 0.0
H2639 H 0.54129 0.09416 0.99932 0.0
H2640 H 0.48225 0.99068 0.94565 0.0
H2641 H 0.51106 0.97921 0.95097 0.0
H2642 H 0.46626 0.05369 0.96259 0.0
H2643 H 0.5959 0.9716 0.049 0.0
H2644 H 0.6252 0.99466 0.06414 0.0
H2645 H 0.4654 0.01832 0.95071 0.0
H2646 H 0.51491 0.10924 0.99289 0.0
N2647 N 0.52489 0.02605 0.97698 0.0
C2648 C 0.49412 1.00073 0.95435 0.0
C2649 C 0.51036 0.99423 0.9573 0.0
C2650 C 0.49355 0.02028 0.96231 0.0
C2651 C 0.50944 0.03281 0.97346 0.0
C2652 C 0.52568 0.00712 0.96863 0.0
N2653 N 0.52581 0.06439 0.98968 0.0
C2654 C 0.50986 0.05259 0.98021 0.0
C2655 C 0.51319 0.09325 0.98946 0.0
C2656 C 0.4962 0.08109 0.98113 0.0
C2657 C 0.52805 0.08465 0.99318 0.0
C2658 C 0.4945 0.06054 0.9759 0.0
H2659 H 0.48474 0.08777 0.97807 0.0
O2660 O 0.56394 0.07244 0.98283 0.0
O2661 O 0.56956 0.04652 0.02045 0.0
O2662 O 0.54318 0.05448 0.04887 0.0
O2663 O 0.53947 0.06755 0.02065 0.0
O2664 O 0.57285 0.07405 0.01268 0.0
O2665 O 0.56188 0.04156 0.96956 0.0
O2666 O 0.54449 1.00352 0.05346 0.0
O2667 O 0.53851 0.03145 0.01813 0.0
O2668 O 0.5634 0.02229 0.99024 0.0
O2669 O 0.56987 0.01108 0.01889 0.0
O2670 O 0.53428 1.00418 0.02592 0.0
O2671 O 0.5468 0.03362 0.07039 0.0
C2672 C 0.57967 0.0638 0.02357 0.0
C2673 C 0.47828 0.04791 0.9658 0.0
C2674 C 0.4778 0.0278 0.959 0.0
C2675 C 0.56686 0.06012 0.96783 0.0
C2676 C 0.5625 0.06449 0.94875 0.0
C2677 C 0.54677 0.07162 0.94444 0.0
C2678 C 0.57463 0.06152 0.93462 0.0
C2679 C 0.57157 0.06613 0.91626 0.0
C2680 C 0.54348 0.07608 0.92616 0.0
C2681 C 0.55584 0.07346 0.91213 0.0
C2682 C 0.53814 0.06752 0.03929 0.0
C2683 C 0.52793 0.01452 0.01482 0.0
C2684 C 0.54111 0.01441 0.06921 0.0
C2685 C 0.53168 1.00522 0.08431 0.0
C2686 C 0.52875 0.98455 0.08332 0.0
C2687 C 0.52477 0.01677 0.09926 0.0
C2688 C 0.51459 0.00769 0.11283 0.0
C2689 C 0.51885 0.97554 0.09695 0.0
C2690 C 0.51168 0.98701 0.11159 0.0
C2691 C 0.56999 0.01028 1.00002 0.0
H2692 H 0.53711 0.07382 0.95512 0.0
H2693 H 0.58644 0.05545 0.93798 0.0
H2694 H 0.5314 0.08171 0.9229 0.0
H2695 H 0.5532 0.07739 0.8982 0.0
H2696 H 0.53398 0.9753 0.07192 0.0
H2697 H 0.52676 0.03268 0.1 0.0
H2698 H 0.5166 0.95962 0.09608 0.0
H2699 H 0.50396 0.97976 0.12202 0.0
Gd2700 Gd 0.28838 0.26792 0.25997 0.0
Gd2701 Gd 0.32304 0.31376 0.28102 0.0
C2702 C 0.38332 0.3151 0.26871 0.0
C2703 C 0.39871 0.31982 0.30107 0.0
C2704 C 0.36539 0.3168 0.29643 0.0
C2705 C 0.36617 0.31448 0.27667 0.0
C2706 C 0.38174 0.32005 0.30893 0.0
C2707 C 0.39951 0.31741 0.28099 0.0
C2708 C 0.38377 0.31388 0.24871 0.0
C2709 C 0.36746 0.31245 0.23723 0.0
N2710 N 0.35029 0.31254 0.26529 0.0
C2711 C 0.35082 0.31194 0.2458 0.0
H2712 H 0.33849 0.31082 0.23661 0.0
C2713 C 0.34814 0.32349 0.32299 0.0
N2714 N 0.34887 0.31744 0.30353 0.0
C2715 C 0.36386 0.32655 0.336 0.0
C2716 C 0.38069 0.32446 0.32895 0.0
H2717 H 0.33519 0.32543 0.32852 0.0
H2718 H 0.41279 0.31789 0.27515 0.0
H2719 H 0.27705 0.26753 0.30873 0.0
H2720 H 0.39665 0.31432 0.24203 0.0
H2721 H 0.36766 0.31168 0.22175 0.0
H2722 H 0.41139 0.32216 0.31043 0.0
H2723 H 0.2701 0.27203 0.21575 0.0
H2724 H 0.21911 0.24891 0.30729 0.0
H2725 H 0.25022 0.25661 0.32467 0.0
H2726 H 0.19679 0.25486 0.24451 0.0
H2727 H 0.363 0.33068 0.35142 0.0
H2728 H 0.39293 0.32707 0.33903 0.0
H2729 H 0.19946 0.24934 0.27789 0.0
H2730 H 0.24038 0.27062 0.19909 0.0
N2731 N 0.26296 0.26345 0.28021 0.0
C2732 C 0.23121 0.25308 0.29964 0.0
C2733 C 0.2487 0.25721 0.30941 0.0
C2734 C 0.22948 0.25542 0.28043 0.0
C2735 C 0.24573 0.26058 0.27091 0.0
C2736 C 0.26433 0.26276 0.29968 0.0
N2737 N 0.25989 0.26899 0.24331 0.0
C2738 C 0.24418 0.26381 0.25212 0.0
C2739 C 0.24122 0.2691 0.21414 0.0
C2740 C 0.22516 0.26485 0.22336 0.0
C2741 C 0.25838 0.2706 0.22413 0.0
C2742 C 0.22643 0.26179 0.24241 0.0
H2743 H 0.21183 0.2634 0.21548 0.0
O2744 O 0.28983 0.25123 0.23131 0.0
O2745 O 0.31785 0.2845 0.26127 0.0
O2746 O 0.31145 0.31846 0.25216 0.0
O2747 O 0.29548 0.28674 0.23695 0.0
O2748 O 0.31318 0.25538 0.26565 0.0
O2749 O 0.27716 0.23601 0.2532 0.0
O2750 O 0.3233 0.34129 0.301 0.0
O2751 O 0.29293 0.29976 0.27325 0.0
O2752 O 0.29938 0.26378 0.28947 0.0
O2753 O 0.32242 0.29256 0.30257 0.0
O2754 O 0.30091 0.31605 0.30129 0.0
O2755 O 0.33087 0.34201 0.27131 0.0
C2756 C 0.32569 0.27076 0.26407 0.0
C2757 C 0.21043 0.2565 0.2518 0.0
C2758 C 0.21195 0.25324 0.27073 0.0
C2759 C 0.28342 0.23413 0.23613 0.0
C2760 C 0.29484 0.21946 0.23161 0.0
C2761 C 0.29858 0.2136 0.21242 0.0
C2762 C 0.3034 0.21261 0.24652 0.0
C2763 C 0.31599 0.20043 0.2425 0.0
C2764 C 0.31089 0.20123 0.20823 0.0
C2765 C 0.31963 0.19473 0.22316 0.0
C2766 C 0.30266 0.30567 0.2367 0.0
C2767 C 0.28715 0.30627 0.28904 0.0
C2768 C 0.32888 0.35196 0.28819 0.0
C2769 C 0.33223 0.37361 0.2923 0.0
C2770 C 0.34276 0.38469 0.30933 0.0
C2771 C 0.32316 0.38304 0.28014 0.0
C2772 C 0.3238 0.4034 0.28534 0.0
C2773 C 0.34406 0.40517 0.31418 0.0
C2774 C 0.3344 0.4145 0.30238 0.0
C2775 C 0.31197 0.2748 0.3036 0.0
H2776 H 0.29224 0.21888 0.20072 0.0
H2777 H 0.30078 0.21733 0.26141 0.0
H2778 H 0.31377 0.19679 0.1934 0.0
H2779 H 0.32904 0.18506 0.21954 0.0
H2780 H 0.34971 0.37746 0.31896 0.0
H2781 H 0.31446 0.37426 0.26736 0.0
H2782 H 0.35211 0.41372 0.32737 0.0
H2783 H 0.33491 0.43023 0.3067 0.0
Gd2784 Gd 0.55811 0.51823 0.00759 0.0
Gd2785 Gd 0.55087 0.56464 0.03079 0.0
C2786 C 0.56033 0.58545 0.0965 0.0
C2787 C 0.52935 0.58739 0.10497 0.0
C2788 C 0.53484 0.57722 0.07133 0.0
C2789 C 0.55338 0.57901 0.07684 0.0
C2790 C 0.52267 0.58174 0.08529 0.0
C2791 C 0.54815 0.58923 0.11057 0.0
C2792 C 0.5794 0.58843 0.10138 0.0
C2793 C 0.59107 0.58562 0.08675 0.0
N2794 N 0.56479 0.57543 0.06286 0.0
C2795 C 0.58353 0.57936 0.06745 0.0
H2796 H 0.59279 0.57727 0.05636 0.0
C2797 C 0.51116 0.57212 0.04589 0.0
N2798 N 0.5289 0.57199 0.05219 0.0
C2799 C 0.49853 0.57631 0.05919 0.0
C2800 C 0.50425 0.58096 0.079 0.0
H2801 H 0.50661 0.56853 0.0306 0.0
H2802 H 0.55321 0.59404 0.12575 0.0
H2803 H 0.51899 0.50724 0.97747 0.0
H2804 H 0.58527 0.59332 0.11632 0.0
H2805 H 0.60588 0.58824 0.09031 0.0
H2806 H 0.52019 0.59079 0.11592 0.0
H2807 H 0.59971 0.50657 0.01247 0.0
H2808 H 0.53297 0.49526 0.91915 0.0
H2809 H 0.50956 0.499 0.94244 0.0
H2810 H 0.59694 0.49297 0.92707 0.0
H2811 H 0.48441 0.576 0.05414 0.0
H2812 H 0.49447 0.58432 0.08926 0.0
H2813 H 0.56577 0.4934 0.91354 0.0
H2814 H 0.62363 0.49799 0.99186 0.0
N2815 N 0.54769 0.50934 0.97427 0.0
C2816 C 0.53723 0.49906 0.93456 0.0
C2817 C 0.52398 0.50108 0.94765 0.0
C2818 C 0.55566 0.50094 0.94158 0.0
C2819 C 0.56046 0.50593 0.96179 0.0
C2820 C 0.52943 0.50586 0.96756 0.0
N2821 N 0.5814 0.50877 0.98893 0.0
C2822 C 0.5779 0.50559 0.96937 0.0
C2823 C 0.6109 0.50028 0.98535 0.0
C2824 C 0.60798 0.49821 0.96526 0.0
C2825 C 0.59729 0.50529 0.99701 0.0
C2826 C 0.59115 0.50041 0.95699 0.0
H2827 H 0.6185 0.4942 0.95626 0.0
O2828 O 0.56097 0.49532 0.02406 0.0
O2829 O 0.55915 0.5372 0.0376 0.0
O2830 O 0.58054 0.56779 0.02283 0.0
O2831 O 0.58273 0.5399 1.00047 0.0
O2832 O 0.58118 0.52451 0.03189 0.0
O2833 O 0.54001 0.48863 1.00002 0.0
O2834 O 0.54142 0.58782 0.01915 0.0
O2835 O 0.55011 0.54601 1.00081 0.0
O2836 O 0.52793 0.51728 0.01233 0.0
O2837 O 0.52863 0.54114 0.03954 0.0
O2838 O 0.52782 0.55848 0.00647 0.0
O2839 O 0.56924 0.59389 0.03343 0.0
C2840 C 0.57452 0.53498 0.04548 0.0
C2841 C 0.58687 0.49675 0.93682 0.0
C2842 C 0.56914 0.49701 0.92911 0.0
C2843 C 0.548 0.48176 0.01336 0.0
C2844 C 0.55213 0.46212 0.00784 0.0
C2845 C 0.56173 0.45751 0.99168 0.0
C2846 C 0.54683 0.44797 0.01953 0.0
C2847 C 0.5514 0.42929 0.0155 0.0
C2848 C 0.56625 0.43898 0.98746 0.0
C2849 C 0.56125 0.42499 0.99931 0.0
C2850 C 0.58945 0.55832 0.00986 0.0
C2851 C 0.53488 0.54852 0.99284 0.0
C2852 C 0.55697 0.60086 0.02449 0.0
C2853 C 0.55559 0.6213 0.03179 0.0
C2854 C 0.54789 0.62654 0.04916 0.0
C2855 C 0.56096 0.6355 0.0202 0.0
C2856 C 0.55834 0.65489 0.02558 0.0
C2857 C 0.54541 0.64589 0.05472 0.0
C2858 C 0.55045 0.65998 0.04294 0.0
C2859 C 0.52022 0.52458 0.0276 0.0
H2860 H 0.5658 0.46819 0.98242 0.0
H2861 H 0.53906 0.45161 0.03174 0.0
H2862 H 0.57381 0.43552 0.97506 0.0
H2863 H 0.56536 0.41095 0.99592 0.0
H2864 H 0.54358 0.61567 0.05819 0.0
H2865 H 0.56661 0.63124 0.00659 0.0
H2866 H 0.53936 0.64992 0.06808 0.0
H2867 H 0.54828 0.67485 0.04741 0.0
Gd2868 Gd 0.78479 0.27716 0.2738 0.0
Gd2869 Gd 0.82552 0.30825 0.26336 0.0
C2870 C 0.82622 0.36751 0.24414 0.0
C2871 C 0.83723 0.36194 0.21219 0.0
C2872 C 0.83356 0.33595 0.23148 0.0
C2873 C 0.82719 0.34801 0.24603 0.0
C2874 C 0.83912 0.34296 0.21461 0.0
C2875 C 0.83077 0.37419 0.22693 0.0
C2876 C 0.82149 0.37999 0.25992 0.0
C2877 C 0.81868 0.37323 0.27728 0.0
N2878 N 0.8234 0.34126 0.26265 0.0
C2879 C 0.81999 0.35385 0.27848 0.0
H2880 H 0.81783 0.34895 0.29205 0.0
C2881 C 0.84411 0.30655 0.22169 0.0
N2882 N 0.83551 0.31785 0.23446 0.0
C2883 C 0.84983 0.31286 0.20472 0.0
C2884 C 0.84706 0.33101 0.20101 0.0
H2885 H 0.84639 0.29252 0.22434 0.0
H2886 H 0.82994 0.38904 0.22515 0.0
H2887 H 0.7908 0.23709 0.24272 0.0
H2888 H 0.82056 0.39504 0.25905 0.0
H2889 H 0.81547 0.38292 0.28975 0.0
H2890 H 0.84127 0.36752 0.19925 0.0
H2891 H 0.76864 0.29313 0.31586 0.0
H2892 H 0.78945 0.18951 0.27362 0.0
H2893 H 0.79298 0.20269 0.24329 0.0
H2894 H 0.77366 0.21601 0.33636 0.0
H2895 H 0.85634 0.3037 0.19451 0.0
H2896 H 0.85157 0.33589 0.18789 0.0
H2897 H 0.78243 0.19469 0.3084 0.0
H2898 H 0.76136 0.28138 0.34625 0.0
N2899 N 0.78672 0.24385 0.27269 0.0
C2900 C 0.78856 0.20472 0.2735 0.0
C2901 C 0.79051 0.21209 0.25635 0.0
C2902 C 0.7849 0.21688 0.29014 0.0
C2903 C 0.78394 0.23661 0.28924 0.0
C2904 C 0.78928 0.23169 0.25613 0.0
N2905 N 0.77722 0.26707 0.30315 0.0
C2906 C 0.77895 0.24855 0.30493 0.0
C2907 C 0.76636 0.27202 0.33477 0.0
C2908 C 0.76876 0.25331 0.33713 0.0
C2909 C 0.77047 0.27862 0.31751 0.0
C2910 C 0.77489 0.2412 0.32202 0.0
H2911 H 0.7655 0.24821 0.35049 0.0
O2912 O 0.75625 0.2797 0.27568 0.0
O2913 O 0.79471 0.30705 0.26462 0.0
O2914 O 0.81955 0.3154 0.29459 0.0
O2915 O 0.80391 0.28555 0.30108 0.0
O2916 O 0.77782 0.30663 0.28662 0.0
O2917 O 0.76302 0.25798 0.25293 0.0
O2918 O 0.85382 0.30452 0.26523 0.0
O2919 O 0.8154 0.27827 0.27233 0.0
O2920 O 0.78917 0.27094 0.24203 0.0
O2921 O 0.80789 0.29934 0.23505 0.0
O2922 O 0.83221 0.27861 0.25041 0.0
O2923 O 0.84645 0.32876 0.28434 0.0
C2924 C 0.7859 0.318 0.27556 0.0
C2925 C 0.77659 0.22187 0.3233 0.0
C2926 C 0.7816 0.20974 0.30739 0.0
C2927 C 0.74992 0.26522 0.26103 0.0
C2928 C 0.73293 0.251 0.26334 0.0
C2929 C 0.73336 0.23476 0.27236 0.0
C2930 C 0.71591 0.25389 0.25624 0.0
C2931 C 0.69924 0.2406 0.25799 0.0
C2932 C 0.71685 0.22151 0.27424 0.0
C2933 C 0.69986 0.22434 0.26706 0.0
C2934 C 0.81452 0.30345 0.30685 0.0
C2935 C 0.82396 0.26716 0.2613 0.0
C2936 C 0.85975 0.32038 0.2785 0.0
C2937 C 0.87715 0.33349 0.27549 0.0
C2938 C 0.87746 0.34867 0.2648 0.0
C2939 C 0.89383 0.3303 0.28312 0.0
C2940 C 0.91092 0.34207 0.28007 0.0
C2941 C 0.89436 0.36043 0.26167 0.0
C2942 C 0.91102 0.35717 0.26922 0.0
C2943 C 0.79547 0.28244 0.22972 0.0
H2944 H 0.74636 0.23227 0.27787 0.0
H2945 H 0.71572 0.26633 0.24902 0.0
H2946 H 0.71721 0.20898 0.28123 0.0
H2947 H 0.68723 0.21393 0.26874 0.0
H2948 H 0.86472 0.35141 0.2589 0.0
H2949 H 0.89343 0.31874 0.29164 0.0
H2950 H 0.89455 0.37207 0.25333 0.0
H2951 H 0.92395 0.36634 0.2664 0.0
Gd2952 Gd 0.04978 0.55126 0.49567 0.0
Gd2953 Gd 0.05905 0.53229 0.5409 0.0
C2954 C 0.11786 0.55378 0.57149 0.0
C2955 C 0.12853 0.52303 0.56839 0.0
C2956 C 0.09729 0.52273 0.55571 0.0
C2957 C 0.10057 0.54305 0.56177 0.0
C2958 C 0.11101 0.51236 0.55951 0.0
C2959 C 0.13197 0.54373 0.57432 0.0
C2960 C 0.1203 0.57419 0.57846 0.0
C2961 C 0.10551 0.58324 0.57625 0.0
N2962 N 0.08661 0.55224 0.55879 0.0
C2963 C 0.08862 0.57197 0.56657 0.0
H2964 H 0.07752 0.5794 0.56489 0.0
C2965 C 0.0753 0.49259 0.54411 0.0
N2966 N 0.08024 0.51293 0.54723 0.0
C2967 C 0.08843 0.48161 0.54749 0.0
C2968 C 0.10648 0.49155 0.5549 0.0
H2969 H 0.0613 0.4849 0.53844 0.0
H2970 H 0.1454 0.55175 0.58155 0.0
H2971 H 0.03708 0.5026 0.47273 0.0
H2972 H 0.13337 0.58297 0.58595 0.0
H2973 H 0.10712 0.59896 0.58191 0.0
H2974 H 0.13934 0.51537 0.5712 0.0
H2975 H 0.04046 0.5964 0.49925 0.0
H2976 H 0.9818 0.49157 0.44662 0.0
H2977 H 0.00999 0.47974 0.45397 0.0
H2978 H 0.96683 0.55542 0.45903 0.0
H2979 H 0.0846 0.46551 0.5444 0.0
H2980 H 0.11662 0.48303 0.55759 0.0
H2981 H 0.96574 0.51977 0.44884 0.0
H2982 H 0.01446 0.61125 0.49087 0.0
N2983 N 0.02488 0.52786 0.47629 0.0
C2984 C 0.99381 0.50189 0.45484 0.0
C2985 C 0.0097 0.49517 0.45892 0.0
C2986 C 0.99367 0.52189 0.46117 0.0
C2987 C 0.00964 0.53471 0.47191 0.0
C2988 C 0.0252 0.5084 0.46957 0.0
N2989 N 0.02566 0.5666 0.48811 0.0
C2990 C 0.01007 0.55467 0.47798 0.0
C2991 C 0.01298 0.5953 0.48728 0.0
C2992 C 0.99635 0.58305 0.47806 0.0
C2993 C 0.02767 0.58684 0.49193 0.0
C2994 C 0.99482 0.56251 0.47302 0.0
H2995 H 0.98496 0.58963 0.47447 0.0
O2996 O 0.06374 0.57665 0.48464 0.0
O2997 O 0.07014 0.54931 0.51886 0.0
O2998 O 0.04928 0.5612 0.54758 0.0
O2999 O 0.03571 0.56671 0.51881 0.0
O3000 O 0.07229 0.5769 0.51184 0.0
O3001 O 0.06003 0.54664 0.46691 0.0
O3002 O 0.04235 0.51138 0.5559 0.0
O3003 O 0.03877 0.53402 0.5176 0.0
O3004 O 0.06357 0.52515 0.48851 0.0
O3005 O 0.07046 0.514 0.51719 0.0
O3006 O 0.03557 0.50695 0.52601 0.0
O3007 O 0.05054 0.54267 0.56917 0.0
C3008 C 0.08 0.56666 0.52198 0.0
C3009 C 0.97875 0.54971 0.46278 0.0
C3010 C 0.97815 0.52943 0.45694 0.0
C3011 C 0.06646 0.56583 0.46853 0.0
C3012 C 0.07591 0.57523 0.45355 0.0
C3013 C 0.07896 0.59596 0.45493 0.0
C3014 C 0.08289 0.56389 0.43849 0.0
C3015 C 0.0933 0.57327 0.42524 0.0
C3016 C 0.08906 0.60525 0.4416 0.0
C3017 C 0.09633 0.59401 0.42688 0.0
C3018 C 0.03883 0.57014 0.53786 0.0
C3019 C 0.02851 0.51685 0.51492 0.0
C3020 C 0.04248 0.52481 0.57125 0.0
C3021 C 0.04651 0.51951 0.59001 0.0
C3022 C 0.06098 0.51008 0.59327 0.0
C3023 C 0.03535 0.52372 0.60487 0.0
C3024 C 0.03829 0.51821 0.62282 0.0
C3025 C 0.06395 0.50454 0.6111 0.0
C3026 C 0.05257 0.50844 0.62581 0.0
C3027 C 0.07026 0.51313 0.49824 0.0
H3028 H 0.07368 0.60505 0.46642 0.0
H3029 H 0.08082 0.54793 0.43745 0.0
H3030 H 0.0914 0.62122 0.44278 0.0
H3031 H 0.10421 0.60148 0.41669 0.0
H3032 H 0.0699 0.50689 0.58209 0.0
H3033 H 0.02414 0.53097 0.60234 0.0
H3034 H 0.07505 0.49717 0.61351 0.0
H3035 H 0.05507 0.50408 0.63958 0.0
Gd3036 Gd 0.82825 0.78708 0.27191 0.0
Gd3037 Gd 0.78172 0.79758 0.26681 0.0
C3038 C 0.75401 0.79159 0.20568 0.0
C3039 C 0.75226 0.82565 0.20476 0.0
C3040 C 0.76537 0.81743 0.23388 0.0
C3041 C 0.76256 0.79782 0.22482 0.0
C3042 C 0.75959 0.83145 0.22424 0.0
C3043 C 0.7495 0.80573 0.19547 0.0
C3044 C 0.74944 0.77125 0.19774 0.0
C3045 C 0.75252 0.75766 0.20918 0.0
N3046 N 0.76668 0.78455 0.23531 0.0
C3047 C 0.76091 0.76458 0.22813 0.0
H3048 H 0.76324 0.7538 0.23663 0.0
C3049 C 0.77167 0.84051 0.26349 0.0
N3050 N 0.77204 0.82234 0.2528 0.0
C3051 C 0.76618 0.85498 0.25458 0.0
C3052 C 0.76047 0.85056 0.23476 0.0
H3053 H 0.77625 0.84403 0.27879 0.0
H3054 H 0.74317 0.80128 0.18068 0.0
H3055 H 0.84656 0.83057 0.30268 0.0
H3056 H 0.7429 0.76585 0.18309 0.0
H3057 H 0.74854 0.74185 0.20339 0.0
H3058 H 0.74798 0.83626 0.197 0.0
H3059 H 0.835 0.74124 0.25938 0.0
H3060 H 0.86592 0.81783 0.35627 0.0
H3061 H 0.8607 0.84213 0.33614 0.0
H3062 H 0.86131 0.74753 0.34151 0.0
H3063 H 0.76641 0.86953 0.26299 0.0
H3064 H 0.75612 0.86175 0.22791 0.0
H3065 H 0.86562 0.7823 0.35831 0.0
H3066 H 0.84477 0.71552 0.2749 0.0
N3067 N 0.84295 0.79973 0.30366 0.0
C3068 C 0.85961 0.8126 0.34152 0.0
C3069 C 0.85677 0.82635 0.33017 0.0
C3070 C 0.85515 0.79232 0.33333 0.0
C3071 C 0.8469 0.78632 0.31407 0.0
C3072 C 0.84871 0.81965 0.31108 0.0
N3073 N 0.83814 0.76228 0.28572 0.0
C3074 C 0.84437 0.76686 0.30475 0.0
C3075 C 0.84458 0.72985 0.28352 0.0
C3076 C 0.84972 0.73385 0.30345 0.0
C3077 C 0.83913 0.74445 0.27478 0.0
C3078 C 0.85013 0.75273 0.31424 0.0
H3079 H 0.85407 0.72258 0.31018 0.0
O3080 O 0.84599 0.77733 0.25016 0.0
O3081 O 0.80541 0.7899 0.25122 0.0
O3082 O 0.7792 0.76432 0.26807 0.0
O3083 O 0.80819 0.75893 0.27736 0.0
O3084 O 0.81716 0.76554 0.24427 0.0
O3085 O 0.85449 0.80641 0.26792 0.0
O3086 O 0.76418 0.808 0.28846 0.0
O3087 O 0.80452 0.79473 0.28756 0.0
O3088 O 0.83056 0.8204 0.27129 0.0
O3089 O 0.80189 0.82508 0.26012 0.0
O3090 O 0.79309 0.81939 0.29412 0.0
O3091 O 0.75539 0.77866 0.27121 0.0
C3092 C 0.80521 0.77464 0.23842 0.0
C3093 C 0.85707 0.75824 0.33386 0.0
C3094 C 0.85954 0.77803 0.34342 0.0
C3095 C 0.85914 0.79335 0.25471 0.0
C3096 C 0.8783 0.79043 0.25728 0.0
C3097 C 0.88389 0.78387 0.27388 0.0
C3098 C 0.89116 0.79426 0.2434 0.0
C3099 C 0.90953 0.79174 0.24639 0.0
C3100 C 0.90175 0.78095 0.27668 0.0
C3101 C 0.91443 0.78482 0.26313 0.0
C3102 C 0.78986 0.75262 0.27327 0.0
C3103 C 0.80483 0.81016 0.3002 0.0
C3104 C 0.75095 0.79201 0.2843 0.0
C3105 C 0.73176 0.79494 0.28192 0.0
C3106 C 0.72604 0.80159 0.26542 0.0
C3107 C 0.71897 0.79094 0.29584 0.0
C3108 C 0.70054 0.7933 0.29295 0.0
C3109 C 0.7081 0.80433 0.26272 0.0
C3110 C 0.69547 0.80022 0.27627 0.0
C3111 C 0.82008 0.83178 0.26509 0.0
H3112 H 0.87444 0.78105 0.28475 0.0
H3113 H 0.88702 0.79955 0.23062 0.0
H3114 H 0.90583 0.77573 0.28951 0.0
H3115 H 0.92818 0.78228 0.26575 0.0
H3116 H 0.73544 0.80458 0.25454 0.0
H3117 H 0.7232 0.78561 0.30856 0.0
H3118 H 0.70391 0.80958 0.24995 0.0
H3119 H 0.68163 0.80255 0.27371 0.0
Gd3120 Gd 0.79855 0.29865 0.7879 0.0
Gd3121 Gd 0.81693 0.27712 0.74373 0.0
C3122 C 0.78613 0.21651 0.70622 0.0
C3123 C 0.81057 0.19839 0.70373 0.0
C3124 C 0.8163 0.23183 0.72317 0.0
C3125 C 0.79847 0.23304 0.71812 0.0
C3126 C 0.82252 0.2144 0.71619 0.0
C3127 C 0.79241 0.19947 0.6987 0.0
C3128 C 0.76759 0.21712 0.70293 0.0
C3129 C 0.76145 0.23324 0.71247 0.0
N3130 N 0.79276 0.24961 0.72617 0.0
C3131 C 0.77404 0.24896 0.72447 0.0
H3132 H 0.76803 0.25963 0.73319 0.0
C3133 C 0.84525 0.24666 0.74076 0.0
N3134 N 0.82739 0.24735 0.73556 0.0
C3135 C 0.852 0.22976 0.73435 0.0
C3136 C 0.84057 0.2135 0.72201 0.0
H3137 H 0.85467 0.25934 0.74941 0.0
H3138 H 0.78315 0.18679 0.68945 0.0
H3139 H 0.83724 0.33367 0.80428 0.0
H3140 H 0.75772 0.20473 0.69399 0.0
H3141 H 0.74685 0.23327 0.71119 0.0
H3142 H 0.81514 0.18497 0.69817 0.0
H3143 H 0.75242 0.28727 0.78672 0.0
H3144 H 0.82313 0.39032 0.81589 0.0
H3145 H 0.84656 0.36994 0.81556 0.0
H3146 H 0.75694 0.37387 0.80391 0.0
H3147 H 0.86615 0.22944 0.73867 0.0
H3148 H 0.84584 0.20042 0.71698 0.0
H3149 H 0.78967 0.39171 0.81093 0.0
H3150 H 0.72666 0.30453 0.79029 0.0
N3151 N 0.80878 0.33334 0.79789 0.0
C3152 C 0.81893 0.37436 0.81093 0.0
C3153 C 0.83218 0.3629 0.81081 0.0
C3154 C 0.80033 0.36499 0.80521 0.0
C3155 C 0.79561 0.34415 0.79887 0.0
C3156 C 0.82682 0.34229 0.80437 0.0
N3157 N 0.77327 0.31401 0.79012 0.0
C3158 C 0.77725 0.33417 0.79482 0.0
C3159 C 0.74081 0.31305 0.79141 0.0
C3160 C 0.74461 0.33382 0.79495 0.0
C3161 C 0.75542 0.30332 0.78934 0.0
C3162 C 0.76303 0.34466 0.7971 0.0
H3163 H 0.73328 0.34133 0.79665 0.0
O3164 O 0.78627 0.28067 0.80816 0.0
O3165 O 0.80407 0.2717 0.76996 0.0
O3166 O 0.79099 0.28731 0.73355 0.0
O3167 O 0.78017 0.30258 0.76206 0.0
O3168 O 0.77783 0.26897 0.77948 0.0
O3169 O 0.80794 0.30701 0.81857 0.0
O3170 O 0.84619 0.29011 0.74397 0.0
O3171 O 0.8185 0.30412 0.76615 0.0
O3172 O 0.82872 0.29779 0.79517 0.0
O3173 O 0.83361 0.27303 0.77075 0.0
O3174 O 0.81617 0.30703 0.73695 0.0
O3175 O 0.82936 0.2784 0.71657 0.0
C3176 C 0.78891 0.25978 0.77013 0.0
C3177 C 0.76766 0.36552 0.80231 0.0
C3178 C 0.7863 0.37567 0.80633 0.0
C3179 C 0.79584 0.29262 0.82319 0.0
C3180 C 0.78542 0.29763 0.83968 0.0
C3181 C 0.77841 0.31488 0.84273 0.0
C3182 C 0.78236 0.28448 0.85256 0.0
C3183 C 0.77249 0.2884 0.86867 0.0
C3184 C 0.76852 0.3189 0.85877 0.0
C3185 C 0.76565 0.30579 0.87181 0.0
C3186 C 0.77901 0.29671 0.7428 0.0
C3187 C 0.81822 0.31621 0.75476 0.0
C3188 C 0.84535 0.28882 0.72526 0.0
C3189 C 0.85368 0.30736 0.71872 0.0
C3190 C 0.87117 0.31852 0.72721 0.0
C3191 C 0.84409 0.31453 0.70478 0.0
C3192 C 0.85186 0.33264 0.69927 0.0
C3193 C 0.87887 0.33662 0.72197 0.0
C3194 C 0.86932 0.34368 0.70807 0.0
C3195 C 0.83834 0.28465 0.78817 0.0
H3196 H 0.78063 0.32522 0.83286 0.0
H3197 H 0.78802 0.27129 0.85022 0.0
H3198 H 0.76315 0.33223 0.86116 0.0
H3199 H 0.75804 0.30914 0.88421 0.0
H3200 H 0.8788 0.31332 0.73806 0.0
H3201 H 0.83045 0.3062 0.6984 0.0
H3202 H 0.89234 0.34516 0.72862 0.0
H3203 H 0.87579 0.35755 0.70393 0.0
Gd3204 Gd 0.78573 0.76387 0.75737 0.0
Gd3205 Gd 0.81829 0.81255 0.7763 0.0
C3206 C 0.87367 0.83615 0.75344 0.0
C3207 C 0.89474 0.82125 0.77041 0.0
C3208 C 0.86212 0.8154 0.7764 0.0
C3209 C 0.8589 0.82682 0.76293 0.0
C3210 C 0.88021 0.81282 0.78052 0.0
C3211 C 0.89147 0.83289 0.7569 0.0
C3212 C 0.87024 0.84902 0.74124 0.0
C3213 C 0.85265 0.853 0.73938 0.0
N3214 N 0.84156 0.82969 0.75983 0.0
C3215 C 0.83852 0.84353 0.74917 0.0
H3216 H 0.82488 0.84658 0.74759 0.0
C3217 C 0.85092 0.79744 0.80045 0.0
N3218 N 0.84774 0.80731 0.78588 0.0
C3219 C 0.86862 0.79464 0.80509 0.0
C3220 C 0.88328 0.80212 0.79492 0.0
H3221 H 0.84005 0.79142 0.80863 0.0
H3222 H 0.90292 0.83974 0.74957 0.0
H3223 H 0.77383 0.73537 0.79189 0.0
H3224 H 0.88121 0.85645 0.7337 0.0
H3225 H 0.84997 0.86336 0.73041 0.0
H3226 H 0.90864 0.81923 0.77325 0.0
H3227 H 0.76298 0.76752 0.71514 0.0
H3228 H 0.7212 0.7429 0.80936 0.0
H3229 H 0.74937 0.73006 0.81379 0.0
H3230 H 0.69742 0.76968 0.75802 0.0
H3231 H 0.87089 0.78657 0.81646 0.0
H3232 H 0.89695 0.79982 0.79848 0.0
H3233 H 0.70191 0.75792 0.78848 0.0
H3234 H 0.73383 0.77507 0.70438 0.0
N3235 N 0.7613 0.75405 0.77691 0.0
C3236 C 0.73225 0.74594 0.80009 0.0
C3237 C 0.74812 0.73869 0.80264 0.0
C3238 C 0.73021 0.75556 0.78456 0.0
C3239 C 0.74511 0.75928 0.77298 0.0
C3240 C 0.7622 0.74219 0.79038 0.0
N3241 N 0.75679 0.76808 0.74456 0.0
C3242 C 0.74269 0.76632 0.75612 0.0
C3243 C 0.73628 0.77321 0.71918 0.0
C3244 C 0.72243 0.77379 0.73173 0.0
C3245 C 0.75315 0.76956 0.72564 0.0
C3246 C 0.72523 0.76949 0.75017 0.0
H3247 H 0.70925 0.77631 0.72662 0.0
O3248 O 0.78909 0.74796 0.72886 0.0
O3249 O 0.8144 0.78179 0.76038 0.0
O3250 O 0.81765 0.80739 0.74381 0.0
O3251 O 0.78996 0.78376 0.73429 0.0
O3252 O 0.81158 0.75293 0.76431 0.0
O3253 O 0.77521 0.73196 0.74963 0.0
O3254 O 0.82701 0.83117 0.80534 0.0
O3255 O 0.78944 0.79447 0.77378 0.0
O3256 O 0.79552 0.7638 0.7884 0.0
O3257 O 0.81065 0.79676 0.80155 0.0
O3258 O 0.7926 0.82238 0.76701 0.0
O3259 O 0.81418 0.84216 0.7817 0.0
C3260 C 0.82334 0.76915 0.76348 0.0
C3261 C 0.71084 0.76716 0.76231 0.0
C3262 C 0.71338 0.76039 0.7796 0.0
C3263 C 0.78228 0.7306 0.73301 0.0
C3264 C 0.79352 0.71572 0.72882 0.0
C3265 C 0.79562 0.70796 0.70954 0.0
C3266 C 0.80277 0.70975 0.74391 0.0
C3267 C 0.8144 0.69647 0.7399 0.0
C3268 C 0.80691 0.69448 0.7054 0.0
C3269 C 0.8163 0.68878 0.72044 0.0
C3270 C 0.80385 0.79776 0.73071 0.0
C3271 C 0.78071 0.80674 0.76918 0.0
C3272 C 0.82131 0.84587 0.79963 0.0
C3273 C 0.8224 0.86548 0.81182 0.0
C3274 C 0.8291 0.86991 0.83148 0.0
C3275 C 0.81576 0.8798 0.80363 0.0
C3276 C 0.8152 0.89815 0.81486 0.0
C3277 C 0.82875 0.88836 0.84278 0.0
C3278 C 0.82163 0.90238 0.83459 0.0
C3279 C 0.80334 0.77814 0.80319 0.0
H3280 H 0.78861 0.71242 0.69772 0.0
H3281 H 0.80118 0.71573 0.75881 0.0
H3282 H 0.80845 0.68846 0.69048 0.0
H3283 H 0.82483 0.67816 0.71681 0.0
H3284 H 0.8343 0.85909 0.83814 0.0
H3285 H 0.81027 0.87642 0.78853 0.0
H3286 H 0.83377 0.89169 0.85799 0.0
H3287 H 0.8211 0.91642 0.84358 0.0
Gd3288 Gd 0.57658 0.55768 0.53097 0.0
Gd3289 Gd 0.53294 0.52783 0.50792 0.0
C3290 C 0.51927 0.45999 0.50157 0.0
C3291 C 0.51592 0.44908 0.46661 0.0
C3292 C 0.52305 0.48437 0.48077 0.0
C3293 C 0.52338 0.47998 0.4991 0.0
C3294 C 0.51869 0.46898 0.46428 0.0
C3295 C 0.51622 0.44459 0.48525 0.0
C3296 C 0.51732 0.45607 0.52027 0.0
C3297 C 0.51841 0.47184 0.53573 0.0
N3298 N 0.52588 0.49522 0.51447 0.0
C3299 C 0.52234 0.49138 0.53248 0.0
H3300 H 0.52316 0.50335 0.54463 0.0
C3301 C 0.52174 0.50858 0.4615 0.0
N3302 N 0.52524 0.50369 0.47913 0.0
C3303 C 0.51755 0.49388 0.4447 0.0
C3304 C 0.51635 0.47401 0.44605 0.0
H3305 H 0.52271 0.52393 0.46033 0.0
H3306 H 0.51328 0.42915 0.48687 0.0
H3307 H 0.58583 0.58183 0.49371 0.0
H3308 H 0.51418 0.44094 0.5228 0.0
H3309 H 0.51629 0.46898 0.55017 0.0
H3310 H 0.51278 0.43705 0.45412 0.0
H3311 H 0.5876 0.56207 0.57838 0.0
H3312 H 0.59659 0.64434 0.51509 0.0
H3313 H 0.59321 0.61594 0.48785 0.0
H3314 H 0.59959 0.64902 0.58391 0.0
H3315 H 0.51526 0.49789 0.43074 0.0
H3316 H 0.51297 0.46263 0.43304 0.0
H3317 H 0.59863 0.65657 0.55103 0.0
H3318 H 0.5959 0.58828 0.60775 0.0
N3319 N 0.58399 0.59026 0.52407 0.0
C3320 C 0.5932 0.62928 0.51779 0.0
C3321 C 0.59139 0.61331 0.50241 0.0
C3322 C 0.59161 0.62562 0.53661 0.0
C3323 C 0.58713 0.60569 0.5393 0.0
C3324 C 0.58716 0.59385 0.50588 0.0
N3325 N 0.5852 0.5822 0.55945 0.0
C3326 C 0.58775 0.6015 0.55767 0.0
C3327 C 0.59352 0.59223 0.59377 0.0
C3328 C 0.5952 0.61212 0.59229 0.0
C3329 C 0.58883 0.57742 0.57708 0.0
C3330 C 0.59273 0.61702 0.57402 0.0
H3331 H 0.59904 0.6236 0.6052 0.0
O3332 O 0.59983 0.54864 0.54384 0.0
O3333 O 0.55999 0.52615 0.52206 0.0
O3334 O 0.53027 0.53756 0.54101 0.0
O3335 O 0.55628 0.56229 0.5544 0.0
O3336 O 0.57318 0.53454 0.54983 0.0
O3337 O 0.60222 0.56003 0.51715 0.0
O3338 O 0.50972 0.53681 0.49486 0.0
O3339 O 0.54937 0.5593 0.51726 0.0
O3340 O 0.57867 0.54846 0.49773 0.0
O3341 O 0.5536 0.52241 0.48506 0.0
O3342 O 0.53632 0.55135 0.48943 0.0
O3343 O 0.50667 0.52374 0.52057 0.0
C3344 C 0.56317 0.51981 0.5376 0.0
C3345 C 0.59594 0.63689 0.57152 0.0
C3346 C 0.59537 0.64118 0.55282 0.0
C3347 C 0.61043 0.55331 0.53048 0.0
C3348 C 0.62974 0.56296 0.53682 0.0
C3349 C 0.63519 0.58203 0.5483 0.0
C3350 C 0.6429 0.55195 0.53183 0.0
C3351 C 0.66158 0.55929 0.53887 0.0
C3352 C 0.65391 0.58984 0.55486 0.0
C3353 C 0.66708 0.57851 0.55029 0.0
C3354 C 0.53947 0.55137 0.55593 0.0
C3355 C 0.54619 0.56595 0.50193 0.0
C3356 C 0.49863 0.53079 0.50736 0.0
C3357 C 0.47978 0.5203 0.49975 0.0
C3358 C 0.47565 0.50105 0.48854 0.0
C3359 C 0.46567 0.53033 0.50358 0.0
C3360 C 0.44732 0.52161 0.49597 0.0
C3361 C 0.45734 0.49204 0.48114 0.0
C3362 C 0.4432 0.50225 0.48477 0.0
C3363 C 0.56997 0.53398 0.48312 0.0
H3364 H 0.62505 0.5907 0.55228 0.0
H3365 H 0.63842 0.53735 0.52262 0.0
H3366 H 0.65818 0.60454 0.5638 0.0
H3367 H 0.68139 0.58456 0.55605 0.0
H3368 H 0.48648 0.4931 0.48549 0.0
H3369 H 0.46907 0.54508 0.5126 0.0
H3370 H 0.45412 0.4772 0.47242 0.0
H3371 H 0.42919 0.49516 0.47859 0.0
Gd3372 Gd 0.03037 0.53762 0.02218 0.0
Gd3373 Gd 0.07887 0.54588 0.00981 0.0
C3374 C 0.11503 0.60778 0.01116 0.0
C3375 C 0.11868 0.6075 0.97699 0.0
C3376 C 0.1008 0.57836 0.98731 0.0
C3377 C 0.10408 0.58819 0.00637 0.0
C3378 C 0.10836 0.58773 0.97241 0.0
C3379 C 0.12199 0.61752 0.99633 0.0
C3380 C 0.11911 0.61677 0.03073 0.0
C3381 C 0.1129 0.60597 0.04495 0.0
N3382 N 0.09741 0.57821 0.02033 0.0
C3383 C 0.10226 0.5865 0.03946 0.0
H3384 H 0.09764 0.57837 0.05063 0.0
C3385 C 0.08906 0.54816 0.96512 0.0
N3386 N 0.09098 0.55921 0.98345 0.0
C3387 C 0.09618 0.55684 0.94983 0.0
C3388 C 0.10573 0.57678 0.95345 0.0
H3389 H 0.08164 0.53277 0.96219 0.0
H3390 H 0.13031 0.63261 0.99972 0.0
H3391 H 0.01241 0.50487 0.9813 0.0
H3392 H 0.12743 0.63181 0.03502 0.0
H3393 H 0.11629 0.61262 0.06014 0.0
H3394 H 0.1245 0.61502 0.96574 0.0
H3395 H 0.02592 0.55105 0.06947 0.0
H3396 H 0.98336 0.45101 0.99682 0.0
H3397 H 0.99432 0.47035 0.97174 0.0
H3398 H 0.98518 0.46801 0.066 0.0
H3399 H 0.09433 0.54815 0.93528 0.0
H3400 H 0.11133 0.58343 0.9416 0.0
H3401 H 0.98019 0.45021 0.03208 0.0
H3402 H 0.01309 0.53557 0.09626 0.0
N3403 N 0.01234 0.50506 0.0116 0.0
C3404 C 0.99137 0.46619 1.00113 0.0
C3405 C 0.99748 0.47707 0.98693 0.0
C3406 C 0.99513 0.47526 0.0207 0.0
C3407 C 0.00569 0.49502 0.02552 0.0
C3408 C 0.00777 0.49669 0.99245 0.0
N3409 N 0.01786 0.5243 0.0484 0.0
C3410 C 0.00851 0.50497 0.04455 0.0
C3411 C 0.01179 0.52676 0.0818 0.0
C3412 C 1.00286 0.50663 0.07824 0.0
C3413 C 0.019 0.53549 0.06658 0.0
C3414 C 1.00086 0.49554 0.05937 0.0
H3415 H 0.99718 0.49992 0.09003 0.0
O3416 O 0.01523 0.5605 0.03116 0.0
O3417 O 0.05607 0.56027 0.01984 0.0
O3418 O 0.07606 0.54648 0.04176 0.0
O3419 O 0.04672 0.52737 0.04459 0.0
O3420 O 0.04171 0.5663 0.04361 0.0
O3421 O 0.0055 0.53893 0.00488 0.0
O3422 O 0.09505 0.52428 0.99967 0.0
O3423 O 0.0533 0.52333 0.01247 0.0
O3424 O 0.03338 0.5374 0.99021 0.0
O3425 O 0.06245 0.55759 0.98863 0.0
O3426 O 0.06725 0.51703 0.98855 0.0
O3427 O 0.10266 0.54318 0.02787 0.0
C3428 C 0.05577 0.5732 0.03481 0.0
C3429 C 0.99103 0.47558 0.05479 0.0
C3430 C 0.98819 0.46545 0.03548 0.0
C3431 C 1.00226 0.55392 0.01692 0.0
C3432 C 0.98313 0.5524 0.02236 0.0
C3433 C 0.97499 0.53716 0.03186 0.0
C3434 C 0.97332 0.56695 0.01921 0.0
C3435 C 0.95569 0.56645 0.02601 0.0
C3436 C 0.95751 0.53656 0.03846 0.0
C3437 C 0.94798 0.55116 0.03571 0.0
C3438 C 0.06396 0.53612 0.05143 0.0
C3439 C 0.05342 0.51021 0.99766 0.0
C3440 C 0.10701 0.52959 0.01492 0.0
C3441 C 0.12672 0.53246 0.01116 0.0
C3442 C 0.13503 0.54861 0.00293 0.0
C3443 C 0.13727 0.5189 0.01545 0.0
C3444 C 0.15613 0.52169 0.0117 0.0
C3445 C 0.1535 0.55129 0.99895 0.0
C3446 C 0.16397 0.538 0.00326 0.0
C3447 C 0.04521 0.54919 0.98151 0.0
H3448 H 0.98223 0.52586 0.03437 0.0
H3449 H 0.97956 0.57887 0.012 0.0
H3450 H 0.95139 0.52481 0.04589 0.0
H3451 H 0.93446 0.55044 0.04105 0.0
H3452 H 0.12721 0.55911 0.9995 0.0
H3453 H 0.13091 0.50645 0.02191 0.0
H3454 H 0.15975 0.56374 0.99246 0.0
H3455 H 0.17824 0.5404 0.9998 0.0
H3456 H 0.05801 0.19172 0.99175 0.0
H3457 H 0.00759 0.15756 0.9576 0.0
H3458 H 0.06246 0.16165 0.00282 0.0
H3459 H 0.01286 0.12768 0.96782 0.0
H3460 H 0.04372 0.07656 0.9681 0.0
H3461 H 0.03974 0.10833 0.96125 0.0
H3462 H 0.04441 0.13217 0.02248 0.0
H3463 H 0.04757 0.09952 0.02949 0.0
C3464 C 0.04771 0.17804 0.98662 0.0
C3465 C 0.03244 0.17759 0.97338 0.0
C3466 C 0.05038 0.16067 0.99303 0.0
C3467 C 0.0381 0.14208 0.9862 0.0
C3468 C 0.02275 0.14162 0.97329 0.0
C3469 C 0.01986 0.15896 0.96721 0.0
C3470 C 0.04397 0.08851 0.98024 0.0
C3471 C 0.04618 0.08531 0.99939 0.0
C3472 C 0.04163 0.10682 0.97624 0.0
C3473 C 0.04164 0.12295 0.99122 0.0
C3474 C 0.04437 0.12012 0.01052 0.0
C3475 C 0.04629 0.10143 0.01457 0.0
H3476 H 0.19837 0.83612 0.16548 0.0
H3477 H 0.16569 0.78766 0.18786 0.0
H3478 H 0.22612 0.83301 0.18406 0.0
H3479 H 0.19337 0.78423 0.20593 0.0
H3480 H 0.2421 0.79524 0.25174 0.0
H3481 H 0.21511 0.79982 0.23337 0.0
H3482 H 0.24833 0.812 0.18647 0.0
H3483 H 0.27565 0.80798 0.20535 0.0
C3484 C 0.19701 0.82483 0.17438 0.0
C3485 C 0.17955 0.81216 0.175 0.0
C3486 C 0.21306 0.82289 0.18492 0.0
C3487 C 0.21222 0.80835 0.19665 0.0
C3488 C 0.19474 0.79578 0.19733 0.0
C3489 C 0.17877 0.79762 0.1867 0.0
C3490 C 0.24383 0.79938 0.23772 0.0
C3491 C 0.26129 0.80172 0.23033 0.0
C3492 C 0.22817 0.80166 0.22694 0.0
C3493 C 0.22929 0.80632 0.20827 0.0
C3494 C 0.24681 0.80866 0.20083 0.0
C3495 C 0.26251 0.80623 0.21162 0.0
H3496 H 0.51404 0.88178 0.49575 0.0
H3497 H 0.55548 0.89039 0.45533 0.0
H3498 H 0.51722 0.91794 0.50406 0.0
H3499 H 0.55884 0.92621 0.46383 0.0
H3500 H 0.54694 0.98662 0.46522 0.0
H3501 H 0.54065 0.95042 0.45873 0.0
H3502 H 0.53957 0.95052 0.52002 0.0
H3503 H 0.54606 0.98717 0.52651 0.0
C3504 C 0.52385 0.8913 0.48864 0.0
C3505 C 0.5345 0.88292 0.47483 0.0
C3506 C 0.52577 0.91211 0.49354 0.0
C3507 C 0.53819 0.92516 0.48455 0.0
C3508 C 0.54893 0.91675 0.47091 0.0
C3509 C 0.54716 0.89608 0.46618 0.0
C3510 C 0.54509 0.97894 0.47733 0.0
C3511 C 0.5469 0.98987 0.49636 0.0
C3512 C 0.54163 0.95812 0.47362 0.0
C3513 C 0.53991 0.94737 0.48883 0.0
C3514 C 0.54081 0.95822 0.5079 0.0
C3515 C 0.54444 0.97925 0.51165 0.0
H3516 H 0.51756 0.30824 0.70393 0.0
H3517 H 0.4823 0.30201 0.6513 0.0
H3518 H 0.49068 0.30528 0.7222 0.0
H3519 H 0.45536 0.30033 0.66992 0.0
H3520 H 0.40865 0.2772 0.70823 0.0
H3521 H 0.43436 0.2809 0.68757 0.0
H3522 H 0.46909 0.32248 0.73479 0.0
H3523 H 0.44373 0.31815 0.75531 0.0
C3524 C 0.5041 0.30623 0.69614 0.0
C3525 C 0.50237 0.30535 0.67596 0.0
C3526 C 0.48856 0.30486 0.70678 0.0
C3527 C 0.47063 0.3028 0.69773 0.0
C3528 C 0.46882 0.30181 0.67752 0.0
C3529 C 0.48441 0.30305 0.66682 0.0
C3530 C 0.42172 0.28735 0.71401 0.0
C3531 C 0.42417 0.29725 0.73348 0.0
C3532 C 0.43653 0.28948 0.70219 0.0
C3533 C 0.45413 0.30169 0.70951 0.0
C3534 C 0.45608 0.31242 0.72868 0.0
C3535 C 0.44142 0.31013 0.74046 0.0
H3536 H 0.05246 0.86095 0.60437 0.0
H3537 H 0.99718 0.83798 0.57551 0.0
H3538 H 0.05934 0.88346 0.58169 0.0
H3539 H 1.00379 0.86125 0.55332 0.0
H3540 H 0.02937 0.8899 0.50411 0.0
H3541 H 0.02235 0.86687 0.5265 0.0
H3542 H 0.05165 0.91281 0.5738 0.0
H3543 H 0.05943 0.93539 0.55137 0.0
C3544 C 0.04175 0.86075 0.5932 0.0
C3545 C 0.0243 0.84761 0.59169 0.0
C3546 C 0.04562 0.87382 0.58033 0.0
C3547 C 0.03211 0.87416 0.56568 0.0
C3548 C 0.01457 0.86119 0.56429 0.0
C3549 C 0.0107 0.84805 0.57717 0.0
C3550 C 0.03451 0.89496 0.51924 0.0
C3551 C 0.04494 0.91447 0.52594 0.0
C3552 C 0.03028 0.88187 0.53212 0.0
C3553 C 0.0364 0.88802 0.55195 0.0
C3554 C 0.04688 0.90751 0.5586 0.0
C3555 C 0.05117 0.92054 0.54575 0.0
H3556 H 0.52633 0.84801 0.81707 0.0
H3557 H 0.49469 0.79999 0.84098 0.0
H3558 H 0.49801 0.85168 0.80036 0.0
H3559 H 0.46626 0.80375 0.82435 0.0
H3560 H 0.42111 0.8052 0.778 0.0
H3561 H 0.44986 0.79989 0.79242 0.0
H3562 H 0.47062 0.8635 0.80918 0.0
H3563 H 0.44193 0.8688 0.79476 0.0
C3564 C 0.51329 0.83827 0.81878 0.0
C3565 C 0.51269 0.82382 0.83045 0.0
C3566 C 0.49707 0.84039 0.80924 0.0
C3567 C 0.47986 0.82814 0.81116 0.0
C3568 C 0.47932 0.8133 0.82241 0.0
C3569 C 0.49559 0.81114 0.83194 0.0
C3570 C 0.4318 0.81804 0.78482 0.0
C3571 C 0.42924 0.83743 0.78525 0.0
C3572 C 0.44825 0.81499 0.79309 0.0
C3573 C 0.46252 0.83127 0.80193 0.0
C3574 C 0.46002 0.85065 0.80219 0.0
C3575 C 0.44358 0.85369 0.79392 0.0
H3576 H 0.49406 0.15158 0.11766 0.0
H3577 H 0.48443 0.16464 0.06074 0.0
H3578 H 0.50313 0.12119 0.1032 0.0
H3579 H 0.49298 0.13398 0.04618 0.0
H3580 H 0.54166 0.10514 0.03379 0.0
H3581 H 0.52458 0.12923 0.04749 0.0
H3582 H 0.49706 0.08798 0.08164 0.0
H3583 H 0.5144 0.06357 0.06762 0.0
C3584 C 0.49314 0.14748 0.10201 0.0
C3585 C 0.48883 0.16049 0.09027 0.0
C3586 C 0.49835 0.1301 0.09373 0.0
C3587 C 0.4992 0.12551 0.07362 0.0
C3588 C 0.4929 0.13746 0.06179 0.0
C3589 C 0.48791 0.1549 0.07006 0.0
C3590 C 0.53184 0.10113 0.04407 0.0
C3591 C 0.52913 0.08248 0.04948 0.0
C3592 C 0.52195 0.11487 0.05184 0.0
C3593 C 0.5091 0.11029 0.06525 0.0
C3594 C 0.50678 0.09182 0.0712 0.0
C3595 C 0.51677 0.07797 0.06335 0.0
H3596 H 0.17725 0.3306 0.30196 0.0
H3597 H 0.18096 0.28155 0.33059 0.0
H3598 H 0.20765 0.32991 0.29004 0.0
H3599 H 0.21089 0.28087 0.31865 0.0
H3600 H 0.25913 0.30785 0.26274 0.0
H3601 H 0.22666 0.30736 0.26894 0.0
H3602 H 0.24056 0.30778 0.32944 0.0
H3603 H 0.27258 0.30806 0.3232 0.0
C3604 C 0.18436 0.31946 0.30536 0.0
C3605 C 0.17678 0.30622 0.31732 0.0
C3606 C 0.20164 0.31899 0.29845 0.0
C3607 C 0.2116 0.30545 0.30361 0.0
C3608 C 0.20349 0.29148 0.31452 0.0
C3609 C 0.18626 0.29181 0.32126 0.0
C3610 C 0.25506 0.30768 0.27728 0.0
C3611 C 0.26796 0.30704 0.29237 0.0
C3612 C 0.23665 0.30761 0.28084 0.0
C3613 C 0.23111 0.30702 0.29956 0.0
C3614 C 0.24439 0.30768 0.31478 0.0
C3615 C 0.26269 0.30795 0.31126 0.0
H3616 H 0.96932 0.0762 0.15393 0.0
H3617 H 0.01027 0.05024 0.17892 0.0
H3618 H 0.98328 0.07252 0.123 0.0
H3619 H 0.02447 0.047 0.14813 0.0
H3620 H 0.05689 0.06221 0.09433 0.0
H3621 H 0.04284 0.06575 0.12518 0.0
H3622 H 0.98852 0.04775 0.09415 0.0
H3623 H 1.00264 0.04364 0.06328 0.0
C3624 C 0.98138 0.0698 0.15306 0.0
C3625 C 0.98836 0.06358 0.16959 0.0
C3626 C 0.98944 0.06753 0.13499 0.0
C3627 C 1.00531 0.05941 0.13242 0.0
C3628 C 0.01245 0.05345 0.14902 0.0
C3629 C 1.0041 0.05523 0.16694 0.0
C3630 C 0.04195 0.05908 0.09388 0.0
C3631 C 0.0312 0.05273 0.07569 0.0
C3632 C 0.03374 0.06097 0.11187 0.0
C3633 C 0.01425 0.05716 0.1128 0.0
C3634 C 1.00349 0.05107 0.09458 0.0
C3635 C 0.01171 0.04862 0.07661 0.0
H3636 H 0.31093 0.69253 0.41964 0.0
H3637 H 0.27717 0.72738 0.45176 0.0
H3638 H 0.30734 0.70903 0.3921 0.0
H3639 H 0.27354 0.74377 0.42437 0.0
H3640 H 0.2787 0.7782 0.37626 0.0
H3641 H 0.29131 0.7662 0.40359 0.0
H3642 H 0.27802 0.70639 0.37 0.0
H3643 H 0.26556 0.71842 0.34265 0.0
C3644 C 0.30308 0.70401 0.4209 0.0
C3645 C 0.29418 0.70865 0.43762 0.0
C3646 C 0.30097 0.71333 0.40519 0.0
C3647 C 0.29016 0.7276 0.40618 0.0
C3648 C 0.2821 0.73297 0.42333 0.0
C3649 C 0.28403 0.7235 0.4389 0.0
C3650 C 0.27886 0.76257 0.37463 0.0
C3651 C 0.27102 0.74914 0.35752 0.0
C3652 C 0.28599 0.75573 0.39023 0.0
C3653 C 0.28555 0.73541 0.38885 0.0
C3654 C 0.27865 0.72217 0.37135 0.0
C3655 C 0.27135 0.72898 0.35582 0.0
H3656 H 0.63912 1.00178 0.63575 0.0
H3657 H 0.60131 0.02835 0.67048 0.0
H3658 H 0.62052 1.00252 0.60636 0.0
H3659 H 0.58277 0.0292 0.64088 0.0
H3660 H 0.54985 0.01299 0.57834 0.0
H3661 H 0.56372 1.00532 0.60769 0.0
H3662 H 0.61759 0.03661 0.59622 0.0
H3663 H 0.60395 0.04492 0.56758 0.0
C3664 C 0.62654 0.00722 0.63711 0.0
C3665 C 0.62169 0.01514 0.65534 0.0
C3666 C 0.61599 0.00773 0.62032 0.0
C3667 C 0.60038 0.01602 0.62151 0.0
C3668 C 0.59473 0.02264 0.63971 0.0
C3669 C 0.60538 0.0223 0.65655 0.0
C3670 C 0.56459 0.01845 0.58222 0.0
C3671 C 0.57573 0.0298 0.57075 0.0
C3672 C 0.57249 0.01393 0.59889 0.0
C3673 C 0.59167 0.02024 0.60393 0.0
C3674 C 0.60278 0.03137 0.5924 0.0
C3675 C 0.5949 0.03621 0.57606 0.0
H3676 H 0.32966 0.3169 0.92792 0.0
H3677 H 0.2889 0.35083 0.9185 0.0
H3678 H 0.33072 0.30796 0.89267 0.0
H3679 H 0.2899 0.34186 0.88363 0.0
H3680 H 0.31265 0.34504 0.82622 0.0
H3681 H 0.31461 0.35118 0.86145 0.0
H3682 H 0.30936 0.28849 0.86061 0.0
H3683 H 0.30719 0.28227 0.82483 0.0
C3684 C 0.32086 0.32237 0.91838 0.0
C3685 C 0.30916 0.3346 0.92614 0.0
C3686 C 0.3214 0.31713 0.89819 0.0
C3687 C 0.3105 0.3243 0.88532 0.0
C3688 C 0.29862 0.33622 0.89311 0.0
C3689 C 0.29791 0.34122 0.91316 0.0
C3690 C 0.31221 0.33256 0.83352 0.0
C3691 C 0.30985 0.3132 0.82273 0.0
C3692 C 0.31322 0.33607 0.85373 0.0
C3693 C 0.31181 0.32031 0.86388 0.0
C3694 C 0.31046 0.30096 0.85321 0.0
C3695 C 0.30931 0.29739 0.83276 0.0
H3696 H 0.01288 0.0507 0.36425 0.0
H3697 H 0.97128 0.07529 0.39397 0.0
H3698 H 0.02607 0.04552 0.395 0.0
H3699 H 0.98489 0.07096 0.42455 0.0
H3700 H 1.0016 0.04882 0.47837 0.0
H3701 H 0.9894 0.05236 0.44687 0.0
H3702 H 0.04323 0.05416 0.42599 0.0
H3703 H 0.05546 0.05023 0.45813 0.0
C3704 C 0.0063 0.05507 0.37714 0.0
C3705 C 0.99053 0.0635 0.37565 0.0
C3706 C 0.01421 0.05222 0.39523 0.0
C3707 C 0.00687 0.05751 0.41315 0.0
C3708 C 0.99122 0.06608 0.41164 0.0
C3709 C 0.98335 0.06894 0.39362 0.0
C3710 C 0.01102 0.04985 0.46715 0.0
C3711 C 0.02972 0.04909 0.47146 0.0
C3712 C 1.00392 0.05217 0.44871 0.0
C3713 C 0.01502 0.05408 0.43305 0.0
C3714 C 0.03379 0.05283 0.43713 0.0
C3715 C 0.04098 0.0505 0.45584 0.0
H3716 H 0.27672 0.74162 0.60552 0.0
H3717 H 0.30932 0.70597 0.62993 0.0
H3718 H 0.2749 0.75991 0.63822 0.0
H3719 H 0.3075 0.72413 0.66235 0.0
H3720 H 0.28065 0.74159 0.71626 0.0
H3721 H 0.27893 0.72587 0.68244 0.0
H3722 H 0.29938 0.78315 0.66714 0.0
H3723 H 0.301 0.79918 0.70121 0.0
C3724 C 0.28355 0.73783 0.61787 0.0
C3725 C 0.29323 0.7225 0.61532 0.0
C3726 C 0.28256 0.74827 0.63645 0.0
C3727 C 0.29093 0.74323 0.65264 0.0
C3728 C 0.30078 0.7281 0.65003 0.0
C3729 C 0.30199 0.71788 0.63152 0.0
C3730 C 0.28457 0.75095 0.70574 0.0
C3731 C 0.29148 0.77158 0.71147 0.0
C3732 C 0.28361 0.74191 0.6864 0.0
C3733 C 0.28935 0.75332 0.6724 0.0
C3734 C 0.29497 0.77409 0.67779 0.0
C3735 C 0.29603 0.78319 0.69725 0.0
H3736 H 0.62596 0.02153 0.8175 0.0
H3737 H 0.66632 0.07319 0.84831 0.0
H3738 H 0.60535 0.02568 0.84277 0.0
H3739 H 0.64505 0.0783 0.87275 0.0
H3740 H 0.60936 0.07314 0.92223 0.0
H3741 H 0.63098 0.06623 0.89873 0.0
H3742 H 0.58574 0.04705 0.85332 0.0
H3743 H 0.56389 0.05239 0.87716 0.0
C3744 C 0.63053 0.03368 0.82974 0.0
C3745 C 0.6478 0.04708 0.83082 0.0
C3746 C 0.61854 0.03627 0.84406 0.0
C3747 C 0.62341 0.05249 0.85965 0.0
C3748 C 0.64089 0.06556 0.86102 0.0
C3749 C 0.653 0.0628 0.84685 0.0
C3750 C 0.60396 0.06714 0.90729 0.0
C3751 C 0.58484 0.06317 0.90161 0.0
C3752 C 0.61642 0.06345 0.89375 0.0
C3753 C 0.61012 0.05605 0.87413 0.0
C3754 C 0.59104 0.05241 0.86838 0.0
C3755 C 0.57853 0.05581 0.88199 0.0
H3756 H 0.31905 0.32077 0.11764 0.0
H3757 H 0.28906 0.36543 0.1386 0.0
H3758 H 0.31847 0.31038 0.149 0.0
H3759 H 0.28805 0.35466 0.1698 0.0
H3760 H 0.3075 0.3439 0.22994 0.0
H3761 H 0.3079 0.35476 0.1987 0.0
H3762 H 0.29741 0.29353 0.16912 0.0
H3763 H 0.29749 0.28276 0.20021 0.0
C3764 C 0.31233 0.3284 0.12891 0.0
C3765 C 0.30409 0.34396 0.12544 0.0
C3766 C 0.31183 0.32229 0.1469 0.0
C3767 C 0.30317 0.33162 0.16204 0.0
C3768 C 0.29498 0.34722 0.1586 0.0
C3769 C 0.29538 0.35324 0.14057 0.0
C3770 C 0.30522 0.33275 0.21677 0.0
C3771 C 0.30221 0.31241 0.21769 0.0
C3772 C 0.30534 0.33897 0.19881 0.0
C3773 C 0.30267 0.32505 0.18127 0.0
C3774 C 0.29969 0.30473 0.18225 0.0
C3775 C 0.29947 0.29852 0.20016 0.0
H3776 H 0.22074 0.96871 0.9981 0.0
H3777 H 0.26167 0.01554 0.03494 0.0
H3778 H 0.19834 0.98997 1.00131 0.0
H3779 H 0.23936 0.03669 0.03823 0.0
H3780 H 0.19745 0.07408 0.02613 0.0
H3781 H 0.22041 0.05416 0.01844 0.0
H3782 H 0.1828 1.00266 0.031 0.0
H3783 H 0.1602 0.02249 0.03928 0.0
C3784 C 0.22497 0.98363 0.00663 0.0
C3785 C 0.24276 0.99049 0.01645 0.0
C3786 C 0.2122 0.99571 0.00854 0.0
C3787 C 0.21717 0.01489 0.02008 0.0
C3788 C 0.23525 0.02203 0.02915 0.0
C3789 C 0.24791 0.00989 0.02742 0.0
C3790 C 0.19418 0.05857 0.02743 0.0
C3791 C 0.17697 0.04986 0.03321 0.0
C3792 C 0.20723 0.04717 0.02289 0.0
C3793 C 0.20321 0.02686 0.0239 0.0
C3794 C 0.18606 0.01818 0.02968 0.0
C3795 C 0.17314 0.02957 0.03443 0.0
H3796 H 0.70798 0.6074 0.01901 0.0
H3797 H 0.68602 0.64065 0.98081 0.0
H3798 H 0.67679 0.58717 0.01965 0.0
H3799 H 0.65482 0.62043 0.9815 0.0
H3800 H 0.60157 0.59822 0.01205 0.0
H3801 H 0.6326 0.6167 0.00817 0.0
H3802 H 0.6509 0.56172 0.99639 0.0
H3803 H 0.6197 0.54317 1.00002 0.0
C3804 C 0.6965 0.61035 0.01071 0.0
C3805 C 0.6995 0.62568 0.99989 0.0
C3806 C 0.67867 0.59866 0.01096 0.0
C3807 C 0.66334 0.60221 1.00064 0.0
C3808 C 0.66634 0.6174 0.98968 0.0
C3809 C 0.68423 0.62889 0.98918 0.0
C3810 C 0.61217 0.59003 0.00851 0.0
C3811 C 0.60813 0.56917 0.00634 0.0
C3812 C 0.62992 0.60063 0.00618 0.0
C3813 C 0.64422 0.59068 0.00198 0.0
C3814 C 0.64019 0.56981 0.99969 0.0
C3815 C 0.62228 0.55915 0.00163 0.0
H3816 H 0.74834 0.42628 0.24402 0.0
H3817 H 0.7157 0.40842 0.28947 0.0
H3818 H 0.76409 0.39915 0.2452 0.0
H3819 H 0.73139 0.38165 0.29065 0.0
H3820 H 0.76997 0.34115 0.30193 0.0
H3821 H 0.75541 0.3686 0.29947 0.0
H3822 H 0.76851 0.3658 0.24027 0.0
H3823 H 0.78341 0.33787 0.24296 0.0
C3824 C 0.74421 0.41675 0.25432 0.0
C3825 C 0.73026 0.42062 0.26673 0.0
C3826 C 0.75352 0.40077 0.25499 0.0
C3827 C 0.74968 0.38747 0.2682 0.0
C3828 C 0.73564 0.39125 0.28043 0.0
C3829 C 0.72633 0.4071 0.27972 0.0
C3830 C 0.76993 0.34625 0.28825 0.0
C3831 C 0.77832 0.33668 0.27279 0.0
C3832 C 0.7612 0.36228 0.28673 0.0
C3833 C 0.76002 0.37013 0.26953 0.0
C3834 C 0.76876 0.36082 0.25397 0.0
C3835 C 0.77751 0.34451 0.2555 0.0
H3836 H 0.91906 0.47256 0.53802 0.0
H3837 H 0.91092 0.51861 0.50691 0.0
H3838 H 0.95151 0.47896 0.53203 0.0
H3839 H 0.94335 0.52428 0.50001 0.0
H3840 H 0.00673 0.54386 0.51729 0.0
H3841 H 0.97365 0.53754 0.51758 0.0
H3842 H 0.97063 0.47427 0.50505 0.0
H3843 H 1.00441 0.48087 0.50483 0.0
C3844 C 0.92425 0.48426 0.53013 0.0
C3845 C 0.91246 0.4952 0.52306 0.0
C3846 C 0.94275 0.48756 0.52629 0.0
C3847 C 0.94983 0.50178 0.51518 0.0
C3848 C 0.93821 0.51314 0.50854 0.0
C3849 C 0.91968 0.50991 0.51248 0.0
C3850 C 0.99917 0.52864 0.51393 0.0
C3851 C 0.00826 0.5129 0.51085 0.0
C3852 C 0.98004 0.52499 0.51413 0.0
C3853 C 0.96957 0.50542 0.51157 0.0
C3854 C 0.97846 0.48955 0.50739 0.0
C3855 C 0.99771 0.49328 0.50711 0.0
H3856 H 0.39027 0.15675 0.31443 0.0
H3857 H 0.33544 0.1187 0.30922 0.0
H3858 H 0.37715 0.18272 0.30389 0.0
H3859 H 0.32242 0.14403 0.29785 0.0
H3860 H 0.30079 0.18874 0.27441 0.0
H3861 H 0.31514 0.17546 0.29946 0.0
H3862 H 0.36595 0.18261 0.27133 0.0
H3863 H 0.35201 0.19722 0.24708 0.0
C3864 C 0.37535 0.15424 0.31172 0.0
C3865 C 0.36386 0.13562 0.3122 0.0
C3866 C 0.36786 0.16899 0.30545 0.0
C3867 C 0.34882 0.16525 0.29949 0.0
C3868 C 0.33714 0.1475 0.3023 0.0
C3869 C 0.3446 0.13287 0.30868 0.0
C3870 C 0.31519 0.18801 0.27386 0.0
C3871 C 0.32516 0.19369 0.25852 0.0
C3872 C 0.32338 0.18027 0.28818 0.0
C3873 C 0.34161 0.17773 0.28731 0.0
C3874 C 0.35193 0.1845 0.2726 0.0
C3875 C 0.34381 0.19248 0.25841 0.0
H3876 H 0.39391 0.15666 0.54019 0.0
H3877 H 0.36798 0.11714 0.48713 0.0
H3878 H 0.41681 0.13665 0.54229 0.0
H3879 H 0.39148 0.09791 0.48863 0.0
H3880 H 0.41993 0.05323 0.51095 0.0
H3881 H 0.39907 0.07483 0.50667 0.0
H3882 H 0.44327 0.12636 0.52906 0.0
H3883 H 0.46408 0.10446 0.53408 0.0
C3884 C 0.39308 0.14378 0.5289 0.0
C3885 C 0.37886 0.13852 0.51357 0.0
C3886 C 0.40645 0.13244 0.52996 0.0
C3887 C 0.40604 0.11552 0.51569 0.0
C3888 C 0.39214 0.11061 0.50008 0.0
C3889 C 0.37873 0.12187 0.49908 0.0
C3890 C 0.42525 0.06917 0.515 0.0
C3891 C 0.44367 0.07705 0.52308 0.0
C3892 C 0.4133 0.08163 0.51232 0.0
C3893 C 0.41937 0.10245 0.51754 0.0
C3894 C 0.43799 0.11041 0.52509 0.0
C3895 C 0.45001 0.09787 0.52777 0.0
H3896 H 0.75501 0.62025 0.25411 0.0
H3897 H 0.7171 0.63984 0.29336 0.0
H3898 H 0.77019 0.6549 0.25429 0.0
H3899 H 0.73242 0.67449 0.2937 0.0
H3900 H 0.75262 0.73582 0.27508 0.0
H3901 H 0.73739 0.70124 0.27534 0.0
H3902 H 0.79023 0.68506 0.27289 0.0
H3903 H 0.80534 0.71957 0.27265 0.0
C3904 C 0.74977 0.63184 0.26279 0.0
C3905 C 0.73459 0.62669 0.27372 0.0
C3906 C 0.75871 0.65196 0.26305 0.0
C3907 C 0.75277 0.66802 0.27403 0.0
C3908 C 0.73752 0.66289 0.28487 0.0
C3909 C 0.72875 0.64276 0.28483 0.0
C3910 C 0.76111 0.72499 0.27467 0.0
C3911 C 0.7805 0.73104 0.27399 0.0
C3912 C 0.75229 0.70494 0.27492 0.0
C3913 C 0.76235 0.68982 0.27413 0.0
C3914 C 0.78172 0.69588 0.27334 0.0
C3915 C 0.79056 0.71598 0.27341 0.0
H3916 H 0.82832 0.44361 0.78865 0.0
H3917 H 0.87665 0.43609 0.75896 0.0
H3918 H 0.81723 0.40743 0.78332 0.0
H3919 H 0.8651 0.40035 0.75275 0.0
H3920 H 0.85218 0.33867 0.76693 0.0
H3921 H 0.8618 0.37492 0.77236 0.0
H3922 H 0.80541 0.37807 0.75689 0.0
H3923 H 0.7959 0.34166 0.75167 0.0
C3924 C 0.83648 0.43428 0.78087 0.0
C3925 C 0.85334 0.44273 0.7742 0.0
C3926 C 0.83004 0.41362 0.77766 0.0
C3927 C 0.84039 0.40113 0.76773 0.0
C3928 C 0.85698 0.40961 0.7607 0.0
C3929 C 0.86345 0.43014 0.764 0.0
C3930 C 0.84189 0.34725 0.76503 0.0
C3931 C 0.82327 0.33778 0.75971 0.0
C3932 C 0.84737 0.36788 0.76786 0.0
C3933 C 0.83432 0.37929 0.76509 0.0
C3934 C 0.81567 0.36965 0.75942 0.0
C3935 C 0.81024 0.34894 0.75646 0.0
H3936 H 0.08876 0.92627 0.09604 0.0
H3937 H 0.06717 0.89165 0.03951 0.0
H3938 H 0.08402 0.95611 0.08554 0.0
H3939 H 0.06176 0.9217 0.02896 0.0
H3940 H 0.06808 0.98481 0.0117 0.0
H3941 H 0.07207 0.953 0.01979 0.0
H3942 H 0.0629 0.97385 0.07919 0.0
H3943 H 0.05991 1.00537 0.07122 0.0
C3944 C 0.08273 0.9249 0.08137 0.0
C3945 C 0.07822 0.90621 0.06882 0.0
C3946 C 0.07986 0.94221 0.07526 0.0
C3947 C 0.07206 0.94172 0.05634 0.0
C3948 C 0.06786 0.92305 0.04359 0.0
C3949 C 0.07095 0.90566 0.04969 0.0
C3950 C 0.06676 0.98241 0.02641 0.0
C3951 C 0.06363 0.99775 0.04079 0.0
C3952 C 0.06906 0.9641 0.03114 0.0
C3953 C 0.06831 0.96059 0.05039 0.0
C3954 C 0.06436 0.97581 0.06438 0.0
C3955 C 0.06236 0.99399 0.05975 0.0
H3956 H 0.93555 0.24907 0.83671 0.0
H3957 H 0.92476 0.29365 0.88256 0.0
H3958 H 0.90879 0.25195 0.81693 0.0
H3959 H 0.89895 0.29767 0.86222 0.0
H3960 H 0.84309 0.29038 0.82792 0.0
H3961 H 0.86886 0.28598 0.84848 0.0
H3962 H 0.89667 0.2704 0.79756 0.0
H3963 H 0.87073 0.27439 0.77726 0.0
C3964 C 0.92757 0.25951 0.84272 0.0
C3965 C 0.93273 0.27111 0.8615 0.0
C3966 C 0.91221 0.26145 0.8311 0.0
C3967 C 0.90143 0.2752 0.83765 0.0
C3968 C 0.90652 0.2867 0.85647 0.0
C3969 C 0.92174 0.28462 0.86816 0.0
C3970 C 0.85471 0.28597 0.82111 0.0
C3971 C 0.8545 0.28235 0.80076 0.0
C3972 C 0.86967 0.28352 0.83297 0.0
C3973 C 0.88516 0.27765 0.82494 0.0
C3974 C 0.88498 0.27436 0.80454 0.0
C3975 C 0.86994 0.27661 0.79272 0.0
H3976 H 0.5996 0.20525 0.54446 0.0
H3977 H 0.55347 0.19556 0.57922 0.0
H3978 H 0.59675 0.16908 0.53602 0.0
H3979 H 0.55067 0.15976 0.57081 0.0
H3980 H 0.56474 0.10042 0.57288 0.0
H3981 H 0.57032 0.13657 0.57888 0.0
H3982 H 0.57365 0.13593 0.51776 0.0
H3983 H 0.56759 0.09925 0.51166 0.0
C3984 C 0.58883 0.19547 0.55028 0.0
C3985 C 0.57675 0.20351 0.56255 0.0
C3986 C 0.58713 0.1747 0.54531 0.0
C3987 C 0.57355 0.16141 0.5528 0.0
C3988 C 0.56141 0.16947 0.56489 0.0
C3989 C 0.56292 0.1901 0.56959 0.0
C3990 C 0.5669 0.10794 0.56069 0.0
C3991 C 0.56582 0.09685 0.54181 0.0
C3992 C 0.56999 0.12873 0.56413 0.0
C3993 C 0.57218 0.13928 0.54882 0.0
C3994 C 0.57203 0.12833 0.52993 0.0
C3995 C 0.56866 0.10731 0.52642 0.0
H3996 H 0.60053 0.74851 0.34828 0.0
H3997 H 0.6222 0.8086 0.37942 0.0
H3998 H 0.62767 0.75085 0.33006 0.0
H3999 H 0.64915 0.81117 0.36068 0.0
H4000 H 0.70301 0.80467 0.33289 0.0
H4001 H 0.67778 0.79997 0.35414 0.0
H4002 H 0.64003 0.76699 0.30479 0.0
H4003 H 0.6651 0.77135 0.28393 0.0
C4004 C 0.61111 0.76222 0.35138 0.0
C4005 C 0.60897 0.77837 0.36538 0.0
C4006 C 0.62668 0.76364 0.34073 0.0
C4007 C 0.64072 0.78126 0.34371 0.0
C4008 C 0.63879 0.79729 0.35801 0.0
C4009 C 0.62314 0.7959 0.36861 0.0
C4010 C 0.68939 0.79611 0.32671 0.0
C4011 C 0.68612 0.78846 0.30666 0.0
C4012 C 0.67484 0.7936 0.33884 0.0
C4013 C 0.6567 0.78316 0.33126 0.0
C4014 C 0.65372 0.77493 0.31132 0.0
C4015 C 0.66814 0.77756 0.29926 0.0
H4016 H 0.11013 0.25178 0.46754 0.0
H4017 H 0.0599 0.22139 0.43109 0.0
H4018 H 0.10367 0.22772 0.48885 0.0
H4019 H 0.05286 0.1981 0.45301 0.0
H4020 H 0.05396 0.14801 0.4854 0.0
H4021 H 0.06209 0.17105 0.4635 0.0
H4022 H 0.08325 0.21872 0.51249 0.0
H4023 H 0.07625 0.19531 0.5344 0.0
C4024 C 0.09774 0.23993 0.46401 0.0
C4025 C 0.08553 0.23855 0.44759 0.0
C4026 C 0.09389 0.2263 0.47641 0.0
C4027 C 0.07768 0.21102 0.47275 0.0
C4028 C 0.06558 0.20953 0.45621 0.0
C4029 C 0.06949 0.22307 0.44375 0.0
C4030 C 0.06061 0.16333 0.49154 0.0
C4031 C 0.06455 0.16975 0.51172 0.0
C4032 C 0.06504 0.17664 0.47895 0.0
C4033 C 0.0733 0.19679 0.48619 0.0
C4034 C 0.07712 0.20326 0.50637 0.0
C4035 C 0.07285 0.18989 0.51898 0.0
H4036 H 0.60454 0.23805 0.17987 0.0
H4037 H 0.59661 0.2772 0.23183 0.0
H4038 H 0.63284 0.23343 0.19577 0.0
H4039 H 0.62508 0.27267 0.24771 0.0
H4040 H 0.68757 0.27539 0.26074 0.0
H4041 H 0.65899 0.28051 0.24567 0.0
H4042 H 0.64183 0.21752 0.22223 0.0
H4043 H 0.67063 0.21249 0.23682 0.0
C4044 C 0.60876 0.24556 0.19474 0.0
C4045 C 0.59825 0.25788 0.20463 0.0
C4046 C 0.62498 0.2429 0.20385 0.0
C4047 C 0.6311 0.25256 0.22304 0.0
C4048 C 0.62078 0.26516 0.23285 0.0
C4049 C 0.6045 0.26777 0.22375 0.0
C4050 C 0.6777 0.26265 0.25232 0.0
C4051 C 0.68136 0.24354 0.2499 0.0
C4052 C 0.66128 0.26556 0.24385 0.0
C4053 C 0.64821 0.24943 0.2327 0.0
C4054 C 0.65175 0.23028 0.23055 0.0
C4055 C 0.66813 0.22736 0.23908 0.0
H4056 H 0.61181 0.92688 0.91928 0.0
H4057 H 0.6322 0.91983 0.97576 0.0
H4058 H 0.60138 0.95612 0.93409 0.0
H4059 H 0.62177 0.94927 0.99061 0.0
H4060 H 0.57125 0.97418 0.00795 0.0
H4061 H 0.58921 0.95136 0.99338 0.0
H4062 H 0.60793 0.99044 0.95365 0.0
H4063 H 0.58995 0.01368 0.96866 0.0
C4064 C 0.61471 0.93201 0.9348 0.0
C4065 C 0.62262 0.92092 0.94642 0.0
C4066 C 0.60868 0.94877 0.94327 0.0
C4067 C 0.61045 0.95471 0.9635 0.0
C4068 C 0.61989 0.94471 0.97498 0.0
C4069 C 0.62588 0.92792 0.96651 0.0
C4070 C 0.57942 0.97809 0.99633 0.0
C4071 C 0.57946 0.99581 0.98964 0.0
C4072 C 0.58977 0.96505 0.98802 0.0
C4073 C 0.60032 0.96935 0.97268 0.0
C4074 C 0.6 0.98685 0.96556 0.0
C4075 C 0.58963 1.00002 0.974 0.0
H4076 H 0.90918 0.75139 0.69201 0.0
H4077 H 0.94083 0.78226 0.74608 0.0
H4078 H 0.88052 0.75101 0.70742 0.0
H4079 H 0.91178 0.78182 0.76158 0.0
H4080 H 0.84916 0.75148 0.77773 0.0
H4081 H 0.87987 0.75071 0.76614 0.0
H4082 H 0.86887 0.78462 0.72292 0.0
H4083 H 0.83864 0.78516 0.73416 0.0
C4084 C 0.91 0.75781 0.70728 0.0
C4085 C 0.92719 0.76681 0.7179 0.0
C4086 C 0.89364 0.75763 0.71603 0.0
C4087 C 0.89412 0.76632 0.7356 0.0
C4088 C 0.91123 0.77491 0.74648 0.0
C4089 C 0.92772 0.7753 0.73761 0.0
C4090 C 0.85352 0.75891 0.76591 0.0
C4091 C 0.8419 0.76904 0.75728 0.0
C4092 C 0.87098 0.75855 0.7594 0.0
C4093 C 0.8766 0.76779 0.74384 0.0
C4094 C 0.86481 0.77755 0.73506 0.0
C4095 C 0.84759 0.77806 0.74165 0.0
H4096 H 0.10499 0.99036 0.86426 0.0
H4097 H 0.13536 0.05139 0.88045 0.0
H4098 H 0.09139 0.99311 0.89506 0.0
H4099 H 0.12112 0.05442 0.91076 0.0
H4100 H 0.10295 0.05454 0.97243 0.0
H4101 H 0.11694 0.05112 0.94183 0.0
H4102 H 0.07174 1.00146 0.91749 0.0
H4103 H 0.0582 1.00458 0.94849 0.0
C4104 C 0.10897 1.00449 0.87419 0.0
C4105 C 0.12172 0.02056 0.86892 0.0
C4106 C 0.10078 1.00619 0.89222 0.0
C4107 C 0.10473 0.02408 0.90635 0.0
C4108 C 0.11745 0.04013 0.90106 0.0
C4109 C 0.12564 0.03843 0.88306 0.0
C4110 C 0.09587 0.04278 0.96065 0.0
C4111 C 0.07907 0.02997 0.96359 0.0
C4112 C 0.10397 0.04086 0.94262 0.0
C4113 C 0.09584 0.026 0.92618 0.0
C4114 C 0.07903 0.01309 0.92923 0.0
C4115 C 0.07096 0.015 0.94732 0.0
H4116 H 0.82784 0.35445 0.58722 0.0
H4117 H 0.80455 0.39845 0.62227 0.0
H4118 H 0.83283 0.33984 0.61535 0.0
H4119 H 0.80877 0.38321 0.65042 0.0
H4120 H 0.84881 0.37065 0.69788 0.0
H4121 H 0.836 0.38239 0.67068 0.0
H4122 H 0.81907 0.32186 0.63895 0.0
H4123 H 0.83282 0.31026 0.66565 0.0
C4124 C 0.82352 0.36079 0.60091 0.0
C4125 C 0.81609 0.37777 0.60266 0.0
C4126 C 0.82614 0.35226 0.61699 0.0
C4127 C 0.82128 0.36044 0.63515 0.0
C4128 C 0.81287 0.37675 0.63666 0.0
C4129 C 0.81028 0.38534 0.62053 0.0
C4130 C 0.84236 0.35987 0.68509 0.0
C4131 C 0.8421 0.33957 0.6838 0.0
C4132 C 0.83474 0.36655 0.66962 0.0
C4133 C 0.82663 0.35305 0.65261 0.0
C4134 C 0.82546 0.33265 0.65177 0.0
C4135 C 0.83319 0.32598 0.66716 0.0
H4136 H 0.45895 0.04076 0.4005 0.0
H4137 H 0.50504 0.06449 0.36983 0.0
H4138 H 0.48017 0.04304 0.42869 0.0
H4139 H 0.52631 0.06763 0.39858 0.0
H4140 H 0.55653 0.04454 0.44833 0.0
H4141 H 0.53867 0.04615 0.41856 0.0
H4142 H 0.49914 0.07005 0.45291 0.0
H4143 H 0.51677 0.06805 0.48238 0.0
C4144 C 0.47364 0.04637 0.39975 0.0
C4145 C 0.48034 0.05245 0.38298 0.0
C4146 C 0.48576 0.04797 0.416 0.0
C4147 C 0.50484 0.05583 0.41589 0.0
C4148 C 0.51166 0.06156 0.39902 0.0
C4149 C 0.49948 0.05991 0.38268 0.0
C4150 C 0.54435 0.05067 0.4494 0.0
C4151 C 0.53786 0.05607 0.46744 0.0
C4152 C 0.53409 0.05153 0.43243 0.0
C4153 C 0.51735 0.05785 0.43349 0.0
C4154 C 0.51174 0.06465 0.45169 0.0
C4155 C 0.52185 0.06362 0.46851 0.0
H4156 H 0.77323 0.72419 0.11602 0.0
H4157 H 0.81856 0.77482 0.1171 0.0
H4158 H 0.7721 0.73412 0.15069 0.0
H4159 H 0.81786 0.78431 0.15217 0.0
H4160 H 0.80403 0.80268 0.21522 0.0
H4161 H 0.80015 0.79635 0.17949 0.0
H4162 H 0.79212 0.73328 0.17859 0.0
H4163 H 0.79583 0.73964 0.2138 0.0
C4164 C 0.78284 0.73761 0.12354 0.0
C4165 C 0.79603 0.74863 0.11355 0.0
C4166 C 0.7823 0.7432 0.14357 0.0
C4167 C 0.79497 0.75996 0.15436 0.0
C4168 C 0.80779 0.77141 0.14436 0.0
C4169 C 0.80835 0.76579 0.12424 0.0
C4170 C 0.80099 0.78749 0.20729 0.0
C4171 C 0.79992 0.77161 0.21727 0.0
C4172 C 0.79898 0.78385 0.18685 0.0
C4173 C 0.79579 0.76427 0.17607 0.0
C4174 C 0.79426 0.7485 0.18626 0.0
C4175 C 0.79645 0.75214 0.2065 0.0
H4176 H 0.10337 0.04021 0.67492 0.0
H4177 H 0.13579 1.00283 0.6444 0.0
H4178 H 0.09011 0.04507 0.64389 0.0
H4179 H 0.12241 0.00743 0.61361 0.0
H4180 H 0.11005 0.03206 0.55938 0.0
H4181 H 0.12181 0.02819 0.591 0.0
H4182 H 0.0698 0.03379 0.61318 0.0
H4183 H 0.05777 0.03745 0.58079 0.0
C4184 C 0.10788 0.03296 0.66175 0.0
C4185 C 0.12107 0.02102 0.66302 0.0
C4186 C 0.09997 0.03566 0.64359 0.0
C4187 C 0.10492 0.02688 0.62543 0.0
C4188 C 0.11805 0.01492 0.62674 0.0
C4189 C 0.12576 0.01202 0.64483 0.0
C4190 C 0.1009 0.03256 0.57087 0.0
C4191 C 0.08276 0.03527 0.56682 0.0
C4192 C 0.10776 0.03011 0.58937 0.0
C4193 C 0.09703 0.03027 0.60543 0.0
C4194 C 0.07889 0.03349 0.60166 0.0
C4195 C 0.07186 0.0357 0.58282 0.0
H4196 H 0.79587 0.36785 0.4122 0.0
H4197 H 0.84364 0.34807 0.43202 0.0
H4198 H 0.79655 0.34916 0.37961 0.0
H4199 H 0.8441 0.32904 0.39922 0.0
H4200 H 0.80912 0.28341 0.33701 0.0
H4201 H 0.81155 0.29825 0.37157 0.0
H4202 H 0.83131 0.35649 0.35822 0.0
H4203 H 0.829 0.34201 0.32393 0.0
C4204 C 0.80625 0.35917 0.40963 0.0
C4205 C 0.81968 0.35927 0.42448 0.0
C4206 C 0.80666 0.34859 0.39107 0.0
C4207 C 0.82033 0.33778 0.38722 0.0
C4208 C 0.83342 0.33728 0.40211 0.0
C4209 C 0.83319 0.34815 0.42069 0.0
C4210 C 0.81417 0.29935 0.34149 0.0
C4211 C 0.81845 0.3116 0.32773 0.0
C4212 C 0.81567 0.30773 0.36118 0.0
C4213 C 0.8215 0.32839 0.36722 0.0
C4214 C 0.82675 0.34049 0.35368 0.0
C4215 C 0.82537 0.33216 0.33409 0.0
H4216 H 0.4443 0.05896 0.192 0.0
H4217 H 0.49399 0.05658 0.22556 0.0
H4218 H 0.45901 0.05174 0.16215 0.0
H4219 H 0.50855 0.04899 0.19575 0.0
H4220 H 0.53242 0.04145 0.13797 0.0
H4221 H 0.51966 0.05966 0.16504 0.0
H4222 H 0.46631 0.01886 0.14884 0.0
H4223 H 0.47902 1.00084 0.12191 0.0
C4224 C 0.45855 0.05749 0.193 0.0
C4225 C 0.46796 0.05807 0.21101 0.0
C4226 C 0.4669 0.05322 0.17595 0.0
C4227 C 0.4848 0.04958 0.17669 0.0
C4228 C 0.49477 0.05183 0.19478 0.0
C4229 C 0.48639 0.056 0.2118 0.0
C4230 C 0.5179 0.03666 0.1401 0.0
C4231 C 0.50669 0.01969 0.1281 0.0
C4232 C 0.51064 0.04701 0.15553 0.0
C4233 C 0.49201 0.04068 0.15894 0.0
C4234 C 0.48065 0.02423 0.14637 0.0
C4235 C 0.48795 0.01377 0.13114 0.0
H4236 H 0.82886 0.73204 0.9066 0.0
H4237 H 0.78147 0.75715 0.91956 0.0
H4238 H 0.82862 0.74238 0.87533 0.0
H4239 H 0.78203 0.76836 0.8886 0.0
H4240 H 0.80296 0.80187 0.83855 0.0
H4241 H 0.80347 0.79252 0.87061 0.0
H4242 H 0.80638 0.73305 0.84411 0.0
H4243 H 0.80558 0.74226 0.81217 0.0
C4244 C 0.81831 0.73966 0.9029 0.0
C4245 C 0.80506 0.74348 0.91588 0.0
C4246 C 0.81829 0.74573 0.88492 0.0
C4247 C 0.80529 0.75617 0.87941 0.0
C4248 C 0.79235 0.76051 0.89246 0.0
C4249 C 0.79213 0.75412 0.91034 0.0
C4250 C 0.80375 0.78682 0.8396 0.0
C4251 C 0.80415 0.7728 0.82278 0.0
C4252 C 0.80393 0.78143 0.85795 0.0
C4253 C 0.80498 0.76203 0.85994 0.0
C4254 C 0.80568 0.74814 0.84312 0.0
C4255 C 0.8051 0.75339 0.82479 0.0
H4256 H 0.86216 0.08007 0.03768 0.0
H4257 H 0.8851 0.11325 0.99481 0.0
H4258 H 0.88413 0.05881 0.03167 0.0
H4259 H 0.90615 0.09131 0.98791 0.0
H4260 H 0.95398 0.06209 0.99369 0.0
H4261 H 0.93279 0.08361 1.00131 0.0
H4262 H 0.89009 0.03283 0.00731 0.0
H4263 H 0.91193 0.01135 1.00101 0.0
C4264 C 0.87198 0.08291 0.02708 0.0
C4265 C 0.87191 0.09831 0.0167 0.0
C4266 C 0.88434 0.07052 0.0234 0.0
C4267 C 0.89679 0.07325 0.0092 0.0
C4268 C 0.89688 0.08889 0.99908 0.0
C4269 C 0.88467 0.10135 0.00288 0.0
C4270 C 0.94013 0.05549 0.99683 0.0
C4271 C 0.9347 0.03503 0.99697 0.0
C4272 C 0.92789 0.06783 1.00096 0.0
C4273 C 0.90974 0.05996 0.00493 0.0
C4274 C 0.90409 0.0394 0.0046 0.0
C4275 C 0.91648 0.02704 1.00069 0.0
H4276 H 0.41758 0.43565 0.01663 0.0
H4277 H 0.40637 0.48343 0.05853 0.0
H4278 H 0.44869 0.45501 0.0155 0.0
H4279 H 0.43755 0.50329 0.05701 0.0
H4280 H 0.50151 0.52686 0.06053 0.0
H4281 H 0.47028 0.50818 0.06412 0.0
H4282 H 0.46386 0.48211 0.0031 0.0
H4283 H 0.49496 0.49983 0.99984 0.0
C4284 C 0.42172 0.45042 0.02548 0.0
C4285 C 0.40936 0.45805 0.03748 0.0
C4286 C 0.4396 0.46164 0.02479 0.0
C4287 C 0.44569 0.48099 0.03589 0.0
C4288 C 0.43348 0.48846 0.04831 0.0
C4289 C 0.41556 0.47708 0.04915 0.0
C4290 C 0.49336 0.5171 0.04794 0.0
C4291 C 0.50088 0.51459 0.02998 0.0
C4292 C 0.47541 0.50644 0.04995 0.0
C4293 C 0.46452 0.49324 0.03398 0.0
C4294 C 0.47191 0.49151 0.01592 0.0
C4295 C 0.48982 0.50185 0.01399 0.0
H4296 H 0.36424 0.66054 0.7967 0.0
H4297 H 0.39106 0.67356 0.74613 0.0
H4298 H 0.3484 0.68764 0.79575 0.0
H4299 H 0.37541 0.70039 0.74523 0.0
H4300 H 0.33726 0.74174 0.73629 0.0
H4301 H 0.3517 0.71419 0.73846 0.0
H4302 H 0.34336 0.72026 0.79918 0.0
H4303 H 0.32835 0.74814 0.79669 0.0
C4304 C 0.36704 0.66902 0.78531 0.0
C4305 C 0.37936 0.66382 0.77141 0.0
C4306 C 0.3577 0.68498 0.78476 0.0
C4307 C 0.35991 0.69695 0.77025 0.0
C4308 C 0.37238 0.69185 0.75654 0.0
C4309 C 0.38168 0.67597 0.75708 0.0
C4310 C 0.33831 0.73731 0.75024 0.0
C4311 C 0.33121 0.74776 0.76618 0.0
C4312 C 0.34701 0.72123 0.75159 0.0
C4313 C 0.34953 0.7143 0.76913 0.0
C4314 C 0.34206 0.7245 0.7852 0.0
C4315 C 0.33325 0.74079 0.7838 0.0
H4316 H 0.19031 0.61109 0.49924 0.0
H4317 H 0.19813 0.56707 0.53311 0.0
H4318 H 0.15746 0.60399 0.50362 0.0
H4319 H 0.16513 0.56047 0.53811 0.0
H4320 H 0.10164 0.53957 0.51846 0.0
H4321 H 0.13501 0.54605 0.5182 0.0
H4322 H 0.13791 0.60929 0.53079 0.0
H4323 H 0.10413 0.60267 0.531 0.0
C4324 C 0.18496 0.59968 0.50739 0.0
C4325 C 0.19675 0.5895 0.5157 0.0
C4326 C 0.16622 0.59592 0.51023 0.0
C4327 C 0.15888 0.58197 0.52149 0.0
C4328 C 0.17051 0.57137 0.52942 0.0
C4329 C 0.18934 0.57514 0.52657 0.0
C4330 C 0.10935 0.55484 0.5216 0.0
C4331 C 0.10032 0.57065 0.5249 0.0
C4332 C 0.12851 0.55854 0.52148 0.0
C4333 C 0.13898 0.57814 0.52431 0.0
C4334 C 0.13006 0.594 0.52833 0.0
C4335 C 0.11083 0.59027 0.52855 0.0
H4336 H 0.77386 0.97705 0.7487 0.0
H4337 H 0.72645 0.93392 0.75998 0.0
H4338 H 0.79446 0.96097 0.76514 0.0
H4339 H 0.74712 0.91818 0.77683 0.0
H4340 H 0.82324 0.91165 0.78162 0.0
H4341 H 0.80443 0.92809 0.7631 0.0
H4342 H 0.76781 0.93062 0.80873 0.0
H4343 H 0.78657 0.91406 0.82719 0.0
C4344 C 0.76785 0.96386 0.75427 0.0
C4345 C 0.74851 0.95686 0.75322 0.0
C4346 C 0.77965 0.95478 0.76381 0.0
C4347 C 0.77231 0.93867 0.7726 0.0
C4348 C 0.75307 0.93093 0.77058 0.0
C4349 C 0.74128 0.93989 0.7609 0.0
C4350 C 0.81139 0.91615 0.78783 0.0
C4351 C 0.80633 0.91172 0.80582 0.0
C4352 C 0.80064 0.92546 0.77723 0.0
C4353 C 0.78457 0.9303 0.7844 0.0
C4354 C 0.78 0.92671 0.80279 0.0
C4355 C 0.79086 0.91756 0.81347 0.0
H4356 H 0.73729 0.94601 0.49324 0.0
H4357 H 0.72294 0.94259 0.55131 0.0
H4358 H 0.71379 0.96479 0.48905 0.0
H4359 H 0.69861 0.96044 0.54694 0.0
H4360 H 0.67042 0.01181 0.54042 0.0
H4361 H 0.69202 0.99081 0.54527 0.0
H4362 H 0.68309 0.96485 0.48411 0.0
H4363 H 0.66253 0.98685 0.47936 0.0
C4364 C 0.72883 0.94899 0.505 0.0
C4365 C 0.73198 0.94282 0.52259 0.0
C4366 C 0.71519 0.95969 0.5026 0.0
C4367 C 0.704 0.96422 0.5176 0.0
C4368 C 0.70703 0.95768 0.53512 0.0
C4369 C 0.72094 0.9473 0.53763 0.0
C4370 C 0.67297 1.00139 0.52813 0.0
C4371 C 0.66486 1.00093 0.50954 0.0
C4372 C 0.68534 0.98925 0.53086 0.0
C4373 C 0.68967 0.97612 0.51506 0.0
C4374 C 0.68069 0.97508 0.4966 0.0
C4375 C 0.66866 0.98749 0.49386 0.0
H4376 H 0.3889 0.44439 0.74152 0.0
H4377 H 0.35901 0.4641 0.78941 0.0
H4378 H 0.37388 0.41005 0.74188 0.0
H4379 H 0.34349 0.42968 0.78908 0.0
H4380 H 0.30562 0.36583 0.77172 0.0
H4381 H 0.32069 0.40039 0.77136 0.0
H4382 H 0.37185 0.38273 0.75985 0.0
H4383 H 0.35669 0.34812 0.76025 0.0
C4384 C 0.37931 0.44172 0.75231 0.0
C4385 C 0.37561 0.45788 0.7655 0.0
C4386 C 0.3705 0.42166 0.75242 0.0
C4387 C 0.35726 0.41658 0.7655 0.0
C4388 C 0.35334 0.43263 0.77853 0.0
C4389 C 0.36235 0.4527 0.77864 0.0
C4390 C 0.31999 0.36913 0.76885 0.0
C4391 C 0.32964 0.35369 0.76575 0.0
C4392 C 0.32882 0.38923 0.76888 0.0
C4393 C 0.3477 0.39485 0.76554 0.0
C4394 C 0.35732 0.37934 0.76229 0.0
C4395 C 0.34856 0.3593 0.76261 0.0
H4396 H 0.27547 0.6371 0.23145 0.0
H4397 H 0.25357 0.64348 0.28735 0.0
H4398 H 0.28827 0.67306 0.23724 0.0
H4399 H 0.26639 0.67937 0.2929 0.0
H4400 H 0.26077 0.73767 0.26375 0.0
H4401 H 0.2548 0.70127 0.25763 0.0
H4402 H 0.31133 0.70463 0.27856 0.0
H4403 H 0.31735 0.74124 0.2846 0.0
C4404 C 0.2737 0.64613 0.24506 0.0
C4405 C 0.26347 0.63755 0.25892 0.0
C4406 C 0.28108 0.66662 0.24835 0.0
C4407 C 0.27824 0.67873 0.26544 0.0
C4408 C 0.26883 0.67013 0.27969 0.0
C4409 C 0.26157 0.64965 0.27651 0.0
C4410 C 0.27205 0.73058 0.26638 0.0
C4411 C 0.28973 0.74201 0.2736 0.0
C4412 C 0.26861 0.7099 0.26309 0.0
C4413 C 0.28273 0.70043 0.2674 0.0
C4414 C 0.3004 0.7118 0.27489 0.0
C4415 C 0.30381 0.73258 0.27826 0.0
H4416 H 0.50877 0.67415 0.4878 0.0
H4417 H 0.55958 0.67911 0.45994 0.0
H4418 H 0.51406 0.64415 0.49871 0.0
H4419 H 0.56473 0.6493 0.47082 0.0
H4420 H 0.54158 0.59904 0.52857 0.0
H4421 H 0.53811 0.6315 0.52135 0.0
H4422 H 0.54749 0.61234 0.46184 0.0
H4423 H 0.55032 0.58015 0.46884 0.0
C4424 C 0.52109 0.66898 0.48398 0.0
C4425 C 0.53369 0.67939 0.47285 0.0
C4426 C 0.52422 0.6518 0.49046 0.0
C4427 C 0.53988 0.64416 0.48576 0.0
C4428 C 0.5525 0.6546 0.47476 0.0
C4429 C 0.54955 0.67189 0.46858 0.0
C4430 C 0.54311 0.6019 0.51403 0.0
C4431 C 0.54647 0.58695 0.49935 0.0
C4432 C 0.54097 0.62046 0.50982 0.0
C4433 C 0.54251 0.6247 0.49093 0.0
C4434 C 0.54632 0.60985 0.47654 0.0
C4435 C 0.54795 0.5913 0.48059 0.0
H4436 H 0.68574 0.28631 0.65563 0.0
H4437 H 0.68419 0.33923 0.69687 0.0
H4438 H 0.71237 0.28227 0.6745 0.0
H4439 H 0.71195 0.33625 0.71474 0.0
H4440 H 0.75273 0.31778 0.75455 0.0
H4441 H 0.7258 0.32177 0.73595 0.0
H4442 H 0.74312 0.29041 0.68414 0.0
H4443 H 0.76925 0.28511 0.70329 0.0
C4444 C 0.69095 0.29721 0.6687 0.0
C4445 C 0.68222 0.31306 0.67451 0.0
C4446 C 0.70673 0.29507 0.67948 0.0
C4447 C 0.7148 0.30887 0.69646 0.0
C4448 C 0.70628 0.32493 0.70209 0.0
C4449 C 0.6903 0.32689 0.69147 0.0
C4450 C 0.75068 0.3114 0.73929 0.0
C4451 C 0.76318 0.30068 0.73075 0.0
C4452 C 0.73521 0.31402 0.72835 0.0
C4453 C 0.73175 0.30639 0.70822 0.0
C4454 C 0.74466 0.29618 0.69957 0.0
C4455 C 0.75997 0.2933 0.71062 0.0
H4456 H 0.00982 0.38247 0.95339 0.0
H4457 H 0.05267 0.38644 0.99885 0.0
H4458 H 0.01286 0.41836 0.96166 0.0
H4459 H 0.05586 0.42255 0.00695 0.0
H4460 H 0.04441 0.4841 0.96378 0.0
H4461 H 0.03695 0.44781 0.95829 0.0
H4462 H 0.03948 0.45002 0.02008 0.0
H4463 H 0.0468 0.48665 0.02553 0.0
C4464 C 0.01975 0.3909 0.96533 0.0
C4465 C 0.03099 0.38133 0.9754 0.0
C4466 C 0.02159 0.4116 0.96998 0.0
C4467 C 0.03463 0.4235 0.98497 0.0
C4468 C 0.04555 0.41392 0.99542 0.0
C4469 C 0.04385 0.39318 0.99063 0.0
C4470 C 0.043 0.47684 0.9762 0.0
C4471 C 0.04595 0.48828 0.99506 0.0
C4472 C 0.0387 0.45599 0.97306 0.0
C4473 C 0.03765 0.44583 0.98871 0.0
C4474 C 0.0403 0.45729 0.00767 0.0
C4475 C 0.04429 0.47828 0.01081 0.0
H4476 H 0.98538 0.77685 0.15701 0.0
H4477 H 0.01116 0.83384 0.19276 0.0
H4478 H 0.95879 0.77469 0.1761 0.0
H4479 H 0.98418 0.83223 0.21095 0.0
H4480 H 0.94555 0.81199 0.25553 0.0
H4481 H 0.97047 0.8159 0.23459 0.0
H4482 H 0.93165 0.78645 0.18486 0.0
H4483 H 0.9066 0.78185 0.20626 0.0
C4484 C 0.98545 0.78898 0.16887 0.0
C4485 C 1.00074 0.80546 0.17329 0.0
C4486 C 0.96996 0.78787 0.17969 0.0
C4487 C 0.96917 0.80322 0.19527 0.0
C4488 C 0.98425 0.8199 0.19934 0.0
C4489 C 0.99975 0.82096 0.18863 0.0
C4490 C 0.94224 0.80636 0.24011 0.0
C4491 C 0.92401 0.7964 0.23268 0.0
C4492 C 0.9566 0.8088 0.22798 0.0
C4493 C 0.95329 0.80148 0.20788 0.0
C4494 C 0.93489 0.79207 0.20027 0.0
C4495 C 0.92043 0.78964 0.21251 0.0
H4496 H 0.5448 0.33094 0.07626 0.0
H4497 H 0.50411 0.36113 0.10103 0.0
H4498 H 0.55157 0.35485 0.05457 0.0
H4499 H 0.5111 0.3853 0.07949 0.0
H4500 H 0.55018 0.4364 0.05506 0.0
H4501 H 0.54129 0.4122 0.07587 0.0
H4502 H 0.53267 0.36443 0.02622 0.0
H4503 H 0.54059 0.38856 0.00509 0.0
C4504 C 0.53735 0.34274 0.07705 0.0
C4505 C 0.52398 0.3443 0.09027 0.0
C4506 C 0.54114 0.3563 0.0646 0.0
C4507 C 0.53183 0.37185 0.06541 0.0
C4508 C 0.51848 0.37345 0.07868 0.0
C4509 C 0.51444 0.35964 0.09088 0.0
C4510 C 0.54604 0.42079 0.04843 0.0
C4511 C 0.5461 0.41451 0.02829 0.0
C4512 C 0.54104 0.40695 0.06041 0.0
C4513 C 0.53633 0.38652 0.0526 0.0
C4514 C 0.53641 0.38014 0.03258 0.0
C4515 C 0.54109 0.39398 0.02052 0.0
H4516 H 0.99342 0.30311 0.34669 0.0
H4517 H 0.02543 0.34695 0.31802 0.0
H4518 H 0.96492 0.30671 0.33001 0.0
H4519 H 0.99701 0.35066 0.30156 0.0
H4520 H 0.94169 0.37002 0.29722 0.0
H4521 H 0.97023 0.36451 0.31179 0.0
H4522 H 0.94837 0.30098 0.29689 0.0
H4523 H 0.91988 0.30643 0.28201 0.0
C4524 C 0.99438 0.31332 0.33666 0.0
C4525 C 0.01164 0.3249 0.33383 0.0
C4526 C 0.97809 0.31539 0.32713 0.0
C4527 C 0.97877 0.32912 0.31464 0.0
C4528 C 0.99605 0.34026 0.3114 0.0
C4529 C 0.01231 0.33814 0.32085 0.0
C4530 C 0.94306 0.35487 0.29678 0.0
C4531 C 0.92851 0.33868 0.28844 0.0
C4532 C 0.95939 0.35172 0.30516 0.0
C4533 C 0.96151 0.33231 0.30545 0.0
C4534 C 0.94702 0.3161 0.29707 0.0
C4535 C 0.93071 0.31924 0.28858 0.0
H4536 H 0.99629 0.65149 0.62252 0.0
H4537 H 0.99774 0.6738 0.56894 0.0
H4538 H 1.00347 0.62079 0.60589 0.0
H4539 H 1.00467 0.64312 0.55234 0.0
H4540 H 0.00814 0.58147 0.52533 0.0
H4541 H 0.99359 0.60654 0.5423 0.0
H4542 H 0.03283 0.61518 0.5924 0.0
H4543 H 0.04753 0.59005 0.57535 0.0
C4544 C 0.99784 0.64968 0.60713 0.0
C4545 C 0.99672 0.6651 0.59705 0.0
C4546 C 1.00195 0.63216 0.59766 0.0
C4547 C 1.00484 0.62975 0.57793 0.0
C4548 C 1.00237 0.64455 0.56754 0.0
C4549 C 0.99835 0.6621 0.57703 0.0
C4550 C 0.01378 0.5888 0.53991 0.0
C4551 C 0.02935 0.58426 0.54883 0.0
C4552 C 1.00532 0.60302 0.54966 0.0
C4553 C 0.01217 0.61287 0.56856 0.0
C4554 C 0.02717 0.60766 0.57786 0.0
C4555 C 0.03568 0.59341 0.56807 0.0
H4556 H 0.70042 0.83519 0.84628 0.0
H4557 H 0.66668 0.80177 0.79434 0.0
H4558 H 0.72837 0.83398 0.8297 0.0
H4559 H 0.69476 0.801 0.77756 0.0
H4560 H 0.75297 0.82053 0.75306 0.0
H4561 H 0.72416 0.82504 0.76732 0.0
H4562 H 0.74117 0.80288 0.81736 0.0
H4563 H 0.7695 0.7982 0.80314 0.0
C4564 C 0.69901 0.82788 0.83121 0.0
C4565 C 0.68149 0.81845 0.82157 0.0
C4566 C 0.71496 0.82713 0.82178 0.0
C4567 C 0.71364 0.81718 0.80247 0.0
C4568 C 0.69609 0.80861 0.7925 0.0
C4569 C 0.6801 0.809 0.80207 0.0
C4570 C 0.75037 0.81659 0.76705 0.0
C4571 C 0.76312 0.80872 0.7769 0.0
C4572 C 0.73401 0.81914 0.77516 0.0
C4573 C 0.73062 0.81442 0.79345 0.0
C4574 C 0.74359 0.80683 0.80333 0.0
C4575 C 0.75968 0.80399 0.79513 0.0
H4576 H 0.50956 0.55071 0.67851 0.0
H4577 H 0.46877 0.57713 0.65393 0.0
H4578 H 0.52379 0.54775 0.64771 0.0
H4579 H 0.48271 0.57367 0.62296 0.0
H4580 H 0.50203 0.54501 0.56303 0.0
H4581 H 0.4879 0.54891 0.59391 0.0
H4582 H 0.54221 0.5669 0.62496 0.0
H4583 H 0.55627 0.56358 0.5941 0.0
C4584 C 0.50343 0.55585 0.66661 0.0
C4585 C 0.48773 0.56425 0.66937 0.0
C4586 C 0.51179 0.55423 0.64869 0.0
C4587 C 0.50468 0.56038 0.6322 0.0
C4588 C 0.48884 0.56855 0.63487 0.0
C4589 C 0.48079 0.57068 0.65296 0.0
C4590 C 0.51109 0.54995 0.57637 0.0
C4591 C 0.53058 0.55412 0.57546 0.0
C4592 C 0.50287 0.55227 0.59434 0.0
C4593 C 0.51362 0.55829 0.61257 0.0
C4594 C 0.53312 0.56218 0.61164 0.0
C4595 C 0.54133 0.5604 0.59365 0.0
H4596 H 0.80607 0.22806 0.95473 0.0
H4597 H 0.75338 0.18927 0.93071 0.0
H4598 H 0.80159 0.25118 0.93361 0.0
H4599 H 0.74866 0.21266 0.90996 0.0
H4600 H 0.76094 0.2481 0.86016 0.0
H4601 H 0.76254 0.22487 0.88196 0.0
H4602 H 0.78092 0.27428 0.92995 0.0
H4603 H 0.77972 0.29756 0.90796 0.0
C4604 C 0.79361 0.22444 0.94482 0.0
C4605 C 0.78009 0.20689 0.94427 0.0
C4606 C 0.79091 0.23779 0.93297 0.0
C4607 C 0.77469 0.23379 0.92033 0.0
C4608 C 0.7613 0.21608 0.91957 0.0
C4609 C 0.76396 0.20277 0.93147 0.0
C4610 C 0.76509 0.25395 0.87542 0.0
C4611 C 0.77032 0.27457 0.88242 0.0
C4612 C 0.76592 0.24068 0.88789 0.0
C4613 C 0.77203 0.24781 0.90758 0.0
C4614 C 0.77641 0.26843 0.91476 0.0
C4615 C 0.7755 0.28172 0.90227 0.0
H4616 H 0.14678 0.55714 0.14036 0.0
H4617 H 0.10495 0.51733 0.16421 0.0
H4618 H 0.12441 0.55695 0.11384 0.0
H4619 H 0.08242 0.51705 0.13736 0.0
H4620 H 0.06119 0.50457 0.06977 0.0
H4621 H 0.07779 0.50501 0.10108 0.0
H4622 H 0.09597 0.56903 0.10926 0.0
H4623 H 0.07997 0.56839 0.07796 0.0
C4624 C 0.13272 0.54858 0.14006 0.0
C4625 C 0.12755 0.53738 0.15438 0.0
C4626 C 0.1199 0.54847 0.12491 0.0
C4627 C 0.10163 0.5372 0.12376 0.0
C4628 C 0.09643 0.52584 0.13797 0.0
C4629 C 0.10931 0.52598 0.15323 0.0
C4630 C 0.0684 0.51868 0.07861 0.0
C4631 C 0.06984 0.53639 0.07155 0.0
C4632 C 0.07782 0.51897 0.09644 0.0
C4633 C 0.08849 0.53702 0.10727 0.0
C4634 C 0.08825 0.55488 0.10092 0.0
C4635 C 0.07911 0.55454 0.0831 0.0
H4636 H 0.82911 0.81674 0.42655 0.0
H4637 H 0.79012 0.85268 0.41703 0.0
H4638 H 0.8301 0.80761 0.39132 0.0
H4639 H 0.79094 0.84339 0.38221 0.0
H4640 H 0.81327 0.8452 0.32469 0.0
H4641 H 0.8155 0.85161 0.35993 0.0
H4642 H 0.80872 0.78879 0.35946 0.0
H4643 H 0.80637 0.78232 0.32368 0.0
C4644 C 0.82069 0.82261 0.417 0.0
C4645 C 0.80951 0.83546 0.42472 0.0
C4646 C 0.82117 0.81725 0.39682 0.0
C4647 C 0.81072 0.82489 0.38395 0.0
C4648 C 0.79934 0.83741 0.39169 0.0
C4649 C 0.79871 0.84258 0.41172 0.0
C4650 C 0.81256 0.83275 0.33209 0.0
C4651 C 0.80973 0.81329 0.32143 0.0
C4652 C 0.81372 0.83641 0.35229 0.0
C4653 C 0.81194 0.8207 0.36253 0.0
C4654 C 0.81011 0.80122 0.35198 0.0
C4655 C 0.80885 0.79751 0.33154 0.0
H4656 H 0.51434 0.555 0.86529 0.0
H4657 H 0.46762 0.57029 0.89326 0.0
H4658 H 0.52729 0.54961 0.89589 0.0
H4659 H 0.48101 0.56601 0.92371 0.0
H4660 H 0.49973 0.54567 0.97764 0.0
H4661 H 0.48754 0.54901 0.94609 0.0
H4662 H 0.54252 0.55652 0.92701 0.0
H4663 H 0.55464 0.55246 0.9591 0.0
C4664 C 0.50655 0.55731 0.87769 0.0
C4665 C 0.48939 0.5632 0.87565 0.0
C4666 C 0.51433 0.55433 0.89578 0.0
C4667 C 0.50556 0.55704 0.91321 0.0
C4668 C 0.48854 0.56312 0.9112 0.0
C4669 C 0.48074 0.56597 0.89317 0.0
C4670 C 0.50937 0.54787 0.96676 0.0
C4671 C 0.52834 0.54859 0.97152 0.0
C4672 C 0.50229 0.55011 0.94829 0.0
C4673 C 0.5137 0.5536 0.93313 0.0
C4674 C 0.5328 0.55391 0.93771 0.0
C4675 C 0.53994 0.55152 0.95639 0.0
H4676 H 0.78503 0.2447 0.10353 0.0
H4677 H 0.77477 0.19345 0.13121 0.0
H4678 H 0.78453 0.26633 0.13467 0.0
H4679 H 0.77437 0.21483 0.16205 0.0
H4680 H 0.76552 0.25296 0.21429 0.0
H4681 H 0.75824 0.23635 0.18071 0.0
H4682 H 0.80459 0.27744 0.16464 0.0
H4683 H 0.8111 0.29492 0.19818 0.0
C4684 C 0.78256 0.23807 0.11623 0.0
C4685 C 0.77999 0.21741 0.11498 0.0
C4686 C 0.78225 0.25043 0.13401 0.0
C4687 C 0.77937 0.2423 0.1508 0.0
C4688 C 0.77622 0.22156 0.14934 0.0
C4689 C 0.77649 0.20927 0.13164 0.0
C4690 C 0.77402 0.25868 0.20358 0.0
C4691 C 0.78942 0.27476 0.20901 0.0
C4692 C 0.76984 0.24911 0.18433 0.0
C4693 C 0.78118 0.25519 0.17013 0.0
C4694 C 0.79562 0.27233 0.17526 0.0
C4695 C 0.79956 0.28218 0.19455 0.0
H4696 H 0.16326 0.52535 0.34321 0.0
H4697 H 0.11374 0.53067 0.31132 0.0
H4698 H 0.14873 0.53077 0.37345 0.0
H4699 H 0.09938 0.53647 0.34152 0.0
H4700 H 0.07539 0.54047 0.39896 0.0
H4701 H 0.08812 0.52347 0.37112 0.0
H4702 H 0.14178 0.5631 0.3892 0.0
H4703 H 0.12909 0.57993 0.41688 0.0
C4704 C 0.1491 0.52711 0.34262 0.0
C4705 C 0.13968 0.52785 0.32501 0.0
C4706 C 0.14085 0.53034 0.3599 0.0
C4707 C 0.12303 0.53422 0.3598 0.0
C4708 C 0.11308 0.53337 0.34201 0.0
C4709 C 0.12135 0.53026 0.32476 0.0
C4710 C 0.08997 0.54521 0.39709 0.0
C4711 C 0.10127 0.56158 0.4098 0.0
C4712 C 0.09722 0.53556 0.38122 0.0
C4713 C 0.11591 0.54198 0.37806 0.0
C4714 C 0.12739 0.55768 0.39142 0.0
C4715 C 0.1201 0.56745 0.4071 0.0
H4716 H 0.7813 0.81875 0.61273 0.0
H4717 H 0.83519 0.85646 0.63416 0.0
H4718 H 0.78021 0.80523 0.64229 0.0
H4719 H 0.83328 0.84445 0.6643 0.0
H4720 H 0.83418 0.8092 0.71166 0.0
H4721 H 0.83546 0.81946 0.68042 0.0
H4722 H 0.7757 0.81031 0.67478 0.0
H4723 H 0.77458 0.79915 0.70572 0.0
C4724 C 0.79296 0.82423 0.62366 0.0
C4725 C 0.80833 0.83887 0.62075 0.0
C4726 C 0.79218 0.81666 0.64092 0.0
C4727 C 0.80661 0.82365 0.65603 0.0
C4728 C 0.82196 0.83827 0.65308 0.0
C4729 C 0.82289 0.84556 0.63573 0.0
C4730 C 0.8213 0.80919 0.70364 0.0
C4731 C 0.80425 0.80309 0.71112 0.0
C4732 C 0.82201 0.81531 0.6857 0.0
C4733 C 0.8057 0.81598 0.6748 0.0
C4734 C 0.7886 0.80971 0.68234 0.0
C4735 C 0.7879 0.80325 0.70017 0.0
H4736 H 0.74721 0.49954 0.49523 0.0
H4737 H 0.72328 0.46811 0.53886 0.0
H4738 H 0.72494 0.52072 0.49957 0.0
H4739 H 0.70195 0.4899 0.54407 0.0
H4740 H 0.65524 0.51944 0.53837 0.0
H4741 H 0.67568 0.49736 0.52984 0.0
H4742 H 0.71892 0.5474 0.52327 0.0
H4743 H 0.69772 0.56951 0.5303 0.0
C4744 C 0.73708 0.49705 0.5056 0.0
C4745 C 0.73701 0.48226 0.51678 0.0
C4746 C 0.72454 0.50936 0.5083 0.0
C4747 C 0.71177 0.5071 0.52226 0.0
C4748 C 0.71144 0.49193 0.53304 0.0
C4749 C 0.72382 0.47957 0.53022 0.0
C4750 C 0.66898 0.52577 0.53475 0.0
C4751 C 0.67478 0.54626 0.53481 0.0
C4752 C 0.68081 0.5131 0.53013 0.0
C4753 C 0.69897 0.52061 0.52596 0.0
C4754 C 0.70491 0.54112 0.52617 0.0
C4755 C 0.6929 0.55383 0.53051 0.0
H4756 H 0.21006 0.1026 0.51515 0.0
H4757 H 0.18881 0.14383 0.48617 0.0
H4758 H 0.17841 0.08332 0.51549 0.0
H4759 H 0.15717 0.12455 0.48656 0.0
H4760 H 0.10487 0.09944 0.51722 0.0
H4761 H 0.13609 0.11755 0.51361 0.0
H4762 H 0.15084 0.06214 0.49134 0.0
H4763 H 0.11942 0.04402 0.49455 0.0
C4764 C 0.19864 0.10751 0.5088 0.0
C4765 C 0.20198 0.12477 0.50065 0.0
C4766 C 0.18053 0.09638 0.50886 0.0
C4767 C 0.16529 0.10241 0.50106 0.0
C4768 C 0.16862 0.11958 0.49277 0.0
C4769 C 0.18675 0.13053 0.49242 0.0
C4770 C 0.1147 0.09107 0.51144 0.0
C4771 C 0.1096 0.07017 0.50629 0.0
C4772 C 0.13259 0.10149 0.50928 0.0
C4773 C 0.14597 0.09129 0.50226 0.0
C4774 C 0.14087 0.07042 0.49692 0.0
C4775 C 0.12282 0.06002 0.49869 0.0
H4776 H 0.24244 0.92959 0.79811 0.0
H4777 H 0.2251 0.90578 0.73762 0.0
H4778 H 0.25835 0.90303 0.79952 0.0
H4779 H 0.24131 0.87913 0.73913 0.0
H4780 H 0.28177 0.83546 0.74376 0.0
H4781 H 0.26714 0.86354 0.74079 0.0
H4782 H 0.25904 0.87093 0.80158 0.0
H4783 H 0.27362 0.84352 0.80438 0.0
C4784 C 0.24164 0.91879 0.78494 0.0
C4785 C 0.23173 0.92079 0.76775 0.0
C4786 C 0.25107 0.90306 0.78579 0.0
C4787 C 0.25151 0.88797 0.76952 0.0
C4788 C 0.24186 0.89002 0.75222 0.0
C4789 C 0.2323 0.90575 0.75137 0.0
C4790 C 0.27714 0.84323 0.7566 0.0
C4791 C 0.27941 0.83678 0.77446 0.0
C4792 C 0.2684 0.8595 0.75488 0.0
C4793 C 0.26147 0.87038 0.77092 0.0
C4794 C 0.26408 0.86388 0.78868 0.0
C4795 C 0.27259 0.84771 0.79032 0.0
H4796 H 0.41441 0.02708 0.01828 0.0
H4797 H 0.41489 0.96585 0.02007 0.0
H4798 H 0.44576 0.03215 0.0081 0.0
H4799 H 0.4464 0.97122 0.01188 0.0
H4800 H 0.50303 0.98125 0.99584 0.0
H4801 H 0.4693 0.97654 0.99188 0.0
H4802 H 0.4746 0.03662 0.02349 0.0
H4803 H 0.50761 0.04154 0.02549 0.0
C4804 C 0.42126 0.01478 0.01661 0.0
C4805 C 0.41252 0.99633 0.02071 0.0
C4806 C 0.43924 0.01766 0.01089 0.0
C4807 C 0.44887 1.00222 0.00952 0.0
C4808 C 0.43959 0.98349 0.01259 0.0
C4809 C 0.4216 0.98054 0.01788 0.0
C4810 C 0.4968 0.99348 0.0014 0.0
C4811 C 0.50788 0.01183 0.01071 0.0
C4812 C 0.47754 0.99082 0.99932 0.0
C4813 C 0.46907 1.00614 0.00755 0.0
C4814 C 0.48038 0.02459 0.01647 0.0
C4815 C 0.49951 0.02741 0.01786 0.0
H4816 H 0.83603 0.62154 0.81476 0.0
H4817 H 0.89143 0.65409 0.80945 0.0
H4818 H 0.82328 0.64608 0.80158 0.0
H4819 H 0.87874 0.67951 0.7976 0.0
H4820 H 0.84969 0.69062 0.74186 0.0
H4821 H 0.86464 0.67718 0.76626 0.0
H4822 H 0.81747 0.67733 0.79983 0.0
H4823 H 0.80187 0.6893 0.7746 0.0
C4824 C 0.84551 0.63433 0.81141 0.0
C4825 C 0.86468 0.6355 0.81251 0.0
C4826 C 0.8382 0.64859 0.80405 0.0
C4827 C 0.84998 0.6645 0.79795 0.0
C4828 C 0.86927 0.66708 0.80157 0.0
C4829 C 0.87656 0.65264 0.80867 0.0
C4830 C 0.84246 0.6877 0.7544 0.0
C4831 C 0.82439 0.69057 0.75599 0.0
C4832 C 0.85122 0.6804 0.76867 0.0
C4833 C 0.84222 0.67603 0.78503 0.0
C4834 C 0.82467 0.68022 0.78728 0.0
C4835 C 0.81579 0.68726 0.77285 0.0
H4836 H 0.88916 0.64578 0.98776 0.0
H4837 H 0.86765 0.62805 0.03945 0.0
H4838 H 0.91415 0.62854 0.99132 0.0
H4839 H 0.89188 0.61008 0.04245 0.0
H4840 H 0.94461 0.59186 0.05426 0.0
H4841 H 0.9236 0.61371 0.05069 0.0
H4842 H 0.92069 0.59629 0.98836 0.0
H4843 H 0.94249 0.5751 0.99216 0.0
C4844 C 0.88976 0.63827 0.99992 0.0
C4845 C 0.87626 0.63831 0.01327 0.0
C4846 C 0.90401 0.62816 0.00184 0.0
C4847 C 0.9052 0.61787 0.01721 0.0
C4848 C 0.89173 0.61806 0.03059 0.0
C4849 C 0.87757 0.62815 0.02869 0.0
C4850 C 0.9397 0.59302 0.03981 0.0
C4851 C 0.94512 0.58179 0.02349 0.0
C4852 C 0.92748 0.60538 0.03772 0.0
C4853 C 0.92003 0.60656 0.01922 0.0
C4854 C 0.92615 0.59593 0.00284 0.0
C4855 C 0.93864 0.58375 0.00497 0.0
H4856 H 0.21427 0.13263 0.75365 0.0
H4857 H 0.25773 0.12752 0.79443 0.0
H4858 H 0.22993 0.16674 0.75378 0.0
H4859 H 0.2728 0.16217 0.79557 0.0
H4860 H 0.30555 0.22222 0.78428 0.0
H4861 H 0.29055 0.18755 0.78364 0.0
H4862 H 0.23782 0.19961 0.76701 0.0
H4863 H 0.25309 0.23387 0.76669 0.0
C4864 C 0.22719 0.13857 0.76271 0.0
C4865 C 0.23445 0.12651 0.77393 0.0
C4866 C 0.2362 0.15866 0.76305 0.0
C4867 C 0.25295 0.16803 0.77477 0.0
C4868 C 0.26019 0.15601 0.78606 0.0
C4869 C 0.25122 0.13584 0.78562 0.0
C4870 C 0.2908 0.21753 0.78031 0.0
C4871 C 0.28085 0.23133 0.77533 0.0
C4872 C 0.28197 0.19738 0.78013 0.0
C4873 C 0.26263 0.18997 0.77516 0.0
C4874 C 0.25268 0.20397 0.77051 0.0
C4875 C 0.26155 0.22403 0.77051 0.0
H4876 H 0.37809 0.93731 0.26455 0.0
H4877 H 0.3264 0.94714 0.2854 0.0
H4878 H 0.36613 0.90167 0.26001 0.0
H4879 H 0.31452 0.91105 0.28123 0.0
H4880 H 0.2968 0.84383 0.24833 0.0
H4881 H 0.30603 0.88033 0.25419 0.0
H4882 H 0.35863 0.87809 0.28226 0.0
H4883 H 0.34937 0.84179 0.27619 0.0
C4884 C 0.36407 0.93185 0.26797 0.0
C4885 C 0.35313 0.94502 0.27522 0.0
C4886 C 0.35733 0.91142 0.26563 0.0
C4887 C 0.33953 0.90366 0.27057 0.0
C4888 C 0.32834 0.91672 0.27742 0.0
C4889 C 0.33515 0.93729 0.27986 0.0
C4890 C 0.31016 0.85133 0.25606 0.0
C4891 C 0.32221 0.84038 0.26251 0.0
C4892 C 0.31542 0.87208 0.25942 0.0
C4893 C 0.33302 0.88195 0.26866 0.0
C4894 C 0.34502 0.87082 0.27501 0.0
C4895 C 0.33968 0.85016 0.27181 0.0
H4896 H 0.56859 0.39339 0.54023 0.0
H4897 H 0.5867 0.42778 0.5976 0.0
H4898 H 0.56292 0.42317 0.52937 0.0
H4899 H 0.58184 0.45744 0.58682 0.0
H4900 H 0.55848 0.50658 0.57103 0.0
H4901 H 0.56152 0.47526 0.57936 0.0
H4902 H 0.57208 0.45437 0.52043 0.0
H4903 H 0.56791 0.48595 0.51194 0.0
C4904 C 0.57156 0.40731 0.55055 0.0
C4905 C 0.57793 0.40782 0.56998 0.0
C4906 C 0.56832 0.42458 0.54427 0.0
C4907 C 0.57151 0.44316 0.55711 0.0
C4908 C 0.57842 0.44362 0.57637 0.0
C4909 C 0.58139 0.4264 0.58266 0.0
C4910 C 0.56123 0.49523 0.55972 0.0
C4911 C 0.5628 0.49894 0.54077 0.0
C4912 C 0.56329 0.47714 0.56459 0.0
C4913 C 0.56767 0.46195 0.55088 0.0
C4914 C 0.56874 0.46541 0.53161 0.0
C4915 C 0.56632 0.48361 0.52663 0.0
H4916 H 0.41958 0.78975 0.3856 0.0
H4917 H 0.43501 0.7538 0.33557 0.0
H4918 H 0.3925 0.79306 0.36637 0.0
H4919 H 0.40752 0.75649 0.31655 0.0
H4920 H 0.36781 0.78315 0.282 0.0
H4921 H 0.3944 0.77887 0.30126 0.0
H4922 H 0.36238 0.7769 0.35063 0.0
H4923 H 0.33561 0.78095 0.33112 0.0
C4924 C 0.4173 0.78251 0.3705 0.0
C4925 C 0.42983 0.77154 0.36232 0.0
C4926 C 0.40148 0.78422 0.35944 0.0
C4927 C 0.39755 0.77509 0.33971 0.0
C4928 C 0.41 0.764 0.33156 0.0
C4929 C 0.42578 0.76223 0.34264 0.0
C4930 C 0.36618 0.78123 0.29678 0.0
C4931 C 0.34919 0.78183 0.30469 0.0
C4932 C 0.38161 0.77891 0.30798 0.0
C4933 C 0.38078 0.77733 0.32766 0.0
C4934 C 0.36382 0.77819 0.33565 0.0
C4935 C 0.34833 0.78043 0.32438 0.0
H4936 H 0.09542 0.70359 0.04016 0.0
H4937 H 0.05541 0.69355 0.08182 0.0
H4938 H 0.09303 0.66758 0.03153 0.0
H4939 H 0.05266 0.65795 0.07286 0.0
H4940 H 0.06366 0.59761 0.06956 0.0
H4941 H 0.07053 0.6338 0.07681 0.0
H4942 H 0.07177 0.63502 0.01575 0.0
H4943 H 0.06501 0.59837 0.00853 0.0
C4944 C 0.0861 0.69379 0.04749 0.0
C4945 C 0.07559 0.70173 0.06172 0.0
C4946 C 0.08462 0.67308 0.04239 0.0
C4947 C 0.07276 0.65968 0.05157 0.0
C4948 C 0.06219 0.66766 0.06564 0.0
C4949 C 0.06357 0.68823 0.07062 0.0
C4950 C 0.06578 0.60559 0.05767 0.0
C4951 C 0.06388 0.59506 0.0385 0.0
C4952 C 0.06952 0.6264 0.06181 0.0
C4953 C 0.0713 0.63752 0.04688 0.0
C4954 C 0.07047 0.62705 0.02766 0.0
C4955 C 0.06668 0.60602 0.0235 0.0
H4956 H 0.09657 0.28984 0.84226 0.0
H4957 H 0.12735 0.27003 0.88589 0.0
H4958 H 0.12312 0.29285 0.82328 0.0
H4959 H 0.15388 0.27245 0.86644 0.0
H4960 H 0.20374 0.3009 0.8332 0.0
H4961 H 0.17837 0.29644 0.85427 0.0
H4962 H 0.13931 0.27128 0.80385 0.0
H4963 H 0.1644 0.27563 0.78305 0.0
C4964 C 0.10901 0.28618 0.8479 0.0
C4965 C 0.10966 0.27967 0.86571 0.0
C4966 C 0.12424 0.28768 0.83684 0.0
C4967 C 0.1407 0.28272 0.84316 0.0
C4968 C 0.14151 0.27646 0.8611 0.0
C4969 C 0.12618 0.27487 0.87217 0.0
C4970 C 0.18977 0.29413 0.82668 0.0
C4971 C 0.18614 0.28897 0.80636 0.0
C4972 C 0.17519 0.29161 0.83875 0.0
C4973 C 0.15665 0.28388 0.83078 0.0
C4974 C 0.15327 0.27781 0.81054 0.0
C4975 C 0.16773 0.28027 0.79858 0.0
H4976 H 0.55742 0.7205 0.932 0.0
H4977 H 0.61014 0.74782 0.9653 0.0
H4978 H 0.55049 0.69751 0.95437 0.0
H4979 H 0.60336 0.72435 0.98723 0.0
H4980 H 0.59071 0.66414 0.00896 0.0
H4981 H 0.59826 0.68694 0.98632 0.0
H4982 H 0.5444 0.70076 0.99004 0.0
H4983 H 0.53687 0.67798 0.01268 0.0
C4984 C 0.56753 0.72167 0.94408 0.0
C4985 C 0.58431 0.73614 0.94686 0.0
C4986 C 0.56355 0.70845 0.95685 0.0
C4987 C 0.57635 0.70923 0.97256 0.0
C4988 C 0.59331 0.72332 0.97513 0.0
C4989 C 0.59721 0.7367 0.96248 0.0
C4990 C 0.58053 0.67212 0.00496 0.0
C4991 C 0.56324 0.6694 0.01261 0.0
C4992 C 0.58487 0.68519 0.99209 0.0
C4993 C 0.57189 0.69556 0.98641 0.0
C4994 C 0.5546 0.69283 0.99407 0.0
C4995 C 0.55037 0.67998 0.00715 0.0
H4996 H 0.10107 0.78712 0.73282 0.0
H4997 H 0.10197 0.73939 0.68518 0.0
H4998 H 0.12935 0.78181 0.7484 0.0
H4999 H 0.13026 0.7342 0.70057 0.0
H5000 H 0.16844 0.71566 0.74275 0.0
H5001 H 0.14002 0.72165 0.72842 0.0
H5002 H 0.16218 0.78508 0.74481 0.0
H5003 H 0.19025 0.77908 0.75992 0.0
C5004 C 0.10744 0.77566 0.7256 0.0
C5005 C 0.09927 0.76357 0.70788 0.0
C5006 C 0.12362 0.7726 0.7345 0.0
C5007 C 0.13195 0.75746 0.7258 0.0
C5008 C 0.12395 0.74568 0.70787 0.0
C5009 C 0.10778 0.74868 0.69903 0.0
C5010 C 0.16712 0.73087 0.74357 0.0
C5011 C 0.18161 0.74688 0.75244 0.0
C5012 C 0.15094 0.73431 0.73513 0.0
C5013 C 0.1489 0.75385 0.73535 0.0
C5014 C 0.16326 0.76986 0.74451 0.0
C5015 C 0.17943 0.76642 0.75298 0.0
H5016 H 0.13 0.42077 0.47457 0.0
H5017 H 0.11215 0.4286 0.41752 0.0
H5018 H 0.11901 0.44996 0.48899 0.0
H5019 H 0.10115 0.45769 0.43194 0.0
H5020 H 0.0692 0.47618 0.50501 0.0
H5021 H 0.08629 0.45248 0.49032 0.0
H5022 H 0.10799 0.49216 0.45212 0.0
H5023 H 0.0909 0.51629 0.46732 0.0
C5024 C 0.1241 0.42898 0.46512 0.0
C5025 C 0.12177 0.4223 0.44496 0.0
C5026 C 0.11776 0.44562 0.47334 0.0
C5027 C 0.10892 0.45583 0.46157 0.0
C5028 C 0.10797 0.45015 0.44135 0.0
C5029 C 0.11433 0.43351 0.43311 0.0
C5030 C 0.07786 0.48001 0.49373 0.0
C5031 C 0.07909 0.4982 0.4876 0.0
C5032 C 0.08766 0.46645 0.48531 0.0
C5033 C 0.09885 0.4707 0.47042 0.0
C5034 C 0.09957 0.4886 0.4637 0.0
C5035 C 0.08974 0.5023 0.47227 0.0
H5036 H 0.43904 0.28512 0.23816 0.0
H5037 H 0.40964 0.23658 0.19328 0.0
H5038 H 0.4105 0.28483 0.25408 0.0
H5039 H 0.38121 0.23623 0.20924 0.0
H5040 H 0.33233 0.26529 0.22669 0.0
H5041 H 0.36108 0.26054 0.21322 0.0
H5042 H 0.38634 0.26405 0.27091 0.0
H5043 H 0.35725 0.26867 0.2843 0.0
C5044 C 0.42651 0.27433 0.23181 0.0
C5045 C 0.4265 0.26095 0.21445 0.0
C5046 C 0.41024 0.27406 0.24098 0.0
C5047 C 0.39364 0.26063 0.23279 0.0
C5048 C 0.39379 0.24686 0.21576 0.0
C5049 C 0.41007 0.24698 0.20671 0.0
C5050 C 0.34409 0.26503 0.2364 0.0
C5051 C 0.34307 0.26804 0.25647 0.0
C5052 C 0.36042 0.26209 0.22874 0.0
C5053 C 0.37595 0.26203 0.24105 0.0
C5054 C 0.37462 0.26425 0.26115 0.0
C5055 C 0.35811 0.26693 0.26879 0.0
H5056 H 0.63548 0.55228 0.38047 0.0
H5057 H 0.60467 0.49143 0.36423 0.0
H5058 H 0.62126 0.55545 0.41079 0.0
H5059 H 0.59107 0.49431 0.39503 0.0
H5060 H 0.55792 0.50603 0.4484 0.0
H5061 H 0.57151 0.50282 0.41745 0.0
H5062 H 0.6169 0.55223 0.44186 0.0
H5063 H 0.60284 0.55576 0.47243 0.0
C5064 C 0.62567 0.5394 0.38307 0.0
C5065 C 0.62161 0.52153 0.36892 0.0
C5066 C 0.61749 0.54117 0.40108 0.0
C5067 C 0.60462 0.52521 0.40636 0.0
C5068 C 0.60055 0.50733 0.39221 0.0
C5069 C 0.60874 0.50555 0.37418 0.0
C5070 C 0.57073 0.51639 0.44727 0.0
C5071 C 0.57886 0.53133 0.46355 0.0
C5072 C 0.57883 0.51442 0.42919 0.0
C5073 C 0.59571 0.52722 0.42618 0.0
C5074 C 0.60388 0.54205 0.44263 0.0
C5075 C 0.59574 0.54404 0.46064 0.0
H5076 H 0.33094 0.85511 0.08422 0.0
H5077 H 0.31087 0.90014 0.12167 0.0
H5078 H 0.33524 0.83882 0.11152 0.0
H5079 H 0.31499 0.88365 0.14907 0.0
H5080 H 0.32884 0.80597 0.16092 0.0
H5081 H 0.31735 0.82082 0.13514 0.0
H5082 H 0.34413 0.87941 0.16699 0.0
H5083 H 0.35541 0.86457 0.19291 0.0
C5084 C 0.32724 0.86135 0.09828 0.0
C5085 C 0.32067 0.87888 0.10094 0.0
C5086 C 0.32953 0.85195 0.11383 0.0
C5087 C 0.32541 0.86 0.13235 0.0
C5088 C 0.31831 0.87722 0.13492 0.0
C5089 C 0.31584 0.88654 0.11928 0.0
C5090 C 0.33192 0.82203 0.16258 0.0
C5091 C 0.34312 0.83415 0.17878 0.0
C5092 C 0.32545 0.83049 0.14781 0.0
C5093 C 0.32995 0.85121 0.14908 0.0
C5094 C 0.34036 0.86339 0.16574 0.0
C5095 C 0.34695 0.85492 0.18044 0.0
H5096 H 0.99978 0.54152 0.86359 0.0
H5097 H 0.97116 0.57739 0.90202 0.0
H5098 H 0.02213 0.54221 0.89064 0.0
H5099 H 0.99357 0.57813 0.92903 0.0
H5100 H 0.04377 0.58448 0.9716 0.0
H5101 H 0.02808 0.58931 0.94172 0.0
H5102 H 0.01637 0.52589 0.91997 0.0
H5103 H 0.03161 0.52118 0.94991 0.0
C5104 C 0.9984 0.54969 0.87779 0.0
C5105 C 0.98368 0.55922 0.88082 0.0
C5106 C 0.0112 0.55015 0.89318 0.0
C5107 C 0.0095 0.56018 0.91183 0.0
C5108 C 0.99532 0.57054 0.91469 0.0
C5109 C 0.98249 0.57007 0.89929 0.0
C5110 C 0.03816 0.57174 0.96015 0.0
C5111 C 0.03875 0.5525 0.96274 0.0
C5112 C 0.02916 0.57445 0.94322 0.0
C5113 C 0.02108 0.55797 0.92862 0.0
C5114 C 0.02265 0.53885 0.93092 0.0
C5115 C 0.03125 0.53613 0.94799 0.0
H5116 H 0.28193 0.26877 0.61337 0.0
H5117 H 0.3207 0.23254 0.62277 0.0
H5118 H 0.28076 0.27761 0.6486 0.0
H5119 H 0.3197 0.24154 0.65759 0.0
H5120 H 0.29729 0.23958 0.71505 0.0
H5121 H 0.29516 0.23331 0.67981 0.0
H5122 H 0.302 0.29618 0.68052 0.0
H5123 H 0.30424 0.3025 0.71628 0.0
C5124 C 0.29025 0.26277 0.6229 0.0
C5125 C 0.30144 0.24994 0.61514 0.0
C5126 C 0.28967 0.26795 0.64307 0.0
C5127 C 0.30002 0.26016 0.65591 0.0
C5128 C 0.31138 0.24764 0.64813 0.0
C5129 C 0.31211 0.24264 0.62811 0.0
C5130 C 0.29804 0.25207 0.70771 0.0
C5131 C 0.30082 0.2715 0.71843 0.0
C5132 C 0.29694 0.24848 0.6875 0.0
C5133 C 0.29874 0.26425 0.67732 0.0
C5134 C 0.30057 0.2837 0.68794 0.0
C5135 C 0.30178 0.28733 0.70838 0.0
H5136 H 0.60348 0.54212 0.17503 0.0
H5137 H 0.63277 0.50128 0.14453 0.0
H5138 H 0.59006 0.54679 0.14395 0.0
H5139 H 0.61934 0.50585 0.11369 0.0
H5140 H 0.60823 0.53097 0.05928 0.0
H5141 H 0.62 0.52724 0.09097 0.0
H5142 H 0.56851 0.53449 0.11347 0.0
H5143 H 0.55639 0.5378 0.08097 0.0
C5144 C 0.60724 0.53407 0.16184 0.0
C5145 C 0.61959 0.52121 0.16309 0.0
C5146 C 0.59926 0.53668 0.14369 0.0
C5147 C 0.60335 0.52691 0.12554 0.0
C5148 C 0.61567 0.51406 0.12684 0.0
C5149 C 0.6234 0.51122 0.14492 0.0
C5150 C 0.5992 0.53186 0.07085 0.0
C5151 C 0.58117 0.53491 0.06687 0.0
C5152 C 0.60606 0.52951 0.08937 0.0
C5153 C 0.59547 0.5302 0.10553 0.0
C5154 C 0.57747 0.5338 0.10184 0.0
C5155 C 0.5704 0.53583 0.08296 0.0
H5156 H 0.32128 0.84028 0.93519 0.0
H5157 H 0.33749 0.89271 0.9102 0.0
H5158 H 0.32196 0.81925 0.90377 0.0
H5159 H 0.33709 0.87205 0.87867 0.0
H5160 H 0.34391 0.83412 0.82488 0.0
H5161 H 0.3506 0.8508 0.85849 0.0
H5162 H 0.3048 0.80841 0.87396 0.0
H5163 H 0.29944 0.79068 0.84067 0.0
C5164 C 0.32494 0.84722 0.92289 0.0
C5165 C 0.32931 0.86799 0.92494 0.0
C5166 C 0.32526 0.83525 0.90489 0.0
C5167 C 0.32955 0.84388 0.88857 0.0
C5168 C 0.33418 0.86477 0.89089 0.0
C5169 C 0.33424 0.87668 0.90892 0.0
C5170 C 0.33544 0.82818 0.83551 0.0
C5171 C 0.32059 0.81153 0.82998 0.0
C5172 C 0.33919 0.83785 0.8548 0.0
C5173 C 0.32787 0.83142 0.86892 0.0
C5174 C 0.31385 0.8139 0.86357 0.0
C5175 C 0.31049 0.80388 0.84434 0.0
H5176 H 0.95845 0.56241 0.69464 0.0
H5177 H 0.97822 0.52147 0.72524 0.0
H5178 H 0.97867 0.55574 0.66916 0.0
H5179 H 0.99901 0.51541 0.70042 0.0
H5180 H 0.01941 0.49237 0.64345 0.0
H5181 H 0.9987 0.49921 0.66824 0.0
H5182 H 0.00989 0.56091 0.66201 0.0
H5183 H 0.02994 0.55369 0.63661 0.0
C5184 C 0.96732 0.55218 0.69597 0.0
C5185 C 0.96675 0.54233 0.71172 0.0
C5186 C 0.97895 0.5484 0.68147 0.0
C5187 C 0.99042 0.53494 0.68266 0.0
C5188 C 0.99007 0.52548 0.69875 0.0
C5189 C 0.97826 0.52903 0.71304 0.0
C5190 C 0.01745 0.50738 0.6475 0.0
C5191 C 0.02625 0.52253 0.63826 0.0
C5192 C 0.00565 0.51136 0.66173 0.0
C5193 C 1.00268 0.53066 0.66723 0.0
C5194 C 0.01161 0.54582 0.65795 0.0
C5195 C 0.02318 0.54175 0.64351 0.0
H5196 H 0.2797 0.22928 0.40674 0.0
H5197 H 0.33928 0.24685 0.418 0.0
H5198 H 0.28186 0.23877 0.37499 0.0
H5199 H 0.34147 0.25613 0.38609 0.0
H5200 H 0.33436 0.29221 0.33757 0.0
H5201 H 0.3339 0.28142 0.36854 0.0
H5202 H 0.29271 0.2284 0.34297 0.0
H5203 H 0.29321 0.23919 0.31185 0.0
C5204 C 0.29327 0.23524 0.40249 0.0
C5205 C 0.3093 0.23733 0.41503 0.0
C5206 C 0.29453 0.24048 0.38415 0.0
C5207 C 0.31185 0.24815 0.37786 0.0
C5208 C 0.32789 0.25037 0.39045 0.0
C5209 C 0.32664 0.24491 0.40871 0.0
C5210 C 0.32532 0.27822 0.33834 0.0
C5211 C 0.31363 0.26692 0.32202 0.0
C5212 C 0.3251 0.27193 0.35623 0.0
C5213 C 0.31308 0.25413 0.35842 0.0
C5214 C 0.30189 0.24239 0.34196 0.0
C5215 C 0.30228 0.24858 0.32402 0.0
H5216 H 0.38937 0.6129 0.53881 0.0
H5217 H 0.34847 0.56879 0.49908 0.0
H5218 H 0.41141 0.59136 0.53405 0.0
H5219 H 0.37048 0.54738 0.4942 0.0
H5220 H 0.41173 0.50818 0.5046 0.0
H5221 H 0.38863 0.5279 0.51244 0.0
H5222 H 0.42743 0.58062 0.50413 0.0
H5223 H 0.45021 0.56102 0.49576 0.0
C5224 C 0.38506 0.5985 0.5293 0.0
C5225 C 0.36737 0.59252 0.51916 0.0
C5226 C 0.39764 0.58627 0.52648 0.0
C5227 C 0.39261 0.56781 0.51368 0.0
C5228 C 0.37464 0.56149 0.50422 0.0
C5229 C 0.36215 0.57378 0.50688 0.0
C5230 C 0.41521 0.52392 0.50422 0.0
C5231 C 0.43284 0.53306 0.49972 0.0
C5232 C 0.40208 0.53519 0.50883 0.0
C5233 C 0.40643 0.55578 0.50916 0.0
C5234 C 0.42391 0.56485 0.50442 0.0
C5235 C 0.43692 0.5536 0.49961 0.0
H5236 H 0.90913 0.95482 0.50595 0.0
H5237 H 0.91555 0.97066 0.56848 0.0
H5238 H 0.94018 0.97407 0.50472 0.0
H5239 H 0.94729 0.98917 0.56726 0.0
H5240 H 0.99846 0.03584 0.55562 0.0
H5241 H 0.96664 0.0184 0.55848 0.0
H5242 H 0.97106 0.97184 0.51111 0.0
H5243 H 1.00212 0.98945 0.50772 0.0
C5244 C 0.91709 0.96249 0.51949 0.0
C5245 C 0.90963 0.96115 0.53732 0.0
C5246 C 0.93512 0.97334 0.51879 0.0
C5247 C 0.94645 0.98309 0.53589 0.0
C5248 C 0.93899 0.98199 0.55377 0.0
C5249 C 0.92082 0.97114 0.55447 0.0
C5250 C 0.99256 0.02198 0.54572 0.0
C5251 C 1.00286 0.01434 0.53121 0.0
C5252 C 0.97434 0.01186 0.54748 0.0
C5253 C 0.96606 0.99378 0.53484 0.0
C5254 C 0.97665 0.98595 0.52077 0.0
C5255 C 0.99467 0.99606 0.51894 0.0
H5256 H 0.87605 0.161 0.23874 0.0
H5257 H 0.8784 0.17317 0.30111 0.0
H5258 H 0.85983 0.18712 0.23737 0.0
H5259 H 0.86274 0.20022 0.29972 0.0
H5260 H 0.8262 0.24704 0.29379 0.0
H5261 H 0.84068 0.21884 0.29634 0.0
H5262 H 0.85511 0.21721 0.2376 0.0
H5263 H 0.84025 0.24429 0.23509 0.0
C5264 C 0.8733 0.16903 0.25241 0.0
C5265 C 0.87916 0.16387 0.27008 0.0
C5266 C 0.86386 0.18478 0.25161 0.0
C5267 C 0.85954 0.19696 0.2684 0.0
C5268 C 0.86529 0.19181 0.28613 0.0
C5269 C 0.87471 0.17593 0.28693 0.0
C5270 C 0.83216 0.24046 0.28127 0.0
C5271 C 0.83145 0.2484 0.26404 0.0
C5272 C 0.84086 0.22408 0.28276 0.0
C5273 C 0.84955 0.21468 0.2672 0.0
C5274 C 0.84867 0.22286 0.25013 0.0
C5275 C 0.83999 0.23895 0.24865 0.0
H5276 H 0.68904 0.06467 0.99591 0.0
H5277 H 0.69928 0.10733 0.04978 0.0
H5278 H 0.65579 0.05815 0.99951 0.0
H5279 H 0.6661 0.10059 0.05356 0.0
H5280 H 0.6037 0.09967 0.03484 0.0
H5281 H 0.6376 0.10622 0.03585 0.0
H5282 H 0.63445 0.04298 0.02202 0.0
H5283 H 0.60099 0.0366 0.02048 0.0
C5284 C 0.68415 0.07244 0.00859 0.0
C5285 C 0.6966 0.0862 0.02272 0.0
C5286 C 0.66522 0.06868 0.01072 0.0
C5287 C 0.65853 0.07878 0.02692 0.0
C5288 C 0.67099 0.09263 0.04098 0.0
C5289 C 0.68991 0.09628 0.03892 0.0
C5290 C 0.61038 0.08726 0.03242 0.0
C5291 C 0.5998 0.06766 0.02781 0.0
C5292 C 0.62967 0.09095 0.03302 0.0
C5293 C 0.6385 0.07506 0.0288 0.0
C5294 C 0.62792 0.05548 0.02504 0.0
C5295 C 0.60875 0.05183 0.02436 0.0
H5296 H 0.26825 0.46963 0.21886 0.0
H5297 H 0.22471 0.43105 0.24187 0.0
H5298 H 0.29061 0.45169 0.22937 0.0
H5299 H 0.24727 0.41358 0.25287 0.0
H5300 H 0.29789 0.42244 0.29932 0.0
H5301 H 0.27468 0.43357 0.28076 0.0
H5302 H 0.2981 0.41455 0.22779 0.0
H5303 H 0.32128 0.403 0.24644 0.0
C5304 C 0.26332 0.45686 0.22548 0.0
C5305 C 0.24483 0.45192 0.22989 0.0
C5306 C 0.27614 0.44668 0.23154 0.0
C5307 C 0.27059 0.43161 0.24217 0.0
C5308 C 0.2518 0.42539 0.24489 0.0
C5309 C 0.23897 0.43538 0.23865 0.0
C5310 C 0.29822 0.4209 0.28376 0.0
C5311 C 0.31141 0.41215 0.27426 0.0
C5312 C 0.28484 0.42696 0.27315 0.0
C5313 C 0.28459 0.4246 0.25291 0.0
C5314 C 0.29806 0.41634 0.24339 0.0
C5315 C 0.31128 0.4099 0.25401 0.0
H5316 H 0.24297 0.4677 0.05363 0.0
H5317 H 0.21764 0.42811 1.00041 0.0
H5318 H 0.21961 0.48706 0.0516 0.0
H5319 H 0.19475 0.44813 0.99788 0.0
H5320 H 0.1474 0.4806 0.00569 0.0
H5321 H 0.16807 0.45861 0.01099 0.0
H5322 H 0.21247 0.51004 0.03299 0.0
H5323 H 0.19178 0.53174 0.02838 0.0
C5324 C 0.23236 0.46299 0.04153 0.0
C5325 C 0.23235 0.44629 0.02715 0.0
C5326 C 0.21904 0.4743 0.04024 0.0
C5327 C 0.2053 0.46935 0.02447 0.0
C5328 C 0.20499 0.45238 0.01031 0.0
C5329 C 0.21833 0.44102 0.01163 0.0
C5330 C 0.16149 0.48716 0.01197 0.0
C5331 C 0.16793 0.50797 0.01646 0.0
C5332 C 0.17343 0.47456 0.01481 0.0
C5333 C 0.19206 0.48248 0.02235 0.0
C5334 C 0.19823 0.50329 0.02736 0.0
C5335 C 0.18637 0.5158 0.0245 0.0
H5336 H 0.85443 0.95606 0.2425 0.0
H5337 H 0.89357 0.95346 0.28906 0.0
H5338 H 0.83941 0.92136 0.24144 0.0
H5339 H 0.87792 0.91931 0.28881 0.0
H5340 H 0.85662 0.85185 0.27615 0.0
H5341 H 0.87178 0.88617 0.27592 0.0
H5342 H 0.82021 0.89624 0.25295 0.0
H5343 H 0.80534 0.86149 0.25237 0.0
C5344 C 0.85999 0.94829 0.2526 0.0
C5345 C 0.87554 0.95833 0.26589 0.0
C5346 C 0.85105 0.9281 0.25217 0.0
C5347 C 0.85711 0.91677 0.26502 0.0
C5348 C 0.87263 0.92684 0.27832 0.0
C5349 C 0.8816 0.94696 0.2787 0.0
C5350 C 0.84839 0.86126 0.27098 0.0
C5351 C 0.82943 0.8534 0.26447 0.0
C5352 C 0.85718 0.88135 0.27101 0.0
C5353 C 0.84751 0.89481 0.26461 0.0
C5354 C 0.82855 0.88683 0.2579 0.0
C5355 C 0.81978 0.86665 0.25777 0.0
H5356 H 0.75303 0.13878 0.70974 0.0
H5357 H 0.77311 0.13434 0.76737 0.0
H5358 H 0.76427 0.17483 0.71788 0.0
H5359 H 0.78544 0.17021 0.77477 0.0
H5360 H 0.75586 0.23381 0.75923 0.0
H5361 H 0.75035 0.19771 0.74848 0.0
H5362 H 0.80877 0.20074 0.75961 0.0
H5363 H 0.81436 0.23692 0.77002 0.0
C5364 C 0.76021 0.14538 0.72394 0.0
C5365 C 0.76179 0.13367 0.73803 0.0
C5366 C 0.76678 0.16595 0.72847 0.0
C5367 C 0.77556 0.17506 0.74691 0.0
C5368 C 0.77875 0.16334 0.7604 0.0
C5369 C 0.77178 0.14279 0.75607 0.0
C5370 C 0.76749 0.22673 0.75928 0.0
C5371 C 0.78559 0.23808 0.76468 0.0
C5372 C 0.76438 0.20623 0.75303 0.0
C5373 C 0.77924 0.19675 0.7529 0.0
C5374 C 0.79721 0.20791 0.75933 0.0
C5375 C 0.80038 0.22852 0.76515 0.0
loop_
_geom_bond_atom_site_label_1
_geom_bond_atom_site_label_2
_geom_bond_distance
_geom_bond_site_symmetry_2
_ccdc_geom_bond_type
Li0 N17 1.990 . S
Li0 O60 1.956 . S
Li0 O61 1.970 . S
Li0 O62 1.961 . S
Li1 N25 1.990 . S
Li1 O60 1.970 . S
Li1 O61 1.956 . S
Li1 O63 1.961 . S
Li2 N47 1.990 . S
Li2 O60 1.961 . S
Li2 O62 1.956 . S
Li2 O63 1.970 . S
Li3 N53 1.990 . S
Li3 O61 1.961 . S
Li3 O62 1.970 . S
Li3 O63 1.956 . S
C4 C6 1.348 . S
C4 C7 1.356 . S
C4 O60 1.325 . S
N5 C8 1.314 . S
N5 C9 1.279 . S
C6 C4 1.348 . S
C6 C8 1.353 . S
C6 H64 0.929 . S
C7 C4 1.356 . S
C7 C9 1.358 . S
C7 H65 0.930 . S
C8 N5 1.314 . S
C8 C6 1.353 . S
C8 H66 0.930 . S
C9 N5 1.279 . S
C9 C7 1.358 . S
C9 H67 0.930 . S
C10 C13 1.348 . S
C10 C14 1.356 . S
C10 O61 1.325 . S
C11 N12 1.279 . S
C11 C14 1.358 . S
C11 H68 0.930 . S
N12 C11 1.279 . S
N12 C15 1.314 . S
C13 C10 1.348 . S
C13 C15 1.353 . S
C13 H69 0.929 . S
C14 C10 1.356 . S
C14 C11 1.358 . S
C14 H70 0.930 . S
C15 N12 1.314 . S
C15 C13 1.353 . S
C15 H71 0.930 . S
C16 N17 1.314 . S
C16 C21 1.353 . S
C16 H22 0.930 . S
N17 Li0 1.990 . S
N17 C16 1.314 . S
N17 C19 1.279 . S
C18 C19 1.358 . S
C18 C20 1.356 . S
C18 H72 0.930 . S
C19 N17 1.279 . S
C19 C18 1.358 . S
C19 H23 0.930 . S
C20 C18 1.356 . S
C20 C21 1.348 . S
C21 C16 1.353 . S
C21 C20 1.348 . S
C21 H73 0.929 . S
H22 C16 0.930 . S
H23 C19 0.930 . S
C24 N25 1.314 . S
C24 C26 1.353 . S
C24 H30 0.930 . S
N25 Li1 1.990 . S
N25 C24 1.314 . S
N25 C28 1.279 . S
C26 C24 1.353 . S
C26 C29 1.348 . S
C26 H74 0.929 . S
C27 C28 1.358 . S
C27 C29 1.356 . S
C27 H75 0.930 . S
C28 N25 1.279 . S
C28 C27 1.358 . S
C28 H31 0.930 . S
C29 C26 1.348 . S
C29 C27 1.356 . S
H30 C24 0.930 . S
H31 C28 0.930 . S
C32 C34 1.348 . S
C32 C35 1.356 . S
C32 O62 1.325 . S
N33 C36 1.314 . S
N33 C37 1.279 . S
C34 C32 1.348 . S
C34 C36 1.353 . S
C34 H76 0.929 . S
C35 C32 1.356 . S
C35 C37 1.358 . S
C35 H77 0.930 . S
C36 N33 1.314 . S
C36 C34 1.353 . S
C36 H78 0.930 . S
C37 N33 1.279 . S
C37 C35 1.358 . S
C37 H79 0.930 . S
C38 C39 1.348 . S
C38 C40 1.356 . S
C38 O63 1.325 . S
C39 C38 1.348 . S
C39 C41 1.353 . S
C39 H80 0.929 . S
C40 C38 1.356 . S
C40 C42 1.358 . S
C40 H81 0.930 . S
C41 C39 1.353 . S
C41 N43 1.314 . S
C41 H82 0.930 . S
C42 C40 1.358 . S
C42 N43 1.279 . S
C42 H83 0.930 . S
N43 C41 1.314 . S
N43 C42 1.279 . S
C44 C46 1.353 . S
C44 N47 1.314 . S
C44 H50 0.930 . S
C45 N47 1.279 . S
C45 C48 1.358 . S
C45 H51 0.930 . S
C46 C44 1.353 . S
C46 C49 1.348 . S
C46 H84 0.929 . S
N47 Li2 1.990 . S
N47 C44 1.314 . S
N47 C45 1.279 . S
C48 C45 1.358 . S
C48 C49 1.356 . S
C48 H85 0.930 . S
C49 C46 1.348 . S
C49 C48 1.356 . S
H50 C44 0.930 . S
H51 C45 0.930 . S
C52 N53 1.314 . S
C52 C54 1.353 . S
C52 H58 0.930 . S
N53 Li3 1.990 . S
N53 C52 1.314 . S
N53 C56 1.279 . S
C54 C52 1.353 . S
C54 C57 1.348 . S
C54 H86 0.929 . S
C55 C56 1.358 . S
C55 C57 1.356 . S
C55 H87 0.930 . S
C56 N53 1.279 . S
C56 C55 1.358 . S
C56 H59 0.930 . S
C57 C54 1.348 . S
C57 C55 1.356 . S
H58 C52 0.930 . S
H59 C56 0.930 . S
O60 Li0 1.956 . S
O60 Li1 1.970 . S
O60 Li2 1.961 . S
O60 C4 1.325 . S
O61 Li0 1.970 . S
O61 Li1 1.956 . S
O61 Li3 1.961 . S
O61 C10 1.325 . S
O62 Li0 1.961 . S
O62 Li2 1.956 . S
O62 Li3 1.970 . S
O62 C32 1.325 . S
O63 Li1 1.961 . S
O63 Li2 1.970 . S
O63 Li3 1.956 . S
O63 C38 1.325 . S
H64 C6 0.929 . S
H65 C7 0.930 . S
H66 C8 0.930 . S
H67 C9 0.930 . S
H68 C11 0.930 . S
H69 C13 0.929 . S
H70 C14 0.930 . S
H71 C15 0.930 . S
H72 C18 0.930 . S
H73 C21 0.929 . S
H74 C26 0.929 . S
H75 C27 0.930 . S
H76 C34 0.929 . S
H77 C35 0.930 . S
H78 C36 0.930 . S
H79 C37 0.930 . S
H80 C39 0.929 . S
H81 C40 0.930 . S
H82 C41 0.930 . S
H83 C42 0.930 . S
H84 C46 0.929 . S
H85 C48 0.930 . S
H86 C54 0.929 . S
H87 C55 0.930 . S
Li88 N105 1.990 . S
Li88 O148 1.956 . S
Li88 O149 1.970 . S
Li88 O150 1.961 1_455 S
Li89 N113 1.990 . S
Li89 O148 1.970 . S
Li89 O149 1.956 . S
Li89 O151 1.937 1_455 S
Li90 N135 1.990 . S
Li90 O148 1.961 1_655 S
Li90 O150 1.956 . S
Li90 O151 1.972 . S
Li91 N141 1.990 . S
Li91 O149 1.961 1_655 S
Li91 O150 1.970 . S
Li91 O151 1.990 . S
C92 C94 1.348 . S
C92 C95 1.356 . S
C92 O148 1.325 . S
N93 C96 1.314 . S
N93 C97 1.279 . S
C94 C92 1.348 . S
C94 C96 1.353 . S
C94 H152 0.929 . S
C95 C92 1.356 . S
C95 C97 1.358 . S
C95 H153 0.930 . S
C96 N93 1.314 . S
C96 C94 1.353 . S
C96 H154 0.930 . S
C97 N93 1.279 . S
C97 C95 1.358 . S
C97 H155 0.930 . S
C98 C101 1.348 . S
C98 C102 1.356 . S
C98 O149 1.325 . S
C99 N100 1.279 . S
C99 C102 1.358 . S
C99 H156 0.930 . S
N100 C99 1.279 . S
N100 C103 1.314 . S
C101 C98 1.348 . S
C101 C103 1.353 . S
C101 H157 0.929 . S
C102 C98 1.356 . S
C102 C99 1.358 . S
C102 H158 0.927 1_455 S
C103 N100 1.314 . S
C103 C101 1.353 . S
C103 H159 0.930 . S
C104 N105 1.314 1_655 S
C104 C109 1.353 . S
C104 H110 0.930 . S
N105 Li88 1.990 . S
N105 C104 1.314 1_455 S
N105 C107 1.279 . S
C106 C107 1.358 . S
C106 C108 1.356 . S
C106 H160 0.930 . S
C107 N105 1.279 . S
C107 C106 1.358 . S
C107 H111 0.930 . S
C108 C106 1.356 . S
C108 C109 1.348 1_455 S
C109 C104 1.353 . S
C109 C108 1.348 1_655 S
C109 H161 0.929 . S
H110 C104 0.930 . S
H111 C107 0.930 . S
C112 N113 1.314 . S
C112 C114 1.353 . S
C112 H118 0.930 . S
N113 Li89 1.990 . S
N113 C112 1.314 . S
N113 C116 1.279 . S
C114 C112 1.353 . S
C114 C117 1.348 . S
C114 H162 0.929 . S
C115 C116 1.358 . S
C115 C117 1.356 . S
C115 H163 0.930 . S
C116 N113 1.279 . S
C116 C115 1.358 . S
C116 H119 0.930 . S
C117 C114 1.348 . S
C117 C115 1.356 . S
H118 C112 0.930 . S
H119 C116 0.930 . S
C120 C122 1.348 . S
C120 C123 1.356 . S
C120 O150 1.325 . S
N121 C124 1.314 . S
N121 C125 1.279 . S
C122 C120 1.348 . S
C122 C124 1.353 . S
C122 H164 0.929 . S
C123 C120 1.356 . S
C123 C125 1.358 . S
C123 H165 0.930 . S
C124 N121 1.314 . S
C124 C122 1.353 . S
C124 H166 0.930 . S
C125 N121 1.279 . S
C125 C123 1.358 . S
C125 H167 0.930 . S
C126 C127 1.348 . S
C126 C128 1.356 1_655 S
C126 O151 1.323 . S
C127 C126 1.348 . S
C127 C129 1.353 . S
C127 H168 0.929 . S
C128 C126 1.356 1_455 S
C128 C130 1.358 . S
C128 H169 0.930 . S
C129 C127 1.353 . S
C129 N131 1.314 . S
C129 H170 0.930 . S
C130 C128 1.358 . S
C130 N131 1.277 1_455 S
C130 H171 0.933 . S
N131 C129 1.314 . S
N131 C130 1.277 1_655 S
C132 C134 1.353 . S
C132 N135 1.314 1_455 S
C132 H138 0.930 . S
C133 N135 1.279 . S
C133 C136 1.358 . S
C133 H139 0.930 . S
C134 C132 1.353 . S
C134 C137 1.348 1_455 S
C134 H172 0.929 . S
N135 Li90 1.990 . S
N135 C132 1.314 1_655 S
N135 C133 1.279 . S
C136 C133 1.358 . S
C136 C137 1.356 . S
C136 H173 0.930 . S
C137 C134 1.348 1_655 S
C137 C136 1.356 . S
H138 C132 0.930 . S
H139 C133 0.930 . S
C140 N141 1.314 . S
C140 C142 1.353 . S
C140 H146 0.930 . S
N141 Li91 1.990 . S
N141 C140 1.314 . S
N141 C144 1.279 . S
C142 C140 1.353 . S
C142 C145 1.348 . S
C142 H174 0.929 . S
C143 C144 1.358 . S
C143 C145 1.356 . S
C143 H175 0.930 . S
C144 N141 1.279 . S
C144 C143 1.358 . S
C144 H147 0.930 . S
C145 C142 1.348 . S
C145 C143 1.356 . S
H146 C140 0.930 . S
H147 C144 0.930 . S
O148 Li88 1.956 . S
O148 Li89 1.970 . S
O148 Li90 1.961 1_455 S
O148 C92 1.325 . S
O149 Li88 1.970 . S
O149 Li89 1.956 . S
O149 Li91 1.961 1_455 S
O149 C98 1.325 . S
O150 Li88 1.961 1_655 S
O150 Li90 1.956 . S
O150 Li91 1.970 . S
O150 C120 1.325 . S
O151 Li89 1.937 1_655 S
O151 Li90 1.972 . S
O151 Li91 1.990 . S
O151 C126 1.323 . S
H152 C94 0.929 . S
H153 C95 0.930 . S
H154 C96 0.930 . S
H155 C97 0.930 . S
H156 C99 0.930 . S
H157 C101 0.929 . S
H158 C102 0.927 1_655 S
H159 C103 0.930 . S
H160 C106 0.930 . S
H161 C109 0.929 . S
H162 C114 0.929 . S
H163 C115 0.930 . S
H164 C122 0.929 . S
H165 C123 0.930 . S
H166 C124 0.930 . S
H167 C125 0.930 . S
H168 C127 0.929 . S
H169 C128 0.930 . S
H170 C129 0.930 . S
H171 C130 0.933 . S
H172 C134 0.929 . S
H173 C136 0.930 . S
H174 C142 0.929 . S
H175 C143 0.930 . S
Li176 N193 1.990 . S
Li176 O236 1.956 . S
Li176 O237 1.970 . S
Li176 O238 1.961 . S
Li177 N201 1.990 . S
Li177 O236 1.970 . S
Li177 O237 1.956 . S
Li177 O239 1.961 . S
Li178 N223 1.990 . S
Li178 O236 1.961 . S
Li178 O238 1.956 . S
Li178 O239 1.970 . S
Li179 N229 1.990 . S
Li179 O237 1.961 . S
Li179 O238 1.970 . S
Li179 O239 1.956 . S
C180 C182 1.348 . S
C180 C183 1.356 . S
C180 O236 1.325 . S
N181 C184 1.314 . S
N181 C185 1.279 . S
C182 C180 1.348 . S
C182 C184 1.353 . S
C182 H240 0.929 . S
C183 C180 1.356 . S
C183 C185 1.358 . S
C183 H241 0.930 . S
C184 N181 1.314 . S
C184 C182 1.353 . S
C184 H242 0.930 . S
C185 N181 1.279 . S
C185 C183 1.358 . S
C185 H243 0.930 . S
C186 C189 1.348 . S
C186 C190 1.356 . S
C186 O237 1.325 . S
C187 N188 1.279 . S
C187 C190 1.358 . S
C187 H244 0.930 . S
N188 C187 1.279 . S
N188 C191 1.314 . S
C189 C186 1.348 . S
C189 C191 1.353 . S
C189 H245 0.929 . S
C190 C186 1.356 . S
C190 C187 1.358 . S
C190 H246 0.930 . S
C191 N188 1.314 . S
C191 C189 1.353 . S
C191 H247 0.930 . S
C192 N193 1.314 . S
C192 C197 1.353 . S
C192 H198 0.930 . S
N193 Li176 1.990 . S
N193 C192 1.314 . S
N193 C195 1.279 . S
C194 C195 1.358 . S
C194 C196 1.356 . S
C194 H248 0.930 . S
C195 N193 1.279 . S
C195 C194 1.358 . S
C195 H199 0.930 . S
C196 C194 1.356 . S
C196 C197 1.348 . S
C197 C192 1.353 . S
C197 C196 1.348 . S
C197 H249 0.929 . S
H198 C192 0.930 . S
H199 C195 0.930 . S
C200 N201 1.314 . S
C200 C202 1.353 . S
C200 H206 0.930 . S
N201 Li177 1.990 . S
N201 C200 1.314 . S
N201 C204 1.279 . S
C202 C200 1.353 . S
C202 C205 1.348 . S
C202 H250 0.929 . S
C203 C204 1.358 . S
C203 C205 1.356 . S
C203 H251 0.930 . S
C204 N201 1.279 . S
C204 C203 1.358 . S
C204 H207 0.930 . S
C205 C202 1.348 . S
C205 C203 1.356 . S
H206 C200 0.930 . S
H207 C204 0.930 . S
C208 C210 1.348 . S
C208 C211 1.356 . S
C208 O238 1.325 . S
N209 C212 1.314 . S
N209 C213 1.279 . S
C210 C208 1.348 . S
C210 C212 1.353 . S
C210 H252 0.929 . S
C211 C208 1.356 . S
C211 C213 1.358 . S
C211 H253 0.930 . S
C212 N209 1.314 . S
C212 C210 1.353 . S
C212 H254 0.930 . S
C213 N209 1.279 . S
C213 C211 1.358 . S
C213 H255 0.930 . S
C214 C215 1.348 . S
C214 C216 1.356 . S
C214 O239 1.325 . S
C215 C214 1.348 . S
C215 C217 1.353 . S
C215 H256 0.929 . S
C216 C214 1.356 . S
C216 C218 1.358 . S
C216 H257 0.930 . S
C217 C215 1.353 . S
C217 N219 1.314 . S
C217 H258 0.930 . S
C218 C216 1.358 . S
C218 N219 1.279 . S
C218 H259 0.930 . S
N219 C217 1.314 . S
N219 C218 1.279 . S
C220 C222 1.353 . S
C220 N223 1.314 . S
C220 H226 0.930 . S
C221 N223 1.279 . S
C221 C224 1.358 . S
C221 H227 0.930 . S
C222 C220 1.353 . S
C222 C225 1.348 . S
C222 H260 0.929 . S
N223 Li178 1.990 . S
N223 C220 1.314 . S
N223 C221 1.279 . S
C224 C221 1.358 . S
C224 C225 1.356 . S
C224 H261 0.930 . S
C225 C222 1.348 . S
C225 C224 1.356 . S
H226 C220 0.930 . S
H227 C221 0.930 . S
C228 N229 1.314 . S
C228 C230 1.353 . S
C228 H234 0.930 . S
N229 Li179 1.990 . S
N229 C228 1.314 . S
N229 C232 1.279 . S
C230 C228 1.353 . S
C230 C233 1.348 . S
C230 H262 0.929 . S
C231 C232 1.358 . S
C231 C233 1.356 . S
C231 H263 0.930 . S
C232 N229 1.279 . S
C232 C231 1.358 . S
C232 H235 0.930 . S
C233 C230 1.348 . S
C233 C231 1.356 . S
H234 C228 0.930 . S
H235 C232 0.930 . S
O236 Li176 1.956 . S
O236 Li177 1.970 . S
O236 Li178 1.961 . S
O236 C180 1.325 . S
O237 Li176 1.970 . S
O237 Li177 1.956 . S
O237 Li179 1.961 . S
O237 C186 1.325 . S
O238 Li176 1.961 . S
O238 Li178 1.956 . S
O238 Li179 1.970 . S
O238 C208 1.325 . S
O239 Li177 1.961 . S
O239 Li178 1.970 . S
O239 Li179 1.956 . S
O239 C214 1.325 . S
H240 C182 0.929 . S
H241 C183 0.930 . S
H242 C184 0.930 . S
H243 C185 0.930 . S
H244 C187 0.930 . S
H245 C189 0.929 . S
H246 C190 0.930 . S
H247 C191 0.930 . S
H248 C194 0.930 . S
H249 C197 0.929 . S
H250 C202 0.929 . S
H251 C203 0.930 . S
H252 C210 0.929 . S
H253 C211 0.930 . S
H254 C212 0.930 . S
H255 C213 0.930 . S
H256 C215 0.929 . S
H257 C216 0.930 . S
H258 C217 0.930 . S
H259 C218 0.930 . S
H260 C222 0.929 . S
H261 C224 0.930 . S
H262 C230 0.929 . S
H263 C231 0.930 . S
Li264 N281 1.990 . S
Li264 O324 1.956 . S
Li264 O325 1.970 . S
Li264 O326 1.961 . S
Li265 N289 1.990 . S
Li265 O324 1.970 . S
Li265 O325 1.956 . S
Li265 O327 1.961 . S
Li266 N311 1.990 . S
Li266 O324 1.961 . S
Li266 O326 1.956 . S
Li266 O327 1.970 . S
Li267 N317 1.990 . S
Li267 O325 1.961 . S
Li267 O326 1.970 . S
Li267 O327 1.956 . S
C268 C270 1.348 . S
C268 C271 1.356 . S
C268 O324 1.325 . S
N269 C272 1.314 . S
N269 C273 1.279 . S
C270 C268 1.348 . S
C270 C272 1.353 . S
C270 H328 0.929 . S
C271 C268 1.356 . S
C271 C273 1.358 . S
C271 H329 0.930 . S
C272 N269 1.314 . S
C272 C270 1.353 . S
C272 H330 0.930 . S
C273 N269 1.279 . S
C273 C271 1.358 . S
C273 H331 0.930 . S
C274 C277 1.348 . S
C274 C278 1.356 . S
C274 O325 1.325 . S
C275 N276 1.279 . S
C275 C278 1.358 . S
C275 H332 0.930 . S
N276 C275 1.279 . S
N276 C279 1.314 . S
C277 C274 1.348 . S
C277 C279 1.353 . S
C277 H333 0.929 . S
C278 C274 1.356 . S
C278 C275 1.358 . S
C278 H334 0.930 . S
C279 N276 1.314 . S
C279 C277 1.353 . S
C279 H335 0.930 . S
C280 N281 1.314 . S
C280 C285 1.353 . S
C280 H286 0.930 . S
N281 Li264 1.990 . S
N281 C280 1.314 . S
N281 C283 1.279 . S
C282 C283 1.358 . S
C282 C284 1.356 . S
C282 H336 0.930 . S
C283 N281 1.279 . S
C283 C282 1.358 . S
C283 H287 0.930 . S
C284 C282 1.356 . S
C284 C285 1.348 . S
C285 C280 1.353 . S
C285 C284 1.348 . S
C285 H337 0.929 . S
H286 C280 0.930 . S
H287 C283 0.930 . S
C288 N289 1.314 . S
C288 C290 1.353 . S
C288 H294 0.930 . S
N289 Li265 1.990 . S
N289 C288 1.314 . S
N289 C292 1.279 . S
C290 C288 1.353 . S
C290 C293 1.348 . S
C290 H338 0.929 . S
C291 C292 1.358 . S
C291 C293 1.356 . S
C291 H339 0.930 . S
C292 N289 1.279 . S
C292 C291 1.358 . S
C292 H295 0.930 . S
C293 C290 1.348 . S
C293 C291 1.356 . S
H294 C288 0.930 . S
H295 C292 0.930 . S
C296 C298 1.348 . S
C296 C299 1.356 . S
C296 O326 1.325 . S
N297 C300 1.314 . S
N297 C301 1.279 . S
C298 C296 1.348 . S
C298 C300 1.353 . S
C298 H340 0.929 . S
C299 C296 1.356 . S
C299 C301 1.358 . S
C299 H341 0.930 . S
C300 N297 1.314 . S
C300 C298 1.353 . S
C300 H342 0.930 . S
C301 N297 1.279 . S
C301 C299 1.358 . S
C301 H343 0.930 . S
C302 C303 1.348 . S
C302 C304 1.356 . S
C302 O327 1.325 . S
C303 C302 1.348 . S
C303 C305 1.353 . S
C303 H344 0.929 . S
C304 C302 1.356 . S
C304 C306 1.358 . S
C304 H345 0.930 . S
C305 C303 1.353 . S
C305 N307 1.314 . S
C305 H346 0.930 . S
C306 C304 1.358 . S
C306 N307 1.279 . S
C306 H347 0.930 . S
N307 C305 1.314 . S
N307 C306 1.279 . S
C308 C310 1.353 . S
C308 N311 1.314 . S
C308 H314 0.930 . S
C309 N311 1.279 . S
C309 C312 1.358 . S
C309 H315 0.930 . S
C310 C308 1.353 . S
C310 C313 1.348 . S
C310 H348 0.929 . S
N311 Li266 1.990 . S
N311 C308 1.314 . S
N311 C309 1.279 . S
C312 C309 1.358 . S
C312 C313 1.356 . S
C312 H349 0.930 . S
C313 C310 1.348 . S
C313 C312 1.356 . S
H314 C308 0.930 . S
H315 C309 0.930 . S
C316 N317 1.314 . S
C316 C318 1.353 . S
C316 H322 0.930 . S
N317 Li267 1.990 . S
N317 C316 1.314 . S
N317 C320 1.279 . S
C318 C316 1.353 . S
C318 C321 1.348 . S
C318 H350 0.929 . S
C319 C320 1.358 . S
C319 C321 1.356 . S
C319 H351 0.930 . S
C320 N317 1.279 . S
C320 C319 1.358 . S
C320 H323 0.930 . S
C321 C318 1.348 . S
C321 C319 1.356 . S
H322 C316 0.930 . S
H323 C320 0.930 . S
O324 Li264 1.956 . S
O324 Li265 1.970 . S
O324 Li266 1.961 . S
O324 C268 1.325 . S
O325 Li264 1.970 . S
O325 Li265 1.956 . S
O325 Li267 1.961 . S
O325 C274 1.325 . S
O326 Li264 1.961 . S
O326 Li266 1.956 . S
O326 Li267 1.970 . S
O326 C296 1.325 . S
O327 Li265 1.961 . S
O327 Li266 1.970 . S
O327 Li267 1.956 . S
O327 C302 1.325 . S
H328 C270 0.929 . S
H329 C271 0.930 . S
H330 C272 0.930 . S
H331 C273 0.930 . S
H332 C275 0.930 . S
H333 C277 0.929 . S
H334 C278 0.930 . S
H335 C279 0.930 . S
H336 C282 0.930 . S
H337 C285 0.929 . S
H338 C290 0.929 . S
H339 C291 0.930 . S
H340 C298 0.929 . S
H341 C299 0.930 . S
H342 C300 0.930 . S
H343 C301 0.930 . S
H344 C303 0.929 . S
H345 C304 0.930 . S
H346 C305 0.930 . S
H347 C306 0.930 . S
H348 C310 0.929 . S
H349 C312 0.930 . S
H350 C318 0.929 . S
H351 C319 0.930 . S
Li352 N369 1.990 . S
Li352 O412 1.956 . S
Li352 O413 1.970 . S
Li352 O414 1.961 . S
Li353 N377 1.990 . S
Li353 O412 1.970 . S
Li353 O413 1.956 . S
Li353 O415 1.961 . S
Li354 N399 1.990 . S
Li354 O412 1.961 . S
Li354 O414 1.956 . S
Li354 O415 1.970 . S
Li355 N405 1.990 . S
Li355 O413 1.961 . S
Li355 O414 1.970 . S
Li355 O415 1.956 . S
C356 C358 1.348 . S
C356 C359 1.356 . S
C356 O412 1.325 . S
N357 C360 1.314 . S
N357 C361 1.279 . S
C358 C356 1.348 . S
C358 C360 1.353 . S
C358 H416 0.929 . S
C359 C356 1.356 . S
C359 C361 1.358 . S
C359 H417 0.930 . S
C360 N357 1.314 . S
C360 C358 1.353 . S
C360 H418 0.930 . S
C361 N357 1.279 . S
C361 C359 1.358 . S
C361 H419 0.930 . S
C362 C365 1.348 . S
C362 C366 1.356 . S
C362 O413 1.325 . S
C363 N364 1.279 . S
C363 C366 1.358 . S
C363 H420 0.930 . S
N364 C363 1.279 . S
N364 C367 1.314 . S
C365 C362 1.348 . S
C365 C367 1.353 . S
C365 H421 0.929 . S
C366 C362 1.356 . S
C366 C363 1.358 . S
C366 H422 0.930 . S
C367 N364 1.314 . S
C367 C365 1.353 . S
C367 H423 0.930 . S
C368 N369 1.314 . S
C368 C373 1.353 . S
C368 H374 0.930 . S
N369 Li352 1.990 . S
N369 C368 1.314 . S
N369 C371 1.279 . S
C370 C371 1.358 . S
C370 C372 1.356 . S
C370 H424 0.930 . S
C371 N369 1.279 . S
C371 C370 1.358 . S
C371 H375 0.930 . S
C372 C370 1.356 . S
C372 C373 1.348 . S
C373 C368 1.353 . S
C373 C372 1.348 . S
C373 H425 0.929 . S
H374 C368 0.930 . S
H375 C371 0.930 . S
C376 N377 1.314 . S
C376 C378 1.353 . S
C376 H382 0.930 . S
N377 Li353 1.990 . S
N377 C376 1.314 . S
N377 C380 1.279 . S
C378 C376 1.353 . S
C378 C381 1.348 . S
C378 H426 0.929 . S
C379 C380 1.358 . S
C379 C381 1.356 . S
C379 H427 0.930 . S
C380 N377 1.279 . S
C380 C379 1.358 . S
C380 H383 0.930 . S
C381 C378 1.348 . S
C381 C379 1.356 . S
H382 C376 0.930 . S
H383 C380 0.930 . S
C384 C386 1.348 . S
C384 C387 1.356 . S
C384 O414 1.325 . S
N385 C388 1.314 . S
N385 C389 1.279 . S
C386 C384 1.348 . S
C386 C388 1.353 . S
C386 H428 0.929 . S
C387 C384 1.356 . S
C387 C389 1.358 . S
C387 H429 0.930 . S
C388 N385 1.314 . S
C388 C386 1.353 . S
C388 H430 0.930 . S
C389 N385 1.279 . S
C389 C387 1.358 . S
C389 H431 0.930 . S
C390 C391 1.348 . S
C390 C392 1.356 . S
C390 O415 1.325 . S
C391 C390 1.348 . S
C391 C393 1.353 . S
C391 H432 0.929 . S
C392 C390 1.356 . S
C392 C394 1.358 . S
C392 H433 0.930 . S
C393 C391 1.353 . S
C393 N395 1.314 . S
C393 H434 0.930 . S
C394 C392 1.358 . S
C394 N395 1.279 . S
C394 H435 0.930 . S
N395 C393 1.314 . S
N395 C394 1.279 . S
C396 C398 1.353 . S
C396 N399 1.314 . S
C396 H402 0.930 . S
C397 N399 1.279 . S
C397 C400 1.358 . S
C397 H403 0.930 . S
C398 C396 1.353 . S
C398 C401 1.348 . S
C398 H436 0.929 . S
N399 Li354 1.990 . S
N399 C396 1.314 . S
N399 C397 1.279 . S
C400 C397 1.358 . S
C400 C401 1.356 . S
C400 H437 0.930 . S
C401 C398 1.348 . S
C401 C400 1.356 . S
H402 C396 0.930 . S
H403 C397 0.930 . S
C404 N405 1.314 . S
C404 C406 1.353 . S
C404 H410 0.930 . S
N405 Li355 1.990 . S
N405 C404 1.314 . S
N405 C408 1.279 . S
C406 C404 1.353 . S
C406 C409 1.348 . S
C406 H438 0.929 . S
C407 C408 1.358 . S
C407 C409 1.356 . S
C407 H439 0.930 . S
C408 N405 1.279 . S
C408 C407 1.358 . S
C408 H411 0.930 . S
C409 C406 1.348 . S
C409 C407 1.356 . S
H410 C404 0.930 . S
H411 C408 0.930 . S
O412 Li352 1.956 . S
O412 Li353 1.970 . S
O412 Li354 1.961 . S
O412 C356 1.325 . S
O413 Li352 1.970 . S
O413 Li353 1.956 . S
O413 Li355 1.961 . S
O413 C362 1.325 . S
O414 Li352 1.961 . S
O414 Li354 1.956 . S
O414 Li355 1.970 . S
O414 C384 1.325 . S
O415 Li353 1.961 . S
O415 Li354 1.970 . S
O415 Li355 1.956 . S
O415 C390 1.325 . S
H416 C358 0.929 . S
H417 C359 0.930 . S
H418 C360 0.930 . S
H419 C361 0.930 . S
H420 C363 0.930 . S
H421 C365 0.929 . S
H422 C366 0.930 . S
H423 C367 0.930 . S
H424 C370 0.930 . S
H425 C373 0.929 . S
H426 C378 0.929 . S
H427 C379 0.930 . S
H428 C386 0.929 . S
H429 C387 0.930 . S
H430 C388 0.930 . S
H431 C389 0.930 . S
H432 C391 0.929 . S
H433 C392 0.930 . S
H434 C393 0.930 . S
H435 C394 0.930 . S
H436 C398 0.929 . S
H437 C400 0.930 . S
H438 C406 0.929 . S
H439 C407 0.930 . S
Li440 N457 1.990 . S
Li440 O500 1.956 . S
Li440 O501 1.970 . S
Li440 O502 1.961 . S
Li441 N465 1.990 . S
Li441 O500 1.970 . S
Li441 O501 1.956 . S
Li441 O503 1.961 . S
Li442 N487 1.990 . S
Li442 O500 1.961 . S
Li442 O502 1.956 . S
Li442 O503 1.970 . S
Li443 N493 1.990 . S
Li443 O501 1.961 . S
Li443 O502 1.970 . S
Li443 O503 1.956 . S
C444 C446 1.348 . S
C444 C447 1.356 . S
C444 O500 1.325 . S
N445 C448 1.314 . S
N445 C449 1.279 . S
C446 C444 1.348 . S
C446 C448 1.353 . S
C446 H504 0.929 . S
C447 C444 1.356 . S
C447 C449 1.358 . S
C447 H505 0.930 . S
C448 N445 1.314 . S
C448 C446 1.353 . S
C448 H506 0.930 . S
C449 N445 1.279 . S
C449 C447 1.358 . S
C449 H507 0.930 . S
C450 C453 1.348 . S
C450 C454 1.356 . S
C450 O501 1.325 . S
C451 N452 1.279 . S
C451 C454 1.358 . S
C451 H508 0.930 . S
N452 C451 1.279 . S
N452 C455 1.314 . S
C453 C450 1.348 . S
C453 C455 1.353 . S
C453 H509 0.929 . S
C454 C450 1.356 . S
C454 C451 1.358 . S
C454 H510 0.930 . S
C455 N452 1.314 . S
C455 C453 1.353 . S
C455 H511 0.930 . S
C456 N457 1.314 . S
C456 C461 1.353 . S
C456 H462 0.930 . S
N457 Li440 1.990 . S
N457 C456 1.314 . S
N457 C459 1.279 . S
C458 C459 1.358 . S
C458 C460 1.356 . S
C458 H512 0.930 . S
C459 N457 1.279 . S
C459 C458 1.358 . S
C459 H463 0.930 . S
C460 C458 1.356 . S
C460 C461 1.348 . S
C461 C456 1.353 . S
C461 C460 1.348 . S
C461 H513 0.929 . S
H462 C456 0.930 . S
H463 C459 0.930 . S
C464 N465 1.314 . S
C464 C466 1.353 . S
C464 H470 0.930 . S
N465 Li441 1.990 . S
N465 C464 1.314 . S
N465 C468 1.279 . S
C466 C464 1.353 . S
C466 C469 1.348 . S
C466 H514 0.929 . S
C467 C468 1.358 . S
C467 C469 1.356 . S
C467 H515 0.930 . S
C468 N465 1.279 . S
C468 C467 1.358 . S
C468 H471 0.930 . S
C469 C466 1.348 . S
C469 C467 1.356 . S
H470 C464 0.930 . S
H471 C468 0.930 . S
C472 C474 1.348 . S
C472 C475 1.356 . S
C472 O502 1.325 . S
N473 C476 1.314 . S
N473 C477 1.279 . S
C474 C472 1.348 . S
C474 C476 1.353 . S
C474 H516 0.929 . S
C475 C472 1.356 . S
C475 C477 1.358 . S
C475 H517 0.930 . S
C476 N473 1.314 . S
C476 C474 1.353 . S
C476 H518 0.930 . S
C477 N473 1.279 . S
C477 C475 1.358 . S
C477 H519 0.930 . S
C478 C479 1.348 . S
C478 C480 1.356 . S
C478 O503 1.325 . S
C479 C478 1.348 . S
C479 C481 1.353 . S
C479 H520 0.929 . S
C480 C478 1.356 . S
C480 C482 1.358 . S
C480 H521 0.930 . S
C481 C479 1.353 . S
C481 N483 1.314 . S
C481 H522 0.930 . S
C482 C480 1.358 . S
C482 N483 1.279 . S
C482 H523 0.930 . S
N483 C481 1.314 . S
N483 C482 1.279 . S
C484 C486 1.353 . S
C484 N487 1.314 . S
C484 H490 0.930 . S
C485 N487 1.279 . S
C485 C488 1.358 . S
C485 H491 0.930 . S
C486 C484 1.353 . S
C486 C489 1.348 . S
C486 H524 0.929 . S
N487 Li442 1.990 . S
N487 C484 1.314 . S
N487 C485 1.279 . S
C488 C485 1.358 . S
C488 C489 1.356 . S
C488 H525 0.930 . S
C489 C486 1.348 . S
C489 C488 1.356 . S
H490 C484 0.930 . S
H491 C485 0.930 . S
C492 N493 1.314 . S
C492 C494 1.353 . S
C492 H498 0.930 . S
N493 Li443 1.990 . S
N493 C492 1.314 . S
N493 C496 1.279 . S
C494 C492 1.353 . S
C494 C497 1.348 . S
C494 H526 0.929 . S
C495 C496 1.358 . S
C495 C497 1.356 . S
C495 H527 0.930 . S
C496 N493 1.279 . S
C496 C495 1.358 . S
C496 H499 0.930 . S
C497 C494 1.348 . S
C497 C495 1.356 . S
H498 C492 0.930 . S
H499 C496 0.930 . S
O500 Li440 1.956 . S
O500 Li441 1.970 . S
O500 Li442 1.961 . S
O500 C444 1.325 . S
O501 Li440 1.970 . S
O501 Li441 1.956 . S
O501 Li443 1.961 . S
O501 C450 1.325 . S
O502 Li440 1.961 . S
O502 Li442 1.956 . S
O502 Li443 1.970 . S
O502 C472 1.325 . S
O503 Li441 1.961 . S
O503 Li442 1.970 . S
O503 Li443 1.956 . S
O503 C478 1.325 . S
H504 C446 0.929 . S
H505 C447 0.930 . S
H506 C448 0.930 . S
H507 C449 0.930 . S
H508 C451 0.930 . S
H509 C453 0.929 . S
H510 C454 0.930 . S
H511 C455 0.930 . S
H512 C458 0.930 . S
H513 C461 0.929 . S
H514 C466 0.929 . S
H515 C467 0.930 . S
H516 C474 0.929 . S
H517 C475 0.930 . S
H518 C476 0.930 . S
H519 C477 0.930 . S
H520 C479 0.929 . S
H521 C480 0.930 . S
H522 C481 0.930 . S
H523 C482 0.930 . S
H524 C486 0.929 . S
H525 C488 0.930 . S
H526 C494 0.929 . S
H527 C495 0.930 . S
Li528 N545 1.990 . S
Li528 O588 1.956 . S
Li528 O589 1.970 . S
Li528 O590 1.961 . S
Li529 N553 1.990 . S
Li529 O588 1.970 . S
Li529 O589 1.956 . S
Li529 O591 1.961 . S
Li530 N575 1.990 . S
Li530 O588 1.961 . S
Li530 O590 1.956 . S
Li530 O591 1.970 . S
Li531 N581 1.990 . S
Li531 O589 1.961 . S
Li531 O590 1.970 . S
Li531 O591 1.956 . S
C532 C534 1.348 . S
C532 C535 1.356 . S
C532 O588 1.325 . S
N533 C536 1.314 . S
N533 C537 1.279 . S
C534 C532 1.348 . S
C534 C536 1.353 . S
C534 H592 0.929 . S
C535 C532 1.356 . S
C535 C537 1.358 . S
C535 H593 0.930 . S
C536 N533 1.314 . S
C536 C534 1.353 . S
C536 H594 0.930 . S
C537 N533 1.279 . S
C537 C535 1.358 . S
C537 H595 0.930 . S
C538 C541 1.348 . S
C538 C542 1.356 . S
C538 O589 1.325 . S
C539 N540 1.279 . S
C539 C542 1.358 . S
C539 H596 0.930 . S
N540 C539 1.279 . S
N540 C543 1.314 . S
C541 C538 1.348 . S
C541 C543 1.353 . S
C541 H597 0.929 . S
C542 C538 1.356 . S
C542 C539 1.358 . S
C542 H598 0.930 . S
C543 N540 1.314 . S
C543 C541 1.353 . S
C543 H599 0.930 . S
C544 N545 1.314 . S
C544 C549 1.353 . S
C544 H550 0.930 . S
N545 Li528 1.990 . S
N545 C544 1.314 . S
N545 C547 1.279 . S
C546 C547 1.358 . S
C546 C548 1.356 . S
C546 H600 0.930 . S
C547 N545 1.279 . S
C547 C546 1.358 . S
C547 H551 0.930 . S
C548 C546 1.356 . S
C548 C549 1.348 . S
C549 C544 1.353 . S
C549 C548 1.348 . S
C549 H601 0.929 . S
H550 C544 0.930 . S
H551 C547 0.930 . S
C552 N553 1.314 . S
C552 C554 1.353 . S
C552 H558 0.930 . S
N553 Li529 1.990 . S
N553 C552 1.314 . S
N553 C556 1.279 . S
C554 C552 1.353 . S
C554 C557 1.348 . S
C554 H602 0.929 . S
C555 C556 1.358 . S
C555 C557 1.356 . S
C555 H603 0.930 . S
C556 N553 1.279 . S
C556 C555 1.358 . S
C556 H559 0.930 . S
C557 C554 1.348 . S
C557 C555 1.356 . S
H558 C552 0.930 . S
H559 C556 0.930 . S
C560 C562 1.348 . S
C560 C563 1.356 . S
C560 O590 1.325 . S
N561 C564 1.314 . S
N561 C565 1.279 . S
C562 C560 1.348 . S
C562 C564 1.353 . S
C562 H604 0.929 . S
C563 C560 1.356 . S
C563 C565 1.358 . S
C563 H605 0.930 . S
C564 N561 1.314 . S
C564 C562 1.353 . S
C564 H606 0.930 . S
C565 N561 1.279 . S
C565 C563 1.358 . S
C565 H607 0.930 . S
C566 C567 1.348 . S
C566 C568 1.356 . S
C566 O591 1.325 . S
C567 C566 1.348 . S
C567 C569 1.353 . S
C567 H608 0.929 . S
C568 C566 1.356 . S
C568 C570 1.358 . S
C568 H609 0.930 . S
C569 C567 1.353 . S
C569 N571 1.314 . S
C569 H610 0.930 . S
C570 C568 1.358 . S
C570 N571 1.279 . S
C570 H611 0.930 . S
N571 C569 1.314 . S
N571 C570 1.279 . S
C572 C574 1.353 . S
C572 N575 1.314 . S
C572 H578 0.930 . S
C573 N575 1.279 . S
C573 C576 1.358 . S
C573 H579 0.930 . S
C574 C572 1.353 . S
C574 C577 1.348 . S
C574 H612 0.929 . S
N575 Li530 1.990 . S
N575 C572 1.314 . S
N575 C573 1.279 . S
C576 C573 1.358 . S
C576 C577 1.356 . S
C576 H613 0.930 . S
C577 C574 1.348 . S
C577 C576 1.356 . S
H578 C572 0.930 . S
H579 C573 0.930 . S
C580 N581 1.314 . S
C580 C582 1.353 . S
C580 H586 0.930 . S
N581 Li531 1.990 . S
N581 C580 1.314 . S
N581 C584 1.279 . S
C582 C580 1.353 . S
C582 C585 1.348 . S
C582 H614 0.929 . S
C583 C584 1.358 . S
C583 C585 1.356 . S
C583 H615 0.930 . S
C584 N581 1.279 . S
C584 C583 1.358 . S
C584 H587 0.930 . S
C585 C582 1.348 . S
C585 C583 1.356 . S
H586 C580 0.930 . S
H587 C584 0.930 . S
O588 Li528 1.956 . S
O588 Li529 1.970 . S
O588 Li530 1.961 . S
O588 C532 1.325 . S
O589 Li528 1.970 . S
O589 Li529 1.956 . S
O589 Li531 1.961 . S
O589 C538 1.325 . S
O590 Li528 1.961 . S
O590 Li530 1.956 . S
O590 Li531 1.970 . S
O590 C560 1.325 . S
O591 Li529 1.961 . S
O591 Li530 1.970 . S
O591 Li531 1.956 . S
O591 C566 1.325 . S
H592 C534 0.929 . S
H593 C535 0.930 . S
H594 C536 0.930 . S
H595 C537 0.930 . S
H596 C539 0.930 . S
H597 C541 0.929 . S
H598 C542 0.930 . S
H599 C543 0.930 . S
H600 C546 0.930 . S
H601 C549 0.929 . S
H602 C554 0.929 . S
H603 C555 0.930 . S
H604 C562 0.929 . S
H605 C563 0.930 . S
H606 C564 0.930 . S
H607 C565 0.930 . S
H608 C567 0.929 . S
H609 C568 0.930 . S
H610 C569 0.930 . S
H611 C570 0.930 . S
H612 C574 0.929 . S
H613 C576 0.930 . S
H614 C582 0.929 . S
H615 C583 0.930 . S
Li616 N633 1.990 . S
Li616 O676 1.958 1_455 S
Li616 O677 1.970 . S
Li616 O678 1.961 . S
Li617 N641 1.953 1_455 S
Li617 O676 1.966 1_455 S
Li617 O677 1.986 . S
Li617 O679 1.997 . S
Li618 N663 1.990 . S
Li618 O676 1.963 1_455 S
Li618 O678 1.956 . S
Li618 O679 1.970 . S
Li619 N669 1.990 . S
Li619 O677 1.961 . S
Li619 O678 1.970 . S
Li619 O679 1.956 . S
C620 C622 1.348 . S
C620 C623 1.356 . S
C620 O676 1.322 . S
N621 C624 1.314 . S
N621 C625 1.279 . S
C622 C620 1.348 . S
C622 C624 1.353 . S
C622 H680 0.929 . S
C623 C620 1.356 . S
C623 C625 1.358 . S
C623 H681 0.930 . S
C624 N621 1.314 . S
C624 C622 1.353 . S
C624 H682 0.930 . S
C625 N621 1.279 . S
C625 C623 1.358 . S
C625 H683 0.930 1_556 S
C626 C629 1.348 . S
C626 C630 1.356 . S
C626 O677 1.325 . S
C627 N628 1.279 . S
C627 C630 1.358 . S
C627 H684 0.930 . S
N628 C627 1.279 . S
N628 C631 1.314 . S
C629 C626 1.348 . S
C629 C631 1.353 . S
C629 H685 0.929 . S
C630 C626 1.356 . S
C630 C627 1.358 . S
C630 H686 0.930 . S
C631 N628 1.314 . S
C631 C629 1.353 . S
C631 H687 0.930 . S
C632 N633 1.314 . S
C632 C637 1.353 . S
C632 H638 0.930 . S
N633 Li616 1.990 . S
N633 C632 1.314 . S
N633 C635 1.279 . S
C634 C635 1.358 . S
C634 C636 1.356 . S
C634 H688 0.934 . S
C635 N633 1.279 . S
C635 C634 1.358 . S
C635 H639 0.938 . S
C636 C634 1.356 . S
C636 C637 1.348 . S
C637 C632 1.353 . S
C637 C636 1.348 . S
C637 H689 0.929 . S
H638 C632 0.930 . S
H639 C635 0.938 . S
C640 N641 1.314 . S
C640 C642 1.353 . S
C640 H646 0.930 . S
N641 Li617 1.953 1_655 S
N641 C640 1.314 . S
N641 C644 1.279 . S
C642 C640 1.353 . S
C642 C645 1.348 . S
C642 H690 0.929 . S
C643 C644 1.358 . S
C643 C645 1.356 . S
C643 H691 0.930 . S
C644 N641 1.279 . S
C644 C643 1.358 . S
C644 H647 0.930 . S
C645 C642 1.348 . S
C645 C643 1.356 . S
H646 C640 0.930 . S
H647 C644 0.930 . S
C648 C650 1.348 . S
C648 C651 1.356 . S
C648 O678 1.325 . S
N649 C652 1.314 . S
N649 C653 1.279 . S
C650 C648 1.348 . S
C650 C652 1.353 . S
C650 H692 0.929 . S
C651 C648 1.356 . S
C651 C653 1.358 . S
C651 H693 0.930 . S
C652 N649 1.314 . S
C652 C650 1.353 . S
C652 H694 0.930 . S
C653 N649 1.279 . S
C653 C651 1.358 . S
C653 H695 0.930 1_556 S
C654 C655 1.348 . S
C654 C656 1.356 . S
C654 O679 1.325 . S
C655 C654 1.348 . S
C655 C657 1.353 . S
C655 H696 0.929 . S
C656 C654 1.356 . S
C656 C658 1.358 . S
C656 H697 0.930 . S
C657 C655 1.353 . S
C657 N659 1.314 . S
C657 H698 0.930 . S
C658 C656 1.358 . S
C658 N659 1.279 . S
C658 H699 0.930 . S
N659 C657 1.314 . S
N659 C658 1.279 . S
C660 C662 1.353 1_455 S
C660 N663 1.314 . S
C660 H666 0.930 1_455 S
C661 N663 1.279 . S
C661 C664 1.358 . S
C661 H667 0.930 . S
C662 C660 1.353 1_655 S
C662 C665 1.348 1_655 S
C662 H700 0.929 . S
N663 Li618 1.990 . S
N663 C660 1.314 . S
N663 C661 1.279 . S
C664 C661 1.358 . S
C664 C665 1.356 . S
C664 H701 0.930 . S
C665 C662 1.348 1_455 S
C665 C664 1.356 . S
H666 C660 0.930 1_655 S
H667 C661 0.930 . S
C668 N669 1.314 . S
C668 C670 1.353 . S
C668 H674 0.930 . S
N669 Li619 1.990 . S
N669 C668 1.314 . S
N669 C672 1.279 . S
C670 C668 1.353 . S
C670 C673 1.348 . S
C670 H702 0.929 . S
C671 C672 1.358 . S
C671 C673 1.356 . S
C671 H703 0.930 . S
C672 N669 1.279 . S
C672 C671 1.358 . S
C672 H675 0.930 . S
C673 C670 1.348 . S
C673 C671 1.356 . S
H674 C668 0.930 . S
H675 C672 0.930 . S
O676 Li616 1.958 1_655 S
O676 Li617 1.966 1_655 S
O676 Li618 1.963 1_655 S
O676 C620 1.322 . S
O677 Li616 1.970 . S
O677 Li617 1.986 . S
O677 Li619 1.961 . S
O677 C626 1.325 . S
O678 Li616 1.961 . S
O678 Li618 1.956 . S
O678 Li619 1.970 . S
O678 C648 1.325 . S
O679 Li617 1.997 . S
O679 Li618 1.970 . S
O679 Li619 1.956 . S
O679 C654 1.325 . S
H680 C622 0.929 . S
H681 C623 0.930 . S
H682 C624 0.930 . S
H683 C625 0.930 1_554 S
H684 C627 0.930 . S
H685 C629 0.929 . S
H686 C630 0.930 . S
H687 C631 0.930 . S
H688 C634 0.934 . S
H689 C637 0.929 . S
H690 C642 0.929 . S
H691 C643 0.930 . S
H692 C650 0.929 . S
H693 C651 0.930 . S
H694 C652 0.930 . S
H695 C653 0.930 1_554 S
H696 C655 0.929 . S
H697 C656 0.930 . S
H698 C657 0.930 . S
H699 C658 0.930 . S
H700 C662 0.929 . S
H701 C664 0.930 . S
H702 C670 0.929 . S
H703 C671 0.930 . S
Li704 N721 1.990 . S
Li704 O764 1.956 . S
Li704 O765 1.970 . S
Li704 O766 1.961 . S
Li705 N729 1.990 1_545 S
Li705 O764 1.970 . S
Li705 O765 1.956 . S
Li705 O767 1.961 . S
Li706 N751 1.990 . S
Li706 O764 1.961 . S
Li706 O766 1.956 . S
Li706 O767 1.970 . S
Li707 N757 1.990 . S
Li707 O765 1.961 . S
Li707 O766 1.970 . S
Li707 O767 1.956 . S
C708 C710 1.348 . S
C708 C711 1.356 . S
C708 O764 1.325 1_565 S
N709 C712 1.314 . S
N709 C713 1.279 . S
C710 C708 1.348 . S
C710 C712 1.353 . S
C710 H768 0.929 . S
C711 C708 1.356 . S
C711 C713 1.358 . S
C711 H769 0.930 1_565 S
C712 N709 1.314 . S
C712 C710 1.353 . S
C712 H770 0.930 . S
C713 N709 1.279 . S
C713 C711 1.358 . S
C713 H771 0.930 . S
C714 C717 1.348 . S
C714 C718 1.356 . S
C714 O765 1.325 . S
C715 N716 1.279 . S
C715 C718 1.358 . S
C715 H772 0.930 . S
N716 C715 1.279 . S
N716 C719 1.314 . S
C717 C714 1.348 . S
C717 C719 1.353 . S
C717 H773 0.929 . S
C718 C714 1.356 . S
C718 C715 1.358 . S
C718 H774 0.930 . S
C719 N716 1.314 . S
C719 C717 1.353 . S
C719 H775 0.930 . S
C720 N721 1.314 . S
C720 C725 1.353 . S
C720 H726 0.930 . S
N721 Li704 1.990 . S
N721 C720 1.314 . S
N721 C723 1.279 . S
C722 C723 1.358 . S
C722 C724 1.356 . S
C722 H776 0.930 . S
C723 N721 1.279 . S
C723 C722 1.358 . S
C723 H727 0.930 . S
C724 C722 1.356 . S
C724 C725 1.348 . S
C725 C720 1.353 . S
C725 C724 1.348 . S
C725 H777 0.929 . S
H726 C720 0.930 . S
H727 C723 0.930 . S
C728 N729 1.314 . S
C728 C730 1.353 . S
C728 H734 0.930 . S
N729 Li705 1.990 1_565 S
N729 C728 1.314 . S
N729 C732 1.279 . S
C730 C728 1.353 . S
C730 C733 1.348 . S
C730 H778 0.929 . S
C731 C732 1.358 . S
C731 C733 1.356 . S
C731 H779 0.930 . S
C732 N729 1.279 . S
C732 C731 1.358 . S
C732 H735 0.930 . S
C733 C730 1.348 . S
C733 C731 1.356 . S
H734 C728 0.930 . S
H735 C732 0.930 . S
C736 C738 1.348 . S
C736 C739 1.356 . S
C736 O766 1.325 . S
N737 C740 1.314 . S
N737 C741 1.279 . S
C738 C736 1.348 . S
C738 C740 1.353 . S
C738 H780 0.929 . S
C739 C736 1.356 . S
C739 C741 1.358 . S
C739 H781 0.930 . S
C740 N737 1.314 . S
C740 C738 1.353 . S
C740 H782 0.930 . S
C741 N737 1.279 . S
C741 C739 1.358 . S
C741 H783 0.930 . S
C742 C743 1.348 . S
C742 C744 1.356 . S
C742 O767 1.325 . S
C743 C742 1.348 . S
C743 C745 1.353 . S
C743 H784 0.929 . S
C744 C742 1.356 . S
C744 C746 1.358 . S
C744 H785 0.930 . S
C745 C743 1.353 . S
C745 N747 1.314 . S
C745 H786 0.930 . S
C746 C744 1.358 . S
C746 N747 1.279 . S
C746 H787 0.930 . S
N747 C745 1.314 . S
N747 C746 1.279 . S
C748 C750 1.353 . S
C748 N751 1.314 . S
C748 H754 0.977 . S
C749 N751 1.279 . S
C749 C752 1.358 . S
C749 H755 0.930 . S
C750 C748 1.353 . S
C750 C753 1.348 . S
C750 H788 0.929 1_545 S
N751 Li706 1.990 . S
N751 C748 1.314 . S
N751 C749 1.279 . S
C752 C749 1.358 . S
C752 C753 1.356 . S
C752 H789 0.930 . S
C753 C750 1.348 . S
C753 C752 1.356 . S
H754 C748 0.977 . S
H755 C749 0.930 . S
C756 N757 1.314 . S
C756 C758 1.353 . S
C756 H762 0.930 . S
N757 Li707 1.990 . S
N757 C756 1.314 . S
N757 C760 1.279 . S
C758 C756 1.353 . S
C758 C761 1.348 . S
C758 H790 0.929 . S
C759 C760 1.358 . S
C759 C761 1.356 . S
C759 H791 0.930 . S
C760 N757 1.279 . S
C760 C759 1.358 . S
C760 H763 0.930 . S
C761 C758 1.348 . S
C761 C759 1.356 . S
H762 C756 0.930 . S
H763 C760 0.930 . S
O764 Li704 1.956 . S
O764 Li705 1.970 . S
O764 Li706 1.961 . S
O764 C708 1.325 1_545 S
O765 Li704 1.970 . S
O765 Li705 1.956 . S
O765 Li707 1.961 . S
O765 C714 1.325 . S
O766 Li704 1.961 . S
O766 Li706 1.956 . S
O766 Li707 1.970 . S
O766 C736 1.325 . S
O767 Li705 1.961 . S
O767 Li706 1.970 . S
O767 Li707 1.956 . S
O767 C742 1.325 . S
H768 C710 0.929 . S
H769 C711 0.930 1_545 S
H770 C712 0.930 . S
H771 C713 0.930 . S
H772 C715 0.930 . S
H773 C717 0.929 . S
H774 C718 0.930 . S
H775 C719 0.930 . S
H776 C722 0.930 . S
H777 C725 0.929 . S
H778 C730 0.929 . S
H779 C731 0.930 . S
H780 C738 0.929 . S
H781 C739 0.930 . S
H782 C740 0.930 . S
H783 C741 0.930 . S
H784 C743 0.929 . S
H785 C744 0.930 . S
H786 C745 0.930 . S
H787 C746 0.930 . S
H788 C750 0.929 1_565 S
H789 C752 0.930 . S
H790 C758 0.929 . S
H791 C759 0.930 . S
Li792 N809 1.990 . S
Li792 O852 1.956 . S
Li792 O853 1.970 . S
Li792 O854 1.961 . S
Li793 N817 1.990 . S
Li793 O852 1.970 . S
Li793 O853 1.956 . S
Li793 O855 1.961 . S
Li794 N839 1.990 . S
Li794 O852 1.961 . S
Li794 O854 1.956 . S
Li794 O855 1.970 . S
Li795 N845 1.990 . S
Li795 O853 1.961 . S
Li795 O854 1.970 . S
Li795 O855 1.956 . S
C796 C798 1.348 . S
C796 C799 1.356 . S
C796 O852 1.325 . S
N797 C800 1.314 . S
N797 C801 1.279 . S
C798 C796 1.348 . S
C798 C800 1.353 . S
C798 H856 0.929 . S
C799 C796 1.356 . S
C799 C801 1.358 . S
C799 H857 0.930 . S
C800 N797 1.314 . S
C800 C798 1.353 . S
C800 H858 0.930 . S
C801 N797 1.279 . S
C801 C799 1.358 . S
C801 H859 0.930 . S
C802 C805 1.348 . S
C802 C806 1.356 . S
C802 O853 1.325 . S
C803 N804 1.279 . S
C803 C806 1.358 . S
C803 H860 0.930 . S
N804 C803 1.279 . S
N804 C807 1.314 . S
C805 C802 1.348 . S
C805 C807 1.353 . S
C805 H861 0.929 . S
C806 C802 1.356 . S
C806 C803 1.358 . S
C806 H862 0.930 . S
C807 N804 1.314 . S
C807 C805 1.353 . S
C807 H863 0.930 . S
C808 N809 1.314 . S
C808 C813 1.353 . S
C808 H814 0.930 . S
N809 Li792 1.990 . S
N809 C808 1.314 . S
N809 C811 1.279 . S
C810 C811 1.358 . S
C810 C812 1.356 . S
C810 H864 0.930 . S
C811 N809 1.279 . S
C811 C810 1.358 . S
C811 H815 0.930 . S
C812 C810 1.356 . S
C812 C813 1.348 . S
C813 C808 1.353 . S
C813 C812 1.348 . S
C813 H865 0.929 . S
H814 C808 0.930 . S
H815 C811 0.930 . S
C816 N817 1.314 . S
C816 C818 1.353 . S
C816 H822 0.930 . S
N817 Li793 1.990 . S
N817 C816 1.314 . S
N817 C820 1.279 . S
C818 C816 1.353 . S
C818 C821 1.348 . S
C818 H866 0.929 . S
C819 C820 1.358 . S
C819 C821 1.356 . S
C819 H867 0.930 . S
C820 N817 1.279 . S
C820 C819 1.358 . S
C820 H823 0.930 . S
C821 C818 1.348 . S
C821 C819 1.356 . S
H822 C816 0.930 . S
H823 C820 0.930 . S
C824 C826 1.348 . S
C824 C827 1.356 . S
C824 O854 1.325 . S
N825 C828 1.314 . S
N825 C829 1.279 . S
C826 C824 1.348 . S
C826 C828 1.353 . S
C826 H868 0.929 . S
C827 C824 1.356 . S
C827 C829 1.358 . S
C827 H869 0.930 . S
C828 N825 1.314 . S
C828 C826 1.353 . S
C828 H870 0.930 . S
C829 N825 1.279 . S
C829 C827 1.358 . S
C829 H871 0.930 . S
C830 C831 1.348 . S
C830 C832 1.356 . S
C830 O855 1.325 . S
C831 C830 1.348 . S
C831 C833 1.353 . S
C831 H872 0.929 . S
C832 C830 1.356 . S
C832 C834 1.358 . S
C832 H873 0.930 . S
C833 C831 1.353 . S
C833 N835 1.314 . S
C833 H874 0.930 . S
C834 C832 1.358 . S
C834 N835 1.279 . S
C834 H875 0.930 . S
N835 C833 1.314 . S
N835 C834 1.279 . S
C836 C838 1.353 . S
C836 N839 1.314 . S
C836 H842 0.930 . S
C837 N839 1.279 . S
C837 C840 1.358 . S
C837 H843 0.930 . S
C838 C836 1.353 . S
C838 C841 1.348 . S
C838 H876 0.929 . S
N839 Li794 1.990 . S
N839 C836 1.314 . S
N839 C837 1.279 . S
C840 C837 1.358 . S
C840 C841 1.356 . S
C840 H877 0.930 . S
C841 C838 1.348 . S
C841 C840 1.356 . S
H842 C836 0.930 . S
H843 C837 0.930 . S
C844 N845 1.314 . S
C844 C846 1.353 . S
C844 H850 0.930 . S
N845 Li795 1.990 . S
N845 C844 1.314 . S
N845 C848 1.279 . S
C846 C844 1.353 . S
C846 C849 1.348 . S
C846 H878 0.929 . S
C847 C848 1.358 . S
C847 C849 1.356 . S
C847 H879 0.930 . S
C848 N845 1.279 . S
C848 C847 1.358 . S
C848 H851 0.930 . S
C849 C846 1.348 . S
C849 C847 1.356 . S
H850 C844 0.930 . S
H851 C848 0.930 . S
O852 Li792 1.956 . S
O852 Li793 1.970 . S
O852 Li794 1.961 . S
O852 C796 1.325 . S
O853 Li792 1.970 . S
O853 Li793 1.956 . S
O853 Li795 1.961 . S
O853 C802 1.325 . S
O854 Li792 1.961 . S
O854 Li794 1.956 . S
O854 Li795 1.970 . S
O854 C824 1.325 . S
O855 Li793 1.961 . S
O855 Li794 1.970 . S
O855 Li795 1.956 . S
O855 C830 1.325 . S
H856 C798 0.929 . S
H857 C799 0.930 . S
H858 C800 0.930 . S
H859 C801 0.930 . S
H860 C803 0.930 . S
H861 C805 0.929 . S
H862 C806 0.930 . S
H863 C807 0.930 . S
H864 C810 0.930 . S
H865 C813 0.929 . S
H866 C818 0.929 . S
H867 C819 0.930 . S
H868 C826 0.929 . S
H869 C827 0.930 . S
H870 C828 0.930 . S
H871 C829 0.930 . S
H872 C831 0.929 . S
H873 C832 0.930 . S
H874 C833 0.930 . S
H875 C834 0.930 . S
H876 C838 0.929 . S
H877 C840 0.930 . S
H878 C846 0.929 . S
H879 C847 0.930 . S
Li880 N897 1.990 . S
Li880 O940 1.956 . S
Li880 O941 1.970 . S
Li880 O942 1.981 . S
Li881 N905 1.990 . S
Li881 O940 1.967 . S
Li881 O941 1.978 . S
Li881 O943 1.942 1_545 S
Li882 N927 1.990 . S
Li882 O940 1.961 1_565 S
Li882 O942 1.930 1_565 S
Li882 O943 1.970 . S
Li883 N933 1.990 . S
Li883 O941 1.961 1_565 S
Li883 O942 1.972 1_565 S
Li883 O943 1.956 . S
C884 C886 1.348 . S
C884 C887 1.356 . S
C884 O940 1.325 . S
N885 C888 1.314 . S
N885 C889 1.279 . S
C886 C884 1.348 . S
C886 C888 1.353 . S
C886 H944 0.929 . S
C887 C884 1.356 . S
C887 C889 1.358 . S
C887 H945 0.930 . S
C888 N885 1.314 . S
C888 C886 1.353 . S
C888 H946 0.930 . S
C889 N885 1.279 . S
C889 C887 1.358 . S
C889 H947 0.930 . S
C890 C893 1.348 . S
C890 C894 1.356 . S
C890 O941 1.325 . S
C891 N892 1.279 . S
C891 C894 1.358 . S
C891 H948 0.930 . S
N892 C891 1.279 . S
N892 C895 1.314 . S
C893 C890 1.348 . S
C893 C895 1.353 . S
C893 H949 0.929 . S
C894 C890 1.356 . S
C894 C891 1.358 . S
C894 H950 0.930 . S
C895 N892 1.314 . S
C895 C893 1.353 . S
C895 H951 0.930 . S
C896 N897 1.314 . S
C896 C901 1.353 . S
C896 H902 0.930 . S
N897 Li880 1.990 . S
N897 C896 1.314 . S
N897 C899 1.279 . S
C898 C899 1.358 . S
C898 C900 1.356 . S
C898 H952 0.930 . S
C899 N897 1.279 . S
C899 C898 1.358 . S
C899 H903 0.930 . S
C900 C898 1.356 . S
C900 C901 1.348 . S
C901 C896 1.353 . S
C901 C900 1.348 . S
C901 H953 0.929 . S
H902 C896 0.930 . S
H903 C899 0.930 . S
C904 N905 1.290 1_565 S
C904 C906 1.353 . S
C904 H910 0.930 . S
N905 Li881 1.990 . S
N905 C904 1.290 1_545 S
N905 C908 1.302 . S
C906 C904 1.353 . S
C906 C909 1.352 1_565 S
C906 H954 0.929 . S
C907 C908 1.358 . S
C907 C909 1.351 . S
C907 H955 0.930 . S
C908 N905 1.302 . S
C908 C907 1.358 . S
C908 H911 0.930 . S
C909 C906 1.352 1_545 S
C909 C907 1.351 . S
H910 C904 0.930 . S
H911 C908 0.930 . S
C912 C914 1.346 1_545 S
C912 C915 1.357 . S
C912 O942 1.325 . S
N913 C916 1.323 . S
N913 C917 1.274 1_565 S
C914 C912 1.346 1_565 S
C914 C916 1.353 . S
C914 H956 0.929 . S
C915 C912 1.357 . S
C915 C917 1.358 . S
C915 H957 0.930 . S
C916 N913 1.323 . S
C916 C914 1.353 . S
C916 H958 0.930 . S
C917 N913 1.274 1_545 S
C917 C915 1.358 . S
C917 H959 0.930 . S
C918 C919 1.348 . S
C918 C920 1.356 . S
C918 O943 1.325 . S
C919 C918 1.348 . S
C919 C921 1.353 . S
C919 H960 0.929 . S
C920 C918 1.356 . S
C920 C922 1.358 . S
C920 H961 0.930 . S
C921 C919 1.353 . S
C921 N923 1.314 . S
C921 H962 0.930 . S
C922 C920 1.358 . S
C922 N923 1.279 . S
C922 H963 0.930 . S
N923 C921 1.314 . S
N923 C922 1.279 . S
C924 C926 1.353 . S
C924 N927 1.314 . S
C924 H930 0.930 . S
C925 N927 1.279 . S
C925 C928 1.358 . S
C925 H931 0.930 . S
C926 C924 1.353 . S
C926 C929 1.348 . S
C926 H964 0.929 . S
N927 Li882 1.990 . S
N927 C924 1.314 . S
N927 C925 1.279 . S
C928 C925 1.358 . S
C928 C929 1.356 . S
C928 H965 0.930 . S
C929 C926 1.348 . S
C929 C928 1.356 . S
H930 C924 0.930 . S
H931 C925 0.930 . S
C932 N933 1.314 1_545 S
C932 C934 1.353 . S
C932 H938 0.930 . S
N933 Li883 1.990 . S
N933 C932 1.314 1_565 S
N933 C936 1.279 . S
C934 C932 1.353 . S
C934 C937 1.348 1_545 S
C934 H966 0.929 . S
C935 C936 1.358 . S
C935 C937 1.356 . S
C935 H967 0.930 . S
C936 N933 1.279 . S
C936 C935 1.358 . S
C936 H939 0.930 . S
C937 C934 1.348 1_565 S
C937 C935 1.356 . S
H938 C932 0.930 . S
H939 C936 0.930 . S
O940 Li880 1.956 . S
O940 Li881 1.967 . S
O940 Li882 1.961 1_545 S
O940 C884 1.325 . S
O941 Li880 1.970 . S
O941 Li881 1.978 . S
O941 Li883 1.961 1_545 S
O941 C890 1.325 . S
O942 Li880 1.981 . S
O942 Li882 1.930 1_545 S
O942 Li883 1.972 1_545 S
O942 C912 1.325 . S
O943 Li881 1.942 1_565 S
O943 Li882 1.970 . S
O943 Li883 1.956 . S
O943 C918 1.325 . S
H944 C886 0.929 . S
H945 C887 0.930 . S
H946 C888 0.930 . S
H947 C889 0.930 . S
H948 C891 0.930 . S
H949 C893 0.929 . S
H950 C894 0.930 . S
H951 C895 0.930 . S
H952 C898 0.930 . S
H953 C901 0.929 . S
H954 C906 0.929 . S
H955 C907 0.930 . S
H956 C914 0.929 . S
H957 C915 0.930 . S
H958 C916 0.930 . S
H959 C917 0.930 . S
H960 C919 0.929 . S
H961 C920 0.930 . S
H962 C921 0.930 . S
H963 C922 0.930 . S
H964 C926 0.929 . S
H965 C928 0.930 . S
H966 C934 0.929 . S
H967 C935 0.930 . S
Li968 N985 1.990 . S
Li968 O1028 1.956 . S
Li968 O1029 1.970 . S
Li968 O1030 1.961 1_554 S
Li969 N993 1.990 . S
Li969 O1028 1.970 . S
Li969 O1029 1.956 . S
Li969 O1031 1.961 . S
Li970 N1015 1.990 . S
Li970 O1028 1.961 . S
Li970 O1030 1.956 1_554 S
Li970 O1031 1.970 . S
Li971 N1021 1.990 . S
Li971 O1029 1.961 1_556 S
Li971 O1030 1.970 . S
Li971 O1031 1.956 1_556 S
C972 C974 1.348 . S
C972 C975 1.356 . S
C972 O1028 1.325 . S
N973 C976 1.314 . S
N973 C977 1.279 . S
C974 C972 1.348 . S
C974 C976 1.353 . S
C974 H1032 0.929 . S
C975 C972 1.356 . S
C975 C977 1.358 . S
C975 H1033 0.930 . S
C976 N973 1.314 . S
C976 C974 1.353 . S
C976 H1034 0.930 . S
C977 N973 1.279 . S
C977 C975 1.358 . S
C977 H1035 0.930 1_565 S
C978 C981 1.348 . S
C978 C982 1.356 . S
C978 O1029 1.325 . S
C979 N980 1.279 . S
C979 C982 1.358 . S
C979 H1036 0.930 1_554 S
N980 C979 1.279 . S
N980 C983 1.314 . S
C981 C978 1.348 . S
C981 C983 1.353 . S
C981 H1037 0.929 . S
C982 C978 1.356 . S
C982 C979 1.358 . S
C982 H1038 0.933 . S
C983 N980 1.314 . S
C983 C981 1.353 . S
C983 H1039 0.930 . S
C984 N985 1.314 . S
C984 C989 1.353 . S
C984 H990 0.930 1_554 S
N985 Li968 1.990 . S
N985 C984 1.314 . S
N985 C987 1.279 . S
C986 C987 1.358 . S
C986 C988 1.356 . S
C986 H1040 0.930 . S
C987 N985 1.279 . S
C987 C986 1.358 . S
C987 H991 0.930 . S
C988 C986 1.356 . S
C988 C989 1.348 . S
C989 C984 1.353 . S
C989 C988 1.348 . S
C989 H1041 0.929 1_554 S
H990 C984 0.930 1_556 S
H991 C987 0.930 . S
C992 N993 1.314 . S
C992 C994 1.353 . S
C992 H998 0.930 . S
N993 Li969 1.990 . S
N993 C992 1.314 . S
N993 C996 1.279 . S
C994 C992 1.353 . S
C994 C997 1.348 . S
C994 H1042 0.929 . S
C995 C996 1.358 . S
C995 C997 1.356 . S
C995 H1043 0.930 . S
C996 N993 1.279 . S
C996 C995 1.358 . S
C996 H999 0.930 . S
C997 C994 1.348 . S
C997 C995 1.356 . S
H998 C992 0.930 . S
H999 C996 0.930 . S
C1000 C1002 1.348 . S
C1000 C1003 1.356 . S
C1000 O1030 1.325 . S
N1001 C1004 1.314 . S
N1001 C1005 1.279 . S
C1002 C1000 1.348 . S
C1002 C1004 1.353 . S
C1002 H1044 0.929 . S
C1003 C1000 1.356 . S
C1003 C1005 1.358 . S
C1003 H1045 0.930 . S
C1004 N1001 1.314 . S
C1004 C1002 1.353 . S
C1004 H1046 0.930 . S
C1005 N1001 1.279 . S
C1005 C1003 1.358 . S
C1005 H1047 0.930 . S
C1006 C1007 1.348 . S
C1006 C1008 1.356 . S
C1006 O1031 1.325 . S
C1007 C1006 1.348 . S
C1007 C1009 1.353 . S
C1007 H1048 0.929 . S
C1008 C1006 1.356 . S
C1008 C1010 1.358 . S
C1008 H1049 0.930 . S
C1009 C1007 1.353 . S
C1009 N1011 1.314 . S
C1009 H1050 0.930 . S
C1010 C1008 1.358 . S
C1010 N1011 1.279 . S
C1010 H1051 0.930 . S
N1011 C1009 1.314 . S
N1011 C1010 1.279 . S
C1012 C1014 1.353 . S
C1012 N1015 1.314 . S
C1012 H1018 0.930 . S
C1013 N1015 1.279 . S
C1013 C1016 1.358 . S
C1013 H1019 0.930 1_554 S
C1014 C1012 1.353 . S
C1014 C1017 1.348 . S
C1014 H1052 0.929 . S
N1015 Li970 1.990 . S
N1015 C1012 1.314 . S
N1015 C1013 1.279 . S
C1016 C1013 1.358 . S
C1016 C1017 1.356 . S
C1016 H1053 0.930 1_554 S
C1017 C1014 1.348 . S
C1017 C1016 1.356 . S
H1018 C1012 0.930 . S
H1019 C1013 0.930 1_556 S
C1020 N1021 1.314 . S
C1020 C1022 1.353 . S
C1020 H1026 0.930 . S
N1021 Li971 1.990 . S
N1021 C1020 1.314 . S
N1021 C1024 1.279 . S
C1022 C1020 1.353 . S
C1022 C1025 1.348 . S
C1022 H1054 0.929 . S
C1023 C1024 1.358 . S
C1023 C1025 1.356 . S
C1023 H1055 0.930 . S
C1024 N1021 1.279 . S
C1024 C1023 1.358 . S
C1024 H1027 0.930 . S
C1025 C1022 1.348 . S
C1025 C1023 1.356 . S
H1026 C1020 0.930 . S
H1027 C1024 0.930 . S
O1028 Li968 1.956 . S
O1028 Li969 1.970 . S
O1028 Li970 1.961 . S
O1028 C972 1.325 . S
O1029 Li968 1.970 . S
O1029 Li969 1.956 . S
O1029 Li971 1.961 1_554 S
O1029 C978 1.325 . S
O1030 Li968 1.961 1_556 S
O1030 Li970 1.956 1_556 S
O1030 Li971 1.970 . S
O1030 C1000 1.325 . S
O1031 Li969 1.961 . S
O1031 Li970 1.970 . S
O1031 Li971 1.956 1_554 S
O1031 C1006 1.325 . S
H1032 C974 0.929 . S
H1033 C975 0.930 . S
H1034 C976 0.930 . S
H1035 C977 0.930 1_545 S
H1036 C979 0.930 1_556 S
H1037 C981 0.929 . S
H1038 C982 0.933 . S
H1039 C983 0.930 . S
H1040 C986 0.930 . S
H1041 C989 0.929 1_556 S
H1042 C994 0.929 . S
H1043 C995 0.930 . S
H1044 C1002 0.929 . S
H1045 C1003 0.930 . S
H1046 C1004 0.930 . S
H1047 C1005 0.930 . S
H1048 C1007 0.929 . S
H1049 C1008 0.930 . S
H1050 C1009 0.930 . S
H1051 C1010 0.930 . S
H1052 C1014 0.929 . S
H1053 C1016 0.930 1_556 S
H1054 C1022 0.929 . S
H1055 C1023 0.930 . S
Li1056 N1073 1.990 . S
Li1056 O1116 1.956 . S
Li1056 O1117 1.970 . S
Li1056 O1118 1.961 . S
Li1057 N1081 1.990 . S
Li1057 O1116 1.970 . S
Li1057 O1117 1.956 . S
Li1057 O1119 1.961 . S
Li1058 N1103 1.990 . S
Li1058 O1116 1.961 . S
Li1058 O1118 1.956 . S
Li1058 O1119 1.970 . S
Li1059 N1109 1.990 1_554 S
Li1059 O1117 1.961 . S
Li1059 O1118 1.970 . S
Li1059 O1119 1.956 . S
C1060 C1062 1.348 . S
C1060 C1063 1.356 . S
C1060 O1116 1.325 . S
N1061 C1064 1.314 . S
N1061 C1065 1.279 . S
C1062 C1060 1.348 . S
C1062 C1064 1.353 . S
C1062 H1120 0.929 . S
C1063 C1060 1.356 . S
C1063 C1065 1.358 . S
C1063 H1121 0.930 . S
C1064 N1061 1.314 . S
C1064 C1062 1.353 . S
C1064 H1122 0.930 . S
C1065 N1061 1.279 . S
C1065 C1063 1.358 . S
C1065 H1123 0.930 . S
C1066 C1069 1.348 . S
C1066 C1070 1.356 . S
C1066 O1117 1.325 . S
C1067 N1068 1.279 . S
C1067 C1070 1.358 . S
C1067 H1124 0.930 . S
N1068 C1067 1.279 . S
N1068 C1071 1.314 . S
C1069 C1066 1.348 . S
C1069 C1071 1.353 . S
C1069 H1125 0.929 . S
C1070 C1066 1.356 . S
C1070 C1067 1.358 . S
C1070 H1126 0.930 . S
C1071 N1068 1.314 . S
C1071 C1069 1.353 . S
C1071 H1127 0.930 . S
C1072 N1073 1.314 . S
C1072 C1077 1.353 . S
C1072 H1078 0.930 . S
N1073 Li1056 1.990 . S
N1073 C1072 1.314 . S
N1073 C1075 1.279 . S
C1074 C1075 1.358 . S
C1074 C1076 1.356 . S
C1074 H1128 0.930 . S
C1075 N1073 1.279 . S
C1075 C1074 1.358 . S
C1075 H1079 0.930 . S
C1076 C1074 1.356 . S
C1076 C1077 1.348 . S
C1077 C1072 1.353 . S
C1077 C1076 1.348 . S
C1077 H1129 0.929 . S
H1078 C1072 0.930 . S
H1079 C1075 0.930 . S
C1080 N1081 1.314 . S
C1080 C1082 1.353 . S
C1080 H1086 0.930 . S
N1081 Li1057 1.990 . S
N1081 C1080 1.314 . S
N1081 C1084 1.279 . S
C1082 C1080 1.353 . S
C1082 C1085 1.348 . S
C1082 H1130 0.929 . S
C1083 C1084 1.358 . S
C1083 C1085 1.356 . S
C1083 H1131 0.930 . S
C1084 N1081 1.279 . S
C1084 C1083 1.358 . S
C1084 H1087 0.930 . S
C1085 C1082 1.348 . S
C1085 C1083 1.356 . S
H1086 C1080 0.930 . S
H1087 C1084 0.930 . S
C1088 C1090 1.348 1_554 S
C1088 C1091 1.356 . S
C1088 O1118 1.325 . S
N1089 C1092 1.314 . S
N1089 C1093 1.279 . S
C1090 C1088 1.348 1_556 S
C1090 C1092 1.353 . S
C1090 H1132 0.929 . S
C1091 C1088 1.356 . S
C1091 C1093 1.358 1_554 S
C1091 H1133 0.930 . S
C1092 N1089 1.314 . S
C1092 C1090 1.353 . S
C1092 H1134 0.930 . S
C1093 N1089 1.279 . S
C1093 C1091 1.358 1_556 S
C1093 H1135 0.930 . S
C1094 C1095 1.348 . S
C1094 C1096 1.356 . S
C1094 O1119 1.325 . S
C1095 C1094 1.348 . S
C1095 C1097 1.353 . S
C1095 H1136 0.929 . S
C1096 C1094 1.356 . S
C1096 C1098 1.358 . S
C1096 H1137 0.930 . S
C1097 C1095 1.353 . S
C1097 N1099 1.314 . S
C1097 H1138 0.930 . S
C1098 C1096 1.358 . S
C1098 N1099 1.279 . S
C1098 H1139 0.930 . S
N1099 C1097 1.314 . S
N1099 C1098 1.279 . S
C1100 C1102 1.353 . S
C1100 N1103 1.314 . S
C1100 H1106 0.930 . S
C1101 N1103 1.279 . S
C1101 C1104 1.358 . S
C1101 H1107 0.930 . S
C1102 C1100 1.353 . S
C1102 C1105 1.348 . S
C1102 H1140 0.929 . S
N1103 Li1058 1.990 . S
N1103 C1100 1.314 . S
N1103 C1101 1.279 . S
C1104 C1101 1.358 . S
C1104 C1105 1.356 . S
C1104 H1141 0.930 . S
C1105 C1102 1.348 . S
C1105 C1104 1.356 . S
H1106 C1100 0.930 . S
H1107 C1101 0.930 . S
C1108 N1109 1.314 . S
C1108 C1110 1.353 . S
C1108 H1114 0.930 . S
N1109 Li1059 1.990 1_556 S
N1109 C1108 1.314 . S
N1109 C1112 1.279 . S
C1110 C1108 1.353 . S
C1110 C1113 1.348 . S
C1110 H1142 0.929 . S
C1111 C1112 1.358 . S
C1111 C1113 1.356 . S
C1111 H1143 0.930 . S
C1112 N1109 1.279 . S
C1112 C1111 1.358 . S
C1112 H1115 0.930 . S
C1113 C1110 1.348 . S
C1113 C1111 1.356 . S
H1114 C1108 0.930 . S
H1115 C1112 0.930 . S
O1116 Li1056 1.956 . S
O1116 Li1057 1.970 . S
O1116 Li1058 1.961 . S
O1116 C1060 1.325 . S
O1117 Li1056 1.970 . S
O1117 Li1057 1.956 . S
O1117 Li1059 1.961 . S
O1117 C1066 1.325 . S
O1118 Li1056 1.961 . S
O1118 Li1058 1.956 . S
O1118 Li1059 1.970 . S
O1118 C1088 1.325 . S
O1119 Li1057 1.961 . S
O1119 Li1058 1.970 . S
O1119 Li1059 1.956 . S
O1119 C1094 1.325 . S
H1120 C1062 0.929 . S
H1121 C1063 0.930 . S
H1122 C1064 0.930 . S
H1123 C1065 0.930 . S
H1124 C1067 0.930 . S
H1125 C1069 0.929 . S
H1126 C1070 0.930 . S
H1127 C1071 0.930 . S
H1128 C1074 0.930 . S
H1129 C1077 0.929 . S
H1130 C1082 0.929 . S
H1131 C1083 0.930 . S
H1132 C1090 0.929 . S
H1133 C1091 0.930 . S
H1134 C1092 0.930 . S
H1135 C1093 0.930 . S
H1136 C1095 0.929 . S
H1137 C1096 0.930 . S
H1138 C1097 0.930 . S
H1139 C1098 0.930 . S
H1140 C1102 0.929 . S
H1141 C1104 0.930 . S
H1142 C1110 0.929 . S
H1143 C1111 0.930 . S
Li1144 N1161 1.990 . S
Li1144 O1204 1.956 . S
Li1144 O1205 1.970 . S
Li1144 O1206 1.961 . S
Li1145 N1169 1.990 . S
Li1145 O1204 1.970 . S
Li1145 O1205 1.956 . S
Li1145 O1207 1.917 1_554 S
Li1146 N1191 1.990 1_554 S
Li1146 O1204 1.961 . S
Li1146 O1206 1.956 . S
Li1146 O1207 1.971 1_554 S
Li1147 N1197 1.990 . S
Li1147 O1205 1.961 . S
Li1147 O1206 1.970 . S
Li1147 O1207 1.912 1_554 S
C1148 C1150 1.348 . S
C1148 C1151 1.356 . S
C1148 O1204 1.325 . S
N1149 C1152 1.314 . S
N1149 C1153 1.279 . S
C1150 C1148 1.348 . S
C1150 C1152 1.353 . S
C1150 H1208 0.929 . S
C1151 C1148 1.356 . S
C1151 C1153 1.358 . S
C1151 H1209 0.930 . S
C1152 N1149 1.314 . S
C1152 C1150 1.353 . S
C1152 H1210 0.930 . S
C1153 N1149 1.279 . S
C1153 C1151 1.358 . S
C1153 H1211 0.930 . S
C1154 C1157 1.348 . S
C1154 C1158 1.356 . S
C1154 O1205 1.325 . S
C1155 N1156 1.279 . S
C1155 C1158 1.358 . S
C1155 H1212 0.930 . S
N1156 C1155 1.279 . S
N1156 C1159 1.314 . S
C1157 C1154 1.348 . S
C1157 C1159 1.353 . S
C1157 H1213 0.929 . S
C1158 C1154 1.356 . S
C1158 C1155 1.358 . S
C1158 H1214 0.930 . S
C1159 N1156 1.314 . S
C1159 C1157 1.353 . S
C1159 H1215 0.930 . S
C1160 N1161 1.314 . S
C1160 C1165 1.353 . S
C1160 H1166 0.930 . S
N1161 Li1144 1.990 . S
N1161 C1160 1.314 . S
N1161 C1163 1.279 . S
C1162 C1163 1.358 . S
C1162 C1164 1.356 . S
C1162 H1216 0.930 . S
C1163 N1161 1.279 . S
C1163 C1162 1.358 . S
C1163 H1167 0.930 . S
C1164 C1162 1.356 . S
C1164 C1165 1.348 . S
C1165 C1160 1.353 . S
C1165 C1164 1.348 . S
C1165 H1217 0.929 . S
H1166 C1160 0.930 . S
H1167 C1163 0.930 . S
C1168 N1169 1.314 . S
C1168 C1170 1.353 . S
C1168 H1174 0.930 1_554 S
N1169 Li1145 1.990 . S
N1169 C1168 1.314 . S
N1169 C1172 1.279 . S
C1170 C1168 1.353 . S
C1170 C1173 1.348 . S
C1170 H1218 0.929 1_554 S
C1171 C1172 1.358 . S
C1171 C1173 1.356 . S
C1171 H1219 0.930 . S
C1172 N1169 1.279 . S
C1172 C1171 1.358 . S
C1172 H1175 0.930 . S
C1173 C1170 1.348 . S
C1173 C1171 1.356 . S
H1174 C1168 0.930 1_556 S
H1175 C1172 0.930 . S
C1176 C1178 1.348 . S
C1176 C1179 1.356 . S
C1176 O1206 1.325 . S
N1177 C1180 1.314 . S
N1177 C1181 1.279 . S
C1178 C1176 1.348 . S
C1178 C1180 1.353 . S
C1178 H1220 0.929 . S
C1179 C1176 1.356 . S
C1179 C1181 1.358 . S
C1179 H1221 0.930 . S
C1180 N1177 1.314 . S
C1180 C1178 1.353 . S
C1180 H1222 0.930 . S
C1181 N1177 1.279 . S
C1181 C1179 1.358 . S
C1181 H1223 0.930 . S
C1182 C1183 1.348 . S
C1182 C1184 1.356 . S
C1182 O1207 1.371 . S
C1183 C1182 1.348 . S
C1183 C1185 1.353 . S
C1183 H1224 0.929 . S
C1184 C1182 1.356 . S
C1184 C1186 1.358 . S
C1184 H1225 0.930 . S
C1185 C1183 1.353 . S
C1185 N1187 1.314 . S
C1185 H1226 0.930 . S
C1186 C1184 1.358 . S
C1186 N1187 1.279 . S
C1186 H1227 0.930 . S
N1187 C1185 1.314 . S
N1187 C1186 1.279 . S
C1188 C1190 1.353 . S
C1188 N1191 1.314 . S
C1188 H1194 0.930 . S
C1189 N1191 1.279 . S
C1189 C1192 1.358 . S
C1189 H1195 0.930 . S
C1190 C1188 1.353 . S
C1190 C1193 1.348 . S
C1190 H1228 0.929 . S
N1191 Li1146 1.990 1_556 S
N1191 C1188 1.314 . S
N1191 C1189 1.279 . S
C1192 C1189 1.358 . S
C1192 C1193 1.356 . S
C1192 H1229 0.930 . S
C1193 C1190 1.348 . S
C1193 C1192 1.356 . S
H1194 C1188 0.930 . S
H1195 C1189 0.930 . S
C1196 N1197 1.314 . S
C1196 C1198 1.353 . S
C1196 H1202 0.930 . S
N1197 Li1147 1.990 . S
N1197 C1196 1.314 . S
N1197 C1200 1.249 1_554 S
C1198 C1196 1.353 . S
C1198 C1201 1.348 . S
C1198 H1230 0.929 . S
C1199 C1200 1.357 . S
C1199 C1201 1.356 1_556 S
C1199 H1231 0.930 . S
C1200 N1197 1.249 1_556 S
C1200 C1199 1.357 . S
C1200 H1203 0.967 . S
C1201 C1198 1.348 . S
C1201 C1199 1.356 1_554 S
H1202 C1196 0.930 . S
H1203 C1200 0.967 . S
O1204 Li1144 1.956 . S
O1204 Li1145 1.970 . S
O1204 Li1146 1.961 . S
O1204 C1148 1.325 . S
O1205 Li1144 1.970 . S
O1205 Li1145 1.956 . S
O1205 Li1147 1.961 . S
O1205 C1154 1.325 . S
O1206 Li1144 1.961 . S
O1206 Li1146 1.956 . S
O1206 Li1147 1.970 . S
O1206 C1176 1.325 . S
O1207 Li1145 1.917 1_556 S
O1207 Li1146 1.971 1_556 S
O1207 Li1147 1.912 1_556 S
O1207 C1182 1.371 . S
H1208 C1150 0.929 . S
H1209 C1151 0.930 . S
H1210 C1152 0.930 . S
H1211 C1153 0.930 . S
H1212 C1155 0.930 . S
H1213 C1157 0.929 . S
H1214 C1158 0.930 . S
H1215 C1159 0.930 . S
H1216 C1162 0.930 . S
H1217 C1165 0.929 . S
H1218 C1170 0.929 1_556 S
H1219 C1171 0.930 . S
H1220 C1178 0.929 . S
H1221 C1179 0.930 . S
H1222 C1180 0.930 . S
H1223 C1181 0.930 . S
H1224 C1183 0.929 . S
H1225 C1184 0.930 . S
H1226 C1185 0.930 . S
H1227 C1186 0.930 . S
H1228 C1190 0.929 . S
H1229 C1192 0.930 . S
H1230 C1198 0.929 . S
H1231 C1199 0.930 . S
Li1232 N1249 1.990 . S
Li1232 O1292 1.956 . S
Li1232 O1293 1.970 . S
Li1232 O1294 1.961 . S
Li1233 N1257 1.990 . S
Li1233 O1292 1.970 . S
Li1233 O1293 1.956 . S
Li1233 O1295 1.961 . S
Li1234 N1279 1.990 . S
Li1234 O1292 1.961 . S
Li1234 O1294 1.956 . S
Li1234 O1295 1.970 . S
Li1235 N1285 1.990 . S
Li1235 O1293 1.961 . S
Li1235 O1294 1.970 . S
Li1235 O1295 1.956 . S
C1236 C1238 1.348 . S
C1236 C1239 1.356 . S
C1236 O1292 1.325 . S
N1237 C1240 1.314 . S
N1237 C1241 1.279 . S
C1238 C1236 1.348 . S
C1238 C1240 1.353 . S
C1238 H1296 0.929 . S
C1239 C1236 1.356 . S
C1239 C1241 1.358 . S
C1239 H1297 0.930 . S
C1240 N1237 1.314 . S
C1240 C1238 1.353 . S
C1240 H1298 0.930 . S
C1241 N1237 1.279 . S
C1241 C1239 1.358 . S
C1241 H1299 0.930 . S
C1242 C1245 1.348 . S
C1242 C1246 1.356 . S
C1242 O1293 1.325 . S
C1243 N1244 1.279 . S
C1243 C1246 1.358 . S
C1243 H1300 0.930 . S
N1244 C1243 1.279 . S
N1244 C1247 1.314 . S
C1245 C1242 1.348 . S
C1245 C1247 1.353 . S
C1245 H1301 0.929 . S
C1246 C1242 1.356 . S
C1246 C1243 1.358 . S
C1246 H1302 0.930 . S
C1247 N1244 1.314 . S
C1247 C1245 1.353 . S
C1247 H1303 0.930 . S
C1248 N1249 1.314 . S
C1248 C1253 1.353 . S
C1248 H1254 0.930 . S
N1249 Li1232 1.990 . S
N1249 C1248 1.314 . S
N1249 C1251 1.279 . S
C1250 C1251 1.358 . S
C1250 C1252 1.356 . S
C1250 H1304 0.930 . S
C1251 N1249 1.279 . S
C1251 C1250 1.358 . S
C1251 H1255 0.930 . S
C1252 C1250 1.356 . S
C1252 C1253 1.348 . S
C1253 C1248 1.353 . S
C1253 C1252 1.348 . S
C1253 H1305 0.929 . S
H1254 C1248 0.930 . S
H1255 C1251 0.930 . S
C1256 N1257 1.314 . S
C1256 C1258 1.353 . S
C1256 H1262 0.930 . S
N1257 Li1233 1.990 . S
N1257 C1256 1.314 . S
N1257 C1260 1.279 . S
C1258 C1256 1.353 . S
C1258 C1261 1.348 . S
C1258 H1306 0.929 . S
C1259 C1260 1.358 . S
C1259 C1261 1.356 . S
C1259 H1307 0.930 . S
C1260 N1257 1.279 . S
C1260 C1259 1.358 . S
C1260 H1263 0.930 . S
C1261 C1258 1.348 . S
C1261 C1259 1.356 . S
H1262 C1256 0.930 . S
H1263 C1260 0.930 . S
C1264 C1266 1.348 . S
C1264 C1267 1.356 . S
C1264 O1294 1.325 . S
N1265 C1268 1.314 . S
N1265 C1269 1.279 . S
C1266 C1264 1.348 . S
C1266 C1268 1.353 . S
C1266 H1308 0.929 . S
C1267 C1264 1.356 . S
C1267 C1269 1.358 . S
C1267 H1309 0.930 . S
C1268 N1265 1.314 . S
C1268 C1266 1.353 . S
C1268 H1310 0.930 . S
C1269 N1265 1.279 . S
C1269 C1267 1.358 . S
C1269 H1311 0.930 . S
C1270 C1271 1.348 . S
C1270 C1272 1.356 . S
C1270 O1295 1.325 . S
C1271 C1270 1.348 . S
C1271 C1273 1.353 . S
C1271 H1312 0.929 . S
C1272 C1270 1.356 . S
C1272 C1274 1.358 . S
C1272 H1313 0.930 . S
C1273 C1271 1.353 . S
C1273 N1275 1.314 . S
C1273 H1314 0.930 . S
C1274 C1272 1.358 . S
C1274 N1275 1.279 . S
C1274 H1315 0.930 . S
N1275 C1273 1.314 . S
N1275 C1274 1.279 . S
C1276 C1278 1.353 . S
C1276 N1279 1.314 . S
C1276 H1282 0.930 . S
C1277 N1279 1.279 . S
C1277 C1280 1.358 . S
C1277 H1283 0.930 . S
C1278 C1276 1.353 . S
C1278 C1281 1.348 . S
C1278 H1316 0.929 . S
N1279 Li1234 1.990 . S
N1279 C1276 1.314 . S
N1279 C1277 1.279 . S
C1280 C1277 1.358 . S
C1280 C1281 1.356 . S
C1280 H1317 0.930 . S
C1281 C1278 1.348 . S
C1281 C1280 1.356 . S
H1282 C1276 0.930 . S
H1283 C1277 0.930 . S
C1284 N1285 1.314 . S
C1284 C1286 1.353 . S
C1284 H1290 0.930 . S
N1285 Li1235 1.990 . S
N1285 C1284 1.314 . S
N1285 C1288 1.279 . S
C1286 C1284 1.353 . S
C1286 C1289 1.348 . S
C1286 H1318 0.929 . S
C1287 C1288 1.358 . S
C1287 C1289 1.356 . S
C1287 H1319 0.930 . S
C1288 N1285 1.279 . S
C1288 C1287 1.358 . S
C1288 H1291 0.930 . S
C1289 C1286 1.348 . S
C1289 C1287 1.356 . S
H1290 C1284 0.930 . S
H1291 C1288 0.930 . S
O1292 Li1232 1.956 . S
O1292 Li1233 1.970 . S
O1292 Li1234 1.961 . S
O1292 C1236 1.325 . S
O1293 Li1232 1.970 . S
O1293 Li1233 1.956 . S
O1293 Li1235 1.961 . S
O1293 C1242 1.325 . S
O1294 Li1232 1.961 . S
O1294 Li1234 1.956 . S
O1294 Li1235 1.970 . S
O1294 C1264 1.325 . S
O1295 Li1233 1.961 . S
O1295 Li1234 1.970 . S
O1295 Li1235 1.956 . S
O1295 C1270 1.325 . S
H1296 C1238 0.929 . S
H1297 C1239 0.930 . S
H1298 C1240 0.930 . S
H1299 C1241 0.930 . S
H1300 C1243 0.930 . S
H1301 C1245 0.929 . S
H1302 C1246 0.930 . S
H1303 C1247 0.930 . S
H1304 C1250 0.930 . S
H1305 C1253 0.929 . S
H1306 C1258 0.929 . S
H1307 C1259 0.930 . S
H1308 C1266 0.929 . S
H1309 C1267 0.930 . S
H1310 C1268 0.930 . S
H1311 C1269 0.930 . S
H1312 C1271 0.929 . S
H1313 C1272 0.930 . S
H1314 C1273 0.930 . S
H1315 C1274 0.930 . S
H1316 C1278 0.929 . S
H1317 C1280 0.930 . S
H1318 C1286 0.929 . S
H1319 C1287 0.930 . S
Li1320 N1337 1.990 . S
Li1320 O1380 1.956 . S
Li1320 O1381 1.970 . S
Li1320 O1382 1.961 . S
Li1321 N1345 1.990 . S
Li1321 O1380 1.970 . S
Li1321 O1381 1.956 . S
Li1321 O1383 1.961 . S
Li1322 N1367 1.990 . S
Li1322 O1380 1.961 . S
Li1322 O1382 1.956 . S
Li1322 O1383 1.970 . S
Li1323 N1373 1.990 . S
Li1323 O1381 1.961 . S
Li1323 O1382 1.970 . S
Li1323 O1383 1.956 . S
C1324 C1326 1.348 . S
C1324 C1327 1.356 . S
C1324 O1380 1.325 . S
N1325 C1328 1.314 . S
N1325 C1329 1.279 . S
C1326 C1324 1.348 . S
C1326 C1328 1.353 . S
C1326 H1384 0.929 . S
C1327 C1324 1.356 . S
C1327 C1329 1.358 . S
C1327 H1385 0.930 . S
C1328 N1325 1.314 . S
C1328 C1326 1.353 . S
C1328 H1386 0.930 . S
C1329 N1325 1.279 . S
C1329 C1327 1.358 . S
C1329 H1387 0.930 . S
C1330 C1333 1.348 . S
C1330 C1334 1.356 . S
C1330 O1381 1.325 . S
C1331 N1332 1.279 . S
C1331 C1334 1.358 . S
C1331 H1388 0.930 . S
N1332 C1331 1.279 . S
N1332 C1335 1.314 . S
C1333 C1330 1.348 . S
C1333 C1335 1.353 . S
C1333 H1389 0.929 . S
C1334 C1330 1.356 . S
C1334 C1331 1.358 . S
C1334 H1390 0.930 . S
C1335 N1332 1.314 . S
C1335 C1333 1.353 . S
C1335 H1391 0.930 . S
C1336 N1337 1.314 . S
C1336 C1341 1.353 . S
C1336 H1342 0.930 . S
N1337 Li1320 1.990 . S
N1337 C1336 1.314 . S
N1337 C1339 1.279 . S
C1338 C1339 1.358 . S
C1338 C1340 1.356 . S
C1338 H1392 0.930 . S
C1339 N1337 1.279 . S
C1339 C1338 1.358 . S
C1339 H1343 0.930 . S
C1340 C1338 1.356 . S
C1340 C1341 1.348 . S
C1341 C1336 1.353 . S
C1341 C1340 1.348 . S
C1341 H1393 0.929 . S
H1342 C1336 0.930 . S
H1343 C1339 0.930 . S
C1344 N1345 1.314 . S
C1344 C1346 1.353 . S
C1344 H1350 0.930 . S
N1345 Li1321 1.990 . S
N1345 C1344 1.314 . S
N1345 C1348 1.279 . S
C1346 C1344 1.353 . S
C1346 C1349 1.348 . S
C1346 H1394 0.929 . S
C1347 C1348 1.358 . S
C1347 C1349 1.356 . S
C1347 H1395 0.930 . S
C1348 N1345 1.279 . S
C1348 C1347 1.358 . S
C1348 H1351 0.930 . S
C1349 C1346 1.348 . S
C1349 C1347 1.356 . S
H1350 C1344 0.930 . S
H1351 C1348 0.930 . S
C1352 C1354 1.348 . S
C1352 C1355 1.356 . S
C1352 O1382 1.325 . S
N1353 C1356 1.314 . S
N1353 C1357 1.279 . S
C1354 C1352 1.348 . S
C1354 C1356 1.353 . S
C1354 H1396 0.929 . S
C1355 C1352 1.356 . S
C1355 C1357 1.358 . S
C1355 H1397 0.930 . S
C1356 N1353 1.314 . S
C1356 C1354 1.353 . S
C1356 H1398 0.930 . S
C1357 N1353 1.279 . S
C1357 C1355 1.358 . S
C1357 H1399 0.930 . S
C1358 C1359 1.348 . S
C1358 C1360 1.356 . S
C1358 O1383 1.325 . S
C1359 C1358 1.348 . S
C1359 C1361 1.353 . S
C1359 H1400 0.929 . S
C1360 C1358 1.356 . S
C1360 C1362 1.358 . S
C1360 H1401 0.930 . S
C1361 C1359 1.353 . S
C1361 N1363 1.314 . S
C1361 H1402 0.930 . S
C1362 C1360 1.358 . S
C1362 N1363 1.279 . S
C1362 H1403 0.930 . S
N1363 C1361 1.314 . S
N1363 C1362 1.279 . S
C1364 C1366 1.353 . S
C1364 N1367 1.314 . S
C1364 H1370 0.930 . S
C1365 N1367 1.279 . S
C1365 C1368 1.358 . S
C1365 H1371 0.930 . S
C1366 C1364 1.353 . S
C1366 C1369 1.348 . S
C1366 H1404 0.929 . S
N1367 Li1322 1.990 . S
N1367 C1364 1.314 . S
N1367 C1365 1.279 . S
C1368 C1365 1.358 . S
C1368 C1369 1.356 . S
C1368 H1405 0.930 . S
C1369 C1366 1.348 . S
C1369 C1368 1.356 . S
H1370 C1364 0.930 . S
H1371 C1365 0.930 . S
C1372 N1373 1.314 . S
C1372 C1374 1.353 . S
C1372 H1378 0.930 . S
N1373 Li1323 1.990 . S
N1373 C1372 1.314 . S
N1373 C1376 1.279 . S
C1374 C1372 1.353 . S
C1374 C1377 1.348 . S
C1374 H1406 0.929 . S
C1375 C1376 1.358 . S
C1375 C1377 1.356 . S
C1375 H1407 0.930 . S
C1376 N1373 1.279 . S
C1376 C1375 1.358 . S
C1376 H1379 0.930 . S
C1377 C1374 1.348 . S
C1377 C1375 1.356 . S
H1378 C1372 0.930 . S
H1379 C1376 0.930 . S
O1380 Li1320 1.956 . S
O1380 Li1321 1.970 . S
O1380 Li1322 1.961 . S
O1380 C1324 1.325 . S
O1381 Li1320 1.970 . S
O1381 Li1321 1.956 . S
O1381 Li1323 1.961 . S
O1381 C1330 1.325 . S
O1382 Li1320 1.961 . S
O1382 Li1322 1.956 . S
O1382 Li1323 1.970 . S
O1382 C1352 1.325 . S
O1383 Li1321 1.961 . S
O1383 Li1322 1.970 . S
O1383 Li1323 1.956 . S
O1383 C1358 1.325 . S
H1384 C1326 0.929 . S
H1385 C1327 0.930 . S
H1386 C1328 0.930 . S
H1387 C1329 0.930 . S
H1388 C1331 0.930 . S
H1389 C1333 0.929 . S
H1390 C1334 0.930 . S
H1391 C1335 0.930 . S
H1392 C1338 0.930 . S
H1393 C1341 0.929 . S
H1394 C1346 0.929 . S
H1395 C1347 0.930 . S
H1396 C1354 0.929 . S
H1397 C1355 0.930 . S
H1398 C1356 0.930 . S
H1399 C1357 0.930 . S
H1400 C1359 0.929 . S
H1401 C1360 0.930 . S
H1402 C1361 0.930 . S
H1403 C1362 0.930 . S
H1404 C1366 0.929 . S
H1405 C1368 0.930 . S
H1406 C1374 0.929 . S
H1407 C1375 0.930 . S
Li1408 N1425 1.990 . S
Li1408 O1468 1.956 . S
Li1408 O1469 1.970 . S
Li1408 O1470 1.961 . S
Li1409 N1433 1.990 . S
Li1409 O1468 1.970 . S
Li1409 O1469 1.956 . S
Li1409 O1471 1.961 . S
Li1410 N1455 1.990 . S
Li1410 O1468 1.961 . S
Li1410 O1470 1.956 . S
Li1410 O1471 1.970 . S
Li1411 N1461 1.990 . S
Li1411 O1469 1.961 . S
Li1411 O1470 1.970 . S
Li1411 O1471 1.956 . S
C1412 C1414 1.348 . S
C1412 C1415 1.356 . S
C1412 O1468 1.325 . S
N1413 C1416 1.314 . S
N1413 C1417 1.279 . S
C1414 C1412 1.348 . S
C1414 C1416 1.353 . S
C1414 H1472 0.929 . S
C1415 C1412 1.356 . S
C1415 C1417 1.358 . S
C1415 H1473 0.930 . S
C1416 N1413 1.314 . S
C1416 C1414 1.353 . S
C1416 H1474 0.930 1_545 S
C1417 N1413 1.279 . S
C1417 C1415 1.358 . S
C1417 H1475 0.930 1_655 S
C1418 C1421 1.348 . S
C1418 C1422 1.356 . S
C1418 O1469 1.325 . S
C1419 N1420 1.279 . S
C1419 C1422 1.358 . S
C1419 H1476 0.930 . S
N1420 C1419 1.279 . S
N1420 C1423 1.314 . S
C1421 C1418 1.348 . S
C1421 C1423 1.353 . S
C1421 H1477 0.929 . S
C1422 C1418 1.356 . S
C1422 C1419 1.358 . S
C1422 H1478 0.930 . S
C1423 N1420 1.314 . S
C1423 C1421 1.353 . S
C1423 H1479 0.930 . S
C1424 N1425 1.314 . S
C1424 C1429 1.353 . S
C1424 H1430 0.930 . S
N1425 Li1408 1.990 . S
N1425 C1424 1.314 . S
N1425 C1427 1.279 . S
C1426 C1427 1.358 . S
C1426 C1428 1.356 . S
C1426 H1480 0.930 . S
C1427 N1425 1.279 . S
C1427 C1426 1.358 . S
C1427 H1431 0.930 . S
C1428 C1426 1.356 . S
C1428 C1429 1.348 . S
C1429 C1424 1.353 . S
C1429 C1428 1.348 . S
C1429 H1481 0.929 . S
H1430 C1424 0.930 . S
H1431 C1427 0.930 . S
C1432 N1433 1.314 . S
C1432 C1434 1.353 1_545 S
C1432 H1438 0.930 . S
N1433 Li1409 1.990 . S
N1433 C1432 1.314 . S
N1433 C1436 1.279 . S
C1434 C1432 1.353 1_565 S
C1434 C1437 1.348 . S
C1434 H1482 0.929 . S
C1435 C1436 1.358 . S
C1435 C1437 1.356 1_545 S
C1435 H1483 0.930 1_545 S
C1436 N1433 1.279 . S
C1436 C1435 1.358 . S
C1436 H1439 0.930 . S
C1437 C1434 1.348 . S
C1437 C1435 1.356 1_565 S
H1438 C1432 0.930 . S
H1439 C1436 0.930 . S
C1440 C1442 1.348 . S
C1440 C1443 1.356 . S
C1440 O1470 1.325 . S
N1441 C1444 1.314 . S
N1441 C1445 1.279 . S
C1442 C1440 1.348 . S
C1442 C1444 1.353 . S
C1442 H1484 0.929 . S
C1443 C1440 1.356 . S
C1443 C1445 1.358 . S
C1443 H1485 0.930 . S
C1444 N1441 1.314 . S
C1444 C1442 1.353 . S
C1444 H1486 0.930 . S
C1445 N1441 1.279 . S
C1445 C1443 1.358 . S
C1445 H1487 0.930 1_655 S
C1446 C1447 1.348 . S
C1446 C1448 1.356 . S
C1446 O1471 1.325 . S
C1447 C1446 1.348 . S
C1447 C1449 1.353 . S
C1447 H1488 0.929 . S
C1448 C1446 1.356 . S
C1448 C1450 1.358 . S
C1448 H1489 0.930 . S
C1449 C1447 1.353 . S
C1449 N1451 1.314 . S
C1449 H1490 0.930 . S
C1450 C1448 1.358 . S
C1450 N1451 1.279 . S
C1450 H1491 0.930 . S
N1451 C1449 1.314 . S
N1451 C1450 1.279 . S
C1452 C1454 1.353 . S
C1452 N1455 1.314 . S
C1452 H1458 0.930 . S
C1453 N1455 1.279 . S
C1453 C1456 1.358 . S
C1453 H1459 0.930 . S
C1454 C1452 1.353 . S
C1454 C1457 1.348 . S
C1454 H1492 0.929 . S
N1455 Li1410 1.990 . S
N1455 C1452 1.314 . S
N1455 C1453 1.279 . S
C1456 C1453 1.358 . S
C1456 C1457 1.356 . S
C1456 H1493 0.930 . S
C1457 C1454 1.348 . S
C1457 C1456 1.356 . S
H1458 C1452 0.930 . S
H1459 C1453 0.930 . S
C1460 N1461 1.314 . S
C1460 C1462 1.353 . S
C1460 H1466 0.930 . S
N1461 Li1411 1.990 . S
N1461 C1460 1.314 . S
N1461 C1464 1.279 . S
C1462 C1460 1.353 . S
C1462 C1465 1.348 . S
C1462 H1494 0.929 . S
C1463 C1464 1.358 . S
C1463 C1465 1.356 . S
C1463 H1495 0.930 . S
C1464 N1461 1.279 . S
C1464 C1463 1.358 . S
C1464 H1467 0.930 . S
C1465 C1462 1.348 . S
C1465 C1463 1.356 . S
H1466 C1460 0.930 . S
H1467 C1464 0.930 . S
O1468 Li1408 1.956 . S
O1468 Li1409 1.970 . S
O1468 Li1410 1.961 . S
O1468 C1412 1.325 . S
O1469 Li1408 1.970 . S
O1469 Li1409 1.956 . S
O1469 Li1411 1.961 . S
O1469 C1418 1.325 . S
O1470 Li1408 1.961 . S
O1470 Li1410 1.956 . S
O1470 Li1411 1.970 . S
O1470 C1440 1.325 . S
O1471 Li1409 1.961 . S
O1471 Li1410 1.970 . S
O1471 Li1411 1.956 . S
O1471 C1446 1.325 . S
H1472 C1414 0.929 . S
H1473 C1415 0.930 . S
H1474 C1416 0.930 1_565 S
H1475 C1417 0.930 1_455 S
H1476 C1419 0.930 . S
H1477 C1421 0.929 . S
H1478 C1422 0.930 . S
H1479 C1423 0.930 . S
H1480 C1426 0.930 . S
H1481 C1429 0.929 . S
H1482 C1434 0.929 . S
H1483 C1435 0.930 1_565 S
H1484 C1442 0.929 . S
H1485 C1443 0.930 . S
H1486 C1444 0.930 . S
H1487 C1445 0.930 1_455 S
H1488 C1447 0.929 . S
H1489 C1448 0.930 . S
H1490 C1449 0.930 . S
H1491 C1450 0.930 . S
H1492 C1454 0.929 . S
H1493 C1456 0.930 . S
H1494 C1462 0.929 . S
H1495 C1463 0.930 . S
Li1496 N1513 1.990 . S
Li1496 O1556 1.956 . S
Li1496 O1557 1.970 . S
Li1496 O1558 1.961 . S
Li1497 N1521 1.990 . S
Li1497 O1556 1.970 . S
Li1497 O1557 1.956 . S
Li1497 O1559 1.961 . S
Li1498 N1543 1.990 . S
Li1498 O1556 1.961 . S
Li1498 O1558 1.956 . S
Li1498 O1559 1.970 . S
Li1499 N1549 1.990 . S
Li1499 O1557 1.961 . S
Li1499 O1558 1.970 . S
Li1499 O1559 1.956 . S
C1500 C1502 1.348 . S
C1500 C1503 1.356 . S
C1500 O1556 1.325 . S
N1501 C1504 1.314 . S
N1501 C1505 1.279 . S
C1502 C1500 1.348 . S
C1502 C1504 1.353 . S
C1502 H1560 0.929 . S
C1503 C1500 1.356 . S
C1503 C1505 1.358 . S
C1503 H1561 0.930 . S
C1504 N1501 1.314 . S
C1504 C1502 1.353 . S
C1504 H1562 0.930 . S
C1505 N1501 1.279 . S
C1505 C1503 1.358 . S
C1505 H1563 0.930 . S
C1506 C1509 1.348 . S
C1506 C1510 1.356 . S
C1506 O1557 1.325 . S
C1507 N1508 1.279 . S
C1507 C1510 1.358 . S
C1507 H1564 0.930 . S
N1508 C1507 1.279 . S
N1508 C1511 1.314 . S
C1509 C1506 1.348 . S
C1509 C1511 1.353 . S
C1509 H1565 0.929 . S
C1510 C1506 1.356 . S
C1510 C1507 1.358 . S
C1510 H1566 0.930 . S
C1511 N1508 1.314 . S
C1511 C1509 1.353 . S
C1511 H1567 0.930 . S
C1512 N1513 1.314 . S
C1512 C1517 1.353 . S
C1512 H1518 0.930 . S
N1513 Li1496 1.990 . S
N1513 C1512 1.314 . S
N1513 C1515 1.279 . S
C1514 C1515 1.358 . S
C1514 C1516 1.356 . S
C1514 H1568 0.930 . S
C1515 N1513 1.279 . S
C1515 C1514 1.358 . S
C1515 H1519 0.930 . S
C1516 C1514 1.356 . S
C1516 C1517 1.348 . S
C1517 C1512 1.353 . S
C1517 C1516 1.348 . S
C1517 H1569 0.929 . S
H1518 C1512 0.930 . S
H1519 C1515 0.930 . S
C1520 N1521 1.314 . S
C1520 C1522 1.353 . S
C1520 H1526 0.930 . S
N1521 Li1497 1.990 . S
N1521 C1520 1.314 . S
N1521 C1524 1.279 . S
C1522 C1520 1.353 . S
C1522 C1525 1.348 . S
C1522 H1570 0.929 . S
C1523 C1524 1.358 . S
C1523 C1525 1.356 . S
C1523 H1571 0.930 . S
C1524 N1521 1.279 . S
C1524 C1523 1.358 . S
C1524 H1527 0.930 . S
C1525 C1522 1.348 . S
C1525 C1523 1.356 . S
H1526 C1520 0.930 . S
H1527 C1524 0.930 . S
C1528 C1530 1.348 . S
C1528 C1531 1.356 . S
C1528 O1558 1.325 . S
N1529 C1532 1.314 . S
N1529 C1533 1.279 . S
C1530 C1528 1.348 . S
C1530 C1532 1.353 . S
C1530 H1572 0.929 . S
C1531 C1528 1.356 . S
C1531 C1533 1.358 . S
C1531 H1573 0.930 . S
C1532 N1529 1.314 . S
C1532 C1530 1.353 . S
C1532 H1574 0.930 . S
C1533 N1529 1.279 . S
C1533 C1531 1.358 . S
C1533 H1575 0.930 . S
C1534 C1535 1.348 . S
C1534 C1536 1.356 . S
C1534 O1559 1.325 . S
C1535 C1534 1.348 . S
C1535 C1537 1.353 . S
C1535 H1576 0.929 . S
C1536 C1534 1.356 . S
C1536 C1538 1.358 . S
C1536 H1577 0.930 . S
C1537 C1535 1.353 . S
C1537 N1539 1.314 . S
C1537 H1578 0.930 . S
C1538 C1536 1.358 . S
C1538 N1539 1.279 . S
C1538 H1579 0.930 . S
N1539 C1537 1.314 . S
N1539 C1538 1.279 . S
C1540 C1542 1.353 . S
C1540 N1543 1.314 . S
C1540 H1546 0.930 . S
C1541 N1543 1.279 . S
C1541 C1544 1.358 . S
C1541 H1547 0.930 . S
C1542 C1540 1.353 . S
C1542 C1545 1.348 . S
C1542 H1580 0.929 . S
N1543 Li1498 1.990 . S
N1543 C1540 1.314 . S
N1543 C1541 1.279 . S
C1544 C1541 1.358 . S
C1544 C1545 1.356 . S
C1544 H1581 0.930 . S
C1545 C1542 1.348 . S
C1545 C1544 1.356 . S
H1546 C1540 0.930 . S
H1547 C1541 0.930 . S
C1548 N1549 1.314 . S
C1548 C1550 1.353 . S
C1548 H1554 0.930 . S
N1549 Li1499 1.990 . S
N1549 C1548 1.314 . S
N1549 C1552 1.279 . S
C1550 C1548 1.353 . S
C1550 C1553 1.348 . S
C1550 H1582 0.929 . S
C1551 C1552 1.358 . S
C1551 C1553 1.356 . S
C1551 H1583 0.930 . S
C1552 N1549 1.279 . S
C1552 C1551 1.358 . S
C1552 H1555 0.930 . S
C1553 C1550 1.348 . S
C1553 C1551 1.356 . S
H1554 C1548 0.930 . S
H1555 C1552 0.930 . S
O1556 Li1496 1.956 . S
O1556 Li1497 1.970 . S
O1556 Li1498 1.961 . S
O1556 C1500 1.325 . S
O1557 Li1496 1.970 . S
O1557 Li1497 1.956 . S
O1557 Li1499 1.961 . S
O1557 C1506 1.325 . S
O1558 Li1496 1.961 . S
O1558 Li1498 1.956 . S
O1558 Li1499 1.970 . S
O1558 C1528 1.325 . S
O1559 Li1497 1.961 . S
O1559 Li1498 1.970 . S
O1559 Li1499 1.956 . S
O1559 C1534 1.325 . S
H1560 C1502 0.929 . S
H1561 C1503 0.930 . S
H1562 C1504 0.930 . S
H1563 C1505 0.930 . S
H1564 C1507 0.930 . S
H1565 C1509 0.929 . S
H1566 C1510 0.930 . S
H1567 C1511 0.930 . S
H1568 C1514 0.930 . S
H1569 C1517 0.929 . S
H1570 C1522 0.929 . S
H1571 C1523 0.930 . S
H1572 C1530 0.929 . S
H1573 C1531 0.930 . S
H1574 C1532 0.930 . S
H1575 C1533 0.930 . S
H1576 C1535 0.929 . S
H1577 C1536 0.930 . S
H1578 C1537 0.930 . S
H1579 C1538 0.930 . S
H1580 C1542 0.929 . S
H1581 C1544 0.930 . S
H1582 C1550 0.929 . S
H1583 C1551 0.930 . S
Li1584 N1601 1.990 . S
Li1584 O1644 1.956 . S
Li1584 O1645 1.970 . S
Li1584 O1646 1.961 . S
Li1585 N1609 1.990 . S
Li1585 O1644 1.970 . S
Li1585 O1645 1.956 . S
Li1585 O1647 1.961 . S
Li1586 N1631 1.990 . S
Li1586 O1644 1.961 . S
Li1586 O1646 1.956 . S
Li1586 O1647 1.970 . S
Li1587 N1637 1.990 . S
Li1587 O1645 1.961 . S
Li1587 O1646 1.970 . S
Li1587 O1647 1.956 . S
C1588 C1590 1.348 . S
C1588 C1591 1.356 . S
C1588 O1644 1.325 . S
N1589 C1592 1.314 . S
N1589 C1593 1.279 . S
C1590 C1588 1.348 . S
C1590 C1592 1.353 . S
C1590 H1648 0.929 . S
C1591 C1588 1.356 . S
C1591 C1593 1.358 . S
C1591 H1649 0.930 . S
C1592 N1589 1.314 . S
C1592 C1590 1.353 . S
C1592 H1650 0.930 . S
C1593 N1589 1.279 . S
C1593 C1591 1.358 . S
C1593 H1651 0.930 . S
C1594 C1597 1.348 . S
C1594 C1598 1.356 . S
C1594 O1645 1.325 . S
C1595 N1596 1.279 . S
C1595 C1598 1.358 . S
C1595 H1652 0.930 . S
N1596 C1595 1.279 . S
N1596 C1599 1.314 . S
C1597 C1594 1.348 . S
C1597 C1599 1.353 . S
C1597 H1653 0.929 . S
C1598 C1594 1.356 . S
C1598 C1595 1.358 . S
C1598 H1654 0.930 . S
C1599 N1596 1.314 . S
C1599 C1597 1.353 . S
C1599 H1655 0.930 . S
C1600 N1601 1.314 . S
C1600 C1605 1.353 . S
C1600 H1606 0.930 . S
N1601 Li1584 1.990 . S
N1601 C1600 1.314 . S
N1601 C1603 1.279 . S
C1602 C1603 1.358 . S
C1602 C1604 1.356 . S
C1602 H1656 0.930 . S
C1603 N1601 1.279 . S
C1603 C1602 1.358 . S
C1603 H1607 0.930 . S
C1604 C1602 1.356 . S
C1604 C1605 1.348 . S
C1605 C1600 1.353 . S
C1605 C1604 1.348 . S
C1605 H1657 0.929 . S
H1606 C1600 0.930 . S
H1607 C1603 0.930 . S
C1608 N1609 1.314 . S
C1608 C1610 1.353 . S
C1608 H1614 0.930 . S
N1609 Li1585 1.990 . S
N1609 C1608 1.314 . S
N1609 C1612 1.279 . S
C1610 C1608 1.353 . S
C1610 C1613 1.348 . S
C1610 H1658 0.929 . S
C1611 C1612 1.358 . S
C1611 C1613 1.356 . S
C1611 H1659 0.930 . S
C1612 N1609 1.279 . S
C1612 C1611 1.358 . S
C1612 H1615 0.930 . S
C1613 C1610 1.348 . S
C1613 C1611 1.356 . S
H1614 C1608 0.930 . S
H1615 C1612 0.930 . S
C1616 C1618 1.348 . S
C1616 C1619 1.356 . S
C1616 O1646 1.325 . S
N1617 C1620 1.314 . S
N1617 C1621 1.279 . S
C1618 C1616 1.348 . S
C1618 C1620 1.353 . S
C1618 H1660 0.929 . S
C1619 C1616 1.356 . S
C1619 C1621 1.358 . S
C1619 H1661 0.930 . S
C1620 N1617 1.314 . S
C1620 C1618 1.353 . S
C1620 H1662 0.930 . S
C1621 N1617 1.279 . S
C1621 C1619 1.358 . S
C1621 H1663 0.930 . S
C1622 C1623 1.348 . S
C1622 C1624 1.356 . S
C1622 O1647 1.325 . S
C1623 C1622 1.348 . S
C1623 C1625 1.353 . S
C1623 H1664 0.929 . S
C1624 C1622 1.356 . S
C1624 C1626 1.358 . S
C1624 H1665 0.930 . S
C1625 C1623 1.353 . S
C1625 N1627 1.314 . S
C1625 H1666 0.930 . S
C1626 C1624 1.358 . S
C1626 N1627 1.279 . S
C1626 H1667 0.930 . S
N1627 C1625 1.314 . S
N1627 C1626 1.279 . S
C1628 C1630 1.353 . S
C1628 N1631 1.314 . S
C1628 H1634 0.930 . S
C1629 N1631 1.279 . S
C1629 C1632 1.358 . S
C1629 H1635 0.930 . S
C1630 C1628 1.353 . S
C1630 C1633 1.348 . S
C1630 H1668 0.929 . S
N1631 Li1586 1.990 . S
N1631 C1628 1.314 . S
N1631 C1629 1.279 . S
C1632 C1629 1.358 . S
C1632 C1633 1.356 . S
C1632 H1669 0.930 . S
C1633 C1630 1.348 . S
C1633 C1632 1.356 . S
H1634 C1628 0.930 . S
H1635 C1629 0.930 . S
C1636 N1637 1.314 . S
C1636 C1638 1.353 . S
C1636 H1642 0.930 . S
N1637 Li1587 1.990 . S
N1637 C1636 1.314 . S
N1637 C1640 1.279 . S
C1638 C1636 1.353 . S
C1638 C1641 1.348 . S
C1638 H1670 0.929 . S
C1639 C1640 1.358 . S
C1639 C1641 1.356 . S
C1639 H1671 0.930 . S
C1640 N1637 1.279 . S
C1640 C1639 1.358 . S
C1640 H1643 0.930 . S
C1641 C1638 1.348 . S
C1641 C1639 1.356 . S
H1642 C1636 0.930 . S
H1643 C1640 0.930 . S
O1644 Li1584 1.956 . S
O1644 Li1585 1.970 . S
O1644 Li1586 1.961 . S
O1644 C1588 1.325 . S
O1645 Li1584 1.970 . S
O1645 Li1585 1.956 . S
O1645 Li1587 1.961 . S
O1645 C1594 1.325 . S
O1646 Li1584 1.961 . S
O1646 Li1586 1.956 . S
O1646 Li1587 1.970 . S
O1646 C1616 1.325 . S
O1647 Li1585 1.961 . S
O1647 Li1586 1.970 . S
O1647 Li1587 1.956 . S
O1647 C1622 1.325 . S
H1648 C1590 0.929 . S
H1649 C1591 0.930 . S
H1650 C1592 0.930 . S
H1651 C1593 0.930 . S
H1652 C1595 0.930 . S
H1653 C1597 0.929 . S
H1654 C1598 0.930 . S
H1655 C1599 0.930 . S
H1656 C1602 0.930 . S
H1657 C1605 0.929 . S
H1658 C1610 0.929 . S
H1659 C1611 0.930 . S
H1660 C1618 0.929 . S
H1661 C1619 0.930 . S
H1662 C1620 0.930 . S
H1663 C1621 0.930 . S
H1664 C1623 0.929 . S
H1665 C1624 0.930 . S
H1666 C1625 0.930 . S
H1667 C1626 0.930 . S
H1668 C1630 0.929 . S
H1669 C1632 0.930 . S
H1670 C1638 0.929 . S
H1671 C1639 0.930 . S
Li1672 N1689 1.990 . S
Li1672 O1732 1.956 . S
Li1672 O1733 1.970 . S
Li1672 O1734 1.961 . S
Li1673 N1697 1.990 . S
Li1673 O1732 1.970 . S
Li1673 O1733 1.956 . S
Li1673 O1735 1.961 . S
Li1674 N1719 1.990 . S
Li1674 O1732 1.961 . S
Li1674 O1734 1.956 . S
Li1674 O1735 1.970 . S
Li1675 N1725 1.990 . S
Li1675 O1733 1.961 . S
Li1675 O1734 1.970 . S
Li1675 O1735 1.956 . S
C1676 C1678 1.348 . S
C1676 C1679 1.356 . S
C1676 O1732 1.325 . S
N1677 C1680 1.314 . S
N1677 C1681 1.279 . S
C1678 C1676 1.348 . S
C1678 C1680 1.353 . S
C1678 H1736 0.929 . S
C1679 C1676 1.356 . S
C1679 C1681 1.358 . S
C1679 H1737 0.930 . S
C1680 N1677 1.314 . S
C1680 C1678 1.353 . S
C1680 H1738 0.930 . S
C1681 N1677 1.279 . S
C1681 C1679 1.358 . S
C1681 H1739 0.930 . S
C1682 C1685 1.348 . S
C1682 C1686 1.356 . S
C1682 O1733 1.325 . S
C1683 N1684 1.279 . S
C1683 C1686 1.358 . S
C1683 H1740 0.930 . S
N1684 C1683 1.279 . S
N1684 C1687 1.314 . S
C1685 C1682 1.348 . S
C1685 C1687 1.353 . S
C1685 H1741 0.929 . S
C1686 C1682 1.356 . S
C1686 C1683 1.358 . S
C1686 H1742 0.930 . S
C1687 N1684 1.314 . S
C1687 C1685 1.353 . S
C1687 H1743 0.930 . S
C1688 N1689 1.314 . S
C1688 C1693 1.353 . S
C1688 H1694 0.930 . S
N1689 Li1672 1.990 . S
N1689 C1688 1.314 . S
N1689 C1691 1.279 . S
C1690 C1691 1.358 . S
C1690 C1692 1.356 . S
C1690 H1744 0.930 . S
C1691 N1689 1.279 . S
C1691 C1690 1.358 . S
C1691 H1695 0.930 . S
C1692 C1690 1.356 . S
C1692 C1693 1.348 . S
C1693 C1688 1.353 . S
C1693 C1692 1.348 . S
C1693 H1745 0.929 . S
H1694 C1688 0.930 . S
H1695 C1691 0.930 . S
C1696 N1697 1.314 . S
C1696 C1698 1.353 . S
C1696 H1702 0.930 . S
N1697 Li1673 1.990 . S
N1697 C1696 1.314 . S
N1697 C1700 1.279 . S
C1698 C1696 1.353 . S
C1698 C1701 1.348 . S
C1698 H1746 0.929 . S
C1699 C1700 1.358 . S
C1699 C1701 1.356 . S
C1699 H1747 0.930 . S
C1700 N1697 1.279 . S
C1700 C1699 1.358 . S
C1700 H1703 0.930 . S
C1701 C1698 1.348 . S
C1701 C1699 1.356 . S
H1702 C1696 0.930 . S
H1703 C1700 0.930 . S
C1704 C1706 1.348 1_545 S
C1704 C1707 1.356 . S
C1704 O1734 1.325 . S
N1705 C1708 1.314 . S
N1705 C1709 1.279 . S
C1706 C1704 1.348 1_565 S
C1706 C1708 1.353 . S
C1706 H1748 0.929 . S
C1707 C1704 1.356 . S
C1707 C1709 1.358 1_545 S
C1707 H1749 0.930 . S
C1708 N1705 1.314 . S
C1708 C1706 1.353 . S
C1708 H1750 0.930 . S
C1709 N1705 1.279 . S
C1709 C1707 1.358 1_565 S
C1709 H1751 0.930 . S
C1710 C1711 1.348 . S
C1710 C1712 1.356 . S
C1710 O1735 1.325 . S
C1711 C1710 1.348 . S
C1711 C1713 1.353 . S
C1711 H1752 0.929 . S
C1712 C1710 1.356 . S
C1712 C1714 1.358 . S
C1712 H1753 0.930 . S
C1713 C1711 1.353 . S
C1713 N1715 1.314 . S
C1713 H1754 0.930 . S
C1714 C1712 1.358 . S
C1714 N1715 1.279 . S
C1714 H1755 0.930 . S
N1715 C1713 1.314 . S
N1715 C1714 1.279 . S
C1716 C1718 1.353 . S
C1716 N1719 1.314 . S
C1716 H1722 0.930 . S
C1717 N1719 1.279 . S
C1717 C1720 1.358 . S
C1717 H1723 0.930 . S
C1718 C1716 1.353 . S
C1718 C1721 1.348 . S
C1718 H1756 0.929 . S
N1719 Li1674 1.990 . S
N1719 C1716 1.314 . S
N1719 C1717 1.279 . S
C1720 C1717 1.358 . S
C1720 C1721 1.356 . S
C1720 H1757 0.930 . S
C1721 C1718 1.348 . S
C1721 C1720 1.356 . S
H1722 C1716 0.930 . S
H1723 C1717 0.930 . S
C1724 N1725 1.314 1_565 S
C1724 C1726 1.353 . S
C1724 H1730 0.930 1_565 S
N1725 Li1675 1.990 . S
N1725 C1724 1.314 1_545 S
N1725 C1728 1.278 . S
C1726 C1724 1.353 . S
C1726 C1729 1.348 . S
C1726 H1758 0.929 . S
C1727 C1728 1.362 1_565 S
C1727 C1729 1.356 . S
C1727 H1759 0.930 . S
C1728 N1725 1.278 . S
C1728 C1727 1.362 1_545 S
C1728 H1731 0.928 . S
C1729 C1726 1.348 . S
C1729 C1727 1.356 . S
H1730 C1724 0.930 1_545 S
H1731 C1728 0.928 . S
O1732 Li1672 1.956 . S
O1732 Li1673 1.970 . S
O1732 Li1674 1.961 . S
O1732 C1676 1.325 . S
O1733 Li1672 1.970 . S
O1733 Li1673 1.956 . S
O1733 Li1675 1.961 . S
O1733 C1682 1.325 . S
O1734 Li1672 1.961 . S
O1734 Li1674 1.956 . S
O1734 Li1675 1.970 . S
O1734 C1704 1.325 . S
O1735 Li1673 1.961 . S
O1735 Li1674 1.970 . S
O1735 Li1675 1.956 . S
O1735 C1710 1.325 . S
H1736 C1678 0.929 . S
H1737 C1679 0.930 . S
H1738 C1680 0.930 . S
H1739 C1681 0.930 . S
H1740 C1683 0.930 . S
H1741 C1685 0.929 . S
H1742 C1686 0.930 . S
H1743 C1687 0.930 . S
H1744 C1690 0.930 . S
H1745 C1693 0.929 . S
H1746 C1698 0.929 . S
H1747 C1699 0.930 . S
H1748 C1706 0.929 . S
H1749 C1707 0.930 . S
H1750 C1708 0.930 . S
H1751 C1709 0.930 . S
H1752 C1711 0.929 . S
H1753 C1712 0.930 . S
H1754 C1713 0.930 . S
H1755 C1714 0.930 . S
H1756 C1718 0.929 . S
H1757 C1720 0.930 . S
H1758 C1726 0.929 . S
H1759 C1727 0.930 . S
Li1760 N1777 1.990 . S
Li1760 O1820 1.956 . S
Li1760 O1821 1.970 . S
Li1760 O1822 1.961 . S
Li1761 N1785 1.990 . S
Li1761 O1820 1.973 1_556 S
Li1761 O1821 1.937 1_556 S
Li1761 O1823 1.980 . S
Li1762 N1807 1.990 . S
Li1762 O1820 1.961 1_556 S
Li1762 O1822 1.956 1_556 S
Li1762 O1823 1.970 . S
Li1763 N1813 1.990 . S
Li1763 O1821 1.961 1_556 S
Li1763 O1822 1.970 1_556 S
Li1763 O1823 1.956 . S
C1764 C1766 1.348 . S
C1764 C1767 1.356 . S
C1764 O1820 1.325 . S
N1765 C1768 1.314 . S
N1765 C1769 1.279 . S
C1766 C1764 1.348 . S
C1766 C1768 1.353 . S
C1766 H1824 0.929 . S
C1767 C1764 1.356 . S
C1767 C1769 1.358 . S
C1767 H1825 0.930 . S
C1768 N1765 1.314 . S
C1768 C1766 1.353 . S
C1768 H1826 0.930 . S
C1769 N1765 1.279 . S
C1769 C1767 1.358 . S
C1769 H1827 0.930 . S
C1770 C1773 1.348 . S
C1770 C1774 1.356 . S
C1770 O1821 1.325 . S
C1771 N1772 1.279 . S
C1771 C1774 1.358 . S
C1771 H1828 0.930 . S
N1772 C1771 1.279 . S
N1772 C1775 1.314 . S
C1773 C1770 1.348 . S
C1773 C1775 1.353 . S
C1773 H1829 0.929 . S
C1774 C1770 1.356 . S
C1774 C1771 1.358 . S
C1774 H1830 0.930 . S
C1775 N1772 1.314 . S
C1775 C1773 1.353 . S
C1775 H1831 0.930 . S
C1776 N1777 1.314 . S
C1776 C1781 1.353 . S
C1776 H1782 0.930 . S
N1777 Li1760 1.990 . S
N1777 C1776 1.314 . S
N1777 C1779 1.279 . S
C1778 C1779 1.358 . S
C1778 C1780 1.356 . S
C1778 H1832 0.930 . S
C1779 N1777 1.279 . S
C1779 C1778 1.358 . S
C1779 H1783 0.930 . S
C1780 C1778 1.356 . S
C1780 C1781 1.348 . S
C1781 C1776 1.353 . S
C1781 C1780 1.348 . S
C1781 H1833 0.929 . S
H1782 C1776 0.930 . S
H1783 C1779 0.930 . S
C1784 N1785 1.314 . S
C1784 C1786 1.353 . S
C1784 H1790 0.930 . S
N1785 Li1761 1.990 . S
N1785 C1784 1.314 . S
N1785 C1788 1.279 1_556 S
C1786 C1784 1.353 . S
C1786 C1789 1.348 . S
C1786 H1834 0.929 . S
C1787 C1788 1.358 . S
C1787 C1789 1.356 1_554 S
C1787 H1835 0.930 . S
C1788 N1785 1.279 1_554 S
C1788 C1787 1.358 . S
C1788 H1791 0.930 . S
C1789 C1786 1.348 . S
C1789 C1787 1.356 1_556 S
H1790 C1784 0.930 . S
H1791 C1788 0.930 . S
C1792 C1794 1.348 1_554 S
C1792 C1795 1.356 . S
C1792 O1822 1.325 . S
N1793 C1796 1.314 1_554 S
N1793 C1797 1.279 . S
C1794 C1792 1.348 1_556 S
C1794 C1796 1.353 . S
C1794 H1836 0.929 . S
C1795 C1792 1.356 . S
C1795 C1797 1.358 . S
C1795 H1837 0.930 . S
C1796 N1793 1.314 1_556 S
C1796 C1794 1.353 . S
C1796 H1838 0.930 . S
C1797 N1793 1.279 . S
C1797 C1795 1.358 . S
C1797 H1839 0.930 . S
C1798 C1799 1.348 . S
C1798 C1800 1.356 . S
C1798 O1823 1.325 . S
C1799 C1798 1.348 . S
C1799 C1801 1.353 . S
C1799 H1840 0.929 . S
C1800 C1798 1.356 . S
C1800 C1802 1.358 . S
C1800 H1841 0.930 . S
C1801 C1799 1.353 . S
C1801 N1803 1.314 . S
C1801 H1842 0.930 . S
C1802 C1800 1.358 . S
C1802 N1803 1.279 . S
C1802 H1843 0.930 . S
N1803 C1801 1.314 . S
N1803 C1802 1.279 . S
C1804 C1806 1.353 . S
C1804 N1807 1.314 . S
C1804 H1810 0.930 . S
C1805 N1807 1.279 . S
C1805 C1808 1.358 . S
C1805 H1811 0.930 . S
C1806 C1804 1.353 . S
C1806 C1809 1.348 . S
C1806 H1844 0.929 . S
N1807 Li1762 1.990 . S
N1807 C1804 1.314 . S
N1807 C1805 1.279 . S
C1808 C1805 1.358 . S
C1808 C1809 1.356 . S
C1808 H1845 0.930 . S
C1809 C1806 1.348 . S
C1809 C1808 1.356 . S
H1810 C1804 0.930 . S
H1811 C1805 0.930 . S
C1812 N1813 1.314 1_554 S
C1812 C1814 1.353 . S
C1812 H1818 0.930 . S
N1813 Li1763 1.990 . S
N1813 C1812 1.314 1_556 S
N1813 C1816 1.279 . S
C1814 C1812 1.353 . S
C1814 C1817 1.348 1_554 S
C1814 H1846 0.929 . S
C1815 C1816 1.358 . S
C1815 C1817 1.356 . S
C1815 H1847 0.930 . S
C1816 N1813 1.279 . S
C1816 C1815 1.358 . S
C1816 H1819 0.930 . S
C1817 C1814 1.348 1_556 S
C1817 C1815 1.356 . S
H1818 C1812 0.930 . S
H1819 C1816 0.930 . S
O1820 Li1760 1.956 . S
O1820 Li1761 1.973 1_554 S
O1820 Li1762 1.961 1_554 S
O1820 C1764 1.325 . S
O1821 Li1760 1.970 . S
O1821 Li1761 1.937 1_554 S
O1821 Li1763 1.961 1_554 S
O1821 C1770 1.325 . S
O1822 Li1760 1.961 . S
O1822 Li1762 1.956 1_554 S
O1822 Li1763 1.970 1_554 S
O1822 C1792 1.325 . S
O1823 Li1761 1.980 . S
O1823 Li1762 1.970 . S
O1823 Li1763 1.956 . S
O1823 C1798 1.325 . S
H1824 C1766 0.929 . S
H1825 C1767 0.930 . S
H1826 C1768 0.930 . S
H1827 C1769 0.930 . S
H1828 C1771 0.930 . S
H1829 C1773 0.929 . S
H1830 C1774 0.930 . S
H1831 C1775 0.930 . S
H1832 C1778 0.930 . S
H1833 C1781 0.929 . S
H1834 C1786 0.929 . S
H1835 C1787 0.930 . S
H1836 C1794 0.929 . S
H1837 C1795 0.930 . S
H1838 C1796 0.930 . S
H1839 C1797 0.930 . S
H1840 C1799 0.929 . S
H1841 C1800 0.930 . S
H1842 C1801 0.930 . S
H1843 C1802 0.930 . S
H1844 C1806 0.929 . S
H1845 C1808 0.930 . S
H1846 C1814 0.929 . S
H1847 C1815 0.930 . S
Li1848 N1865 1.990 . S
Li1848 O1908 1.956 . S
Li1848 O1909 1.970 . S
Li1848 O1910 1.961 . S
Li1849 N1873 1.990 . S
Li1849 O1908 1.970 . S
Li1849 O1909 1.956 . S
Li1849 O1911 1.961 . S
Li1850 N1895 1.990 . S
Li1850 O1908 1.961 . S
Li1850 O1910 1.956 . S
Li1850 O1911 1.970 . S
Li1851 N1901 1.990 . S
Li1851 O1909 1.961 . S
Li1851 O1910 1.970 . S
Li1851 O1911 1.956 . S
C1852 C1854 1.348 . S
C1852 C1855 1.356 . S
C1852 O1908 1.325 . S
N1853 C1856 1.314 . S
N1853 C1857 1.279 . S
C1854 C1852 1.348 . S
C1854 C1856 1.353 . S
C1854 H1912 0.929 . S
C1855 C1852 1.356 . S
C1855 C1857 1.358 . S
C1855 H1913 0.930 . S
C1856 N1853 1.314 . S
C1856 C1854 1.353 . S
C1856 H1914 0.930 . S
C1857 N1853 1.279 . S
C1857 C1855 1.358 . S
C1857 H1915 0.930 . S
C1858 C1861 1.348 . S
C1858 C1862 1.356 . S
C1858 O1909 1.325 . S
C1859 N1860 1.279 . S
C1859 C1862 1.358 . S
C1859 H1916 0.930 . S
N1860 C1859 1.279 . S
N1860 C1863 1.314 . S
C1861 C1858 1.348 . S
C1861 C1863 1.353 . S
C1861 H1917 0.929 . S
C1862 C1858 1.356 . S
C1862 C1859 1.358 . S
C1862 H1918 0.930 . S
C1863 N1860 1.314 . S
C1863 C1861 1.353 . S
C1863 H1919 0.930 . S
C1864 N1865 1.314 . S
C1864 C1869 1.353 . S
C1864 H1870 0.930 . S
N1865 Li1848 1.990 . S
N1865 C1864 1.314 . S
N1865 C1867 1.279 . S
C1866 C1867 1.358 . S
C1866 C1868 1.356 . S
C1866 H1920 0.930 . S
C1867 N1865 1.279 . S
C1867 C1866 1.358 . S
C1867 H1871 0.930 . S
C1868 C1866 1.356 . S
C1868 C1869 1.348 . S
C1869 C1864 1.353 . S
C1869 C1868 1.348 . S
C1869 H1921 0.929 . S
H1870 C1864 0.930 . S
H1871 C1867 0.930 . S
C1872 N1873 1.314 . S
C1872 C1874 1.353 . S
C1872 H1878 0.930 . S
N1873 Li1849 1.990 . S
N1873 C1872 1.314 . S
N1873 C1876 1.279 . S
C1874 C1872 1.353 . S
C1874 C1877 1.348 . S
C1874 H1922 0.929 . S
C1875 C1876 1.358 . S
C1875 C1877 1.356 . S
C1875 H1923 0.930 . S
C1876 N1873 1.279 . S
C1876 C1875 1.358 . S
C1876 H1879 0.930 . S
C1877 C1874 1.348 . S
C1877 C1875 1.356 . S
H1878 C1872 0.930 . S
H1879 C1876 0.930 . S
C1880 C1882 1.348 . S
C1880 C1883 1.356 . S
C1880 O1910 1.325 . S
N1881 C1884 1.314 . S
N1881 C1885 1.279 . S
C1882 C1880 1.348 . S
C1882 C1884 1.353 . S
C1882 H1924 0.929 . S
C1883 C1880 1.356 . S
C1883 C1885 1.358 . S
C1883 H1925 0.930 . S
C1884 N1881 1.314 . S
C1884 C1882 1.353 . S
C1884 H1926 0.930 . S
C1885 N1881 1.279 . S
C1885 C1883 1.358 . S
C1885 H1927 0.930 . S
C1886 C1887 1.348 . S
C1886 C1888 1.356 . S
C1886 O1911 1.325 . S
C1887 C1886 1.348 . S
C1887 C1889 1.353 . S
C1887 H1928 0.929 . S
C1888 C1886 1.356 . S
C1888 C1890 1.358 . S
C1888 H1929 0.930 . S
C1889 C1887 1.353 . S
C1889 N1891 1.314 . S
C1889 H1930 0.930 . S
C1890 C1888 1.358 . S
C1890 N1891 1.279 . S
C1890 H1931 0.930 . S
N1891 C1889 1.314 . S
N1891 C1890 1.279 . S
C1892 C1894 1.353 . S
C1892 N1895 1.314 . S
C1892 H1898 0.930 . S
C1893 N1895 1.279 . S
C1893 C1896 1.358 . S
C1893 H1899 0.930 . S
C1894 C1892 1.353 . S
C1894 C1897 1.348 . S
C1894 H1932 0.929 . S
N1895 Li1850 1.990 . S
N1895 C1892 1.314 . S
N1895 C1893 1.279 . S
C1896 C1893 1.358 . S
C1896 C1897 1.356 . S
C1896 H1933 0.930 . S
C1897 C1894 1.348 . S
C1897 C1896 1.356 . S
H1898 C1892 0.930 . S
H1899 C1893 0.930 . S
C1900 N1901 1.314 . S
C1900 C1902 1.353 . S
C1900 H1906 0.930 . S
N1901 Li1851 1.990 . S
N1901 C1900 1.314 . S
N1901 C1904 1.279 . S
C1902 C1900 1.353 . S
C1902 C1905 1.348 . S
C1902 H1934 0.929 . S
C1903 C1904 1.358 . S
C1903 C1905 1.356 . S
C1903 H1935 0.930 . S
C1904 N1901 1.279 . S
C1904 C1903 1.358 . S
C1904 H1907 0.930 . S
C1905 C1902 1.348 . S
C1905 C1903 1.356 . S
H1906 C1900 0.930 . S
H1907 C1904 0.930 . S
O1908 Li1848 1.956 . S
O1908 Li1849 1.970 . S
O1908 Li1850 1.961 . S
O1908 C1852 1.325 . S
O1909 Li1848 1.970 . S
O1909 Li1849 1.956 . S
O1909 Li1851 1.961 . S
O1909 C1858 1.325 . S
O1910 Li1848 1.961 . S
O1910 Li1850 1.956 . S
O1910 Li1851 1.970 . S
O1910 C1880 1.325 . S
O1911 Li1849 1.961 . S
O1911 Li1850 1.970 . S
O1911 Li1851 1.956 . S
O1911 C1886 1.325 . S
H1912 C1854 0.929 . S
H1913 C1855 0.930 . S
H1914 C1856 0.930 . S
H1915 C1857 0.930 . S
H1916 C1859 0.930 . S
H1917 C1861 0.929 . S
H1918 C1862 0.930 . S
H1919 C1863 0.930 . S
H1920 C1866 0.930 . S
H1921 C1869 0.929 . S
H1922 C1874 0.929 . S
H1923 C1875 0.930 . S
H1924 C1882 0.929 . S
H1925 C1883 0.930 . S
H1926 C1884 0.930 . S
H1927 C1885 0.930 . S
H1928 C1887 0.929 . S
H1929 C1888 0.930 . S
H1930 C1889 0.930 . S
H1931 C1890 0.930 . S
H1932 C1894 0.929 . S
H1933 C1896 0.930 . S
H1934 C1902 0.929 . S
H1935 C1903 0.930 . S
Li1936 N1953 1.990 . S
Li1936 O1996 1.956 . S
Li1936 O1997 1.970 . S
Li1936 O1998 1.961 . S
Li1937 N1961 1.990 . S
Li1937 O1996 1.970 . S
Li1937 O1997 1.956 . S
Li1937 O1999 1.961 . S
Li1938 N1983 1.990 . S
Li1938 O1996 1.961 . S
Li1938 O1998 1.956 . S
Li1938 O1999 1.970 . S
Li1939 N1989 1.990 . S
Li1939 O1997 1.961 . S
Li1939 O1998 1.970 . S
Li1939 O1999 1.956 . S
C1940 C1942 1.348 . S
C1940 C1943 1.356 . S
C1940 O1996 1.325 . S
N1941 C1944 1.314 . S
N1941 C1945 1.279 . S
C1942 C1940 1.348 . S
C1942 C1944 1.353 . S
C1942 H2000 0.929 . S
C1943 C1940 1.356 . S
C1943 C1945 1.358 . S
C1943 H2001 0.930 . S
C1944 N1941 1.314 . S
C1944 C1942 1.353 . S
C1944 H2002 0.930 . S
C1945 N1941 1.279 . S
C1945 C1943 1.358 . S
C1945 H2003 0.930 . S
C1946 C1949 1.348 . S
C1946 C1950 1.356 . S
C1946 O1997 1.325 . S
C1947 N1948 1.279 . S
C1947 C1950 1.358 . S
C1947 H2004 0.930 . S
N1948 C1947 1.279 . S
N1948 C1951 1.314 . S
C1949 C1946 1.348 . S
C1949 C1951 1.353 . S
C1949 H2005 0.929 . S
C1950 C1946 1.356 . S
C1950 C1947 1.358 . S
C1950 H2006 0.930 . S
C1951 N1948 1.314 . S
C1951 C1949 1.353 . S
C1951 H2007 0.930 . S
C1952 N1953 1.314 . S
C1952 C1957 1.353 . S
C1952 H1958 0.930 . S
N1953 Li1936 1.990 . S
N1953 C1952 1.314 . S
N1953 C1955 1.279 . S
C1954 C1955 1.358 . S
C1954 C1956 1.356 . S
C1954 H2008 0.930 . S
C1955 N1953 1.279 . S
C1955 C1954 1.358 . S
C1955 H1959 0.930 . S
C1956 C1954 1.356 . S
C1956 C1957 1.348 . S
C1957 C1952 1.353 . S
C1957 C1956 1.348 . S
C1957 H2009 0.929 . S
H1958 C1952 0.930 . S
H1959 C1955 0.930 . S
C1960 N1961 1.314 . S
C1960 C1962 1.353 . S
C1960 H1966 0.930 . S
N1961 Li1937 1.990 . S
N1961 C1960 1.314 . S
N1961 C1964 1.279 . S
C1962 C1960 1.353 . S
C1962 C1965 1.348 . S
C1962 H2010 0.929 . S
C1963 C1964 1.358 . S
C1963 C1965 1.356 . S
C1963 H2011 0.930 . S
C1964 N1961 1.279 . S
C1964 C1963 1.358 . S
C1964 H1967 0.930 . S
C1965 C1962 1.348 . S
C1965 C1963 1.356 . S
H1966 C1960 0.930 . S
H1967 C1964 0.930 . S
C1968 C1970 1.348 . S
C1968 C1971 1.356 . S
C1968 O1998 1.325 . S
N1969 C1972 1.314 . S
N1969 C1973 1.279 . S
C1970 C1968 1.348 . S
C1970 C1972 1.353 . S
C1970 H2012 0.929 . S
C1971 C1968 1.356 . S
C1971 C1973 1.358 . S
C1971 H2013 0.930 . S
C1972 N1969 1.314 . S
C1972 C1970 1.353 . S
C1972 H2014 0.930 . S
C1973 N1969 1.279 . S
C1973 C1971 1.358 . S
C1973 H2015 0.930 . S
C1974 C1975 1.348 . S
C1974 C1976 1.356 . S
C1974 O1999 1.325 . S
C1975 C1974 1.348 . S
C1975 C1977 1.353 . S
C1975 H2016 0.929 . S
C1976 C1974 1.356 . S
C1976 C1978 1.358 . S
C1976 H2017 0.930 . S
C1977 C1975 1.353 . S
C1977 N1979 1.314 . S
C1977 H2018 0.930 . S
C1978 C1976 1.358 . S
C1978 N1979 1.279 . S
C1978 H2019 0.930 . S
N1979 C1977 1.314 . S
N1979 C1978 1.279 . S
C1980 C1982 1.353 . S
C1980 N1983 1.314 . S
C1980 H1986 0.930 . S
C1981 N1983 1.279 . S
C1981 C1984 1.358 . S
C1981 H1987 0.930 . S
C1982 C1980 1.353 . S
C1982 C1985 1.348 . S
C1982 H2020 0.929 . S
N1983 Li1938 1.990 . S
N1983 C1980 1.314 . S
N1983 C1981 1.279 . S
C1984 C1981 1.358 . S
C1984 C1985 1.356 . S
C1984 H2021 0.930 . S
C1985 C1982 1.348 . S
C1985 C1984 1.356 . S
H1986 C1980 0.930 . S
H1987 C1981 0.930 . S
C1988 N1989 1.314 . S
C1988 C1990 1.353 . S
C1988 H1994 0.930 . S
N1989 Li1939 1.990 . S
N1989 C1988 1.314 . S
N1989 C1992 1.279 . S
C1990 C1988 1.353 . S
C1990 C1993 1.348 . S
C1990 H2022 0.929 . S
C1991 C1992 1.358 . S
C1991 C1993 1.356 . S
C1991 H2023 0.930 . S
C1992 N1989 1.279 . S
C1992 C1991 1.358 . S
C1992 H1995 0.930 . S
C1993 C1990 1.348 . S
C1993 C1991 1.356 . S
H1994 C1988 0.930 . S
H1995 C1992 0.930 . S
O1996 Li1936 1.956 . S
O1996 Li1937 1.970 . S
O1996 Li1938 1.961 . S
O1996 C1940 1.325 . S
O1997 Li1936 1.970 . S
O1997 Li1937 1.956 . S
O1997 Li1939 1.961 . S
O1997 C1946 1.325 . S
O1998 Li1936 1.961 . S
O1998 Li1938 1.956 . S
O1998 Li1939 1.970 . S
O1998 C1968 1.325 . S
O1999 Li1937 1.961 . S
O1999 Li1938 1.970 . S
O1999 Li1939 1.956 . S
O1999 C1974 1.325 . S
H2000 C1942 0.929 . S
H2001 C1943 0.930 . S
H2002 C1944 0.930 . S
H2003 C1945 0.930 . S
H2004 C1947 0.930 . S
H2005 C1949 0.929 . S
H2006 C1950 0.930 . S
H2007 C1951 0.930 . S
H2008 C1954 0.930 . S
H2009 C1957 0.929 . S
H2010 C1962 0.929 . S
H2011 C1963 0.930 . S
H2012 C1970 0.929 . S
H2013 C1971 0.930 . S
H2014 C1972 0.930 . S
H2015 C1973 0.930 . S
H2016 C1975 0.929 . S
H2017 C1976 0.930 . S
H2018 C1977 0.930 . S
H2019 C1978 0.930 . S
H2020 C1982 0.929 . S
H2021 C1984 0.930 . S
H2022 C1990 0.929 . S
H2023 C1991 0.930 . S
Li2024 N2041 1.990 . S
Li2024 O2084 1.956 . S
Li2024 O2085 1.970 . S
Li2024 O2086 1.961 . S
Li2025 N2049 1.990 . S
Li2025 O2084 1.970 . S
Li2025 O2085 1.956 . S
Li2025 O2087 1.961 . S
Li2026 N2071 1.990 . S
Li2026 O2084 1.961 . S
Li2026 O2086 1.956 . S
Li2026 O2087 1.970 . S
Li2027 N2077 1.990 . S
Li2027 O2085 1.961 . S
Li2027 O2086 1.970 . S
Li2027 O2087 1.956 . S
C2028 C2030 1.348 . S
C2028 C2031 1.356 . S
C2028 O2084 1.325 . S
N2029 C2032 1.314 . S
N2029 C2033 1.279 . S
C2030 C2028 1.348 . S
C2030 C2032 1.353 . S
C2030 H2088 0.929 . S
C2031 C2028 1.356 . S
C2031 C2033 1.358 . S
C2031 H2089 0.930 . S
C2032 N2029 1.314 . S
C2032 C2030 1.353 . S
C2032 H2090 0.930 . S
C2033 N2029 1.279 . S
C2033 C2031 1.358 . S
C2033 H2091 0.930 . S
C2034 C2037 1.348 . S
C2034 C2038 1.356 . S
C2034 O2085 1.325 . S
C2035 N2036 1.279 . S
C2035 C2038 1.358 . S
C2035 H2092 0.930 . S
N2036 C2035 1.279 . S
N2036 C2039 1.314 . S
C2037 C2034 1.348 . S
C2037 C2039 1.353 . S
C2037 H2093 0.929 . S
C2038 C2034 1.356 . S
C2038 C2035 1.358 . S
C2038 H2094 0.930 . S
C2039 N2036 1.314 . S
C2039 C2037 1.353 . S
C2039 H2095 0.930 . S
C2040 N2041 1.314 . S
C2040 C2045 1.353 . S
C2040 H2046 0.930 . S
N2041 Li2024 1.990 . S
N2041 C2040 1.314 . S
N2041 C2043 1.279 . S
C2042 C2043 1.358 . S
C2042 C2044 1.356 . S
C2042 H2096 0.930 . S
C2043 N2041 1.279 . S
C2043 C2042 1.358 . S
C2043 H2047 0.930 . S
C2044 C2042 1.356 . S
C2044 C2045 1.348 . S
C2045 C2040 1.353 . S
C2045 C2044 1.348 . S
C2045 H2097 0.929 . S
H2046 C2040 0.930 . S
H2047 C2043 0.930 . S
C2048 N2049 1.314 . S
C2048 C2050 1.353 . S
C2048 H2054 0.930 . S
N2049 Li2025 1.990 . S
N2049 C2048 1.314 . S
N2049 C2052 1.279 . S
C2050 C2048 1.353 . S
C2050 C2053 1.348 . S
C2050 H2098 0.929 . S
C2051 C2052 1.358 . S
C2051 C2053 1.356 . S
C2051 H2099 0.930 . S
C2052 N2049 1.279 . S
C2052 C2051 1.358 . S
C2052 H2055 0.930 . S
C2053 C2050 1.348 . S
C2053 C2051 1.356 . S
H2054 C2048 0.930 . S
H2055 C2052 0.930 . S
C2056 C2058 1.348 . S
C2056 C2059 1.356 . S
C2056 O2086 1.325 . S
N2057 C2060 1.314 . S
N2057 C2061 1.279 . S
C2058 C2056 1.348 . S
C2058 C2060 1.353 . S
C2058 H2100 0.929 . S
C2059 C2056 1.356 . S
C2059 C2061 1.358 . S
C2059 H2101 0.930 . S
C2060 N2057 1.314 . S
C2060 C2058 1.353 . S
C2060 H2102 0.930 . S
C2061 N2057 1.279 . S
C2061 C2059 1.358 . S
C2061 H2103 0.930 . S
C2062 C2063 1.348 . S
C2062 C2064 1.356 . S
C2062 O2087 1.325 . S
C2063 C2062 1.348 . S
C2063 C2065 1.353 . S
C2063 H2104 0.929 . S
C2064 C2062 1.356 . S
C2064 C2066 1.358 . S
C2064 H2105 0.930 . S
C2065 C2063 1.353 . S
C2065 N2067 1.314 . S
C2065 H2106 0.930 . S
C2066 C2064 1.358 . S
C2066 N2067 1.279 . S
C2066 H2107 0.930 . S
N2067 C2065 1.314 . S
N2067 C2066 1.279 . S
C2068 C2070 1.353 . S
C2068 N2071 1.314 . S
C2068 H2074 0.930 . S
C2069 N2071 1.279 . S
C2069 C2072 1.358 . S
C2069 H2075 0.930 . S
C2070 C2068 1.353 . S
C2070 C2073 1.348 . S
C2070 H2108 0.929 . S
N2071 Li2026 1.990 . S
N2071 C2068 1.314 . S
N2071 C2069 1.279 . S
C2072 C2069 1.358 . S
C2072 C2073 1.356 . S
C2072 H2109 0.930 . S
C2073 C2070 1.348 . S
C2073 C2072 1.356 . S
H2074 C2068 0.930 . S
H2075 C2069 0.930 . S
C2076 N2077 1.314 . S
C2076 C2078 1.353 . S
C2076 H2082 0.930 . S
N2077 Li2027 1.990 . S
N2077 C2076 1.314 . S
N2077 C2080 1.279 . S
C2078 C2076 1.353 . S
C2078 C2081 1.348 . S
C2078 H2110 0.929 . S
C2079 C2080 1.358 . S
C2079 C2081 1.356 . S
C2079 H2111 0.930 . S
C2080 N2077 1.279 . S
C2080 C2079 1.358 . S
C2080 H2083 0.930 . S
C2081 C2078 1.348 . S
C2081 C2079 1.356 . S
H2082 C2076 0.930 . S
H2083 C2080 0.930 . S
O2084 Li2024 1.956 . S
O2084 Li2025 1.970 . S
O2084 Li2026 1.961 . S
O2084 C2028 1.325 . S
O2085 Li2024 1.970 . S
O2085 Li2025 1.956 . S
O2085 Li2027 1.961 . S
O2085 C2034 1.325 . S
O2086 Li2024 1.961 . S
O2086 Li2026 1.956 . S
O2086 Li2027 1.970 . S
O2086 C2056 1.325 . S
O2087 Li2025 1.961 . S
O2087 Li2026 1.970 . S
O2087 Li2027 1.956 . S
O2087 C2062 1.325 . S
H2088 C2030 0.929 . S
H2089 C2031 0.930 . S
H2090 C2032 0.930 . S
H2091 C2033 0.930 . S
H2092 C2035 0.930 . S
H2093 C2037 0.929 . S
H2094 C2038 0.930 . S
H2095 C2039 0.930 . S
H2096 C2042 0.930 . S
H2097 C2045 0.929 . S
H2098 C2050 0.929 . S
H2099 C2051 0.930 . S
H2100 C2058 0.929 . S
H2101 C2059 0.930 . S
H2102 C2060 0.930 . S
H2103 C2061 0.930 . S
H2104 C2063 0.929 . S
H2105 C2064 0.930 . S
H2106 C2065 0.930 . S
H2107 C2066 0.930 . S
H2108 C2070 0.929 . S
H2109 C2072 0.930 . S
H2110 C2078 0.929 . S
H2111 C2079 0.930 . S
Gd2112 N2143 2.661 . S
Gd2112 N2149 2.601 . S
Gd2112 O2156 2.545 . S
Gd2112 O2157 2.606 . S
Gd2112 O2159 2.429 . S
Gd2112 O2160 2.545 . S
Gd2112 O2161 2.412 . S
Gd2112 O2163 2.362 . S
Gd2112 O2164 2.324 1_554 S
Gd2112 C2171 2.828 . S
Gd2113 N2122 2.661 1_545 S
Gd2113 N2126 2.601 1_544 S
Gd2113 O2157 2.362 . S
Gd2113 O2158 2.324 . S
Gd2113 O2162 2.545 1_454 S
Gd2113 O2163 2.606 . S
Gd2113 O2165 2.429 1_554 S
Gd2113 O2166 2.545 . S
Gd2113 O2167 2.412 1_455 S
Gd2113 C2180 2.828 1_454 S
C2114 C2117 1.417 1_655 S
C2114 C2119 1.462 . S
C2114 C2120 1.412 . S
C2115 C2118 1.437 . S
C2115 C2119 1.256 1_556 S
C2115 H2134 0.929 . S
C2116 C2117 1.426 1_556 S
C2116 C2118 1.413 1_455 S
C2116 N2126 1.359 . S
C2117 C2114 1.417 1_455 S
C2117 C2116 1.426 1_554 S
C2117 N2122 1.350 . S
C2118 C2115 1.437 . S
C2118 C2116 1.413 1_655 S
C2118 C2128 1.391 . S
C2119 C2114 1.462 . S
C2119 C2115 1.256 1_554 S
C2119 H2130 0.963 . S
C2120 C2114 1.412 . S
C2120 C2121 1.355 1_655 S
C2120 H2132 0.930 . S
C2121 C2120 1.355 1_455 S
C2121 C2123 1.402 . S
C2121 H2133 0.930 . S
N2122 Gd2113 2.661 1_565 S
N2122 C2117 1.350 . S
N2122 C2123 1.307 . S
C2123 C2121 1.402 . S
C2123 N2122 1.307 . S
C2123 H2124 0.930 1_565 S
H2124 C2123 0.930 1_545 S
C2125 N2126 1.334 . S
C2125 C2127 1.398 . S
C2125 H2129 0.930 1_565 S
N2126 Gd2113 2.601 1_566 S
N2126 C2116 1.359 . S
N2126 C2125 1.334 . S
C2127 C2125 1.398 . S
C2127 C2128 1.356 1_455 S
C2127 H2139 0.930 1_455 S
C2128 C2118 1.391 . S
C2128 C2127 1.356 1_655 S
C2128 H2140 0.929 . S
H2129 C2125 0.930 1_545 S
H2130 C2119 0.963 . S
H2131 C2148 0.930 . S
H2132 C2120 0.930 . S
H2133 C2121 0.930 . S
H2134 C2115 0.929 . S
H2135 C2153 0.930 . S
H2136 C2144 0.914 1_556 S
H2137 C2145 0.930 . S
H2138 C2169 0.929 . S
H2139 C2127 0.930 1_655 S
H2140 C2128 0.929 . S
H2141 C2170 0.930 . S
H2142 C2151 0.930 . S
N2143 Gd2112 2.661 . S
N2143 C2147 1.350 . S
N2143 C2148 1.307 1_554 S
C2144 H2136 0.914 1_554 S
C2144 C2145 1.343 1_554 S
C2144 C2146 1.440 . S
C2145 H2137 0.930 . S
C2145 C2144 1.343 1_556 S
C2145 C2148 1.402 . S
C2146 C2144 1.440 . S
C2146 C2147 1.417 . S
C2146 C2170 1.431 . S
C2147 N2143 1.350 . S
C2147 C2146 1.417 . S
C2147 C2150 1.426 . S
C2148 H2131 0.930 . S
C2148 N2143 1.307 1_556 S
C2148 C2145 1.402 . S
N2149 Gd2112 2.601 . S
N2149 C2150 1.359 . S
N2149 C2153 1.334 . S
C2150 C2147 1.426 . S
C2150 N2149 1.359 . S
C2150 C2154 1.413 . S
C2151 H2142 0.930 . S
C2151 C2152 1.359 . S
C2151 C2153 1.394 . S
C2152 C2151 1.359 . S
C2152 C2154 1.391 . S
C2152 H2155 0.929 . S
C2153 H2135 0.930 . S
C2153 N2149 1.334 . S
C2153 C2151 1.394 . S
C2154 C2150 1.413 . S
C2154 C2152 1.391 . S
C2154 C2169 1.437 . S
H2155 C2152 0.929 . S
O2156 Gd2112 2.545 . S
O2156 C2171 1.258 . S
O2157 Gd2112 2.606 . S
O2157 Gd2113 2.362 . S
O2157 C2168 1.284 . S
O2158 Gd2113 2.324 . S
O2158 C2178 1.254 . S
O2159 Gd2112 2.429 . S
O2159 C2178 1.268 . S
O2160 Gd2112 2.545 . S
O2160 C2168 1.250 . S
O2161 Gd2112 2.412 . S
O2161 C2171 1.252 . S
O2162 Gd2113 2.545 1_656 S
O2162 C2180 1.258 . S
O2163 Gd2112 2.362 . S
O2163 Gd2113 2.606 . S
O2163 C2179 1.284 . S
O2164 Gd2112 2.324 1_556 S
O2164 C2187 1.254 . S
O2165 Gd2113 2.429 1_556 S
O2165 C2187 1.268 . S
O2166 Gd2113 2.545 . S
O2166 C2179 1.250 . S
O2167 Gd2113 2.412 1_655 S
O2167 C2180 1.252 1_554 S
C2168 O2157 1.284 . S
C2168 O2160 1.250 . S
C2169 H2138 0.929 . S
C2169 C2154 1.437 . S
C2169 C2170 1.317 . S
C2170 H2141 0.930 . S
C2170 C2146 1.431 . S
C2170 C2169 1.317 . S
C2171 Gd2112 2.828 . S
C2171 O2156 1.258 . S
C2171 O2161 1.252 . S
C2171 C2172 1.497 . S
C2172 C2171 1.497 . S
C2172 C2173 1.395 . S
C2172 C2174 1.380 . S
C2173 C2172 1.395 . S
C2173 C2176 1.398 . S
C2173 H2188 0.930 . S
C2174 C2172 1.380 . S
C2174 C2175 1.391 . S
C2174 H2189 0.930 . S
C2175 C2174 1.391 . S
C2175 C2177 1.387 . S
C2176 C2173 1.398 . S
C2176 C2177 1.380 . S
C2176 H2190 0.930 . S
C2177 C2175 1.387 . S
C2177 C2176 1.380 . S
C2177 H2191 0.930 . S
C2178 O2158 1.254 . S
C2178 O2159 1.268 . S
C2179 O2163 1.284 . S
C2179 O2166 1.250 . S
C2180 Gd2113 2.828 1_656 S
C2180 O2162 1.258 . S
C2180 O2167 1.252 1_556 S
C2180 C2181 1.497 . S
C2181 C2180 1.497 . S
C2181 C2182 1.395 . S
C2181 C2183 1.380 1_556 S
C2182 C2181 1.395 . S
C2182 C2185 1.398 . S
C2182 H2192 0.930 . S
C2183 C2181 1.380 1_554 S
C2183 C2184 1.391 . S
C2183 H2193 0.930 . S
C2184 C2183 1.391 . S
C2184 C2186 1.387 1_554 S
C2185 C2182 1.398 . S
C2185 C2186 1.380 . S
C2185 H2194 0.930 . S
C2186 C2184 1.387 1_556 S
C2186 C2185 1.380 . S
C2186 H2195 0.930 . S
C2187 O2164 1.254 . S
C2187 O2165 1.268 . S
H2188 C2173 0.930 . S
H2189 C2174 0.930 . S
H2190 C2176 0.930 . S
H2191 C2177 0.930 . S
H2192 C2182 0.930 . S
H2193 C2183 0.930 . S
H2194 C2185 0.930 . S
H2195 C2186 0.930 . S
Gd2196 N2227 2.661 . S
Gd2196 N2233 2.601 . S
Gd2196 O2240 2.545 . S
Gd2196 O2241 2.606 . S
Gd2196 O2243 2.429 . S
Gd2196 O2244 2.545 . S
Gd2196 O2245 2.412 . S
Gd2196 O2247 2.362 . S
Gd2196 O2248 2.324 . S
Gd2196 C2255 2.828 . S
Gd2197 N2206 2.661 . S
Gd2197 N2210 2.601 . S
Gd2197 O2241 2.362 . S
Gd2197 O2242 2.324 . S
Gd2197 O2246 2.545 . S
Gd2197 O2247 2.606 . S
Gd2197 O2249 2.429 . S
Gd2197 O2250 2.545 . S
Gd2197 O2251 2.412 . S
Gd2197 C2264 2.828 . S
C2198 C2201 1.417 . S
C2198 C2203 1.431 . S
C2198 C2204 1.412 . S
C2199 C2202 1.437 . S
C2199 C2203 1.317 . S
C2199 H2218 0.929 . S
C2200 C2201 1.426 . S
C2200 C2202 1.413 . S
C2200 N2210 1.359 . S
C2201 C2198 1.417 . S
C2201 C2200 1.426 . S
C2201 N2206 1.350 . S
C2202 C2199 1.437 . S
C2202 C2200 1.413 . S
C2202 C2212 1.391 . S
C2203 C2198 1.431 . S
C2203 C2199 1.317 . S
C2203 H2214 0.930 . S
C2204 C2198 1.412 . S
C2204 C2205 1.355 . S
C2204 H2216 0.930 . S
C2205 C2204 1.355 . S
C2205 C2207 1.402 . S
C2205 H2217 0.930 . S
N2206 Gd2197 2.661 . S
N2206 C2201 1.350 . S
N2206 C2207 1.307 . S
C2207 C2205 1.402 . S
C2207 N2206 1.307 . S
C2207 H2208 0.930 . S
H2208 C2207 0.930 . S
C2209 N2210 1.334 . S
C2209 C2211 1.394 . S
C2209 H2213 0.930 . S
N2210 Gd2197 2.601 . S
N2210 C2200 1.359 . S
N2210 C2209 1.334 . S
C2211 C2209 1.394 . S
C2211 C2212 1.359 . S
C2211 H2223 0.930 . S
C2212 C2202 1.391 . S
C2212 C2211 1.359 . S
C2212 H2224 0.929 . S
H2213 C2209 0.930 . S
H2214 C2203 0.930 . S
H2215 C2232 0.930 . S
H2216 C2204 0.930 . S
H2217 C2205 0.930 . S
H2218 C2199 0.929 . S
H2219 C2237 0.930 . S
H2220 C2228 0.930 . S
H2221 C2229 0.930 . S
H2222 C2253 0.929 . S
H2223 C2211 0.930 . S
H2224 C2212 0.929 . S
H2225 C2254 0.930 . S
H2226 C2235 0.930 . S
N2227 Gd2196 2.661 . S
N2227 C2231 1.350 . S
N2227 C2232 1.307 . S
C2228 H2220 0.930 . S
C2228 C2229 1.355 . S
C2228 C2230 1.412 . S
C2229 H2221 0.930 . S
C2229 C2228 1.355 . S
C2229 C2232 1.402 . S
C2230 C2228 1.412 . S
C2230 C2231 1.417 . S
C2230 C2254 1.431 . S
C2231 N2227 1.350 . S
C2231 C2230 1.417 . S
C2231 C2234 1.426 . S
C2232 H2215 0.930 . S
C2232 N2227 1.307 . S
C2232 C2229 1.402 . S
N2233 Gd2196 2.601 . S
N2233 C2234 1.359 . S
N2233 C2237 1.334 . S
C2234 C2231 1.426 . S
C2234 N2233 1.359 . S
C2234 C2238 1.413 . S
C2235 H2226 0.930 . S
C2235 C2236 1.359 . S
C2235 C2237 1.394 . S
C2236 C2235 1.359 . S
C2236 C2238 1.391 . S
C2236 H2239 0.929 . S
C2237 H2219 0.930 . S
C2237 N2233 1.334 . S
C2237 C2235 1.394 . S
C2238 C2234 1.413 . S
C2238 C2236 1.391 . S
C2238 C2253 1.437 . S
H2239 C2236 0.929 . S
O2240 Gd2196 2.545 . S
O2240 C2255 1.258 . S
O2241 Gd2196 2.606 . S
O2241 Gd2197 2.362 . S
O2241 C2252 1.284 . S
O2242 Gd2197 2.324 . S
O2242 C2262 1.254 . S
O2243 Gd2196 2.429 . S
O2243 C2262 1.268 . S
O2244 Gd2196 2.545 . S
O2244 C2252 1.250 . S
O2245 Gd2196 2.412 . S
O2245 C2255 1.252 . S
O2246 Gd2197 2.545 . S
O2246 C2264 1.258 . S
O2247 Gd2196 2.362 . S
O2247 Gd2197 2.606 . S
O2247 C2263 1.284 . S
O2248 Gd2196 2.324 . S
O2248 C2271 1.254 . S
O2249 Gd2197 2.429 . S
O2249 C2271 1.268 . S
O2250 Gd2197 2.545 . S
O2250 C2263 1.250 . S
O2251 Gd2197 2.412 . S
O2251 C2264 1.252 . S
C2252 O2241 1.284 . S
C2252 O2244 1.250 . S
C2253 H2222 0.929 . S
C2253 C2238 1.437 . S
C2253 C2254 1.317 . S
C2254 H2225 0.930 . S
C2254 C2230 1.431 . S
C2254 C2253 1.317 . S
C2255 Gd2196 2.828 . S
C2255 O2240 1.258 . S
C2255 O2245 1.252 . S
C2255 C2256 1.497 . S
C2256 C2255 1.497 . S
C2256 C2257 1.395 . S
C2256 C2258 1.380 . S
C2257 C2256 1.395 . S
C2257 C2260 1.398 . S
C2257 H2272 0.930 . S
C2258 C2256 1.380 . S
C2258 C2259 1.391 . S
C2258 H2273 0.930 . S
C2259 C2258 1.391 . S
C2259 C2261 1.387 . S
C2260 C2257 1.398 . S
C2260 C2261 1.380 . S
C2260 H2274 0.930 . S
C2261 C2259 1.387 . S
C2261 C2260 1.380 . S
C2261 H2275 0.930 . S
C2262 O2242 1.254 . S
C2262 O2243 1.268 . S
C2263 O2247 1.284 . S
C2263 O2250 1.250 . S
C2264 Gd2197 2.828 . S
C2264 O2246 1.258 . S
C2264 O2251 1.252 . S
C2264 C2265 1.497 . S
C2265 C2264 1.497 . S
C2265 C2266 1.395 . S
C2265 C2267 1.380 . S
C2266 C2265 1.395 . S
C2266 C2269 1.398 . S
C2266 H2276 0.930 . S
C2267 C2265 1.380 . S
C2267 C2268 1.391 . S
C2267 H2277 0.930 . S
C2268 C2267 1.391 . S
C2268 C2270 1.387 . S
C2269 C2266 1.398 . S
C2269 C2270 1.380 . S
C2269 H2278 0.930 . S
C2270 C2268 1.387 . S
C2270 C2269 1.380 . S
C2270 H2279 0.930 . S
C2271 O2248 1.254 . S
C2271 O2249 1.268 . S
H2272 C2257 0.930 . S
H2273 C2258 0.930 . S
H2274 C2260 0.930 . S
H2275 C2261 0.930 . S
H2276 C2266 0.930 . S
H2277 C2267 0.930 . S
H2278 C2269 0.930 . S
H2279 C2270 0.930 . S
Gd2280 N2311 2.691 . S
Gd2280 N2317 2.601 . S
Gd2280 O2324 2.545 . S
Gd2280 O2325 2.606 . S
Gd2280 O2327 2.429 . S
Gd2280 O2328 2.545 . S
Gd2280 O2329 2.412 . S
Gd2280 O2331 2.362 . S
Gd2280 O2332 2.324 . S
Gd2280 C2339 2.828 . S
Gd2281 N2290 2.661 . S
Gd2281 N2294 2.601 . S
Gd2281 O2325 2.362 . S
Gd2281 O2326 2.324 . S
Gd2281 O2330 2.545 . S
Gd2281 O2331 2.606 . S
Gd2281 O2333 2.429 . S
Gd2281 O2334 2.510 1_545 S
Gd2281 O2335 2.412 . S
Gd2281 C2348 2.828 . S
C2282 C2285 1.417 . S
C2282 C2287 1.431 . S
C2282 C2288 1.412 . S
C2283 C2286 1.437 . S
C2283 C2287 1.317 . S
C2283 H2302 0.929 . S
C2284 C2285 1.426 . S
C2284 C2286 1.413 . S
C2284 N2294 1.359 . S
C2285 C2282 1.417 . S
C2285 C2284 1.426 . S
C2285 N2290 1.350 . S
C2286 C2283 1.437 . S
C2286 C2284 1.413 . S
C2286 C2296 1.391 . S
C2287 C2282 1.431 . S
C2287 C2283 1.317 . S
C2287 H2298 0.930 . S
C2288 C2282 1.412 . S
C2288 C2289 1.355 . S
C2288 H2300 0.930 . S
C2289 C2288 1.355 . S
C2289 C2291 1.402 . S
C2289 H2301 0.930 . S
N2290 Gd2281 2.661 . S
N2290 C2285 1.350 . S
N2290 C2291 1.307 . S
C2291 C2289 1.402 . S
C2291 N2290 1.307 . S
C2291 H2292 0.930 . S
H2292 C2291 0.930 . S
C2293 N2294 1.334 . S
C2293 C2295 1.394 . S
C2293 H2297 0.930 . S
N2294 Gd2281 2.601 . S
N2294 C2284 1.359 . S
N2294 C2293 1.334 . S
C2295 C2293 1.394 . S
C2295 C2296 1.359 . S
C2295 H2307 0.930 . S
C2296 C2286 1.391 . S
C2296 C2295 1.359 . S
C2296 H2308 0.929 . S
H2297 C2293 0.930 . S
H2298 C2287 0.930 . S
H2299 C2316 0.930 1_545 S
H2300 C2288 0.930 . S
H2301 C2289 0.930 . S
H2302 C2283 0.929 . S
H2303 C2321 0.930 . S
H2304 C2312 0.930 . S
H2305 C2313 0.930 . S
H2306 C2337 0.929 . S
H2307 C2295 0.930 . S
H2308 C2296 0.929 . S
H2309 C2338 0.930 . S
H2310 C2319 0.930 . S
N2311 Gd2280 2.691 . S
N2311 C2315 1.323 1_545 S
N2311 C2316 1.303 1_545 S
C2312 H2304 0.930 . S
C2312 C2313 1.355 . S
C2312 C2314 1.412 . S
C2313 H2305 0.930 . S
C2313 C2312 1.355 . S
C2313 C2316 1.402 . S
C2314 C2312 1.412 . S
C2314 C2315 1.417 . S
C2314 C2338 1.431 . S
C2315 N2311 1.323 1_565 S
C2315 C2314 1.417 . S
C2315 C2318 1.426 . S
C2316 H2299 0.930 1_565 S
C2316 N2311 1.303 1_565 S
C2316 C2313 1.402 . S
N2317 Gd2280 2.601 . S
N2317 C2318 1.359 1_545 S
N2317 C2321 1.334 . S
C2318 C2315 1.426 . S
C2318 N2317 1.359 1_565 S
C2318 C2322 1.413 . S
C2319 H2310 0.930 . S
C2319 C2320 1.359 1_545 S
C2319 C2321 1.394 . S
C2320 C2319 1.359 1_565 S
C2320 C2322 1.391 . S
C2320 H2323 0.929 . S
C2321 H2303 0.930 . S
C2321 N2317 1.334 . S
C2321 C2319 1.394 . S
C2322 C2318 1.413 . S
C2322 C2320 1.391 . S
C2322 C2337 1.437 . S
H2323 C2320 0.929 . S
O2324 Gd2280 2.545 . S
O2324 C2339 1.258 . S
O2325 Gd2280 2.606 . S
O2325 Gd2281 2.362 . S
O2325 C2336 1.284 . S
O2326 Gd2281 2.324 . S
O2326 C2346 1.254 . S
O2327 Gd2280 2.429 . S
O2327 C2346 1.268 . S
O2328 Gd2280 2.545 . S
O2328 C2336 1.250 . S
O2329 Gd2280 2.412 . S
O2329 C2339 1.252 . S
O2330 Gd2281 2.545 . S
O2330 C2348 1.258 . S
O2331 Gd2280 2.362 . S
O2331 Gd2281 2.606 . S
O2331 C2347 1.284 1_545 S
O2332 Gd2280 2.324 . S
O2332 C2355 1.254 . S
O2333 Gd2281 2.429 . S
O2333 C2355 1.268 . S
O2334 Gd2281 2.510 1_565 S
O2334 C2347 1.249 . S
O2335 Gd2281 2.412 . S
O2335 C2348 1.252 . S
C2336 O2325 1.284 . S
C2336 O2328 1.250 . S
C2337 H2306 0.929 . S
C2337 C2322 1.437 . S
C2337 C2338 1.317 . S
C2338 H2309 0.930 . S
C2338 C2314 1.431 . S
C2338 C2337 1.317 . S
C2339 Gd2280 2.828 . S
C2339 O2324 1.258 . S
C2339 O2329 1.252 . S
C2339 C2340 1.497 . S
C2340 C2339 1.497 . S
C2340 C2341 1.395 . S
C2340 C2342 1.380 . S
C2341 C2340 1.395 . S
C2341 C2344 1.398 . S
C2341 H2356 0.930 . S
C2342 C2340 1.380 . S
C2342 C2343 1.391 . S
C2342 H2357 0.930 . S
C2343 C2342 1.391 . S
C2343 C2345 1.387 . S
C2344 C2341 1.398 . S
C2344 C2345 1.380 . S
C2344 H2358 0.930 . S
C2345 C2343 1.387 . S
C2345 C2344 1.380 . S
C2345 H2359 0.930 . S
C2346 O2326 1.254 . S
C2346 O2327 1.268 . S
C2347 O2331 1.284 1_565 S
C2347 O2334 1.249 . S
C2348 Gd2281 2.828 . S
C2348 O2330 1.258 . S
C2348 O2335 1.252 . S
C2348 C2349 1.497 . S
C2349 C2348 1.497 . S
C2349 C2350 1.395 . S
C2349 C2351 1.380 . S
C2350 C2349 1.395 . S
C2350 C2353 1.398 . S
C2350 H2360 0.930 . S
C2351 C2349 1.380 . S
C2351 C2352 1.391 1_545 S
C2351 H2361 0.930 . S
C2352 C2351 1.391 1_565 S
C2352 C2354 1.387 . S
C2353 C2350 1.398 . S
C2353 C2354 1.380 1_545 S
C2353 H2362 0.930 . S
C2354 C2352 1.387 . S
C2354 C2353 1.380 1_565 S
C2354 H2363 0.930 . S
C2355 O2332 1.254 . S
C2355 O2333 1.268 . S
H2356 C2341 0.930 . S
H2357 C2342 0.930 . S
H2358 C2344 0.930 . S
H2359 C2345 0.930 . S
H2360 C2350 0.930 . S
H2361 C2351 0.930 . S
H2362 C2353 0.930 . S
H2363 C2354 0.930 . S
Gd2364 N2395 2.661 . S
Gd2364 N2401 2.601 . S
Gd2364 O2408 2.545 . S
Gd2364 O2409 2.606 . S
Gd2364 O2411 2.429 . S
Gd2364 O2412 2.545 . S
Gd2364 O2413 2.412 . S
Gd2364 O2415 2.362 . S
Gd2364 O2416 2.324 . S
Gd2364 C2423 2.828 . S
Gd2365 N2374 2.661 . S
Gd2365 N2378 2.601 . S
Gd2365 O2409 2.362 . S
Gd2365 O2410 2.324 . S
Gd2365 O2414 2.545 . S
Gd2365 O2415 2.606 . S
Gd2365 O2417 2.429 . S
Gd2365 O2418 2.545 . S
Gd2365 O2419 2.412 . S
Gd2365 C2432 2.828 . S
C2366 C2369 1.417 . S
C2366 C2371 1.431 . S
C2366 C2372 1.412 . S
C2367 C2370 1.437 . S
C2367 C2371 1.317 . S
C2367 H2386 0.929 . S
C2368 C2369 1.426 . S
C2368 C2370 1.413 . S
C2368 N2378 1.359 . S
C2369 C2366 1.417 . S
C2369 C2368 1.426 . S
C2369 N2374 1.350 . S
C2370 C2367 1.437 . S
C2370 C2368 1.413 . S
C2370 C2380 1.391 . S
C2371 C2366 1.431 . S
C2371 C2367 1.317 . S
C2371 H2382 0.930 . S
C2372 C2366 1.412 . S
C2372 C2373 1.355 . S
C2372 H2384 0.930 . S
C2373 C2372 1.355 . S
C2373 C2375 1.402 . S
C2373 H2385 0.930 . S
N2374 Gd2365 2.661 . S
N2374 C2369 1.350 . S
N2374 C2375 1.307 . S
C2375 C2373 1.402 . S
C2375 N2374 1.307 . S
C2375 H2376 0.930 . S
H2376 C2375 0.930 . S
C2377 N2378 1.334 . S
C2377 C2379 1.394 . S
C2377 H2381 0.930 . S
N2378 Gd2365 2.601 . S
N2378 C2368 1.359 . S
N2378 C2377 1.334 . S
C2379 C2377 1.394 . S
C2379 C2380 1.359 . S
C2379 H2391 0.930 . S
C2380 C2370 1.391 . S
C2380 C2379 1.359 . S
C2380 H2392 0.929 . S
H2381 C2377 0.930 . S
H2382 C2371 0.930 . S
H2383 C2400 0.930 . S
H2384 C2372 0.930 . S
H2385 C2373 0.930 . S
H2386 C2367 0.929 . S
H2387 C2405 0.930 . S
H2388 C2396 0.930 . S
H2389 C2397 0.930 . S
H2390 C2421 0.929 . S
H2391 C2379 0.930 . S
H2392 C2380 0.929 . S
H2393 C2422 0.930 . S
H2394 C2403 0.930 . S
N2395 Gd2364 2.661 . S
N2395 C2399 1.350 . S
N2395 C2400 1.307 . S
C2396 H2388 0.930 . S
C2396 C2397 1.355 . S
C2396 C2398 1.412 . S
C2397 H2389 0.930 . S
C2397 C2396 1.355 . S
C2397 C2400 1.402 . S
C2398 C2396 1.412 . S
C2398 C2399 1.417 . S
C2398 C2422 1.431 . S
C2399 N2395 1.350 . S
C2399 C2398 1.417 . S
C2399 C2402 1.426 . S
C2400 H2383 0.930 . S
C2400 N2395 1.307 . S
C2400 C2397 1.402 . S
N2401 Gd2364 2.601 . S
N2401 C2402 1.359 . S
N2401 C2405 1.334 . S
C2402 C2399 1.426 . S
C2402 N2401 1.359 . S
C2402 C2406 1.413 . S
C2403 H2394 0.930 . S
C2403 C2404 1.359 . S
C2403 C2405 1.394 . S
C2404 C2403 1.359 . S
C2404 C2406 1.391 . S
C2404 H2407 0.929 . S
C2405 H2387 0.930 . S
C2405 N2401 1.334 . S
C2405 C2403 1.394 . S
C2406 C2402 1.413 . S
C2406 C2404 1.391 . S
C2406 C2421 1.437 . S
H2407 C2404 0.929 . S
O2408 Gd2364 2.545 . S
O2408 C2423 1.258 . S
O2409 Gd2364 2.606 . S
O2409 Gd2365 2.362 . S
O2409 C2420 1.284 . S
O2410 Gd2365 2.324 . S
O2410 C2430 1.254 . S
O2411 Gd2364 2.429 . S
O2411 C2430 1.268 . S
O2412 Gd2364 2.545 . S
O2412 C2420 1.250 . S
O2413 Gd2364 2.412 . S
O2413 C2423 1.252 . S
O2414 Gd2365 2.545 . S
O2414 C2432 1.258 . S
O2415 Gd2364 2.362 . S
O2415 Gd2365 2.606 . S
O2415 C2431 1.284 . S
O2416 Gd2364 2.324 . S
O2416 C2439 1.254 . S
O2417 Gd2365 2.429 . S
O2417 C2439 1.268 . S
O2418 Gd2365 2.545 . S
O2418 C2431 1.250 . S
O2419 Gd2365 2.412 . S
O2419 C2432 1.252 . S
C2420 O2409 1.284 . S
C2420 O2412 1.250 . S
C2421 H2390 0.929 . S
C2421 C2406 1.437 . S
C2421 C2422 1.317 . S
C2422 H2393 0.930 . S
C2422 C2398 1.431 . S
C2422 C2421 1.317 . S
C2423 Gd2364 2.828 . S
C2423 O2408 1.258 . S
C2423 O2413 1.252 . S
C2423 C2424 1.497 . S
C2424 C2423 1.497 . S
C2424 C2425 1.395 . S
C2424 C2426 1.380 . S
C2425 C2424 1.395 . S
C2425 C2428 1.398 . S
C2425 H2440 0.930 . S
C2426 C2424 1.380 . S
C2426 C2427 1.391 . S
C2426 H2441 0.930 . S
C2427 C2426 1.391 . S
C2427 C2429 1.387 . S
C2428 C2425 1.398 . S
C2428 C2429 1.380 . S
C2428 H2442 0.930 . S
C2429 C2427 1.387 . S
C2429 C2428 1.380 . S
C2429 H2443 0.930 . S
C2430 O2410 1.254 . S
C2430 O2411 1.268 . S
C2431 O2415 1.284 . S
C2431 O2418 1.250 . S
C2432 Gd2365 2.828 . S
C2432 O2414 1.258 . S
C2432 O2419 1.252 . S
C2432 C2433 1.497 . S
C2433 C2432 1.497 . S
C2433 C2434 1.395 . S
C2433 C2435 1.380 . S
C2434 C2433 1.395 . S
C2434 C2437 1.398 . S
C2434 H2444 0.930 . S
C2435 C2433 1.380 . S
C2435 C2436 1.391 . S
C2435 H2445 0.930 . S
C2436 C2435 1.391 . S
C2436 C2438 1.387 . S
C2437 C2434 1.398 . S
C2437 C2438 1.380 . S
C2437 H2446 0.930 . S
C2438 C2436 1.387 . S
C2438 C2437 1.380 . S
C2438 H2447 0.930 . S
C2439 O2416 1.254 . S
C2439 O2417 1.268 . S
H2440 C2425 0.930 . S
H2441 C2426 0.930 . S
H2442 C2428 0.930 . S
H2443 C2429 0.930 . S
H2444 C2434 0.930 . S
H2445 C2435 0.930 . S
H2446 C2437 0.930 . S
H2447 C2438 0.930 . S
Gd2448 N2479 2.661 1_545 S
Gd2448 N2485 2.601 1_545 S
Gd2448 O2492 2.545 1_545 S
Gd2448 O2493 2.606 . S
Gd2448 O2495 2.429 . S
Gd2448 O2496 2.545 . S
Gd2448 O2497 2.412 1_545 S
Gd2448 O2499 2.362 . S
Gd2448 O2500 2.324 . S
Gd2448 C2507 2.828 1_545 S
Gd2449 N2458 2.661 . S
Gd2449 N2462 2.601 . S
Gd2449 O2493 2.362 . S
Gd2449 O2494 2.324 . S
Gd2449 O2498 2.545 . S
Gd2449 O2499 2.606 . S
Gd2449 O2501 2.429 . S
Gd2449 O2502 2.545 . S
Gd2449 O2503 2.412 . S
Gd2449 C2516 2.828 . S
C2450 C2453 1.417 . S
C2450 C2455 1.431 . S
C2450 C2456 1.412 . S
C2451 C2454 1.437 . S
C2451 C2455 1.317 . S
C2451 H2470 0.929 . S
C2452 C2453 1.426 . S
C2452 C2454 1.413 . S
C2452 N2462 1.359 . S
C2453 C2450 1.417 . S
C2453 C2452 1.426 . S
C2453 N2458 1.350 . S
C2454 C2451 1.437 . S
C2454 C2452 1.413 . S
C2454 C2464 1.391 . S
C2455 C2450 1.431 . S
C2455 C2451 1.317 . S
C2455 H2466 0.930 . S
C2456 C2450 1.412 . S
C2456 C2457 1.355 . S
C2456 H2468 0.930 . S
C2457 C2456 1.355 . S
C2457 C2459 1.402 . S
C2457 H2469 0.930 . S
N2458 Gd2449 2.661 . S
N2458 C2453 1.350 . S
N2458 C2459 1.307 . S
C2459 C2457 1.402 . S
C2459 N2458 1.307 . S
C2459 H2460 0.930 . S
H2460 C2459 0.930 . S
C2461 N2462 1.334 . S
C2461 C2463 1.394 . S
C2461 H2465 0.930 . S
N2462 Gd2449 2.601 . S
N2462 C2452 1.359 . S
N2462 C2461 1.334 . S
C2463 C2461 1.394 . S
C2463 C2464 1.359 . S
C2463 H2475 0.930 1_455 S
C2464 C2454 1.391 . S
C2464 C2463 1.359 . S
C2464 H2476 0.929 . S
H2465 C2461 0.930 . S
H2466 C2455 0.930 . S
H2467 C2484 0.930 . S
H2468 C2456 0.930 . S
H2469 C2457 0.930 . S
H2470 C2451 0.929 . S
H2471 C2489 0.922 1_545 S
H2472 C2480 0.930 . S
H2473 C2481 0.930 1_655 S
H2474 C2505 0.929 . S
H2475 C2463 0.930 1_655 S
H2476 C2464 0.929 . S
H2477 C2506 0.930 . S
H2478 C2487 0.930 . S
N2479 Gd2448 2.661 1_565 S
N2479 C2483 1.350 . S
N2479 C2484 1.307 . S
C2480 H2472 0.930 . S
C2480 C2481 1.355 . S
C2480 C2482 1.412 . S
C2481 H2473 0.930 1_455 S
C2481 C2480 1.355 . S
C2481 C2484 1.402 . S
C2482 C2480 1.412 . S
C2482 C2483 1.417 . S
C2482 C2506 1.431 . S
C2483 N2479 1.350 . S
C2483 C2482 1.417 . S
C2483 C2486 1.426 . S
C2484 H2467 0.930 . S
C2484 N2479 1.307 . S
C2484 C2481 1.402 . S
N2485 Gd2448 2.601 1_565 S
N2485 C2486 1.359 . S
N2485 C2489 1.331 . S
C2486 C2483 1.426 . S
C2486 N2485 1.359 . S
C2486 C2490 1.413 . S
C2487 H2478 0.930 . S
C2487 C2488 1.359 . S
C2487 C2489 1.406 . S
C2488 C2487 1.359 . S
C2488 C2490 1.391 . S
C2488 H2491 0.929 . S
C2489 H2471 0.922 1_565 S
C2489 N2485 1.331 . S
C2489 C2487 1.406 . S
C2490 C2486 1.413 . S
C2490 C2488 1.391 . S
C2490 C2505 1.437 . S
H2491 C2488 0.929 . S
O2492 Gd2448 2.545 1_565 S
O2492 C2507 1.258 . S
O2493 Gd2448 2.606 . S
O2493 Gd2449 2.362 . S
O2493 C2504 1.284 . S
O2494 Gd2449 2.324 . S
O2494 C2514 1.254 . S
O2495 Gd2448 2.429 . S
O2495 C2514 1.268 . S
O2496 Gd2448 2.545 . S
O2496 C2504 1.250 . S
O2497 Gd2448 2.412 1_565 S
O2497 C2507 1.252 . S
O2498 Gd2449 2.545 . S
O2498 C2516 1.258 . S
O2499 Gd2448 2.362 . S
O2499 Gd2449 2.606 . S
O2499 C2515 1.284 . S
O2500 Gd2448 2.324 . S
O2500 C2523 1.254 . S
O2501 Gd2449 2.429 . S
O2501 C2523 1.268 . S
O2502 Gd2449 2.545 . S
O2502 C2515 1.250 . S
O2503 Gd2449 2.412 . S
O2503 C2516 1.252 . S
C2504 O2493 1.284 . S
C2504 O2496 1.250 . S
C2505 H2474 0.929 . S
C2505 C2490 1.437 . S
C2505 C2506 1.317 . S
C2506 H2477 0.930 . S
C2506 C2482 1.431 . S
C2506 C2505 1.317 . S
C2507 Gd2448 2.828 1_565 S
C2507 O2492 1.258 . S
C2507 O2497 1.252 . S
C2507 C2508 1.497 . S
C2508 C2507 1.497 . S
C2508 C2509 1.395 . S
C2508 C2510 1.380 . S
C2509 C2508 1.395 . S
C2509 C2512 1.398 . S
C2509 H2524 0.930 . S
C2510 C2508 1.380 . S
C2510 C2511 1.391 . S
C2510 H2525 0.930 . S
C2511 C2510 1.391 . S
C2511 C2513 1.387 . S
C2512 C2509 1.398 . S
C2512 C2513 1.380 . S
C2512 H2526 0.930 . S
C2513 C2511 1.387 . S
C2513 C2512 1.380 . S
C2513 H2527 0.930 . S
C2514 O2494 1.254 . S
C2514 O2495 1.268 . S
C2515 O2499 1.284 . S
C2515 O2502 1.250 . S
C2516 Gd2449 2.828 . S
C2516 O2498 1.258 . S
C2516 O2503 1.252 . S
C2516 C2517 1.497 . S
C2517 C2516 1.497 . S
C2517 C2518 1.395 . S
C2517 C2519 1.380 . S
C2518 C2517 1.395 . S
C2518 C2521 1.398 . S
C2518 H2528 0.930 . S
C2519 C2517 1.380 . S
C2519 C2520 1.391 . S
C2519 H2529 0.930 . S
C2520 C2519 1.391 . S
C2520 C2522 1.387 . S
C2521 C2518 1.398 . S
C2521 C2522 1.380 . S
C2521 H2530 0.930 . S
C2522 C2520 1.387 . S
C2522 C2521 1.380 . S
C2522 H2531 0.930 . S
C2523 O2500 1.254 . S
C2523 O2501 1.268 . S
H2524 C2509 0.930 . S
H2525 C2510 0.930 . S
H2526 C2512 0.930 . S
H2527 C2513 0.930 . S
H2528 C2518 0.930 . S
H2529 C2519 0.930 . S
H2530 C2521 0.930 . S
H2531 C2522 0.930 . S
Gd2532 N2563 2.661 . S
Gd2532 N2569 2.601 . S
Gd2532 O2576 2.545 . S
Gd2532 O2577 2.606 . S
Gd2532 O2579 2.429 . S
Gd2532 O2580 2.545 . S
Gd2532 O2581 2.412 . S
Gd2532 O2583 2.362 . S
Gd2532 O2584 2.324 . S
Gd2532 C2591 2.828 . S
Gd2533 N2542 2.661 . S
Gd2533 N2546 2.601 . S
Gd2533 O2577 2.362 . S
Gd2533 O2578 2.324 . S
Gd2533 O2582 2.545 . S
Gd2533 O2583 2.606 . S
Gd2533 O2585 2.429 . S
Gd2533 O2586 2.545 . S
Gd2533 O2587 2.412 . S
Gd2533 C2600 2.828 . S
C2534 C2537 1.417 . S
C2534 C2539 1.431 . S
C2534 C2540 1.412 . S
C2535 C2538 1.437 . S
C2535 C2539 1.317 . S
C2535 H2554 0.929 . S
C2536 C2537 1.426 . S
C2536 C2538 1.413 . S
C2536 N2546 1.359 . S
C2537 C2534 1.417 . S
C2537 C2536 1.426 . S
C2537 N2542 1.350 . S
C2538 C2535 1.437 . S
C2538 C2536 1.413 . S
C2538 C2548 1.391 . S
C2539 C2534 1.431 . S
C2539 C2535 1.317 . S
C2539 H2550 0.930 . S
C2540 C2534 1.412 . S
C2540 C2541 1.355 . S
C2540 H2552 0.930 . S
C2541 C2540 1.355 . S
C2541 C2543 1.402 . S
C2541 H2553 0.930 . S
N2542 Gd2533 2.661 . S
N2542 C2537 1.350 . S
N2542 C2543 1.307 . S
C2543 C2541 1.402 . S
C2543 N2542 1.307 . S
C2543 H2544 0.930 . S
H2544 C2543 0.930 . S
C2545 N2546 1.334 . S
C2545 C2547 1.394 . S
C2545 H2549 0.930 . S
N2546 Gd2533 2.601 . S
N2546 C2536 1.359 . S
N2546 C2545 1.334 . S
C2547 C2545 1.394 . S
C2547 C2548 1.359 . S
C2547 H2559 0.930 . S
C2548 C2538 1.391 . S
C2548 C2547 1.359 . S
C2548 H2560 0.929 . S
H2549 C2545 0.930 . S
H2550 C2539 0.930 . S
H2551 C2568 0.930 . S
H2552 C2540 0.930 . S
H2553 C2541 0.930 . S
H2554 C2535 0.929 . S
H2555 C2573 0.930 . S
H2556 C2564 0.930 . S
H2557 C2565 0.930 . S
H2558 C2589 0.929 . S
H2559 C2547 0.930 . S
H2560 C2548 0.929 . S
H2561 C2590 0.930 . S
H2562 C2571 0.930 . S
N2563 Gd2532 2.661 . S
N2563 C2567 1.350 . S
N2563 C2568 1.307 . S
C2564 H2556 0.930 . S
C2564 C2565 1.355 . S
C2564 C2566 1.412 . S
C2565 H2557 0.930 . S
C2565 C2564 1.355 . S
C2565 C2568 1.402 . S
C2566 C2564 1.412 . S
C2566 C2567 1.417 . S
C2566 C2590 1.431 . S
C2567 N2563 1.350 . S
C2567 C2566 1.417 . S
C2567 C2570 1.426 . S
C2568 H2551 0.930 . S
C2568 N2563 1.307 . S
C2568 C2565 1.402 . S
N2569 Gd2532 2.601 . S
N2569 C2570 1.359 . S
N2569 C2573 1.334 . S
C2570 C2567 1.426 . S
C2570 N2569 1.359 . S
C2570 C2574 1.413 . S
C2571 H2562 0.930 . S
C2571 C2572 1.359 . S
C2571 C2573 1.394 . S
C2572 C2571 1.359 . S
C2572 C2574 1.391 . S
C2572 H2575 0.929 . S
C2573 H2555 0.930 . S
C2573 N2569 1.334 . S
C2573 C2571 1.394 . S
C2574 C2570 1.413 . S
C2574 C2572 1.391 . S
C2574 C2589 1.437 . S
H2575 C2572 0.929 . S
O2576 Gd2532 2.545 . S
O2576 C2591 1.258 . S
O2577 Gd2532 2.606 . S
O2577 Gd2533 2.362 . S
O2577 C2588 1.284 . S
O2578 Gd2533 2.324 . S
O2578 C2598 1.254 . S
O2579 Gd2532 2.429 . S
O2579 C2598 1.268 . S
O2580 Gd2532 2.545 . S
O2580 C2588 1.250 . S
O2581 Gd2532 2.412 . S
O2581 C2591 1.252 . S
O2582 Gd2533 2.545 . S
O2582 C2600 1.258 . S
O2583 Gd2532 2.362 . S
O2583 Gd2533 2.606 . S
O2583 C2599 1.284 . S
O2584 Gd2532 2.324 . S
O2584 C2607 1.254 . S
O2585 Gd2533 2.429 . S
O2585 C2607 1.268 . S
O2586 Gd2533 2.545 . S
O2586 C2599 1.250 . S
O2587 Gd2533 2.412 . S
O2587 C2600 1.252 . S
C2588 O2577 1.284 . S
C2588 O2580 1.250 . S
C2589 H2558 0.929 . S
C2589 C2574 1.437 . S
C2589 C2590 1.317 . S
C2590 H2561 0.930 . S
C2590 C2566 1.431 . S
C2590 C2589 1.317 . S
C2591 Gd2532 2.828 . S
C2591 O2576 1.258 . S
C2591 O2581 1.252 . S
C2591 C2592 1.497 . S
C2592 C2591 1.497 . S
C2592 C2593 1.395 . S
C2592 C2594 1.380 . S
C2593 C2592 1.395 . S
C2593 C2596 1.398 . S
C2593 H2608 0.930 . S
C2594 C2592 1.380 . S
C2594 C2595 1.391 . S
C2594 H2609 0.930 . S
C2595 C2594 1.391 . S
C2595 C2597 1.387 . S
C2596 C2593 1.398 . S
C2596 C2597 1.380 . S
C2596 H2610 0.930 . S
C2597 C2595 1.387 . S
C2597 C2596 1.380 . S
C2597 H2611 0.930 . S
C2598 O2578 1.254 . S
C2598 O2579 1.268 . S
C2599 O2583 1.284 . S
C2599 O2586 1.250 . S
C2600 Gd2533 2.828 . S
C2600 O2582 1.258 . S
C2600 O2587 1.252 . S
C2600 C2601 1.497 . S
C2601 C2600 1.497 . S
C2601 C2602 1.395 . S
C2601 C2603 1.380 . S
C2602 C2601 1.395 . S
C2602 C2605 1.398 . S
C2602 H2612 0.930 . S
C2603 C2601 1.380 . S
C2603 C2604 1.391 . S
C2603 H2613 0.930 . S
C2604 C2603 1.391 . S
C2604 C2606 1.387 . S
C2605 C2602 1.398 . S
C2605 C2606 1.380 . S
C2605 H2614 0.930 . S
C2606 C2604 1.387 . S
C2606 C2605 1.380 . S
C2606 H2615 0.930 . S
C2607 O2584 1.254 . S
C2607 O2585 1.268 . S
H2608 C2593 0.930 . S
H2609 C2594 0.930 . S
H2610 C2596 0.930 . S
H2611 C2597 0.930 . S
H2612 C2602 0.930 . S
H2613 C2603 0.930 . S
H2614 C2605 0.930 . S
H2615 C2606 0.930 . S
Gd2616 N2647 2.661 . S
Gd2616 N2653 2.601 . S
Gd2616 O2660 2.545 . S
Gd2616 O2661 2.606 1_556 S
Gd2616 O2663 2.429 1_556 S
Gd2616 O2664 2.545 . S
Gd2616 O2665 2.412 . S
Gd2616 O2667 2.362 1_556 S
Gd2616 O2668 2.324 . S
Gd2616 C2675 2.828 . S
Gd2617 N2626 2.661 . S
Gd2617 N2630 2.601 . S
Gd2617 O2661 2.362 . S
Gd2617 O2662 2.324 . S
Gd2617 O2666 2.545 . S
Gd2617 O2667 2.606 . S
Gd2617 O2669 2.456 . S
Gd2617 O2670 2.545 . S
Gd2617 O2671 2.412 . S
Gd2617 C2684 2.828 . S
C2618 C2621 1.417 . S
C2618 C2623 1.431 . S
C2618 C2624 1.412 . S
C2619 C2622 1.437 . S
C2619 C2623 1.317 . S
C2619 H2638 0.929 . S
C2620 C2621 1.426 . S
C2620 C2622 1.413 . S
C2620 N2630 1.359 . S
C2621 C2618 1.417 . S
C2621 C2620 1.426 . S
C2621 N2626 1.350 . S
C2622 C2619 1.437 . S
C2622 C2620 1.413 . S
C2622 C2632 1.391 1_545 S
C2623 C2618 1.431 . S
C2623 C2619 1.317 . S
C2623 H2634 0.930 . S
C2624 C2618 1.412 . S
C2624 C2625 1.355 . S
C2624 H2636 0.930 . S
C2625 C2624 1.355 . S
C2625 C2627 1.402 . S
C2625 H2637 0.930 . S
N2626 Gd2617 2.661 . S
N2626 C2621 1.350 . S
N2626 C2627 1.307 . S
C2627 C2625 1.402 . S
C2627 N2626 1.307 . S
C2627 H2628 0.930 . S
H2628 C2627 0.930 . S
C2629 N2630 1.334 1_565 S
C2629 C2631 1.394 . S
C2629 H2633 0.930 . S
N2630 Gd2617 2.601 . S
N2630 C2620 1.359 . S
N2630 C2629 1.334 1_545 S
C2631 C2629 1.394 . S
C2631 C2632 1.359 . S
C2631 H2643 0.930 . S
C2632 C2622 1.391 1_565 S
C2632 C2631 1.359 . S
C2632 H2644 0.929 . S
H2633 C2629 0.930 . S
H2634 C2623 0.930 . S
H2635 C2652 0.933 1_565 S
H2636 C2624 0.930 . S
H2637 C2625 0.930 . S
H2638 C2619 0.929 . S
H2639 C2657 0.930 . S
H2640 C2648 0.930 . S
H2641 C2649 0.930 . S
H2642 C2673 0.929 . S
H2643 C2631 0.930 . S
H2644 C2632 0.929 . S
H2645 C2674 0.930 . S
H2646 C2655 0.930 . S
N2647 Gd2616 2.661 . S
N2647 C2651 1.350 . S
N2647 C2652 1.302 . S
C2648 H2640 0.930 . S
C2648 C2649 1.355 . S
C2648 C2650 1.412 1_565 S
C2649 H2641 0.930 . S
C2649 C2648 1.355 . S
C2649 C2652 1.404 1_565 S
C2650 C2648 1.412 1_545 S
C2650 C2651 1.417 . S
C2650 C2674 1.431 . S
C2651 N2647 1.350 . S
C2651 C2650 1.417 . S
C2651 C2654 1.426 . S
C2652 H2635 0.933 1_545 S
C2652 N2647 1.302 . S
C2652 C2649 1.404 1_545 S
N2653 Gd2616 2.601 . S
N2653 C2654 1.359 . S
N2653 C2657 1.334 . S
C2654 C2651 1.426 . S
C2654 N2653 1.359 . S
C2654 C2658 1.413 . S
C2655 H2646 0.930 . S
C2655 C2656 1.359 . S
C2655 C2657 1.394 . S
C2656 C2655 1.359 . S
C2656 C2658 1.391 . S
C2656 H2659 0.929 . S
C2657 H2639 0.930 . S
C2657 N2653 1.334 . S
C2657 C2655 1.394 . S
C2658 C2654 1.413 . S
C2658 C2656 1.391 . S
C2658 C2673 1.437 . S
H2659 C2656 0.929 . S
O2660 Gd2616 2.545 . S
O2660 C2675 1.258 . S
O2661 Gd2616 2.606 1_554 S
O2661 Gd2617 2.362 . S
O2661 C2672 1.284 . S
O2662 Gd2617 2.324 . S
O2662 C2682 1.254 . S
O2663 Gd2616 2.429 1_554 S
O2663 C2682 1.268 . S
O2664 Gd2616 2.545 . S
O2664 C2672 1.250 1_556 S
O2665 Gd2616 2.412 . S
O2665 C2675 1.252 . S
O2666 Gd2617 2.545 . S
O2666 C2684 1.258 . S
O2667 Gd2616 2.362 1_554 S
O2667 Gd2617 2.606 . S
O2667 C2683 1.284 . S
O2668 Gd2616 2.324 . S
O2668 C2691 1.250 1_556 S
O2669 Gd2617 2.456 . S
O2669 C2691 1.282 . S
O2670 Gd2617 2.545 . S
O2670 C2683 1.250 . S
O2671 Gd2617 2.412 . S
O2671 C2684 1.252 . S
C2672 O2661 1.284 . S
C2672 O2664 1.250 1_554 S
C2673 H2642 0.929 . S
C2673 C2658 1.437 . S
C2673 C2674 1.317 . S
C2674 H2645 0.930 . S
C2674 C2650 1.431 . S
C2674 C2673 1.317 . S
C2675 Gd2616 2.828 . S
C2675 O2660 1.258 . S
C2675 O2665 1.252 . S
C2675 C2676 1.497 . S
C2676 C2675 1.497 . S
C2676 C2677 1.395 . S
C2676 C2678 1.380 . S
C2677 C2676 1.395 . S
C2677 C2680 1.398 . S
C2677 H2692 0.930 . S
C2678 C2676 1.380 . S
C2678 C2679 1.391 . S
C2678 H2693 0.930 . S
C2679 C2678 1.391 . S
C2679 C2681 1.387 . S
C2680 C2677 1.398 . S
C2680 C2681 1.380 . S
C2680 H2694 0.930 . S
C2681 C2679 1.387 . S
C2681 C2680 1.380 . S
C2681 H2695 0.930 . S
C2682 O2662 1.254 . S
C2682 O2663 1.268 . S
C2683 O2667 1.284 . S
C2683 O2670 1.250 . S
C2684 Gd2617 2.828 . S
C2684 O2666 1.258 . S
C2684 O2671 1.252 . S
C2684 C2685 1.497 . S
C2685 C2684 1.497 . S
C2685 C2686 1.395 1_545 S
C2685 C2687 1.380 . S
C2686 C2685 1.395 1_565 S
C2686 C2689 1.398 . S
C2686 H2696 0.930 . S
C2687 C2685 1.380 . S
C2687 C2688 1.391 . S
C2687 H2697 0.930 . S
C2688 C2687 1.391 . S
C2688 C2690 1.387 . S
C2689 C2686 1.398 . S
C2689 C2690 1.380 1_565 S
C2689 H2698 0.930 . S
C2690 C2688 1.387 . S
C2690 C2689 1.380 1_545 S
C2690 H2699 0.937 . S
C2691 O2668 1.250 1_554 S
C2691 O2669 1.282 . S
H2692 C2677 0.930 . S
H2693 C2678 0.930 . S
H2694 C2680 0.930 . S
H2695 C2681 0.930 . S
H2696 C2686 0.930 . S
H2697 C2687 0.930 . S
H2698 C2689 0.930 . S
H2699 C2690 0.937 . S
Gd2700 N2731 2.661 . S
Gd2700 N2737 2.601 . S
Gd2700 O2744 2.545 . S
Gd2700 O2745 2.606 . S
Gd2700 O2747 2.429 . S
Gd2700 O2748 2.545 . S
Gd2700 O2749 2.412 . S
Gd2700 O2751 2.362 . S
Gd2700 O2752 2.324 . S
Gd2700 C2759 2.828 . S
Gd2701 N2710 2.661 . S
Gd2701 N2714 2.601 . S
Gd2701 O2745 2.362 . S
Gd2701 O2746 2.324 . S
Gd2701 O2750 2.545 . S
Gd2701 O2751 2.606 . S
Gd2701 O2753 2.429 . S
Gd2701 O2754 2.545 . S
Gd2701 O2755 2.412 . S
Gd2701 C2768 2.828 . S
C2702 C2705 1.417 . S
C2702 C2707 1.431 . S
C2702 C2708 1.412 . S
C2703 C2706 1.437 . S
C2703 C2707 1.317 . S
C2703 H2722 0.929 . S
C2704 C2705 1.426 . S
C2704 C2706 1.413 . S
C2704 N2714 1.359 . S
C2705 C2702 1.417 . S
C2705 C2704 1.426 . S
C2705 N2710 1.350 . S
C2706 C2703 1.437 . S
C2706 C2704 1.413 . S
C2706 C2716 1.391 . S
C2707 C2702 1.431 . S
C2707 C2703 1.317 . S
C2707 H2718 0.930 . S
C2708 C2702 1.412 . S
C2708 C2709 1.355 . S
C2708 H2720 0.930 . S
C2709 C2708 1.355 . S
C2709 C2711 1.402 . S
C2709 H2721 0.930 . S
N2710 Gd2701 2.661 . S
N2710 C2705 1.350 . S
N2710 C2711 1.307 . S
C2711 C2709 1.402 . S
C2711 N2710 1.307 . S
C2711 H2712 0.930 . S
H2712 C2711 0.930 . S
C2713 N2714 1.334 . S
C2713 C2715 1.394 . S
C2713 H2717 0.930 . S
N2714 Gd2701 2.601 . S
N2714 C2704 1.359 . S
N2714 C2713 1.334 . S
C2715 C2713 1.394 . S
C2715 C2716 1.359 . S
C2715 H2727 0.930 . S
C2716 C2706 1.391 . S
C2716 C2715 1.359 . S
C2716 H2728 0.929 . S
H2717 C2713 0.930 . S
H2718 C2707 0.930 . S
H2719 C2736 0.930 . S
H2720 C2708 0.930 . S
H2721 C2709 0.930 . S
H2722 C2703 0.929 . S
H2723 C2741 0.930 . S
H2724 C2732 0.930 . S
H2725 C2733 0.930 . S
H2726 C2757 0.929 . S
H2727 C2715 0.930 . S
H2728 C2716 0.929 . S
H2729 C2758 0.930 . S
H2730 C2739 0.930 . S
N2731 Gd2700 2.661 . S
N2731 C2735 1.350 . S
N2731 C2736 1.307 . S
C2732 H2724 0.930 . S
C2732 C2733 1.355 . S
C2732 C2734 1.412 . S
C2733 H2725 0.930 . S
C2733 C2732 1.355 . S
C2733 C2736 1.402 . S
C2734 C2732 1.412 . S
C2734 C2735 1.417 . S
C2734 C2758 1.431 . S
C2735 N2731 1.350 . S
C2735 C2734 1.417 . S
C2735 C2738 1.426 . S
C2736 H2719 0.930 . S
C2736 N2731 1.307 . S
C2736 C2733 1.402 . S
N2737 Gd2700 2.601 . S
N2737 C2738 1.359 . S
N2737 C2741 1.334 . S
C2738 C2735 1.426 . S
C2738 N2737 1.359 . S
C2738 C2742 1.413 . S
C2739 H2730 0.930 . S
C2739 C2740 1.359 . S
C2739 C2741 1.394 . S
C2740 C2739 1.359 . S
C2740 C2742 1.391 . S
C2740 H2743 0.929 . S
C2741 H2723 0.930 . S
C2741 N2737 1.334 . S
C2741 C2739 1.394 . S
C2742 C2738 1.413 . S
C2742 C2740 1.391 . S
C2742 C2757 1.437 . S
H2743 C2740 0.929 . S
O2744 Gd2700 2.545 . S
O2744 C2759 1.258 . S
O2745 Gd2700 2.606 . S
O2745 Gd2701 2.362 . S
O2745 C2756 1.284 . S
O2746 Gd2701 2.324 . S
O2746 C2766 1.254 . S
O2747 Gd2700 2.429 . S
O2747 C2766 1.268 . S
O2748 Gd2700 2.545 . S
O2748 C2756 1.250 . S
O2749 Gd2700 2.412 . S
O2749 C2759 1.252 . S
O2750 Gd2701 2.545 . S
O2750 C2768 1.258 . S
O2751 Gd2700 2.362 . S
O2751 Gd2701 2.606 . S
O2751 C2767 1.284 . S
O2752 Gd2700 2.324 . S
O2752 C2775 1.254 . S
O2753 Gd2701 2.429 . S
O2753 C2775 1.268 . S
O2754 Gd2701 2.545 . S
O2754 C2767 1.250 . S
O2755 Gd2701 2.412 . S
O2755 C2768 1.252 . S
C2756 O2745 1.284 . S
C2756 O2748 1.250 . S
C2757 H2726 0.929 . S
C2757 C2742 1.437 . S
C2757 C2758 1.317 . S
C2758 H2729 0.930 . S
C2758 C2734 1.431 . S
C2758 C2757 1.317 . S
C2759 Gd2700 2.828 . S
C2759 O2744 1.258 . S
C2759 O2749 1.252 . S
C2759 C2760 1.497 . S
C2760 C2759 1.497 . S
C2760 C2761 1.395 . S
C2760 C2762 1.380 . S
C2761 C2760 1.395 . S
C2761 C2764 1.398 . S
C2761 H2776 0.930 . S
C2762 C2760 1.380 . S
C2762 C2763 1.391 . S
C2762 H2777 0.930 . S
C2763 C2762 1.391 . S
C2763 C2765 1.387 . S
C2764 C2761 1.398 . S
C2764 C2765 1.380 . S
C2764 H2778 0.930 . S
C2765 C2763 1.387 . S
C2765 C2764 1.380 . S
C2765 H2779 0.930 . S
C2766 O2746 1.254 . S
C2766 O2747 1.268 . S
C2767 O2751 1.284 . S
C2767 O2754 1.250 . S
C2768 Gd2701 2.828 . S
C2768 O2750 1.258 . S
C2768 O2755 1.252 . S
C2768 C2769 1.497 . S
C2769 C2768 1.497 . S
C2769 C2770 1.395 . S
C2769 C2771 1.380 . S
C2770 C2769 1.395 . S
C2770 C2773 1.398 . S
C2770 H2780 0.930 . S
C2771 C2769 1.380 . S
C2771 C2772 1.391 . S
C2771 H2781 0.930 . S
C2772 C2771 1.391 . S
C2772 C2774 1.387 . S
C2773 C2770 1.398 . S
C2773 C2774 1.380 . S
C2773 H2782 0.930 . S
C2774 C2772 1.387 . S
C2774 C2773 1.380 . S
C2774 H2783 0.930 . S
C2775 O2752 1.254 . S
C2775 O2753 1.268 . S
H2776 C2761 0.930 . S
H2777 C2762 0.930 . S
H2778 C2764 0.930 . S
H2779 C2765 0.930 . S
H2780 C2770 0.930 . S
H2781 C2771 0.930 . S
H2782 C2773 0.930 . S
H2783 C2774 0.930 . S
Gd2784 N2815 2.661 1_554 S
Gd2784 N2821 2.601 1_554 S
Gd2784 O2828 2.545 . S
Gd2784 O2829 2.606 . S
Gd2784 O2831 2.429 . S
Gd2784 O2832 2.545 . S
Gd2784 O2833 2.412 . S
Gd2784 O2835 2.362 1_554 S
Gd2784 O2836 2.324 . S
Gd2784 C2843 2.828 . S
Gd2785 N2794 2.661 . S
Gd2785 N2798 2.601 . S
Gd2785 O2829 2.362 . S
Gd2785 O2830 2.324 . S
Gd2785 O2834 2.545 . S
Gd2785 O2835 2.606 1_554 S
Gd2785 O2837 2.429 . S
Gd2785 O2838 2.545 1_554 S
Gd2785 O2839 2.412 . S
Gd2785 C2852 2.828 . S
C2786 C2789 1.417 . S
C2786 C2791 1.431 . S
C2786 C2792 1.412 . S
C2787 C2790 1.437 . S
C2787 C2791 1.317 . S
C2787 H2806 0.929 . S
C2788 C2789 1.426 . S
C2788 C2790 1.413 . S
C2788 N2798 1.359 . S
C2789 C2786 1.417 . S
C2789 C2788 1.426 . S
C2789 N2794 1.350 . S
C2790 C2787 1.437 . S
C2790 C2788 1.413 . S
C2790 C2800 1.391 . S
C2791 C2786 1.431 . S
C2791 C2787 1.317 . S
C2791 H2802 0.930 . S
C2792 C2786 1.412 . S
C2792 C2793 1.355 . S
C2792 H2804 0.930 . S
C2793 C2792 1.355 . S
C2793 C2795 1.402 . S
C2793 H2805 0.930 . S
N2794 Gd2785 2.661 . S
N2794 C2789 1.350 . S
N2794 C2795 1.307 . S
C2795 C2793 1.402 . S
C2795 N2794 1.307 . S
C2795 H2796 0.930 . S
H2796 C2795 0.930 . S
C2797 N2798 1.334 . S
C2797 C2799 1.394 . S
C2797 H2801 0.930 . S
N2798 Gd2785 2.601 . S
N2798 C2788 1.359 . S
N2798 C2797 1.334 . S
C2799 C2797 1.394 . S
C2799 C2800 1.359 . S
C2799 H2811 0.930 . S
C2800 C2790 1.391 . S
C2800 C2799 1.359 . S
C2800 H2812 0.929 . S
H2801 C2797 0.930 . S
H2802 C2791 0.930 . S
H2803 C2820 0.930 . S
H2804 C2792 0.930 . S
H2805 C2793 0.930 . S
H2806 C2787 0.929 . S
H2807 C2825 0.930 . S
H2808 C2816 0.930 . S
H2809 C2817 0.930 . S
H2810 C2841 0.929 . S
H2811 C2799 0.930 . S
H2812 C2800 0.929 . S
H2813 C2842 0.930 . S
H2814 C2823 0.930 . S
N2815 Gd2784 2.661 1_556 S
N2815 C2819 1.350 . S
N2815 C2820 1.307 . S
C2816 H2808 0.930 . S
C2816 C2817 1.355 . S
C2816 C2818 1.412 . S
C2817 H2809 0.930 . S
C2817 C2816 1.355 . S
C2817 C2820 1.402 . S
C2818 C2816 1.412 . S
C2818 C2819 1.417 . S
C2818 C2842 1.431 . S
C2819 N2815 1.350 . S
C2819 C2818 1.417 . S
C2819 C2822 1.426 . S
C2820 H2803 0.930 . S
C2820 N2815 1.307 . S
C2820 C2817 1.402 . S
N2821 Gd2784 2.601 1_556 S
N2821 C2822 1.359 . S
N2821 C2825 1.334 . S
C2822 C2819 1.426 . S
C2822 N2821 1.359 . S
C2822 C2826 1.413 . S
C2823 H2814 0.930 . S
C2823 C2824 1.359 . S
C2823 C2825 1.394 . S
C2824 C2823 1.359 . S
C2824 C2826 1.391 . S
C2824 H2827 0.929 . S
C2825 H2807 0.930 . S
C2825 N2821 1.334 . S
C2825 C2823 1.394 . S
C2826 C2822 1.413 . S
C2826 C2824 1.391 . S
C2826 C2841 1.437 . S
H2827 C2824 0.929 . S
O2828 Gd2784 2.545 . S
O2828 C2843 1.258 . S
O2829 Gd2784 2.606 . S
O2829 Gd2785 2.362 . S
O2829 C2840 1.284 . S
O2830 Gd2785 2.324 . S
O2830 C2850 1.254 . S
O2831 Gd2784 2.429 . S
O2831 C2850 1.268 . S
O2832 Gd2784 2.545 . S
O2832 C2840 1.250 . S
O2833 Gd2784 2.412 . S
O2833 C2843 1.252 . S
O2834 Gd2785 2.545 . S
O2834 C2852 1.258 . S
O2835 Gd2784 2.362 1_556 S
O2835 Gd2785 2.606 1_556 S
O2835 C2851 1.284 . S
O2836 Gd2784 2.324 . S
O2836 C2859 1.254 . S
O2837 Gd2785 2.429 . S
O2837 C2859 1.268 . S
O2838 Gd2785 2.545 1_556 S
O2838 C2851 1.250 . S
O2839 Gd2785 2.412 . S
O2839 C2852 1.252 . S
C2840 O2829 1.284 . S
C2840 O2832 1.250 . S
C2841 H2810 0.929 . S
C2841 C2826 1.437 . S
C2841 C2842 1.317 . S
C2842 H2813 0.930 . S
C2842 C2818 1.431 . S
C2842 C2841 1.317 . S
C2843 Gd2784 2.828 . S
C2843 O2828 1.258 . S
C2843 O2833 1.252 . S
C2843 C2844 1.497 . S
C2844 C2843 1.497 . S
C2844 C2845 1.395 . S
C2844 C2846 1.380 . S
C2845 C2844 1.395 . S
C2845 C2848 1.398 . S
C2845 H2860 0.930 . S
C2846 C2844 1.380 . S
C2846 C2847 1.391 . S
C2846 H2861 0.930 . S
C2847 C2846 1.391 . S
C2847 C2849 1.387 . S
C2848 C2845 1.398 . S
C2848 C2849 1.380 . S
C2848 H2862 0.930 . S
C2849 C2847 1.387 . S
C2849 C2848 1.380 . S
C2849 H2863 0.930 . S
C2850 O2830 1.254 . S
C2850 O2831 1.268 . S
C2851 O2835 1.284 . S
C2851 O2838 1.250 . S
C2852 Gd2785 2.828 . S
C2852 O2834 1.258 . S
C2852 O2839 1.252 . S
C2852 C2853 1.497 . S
C2853 C2852 1.497 . S
C2853 C2854 1.395 . S
C2853 C2855 1.380 . S
C2854 C2853 1.395 . S
C2854 C2857 1.398 . S
C2854 H2864 0.930 . S
C2855 C2853 1.380 . S
C2855 C2856 1.391 1_554 S
C2855 H2865 0.936 . S
C2856 C2855 1.391 1_556 S
C2856 C2858 1.387 1_556 S
C2857 C2854 1.398 . S
C2857 C2858 1.380 . S
C2857 H2866 0.930 . S
C2858 C2856 1.387 1_554 S
C2858 C2857 1.380 . S
C2858 H2867 0.930 . S
C2859 O2836 1.254 . S
C2859 O2837 1.268 . S
H2860 C2845 0.930 . S
H2861 C2846 0.930 . S
H2862 C2848 0.930 . S
H2863 C2849 0.930 . S
H2864 C2854 0.930 . S
H2865 C2855 0.936 . S
H2866 C2857 0.930 . S
H2867 C2858 0.930 . S
Gd2868 N2899 2.661 . S
Gd2868 N2905 2.601 . S
Gd2868 O2912 2.545 . S
Gd2868 O2913 2.606 . S
Gd2868 O2915 2.429 . S
Gd2868 O2916 2.545 . S
Gd2868 O2917 2.412 . S
Gd2868 O2919 2.362 . S
Gd2868 O2920 2.324 . S
Gd2868 C2927 2.828 . S
Gd2869 N2878 2.661 . S
Gd2869 N2882 2.601 . S
Gd2869 O2913 2.362 . S
Gd2869 O2914 2.324 . S
Gd2869 O2918 2.545 . S
Gd2869 O2919 2.606 . S
Gd2869 O2921 2.429 . S
Gd2869 O2922 2.545 . S
Gd2869 O2923 2.412 . S
Gd2869 C2936 2.828 . S
C2870 C2873 1.417 . S
C2870 C2875 1.431 . S
C2870 C2876 1.412 . S
C2871 C2874 1.437 . S
C2871 C2875 1.317 . S
C2871 H2890 0.929 . S
C2872 C2873 1.426 . S
C2872 C2874 1.413 . S
C2872 N2882 1.359 . S
C2873 C2870 1.417 . S
C2873 C2872 1.426 . S
C2873 N2878 1.350 . S
C2874 C2871 1.437 . S
C2874 C2872 1.413 . S
C2874 C2884 1.391 . S
C2875 C2870 1.431 . S
C2875 C2871 1.317 . S
C2875 H2886 0.930 . S
C2876 C2870 1.412 . S
C2876 C2877 1.355 . S
C2876 H2888 0.930 . S
C2877 C2876 1.355 . S
C2877 C2879 1.402 . S
C2877 H2889 0.930 . S
N2878 Gd2869 2.661 . S
N2878 C2873 1.350 . S
N2878 C2879 1.307 . S
C2879 C2877 1.402 . S
C2879 N2878 1.307 . S
C2879 H2880 0.930 . S
H2880 C2879 0.930 . S
C2881 N2882 1.334 . S
C2881 C2883 1.394 . S
C2881 H2885 0.930 . S
N2882 Gd2869 2.601 . S
N2882 C2872 1.359 . S
N2882 C2881 1.334 . S
C2883 C2881 1.394 . S
C2883 C2884 1.359 . S
C2883 H2895 0.930 . S
C2884 C2874 1.391 . S
C2884 C2883 1.359 . S
C2884 H2896 0.929 . S
H2885 C2881 0.930 . S
H2886 C2875 0.930 . S
H2887 C2904 0.930 . S
H2888 C2876 0.930 . S
H2889 C2877 0.930 . S
H2890 C2871 0.929 . S
H2891 C2909 0.930 . S
H2892 C2900 0.930 . S
H2893 C2901 0.930 . S
H2894 C2925 0.929 . S
H2895 C2883 0.930 . S
H2896 C2884 0.929 . S
H2897 C2926 0.930 . S
H2898 C2907 0.930 . S
N2899 Gd2868 2.661 . S
N2899 C2903 1.350 . S
N2899 C2904 1.307 . S
C2900 H2892 0.930 . S
C2900 C2901 1.355 . S
C2900 C2902 1.412 . S
C2901 H2893 0.930 . S
C2901 C2900 1.355 . S
C2901 C2904 1.402 . S
C2902 C2900 1.412 . S
C2902 C2903 1.417 . S
C2902 C2926 1.431 . S
C2903 N2899 1.350 . S
C2903 C2902 1.417 . S
C2903 C2906 1.426 . S
C2904 H2887 0.930 . S
C2904 N2899 1.307 . S
C2904 C2901 1.402 . S
N2905 Gd2868 2.601 . S
N2905 C2906 1.359 . S
N2905 C2909 1.334 . S
C2906 C2903 1.426 . S
C2906 N2905 1.359 . S
C2906 C2910 1.413 . S
C2907 H2898 0.930 . S
C2907 C2908 1.359 . S
C2907 C2909 1.394 . S
C2908 C2907 1.359 . S
C2908 C2910 1.391 . S
C2908 H2911 0.929 . S
C2909 H2891 0.930 . S
C2909 N2905 1.334 . S
C2909 C2907 1.394 . S
C2910 C2906 1.413 . S
C2910 C2908 1.391 . S
C2910 C2925 1.437 . S
H2911 C2908 0.929 . S
O2912 Gd2868 2.545 . S
O2912 C2927 1.258 . S
O2913 Gd2868 2.606 . S
O2913 Gd2869 2.362 . S
O2913 C2924 1.284 . S
O2914 Gd2869 2.324 . S
O2914 C2934 1.254 . S
O2915 Gd2868 2.429 . S
O2915 C2934 1.268 . S
O2916 Gd2868 2.545 . S
O2916 C2924 1.250 . S
O2917 Gd2868 2.412 . S
O2917 C2927 1.252 . S
O2918 Gd2869 2.545 . S
O2918 C2936 1.258 . S
O2919 Gd2868 2.362 . S
O2919 Gd2869 2.606 . S
O2919 C2935 1.284 . S
O2920 Gd2868 2.324 . S
O2920 C2943 1.254 . S
O2921 Gd2869 2.429 . S
O2921 C2943 1.268 . S
O2922 Gd2869 2.545 . S
O2922 C2935 1.250 . S
O2923 Gd2869 2.412 . S
O2923 C2936 1.252 . S
C2924 O2913 1.284 . S
C2924 O2916 1.250 . S
C2925 H2894 0.929 . S
C2925 C2910 1.437 . S
C2925 C2926 1.317 . S
C2926 H2897 0.930 . S
C2926 C2902 1.431 . S
C2926 C2925 1.317 . S
C2927 Gd2868 2.828 . S
C2927 O2912 1.258 . S
C2927 O2917 1.252 . S
C2927 C2928 1.497 . S
C2928 C2927 1.497 . S
C2928 C2929 1.395 . S
C2928 C2930 1.380 . S
C2929 C2928 1.395 . S
C2929 C2932 1.398 . S
C2929 H2944 0.930 . S
C2930 C2928 1.380 . S
C2930 C2931 1.391 . S
C2930 H2945 0.930 . S
C2931 C2930 1.391 . S
C2931 C2933 1.387 . S
C2932 C2929 1.398 . S
C2932 C2933 1.380 . S
C2932 H2946 0.930 . S
C2933 C2931 1.387 . S
C2933 C2932 1.380 . S
C2933 H2947 0.930 . S
C2934 O2914 1.254 . S
C2934 O2915 1.268 . S
C2935 O2919 1.284 . S
C2935 O2922 1.250 . S
C2936 Gd2869 2.828 . S
C2936 O2918 1.258 . S
C2936 O2923 1.252 . S
C2936 C2937 1.497 . S
C2937 C2936 1.497 . S
C2937 C2938 1.395 . S
C2937 C2939 1.380 . S
C2938 C2937 1.395 . S
C2938 C2941 1.398 . S
C2938 H2948 0.930 . S
C2939 C2937 1.380 . S
C2939 C2940 1.391 . S
C2939 H2949 0.930 . S
C2940 C2939 1.391 . S
C2940 C2942 1.387 . S
C2941 C2938 1.398 . S
C2941 C2942 1.380 . S
C2941 H2950 0.930 . S
C2942 C2940 1.387 . S
C2942 C2941 1.380 . S
C2942 H2951 0.930 . S
C2943 O2920 1.254 . S
C2943 O2921 1.268 . S
H2944 C2929 0.930 . S
H2945 C2930 0.930 . S
H2946 C2932 0.930 . S
H2947 C2933 0.930 . S
H2948 C2938 0.930 . S
H2949 C2939 0.930 . S
H2950 C2941 0.930 . S
H2951 C2942 0.930 . S
Gd2952 N2983 2.661 . S
Gd2952 N2989 2.601 . S
Gd2952 O2996 2.545 . S
Gd2952 O2997 2.606 . S
Gd2952 O2999 2.429 . S
Gd2952 O3000 2.545 . S
Gd2952 O3001 2.412 . S
Gd2952 O3003 2.362 . S
Gd2952 O3004 2.324 . S
Gd2952 C3011 2.828 . S
Gd2953 N2962 2.661 . S
Gd2953 N2966 2.601 . S
Gd2953 O2997 2.362 . S
Gd2953 O2998 2.324 . S
Gd2953 O3002 2.545 . S
Gd2953 O3003 2.606 . S
Gd2953 O3005 2.429 . S
Gd2953 O3006 2.545 . S
Gd2953 O3007 2.412 . S
Gd2953 C3020 2.828 . S
C2954 C2957 1.417 . S
C2954 C2959 1.431 . S
C2954 C2960 1.412 . S
C2955 C2958 1.437 . S
C2955 C2959 1.317 . S
C2955 H2974 0.929 . S
C2956 C2957 1.426 . S
C2956 C2958 1.413 . S
C2956 N2966 1.359 . S
C2957 C2954 1.417 . S
C2957 C2956 1.426 . S
C2957 N2962 1.350 . S
C2958 C2955 1.437 . S
C2958 C2956 1.413 . S
C2958 C2968 1.391 . S
C2959 C2954 1.431 . S
C2959 C2955 1.317 . S
C2959 H2970 0.930 . S
C2960 C2954 1.412 . S
C2960 C2961 1.355 . S
C2960 H2972 0.930 . S
C2961 C2960 1.355 . S
C2961 C2963 1.402 . S
C2961 H2973 0.930 . S
N2962 Gd2953 2.661 . S
N2962 C2957 1.350 . S
N2962 C2963 1.307 . S
C2963 C2961 1.402 . S
C2963 N2962 1.307 . S
C2963 H2964 0.930 . S
H2964 C2963 0.930 . S
C2965 N2966 1.334 . S
C2965 C2967 1.394 . S
C2965 H2969 0.930 . S
N2966 Gd2953 2.601 . S
N2966 C2956 1.359 . S
N2966 C2965 1.334 . S
C2967 C2965 1.394 . S
C2967 C2968 1.359 . S
C2967 H2979 0.930 . S
C2968 C2958 1.391 . S
C2968 C2967 1.359 . S
C2968 H2980 0.929 . S
H2969 C2965 0.930 . S
H2970 C2959 0.930 . S
H2971 C2988 0.930 . S
H2972 C2960 0.930 . S
H2973 C2961 0.930 . S
H2974 C2955 0.929 . S
H2975 C2993 0.930 . S
H2976 C2984 0.930 . S
H2977 C2985 0.941 . S
H2978 C3009 0.929 . S
H2979 C2967 0.930 . S
H2980 C2968 0.929 . S
H2981 C3010 0.930 . S
H2982 C2991 0.930 . S
N2983 Gd2952 2.661 . S
N2983 C2987 1.350 . S
N2983 C2988 1.307 . S
C2984 H2976 0.930 . S
C2984 C2985 1.351 . S
C2984 C2986 1.412 . S
C2985 H2977 0.941 . S
C2985 C2984 1.351 . S
C2985 C2988 1.405 1_655 S
C2986 C2984 1.412 . S
C2986 C2987 1.417 1_655 S
C2986 C3010 1.431 . S
C2987 N2983 1.350 . S
C2987 C2986 1.417 1_455 S
C2987 C2990 1.426 . S
C2988 H2971 0.930 . S
C2988 N2983 1.307 . S
C2988 C2985 1.405 1_455 S
N2989 Gd2952 2.601 . S
N2989 C2990 1.359 . S
N2989 C2993 1.334 . S
C2990 C2987 1.426 . S
C2990 N2989 1.359 . S
C2990 C2994 1.413 1_455 S
C2991 H2982 0.930 . S
C2991 C2992 1.359 1_455 S
C2991 C2993 1.394 . S
C2992 C2991 1.359 1_655 S
C2992 C2994 1.391 . S
C2992 H2995 0.929 . S
C2993 H2975 0.930 . S
C2993 N2989 1.334 . S
C2993 C2991 1.394 . S
C2994 C2990 1.413 1_655 S
C2994 C2992 1.391 . S
C2994 C3009 1.437 . S
H2995 C2992 0.929 . S
O2996 Gd2952 2.545 . S
O2996 C3011 1.258 . S
O2997 Gd2952 2.606 . S
O2997 Gd2953 2.362 . S
O2997 C3008 1.284 . S
O2998 Gd2953 2.324 . S
O2998 C3018 1.254 . S
O2999 Gd2952 2.429 . S
O2999 C3018 1.268 . S
O3000 Gd2952 2.545 . S
O3000 C3008 1.250 . S
O3001 Gd2952 2.412 . S
O3001 C3011 1.252 . S
O3002 Gd2953 2.545 . S
O3002 C3020 1.258 . S
O3003 Gd2952 2.362 . S
O3003 Gd2953 2.606 . S
O3003 C3019 1.284 . S
O3004 Gd2952 2.324 . S
O3004 C3027 1.254 . S
O3005 Gd2953 2.429 . S
O3005 C3027 1.268 . S
O3006 Gd2953 2.545 . S
O3006 C3019 1.250 . S
O3007 Gd2953 2.412 . S
O3007 C3020 1.252 . S
C3008 O2997 1.284 . S
C3008 O3000 1.250 . S
C3009 H2978 0.929 . S
C3009 C2994 1.437 . S
C3009 C3010 1.317 . S
C3010 H2981 0.930 . S
C3010 C2986 1.431 . S
C3010 C3009 1.317 . S
C3011 Gd2952 2.828 . S
C3011 O2996 1.258 . S
C3011 O3001 1.252 . S
C3011 C3012 1.497 . S
C3012 C3011 1.497 . S
C3012 C3013 1.395 . S
C3012 C3014 1.380 . S
C3013 C3012 1.395 . S
C3013 C3016 1.398 . S
C3013 H3028 0.930 . S
C3014 C3012 1.380 . S
C3014 C3015 1.391 . S
C3014 H3029 0.930 . S
C3015 C3014 1.391 . S
C3015 C3017 1.387 . S
C3016 C3013 1.398 . S
C3016 C3017 1.380 . S
C3016 H3030 0.930 . S
C3017 C3015 1.387 . S
C3017 C3016 1.380 . S
C3017 H3031 0.930 . S
C3018 O2998 1.254 . S
C3018 O2999 1.268 . S
C3019 O3003 1.284 . S
C3019 O3006 1.250 . S
C3020 Gd2953 2.828 . S
C3020 O3002 1.258 . S
C3020 O3007 1.252 . S
C3020 C3021 1.497 . S
C3021 C3020 1.497 . S
C3021 C3022 1.395 . S
C3021 C3023 1.380 . S
C3022 C3021 1.395 . S
C3022 C3025 1.398 . S
C3022 H3032 0.930 . S
C3023 C3021 1.380 . S
C3023 C3024 1.391 . S
C3023 H3033 0.930 . S
C3024 C3023 1.391 . S
C3024 C3026 1.387 . S
C3025 C3022 1.398 . S
C3025 C3026 1.380 . S
C3025 H3034 0.930 . S
C3026 C3024 1.387 . S
C3026 C3025 1.380 . S
C3026 H3035 0.930 . S
C3027 O3004 1.254 . S
C3027 O3005 1.268 . S
H3028 C3013 0.930 . S
H3029 C3014 0.930 . S
H3030 C3016 0.930 . S
H3031 C3017 0.930 . S
H3032 C3022 0.930 . S
H3033 C3023 0.930 . S
H3034 C3025 0.930 . S
H3035 C3026 0.930 . S
Gd3036 N3067 2.661 . S
Gd3036 N3073 2.601 . S
Gd3036 O3080 2.545 . S
Gd3036 O3081 2.606 . S
Gd3036 O3083 2.429 . S
Gd3036 O3084 2.545 . S
Gd3036 O3085 2.412 . S
Gd3036 O3087 2.362 . S
Gd3036 O3088 2.324 . S
Gd3036 C3095 2.828 . S
Gd3037 N3046 2.661 . S
Gd3037 N3050 2.601 . S
Gd3037 O3081 2.362 . S
Gd3037 O3082 2.324 . S
Gd3037 O3086 2.545 . S
Gd3037 O3087 2.606 . S
Gd3037 O3089 2.429 . S
Gd3037 O3090 2.545 . S
Gd3037 O3091 2.412 . S
Gd3037 C3104 2.828 . S
C3038 C3041 1.417 . S
C3038 C3043 1.431 . S
C3038 C3044 1.412 . S
C3039 C3042 1.437 . S
C3039 C3043 1.317 . S
C3039 H3058 0.929 . S
C3040 C3041 1.426 . S
C3040 C3042 1.413 . S
C3040 N3050 1.359 . S
C3041 C3038 1.417 . S
C3041 C3040 1.426 . S
C3041 N3046 1.350 . S
C3042 C3039 1.437 . S
C3042 C3040 1.413 . S
C3042 C3052 1.391 . S
C3043 C3038 1.431 . S
C3043 C3039 1.317 . S
C3043 H3054 0.930 . S
C3044 C3038 1.412 . S
C3044 C3045 1.355 . S
C3044 H3056 0.930 . S
C3045 C3044 1.355 . S
C3045 C3047 1.402 . S
C3045 H3057 0.930 . S
N3046 Gd3037 2.661 . S
N3046 C3041 1.350 . S
N3046 C3047 1.307 . S
C3047 C3045 1.402 . S
C3047 N3046 1.307 . S
C3047 H3048 0.930 . S
H3048 C3047 0.930 . S
C3049 N3050 1.334 . S
C3049 C3051 1.394 . S
C3049 H3053 0.930 . S
N3050 Gd3037 2.601 . S
N3050 C3040 1.359 . S
N3050 C3049 1.334 . S
C3051 C3049 1.394 . S
C3051 C3052 1.359 . S
C3051 H3063 0.930 . S
C3052 C3042 1.391 . S
C3052 C3051 1.359 . S
C3052 H3064 0.929 . S
H3053 C3049 0.930 . S
H3054 C3043 0.930 . S
H3055 C3072 0.930 . S
H3056 C3044 0.930 . S
H3057 C3045 0.930 . S
H3058 C3039 0.929 . S
H3059 C3077 0.930 . S
H3060 C3068 0.930 . S
H3061 C3069 0.930 . S
H3062 C3093 0.929 . S
H3063 C3051 0.930 . S
H3064 C3052 0.929 . S
H3065 C3094 0.930 . S
H3066 C3075 0.930 . S
N3067 Gd3036 2.661 . S
N3067 C3071 1.350 . S
N3067 C3072 1.307 . S
C3068 H3060 0.930 . S
C3068 C3069 1.355 . S
C3068 C3070 1.412 . S
C3069 H3061 0.930 . S
C3069 C3068 1.355 . S
C3069 C3072 1.402 . S
C3070 C3068 1.412 . S
C3070 C3071 1.417 . S
C3070 C3094 1.431 . S
C3071 N3067 1.350 . S
C3071 C3070 1.417 . S
C3071 C3074 1.426 . S
C3072 H3055 0.930 . S
C3072 N3067 1.307 . S
C3072 C3069 1.402 . S
N3073 Gd3036 2.601 . S
N3073 C3074 1.359 . S
N3073 C3077 1.334 . S
C3074 C3071 1.426 . S
C3074 N3073 1.359 . S
C3074 C3078 1.413 . S
C3075 H3066 0.930 . S
C3075 C3076 1.359 . S
C3075 C3077 1.394 . S
C3076 C3075 1.359 . S
C3076 C3078 1.391 . S
C3076 H3079 0.929 . S
C3077 H3059 0.930 . S
C3077 N3073 1.334 . S
C3077 C3075 1.394 . S
C3078 C3074 1.413 . S
C3078 C3076 1.391 . S
C3078 C3093 1.437 . S
H3079 C3076 0.929 . S
O3080 Gd3036 2.545 . S
O3080 C3095 1.258 . S
O3081 Gd3036 2.606 . S
O3081 Gd3037 2.362 . S
O3081 C3092 1.284 . S
O3082 Gd3037 2.324 . S
O3082 C3102 1.254 . S
O3083 Gd3036 2.429 . S
O3083 C3102 1.268 . S
O3084 Gd3036 2.545 . S
O3084 C3092 1.250 . S
O3085 Gd3036 2.412 . S
O3085 C3095 1.252 . S
O3086 Gd3037 2.545 . S
O3086 C3104 1.258 . S
O3087 Gd3036 2.362 . S
O3087 Gd3037 2.606 . S
O3087 C3103 1.284 . S
O3088 Gd3036 2.324 . S
O3088 C3111 1.254 . S
O3089 Gd3037 2.429 . S
O3089 C3111 1.268 . S
O3090 Gd3037 2.545 . S
O3090 C3103 1.250 . S
O3091 Gd3037 2.412 . S
O3091 C3104 1.252 . S
C3092 O3081 1.284 . S
C3092 O3084 1.250 . S
C3093 H3062 0.929 . S
C3093 C3078 1.437 . S
C3093 C3094 1.317 . S
C3094 H3065 0.930 . S
C3094 C3070 1.431 . S
C3094 C3093 1.317 . S
C3095 Gd3036 2.828 . S
C3095 O3080 1.258 . S
C3095 O3085 1.252 . S
C3095 C3096 1.497 . S
C3096 C3095 1.497 . S
C3096 C3097 1.395 . S
C3096 C3098 1.380 . S
C3097 C3096 1.395 . S
C3097 C3100 1.398 . S
C3097 H3112 0.930 . S
C3098 C3096 1.380 . S
C3098 C3099 1.391 . S
C3098 H3113 0.930 . S
C3099 C3098 1.391 . S
C3099 C3101 1.387 . S
C3100 C3097 1.398 . S
C3100 C3101 1.380 . S
C3100 H3114 0.930 . S
C3101 C3099 1.387 . S
C3101 C3100 1.380 . S
C3101 H3115 0.930 . S
C3102 O3082 1.254 . S
C3102 O3083 1.268 . S
C3103 O3087 1.284 . S
C3103 O3090 1.250 . S
C3104 Gd3037 2.828 . S
C3104 O3086 1.258 . S
C3104 O3091 1.252 . S
C3104 C3105 1.497 . S
C3105 C3104 1.497 . S
C3105 C3106 1.395 . S
C3105 C3107 1.380 . S
C3106 C3105 1.395 . S
C3106 C3109 1.398 . S
C3106 H3116 0.930 . S
C3107 C3105 1.380 . S
C3107 C3108 1.391 . S
C3107 H3117 0.930 . S
C3108 C3107 1.391 . S
C3108 C3110 1.387 . S
C3109 C3106 1.398 . S
C3109 C3110 1.380 . S
C3109 H3118 0.930 . S
C3110 C3108 1.387 . S
C3110 C3109 1.380 . S
C3110 H3119 0.930 . S
C3111 O3088 1.254 . S
C3111 O3089 1.268 . S
H3112 C3097 0.930 . S
H3113 C3098 0.930 . S
H3114 C3100 0.930 . S
H3115 C3101 0.930 . S
H3116 C3106 0.930 . S
H3117 C3107 0.930 . S
H3118 C3109 0.930 . S
H3119 C3110 0.930 . S
Gd3120 N3151 2.661 . S
Gd3120 N3157 2.601 . S
Gd3120 O3164 2.545 . S
Gd3120 O3165 2.606 . S
Gd3120 O3167 2.429 . S
Gd3120 O3168 2.545 . S
Gd3120 O3169 2.412 . S
Gd3120 O3171 2.362 . S
Gd3120 O3172 2.324 . S
Gd3120 C3179 2.828 . S
Gd3121 N3130 2.661 . S
Gd3121 N3134 2.601 . S
Gd3121 O3165 2.362 . S
Gd3121 O3166 2.324 . S
Gd3121 O3170 2.545 . S
Gd3121 O3171 2.606 . S
Gd3121 O3173 2.429 . S
Gd3121 O3174 2.545 . S
Gd3121 O3175 2.412 . S
Gd3121 C3188 2.828 . S
C3122 C3125 1.417 . S
C3122 C3127 1.431 . S
C3122 C3128 1.412 . S
C3123 C3126 1.437 . S
C3123 C3127 1.317 . S
C3123 H3142 0.929 . S
C3124 C3125 1.426 . S
C3124 C3126 1.413 . S
C3124 N3134 1.359 . S
C3125 C3122 1.417 . S
C3125 C3124 1.426 . S
C3125 N3130 1.350 . S
C3126 C3123 1.437 . S
C3126 C3124 1.413 . S
C3126 C3136 1.391 . S
C3127 C3122 1.431 . S
C3127 C3123 1.317 . S
C3127 H3138 0.930 . S
C3128 C3122 1.412 . S
C3128 C3129 1.355 . S
C3128 H3140 0.930 . S
C3129 C3128 1.355 . S
C3129 C3131 1.402 . S
C3129 H3141 0.930 . S
N3130 Gd3121 2.661 . S
N3130 C3125 1.350 . S
N3130 C3131 1.307 . S
C3131 C3129 1.402 . S
C3131 N3130 1.307 . S
C3131 H3132 0.930 . S
H3132 C3131 0.930 . S
C3133 N3134 1.334 . S
C3133 C3135 1.394 . S
C3133 H3137 0.930 . S
N3134 Gd3121 2.601 . S
N3134 C3124 1.359 . S
N3134 C3133 1.334 . S
C3135 C3133 1.394 . S
C3135 C3136 1.359 . S
C3135 H3147 0.930 . S
C3136 C3126 1.391 . S
C3136 C3135 1.359 . S
C3136 H3148 0.929 . S
H3137 C3133 0.930 . S
H3138 C3127 0.930 . S
H3139 C3156 0.930 . S
H3140 C3128 0.930 . S
H3141 C3129 0.930 . S
H3142 C3123 0.929 . S
H3143 C3161 0.930 . S
H3144 C3152 0.930 . S
H3145 C3153 0.930 . S
H3146 C3177 0.929 . S
H3147 C3135 0.930 . S
H3148 C3136 0.929 . S
H3149 C3178 0.930 . S
H3150 C3159 0.930 . S
N3151 Gd3120 2.661 . S
N3151 C3155 1.350 . S
N3151 C3156 1.307 . S
C3152 H3144 0.930 . S
C3152 C3153 1.355 . S
C3152 C3154 1.412 . S
C3153 H3145 0.930 . S
C3153 C3152 1.355 . S
C3153 C3156 1.402 . S
C3154 C3152 1.412 . S
C3154 C3155 1.417 . S
C3154 C3178 1.431 . S
C3155 N3151 1.350 . S
C3155 C3154 1.417 . S
C3155 C3158 1.426 . S
C3156 H3139 0.930 . S
C3156 N3151 1.307 . S
C3156 C3153 1.402 . S
N3157 Gd3120 2.601 . S
N3157 C3158 1.359 . S
N3157 C3161 1.334 . S
C3158 C3155 1.426 . S
C3158 N3157 1.359 . S
C3158 C3162 1.413 . S
C3159 H3150 0.930 . S
C3159 C3160 1.359 . S
C3159 C3161 1.394 . S
C3160 C3159 1.359 . S
C3160 C3162 1.391 . S
C3160 H3163 0.929 . S
C3161 H3143 0.930 . S
C3161 N3157 1.334 . S
C3161 C3159 1.394 . S
C3162 C3158 1.413 . S
C3162 C3160 1.391 . S
C3162 C3177 1.437 . S
H3163 C3160 0.929 . S
O3164 Gd3120 2.545 . S
O3164 C3179 1.258 . S
O3165 Gd3120 2.606 . S
O3165 Gd3121 2.362 . S
O3165 C3176 1.284 . S
O3166 Gd3121 2.324 . S
O3166 C3186 1.254 . S
O3167 Gd3120 2.429 . S
O3167 C3186 1.268 . S
O3168 Gd3120 2.545 . S
O3168 C3176 1.250 . S
O3169 Gd3120 2.412 . S
O3169 C3179 1.252 . S
O3170 Gd3121 2.545 . S
O3170 C3188 1.258 . S
O3171 Gd3120 2.362 . S
O3171 Gd3121 2.606 . S
O3171 C3187 1.284 . S
O3172 Gd3120 2.324 . S
O3172 C3195 1.254 . S
O3173 Gd3121 2.429 . S
O3173 C3195 1.268 . S
O3174 Gd3121 2.545 . S
O3174 C3187 1.250 . S
O3175 Gd3121 2.412 . S
O3175 C3188 1.252 . S
C3176 O3165 1.284 . S
C3176 O3168 1.250 . S
C3177 H3146 0.929 . S
C3177 C3162 1.437 . S
C3177 C3178 1.317 . S
C3178 H3149 0.930 . S
C3178 C3154 1.431 . S
C3178 C3177 1.317 . S
C3179 Gd3120 2.828 . S
C3179 O3164 1.258 . S
C3179 O3169 1.252 . S
C3179 C3180 1.497 . S
C3180 C3179 1.497 . S
C3180 C3181 1.395 . S
C3180 C3182 1.380 . S
C3181 C3180 1.395 . S
C3181 C3184 1.398 . S
C3181 H3196 0.930 . S
C3182 C3180 1.380 . S
C3182 C3183 1.391 . S
C3182 H3197 0.930 . S
C3183 C3182 1.391 . S
C3183 C3185 1.387 . S
C3184 C3181 1.398 . S
C3184 C3185 1.380 . S
C3184 H3198 0.930 . S
C3185 C3183 1.387 . S
C3185 C3184 1.380 . S
C3185 H3199 0.930 . S
C3186 O3166 1.254 . S
C3186 O3167 1.268 . S
C3187 O3171 1.284 . S
C3187 O3174 1.250 . S
C3188 Gd3121 2.828 . S
C3188 O3170 1.258 . S
C3188 O3175 1.252 . S
C3188 C3189 1.497 . S
C3189 C3188 1.497 . S
C3189 C3190 1.395 . S
C3189 C3191 1.380 . S
C3190 C3189 1.395 . S
C3190 C3193 1.398 . S
C3190 H3200 0.930 . S
C3191 C3189 1.380 . S
C3191 C3192 1.391 . S
C3191 H3201 0.930 . S
C3192 C3191 1.391 . S
C3192 C3194 1.387 . S
C3193 C3190 1.398 . S
C3193 C3194 1.380 . S
C3193 H3202 0.930 . S
C3194 C3192 1.387 . S
C3194 C3193 1.380 . S
C3194 H3203 0.930 . S
C3195 O3172 1.254 . S
C3195 O3173 1.268 . S
H3196 C3181 0.930 . S
H3197 C3182 0.930 . S
H3198 C3184 0.930 . S
H3199 C3185 0.930 . S
H3200 C3190 0.930 . S
H3201 C3191 0.930 . S
H3202 C3193 0.930 . S
H3203 C3194 0.930 . S
Gd3204 N3235 2.661 . S
Gd3204 N3241 2.601 . S
Gd3204 O3248 2.545 . S
Gd3204 O3249 2.606 . S
Gd3204 O3251 2.429 . S
Gd3204 O3252 2.545 . S
Gd3204 O3253 2.412 . S
Gd3204 O3255 2.362 . S
Gd3204 O3256 2.324 . S
Gd3204 C3263 2.828 . S
Gd3205 N3214 2.661 . S
Gd3205 N3218 2.601 . S
Gd3205 O3249 2.362 . S
Gd3205 O3250 2.324 . S
Gd3205 O3254 2.545 . S
Gd3205 O3255 2.606 . S
Gd3205 O3257 2.429 . S
Gd3205 O3258 2.545 . S
Gd3205 O3259 2.412 . S
Gd3205 C3272 2.828 . S
C3206 C3209 1.417 . S
C3206 C3211 1.431 . S
C3206 C3212 1.412 . S
C3207 C3210 1.437 . S
C3207 C3211 1.317 . S
C3207 H3226 0.929 . S
C3208 C3209 1.426 . S
C3208 C3210 1.413 . S
C3208 N3218 1.359 . S
C3209 C3206 1.417 . S
C3209 C3208 1.426 . S
C3209 N3214 1.350 . S
C3210 C3207 1.437 . S
C3210 C3208 1.413 . S
C3210 C3220 1.391 . S
C3211 C3206 1.431 . S
C3211 C3207 1.317 . S
C3211 H3222 0.930 . S
C3212 C3206 1.412 . S
C3212 C3213 1.355 . S
C3212 H3224 0.930 . S
C3213 C3212 1.355 . S
C3213 C3215 1.402 . S
C3213 H3225 0.930 . S
N3214 Gd3205 2.661 . S
N3214 C3209 1.350 . S
N3214 C3215 1.307 . S
C3215 C3213 1.402 . S
C3215 N3214 1.307 . S
C3215 H3216 0.930 . S
H3216 C3215 0.930 . S
C3217 N3218 1.334 . S
C3217 C3219 1.394 . S
C3217 H3221 0.930 . S
N3218 Gd3205 2.601 . S
N3218 C3208 1.359 . S
N3218 C3217 1.334 . S
C3219 C3217 1.394 . S
C3219 C3220 1.359 . S
C3219 H3231 0.930 . S
C3220 C3210 1.391 . S
C3220 C3219 1.359 . S
C3220 H3232 0.929 . S
H3221 C3217 0.930 . S
H3222 C3211 0.930 . S
H3223 C3240 0.930 . S
H3224 C3212 0.930 . S
H3225 C3213 0.930 . S
H3226 C3207 0.929 . S
H3227 C3245 0.930 . S
H3228 C3236 0.930 . S
H3229 C3237 0.930 . S
H3230 C3261 0.929 . S
H3231 C3219 0.930 . S
H3232 C3220 0.929 . S
H3233 C3262 0.930 . S
H3234 C3243 0.930 . S
N3235 Gd3204 2.661 . S
N3235 C3239 1.350 . S
N3235 C3240 1.307 . S
C3236 H3228 0.930 . S
C3236 C3237 1.355 . S
C3236 C3238 1.412 . S
C3237 H3229 0.930 . S
C3237 C3236 1.355 . S
C3237 C3240 1.402 . S
C3238 C3236 1.412 . S
C3238 C3239 1.417 . S
C3238 C3262 1.431 . S
C3239 N3235 1.350 . S
C3239 C3238 1.417 . S
C3239 C3242 1.426 . S
C3240 H3223 0.930 . S
C3240 N3235 1.307 . S
C3240 C3237 1.402 . S
N3241 Gd3204 2.601 . S
N3241 C3242 1.359 . S
N3241 C3245 1.334 . S
C3242 C3239 1.426 . S
C3242 N3241 1.359 . S
C3242 C3246 1.413 . S
C3243 H3234 0.930 . S
C3243 C3244 1.359 . S
C3243 C3245 1.394 . S
C3244 C3243 1.359 . S
C3244 C3246 1.391 . S
C3244 H3247 0.929 . S
C3245 H3227 0.930 . S
C3245 N3241 1.334 . S
C3245 C3243 1.394 . S
C3246 C3242 1.413 . S
C3246 C3244 1.391 . S
C3246 C3261 1.437 . S
H3247 C3244 0.929 . S
O3248 Gd3204 2.545 . S
O3248 C3263 1.258 . S
O3249 Gd3204 2.606 . S
O3249 Gd3205 2.362 . S
O3249 C3260 1.284 . S
O3250 Gd3205 2.324 . S
O3250 C3270 1.254 . S
O3251 Gd3204 2.429 . S
O3251 C3270 1.268 . S
O3252 Gd3204 2.545 . S
O3252 C3260 1.250 . S
O3253 Gd3204 2.412 . S
O3253 C3263 1.252 . S
O3254 Gd3205 2.545 . S
O3254 C3272 1.258 . S
O3255 Gd3204 2.362 . S
O3255 Gd3205 2.606 . S
O3255 C3271 1.284 . S
O3256 Gd3204 2.324 . S
O3256 C3279 1.254 . S
O3257 Gd3205 2.429 . S
O3257 C3279 1.268 . S
O3258 Gd3205 2.545 . S
O3258 C3271 1.250 . S
O3259 Gd3205 2.412 . S
O3259 C3272 1.252 . S
C3260 O3249 1.284 . S
C3260 O3252 1.250 . S
C3261 H3230 0.929 . S
C3261 C3246 1.437 . S
C3261 C3262 1.317 . S
C3262 H3233 0.930 . S
C3262 C3238 1.431 . S
C3262 C3261 1.317 . S
C3263 Gd3204 2.828 . S
C3263 O3248 1.258 . S
C3263 O3253 1.252 . S
C3263 C3264 1.497 . S
C3264 C3263 1.497 . S
C3264 C3265 1.395 . S
C3264 C3266 1.380 . S
C3265 C3264 1.395 . S
C3265 C3268 1.398 . S
C3265 H3280 0.930 . S
C3266 C3264 1.380 . S
C3266 C3267 1.391 . S
C3266 H3281 0.930 . S
C3267 C3266 1.391 . S
C3267 C3269 1.387 . S
C3268 C3265 1.398 . S
C3268 C3269 1.380 . S
C3268 H3282 0.930 . S
C3269 C3267 1.387 . S
C3269 C3268 1.380 . S
C3269 H3283 0.930 . S
C3270 O3250 1.254 . S
C3270 O3251 1.268 . S
C3271 O3255 1.284 . S
C3271 O3258 1.250 . S
C3272 Gd3205 2.828 . S
C3272 O3254 1.258 . S
C3272 O3259 1.252 . S
C3272 C3273 1.497 . S
C3273 C3272 1.497 . S
C3273 C3274 1.395 . S
C3273 C3275 1.380 . S
C3274 C3273 1.395 . S
C3274 C3277 1.398 . S
C3274 H3284 0.930 . S
C3275 C3273 1.380 . S
C3275 C3276 1.391 . S
C3275 H3285 0.930 . S
C3276 C3275 1.391 . S
C3276 C3278 1.387 . S
C3277 C3274 1.398 . S
C3277 C3278 1.380 . S
C3277 H3286 0.930 . S
C3278 C3276 1.387 . S
C3278 C3277 1.380 . S
C3278 H3287 0.930 . S
C3279 O3256 1.254 . S
C3279 O3257 1.268 . S
H3280 C3265 0.930 . S
H3281 C3266 0.930 . S
H3282 C3268 0.930 . S
H3283 C3269 0.930 . S
H3284 C3274 0.930 . S
H3285 C3275 0.930 . S
H3286 C3277 0.930 . S
H3287 C3278 0.930 . S
Gd3288 N3319 2.661 . S
Gd3288 N3325 2.601 . S
Gd3288 O3332 2.545 . S
Gd3288 O3333 2.606 . S
Gd3288 O3335 2.429 . S
Gd3288 O3336 2.545 . S
Gd3288 O3337 2.412 . S
Gd3288 O3339 2.362 . S
Gd3288 O3340 2.324 . S
Gd3288 C3347 2.828 . S
Gd3289 N3298 2.661 . S
Gd3289 N3302 2.601 . S
Gd3289 O3333 2.362 . S
Gd3289 O3334 2.324 . S
Gd3289 O3338 2.545 . S
Gd3289 O3339 2.606 . S
Gd3289 O3341 2.429 . S
Gd3289 O3342 2.545 . S
Gd3289 O3343 2.412 . S
Gd3289 C3356 2.828 . S
C3290 C3293 1.417 . S
C3290 C3295 1.431 . S
C3290 C3296 1.412 . S
C3291 C3294 1.437 . S
C3291 C3295 1.317 . S
C3291 H3310 0.929 . S
C3292 C3293 1.426 . S
C3292 C3294 1.413 . S
C3292 N3302 1.359 . S
C3293 C3290 1.417 . S
C3293 C3292 1.426 . S
C3293 N3298 1.350 . S
C3294 C3291 1.437 . S
C3294 C3292 1.413 . S
C3294 C3304 1.391 . S
C3295 C3290 1.431 . S
C3295 C3291 1.317 . S
C3295 H3306 0.930 . S
C3296 C3290 1.412 . S
C3296 C3297 1.355 . S
C3296 H3308 0.930 . S
C3297 C3296 1.355 . S
C3297 C3299 1.402 . S
C3297 H3309 0.930 . S
N3298 Gd3289 2.661 . S
N3298 C3293 1.350 . S
N3298 C3299 1.307 . S
C3299 C3297 1.402 . S
C3299 N3298 1.307 . S
C3299 H3300 0.930 . S
H3300 C3299 0.930 . S
C3301 N3302 1.334 . S
C3301 C3303 1.394 . S
C3301 H3305 0.930 . S
N3302 Gd3289 2.601 . S
N3302 C3292 1.359 . S
N3302 C3301 1.334 . S
C3303 C3301 1.394 . S
C3303 C3304 1.359 . S
C3303 H3315 0.930 . S
C3304 C3294 1.391 . S
C3304 C3303 1.359 . S
C3304 H3316 0.929 . S
H3305 C3301 0.930 . S
H3306 C3295 0.930 . S
H3307 C3324 0.930 . S
H3308 C3296 0.930 . S
H3309 C3297 0.930 . S
H3310 C3291 0.929 . S
H3311 C3329 0.930 . S
H3312 C3320 0.930 . S
H3313 C3321 0.930 . S
H3314 C3345 0.929 . S
H3315 C3303 0.930 . S
H3316 C3304 0.929 . S
H3317 C3346 0.930 . S
H3318 C3327 0.930 . S
N3319 Gd3288 2.661 . S
N3319 C3323 1.350 . S
N3319 C3324 1.307 . S
C3320 H3312 0.930 . S
C3320 C3321 1.355 . S
C3320 C3322 1.412 . S
C3321 H3313 0.930 . S
C3321 C3320 1.355 . S
C3321 C3324 1.402 . S
C3322 C3320 1.412 . S
C3322 C3323 1.417 . S
C3322 C3346 1.431 . S
C3323 N3319 1.350 . S
C3323 C3322 1.417 . S
C3323 C3326 1.426 . S
C3324 H3307 0.930 . S
C3324 N3319 1.307 . S
C3324 C3321 1.402 . S
N3325 Gd3288 2.601 . S
N3325 C3326 1.359 . S
N3325 C3329 1.334 . S
C3326 C3323 1.426 . S
C3326 N3325 1.359 . S
C3326 C3330 1.413 . S
C3327 H3318 0.930 . S
C3327 C3328 1.359 . S
C3327 C3329 1.394 . S
C3328 C3327 1.359 . S
C3328 C3330 1.391 . S
C3328 H3331 0.929 . S
C3329 H3311 0.930 . S
C3329 N3325 1.334 . S
C3329 C3327 1.394 . S
C3330 C3326 1.413 . S
C3330 C3328 1.391 . S
C3330 C3345 1.437 . S
H3331 C3328 0.929 . S
O3332 Gd3288 2.545 . S
O3332 C3347 1.258 . S
O3333 Gd3288 2.606 . S
O3333 Gd3289 2.362 . S
O3333 C3344 1.284 . S
O3334 Gd3289 2.324 . S
O3334 C3354 1.254 . S
O3335 Gd3288 2.429 . S
O3335 C3354 1.268 . S
O3336 Gd3288 2.545 . S
O3336 C3344 1.250 . S
O3337 Gd3288 2.412 . S
O3337 C3347 1.252 . S
O3338 Gd3289 2.545 . S
O3338 C3356 1.258 . S
O3339 Gd3288 2.362 . S
O3339 Gd3289 2.606 . S
O3339 C3355 1.284 . S
O3340 Gd3288 2.324 . S
O3340 C3363 1.254 . S
O3341 Gd3289 2.429 . S
O3341 C3363 1.268 . S
O3342 Gd3289 2.545 . S
O3342 C3355 1.250 . S
O3343 Gd3289 2.412 . S
O3343 C3356 1.252 . S
C3344 O3333 1.284 . S
C3344 O3336 1.250 . S
C3345 H3314 0.929 . S
C3345 C3330 1.437 . S
C3345 C3346 1.317 . S
C3346 H3317 0.930 . S
C3346 C3322 1.431 . S
C3346 C3345 1.317 . S
C3347 Gd3288 2.828 . S
C3347 O3332 1.258 . S
C3347 O3337 1.252 . S
C3347 C3348 1.497 . S
C3348 C3347 1.497 . S
C3348 C3349 1.395 . S
C3348 C3350 1.380 . S
C3349 C3348 1.395 . S
C3349 C3352 1.398 . S
C3349 H3364 0.930 . S
C3350 C3348 1.380 . S
C3350 C3351 1.391 . S
C3350 H3365 0.930 . S
C3351 C3350 1.391 . S
C3351 C3353 1.387 . S
C3352 C3349 1.398 . S
C3352 C3353 1.380 . S
C3352 H3366 0.930 . S
C3353 C3351 1.387 . S
C3353 C3352 1.380 . S
C3353 H3367 0.930 . S
C3354 O3334 1.254 . S
C3354 O3335 1.268 . S
C3355 O3339 1.284 . S
C3355 O3342 1.250 . S
C3356 Gd3289 2.828 . S
C3356 O3338 1.258 . S
C3356 O3343 1.252 . S
C3356 C3357 1.497 . S
C3357 C3356 1.497 . S
C3357 C3358 1.395 . S
C3357 C3359 1.380 . S
C3358 C3357 1.395 . S
C3358 C3361 1.398 . S
C3358 H3368 0.930 . S
C3359 C3357 1.380 . S
C3359 C3360 1.391 . S
C3359 H3369 0.930 . S
C3360 C3359 1.391 . S
C3360 C3362 1.387 . S
C3361 C3358 1.398 . S
C3361 C3362 1.380 . S
C3361 H3370 0.930 . S
C3362 C3360 1.387 . S
C3362 C3361 1.380 . S
C3362 H3371 0.930 . S
C3363 O3340 1.254 . S
C3363 O3341 1.268 . S
H3364 C3349 0.930 . S
H3365 C3350 0.930 . S
H3366 C3352 0.930 . S
H3367 C3353 0.930 . S
H3368 C3358 0.930 . S
H3369 C3359 0.930 . S
H3370 C3361 0.930 . S
H3371 C3362 0.930 . S
Gd3372 N3403 2.661 . S
Gd3372 N3409 2.601 . S
Gd3372 O3416 2.545 . S
Gd3372 O3417 2.606 . S
Gd3372 O3419 2.429 . S
Gd3372 O3420 2.545 . S
Gd3372 O3421 2.412 1_455 S
Gd3372 O3423 2.362 . S
Gd3372 O3424 2.324 1_554 S
Gd3372 C3431 2.828 1_455 S
Gd3373 N3382 2.661 . S
Gd3373 N3386 2.601 1_554 S
Gd3373 O3417 2.362 . S
Gd3373 O3418 2.324 . S
Gd3373 O3422 2.545 1_554 S
Gd3373 O3423 2.606 . S
Gd3373 O3425 2.429 1_554 S
Gd3373 O3426 2.545 . S
Gd3373 O3427 2.412 . S
Gd3373 C3440 2.828 1_554 S
C3374 C3377 1.417 . S
C3374 C3379 1.431 . S
C3374 C3380 1.412 . S
C3375 C3378 1.437 . S
C3375 C3379 1.317 1_556 S
C3375 H3394 0.929 . S
C3376 C3377 1.426 1_556 S
C3376 C3378 1.413 . S
C3376 N3386 1.359 . S
C3377 C3374 1.417 . S
C3377 C3376 1.426 1_554 S
C3377 N3382 1.350 . S
C3378 C3375 1.437 . S
C3378 C3376 1.413 . S
C3378 C3388 1.391 . S
C3379 C3374 1.431 . S
C3379 C3375 1.317 1_554 S
C3379 H3390 0.930 . S
C3380 C3374 1.412 . S
C3380 C3381 1.355 . S
C3380 H3392 0.930 . S
C3381 C3380 1.355 . S
C3381 C3383 1.402 . S
C3381 H3393 0.930 . S
N3382 Gd3373 2.661 . S
N3382 C3377 1.350 . S
N3382 C3383 1.307 . S
C3383 C3381 1.402 . S
C3383 N3382 1.307 . S
C3383 H3384 0.930 . S
H3384 C3383 0.930 . S
C3385 N3386 1.334 . S
C3385 C3387 1.394 . S
C3385 H3389 0.930 . S
N3386 Gd3373 2.601 1_556 S
N3386 C3376 1.359 . S
N3386 C3385 1.334 . S
C3387 C3385 1.394 . S
C3387 C3388 1.359 . S
C3387 H3399 0.930 . S
C3388 C3378 1.391 . S
C3388 C3387 1.359 . S
C3388 H3400 0.929 . S
H3389 C3385 0.930 . S
H3390 C3379 0.930 . S
H3391 C3408 0.940 . S
H3392 C3380 0.930 . S
H3393 C3381 0.930 . S
H3394 C3375 0.929 . S
H3395 C3413 0.930 . S
H3396 C3404 0.930 . S
H3397 C3405 0.930 . S
H3398 C3429 0.929 . S
H3399 C3387 0.930 . S
H3400 C3388 0.929 . S
H3401 C3430 0.930 . S
H3402 C3411 0.930 . S
N3403 Gd3372 2.661 . S
N3403 C3407 1.350 1_455 S
N3403 C3408 1.308 1_554 S
C3404 H3396 0.930 . S
C3404 C3405 1.355 . S
C3404 C3406 1.412 1_556 S
C3405 H3397 0.930 . S
C3405 C3404 1.355 . S
C3405 C3408 1.392 1_655 S
C3406 C3404 1.412 1_554 S
C3406 C3407 1.417 . S
C3406 C3430 1.431 . S
C3407 N3403 1.350 1_655 S
C3407 C3406 1.417 . S
C3407 C3410 1.426 . S
C3408 H3391 0.940 . S
C3408 N3403 1.308 1_556 S
C3408 C3405 1.392 1_455 S
N3409 Gd3372 2.601 . S
N3409 C3410 1.359 1_455 S
N3409 C3413 1.334 . S
C3410 C3407 1.426 . S
C3410 N3409 1.359 1_655 S
C3410 C3414 1.413 . S
C3411 H3402 0.930 . S
C3411 C3412 1.359 1_455 S
C3411 C3413 1.394 . S
C3412 C3411 1.359 1_655 S
C3412 C3414 1.391 . S
C3412 H3415 0.929 . S
C3413 H3395 0.930 . S
C3413 N3409 1.334 . S
C3413 C3411 1.394 . S
C3414 C3410 1.413 . S
C3414 C3412 1.391 . S
C3414 C3429 1.437 . S
H3415 C3412 0.929 . S
O3416 Gd3372 2.545 . S
O3416 C3431 1.258 1_455 S
O3417 Gd3372 2.606 . S
O3417 Gd3373 2.362 . S
O3417 C3428 1.284 . S
O3418 Gd3373 2.324 . S
O3418 C3438 1.254 . S
O3419 Gd3372 2.429 . S
O3419 C3438 1.268 . S
O3420 Gd3372 2.545 . S
O3420 C3428 1.250 . S
O3421 Gd3372 2.412 1_655 S
O3421 C3431 1.252 . S
O3422 Gd3373 2.545 1_556 S
O3422 C3440 1.258 . S
O3423 Gd3372 2.362 . S
O3423 Gd3373 2.606 . S
O3423 C3439 1.284 . S
O3424 Gd3372 2.324 1_556 S
O3424 C3447 1.254 . S
O3425 Gd3373 2.429 1_556 S
O3425 C3447 1.268 . S
O3426 Gd3373 2.545 . S
O3426 C3439 1.250 . S
O3427 Gd3373 2.412 . S
O3427 C3440 1.252 1_554 S
C3428 O3417 1.284 . S
C3428 O3420 1.250 . S
C3429 H3398 0.929 . S
C3429 C3414 1.437 . S
C3429 C3430 1.317 . S
C3430 H3401 0.930 . S
C3430 C3406 1.431 . S
C3430 C3429 1.317 . S
C3431 Gd3372 2.828 1_655 S
C3431 O3416 1.258 1_655 S
C3431 O3421 1.252 . S
C3431 C3432 1.497 . S
C3432 C3431 1.497 . S
C3432 C3433 1.395 . S
C3432 C3434 1.380 . S
C3433 C3432 1.395 . S
C3433 C3436 1.398 . S
C3433 H3448 0.930 . S
C3434 C3432 1.380 . S
C3434 C3435 1.391 . S
C3434 H3449 0.930 . S
C3435 C3434 1.391 . S
C3435 C3437 1.387 . S
C3436 C3433 1.398 . S
C3436 C3437 1.380 . S
C3436 H3450 0.930 . S
C3437 C3435 1.387 . S
C3437 C3436 1.380 . S
C3437 H3451 0.930 . S
C3438 O3418 1.254 . S
C3438 O3419 1.268 . S
C3439 O3423 1.284 . S
C3439 O3426 1.250 . S
C3440 Gd3373 2.828 1_556 S
C3440 O3422 1.258 . S
C3440 O3427 1.252 1_556 S
C3440 C3441 1.497 . S
C3441 C3440 1.497 . S
C3441 C3442 1.395 . S
C3441 C3443 1.380 1_556 S
C3442 C3441 1.395 . S
C3442 C3445 1.398 . S
C3442 H3452 0.930 . S
C3443 C3441 1.380 1_554 S
C3443 C3444 1.401 . S
C3443 H3453 0.930 . S
C3444 C3443 1.401 . S
C3444 C3446 1.334 1_554 S
C3445 C3442 1.398 . S
C3445 C3446 1.380 . S
C3445 H3454 0.930 . S
C3446 C3444 1.334 1_556 S
C3446 C3445 1.380 . S
C3446 H3455 0.930 . S
C3447 O3424 1.254 . S
C3447 O3425 1.268 . S
H3448 C3433 0.930 . S
H3449 C3434 0.930 . S
H3450 C3436 0.930 . S
H3451 C3437 0.930 . S
H3452 C3442 0.930 . S
H3453 C3443 0.930 . S
H3454 C3445 0.930 . S
H3455 C3446 0.930 . S
H3456 C3464 0.950 . S
H3457 C3469 0.952 1_655 S
H3458 C3466 0.950 . S
H3459 C3468 0.927 1_655 S
H3460 C3470 0.950 . S
H3461 C3472 0.950 . S
H3462 C3474 0.941 1_556 S
H3463 C3475 0.950 . S
C3464 H3456 0.950 . S
C3464 C3465 1.386 . S
C3464 C3466 1.391 . S
C3465 C3464 1.386 . S
C3465 C3469 1.393 . S
C3466 H3458 0.950 . S
C3466 C3464 1.391 . S
C3466 C3467 1.400 1_556 S
C3467 C3466 1.400 1_554 S
C3467 C3468 1.398 . S
C3467 C3473 1.491 . S
C3468 H3459 0.927 1_455 S
C3468 C3467 1.398 . S
C3468 C3469 1.391 1_554 S
C3469 H3457 0.952 1_455 S
C3469 C3465 1.393 . S
C3469 C3468 1.391 1_556 S
C3470 H3460 0.950 . S
C3470 C3471 1.386 . S
C3470 C3472 1.391 . S
C3471 C3470 1.386 . S
C3471 C3475 1.393 . S
C3472 H3461 0.950 . S
C3472 C3470 1.391 . S
C3472 C3473 1.400 . S
C3473 C3467 1.491 . S
C3473 C3472 1.400 . S
C3473 C3474 1.398 . S
C3474 H3462 0.941 1_554 S
C3474 C3473 1.398 . S
C3474 C3475 1.391 . S
C3475 H3463 0.950 . S
C3475 C3471 1.393 . S
C3475 C3474 1.391 . S
H3476 C3484 0.950 . S
H3477 C3489 0.950 . S
H3478 C3486 0.950 . S
H3479 C3488 0.950 . S
H3480 C3490 0.950 . S
H3481 C3492 0.950 . S
H3482 C3494 0.950 . S
H3483 C3495 0.950 . S
C3484 H3476 0.950 . S
C3484 C3485 1.386 . S
C3484 C3486 1.391 . S
C3485 C3484 1.386 . S
C3485 C3489 1.393 . S
C3486 H3478 0.950 . S
C3486 C3484 1.391 . S
C3486 C3487 1.400 . S
C3487 C3486 1.400 . S
C3487 C3488 1.398 . S
C3487 C3493 1.491 . S
C3488 H3479 0.950 . S
C3488 C3487 1.398 . S
C3488 C3489 1.391 . S
C3489 H3477 0.950 . S
C3489 C3485 1.393 . S
C3489 C3488 1.391 . S
C3490 H3480 0.950 . S
C3490 C3491 1.386 . S
C3490 C3492 1.391 . S
C3491 C3490 1.386 . S
C3491 C3495 1.393 . S
C3492 H3481 0.950 . S
C3492 C3490 1.391 . S
C3492 C3493 1.400 . S
C3493 C3487 1.491 . S
C3493 C3492 1.400 . S
C3493 C3494 1.398 . S
C3494 H3482 0.950 . S
C3494 C3493 1.398 . S
C3494 C3495 1.391 . S
C3495 H3483 0.950 . S
C3495 C3491 1.393 . S
C3495 C3494 1.391 . S
H3496 C3504 0.950 . S
H3497 C3509 0.950 . S
H3498 C3506 0.950 . S
H3499 C3508 0.950 . S
H3500 C3510 0.950 . S
H3501 C3512 0.950 . S
H3502 C3514 0.950 . S
H3503 C3515 0.950 . S
C3504 H3496 0.950 . S
C3504 C3505 1.386 . S
C3504 C3506 1.391 . S
C3505 C3504 1.386 . S
C3505 C3509 1.393 . S
C3506 H3498 0.950 . S
C3506 C3504 1.391 . S
C3506 C3507 1.400 . S
C3507 C3506 1.400 . S
C3507 C3508 1.398 . S
C3507 C3513 1.491 . S
C3508 H3499 0.950 . S
C3508 C3507 1.398 . S
C3508 C3509 1.391 . S
C3509 H3497 0.950 . S
C3509 C3505 1.393 . S
C3509 C3508 1.391 . S
C3510 H3500 0.950 . S
C3510 C3511 1.386 . S
C3510 C3512 1.391 . S
C3511 C3510 1.386 . S
C3511 C3515 1.393 . S
C3512 H3501 0.950 . S
C3512 C3510 1.391 . S
C3512 C3513 1.400 . S
C3513 C3507 1.491 . S
C3513 C3512 1.400 . S
C3513 C3514 1.398 . S
C3514 H3502 0.950 . S
C3514 C3513 1.398 . S
C3514 C3515 1.391 . S
C3515 H3503 0.950 . S
C3515 C3511 1.393 . S
C3515 C3514 1.391 . S
H3516 C3524 0.950 . S
H3517 C3529 0.950 . S
H3518 C3526 0.950 . S
H3519 C3528 0.950 . S
H3520 C3530 0.950 . S
H3521 C3532 0.950 . S
H3522 C3534 0.950 . S
H3523 C3535 0.950 . S
C3524 H3516 0.950 . S
C3524 C3525 1.386 . S
C3524 C3526 1.391 . S
C3525 C3524 1.386 . S
C3525 C3529 1.393 . S
C3526 H3518 0.950 . S
C3526 C3524 1.391 . S
C3526 C3527 1.400 . S
C3527 C3526 1.400 . S
C3527 C3528 1.398 . S
C3527 C3533 1.491 . S
C3528 H3519 0.950 . S
C3528 C3527 1.398 . S
C3528 C3529 1.391 . S
C3529 H3517 0.950 . S
C3529 C3525 1.393 . S
C3529 C3528 1.391 . S
C3530 H3520 0.950 . S
C3530 C3531 1.386 . S
C3530 C3532 1.391 . S
C3531 C3530 1.386 . S
C3531 C3535 1.393 . S
C3532 H3521 0.950 . S
C3532 C3530 1.391 . S
C3532 C3533 1.400 . S
C3533 C3527 1.491 . S
C3533 C3532 1.400 . S
C3533 C3534 1.398 . S
C3534 H3522 0.950 . S
C3534 C3533 1.398 . S
C3534 C3535 1.391 . S
C3535 H3523 0.950 . S
C3535 C3531 1.393 . S
C3535 C3534 1.391 . S
H3536 C3544 0.950 . S
H3537 C3549 0.950 . S
H3538 C3546 0.950 . S
H3539 C3548 0.950 1_655 S
H3540 C3550 0.950 . S
H3541 C3552 0.950 . S
H3542 C3554 0.950 . S
H3543 C3555 0.950 . S
C3544 H3536 0.950 . S
C3544 C3545 1.386 . S
C3544 C3546 1.391 . S
C3545 C3544 1.386 . S
C3545 C3549 1.393 1_455 S
C3546 H3538 0.950 . S
C3546 C3544 1.391 . S
C3546 C3547 1.400 . S
C3547 C3546 1.400 . S
C3547 C3548 1.398 . S
C3547 C3553 1.491 . S
C3548 H3539 0.950 1_455 S
C3548 C3547 1.398 . S
C3548 C3549 1.391 1_455 S
C3549 H3537 0.950 . S
C3549 C3545 1.393 1_655 S
C3549 C3548 1.391 1_655 S
C3550 H3540 0.950 . S
C3550 C3551 1.386 . S
C3550 C3552 1.391 . S
C3551 C3550 1.386 . S
C3551 C3555 1.393 . S
C3552 H3541 0.950 . S
C3552 C3550 1.391 . S
C3552 C3553 1.400 . S
C3553 C3547 1.491 . S
C3553 C3552 1.400 . S
C3553 C3554 1.398 . S
C3554 H3542 0.950 . S
C3554 C3553 1.398 . S
C3554 C3555 1.391 . S
C3555 H3543 0.950 . S
C3555 C3551 1.393 . S
C3555 C3554 1.391 . S
H3556 C3564 0.950 . S
H3557 C3569 0.950 . S
H3558 C3566 0.950 . S
H3559 C3568 0.950 . S
H3560 C3570 0.950 . S
H3561 C3572 0.950 . S
H3562 C3574 0.950 . S
H3563 C3575 0.950 . S
C3564 H3556 0.950 . S
C3564 C3565 1.386 . S
C3564 C3566 1.391 . S
C3565 C3564 1.386 . S
C3565 C3569 1.393 . S
C3566 H3558 0.950 . S
C3566 C3564 1.391 . S
C3566 C3567 1.400 . S
C3567 C3566 1.400 . S
C3567 C3568 1.398 . S
C3567 C3573 1.491 . S
C3568 H3559 0.950 . S
C3568 C3567 1.398 . S
C3568 C3569 1.391 . S
C3569 H3557 0.950 . S
C3569 C3565 1.393 . S
C3569 C3568 1.391 . S
C3570 H3560 0.950 . S
C3570 C3571 1.386 . S
C3570 C3572 1.391 . S
C3571 C3570 1.386 . S
C3571 C3575 1.393 . S
C3572 H3561 0.950 . S
C3572 C3570 1.391 . S
C3572 C3573 1.400 . S
C3573 C3567 1.491 . S
C3573 C3572 1.400 . S
C3573 C3574 1.398 . S
C3574 H3562 0.950 . S
C3574 C3573 1.398 . S
C3574 C3575 1.391 . S
C3575 H3563 0.950 . S
C3575 C3571 1.393 . S
C3575 C3574 1.391 . S
H3576 C3584 0.950 . S
H3577 C3589 0.950 . S
H3578 C3586 0.950 . S
H3579 C3588 0.950 . S
H3580 C3590 0.950 . S
H3581 C3592 0.950 . S
H3582 C3594 0.950 . S
H3583 C3595 0.950 . S
C3584 H3576 0.950 . S
C3584 C3585 1.386 . S
C3584 C3586 1.391 . S
C3585 C3584 1.386 . S
C3585 C3589 1.393 . S
C3586 H3578 0.950 . S
C3586 C3584 1.391 . S
C3586 C3587 1.400 . S
C3587 C3586 1.400 . S
C3587 C3588 1.398 . S
C3587 C3593 1.491 . S
C3588 H3579 0.950 . S
C3588 C3587 1.398 . S
C3588 C3589 1.391 . S
C3589 H3577 0.950 . S
C3589 C3585 1.393 . S
C3589 C3588 1.391 . S
C3590 H3580 0.950 . S
C3590 C3591 1.386 . S
C3590 C3592 1.391 . S
C3591 C3590 1.386 . S
C3591 C3595 1.393 . S
C3592 H3581 0.950 . S
C3592 C3590 1.391 . S
C3592 C3593 1.400 . S
C3593 C3587 1.491 . S
C3593 C3592 1.400 . S
C3593 C3594 1.398 . S
C3594 H3582 0.950 . S
C3594 C3593 1.398 . S
C3594 C3595 1.391 . S
C3595 H3583 0.950 . S
C3595 C3591 1.393 . S
C3595 C3594 1.391 . S
H3596 C3604 0.950 . S
H3597 C3609 0.950 . S
H3598 C3606 0.950 . S
H3599 C3608 0.950 . S
H3600 C3610 0.950 . S
H3601 C3612 0.950 . S
H3602 C3614 0.950 . S
H3603 C3615 0.950 . S
C3604 H3596 0.950 . S
C3604 C3605 1.386 . S
C3604 C3606 1.391 . S
C3605 C3604 1.386 . S
C3605 C3609 1.393 . S
C3606 H3598 0.950 . S
C3606 C3604 1.391 . S
C3606 C3607 1.400 . S
C3607 C3606 1.400 . S
C3607 C3608 1.398 . S
C3607 C3613 1.491 . S
C3608 H3599 0.950 . S
C3608 C3607 1.398 . S
C3608 C3609 1.391 . S
C3609 H3597 0.950 . S
C3609 C3605 1.393 . S
C3609 C3608 1.391 . S
C3610 H3600 0.950 . S
C3610 C3611 1.386 . S
C3610 C3612 1.391 . S
C3611 C3610 1.386 . S
C3611 C3615 1.393 . S
C3612 H3601 0.950 . S
C3612 C3610 1.391 . S
C3612 C3613 1.400 . S
C3613 C3607 1.491 . S
C3613 C3612 1.400 . S
C3613 C3614 1.398 . S
C3614 H3602 0.950 . S
C3614 C3613 1.398 . S
C3614 C3615 1.391 . S
C3615 H3603 0.950 . S
C3615 C3611 1.393 . S
C3615 C3614 1.391 . S
H3616 C3624 0.950 1_655 S
H3617 C3629 0.950 . S
H3618 C3626 0.950 . S
H3619 C3628 0.950 . S
H3620 C3630 0.950 . S
H3621 C3632 0.950 . S
H3622 C3634 0.950 . S
H3623 C3635 0.950 . S
C3624 H3616 0.950 1_455 S
C3624 C3625 1.385 . S
C3624 C3626 1.391 . S
C3625 C3624 1.385 . S
C3625 C3629 1.396 . S
C3626 H3618 0.950 . S
C3626 C3624 1.391 . S
C3626 C3627 1.400 . S
C3627 C3626 1.400 . S
C3627 C3628 1.398 . S
C3627 C3633 1.491 . S
C3628 H3619 0.950 . S
C3628 C3627 1.398 . S
C3628 C3629 1.391 . S
C3629 H3617 0.950 . S
C3629 C3625 1.396 . S
C3629 C3628 1.391 . S
C3630 H3620 0.950 . S
C3630 C3631 1.386 . S
C3630 C3632 1.391 . S
C3631 C3630 1.386 . S
C3631 C3635 1.393 . S
C3632 H3621 0.950 . S
C3632 C3630 1.391 . S
C3632 C3633 1.400 . S
C3633 C3627 1.491 . S
C3633 C3632 1.400 . S
C3633 C3634 1.398 . S
C3634 H3622 0.950 . S
C3634 C3633 1.398 . S
C3634 C3635 1.391 . S
C3635 H3623 0.950 . S
C3635 C3631 1.393 . S
C3635 C3634 1.391 . S
H3636 C3644 0.950 . S
H3637 C3649 0.950 . S
H3638 C3646 0.950 . S
H3639 C3648 0.950 . S
H3640 C3650 0.950 . S
H3641 C3652 0.950 . S
H3642 C3654 0.950 . S
H3643 C3655 0.950 . S
C3644 H3636 0.950 . S
C3644 C3645 1.386 . S
C3644 C3646 1.391 . S
C3645 C3644 1.386 . S
C3645 C3649 1.393 . S
C3646 H3638 0.950 . S
C3646 C3644 1.391 . S
C3646 C3647 1.400 . S
C3647 C3646 1.400 . S
C3647 C3648 1.398 . S
C3647 C3653 1.491 . S
C3648 H3639 0.950 . S
C3648 C3647 1.398 . S
C3648 C3649 1.391 . S
C3649 H3637 0.950 . S
C3649 C3645 1.393 . S
C3649 C3648 1.391 . S
C3650 H3640 0.950 . S
C3650 C3651 1.386 . S
C3650 C3652 1.391 . S
C3651 C3650 1.386 . S
C3651 C3655 1.393 . S
C3652 H3641 0.950 . S
C3652 C3650 1.391 . S
C3652 C3653 1.400 . S
C3653 C3647 1.491 . S
C3653 C3652 1.400 . S
C3653 C3654 1.398 . S
C3654 H3642 0.950 . S
C3654 C3653 1.398 . S
C3654 C3655 1.391 . S
C3655 H3643 0.950 . S
C3655 C3651 1.393 . S
C3655 C3654 1.391 . S
H3656 C3664 0.950 . S
H3657 C3669 0.950 . S
H3658 C3666 0.950 . S
H3659 C3668 0.950 . S
H3660 C3670 0.950 . S
H3661 C3672 0.950 . S
H3662 C3674 0.950 . S
H3663 C3675 0.950 . S
C3664 H3656 0.950 . S
C3664 C3665 1.386 . S
C3664 C3666 1.391 . S
C3665 C3664 1.386 . S
C3665 C3669 1.393 . S
C3666 H3658 0.950 . S
C3666 C3664 1.391 . S
C3666 C3667 1.400 . S
C3667 C3666 1.400 . S
C3667 C3668 1.398 . S
C3667 C3673 1.491 . S
C3668 H3659 0.950 . S
C3668 C3667 1.398 . S
C3668 C3669 1.391 . S
C3669 H3657 0.950 . S
C3669 C3665 1.393 . S
C3669 C3668 1.391 . S
C3670 H3660 0.950 . S
C3670 C3671 1.386 . S
C3670 C3672 1.391 . S
C3671 C3670 1.386 . S
C3671 C3675 1.393 . S
C3672 H3661 0.950 . S
C3672 C3670 1.391 . S
C3672 C3673 1.400 . S
C3673 C3667 1.491 . S
C3673 C3672 1.400 . S
C3673 C3674 1.398 . S
C3674 H3662 0.950 . S
C3674 C3673 1.398 . S
C3674 C3675 1.391 . S
C3675 H3663 0.950 . S
C3675 C3671 1.393 . S
C3675 C3674 1.391 . S
H3676 C3684 0.950 . S
H3677 C3689 0.950 . S
H3678 C3686 0.950 . S
H3679 C3688 0.950 . S
H3680 C3690 0.950 . S
H3681 C3692 0.950 . S
H3682 C3694 0.950 . S
H3683 C3695 0.950 . S
C3684 H3676 0.950 . S
C3684 C3685 1.386 . S
C3684 C3686 1.391 . S
C3685 C3684 1.386 . S
C3685 C3689 1.393 . S
C3686 H3678 0.950 . S
C3686 C3684 1.391 . S
C3686 C3687 1.400 . S
C3687 C3686 1.400 . S
C3687 C3688 1.398 . S
C3687 C3693 1.491 . S
C3688 H3679 0.950 . S
C3688 C3687 1.398 . S
C3688 C3689 1.391 . S
C3689 H3677 0.950 . S
C3689 C3685 1.393 . S
C3689 C3688 1.391 . S
C3690 H3680 0.950 . S
C3690 C3691 1.386 . S
C3690 C3692 1.391 . S
C3691 C3690 1.386 . S
C3691 C3695 1.393 . S
C3692 H3681 0.950 . S
C3692 C3690 1.391 . S
C3692 C3693 1.400 . S
C3693 C3687 1.491 . S
C3693 C3692 1.400 . S
C3693 C3694 1.398 . S
C3694 H3682 0.950 . S
C3694 C3693 1.398 . S
C3694 C3695 1.391 . S
C3695 H3683 0.950 . S
C3695 C3691 1.393 . S
C3695 C3694 1.391 . S
H3696 C3704 0.950 . S
H3697 C3709 0.950 . S
H3698 C3706 0.950 . S
H3699 C3708 0.950 . S
H3700 C3710 0.950 . S
H3701 C3712 0.950 . S
H3702 C3714 0.950 . S
H3703 C3715 0.950 . S
C3704 H3696 0.950 . S
C3704 C3705 1.386 . S
C3704 C3706 1.391 . S
C3705 C3704 1.386 . S
C3705 C3709 1.393 . S
C3706 H3698 0.950 . S
C3706 C3704 1.391 . S
C3706 C3707 1.400 . S
C3707 C3706 1.400 . S
C3707 C3708 1.398 . S
C3707 C3713 1.491 . S
C3708 H3699 0.950 . S
C3708 C3707 1.398 . S
C3708 C3709 1.391 . S
C3709 H3697 0.950 . S
C3709 C3705 1.393 . S
C3709 C3708 1.391 . S
C3710 H3700 0.950 . S
C3710 C3711 1.386 . S
C3710 C3712 1.391 . S
C3711 C3710 1.386 . S
C3711 C3715 1.393 . S
C3712 H3701 0.950 . S
C3712 C3710 1.391 . S
C3712 C3713 1.400 . S
C3713 C3707 1.491 . S
C3713 C3712 1.400 . S
C3713 C3714 1.398 . S
C3714 H3702 0.950 . S
C3714 C3713 1.398 . S
C3714 C3715 1.391 . S
C3715 H3703 0.950 . S
C3715 C3711 1.393 . S
C3715 C3714 1.391 . S
H3716 C3724 0.950 . S
H3717 C3729 0.950 . S
H3718 C3726 0.950 . S
H3719 C3728 0.950 . S
H3720 C3730 0.950 . S
H3721 C3732 0.950 . S
H3722 C3734 0.950 . S
H3723 C3735 0.950 . S
C3724 H3716 0.950 . S
C3724 C3725 1.386 . S
C3724 C3726 1.391 . S
C3725 C3724 1.386 . S
C3725 C3729 1.393 . S
C3726 H3718 0.950 . S
C3726 C3724 1.391 . S
C3726 C3727 1.400 . S
C3727 C3726 1.400 . S
C3727 C3728 1.398 . S
C3727 C3733 1.491 . S
C3728 H3719 0.950 . S
C3728 C3727 1.398 . S
C3728 C3729 1.391 . S
C3729 H3717 0.950 . S
C3729 C3725 1.393 . S
C3729 C3728 1.391 . S
C3730 H3720 0.950 . S
C3730 C3731 1.386 . S
C3730 C3732 1.391 . S
C3731 C3730 1.386 . S
C3731 C3735 1.393 . S
C3732 H3721 0.950 . S
C3732 C3730 1.391 . S
C3732 C3733 1.400 . S
C3733 C3727 1.491 . S
C3733 C3732 1.400 . S
C3733 C3734 1.398 . S
C3734 H3722 0.950 . S
C3734 C3733 1.398 . S
C3734 C3735 1.391 . S
C3735 H3723 0.950 . S
C3735 C3731 1.393 . S
C3735 C3734 1.391 . S
H3736 C3744 0.950 . S
H3737 C3749 0.950 . S
H3738 C3746 0.950 . S
H3739 C3748 0.950 . S
H3740 C3750 0.950 . S
H3741 C3752 0.950 . S
H3742 C3754 0.950 . S
H3743 C3755 0.950 . S
C3744 H3736 0.950 . S
C3744 C3745 1.386 . S
C3744 C3746 1.391 . S
C3745 C3744 1.386 . S
C3745 C3749 1.393 . S
C3746 H3738 0.950 . S
C3746 C3744 1.391 . S
C3746 C3747 1.400 . S
C3747 C3746 1.400 . S
C3747 C3748 1.398 . S
C3747 C3753 1.491 . S
C3748 H3739 0.950 . S
C3748 C3747 1.398 . S
C3748 C3749 1.391 . S
C3749 H3737 0.950 . S
C3749 C3745 1.393 . S
C3749 C3748 1.391 . S
C3750 H3740 0.950 . S
C3750 C3751 1.386 . S
C3750 C3752 1.391 . S
C3751 C3750 1.386 . S
C3751 C3755 1.393 . S
C3752 H3741 0.950 . S
C3752 C3750 1.391 . S
C3752 C3753 1.400 . S
C3753 C3747 1.491 . S
C3753 C3752 1.400 . S
C3753 C3754 1.398 . S
C3754 H3742 0.950 . S
C3754 C3753 1.398 . S
C3754 C3755 1.391 . S
C3755 H3743 0.950 . S
C3755 C3751 1.393 . S
C3755 C3754 1.391 . S
H3756 C3764 0.950 . S
H3757 C3769 0.950 . S
H3758 C3766 0.950 . S
H3759 C3768 0.950 . S
H3760 C3770 0.950 . S
H3761 C3772 0.950 . S
H3762 C3774 0.950 . S
H3763 C3775 0.950 . S
C3764 H3756 0.950 . S
C3764 C3765 1.386 . S
C3764 C3766 1.391 . S
C3765 C3764 1.386 . S
C3765 C3769 1.393 . S
C3766 H3758 0.950 . S
C3766 C3764 1.391 . S
C3766 C3767 1.400 . S
C3767 C3766 1.400 . S
C3767 C3768 1.398 . S
C3767 C3773 1.491 . S
C3768 H3759 0.950 . S
C3768 C3767 1.398 . S
C3768 C3769 1.391 . S
C3769 H3757 0.950 . S
C3769 C3765 1.393 . S
C3769 C3768 1.391 . S
C3770 H3760 0.950 . S
C3770 C3771 1.386 . S
C3770 C3772 1.391 . S
C3771 C3770 1.386 . S
C3771 C3775 1.393 . S
C3772 H3761 0.950 . S
C3772 C3770 1.391 . S
C3772 C3773 1.400 . S
C3773 C3767 1.491 . S
C3773 C3772 1.400 . S
C3773 C3774 1.398 . S
C3774 H3762 0.950 . S
C3774 C3773 1.398 . S
C3774 C3775 1.391 . S
C3775 H3763 0.950 . S
C3775 C3771 1.393 . S
C3775 C3774 1.391 . S
H3776 C3784 0.950 . S
H3777 C3789 0.950 . S
H3778 C3786 0.950 . S
H3779 C3788 0.950 . S
H3780 C3790 0.950 . S
H3781 C3792 0.950 . S
H3782 C3794 0.950 . S
H3783 C3795 0.950 . S
C3784 H3776 0.950 . S
C3784 C3785 1.386 . S
C3784 C3786 1.391 . S
C3785 C3784 1.386 . S
C3785 C3789 1.393 1_565 S
C3786 H3778 0.950 . S
C3786 C3784 1.391 . S
C3786 C3787 1.400 . S
C3787 C3786 1.400 . S
C3787 C3788 1.398 1_565 S
C3787 C3793 1.483 1_565 S
C3788 H3779 0.950 . S
C3788 C3787 1.398 1_545 S
C3788 C3789 1.391 . S
C3789 H3777 0.950 . S
C3789 C3785 1.393 1_545 S
C3789 C3788 1.391 . S
C3790 H3780 0.950 . S
C3790 C3791 1.386 . S
C3790 C3792 1.391 . S
C3791 C3790 1.386 . S
C3791 C3795 1.393 1_545 S
C3792 H3781 0.950 . S
C3792 C3790 1.391 . S
C3792 C3793 1.416 . S
C3793 C3787 1.483 1_545 S
C3793 C3792 1.416 . S
C3793 C3794 1.390 1_545 S
C3794 H3782 0.950 . S
C3794 C3793 1.390 1_565 S
C3794 C3795 1.391 . S
C3795 H3783 0.950 . S
C3795 C3791 1.393 1_565 S
C3795 C3794 1.391 . S
H3796 C3804 0.950 . S
H3797 C3809 0.950 . S
H3798 C3806 0.950 . S
H3799 C3808 0.950 . S
H3800 C3810 0.950 . S
H3801 C3812 0.950 . S
H3802 C3814 0.950 . S
H3803 C3815 0.950 . S
C3804 H3796 0.950 . S
C3804 C3805 1.386 1_554 S
C3804 C3806 1.391 . S
C3805 C3804 1.386 1_556 S
C3805 C3809 1.393 . S
C3806 H3798 0.950 . S
C3806 C3804 1.391 . S
C3806 C3807 1.400 1_554 S
C3807 C3806 1.400 1_556 S
C3807 C3808 1.398 . S
C3807 C3813 1.491 . S
C3808 H3799 0.950 . S
C3808 C3807 1.398 . S
C3808 C3809 1.391 . S
C3809 H3797 0.950 . S
C3809 C3805 1.393 . S
C3809 C3808 1.391 . S
C3810 H3800 0.950 . S
C3810 C3811 1.386 1_556 S
C3810 C3812 1.391 . S
C3811 C3810 1.386 1_554 S
C3811 C3815 1.393 . S
C3812 H3801 0.950 . S
C3812 C3810 1.391 . S
C3812 C3813 1.400 . S
C3813 C3807 1.491 . S
C3813 C3812 1.400 . S
C3813 C3814 1.398 1_556 S
C3814 H3802 0.950 . S
C3814 C3813 1.398 1_554 S
C3814 C3815 1.391 . S
C3815 H3803 0.950 . S
C3815 C3811 1.393 . S
C3815 C3814 1.391 . S
H3816 C3824 0.950 . S
H3817 C3829 0.950 . S
H3818 C3826 0.950 . S
H3819 C3828 0.950 . S
H3820 C3830 0.950 . S
H3821 C3832 0.950 . S
H3822 C3834 0.950 . S
H3823 C3835 0.950 . S
C3824 H3816 0.950 . S
C3824 C3825 1.386 . S
C3824 C3826 1.391 . S
C3825 C3824 1.386 . S
C3825 C3829 1.393 . S
C3826 H3818 0.950 . S
C3826 C3824 1.391 . S
C3826 C3827 1.400 . S
C3827 C3826 1.400 . S
C3827 C3828 1.398 . S
C3827 C3833 1.491 . S
C3828 H3819 0.950 . S
C3828 C3827 1.398 . S
C3828 C3829 1.391 . S
C3829 H3817 0.950 . S
C3829 C3825 1.393 . S
C3829 C3828 1.391 . S
C3830 H3820 0.950 . S
C3830 C3831 1.386 . S
C3830 C3832 1.391 . S
C3831 C3830 1.386 . S
C3831 C3835 1.393 . S
C3832 H3821 0.950 . S
C3832 C3830 1.391 . S
C3832 C3833 1.400 . S
C3833 C3827 1.491 . S
C3833 C3832 1.400 . S
C3833 C3834 1.398 . S
C3834 H3822 0.950 . S
C3834 C3833 1.398 . S
C3834 C3835 1.391 . S
C3835 H3823 0.950 . S
C3835 C3831 1.393 . S
C3835 C3834 1.391 . S
H3836 C3844 0.950 . S
H3837 C3849 0.950 . S
H3838 C3846 0.950 . S
H3839 C3848 0.950 . S
H3840 C3850 0.950 . S
H3841 C3852 0.950 . S
H3842 C3854 0.950 . S
H3843 C3855 0.950 . S
C3844 H3836 0.950 . S
C3844 C3845 1.386 . S
C3844 C3846 1.391 . S
C3845 C3844 1.386 . S
C3845 C3849 1.393 . S
C3846 H3838 0.950 . S
C3846 C3844 1.391 . S
C3846 C3847 1.400 . S
C3847 C3846 1.400 . S
C3847 C3848 1.398 . S
C3847 C3853 1.491 . S
C3848 H3839 0.950 . S
C3848 C3847 1.398 . S
C3848 C3849 1.391 . S
C3849 H3837 0.950 . S
C3849 C3845 1.393 . S
C3849 C3848 1.391 . S
C3850 H3840 0.950 . S
C3850 C3851 1.387 . S
C3850 C3852 1.389 1_455 S
C3851 C3850 1.387 . S
C3851 C3855 1.393 . S
C3852 H3841 0.950 . S
C3852 C3850 1.389 1_655 S
C3852 C3853 1.400 . S
C3853 C3847 1.491 . S
C3853 C3852 1.400 . S
C3853 C3854 1.398 . S
C3854 H3842 0.950 . S
C3854 C3853 1.398 . S
C3854 C3855 1.391 1_655 S
C3855 H3843 0.950 . S
C3855 C3851 1.393 . S
C3855 C3854 1.391 1_455 S
H3856 C3864 0.950 . S
H3857 C3869 0.950 . S
H3858 C3866 0.950 . S
H3859 C3868 0.950 . S
H3860 C3870 0.950 . S
H3861 C3872 0.950 . S
H3862 C3874 0.950 . S
H3863 C3875 0.950 . S
C3864 H3856 0.950 . S
C3864 C3865 1.386 . S
C3864 C3866 1.391 . S
C3865 C3864 1.386 . S
C3865 C3869 1.393 . S
C3866 H3858 0.950 . S
C3866 C3864 1.391 . S
C3866 C3867 1.400 . S
C3867 C3866 1.400 . S
C3867 C3868 1.398 . S
C3867 C3873 1.491 . S
C3868 H3859 0.950 . S
C3868 C3867 1.398 . S
C3868 C3869 1.391 . S
C3869 H3857 0.950 . S
C3869 C3865 1.393 . S
C3869 C3868 1.391 . S
C3870 H3860 0.950 . S
C3870 C3871 1.386 . S
C3870 C3872 1.391 . S
C3871 C3870 1.386 . S
C3871 C3875 1.393 . S
C3872 H3861 0.950 . S
C3872 C3870 1.391 . S
C3872 C3873 1.400 . S
C3873 C3867 1.491 . S
C3873 C3872 1.400 . S
C3873 C3874 1.398 . S
C3874 H3862 0.950 . S
C3874 C3873 1.398 . S
C3874 C3875 1.391 . S
C3875 H3863 0.950 . S
C3875 C3871 1.393 . S
C3875 C3874 1.391 . S
H3876 C3884 0.950 . S
H3877 C3889 0.950 . S
H3878 C3886 0.950 . S
H3879 C3888 0.950 . S
H3880 C3890 0.950 . S
H3881 C3892 0.950 . S
H3882 C3894 0.950 . S
H3883 C3895 0.950 . S
C3884 H3876 0.950 . S
C3884 C3885 1.386 . S
C3884 C3886 1.391 . S
C3885 C3884 1.386 . S
C3885 C3889 1.393 . S
C3886 H3878 0.950 . S
C3886 C3884 1.391 . S
C3886 C3887 1.400 . S
C3887 C3886 1.400 . S
C3887 C3888 1.398 . S
C3887 C3893 1.491 . S
C3888 H3879 0.950 . S
C3888 C3887 1.398 . S
C3888 C3889 1.391 . S
C3889 H3877 0.950 . S
C3889 C3885 1.393 . S
C3889 C3888 1.391 . S
C3890 H3880 0.950 . S
C3890 C3891 1.386 . S
C3890 C3892 1.391 . S
C3891 C3890 1.386 . S
C3891 C3895 1.393 . S
C3892 H3881 0.950 . S
C3892 C3890 1.391 . S
C3892 C3893 1.400 . S
C3893 C3887 1.491 . S
C3893 C3892 1.400 . S
C3893 C3894 1.398 . S
C3894 H3882 0.950 . S
C3894 C3893 1.398 . S
C3894 C3895 1.391 . S
C3895 H3883 0.950 . S
C3895 C3891 1.393 . S
C3895 C3894 1.391 . S
H3896 C3904 0.950 . S
H3897 C3909 0.950 . S
H3898 C3906 0.950 . S
H3899 C3908 0.950 . S
H3900 C3910 0.950 . S
H3901 C3912 0.950 . S
H3902 C3914 0.950 . S
H3903 C3915 0.950 . S
C3904 H3896 0.950 . S
C3904 C3905 1.386 . S
C3904 C3906 1.391 . S
C3905 C3904 1.386 . S
C3905 C3909 1.393 . S
C3906 H3898 0.950 . S
C3906 C3904 1.391 . S
C3906 C3907 1.400 . S
C3907 C3906 1.400 . S
C3907 C3908 1.398 . S
C3907 C3913 1.491 . S
C3908 H3899 0.950 . S
C3908 C3907 1.398 . S
C3908 C3909 1.391 . S
C3909 H3897 0.950 . S
C3909 C3905 1.393 . S
C3909 C3908 1.391 . S
C3910 H3900 0.950 . S
C3910 C3911 1.386 . S
C3910 C3912 1.391 . S
C3911 C3910 1.386 . S
C3911 C3915 1.393 . S
C3912 H3901 0.950 . S
C3912 C3910 1.391 . S
C3912 C3913 1.400 . S
C3913 C3907 1.491 . S
C3913 C3912 1.400 . S
C3913 C3914 1.398 . S
C3914 H3902 0.950 . S
C3914 C3913 1.398 . S
C3914 C3915 1.391 . S
C3915 H3903 0.950 . S
C3915 C3911 1.393 . S
C3915 C3914 1.391 . S
H3916 C3924 0.950 . S
H3917 C3929 0.950 . S
H3918 C3926 0.950 . S
H3919 C3928 0.950 . S
H3920 C3930 0.950 . S
H3921 C3932 0.950 . S
H3922 C3934 0.950 . S
H3923 C3935 0.950 . S
C3924 H3916 0.950 . S
C3924 C3925 1.386 . S
C3924 C3926 1.391 . S
C3925 C3924 1.386 . S
C3925 C3929 1.393 . S
C3926 H3918 0.950 . S
C3926 C3924 1.391 . S
C3926 C3927 1.400 . S
C3927 C3926 1.400 . S
C3927 C3928 1.398 . S
C3927 C3933 1.491 . S
C3928 H3919 0.950 . S
C3928 C3927 1.398 . S
C3928 C3929 1.391 . S
C3929 H3917 0.950 . S
C3929 C3925 1.393 . S
C3929 C3928 1.391 . S
C3930 H3920 0.950 . S
C3930 C3931 1.386 . S
C3930 C3932 1.391 . S
C3931 C3930 1.386 . S
C3931 C3935 1.393 . S
C3932 H3921 0.950 . S
C3932 C3930 1.391 . S
C3932 C3933 1.400 . S
C3933 C3927 1.491 . S
C3933 C3932 1.400 . S
C3933 C3934 1.398 . S
C3934 H3922 0.950 . S
C3934 C3933 1.398 . S
C3934 C3935 1.391 . S
C3935 H3923 0.950 . S
C3935 C3931 1.393 . S
C3935 C3934 1.391 . S
H3936 C3944 0.950 . S
H3937 C3949 0.950 . S
H3938 C3946 0.950 . S
H3939 C3948 0.950 . S
H3940 C3950 0.950 . S
H3941 C3952 0.950 . S
H3942 C3954 0.950 . S
H3943 C3955 0.950 . S
C3944 H3936 0.950 . S
C3944 C3945 1.386 . S
C3944 C3946 1.391 . S
C3945 C3944 1.386 . S
C3945 C3949 1.393 . S
C3946 H3938 0.950 . S
C3946 C3944 1.391 . S
C3946 C3947 1.400 . S
C3947 C3946 1.400 . S
C3947 C3948 1.398 . S
C3947 C3953 1.491 . S
C3948 H3939 0.950 . S
C3948 C3947 1.398 . S
C3948 C3949 1.391 . S
C3949 H3937 0.950 . S
C3949 C3945 1.393 . S
C3949 C3948 1.391 . S
C3950 H3940 0.950 . S
C3950 C3951 1.386 . S
C3950 C3952 1.391 . S
C3951 C3950 1.386 . S
C3951 C3955 1.393 . S
C3952 H3941 0.950 . S
C3952 C3950 1.391 . S
C3952 C3953 1.400 . S
C3953 C3947 1.491 . S
C3953 C3952 1.400 . S
C3953 C3954 1.398 . S
C3954 H3942 0.950 . S
C3954 C3953 1.398 . S
C3954 C3955 1.391 . S
C3955 H3943 0.950 . S
C3955 C3951 1.393 . S
C3955 C3954 1.391 . S
H3956 C3964 0.950 . S
H3957 C3969 0.950 . S
H3958 C3966 0.950 . S
H3959 C3968 0.950 . S
H3960 C3970 0.950 . S
H3961 C3972 0.950 . S
H3962 C3974 0.950 . S
H3963 C3975 0.950 . S
C3964 H3956 0.950 . S
C3964 C3965 1.386 . S
C3964 C3966 1.391 . S
C3965 C3964 1.386 . S
C3965 C3969 1.393 . S
C3966 H3958 0.950 . S
C3966 C3964 1.391 . S
C3966 C3967 1.400 . S
C3967 C3966 1.400 . S
C3967 C3968 1.398 . S
C3967 C3973 1.491 . S
C3968 H3959 0.950 . S
C3968 C3967 1.398 . S
C3968 C3969 1.391 . S
C3969 H3957 0.950 . S
C3969 C3965 1.393 . S
C3969 C3968 1.391 . S
C3970 H3960 0.950 . S
C3970 C3971 1.386 . S
C3970 C3972 1.391 . S
C3971 C3970 1.386 . S
C3971 C3975 1.393 . S
C3972 H3961 0.950 . S
C3972 C3970 1.391 . S
C3972 C3973 1.400 . S
C3973 C3967 1.491 . S
C3973 C3972 1.400 . S
C3973 C3974 1.398 . S
C3974 H3962 0.950 . S
C3974 C3973 1.398 . S
C3974 C3975 1.391 . S
C3975 H3963 0.950 . S
C3975 C3971 1.393 . S
C3975 C3974 1.391 . S
H3976 C3984 0.950 . S
H3977 C3989 0.950 . S
H3978 C3986 0.950 . S
H3979 C3988 0.950 . S
H3980 C3990 0.950 . S
H3981 C3992 0.950 . S
H3982 C3994 0.950 . S
H3983 C3995 0.950 . S
C3984 H3976 0.950 . S
C3984 C3985 1.386 . S
C3984 C3986 1.391 . S
C3985 C3984 1.386 . S
C3985 C3989 1.393 . S
C3986 H3978 0.950 . S
C3986 C3984 1.391 . S
C3986 C3987 1.400 . S
C3987 C3986 1.400 . S
C3987 C3988 1.398 . S
C3987 C3993 1.491 . S
C3988 H3979 0.950 . S
C3988 C3987 1.398 . S
C3988 C3989 1.391 . S
C3989 H3977 0.950 . S
C3989 C3985 1.393 . S
C3989 C3988 1.391 . S
C3990 H3980 0.950 . S
C3990 C3991 1.386 . S
C3990 C3992 1.391 . S
C3991 C3990 1.386 . S
C3991 C3995 1.393 . S
C3992 H3981 0.950 . S
C3992 C3990 1.391 . S
C3992 C3993 1.400 . S
C3993 C3987 1.491 . S
C3993 C3992 1.400 . S
C3993 C3994 1.398 . S
C3994 H3982 0.950 . S
C3994 C3993 1.398 . S
C3994 C3995 1.391 . S
C3995 H3983 0.950 . S
C3995 C3991 1.393 . S
C3995 C3994 1.391 . S
H3996 C4004 0.950 . S
H3997 C4009 0.950 . S
H3998 C4006 0.950 . S
H3999 C4008 0.950 . S
H4000 C4010 0.950 . S
H4001 C4012 0.950 . S
H4002 C4014 0.950 . S
H4003 C4015 0.950 . S
C4004 H3996 0.950 . S
C4004 C4005 1.386 . S
C4004 C4006 1.391 . S
C4005 C4004 1.386 . S
C4005 C4009 1.393 . S
C4006 H3998 0.950 . S
C4006 C4004 1.391 . S
C4006 C4007 1.400 . S
C4007 C4006 1.400 . S
C4007 C4008 1.398 . S
C4007 C4013 1.491 . S
C4008 H3999 0.950 . S
C4008 C4007 1.398 . S
C4008 C4009 1.391 . S
C4009 H3997 0.950 . S
C4009 C4005 1.393 . S
C4009 C4008 1.391 . S
C4010 H4000 0.950 . S
C4010 C4011 1.386 . S
C4010 C4012 1.391 . S
C4011 C4010 1.386 . S
C4011 C4015 1.393 . S
C4012 H4001 0.950 . S
C4012 C4010 1.391 . S
C4012 C4013 1.400 . S
C4013 C4007 1.491 . S
C4013 C4012 1.400 . S
C4013 C4014 1.398 . S
C4014 H4002 0.950 . S
C4014 C4013 1.398 . S
C4014 C4015 1.391 . S
C4015 H4003 0.950 . S
C4015 C4011 1.393 . S
C4015 C4014 1.391 . S
H4016 C4024 0.950 . S
H4017 C4029 0.950 . S
H4018 C4026 0.950 . S
H4019 C4028 0.950 . S
H4020 C4030 0.950 . S
H4021 C4032 0.950 . S
H4022 C4034 0.950 . S
H4023 C4035 0.950 . S
C4024 H4016 0.950 . S
C4024 C4025 1.386 . S
C4024 C4026 1.391 . S
C4025 C4024 1.386 . S
C4025 C4029 1.393 . S
C4026 H4018 0.950 . S
C4026 C4024 1.391 . S
C4026 C4027 1.400 . S
C4027 C4026 1.400 . S
C4027 C4028 1.398 . S
C4027 C4033 1.491 . S
C4028 H4019 0.950 . S
C4028 C4027 1.398 . S
C4028 C4029 1.391 . S
C4029 H4017 0.950 . S
C4029 C4025 1.393 . S
C4029 C4028 1.391 . S
C4030 H4020 0.950 . S
C4030 C4031 1.386 . S
C4030 C4032 1.391 . S
C4031 C4030 1.386 . S
C4031 C4035 1.393 . S
C4032 H4021 0.950 . S
C4032 C4030 1.391 . S
C4032 C4033 1.400 . S
C4033 C4027 1.491 . S
C4033 C4032 1.400 . S
C4033 C4034 1.398 . S
C4034 H4022 0.950 . S
C4034 C4033 1.398 . S
C4034 C4035 1.391 . S
C4035 H4023 0.950 . S
C4035 C4031 1.393 . S
C4035 C4034 1.391 . S
H4036 C4044 0.950 . S
H4037 C4049 0.950 . S
H4038 C4046 0.950 . S
H4039 C4048 0.950 . S
H4040 C4050 0.950 . S
H4041 C4052 0.950 . S
H4042 C4054 0.950 . S
H4043 C4055 0.950 . S
C4044 H4036 0.950 . S
C4044 C4045 1.386 . S
C4044 C4046 1.391 . S
C4045 C4044 1.386 . S
C4045 C4049 1.393 . S
C4046 H4038 0.950 . S
C4046 C4044 1.391 . S
C4046 C4047 1.400 . S
C4047 C4046 1.400 . S
C4047 C4048 1.398 . S
C4047 C4053 1.491 . S
C4048 H4039 0.950 . S
C4048 C4047 1.398 . S
C4048 C4049 1.391 . S
C4049 H4037 0.950 . S
C4049 C4045 1.393 . S
C4049 C4048 1.391 . S
C4050 H4040 0.950 . S
C4050 C4051 1.386 . S
C4050 C4052 1.391 . S
C4051 C4050 1.386 . S
C4051 C4055 1.393 . S
C4052 H4041 0.950 . S
C4052 C4050 1.391 . S
C4052 C4053 1.400 . S
C4053 C4047 1.491 . S
C4053 C4052 1.400 . S
C4053 C4054 1.398 . S
C4054 H4042 0.950 . S
C4054 C4053 1.398 . S
C4054 C4055 1.391 . S
C4055 H4043 0.950 . S
C4055 C4051 1.393 . S
C4055 C4054 1.391 . S
H4056 C4064 0.950 . S
H4057 C4069 0.950 . S
H4058 C4066 0.950 . S
H4059 C4068 0.950 . S
H4060 C4070 0.950 . S
H4061 C4072 0.950 . S
H4062 C4074 0.950 . S
H4063 C4075 0.941 1_545 S
C4064 H4056 0.950 . S
C4064 C4065 1.386 . S
C4064 C4066 1.391 . S
C4065 C4064 1.386 . S
C4065 C4069 1.393 . S
C4066 H4058 0.950 . S
C4066 C4064 1.391 . S
C4066 C4067 1.400 . S
C4067 C4066 1.400 . S
C4067 C4068 1.398 . S
C4067 C4073 1.491 . S
C4068 H4059 0.950 . S
C4068 C4067 1.398 . S
C4068 C4069 1.391 . S
C4069 H4057 0.950 . S
C4069 C4065 1.393 . S
C4069 C4068 1.391 . S
C4070 H4060 0.950 . S
C4070 C4071 1.386 1_554 S
C4070 C4072 1.391 1_554 S
C4071 C4070 1.386 1_556 S
C4071 C4075 1.395 . S
C4072 H4061 0.950 . S
C4072 C4070 1.391 1_556 S
C4072 C4073 1.400 . S
C4073 C4067 1.491 . S
C4073 C4072 1.400 . S
C4073 C4074 1.398 . S
C4074 H4062 0.950 . S
C4074 C4073 1.398 . S
C4074 C4075 1.398 . S
C4075 H4063 0.941 1_565 S
C4075 C4071 1.395 . S
C4075 C4074 1.398 . S
H4076 C4084 0.950 . S
H4077 C4089 0.950 . S
H4078 C4086 0.950 . S
H4079 C4088 0.950 . S
H4080 C4090 0.950 . S
H4081 C4092 0.950 . S
H4082 C4094 0.950 . S
H4083 C4095 0.950 . S
C4084 H4076 0.950 . S
C4084 C4085 1.386 . S
C4084 C4086 1.391 . S
C4085 C4084 1.386 . S
C4085 C4089 1.393 . S
C4086 H4078 0.950 . S
C4086 C4084 1.391 . S
C4086 C4087 1.400 . S
C4087 C4086 1.400 . S
C4087 C4088 1.398 . S
C4087 C4093 1.491 . S
C4088 H4079 0.950 . S
C4088 C4087 1.398 . S
C4088 C4089 1.391 . S
C4089 H4077 0.950 . S
C4089 C4085 1.393 . S
C4089 C4088 1.391 . S
C4090 H4080 0.950 . S
C4090 C4091 1.386 . S
C4090 C4092 1.391 . S
C4091 C4090 1.386 . S
C4091 C4095 1.393 . S
C4092 H4081 0.950 . S
C4092 C4090 1.391 . S
C4092 C4093 1.400 . S
C4093 C4087 1.491 . S
C4093 C4092 1.400 . S
C4093 C4094 1.398 . S
C4094 H4082 0.950 . S
C4094 C4093 1.398 . S
C4094 C4095 1.391 . S
C4095 H4083 0.950 . S
C4095 C4091 1.393 . S
C4095 C4094 1.391 . S
H4096 C4104 0.950 . S
H4097 C4109 0.950 . S
H4098 C4106 0.950 . S
H4099 C4108 0.950 . S
H4100 C4110 0.950 . S
H4101 C4112 0.950 . S
H4102 C4114 0.950 . S
H4103 C4115 0.941 1_565 S
C4104 H4096 0.950 . S
C4104 C4105 1.386 1_565 S
C4104 C4106 1.391 . S
C4105 C4104 1.386 1_545 S
C4105 C4109 1.393 . S
C4106 H4098 0.950 . S
C4106 C4104 1.391 . S
C4106 C4107 1.400 1_565 S
C4107 C4106 1.400 1_545 S
C4107 C4108 1.398 . S
C4107 C4113 1.491 . S
C4108 H4099 0.950 . S
C4108 C4107 1.398 . S
C4108 C4109 1.391 . S
C4109 H4097 0.950 . S
C4109 C4105 1.393 . S
C4109 C4108 1.391 . S
C4110 H4100 0.950 . S
C4110 C4111 1.386 . S
C4110 C4112 1.391 . S
C4111 C4110 1.386 . S
C4111 C4115 1.402 . S
C4112 H4101 0.950 . S
C4112 C4110 1.391 . S
C4112 C4113 1.400 . S
C4113 C4107 1.491 . S
C4113 C4112 1.400 . S
C4113 C4114 1.398 1_545 S
C4114 H4102 0.950 . S
C4114 C4113 1.398 1_565 S
C4114 C4115 1.391 1_565 S
C4115 H4103 0.941 1_545 S
C4115 C4111 1.402 . S
C4115 C4114 1.391 1_545 S
H4116 C4124 0.950 . S
H4117 C4129 0.950 . S
H4118 C4126 0.950 . S
H4119 C4128 0.950 . S
H4120 C4130 0.950 . S
H4121 C4132 0.950 . S
H4122 C4134 0.950 . S
H4123 C4135 0.950 . S
C4124 H4116 0.950 . S
C4124 C4125 1.386 . S
C4124 C4126 1.391 . S
C4125 C4124 1.386 . S
C4125 C4129 1.393 . S
C4126 H4118 0.950 . S
C4126 C4124 1.391 . S
C4126 C4127 1.400 . S
C4127 C4126 1.400 . S
C4127 C4128 1.398 . S
C4127 C4133 1.491 . S
C4128 H4119 0.950 . S
C4128 C4127 1.398 . S
C4128 C4129 1.391 . S
C4129 H4117 0.950 . S
C4129 C4125 1.393 . S
C4129 C4128 1.391 . S
C4130 H4120 0.950 . S
C4130 C4131 1.386 . S
C4130 C4132 1.391 . S
C4131 C4130 1.386 . S
C4131 C4135 1.393 . S
C4132 H4121 0.950 . S
C4132 C4130 1.391 . S
C4132 C4133 1.400 . S
C4133 C4127 1.491 . S
C4133 C4132 1.400 . S
C4133 C4134 1.398 . S
C4134 H4122 0.950 . S
C4134 C4133 1.398 . S
C4134 C4135 1.391 . S
C4135 H4123 0.950 . S
C4135 C4131 1.393 . S
C4135 C4134 1.391 . S
H4136 C4144 0.950 . S
H4137 C4149 0.950 . S
H4138 C4146 0.950 . S
H4139 C4148 0.950 . S
H4140 C4150 0.950 . S
H4141 C4152 0.950 . S
H4142 C4154 0.950 . S
H4143 C4155 0.950 . S
C4144 H4136 0.950 . S
C4144 C4145 1.386 . S
C4144 C4146 1.391 . S
C4145 C4144 1.386 . S
C4145 C4149 1.393 . S
C4146 H4138 0.950 . S
C4146 C4144 1.391 . S
C4146 C4147 1.400 . S
C4147 C4146 1.400 . S
C4147 C4148 1.398 . S
C4147 C4153 1.491 . S
C4148 H4139 0.950 . S
C4148 C4147 1.398 . S
C4148 C4149 1.391 . S
C4149 H4137 0.950 . S
C4149 C4145 1.393 . S
C4149 C4148 1.391 . S
C4150 H4140 0.950 . S
C4150 C4151 1.386 . S
C4150 C4152 1.391 . S
C4151 C4150 1.386 . S
C4151 C4155 1.393 . S
C4152 H4141 0.950 . S
C4152 C4150 1.391 . S
C4152 C4153 1.400 . S
C4153 C4147 1.491 . S
C4153 C4152 1.400 . S
C4153 C4154 1.398 . S
C4154 H4142 0.950 . S
C4154 C4153 1.398 . S
C4154 C4155 1.391 . S
C4155 H4143 0.950 . S
C4155 C4151 1.393 . S
C4155 C4154 1.391 . S
H4156 C4164 0.950 . S
H4157 C4169 0.950 . S
H4158 C4166 0.950 . S
H4159 C4168 0.950 . S
H4160 C4170 0.950 . S
H4161 C4172 0.950 . S
H4162 C4174 0.950 . S
H4163 C4175 0.950 . S
C4164 H4156 0.950 . S
C4164 C4165 1.386 . S
C4164 C4166 1.391 . S
C4165 C4164 1.386 . S
C4165 C4169 1.393 . S
C4166 H4158 0.950 . S
C4166 C4164 1.391 . S
C4166 C4167 1.400 . S
C4167 C4166 1.400 . S
C4167 C4168 1.398 . S
C4167 C4173 1.491 . S
C4168 H4159 0.950 . S
C4168 C4167 1.398 . S
C4168 C4169 1.391 . S
C4169 H4157 0.950 . S
C4169 C4165 1.393 . S
C4169 C4168 1.391 . S
C4170 H4160 0.950 . S
C4170 C4171 1.386 . S
C4170 C4172 1.391 . S
C4171 C4170 1.386 . S
C4171 C4175 1.393 . S
C4172 H4161 0.950 . S
C4172 C4170 1.391 . S
C4172 C4173 1.400 . S
C4173 C4167 1.491 . S
C4173 C4172 1.400 . S
C4173 C4174 1.398 . S
C4174 H4162 0.950 . S
C4174 C4173 1.398 . S
C4174 C4175 1.391 . S
C4175 H4163 0.950 . S
C4175 C4171 1.393 . S
C4175 C4174 1.391 . S
H4176 C4184 0.950 . S
H4177 C4189 0.950 . S
H4178 C4186 0.950 . S
H4179 C4188 0.950 . S
H4180 C4190 0.950 . S
H4181 C4192 0.950 1_565 S
H4182 C4194 0.950 . S
H4183 C4195 0.950 . S
C4184 H4176 0.950 . S
C4184 C4185 1.386 1_545 S
C4184 C4186 1.391 . S
C4185 C4184 1.386 1_565 S
C4185 C4189 1.393 . S
C4186 H4178 0.950 . S
C4186 C4184 1.391 . S
C4186 C4187 1.400 . S
C4187 C4186 1.400 . S
C4187 C4188 1.398 1_545 S
C4187 C4193 1.491 . S
C4188 H4179 0.950 . S
C4188 C4187 1.398 1_565 S
C4188 C4189 1.391 . S
C4189 H4177 0.950 . S
C4189 C4185 1.393 . S
C4189 C4188 1.391 . S
C4190 H4180 0.950 . S
C4190 C4191 1.386 . S
C4190 C4192 1.391 . S
C4191 C4190 1.386 . S
C4191 C4195 1.393 . S
C4192 H4181 0.950 1_545 S
C4192 C4190 1.391 . S
C4192 C4193 1.400 . S
C4193 C4187 1.491 . S
C4193 C4192 1.400 . S
C4193 C4194 1.398 . S
C4194 H4182 0.950 . S
C4194 C4193 1.398 . S
C4194 C4195 1.391 . S
C4195 H4183 0.950 . S
C4195 C4191 1.393 . S
C4195 C4194 1.391 . S
H4196 C4204 0.950 . S
H4197 C4209 0.950 . S
H4198 C4206 0.950 . S
H4199 C4208 0.950 . S
H4200 C4210 0.950 . S
H4201 C4212 0.950 . S
H4202 C4214 0.950 . S
H4203 C4215 0.950 . S
C4204 H4196 0.950 . S
C4204 C4205 1.386 . S
C4204 C4206 1.391 . S
C4205 C4204 1.386 . S
C4205 C4209 1.393 . S
C4206 H4198 0.950 . S
C4206 C4204 1.391 . S
C4206 C4207 1.400 . S
C4207 C4206 1.400 . S
C4207 C4208 1.398 . S
C4207 C4213 1.491 . S
C4208 H4199 0.950 . S
C4208 C4207 1.398 . S
C4208 C4209 1.391 . S
C4209 H4197 0.950 . S
C4209 C4205 1.393 . S
C4209 C4208 1.391 . S
C4210 H4200 0.950 . S
C4210 C4211 1.386 . S
C4210 C4212 1.391 . S
C4211 C4210 1.386 . S
C4211 C4215 1.393 . S
C4212 H4201 0.950 . S
C4212 C4210 1.391 . S
C4212 C4213 1.400 . S
C4213 C4207 1.491 . S
C4213 C4212 1.400 . S
C4213 C4214 1.398 . S
C4214 H4202 0.950 . S
C4214 C4213 1.398 . S
C4214 C4215 1.391 . S
C4215 H4203 0.950 . S
C4215 C4211 1.393 . S
C4215 C4214 1.391 . S
H4216 C4224 0.950 . S
H4217 C4229 0.950 . S
H4218 C4226 0.950 . S
H4219 C4228 0.950 . S
H4220 C4230 0.950 . S
H4221 C4232 0.950 . S
H4222 C4234 0.950 . S
H4223 C4235 0.950 . S
C4224 H4216 0.950 . S
C4224 C4225 1.386 . S
C4224 C4226 1.391 . S
C4225 C4224 1.386 . S
C4225 C4229 1.393 . S
C4226 H4218 0.950 . S
C4226 C4224 1.391 . S
C4226 C4227 1.400 . S
C4227 C4226 1.400 . S
C4227 C4228 1.398 . S
C4227 C4233 1.491 . S
C4228 H4219 0.950 . S
C4228 C4227 1.398 . S
C4228 C4229 1.391 . S
C4229 H4217 0.950 . S
C4229 C4225 1.393 . S
C4229 C4228 1.391 . S
C4230 H4220 0.950 . S
C4230 C4231 1.386 . S
C4230 C4232 1.391 . S
C4231 C4230 1.386 . S
C4231 C4235 1.393 . S
C4232 H4221 0.950 . S
C4232 C4230 1.391 . S
C4232 C4233 1.400 . S
C4233 C4227 1.491 . S
C4233 C4232 1.400 . S
C4233 C4234 1.398 . S
C4234 H4222 0.950 . S
C4234 C4233 1.398 . S
C4234 C4235 1.391 . S
C4235 H4223 0.950 . S
C4235 C4231 1.393 . S
C4235 C4234 1.391 . S
H4236 C4244 0.950 . S
H4237 C4249 0.950 . S
H4238 C4246 0.950 . S
H4239 C4248 0.950 . S
H4240 C4250 0.950 . S
H4241 C4252 0.950 . S
H4242 C4254 0.950 . S
H4243 C4255 0.950 . S
C4244 H4236 0.950 . S
C4244 C4245 1.386 . S
C4244 C4246 1.391 . S
C4245 C4244 1.386 . S
C4245 C4249 1.393 . S
C4246 H4238 0.950 . S
C4246 C4244 1.391 . S
C4246 C4247 1.400 . S
C4247 C4246 1.400 . S
C4247 C4248 1.398 . S
C4247 C4253 1.491 . S
C4248 H4239 0.950 . S
C4248 C4247 1.398 . S
C4248 C4249 1.391 . S
C4249 H4237 0.950 . S
C4249 C4245 1.393 . S
C4249 C4248 1.391 . S
C4250 H4240 0.950 . S
C4250 C4251 1.386 . S
C4250 C4252 1.391 . S
C4251 C4250 1.386 . S
C4251 C4255 1.393 . S
C4252 H4241 0.950 . S
C4252 C4250 1.391 . S
C4252 C4253 1.400 . S
C4253 C4247 1.491 . S
C4253 C4252 1.400 . S
C4253 C4254 1.398 . S
C4254 H4242 0.950 . S
C4254 C4253 1.398 . S
C4254 C4255 1.391 . S
C4255 H4243 0.950 . S
C4255 C4251 1.393 . S
C4255 C4254 1.391 . S
H4256 C4264 0.950 . S
H4257 C4269 0.950 1_556 S
H4258 C4266 0.950 . S
H4259 C4268 0.963 . S
H4260 C4270 0.950 . S
H4261 C4272 0.950 . S
H4262 C4274 0.950 . S
H4263 C4275 0.950 . S
C4264 H4256 0.950 . S
C4264 C4265 1.386 . S
C4264 C4266 1.391 . S
C4265 C4264 1.386 . S
C4265 C4269 1.393 . S
C4266 H4258 0.950 . S
C4266 C4264 1.391 . S
C4266 C4267 1.400 . S
C4267 C4266 1.400 . S
C4267 C4268 1.386 1_554 S
C4267 C4273 1.491 . S
C4268 H4259 0.963 . S
C4268 C4267 1.386 1_556 S
C4268 C4269 1.390 1_556 S
C4269 H4257 0.950 1_554 S
C4269 C4265 1.393 . S
C4269 C4268 1.390 1_554 S
C4270 H4260 0.950 . S
C4270 C4271 1.386 1_556 S
C4270 C4272 1.391 . S
C4271 C4270 1.386 1_554 S
C4271 C4275 1.393 . S
C4272 H4261 0.950 . S
C4272 C4270 1.391 . S
C4272 C4273 1.400 1_556 S
C4273 C4267 1.491 . S
C4273 C4272 1.400 1_554 S
C4273 C4274 1.398 . S
C4274 H4262 0.950 . S
C4274 C4273 1.398 . S
C4274 C4275 1.391 . S
C4275 H4263 0.950 . S
C4275 C4271 1.393 . S
C4275 C4274 1.391 . S
H4276 C4284 0.950 . S
H4277 C4289 0.950 . S
H4278 C4286 0.950 . S
H4279 C4288 0.950 . S
H4280 C4290 0.950 . S
H4281 C4292 0.950 . S
H4282 C4294 0.950 . S
H4283 C4295 0.950 . S
C4284 H4276 0.950 . S
C4284 C4285 1.386 . S
C4284 C4286 1.391 . S
C4285 C4284 1.386 . S
C4285 C4289 1.393 . S
C4286 H4278 0.950 . S
C4286 C4284 1.391 . S
C4286 C4287 1.400 . S
C4287 C4286 1.400 . S
C4287 C4288 1.398 . S
C4287 C4293 1.491 . S
C4288 H4279 0.950 . S
C4288 C4287 1.398 . S
C4288 C4289 1.391 . S
C4289 H4277 0.950 . S
C4289 C4285 1.393 . S
C4289 C4288 1.391 . S
C4290 H4280 0.950 . S
C4290 C4291 1.386 . S
C4290 C4292 1.391 . S
C4291 C4290 1.386 . S
C4291 C4295 1.393 . S
C4292 H4281 0.950 . S
C4292 C4290 1.391 . S
C4292 C4293 1.400 . S
C4293 C4287 1.491 . S
C4293 C4292 1.400 . S
C4293 C4294 1.398 . S
C4294 H4282 0.950 . S
C4294 C4293 1.398 . S
C4294 C4295 1.391 . S
C4295 H4283 0.950 . S
C4295 C4291 1.393 . S
C4295 C4294 1.391 . S
H4296 C4304 0.950 . S
H4297 C4309 0.950 . S
H4298 C4306 0.950 . S
H4299 C4308 0.950 . S
H4300 C4310 0.950 . S
H4301 C4312 0.950 . S
H4302 C4314 0.950 . S
H4303 C4315 0.950 . S
C4304 H4296 0.950 . S
C4304 C4305 1.386 . S
C4304 C4306 1.391 . S
C4305 C4304 1.386 . S
C4305 C4309 1.393 . S
C4306 H4298 0.950 . S
C4306 C4304 1.391 . S
C4306 C4307 1.400 . S
C4307 C4306 1.400 . S
C4307 C4308 1.398 . S
C4307 C4313 1.491 . S
C4308 H4299 0.950 . S
C4308 C4307 1.398 . S
C4308 C4309 1.391 . S
C4309 H4297 0.950 . S
C4309 C4305 1.393 . S
C4309 C4308 1.391 . S
C4310 H4300 0.950 . S
C4310 C4311 1.386 . S
C4310 C4312 1.391 . S
C4311 C4310 1.386 . S
C4311 C4315 1.393 . S
C4312 H4301 0.950 . S
C4312 C4310 1.391 . S
C4312 C4313 1.400 . S
C4313 C4307 1.491 . S
C4313 C4312 1.400 . S
C4313 C4314 1.398 . S
C4314 H4302 0.950 . S
C4314 C4313 1.398 . S
C4314 C4315 1.391 . S
C4315 H4303 0.950 . S
C4315 C4311 1.393 . S
C4315 C4314 1.391 . S
H4316 C4324 0.950 . S
H4317 C4329 0.950 . S
H4318 C4326 0.950 . S
H4319 C4328 0.950 . S
H4320 C4330 0.950 . S
H4321 C4332 0.950 . S
H4322 C4334 0.950 . S
H4323 C4335 0.950 . S
C4324 H4316 0.950 . S
C4324 C4325 1.386 . S
C4324 C4326 1.391 . S
C4325 C4324 1.386 . S
C4325 C4329 1.393 . S
C4326 H4318 0.950 . S
C4326 C4324 1.391 . S
C4326 C4327 1.400 . S
C4327 C4326 1.400 . S
C4327 C4328 1.398 . S
C4327 C4333 1.491 . S
C4328 H4319 0.950 . S
C4328 C4327 1.398 . S
C4328 C4329 1.391 . S
C4329 H4317 0.950 . S
C4329 C4325 1.393 . S
C4329 C4328 1.391 . S
C4330 H4320 0.950 . S
C4330 C4331 1.386 . S
C4330 C4332 1.391 . S
C4331 C4330 1.386 . S
C4331 C4335 1.393 . S
C4332 H4321 0.950 . S
C4332 C4330 1.391 . S
C4332 C4333 1.400 . S
C4333 C4327 1.491 . S
C4333 C4332 1.400 . S
C4333 C4334 1.398 . S
C4334 H4322 0.950 . S
C4334 C4333 1.398 . S
C4334 C4335 1.391 . S
C4335 H4323 0.950 . S
C4335 C4331 1.393 . S
C4335 C4334 1.391 . S
H4336 C4344 0.950 . S
H4337 C4349 0.950 . S
H4338 C4346 0.950 . S
H4339 C4348 0.950 . S
H4340 C4350 0.950 . S
H4341 C4352 0.950 . S
H4342 C4354 0.950 . S
H4343 C4355 0.950 . S
C4344 H4336 0.950 . S
C4344 C4345 1.386 . S
C4344 C4346 1.391 . S
C4345 C4344 1.386 . S
C4345 C4349 1.393 . S
C4346 H4338 0.950 . S
C4346 C4344 1.391 . S
C4346 C4347 1.400 . S
C4347 C4346 1.400 . S
C4347 C4348 1.398 . S
C4347 C4353 1.491 . S
C4348 H4339 0.950 . S
C4348 C4347 1.398 . S
C4348 C4349 1.391 . S
C4349 H4337 0.950 . S
C4349 C4345 1.393 . S
C4349 C4348 1.391 . S
C4350 H4340 0.950 . S
C4350 C4351 1.386 . S
C4350 C4352 1.391 . S
C4351 C4350 1.386 . S
C4351 C4355 1.393 . S
C4352 H4341 0.950 . S
C4352 C4350 1.391 . S
C4352 C4353 1.400 . S
C4353 C4347 1.491 . S
C4353 C4352 1.400 . S
C4353 C4354 1.398 . S
C4354 H4342 0.950 . S
C4354 C4353 1.398 . S
C4354 C4355 1.391 . S
C4355 H4343 0.950 . S
C4355 C4351 1.393 . S
C4355 C4354 1.391 . S
H4356 C4364 0.950 . S
H4357 C4369 0.950 . S
H4358 C4366 0.950 . S
H4359 C4368 0.950 . S
H4360 C4370 0.950 . S
H4361 C4372 0.950 . S
H4362 C4374 0.950 . S
H4363 C4375 0.950 . S
C4364 H4356 0.950 . S
C4364 C4365 1.386 . S
C4364 C4366 1.391 . S
C4365 C4364 1.386 . S
C4365 C4369 1.393 . S
C4366 H4358 0.950 . S
C4366 C4364 1.391 . S
C4366 C4367 1.400 . S
C4367 C4366 1.400 . S
C4367 C4368 1.398 . S
C4367 C4373 1.491 . S
C4368 H4359 0.950 . S
C4368 C4367 1.398 . S
C4368 C4369 1.391 . S
C4369 H4357 0.950 . S
C4369 C4365 1.393 . S
C4369 C4368 1.391 . S
C4370 H4360 0.950 . S
C4370 C4371 1.386 . S
C4370 C4372 1.391 . S
C4371 C4370 1.386 . S
C4371 C4375 1.393 . S
C4372 H4361 0.950 . S
C4372 C4370 1.391 . S
C4372 C4373 1.400 . S
C4373 C4367 1.491 . S
C4373 C4372 1.400 . S
C4373 C4374 1.398 . S
C4374 H4362 0.950 . S
C4374 C4373 1.398 . S
C4374 C4375 1.391 . S
C4375 H4363 0.950 . S
C4375 C4371 1.393 . S
C4375 C4374 1.391 . S
H4376 C4384 0.950 . S
H4377 C4389 0.950 . S
H4378 C4386 0.950 . S
H4379 C4388 0.950 . S
H4380 C4390 0.950 . S
H4381 C4392 0.950 . S
H4382 C4394 0.950 . S
H4383 C4395 0.950 . S
C4384 H4376 0.950 . S
C4384 C4385 1.386 . S
C4384 C4386 1.391 . S
C4385 C4384 1.386 . S
C4385 C4389 1.393 . S
C4386 H4378 0.950 . S
C4386 C4384 1.391 . S
C4386 C4387 1.400 . S
C4387 C4386 1.400 . S
C4387 C4388 1.398 . S
C4387 C4393 1.491 . S
C4388 H4379 0.950 . S
C4388 C4387 1.398 . S
C4388 C4389 1.391 . S
C4389 H4377 0.950 . S
C4389 C4385 1.393 . S
C4389 C4388 1.391 . S
C4390 H4380 0.950 . S
C4390 C4391 1.386 . S
C4390 C4392 1.391 . S
C4391 C4390 1.386 . S
C4391 C4395 1.393 . S
C4392 H4381 0.950 . S
C4392 C4390 1.391 . S
C4392 C4393 1.400 . S
C4393 C4387 1.491 . S
C4393 C4392 1.400 . S
C4393 C4394 1.398 . S
C4394 H4382 0.950 . S
C4394 C4393 1.398 . S
C4394 C4395 1.391 . S
C4395 H4383 0.950 . S
C4395 C4391 1.393 . S
C4395 C4394 1.391 . S
H4396 C4404 0.950 . S
H4397 C4409 0.950 . S
H4398 C4406 0.950 . S
H4399 C4408 0.950 . S
H4400 C4410 0.950 . S
H4401 C4412 0.950 . S
H4402 C4414 0.950 . S
H4403 C4415 0.950 . S
C4404 H4396 0.950 . S
C4404 C4405 1.386 . S
C4404 C4406 1.391 . S
C4405 C4404 1.386 . S
C4405 C4409 1.393 . S
C4406 H4398 0.950 . S
C4406 C4404 1.391 . S
C4406 C4407 1.400 . S
C4407 C4406 1.400 . S
C4407 C4408 1.398 . S
C4407 C4413 1.491 . S
C4408 H4399 0.950 . S
C4408 C4407 1.398 . S
C4408 C4409 1.391 . S
C4409 H4397 0.950 . S
C4409 C4405 1.393 . S
C4409 C4408 1.391 . S
C4410 H4400 0.950 . S
C4410 C4411 1.386 . S
C4410 C4412 1.391 . S
C4411 C4410 1.386 . S
C4411 C4415 1.393 . S
C4412 H4401 0.950 . S
C4412 C4410 1.391 . S
C4412 C4413 1.400 . S
C4413 C4407 1.491 . S
C4413 C4412 1.400 . S
C4413 C4414 1.398 . S
C4414 H4402 0.950 . S
C4414 C4413 1.398 . S
C4414 C4415 1.391 . S
C4415 H4403 0.950 . S
C4415 C4411 1.393 . S
C4415 C4414 1.391 . S
H4416 C4424 0.950 . S
H4417 C4429 0.950 . S
H4418 C4426 0.950 . S
H4419 C4428 0.950 . S
H4420 C4430 0.950 . S
H4421 C4432 0.950 . S
H4422 C4434 0.950 . S
H4423 C4435 0.950 . S
C4424 H4416 0.950 . S
C4424 C4425 1.386 . S
C4424 C4426 1.391 . S
C4425 C4424 1.386 . S
C4425 C4429 1.393 . S
C4426 H4418 0.950 . S
C4426 C4424 1.391 . S
C4426 C4427 1.400 . S
C4427 C4426 1.400 . S
C4427 C4428 1.398 . S
C4427 C4433 1.491 . S
C4428 H4419 0.950 . S
C4428 C4427 1.398 . S
C4428 C4429 1.391 . S
C4429 H4417 0.950 . S
C4429 C4425 1.393 . S
C4429 C4428 1.391 . S
C4430 H4420 0.950 . S
C4430 C4431 1.386 . S
C4430 C4432 1.391 . S
C4431 C4430 1.386 . S
C4431 C4435 1.393 . S
C4432 H4421 0.950 . S
C4432 C4430 1.391 . S
C4432 C4433 1.400 . S
C4433 C4427 1.491 . S
C4433 C4432 1.400 . S
C4433 C4434 1.398 . S
C4434 H4422 0.950 . S
C4434 C4433 1.398 . S
C4434 C4435 1.391 . S
C4435 H4423 0.950 . S
C4435 C4431 1.393 . S
C4435 C4434 1.391 . S
H4436 C4444 0.950 . S
H4437 C4449 0.950 . S
H4438 C4446 0.950 . S
H4439 C4448 0.950 . S
H4440 C4450 0.950 . S
H4441 C4452 0.950 . S
H4442 C4454 0.950 . S
H4443 C4455 0.950 . S
C4444 H4436 0.950 . S
C4444 C4445 1.386 . S
C4444 C4446 1.391 . S
C4445 C4444 1.386 . S
C4445 C4449 1.393 . S
C4446 H4438 0.950 . S
C4446 C4444 1.391 . S
C4446 C4447 1.400 . S
C4447 C4446 1.400 . S
C4447 C4448 1.398 . S
C4447 C4453 1.491 . S
C4448 H4439 0.950 . S
C4448 C4447 1.398 . S
C4448 C4449 1.391 . S
C4449 H4437 0.950 . S
C4449 C4445 1.393 . S
C4449 C4448 1.391 . S
C4450 H4440 0.950 . S
C4450 C4451 1.386 . S
C4450 C4452 1.391 . S
C4451 C4450 1.386 . S
C4451 C4455 1.393 . S
C4452 H4441 0.950 . S
C4452 C4450 1.391 . S
C4452 C4453 1.400 . S
C4453 C4447 1.491 . S
C4453 C4452 1.400 . S
C4453 C4454 1.398 . S
C4454 H4442 0.950 . S
C4454 C4453 1.398 . S
C4454 C4455 1.391 . S
C4455 H4443 0.950 . S
C4455 C4451 1.393 . S
C4455 C4454 1.391 . S
H4456 C4464 0.950 . S
H4457 C4469 0.948 1_556 S
H4458 C4466 0.950 . S
H4459 C4468 0.950 . S
H4460 C4470 0.950 . S
H4461 C4472 0.950 . S
H4462 C4474 0.950 . S
H4463 C4475 0.950 . S
C4464 H4456 0.950 . S
C4464 C4465 1.386 . S
C4464 C4466 1.391 . S
C4465 C4464 1.386 . S
C4465 C4469 1.393 . S
C4466 H4458 0.950 . S
C4466 C4464 1.391 . S
C4466 C4467 1.400 . S
C4467 C4466 1.400 . S
C4467 C4468 1.398 . S
C4467 C4473 1.491 . S
C4468 H4459 0.950 . S
C4468 C4467 1.398 . S
C4468 C4469 1.391 . S
C4469 H4457 0.948 1_554 S
C4469 C4465 1.393 . S
C4469 C4468 1.391 . S
C4470 H4460 0.950 . S
C4470 C4471 1.386 . S
C4470 C4472 1.391 . S
C4471 C4470 1.386 . S
C4471 C4475 1.393 . S
C4472 H4461 0.950 . S
C4472 C4470 1.391 . S
C4472 C4473 1.400 . S
C4473 C4467 1.491 . S
C4473 C4472 1.400 . S
C4473 C4474 1.398 . S
C4474 H4462 0.950 . S
C4474 C4473 1.398 . S
C4474 C4475 1.391 . S
C4475 H4463 0.950 . S
C4475 C4471 1.393 . S
C4475 C4474 1.391 . S
H4476 C4484 0.950 . S
H4477 C4489 0.950 1_455 S
H4478 C4486 0.950 . S
H4479 C4488 0.950 . S
H4480 C4490 0.950 . S
H4481 C4492 0.950 . S
H4482 C4494 0.950 . S
H4483 C4495 0.950 . S
C4484 H4476 0.950 . S
C4484 C4485 1.386 . S
C4484 C4486 1.391 . S
C4485 C4484 1.386 . S
C4485 C4489 1.393 . S
C4486 H4478 0.950 . S
C4486 C4484 1.391 . S
C4486 C4487 1.400 . S
C4487 C4486 1.400 . S
C4487 C4488 1.398 . S
C4487 C4493 1.491 . S
C4488 H4479 0.950 . S
C4488 C4487 1.398 . S
C4488 C4489 1.391 . S
C4489 H4477 0.950 1_655 S
C4489 C4485 1.393 . S
C4489 C4488 1.391 . S
C4490 H4480 0.950 . S
C4490 C4491 1.386 . S
C4490 C4492 1.391 . S
C4491 C4490 1.386 . S
C4491 C4495 1.393 . S
C4492 H4481 0.950 . S
C4492 C4490 1.391 . S
C4492 C4493 1.400 . S
C4493 C4487 1.491 . S
C4493 C4492 1.400 . S
C4493 C4494 1.398 . S
C4494 H4482 0.950 . S
C4494 C4493 1.398 . S
C4494 C4495 1.391 . S
C4495 H4483 0.950 . S
C4495 C4491 1.393 . S
C4495 C4494 1.391 . S
H4496 C4504 0.950 . S
H4497 C4509 0.950 . S
H4498 C4506 0.950 . S
H4499 C4508 0.950 . S
H4500 C4510 0.950 . S
H4501 C4512 0.950 . S
H4502 C4514 0.950 . S
H4503 C4515 0.950 . S
C4504 H4496 0.950 . S
C4504 C4505 1.386 . S
C4504 C4506 1.391 . S
C4505 C4504 1.386 . S
C4505 C4509 1.393 . S
C4506 H4498 0.950 . S
C4506 C4504 1.391 . S
C4506 C4507 1.400 . S
C4507 C4506 1.400 . S
C4507 C4508 1.398 . S
C4507 C4513 1.491 . S
C4508 H4499 0.950 . S
C4508 C4507 1.398 . S
C4508 C4509 1.391 . S
C4509 H4497 0.950 . S
C4509 C4505 1.393 . S
C4509 C4508 1.391 . S
C4510 H4500 0.950 . S
C4510 C4511 1.386 . S
C4510 C4512 1.391 . S
C4511 C4510 1.386 . S
C4511 C4515 1.393 . S
C4512 H4501 0.950 . S
C4512 C4510 1.391 . S
C4512 C4513 1.400 . S
C4513 C4507 1.491 . S
C4513 C4512 1.400 . S
C4513 C4514 1.398 . S
C4514 H4502 0.950 . S
C4514 C4513 1.398 . S
C4514 C4515 1.391 . S
C4515 H4503 0.950 . S
C4515 C4511 1.393 . S
C4515 C4514 1.391 . S
H4516 C4524 0.950 1_455 S
H4517 C4529 0.950 . S
H4518 C4526 0.950 . S
H4519 C4528 0.950 . S
H4520 C4530 0.950 . S
H4521 C4532 0.950 . S
H4522 C4534 0.950 . S
H4523 C4535 0.950 . S
C4524 H4516 0.950 1_655 S
C4524 C4525 1.386 1_655 S
C4524 C4526 1.391 . S
C4525 C4524 1.386 1_455 S
C4525 C4529 1.393 . S
C4526 H4518 0.950 . S
C4526 C4524 1.391 . S
C4526 C4527 1.400 . S
C4527 C4526 1.400 . S
C4527 C4528 1.398 . S
C4527 C4533 1.491 . S
C4528 H4519 0.950 . S
C4528 C4527 1.398 . S
C4528 C4529 1.391 1_655 S
C4529 H4517 0.950 . S
C4529 C4525 1.393 . S
C4529 C4528 1.391 1_455 S
C4530 H4520 0.950 . S
C4530 C4531 1.386 . S
C4530 C4532 1.391 . S
C4531 C4530 1.386 . S
C4531 C4535 1.393 . S
C4532 H4521 0.950 . S
C4532 C4530 1.391 . S
C4532 C4533 1.400 . S
C4533 C4527 1.491 . S
C4533 C4532 1.400 . S
C4533 C4534 1.398 . S
C4534 H4522 0.950 . S
C4534 C4533 1.398 . S
C4534 C4535 1.391 . S
C4535 H4523 0.950 . S
C4535 C4531 1.393 . S
C4535 C4534 1.391 . S
H4536 C4544 0.950 . S
H4537 C4549 0.950 . S
H4538 C4546 0.950 . S
H4539 C4548 0.950 . S
H4540 C4550 0.950 . S
H4541 C4552 0.953 1_655 S
H4542 C4554 0.950 . S
H4543 C4555 0.950 . S
C4544 H4536 0.950 . S
C4544 C4545 1.386 1_455 S
C4544 C4546 1.391 . S
C4545 C4544 1.386 1_655 S
C4545 C4549 1.393 . S
C4546 H4538 0.950 . S
C4546 C4544 1.391 . S
C4546 C4547 1.400 . S
C4547 C4546 1.400 . S
C4547 C4548 1.398 1_455 S
C4547 C4553 1.491 . S
C4548 H4539 0.950 . S
C4548 C4547 1.398 1_655 S
C4548 C4549 1.391 . S
C4549 H4537 0.950 . S
C4549 C4545 1.393 . S
C4549 C4548 1.391 . S
C4550 H4540 0.950 . S
C4550 C4551 1.386 . S
C4550 C4552 1.391 . S
C4551 C4550 1.386 . S
C4551 C4555 1.393 . S
C4552 H4541 0.953 1_455 S
C4552 C4550 1.391 . S
C4552 C4553 1.400 . S
C4553 C4547 1.491 . S
C4553 C4552 1.400 . S
C4553 C4554 1.398 . S
C4554 H4542 0.950 . S
C4554 C4553 1.398 . S
C4554 C4555 1.391 . S
C4555 H4543 0.950 . S
C4555 C4551 1.393 . S
C4555 C4554 1.391 . S
H4556 C4564 0.950 . S
H4557 C4569 0.950 . S
H4558 C4566 0.950 . S
H4559 C4568 0.950 . S
H4560 C4570 0.950 . S
H4561 C4572 0.950 . S
H4562 C4574 0.950 . S
H4563 C4575 0.950 . S
C4564 H4556 0.950 . S
C4564 C4565 1.386 . S
C4564 C4566 1.391 . S
C4565 C4564 1.386 . S
C4565 C4569 1.393 . S
C4566 H4558 0.950 . S
C4566 C4564 1.391 . S
C4566 C4567 1.400 . S
C4567 C4566 1.400 . S
C4567 C4568 1.398 . S
C4567 C4573 1.491 . S
C4568 H4559 0.950 . S
C4568 C4567 1.398 . S
C4568 C4569 1.391 . S
C4569 H4557 0.950 . S
C4569 C4565 1.393 . S
C4569 C4568 1.391 . S
C4570 H4560 0.950 . S
C4570 C4571 1.386 . S
C4570 C4572 1.391 . S
C4571 C4570 1.386 . S
C4571 C4575 1.393 . S
C4572 H4561 0.950 . S
C4572 C4570 1.391 . S
C4572 C4573 1.400 . S
C4573 C4567 1.491 . S
C4573 C4572 1.400 . S
C4573 C4574 1.398 . S
C4574 H4562 0.950 . S
C4574 C4573 1.398 . S
C4574 C4575 1.391 . S
C4575 H4563 0.950 . S
C4575 C4571 1.393 . S
C4575 C4574 1.391 . S
H4576 C4584 0.950 . S
H4577 C4589 0.950 . S
H4578 C4586 0.950 . S
H4579 C4588 0.950 . S
H4580 C4590 0.950 . S
H4581 C4592 0.950 . S
H4582 C4594 0.950 . S
H4583 C4595 0.950 . S
C4584 H4576 0.950 . S
C4584 C4585 1.386 . S
C4584 C4586 1.391 . S
C4585 C4584 1.386 . S
C4585 C4589 1.393 . S
C4586 H4578 0.950 . S
C4586 C4584 1.391 . S
C4586 C4587 1.400 . S
C4587 C4586 1.400 . S
C4587 C4588 1.398 . S
C4587 C4593 1.491 . S
C4588 H4579 0.950 . S
C4588 C4587 1.398 . S
C4588 C4589 1.391 . S
C4589 H4577 0.950 . S
C4589 C4585 1.393 . S
C4589 C4588 1.391 . S
C4590 H4580 0.950 . S
C4590 C4591 1.386 . S
C4590 C4592 1.391 . S
C4591 C4590 1.386 . S
C4591 C4595 1.393 . S
C4592 H4581 0.950 . S
C4592 C4590 1.391 . S
C4592 C4593 1.400 . S
C4593 C4587 1.491 . S
C4593 C4592 1.400 . S
C4593 C4594 1.398 . S
C4594 H4582 0.950 . S
C4594 C4593 1.398 . S
C4594 C4595 1.391 . S
C4595 H4583 0.950 . S
C4595 C4591 1.393 . S
C4595 C4594 1.391 . S
H4596 C4604 0.950 . S
H4597 C4609 0.950 . S
H4598 C4606 0.950 . S
H4599 C4608 0.950 . S
H4600 C4610 0.950 . S
H4601 C4612 0.950 . S
H4602 C4614 0.950 . S
H4603 C4615 0.950 . S
C4604 H4596 0.950 . S
C4604 C4605 1.386 . S
C4604 C4606 1.391 . S
C4605 C4604 1.386 . S
C4605 C4609 1.393 . S
C4606 H4598 0.950 . S
C4606 C4604 1.391 . S
C4606 C4607 1.400 . S
C4607 C4606 1.400 . S
C4607 C4608 1.398 . S
C4607 C4613 1.491 . S
C4608 H4599 0.950 . S
C4608 C4607 1.398 . S
C4608 C4609 1.391 . S
C4609 H4597 0.950 . S
C4609 C4605 1.393 . S
C4609 C4608 1.391 . S
C4610 H4600 0.950 . S
C4610 C4611 1.386 . S
C4610 C4612 1.391 . S
C4611 C4610 1.386 . S
C4611 C4615 1.393 . S
C4612 H4601 0.950 . S
C4612 C4610 1.391 . S
C4612 C4613 1.400 . S
C4613 C4607 1.491 . S
C4613 C4612 1.400 . S
C4613 C4614 1.398 . S
C4614 H4602 0.950 . S
C4614 C4613 1.398 . S
C4614 C4615 1.391 . S
C4615 H4603 0.950 . S
C4615 C4611 1.393 . S
C4615 C4614 1.391 . S
H4616 C4624 0.950 . S
H4617 C4629 0.950 . S
H4618 C4626 0.950 . S
H4619 C4628 0.950 . S
H4620 C4630 0.950 . S
H4621 C4632 0.950 . S
H4622 C4634 0.950 . S
H4623 C4635 0.950 . S
C4624 H4616 0.950 . S
C4624 C4625 1.386 . S
C4624 C4626 1.391 . S
C4625 C4624 1.386 . S
C4625 C4629 1.393 . S
C4626 H4618 0.950 . S
C4626 C4624 1.391 . S
C4626 C4627 1.400 . S
C4627 C4626 1.400 . S
C4627 C4628 1.398 . S
C4627 C4633 1.491 . S
C4628 H4619 0.950 . S
C4628 C4627 1.398 . S
C4628 C4629 1.391 . S
C4629 H4617 0.950 . S
C4629 C4625 1.393 . S
C4629 C4628 1.391 . S
C4630 H4620 0.950 . S
C4630 C4631 1.386 . S
C4630 C4632 1.391 . S
C4631 C4630 1.386 . S
C4631 C4635 1.393 . S
C4632 H4621 0.950 . S
C4632 C4630 1.391 . S
C4632 C4633 1.400 . S
C4633 C4627 1.491 . S
C4633 C4632 1.400 . S
C4633 C4634 1.398 . S
C4634 H4622 0.950 . S
C4634 C4633 1.398 . S
C4634 C4635 1.391 . S
C4635 H4623 0.950 . S
C4635 C4631 1.393 . S
C4635 C4634 1.391 . S
H4636 C4644 0.950 . S
H4637 C4649 0.950 . S
H4638 C4646 0.950 . S
H4639 C4648 0.950 . S
H4640 C4650 0.950 . S
H4641 C4652 0.950 . S
H4642 C4654 0.950 . S
H4643 C4655 0.950 . S
C4644 H4636 0.950 . S
C4644 C4645 1.386 . S
C4644 C4646 1.391 . S
C4645 C4644 1.386 . S
C4645 C4649 1.393 . S
C4646 H4638 0.950 . S
C4646 C4644 1.391 . S
C4646 C4647 1.400 . S
C4647 C4646 1.400 . S
C4647 C4648 1.398 . S
C4647 C4653 1.491 . S
C4648 H4639 0.950 . S
C4648 C4647 1.398 . S
C4648 C4649 1.391 . S
C4649 H4637 0.950 . S
C4649 C4645 1.393 . S
C4649 C4648 1.391 . S
C4650 H4640 0.950 . S
C4650 C4651 1.386 . S
C4650 C4652 1.391 . S
C4651 C4650 1.386 . S
C4651 C4655 1.393 . S
C4652 H4641 0.950 . S
C4652 C4650 1.391 . S
C4652 C4653 1.400 . S
C4653 C4647 1.491 . S
C4653 C4652 1.400 . S
C4653 C4654 1.398 . S
C4654 H4642 0.950 . S
C4654 C4653 1.398 . S
C4654 C4655 1.391 . S
C4655 H4643 0.950 . S
C4655 C4651 1.393 . S
C4655 C4654 1.391 . S
H4656 C4664 0.950 . S
H4657 C4669 0.950 . S
H4658 C4666 0.950 . S
H4659 C4668 0.950 . S
H4660 C4670 0.950 . S
H4661 C4672 0.950 . S
H4662 C4674 0.950 . S
H4663 C4675 0.950 . S
C4664 H4656 0.950 . S
C4664 C4665 1.386 . S
C4664 C4666 1.391 . S
C4665 C4664 1.386 . S
C4665 C4669 1.393 . S
C4666 H4658 0.950 . S
C4666 C4664 1.391 . S
C4666 C4667 1.400 . S
C4667 C4666 1.400 . S
C4667 C4668 1.398 . S
C4667 C4673 1.491 . S
C4668 H4659 0.950 . S
C4668 C4667 1.398 . S
C4668 C4669 1.391 . S
C4669 H4657 0.950 . S
C4669 C4665 1.393 . S
C4669 C4668 1.391 . S
C4670 H4660 0.950 . S
C4670 C4671 1.386 . S
C4670 C4672 1.391 . S
C4671 C4670 1.386 . S
C4671 C4675 1.393 . S
C4672 H4661 0.950 . S
C4672 C4670 1.391 . S
C4672 C4673 1.400 . S
C4673 C4667 1.491 . S
C4673 C4672 1.400 . S
C4673 C4674 1.398 . S
C4674 H4662 0.950 . S
C4674 C4673 1.398 . S
C4674 C4675 1.391 . S
C4675 H4663 0.950 . S
C4675 C4671 1.393 . S
C4675 C4674 1.391 . S
H4676 C4684 0.950 . S
H4677 C4689 0.950 . S
H4678 C4686 0.950 . S
H4679 C4688 0.950 . S
H4680 C4690 0.950 . S
H4681 C4692 0.950 . S
H4682 C4694 0.950 . S
H4683 C4695 0.950 . S
C4684 H4676 0.950 . S
C4684 C4685 1.386 . S
C4684 C4686 1.391 . S
C4685 C4684 1.386 . S
C4685 C4689 1.393 . S
C4686 H4678 0.950 . S
C4686 C4684 1.391 . S
C4686 C4687 1.400 . S
C4687 C4686 1.400 . S
C4687 C4688 1.398 . S
C4687 C4693 1.491 . S
C4688 H4679 0.950 . S
C4688 C4687 1.398 . S
C4688 C4689 1.391 . S
C4689 H4677 0.950 . S
C4689 C4685 1.393 . S
C4689 C4688 1.391 . S
C4690 H4680 0.950 . S
C4690 C4691 1.386 . S
C4690 C4692 1.391 . S
C4691 C4690 1.386 . S
C4691 C4695 1.393 . S
C4692 H4681 0.950 . S
C4692 C4690 1.391 . S
C4692 C4693 1.400 . S
C4693 C4687 1.491 . S
C4693 C4692 1.400 . S
C4693 C4694 1.398 . S
C4694 H4682 0.950 . S
C4694 C4693 1.398 . S
C4694 C4695 1.391 . S
C4695 H4683 0.950 . S
C4695 C4691 1.393 . S
C4695 C4694 1.391 . S
H4696 C4704 0.950 . S
H4697 C4709 0.950 . S
H4698 C4706 0.950 . S
H4699 C4708 0.950 . S
H4700 C4710 0.950 . S
H4701 C4712 0.950 . S
H4702 C4714 0.950 . S
H4703 C4715 0.950 . S
C4704 H4696 0.950 . S
C4704 C4705 1.386 . S
C4704 C4706 1.391 . S
C4705 C4704 1.386 . S
C4705 C4709 1.393 . S
C4706 H4698 0.950 . S
C4706 C4704 1.391 . S
C4706 C4707 1.400 . S
C4707 C4706 1.400 . S
C4707 C4708 1.398 . S
C4707 C4713 1.491 . S
C4708 H4699 0.950 . S
C4708 C4707 1.398 . S
C4708 C4709 1.391 . S
C4709 H4697 0.950 . S
C4709 C4705 1.393 . S
C4709 C4708 1.391 . S
C4710 H4700 0.950 . S
C4710 C4711 1.386 . S
C4710 C4712 1.391 . S
C4711 C4710 1.386 . S
C4711 C4715 1.393 . S
C4712 H4701 0.950 . S
C4712 C4710 1.391 . S
C4712 C4713 1.400 . S
C4713 C4707 1.491 . S
C4713 C4712 1.400 . S
C4713 C4714 1.398 . S
C4714 H4702 0.950 . S
C4714 C4713 1.398 . S
C4714 C4715 1.391 . S
C4715 H4703 0.950 . S
C4715 C4711 1.393 . S
C4715 C4714 1.391 . S
H4716 C4724 0.950 . S
H4717 C4729 0.950 . S
H4718 C4726 0.950 . S
H4719 C4728 0.950 . S
H4720 C4730 0.950 . S
H4721 C4732 0.950 . S
H4722 C4734 0.950 . S
H4723 C4735 0.950 . S
C4724 H4716 0.950 . S
C4724 C4725 1.386 . S
C4724 C4726 1.391 . S
C4725 C4724 1.386 . S
C4725 C4729 1.393 . S
C4726 H4718 0.950 . S
C4726 C4724 1.391 . S
C4726 C4727 1.400 . S
C4727 C4726 1.400 . S
C4727 C4728 1.398 . S
C4727 C4733 1.491 . S
C4728 H4719 0.950 . S
C4728 C4727 1.398 . S
C4728 C4729 1.391 . S
C4729 H4717 0.950 . S
C4729 C4725 1.393 . S
C4729 C4728 1.391 . S
C4730 H4720 0.950 . S
C4730 C4731 1.386 . S
C4730 C4732 1.391 . S
C4731 C4730 1.386 . S
C4731 C4735 1.393 . S
C4732 H4721 0.950 . S
C4732 C4730 1.391 . S
C4732 C4733 1.400 . S
C4733 C4727 1.491 . S
C4733 C4732 1.400 . S
C4733 C4734 1.398 . S
C4734 H4722 0.950 . S
C4734 C4733 1.398 . S
C4734 C4735 1.391 . S
C4735 H4723 0.950 . S
C4735 C4731 1.393 . S
C4735 C4734 1.391 . S
H4736 C4744 0.950 . S
H4737 C4749 0.950 . S
H4738 C4746 0.950 . S
H4739 C4748 0.950 . S
H4740 C4750 0.950 . S
H4741 C4752 0.950 . S
H4742 C4754 0.950 . S
H4743 C4755 0.950 . S
C4744 H4736 0.950 . S
C4744 C4745 1.386 . S
C4744 C4746 1.391 . S
C4745 C4744 1.386 . S
C4745 C4749 1.393 . S
C4746 H4738 0.950 . S
C4746 C4744 1.391 . S
C4746 C4747 1.400 . S
C4747 C4746 1.400 . S
C4747 C4748 1.398 . S
C4747 C4753 1.491 . S
C4748 H4739 0.950 . S
C4748 C4747 1.398 . S
C4748 C4749 1.391 . S
C4749 H4737 0.950 . S
C4749 C4745 1.393 . S
C4749 C4748 1.391 . S
C4750 H4740 0.950 . S
C4750 C4751 1.386 . S
C4750 C4752 1.391 . S
C4751 C4750 1.386 . S
C4751 C4755 1.393 . S
C4752 H4741 0.950 . S
C4752 C4750 1.391 . S
C4752 C4753 1.400 . S
C4753 C4747 1.491 . S
C4753 C4752 1.400 . S
C4753 C4754 1.398 . S
C4754 H4742 0.950 . S
C4754 C4753 1.398 . S
C4754 C4755 1.391 . S
C4755 H4743 0.950 . S
C4755 C4751 1.393 . S
C4755 C4754 1.391 . S
H4756 C4764 0.950 . S
H4757 C4769 0.950 . S
H4758 C4766 0.950 . S
H4759 C4768 0.950 . S
H4760 C4770 0.950 . S
H4761 C4772 0.950 . S
H4762 C4774 0.950 . S
H4763 C4775 0.950 . S
C4764 H4756 0.950 . S
C4764 C4765 1.386 . S
C4764 C4766 1.391 . S
C4765 C4764 1.386 . S
C4765 C4769 1.393 . S
C4766 H4758 0.950 . S
C4766 C4764 1.391 . S
C4766 C4767 1.400 . S
C4767 C4766 1.400 . S
C4767 C4768 1.398 . S
C4767 C4773 1.491 . S
C4768 H4759 0.950 . S
C4768 C4767 1.398 . S
C4768 C4769 1.391 . S
C4769 H4757 0.950 . S
C4769 C4765 1.393 . S
C4769 C4768 1.391 . S
C4770 H4760 0.950 . S
C4770 C4771 1.386 . S
C4770 C4772 1.391 . S
C4771 C4770 1.386 . S
C4771 C4775 1.393 . S
C4772 H4761 0.950 . S
C4772 C4770 1.391 . S
C4772 C4773 1.400 . S
C4773 C4767 1.491 . S
C4773 C4772 1.400 . S
C4773 C4774 1.398 . S
C4774 H4762 0.950 . S
C4774 C4773 1.398 . S
C4774 C4775 1.391 . S
C4775 H4763 0.950 . S
C4775 C4771 1.393 . S
C4775 C4774 1.391 . S
H4776 C4784 0.950 . S
H4777 C4789 0.950 . S
H4778 C4786 0.950 . S
H4779 C4788 0.950 . S
H4780 C4790 0.950 . S
H4781 C4792 0.950 . S
H4782 C4794 0.950 . S
H4783 C4795 0.950 . S
C4784 H4776 0.950 . S
C4784 C4785 1.386 . S
C4784 C4786 1.391 . S
C4785 C4784 1.386 . S
C4785 C4789 1.393 . S
C4786 H4778 0.950 . S
C4786 C4784 1.391 . S
C4786 C4787 1.400 . S
C4787 C4786 1.400 . S
C4787 C4788 1.398 . S
C4787 C4793 1.491 . S
C4788 H4779 0.950 . S
C4788 C4787 1.398 . S
C4788 C4789 1.391 . S
C4789 H4777 0.950 . S
C4789 C4785 1.393 . S
C4789 C4788 1.391 . S
C4790 H4780 0.950 . S
C4790 C4791 1.386 . S
C4790 C4792 1.391 . S
C4791 C4790 1.386 . S
C4791 C4795 1.393 . S
C4792 H4781 0.950 . S
C4792 C4790 1.391 . S
C4792 C4793 1.400 . S
C4793 C4787 1.491 . S
C4793 C4792 1.400 . S
C4793 C4794 1.398 . S
C4794 H4782 0.950 . S
C4794 C4793 1.398 . S
C4794 C4795 1.391 . S
C4795 H4783 0.950 . S
C4795 C4791 1.393 . S
C4795 C4794 1.391 . S
H4796 C4804 0.950 . S
H4797 C4809 0.950 1_556 S
H4798 C4806 0.950 . S
H4799 C4808 0.950 1_556 S
H4800 C4810 0.950 1_556 S
H4801 C4812 0.950 1_556 S
H4802 C4814 0.950 . S
H4803 C4815 0.950 . S
C4804 H4796 0.950 . S
C4804 C4805 1.386 . S
C4804 C4806 1.391 1_565 S
C4805 C4804 1.386 . S
C4805 C4809 1.393 . S
C4806 H4798 0.950 . S
C4806 C4804 1.391 1_545 S
C4806 C4807 1.400 . S
C4807 C4806 1.400 . S
C4807 C4808 1.399 1_545 S
C4807 C4813 1.491 . S
C4808 H4799 0.950 1_554 S
C4808 C4807 1.399 1_565 S
C4808 C4809 1.392 . S
C4809 H4797 0.950 1_554 S
C4809 C4805 1.393 . S
C4809 C4808 1.392 . S
C4810 H4800 0.950 1_554 S
C4810 C4811 1.386 . S
C4810 C4812 1.391 . S
C4811 C4810 1.386 . S
C4811 C4815 1.393 . S
C4812 H4801 0.950 1_554 S
C4812 C4810 1.391 . S
C4812 C4813 1.400 . S
C4813 C4807 1.491 . S
C4813 C4812 1.400 . S
C4813 C4814 1.398 . S
C4814 H4802 0.950 . S
C4814 C4813 1.398 . S
C4814 C4815 1.391 . S
C4815 H4803 0.950 . S
C4815 C4811 1.393 . S
C4815 C4814 1.391 . S
H4816 C4824 0.950 . S
H4817 C4829 0.950 . S
H4818 C4826 0.950 . S
H4819 C4828 0.950 . S
H4820 C4830 0.950 . S
H4821 C4832 0.950 . S
H4822 C4834 0.950 . S
H4823 C4835 0.950 . S
C4824 H4816 0.950 . S
C4824 C4825 1.386 . S
C4824 C4826 1.391 . S
C4825 C4824 1.386 . S
C4825 C4829 1.393 . S
C4826 H4818 0.950 . S
C4826 C4824 1.391 . S
C4826 C4827 1.400 . S
C4827 C4826 1.400 . S
C4827 C4828 1.398 . S
C4827 C4833 1.491 . S
C4828 H4819 0.950 . S
C4828 C4827 1.398 . S
C4828 C4829 1.391 . S
C4829 H4817 0.950 . S
C4829 C4825 1.393 . S
C4829 C4828 1.391 . S
C4830 H4820 0.950 . S
C4830 C4831 1.386 . S
C4830 C4832 1.391 . S
C4831 C4830 1.386 . S
C4831 C4835 1.393 . S
C4832 H4821 0.950 . S
C4832 C4830 1.391 . S
C4832 C4833 1.400 . S
C4833 C4827 1.491 . S
C4833 C4832 1.400 . S
C4833 C4834 1.398 . S
C4834 H4822 0.950 . S
C4834 C4833 1.398 . S
C4834 C4835 1.391 . S
C4835 H4823 0.950 . S
C4835 C4831 1.393 . S
C4835 C4834 1.391 . S
H4836 C4844 0.950 . S
H4837 C4849 0.950 . S
H4838 C4846 0.950 . S
H4839 C4848 0.950 . S
H4840 C4850 0.950 . S
H4841 C4852 0.950 . S
H4842 C4854 0.925 1_556 S
H4843 C4855 0.950 1_556 S
C4844 H4836 0.950 . S
C4844 C4845 1.386 . S
C4844 C4846 1.391 . S
C4845 C4844 1.386 . S
C4845 C4849 1.393 1_556 S
C4846 H4838 0.950 . S
C4846 C4844 1.391 . S
C4846 C4847 1.400 1_556 S
C4847 C4846 1.400 1_554 S
C4847 C4848 1.398 . S
C4847 C4853 1.491 . S
C4848 H4839 0.950 . S
C4848 C4847 1.398 . S
C4848 C4849 1.391 . S
C4849 H4837 0.950 . S
C4849 C4845 1.393 1_554 S
C4849 C4848 1.391 . S
C4850 H4840 0.950 . S
C4850 C4851 1.386 . S
C4850 C4852 1.391 . S
C4851 C4850 1.386 . S
C4851 C4855 1.393 . S
C4852 H4841 0.950 . S
C4852 C4850 1.391 . S
C4852 C4853 1.400 . S
C4853 C4847 1.491 . S
C4853 C4852 1.400 . S
C4853 C4854 1.415 . S
C4854 H4842 0.925 1_554 S
C4854 C4853 1.415 . S
C4854 C4855 1.399 . S
C4855 H4843 0.950 1_554 S
C4855 C4851 1.393 . S
C4855 C4854 1.399 . S
H4856 C4864 0.950 . S
H4857 C4869 0.950 . S
H4858 C4866 0.950 . S
H4859 C4868 0.950 . S
H4860 C4870 0.950 . S
H4861 C4872 0.950 . S
H4862 C4874 0.950 . S
H4863 C4875 0.950 . S
C4864 H4856 0.950 . S
C4864 C4865 1.386 . S
C4864 C4866 1.391 . S
C4865 C4864 1.386 . S
C4865 C4869 1.393 . S
C4866 H4858 0.950 . S
C4866 C4864 1.391 . S
C4866 C4867 1.400 . S
C4867 C4866 1.400 . S
C4867 C4868 1.398 . S
C4867 C4873 1.491 . S
C4868 H4859 0.950 . S
C4868 C4867 1.398 . S
C4868 C4869 1.391 . S
C4869 H4857 0.950 . S
C4869 C4865 1.393 . S
C4869 C4868 1.391 . S
C4870 H4860 0.950 . S
C4870 C4871 1.386 . S
C4870 C4872 1.391 . S
C4871 C4870 1.386 . S
C4871 C4875 1.393 . S
C4872 H4861 0.950 . S
C4872 C4870 1.391 . S
C4872 C4873 1.400 . S
C4873 C4867 1.491 . S
C4873 C4872 1.400 . S
C4873 C4874 1.398 . S
C4874 H4862 0.950 . S
C4874 C4873 1.398 . S
C4874 C4875 1.391 . S
C4875 H4863 0.950 . S
C4875 C4871 1.393 . S
C4875 C4874 1.391 . S
H4876 C4884 0.950 . S
H4877 C4889 0.950 . S
H4878 C4886 0.950 . S
H4879 C4888 0.950 . S
H4880 C4890 0.950 . S
H4881 C4892 0.950 . S
H4882 C4894 0.950 . S
H4883 C4895 0.950 . S
C4884 H4876 0.950 . S
C4884 C4885 1.386 . S
C4884 C4886 1.391 . S
C4885 C4884 1.386 . S
C4885 C4889 1.393 . S
C4886 H4878 0.950 . S
C4886 C4884 1.391 . S
C4886 C4887 1.400 . S
C4887 C4886 1.400 . S
C4887 C4888 1.398 . S
C4887 C4893 1.491 . S
C4888 H4879 0.950 . S
C4888 C4887 1.398 . S
C4888 C4889 1.391 . S
C4889 H4877 0.950 . S
C4889 C4885 1.393 . S
C4889 C4888 1.391 . S
C4890 H4880 0.950 . S
C4890 C4891 1.386 . S
C4890 C4892 1.391 . S
C4891 C4890 1.386 . S
C4891 C4895 1.393 . S
C4892 H4881 0.950 . S
C4892 C4890 1.391 . S
C4892 C4893 1.400 . S
C4893 C4887 1.491 . S
C4893 C4892 1.400 . S
C4893 C4894 1.398 . S
C4894 H4882 0.950 . S
C4894 C4893 1.398 . S
C4894 C4895 1.391 . S
C4895 H4883 0.950 . S
C4895 C4891 1.393 . S
C4895 C4894 1.391 . S
H4896 C4904 0.950 . S
H4897 C4909 0.950 . S
H4898 C4906 0.950 . S
H4899 C4908 0.950 . S
H4900 C4910 0.950 . S
H4901 C4912 0.950 . S
H4902 C4914 0.950 . S
H4903 C4915 0.950 . S
C4904 H4896 0.950 . S
C4904 C4905 1.386 . S
C4904 C4906 1.391 . S
C4905 C4904 1.386 . S
C4905 C4909 1.393 . S
C4906 H4898 0.950 . S
C4906 C4904 1.391 . S
C4906 C4907 1.400 . S
C4907 C4906 1.400 . S
C4907 C4908 1.398 . S
C4907 C4913 1.491 . S
C4908 H4899 0.950 . S
C4908 C4907 1.398 . S
C4908 C4909 1.391 . S
C4909 H4897 0.950 . S
C4909 C4905 1.393 . S
C4909 C4908 1.391 . S
C4910 H4900 0.950 . S
C4910 C4911 1.386 . S
C4910 C4912 1.391 . S
C4911 C4910 1.386 . S
C4911 C4915 1.393 . S
C4912 H4901 0.950 . S
C4912 C4910 1.391 . S
C4912 C4913 1.400 . S
C4913 C4907 1.491 . S
C4913 C4912 1.400 . S
C4913 C4914 1.398 . S
C4914 H4902 0.950 . S
C4914 C4913 1.398 . S
C4914 C4915 1.391 . S
C4915 H4903 0.950 . S
C4915 C4911 1.393 . S
C4915 C4914 1.391 . S
H4916 C4924 0.950 . S
H4917 C4929 0.950 . S
H4918 C4926 0.950 . S
H4919 C4928 0.950 . S
H4920 C4930 0.950 . S
H4921 C4932 0.950 . S
H4922 C4934 0.950 . S
H4923 C4935 0.950 . S
C4924 H4916 0.950 . S
C4924 C4925 1.386 . S
C4924 C4926 1.391 . S
C4925 C4924 1.386 . S
C4925 C4929 1.393 . S
C4926 H4918 0.950 . S
C4926 C4924 1.391 . S
C4926 C4927 1.400 . S
C4927 C4926 1.400 . S
C4927 C4928 1.398 . S
C4927 C4933 1.491 . S
C4928 H4919 0.950 . S
C4928 C4927 1.398 . S
C4928 C4929 1.391 . S
C4929 H4917 0.950 . S
C4929 C4925 1.393 . S
C4929 C4928 1.391 . S
C4930 H4920 0.950 . S
C4930 C4931 1.386 . S
C4930 C4932 1.391 . S
C4931 C4930 1.386 . S
C4931 C4935 1.393 . S
C4932 H4921 0.950 . S
C4932 C4930 1.391 . S
C4932 C4933 1.400 . S
C4933 C4927 1.491 . S
C4933 C4932 1.400 . S
C4933 C4934 1.398 . S
C4934 H4922 0.950 . S
C4934 C4933 1.398 . S
C4934 C4935 1.391 . S
C4935 H4923 0.950 . S
C4935 C4931 1.393 . S
C4935 C4934 1.391 . S
H4936 C4944 0.950 . S
H4937 C4949 0.950 . S
H4938 C4946 0.921 1_556 S
H4939 C4948 0.950 . S
H4940 C4950 0.950 . S
H4941 C4952 0.950 . S
H4942 C4954 0.950 1_556 S
H4943 C4955 0.950 1_556 S
C4944 H4936 0.950 . S
C4944 C4945 1.386 . S
C4944 C4946 1.391 . S
C4945 C4944 1.386 . S
C4945 C4949 1.393 . S
C4946 H4938 0.921 1_554 S
C4946 C4944 1.391 . S
C4946 C4947 1.400 . S
C4947 C4946 1.400 . S
C4947 C4948 1.398 . S
C4947 C4953 1.491 . S
C4948 H4939 0.950 . S
C4948 C4947 1.398 . S
C4948 C4949 1.391 . S
C4949 H4937 0.950 . S
C4949 C4945 1.393 . S
C4949 C4948 1.391 . S
C4950 H4940 0.950 . S
C4950 C4951 1.386 . S
C4950 C4952 1.391 . S
C4951 C4950 1.386 . S
C4951 C4955 1.393 . S
C4952 H4941 0.950 . S
C4952 C4950 1.391 . S
C4952 C4953 1.400 . S
C4953 C4947 1.491 . S
C4953 C4952 1.400 . S
C4953 C4954 1.398 . S
C4954 H4942 0.950 1_554 S
C4954 C4953 1.398 . S
C4954 C4955 1.391 . S
C4955 H4943 0.950 1_554 S
C4955 C4951 1.393 . S
C4955 C4954 1.391 . S
H4956 C4964 0.950 . S
H4957 C4969 0.950 . S
H4958 C4966 0.950 . S
H4959 C4968 0.950 . S
H4960 C4970 0.950 . S
H4961 C4972 0.950 . S
H4962 C4974 0.950 . S
H4963 C4975 0.950 . S
C4964 H4956 0.950 . S
C4964 C4965 1.386 . S
C4964 C4966 1.391 . S
C4965 C4964 1.386 . S
C4965 C4969 1.393 . S
C4966 H4958 0.950 . S
C4966 C4964 1.391 . S
C4966 C4967 1.400 . S
C4967 C4966 1.400 . S
C4967 C4968 1.398 . S
C4967 C4973 1.491 . S
C4968 H4959 0.950 . S
C4968 C4967 1.398 . S
C4968 C4969 1.391 . S
C4969 H4957 0.950 . S
C4969 C4965 1.393 . S
C4969 C4968 1.391 . S
C4970 H4960 0.950 . S
C4970 C4971 1.386 . S
C4970 C4972 1.391 . S
C4971 C4970 1.386 . S
C4971 C4975 1.393 . S
C4972 H4961 0.950 . S
C4972 C4970 1.391 . S
C4972 C4973 1.400 . S
C4973 C4967 1.491 . S
C4973 C4972 1.400 . S
C4973 C4974 1.398 . S
C4974 H4962 0.950 . S
C4974 C4973 1.398 . S
C4974 C4975 1.391 . S
C4975 H4963 0.950 . S
C4975 C4971 1.393 . S
C4975 C4974 1.391 . S
H4976 C4984 0.950 . S
H4977 C4989 0.950 . S
H4978 C4986 0.950 . S
H4979 C4988 0.950 . S
H4980 C4990 0.950 1_554 S
H4981 C4992 0.950 . S
H4982 C4994 0.950 . S
H4983 C4995 0.950 . S
C4984 H4976 0.950 . S
C4984 C4985 1.386 . S
C4984 C4986 1.391 . S
C4985 C4984 1.386 . S
C4985 C4989 1.393 . S
C4986 H4978 0.950 . S
C4986 C4984 1.391 . S
C4986 C4987 1.400 . S
C4987 C4986 1.400 . S
C4987 C4988 1.398 . S
C4987 C4993 1.491 . S
C4988 H4979 0.950 . S
C4988 C4987 1.398 . S
C4988 C4989 1.391 . S
C4989 H4977 0.950 . S
C4989 C4985 1.393 . S
C4989 C4988 1.391 . S
C4990 H4980 0.950 1_556 S
C4990 C4991 1.386 . S
C4990 C4992 1.391 . S
C4991 C4990 1.386 . S
C4991 C4995 1.393 . S
C4992 H4981 0.950 . S
C4992 C4990 1.391 . S
C4992 C4993 1.400 . S
C4993 C4987 1.491 . S
C4993 C4992 1.400 . S
C4993 C4994 1.398 . S
C4994 H4982 0.950 . S
C4994 C4993 1.398 . S
C4994 C4995 1.391 . S
C4995 H4983 0.950 . S
C4995 C4991 1.393 . S
C4995 C4994 1.391 . S
H4996 C5004 0.950 . S
H4997 C5009 0.950 . S
H4998 C5006 0.950 . S
H4999 C5008 0.950 . S
H5000 C5010 0.950 . S
H5001 C5012 0.950 . S
H5002 C5014 0.950 . S
H5003 C5015 0.950 . S
C5004 H4996 0.950 . S
C5004 C5005 1.386 . S
C5004 C5006 1.391 . S
C5005 C5004 1.386 . S
C5005 C5009 1.393 . S
C5006 H4998 0.950 . S
C5006 C5004 1.391 . S
C5006 C5007 1.400 . S
C5007 C5006 1.400 . S
C5007 C5008 1.398 . S
C5007 C5013 1.491 . S
C5008 H4999 0.950 . S
C5008 C5007 1.398 . S
C5008 C5009 1.391 . S
C5009 H4997 0.950 . S
C5009 C5005 1.393 . S
C5009 C5008 1.391 . S
C5010 H5000 0.950 . S
C5010 C5011 1.386 . S
C5010 C5012 1.391 . S
C5011 C5010 1.386 . S
C5011 C5015 1.393 . S
C5012 H5001 0.950 . S
C5012 C5010 1.391 . S
C5012 C5013 1.400 . S
C5013 C5007 1.491 . S
C5013 C5012 1.400 . S
C5013 C5014 1.398 . S
C5014 H5002 0.950 . S
C5014 C5013 1.398 . S
C5014 C5015 1.391 . S
C5015 H5003 0.950 . S
C5015 C5011 1.393 . S
C5015 C5014 1.391 . S
H5016 C5024 0.950 . S
H5017 C5029 0.950 . S
H5018 C5026 0.950 . S
H5019 C5028 0.950 . S
H5020 C5030 0.950 . S
H5021 C5032 0.950 . S
H5022 C5034 0.950 . S
H5023 C5035 0.950 . S
C5024 H5016 0.950 . S
C5024 C5025 1.386 . S
C5024 C5026 1.391 . S
C5025 C5024 1.386 . S
C5025 C5029 1.393 . S
C5026 H5018 0.950 . S
C5026 C5024 1.391 . S
C5026 C5027 1.400 . S
C5027 C5026 1.400 . S
C5027 C5028 1.398 . S
C5027 C5033 1.491 . S
C5028 H5019 0.950 . S
C5028 C5027 1.398 . S
C5028 C5029 1.391 . S
C5029 H5017 0.950 . S
C5029 C5025 1.393 . S
C5029 C5028 1.391 . S
C5030 H5020 0.950 . S
C5030 C5031 1.386 . S
C5030 C5032 1.391 . S
C5031 C5030 1.386 . S
C5031 C5035 1.393 . S
C5032 H5021 0.950 . S
C5032 C5030 1.391 . S
C5032 C5033 1.400 . S
C5033 C5027 1.491 . S
C5033 C5032 1.400 . S
C5033 C5034 1.398 . S
C5034 H5022 0.950 . S
C5034 C5033 1.398 . S
C5034 C5035 1.391 . S
C5035 H5023 0.950 . S
C5035 C5031 1.393 . S
C5035 C5034 1.391 . S
H5036 C5044 0.950 . S
H5037 C5049 0.950 . S
H5038 C5046 0.950 . S
H5039 C5048 0.950 . S
H5040 C5050 0.950 . S
H5041 C5052 0.950 . S
H5042 C5054 0.950 . S
H5043 C5055 0.950 . S
C5044 H5036 0.950 . S
C5044 C5045 1.386 . S
C5044 C5046 1.391 . S
C5045 C5044 1.386 . S
C5045 C5049 1.393 . S
C5046 H5038 0.950 . S
C5046 C5044 1.391 . S
C5046 C5047 1.400 . S
C5047 C5046 1.400 . S
C5047 C5048 1.398 . S
C5047 C5053 1.491 . S
C5048 H5039 0.950 . S
C5048 C5047 1.398 . S
C5048 C5049 1.391 . S
C5049 H5037 0.950 . S
C5049 C5045 1.393 . S
C5049 C5048 1.391 . S
C5050 H5040 0.950 . S
C5050 C5051 1.386 . S
C5050 C5052 1.391 . S
C5051 C5050 1.386 . S
C5051 C5055 1.393 . S
C5052 H5041 0.950 . S
C5052 C5050 1.391 . S
C5052 C5053 1.400 . S
C5053 C5047 1.491 . S
C5053 C5052 1.400 . S
C5053 C5054 1.398 . S
C5054 H5042 0.950 . S
C5054 C5053 1.398 . S
C5054 C5055 1.391 . S
C5055 H5043 0.950 . S
C5055 C5051 1.393 . S
C5055 C5054 1.391 . S
H5056 C5064 0.950 . S
H5057 C5069 0.950 . S
H5058 C5066 0.950 . S
H5059 C5068 0.950 . S
H5060 C5070 0.950 . S
H5061 C5072 0.950 . S
H5062 C5074 0.950 . S
H5063 C5075 0.950 . S
C5064 H5056 0.950 . S
C5064 C5065 1.386 . S
C5064 C5066 1.391 . S
C5065 C5064 1.386 . S
C5065 C5069 1.393 . S
C5066 H5058 0.950 . S
C5066 C5064 1.391 . S
C5066 C5067 1.400 . S
C5067 C5066 1.400 . S
C5067 C5068 1.398 . S
C5067 C5073 1.491 . S
C5068 H5059 0.950 . S
C5068 C5067 1.398 . S
C5068 C5069 1.391 . S
C5069 H5057 0.950 . S
C5069 C5065 1.393 . S
C5069 C5068 1.391 . S
C5070 H5060 0.950 . S
C5070 C5071 1.386 . S
C5070 C5072 1.391 . S
C5071 C5070 1.386 . S
C5071 C5075 1.393 . S
C5072 H5061 0.950 . S
C5072 C5070 1.391 . S
C5072 C5073 1.400 . S
C5073 C5067 1.491 . S
C5073 C5072 1.400 . S
C5073 C5074 1.398 . S
C5074 H5062 0.950 . S
C5074 C5073 1.398 . S
C5074 C5075 1.391 . S
C5075 H5063 0.950 . S
C5075 C5071 1.393 . S
C5075 C5074 1.391 . S
H5076 C5084 0.950 . S
H5077 C5089 0.950 . S
H5078 C5086 0.950 . S
H5079 C5088 0.950 . S
H5080 C5090 0.950 . S
H5081 C5092 0.950 . S
H5082 C5094 0.950 . S
H5083 C5095 0.950 . S
C5084 H5076 0.950 . S
C5084 C5085 1.386 . S
C5084 C5086 1.391 . S
C5085 C5084 1.386 . S
C5085 C5089 1.393 . S
C5086 H5078 0.950 . S
C5086 C5084 1.391 . S
C5086 C5087 1.400 . S
C5087 C5086 1.400 . S
C5087 C5088 1.398 . S
C5087 C5093 1.491 . S
C5088 H5079 0.950 . S
C5088 C5087 1.398 . S
C5088 C5089 1.391 . S
C5089 H5077 0.950 . S
C5089 C5085 1.393 . S
C5089 C5088 1.391 . S
C5090 H5080 0.950 . S
C5090 C5091 1.386 . S
C5090 C5092 1.391 . S
C5091 C5090 1.386 . S
C5091 C5095 1.393 . S
C5092 H5081 0.950 . S
C5092 C5090 1.391 . S
C5092 C5093 1.400 . S
C5093 C5087 1.491 . S
C5093 C5092 1.400 . S
C5093 C5094 1.398 . S
C5094 H5082 0.950 . S
C5094 C5093 1.398 . S
C5094 C5095 1.391 . S
C5095 H5083 0.950 . S
C5095 C5091 1.393 . S
C5095 C5094 1.391 . S
H5096 C5104 0.950 . S
H5097 C5109 0.950 . S
H5098 C5106 0.950 . S
H5099 C5108 0.950 . S
H5100 C5110 0.950 . S
H5101 C5112 1.013 . S
H5102 C5114 0.950 . S
H5103 C5115 0.950 . S
C5104 H5096 0.950 . S
C5104 C5105 1.386 . S
C5104 C5106 1.391 1_655 S
C5105 C5104 1.386 . S
C5105 C5109 1.393 . S
C5106 H5098 0.950 . S
C5106 C5104 1.391 1_455 S
C5106 C5107 1.400 1_455 S
C5107 C5106 1.400 1_655 S
C5107 C5108 1.398 . S
C5107 C5113 1.491 1_655 S
C5108 H5099 0.950 . S
C5108 C5107 1.398 . S
C5108 C5109 1.391 . S
C5109 H5097 0.950 . S
C5109 C5105 1.393 . S
C5109 C5108 1.391 . S
C5110 H5100 0.950 . S
C5110 C5111 1.386 . S
C5110 C5112 1.359 1_455 S
C5111 C5110 1.386 . S
C5111 C5115 1.393 . S
C5112 H5101 1.013 . S
C5112 C5110 1.359 1_655 S
C5112 C5113 1.374 1_655 S
C5113 C5107 1.491 1_455 S
C5113 C5112 1.374 1_455 S
C5113 C5114 1.398 . S
C5114 H5102 0.950 . S
C5114 C5113 1.398 . S
C5114 C5115 1.391 . S
C5115 H5103 0.950 . S
C5115 C5111 1.393 . S
C5115 C5114 1.391 . S
H5116 C5124 0.950 . S
H5117 C5129 0.950 . S
H5118 C5126 0.950 . S
H5119 C5128 0.950 . S
H5120 C5130 0.950 . S
H5121 C5132 0.950 . S
H5122 C5134 0.950 . S
H5123 C5135 0.950 . S
C5124 H5116 0.950 . S
C5124 C5125 1.386 . S
C5124 C5126 1.391 . S
C5125 C5124 1.386 . S
C5125 C5129 1.393 . S
C5126 H5118 0.950 . S
C5126 C5124 1.391 . S
C5126 C5127 1.400 . S
C5127 C5126 1.400 . S
C5127 C5128 1.398 . S
C5127 C5133 1.491 . S
C5128 H5119 0.950 . S
C5128 C5127 1.398 . S
C5128 C5129 1.391 . S
C5129 H5117 0.950 . S
C5129 C5125 1.393 . S
C5129 C5128 1.391 . S
C5130 H5120 0.950 . S
C5130 C5131 1.386 . S
C5130 C5132 1.391 . S
C5131 C5130 1.386 . S
C5131 C5135 1.393 . S
C5132 H5121 0.950 . S
C5132 C5130 1.391 . S
C5132 C5133 1.400 . S
C5133 C5127 1.491 . S
C5133 C5132 1.400 . S
C5133 C5134 1.398 . S
C5134 H5122 0.950 . S
C5134 C5133 1.398 . S
C5134 C5135 1.391 . S
C5135 H5123 0.950 . S
C5135 C5131 1.393 . S
C5135 C5134 1.391 . S
H5136 C5144 0.950 . S
H5137 C5149 0.950 . S
H5138 C5146 0.950 . S
H5139 C5148 0.950 . S
H5140 C5150 0.950 . S
H5141 C5152 0.950 . S
H5142 C5154 0.950 . S
H5143 C5155 0.950 . S
C5144 H5136 0.950 . S
C5144 C5145 1.386 . S
C5144 C5146 1.391 . S
C5145 C5144 1.386 . S
C5145 C5149 1.393 . S
C5146 H5138 0.950 . S
C5146 C5144 1.391 . S
C5146 C5147 1.400 . S
C5147 C5146 1.400 . S
C5147 C5148 1.398 . S
C5147 C5153 1.491 . S
C5148 H5139 0.950 . S
C5148 C5147 1.398 . S
C5148 C5149 1.391 . S
C5149 H5137 0.950 . S
C5149 C5145 1.393 . S
C5149 C5148 1.391 . S
C5150 H5140 0.950 . S
C5150 C5151 1.386 . S
C5150 C5152 1.391 . S
C5151 C5150 1.386 . S
C5151 C5155 1.393 . S
C5152 H5141 0.950 . S
C5152 C5150 1.391 . S
C5152 C5153 1.400 . S
C5153 C5147 1.491 . S
C5153 C5152 1.400 . S
C5153 C5154 1.398 . S
C5154 H5142 0.950 . S
C5154 C5153 1.398 . S
C5154 C5155 1.391 . S
C5155 H5143 0.950 . S
C5155 C5151 1.393 . S
C5155 C5154 1.391 . S
H5156 C5164 0.950 . S
H5157 C5169 0.950 . S
H5158 C5166 0.950 . S
H5159 C5168 0.950 . S
H5160 C5170 0.950 . S
H5161 C5172 0.950 . S
H5162 C5174 0.950 . S
H5163 C5175 0.950 . S
C5164 H5156 0.950 . S
C5164 C5165 1.386 . S
C5164 C5166 1.391 . S
C5165 C5164 1.386 . S
C5165 C5169 1.393 . S
C5166 H5158 0.950 . S
C5166 C5164 1.391 . S
C5166 C5167 1.400 . S
C5167 C5166 1.400 . S
C5167 C5168 1.398 . S
C5167 C5173 1.491 . S
C5168 H5159 0.950 . S
C5168 C5167 1.398 . S
C5168 C5169 1.391 . S
C5169 H5157 0.950 . S
C5169 C5165 1.393 . S
C5169 C5168 1.391 . S
C5170 H5160 0.950 . S
C5170 C5171 1.386 . S
C5170 C5172 1.391 . S
C5171 C5170 1.386 . S
C5171 C5175 1.393 . S
C5172 H5161 0.950 . S
C5172 C5170 1.391 . S
C5172 C5173 1.400 . S
C5173 C5167 1.491 . S
C5173 C5172 1.400 . S
C5173 C5174 1.398 . S
C5174 H5162 0.950 . S
C5174 C5173 1.398 . S
C5174 C5175 1.391 . S
C5175 H5163 0.950 . S
C5175 C5171 1.393 . S
C5175 C5174 1.391 . S
H5176 C5184 0.950 . S
H5177 C5189 0.950 . S
H5178 C5186 0.950 . S
H5179 C5188 0.950 . S
H5180 C5190 0.950 . S
H5181 C5192 0.950 . S
H5182 C5194 0.950 . S
H5183 C5195 0.950 . S
C5184 H5176 0.950 . S
C5184 C5185 1.386 . S
C5184 C5186 1.391 . S
C5185 C5184 1.386 . S
C5185 C5189 1.393 . S
C5186 H5178 0.950 . S
C5186 C5184 1.391 . S
C5186 C5187 1.400 . S
C5187 C5186 1.400 . S
C5187 C5188 1.398 . S
C5187 C5193 1.491 . S
C5188 H5179 0.950 . S
C5188 C5187 1.398 . S
C5188 C5189 1.391 . S
C5189 H5177 0.950 . S
C5189 C5185 1.393 . S
C5189 C5188 1.391 . S
C5190 H5180 0.950 . S
C5190 C5191 1.386 . S
C5190 C5192 1.391 1_455 S
C5191 C5190 1.386 . S
C5191 C5195 1.393 1_455 S
C5192 H5181 0.950 . S
C5192 C5190 1.391 1_655 S
C5192 C5193 1.400 . S
C5193 C5187 1.491 . S
C5193 C5192 1.400 . S
C5193 C5194 1.398 . S
C5194 H5182 0.950 . S
C5194 C5193 1.398 . S
C5194 C5195 1.391 . S
C5195 H5183 0.950 . S
C5195 C5191 1.393 1_655 S
C5195 C5194 1.391 . S
H5196 C5204 0.950 . S
H5197 C5209 0.950 . S
H5198 C5206 0.950 . S
H5199 C5208 0.950 . S
H5200 C5210 0.950 . S
H5201 C5212 0.950 . S
H5202 C5214 0.950 . S
H5203 C5215 0.950 . S
C5204 H5196 0.950 . S
C5204 C5205 1.386 . S
C5204 C5206 1.391 . S
C5205 C5204 1.386 . S
C5205 C5209 1.393 . S
C5206 H5198 0.950 . S
C5206 C5204 1.391 . S
C5206 C5207 1.400 . S
C5207 C5206 1.400 . S
C5207 C5208 1.398 . S
C5207 C5213 1.491 . S
C5208 H5199 0.950 . S
C5208 C5207 1.398 . S
C5208 C5209 1.391 . S
C5209 H5197 0.950 . S
C5209 C5205 1.393 . S
C5209 C5208 1.391 . S
C5210 H5200 0.950 . S
C5210 C5211 1.386 . S
C5210 C5212 1.391 . S
C5211 C5210 1.386 . S
C5211 C5215 1.393 . S
C5212 H5201 0.950 . S
C5212 C5210 1.391 . S
C5212 C5213 1.400 . S
C5213 C5207 1.491 . S
C5213 C5212 1.400 . S
C5213 C5214 1.398 . S
C5214 H5202 0.950 . S
C5214 C5213 1.398 . S
C5214 C5215 1.391 . S
C5215 H5203 0.950 . S
C5215 C5211 1.393 . S
C5215 C5214 1.391 . S
H5216 C5224 0.950 . S
H5217 C5229 0.950 . S
H5218 C5226 0.950 . S
H5219 C5228 0.950 . S
H5220 C5230 0.950 . S
H5221 C5232 0.950 . S
H5222 C5234 0.950 . S
H5223 C5235 0.950 . S
C5224 H5216 0.950 . S
C5224 C5225 1.386 . S
C5224 C5226 1.391 . S
C5225 C5224 1.386 . S
C5225 C5229 1.393 . S
C5226 H5218 0.950 . S
C5226 C5224 1.391 . S
C5226 C5227 1.400 . S
C5227 C5226 1.400 . S
C5227 C5228 1.398 . S
C5227 C5233 1.491 . S
C5228 H5219 0.950 . S
C5228 C5227 1.398 . S
C5228 C5229 1.391 . S
C5229 H5217 0.950 . S
C5229 C5225 1.393 . S
C5229 C5228 1.391 . S
C5230 H5220 0.950 . S
C5230 C5231 1.386 . S
C5230 C5232 1.391 . S
C5231 C5230 1.386 . S
C5231 C5235 1.393 . S
C5232 H5221 0.950 . S
C5232 C5230 1.391 . S
C5232 C5233 1.400 . S
C5233 C5227 1.491 . S
C5233 C5232 1.400 . S
C5233 C5234 1.398 . S
C5234 H5222 0.950 . S
C5234 C5233 1.398 . S
C5234 C5235 1.391 . S
C5235 H5223 0.950 . S
C5235 C5231 1.393 . S
C5235 C5234 1.391 . S
H5236 C5244 0.950 . S
H5237 C5249 0.950 . S
H5238 C5246 0.950 . S
H5239 C5248 0.950 . S
H5240 C5250 0.950 . S
H5241 C5252 0.950 . S
H5242 C5254 0.950 . S
H5243 C5255 0.950 . S
C5244 H5236 0.950 . S
C5244 C5245 1.386 . S
C5244 C5246 1.391 . S
C5245 C5244 1.386 . S
C5245 C5249 1.393 . S
C5246 H5238 0.950 . S
C5246 C5244 1.391 . S
C5246 C5247 1.400 . S
C5247 C5246 1.400 . S
C5247 C5248 1.398 . S
C5247 C5253 1.491 . S
C5248 H5239 0.950 . S
C5248 C5247 1.398 . S
C5248 C5249 1.391 . S
C5249 H5237 0.950 . S
C5249 C5245 1.393 . S
C5249 C5248 1.391 . S
C5250 H5240 0.950 . S
C5250 C5251 1.386 . S
C5250 C5252 1.391 1_545 S
C5251 C5250 1.386 . S
C5251 C5255 1.393 1_545 S
C5252 H5241 0.950 . S
C5252 C5250 1.391 1_565 S
C5252 C5253 1.400 . S
C5253 C5247 1.491 . S
C5253 C5252 1.400 . S
C5253 C5254 1.398 . S
C5254 H5242 0.950 . S
C5254 C5253 1.398 . S
C5254 C5255 1.391 . S
C5255 H5243 0.950 . S
C5255 C5251 1.393 1_565 S
C5255 C5254 1.391 . S
H5256 C5264 0.950 . S
H5257 C5269 0.950 . S
H5258 C5266 0.950 . S
H5259 C5268 0.950 . S
H5260 C5270 0.950 . S
H5261 C5272 0.950 . S
H5262 C5274 0.950 . S
H5263 C5275 0.950 . S
C5264 H5256 0.950 . S
C5264 C5265 1.386 . S
C5264 C5266 1.391 . S
C5265 C5264 1.386 . S
C5265 C5269 1.393 . S
C5266 H5258 0.950 . S
C5266 C5264 1.391 . S
C5266 C5267 1.400 . S
C5267 C5266 1.400 . S
C5267 C5268 1.398 . S
C5267 C5273 1.491 . S
C5268 H5259 0.950 . S
C5268 C5267 1.398 . S
C5268 C5269 1.391 . S
C5269 H5257 0.950 . S
C5269 C5265 1.393 . S
C5269 C5268 1.391 . S
C5270 H5260 0.950 . S
C5270 C5271 1.386 . S
C5270 C5272 1.391 . S
C5271 C5270 1.386 . S
C5271 C5275 1.393 . S
C5272 H5261 0.950 . S
C5272 C5270 1.391 . S
C5272 C5273 1.400 . S
C5273 C5267 1.491 . S
C5273 C5272 1.400 . S
C5273 C5274 1.398 . S
C5274 H5262 0.950 . S
C5274 C5273 1.398 . S
C5274 C5275 1.391 . S
C5275 H5263 0.950 . S
C5275 C5271 1.393 . S
C5275 C5274 1.391 . S
H5276 C5284 0.950 . S
H5277 C5289 0.950 . S
H5278 C5286 0.950 . S
H5279 C5288 0.945 1_556 S
H5280 C5290 0.950 1_556 S
H5281 C5292 0.950 1_556 S
H5282 C5294 0.950 . S
H5283 C5295 0.950 . S
C5284 H5276 0.950 . S
C5284 C5285 1.386 . S
C5284 C5286 1.391 . S
C5285 C5284 1.386 . S
C5285 C5289 1.393 1_554 S
C5286 H5278 0.950 . S
C5286 C5284 1.391 . S
C5286 C5287 1.400 . S
C5287 C5286 1.400 . S
C5287 C5288 1.404 . S
C5287 C5293 1.491 . S
C5288 H5279 0.945 1_554 S
C5288 C5287 1.404 . S
C5288 C5289 1.389 1_554 S
C5289 H5277 0.950 . S
C5289 C5285 1.393 1_556 S
C5289 C5288 1.389 1_556 S
C5290 H5280 0.950 1_554 S
C5290 C5291 1.386 . S
C5290 C5292 1.391 . S
C5291 C5290 1.386 . S
C5291 C5295 1.393 . S
C5292 H5281 0.950 1_554 S
C5292 C5290 1.391 . S
C5292 C5293 1.400 . S
C5293 C5287 1.491 . S
C5293 C5292 1.400 . S
C5293 C5294 1.398 . S
C5294 H5282 0.950 . S
C5294 C5293 1.398 . S
C5294 C5295 1.391 . S
C5295 H5283 0.950 . S
C5295 C5291 1.393 . S
C5295 C5294 1.391 . S
H5296 C5304 0.950 . S
H5297 C5309 0.950 . S
H5298 C5306 0.950 . S
H5299 C5308 0.950 . S
H5300 C5310 0.950 . S
H5301 C5312 0.950 . S
H5302 C5314 0.950 . S
H5303 C5315 0.950 . S
C5304 H5296 0.950 . S
C5304 C5305 1.386 . S
C5304 C5306 1.391 . S
C5305 C5304 1.386 . S
C5305 C5309 1.393 . S
C5306 H5298 0.950 . S
C5306 C5304 1.391 . S
C5306 C5307 1.400 . S
C5307 C5306 1.400 . S
C5307 C5308 1.398 . S
C5307 C5313 1.491 . S
C5308 H5299 0.950 . S
C5308 C5307 1.398 . S
C5308 C5309 1.391 . S
C5309 H5297 0.950 . S
C5309 C5305 1.393 . S
C5309 C5308 1.391 . S
C5310 H5300 0.950 . S
C5310 C5311 1.386 . S
C5310 C5312 1.391 . S
C5311 C5310 1.386 . S
C5311 C5315 1.393 . S
C5312 H5301 0.950 . S
C5312 C5310 1.391 . S
C5312 C5313 1.400 . S
C5313 C5307 1.491 . S
C5313 C5312 1.400 . S
C5313 C5314 1.398 . S
C5314 H5302 0.950 . S
C5314 C5313 1.398 . S
C5314 C5315 1.391 . S
C5315 H5303 0.950 . S
C5315 C5311 1.393 . S
C5315 C5314 1.391 . S
H5316 C5324 0.950 . S
H5317 C5329 0.950 . S
H5318 C5326 0.950 . S
H5319 C5328 0.950 . S
H5320 C5330 0.950 . S
H5321 C5332 0.950 1_556 S
H5322 C5334 0.950 . S
H5323 C5335 0.950 . S
C5324 H5316 0.950 . S
C5324 C5325 1.386 . S
C5324 C5326 1.391 . S
C5325 C5324 1.386 . S
C5325 C5329 1.393 . S
C5326 H5318 0.950 . S
C5326 C5324 1.391 . S
C5326 C5327 1.400 . S
C5327 C5326 1.400 . S
C5327 C5328 1.398 . S
C5327 C5333 1.491 . S
C5328 H5319 0.950 . S
C5328 C5327 1.398 . S
C5328 C5329 1.391 . S
C5329 H5317 0.950 . S
C5329 C5325 1.393 . S
C5329 C5328 1.391 . S
C5330 H5320 0.950 . S
C5330 C5331 1.386 1_556 S
C5330 C5332 1.391 1_556 S
C5331 C5330 1.386 1_554 S
C5331 C5335 1.393 . S
C5332 H5321 0.950 1_554 S
C5332 C5330 1.391 1_554 S
C5332 C5333 1.400 . S
C5333 C5327 1.491 . S
C5333 C5332 1.400 . S
C5333 C5334 1.398 . S
C5334 H5322 0.950 . S
C5334 C5333 1.398 . S
C5334 C5335 1.391 . S
C5335 H5323 0.950 . S
C5335 C5331 1.393 . S
C5335 C5334 1.391 . S
H5336 C5344 0.950 . S
H5337 C5349 0.950 . S
H5338 C5346 0.950 . S
H5339 C5348 0.950 . S
H5340 C5350 0.950 . S
H5341 C5352 0.950 . S
H5342 C5354 0.950 . S
H5343 C5355 0.950 . S
C5344 H5336 0.950 . S
C5344 C5345 1.386 . S
C5344 C5346 1.391 . S
C5345 C5344 1.386 . S
C5345 C5349 1.393 . S
C5346 H5338 0.950 . S
C5346 C5344 1.391 . S
C5346 C5347 1.400 . S
C5347 C5346 1.400 . S
C5347 C5348 1.398 . S
C5347 C5353 1.491 . S
C5348 H5339 0.950 . S
C5348 C5347 1.398 . S
C5348 C5349 1.391 . S
C5349 H5337 0.950 . S
C5349 C5345 1.393 . S
C5349 C5348 1.391 . S
C5350 H5340 0.950 . S
C5350 C5351 1.386 . S
C5350 C5352 1.391 . S
C5351 C5350 1.386 . S
C5351 C5355 1.393 . S
C5352 H5341 0.950 . S
C5352 C5350 1.391 . S
C5352 C5353 1.400 . S
C5353 C5347 1.491 . S
C5353 C5352 1.400 . S
C5353 C5354 1.398 . S
C5354 H5342 0.950 . S
C5354 C5353 1.398 . S
C5354 C5355 1.391 . S
C5355 H5343 0.950 . S
C5355 C5351 1.393 . S
C5355 C5354 1.391 . S
H5356 C5364 0.950 . S
H5357 C5369 0.950 . S
H5358 C5366 0.950 . S
H5359 C5368 0.950 . S
H5360 C5370 0.950 . S
H5361 C5372 0.950 . S
H5362 C5374 0.950 . S
H5363 C5375 0.950 . S
C5364 H5356 0.950 . S
C5364 C5365 1.386 . S
C5364 C5366 1.391 . S
C5365 C5364 1.386 . S
C5365 C5369 1.393 . S
C5366 H5358 0.950 . S
C5366 C5364 1.391 . S
C5366 C5367 1.400 . S
C5367 C5366 1.400 . S
C5367 C5368 1.398 . S
C5367 C5373 1.491 . S
C5368 H5359 0.950 . S
C5368 C5367 1.398 . S
C5368 C5369 1.391 . S
C5369 H5357 0.950 . S
C5369 C5365 1.393 . S
C5369 C5368 1.391 . S
C5370 H5360 0.950 . S
C5370 C5371 1.386 . S
C5370 C5372 1.391 . S
C5371 C5370 1.386 . S
C5371 C5375 1.393 . S
C5372 H5361 0.950 . S
C5372 C5370 1.391 . S
C5372 C5373 1.400 . S
C5373 C5367 1.491 . S
C5373 C5372 1.400 . S
C5373 C5374 1.398 . S
C5374 H5362 0.950 . S
C5374 C5373 1.398 . S
C5374 C5375 1.391 . S
C5375 H5363 0.950 . S
C5375 C5371 1.393 . S
C5375 C5374 1.391 . S
C3465 C665 1.671 . S
C3471 C2179 1.570 . S
C3485 C381 2.183 . S
C3491 C2262 2.151 . S
C3505 C460 1.613 . S
C3511 C2347 1.608 . S
C3531 C2427 1.504 . S
C3525 C585 1.667 . S
C3545 C108 1.574 . S
C3551 C2511 1.522 . S
C3571 C2604 0.956 . S
C3565 C196 1.039 . S
C3591 C2682 0.819 . S
C3585 C313 0.838 . S
C3605 C49 1.262 . S
C3611 C2767 1.165 . S
C3631 C2178 1.946 . S
C3625 C1457 2.034 1_455 S
C3645 C1545 0.502 . S
C3651 C2259 0.605 . S
C3671 C2346 1.132 . S
C3665 C1721 1.181 . S
C3691 C2431 1.693 . S
C3685 C1113 1.719 . S
C3705 C1428 2.141 1_455 S
C3711 C2515 2.000 . S
C3731 C2607 1.026 . S
C3725 C1516 1.096 . S
C3751 C2679 0.662 . S
C3745 C1692 0.669 . S
C3771 C2766 1.377 . S
C3765 C1085 1.464 . S
C3791 C2175 1.402 . S
C3785 C988 1.501 . S
C3805 C1817 1.979 . S
C3811 C2850 1.915 . S
C3831 C2924 2.091 . S
C3825 C2081 2.258 . S
C3851 C3019 0.454 . S
C3845 C1993 0.347 . S
C3865 C761 0.707 . S
C3871 C2763 0.747 . S
C3885 C821 1.427 . S
C3891 C2343 1.393 . S
C3905 C2053 2.348 . S
C3911 C3102 2.277 . S
C3931 C3187 0.704 . S
C3925 C1868 0.672 . S
C3951 C2168 1.591 1_565 S
C3945 C372 1.663 . S
C3971 C3195 2.149 . S
C3965 C645 2.179 . S
C3985 C577 1.588 . S
C3991 C2336 1.606 . S
C4005 C497 1.661 . S
C4011 C3108 1.536 . S
C4031 C2520 1.523 . S
C4025 C57 1.569 . S
C4045 C293 1.028 . S
C4051 C2931 0.934 . S
C4071 C2691 0.826 1_566 S
C4065 C205 0.783 . S
C4091 C3260 1.169 . S
C4085 C145 1.269 . S
C4111 C2187 1.930 . S
C4105 C909 2.026 . S
C4131 C3192 0.622 . S
C4125 C1956 0.502 . S
C4145 C724 1.167 . S
C4151 C2355 1.159 . S
C4165 C1780 1.712 . S
C4171 C3092 1.681 . S
C4185 C937 2.129 . S
C4191 C2504 1.993 . S
C4211 C2934 1.019 . S
C4205 C1985 1.093 . S
C4225 C753 0.672 . S
C4231 C2688 0.691 . S
C4245 C1809 1.456 . S
C4251 C3279 1.366 . S
C4265 C1173 1.503 . S
C4271 C2184 1.400 . S
C4285 C1105 1.979 . S
C4291 C2859 1.916 . S
C4305 C1633 2.256 . S
C4311 C2599 2.086 . S
C4325 C1553 0.390 . S
C4331 C3008 0.504 . S
C4351 C3276 0.711 . S
C4345 C1729 0.714 . S
C4365 C1340 1.431 . S
C4371 C2352 1.374 . S
C4391 C2439 2.272 . S
C4385 C1604 2.343 . S
C4411 C2252 0.664 . S
C4405 C1252 0.662 . S
C4425 C489 1.659 . S
C4431 C3355 1.593 . S
C4451 C3186 2.153 . S
C4445 C557 2.184 . S
C4465 C636 1.617 1_554 S
C4471 C3439 1.602 . S
C4485 C409 1.664 1_655 S
C4491 C3099 1.537 . S
C4505 C284 1.579 . S
C4511 C2847 1.506 . S
C4531 C2940 0.919 . S
C4525 C20 1.010 . S
C4551 C3018 0.814 . S
C4545 C137 0.832 . S
C4571 C3271 1.121 . S
C4565 C225 1.257 . S
C4591 C3354 1.945 . S
C4585 C1641 2.028 . S
C4605 C1193 0.502 . S
C4611 C3183 0.580 . S
C4631 C3438 1.140 . S
C4625 C1289 1.179 . S
C4651 C3103 1.690 . S
C4645 C1377 1.723 . S
C4671 C2851 2.016 . S
C4665 C1613 2.144 . S
C4685 C1164 1.099 . S
C4691 C2943 1.017 . S
C4711 C3015 0.719 . S
C4705 C1261 0.669 . S
C4725 C1349 1.475 . S
C4731 C3270 1.371 . S
C4751 C3351 1.364 . S
C4745 C1965 1.498 . S
C4765 C849 1.978 . S
C4771 C2514 1.919 . S
C4791 C2588 2.097 . S
C4785 C929 2.265 . S
C4811 C2683 0.484 . S
C4805 C1017 0.344 . S
C4831 C3267 0.701 . S
C4825 C1897 0.734 . S
C4845 C1789 1.428 . S
C4851 C3435 1.375 . S
C4871 C2430 2.267 . S
C4865 C900 2.347 . S
C4891 C2263 0.670 . S
C4885 C733 0.666 . S
C4905 C548 1.664 . S
C4911 C3344 1.558 . S
C4931 C2271 2.161 . S
C4925 C469 2.168 . S
C4945 C401 1.600 . S
C4951 C3428 1.589 . S
C4965 C673 1.662 . S
C4971 C2436 1.525 . S
C4985 C233 1.577 . S
C4991 C2856 1.496 . S
C5011 C2595 0.960 . S
C5005 C117 1.030 . S
C5025 C29 0.797 . S
C5031 C3027 0.819 . S
C5045 C321 1.256 . S
C5051 C2756 1.117 . S
C5071 C3363 1.950 . S
C5065 C2044 2.030 . S
C5085 C997 0.499 . S
C5091 C2268 0.583 . S
C5111 C3447 1.128 . S
C5105 C1877 1.178 . S
C5125 C812 1.705 . S
C5131 C2420 1.668 . S
C5145 C2073 2.130 . S
C5151 C2840 1.996 . S
C5171 C2598 1.058 . S
C5165 C1025 1.091 . S
C5185 C1905 0.674 . S
C5191 C3024 0.720 . S
C5211 C2775 1.373 . S
C5205 C841 1.469 . S
C5231 C3360 1.368 . S
C5225 C1525 1.501 . S
C5251 C2523 1.919 1_655 S
C5245 C1369 1.978 . S
C5265 C1465 2.254 . S
C5271 C2935 2.070 . S
C5291 C2672 0.468 . S
C5285 C1201 0.334 . S
C5305 C1281 0.701 . S
C5311 C2772 0.741 . S
C5325 C1076 1.423 . S
C5331 C3444 1.432 . S
C5351 C3111 2.263 . S
C5345 C1437 2.347 . S
C5371 C3176 0.701 . S
C5365 C1701 0.649 . S
