# Generated by pormake.
# Topology anh, (6,3)-cn, num edge types: 1
# Building blocks:
#     Node 0, Type 0, BuildingBlock: BETDAH_clean_sbu_0, # of connection points: 6
#     Node 1, Type 0, BuildingBlock: BETDAH_clean_sbu_0, # of connection points: 6
#     Node 2, Type 0, BuildingBlock: BETDAH_clean_sbu_0, # of connection points: 6
#     Node 3, Type 1, BuildingBlock: OLANEW_clean_sbu_2, # of connection points: 3
#     Node 4, Type 1, BuildingBlock: OLANEW_clean_sbu_2, # of connection points: 3
#     Node 5, Type 1, BuildingBlock: OLANEW_clean_sbu_2, # of connection points: 3
#     Node 6, Type 1, BuildingBlock: OLANEW_clean_sbu_2, # of connection points: 3
#     Node 7, Type 1, BuildingBlock: OLANEW_clean_sbu_2, # of connection points: 3
#     Node 8, Type 1, BuildingBlock: OLANEW_clean_sbu_2, # of connection points: 3
#     Edge 9, Type (0, 1), BuildingBlock: AJUNOK_clean_linker_0, # of connection points: 2
#     Edge 10, Type (0, 1), BuildingBlock: AJUNOK_clean_linker_0, # of connection points: 2
#     Edge 11, Type (0, 1), BuildingBlock: AJUNOK_clean_linker_0, # of connection points: 2
#     Edge 12, Type (0, 1), BuildingBlock: AJUNOK_clean_linker_0, # of connection points: 2
#     Edge 13, Type (0, 1), BuildingBlock: AJUNOK_clean_linker_0, # of connection points: 2
#     Edge 14, Type (0, 1), BuildingBlock: AJUNOK_clean_linker_0, # of connection points: 2
#     Edge 15, Type (0, 1), BuildingBlock: AJUNOK_clean_linker_0, # of connection points: 2
#     Edge 16, Type (0, 1), BuildingBlock: AJUNOK_clean_linker_0, # of connection points: 2
#     Edge 17, Type (0, 1), BuildingBlock: AJUNOK_clean_linker_0, # of connection points: 2
#     Edge 18, Type (0, 1), BuildingBlock: AJUNOK_clean_linker_0, # of connection points: 2
#     Edge 19, Type (0, 1), BuildingBlock: AJUNOK_clean_linker_0, # of connection points: 2
#     Edge 20, Type (0, 1), BuildingBlock: AJUNOK_clean_linker_0, # of connection points: 2
#     Edge 21, Type (0, 1), BuildingBlock: AJUNOK_clean_linker_0, # of connection points: 2
#     Edge 22, Type (0, 1), BuildingBlock: AJUNOK_clean_linker_0, # of connection points: 2
#     Edge 23, Type (0, 1), BuildingBlock: AJUNOK_clean_linker_0, # of connection points: 2
#     Edge 24, Type (0, 1), BuildingBlock: AJUNOK_clean_linker_0, # of connection points: 2
#     Edge 25, Type (0, 1), BuildingBlock: AJUNOK_clean_linker_0, # of connection points: 2
#     Edge 26, Type (0, 1), BuildingBlock: AJUNOK_clean_linker_0, # of connection points: 2
# Relax obj value: 0.193
# Max RMSD: 0.196
# Mean RMSD: 0.124
data_MOF--net-anh--node1-BETDAH_clean_sbu_0--node2-OLANEW_clean_sbu_2--edge1-AJUNOK_clean_linker_0
_symmetry_space_group_name_H-M    P1
_symmetry_Int_Tables_number       1
_symmetry_cell_setting            triclinic
loop_
_symmetry_equiv_pos_as_xyz
'x, y, z'
_cell_length_a     28.907065
_cell_length_b     33.38495
_cell_length_c     37.249921
_cell_angle_alpha  92.631752
_cell_angle_beta   89.579219
_cell_angle_gamma 132.7716
loop_
_atom_site_label
_atom_site_type_symbol
_atom_site_fract_x
_atom_site_fract_y
_atom_site_fract_z
_atom_type_partial_charge
Ho0 Ho 0.07762 0.49865 0.12596 0.0
Ho1 Ho 1.0246 0.54675 0.15937 0.0
C2 C 0.16786 0.62969 0.13904 0.0
C3 C 0.1248 0.46962 0.08528 0.0
C4 C 0.16966 0.46254 0.08748 0.0
C5 C 0.19903 0.46566 0.05623 0.0
C6 C 0.2349 0.45163 0.05633 0.0
C7 C 0.24192 0.43415 0.08773 0.0
C8 C 0.2144 0.43311 0.11942 0.0
C9 C 0.17877 0.44742 0.11933 0.0
C10 C 0.08269 0.5077 0.1987 0.0
C11 C 0.93194 0.41577 0.14496 0.0
C12 C 0.97886 0.57575 0.20124 0.0
C13 C 0.9219 0.5667 0.20495 0.0
C14 C 0.91507 0.58675 0.23637 0.0
C15 C 0.86596 0.58558 0.23874 0.0
C16 C 0.82289 0.56427 0.20968 0.0
C17 C 0.82823 0.54191 0.17879 0.0
C18 C 0.87742 0.54303 0.17646 0.0
C19 C 1.02024 0.53739 0.08643 0.0
O20 O 0.15531 0.58979 0.11826 0.0
O21 O 0.12753 0.61994 0.16273 0.0
O22 O 0.07314 0.43569 0.10296 0.0
O23 O 0.14773 0.51948 0.08792 0.0
O24 O 0.07902 0.47173 0.18027 0.0
O25 O 0.09136 0.54052 0.1778 0.0
O26 O 0.94382 0.45619 0.16446 0.0
O27 O 0.9736 0.42466 0.12264 0.0
O28 O 1.0126 0.60243 0.1734 0.0
O29 O 0.97378 0.53457 0.20709 0.0
O30 O 1.02426 0.57386 0.10445 0.0
O31 O 1.01156 0.50516 0.10784 0.0
H32 H 0.1924 0.47711 0.03138 0.0
H33 H 0.25584 0.45307 0.03159 0.0
H34 H 0.21793 0.41885 0.14385 0.0
H35 H 0.15627 0.44455 0.14374 0.0
H36 H 0.94915 0.60519 0.25857 0.0
H37 H 0.86276 0.6029 0.26286 0.0
H38 H 0.79638 0.5261 0.15575 0.0
H39 H 0.88228 0.52755 0.15195 0.0
Ho40 Ho 0.59686 0.02433 0.49196 0.0
Ho41 Ho 0.51372 0.05397 0.4785 0.0
C42 C 0.44337 0.92741 0.47898 0.0
C43 C 0.64607 0.98716 0.5129 0.0
C44 C 0.62491 0.93548 0.52412 0.0
C45 C 0.56233 0.89219 0.53349 0.0
C46 C 0.54279 0.84245 0.54239 0.0
C47 C 0.58548 0.83529 0.54176 0.0
C48 C 0.64823 0.87908 0.53275 0.0
C49 C 0.66767 0.92867 0.5239 0.0
C50 C 0.59095 0.04752 0.42468 0.0
C51 C 0.66654 0.14987 0.49222 0.0
C52 C 0.46618 0.08952 0.45202 0.0
C53 C 0.47224 0.13625 0.46324 0.0
C54 C 0.51776 0.18711 0.44799 0.0
C55 C 0.52746 0.23252 0.46065 0.0
C56 C 0.49147 0.22803 0.48858 0.0
C57 C 0.44487 0.17694 0.50321 0.0
C58 C 0.43518 0.13152 0.49061 0.0
C59 C 0.53372 0.05433 0.55007 0.0
O60 O 0.49636 0.94224 0.49154 0.0
O61 O 0.44048 0.9631 0.46849 0.0
O62 O 0.63397 0.98727 0.47915 0.0
O63 O 0.6357 0.0121 0.53478 0.0
O64 O 0.64062 0.06032 0.43899 0.0
O65 O 0.5461 0.02067 0.44603 0.0
O66 O 0.61431 0.13433 0.47786 0.0
O67 O 0.66956 0.11489 0.50424 0.0
O68 O 0.43519 0.04856 0.4733 0.0
O69 O 0.51726 0.10218 0.43982 0.0
O70 O 0.50203 0.06551 0.53769 0.0
O71 O 0.55181 0.04447 0.52347 0.0
H72 H 0.52862 0.89673 0.53369 0.0
H73 H 0.4942 0.80938 0.54933 0.0
H74 H 0.68246 0.87514 0.53287 0.0
H75 H 0.71615 0.96171 0.51671 0.0
H76 H 0.5469 0.19218 0.42675 0.0
H77 H 0.5635 0.27134 0.44875 0.0
H78 H 0.41708 0.1724 0.52516 0.0
H79 H 0.39961 0.09304 0.50297 0.0
Ho80 Ho 0.59525 0.57628 0.87265 0.0
Ho81 Ho 0.50032 0.45921 0.89229 0.0
C82 C 0.44805 0.51617 0.88472 0.0
C83 C 0.65058 0.66603 0.84114 0.0
C84 C 0.63583 0.69952 0.83297 0.0
C85 C 0.60099 0.68811 0.80159 0.0
C86 C 0.5886 0.72067 0.7936 0.0
C87 C 0.61072 0.76537 0.8168 0.0
C88 C 0.64572 0.7769 0.84806 0.0
C89 C 0.65824 0.74446 0.85602 0.0
C90 C 0.58538 0.56301 0.94421 0.0
C91 C 0.65014 0.52245 0.88612 0.0
C92 C 0.44407 0.36437 0.91566 0.0
C93 C 0.45306 0.32751 0.90357 0.0
C94 C 0.42021 0.2769 0.91857 0.0
C95 C 0.42636 0.241 0.90449 0.0
C96 C 0.46493 0.25528 0.87507 0.0
C97 C 0.49932 0.30678 0.86107 0.0
C98 C 0.49334 0.34245 0.87511 0.0
C99 C 0.51084 0.47415 0.82119 0.0
O100 O 0.50139 0.55384 0.86822 0.0
O101 O 0.43933 0.47757 0.90163 0.0
O102 O 0.66113 0.66463 0.87494 0.0
O103 O 0.61693 0.61822 0.82389 0.0
O104 O 0.63782 0.60083 0.9286 0.0
O105 O 0.54027 0.53586 0.92134 0.0
O106 O 0.59402 0.48213 0.89898 0.0
O107 O 0.66125 0.56261 0.87003 0.0
O108 O 0.41915 0.37224 0.89119 0.0
O109 O 0.4927 0.41013 0.9325 0.0
O110 O 0.45813 0.43677 0.83631 0.0
O111 O 0.55564 0.49965 0.84404 0.0
H112 H 0.5837 0.65429 0.78295 0.0
H113 H 0.56269 0.71146 0.76891 0.0
H114 H 0.66328 0.81101 0.86648 0.0
H115 H 0.68575 0.75477 0.88022 0.0
H116 H 0.38893 0.26473 0.94055 0.0
H117 H 0.39947 0.20147 0.91571 0.0
H118 H 0.53001 0.31904 0.83873 0.0
H119 H 0.51911 0.38132 0.86312 0.0
O120 O 0.59931 0.08049 0.25091 0.0
Cd121 Cd 0.59688 0.0846 0.18566 0.0
O122 O 0.51274 0.99379 0.25572 0.0
Cd123 Cd 0.48449 0.96511 0.19922 0.0
O124 O 0.40729 0.88996 0.16784 0.0
C125 C 0.40765 0.85277 0.15952 0.0
O126 O 0.45859 0.86192 0.16695 0.0
C127 C 0.55986 0.04028 0.2702 0.0
C128 C 0.70077 0.19141 0.16732 0.0
O129 O 0.6485 0.17737 0.17555 0.0
O130 O 0.70339 0.15457 0.16694 0.0
O131 O 0.57098 0.50835 0.65014 0.0
Cd132 Cd 0.57895 0.51441 0.58472 0.0
O133 O 0.50575 0.52131 0.65372 0.0
Cd134 Cd 0.51895 0.55071 0.60012 0.0
O135 O 0.53522 0.61504 0.57172 0.0
C136 C 0.51933 0.63804 0.5884 0.0
O137 O 0.49327 0.62034 0.61976 0.0
C138 C 0.53494 0.50998 0.66847 0.0
C139 C 0.54821 0.4213 0.5516 0.0
O140 O 0.60514 0.46363 0.56148 0.0
O141 O 0.5059 0.42317 0.55719 0.0
O142 O 0.10619 0.52552 0.92989 0.0
Cd143 Cd 0.15033 0.51995 0.8745 0.0
O144 O 0.04289 0.53524 0.9089 0.0
Cd145 Cd 0.96966 0.54052 0.91036 0.0
O146 O 0.90022 0.54938 0.90316 0.0
C147 C 0.84098 0.50884 0.90484 0.0
O148 O 0.82098 0.461 0.9115 0.0
C149 C 0.06713 0.53119 0.93538 0.0
C150 C 0.24933 0.52164 0.88292 0.0
O151 O 0.2606 0.56566 0.87988 0.0
O152 O 0.19131 0.47682 0.88312 0.0
O153 O 0.10851 0.56285 0.37347 0.0
Cd154 Cd 0.12024 0.58153 0.43877 0.0
O155 O 0.04208 0.4726 0.37032 0.0
Cd156 Cd 1.01752 0.45291 0.42659 0.0
O157 O 0.94482 0.38381 0.45899 0.0
C158 C 0.8925 0.3713 0.46195 0.0
O159 O 0.88639 0.40298 0.44799 0.0
C160 C 0.07682 0.51775 0.35501 0.0
C161 C 0.22264 0.69355 0.45544 0.0
O162 O 0.22997 0.65972 0.45365 0.0
O163 O 0.16683 0.67425 0.44982 0.0
O164 O 0.55767 1.00161 0.71283 0.0
Cd165 Cd 0.55424 0.9827 0.7761 0.0
O166 O 0.54453 0.05838 0.72552 0.0
Cd167 Cd 0.53679 0.05875 0.784 0.0
O168 O 0.51654 0.09876 0.8202 0.0
C169 C 0.49419 0.11498 0.8033 0.0
O170 O 0.4849 0.10464 0.76833 0.0
C171 C 0.55229 0.03414 0.70254 0.0
C172 C 0.57017 0.90995 0.78664 0.0
O173 O 0.51538 0.89259 0.78058 0.0
O174 O 0.61746 0.96172 0.78742 0.0
O175 O 0.59008 0.62874 0.11242 0.0
Cd176 Cd 0.58677 0.62884 0.17775 0.0
O177 O 0.52964 0.54074 0.11669 0.0
Cd178 Cd 0.47972 0.45737 0.09675 0.0
O179 O 0.41209 0.36893 0.08601 0.0
C180 C 0.35317 0.34017 0.08161 0.0
O181 O 0.31627 0.28786 0.07244 0.0
C182 C 0.56007 0.58171 0.09729 0.0
C183 C 0.6559 0.60298 0.1982 0.0
O184 O 0.68168 0.65277 0.19713 0.0
O185 O 0.59648 0.56531 0.19131 0.0
C186 C 0.25543 0.37356 0.05904 0.0
C187 C 0.27306 0.41254 0.08648 0.0
C188 C 0.28134 0.35018 0.05795 0.0
C189 C 0.32652 0.36541 0.08395 0.0
H190 H 0.22041 0.36023 0.03855 0.0
H191 H 0.26638 0.32037 0.03632 0.0
S192 S 0.38675 0.46375 0.16229 0.0
N193 N 0.33803 0.46482 0.14056 0.0
N194 N 0.38507 0.41935 0.13915 0.0
C195 C 0.34411 0.40379 0.11178 0.0
C196 C 0.31778 0.42772 0.11288 0.0
C197 C 0.7841 0.22386 0.48859 0.0
C198 C 0.72523 0.20843 0.4909 0.0
C199 C 0.8387 0.27743 0.48108 0.0
C200 C 0.8366 0.3177 0.47565 0.0
H201 H 0.78762 0.19376 0.4907 0.0
H202 H 0.88225 0.28652 0.47789 0.0
S203 S 0.69582 0.30034 0.48499 0.0
N204 N 0.66951 0.23938 0.49162 0.0
N205 N 0.77173 0.33973 0.4776 0.0
C206 C 0.77877 0.30366 0.48044 0.0
C207 C 0.72324 0.24915 0.48801 0.0
C208 C 0.64892 0.8581 0.81036 0.0
C209 C 0.59892 0.80094 0.80817 0.0
C210 C 0.6392 0.89276 0.80295 0.0
C211 C 0.57893 0.87177 0.79327 0.0
H212 H 0.6962 0.87628 0.81767 0.0
H213 H 0.67939 0.93646 0.80513 0.0
S214 S 0.43183 0.7247 0.78416 0.0
N215 N 0.48683 0.72472 0.79578 0.0
N216 N 0.46823 0.78959 0.78193 0.0
C217 C 0.52843 0.81453 0.79086 0.0
C218 C 0.53852 0.77924 0.79822 0.0
C219 C 0.79861 0.62275 0.21896 0.0
C220 C 0.77713 0.57095 0.2101 0.0
C221 C 0.75838 0.6321 0.21625 0.0
C222 C 0.69489 0.58995 0.20477 0.0
H223 H 0.84761 0.65696 0.22677 0.0
H224 H 0.77779 0.67314 0.2224 0.0
S225 S 0.61421 0.44559 0.18128 0.0
N226 N 0.68758 0.47607 0.19161 0.0
N227 N 0.61154 0.49338 0.18639 0.0
C228 C 0.6721 0.53729 0.19721 0.0
C229 C 0.71335 0.52791 0.1998 0.0
C230 C 0.39058 0.82886 0.47625 0.0
C231 C 0.38572 0.86798 0.47466 0.0
C232 C 0.33765 0.77277 0.47042 0.0
C233 C 0.27736 0.75318 0.46296 0.0
H234 H 0.43589 0.84155 0.48135 0.0
H235 H 0.34436 0.74463 0.47146 0.0
S236 S 0.238 0.83814 0.45792 0.0
N237 N 0.31475 0.88266 0.46655 0.0
N238 N 0.21562 0.77757 0.45567 0.0
C239 C 0.27148 0.79171 0.46213 0.0
C240 C 0.32546 0.8489 0.46792 0.0
C241 C 0.48698 0.19428 0.87665 0.0
C242 C 0.46737 0.21602 0.85737 0.0
C243 C 0.49454 0.16083 0.85919 0.0
C244 C 0.48221 0.14758 0.82188 0.0
H245 H 0.49833 0.20452 0.90519 0.0
H246 H 0.51117 0.14606 0.87497 0.0
S247 S 0.42378 0.19058 0.76021 0.0
N248 N 0.43174 0.21933 0.79978 0.0
N249 N 0.44536 0.15663 0.76688 0.0
C250 C 0.46026 0.16766 0.8027 0.0
C251 C 0.45301 0.20181 0.82045 0.0
C252 C 0.53395 0.75972 0.58376 0.0
C253 C 0.56536 0.78292 0.55161 0.0
C254 C 0.51829 0.71237 0.59494 0.0
C255 C 0.53321 0.68613 0.57436 0.0
H256 H 0.52291 0.77918 0.60096 0.0
H257 H 0.49525 0.69689 0.62032 0.0
S258 S 0.61024 0.72803 0.48613 0.0
N259 N 0.60704 0.77435 0.49799 0.0
N260 N 0.57802 0.68548 0.51896 0.0
C261 C 0.56287 0.70802 0.54149 0.0
C262 C 0.5789 0.75637 0.53016 0.0
C263 C 0.68427 0.47277 0.90035 0.0
C264 C 0.70052 0.52093 0.88986 0.0
C265 C 0.72985 0.46958 0.90492 0.0
C266 C 0.79427 0.51447 0.89947 0.0
H267 H 0.63563 0.43676 0.90507 0.0
H268 H 0.7141 0.43132 0.913 0.0
S269 S 0.86254 0.65051 0.87178 0.0
N270 N 0.78627 0.61486 0.87402 0.0
N271 N 0.8719 0.60897 0.88276 0.0
C272 C 0.81143 0.56301 0.8889 0.0
C273 C 0.76471 0.56618 0.88403 0.0
C274 C 0.23245 0.72962 0.14743 0.0
C275 C 0.22938 0.68658 0.13804 0.0
C276 C 0.29026 0.78361 0.15206 0.0
C277 C 0.34771 0.79684 0.14811 0.0
H278 H 0.18969 0.72138 0.15226 0.0
H279 H 0.28966 0.81473 0.16053 0.0
S280 S 0.36527 0.69957 0.12012 0.0
N281 N 0.2883 0.66102 0.12194 0.0
N282 N 0.39757 0.76263 0.13116 0.0
C283 C 0.34527 0.75451 0.1368 0.0
C284 C 0.28599 0.69936 0.1316 0.0
C285 C 0.56668 0.32526 0.51327 0.0
C286 C 0.50453 0.2771 0.50348 0.0
C287 C 0.5802 0.37154 0.52858 0.0
C288 C 0.53217 0.37174 0.53461 0.0
H289 H 0.60515 0.32688 0.50969 0.0
H290 H 0.62881 0.40733 0.53595 0.0
S291 S 0.36173 0.25654 0.51175 0.0
N292 N 0.39474 0.2329 0.49946 0.0
N293 N 0.41975 0.31957 0.52836 0.0
C294 C 0.4698 0.32397 0.52438 0.0
C295 C 0.45609 0.27677 0.50886 0.0
C296 C 0.33549 0.47234 0.89179 0.0
C297 C 0.39864 0.519 0.88532 0.0
C298 C 0.28789 0.47374 0.89133 0.0
C299 C 0.3014 0.52205 0.88486 0.0
H300 H 0.32237 0.43404 0.89663 0.0
H301 H 0.23996 0.43639 0.89591 0.0
S302 S 0.4603 0.65677 0.86898 0.0
N303 N 0.4726 0.61573 0.87384 0.0
N304 N 0.38382 0.61855 0.87334 0.0
C305 C 0.36476 0.5694 0.87925 0.0
C306 C 0.41307 0.56781 0.87935 0.0
C307 C 0.86572 0.31477 0.13913 0.0
C308 C 0.87081 0.35899 0.14846 0.0
C309 C 0.81029 0.26083 0.14479 0.0
C310 C 0.75728 0.24872 0.1596 0.0
H311 H 0.9055 0.32186 0.1283 0.0
H312 H 0.80935 0.22842 0.13783 0.0
S313 S 0.74469 0.34957 0.18633 0.0
N314 N 0.81698 0.38692 0.17172 0.0
N315 N 0.71264 0.28562 0.18203 0.0
C316 C 0.76099 0.29245 0.16797 0.0
C317 C 0.81776 0.34751 0.16254 0.0
C318 C 0.02997 0.49656 0.03278 0.0
C319 C 0.02791 0.53494 0.04729 0.0
C320 C 0.0412 0.49504 0.99635 0.0
C321 C 0.04969 0.53117 0.9728 0.0
H322 H 1.02417 0.46808 0.04983 0.0
H323 H 0.04377 0.46553 0.98659 0.0
S324 S 0.04837 0.63931 0.99716 0.0
N325 N 0.03481 0.6098 0.03522 0.0
N326 N 0.05574 0.60673 0.96652 0.0
C327 C 0.04647 0.56906 0.98669 0.0
C328 C 0.03565 0.57101 0.02401 0.0
C329 C 0.52365 0.01254 0.36892 0.0
C330 C 0.58353 0.05066 0.38605 0.0
C331 C 0.51646 0.01023 0.33151 0.0
C332 C 0.56872 0.04667 0.30991 0.0
H333 H 0.48227 0.98285 0.38432 0.0
H334 H 0.46957 0.97913 0.31938 0.0
S335 S 0.73496 0.15766 0.34253 0.0
N336 N 0.69549 0.12778 0.37927 0.0
N337 N 0.68204 0.12442 0.30898 0.0
C338 C 0.62852 0.08678 0.32704 0.0
C339 C 0.6359 0.08849 0.3651 0.0
C340 C 0.57231 0.50536 0.76501 0.0
C341 C 0.51689 0.48385 0.78254 0.0
C342 C 0.57739 0.51266 0.72789 0.0
C343 C 0.52781 0.50001 0.70731 0.0
H344 H 0.61156 0.51576 0.77995 0.0
H345 H 0.62081 0.52913 0.71536 0.0
S346 S 0.37375 0.44453 0.74121 0.0
N347 N 0.41197 0.45076 0.77699 0.0
N348 N 0.42192 0.46576 0.70758 0.0
C349 C 0.47257 0.47931 0.72482 0.0
C350 C 0.467 0.47089 0.76236 0.0
C351 C 0.55294 0.01896 0.60026 0.0
C352 C 0.54432 0.05296 0.58854 0.0
C353 C 0.55685 0.01384 0.63716 0.0
C354 C 0.55253 0.04278 0.66358 0.0
H355 H 0.5542 0.99455 0.5809 0.0
H356 H 0.5619 0.98609 0.64494 0.0
S357 S 0.5349 0.14077 0.64599 0.0
N358 N 0.53497 0.11816 0.6057 0.0
N359 N 0.54285 0.10942 0.67464 0.0
C360 C 0.54606 0.07841 0.65183 0.0
C361 C 0.54171 0.0832 0.61443 0.0
C362 C 0.63024 0.60627 0.00579 0.0
C363 C 0.57755 0.56492 0.98338 0.0
C364 C 0.62383 0.61172 0.04256 0.0
C365 C 0.56468 0.57561 0.05834 0.0
H366 H 0.67678 0.63517 0.99481 0.0
H367 H 0.66564 0.64412 0.05886 0.0
S368 S 0.41168 0.46176 0.01149 0.0
N369 N 0.46398 0.48764 0.97974 0.0
N370 N 0.45213 0.49855 0.04883 0.0
C371 C 0.51161 0.5341 0.0364 0.0
C372 C 0.51803 0.52856 0.99891 0.0
C373 C 0.06571 0.4694 0.25839 0.0
C374 C 0.0824 0.51206 0.23841 0.0
C375 C 0.06408 0.47171 0.296 0.0
C376 C 0.07987 0.51712 0.31519 0.0
H377 H 0.05327 0.43361 0.24488 0.0
H378 H 0.05072 0.43766 0.31013 0.0
S379 S 0.12605 0.63947 0.27534 0.0
N380 N 0.11434 0.60088 0.24045 0.0
N381 N 0.11198 0.60559 0.31113 0.0
C382 C 0.09691 0.56025 0.29549 0.0
C383 C 0.09791 0.55759 0.25712 0.0
loop_
_geom_bond_atom_site_label_1
_geom_bond_atom_site_label_2
_geom_bond_distance
_geom_bond_site_symmetry_2
_ccdc_geom_bond_type
Ho0 C3 2.811 . S
Ho0 O20 2.322 . S
Ho0 O22 2.378 . S
Ho0 O23 2.524 . S
Ho0 O24 2.381 . S
Ho0 O25 2.669 . S
Ho0 O27 2.346 1_455 S
Ho0 O31 2.305 . S
Ho1 C12 2.811 . S
Ho1 O21 2.346 1_655 S
Ho1 O25 2.305 1_655 S
Ho1 O26 2.322 . S
Ho1 O28 2.378 . S
Ho1 O29 2.524 . S
Ho1 O30 2.381 . S
Ho1 O31 2.669 1_655 S
C2 O20 1.259 . S
C2 O21 1.268 . S
C3 Ho0 2.811 . S
C3 C4 1.488 . S
C3 O22 1.215 . S
C3 O23 1.289 . S
C4 C3 1.488 . S
C4 C5 1.348 . S
C4 C9 1.413 . S
C5 C4 1.348 . S
C5 C6 1.442 . S
C5 H32 0.930 . S
C6 C5 1.442 . S
C6 C7 1.381 . S
C6 H33 0.931 . S
C7 C6 1.381 . S
C7 C8 1.321 . S
C8 C7 1.321 . S
C8 C9 1.403 . S
C8 H34 0.934 . S
C9 C4 1.413 . S
C9 C8 1.403 . S
C9 H35 0.930 . S
C10 O24 1.275 . S
C10 O25 1.256 . S
C11 O26 1.259 . S
C11 O27 1.268 . S
C12 Ho1 2.811 . S
C12 C13 1.488 . S
C12 O28 1.215 . S
C12 O29 1.289 . S
C13 C12 1.488 . S
C13 C14 1.348 . S
C13 C18 1.413 . S
C14 C13 1.348 . S
C14 C15 1.442 . S
C14 H36 0.930 . S
C15 C14 1.442 . S
C15 C16 1.381 . S
C15 H37 0.931 . S
C16 C15 1.381 . S
C16 C17 1.321 . S
C17 C16 1.321 . S
C17 C18 1.403 . S
C17 H38 0.934 . S
C18 C13 1.413 . S
C18 C17 1.403 . S
C18 H39 0.930 . S
C19 O30 1.275 1_455 S
C19 O31 1.256 . S
O20 Ho0 2.322 . S
O20 C2 1.259 . S
O21 Ho1 2.346 1_455 S
O21 C2 1.268 . S
O22 Ho0 2.378 . S
O22 C3 1.215 . S
O23 Ho0 2.524 . S
O23 C3 1.289 . S
O24 Ho0 2.381 . S
O24 C10 1.275 . S
O25 Ho0 2.669 . S
O25 Ho1 2.305 1_455 S
O25 C10 1.256 . S
O26 Ho1 2.322 . S
O26 C11 1.259 . S
O27 Ho0 2.346 1_655 S
O27 C11 1.268 . S
O28 Ho1 2.378 . S
O28 C12 1.215 . S
O29 Ho1 2.524 . S
O29 C12 1.289 . S
O30 Ho1 2.381 . S
O30 C19 1.275 1_655 S
O31 Ho0 2.305 . S
O31 Ho1 2.669 1_455 S
O31 C19 1.256 . S
H32 C5 0.930 . S
H33 C6 0.931 . S
H34 C8 0.934 . S
H35 C9 0.930 . S
H36 C14 0.930 . S
H37 C15 0.931 . S
H38 C17 0.934 . S
H39 C18 0.930 . S
Ho40 C43 2.811 . S
Ho40 O60 2.322 . S
Ho40 O62 2.378 . S
Ho40 O63 2.524 . S
Ho40 O64 2.381 . S
Ho40 O65 2.669 1_565 S
Ho40 O67 2.346 1_565 S
Ho40 O71 2.305 1_565 S
Ho41 C52 2.811 . S
Ho41 O61 2.346 1_545 S
Ho41 O65 2.305 . S
Ho41 O66 2.322 . S
Ho41 O68 2.378 . S
Ho41 O69 2.524 . S
Ho41 O70 2.381 . S
Ho41 O71 2.669 . S
C42 O60 1.259 . S
C42 O61 1.268 . S
C43 Ho40 2.811 . S
C43 C44 1.488 . S
C43 O62 1.215 . S
C43 O63 1.289 . S
C44 C43 1.488 . S
C44 C45 1.348 . S
C44 C49 1.413 . S
C45 C44 1.348 . S
C45 C46 1.442 . S
C45 H72 0.930 . S
C46 C45 1.442 . S
C46 C47 1.381 . S
C46 H73 0.931 . S
C47 C46 1.381 . S
C47 C48 1.321 . S
C48 C47 1.321 . S
C48 C49 1.403 . S
C48 H74 0.934 . S
C49 C44 1.413 . S
C49 C48 1.403 . S
C49 H75 0.930 . S
C50 O64 1.275 1_545 S
C50 O65 1.256 . S
C51 O66 1.259 . S
C51 O67 1.268 . S
C52 Ho41 2.811 . S
C52 C53 1.488 . S
C52 O68 1.215 . S
C52 O69 1.289 . S
C53 C52 1.488 . S
C53 C54 1.348 . S
C53 C58 1.413 . S
C54 C53 1.348 . S
C54 C55 1.442 . S
C54 H76 0.930 . S
C55 C54 1.442 . S
C55 C56 1.381 . S
C55 H77 0.931 . S
C56 C55 1.381 . S
C56 C57 1.321 . S
C57 C56 1.321 . S
C57 C58 1.403 . S
C57 H78 0.934 . S
C58 C53 1.413 . S
C58 C57 1.403 . S
C58 H79 0.930 . S
C59 O70 1.275 . S
C59 O71 1.256 . S
O60 Ho40 2.322 . S
O60 C42 1.259 . S
O61 Ho41 2.346 1_565 S
O61 C42 1.268 . S
O62 Ho40 2.378 . S
O62 C43 1.215 . S
O63 Ho40 2.524 . S
O63 C43 1.289 . S
O64 Ho40 2.381 . S
O64 C50 1.275 1_565 S
O65 Ho40 2.669 1_545 S
O65 Ho41 2.305 . S
O65 C50 1.256 . S
O66 Ho41 2.322 . S
O66 C51 1.259 . S
O67 Ho40 2.346 1_545 S
O67 C51 1.268 . S
O68 Ho41 2.378 . S
O68 C52 1.215 . S
O69 Ho41 2.524 . S
O69 C52 1.289 . S
O70 Ho41 2.381 . S
O70 C59 1.275 . S
O71 Ho40 2.305 1_545 S
O71 Ho41 2.669 . S
O71 C59 1.256 . S
H72 C45 0.930 . S
H73 C46 0.931 . S
H74 C48 0.934 . S
H75 C49 0.930 . S
H76 C54 0.930 . S
H77 C55 0.931 . S
H78 C57 0.934 . S
H79 C58 0.930 . S
Ho80 C83 2.811 . S
Ho80 O100 2.322 . S
Ho80 O102 2.378 . S
Ho80 O103 2.524 . S
Ho80 O104 2.381 . S
Ho80 O105 2.669 . S
Ho80 O107 2.346 . S
Ho80 O111 2.305 . S
Ho81 C92 2.811 . S
Ho81 O101 2.346 . S
Ho81 O105 2.305 . S
Ho81 O106 2.322 . S
Ho81 O108 2.378 . S
Ho81 O109 2.524 . S
Ho81 O110 2.381 . S
Ho81 O111 2.669 . S
C82 O100 1.259 . S
C82 O101 1.268 . S
C83 Ho80 2.811 . S
C83 C84 1.488 . S
C83 O102 1.215 . S
C83 O103 1.289 . S
C84 C83 1.488 . S
C84 C85 1.348 . S
C84 C89 1.413 . S
C85 C84 1.348 . S
C85 C86 1.442 . S
C85 H112 0.930 . S
C86 C85 1.442 . S
C86 C87 1.381 . S
C86 H113 0.931 . S
C87 C86 1.381 . S
C87 C88 1.321 . S
C88 C87 1.321 . S
C88 C89 1.403 . S
C88 H114 0.934 . S
C89 C84 1.413 . S
C89 C88 1.403 . S
C89 H115 0.930 . S
C90 O104 1.275 . S
C90 O105 1.256 . S
C91 O106 1.259 . S
C91 O107 1.268 . S
C92 Ho81 2.811 . S
C92 C93 1.488 . S
C92 O108 1.215 . S
C92 O109 1.289 . S
C93 C92 1.488 . S
C93 C94 1.348 . S
C93 C98 1.413 . S
C94 C93 1.348 . S
C94 C95 1.442 . S
C94 H116 0.930 . S
C95 C94 1.442 . S
C95 C96 1.381 . S
C95 H117 0.931 . S
C96 C95 1.381 . S
C96 C97 1.321 . S
C97 C96 1.321 . S
C97 C98 1.403 . S
C97 H118 0.934 . S
C98 C93 1.413 . S
C98 C97 1.403 . S
C98 H119 0.930 . S
C99 O110 1.275 . S
C99 O111 1.256 . S
O100 Ho80 2.322 . S
O100 C82 1.259 . S
O101 Ho81 2.346 . S
O101 C82 1.268 . S
O102 Ho80 2.378 . S
O102 C83 1.215 . S
O103 Ho80 2.524 . S
O103 C83 1.289 . S
O104 Ho80 2.381 . S
O104 C90 1.275 . S
O105 Ho80 2.669 . S
O105 Ho81 2.305 . S
O105 C90 1.256 . S
O106 Ho81 2.322 . S
O106 C91 1.259 . S
O107 Ho80 2.346 . S
O107 C91 1.268 . S
O108 Ho81 2.378 . S
O108 C92 1.215 . S
O109 Ho81 2.524 . S
O109 C92 1.289 . S
O110 Ho81 2.381 . S
O110 C99 1.275 . S
O111 Ho80 2.305 . S
O111 Ho81 2.669 . S
O111 C99 1.256 . S
H112 C85 0.930 . S
H113 C86 0.931 . S
H114 C88 0.934 . S
H115 C89 0.930 . S
H116 C94 0.930 . S
H117 C95 0.931 . S
H118 C97 0.934 . S
H119 C98 0.930 . S
O120 Cd121 2.300 . S
O120 C127 1.275 . S
Cd121 O120 2.300 . S
Cd121 O129 2.381 . S
Cd121 O130 2.378 . S
O122 Cd123 2.385 . S
O122 C127 1.255 1_565 S
Cd123 O122 2.385 . S
Cd123 O124 2.317 . S
O124 Cd123 2.317 . S
O124 C125 1.232 . S
C125 O124 1.232 . S
C125 O126 1.218 . S
O126 C125 1.218 . S
C127 O120 1.275 . S
C127 O122 1.255 1_545 S
C128 O129 1.258 . S
C128 O130 1.256 . S
O129 Cd121 2.381 . S
O129 C128 1.258 . S
O130 Cd121 2.378 . S
O130 C128 1.256 . S
O131 Cd132 2.300 . S
O131 C138 1.275 . S
Cd132 O131 2.300 . S
Cd132 O140 2.381 . S
Cd132 O141 2.378 . S
O133 Cd134 2.385 . S
O133 C138 1.255 . S
Cd134 O133 2.385 . S
Cd134 O135 2.317 . S
O135 Cd134 2.317 . S
O135 C136 1.232 . S
C136 O135 1.232 . S
C136 O137 1.218 . S
O137 C136 1.218 . S
C138 O131 1.275 . S
C138 O133 1.255 . S
C139 O140 1.258 . S
C139 O141 1.256 . S
O140 Cd132 2.381 . S
O140 C139 1.258 . S
O141 Cd132 2.378 . S
O141 C139 1.256 . S
O142 Cd143 2.300 . S
O142 C149 1.275 . S
Cd143 O142 2.300 . S
Cd143 O151 2.381 . S
Cd143 O152 2.378 . S
O144 Cd145 2.385 . S
O144 C149 1.255 1_655 S
Cd145 O144 2.385 . S
Cd145 O146 2.317 . S
O146 Cd145 2.317 . S
O146 C147 1.232 . S
C147 O146 1.232 . S
C147 O148 1.218 . S
O148 C147 1.218 . S
C149 O142 1.275 . S
C149 O144 1.255 1_455 S
C150 O151 1.258 . S
C150 O152 1.256 . S
O151 Cd143 2.381 . S
O151 C150 1.258 . S
O152 Cd143 2.378 . S
O152 C150 1.256 . S
O153 Cd154 2.300 . S
O153 C160 1.275 1_455 S
Cd154 O153 2.300 . S
Cd154 O162 2.381 . S
Cd154 O163 2.378 . S
O155 Cd156 2.385 . S
O155 C160 1.255 . S
Cd156 O155 2.385 . S
Cd156 O157 2.317 . S
O157 Cd156 2.317 . S
O157 C158 1.232 . S
C158 O157 1.232 . S
C158 O159 1.218 . S
O159 C158 1.218 . S
C160 O153 1.275 1_655 S
C160 O155 1.255 . S
C161 O162 1.258 . S
C161 O163 1.256 . S
O162 Cd154 2.381 . S
O162 C161 1.258 . S
O163 Cd154 2.378 . S
O163 C161 1.256 . S
O164 Cd165 2.300 . S
O164 C171 1.275 1_565 S
Cd165 O164 2.300 . S
Cd165 O173 2.381 . S
Cd165 O174 2.378 . S
O166 Cd167 2.385 . S
O166 C171 1.255 . S
Cd167 O166 2.385 . S
Cd167 O168 2.317 . S
O168 Cd167 2.317 . S
O168 C169 1.232 . S
C169 O168 1.232 . S
C169 O170 1.218 . S
O170 C169 1.218 . S
C171 O164 1.275 1_545 S
C171 O166 1.255 . S
C172 O173 1.258 . S
C172 O174 1.256 . S
O173 Cd165 2.381 . S
O173 C172 1.258 . S
O174 Cd165 2.378 . S
O174 C172 1.256 . S
O175 Cd176 2.300 . S
O175 C182 1.275 . S
Cd176 O175 2.300 . S
Cd176 O184 2.381 . S
Cd176 O185 2.378 . S
O177 Cd178 2.385 . S
O177 C182 1.255 . S
Cd178 O177 2.385 . S
Cd178 O179 2.317 . S
O179 Cd178 2.317 . S
O179 C180 1.232 . S
C180 O179 1.232 . S
C180 O181 1.218 . S
O181 C180 1.218 . S
C182 O175 1.275 . S
C182 O177 1.255 . S
C183 O184 1.258 . S
C183 O185 1.256 . S
O184 Cd176 2.381 . S
O184 C183 1.258 . S
O185 Cd176 2.378 . S
O185 C183 1.256 . S
C186 C187 1.369 . S
C186 C188 1.419 . S
C186 H190 0.930 . S
C187 C186 1.369 . S
C187 C196 1.429 . S
C188 C186 1.419 . S
C188 C189 1.363 . S
C188 H191 0.929 . S
C189 C188 1.363 . S
C189 C195 1.428 . S
H190 C186 0.930 . S
H191 C188 0.929 . S
S192 N193 1.613 . S
S192 N194 1.610 . S
N193 S192 1.613 . S
N193 C196 1.350 . S
N194 S192 1.610 . S
N194 C195 1.351 . S
C195 C189 1.428 . S
C195 N194 1.351 . S
C195 C196 1.434 . S
C196 C187 1.429 . S
C196 N193 1.350 . S
C196 C195 1.434 . S
C197 C198 1.369 . S
C197 C199 1.419 . S
C197 H201 0.930 . S
C198 C197 1.369 . S
C198 C207 1.429 . S
C199 C197 1.419 . S
C199 C200 1.363 . S
C199 H202 0.929 . S
C200 C199 1.363 . S
C200 C206 1.428 . S
H201 C197 0.930 . S
H202 C199 0.929 . S
S203 N204 1.613 . S
S203 N205 1.610 . S
N204 S203 1.613 . S
N204 C207 1.350 . S
N205 S203 1.610 . S
N205 C206 1.351 . S
C206 C200 1.428 . S
C206 N205 1.351 . S
C206 C207 1.434 . S
C207 C198 1.429 . S
C207 N204 1.350 . S
C207 C206 1.434 . S
C208 C209 1.369 . S
C208 C210 1.419 . S
C208 H212 0.930 . S
C209 C208 1.369 . S
C209 C218 1.429 . S
C210 C208 1.419 . S
C210 C211 1.363 . S
C210 H213 0.929 . S
C211 C210 1.363 . S
C211 C217 1.428 . S
H212 C208 0.930 . S
H213 C210 0.929 . S
S214 N215 1.613 . S
S214 N216 1.610 . S
N215 S214 1.613 . S
N215 C218 1.350 . S
N216 S214 1.610 . S
N216 C217 1.351 . S
C217 C211 1.428 . S
C217 N216 1.351 . S
C217 C218 1.434 . S
C218 C209 1.429 . S
C218 N215 1.350 . S
C218 C217 1.434 . S
C219 C220 1.369 . S
C219 C221 1.419 . S
C219 H223 0.930 . S
C220 C219 1.369 . S
C220 C229 1.429 . S
C221 C219 1.419 . S
C221 C222 1.363 . S
C221 H224 0.929 . S
C222 C221 1.363 . S
C222 C228 1.428 . S
H223 C219 0.930 . S
H224 C221 0.929 . S
S225 N226 1.613 . S
S225 N227 1.610 . S
N226 S225 1.613 . S
N226 C229 1.350 . S
N227 S225 1.610 . S
N227 C228 1.351 . S
C228 C222 1.428 . S
C228 N227 1.351 . S
C228 C229 1.434 . S
C229 C220 1.429 . S
C229 N226 1.350 . S
C229 C228 1.434 . S
C230 C231 1.369 . S
C230 C232 1.419 . S
C230 H234 0.930 . S
C231 C230 1.369 . S
C231 C240 1.429 . S
C232 C230 1.419 . S
C232 C233 1.363 . S
C232 H235 0.929 . S
C233 C232 1.363 . S
C233 C239 1.428 . S
H234 C230 0.930 . S
H235 C232 0.929 . S
S236 N237 1.613 . S
S236 N238 1.610 . S
N237 S236 1.613 . S
N237 C240 1.350 . S
N238 S236 1.610 . S
N238 C239 1.351 . S
C239 C233 1.428 . S
C239 N238 1.351 . S
C239 C240 1.434 . S
C240 C231 1.429 . S
C240 N237 1.350 . S
C240 C239 1.434 . S
C241 C242 1.369 . S
C241 C243 1.419 . S
C241 H245 0.930 . S
C242 C241 1.369 . S
C242 C251 1.429 . S
C243 C241 1.419 . S
C243 C244 1.363 . S
C243 H246 0.929 . S
C244 C243 1.363 . S
C244 C250 1.428 . S
H245 C241 0.930 . S
H246 C243 0.929 . S
S247 N248 1.613 . S
S247 N249 1.610 . S
N248 S247 1.613 . S
N248 C251 1.350 . S
N249 S247 1.610 . S
N249 C250 1.351 . S
C250 C244 1.428 . S
C250 N249 1.351 . S
C250 C251 1.434 . S
C251 C242 1.429 . S
C251 N248 1.350 . S
C251 C250 1.434 . S
C252 C253 1.369 . S
C252 C254 1.419 . S
C252 H256 0.930 . S
C253 C252 1.369 . S
C253 C262 1.429 . S
C254 C252 1.419 . S
C254 C255 1.363 . S
C254 H257 0.929 . S
C255 C254 1.363 . S
C255 C261 1.428 . S
H256 C252 0.930 . S
H257 C254 0.929 . S
S258 N259 1.613 . S
S258 N260 1.610 . S
N259 S258 1.613 . S
N259 C262 1.350 . S
N260 S258 1.610 . S
N260 C261 1.351 . S
C261 C255 1.428 . S
C261 N260 1.351 . S
C261 C262 1.434 . S
C262 C253 1.429 . S
C262 N259 1.350 . S
C262 C261 1.434 . S
C263 C264 1.369 . S
C263 C265 1.419 . S
C263 H267 0.930 . S
C264 C263 1.369 . S
C264 C273 1.429 . S
C265 C263 1.419 . S
C265 C266 1.363 . S
C265 H268 0.929 . S
C266 C265 1.363 . S
C266 C272 1.428 . S
H267 C263 0.930 . S
H268 C265 0.929 . S
S269 N270 1.613 . S
S269 N271 1.610 . S
N270 S269 1.613 . S
N270 C273 1.350 . S
N271 S269 1.610 . S
N271 C272 1.351 . S
C272 C266 1.428 . S
C272 N271 1.351 . S
C272 C273 1.434 . S
C273 C264 1.429 . S
C273 N270 1.350 . S
C273 C272 1.434 . S
C274 C275 1.369 . S
C274 C276 1.419 . S
C274 H278 0.930 . S
C275 C274 1.369 . S
C275 C284 1.429 . S
C276 C274 1.419 . S
C276 C277 1.363 . S
C276 H279 0.929 . S
C277 C276 1.363 . S
C277 C283 1.428 . S
H278 C274 0.930 . S
H279 C276 0.929 . S
S280 N281 1.613 . S
S280 N282 1.610 . S
N281 S280 1.613 . S
N281 C284 1.350 . S
N282 S280 1.610 . S
N282 C283 1.351 . S
C283 C277 1.428 . S
C283 N282 1.351 . S
C283 C284 1.434 . S
C284 C275 1.429 . S
C284 N281 1.350 . S
C284 C283 1.434 . S
C285 C286 1.369 . S
C285 C287 1.419 . S
C285 H289 0.930 . S
C286 C285 1.369 . S
C286 C295 1.429 . S
C287 C285 1.419 . S
C287 C288 1.363 . S
C287 H290 0.929 . S
C288 C287 1.363 . S
C288 C294 1.428 . S
H289 C285 0.930 . S
H290 C287 0.929 . S
S291 N292 1.613 . S
S291 N293 1.610 . S
N292 S291 1.613 . S
N292 C295 1.350 . S
N293 S291 1.610 . S
N293 C294 1.351 . S
C294 C288 1.428 . S
C294 N293 1.351 . S
C294 C295 1.434 . S
C295 C286 1.429 . S
C295 N292 1.350 . S
C295 C294 1.434 . S
C296 C297 1.369 . S
C296 C298 1.419 . S
C296 H300 0.930 . S
C297 C296 1.369 . S
C297 C306 1.429 . S
C298 C296 1.419 . S
C298 C299 1.363 . S
C298 H301 0.929 . S
C299 C298 1.363 . S
C299 C305 1.428 . S
H300 C296 0.930 . S
H301 C298 0.929 . S
S302 N303 1.613 . S
S302 N304 1.610 . S
N303 S302 1.613 . S
N303 C306 1.350 . S
N304 S302 1.610 . S
N304 C305 1.351 . S
C305 C299 1.428 . S
C305 N304 1.351 . S
C305 C306 1.434 . S
C306 C297 1.429 . S
C306 N303 1.350 . S
C306 C305 1.434 . S
C307 C308 1.369 . S
C307 C309 1.419 . S
C307 H311 0.930 . S
C308 C307 1.369 . S
C308 C317 1.429 . S
C309 C307 1.419 . S
C309 C310 1.363 . S
C309 H312 0.929 . S
C310 C309 1.363 . S
C310 C316 1.428 . S
H311 C307 0.930 . S
H312 C309 0.929 . S
S313 N314 1.613 . S
S313 N315 1.610 . S
N314 S313 1.613 . S
N314 C317 1.350 . S
N315 S313 1.610 . S
N315 C316 1.351 . S
C316 C310 1.428 . S
C316 N315 1.351 . S
C316 C317 1.434 . S
C317 C308 1.429 . S
C317 N314 1.350 . S
C317 C316 1.434 . S
C318 C319 1.369 . S
C318 C320 1.422 . S
C318 H322 0.930 1_455 S
C319 C318 1.369 . S
C319 C328 1.429 . S
C320 C318 1.422 . S
C320 C321 1.359 1_554 S
C320 H323 0.931 1_454 S
C321 C320 1.359 1_556 S
C321 C327 1.428 1_556 S
H322 C318 0.930 1_655 S
H323 C320 0.931 1_656 S
S324 N325 1.613 . S
S324 N326 1.610 . S
N325 S324 1.613 . S
N325 C328 1.350 . S
N326 S324 1.610 . S
N326 C327 1.351 . S
C327 C321 1.428 1_554 S
C327 N326 1.351 . S
C327 C328 1.434 . S
C328 C319 1.429 . S
C328 N325 1.350 . S
C328 C327 1.434 . S
C329 C330 1.369 1_565 S
C329 C331 1.419 . S
C329 H333 0.930 . S
C330 C329 1.369 1_545 S
C330 C339 1.429 . S
C331 C329 1.419 . S
C331 C332 1.363 1_565 S
C331 H334 0.929 . S
C332 C331 1.363 1_545 S
C332 C338 1.428 . S
H333 C329 0.930 . S
H334 C331 0.929 . S
S335 N336 1.613 . S
S335 N337 1.610 . S
N336 S335 1.613 . S
N336 C339 1.350 . S
N337 S335 1.610 . S
N337 C338 1.351 . S
C338 C332 1.428 . S
C338 N337 1.351 . S
C338 C339 1.434 . S
C339 C330 1.429 . S
C339 N336 1.350 . S
C339 C338 1.434 . S
C340 C341 1.369 . S
C340 C342 1.419 . S
C340 H344 0.930 . S
C341 C340 1.369 . S
C341 C350 1.429 . S
C342 C340 1.419 . S
C342 C343 1.363 . S
C342 H345 0.929 . S
C343 C342 1.363 . S
C343 C349 1.428 . S
H344 C340 0.930 . S
H345 C342 0.929 . S
S346 N347 1.613 . S
S346 N348 1.610 . S
N347 S346 1.613 . S
N347 C350 1.350 . S
N348 S346 1.610 . S
N348 C349 1.351 . S
C349 C343 1.428 . S
C349 N348 1.351 . S
C349 C350 1.434 . S
C350 C341 1.429 . S
C350 N347 1.350 . S
C350 C349 1.434 . S
C351 C352 1.369 1_565 S
C351 C353 1.418 1_565 S
C351 H355 0.930 . S
C352 C351 1.369 1_545 S
C352 C361 1.429 . S
C353 C351 1.418 1_545 S
C353 C354 1.369 . S
C353 H356 0.923 1_545 S
C354 C353 1.369 . S
C354 C360 1.428 . S
H355 C351 0.930 . S
H356 C353 0.923 1_565 S
S357 N358 1.613 . S
S357 N359 1.610 . S
N358 S357 1.613 . S
N358 C361 1.350 . S
N359 S357 1.610 . S
N359 C360 1.351 . S
C360 C354 1.428 . S
C360 N359 1.351 . S
C360 C361 1.434 . S
C361 C352 1.429 . S
C361 N358 1.350 . S
C361 C360 1.434 . S
C362 C363 1.369 . S
C362 C364 1.419 . S
C362 H366 0.930 . S
C363 C362 1.369 . S
C363 C372 1.429 . S
C364 C362 1.419 . S
C364 C365 1.363 1_556 S
C364 H367 0.929 1_556 S
C365 C364 1.363 1_554 S
C365 C371 1.431 . S
H366 C362 0.930 . S
H367 C364 0.929 1_554 S
S368 N369 1.613 . S
S368 N370 1.610 1_556 S
N369 S368 1.613 . S
N369 C372 1.350 . S
N370 S368 1.610 1_554 S
N370 C371 1.354 . S
C371 C365 1.431 . S
C371 N370 1.354 . S
C371 C372 1.428 1_554 S
C372 C363 1.429 . S
C372 N369 1.350 . S
C372 C371 1.428 1_556 S
C373 C374 1.369 . S
C373 C375 1.419 . S
C373 H377 0.930 . S
C374 C373 1.369 . S
C374 C383 1.427 . S
C375 C373 1.419 . S
C375 C376 1.363 1_455 S
C375 H378 0.929 . S
C376 C375 1.363 1_655 S
C376 C382 1.428 . S
H377 C373 0.930 . S
H378 C375 0.929 . S
S379 N380 1.613 . S
S379 N381 1.610 . S
N380 S379 1.613 . S
N380 C383 1.352 1_655 S
N381 S379 1.610 . S
N381 C382 1.351 . S
C382 C376 1.428 . S
C382 N381 1.351 . S
C382 C383 1.434 1_655 S
C383 C374 1.427 . S
C383 N380 1.352 1_455 S
C383 C382 1.434 1_455 S
C187 C7 0.970 . S
C189 C180 0.750 . S
C198 C51 2.037 . S
C200 C158 1.748 . S
C209 C87 1.194 . S
C211 C172 1.185 . S
C220 C16 0.636 . S
C222 C183 0.468 . S
C233 C161 1.870 . S
C231 C42 1.957 . S
C244 C169 1.272 . S
C242 C96 1.407 . S
C253 C47 1.376 . S
C255 C136 1.179 . S
C264 C91 3.266 . S
C266 C147 2.920 . S
C275 C2 2.120 . S
C277 C125 1.762 . S
C288 C139 1.176 . S
C286 C56 1.169 . S
C299 C150 2.909 . S
C297 C82 2.993 . S
C308 C11 1.874 . S
C310 C128 1.830 . S
C321 C149 1.679 . S
C319 C19 1.688 . S
C330 C50 1.410 . S
C332 C127 1.374 . S
C341 C99 1.521 . S
C343 C138 1.467 . S
C354 C171 1.436 . S
C352 C59 1.449 . S
C365 C182 1.120 . S
C363 C90 1.193 . S
C374 C10 1.419 . S
C376 C160 1.364 . S
