# Generated by pormake.
# Topology ocu, (6,8)-cn, num edge types: 1
# Building blocks:
#     Node 0, Type 0, BuildingBlock: CUWYAW_clean_sbu_0, # of connection points: 6
#     Node 1, Type 0, BuildingBlock: CUWYAW_clean_sbu_0, # of connection points: 6
#     Node 2, Type 0, BuildingBlock: CUWYAW_clean_sbu_0, # of connection points: 6
#     Node 3, Type 0, BuildingBlock: CUWYAW_clean_sbu_0, # of connection points: 6
#     Node 4, Type 0, BuildingBlock: CUWYAW_clean_sbu_0, # of connection points: 6
#     Node 5, Type 0, BuildingBlock: CUWYAW_clean_sbu_0, # of connection points: 6
#     Node 6, Type 0, BuildingBlock: CUWYAW_clean_sbu_0, # of connection points: 6
#     Node 7, Type 0, BuildingBlock: CUWYAW_clean_sbu_0, # of connection points: 6
#     Node 8, Type 1, BuildingBlock: GIZVER_clean_sbu_0, # of connection points: 8
#     Node 9, Type 1, BuildingBlock: GIZVER_clean_sbu_0, # of connection points: 8
#     Node 10, Type 1, BuildingBlock: GIZVER_clean_sbu_0, # of connection points: 8
#     Node 11, Type 1, BuildingBlock: GIZVER_clean_sbu_0, # of connection points: 8
#     Node 12, Type 1, BuildingBlock: GIZVER_clean_sbu_0, # of connection points: 8
#     Node 13, Type 1, BuildingBlock: GIZVER_clean_sbu_0, # of connection points: 8
#     Edge 14, Type (0, 1), BuildingBlock: TEMPAE_clean_linker_10, # of connection points: 2
#     Edge 15, Type (0, 1), BuildingBlock: TEMPAE_clean_linker_10, # of connection points: 2
#     Edge 16, Type (0, 1), BuildingBlock: TEMPAE_clean_linker_10, # of connection points: 2
#     Edge 17, Type (0, 1), BuildingBlock: TEMPAE_clean_linker_10, # of connection points: 2
#     Edge 18, Type (0, 1), BuildingBlock: TEMPAE_clean_linker_10, # of connection points: 2
#     Edge 19, Type (0, 1), BuildingBlock: TEMPAE_clean_linker_10, # of connection points: 2
#     Edge 20, Type (0, 1), BuildingBlock: TEMPAE_clean_linker_10, # of connection points: 2
#     Edge 21, Type (0, 1), BuildingBlock: TEMPAE_clean_linker_10, # of connection points: 2
#     Edge 22, Type (0, 1), BuildingBlock: TEMPAE_clean_linker_10, # of connection points: 2
#     Edge 23, Type (0, 1), BuildingBlock: TEMPAE_clean_linker_10, # of connection points: 2
#     Edge 24, Type (0, 1), BuildingBlock: TEMPAE_clean_linker_10, # of connection points: 2
#     Edge 25, Type (0, 1), BuildingBlock: TEMPAE_clean_linker_10, # of connection points: 2
#     Edge 26, Type (0, 1), BuildingBlock: TEMPAE_clean_linker_10, # of connection points: 2
#     Edge 27, Type (0, 1), BuildingBlock: TEMPAE_clean_linker_10, # of connection points: 2
#     Edge 28, Type (0, 1), BuildingBlock: TEMPAE_clean_linker_10, # of connection points: 2
#     Edge 29, Type (0, 1), BuildingBlock: TEMPAE_clean_linker_10, # of connection points: 2
#     Edge 30, Type (0, 1), BuildingBlock: TEMPAE_clean_linker_10, # of connection points: 2
#     Edge 31, Type (0, 1), BuildingBlock: TEMPAE_clean_linker_10, # of connection points: 2
#     Edge 32, Type (0, 1), BuildingBlock: TEMPAE_clean_linker_10, # of connection points: 2
#     Edge 33, Type (0, 1), BuildingBlock: TEMPAE_clean_linker_10, # of connection points: 2
#     Edge 34, Type (0, 1), BuildingBlock: TEMPAE_clean_linker_10, # of connection points: 2
#     Edge 35, Type (0, 1), BuildingBlock: TEMPAE_clean_linker_10, # of connection points: 2
#     Edge 36, Type (0, 1), BuildingBlock: TEMPAE_clean_linker_10, # of connection points: 2
#     Edge 37, Type (0, 1), BuildingBlock: TEMPAE_clean_linker_10, # of connection points: 2
#     Edge 38, Type (0, 1), BuildingBlock: TEMPAE_clean_linker_10, # of connection points: 2
#     Edge 39, Type (0, 1), BuildingBlock: TEMPAE_clean_linker_10, # of connection points: 2
#     Edge 40, Type (0, 1), BuildingBlock: TEMPAE_clean_linker_10, # of connection points: 2
#     Edge 41, Type (0, 1), BuildingBlock: TEMPAE_clean_linker_10, # of connection points: 2
#     Edge 42, Type (0, 1), BuildingBlock: TEMPAE_clean_linker_10, # of connection points: 2
#     Edge 43, Type (0, 1), BuildingBlock: TEMPAE_clean_linker_10, # of connection points: 2
#     Edge 44, Type (0, 1), BuildingBlock: TEMPAE_clean_linker_10, # of connection points: 2
#     Edge 45, Type (0, 1), BuildingBlock: TEMPAE_clean_linker_10, # of connection points: 2
#     Edge 46, Type (0, 1), BuildingBlock: TEMPAE_clean_linker_10, # of connection points: 2
#     Edge 47, Type (0, 1), BuildingBlock: TEMPAE_clean_linker_10, # of connection points: 2
#     Edge 48, Type (0, 1), BuildingBlock: TEMPAE_clean_linker_10, # of connection points: 2
#     Edge 49, Type (0, 1), BuildingBlock: TEMPAE_clean_linker_10, # of connection points: 2
#     Edge 50, Type (0, 1), BuildingBlock: TEMPAE_clean_linker_10, # of connection points: 2
#     Edge 51, Type (0, 1), BuildingBlock: TEMPAE_clean_linker_10, # of connection points: 2
#     Edge 52, Type (0, 1), BuildingBlock: TEMPAE_clean_linker_10, # of connection points: 2
#     Edge 53, Type (0, 1), BuildingBlock: TEMPAE_clean_linker_10, # of connection points: 2
#     Edge 54, Type (0, 1), BuildingBlock: TEMPAE_clean_linker_10, # of connection points: 2
#     Edge 55, Type (0, 1), BuildingBlock: TEMPAE_clean_linker_10, # of connection points: 2
#     Edge 56, Type (0, 1), BuildingBlock: TEMPAE_clean_linker_10, # of connection points: 2
#     Edge 57, Type (0, 1), BuildingBlock: TEMPAE_clean_linker_10, # of connection points: 2
#     Edge 58, Type (0, 1), BuildingBlock: TEMPAE_clean_linker_10, # of connection points: 2
#     Edge 59, Type (0, 1), BuildingBlock: TEMPAE_clean_linker_10, # of connection points: 2
#     Edge 60, Type (0, 1), BuildingBlock: TEMPAE_clean_linker_10, # of connection points: 2
#     Edge 61, Type (0, 1), BuildingBlock: TEMPAE_clean_linker_10, # of connection points: 2
# Relax obj value: 0.184
# Max RMSD: 0.246
# Mean RMSD: 0.164
data_MOF--net-ocu--node1-CUWYAW_clean_sbu_0--node2-GIZVER_clean_sbu_0--edge1-TEMPAE_clean_linker_10
_symmetry_space_group_name_H-M    P1
_symmetry_Int_Tables_number       1
_symmetry_cell_setting            triclinic
loop_
_symmetry_equiv_pos_as_xyz
'x, y, z'
_cell_length_a     45.151745
_cell_length_b     46.776138
_cell_length_c     32.419477
_cell_angle_alpha  83.87484
_cell_angle_beta   103.59628
_cell_angle_gamma 108.51704
loop_
_atom_site_label
_atom_site_type_symbol
_atom_site_fract_x
_atom_site_fract_y
_atom_site_fract_z
_atom_type_partial_charge
C0 C 0.32392 0.33763 0.39099 0.0
Eu1 Eu 0.30696 0.30687 0.32201 0.0
C2 C 0.31182 0.35964 0.40507 0.0
C3 C 0.33254 0.38298 0.43133 0.0
C4 C 0.32094 0.40449 0.44345 0.0
C5 C 0.28867 0.40301 0.42873 0.0
C6 C 0.26807 0.37952 0.40264 0.0
C7 C 0.27949 0.35795 0.39112 0.0
C8 C 0.34222 0.33009 0.25906 0.0
C9 C 0.24491 0.32702 0.2623 0.0
C10 C 0.25781 0.2436 0.1904 0.0
Eu11 Eu 0.27634 0.27498 0.25884 0.0
C12 C 0.27356 0.22855 0.1691 0.0
C13 C 0.25573 0.20217 0.1472 0.0
C14 C 0.27114 0.18607 0.13035 0.0
C15 C 0.30452 0.19638 0.13514 0.0
C16 C 0.32219 0.2231 0.15655 0.0
C17 C 0.30684 0.23902 0.17355 0.0
C18 C 0.24277 0.25122 0.32324 0.0
C19 C 0.33661 0.25366 0.31905 0.0
O20 O 0.30447 0.31023 0.38747 0.0
O21 O 0.33745 0.34624 0.35864 0.0
O22 O 0.3534 0.32237 0.2978 0.0
O23 O 0.31154 0.32232 0.25363 0.0
O24 O 0.2678 0.33183 0.29735 0.0
O25 O 0.24299 0.30481 0.23906 0.0
O26 O 0.2686 0.27297 0.19015 0.0
O27 O 0.25346 0.23204 0.2276 0.0
O28 O 0.23071 0.25916 0.28511 0.0
O29 O 0.2732 0.25908 0.32709 0.0
O30 O 0.31831 0.25316 0.2803 0.0
O31 O 0.33479 0.27252 0.34508 0.0
H32 H 0.35758 0.38456 0.44231 0.0
H33 H 0.33711 0.42237 0.46387 0.0
H34 H 0.24291 0.37751 0.39174 0.0
H35 H 0.26292 0.33985 0.37148 0.0
H36 H 0.23003 0.1937 0.14398 0.0
H37 H 0.2571 0.16552 0.11392 0.0
H38 H 0.34802 0.23118 0.16132 0.0
H39 H 0.32105 0.2591 0.19102 0.0
C40 C 0.84374 0.32688 0.17697 0.0
Eu41 Eu 0.8158 0.29459 0.2336 0.0
C42 C 0.83939 0.35681 0.16666 0.0
C43 C 0.83173 0.36745 0.12468 0.0
C44 C 0.82242 0.3938 0.11617 0.0
C45 C 0.82 0.40954 0.14961 0.0
C46 C 0.82425 0.39632 0.19086 0.0
C47 C 0.83506 0.37134 0.1993 0.0
C48 C 0.76378 0.24468 0.22217 0.0
C49 C 0.75557 0.32237 0.23387 0.0
C50 C 0.75612 0.26758 0.37622 0.0
Eu51 Eu 0.78344 0.28373 0.3136 0.0
C52 C 0.77093 0.27192 0.42151 0.0
C53 C 0.76299 0.29094 0.44519 0.0
C54 C 0.76805 0.28637 0.48953 0.0
C55 C 0.77339 0.25881 0.50552 0.0
C56 C 0.79582 0.25203 0.4876 0.0
C57 C 0.79151 0.25543 0.44338 0.0
C58 C 0.83683 0.33316 0.32489 0.0
C59 C 0.84006 0.25156 0.31308 0.0
O60 O 0.85992 0.32309 0.21554 0.0
O61 O 0.81711 0.30499 0.16677 0.0
O62 O 0.78385 0.2533 0.19718 0.0
O63 O 0.77412 0.26156 0.25361 0.0
O64 O 0.78147 0.32423 0.2195 0.0
O65 O 0.74873 0.3043 0.26692 0.0
O66 O 0.76368 0.24823 0.35717 0.0
O67 O 0.75476 0.29217 0.35338 0.0
O68 O 0.81971 0.32242 0.3528 0.0
O69 O 0.8246 0.31665 0.29333 0.0
O70 O 0.81665 0.25346 0.33043 0.0
O71 O 0.84573 0.2666 0.27676 0.0
H72 H 0.83281 0.35537 0.09869 0.0
H73 H 0.81814 0.40223 0.08362 0.0
H74 H 0.82197 0.40639 0.21801 0.0
H75 H 0.83916 0.36279 0.23179 0.0
H76 H 0.75001 0.30643 0.42974 0.0
H77 H 0.75759 0.2977 0.50699 0.0
H78 H 0.80847 0.23648 0.50377 0.0
H79 H 0.80164 0.24324 0.42672 0.0
C80 C 0.78207 0.74024 0.39293 0.0
Eu81 Eu 0.78358 0.77529 0.32517 0.0
C82 C 0.79181 0.71304 0.40342 0.0
C83 C 0.7896 0.69483 0.37038 0.0
C84 C 0.81045 0.67777 0.37513 0.0
C85 C 0.83343 0.67893 0.41278 0.0
C86 C 0.83254 0.69356 0.44778 0.0
C87 C 0.81162 0.71062 0.44312 0.0
C88 C 0.73682 0.76004 0.25409 0.0
C89 C 0.82306 0.75324 0.26318 0.0
C90 C 0.8053 0.84882 0.19071 0.0
Eu91 Eu 0.79996 0.81314 0.25744 0.0
C92 C 0.81039 0.88118 0.18468 0.0
C93 C 0.82223 0.89945 0.22016 0.0
C94 C 0.81747 0.9276 0.21752 0.0
C95 C 0.80018 0.93715 0.17968 0.0
C96 C 0.7932 0.92099 0.14267 0.0
C97 C 0.79801 0.89283 0.14526 0.0
C98 C 0.84693 0.827 0.32826 0.0
C99 C 0.76144 0.83608 0.32069 0.0
O100 O 0.80583 0.7645 0.38936 0.0
O101 O 0.75713 0.73841 0.36207 0.0
O102 O 0.73187 0.7637 0.29067 0.0
O103 O 0.76644 0.76673 0.25594 0.0
O104 O 0.81564 0.75067 0.30154 0.0
O105 O 0.81539 0.77485 0.23714 0.0
O106 O 0.77767 0.83327 0.19969 0.0
O107 O 0.82916 0.84112 0.21507 0.0
O108 O 0.85162 0.82396 0.29141 0.0
O109 O 0.81748 0.82139 0.32647 0.0
O110 O 0.77239 0.84093 0.28449 0.0
O111 O 0.76417 0.81146 0.34373 0.0
H112 H 0.77451 0.69645 0.33938 0.0
H113 H 0.8108 0.66619 0.34811 0.0
H114 H 0.85025 0.69451 0.47704 0.0
H115 H 0.81367 0.72467 0.46878 0.0
H116 H 0.83205 0.89073 0.25088 0.0
H117 H 0.82307 0.93977 0.24638 0.0
H118 H 0.77982 0.92789 0.11319 0.0
H119 H 0.78903 0.87898 0.1176 0.0
C120 C 0.24246 0.84129 0.31767 0.0
Eu121 Eu 0.2706 0.807 0.29483 0.0
C122 C 0.25131 0.8712 0.33559 0.0
C123 C 0.23048 0.88867 0.32287 0.0
C124 C 0.23442 0.91366 0.34591 0.0
C125 C 0.25912 0.92136 0.38228 0.0
C126 C 0.28161 0.90538 0.39276 0.0
C127 C 0.27784 0.88055 0.36943 0.0
C128 C 0.24779 0.76482 0.23411 0.0
C129 C 0.25353 0.74072 0.34915 0.0
C130 C 0.34538 0.73749 0.28299 0.0
Eu131 Eu 0.31302 0.76971 0.30138 0.0
C132 C 0.34245 0.70799 0.26797 0.0
C133 C 0.36895 0.69724 0.27964 0.0
C134 C 0.37014 0.67327 0.25858 0.0
C135 C 0.3448 0.65962 0.22532 0.0
C136 C 0.31715 0.66894 0.21597 0.0
C137 C 0.31595 0.69295 0.2372 0.0
C138 C 0.33596 0.81444 0.35954 0.0
C139 C 0.3279 0.83418 0.24351 0.0
O140 O 0.24409 0.84005 0.27809 0.0
O141 O 0.25272 0.82106 0.34284 0.0
O142 O 0.24468 0.79173 0.22844 0.0
O143 O 0.2616 0.76136 0.27204 0.0
O144 O 0.24942 0.76793 0.34106 0.0
O145 O 0.27567 0.73477 0.33373 0.0
O146 O 0.34217 0.73906 0.32172 0.0
O147 O 0.33231 0.75492 0.25548 0.0
O148 O 0.33994 0.78795 0.36735 0.0
O149 O 0.32175 0.81566 0.32163 0.0
O150 O 0.33131 0.8067 0.25108 0.0
O151 O 0.30743 0.8411 0.26113 0.0
H152 H 0.20992 0.88183 0.2969 0.0
H153 H 0.21648 0.92533 0.33734 0.0
H154 H 0.30092 0.91096 0.4205 0.0
H155 H 0.29444 0.86753 0.37965 0.0
H156 H 0.38967 0.70867 0.30311 0.0
H157 H 0.392 0.66704 0.26628 0.0
H158 H 0.29711 0.65865 0.19088 0.0
H159 H 0.29515 0.70088 0.22785 0.0
C160 C 0.35818 0.81734 0.71467 0.0
Eu161 Eu 0.31313 0.79649 0.75715 0.0
C162 C 0.39284 0.82301 0.71981 0.0
C163 C 0.40386 0.80708 0.69551 0.0
C164 C 0.43579 0.81684 0.69201 0.0
C165 C 0.45701 0.84306 0.71209 0.0
C166 C 0.44675 0.85679 0.74033 0.0
C167 C 0.41492 0.84686 0.74416 0.0
C168 C 0.26038 0.74903 0.73103 0.0
C169 C 0.25626 0.8261 0.74824 0.0
C170 C 0.22557 0.74492 0.85239 0.0
Eu171 Eu 0.27405 0.77374 0.81941 0.0
C172 C 0.20979 0.7127 0.85905 0.0
C173 C 0.22732 0.6928 0.87753 0.0
C174 C 0.21146 0.66232 0.88421 0.0
C175 C 0.17802 0.65136 0.87181 0.0
C176 C 0.1609 0.67105 0.85098 0.0
C177 C 0.17666 0.70147 0.84482 0.0
C178 C 0.3259 0.82017 0.8496 0.0
C179 C 0.33292 0.74761 0.82998 0.0
O180 O 0.34019 0.78927 0.71372 0.0
O181 O 0.34891 0.83435 0.73525 0.0
O182 O 0.26989 0.7727 0.7072 0.0
O183 O 0.27918 0.75138 0.76674 0.0
O184 O 0.28225 0.82789 0.7346 0.0
O185 O 0.24813 0.80639 0.77944 0.0
O186 O 0.22275 0.75421 0.81258 0.0
O187 O 0.25432 0.75637 0.8754 0.0
O188 O 0.31268 0.79763 0.8729 0.0
O189 O 0.30949 0.81878 0.81199 0.0
O190 O 0.30296 0.74026 0.83437 0.0
O191 O 0.34395 0.77217 0.8067 0.0
H192 H 0.38734 0.7884 0.6768 0.0
H193 H 0.44316 0.80549 0.6706 0.0
H194 H 0.46234 0.87712 0.75619 0.0
H195 H 0.40725 0.85937 0.76369 0.0
H196 H 0.2531 0.70087 0.88769 0.0
H197 H 0.22512 0.64757 0.90047 0.0
H198 H 0.13503 0.66338 0.84186 0.0
H199 H 0.16285 0.7164 0.82981 0.0
C200 C 0.32568 0.25439 0.69441 0.0
Eu201 Eu 0.31159 0.28041 0.75241 0.0
C202 C 0.34616 0.23779 0.68289 0.0
C203 C 0.37575 0.25335 0.67197 0.0
C204 C 0.39271 0.23812 0.65564 0.0
C205 C 0.38068 0.20674 0.6493 0.0
C206 C 0.35133 0.19115 0.66098 0.0
C207 C 0.33437 0.2064 0.67729 0.0
C208 C 0.34852 0.32852 0.80015 0.0
C209 C 0.32864 0.24919 0.84732 0.0
C210 C 0.26912 0.31964 0.8854 0.0
Eu211 Eu 0.28428 0.29295 0.82889 0.0
C212 C 0.24837 0.33671 0.8954 0.0
C213 C 0.21954 0.32143 0.90847 0.0
C214 C 0.20244 0.33718 0.92359 0.0
C215 C 0.21354 0.36892 0.92666 0.0
C216 C 0.24203 0.38425 0.91258 0.0
C217 C 0.25915 0.36846 0.89746 0.0
C218 C 0.24692 0.24524 0.78028 0.0
C219 C 0.26894 0.32504 0.73396 0.0
O220 O 0.30448 0.2403 0.71714 0.0
O221 O 0.33793 0.28316 0.70247 0.0
O222 O 0.34822 0.32689 0.76025 0.0
O223 O 0.33196 0.30379 0.81361 0.0
O224 O 0.32584 0.24893 0.80576 0.0
O225 O 0.31754 0.26681 0.86519 0.0
O226 O 0.29099 0.33329 0.86352 0.0
O227 O 0.25689 0.29083 0.8776 0.0
O228 O 0.24727 0.24665 0.82024 0.0
O229 O 0.26381 0.27 0.76741 0.0
O230 O 0.27218 0.3256 0.7756 0.0
O231 O 0.27849 0.30619 0.71632 0.0
H232 H 0.38558 0.27754 0.67514 0.0
H233 H 0.41535 0.25111 0.64785 0.0
H234 H 0.34076 0.16717 0.65625 0.0
H235 H 0.31141 0.19361 0.68435 0.0
H236 H 0.21045 0.29705 0.90803 0.0
H237 H 0.18045 0.32427 0.93319 0.0
H238 H 0.25189 0.40851 0.91463 0.0
H239 H 0.28149 0.38118 0.88859 0.0
C240 C 0.7377 0.32685 0.76921 0.0
Eu241 Eu 0.77666 0.29423 0.78241 0.0
C242 C 0.7342 0.34849 0.79601 0.0
C243 C 0.72408 0.37315 0.77743 0.0
C244 C 0.72058 0.39365 0.80293 0.0
C245 C 0.72691 0.38966 0.8475 0.0
C246 C 0.73792 0.36529 0.86592 0.0
C247 C 0.74174 0.34504 0.84044 0.0
C248 C 0.76759 0.2479 0.72858 0.0
C249 C 0.7527 0.23979 0.84983 0.0
C250 C 0.85674 0.23096 0.82801 0.0
Eu251 Eu 0.81782 0.26322 0.81698 0.0
C252 C 0.86417 0.21605 0.79569 0.0
C253 C 0.85748 0.18459 0.79784 0.0
C254 C 0.85986 0.16967 0.76422 0.0
C255 C 0.86906 0.18603 0.72796 0.0
C256 C 0.87616 0.21755 0.72612 0.0
C257 C 0.87375 0.23241 0.75962 0.0
C258 C 0.82563 0.30781 0.87215 0.0
C259 C 0.84173 0.31884 0.75024 0.0
O260 O 0.76421 0.3349 0.75568 0.0
O261 O 0.73018 0.29879 0.78285 0.0
O262 O 0.76735 0.27512 0.71655 0.0
O263 O 0.77247 0.24629 0.76864 0.0
O264 O 0.75224 0.26741 0.83628 0.0
O265 O 0.77547 0.23064 0.84186 0.0
O266 O 0.82749 0.22011 0.83322 0.0
O267 O 0.86636 0.26037 0.82689 0.0
O268 O 0.82455 0.28013 0.88318 0.0
O269 O 0.82187 0.31064 0.83205 0.0
O270 O 0.84207 0.29102 0.76301 0.0
O271 O 0.81923 0.32778 0.75934 0.0
H272 H 0.71872 0.37645 0.74321 0.0
H273 H 0.71262 0.41247 0.7877 0.0
H274 H 0.74264 0.36122 0.90001 0.0
H275 H 0.75013 0.3264 0.8555 0.0
H276 H 0.84968 0.17149 0.82509 0.0
H277 H 0.85479 0.14538 0.76673 0.0
H278 H 0.88319 0.2307 0.69848 0.0
H279 H 0.87868 0.25664 0.75668 0.0
C280 C 0.78921 0.83099 0.89423 0.0
Eu281 Eu 0.80155 0.80977 0.8313 0.0
C282 C 0.78164 0.8567 0.90669 0.0
C283 C 0.77504 0.87923 0.87708 0.0
C284 C 0.76329 0.90094 0.88857 0.0
C285 C 0.75774 0.90027 0.92974 0.0
C286 C 0.76535 0.87802 0.95941 0.0
C287 C 0.77724 0.85658 0.94799 0.0
C288 C 0.84342 0.84207 0.77809 0.0
C289 C 0.75659 0.81904 0.7393 0.0
C290 C 0.80619 0.74697 0.69641 0.0
Eu291 Eu 0.79396 0.7676 0.75991 0.0
C292 C 0.81491 0.72188 0.68399 0.0
C293 C 0.83485 0.70792 0.71312 0.0
C294 C 0.8479 0.68833 0.69905 0.0
C295 C 0.84115 0.68226 0.65563 0.0
C296 C 0.81959 0.6949 0.62705 0.0
C297 C 0.80668 0.7146 0.64113 0.0
C298 C 0.75171 0.73528 0.81228 0.0
C299 C 0.83772 0.75734 0.85267 0.0
O300 O 0.76729 0.81429 0.865 0.0
O301 O 0.81842 0.83496 0.88982 0.0
O302 O 0.84041 0.85164 0.81264 0.0
O303 O 0.82441 0.81494 0.77484 0.0
O304 O 0.765 0.82485 0.78022 0.0
O305 O 0.76575 0.79881 0.72397 0.0
O306 O 0.82794 0.76481 0.72458 0.0
O307 O 0.77702 0.74184 0.70175 0.0
O308 O 0.75511 0.72575 0.77795 0.0
O309 O 0.77079 0.7624 0.81615 0.0
O310 O 0.8301 0.75198 0.81156 0.0
O311 O 0.82843 0.7776 0.86772 0.0
H312 H 0.77803 0.87944 0.84483 0.0
H313 H 0.75802 0.91787 0.86501 0.0
H314 H 0.76079 0.87622 0.99107 0.0
H315 H 0.78175 0.83906 0.97104 0.0
H316 H 0.84159 0.7133 0.74639 0.0
H317 H 0.86461 0.67923 0.7219 0.0
H318 H 0.81344 0.69028 0.59356 0.0
H319 H 0.79136 0.72519 0.61819 0.0
Co320 Co 0.09101 0.99337 0.54254 0.0
Co321 Co 0.08359 0.99469 0.6155 0.0
Co322 Co 0.04644 0.03977 0.54698 0.0
O323 O 0.08436 0.02373 0.57174 0.0
H324 H 0.10376 0.04031 0.57852 0.0
O325 O 1.00903 0.05639 0.52137 0.0
Co326 Co 1.00083 0.08613 0.54996 0.0
Co327 Co 1.01192 0.08698 0.47917 0.0
H328 H 0.98975 0.03999 0.5127 0.0
O329 O 0.12115 0.99104 0.65449 0.0
O330 O 0.09722 0.96584 0.59475 0.0
O331 O 0.04154 0.97864 0.62796 0.0
O332 O 1.01523 1.00801 0.58501 0.0
O333 O 0.06399 0.06939 0.59341 0.0
O334 O 0.98981 0.10984 0.57801 0.0
O335 O 0.95814 0.06905 0.54041 0.0
O336 O 0.04527 0.10725 0.56481 0.0
O337 O 0.07785 0.07129 0.50984 0.0
O338 O 0.05497 0.10453 0.47019 0.0
O339 O 0.9958 0.11486 0.49766 0.0
O340 O 0.97598 0.08997 0.43694 0.0
C341 C 0.12899 0.98745 0.52509 0.0
C342 C 1.02518 0.98173 0.50757 0.0
C343 C 1.01583 0.9857 0.61382 0.0
C344 C 0.11924 0.97001 0.62993 0.0
C345 C 0.96177 0.09079 0.56488 0.0
C346 C 0.06686 0.09751 0.58915 0.0
C347 C 0.0793 0.09527 0.48391 0.0
C348 C 0.97593 0.11083 0.46037 0.0
O349 O 0.10045 0.96863 0.51411 0.0
O350 O 0.13357 1.01003 0.54867 0.0
O351 O 1.02876 1.00988 0.50065 0.0
O352 O 0.047 0.97253 0.53196 0.0
Co353 Co 0.57253 0.99849 0.03757 0.0
Co354 Co 0.56281 1.00634 0.10849 0.0
Co355 Co 0.52997 0.04595 0.03944 0.0
O356 O 0.56662 0.03079 0.0613 0.0
H357 H 0.58633 0.04719 0.06738 0.0
O358 O 0.49418 0.06275 0.01691 0.0
Co359 Co 0.49126 0.09456 0.04629 0.0
Co360 Co 0.49652 0.08933 0.97085 0.0
H361 H 0.4741 0.04673 0.01108 0.0
O362 O 0.59757 1.013 0.14926 0.0
O363 O 0.58016 0.97947 0.09594 0.0
O364 O 0.52276 0.98867 0.12313 0.0
O365 O 0.49745 1.01467 0.0736 0.0
O366 O 0.54779 0.07323 0.08872 0.0
O367 O 0.48418 0.12151 0.07367 0.0
O368 O 0.44876 0.0806 0.03988 0.0
O369 O 0.53611 0.11337 0.05739 0.0
O370 O 0.56196 0.07709 1.00496 0.0
O371 O 0.53738 0.10375 0.95485 0.0
O372 O 0.48745 0.11954 0.9932 0.0
O373 O 0.4589 0.09301 0.93536 0.0
C374 C 0.60991 0.98846 0.02314 0.0
C375 C 0.50877 0.98856 0.99845 0.0
C376 C 0.49725 0.99433 0.1045 0.0
C377 C 0.60176 0.99265 0.12868 0.0
C378 C 0.45501 0.10392 0.06273 0.0
C379 C 0.55438 0.10172 0.08482 0.0
C380 C 0.56259 0.09723 0.97376 0.0
C381 C 0.46308 0.11407 0.96118 0.0
O382 O 0.58115 0.9697 0.01592 0.0
O383 O 0.61545 1.0139 0.04115 0.0
O384 O 0.51247 1.01687 0.9921 0.0
O385 O 0.52795 0.97882 0.02775 0.0
Co386 Co 0.05162 0.48298 0.08126 0.0
Co387 Co 0.05213 0.4878 0.15888 0.0
Co388 Co 1.01125 0.53516 0.10798 0.0
O389 O 0.04984 0.51698 0.11304 0.0
H390 H 0.06989 0.53292 0.11603 0.0
O391 O 0.97424 0.55586 0.10619 0.0
Co392 Co 0.97531 0.59682 0.13184 0.0
Co393 Co 0.97246 0.58218 0.05815 0.0
H394 H 0.95388 0.54065 0.1048 0.0
O395 O 0.0915 0.48235 0.19159 0.0
O396 O 0.06074 0.4557 0.13535 0.0
O397 O 1.01472 0.48066 0.18602 0.0
O398 O 1.01396 0.52791 0.17023 0.0
O399 O 0.0443 0.57567 0.12046 0.0
O400 O 0.97405 0.63168 0.15672 0.0
O401 O 0.93114 0.59372 0.1351 0.0
O402 O 1.02049 0.60834 0.13487 0.0
O403 O 1.01042 0.54168 0.0459 0.0
O404 O 1.00569 0.58732 0.02682 0.0
O405 O 0.96894 0.61797 0.07396 0.0
O406 O 0.93322 0.5847 0.02693 0.0
C407 C 0.08488 0.47017 0.05573 0.0
C408 C 0.97972 0.46969 0.07721 0.0
C409 C 1.00405 0.50255 0.18907 0.0
C410 C 0.08598 0.45995 0.16743 0.0
C411 C 0.94326 0.62024 0.153 0.0
C412 C 0.04512 0.60171 0.13093 0.0
C413 C 1.01622 0.56578 0.02296 0.0
C414 C 0.94346 0.61135 0.04286 0.0
O415 O 0.05477 0.45491 0.04999 0.0
O416 O 0.09507 0.49404 0.0793 0.0
O417 O 0.97722 0.49347 0.09202 0.0
O418 O 1.00681 0.46753 0.07519 0.0
Co419 Co 0.58688 0.48757 0.02989 0.0
Co420 Co 0.58033 0.48986 0.10358 0.0
Co421 Co 0.54517 0.53704 0.0364 0.0
O422 O 0.58241 0.51951 0.05935 0.0
H423 H 0.60238 0.53555 0.0658 0.0
O424 O 0.50742 0.55363 0.01326 0.0
Co425 Co 0.5026 0.58489 0.04241 0.0
Co426 Co 0.50834 0.5825 0.9692 0.0
H427 H 0.48768 0.5373 0.0072 0.0
O428 O 0.61797 0.48529 0.14207 0.0
O429 O 0.59277 0.4603 0.08259 0.0
O430 O 0.53754 0.47325 0.11505 0.0
O431 O 0.51416 0.50583 0.07467 0.0
O432 O 0.56465 0.56749 0.08267 0.0
O433 O 0.49523 0.61085 0.07111 0.0
O434 O 0.46015 0.56905 0.03957 0.0
O435 O 0.54661 0.60477 0.05003 0.0
O436 O 0.57599 0.56835 0.99785 0.0
O437 O 0.55025 0.59856 0.95608 0.0
O438 O 0.49474 0.61161 0.98939 0.0
O439 O 0.47096 0.58568 0.93008 0.0
C440 C 0.62337 0.47836 0.01285 0.0
C441 C 0.522 0.4791 0.99394 0.0
C442 C 0.51298 0.48223 0.10139 0.0
C443 C 0.61543 0.46429 0.11713 0.0
C444 C 0.46631 0.59241 0.06244 0.0
C445 C 0.56802 0.59573 0.07578 0.0
C446 C 0.5757 0.59099 0.96967 0.0
C447 C 0.4728 0.60702 0.95405 0.0
O448 O 0.5941 0.46104 1.00209 0.0
O449 O 0.62978 0.50225 0.03477 0.0
O450 O 0.52591 0.50743 0.98972 0.0
O451 O 0.54229 0.46861 0.01974 0.0
Co452 Co 0.12241 0.4957 0.57745 0.0
Co453 Co 0.09237 0.50018 0.49766 0.0
Co454 Co 0.05884 0.5228 0.55435 0.0
O455 O 0.07957 0.49269 0.55006 0.0
H456 H 0.06531 0.47243 0.5515 0.0
O457 O 0.0389 0.55354 0.55852 0.0
Co458 Co 1.00663 0.55832 0.51305 0.0
Co459 Co 1.00896 0.54635 0.58901 0.0
H460 H 0.05501 0.57249 0.56666 0.0
O461 O 0.10319 0.47144 0.47405 0.0
O462 O 0.13498 0.50587 0.52186 0.0
O463 O 0.09176 0.53736 0.46492 0.0
O464 O 0.08967 0.55755 0.52244 0.0
O465 O 1.02948 0.50771 0.49898 0.0
O466 O 0.97948 0.56693 0.46907 0.0
O467 O 1.02213 0.5984 0.51082 0.0
O468 O 0.98657 0.51598 0.50917 0.0
O469 O 1.02774 0.48817 0.58717 0.0
O470 O 0.99424 0.50607 0.61077 0.0
O471 O 0.97817 0.55984 0.55203 0.0
O472 O 1.00812 0.57769 0.61621 0.0
C473 C 0.14779 0.4656 0.5922 0.0
C474 C 0.11905 0.54901 0.60955 0.0
C475 C 0.09772 0.5606 0.4859 0.0
C476 C 0.1314 0.48544 0.49546 0.0
C477 C 0.99856 0.59398 0.47784 0.0
C478 C 0.9992 0.50074 0.49253 0.0
C479 C 1.00433 0.48434 0.60678 0.0
C480 C 0.98451 0.57734 0.58402 0.0
O481 O 0.1614 0.49379 0.60192 0.0
O482 O 0.11785 0.45671 0.57265 0.0
O483 O 0.08921 0.53768 0.60878 0.0
O484 O 0.1325 0.53751 0.5881 0.0
Co485 Co 0.63985 1.00235 0.51435 0.0
Co486 Co 0.62397 1.01073 0.43587 0.0
Co487 Co 0.57702 0.04025 0.47806 0.0
O488 O 0.59894 1.00672 0.47692 0.0
H489 H 0.58291 0.98723 0.47444 0.0
O490 O 0.5547 0.07419 0.47846 0.0
Co491 Co 0.50906 0.07651 0.45132 0.0
Co492 Co 0.5391 0.07334 0.52729 0.0
H493 H 0.57016 0.09383 0.48053 0.0
O494 O 0.62368 0.97826 0.40506 0.0
O495 O 0.66067 0.99726 0.4629 0.0
O496 O 0.63377 0.05241 0.41469 0.0
O497 O 0.58822 0.05906 0.4223 0.0
O498 O 0.53479 1.01298 0.44737 0.0
O499 O 0.46905 0.0817 0.4258 0.0
O500 O 0.51401 0.11922 0.44261 0.0
O501 O 0.49602 0.03271 0.45379 0.0
O502 O 0.56725 1.01965 0.53301 0.0
O503 O 0.54109 0.04 0.56617 0.0
O504 O 0.49857 0.07777 0.5083 0.0
O505 O 0.5413 0.10874 0.5503 0.0
C506 C 0.65566 0.96657 0.54651 0.0
C507 C 0.64738 0.06874 0.52584 0.0
C508 C 0.61556 0.06897 0.41172 0.0
C509 C 0.65076 0.97851 0.43044 0.0
C510 C 0.48294 0.11076 0.42678 0.0
C511 C 0.50569 1.01046 0.44869 0.0
C512 C 0.55432 1.0202 0.56383 0.0
C513 C 0.51075 0.1005 0.53401 0.0
O514 O 0.67345 0.99454 0.55034 0.0
O515 O 0.62738 0.96077 0.52096 0.0
O516 O 0.61789 0.06731 0.51165 0.0
O517 O 0.65872 0.04771 0.51937 0.0
C518 C 0.18847 0.21586 0.33596 0.0
C519 C 0.22202 0.2274 0.35068 0.0
C520 C 0.16804 0.19355 0.35919 0.0
C521 C 0.18042 0.18159 0.39956 0.0
C522 C 0.21431 0.19316 0.41484 0.0
C523 C 0.23438 0.2154 0.39058 0.0
C524 C 0.13269 0.18273 0.34018 0.0
C525 C 0.22953 0.18215 0.45739 0.0
C526 C 0.11917 0.14708 0.47363 0.0
C527 C 0.1099 0.11544 0.46926 0.0
C528 C 0.14256 0.16812 0.45321 0.0
C529 C 0.1577 0.15834 0.42584 0.0
C530 C 0.14909 0.12631 0.42198 0.0
C531 C 0.12573 0.10559 0.44337 0.0
C532 C 0.15021 0.20132 0.4599 0.0
C533 C 0.16364 0.11383 0.3935 0.0
H534 H 0.17786 0.22429 0.30552 0.0
H535 H 0.25992 0.22351 0.40317 0.0
H536 H 0.12455 0.15781 0.33802 0.0
H537 H 0.11925 0.18842 0.36104 0.0
H538 H 0.1265 0.1929 0.30801 0.0
H539 H 0.25589 0.19253 0.46514 0.0
H540 H 0.21935 0.18742 0.4826 0.0
H541 H 0.22406 0.15727 0.45783 0.0
H542 H 0.10717 0.15568 0.49248 0.0
H543 H 0.11872 0.08166 0.43797 0.0
H544 H 0.14134 0.21261 0.42982 0.0
H545 H 0.17646 0.21193 0.46886 0.0
H546 H 0.13917 0.20555 0.48495 0.0
H547 H 0.15524 0.12056 0.36001 0.0
H548 H 0.15718 0.08883 0.39627 0.0
H549 H 0.19006 0.12339 0.40126 0.0
C550 C 0.88917 0.23231 0.32487 0.0
C551 C 0.86044 0.23146 0.33585 0.0
C552 C 0.90829 0.21386 0.34649 0.0
C553 C 0.89872 0.19316 0.37999 0.0
C554 C 0.8697 0.19216 0.3911 0.0
C555 C 0.85138 0.21124 0.36954 0.0
C556 C 0.93902 0.21663 0.33341 0.0
C557 C 0.85774 0.1707 0.42593 0.0
C558 C 0.93148 0.12417 0.40443 0.0
C559 C 0.95547 0.13169 0.44178 0.0
C560 C 0.91289 0.14344 0.38487 0.0
C561 C 0.91821 0.17185 0.40198 0.0
C562 C 0.9422 0.17955 0.43996 0.0
C563 C 0.96012 0.1595 0.4594 0.0
C564 C 0.88731 0.13321 0.34553 0.0
C565 C 0.94931 0.20931 0.45994 0.0
H566 H 0.89701 0.24772 0.29942 0.0
H567 H 0.8295 0.20997 0.37897 0.0
H568 H 0.95924 0.22159 0.3614 0.0
H569 H 0.93764 0.19491 0.32107 0.0
H570 H 0.94427 0.23465 0.30855 0.0
H571 H 0.8336 0.17051 0.4286 0.0
H572 H 0.85686 0.14744 0.42022 0.0
H573 H 0.87451 0.17735 0.45673 0.0
H574 H 0.92705 0.10287 0.39017 0.0
H575 H 0.97832 0.16599 0.48806 0.0
H576 H 0.89277 0.14911 0.31845 0.0
H577 H 0.86388 0.13334 0.35059 0.0
H578 H 0.8851 0.11019 0.33673 0.0
H579 H 0.96984 0.21309 0.48762 0.0
H580 H 0.92802 0.21011 0.47067 0.0
H581 H 0.95465 0.22808 0.43616 0.0
C582 C 0.90366 0.85678 0.35452 0.0
C583 C 0.87202 0.84684 0.35983 0.0
C584 C 0.92726 0.87856 0.38071 0.0
C585 C 0.91908 0.89057 0.41322 0.0
C586 C 0.88738 0.87988 0.4197 0.0
C587 C 0.86416 0.8581 0.39284 0.0
C588 C 0.96082 0.88925 0.37288 0.0
C589 C 0.87785 0.89197 0.45428 0.0
C590 C 0.98981 0.92854 0.49896 0.0
C591 C 0.9962 0.95901 0.48538 0.0
C592 C 0.96387 0.90619 0.47688 0.0
C593 C 0.94391 0.91441 0.4401 0.0
C594 C 0.94941 0.94524 0.42716 0.0
C595 C 0.97544 0.96722 0.4501 0.0
C596 C 0.95859 0.87363 0.49203 0.0
C597 C 0.9286 0.95487 0.38807 0.0
H598 H 0.90984 0.84809 0.32907 0.0
H599 H 0.83968 0.85049 0.39697 0.0
H600 H 0.96758 0.91381 0.36484 0.0
H601 H 0.97803 0.88572 0.40209 0.0
H602 H 0.96334 0.87734 0.34664 0.0
H603 H 0.8526 0.88035 0.45636 0.0
H604 H 0.89356 0.88939 0.48546 0.0
H605 H 0.88098 0.91644 0.44823 0.0
H606 H 1.00539 0.92201 0.52662 0.0
H607 H 0.9801 0.99072 0.43958 0.0
H608 H 0.96327 0.86093 0.46851 0.0
H609 H 0.93337 0.86296 0.49476 0.0
H610 H 0.97442 0.87128 0.52326 0.0
H611 H 0.93171 0.946 0.35947 0.0
H612 H 0.93449 0.9798 0.38411 0.0
H613 H 0.90303 0.9453 0.38961 0.0
C614 C 0.25603 0.93096 0.45486 0.0
C615 C 0.25709 0.94161 0.41293 0.0
C616 C 0.243 0.94403 0.4803 0.0
C617 C 0.23094 0.96824 0.46323 0.0
C618 C 0.23645 0.98183 0.42344 0.0
C619 C 0.24932 0.96817 0.39853 0.0
C620 C 0.23806 0.92917 0.52288 0.0
C621 C 0.22481 1.00826 0.40467 0.0
C622 C 0.14909 0.96067 0.48098 0.0
C623 C 0.15573 0.98273 0.51068 0.0
C624 C 0.17348 0.95587 0.46567 0.0
C625 C 0.20555 0.97348 0.48057 0.0
C626 C 0.21262 0.99563 0.51092 0.0
C627 C 0.18752 1.00003 0.52568 0.0
C628 C 0.16475 0.932 0.43315 0.0
C629 C 0.24655 1.01443 0.52801 0.0
H630 H 0.26212 0.91046 0.46625 0.0
H631 H 0.25072 0.97675 0.36639 0.0
H632 H 0.24171 0.9462 0.54639 0.0
H633 H 0.21312 0.91406 0.51943 0.0
H634 H 0.25448 0.91542 0.53548 0.0
H635 H 0.23694 1.02016 0.37882 0.0
H636 H 0.19873 1.0 0.3912 0.0
H637 H 0.22877 0.02457 0.42933 0.0
H638 H 0.12461 0.94722 0.46917 0.0
H639 H 0.19281 1.01695 0.54894 0.0
H640 H 0.17722 0.91485 0.44535 0.0
H641 H 0.17254 0.94238 0.40355 0.0
H642 H 0.13863 0.92029 0.42505 0.0
H643 H 0.25959 1.00009 0.54916 0.0
H644 H 0.24759 0.03356 0.54643 0.0
H645 H 0.25932 0.02346 0.50181 0.0
C646 C 0.20649 0.84329 0.73962 0.0
C647 C 0.23597 0.84683 0.7288 0.0
C648 C 0.1874 0.86252 0.72208 0.0
C649 C 0.19769 0.8866 0.69288 0.0
C650 C 0.22735 0.89021 0.68162 0.0
C651 C 0.24584 0.87046 0.69935 0.0
C652 C 0.15604 0.85706 0.73506 0.0
C653 C 0.23989 0.91536 0.65108 0.0
C654 C 0.13599 0.92348 0.62201 0.0
C655 C 0.13992 0.94904 0.64464 0.0
C656 C 0.15446 0.90329 0.63693 0.0
C657 C 0.17806 0.90845 0.67551 0.0
C658 C 0.1825 0.93453 0.69796 0.0
C659 C 0.16357 0.95415 0.68256 0.0
C660 C 0.1484 0.87607 0.61148 0.0
C661 C 0.20734 0.94173 0.73873 0.0
H662 H 0.19812 0.82527 0.76196 0.0
H663 H 0.26838 0.87381 0.69036 0.0
H664 H 0.1567 0.87695 0.75149 0.0
H665 H 0.13632 0.85411 0.70649 0.0
H666 H 0.15051 0.83681 0.75652 0.0
H667 H 0.26276 0.91491 0.64438 0.0
H668 H 0.22207 0.91379 0.62066 0.0
H669 H 0.24374 0.93746 0.6644 0.0
H670 H 0.11808 0.91897 0.5927 0.0
H671 H 0.16733 0.97366 0.70063 0.0
H672 H 0.14148 0.85519 0.6313 0.0
H673 H 0.17061 0.87663 0.60191 0.0
H674 H 0.12924 0.87485 0.58246 0.0
H675 H 0.20164 0.92327 0.76281 0.0
H676 H 0.20883 0.96323 0.75193 0.0
H677 H 0.23117 0.94334 0.73323 0.0
C678 C 0.19928 0.19936 0.76768 0.0
C679 C 0.22311 0.22201 0.75184 0.0
C680 C 0.17487 0.17866 0.74054 0.0
C681 C 0.17459 0.18031 0.69656 0.0
C682 C 0.19928 0.2025 0.68063 0.0
C683 C 0.22307 0.22328 0.70841 0.0
C684 C 0.14884 0.15558 0.75877 0.0
C685 C 0.20022 0.20469 0.63413 0.0
C686 C 0.1225 0.11082 0.63403 0.0
C687 C 0.09495 0.11914 0.61516 0.0
C688 C 0.14896 0.13079 0.65961 0.0
C689 C 0.14768 0.1596 0.66713 0.0
C690 C 0.1201 0.16826 0.64775 0.0
C691 C 0.09423 0.14805 0.62174 0.0
C692 C 0.17815 0.12092 0.67893 0.0
C693 C 0.11761 0.19864 0.65529 0.0
H694 H 0.19917 0.19832 0.80122 0.0
H695 H 0.24141 0.24079 0.696 0.0
H696 H 0.1254 0.15912 0.74413 0.0
H697 H 0.14729 0.13251 0.75118 0.0
H698 H 0.1529 0.15682 0.79377 0.0
H699 H 0.22238 0.22154 0.62745 0.0
H700 H 0.19858 0.18243 0.62326 0.0
H701 H 0.17935 0.21119 0.61508 0.0
H702 H 0.12344 0.08867 0.62875 0.0
H703 H 0.07306 0.1547 0.60734 0.0
H704 H 0.18183 0.11975 0.71405 0.0
H705 H 0.19976 0.1377 0.67065 0.0
H706 H 0.1761 0.0985 0.66806 0.0
H707 H 0.1195 0.20078 0.68965 0.0
H708 H 0.09474 0.20212 0.63743 0.0
H709 H 0.13766 0.21693 0.64577 0.0
C710 C 0.85046 0.14339 0.67804 0.0
C711 C 0.87314 0.17048 0.69327 0.0
C712 C 0.8563 0.12681 0.64886 0.0
C713 C 0.88563 0.13747 0.63536 0.0
C714 C 0.90744 0.1659 0.64823 0.0
C715 C 0.90091 0.18204 0.67707 0.0
C716 C 0.83201 0.09716 0.63448 0.0
C717 C 0.93891 0.17828 0.63422 0.0
C718 C 0.93423 0.08886 0.62211 0.0
C719 C 0.93478 0.09413 0.57909 0.0
C720 C 0.91511 0.10008 0.6401 0.0
C721 C 0.89654 0.11728 0.61426 0.0
C722 C 0.89454 0.1199 0.5698 0.0
C723 C 0.91403 0.10836 0.55262 0.0
C724 C 0.91786 0.09656 0.68761 0.0
C725 C 0.87457 0.13748 0.54097 0.0
H726 H 0.82856 0.13482 0.68978 0.0
H727 H 0.91848 0.20295 0.68878 0.0
H728 H 0.82928 0.09471 0.6 0.0
H729 H 0.84033 0.07833 0.65152 0.0
H730 H 0.80828 0.09495 0.64099 0.0
H731 H 0.95178 0.20184 0.64406 0.0
H732 H 0.9545 0.16401 0.64828 0.0
H733 H 0.93498 0.17778 0.5992 0.0
H734 H 0.95058 0.0779 0.64229 0.0
H735 H 0.91486 0.11256 0.51929 0.0
H736 H 0.89393 0.09011 0.69546 0.0
H737 H 0.9321 0.11844 0.7024 0.0
H738 H 0.92975 0.07931 0.70203 0.0
H739 H 0.8669 0.12894 0.50825 0.0
H740 H 0.8891 0.1615 0.53929 0.0
H741 H 0.85309 0.13637 0.55283 0.0
C742 C 0.88389 0.89218 0.76054 0.0
C743 C 0.86587 0.86216 0.74916 0.0
C744 C 0.90525 0.91229 0.73627 0.0
C745 C 0.90987 0.90324 0.69821 0.0
C746 C 0.89149 0.87301 0.68601 0.0
C747 C 0.87007 0.85319 0.71108 0.0
C748 C 0.92352 0.94352 0.75216 0.0
C749 C 0.89472 0.86135 0.64627 0.0
C750 C 0.95488 0.96623 0.62163 0.0
C751 C 0.98699 0.96565 0.63359 0.0
C752 C 0.92975 0.9462 0.64127 0.0
C753 C 0.93585 0.92433 0.67422 0.0
C754 C 0.96805 0.92375 0.68603 0.0
C755 C 0.99237 0.94376 0.66622 0.0
C756 C 0.89636 0.94846 0.6266 0.0
C757 C 0.97722 0.90182 0.72049 0.0
H758 H 0.88147 0.90022 0.78933 0.0
H759 H 0.85674 0.83052 0.70082 0.0
H760 H 0.94951 0.94616 0.76038 0.0
H761 H 0.91969 0.9607 0.72683 0.0
H762 H 0.91633 0.94821 0.78061 0.0
H763 H 0.87789 0.83843 0.63905 0.0
H764 H 0.89028 0.87693 0.61887 0.0
H765 H 0.9195 0.86055 0.64987 0.0
H766 H 0.94919 0.98227 0.5968 0.0
H767 H 1.01633 0.94202 0.67701 0.0
H768 H 0.88841 0.95437 0.65357 0.0
H769 H 0.87963 0.92627 0.61552 0.0
H770 H 0.89466 0.96567 0.60048 0.0
H771 H 0.97254 0.90649 0.7508 0.0
H772 H 1.0028 0.90309 0.72566 0.0
H773 H 0.96237 0.87842 0.71225 0.0
C774 C 0.34547 0.19354 0.09768 0.0
C775 C 0.32141 0.17882 0.1198 0.0
C776 C 0.36463 0.17821 0.08755 0.0
C777 C 0.35946 0.14731 0.09986 0.0
C778 C 0.33449 0.13205 0.12106 0.0
C779 C 0.31552 0.14801 0.13055 0.0
C780 C 0.39154 0.19609 0.06618 0.0
C781 C 0.32897 0.09941 0.13569 0.0
C782 C 0.39858 0.10433 0.04825 0.0
C783 C 0.42914 0.11156 0.07455 0.0
C784 C 0.37481 0.11463 0.05692 0.0
C785 C 0.38183 0.13186 0.09335 0.0
C786 C 0.41198 0.13716 0.12164 0.0
C787 C 0.43551 0.12742 0.11144 0.0
C788 C 0.34263 0.10701 0.02657 0.0
C789 C 0.41981 0.15402 0.16199 0.0
H790 H 0.34992 0.21738 0.08926 0.0
H791 H 0.29712 0.13677 0.14818 0.0
H792 H 0.40101 0.1817 0.0511 0.0
H793 H 0.38354 0.21217 0.04176 0.0
H794 H 0.41141 0.20972 0.09018 0.0
H795 H 0.30954 0.0913 0.15364 0.0
H796 H 0.32261 0.08511 0.10786 0.0
H797 H 0.35127 0.09637 0.15624 0.0
H798 H 0.39363 0.09177 0.01988 0.0
H799 H 0.45904 0.13246 0.1322 0.0
H800 H 0.32876 0.12247 0.02823 0.0
H801 H 0.32845 0.08375 0.03425 0.0
H802 H 0.34545 0.10731 0.99336 0.0
H803 H 0.42416 0.17847 0.15412 0.0
H804 H 0.44152 0.15099 0.18421 0.0
H805 H 0.39953 0.14636 0.17845 0.0
C806 C 0.8417 0.45975 0.11777 0.0
C807 C 0.8221 0.44234 0.1447 0.0
C808 C 0.87026 0.48123 0.13571 0.0
C809 C 0.87724 0.48568 0.17994 0.0
C810 C 0.85162 0.4768 0.20117 0.0
C811 C 0.8225 0.45681 0.1809 0.0
C812 C 0.89447 0.49602 0.10903 0.0
C813 C 0.85534 0.48636 0.24546 0.0
C814 C 0.95485 0.46887 0.21044 0.0
C815 C 0.9754 0.4979 0.20646 0.0
C816 C 0.92258 0.46454 0.2094 0.0
C817 C 0.91078 0.48981 0.20343 0.0
C818 C 0.93266 0.51895 0.20848 0.0
C819 C 0.96498 0.52281 0.20981 0.0
C820 C 0.9007 0.43278 0.20949 0.0
C821 C 0.92145 0.54591 0.2093 0.0
H822 H 0.83861 0.45276 0.08586 0.0
H823 H 0.80369 0.44724 0.19842 0.0
H824 H 0.90337 0.52056 0.11455 0.0
H825 H 0.91502 0.4868 0.11841 0.0
H826 H 0.88414 0.49259 0.07461 0.0
H827 H 0.83982 0.46863 0.26334 0.0
H828 H 0.88046 0.49196 0.26351 0.0
H829 H 0.84771 0.50691 0.24326 0.0
H830 H 0.96299 0.44951 0.20974 0.0
H831 H 0.98135 0.54549 0.20934 0.0
H832 H 0.889 0.42637 0.17627 0.0
H833 H 0.88225 0.43122 0.22753 0.0
H834 H 0.91384 0.41649 0.22407 0.0
H835 H 0.90899 0.54292 0.23587 0.0
H836 H 0.90385 0.5477 0.17961 0.0
H837 H 0.94158 0.56721 0.21356 0.0
C838 C 0.77504 0.97777 0.15193 0.0
C839 C 0.77915 0.95493 0.18225 0.0
C840 C 0.74817 0.98781 0.14631 0.0
C841 C 0.72495 0.97393 0.17085 0.0
C842 C 0.73011 0.95232 0.20326 0.0
C843 C 0.7575 0.94346 0.20907 0.0
C844 C 0.74372 1.01202 0.1128 0.0
C845 C 0.70527 0.93648 0.22904 0.0
C846 C 0.65766 1.00522 0.17002 0.0
C847 C 0.63264 0.98656 0.14098 0.0
C848 C 0.6881 1.00168 0.17968 0.0
C849 C 0.69351 0.97907 0.15965 0.0
C850 C 0.66826 0.95974 0.131 0.0
C851 C 0.63798 0.9637 0.12205 0.0
C852 C 0.7143 1.02187 0.21155 0.0
C853 C 0.67324 0.93505 0.10952 0.0
H854 H 0.7918 0.98642 0.13119 0.0
H855 H 0.76029 0.92528 0.23187 0.0
H856 H 0.71981 1.00451 0.09129 0.0
H857 H 0.74485 0.03248 0.12825 0.0
H858 H 0.76235 1.0183 0.09354 0.0
H859 H 0.71246 0.91918 0.25178 0.0
H860 H 0.70088 0.95323 0.24674 0.0
H861 H 0.68223 0.92506 0.20782 0.0
H862 H 0.65369 0.02298 0.18488 0.0
H863 H 0.61862 0.9491 0.09996 0.0
H864 H 0.73517 0.03361 0.19719 0.0
H865 H 0.72257 1.00806 0.23917 0.0
H866 H 0.7063 0.03907 0.22321 0.0
H867 H 0.68874 0.94548 0.0867 0.0
H868 H 0.65039 0.91987 0.09209 0.0
H869 H 0.68551 0.92116 0.1329 0.0
C870 C 0.21762 0.70994 0.22939 0.0
C871 C 0.22365 0.73906 0.21045 0.0
C872 C 0.19036 0.68649 0.21254 0.0
C873 C 0.169 0.69207 0.17521 0.0
C874 C 0.17654 0.72068 0.15387 0.0
C875 C 0.20366 0.74394 0.17196 0.0
C876 C 0.18314 0.65652 0.23672 0.0
C877 C 0.15482 0.72735 0.11348 0.0
C878 C 0.10241 0.62425 0.12414 0.0
C879 C 0.07661 0.62533 0.14048 0.0
C880 C 0.13249 0.6462 0.13421 0.0
C881 C 0.13701 0.66942 0.16189 0.0
C882 C 0.111 0.67065 0.17827 0.0
C883 C 0.08113 0.64882 0.16706 0.0
C884 C 0.15944 0.64447 0.11545 0.0
C885 C 0.11485 0.69469 0.20846 0.0
H886 H 0.23307 0.70589 0.259 0.0
H887 H 0.20836 0.76632 0.15698 0.0
H888 H 0.1625 0.65376 0.25143 0.0
H889 H 0.17642 0.63766 0.21498 0.0
H890 H 0.20377 0.65468 0.26228 0.0
H891 H 0.1664 0.74879 0.09739 0.0
H892 H 0.14755 0.70875 0.09114 0.0
H893 H 0.13276 0.72919 0.12096 0.0
H894 H 0.09904 0.60632 0.10327 0.0
H895 H 0.06144 0.64974 0.18008 0.0
H896 H 0.17938 0.64141 0.1412 0.0
H897 H 0.16893 0.66592 0.09799 0.0
H898 H 0.15177 0.6256 0.09339 0.0
H899 H 0.13328 0.69325 0.23738 0.0
H900 H 0.09222 0.69257 0.21821 0.0
H901 H 0.12316 0.7174 0.19338 0.0
C902 C 0.35863 0.85124 0.91173 0.0
C903 C 0.35137 0.84728 0.86782 0.0
C904 C 0.38324 0.87619 0.93027 0.0
C905 C 0.40171 0.89739 0.90444 0.0
C906 C 0.39428 0.8937 0.85993 0.0
C907 C 0.36893 0.86882 0.84208 0.0
C908 C 0.38988 0.87951 0.97771 0.0
C909 C 0.41374 0.91545 0.83139 0.0
C910 C 0.45289 0.97238 0.95429 0.0
C911 C 0.48193 0.96641 0.97163 0.0
C912 C 0.4267 0.95044 0.93131 0.0
C913 C 0.42993 0.92217 0.92476 0.0
C914 C 0.45967 0.91662 0.94074 0.0
C915 C 0.48513 0.93861 0.9644 0.0
C916 C 0.39525 0.95705 0.91557 0.0
C917 C 0.4644 0.88707 0.93385 0.0
H918 H 0.34499 0.83478 0.93178 0.0
H919 H 0.3634 0.86579 0.80815 0.0
H920 H 0.41374 0.87699 0.99252 0.0
H921 H 0.39033 0.90234 0.98486 0.0
H922 H 0.37175 0.86248 0.99279 0.0
H923 H 0.40365 0.91058 0.79726 0.0
H924 H 0.41509 0.93894 0.83648 0.0
H925 H 0.43856 0.91411 0.83942 0.0
H926 H 0.45026 0.99378 0.96 0.0
H927 H 0.50765 0.93401 0.97733 0.0
H928 H 0.37728 0.94203 0.93281 0.0
H929 H 0.38607 0.95233 0.88133 0.0
H930 H 0.3973 0.98084 0.92028 0.0
H931 H 0.44946 0.86853 0.95132 0.0
H932 H 0.48972 0.88735 0.94487 0.0
H933 H 0.4566 0.88181 0.89968 0.0
C934 C 0.1947 0.41474 0.93074 0.0
C935 C 0.19607 0.38562 0.94558 0.0
C936 C 0.1783 0.43021 0.94829 0.0
C937 C 0.16267 0.41667 0.982 0.0
C938 C 0.16388 0.38722 0.9969 0.0
C939 C 0.18061 0.37244 0.97903 0.0
C940 C 0.177 0.46091 0.92987 0.0
C941 C 0.14813 0.37087 0.03244 0.0
C942 C 0.13943 0.46583 0.05111 0.0
C943 C 0.10622 0.45916 0.03557 0.0
C944 C 0.15811 0.45252 0.03401 0.0
C945 C 0.14365 0.43244 0.99977 0.0
C946 C 0.11036 0.42655 0.98322 0.0
C947 C 0.09229 0.43962 1.0013 0.0
C948 C 0.19315 0.45883 0.05392 0.0
C949 C 0.09347 0.40556 0.94695 0.0
H950 H 0.20595 0.42536 0.90464 0.0
H951 H 0.1818 0.3504 0.99193 0.0
H952 H 0.15176 0.46017 0.91661 0.0
H953 H 0.18669 0.47768 0.95518 0.0
H954 H 0.1907 0.46879 0.90436 0.0
H955 H 0.16633 0.37483 0.06259 0.0
H956 H 0.12788 0.37846 0.03547 0.0
H957 H 0.1392 0.34614 0.0279 0.0
H958 H 0.15064 0.48049 0.07778 0.0
H959 H 0.06678 0.43422 0.98852 0.0
H960 H 0.20765 0.46831 0.0296 0.0
H961 H 0.19803 0.43739 0.0666 0.0
H962 H 0.20107 0.47481 0.08017 0.0
H963 H 0.10579 0.41265 0.92 0.0
H964 H 0.06806 0.40485 0.9355 0.0
H965 H 0.09433 0.38239 0.95737 0.0
C966 C 0.70581 0.22895 0.88772 0.0
C967 C 0.72702 0.21856 0.87198 0.0
C968 C 0.68116 0.209 0.90699 0.0
C969 C 0.67644 0.17727 0.91025 0.0
C970 C 0.69793 0.16673 0.89461 0.0
C971 C 0.72275 0.18723 0.87631 0.0
C972 C 0.65987 0.22198 0.92371 0.0
C973 C 0.69424 0.13346 0.8963 0.0
C974 C 0.62346 0.12493 0.9855 0.0
C975 C 0.59313 0.11482 0.95822 0.0
C976 C 0.65058 0.14487 0.9707 0.0
C977 C 0.648 0.15512 0.9272 0.0
C978 C 0.61764 0.14412 0.89952 0.0
C979 C 0.59102 0.12475 0.9152 0.0
C980 C 0.68175 0.15591 1.00228 0.0
C981 C 0.61303 0.15313 0.85289 0.0
H982 H 0.70845 0.25288 0.88504 0.0
H983 H 0.73849 0.17843 0.86435 0.0
H984 H 0.63496 0.21365 0.90526 0.0
H985 H 0.65968 0.21432 0.95728 0.0
H986 H 0.66768 0.24703 0.92182 0.0
H987 H 0.71306 0.1286 0.88399 0.0
H988 H 0.69522 0.12437 0.92947 0.0
H989 H 0.67051 0.12124 0.87724 0.0
H990 H 0.62579 0.11828 0.01889 0.0
H991 H 0.56805 0.11744 0.89337 0.0
H992 H 0.68538 0.17952 0.00988 0.0
H993 H 0.70219 0.15584 0.98891 0.0
H994 H 0.682 0.14195 0.03224 0.0
H995 H 0.61722 0.17785 0.84882 0.0
H996 H 0.58863 0.14158 0.83486 0.0
H997 H 0.63071 0.14773 0.83885 0.0
C998 C 0.85506 0.73597 0.9267 0.0
C999 C 0.85568 0.73866 0.88319 0.0
C1000 C 0.86969 0.71672 0.95514 0.0
C1001 C 0.88614 0.69991 0.94036 0.0
C1002 C 0.88761 0.70319 0.8967 0.0
C1003 C 0.87218 0.7221 0.8688 0.0
C1004 C 0.86665 0.71368 1.0009 0.0
C1005 C 0.90519 0.68636 0.87921 0.0
C1006 C 0.94555 0.66567 0.01974 0.0
C1007 C 0.92814 0.63487 0.02099 0.0
C1008 C 0.93225 0.68706 0.9942 0.0
C1009 C 0.90039 0.67781 0.96978 0.0
C1010 C 0.88234 0.64694 0.97251 0.0
C1011 C 0.89643 0.62601 0.99743 0.0
C1012 C 0.95277 0.71944 0.99211 0.0
C1013 C 0.84812 0.6358 0.94834 0.0
H1014 H 0.84221 0.74826 0.93845 0.0
H1015 H 0.87304 0.72384 0.83547 0.0
H1016 H 0.85325 0.69006 0.00834 0.0
H1017 H 0.89064 0.71876 0.02233 0.0
H1018 H 0.85409 0.72889 0.00798 0.0
H1019 H 0.9061 0.69277 0.84543 0.0
H1020 H 0.93001 0.69083 0.89818 0.0
H1021 H 0.89327 0.66173 0.88169 0.0
H1022 H 0.97011 0.6729 0.03731 0.0
H1023 H 0.88255 0.60239 0.99809 0.0
H1024 H 0.94067 0.73465 1.00029 0.0
H1025 H 0.95625 0.72571 0.9592 0.0
H1026 H 0.9766 0.72343 0.01389 0.0
H1027 H 0.83402 0.64948 0.95557 0.0
H1028 H 0.83651 0.6117 0.95607 0.0
H1029 H 0.84728 0.63844 0.91371 0.0
C1030 C 0.18891 0.33339 0.22848 0.0
C1031 C 0.22121 0.34613 0.24909 0.0
C1032 C 0.16647 0.3504 0.21634 0.0
C1033 C 0.17599 0.38234 0.22191 0.0
C1034 C 0.20902 0.39543 0.24188 0.0
C1035 C 0.23038 0.37739 0.25601 0.0
C1036 C 0.13222 0.33317 0.19799 0.0
C1037 C 0.22288 0.42889 0.24834 0.0
C1038 C 0.11548 0.42354 0.15107 0.0
C1039 C 0.10722 0.43841 0.18036 0.0
C1040 C 0.13783 0.40635 0.16367 0.0
C1041 C 0.15188 0.40158 0.20747 0.0
C1042 C 0.14235 0.41558 0.23723 0.0
C1043 C 0.1215 0.43404 0.2235 0.0
C1044 C 0.1465 0.39385 0.12893 0.0
C1045 C 0.15377 0.41135 0.28442 0.0
H1046 H 0.18062 0.30944 0.22271 0.0
H1047 H 0.25494 0.38828 0.27147 0.0
H1048 H 0.11518 0.34545 0.19952 0.0
H1049 H 0.12999 0.32847 0.16439 0.0
H1050 H 0.12521 0.311 0.2151 0.0
H1051 H 0.24745 0.43721 0.24222 0.0
H1052 H 0.20829 0.44208 0.22752 0.0
H1053 H 0.22486 0.43332 0.28199 0.0
H1054 H 0.10531 0.42611 0.11768 0.0
H1055 H 0.11591 0.44485 0.24737 0.0
H1056 H 0.12775 0.37245 0.11868 0.0
H1057 H 0.17 0.38958 0.13895 0.0
H1058 H 0.14716 0.40964 0.10093 0.0
H1059 H 0.16185 0.39103 0.29287 0.0
H1060 H 0.13445 0.40951 0.30131 0.0
H1061 H 0.17383 0.43152 0.29632 0.0
C1062 C 0.16599 0.6159 0.93196 0.0
C1063 C 0.16008 0.62184 0.88802 0.0
C1064 C 0.14174 0.59685 0.95099 0.0
C1065 C 0.11135 0.58349 0.92513 0.0
C1066 C 0.10751 0.58477 0.88049 0.0
C1067 C 0.13206 0.60425 0.86224 0.0
C1068 C 0.14709 0.59526 0.99884 0.0
C1069 C 0.07598 0.5693 0.85201 0.0
C1070 C 0.04742 0.54441 0.98706 0.0
C1071 C 0.03638 0.56853 0.99204 0.0
C1072 C 0.07042 0.54812 0.96287 0.0
C1073 C 0.08286 0.57668 0.94381 0.0
C1074 C 0.07035 0.60052 0.94655 0.0
C1075 C 0.04715 0.59607 0.9705 0.0
C1076 C 0.08256 0.52195 0.96007 0.0
C1077 C 0.08289 0.63143 0.92643 0.0
H1078 H 0.18784 0.62917 0.95197 0.0
H1079 H 0.12791 0.60828 0.82809 0.0
H1080 H 0.13602 0.61062 0.00907 0.0
H1081 H 0.13572 0.57212 0.01048 0.0
H1082 H 0.17294 0.60217 0.01408 0.0
H1083 H 0.06409 0.54719 0.86621 0.0
H1084 H 0.05993 0.58357 0.8478 0.0
H1085 H 0.07916 0.56578 0.82016 0.0
H1086 H 0.03902 0.52286 1.00333 0.0
H1087 H 0.03861 0.6147 0.974 0.0
H1088 H 0.10364 0.5229 0.98627 0.0
H1089 H 0.09 0.52265 0.92962 0.0
H1090 H 0.0641 0.50002 0.96347 0.0
H1091 H 0.1085 0.64161 0.94121 0.0
H1092 H 0.06962 0.64701 0.93013 0.0
H1093 H 0.08113 0.62962 0.89205 0.0
C1094 C 0.33989 0.21363 0.90832 0.0
C1095 C 0.34882 0.23185 0.8735 0.0
C1096 C 0.35728 0.19403 0.92889 0.0
C1097 C 0.38439 0.1932 0.91455 0.0
C1098 C 0.39432 0.2129 0.8808 0.0
C1099 C 0.37631 0.23179 0.86059 0.0
C1100 C 0.34526 0.17316 0.96407 0.0
C1101 C 0.42318 0.21311 0.86464 0.0
C1102 C 0.44885 0.15932 0.97489 0.0
C1103 C 0.44099 0.13265 0.95311 0.0
C1104 C 0.42947 0.17844 0.96474 0.0
C1105 C 0.40149 0.17063 0.93218 0.0
C1106 C 0.39234 0.14274 0.9122 0.0
C1107 C 0.41226 0.12416 0.92274 0.0
C1108 C 0.44036 0.20792 0.98696 0.0
C1109 C 0.36234 0.13328 0.87798 0.0
H1110 H 0.31848 0.21355 0.91809 0.0
H1111 H 0.38342 0.24621 0.83387 0.0
H1112 H 0.32638 0.1529 0.94995 0.0
H1113 H 0.3645 0.1657 0.98577 0.0
H1114 H 0.33443 0.18415 0.98272 0.0
H1115 H 0.42845 0.23076 0.83931 0.0
H1116 H 0.44454 0.21704 0.89107 0.0
H1117 H 0.41911 0.19083 0.85169 0.0
H1118 H 0.47081 0.16593 0.99881 0.0
H1119 H 0.40563 0.10328 0.90641 0.0
H1120 H 0.41995 0.21573 0.98872 0.0
H1121 H 0.456 0.22542 0.96903 0.0
H1122 H 0.45445 0.20594 0.01963 0.0
H1123 H 0.34157 0.13478 0.88936 0.0
H1124 H 0.35719 0.10989 0.868 0.0
H1125 H 0.3649 0.14881 0.84977 0.0
C1126 C 0.8416 0.32891 0.94613 0.0
C1127 C 0.84259 0.33333 0.90275 0.0
C1128 C 0.85942 0.3515 0.97616 0.0
C1129 C 0.88003 0.37931 0.96345 0.0
C1130 C 0.88053 0.38414 0.91944 0.0
C1131 C 0.86165 0.3615 0.88982 0.0
C1132 C 0.85683 0.34514 0.02196 0.0
C1133 C 0.90229 0.41281 0.90377 0.0
C1134 C 0.92089 0.44844 0.0368 0.0
C1135 C 0.95116 0.4448 0.05471 0.0
C1136 C 0.89707 0.42698 0.00859 0.0
C1137 C 0.90365 0.4015 0.99647 0.0
C1138 C 0.9337 0.39735 0.01565 0.0
C1139 C 0.95641 0.41839 0.04453 0.0
C1140 C 0.8651 0.43208 0.99086 0.0
C1141 C 0.94263 0.37114 1.00429 0.0
H1142 H 0.82696 0.30747 0.95683 0.0
H1143 H 0.86295 0.3654 0.85664 0.0
H1144 H 0.83549 0.32586 0.02561 0.0
H1145 H 0.87841 0.33966 0.04061 0.0
H1146 H 0.85555 0.36533 0.03569 0.0
H1147 H 0.89894 0.41409 0.86863 0.0
H1148 H 0.89792 0.43271 0.91403 0.0
H1149 H 0.92757 0.41416 0.91796 0.0
H1150 H 0.91619 0.46859 0.04341 0.0
H1151 H 0.9793 0.41464 0.05786 0.0
H1152 H 0.84543 0.41087 0.99303 0.0
H1153 H 0.8632 0.43903 0.95678 0.0
H1154 H 0.86169 0.44985 0.00779 0.0
H1155 H 0.92535 0.34952 0.01194 0.0
H1156 H 0.96703 0.37111 0.02136 0.0
H1157 H 0.94152 0.37199 0.96963 0.0
C1158 C 0.75023 0.93134 0.98284 0.0
C1159 C 0.74199 0.921 0.94136 0.0
C1160 C 0.73217 0.94643 0.99659 0.0
C1161 C 0.70537 0.9519 0.96805 0.0
C1162 C 0.69861 0.94392 0.92512 0.0
C1163 C 0.71674 0.9283 0.91238 0.0
C1164 C 0.74089 0.95434 0.04259 0.0
C1165 C 0.67105 0.95035 0.89314 0.0
C1166 C 0.63216 0.94925 0.00842 0.0
C1167 C 0.63575 0.97988 0.01161 0.0
C1168 C 0.65516 0.94002 0.99561 0.0
C1169 C 0.68196 0.96196 0.98402 0.0
C1170 C 0.68595 0.993 0.98747 0.0
C1171 C 0.663 1.00161 1.00192 0.0
C1172 C 0.65088 0.90669 0.99497 0.0
C1173 C 0.71426 1.01701 0.97551 0.0
H1174 H 0.77024 0.92669 1.00529 0.0
H1175 H 0.71 0.92048 0.88024 0.0
H1176 H 0.73111 0.97203 0.04829 0.0
H1177 H 0.73133 0.93383 0.06182 0.0
H1178 H 0.76728 0.96224 0.05383 0.0
H1179 H 0.67206 0.94723 0.86005 0.0
H1180 H 0.64815 0.93489 0.89963 0.0
H1181 H 0.67094 0.97378 0.89582 0.0
H1182 H 0.61141 0.9323 0.01655 0.0
H1183 H 0.66585 0.02532 1.00428 0.0
H1184 H 0.67243 0.90156 0.01455 0.0
H1185 H 0.64812 0.90015 0.96206 0.0
H1186 H 0.62967 0.89259 0.00731 0.0
H1187 H 0.73669 1.01471 0.99655 0.0
H1188 H 0.71317 0.04014 0.97805 0.0
H1189 H 0.71543 1.01406 0.94247 0.0
C1190 C 0.84756 0.70754 0.27249 0.0
C1191 C 0.83957 0.73212 0.24794 0.0
C1192 C 0.86253 0.68841 0.25781 0.0
C1193 C 0.87112 0.69324 0.21707 0.0
C1194 C 0.86301 0.71796 0.19217 0.0
C1195 C 0.84773 0.73644 0.20739 0.0
C1196 C 0.86964 0.66299 0.28677 0.0
C1197 C 0.87064 0.72515 0.14871 0.0
C1198 C 0.93964 0.6645 0.19317 0.0
C1199 C 0.92377 0.63791 0.16948 0.0
C1200 C 0.92331 0.68175 0.20882 0.0
C1201 C 0.88917 0.67355 0.20111 0.0
C1202 C 0.87286 0.64666 0.17732 0.0
C1203 C 0.88987 0.62953 0.16236 0.0
C1204 C 0.94307 0.70917 0.23416 0.0
C1205 C 0.83688 0.63582 0.16737 0.0
H1206 H 0.8421 0.70308 0.30371 0.0
H1207 H 0.84226 0.75479 0.18696 0.0
H1208 H 0.86322 0.64214 0.26894 0.0
H1209 H 0.89565 0.66935 0.30036 0.0
H1210 H 0.85675 0.65803 0.31319 0.0
H1211 H 0.86247 0.74424 0.1322 0.0
H1212 H 0.89682 0.73096 0.15144 0.0
H1213 H 0.85915 0.70504 0.12884 0.0
H1214 H 0.96553 0.67207 0.19994 0.0
H1215 H 0.8763 0.60947 0.14455 0.0
H1216 H 0.93739 0.70645 0.26613 0.0
H1217 H 0.937 0.72945 0.2184 0.0
H1218 H 0.96914 0.71314 0.23797 0.0
H1219 H 0.82798 0.63193 0.19726 0.0
H1220 H 0.82711 0.61463 0.14959 0.0
H1221 H 0.8275 0.65343 0.14825 0.0
C1222 C 0.37281 0.85223 0.20159 0.0
C1223 C 0.34943 0.85833 0.21848 0.0
C1224 C 0.39413 0.87493 0.18028 0.0
C1225 C 0.39264 0.90512 0.17504 0.0
C1226 C 0.36868 0.91128 0.19132 0.0
C1227 C 0.34773 0.88818 0.21261 0.0
C1228 C 0.41894 0.86664 0.16415 0.0
C1229 C 0.36554 0.94266 0.187 0.0
C1230 C 0.47089 0.9686 0.16509 0.0
C1231 C 0.46757 0.97571 0.12109 0.0
C1232 C 0.44674 0.94672 0.18261 0.0
C1233 C 0.41768 0.93048 0.15598 0.0
C1234 C 0.41357 0.93811 0.11149 0.0
C1235 C 0.43831 0.96042 0.0947 0.0
C1236 C 0.45301 0.94021 0.22997 0.0
C1237 C 0.38343 0.92182 0.0812 0.0
H1238 H 0.37488 0.8296 0.20557 0.0
H1239 H 0.33014 0.89375 0.22527 0.0
H1240 H 0.41724 0.87306 0.12992 0.0
H1241 H 0.4432 0.87936 0.18121 0.0
H1242 H 0.41628 0.84214 0.16848 0.0
H1243 H 0.34449 0.94366 0.19827 0.0
H1244 H 0.38737 0.95836 0.20565 0.0
H1245 H 0.36339 0.95084 0.15333 0.0
H1246 H 0.49324 0.97975 0.1862 0.0
H1247 H 0.43529 0.96475 0.06069 0.0
H1248 H 0.45366 0.91662 0.23661 0.0
H1249 H 0.43339 0.94243 0.2433 0.0
H1250 H 0.47598 0.95556 0.24682 0.0
H1251 H 0.38283 0.8981 0.07918 0.0
H1252 H 0.38183 0.93249 0.04878 0.0
H1253 H 0.36208 0.92128 0.09298 0.0
C1254 C 0.72818 0.20304 0.17614 0.0
C1255 C 0.73354 0.21972 0.21211 0.0
C1256 C 0.69837 0.18239 0.16054 0.0
C1257 C 0.67309 0.17786 0.18166 0.0
C1258 C 0.67877 0.19333 0.21952 0.0
C1259 C 0.709 0.21431 0.23425 0.0
C1260 C 0.69356 0.16661 0.12004 0.0
C1261 C 0.65259 0.1887 0.24337 0.0
C1262 C 0.59189 0.15282 0.10654 0.0
C1263 C 0.58339 0.12133 0.11239 0.0
C1264 C 0.62012 0.17158 0.13069 0.0
C1265 C 0.64045 0.15863 0.16171 0.0
C1266 C 0.63135 0.12694 0.16904 0.0
C1267 C 0.60304 0.10867 0.14422 0.0
C1268 C 0.629 0.20521 0.12145 0.0
C1269 C 0.65221 0.1122 0.20184 0.0
H1270 H 0.74708 0.20699 0.15893 0.0
H1271 H 0.71303 0.22719 0.26201 0.0
H1272 H 0.68386 0.14185 0.1249 0.0
H1273 H 0.67585 0.17386 0.09473 0.0
H1274 H 0.71608 0.17155 0.10861 0.0
H1275 H 0.66189 0.19893 0.27505 0.0
H1276 H 0.63447 0.19914 0.22474 0.0
H1277 H 0.64028 0.16429 0.24763 0.0
H1278 H 0.57686 0.16289 0.08222 0.0
H1279 H 0.59665 0.0844 0.14927 0.0
H1280 H 0.65032 0.21248 0.10699 0.0
H1281 H 0.63539 0.21746 0.1513 0.0
H1282 H 0.60933 0.212 0.09936 0.0
H1283 H 0.67435 0.11416 0.19101 0.0
H1284 H 0.63997 0.0879 0.20749 0.0
H1285 H 0.65949 0.12381 0.23237 0.0
C1286 C 0.71131 0.68497 0.82877 0.0
C1287 C 0.72874 0.71507 0.84037 0.0
C1288 C 0.68935 0.66473 0.85206 0.0
C1289 C 0.68345 0.67375 0.88922 0.0
C1290 C 0.70124 0.70405 0.90169 0.0
C1291 C 0.72333 0.72401 0.87763 0.0
C1292 C 0.67183 0.6334 0.83607 0.0
C1293 C 0.69662 0.71565 0.94056 0.0
C1294 C 0.59977 0.63246 0.91723 0.0
C1295 C 0.60479 0.61086 0.95042 0.0
C1296 C 0.62458 0.65265 0.89844 0.0
C1297 C 0.65685 0.65249 0.91197 0.0
C1298 C 0.66253 0.63082 0.94541 0.0
C1299 C 0.63694 0.61063 0.96398 0.0
C1300 C 0.61588 0.67435 0.86329 0.0
C1301 C 0.69597 0.62897 0.96179 0.0
H1302 H 0.71468 0.67696 0.80057 0.0
H1303 H 0.73616 0.74675 0.88797 0.0
H1304 H 0.67521 0.61633 0.86177 0.0
H1305 H 0.64582 0.6305 0.82646 0.0
H1306 H 0.68004 0.62875 0.80846 0.0
H1307 H 0.71309 0.73867 0.94813 0.0
H1308 H 0.67164 0.7162 0.93557 0.0
H1309 H 0.70056 0.70017 0.96828 0.0
H1310 H 0.57575 0.63384 0.90527 0.0
H1311 H 0.6423 0.59482 0.98937 0.0
H1312 H 0.6216 0.66975 0.83367 0.0
H1313 H 0.63024 0.69785 0.87171 0.0
H1314 H 0.59014 0.67275 0.85677 0.0
H1315 H 0.70497 0.62337 0.93561 0.0
H1316 H 0.69723 0.61173 0.98796 0.0
H1317 H 0.71215 0.65123 0.97342 0.0
C1318 C 0.3857 0.73463 0.84538 0.0
C1319 C 0.354 0.72783 0.85055 0.0
C1320 C 0.40528 0.71593 0.86357 0.0
C1321 C 0.3934 0.68932 0.88799 0.0
C1322 C 0.36154 0.68254 0.89372 0.0
C1323 C 0.34247 0.70162 0.87515 0.0
C1324 C 0.43881 0.72457 0.85617 0.0
C1325 C 0.34732 0.65476 0.91923 0.0
C1326 C 0.43164 0.62467 0.89765 0.0
C1327 C 0.45217 0.62796 0.93824 0.0
C1328 C 0.41269 0.64414 0.88135 0.0
C1329 C 0.41364 0.66804 0.9058 0.0
C1330 C 0.43404 0.67135 0.94703 0.0
C1331 C 0.4529 0.65153 0.96257 0.0
C1332 C 0.39158 0.63913 0.83749 0.0
C1333 C 0.4361 0.69605 0.97487 0.0
H1334 H 0.39529 0.75461 0.82668 0.0
H1335 H 0.31822 0.69576 0.87978 0.0
H1336 H 0.45622 0.72648 0.88703 0.0
H1337 H 0.44135 0.70669 0.83859 0.0
H1338 H 0.44514 0.74629 0.83783 0.0
H1339 H 0.32269 0.65286 0.922 0.0
H1340 H 0.34661 0.6343 0.90411 0.0
H1341 H 0.36252 0.65512 0.95161 0.0
H1342 H 0.43045 0.60677 0.87811 0.0
H1343 H 0.46831 0.65459 0.99394 0.0
H1344 H 0.39848 0.65957 0.81686 0.0
H1345 H 0.36633 0.63523 0.83913 0.0
H1346 H 0.39312 0.61957 0.82237 0.0
H1347 H 0.44463 0.71836 0.95882 0.0
H1348 H 0.45248 0.69559 0.00625 0.0
H1349 H 0.41203 0.69383 0.98005 0.0
C1350 C 0.3705 0.35199 0.8711 0.0
C1351 C 0.37107 0.35278 0.82794 0.0
C1352 C 0.39303 0.37386 0.89841 0.0
C1353 C 0.41723 0.39661 0.88238 0.0
C1354 C 0.41751 0.39783 0.8386 0.0
C1355 C 0.39423 0.37606 0.81184 0.0
C1356 C 0.39149 0.37207 0.94467 0.0
C1357 C 0.44317 0.42141 0.82035 0.0
C1358 C 0.4674 0.46625 0.94597 0.0
C1359 C 0.49472 0.45797 0.96613 0.0
C1360 C 0.44166 0.44632 0.91924 0.0
C1361 C 0.44361 0.41772 0.91184 0.0
C1362 C 0.47114 0.4093 0.93213 0.0
C1363 C 0.49617 0.42937 0.95929 0.0
C1364 C 0.41242 0.45584 0.89892 0.0
C1365 C 0.47443 0.37922 0.92465 0.0
H1366 H 0.35273 0.33396 0.88374 0.0
H1367 H 0.39479 0.37673 0.7785 0.0
H1368 H 0.41231 0.3658 0.9644 0.0
H1369 H 0.39276 0.39439 0.95495 0.0
H1370 H 0.36928 0.35516 0.9511 0.0
H1371 H 0.43918 0.42015 0.78536 0.0
H1372 H 0.44416 0.44432 0.82787 0.0
H1373 H 0.46684 0.41837 0.83502 0.0
H1374 H 0.466 0.48821 0.95138 0.0
H1375 H 0.51725 0.42283 0.97454 0.0
H1376 H 0.3908 0.43905 0.90715 0.0
H1377 H 0.40903 0.45661 0.86385 0.0
H1378 H 0.41414 0.47835 0.90911 0.0
H1379 H 0.45469 0.3606 0.93429 0.0
H1380 H 0.49753 0.37623 0.94251 0.0
H1381 H 0.4726 0.37709 0.89031 0.0
C1382 C 0.69193 0.41811 0.86113 0.0
C1383 C 0.7197 0.40929 0.87456 0.0
C1384 C 0.68241 0.43339 0.888 0.0
C1385 C 0.7009 0.43979 0.92963 0.0
C1386 C 0.72982 0.43237 0.9428 0.0
C1387 C 0.73894 0.41726 0.91501 0.0
C1388 C 0.65138 0.44095 0.87263 0.0
C1389 C 0.7502 0.43886 0.98691 0.0
C1390 C 0.6726 0.49122 0.98337 0.0
C1391 C 0.64865 0.46983 1.00055 0.0
C1392 C 0.69204 0.48194 0.96285 0.0
C1393 C 0.68747 0.4507 0.96031 0.0
C1394 C 0.66553 0.42936 0.98164 0.0
C1395 C 0.64611 0.43919 1.00104 0.0
C1396 C 0.71537 0.50535 0.94079 0.0
C1397 C 0.66042 0.39589 0.98074 0.0
H1398 H 0.67663 0.41173 0.83029 0.0
H1399 H 0.76077 0.41104 0.9254 0.0
H1400 H 0.63339 0.42668 0.89042 0.0
H1401 H 0.65491 0.46484 0.87862 0.0
H1402 H 0.64153 0.43719 0.83819 0.0
H1403 H 0.77423 0.43623 0.98987 0.0
H1404 H 0.75312 0.46205 0.99559 0.0
H1405 H 0.73823 0.42303 0.01024 0.0
H1406 H 0.67452 0.51494 0.98313 0.0
H1407 H 0.6278 0.42271 0.01489 0.0
H1408 H 0.70517 0.50547 0.90614 0.0
H1409 H 0.73819 0.49996 0.94561 0.0
H1410 H 0.72046 0.52833 0.95224 0.0
H1411 H 0.64785 0.38784 0.9484 0.0
H1412 H 0.64587 0.38281 1.00366 0.0
H1413 H 0.68364 0.39105 0.9882 0.0
C1414 C 0.74068 0.3622 0.17865 0.0
C1415 C 0.7342 0.34207 0.21337 0.0
C1416 C 0.72197 0.3818 0.16093 0.0
C1417 C 0.69516 0.38135 0.17732 0.0
C1418 C 0.6879 0.3604 0.21148 0.0
C1419 C 0.70735 0.34146 0.22904 0.0
C1420 C 0.73165 0.4037 0.12527 0.0
C1421 C 0.65948 0.35809 0.22992 0.0
C1422 C 0.66336 0.45069 0.16461 0.0
C1423 C 0.63641 0.44339 0.13068 0.0
C1424 C 0.68278 0.43135 0.17907 0.0
C1425 C 0.67536 0.40318 0.16004 0.0
C1426 C 0.64845 0.39583 0.12534 0.0
C1427 C 0.62961 0.41583 0.11112 0.0
C1428 C 0.71144 0.44115 0.2151 0.0
C1429 C 0.6392 0.36645 0.10342 0.0
H1430 H 0.76066 0.36283 0.16523 0.0
H1431 H 0.70147 0.32615 0.25548 0.0
H1432 H 0.71053 0.40431 0.09989 0.0
H1433 H 0.74287 0.42672 0.1378 0.0
H1434 H 0.74905 0.39798 0.11102 0.0
H1435 H 0.65573 0.33974 0.25468 0.0
H1436 H 0.66287 0.37973 0.2442 0.0
H1437 H 0.63752 0.3539 0.20439 0.0
H1438 H 0.66945 0.47181 0.18014 0.0
H1439 H 0.60906 0.40952 0.08503 0.0
H1440 H 0.73332 0.44098 0.20525 0.0
H1441 H 0.70849 0.42501 0.24261 0.0
H1442 H 0.71505 0.46409 0.22557 0.0
H1443 H 0.65946 0.365 0.09079 0.0
H1444 H 0.61802 0.36388 0.07682 0.0
H1445 H 0.63382 0.34729 0.12663 0.0
C1446 C 0.68116 0.72622 0.22931 0.0
C1447 C 0.71283 0.73775 0.22422 0.0
C1448 C 0.65898 0.70258 0.20457 0.0
C1449 C 0.66866 0.6901 0.17392 0.0
C1450 C 0.70049 0.70203 0.1681 0.0
C1451 C 0.72216 0.72576 0.19323 0.0
C1452 C 0.62522 0.69076 0.21154 0.0
C1453 C 0.71175 0.68948 0.13569 0.0
C1454 C 0.6158 0.61182 0.13654 0.0
C1455 C 0.59596 0.61906 0.09936 0.0
C1456 C 0.64023 0.63464 0.1606 0.0
C1457 C 0.64501 0.66534 0.14702 0.0
C1458 C 0.62592 0.67257 0.10861 0.0
C1459 C 0.60174 0.64945 0.08537 0.0
C1460 C 0.66024 0.62599 0.20127 0.0
C1461 C 0.6303 0.70489 0.09267 0.0
H1462 H 0.67381 0.73531 0.25326 0.0
H1463 H 0.74666 0.73443 0.18928 0.0
H1464 H 0.60808 0.69324 0.18166 0.0
H1465 H 0.61941 0.66635 0.22046 0.0
H1466 H 0.62154 0.70274 0.23681 0.0
H1467 H 0.7373 0.70111 0.13524 0.0
H1468 H 0.70855 0.66507 0.14262 0.0
H1469 H 0.69712 0.69172 0.10354 0.0
H1470 H 0.61162 0.58846 0.14754 0.0
H1471 H 0.58691 0.65536 0.05636 0.0
H1472 H 0.65551 0.63487 0.22867 0.0
H1473 H 0.68603 0.63626 0.20134 0.0
H1474 H 0.65511 0.60116 0.20597 0.0
H1475 H 0.62461 0.71745 0.11539 0.0
H1476 H 0.61478 0.70662 0.06096 0.0
H1477 H 0.65556 0.7162 0.09059 0.0
C1478 C 0.36686 0.61897 0.21384 0.0
C1479 C 0.34971 0.63935 0.19694 0.0
C1480 C 0.37963 0.60613 0.18776 0.0
C1481 C 0.37476 0.6136 0.14371 0.0
C1482 C 0.35422 0.63117 0.12581 0.0
C1483 C 0.34205 0.64401 0.1527 0.0
C1484 C 0.40125 0.58735 0.20815 0.0
C1485 C 0.34785 0.6391 0.07885 0.0
C1486 C 0.44794 0.62567 0.09877 0.0
C1487 C 0.44112 0.59835 0.07913 0.0
C1488 C 0.42604 0.63108 0.11868 0.0
C1489 C 0.39633 0.60871 0.11875 0.0
C1490 C 0.38855 0.58163 0.09723 0.0
C1491 C 0.41116 0.57669 0.0777 0.0
C1492 C 0.4353 0.66043 0.14099 0.0
C1493 C 0.35689 0.55752 0.09604 0.0
H1494 H 0.3722 0.61471 0.2479 0.0
H1495 H 0.32881 0.65971 0.13923 0.0
H1496 H 0.39636 0.56735 0.18918 0.0
H1497 H 0.42651 0.60104 0.20941 0.0
H1498 H 0.39848 0.5796 0.24102 0.0
H1499 H 0.32644 0.64706 0.06878 0.0
H1500 H 0.36874 0.6574 0.07138 0.0
H1501 H 0.34441 0.61944 0.05993 0.0
H1502 H 0.47084 0.64273 0.0995 0.0
H1503 H 0.4057 0.55559 0.06237 0.0
H1504 H 0.43598 0.65578 0.17544 0.0
H1505 H 0.41725 0.67242 0.12845 0.0
H1506 H 0.45905 0.6757 0.13708 0.0
H1507 H 0.35644 0.54639 0.12795 0.0
H1508 H 0.3526 0.54001 0.07287 0.0
H1509 H 0.33697 0.56758 0.08771 0.0
C1510 C 0.35373 0.36296 0.18971 0.0
C1511 C 0.36412 0.3536 0.23223 0.0
C1512 C 0.375 0.38443 0.16595 0.0
C1513 C 0.40815 0.39818 0.18438 0.0
C1514 C 0.41845 0.38905 0.22742 0.0
C1515 C 0.39696 0.36727 0.25003 0.0
C1516 C 0.36192 0.39212 0.12044 0.0
C1517 C 0.45274 0.40236 0.25005 0.0
C1518 C 0.47545 0.43018 0.11816 0.0
C1519 C 0.48238 0.46202 0.11673 0.0
C1520 C 0.45111 0.40981 0.13787 0.0
C1521 C 0.4324 0.42049 0.15882 0.0
C1522 C 0.43873 0.45266 0.15694 0.0
C1523 C 0.46303 0.47268 0.13611 0.0
C1524 C 0.44604 0.37639 0.1371 0.0
C1525 C 0.42052 0.46622 0.17858 0.0
H1526 H 0.32887 0.35316 0.17453 0.0
H1527 H 0.40617 0.36099 0.28251 0.0
H1528 H 0.3659 0.41681 0.11608 0.0
H1529 H 0.37489 0.3859 0.09939 0.0
H1530 H 0.33597 0.38031 0.11023 0.0
H1531 H 0.45708 0.39481 0.284 0.0
H1532 H 0.46877 0.39576 0.23428 0.0
H1533 H 0.45939 0.42736 0.24815 0.0
H1534 H 0.48978 0.42088 0.1041 0.0
H1535 H 0.46781 0.49685 0.13681 0.0
H1536 H 0.42032 0.36431 0.12562 0.0
H1537 H 0.45338 0.36754 0.16975 0.0
H1538 H 0.45993 0.37108 0.11647 0.0
H1539 H 0.39443 0.45546 0.16783 0.0
H1540 H 0.42601 0.49097 0.17228 0.0
H1541 H 0.42665 0.46178 0.21337 0.0
C1542 C 0.87068 0.67495 0.60301 0.0
C1543 C 0.85858 0.66496 0.6399 0.0
C1544 C 0.88975 0.66068 0.58983 0.0
C1545 C 0.897 0.63586 0.61412 0.0
C1546 C 0.88412 0.62509 0.65068 0.0
C1547 C 0.86503 0.63973 0.66307 0.0
C1548 C 0.90338 0.67303 0.55104 0.0
C1549 C 0.89142 0.59873 0.67754 0.0
C1550 C 0.92996 0.58392 0.56792 0.0
C1551 C 0.96254 0.5943 0.58701 0.0
C1552 C 0.90831 0.59752 0.57593 0.0
C1553 C 0.91968 0.62234 0.60295 0.0
C1554 C 0.95277 0.6337 0.62071 0.0
C1555 C 0.97375 0.61944 0.61269 0.0
C1556 C 0.87313 0.58471 0.55679 0.0
C1557 C 0.96592 0.66021 0.64952 0.0
H1558 H 0.86632 0.69472 0.58526 0.0
H1559 H 0.85546 0.63165 0.69129 0.0
H1560 H 0.92975 0.68222 0.56067 0.0
H1561 H 0.89795 0.65477 0.5287 0.0
H1562 H 0.89403 0.69134 0.5342 0.0
H1563 H 0.87807 0.59203 0.70353 0.0
H1564 H 0.88539 0.57899 0.65757 0.0
H1565 H 0.91739 0.60471 0.6918 0.0
H1566 H 0.92118 0.5644 0.54821 0.0
H1567 H 0.99897 0.62764 0.62728 0.0
H1568 H 0.86392 0.60262 0.53828 0.0
H1569 H 0.85963 0.57643 0.5824 0.0
H1570 H 0.86817 0.56576 0.53572 0.0
H1571 H 0.95842 0.67976 0.6336 0.0
H1572 H 0.99243 0.66724 0.65893 0.0
H1573 H 0.95611 0.65425 0.6787 0.0
C1574 C 0.51299 0.87839 0.72261 0.0
C1575 C 0.48581 0.86048 0.69566 0.0
C1576 C 0.53453 0.90314 0.70609 0.0
C1577 C 0.52819 0.91011 0.66199 0.0
C1578 C 0.50368 0.88945 0.63433 0.0
C1579 C 0.48285 0.86474 0.65156 0.0
C1580 C 0.56174 0.92367 0.73624 0.0
C1581 C 0.49646 0.89567 0.58688 0.0
C1582 C 0.52955 0.9886 0.62083 0.0
C1583 C 0.55248 0.99517 0.59592 0.0
C1584 C 0.52327 0.96184 0.6455 0.0
C1585 C 0.54081 0.94144 0.6458 0.0
C1586 C 0.5663 0.94947 0.62431 0.0
C1587 C 0.5716 0.97614 0.59909 0.0
C1588 C 0.49589 0.95426 0.66817 0.0
C1589 C 0.58656 0.92913 0.62525 0.0
H1590 H 0.5159 0.87466 0.75672 0.0
H1591 H 0.46208 0.85099 0.63033 0.0
H1592 H 0.58285 0.93359 0.72166 0.0
H1593 H 0.55417 0.94247 0.74398 0.0
H1594 H 0.5688 0.91144 0.76638 0.0
H1595 H 0.4795 0.87563 0.56955 0.0
H1596 H 0.48567 0.91439 0.5798 0.0
H1597 H 0.51869 0.9027 0.57451 0.0
H1598 H 0.51496 1.00337 0.6189 0.0
H1599 H 0.58996 0.98146 0.58065 0.0
H1600 H 0.50373 0.94776 0.7019 0.0
H1601 H 0.47627 0.93473 0.65321 0.0
H1602 H 0.48616 0.97343 0.66707 0.0
H1603 H 0.58797 0.9149 0.65488 0.0
H1604 H 0.61118 0.94256 0.62221 0.0
H1605 H 0.57603 0.91403 0.59795 0.0
C1606 C 0.24914 0.34721 0.66285 0.0
C1607 C 0.25156 0.34457 0.70691 0.0
C1608 C 0.2322 0.36558 0.6374 0.0
C1609 C 0.21757 0.38169 0.65673 0.0
C1610 C 0.21938 0.37851 0.70106 0.0
C1611 C 0.2365 0.36021 0.72556 0.0
C1612 C 0.23087 0.36781 0.59026 0.0
C1613 C 0.20313 0.3944 0.72279 0.0
C1614 C 0.19965 0.45429 0.61662 0.0
C1615 C 0.16636 0.44397 0.60258 0.0
C1616 C 0.21718 0.43394 0.63102 0.0
C1617 C 0.20092 0.40264 0.63176 0.0
C1618 C 0.16769 0.39204 0.6146 0.0
C1619 C 0.15077 0.41289 0.59998 0.0
C1620 C 0.25277 0.44606 0.64804 0.0
C1621 C 0.14973 0.35877 0.61434 0.0
H1622 H 0.2606 0.33511 0.64814 0.0
H1623 H 0.23782 0.35805 0.75952 0.0
H1624 H 0.25421 0.38263 0.58436 0.0
H1625 H 0.22715 0.34527 0.57829 0.0
H1626 H 0.21173 0.37696 0.57169 0.0
H1627 H 0.20517 0.38795 0.7571 0.0
H1628 H 0.2139 0.41918 0.71971 0.0
H1629 H 0.17739 0.38902 0.70735 0.0
H1630 H 0.21198 0.47831 0.61761 0.0
H1631 H 0.1251 0.40478 0.58838 0.0
H1632 H 0.26548 0.43164 0.63918 0.0
H1633 H 0.25766 0.44606 0.68322 0.0
H1634 H 0.26273 0.46954 0.63615 0.0
H1635 H 0.16166 0.34637 0.59963 0.0
H1636 H 0.12449 0.35409 0.59677 0.0
H1637 H 0.14996 0.3498 0.64749 0.0
C1638 C 0.7491 0.19108 0.71518 0.0
C1639 C 0.75181 0.22096 0.69988 0.0
C1640 C 0.73295 0.1658 0.68876 0.0
C1641 C 0.71929 0.16989 0.64483 0.0
C1642 C 0.72163 0.20022 0.62977 0.0
C1643 C 0.73784 0.2249 0.65696 0.0
C1644 C 0.72971 0.13485 0.70954 0.0
C1645 C 0.7056 0.20737 0.5854 0.0
C1646 C 0.70034 0.10132 0.5725 0.0
C1647 C 0.66721 0.09474 0.55563 0.0
C1648 C 0.71751 0.12545 0.60095 0.0
C1649 C 0.70131 0.14302 0.61536 0.0
C1650 C 0.66754 0.135 0.60037 0.0
C1651 C 0.65151 0.11208 0.57047 0.0
C1652 C 0.75326 0.13205 0.61535 0.0
C1653 C 0.64718 0.1498 0.61602 0.0
H1654 H 0.75918 0.18726 0.74835 0.0
H1655 H 0.7389 0.24756 0.64448 0.0
H1656 H 0.71244 0.11641 0.6895 0.0
H1657 H 0.75349 0.13105 0.71758 0.0
H1658 H 0.72196 0.13362 0.73995 0.0
H1659 H 0.71953 0.22955 0.57374 0.0
H1660 H 0.70202 0.18978 0.56289 0.0
H1661 H 0.68191 0.20942 0.58598 0.0
H1662 H 0.71312 0.08806 0.56272 0.0
H1663 H 0.62585 0.10719 0.5597 0.0
H1664 H 0.75889 0.1221 0.64771 0.0
H1665 H 0.76547 0.15673 0.61639 0.0
H1666 H 0.76325 0.12206 0.59433 0.0
H1667 H 0.65998 0.16345 0.64438 0.0
H1668 H 0.62586 0.13232 0.62404 0.0
H1669 H 0.63812 0.16434 0.59004 0.0
C1670 C 0.89054 0.35022 0.37093 0.0
C1671 C 0.86839 0.35616 0.33548 0.0
C1672 C 0.91509 0.37371 0.3932 0.0
C1673 C 0.91757 0.40406 0.37978 0.0
C1674 C 0.8968 0.41006 0.34198 0.0
C1675 C 0.87225 0.38603 0.32045 0.0
C1676 C 0.93638 0.36606 0.43338 0.0
C1677 C 0.89898 0.44198 0.32612 0.0
C1678 C 0.94657 0.46206 0.4662 0.0
C1679 C 0.97861 0.47593 0.46376 0.0
C1680 C 0.92666 0.43869 0.4392 0.0
C1681 C 0.93879 0.42919 0.40822 0.0
C1682 C 0.97107 0.44327 0.40535 0.0
C1683 C 0.99067 0.46621 0.43341 0.0
C1684 C 0.8926 0.42404 0.44403 0.0
C1685 C 0.98486 0.43415 0.37255 0.0
H1686 H 0.88706 0.32718 0.38332 0.0
H1687 H 0.85448 0.39087 0.29418 0.0
H1688 H 0.96174 0.37918 0.43437 0.0
H1689 H 0.92966 0.3722 0.46128 0.0
H1690 H 0.93427 0.34165 0.43648 0.0
H1691 H 0.8808 0.44269 0.29673 0.0
H1692 H 0.89548 0.45472 0.35062 0.0
H1693 H 0.92307 0.45364 0.31964 0.0
H1694 H 0.9371 0.46923 0.48972 0.0
H1695 H 1.01535 0.4769 0.43111 0.0
H1696 H 0.88833 0.3995 0.4511 0.0
H1697 H 0.87581 0.42665 0.41386 0.0
H1698 H 0.88689 0.43386 0.46982 0.0
H1699 H 0.98295 0.40983 0.37695 0.0
H1700 H 1.01035 0.44733 0.37425 0.0
H1701 H 0.97097 0.43744 0.34026 0.0
C1702 C 0.75355 0.88956 0.32649 0.0
C1703 C 0.74656 0.85815 0.33716 0.0
C1704 C 0.7408 0.90958 0.34357 0.0
C1705 C 0.71912 0.89898 0.37196 0.0
C1706 C 0.71211 0.86735 0.3828 0.0
C1707 C 0.72582 0.84805 0.36623 0.0
C1708 C 0.75156 0.94277 0.33202 0.0
C1709 C 0.68977 0.85353 0.41247 0.0
C1710 C 0.69956 0.95515 0.44079 0.0
C1711 C 0.66997 0.9588 0.41754 0.0
C1712 C 0.71556 0.93642 0.42692 0.0
C1713 C 0.70263 0.92006 0.38818 0.0
C1714 C 0.67291 0.92378 0.36491 0.0
C1715 C 0.65752 0.94236 0.37942 0.0
C1716 C 0.7467 0.93411 0.45423 0.0
C1717 C 0.65685 0.90774 0.32388 0.0
H1718 H 0.76983 0.89891 0.3053 0.0
H1719 H 0.71975 0.82439 0.37601 0.0
H1720 H 0.73077 0.95161 0.32225 0.0
H1721 H 0.76734 0.95516 0.36034 0.0
H1722 H 0.765 0.94768 0.30617 0.0
H1723 H 0.68671 0.82908 0.41899 0.0
H1724 H 0.699 0.86523 0.44302 0.0
H1725 H 0.66599 0.85655 0.39858 0.0
H1726 H 0.71039 0.96687 0.47024 0.0
H1727 H 0.635 0.94395 0.36003 0.0
H1728 H 0.76581 0.94232 0.43581 0.0
H1729 H 0.74466 0.91016 0.46364 0.0
H1730 H 0.75399 0.94736 0.48337 0.0
H1731 H 0.6735 0.91377 0.30185 0.0
H1732 H 0.63468 0.91337 0.30796 0.0
H1733 H 0.65074 0.88299 0.33013 0.0
C1734 C 0.20438 0.71995 0.38364 0.0
C1735 C 0.23117 0.7158 0.37253 0.0
C1736 C 0.18266 0.69654 0.40365 0.0
C1737 C 0.18726 0.66762 0.41378 0.0
C1738 C 0.21458 0.66349 0.40334 0.0
C1739 C 0.23573 0.68716 0.38293 0.0
C1740 C 0.15431 0.70272 0.4135 0.0
C1741 C 0.22155 0.63377 0.41378 0.0
C1742 C 0.14295 0.61162 0.49503 0.0
C1743 C 0.11819 0.59038 0.46871 0.0
C1744 C 0.16537 0.63649 0.47806 0.0
C1745 C 0.16297 0.64144 0.43323 0.0
C1746 C 0.1373 0.62058 0.4067 0.0
C1747 C 0.11594 0.59555 0.42447 0.0
C1748 C 0.19205 0.65719 0.50857 0.0
C1749 C 0.13262 0.62436 0.35902 0.0
H1750 H 0.19999 0.74157 0.37609 0.0
H1751 H 0.256 0.68307 0.37499 0.0
H1752 H 0.13184 0.68664 0.3968 0.0
H1753 H 0.15495 0.69915 0.44804 0.0
H1754 H 0.15369 0.72608 0.40394 0.0
H1755 H 0.24442 0.63427 0.40606 0.0
H1756 H 0.2227 0.62781 0.44808 0.0
H1757 H 0.20192 0.61563 0.3958 0.0
H1758 H 0.14579 0.60809 0.52915 0.0
H1759 H 0.09736 0.57956 0.40329 0.0
H1760 H 0.18597 0.67812 0.51058 0.0
H1761 H 0.21485 0.66369 0.49753 0.0
H1762 H 0.19578 0.64656 0.54091 0.0
H1763 H 0.13101 0.64731 0.34865 0.0
H1764 H 0.11071 0.60751 0.34244 0.0
H1765 H 0.15353 0.62201 0.34889 0.0
C1766 C 0.36542 0.21591 0.30583 0.0
C1767 C 0.35889 0.23326 0.33388 0.0
C1768 C 0.38599 0.1971 0.31992 0.0
C1769 C 0.40084 0.19441 0.36376 0.0
C1770 C 0.39409 0.21174 0.39211 0.0
C1771 C 0.37391 0.23069 0.37713 0.0
C1772 C 0.39189 0.17997 0.28741 0.0
C1773 C 0.40801 0.21002 0.439 0.0
C1774 C 0.42898 0.12282 0.406 0.0
C1775 C 0.46271 0.13294 0.41119 0.0
C1776 C 0.40919 0.14216 0.39142 0.0
C1777 C 0.42244 0.17319 0.38005 0.0
C1778 C 0.45652 0.18363 0.38512 0.0
C1779 C 0.47591 0.16388 0.40077 0.0
C1780 C 0.37369 0.12916 0.38863 0.0
C1781 C 0.47273 0.21597 0.37357 0.0
H1782 H 0.35453 0.21711 0.27239 0.0
H1783 H 0.36956 0.2434 0.39991 0.0
H1784 H 0.41796 0.18567 0.28922 0.0
H1785 H 0.38288 0.15537 0.29435 0.0
H1786 H 0.38006 0.18499 0.25454 0.0
H1787 H 0.40048 0.22415 0.45747 0.0
H1788 H 0.40047 0.18631 0.45112 0.0
H1789 H 0.43449 0.2175 0.44474 0.0
H1790 H 0.41772 0.09939 0.41396 0.0
H1791 H 0.50159 0.17272 0.40417 0.0
H1792 H 0.3606 0.13172 0.35559 0.0
H1793 H 0.36601 0.14178 0.40912 0.0
H1794 H 0.36663 0.10491 0.39859 0.0
H1795 H 0.46237 0.22128 0.34016 0.0
H1796 H 0.49893 0.2208 0.37736 0.0
H1797 H 0.46841 0.23123 0.39388 0.0
C1798 C 0.73362 0.83637 0.66506 0.0
C1799 C 0.73786 0.83728 0.70939 0.0
C1800 C 0.71847 0.85532 0.63688 0.0
C1801 C 0.70682 0.87576 0.653 0.0
C1802 C 0.71017 0.87611 0.69762 0.0
C1803 C 0.72565 0.85713 0.72506 0.0
C1804 C 0.71586 0.85416 0.58979 0.0
C1805 C 0.6981 0.89721 0.7166 0.0
C1806 C 0.70111 0.94868 0.58956 0.0
C1807 C 0.66826 0.94223 0.57134 0.0
C1808 C 0.71382 0.92719 0.61513 0.0
C1809 C 0.69334 0.89824 0.62369 0.0
C1810 C 0.66015 0.89136 0.605 0.0
C1811 C 0.6481 0.91323 0.57882 0.0
C1812 C 0.74933 0.93572 0.63351 0.0
C1813 C 0.63723 0.86104 0.61339 0.0
H1814 H 0.74296 0.82138 0.65225 0.0
H1815 H 0.72857 0.85822 0.75907 0.0
H1816 H 0.69072 0.85056 0.57253 0.0
H1817 H 0.73031 0.87605 0.57793 0.0
H1818 H 0.7243 0.83595 0.58192 0.0
H1819 H 0.70039 0.89338 0.75147 0.0
H1820 H 0.7118 0.92093 0.71022 0.0
H1821 H 0.67263 0.89438 0.70157 0.0
H1822 H 0.71713 0.97081 0.58392 0.0
H1823 H 0.62273 0.90786 0.56512 0.0
H1824 H 0.75954 0.91925 0.6244 0.0
H1825 H 0.75378 0.93499 0.66869 0.0
H1826 H 0.76227 0.95865 0.62263 0.0
H1827 H 0.64466 0.8428 0.60363 0.0
H1828 H 0.61227 0.8589 0.59624 0.0
H1829 H 0.63778 0.85754 0.64792 0.0
C1830 C 0.7138 0.23564 0.48145 0.0
C1831 C 0.7435 0.23241 0.50386 0.0
C1832 C 0.69102 0.21235 0.45742 0.0
C1833 C 0.69526 0.18344 0.46147 0.0
C1834 C 0.72241 0.17858 0.49021 0.0
C1835 C 0.74609 0.20307 0.5112 0.0
C1836 C 0.6642 0.22022 0.42545 0.0
C1837 C 0.72836 0.14831 0.4963 0.0
C1838 C 0.61899 0.12035 0.42757 0.0
C1839 C 0.63002 0.10194 0.40772 0.0
C1840 C 0.64008 0.14659 0.4467 0.0
C1841 C 0.67091 0.15802 0.43733 0.0
C1842 C 0.67883 0.14333 0.40714 0.0
C1843 C 0.65913 0.11435 0.39484 0.0
C1844 C 0.62943 0.16023 0.47877 0.0
C1845 C 0.70838 0.15696 0.38905 0.0
H1846 H 0.70969 0.25744 0.47762 0.0
H1847 H 0.76797 0.19968 0.53027 0.0
H1848 H 0.65037 0.20243 0.40232 0.0
H1849 H 0.64781 0.22507 0.44253 0.0
H1850 H 0.67411 0.24125 0.40728 0.0
H1851 H 0.74411 0.14628 0.52754 0.0
H1852 H 0.70579 0.1294 0.4931 0.0
H1853 H 0.74118 0.14618 0.47211 0.0
H1854 H 0.59505 0.1125 0.43263 0.0
H1855 H 0.66713 0.10107 0.37685 0.0
H1856 H 0.61607 0.17577 0.462 0.0
H1857 H 0.64966 0.17266 0.5034 0.0
H1858 H 0.6128 0.14252 0.49521 0.0
H1859 H 0.70126 0.1578 0.35384 0.0
H1860 H 0.72408 0.14222 0.39749 0.0
H1861 H 0.72211 0.18014 0.39967 0.0
C1862 C 0.8851 0.69171 0.39156 0.0
C1863 C 0.86233 0.67159 0.41215 0.0
C1864 C 0.91403 0.68643 0.39245 0.0
C1865 C 0.92006 0.66063 0.41494 0.0
C1866 C 0.89655 0.63988 0.43492 0.0
C1867 C 0.86794 0.64584 0.43358 0.0
C1868 C 0.93821 0.70893 0.37057 0.0
C1869 C 0.90181 0.61167 0.45857 0.0
C1870 C 0.97282 0.61564 0.41191 0.0
C1871 C 0.99028 0.61953 0.45378 0.0
C1872 C 0.95329 0.63368 0.39431 0.0
C1873 C 0.95114 0.65521 0.42002 0.0
C1874 C 0.97369 0.66312 0.45865 0.0
C1875 C 0.99328 0.64496 0.47532 0.0
C1876 C 0.93172 0.6268 0.35101 0.0
C1877 C 0.97309 0.68688 0.48611 0.0
H1878 H 0.88046 0.71188 0.37543 0.0
H1879 H 0.85011 0.63065 0.44958 0.0
H1880 H 0.95555 0.72507 0.39407 0.0
H1881 H 0.9518 0.69774 0.35686 0.0
H1882 H 0.92657 0.72201 0.34486 0.0
H1883 H 0.90837 0.59824 0.43797 0.0
H1884 H 0.92177 0.61796 0.48664 0.0
H1885 H 0.88018 0.59705 0.4694 0.0
H1886 H 0.97185 0.59659 0.39471 0.0
H1887 H 1.00752 0.64834 0.50741 0.0
H1888 H 0.93658 0.6473 0.33001 0.0
H1889 H 0.90624 0.62032 0.35316 0.0
H1890 H 0.9355 0.60832 0.33602 0.0
H1891 H 0.96619 0.70566 0.46666 0.0
H1892 H 0.99671 0.69611 0.5077 0.0
H1893 H 0.95522 0.67646 0.50593 0.0
C1894 C 0.35761 0.87046 0.36117 0.0
C1895 C 0.35827 0.8423 0.38067 0.0
C1896 C 0.38136 0.8972 0.37542 0.0
C1897 C 0.40618 0.89611 0.41097 0.0
C1898 C 0.40595 0.868 0.43255 0.0
C1899 C 0.38215 0.84134 0.41688 0.0
C1900 C 0.38064 0.92645 0.35101 0.0
C1901 C 0.43144 0.866 0.47133 0.0
C1902 C 0.48446 0.9598 0.4153 0.0
C1903 C 0.48118 0.98044 0.44099 0.0
C1904 C 0.46056 0.93204 0.40601 0.0
C1905 C 0.43305 0.92425 0.4238 0.0
C1906 C 0.43024 0.94451 0.45113 0.0
C1907 C 0.45409 0.97246 0.45895 0.0
C1908 C 0.46418 0.91155 0.37581 0.0
C1909 C 0.40172 0.93688 0.4715 0.0
H1910 H 0.3391 0.87154 0.33341 0.0
H1911 H 0.38279 0.81973 0.43222 0.0
H1912 H 0.38101 0.94349 0.37257 0.0
H1913 H 0.40226 0.93561 0.33729 0.0
H1914 H 0.35918 0.92356 0.32477 0.0
H1915 H 0.42615 0.84318 0.487 0.0
H1916 H 0.45485 0.87143 0.46216 0.0
H1917 H 0.43389 0.88278 0.49464 0.0
H1918 H 0.50525 0.9658 0.40121 0.0
H1919 H 0.45159 0.9881 0.47934 0.0
H1920 H 0.44477 0.90913 0.34691 0.0
H1921 H 0.46194 0.8887 0.39073 0.0
H1922 H 0.48753 0.92025 0.36602 0.0
H1923 H 0.37977 0.93569 0.44673 0.0
H1924 H 0.40438 0.95382 0.49474 0.0
H1925 H 0.39819 0.91439 0.48798 0.0
C1926 C 0.27853 0.4288 0.48489 0.0
C1927 C 0.27536 0.42468 0.44175 0.0
C1928 C 0.25962 0.44335 0.49779 0.0
C1929 C 0.23733 0.45384 0.46671 0.0
C1930 C 0.23641 0.45231 0.42306 0.0
C1931 C 0.25548 0.43766 0.41109 0.0
C1932 C 0.2615 0.44524 0.5445 0.0
C1933 C 0.21327 0.46367 0.38894 0.0
C1934 C 0.15612 0.44716 0.48544 0.0
C1935 C 0.15924 0.47717 0.49153 0.0
C1936 C 0.18216 0.43906 0.47999 0.0
C1937 C 0.21157 0.46179 0.4792 0.0
C1938 C 0.21513 0.49203 0.48682 0.0
C1939 C 0.18886 0.49932 0.49349 0.0
C1940 C 0.17783 0.40634 0.47357 0.0
C1941 C 0.24592 0.51689 0.48552 0.0
H1942 H 0.29397 0.41872 0.50852 0.0
H1943 H 0.25347 0.43476 0.37768 0.0
H1944 H 0.26497 0.46874 0.55235 0.0
H1945 H 0.23858 0.43118 0.55253 0.0
H1946 H 0.28125 0.4375 0.56464 0.0
H1947 H 0.21928 0.46539 0.35725 0.0
H1948 H 0.18876 0.44788 0.387 0.0
H1949 H 0.213 0.48612 0.39664 0.0
H1950 H 0.13329 0.43001 0.485 0.0
H1951 H 0.19111 0.52255 0.49843 0.0
H1952 H 0.19752 0.39909 0.49472 0.0
H1953 H 0.17864 0.4035 0.44035 0.0
H1954 H 0.15472 0.3912 0.47997 0.0
H1955 H 0.2669 0.50981 0.50269 0.0
H1956 H 0.24663 0.53786 0.49944 0.0
H1957 H 0.24825 0.52211 0.45202 0.0
C1958 C 0.41516 0.20458 0.59817 0.0
C1959 C 0.39828 0.19053 0.63005 0.0
C1960 C 0.43186 0.18984 0.58018 0.0
C1961 C 0.43211 0.16007 0.59413 0.0
C1962 C 0.41486 0.14559 0.62588 0.0
C1963 C 0.3983 0.16083 0.64327 0.0
C1964 C 0.44998 0.20658 0.54687 0.0
C1965 C 0.41449 0.11409 0.6423 0.0
C1966 C 0.4579 0.11161 0.52792 0.0
C1967 C 0.4901 0.11581 0.54808 0.0
C1968 C 0.43892 0.12611 0.54192 0.0
C1969 C 0.45201 0.14487 0.57766 0.0
C1970 C 0.48447 0.1491 0.59802 0.0
C1971 C 0.50297 0.13486 0.58293 0.0
C1972 C 0.4048 0.12144 0.51831 0.0
C1973 C 0.49976 0.16861 0.63619 0.0
H1974 H 0.41518 0.22723 0.58684 0.0
H1975 H 0.3859 0.14958 0.66811 0.0
H1976 H 0.47591 0.21415 0.5613 0.0
H1977 H 0.44649 0.19164 0.52063 0.0
H1978 H 0.44261 0.22675 0.53348 0.0
H1979 H 0.39895 0.10531 0.66563 0.0
H1980 H 0.40598 0.09851 0.61554 0.0
H1981 H 0.43913 0.11392 0.65774 0.0
H1982 H 0.44751 0.09711 0.501 0.0
H1983 H 0.52768 0.13841 0.59913 0.0
H1984 H 0.40104 0.14355 0.50723 0.0
H1985 H 0.38832 0.11072 0.53995 0.0
H1986 H 0.39833 0.10709 0.49043 0.0
H1987 H 0.49883 0.19195 0.62761 0.0
H1988 H 0.5251 0.16942 0.64889 0.0
H1989 H 0.48629 0.15993 0.66178 0.0
C1990 C 0.89292 0.33297 0.7196 0.0
C1991 C 0.86662 0.34044 0.72677 0.0
C1992 C 0.91664 0.35364 0.69927 0.0
C1993 C 0.91468 0.38307 0.685 0.0
C1994 C 0.88795 0.39051 0.69172 0.0
C1995 C 0.86473 0.36953 0.71226 0.0
C1996 C 0.94424 0.34403 0.69358 0.0
C1997 C 0.88392 0.42107 0.67746 0.0
C1998 C 0.98923 0.45101 0.67058 0.0
C1999 C 0.98688 0.45424 0.62623 0.0
C2000 C 0.96715 0.42754 0.68982 0.0
C2001 C 0.94077 0.40639 0.66462 0.0
C2002 C 0.93867 0.40908 0.61977 0.0
C2003 C 0.96136 0.4327 0.60137 0.0
C2004 C 0.97133 0.42632 0.73745 0.0
C2005 C 0.91133 0.38784 0.59072 0.0
H2006 H 0.8953 0.31093 0.7304 0.0
H2007 H 0.84494 0.37616 0.71716 0.0
H2008 H 0.94554 0.3463 0.65959 0.0
H2009 H 0.96701 0.35904 0.71135 0.0
H2010 H 0.94221 0.32034 0.70487 0.0
H2011 H 0.86148 0.42334 0.68321 0.0
H2012 H 0.90442 0.43895 0.6946 0.0
H2013 H 0.88379 0.42511 0.64307 0.0
H2014 H 1.0078 0.46788 0.69046 0.0
H2015 H 0.958 0.4353 0.56711 0.0
H2016 H 0.97034 0.40317 0.75034 0.0
H2017 H 0.95148 0.43201 0.74587 0.0
H2018 H 0.99433 0.44227 0.75313 0.0
H2019 H 0.9093 0.3641 0.60148 0.0
H2020 H 0.91419 0.39088 0.55725 0.0
H2021 H 0.88858 0.39178 0.59191 0.0
C2022 C 0.22955 0.69514 0.74336 0.0
C2023 C 0.23545 0.72064 0.71589 0.0
C2024 C 0.20819 0.66725 0.72858 0.0
C2025 C 0.19222 0.66478 0.68527 0.0
C2026 C 0.19685 0.69089 0.658 0.0
C2027 C 0.21846 0.71848 0.67361 0.0
C2028 C 0.20383 0.64015 0.75892 0.0
C2029 C 0.17988 0.68944 0.61188 0.0
C2030 C 0.17057 0.58984 0.6325 0.0
C2031 C 0.13759 0.57798 0.63091 0.0
C2032 C 0.18851 0.61775 0.65059 0.0
C2033 C 0.17323 0.63453 0.66751 0.0
C2034 C 0.14001 0.62263 0.66645 0.0
C2035 C 0.12261 0.59448 0.64827 0.0
C2036 C 0.22385 0.62945 0.65108 0.0
C2037 C 0.12276 0.63987 0.68385 0.0
H2038 H 0.24232 0.69677 0.77626 0.0
H2039 H 0.22266 0.73819 0.65238 0.0
H2040 H 0.17806 0.62868 0.75768 0.0
H2041 H 0.21383 0.62367 0.74936 0.0
H2042 H 0.21586 0.64631 0.79222 0.0
H2043 H 0.1845 0.71202 0.59548 0.0
H2044 H 0.18793 0.6747 0.59526 0.0
H2045 H 0.15372 0.6793 0.60905 0.0
H2046 H 0.18249 0.57738 0.61927 0.0
H2047 H 0.09714 0.58566 0.64708 0.0
H2048 H 0.23237 0.61317 0.63812 0.0
H2049 H 0.23769 0.63439 0.68403 0.0
H2050 H 0.22914 0.65088 0.63195 0.0
H2051 H 0.13402 0.64479 0.71766 0.0
H2052 H 0.09703 0.62731 0.68141 0.0
H2053 H 0.12475 0.66186 0.66629 0.0
loop_
_geom_bond_atom_site_label_1
_geom_bond_atom_site_label_2
_geom_bond_distance
_geom_bond_site_symmetry_2
_ccdc_geom_bond_type
C0 Eu1 2.835 . S
C0 C2 1.500 . S
C0 O20 1.257 . S
C0 O21 1.260 . S
Eu1 C0 2.835 . S
Eu1 O20 2.473 . S
Eu1 O21 2.480 . S
Eu1 O22 2.430 . S
Eu1 O23 2.670 . S
Eu1 O24 2.394 . S
Eu1 O29 2.355 . S
Eu1 O31 2.374 . S
C2 C0 1.500 . S
C2 C3 1.377 . S
C2 C7 1.377 . S
C3 C2 1.377 . S
C3 C4 1.395 . S
C3 H32 0.931 . S
C4 C3 1.395 . S
C4 C5 1.383 . S
C4 H33 0.931 . S
C5 C4 1.383 . S
C5 C6 1.394 . S
C6 C5 1.394 . S
C6 C7 1.378 . S
C6 H34 0.931 . S
C7 C2 1.377 . S
C7 C6 1.378 . S
C7 H35 0.931 . S
C8 O22 1.259 . S
C8 O23 1.270 . S
C9 O24 1.251 . S
C9 O25 1.251 . S
C10 Eu11 2.835 . S
C10 C12 1.500 . S
C10 O26 1.257 . S
C10 O27 1.260 . S
Eu11 C10 2.835 . S
Eu11 O23 2.355 . S
Eu11 O25 2.374 . S
Eu11 O26 2.473 . S
Eu11 O27 2.480 . S
Eu11 O28 2.430 . S
Eu11 O29 2.670 . S
Eu11 O30 2.394 . S
C12 C10 1.500 . S
C12 C13 1.377 . S
C12 C17 1.377 . S
C13 C12 1.377 . S
C13 C14 1.395 . S
C13 H36 0.931 . S
C14 C13 1.395 . S
C14 C15 1.383 . S
C14 H37 0.931 . S
C15 C14 1.383 . S
C15 C16 1.394 . S
C16 C15 1.394 . S
C16 C17 1.378 . S
C16 H38 0.931 . S
C17 C12 1.377 . S
C17 C16 1.378 . S
C17 H39 0.931 . S
C18 O28 1.259 . S
C18 O29 1.270 . S
C19 O30 1.251 . S
C19 O31 1.251 . S
O20 C0 1.257 . S
O20 Eu1 2.473 . S
O21 C0 1.260 . S
O21 Eu1 2.480 . S
O22 Eu1 2.430 . S
O22 C8 1.259 . S
O23 Eu1 2.670 . S
O23 C8 1.270 . S
O23 Eu11 2.355 . S
O24 Eu1 2.394 . S
O24 C9 1.251 . S
O25 C9 1.251 . S
O25 Eu11 2.374 . S
O26 C10 1.257 . S
O26 Eu11 2.473 . S
O27 C10 1.260 . S
O27 Eu11 2.480 . S
O28 Eu11 2.430 . S
O28 C18 1.259 . S
O29 Eu1 2.355 . S
O29 Eu11 2.670 . S
O29 C18 1.270 . S
O30 Eu11 2.394 . S
O30 C19 1.251 . S
O31 Eu1 2.374 . S
O31 C19 1.251 . S
H32 C3 0.931 . S
H33 C4 0.931 . S
H34 C6 0.931 . S
H35 C7 0.931 . S
H36 C13 0.931 . S
H37 C14 0.931 . S
H38 C16 0.931 . S
H39 C17 0.931 . S
C40 Eu41 2.835 . S
C40 C42 1.500 . S
C40 O60 1.257 . S
C40 O61 1.260 . S
Eu41 C40 2.835 . S
Eu41 O60 2.473 . S
Eu41 O61 2.480 . S
Eu41 O62 2.430 . S
Eu41 O63 2.670 . S
Eu41 O64 2.394 . S
Eu41 O69 2.355 . S
Eu41 O71 2.374 . S
C42 C40 1.500 . S
C42 C43 1.377 . S
C42 C47 1.377 . S
C43 C42 1.377 . S
C43 C44 1.395 . S
C43 H72 0.931 . S
C44 C43 1.395 . S
C44 C45 1.383 . S
C44 H73 0.931 . S
C45 C44 1.383 . S
C45 C46 1.394 . S
C46 C45 1.394 . S
C46 C47 1.378 . S
C46 H74 0.931 . S
C47 C42 1.377 . S
C47 C46 1.378 . S
C47 H75 0.931 . S
C48 O62 1.259 . S
C48 O63 1.270 . S
C49 O64 1.251 . S
C49 O65 1.251 . S
C50 Eu51 2.835 . S
C50 C52 1.500 . S
C50 O66 1.257 . S
C50 O67 1.260 . S
Eu51 C50 2.835 . S
Eu51 O63 2.355 . S
Eu51 O65 2.374 . S
Eu51 O66 2.473 . S
Eu51 O67 2.480 . S
Eu51 O68 2.430 . S
Eu51 O69 2.670 . S
Eu51 O70 2.394 . S
C52 C50 1.500 . S
C52 C53 1.377 . S
C52 C57 1.377 . S
C53 C52 1.377 . S
C53 C54 1.395 . S
C53 H76 0.931 . S
C54 C53 1.395 . S
C54 C55 1.383 . S
C54 H77 0.931 . S
C55 C54 1.383 . S
C55 C56 1.394 . S
C56 C55 1.394 . S
C56 C57 1.378 . S
C56 H78 0.931 . S
C57 C52 1.377 . S
C57 C56 1.378 . S
C57 H79 0.931 . S
C58 O68 1.259 . S
C58 O69 1.270 . S
C59 O70 1.251 . S
C59 O71 1.251 . S
O60 C40 1.257 . S
O60 Eu41 2.473 . S
O61 C40 1.260 . S
O61 Eu41 2.480 . S
O62 Eu41 2.430 . S
O62 C48 1.259 . S
O63 Eu41 2.670 . S
O63 C48 1.270 . S
O63 Eu51 2.355 . S
O64 Eu41 2.394 . S
O64 C49 1.251 . S
O65 C49 1.251 . S
O65 Eu51 2.374 . S
O66 C50 1.257 . S
O66 Eu51 2.473 . S
O67 C50 1.260 . S
O67 Eu51 2.480 . S
O68 Eu51 2.430 . S
O68 C58 1.259 . S
O69 Eu41 2.355 . S
O69 Eu51 2.670 . S
O69 C58 1.270 . S
O70 Eu51 2.394 . S
O70 C59 1.251 . S
O71 Eu41 2.374 . S
O71 C59 1.251 . S
H72 C43 0.931 . S
H73 C44 0.931 . S
H74 C46 0.931 . S
H75 C47 0.931 . S
H76 C53 0.931 . S
H77 C54 0.931 . S
H78 C56 0.931 . S
H79 C57 0.931 . S
C80 Eu81 2.835 . S
C80 C82 1.500 . S
C80 O100 1.257 . S
C80 O101 1.260 . S
Eu81 C80 2.835 . S
Eu81 O100 2.473 . S
Eu81 O101 2.480 . S
Eu81 O102 2.430 . S
Eu81 O103 2.670 . S
Eu81 O104 2.394 . S
Eu81 O109 2.355 . S
Eu81 O111 2.374 . S
C82 C80 1.500 . S
C82 C83 1.377 . S
C82 C87 1.377 . S
C83 C82 1.377 . S
C83 C84 1.395 . S
C83 H112 0.931 . S
C84 C83 1.395 . S
C84 C85 1.383 . S
C84 H113 0.931 . S
C85 C84 1.383 . S
C85 C86 1.394 . S
C86 C85 1.394 . S
C86 C87 1.378 . S
C86 H114 0.931 . S
C87 C82 1.377 . S
C87 C86 1.378 . S
C87 H115 0.931 . S
C88 O102 1.259 . S
C88 O103 1.270 . S
C89 O104 1.251 . S
C89 O105 1.251 . S
C90 Eu91 2.835 . S
C90 C92 1.500 . S
C90 O106 1.257 . S
C90 O107 1.260 . S
Eu91 C90 2.835 . S
Eu91 O103 2.355 . S
Eu91 O105 2.374 . S
Eu91 O106 2.473 . S
Eu91 O107 2.480 . S
Eu91 O108 2.430 . S
Eu91 O109 2.670 . S
Eu91 O110 2.394 . S
C92 C90 1.500 . S
C92 C93 1.377 . S
C92 C97 1.377 . S
C93 C92 1.377 . S
C93 C94 1.395 . S
C93 H116 0.931 . S
C94 C93 1.395 . S
C94 C95 1.383 . S
C94 H117 0.931 . S
C95 C94 1.383 . S
C95 C96 1.394 . S
C96 C95 1.394 . S
C96 C97 1.378 . S
C96 H118 0.931 . S
C97 C92 1.377 . S
C97 C96 1.378 . S
C97 H119 0.931 . S
C98 O108 1.259 . S
C98 O109 1.270 . S
C99 O110 1.251 . S
C99 O111 1.251 . S
O100 C80 1.257 . S
O100 Eu81 2.473 . S
O101 C80 1.260 . S
O101 Eu81 2.480 . S
O102 Eu81 2.430 . S
O102 C88 1.259 . S
O103 Eu81 2.670 . S
O103 C88 1.270 . S
O103 Eu91 2.355 . S
O104 Eu81 2.394 . S
O104 C89 1.251 . S
O105 C89 1.251 . S
O105 Eu91 2.374 . S
O106 C90 1.257 . S
O106 Eu91 2.473 . S
O107 C90 1.260 . S
O107 Eu91 2.480 . S
O108 Eu91 2.430 . S
O108 C98 1.259 . S
O109 Eu81 2.355 . S
O109 Eu91 2.670 . S
O109 C98 1.270 . S
O110 Eu91 2.394 . S
O110 C99 1.251 . S
O111 Eu81 2.374 . S
O111 C99 1.251 . S
H112 C83 0.931 . S
H113 C84 0.931 . S
H114 C86 0.931 . S
H115 C87 0.931 . S
H116 C93 0.931 . S
H117 C94 0.931 . S
H118 C96 0.931 . S
H119 C97 0.931 . S
C120 Eu121 2.835 . S
C120 C122 1.500 . S
C120 O140 1.257 . S
C120 O141 1.260 . S
Eu121 C120 2.835 . S
Eu121 O140 2.473 . S
Eu121 O141 2.480 . S
Eu121 O142 2.430 . S
Eu121 O143 2.670 . S
Eu121 O144 2.394 . S
Eu121 O149 2.355 . S
Eu121 O151 2.374 . S
C122 C120 1.500 . S
C122 C123 1.377 . S
C122 C127 1.377 . S
C123 C122 1.377 . S
C123 C124 1.395 . S
C123 H152 0.931 . S
C124 C123 1.395 . S
C124 C125 1.383 . S
C124 H153 0.931 . S
C125 C124 1.383 . S
C125 C126 1.394 . S
C126 C125 1.394 . S
C126 C127 1.378 . S
C126 H154 0.931 . S
C127 C122 1.377 . S
C127 C126 1.378 . S
C127 H155 0.931 . S
C128 O142 1.259 . S
C128 O143 1.270 . S
C129 O144 1.251 . S
C129 O145 1.251 . S
C130 Eu131 2.835 . S
C130 C132 1.500 . S
C130 O146 1.257 . S
C130 O147 1.260 . S
Eu131 C130 2.835 . S
Eu131 O143 2.355 . S
Eu131 O145 2.374 . S
Eu131 O146 2.473 . S
Eu131 O147 2.480 . S
Eu131 O148 2.430 . S
Eu131 O149 2.670 . S
Eu131 O150 2.394 . S
C132 C130 1.500 . S
C132 C133 1.377 . S
C132 C137 1.377 . S
C133 C132 1.377 . S
C133 C134 1.395 . S
C133 H156 0.931 . S
C134 C133 1.395 . S
C134 C135 1.383 . S
C134 H157 0.931 . S
C135 C134 1.383 . S
C135 C136 1.394 . S
C136 C135 1.394 . S
C136 C137 1.378 . S
C136 H158 0.931 . S
C137 C132 1.377 . S
C137 C136 1.378 . S
C137 H159 0.931 . S
C138 O148 1.259 . S
C138 O149 1.270 . S
C139 O150 1.251 . S
C139 O151 1.251 . S
O140 C120 1.257 . S
O140 Eu121 2.473 . S
O141 C120 1.260 . S
O141 Eu121 2.480 . S
O142 Eu121 2.430 . S
O142 C128 1.259 . S
O143 Eu121 2.670 . S
O143 C128 1.270 . S
O143 Eu131 2.355 . S
O144 Eu121 2.394 . S
O144 C129 1.251 . S
O145 C129 1.251 . S
O145 Eu131 2.374 . S
O146 C130 1.257 . S
O146 Eu131 2.473 . S
O147 C130 1.260 . S
O147 Eu131 2.480 . S
O148 Eu131 2.430 . S
O148 C138 1.259 . S
O149 Eu121 2.355 . S
O149 Eu131 2.670 . S
O149 C138 1.270 . S
O150 Eu131 2.394 . S
O150 C139 1.251 . S
O151 Eu121 2.374 . S
O151 C139 1.251 . S
H152 C123 0.931 . S
H153 C124 0.931 . S
H154 C126 0.931 . S
H155 C127 0.931 . S
H156 C133 0.931 . S
H157 C134 0.931 . S
H158 C136 0.931 . S
H159 C137 0.931 . S
C160 Eu161 2.835 . S
C160 C162 1.500 . S
C160 O180 1.257 . S
C160 O181 1.260 . S
Eu161 C160 2.835 . S
Eu161 O180 2.473 . S
Eu161 O181 2.480 . S
Eu161 O182 2.430 . S
Eu161 O183 2.670 . S
Eu161 O184 2.394 . S
Eu161 O189 2.355 . S
Eu161 O191 2.374 . S
C162 C160 1.500 . S
C162 C163 1.377 . S
C162 C167 1.377 . S
C163 C162 1.377 . S
C163 C164 1.395 . S
C163 H192 0.931 . S
C164 C163 1.395 . S
C164 C165 1.383 . S
C164 H193 0.931 . S
C165 C164 1.383 . S
C165 C166 1.394 . S
C166 C165 1.394 . S
C166 C167 1.378 . S
C166 H194 0.931 . S
C167 C162 1.377 . S
C167 C166 1.378 . S
C167 H195 0.931 . S
C168 O182 1.259 . S
C168 O183 1.270 . S
C169 O184 1.251 . S
C169 O185 1.251 . S
C170 Eu171 2.835 . S
C170 C172 1.500 . S
C170 O186 1.257 . S
C170 O187 1.260 . S
Eu171 C170 2.835 . S
Eu171 O183 2.355 . S
Eu171 O185 2.374 . S
Eu171 O186 2.473 . S
Eu171 O187 2.480 . S
Eu171 O188 2.430 . S
Eu171 O189 2.670 . S
Eu171 O190 2.394 . S
C172 C170 1.500 . S
C172 C173 1.377 . S
C172 C177 1.377 . S
C173 C172 1.377 . S
C173 C174 1.395 . S
C173 H196 0.931 . S
C174 C173 1.395 . S
C174 C175 1.383 . S
C174 H197 0.905 1_556 S
C175 C174 1.383 . S
C175 C176 1.394 . S
C176 C175 1.394 . S
C176 C177 1.378 . S
C176 H198 0.931 . S
C177 C172 1.377 . S
C177 C176 1.378 . S
C177 H199 0.931 . S
C178 O188 1.259 . S
C178 O189 1.270 . S
C179 O190 1.251 . S
C179 O191 1.251 . S
O180 C160 1.257 . S
O180 Eu161 2.473 . S
O181 C160 1.260 . S
O181 Eu161 2.480 . S
O182 Eu161 2.430 . S
O182 C168 1.259 . S
O183 Eu161 2.670 . S
O183 C168 1.270 . S
O183 Eu171 2.355 . S
O184 Eu161 2.394 . S
O184 C169 1.251 . S
O185 C169 1.251 . S
O185 Eu171 2.374 . S
O186 C170 1.257 . S
O186 Eu171 2.473 . S
O187 C170 1.260 . S
O187 Eu171 2.480 . S
O188 Eu171 2.430 . S
O188 C178 1.259 . S
O189 Eu161 2.355 . S
O189 Eu171 2.670 . S
O189 C178 1.270 . S
O190 Eu171 2.394 . S
O190 C179 1.251 . S
O191 Eu161 2.374 . S
O191 C179 1.251 . S
H192 C163 0.931 . S
H193 C164 0.931 . S
H194 C166 0.931 . S
H195 C167 0.931 . S
H196 C173 0.931 . S
H197 C174 0.905 1_554 S
H198 C176 0.931 . S
H199 C177 0.931 . S
C200 Eu201 2.835 . S
C200 C202 1.500 . S
C200 O220 1.257 . S
C200 O221 1.260 . S
Eu201 C200 2.835 . S
Eu201 O220 2.473 . S
Eu201 O221 2.480 . S
Eu201 O222 2.430 . S
Eu201 O223 2.670 . S
Eu201 O224 2.394 . S
Eu201 O229 2.355 . S
Eu201 O231 2.374 . S
C202 C200 1.500 . S
C202 C203 1.377 . S
C202 C207 1.377 . S
C203 C202 1.377 . S
C203 C204 1.395 . S
C203 H232 0.931 . S
C204 C203 1.395 . S
C204 C205 1.383 . S
C204 H233 0.931 . S
C205 C204 1.383 . S
C205 C206 1.394 . S
C206 C205 1.394 . S
C206 C207 1.378 . S
C206 H234 0.931 . S
C207 C202 1.377 . S
C207 C206 1.378 . S
C207 H235 0.931 . S
C208 O222 1.259 . S
C208 O223 1.270 . S
C209 O224 1.251 . S
C209 O225 1.251 . S
C210 Eu211 2.835 . S
C210 C212 1.500 . S
C210 O226 1.257 . S
C210 O227 1.260 . S
Eu211 C210 2.835 . S
Eu211 O223 2.355 . S
Eu211 O225 2.374 . S
Eu211 O226 2.473 . S
Eu211 O227 2.480 . S
Eu211 O228 2.430 . S
Eu211 O229 2.670 . S
Eu211 O230 2.394 . S
C212 C210 1.500 . S
C212 C213 1.377 . S
C212 C217 1.377 . S
C213 C212 1.377 . S
C213 C214 1.395 . S
C213 H236 0.931 . S
C214 C213 1.395 . S
C214 C215 1.383 . S
C214 H237 0.931 . S
C215 C214 1.383 . S
C215 C216 1.394 . S
C216 C215 1.394 . S
C216 C217 1.378 . S
C216 H238 0.931 . S
C217 C212 1.377 . S
C217 C216 1.378 . S
C217 H239 0.931 . S
C218 O228 1.259 . S
C218 O229 1.270 . S
C219 O230 1.251 . S
C219 O231 1.251 . S
O220 C200 1.257 . S
O220 Eu201 2.473 . S
O221 C200 1.260 . S
O221 Eu201 2.480 . S
O222 Eu201 2.430 . S
O222 C208 1.259 . S
O223 Eu201 2.670 . S
O223 C208 1.270 . S
O223 Eu211 2.355 . S
O224 Eu201 2.394 . S
O224 C209 1.251 . S
O225 C209 1.251 . S
O225 Eu211 2.374 . S
O226 C210 1.257 . S
O226 Eu211 2.473 . S
O227 C210 1.260 . S
O227 Eu211 2.480 . S
O228 Eu211 2.430 . S
O228 C218 1.259 . S
O229 Eu201 2.355 . S
O229 Eu211 2.670 . S
O229 C218 1.270 . S
O230 Eu211 2.394 . S
O230 C219 1.251 . S
O231 Eu201 2.374 . S
O231 C219 1.251 . S
H232 C203 0.931 . S
H233 C204 0.931 . S
H234 C206 0.931 . S
H235 C207 0.931 . S
H236 C213 0.931 . S
H237 C214 0.931 . S
H238 C216 0.931 . S
H239 C217 0.931 . S
C240 Eu241 2.835 . S
C240 C242 1.500 . S
C240 O260 1.257 . S
C240 O261 1.260 . S
Eu241 C240 2.835 . S
Eu241 O260 2.473 . S
Eu241 O261 2.480 . S
Eu241 O262 2.430 . S
Eu241 O263 2.670 . S
Eu241 O264 2.394 . S
Eu241 O269 2.355 . S
Eu241 O271 2.374 . S
C242 C240 1.500 . S
C242 C243 1.377 . S
C242 C247 1.377 . S
C243 C242 1.377 . S
C243 C244 1.395 . S
C243 H272 0.931 . S
C244 C243 1.395 . S
C244 C245 1.383 . S
C244 H273 0.931 . S
C245 C244 1.383 . S
C245 C246 1.394 . S
C246 C245 1.394 . S
C246 C247 1.378 . S
C246 H274 0.931 . S
C247 C242 1.377 . S
C247 C246 1.378 . S
C247 H275 0.931 . S
C248 O262 1.259 . S
C248 O263 1.270 . S
C249 O264 1.251 . S
C249 O265 1.251 . S
C250 Eu251 2.835 . S
C250 C252 1.500 . S
C250 O266 1.257 . S
C250 O267 1.260 . S
Eu251 C250 2.835 . S
Eu251 O263 2.355 . S
Eu251 O265 2.374 . S
Eu251 O266 2.473 . S
Eu251 O267 2.480 . S
Eu251 O268 2.430 . S
Eu251 O269 2.670 . S
Eu251 O270 2.394 . S
C252 C250 1.500 . S
C252 C253 1.377 . S
C252 C257 1.377 . S
C253 C252 1.377 . S
C253 C254 1.395 . S
C253 H276 0.931 . S
C254 C253 1.395 . S
C254 C255 1.383 . S
C254 H277 0.931 . S
C255 C254 1.383 . S
C255 C256 1.394 . S
C256 C255 1.394 . S
C256 C257 1.378 . S
C256 H278 0.931 . S
C257 C252 1.377 . S
C257 C256 1.378 . S
C257 H279 0.931 . S
C258 O268 1.259 . S
C258 O269 1.270 . S
C259 O270 1.251 . S
C259 O271 1.251 . S
O260 C240 1.257 . S
O260 Eu241 2.473 . S
O261 C240 1.260 . S
O261 Eu241 2.480 . S
O262 Eu241 2.430 . S
O262 C248 1.259 . S
O263 Eu241 2.670 . S
O263 C248 1.270 . S
O263 Eu251 2.355 . S
O264 Eu241 2.394 . S
O264 C249 1.251 . S
O265 C249 1.251 . S
O265 Eu251 2.374 . S
O266 C250 1.257 . S
O266 Eu251 2.473 . S
O267 C250 1.260 . S
O267 Eu251 2.480 . S
O268 Eu251 2.430 . S
O268 C258 1.259 . S
O269 Eu241 2.355 . S
O269 Eu251 2.670 . S
O269 C258 1.270 . S
O270 Eu251 2.394 . S
O270 C259 1.251 . S
O271 Eu241 2.374 . S
O271 C259 1.251 . S
H272 C243 0.931 . S
H273 C244 0.931 . S
H274 C246 0.931 . S
H275 C247 0.931 . S
H276 C253 0.931 . S
H277 C254 0.931 . S
H278 C256 0.931 . S
H279 C257 0.931 . S
C280 Eu281 2.835 . S
C280 C282 1.500 . S
C280 O300 1.257 . S
C280 O301 1.260 . S
Eu281 C280 2.835 . S
Eu281 O300 2.473 . S
Eu281 O301 2.480 . S
Eu281 O302 2.430 . S
Eu281 O303 2.670 . S
Eu281 O304 2.394 . S
Eu281 O309 2.355 . S
Eu281 O311 2.374 . S
C282 C280 1.500 . S
C282 C283 1.377 . S
C282 C287 1.377 . S
C283 C282 1.377 . S
C283 C284 1.395 . S
C283 H312 0.931 . S
C284 C283 1.395 . S
C284 C285 1.383 . S
C284 H313 0.931 . S
C285 C284 1.383 . S
C285 C286 1.394 . S
C286 C285 1.394 . S
C286 C287 1.378 . S
C286 H314 0.931 . S
C287 C282 1.377 . S
C287 C286 1.378 . S
C287 H315 0.931 . S
C288 O302 1.259 . S
C288 O303 1.270 . S
C289 O304 1.251 . S
C289 O305 1.251 . S
C290 Eu291 2.835 . S
C290 C292 1.500 . S
C290 O306 1.257 . S
C290 O307 1.260 . S
Eu291 C290 2.835 . S
Eu291 O303 2.355 . S
Eu291 O305 2.374 . S
Eu291 O306 2.473 . S
Eu291 O307 2.480 . S
Eu291 O308 2.430 . S
Eu291 O309 2.670 . S
Eu291 O310 2.394 . S
C292 C290 1.500 . S
C292 C293 1.377 . S
C292 C297 1.377 . S
C293 C292 1.377 . S
C293 C294 1.395 . S
C293 H316 0.931 . S
C294 C293 1.395 . S
C294 C295 1.383 . S
C294 H317 0.931 . S
C295 C294 1.383 . S
C295 C296 1.394 . S
C296 C295 1.394 . S
C296 C297 1.378 . S
C296 H318 0.931 . S
C297 C292 1.377 . S
C297 C296 1.378 . S
C297 H319 0.931 . S
C298 O308 1.259 . S
C298 O309 1.270 . S
C299 O310 1.251 . S
C299 O311 1.251 . S
O300 C280 1.257 . S
O300 Eu281 2.473 . S
O301 C280 1.260 . S
O301 Eu281 2.480 . S
O302 Eu281 2.430 . S
O302 C288 1.259 . S
O303 Eu281 2.670 . S
O303 C288 1.270 . S
O303 Eu291 2.355 . S
O304 Eu281 2.394 . S
O304 C289 1.251 . S
O305 C289 1.251 . S
O305 Eu291 2.374 . S
O306 C290 1.257 . S
O306 Eu291 2.473 . S
O307 C290 1.260 . S
O307 Eu291 2.480 . S
O308 Eu291 2.430 . S
O308 C298 1.259 . S
O309 Eu281 2.355 . S
O309 Eu291 2.670 . S
O309 C298 1.270 . S
O310 Eu291 2.394 . S
O310 C299 1.251 . S
O311 Eu281 2.374 . S
O311 C299 1.251 . S
H312 C283 0.931 . S
H313 C284 0.931 . S
H314 C286 0.931 . S
H315 C287 0.931 . S
H316 C293 0.931 . S
H317 C294 0.931 . S
H318 C296 0.931 . S
H319 C297 0.931 . S
Co320 O323 2.042 . S
Co320 O330 2.264 . S
Co320 O349 2.286 . S
Co320 O350 2.069 . S
Co320 O352 2.015 1_455 S
Co321 O323 2.122 . S
Co321 O329 2.073 . S
Co321 O330 2.327 . S
Co321 O331 1.976 1_455 S
Co322 O323 2.087 1_545 S
Co322 O325 2.087 1_455 S
Co322 O332 2.111 1_445 S
Co322 O333 2.143 . S
Co322 O337 2.111 . S
Co322 O351 2.143 1_445 S
O323 Co320 2.042 . S
O323 Co321 2.122 . S
O323 Co322 2.087 1_565 S
O323 H324 0.980 1_565 S
H324 O323 0.980 1_545 S
O325 Co322 2.087 1_655 S
O325 Co326 2.042 . S
O325 Co327 2.122 . S
O325 H328 0.980 . S
Co326 O325 2.042 . S
Co326 O334 2.286 . S
Co326 O335 2.069 . S
Co326 O336 2.015 1_655 S
Co326 O339 2.264 . S
Co327 O325 2.122 . S
Co327 O338 1.976 1_655 S
Co327 O339 2.327 . S
Co327 O340 2.073 . S
H328 O325 0.980 . S
O329 Co321 2.073 . S
O329 C344 1.245 . S
O330 Co320 2.264 . S
O330 Co321 2.327 . S
O330 C344 1.257 . S
O331 Co321 1.976 1_655 S
O331 C343 1.251 . S
O332 Co322 2.111 1_665 S
O332 C343 1.274 . S
O333 Co322 2.143 . S
O333 C346 1.246 . S
O334 Co326 2.286 . S
O334 C345 1.259 . S
O335 Co326 2.069 . S
O335 C345 1.289 . S
O336 Co326 2.015 1_455 S
O336 C346 1.257 . S
O337 Co322 2.111 . S
O337 C347 1.274 . S
O338 Co327 1.976 1_455 S
O338 C347 1.251 . S
O339 Co326 2.264 . S
O339 Co327 2.327 . S
O339 C348 1.257 . S
O340 Co327 2.073 . S
O340 C348 1.245 . S
C341 O349 1.259 . S
C341 O350 1.289 . S
C342 O351 1.246 . S
C342 O352 1.257 . S
C343 O331 1.251 . S
C343 O332 1.274 . S
C344 O329 1.245 . S
C344 O330 1.257 . S
C345 O334 1.259 . S
C345 O335 1.289 . S
C346 O333 1.246 . S
C346 O336 1.257 . S
C347 O337 1.274 . S
C347 O338 1.251 . S
C348 O339 1.257 . S
C348 O340 1.245 . S
O349 Co320 2.286 . S
O349 C341 1.259 . S
O350 Co320 2.069 . S
O350 C341 1.289 . S
O351 Co322 2.143 1_665 S
O351 C342 1.246 . S
O352 Co320 2.015 1_655 S
O352 C342 1.257 . S
Co353 O356 2.042 1_566 S
Co353 O363 2.264 1_556 S
Co353 O382 2.286 . S
Co353 O383 2.069 . S
Co353 O385 2.015 . S
Co354 O356 2.122 1_565 S
Co354 O362 2.073 . S
Co354 O363 2.327 . S
Co354 O364 1.976 . S
Co355 O356 2.087 . S
Co355 O358 2.087 1_554 S
Co355 O365 2.111 . S
Co355 O366 2.143 . S
Co355 O370 2.111 1_554 S
Co355 O384 2.152 1_554 S
O356 Co353 2.042 1_544 S
O356 Co354 2.122 1_545 S
O356 Co355 2.087 . S
O356 H357 0.980 . S
H357 O356 0.980 . S
O358 Co355 2.087 1_556 S
O358 Co359 2.042 1_556 S
O358 Co360 2.122 . S
O358 H361 0.980 . S
Co359 O358 2.042 1_554 S
Co359 O367 2.286 . S
Co359 O368 2.069 . S
Co359 O369 2.015 . S
Co359 O372 2.264 1_554 S
Co360 O358 2.122 . S
Co360 O371 1.976 . S
Co360 O372 2.327 . S
Co360 O373 2.073 . S
H361 O358 0.980 . S
O362 Co354 2.073 . S
O362 C377 1.245 . S
O363 Co353 2.264 1_554 S
O363 Co354 2.327 . S
O363 C377 1.257 . S
O364 Co354 1.976 . S
O364 C376 1.251 . S
O365 Co355 2.111 . S
O365 C376 1.274 1_545 S
O366 Co355 2.143 . S
O366 C379 1.246 . S
O367 Co359 2.286 . S
O367 C378 1.259 . S
O368 Co359 2.069 . S
O368 C378 1.289 . S
O369 Co359 2.015 . S
O369 C379 1.257 . S
O370 Co355 2.111 1_556 S
O370 C380 1.274 . S
O371 Co360 1.976 . S
O371 C380 1.251 . S
O372 Co359 2.264 1_556 S
O372 Co360 2.327 . S
O372 C381 1.257 . S
O373 Co360 2.073 . S
O373 C381 1.245 . S
C374 O382 1.259 . S
C374 O383 1.289 . S
C375 O384 1.231 1_565 S
C375 O385 1.257 . S
C376 O364 1.251 . S
C376 O365 1.274 1_565 S
C377 O362 1.245 . S
C377 O363 1.257 . S
C378 O367 1.259 . S
C378 O368 1.289 . S
C379 O366 1.246 . S
C379 O369 1.257 . S
C380 O370 1.274 . S
C380 O371 1.251 . S
C381 O372 1.257 . S
C381 O373 1.245 . S
O382 Co353 2.286 . S
O382 C374 1.259 . S
O383 Co353 2.069 . S
O383 C374 1.289 . S
O384 Co355 2.152 1_556 S
O384 C375 1.231 1_545 S
O385 Co353 2.015 . S
O385 C375 1.257 . S
Co386 O389 2.042 . S
Co386 O396 2.264 . S
Co386 O415 2.286 . S
Co386 O416 2.069 . S
Co386 O418 2.015 1_455 S
Co387 O389 2.122 . S
Co387 O395 2.073 . S
Co387 O396 2.327 . S
Co387 O397 1.976 1_455 S
Co388 O389 2.087 . S
Co388 O391 2.087 1_455 S
Co388 O398 2.111 1_455 S
Co388 O399 2.143 . S
Co388 O403 2.111 . S
Co388 O417 2.143 1_455 S
O389 Co386 2.042 . S
O389 Co387 2.122 . S
O389 Co388 2.087 . S
O389 H390 0.980 . S
H390 O389 0.980 . S
O391 Co388 2.087 1_655 S
O391 Co392 2.042 . S
O391 Co393 2.122 1_554 S
O391 H394 0.980 . S
Co392 O391 2.042 . S
Co392 O400 2.286 . S
Co392 O401 2.069 . S
Co392 O402 2.015 1_655 S
Co392 O405 2.264 . S
Co393 O391 2.122 1_556 S
Co393 O404 1.976 1_655 S
Co393 O405 2.327 1_556 S
Co393 O406 2.073 . S
H394 O391 0.980 . S
O395 Co387 2.073 . S
O395 C410 1.245 . S
O396 Co386 2.264 . S
O396 Co387 2.327 . S
O396 C410 1.257 . S
O397 Co387 1.976 1_655 S
O397 C409 1.251 . S
O398 Co388 2.111 1_655 S
O398 C409 1.274 . S
O399 Co388 2.143 . S
O399 C412 1.246 . S
O400 Co392 2.286 . S
O400 C411 1.259 . S
O401 Co392 2.069 . S
O401 C411 1.289 . S
O402 Co392 2.015 1_455 S
O402 C412 1.257 . S
O403 Co388 2.111 . S
O403 C413 1.274 . S
O404 Co393 1.976 1_455 S
O404 C413 1.251 1_556 S
O405 Co392 2.264 . S
O405 Co393 2.327 1_554 S
O405 C414 1.257 1_554 S
O406 Co393 2.073 . S
O406 C414 1.245 . S
C407 O415 1.259 . S
C407 O416 1.289 . S
C408 O417 1.246 . S
C408 O418 1.257 . S
C409 O397 1.251 . S
C409 O398 1.274 . S
C410 O395 1.245 . S
C410 O396 1.257 . S
C411 O400 1.259 . S
C411 O401 1.289 . S
C412 O399 1.246 . S
C412 O402 1.257 . S
C413 O403 1.274 . S
C413 O404 1.251 1_554 S
C414 O405 1.257 1_556 S
C414 O406 1.245 . S
O415 Co386 2.286 . S
O415 C407 1.259 . S
O416 Co386 2.069 . S
O416 C407 1.289 . S
O417 Co388 2.143 1_655 S
O417 C408 1.246 . S
O418 Co386 2.015 1_655 S
O418 C408 1.257 . S
Co419 O422 2.042 . S
Co419 O429 2.264 . S
Co419 O448 2.286 1_554 S
Co419 O449 2.069 . S
Co419 O451 2.015 1_554 S
Co420 O422 2.122 . S
Co420 O428 2.073 . S
Co420 O429 2.327 . S
Co420 O430 1.976 . S
Co421 O422 2.087 . S
Co421 O424 2.087 . S
Co421 O431 2.111 . S
Co421 O432 2.143 . S
Co421 O436 2.111 1_554 S
Co421 O450 2.143 1_554 S
O422 Co419 2.042 . S
O422 Co420 2.122 . S
O422 Co421 2.087 . S
O422 H423 0.980 . S
H423 O422 0.980 . S
O424 Co421 2.087 . S
O424 Co425 2.042 . S
O424 Co426 2.122 1_554 S
O424 H427 0.980 . S
Co425 O424 2.042 . S
Co425 O433 2.286 . S
Co425 O434 2.069 . S
Co425 O435 2.015 . S
Co425 O438 2.264 1_554 S
Co426 O424 2.122 1_556 S
Co426 O437 1.976 . S
Co426 O438 2.327 . S
Co426 O439 2.073 . S
H427 O424 0.980 . S
O428 Co420 2.073 . S
O428 C443 1.245 . S
O429 Co419 2.264 . S
O429 Co420 2.327 . S
O429 C443 1.257 . S
O430 Co420 1.976 . S
O430 C442 1.251 . S
O431 Co421 2.111 . S
O431 C442 1.274 . S
O432 Co421 2.143 . S
O432 C445 1.246 . S
O433 Co425 2.286 . S
O433 C444 1.259 . S
O434 Co425 2.069 . S
O434 C444 1.289 . S
O435 Co425 2.015 . S
O435 C445 1.257 . S
O436 Co421 2.111 1_556 S
O436 C446 1.274 . S
O437 Co426 1.976 . S
O437 C446 1.251 . S
O438 Co425 2.264 1_556 S
O438 Co426 2.327 . S
O438 C447 1.257 . S
O439 Co426 2.073 . S
O439 C447 1.245 . S
C440 O448 1.259 . S
C440 O449 1.289 1_556 S
C441 O450 1.246 . S
C441 O451 1.258 . S
C442 O430 1.251 . S
C442 O431 1.274 . S
C443 O428 1.245 . S
C443 O429 1.257 . S
C444 O433 1.259 . S
C444 O434 1.289 . S
C445 O432 1.246 . S
C445 O435 1.257 . S
C446 O436 1.274 . S
C446 O437 1.251 . S
C447 O438 1.257 . S
C447 O439 1.245 . S
O448 Co419 2.286 1_556 S
O448 C440 1.259 . S
O449 Co419 2.069 . S
O449 C440 1.289 1_554 S
O450 Co421 2.143 1_556 S
O450 C441 1.246 . S
O451 Co419 2.015 1_556 S
O451 C441 1.258 . S
Co452 O455 2.042 . S
Co452 O462 2.264 . S
Co452 O481 2.286 . S
Co452 O482 2.069 . S
Co452 O484 2.015 . S
Co453 O455 2.122 . S
Co453 O461 2.073 . S
Co453 O462 2.327 . S
Co453 O463 1.976 . S
Co454 O455 2.087 . S
Co454 O457 2.087 . S
Co454 O464 2.111 . S
Co454 O465 2.143 1_455 S
Co454 O469 2.111 . S
Co454 O483 2.143 . S
O455 Co452 2.042 . S
O455 Co453 2.122 . S
O455 Co454 2.087 . S
O455 H456 0.980 . S
H456 O455 0.980 . S
O457 Co454 2.087 . S
O457 Co458 2.042 1_455 S
O457 Co459 2.122 . S
O457 H460 0.980 . S
Co458 O457 2.042 1_655 S
Co458 O466 2.286 . S
Co458 O467 2.069 . S
Co458 O468 2.015 . S
Co458 O471 2.264 . S
Co459 O457 2.122 . S
Co459 O470 1.976 1_455 S
Co459 O471 2.327 1_455 S
Co459 O472 2.073 1_455 S
H460 O457 0.980 . S
O461 Co453 2.073 . S
O461 C476 1.245 . S
O462 Co452 2.264 . S
O462 Co453 2.327 . S
O462 C476 1.257 . S
O463 Co453 1.976 . S
O463 C475 1.251 . S
O464 Co454 2.111 . S
O464 C475 1.274 . S
O465 Co454 2.143 1_655 S
O465 C478 1.246 . S
O466 Co458 2.286 . S
O466 C477 1.259 . S
O467 Co458 2.069 . S
O467 C477 1.289 . S
O468 Co458 2.015 . S
O468 C478 1.257 . S
O469 Co454 2.111 . S
O469 C479 1.274 1_455 S
O470 Co459 1.976 1_655 S
O470 C479 1.251 . S
O471 Co458 2.264 . S
O471 Co459 2.327 1_655 S
O471 C480 1.257 . S
O472 Co459 2.073 1_655 S
O472 C480 1.245 . S
C473 O481 1.259 . S
C473 O482 1.289 . S
C474 O483 1.246 . S
C474 O484 1.257 . S
C475 O463 1.251 . S
C475 O464 1.274 . S
C476 O461 1.245 . S
C476 O462 1.257 . S
C477 O466 1.259 . S
C477 O467 1.289 . S
C478 O465 1.246 . S
C478 O468 1.257 . S
C479 O469 1.274 1_655 S
C479 O470 1.251 . S
C480 O471 1.257 . S
C480 O472 1.245 . S
O481 Co452 2.286 . S
O481 C473 1.259 . S
O482 Co452 2.069 . S
O482 C473 1.289 . S
O483 Co454 2.143 . S
O483 C474 1.246 . S
O484 Co452 2.015 . S
O484 C474 1.257 . S
Co485 O488 2.042 . S
Co485 O495 2.264 . S
Co485 O514 2.286 . S
Co485 O515 2.069 . S
Co485 O517 2.015 1_565 S
Co486 O488 2.122 . S
Co486 O494 2.073 . S
Co486 O495 2.327 . S
Co486 O496 1.976 1_565 S
Co487 O488 2.087 1_545 S
Co487 O490 2.087 . S
Co487 O497 2.111 . S
Co487 O498 2.143 1_545 S
Co487 O502 2.111 1_545 S
Co487 O516 2.143 . S
O488 Co485 2.042 . S
O488 Co486 2.122 . S
O488 Co487 2.087 1_565 S
O488 H489 0.980 . S
H489 O488 0.980 . S
O490 Co487 2.087 . S
O490 Co491 2.042 . S
O490 Co492 2.122 . S
O490 H493 0.980 . S
Co491 O490 2.042 . S
Co491 O499 2.286 . S
Co491 O500 2.069 . S
Co491 O501 2.015 1_545 S
Co491 O504 2.264 . S
Co492 O490 2.122 . S
Co492 O503 1.976 1_545 S
Co492 O504 2.327 . S
Co492 O505 2.073 . S
H493 O490 0.980 . S
O494 Co486 2.073 . S
O494 C509 1.245 . S
O495 Co485 2.264 . S
O495 Co486 2.327 . S
O495 C509 1.257 . S
O496 Co486 1.976 1_545 S
O496 C508 1.251 . S
O497 Co487 2.111 . S
O497 C508 1.274 . S
O498 Co487 2.143 1_565 S
O498 C511 1.246 . S
O499 Co491 2.286 . S
O499 C510 1.259 . S
O500 Co491 2.069 . S
O500 C510 1.289 . S
O501 Co491 2.015 1_565 S
O501 C511 1.257 . S
O502 Co487 2.111 1_565 S
O502 C512 1.274 . S
O503 Co492 1.976 1_565 S
O503 C512 1.251 . S
O504 Co491 2.264 . S
O504 Co492 2.327 . S
O504 C513 1.257 . S
O505 Co492 2.073 . S
O505 C513 1.245 . S
C506 O514 1.259 . S
C506 O515 1.289 . S
C507 O516 1.246 . S
C507 O517 1.257 . S
C508 O496 1.251 . S
C508 O497 1.274 . S
C509 O494 1.245 . S
C509 O495 1.257 . S
C510 O499 1.259 . S
C510 O500 1.289 . S
C511 O498 1.246 . S
C511 O501 1.257 . S
C512 O502 1.274 . S
C512 O503 1.251 . S
C513 O504 1.257 . S
C513 O505 1.245 . S
O514 Co485 2.286 . S
O514 C506 1.259 . S
O515 Co485 2.069 . S
O515 C506 1.289 . S
O516 Co487 2.143 . S
O516 C507 1.246 . S
O517 Co485 2.015 1_545 S
O517 C507 1.257 . S
C518 C519 1.391 . S
C518 C520 1.394 . S
C518 H534 0.931 . S
C519 C518 1.391 . S
C519 C523 1.376 . S
C520 C518 1.394 . S
C520 C521 1.369 . S
C520 C524 1.531 . S
C521 C520 1.369 . S
C521 C522 1.410 . S
C521 C529 1.503 . S
C522 C521 1.410 . S
C522 C523 1.392 . S
C522 C525 1.511 . S
C523 C519 1.376 . S
C523 C522 1.392 . S
C523 H535 0.929 . S
C524 C520 1.531 . S
C524 H536 0.960 . S
C524 H537 0.962 . S
C524 H538 0.960 . S
C525 C522 1.511 . S
C525 H539 0.961 . S
C525 H540 0.961 . S
C525 H541 0.961 . S
C526 C527 1.370 . S
C526 C528 1.363 . S
C526 H542 0.931 . S
C527 C526 1.370 . S
C527 C531 1.408 . S
C528 C526 1.363 . S
C528 C529 1.370 . S
C528 C532 1.524 . S
C529 C521 1.503 . S
C529 C528 1.370 . S
C529 C530 1.403 . S
C530 C529 1.403 . S
C530 C531 1.404 . S
C530 C533 1.539 . S
C531 C527 1.408 . S
C531 C530 1.404 . S
C531 H543 0.930 . S
C532 C528 1.524 . S
C532 H544 0.956 . S
C532 H545 0.961 . S
C532 H546 0.961 . S
C533 C530 1.539 . S
C533 H547 0.958 . S
C533 H548 0.961 . S
C533 H549 0.960 . S
H534 C518 0.931 . S
H535 C523 0.929 . S
H536 C524 0.960 . S
H537 C524 0.962 . S
H538 C524 0.960 . S
H539 C525 0.961 . S
H540 C525 0.961 . S
H541 C525 0.961 . S
H542 C526 0.931 . S
H543 C531 0.930 . S
H544 C532 0.956 . S
H545 C532 0.961 . S
H546 C532 0.961 . S
H547 C533 0.958 . S
H548 C533 0.961 . S
H549 C533 0.960 . S
C550 C551 1.391 . S
C550 C552 1.394 . S
C550 H566 0.931 . S
C551 C550 1.391 . S
C551 C555 1.376 . S
C552 C550 1.394 . S
C552 C553 1.369 . S
C552 C556 1.531 . S
C553 C552 1.369 . S
C553 C554 1.410 . S
C553 C561 1.503 . S
C554 C553 1.410 . S
C554 C555 1.392 . S
C554 C557 1.511 . S
C555 C551 1.376 . S
C555 C554 1.392 . S
C555 H567 0.929 . S
C556 C552 1.531 . S
C556 H568 0.960 . S
C556 H569 0.962 . S
C556 H570 0.960 . S
C557 C554 1.511 . S
C557 H571 0.961 . S
C557 H572 0.961 . S
C557 H573 0.961 . S
C558 C559 1.370 . S
C558 C560 1.363 . S
C558 H574 0.931 . S
C559 C558 1.370 . S
C559 C563 1.408 . S
C560 C558 1.363 . S
C560 C561 1.370 . S
C560 C564 1.524 . S
C561 C553 1.503 . S
C561 C560 1.370 . S
C561 C562 1.403 . S
C562 C561 1.403 . S
C562 C563 1.404 . S
C562 C565 1.539 . S
C563 C559 1.408 . S
C563 C562 1.404 . S
C563 H575 0.930 . S
C564 C560 1.524 . S
C564 H576 0.956 . S
C564 H577 0.961 . S
C564 H578 0.961 . S
C565 C562 1.539 . S
C565 H579 0.958 . S
C565 H580 0.961 . S
C565 H581 0.960 . S
H566 C550 0.931 . S
H567 C555 0.929 . S
H568 C556 0.960 . S
H569 C556 0.962 . S
H570 C556 0.960 . S
H571 C557 0.961 . S
H572 C557 0.961 . S
H573 C557 0.961 . S
H574 C558 0.931 . S
H575 C563 0.930 . S
H576 C564 0.956 . S
H577 C564 0.961 . S
H578 C564 0.961 . S
H579 C565 0.958 . S
H580 C565 0.961 . S
H581 C565 0.960 . S
C582 C583 1.391 . S
C582 C584 1.394 . S
C582 H598 0.931 . S
C583 C582 1.391 . S
C583 C587 1.376 . S
C584 C582 1.394 . S
C584 C585 1.369 . S
C584 C588 1.531 . S
C585 C584 1.369 . S
C585 C586 1.410 . S
C585 C593 1.503 . S
C586 C585 1.410 . S
C586 C587 1.392 . S
C586 C589 1.511 . S
C587 C583 1.376 . S
C587 C586 1.392 . S
C587 H599 0.929 . S
C588 C584 1.531 . S
C588 H600 0.960 . S
C588 H601 0.962 . S
C588 H602 0.960 . S
C589 C586 1.511 . S
C589 H603 0.961 . S
C589 H604 0.961 . S
C589 H605 0.961 . S
C590 C591 1.370 . S
C590 C592 1.363 . S
C590 H606 0.931 . S
C591 C590 1.370 . S
C591 C595 1.408 . S
C592 C590 1.363 . S
C592 C593 1.370 . S
C592 C596 1.524 . S
C593 C585 1.503 . S
C593 C592 1.370 . S
C593 C594 1.403 . S
C594 C593 1.403 . S
C594 C595 1.404 . S
C594 C597 1.539 . S
C595 C591 1.408 . S
C595 C594 1.404 . S
C595 H607 0.930 . S
C596 C592 1.524 . S
C596 H608 0.956 . S
C596 H609 0.961 . S
C596 H610 0.961 . S
C597 C594 1.539 . S
C597 H611 0.958 . S
C597 H612 0.961 . S
C597 H613 0.960 . S
H598 C582 0.931 . S
H599 C587 0.929 . S
H600 C588 0.960 . S
H601 C588 0.962 . S
H602 C588 0.960 . S
H603 C589 0.961 . S
H604 C589 0.961 . S
H605 C589 0.961 . S
H606 C590 0.931 . S
H607 C595 0.930 . S
H608 C596 0.956 . S
H609 C596 0.961 . S
H610 C596 0.961 . S
H611 C597 0.958 . S
H612 C597 0.961 . S
H613 C597 0.960 . S
C614 C615 1.391 . S
C614 C616 1.394 . S
C614 H630 0.931 . S
C615 C614 1.391 . S
C615 C619 1.376 . S
C616 C614 1.394 . S
C616 C617 1.369 . S
C616 C620 1.531 . S
C617 C616 1.369 . S
C617 C618 1.410 . S
C617 C625 1.503 . S
C618 C617 1.410 . S
C618 C619 1.392 . S
C618 C621 1.511 . S
C619 C615 1.376 . S
C619 C618 1.392 . S
C619 H631 0.929 . S
C620 C616 1.531 . S
C620 H632 0.960 . S
C620 H633 0.962 . S
C620 H634 0.960 . S
C621 C618 1.511 . S
C621 H635 0.961 . S
C621 H636 0.961 . S
C621 H637 0.961 . S
C622 C623 1.370 . S
C622 C624 1.363 . S
C622 H638 0.931 . S
C623 C622 1.370 . S
C623 C627 1.408 . S
C624 C622 1.363 . S
C624 C625 1.370 . S
C624 C628 1.524 . S
C625 C617 1.503 . S
C625 C624 1.370 . S
C625 C626 1.403 . S
C626 C625 1.403 . S
C626 C627 1.404 . S
C626 C629 1.539 . S
C627 C623 1.408 . S
C627 C626 1.404 . S
C627 H639 0.930 . S
C628 C624 1.524 . S
C628 H640 0.956 . S
C628 H641 0.961 . S
C628 H642 0.961 . S
C629 C626 1.539 . S
C629 H643 0.958 . S
C629 H644 0.961 . S
C629 H645 0.960 . S
H630 C614 0.931 . S
H631 C619 0.929 . S
H632 C620 0.960 . S
H633 C620 0.962 . S
H634 C620 0.960 . S
H635 C621 0.961 . S
H636 C621 0.961 . S
H637 C621 0.961 . S
H638 C622 0.931 . S
H639 C627 0.930 . S
H640 C628 0.956 . S
H641 C628 0.961 . S
H642 C628 0.961 . S
H643 C629 0.958 . S
H644 C629 0.961 . S
H645 C629 0.960 . S
C646 C647 1.391 . S
C646 C648 1.394 . S
C646 H662 0.931 . S
C647 C646 1.391 . S
C647 C651 1.376 . S
C648 C646 1.394 . S
C648 C649 1.369 . S
C648 C652 1.531 . S
C649 C648 1.369 . S
C649 C650 1.410 . S
C649 C657 1.503 . S
C650 C649 1.410 . S
C650 C651 1.392 . S
C650 C653 1.511 . S
C651 C647 1.376 . S
C651 C650 1.392 . S
C651 H663 0.929 . S
C652 C648 1.531 . S
C652 H664 0.960 . S
C652 H665 0.962 . S
C652 H666 0.960 . S
C653 C650 1.511 . S
C653 H667 0.961 . S
C653 H668 0.961 . S
C653 H669 0.961 . S
C654 C655 1.370 . S
C654 C656 1.363 . S
C654 H670 0.931 . S
C655 C654 1.370 . S
C655 C659 1.408 . S
C656 C654 1.363 . S
C656 C657 1.370 . S
C656 C660 1.524 . S
C657 C649 1.503 . S
C657 C656 1.370 . S
C657 C658 1.403 . S
C658 C657 1.403 . S
C658 C659 1.404 . S
C658 C661 1.539 . S
C659 C655 1.408 . S
C659 C658 1.404 . S
C659 H671 0.930 . S
C660 C656 1.524 . S
C660 H672 0.956 . S
C660 H673 0.961 . S
C660 H674 0.961 . S
C661 C658 1.539 . S
C661 H675 0.958 . S
C661 H676 0.961 . S
C661 H677 0.960 . S
H662 C646 0.931 . S
H663 C651 0.929 . S
H664 C652 0.960 . S
H665 C652 0.962 . S
H666 C652 0.960 . S
H667 C653 0.961 . S
H668 C653 0.961 . S
H669 C653 0.961 . S
H670 C654 0.931 . S
H671 C659 0.930 . S
H672 C660 0.956 . S
H673 C660 0.961 . S
H674 C660 0.961 . S
H675 C661 0.958 . S
H676 C661 0.961 . S
H677 C661 0.960 . S
C678 C679 1.391 . S
C678 C680 1.394 . S
C678 H694 0.931 . S
C679 C678 1.391 . S
C679 C683 1.376 . S
C680 C678 1.394 . S
C680 C681 1.369 . S
C680 C684 1.531 . S
C681 C680 1.369 . S
C681 C682 1.410 . S
C681 C689 1.503 . S
C682 C681 1.410 . S
C682 C683 1.392 . S
C682 C685 1.511 . S
C683 C679 1.376 . S
C683 C682 1.392 . S
C683 H695 0.929 . S
C684 C680 1.531 . S
C684 H696 0.960 . S
C684 H697 0.962 . S
C684 H698 0.960 . S
C685 C682 1.511 . S
C685 H699 0.961 . S
C685 H700 0.961 . S
C685 H701 0.961 . S
C686 C687 1.370 . S
C686 C688 1.363 . S
C686 H702 0.931 . S
C687 C686 1.370 . S
C687 C691 1.408 . S
C688 C686 1.363 . S
C688 C689 1.370 . S
C688 C692 1.524 . S
C689 C681 1.503 . S
C689 C688 1.370 . S
C689 C690 1.403 . S
C690 C689 1.403 . S
C690 C691 1.404 . S
C690 C693 1.539 . S
C691 C687 1.408 . S
C691 C690 1.404 . S
C691 H703 0.930 . S
C692 C688 1.524 . S
C692 H704 0.956 . S
C692 H705 0.961 . S
C692 H706 0.961 . S
C693 C690 1.539 . S
C693 H707 0.958 . S
C693 H708 0.961 . S
C693 H709 0.960 . S
H694 C678 0.931 . S
H695 C683 0.929 . S
H696 C684 0.960 . S
H697 C684 0.962 . S
H698 C684 0.960 . S
H699 C685 0.961 . S
H700 C685 0.961 . S
H701 C685 0.961 . S
H702 C686 0.931 . S
H703 C691 0.930 . S
H704 C692 0.956 . S
H705 C692 0.961 . S
H706 C692 0.961 . S
H707 C693 0.958 . S
H708 C693 0.961 . S
H709 C693 0.960 . S
C710 C711 1.391 . S
C710 C712 1.394 . S
C710 H726 0.931 . S
C711 C710 1.391 . S
C711 C715 1.376 . S
C712 C710 1.394 . S
C712 C713 1.369 . S
C712 C716 1.531 . S
C713 C712 1.369 . S
C713 C714 1.410 . S
C713 C721 1.503 . S
C714 C713 1.410 . S
C714 C715 1.392 . S
C714 C717 1.511 . S
C715 C711 1.376 . S
C715 C714 1.392 . S
C715 H727 0.929 . S
C716 C712 1.531 . S
C716 H728 0.960 . S
C716 H729 0.962 . S
C716 H730 0.960 . S
C717 C714 1.511 . S
C717 H731 0.961 . S
C717 H732 0.961 . S
C717 H733 0.961 . S
C718 C719 1.370 . S
C718 C720 1.363 . S
C718 H734 0.931 . S
C719 C718 1.370 . S
C719 C723 1.408 . S
C720 C718 1.363 . S
C720 C721 1.370 . S
C720 C724 1.524 . S
C721 C713 1.503 . S
C721 C720 1.370 . S
C721 C722 1.403 . S
C722 C721 1.403 . S
C722 C723 1.404 . S
C722 C725 1.539 . S
C723 C719 1.408 . S
C723 C722 1.404 . S
C723 H735 0.930 . S
C724 C720 1.524 . S
C724 H736 0.956 . S
C724 H737 0.961 . S
C724 H738 0.961 . S
C725 C722 1.539 . S
C725 H739 0.958 . S
C725 H740 0.961 . S
C725 H741 0.960 . S
H726 C710 0.931 . S
H727 C715 0.929 . S
H728 C716 0.960 . S
H729 C716 0.962 . S
H730 C716 0.960 . S
H731 C717 0.961 . S
H732 C717 0.961 . S
H733 C717 0.961 . S
H734 C718 0.931 . S
H735 C723 0.930 . S
H736 C724 0.956 . S
H737 C724 0.961 . S
H738 C724 0.961 . S
H739 C725 0.958 . S
H740 C725 0.961 . S
H741 C725 0.960 . S
C742 C743 1.391 . S
C742 C744 1.394 . S
C742 H758 0.931 . S
C743 C742 1.391 . S
C743 C747 1.376 . S
C744 C742 1.394 . S
C744 C745 1.369 . S
C744 C748 1.531 . S
C745 C744 1.369 . S
C745 C746 1.410 . S
C745 C753 1.503 . S
C746 C745 1.410 . S
C746 C747 1.392 . S
C746 C749 1.511 . S
C747 C743 1.376 . S
C747 C746 1.392 . S
C747 H759 0.929 . S
C748 C744 1.531 . S
C748 H760 0.960 . S
C748 H761 0.962 . S
C748 H762 0.960 . S
C749 C746 1.511 . S
C749 H763 0.961 . S
C749 H764 0.961 . S
C749 H765 0.961 . S
C750 C751 1.370 . S
C750 C752 1.363 . S
C750 H766 0.931 . S
C751 C750 1.370 . S
C751 C755 1.408 . S
C752 C750 1.363 . S
C752 C753 1.370 . S
C752 C756 1.524 . S
C753 C745 1.503 . S
C753 C752 1.370 . S
C753 C754 1.403 . S
C754 C753 1.403 . S
C754 C755 1.404 . S
C754 C757 1.539 . S
C755 C751 1.408 . S
C755 C754 1.404 . S
C755 H767 0.930 . S
C756 C752 1.524 . S
C756 H768 0.956 . S
C756 H769 0.961 . S
C756 H770 0.961 . S
C757 C754 1.539 . S
C757 H771 0.958 . S
C757 H772 0.961 . S
C757 H773 0.960 . S
H758 C742 0.931 . S
H759 C747 0.929 . S
H760 C748 0.960 . S
H761 C748 0.962 . S
H762 C748 0.960 . S
H763 C749 0.961 . S
H764 C749 0.961 . S
H765 C749 0.961 . S
H766 C750 0.931 . S
H767 C755 0.930 . S
H768 C756 0.956 . S
H769 C756 0.961 . S
H770 C756 0.961 . S
H771 C757 0.958 . S
H772 C757 0.961 . S
H773 C757 0.960 . S
C774 C775 1.391 . S
C774 C776 1.394 . S
C774 H790 0.931 . S
C775 C774 1.391 . S
C775 C779 1.376 . S
C776 C774 1.394 . S
C776 C777 1.369 . S
C776 C780 1.531 . S
C777 C776 1.369 . S
C777 C778 1.410 . S
C777 C785 1.503 . S
C778 C777 1.410 . S
C778 C779 1.392 . S
C778 C781 1.511 . S
C779 C775 1.376 . S
C779 C778 1.392 . S
C779 H791 0.929 . S
C780 C776 1.531 . S
C780 H792 0.960 . S
C780 H793 0.962 . S
C780 H794 0.960 . S
C781 C778 1.511 . S
C781 H795 0.961 . S
C781 H796 0.961 . S
C781 H797 0.961 . S
C782 C783 1.370 . S
C782 C784 1.363 . S
C782 H798 0.931 . S
C783 C782 1.370 . S
C783 C787 1.408 . S
C784 C782 1.363 . S
C784 C785 1.370 . S
C784 C788 1.524 . S
C785 C777 1.503 . S
C785 C784 1.370 . S
C785 C786 1.403 . S
C786 C785 1.403 . S
C786 C787 1.404 . S
C786 C789 1.539 . S
C787 C783 1.408 . S
C787 C786 1.404 . S
C787 H799 0.930 . S
C788 C784 1.524 . S
C788 H800 0.956 . S
C788 H801 0.961 . S
C788 H802 0.961 . S
C789 C786 1.539 . S
C789 H803 0.958 . S
C789 H804 0.961 . S
C789 H805 0.960 . S
H790 C774 0.931 . S
H791 C779 0.929 . S
H792 C780 0.960 . S
H793 C780 0.962 . S
H794 C780 0.960 . S
H795 C781 0.961 . S
H796 C781 0.961 . S
H797 C781 0.961 . S
H798 C782 0.931 . S
H799 C787 0.930 . S
H800 C788 0.956 . S
H801 C788 0.961 . S
H802 C788 0.961 . S
H803 C789 0.958 . S
H804 C789 0.961 . S
H805 C789 0.960 . S
C806 C807 1.391 . S
C806 C808 1.394 . S
C806 H822 0.931 . S
C807 C806 1.391 . S
C807 C811 1.376 . S
C808 C806 1.394 . S
C808 C809 1.369 . S
C808 C812 1.531 . S
C809 C808 1.369 . S
C809 C810 1.410 . S
C809 C817 1.503 . S
C810 C809 1.410 . S
C810 C811 1.392 . S
C810 C813 1.511 . S
C811 C807 1.376 . S
C811 C810 1.392 . S
C811 H823 0.929 . S
C812 C808 1.531 . S
C812 H824 0.960 . S
C812 H825 0.962 . S
C812 H826 0.960 . S
C813 C810 1.511 . S
C813 H827 0.961 . S
C813 H828 0.961 . S
C813 H829 0.961 . S
C814 C815 1.370 . S
C814 C816 1.363 . S
C814 H830 0.931 . S
C815 C814 1.370 . S
C815 C819 1.408 . S
C816 C814 1.363 . S
C816 C817 1.370 . S
C816 C820 1.524 . S
C817 C809 1.503 . S
C817 C816 1.370 . S
C817 C818 1.403 . S
C818 C817 1.403 . S
C818 C819 1.404 . S
C818 C821 1.539 . S
C819 C815 1.408 . S
C819 C818 1.404 . S
C819 H831 0.930 . S
C820 C816 1.524 . S
C820 H832 0.956 . S
C820 H833 0.961 . S
C820 H834 0.961 . S
C821 C818 1.539 . S
C821 H835 0.958 . S
C821 H836 0.961 . S
C821 H837 0.960 . S
H822 C806 0.931 . S
H823 C811 0.929 . S
H824 C812 0.960 . S
H825 C812 0.962 . S
H826 C812 0.960 . S
H827 C813 0.961 . S
H828 C813 0.961 . S
H829 C813 0.961 . S
H830 C814 0.931 . S
H831 C819 0.930 . S
H832 C820 0.956 . S
H833 C820 0.961 . S
H834 C820 0.961 . S
H835 C821 0.958 . S
H836 C821 0.961 . S
H837 C821 0.960 . S
C838 C839 1.391 . S
C838 C840 1.394 . S
C838 H854 0.931 . S
C839 C838 1.391 . S
C839 C843 1.376 . S
C840 C838 1.394 . S
C840 C841 1.369 . S
C840 C844 1.531 . S
C841 C840 1.369 . S
C841 C842 1.410 . S
C841 C849 1.503 . S
C842 C841 1.410 . S
C842 C843 1.392 . S
C842 C845 1.511 . S
C843 C839 1.376 . S
C843 C842 1.392 . S
C843 H855 0.929 . S
C844 C840 1.531 . S
C844 H856 0.960 . S
C844 H857 0.962 . S
C844 H858 0.960 . S
C845 C842 1.511 . S
C845 H859 0.961 . S
C845 H860 0.961 . S
C845 H861 0.961 . S
C846 C847 1.370 . S
C846 C848 1.363 . S
C846 H862 0.931 . S
C847 C846 1.370 . S
C847 C851 1.408 . S
C848 C846 1.363 . S
C848 C849 1.370 . S
C848 C852 1.524 . S
C849 C841 1.503 . S
C849 C848 1.370 . S
C849 C850 1.403 . S
C850 C849 1.403 . S
C850 C851 1.404 . S
C850 C853 1.539 . S
C851 C847 1.408 . S
C851 C850 1.404 . S
C851 H863 0.930 . S
C852 C848 1.524 . S
C852 H864 0.956 . S
C852 H865 0.961 . S
C852 H866 0.961 . S
C853 C850 1.539 . S
C853 H867 0.958 . S
C853 H868 0.961 . S
C853 H869 0.960 . S
H854 C838 0.931 . S
H855 C843 0.929 . S
H856 C844 0.960 . S
H857 C844 0.962 . S
H858 C844 0.960 . S
H859 C845 0.961 . S
H860 C845 0.961 . S
H861 C845 0.961 . S
H862 C846 0.931 . S
H863 C851 0.930 . S
H864 C852 0.956 . S
H865 C852 0.961 . S
H866 C852 0.961 . S
H867 C853 0.958 . S
H868 C853 0.961 . S
H869 C853 0.960 . S
C870 C871 1.391 . S
C870 C872 1.394 . S
C870 H886 0.931 . S
C871 C870 1.391 . S
C871 C875 1.376 . S
C872 C870 1.394 . S
C872 C873 1.369 . S
C872 C876 1.531 . S
C873 C872 1.369 . S
C873 C874 1.410 . S
C873 C881 1.503 . S
C874 C873 1.410 . S
C874 C875 1.392 . S
C874 C877 1.511 . S
C875 C871 1.376 . S
C875 C874 1.392 . S
C875 H887 0.929 . S
C876 C872 1.531 . S
C876 H888 0.960 . S
C876 H889 0.962 . S
C876 H890 0.960 . S
C877 C874 1.511 . S
C877 H891 0.961 . S
C877 H892 0.961 . S
C877 H893 0.961 . S
C878 C879 1.370 . S
C878 C880 1.363 . S
C878 H894 0.931 . S
C879 C878 1.370 . S
C879 C883 1.408 . S
C880 C878 1.363 . S
C880 C881 1.370 . S
C880 C884 1.524 . S
C881 C873 1.503 . S
C881 C880 1.370 . S
C881 C882 1.403 . S
C882 C881 1.403 . S
C882 C883 1.404 . S
C882 C885 1.539 . S
C883 C879 1.408 . S
C883 C882 1.404 . S
C883 H895 0.930 . S
C884 C880 1.524 . S
C884 H896 0.956 . S
C884 H897 0.961 . S
C884 H898 0.961 . S
C885 C882 1.539 . S
C885 H899 0.958 . S
C885 H900 0.961 . S
C885 H901 0.960 . S
H886 C870 0.931 . S
H887 C875 0.929 . S
H888 C876 0.960 . S
H889 C876 0.962 . S
H890 C876 0.960 . S
H891 C877 0.961 . S
H892 C877 0.961 . S
H893 C877 0.961 . S
H894 C878 0.931 . S
H895 C883 0.930 . S
H896 C884 0.956 . S
H897 C884 0.961 . S
H898 C884 0.961 . S
H899 C885 0.958 . S
H900 C885 0.961 . S
H901 C885 0.960 . S
C902 C903 1.391 . S
C902 C904 1.394 . S
C902 H918 0.931 . S
C903 C902 1.391 . S
C903 C907 1.376 . S
C904 C902 1.394 . S
C904 C905 1.369 . S
C904 C908 1.531 . S
C905 C904 1.369 . S
C905 C906 1.410 . S
C905 C913 1.503 . S
C906 C905 1.410 . S
C906 C907 1.392 . S
C906 C909 1.511 . S
C907 C903 1.376 . S
C907 C906 1.392 . S
C907 H919 0.929 . S
C908 C904 1.531 . S
C908 H920 0.960 . S
C908 H921 0.962 . S
C908 H922 0.960 . S
C909 C906 1.511 . S
C909 H923 0.961 . S
C909 H924 0.961 . S
C909 H925 0.961 . S
C910 C911 1.370 . S
C910 C912 1.363 . S
C910 H926 0.931 . S
C911 C910 1.370 . S
C911 C915 1.408 . S
C912 C910 1.363 . S
C912 C913 1.370 . S
C912 C916 1.524 . S
C913 C905 1.503 . S
C913 C912 1.370 . S
C913 C914 1.403 . S
C914 C913 1.403 . S
C914 C915 1.404 . S
C914 C917 1.539 . S
C915 C911 1.408 . S
C915 C914 1.404 . S
C915 H927 0.930 . S
C916 C912 1.524 . S
C916 H928 0.956 . S
C916 H929 0.961 . S
C916 H930 0.961 . S
C917 C914 1.539 . S
C917 H931 0.958 . S
C917 H932 0.961 . S
C917 H933 0.960 . S
H918 C902 0.931 . S
H919 C907 0.929 . S
H920 C908 0.960 . S
H921 C908 0.962 . S
H922 C908 0.960 . S
H923 C909 0.961 . S
H924 C909 0.961 . S
H925 C909 0.961 . S
H926 C910 0.931 . S
H927 C915 0.930 . S
H928 C916 0.956 . S
H929 C916 0.961 . S
H930 C916 0.961 . S
H931 C917 0.958 . S
H932 C917 0.961 . S
H933 C917 0.960 . S
C934 C935 1.391 . S
C934 C936 1.394 . S
C934 H950 0.931 . S
C935 C934 1.391 . S
C935 C939 1.376 . S
C936 C934 1.394 . S
C936 C937 1.369 . S
C936 C940 1.531 . S
C937 C936 1.369 . S
C937 C938 1.410 . S
C937 C945 1.503 . S
C938 C937 1.410 . S
C938 C939 1.392 . S
C938 C941 1.511 1_556 S
C939 C935 1.376 . S
C939 C938 1.392 . S
C939 H951 0.929 . S
C940 C936 1.531 . S
C940 H952 0.960 . S
C940 H953 0.962 . S
C940 H954 0.960 . S
C941 C938 1.511 1_554 S
C941 H955 0.961 . S
C941 H956 0.961 . S
C941 H957 0.961 . S
C942 C943 1.370 1_556 S
C942 C944 1.364 . S
C942 H958 0.931 1_556 S
C943 C942 1.370 1_554 S
C943 C947 1.408 1_554 S
C944 C942 1.364 . S
C944 C945 1.370 . S
C944 C948 1.524 . S
C945 C937 1.503 . S
C945 C944 1.370 . S
C945 C946 1.403 . S
C946 C945 1.403 . S
C946 C947 1.404 . S
C946 C949 1.539 . S
C947 C943 1.408 1_556 S
C947 C946 1.404 . S
C947 H959 0.930 . S
C948 C944 1.524 . S
C948 H960 0.956 . S
C948 H961 0.961 . S
C948 H962 0.961 . S
C949 C946 1.539 . S
C949 H963 0.958 . S
C949 H964 0.961 . S
C949 H965 0.960 . S
H950 C934 0.931 . S
H951 C939 0.929 . S
H952 C940 0.960 . S
H953 C940 0.962 . S
H954 C940 0.960 . S
H955 C941 0.961 . S
H956 C941 0.961 . S
H957 C941 0.961 . S
H958 C942 0.931 1_554 S
H959 C947 0.930 . S
H960 C948 0.956 . S
H961 C948 0.961 . S
H962 C948 0.961 . S
H963 C949 0.958 . S
H964 C949 0.961 . S
H965 C949 0.960 . S
C966 C967 1.391 . S
C966 C968 1.394 . S
C966 H982 0.931 . S
C967 C966 1.391 . S
C967 C971 1.376 . S
C968 C966 1.394 . S
C968 C969 1.369 . S
C968 C972 1.531 . S
C969 C968 1.369 . S
C969 C970 1.410 . S
C969 C977 1.503 . S
C970 C969 1.410 . S
C970 C971 1.392 . S
C970 C973 1.511 . S
C971 C967 1.376 . S
C971 C970 1.392 . S
C971 H983 0.929 . S
C972 C968 1.531 . S
C972 H984 0.960 . S
C972 H985 0.962 . S
C972 H986 0.960 . S
C973 C970 1.511 . S
C973 H987 0.961 . S
C973 H988 0.961 . S
C973 H989 0.961 . S
C974 C975 1.370 . S
C974 C976 1.363 . S
C974 H990 0.931 . S
C975 C974 1.370 . S
C975 C979 1.408 . S
C976 C974 1.363 . S
C976 C977 1.370 . S
C976 C980 1.524 . S
C977 C969 1.503 . S
C977 C976 1.370 . S
C977 C978 1.403 . S
C978 C977 1.403 . S
C978 C979 1.404 . S
C978 C981 1.539 . S
C979 C975 1.408 . S
C979 C978 1.404 . S
C979 H991 0.930 . S
C980 C976 1.524 . S
C980 H992 0.956 . S
C980 H993 0.961 . S
C980 H994 0.961 1_556 S
C981 C978 1.539 . S
C981 H995 0.958 . S
C981 H996 0.961 . S
C981 H997 0.960 . S
H982 C966 0.931 . S
H983 C971 0.929 . S
H984 C972 0.960 . S
H985 C972 0.962 . S
H986 C972 0.960 . S
H987 C973 0.961 . S
H988 C973 0.961 . S
H989 C973 0.961 . S
H990 C974 0.931 . S
H991 C979 0.930 . S
H992 C980 0.956 . S
H993 C980 0.961 . S
H994 C980 0.961 1_554 S
H995 C981 0.958 . S
H996 C981 0.961 . S
H997 C981 0.960 . S
C998 C999 1.391 . S
C998 C1000 1.394 . S
C998 H1014 0.931 . S
C999 C998 1.391 . S
C999 C1003 1.376 . S
C1000 C998 1.394 . S
C1000 C1001 1.369 . S
C1000 C1004 1.531 . S
C1001 C1000 1.369 . S
C1001 C1002 1.410 . S
C1001 C1009 1.503 . S
C1002 C1001 1.410 . S
C1002 C1003 1.392 . S
C1002 C1005 1.511 . S
C1003 C999 1.376 . S
C1003 C1002 1.392 . S
C1003 H1015 0.929 . S
C1004 C1000 1.531 . S
C1004 H1016 0.960 . S
C1004 H1017 0.962 . S
C1004 H1018 0.960 . S
C1005 C1002 1.511 . S
C1005 H1019 0.961 . S
C1005 H1020 0.961 . S
C1005 H1021 0.961 . S
C1006 C1007 1.370 . S
C1006 C1008 1.363 . S
C1006 H1022 0.931 . S
C1007 C1006 1.370 . S
C1007 C1011 1.408 . S
C1008 C1006 1.363 . S
C1008 C1009 1.370 . S
C1008 C1012 1.524 . S
C1009 C1001 1.503 . S
C1009 C1008 1.370 . S
C1009 C1010 1.403 . S
C1010 C1009 1.403 . S
C1010 C1011 1.404 . S
C1010 C1013 1.539 . S
C1011 C1007 1.408 . S
C1011 C1010 1.404 . S
C1011 H1023 0.930 . S
C1012 C1008 1.524 . S
C1012 H1024 0.956 . S
C1012 H1025 0.961 . S
C1012 H1026 0.961 . S
C1013 C1010 1.539 . S
C1013 H1027 0.958 . S
C1013 H1028 0.961 . S
C1013 H1029 0.960 . S
H1014 C998 0.931 . S
H1015 C1003 0.929 . S
H1016 C1004 0.960 . S
H1017 C1004 0.962 . S
H1018 C1004 0.960 . S
H1019 C1005 0.961 . S
H1020 C1005 0.961 . S
H1021 C1005 0.961 . S
H1022 C1006 0.931 . S
H1023 C1011 0.930 . S
H1024 C1012 0.956 . S
H1025 C1012 0.961 . S
H1026 C1012 0.961 . S
H1027 C1013 0.958 . S
H1028 C1013 0.961 . S
H1029 C1013 0.960 . S
C1030 C1031 1.391 . S
C1030 C1032 1.394 . S
C1030 H1046 0.931 . S
C1031 C1030 1.391 . S
C1031 C1035 1.376 . S
C1032 C1030 1.394 . S
C1032 C1033 1.369 . S
C1032 C1036 1.531 . S
C1033 C1032 1.369 . S
C1033 C1034 1.410 . S
C1033 C1041 1.503 . S
C1034 C1033 1.410 . S
C1034 C1035 1.392 . S
C1034 C1037 1.511 . S
C1035 C1031 1.376 . S
C1035 C1034 1.392 . S
C1035 H1047 0.929 . S
C1036 C1032 1.531 . S
C1036 H1048 0.960 . S
C1036 H1049 0.962 . S
C1036 H1050 0.960 . S
C1037 C1034 1.511 . S
C1037 H1051 0.961 . S
C1037 H1052 0.961 . S
C1037 H1053 0.961 . S
C1038 C1039 1.370 . S
C1038 C1040 1.363 . S
C1038 H1054 0.931 . S
C1039 C1038 1.370 . S
C1039 C1043 1.408 . S
C1040 C1038 1.363 . S
C1040 C1041 1.370 . S
C1040 C1044 1.524 . S
C1041 C1033 1.503 . S
C1041 C1040 1.370 . S
C1041 C1042 1.403 . S
C1042 C1041 1.403 . S
C1042 C1043 1.404 . S
C1042 C1045 1.539 . S
C1043 C1039 1.408 . S
C1043 C1042 1.404 . S
C1043 H1055 0.930 . S
C1044 C1040 1.524 . S
C1044 H1056 0.956 . S
C1044 H1057 0.961 . S
C1044 H1058 0.961 . S
C1045 C1042 1.539 . S
C1045 H1059 0.958 . S
C1045 H1060 0.961 . S
C1045 H1061 0.960 . S
H1046 C1030 0.931 . S
H1047 C1035 0.929 . S
H1048 C1036 0.960 . S
H1049 C1036 0.962 . S
H1050 C1036 0.960 . S
H1051 C1037 0.961 . S
H1052 C1037 0.961 . S
H1053 C1037 0.961 . S
H1054 C1038 0.931 . S
H1055 C1043 0.930 . S
H1056 C1044 0.956 . S
H1057 C1044 0.961 . S
H1058 C1044 0.961 . S
H1059 C1045 0.958 . S
H1060 C1045 0.961 . S
H1061 C1045 0.960 . S
C1062 C1063 1.391 . S
C1062 C1064 1.394 . S
C1062 H1078 0.931 . S
C1063 C1062 1.391 . S
C1063 C1067 1.376 . S
C1064 C1062 1.394 . S
C1064 C1065 1.369 . S
C1064 C1068 1.531 . S
C1065 C1064 1.369 . S
C1065 C1066 1.410 . S
C1065 C1073 1.503 . S
C1066 C1065 1.410 . S
C1066 C1067 1.392 . S
C1066 C1069 1.511 1_556 S
C1067 C1063 1.376 . S
C1067 C1066 1.392 . S
C1067 H1079 0.929 . S
C1068 C1064 1.531 . S
C1068 H1080 0.960 . S
C1068 H1081 0.962 . S
C1068 H1082 0.960 . S
C1069 C1066 1.511 1_554 S
C1069 H1083 0.961 . S
C1069 H1084 0.961 . S
C1069 H1085 0.961 1_554 S
C1070 C1071 1.370 . S
C1070 C1072 1.363 . S
C1070 H1086 0.931 . S
C1071 C1070 1.370 . S
C1071 C1075 1.408 1_554 S
C1072 C1070 1.363 . S
C1072 C1073 1.370 1_554 S
C1072 C1076 1.524 . S
C1073 C1065 1.503 . S
C1073 C1072 1.370 1_556 S
C1073 C1074 1.403 . S
C1074 C1073 1.403 . S
C1074 C1075 1.404 . S
C1074 C1077 1.539 . S
C1075 C1071 1.408 1_556 S
C1075 C1074 1.404 . S
C1075 H1087 0.930 . S
C1076 C1072 1.524 . S
C1076 H1088 0.956 . S
C1076 H1089 0.961 . S
C1076 H1090 0.961 . S
C1077 C1074 1.539 . S
C1077 H1091 0.958 . S
C1077 H1092 0.961 . S
C1077 H1093 0.960 . S
H1078 C1062 0.931 . S
H1079 C1067 0.929 . S
H1080 C1068 0.960 . S
H1081 C1068 0.962 . S
H1082 C1068 0.960 . S
H1083 C1069 0.961 . S
H1084 C1069 0.961 . S
H1085 C1069 0.961 1_556 S
H1086 C1070 0.931 . S
H1087 C1075 0.930 . S
H1088 C1076 0.956 . S
H1089 C1076 0.961 . S
H1090 C1076 0.961 . S
H1091 C1077 0.958 . S
H1092 C1077 0.961 . S
H1093 C1077 0.960 . S
C1094 C1095 1.391 . S
C1094 C1096 1.394 . S
C1094 H1110 0.931 . S
C1095 C1094 1.391 . S
C1095 C1099 1.376 . S
C1096 C1094 1.394 . S
C1096 C1097 1.369 . S
C1096 C1100 1.531 . S
C1097 C1096 1.369 . S
C1097 C1098 1.410 . S
C1097 C1105 1.503 . S
C1098 C1097 1.410 . S
C1098 C1099 1.392 . S
C1098 C1101 1.511 . S
C1099 C1095 1.376 . S
C1099 C1098 1.392 . S
C1099 H1111 0.929 . S
C1100 C1096 1.531 . S
C1100 H1112 0.960 . S
C1100 H1113 0.962 . S
C1100 H1114 0.960 . S
C1101 C1098 1.511 . S
C1101 H1115 0.961 . S
C1101 H1116 0.961 . S
C1101 H1117 0.961 . S
C1102 C1103 1.370 . S
C1102 C1104 1.363 . S
C1102 H1118 0.931 . S
C1103 C1102 1.370 . S
C1103 C1107 1.408 . S
C1104 C1102 1.363 . S
C1104 C1105 1.370 . S
C1104 C1108 1.524 . S
C1105 C1097 1.503 . S
C1105 C1104 1.370 . S
C1105 C1106 1.403 . S
C1106 C1105 1.403 . S
C1106 C1107 1.404 . S
C1106 C1109 1.539 . S
C1107 C1103 1.408 . S
C1107 C1106 1.404 . S
C1107 H1119 0.930 . S
C1108 C1104 1.524 . S
C1108 H1120 0.956 . S
C1108 H1121 0.961 . S
C1108 H1122 0.961 . S
C1109 C1106 1.539 . S
C1109 H1123 0.958 . S
C1109 H1124 0.961 . S
C1109 H1125 0.960 . S
H1110 C1094 0.931 . S
H1111 C1099 0.929 . S
H1112 C1100 0.960 . S
H1113 C1100 0.962 . S
H1114 C1100 0.960 . S
H1115 C1101 0.961 . S
H1116 C1101 0.961 . S
H1117 C1101 0.961 . S
H1118 C1102 0.931 . S
H1119 C1107 0.930 . S
H1120 C1108 0.956 . S
H1121 C1108 0.961 . S
H1122 C1108 0.961 . S
H1123 C1109 0.958 . S
H1124 C1109 0.961 . S
H1125 C1109 0.960 . S
C1126 C1127 1.391 . S
C1126 C1128 1.394 . S
C1126 H1142 0.931 . S
C1127 C1126 1.391 . S
C1127 C1131 1.376 . S
C1128 C1126 1.394 . S
C1128 C1129 1.369 . S
C1128 C1132 1.531 . S
C1129 C1128 1.369 . S
C1129 C1130 1.410 . S
C1129 C1137 1.503 . S
C1130 C1129 1.410 . S
C1130 C1131 1.392 . S
C1130 C1133 1.511 . S
C1131 C1127 1.376 . S
C1131 C1130 1.392 . S
C1131 H1143 0.929 . S
C1132 C1128 1.531 . S
C1132 H1144 0.960 . S
C1132 H1145 0.962 . S
C1132 H1146 0.960 . S
C1133 C1130 1.511 . S
C1133 H1147 0.961 . S
C1133 H1148 0.961 . S
C1133 H1149 0.961 . S
C1134 C1135 1.370 1_554 S
C1134 C1136 1.363 1_554 S
C1134 H1150 0.931 . S
C1135 C1134 1.370 1_556 S
C1135 C1139 1.408 . S
C1136 C1134 1.363 1_556 S
C1136 C1137 1.370 . S
C1136 C1140 1.524 1_556 S
C1137 C1129 1.503 . S
C1137 C1136 1.370 . S
C1137 C1138 1.403 . S
C1138 C1137 1.403 . S
C1138 C1139 1.404 . S
C1138 C1141 1.539 . S
C1139 C1135 1.408 . S
C1139 C1138 1.404 . S
C1139 H1151 0.930 . S
C1140 C1136 1.524 1_554 S
C1140 H1152 0.956 . S
C1140 H1153 0.961 1_554 S
C1140 H1154 0.961 . S
C1141 C1138 1.539 . S
C1141 H1155 0.958 . S
C1141 H1156 0.961 . S
C1141 H1157 0.960 . S
H1142 C1126 0.931 . S
H1143 C1131 0.929 . S
H1144 C1132 0.960 . S
H1145 C1132 0.962 . S
H1146 C1132 0.960 . S
H1147 C1133 0.961 . S
H1148 C1133 0.961 . S
H1149 C1133 0.961 . S
H1150 C1134 0.931 . S
H1151 C1139 0.930 . S
H1152 C1140 0.956 . S
H1153 C1140 0.961 1_556 S
H1154 C1140 0.961 . S
H1155 C1141 0.958 . S
H1156 C1141 0.961 . S
H1157 C1141 0.960 . S
C1158 C1159 1.391 . S
C1158 C1160 1.394 . S
C1158 H1174 0.931 . S
C1159 C1158 1.391 . S
C1159 C1163 1.376 . S
C1160 C1158 1.394 . S
C1160 C1161 1.369 . S
C1160 C1164 1.531 . S
C1161 C1160 1.369 . S
C1161 C1162 1.410 . S
C1161 C1169 1.503 . S
C1162 C1161 1.410 . S
C1162 C1163 1.392 . S
C1162 C1165 1.511 . S
C1163 C1159 1.376 . S
C1163 C1162 1.392 . S
C1163 H1175 0.929 . S
C1164 C1160 1.531 . S
C1164 H1176 0.960 . S
C1164 H1177 0.962 . S
C1164 H1178 0.960 . S
C1165 C1162 1.511 . S
C1165 H1179 0.961 . S
C1165 H1180 0.961 . S
C1165 H1181 0.961 . S
C1166 C1167 1.370 . S
C1166 C1168 1.363 . S
C1166 H1182 0.931 . S
C1167 C1166 1.370 . S
C1167 C1171 1.408 . S
C1168 C1166 1.363 . S
C1168 C1169 1.370 . S
C1168 C1172 1.524 . S
C1169 C1161 1.503 . S
C1169 C1168 1.370 . S
C1169 C1170 1.403 . S
C1170 C1169 1.403 . S
C1170 C1171 1.404 . S
C1170 C1173 1.539 . S
C1171 C1167 1.408 . S
C1171 C1170 1.404 . S
C1171 H1183 0.930 . S
C1172 C1168 1.524 . S
C1172 H1184 0.956 . S
C1172 H1185 0.961 . S
C1172 H1186 0.961 . S
C1173 C1170 1.539 . S
C1173 H1187 0.958 1_556 S
C1173 H1188 0.961 1_556 S
C1173 H1189 0.960 . S
H1174 C1158 0.931 . S
H1175 C1163 0.929 . S
H1176 C1164 0.960 . S
H1177 C1164 0.962 . S
H1178 C1164 0.960 . S
H1179 C1165 0.961 . S
H1180 C1165 0.961 . S
H1181 C1165 0.961 . S
H1182 C1166 0.931 . S
H1183 C1171 0.930 . S
H1184 C1172 0.956 . S
H1185 C1172 0.961 . S
H1186 C1172 0.961 . S
H1187 C1173 0.958 1_554 S
H1188 C1173 0.961 1_554 S
H1189 C1173 0.960 . S
C1190 C1191 1.391 . S
C1190 C1192 1.394 . S
C1190 H1206 0.931 . S
C1191 C1190 1.391 . S
C1191 C1195 1.376 . S
C1192 C1190 1.394 . S
C1192 C1193 1.369 . S
C1192 C1196 1.531 . S
C1193 C1192 1.369 . S
C1193 C1194 1.410 . S
C1193 C1201 1.503 . S
C1194 C1193 1.410 . S
C1194 C1195 1.392 . S
C1194 C1197 1.511 . S
C1195 C1191 1.376 . S
C1195 C1194 1.392 . S
C1195 H1207 0.929 . S
C1196 C1192 1.531 . S
C1196 H1208 0.960 . S
C1196 H1209 0.962 . S
C1196 H1210 0.960 . S
C1197 C1194 1.511 . S
C1197 H1211 0.961 . S
C1197 H1212 0.961 . S
C1197 H1213 0.961 . S
C1198 C1199 1.370 . S
C1198 C1200 1.363 . S
C1198 H1214 0.931 . S
C1199 C1198 1.370 . S
C1199 C1203 1.408 . S
C1200 C1198 1.363 . S
C1200 C1201 1.370 . S
C1200 C1204 1.524 . S
C1201 C1193 1.503 . S
C1201 C1200 1.370 . S
C1201 C1202 1.403 . S
C1202 C1201 1.403 . S
C1202 C1203 1.404 . S
C1202 C1205 1.539 . S
C1203 C1199 1.408 . S
C1203 C1202 1.404 . S
C1203 H1215 0.930 . S
C1204 C1200 1.524 . S
C1204 H1216 0.956 . S
C1204 H1217 0.961 . S
C1204 H1218 0.961 . S
C1205 C1202 1.539 . S
C1205 H1219 0.958 . S
C1205 H1220 0.961 . S
C1205 H1221 0.960 . S
H1206 C1190 0.931 . S
H1207 C1195 0.929 . S
H1208 C1196 0.960 . S
H1209 C1196 0.962 . S
H1210 C1196 0.960 . S
H1211 C1197 0.961 . S
H1212 C1197 0.961 . S
H1213 C1197 0.961 . S
H1214 C1198 0.931 . S
H1215 C1203 0.930 . S
H1216 C1204 0.956 . S
H1217 C1204 0.961 . S
H1218 C1204 0.961 . S
H1219 C1205 0.958 . S
H1220 C1205 0.961 . S
H1221 C1205 0.960 . S
C1222 C1223 1.391 . S
C1222 C1224 1.394 . S
C1222 H1238 0.931 . S
C1223 C1222 1.391 . S
C1223 C1227 1.376 . S
C1224 C1222 1.394 . S
C1224 C1225 1.369 . S
C1224 C1228 1.531 . S
C1225 C1224 1.369 . S
C1225 C1226 1.410 . S
C1225 C1233 1.503 . S
C1226 C1225 1.410 . S
C1226 C1227 1.392 . S
C1226 C1229 1.511 . S
C1227 C1223 1.376 . S
C1227 C1226 1.392 . S
C1227 H1239 0.929 . S
C1228 C1224 1.531 . S
C1228 H1240 0.960 . S
C1228 H1241 0.962 . S
C1228 H1242 0.960 . S
C1229 C1226 1.511 . S
C1229 H1243 0.961 . S
C1229 H1244 0.961 . S
C1229 H1245 0.961 . S
C1230 C1231 1.370 . S
C1230 C1232 1.363 . S
C1230 H1246 0.931 . S
C1231 C1230 1.370 . S
C1231 C1235 1.408 . S
C1232 C1230 1.363 . S
C1232 C1233 1.370 . S
C1232 C1236 1.524 . S
C1233 C1225 1.503 . S
C1233 C1232 1.370 . S
C1233 C1234 1.403 . S
C1234 C1233 1.403 . S
C1234 C1235 1.404 . S
C1234 C1237 1.539 . S
C1235 C1231 1.408 . S
C1235 C1234 1.404 . S
C1235 H1247 0.930 . S
C1236 C1232 1.524 . S
C1236 H1248 0.956 . S
C1236 H1249 0.961 . S
C1236 H1250 0.961 . S
C1237 C1234 1.539 . S
C1237 H1251 0.958 . S
C1237 H1252 0.961 . S
C1237 H1253 0.960 . S
H1238 C1222 0.931 . S
H1239 C1227 0.929 . S
H1240 C1228 0.960 . S
H1241 C1228 0.962 . S
H1242 C1228 0.960 . S
H1243 C1229 0.961 . S
H1244 C1229 0.961 . S
H1245 C1229 0.961 . S
H1246 C1230 0.931 . S
H1247 C1235 0.930 . S
H1248 C1236 0.956 . S
H1249 C1236 0.961 . S
H1250 C1236 0.961 . S
H1251 C1237 0.958 . S
H1252 C1237 0.961 . S
H1253 C1237 0.960 . S
C1254 C1255 1.391 . S
C1254 C1256 1.394 . S
C1254 H1270 0.931 . S
C1255 C1254 1.391 . S
C1255 C1259 1.376 . S
C1256 C1254 1.394 . S
C1256 C1257 1.369 . S
C1256 C1260 1.531 . S
C1257 C1256 1.369 . S
C1257 C1258 1.410 . S
C1257 C1265 1.503 . S
C1258 C1257 1.410 . S
C1258 C1259 1.392 . S
C1258 C1261 1.511 . S
C1259 C1255 1.376 . S
C1259 C1258 1.392 . S
C1259 H1271 0.929 . S
C1260 C1256 1.531 . S
C1260 H1272 0.960 . S
C1260 H1273 0.962 . S
C1260 H1274 0.960 . S
C1261 C1258 1.511 . S
C1261 H1275 0.961 . S
C1261 H1276 0.961 . S
C1261 H1277 0.961 . S
C1262 C1263 1.370 . S
C1262 C1264 1.363 . S
C1262 H1278 0.931 . S
C1263 C1262 1.370 . S
C1263 C1267 1.408 . S
C1264 C1262 1.363 . S
C1264 C1265 1.370 . S
C1264 C1268 1.524 . S
C1265 C1257 1.503 . S
C1265 C1264 1.370 . S
C1265 C1266 1.403 . S
C1266 C1265 1.403 . S
C1266 C1267 1.404 . S
C1266 C1269 1.539 . S
C1267 C1263 1.408 . S
C1267 C1266 1.404 . S
C1267 H1279 0.930 . S
C1268 C1264 1.524 . S
C1268 H1280 0.956 . S
C1268 H1281 0.961 . S
C1268 H1282 0.961 . S
C1269 C1266 1.539 . S
C1269 H1283 0.958 . S
C1269 H1284 0.961 . S
C1269 H1285 0.960 . S
H1270 C1254 0.931 . S
H1271 C1259 0.929 . S
H1272 C1260 0.960 . S
H1273 C1260 0.962 . S
H1274 C1260 0.960 . S
H1275 C1261 0.961 . S
H1276 C1261 0.961 . S
H1277 C1261 0.961 . S
H1278 C1262 0.931 . S
H1279 C1267 0.930 . S
H1280 C1268 0.956 . S
H1281 C1268 0.961 . S
H1282 C1268 0.961 . S
H1283 C1269 0.958 . S
H1284 C1269 0.961 . S
H1285 C1269 0.960 . S
C1286 C1287 1.391 . S
C1286 C1288 1.394 . S
C1286 H1302 0.931 . S
C1287 C1286 1.391 . S
C1287 C1291 1.376 . S
C1288 C1286 1.394 . S
C1288 C1289 1.369 . S
C1288 C1292 1.531 . S
C1289 C1288 1.369 . S
C1289 C1290 1.410 . S
C1289 C1297 1.503 . S
C1290 C1289 1.410 . S
C1290 C1291 1.392 . S
C1290 C1293 1.511 . S
C1291 C1287 1.376 . S
C1291 C1290 1.392 . S
C1291 H1303 0.929 . S
C1292 C1288 1.531 . S
C1292 H1304 0.960 . S
C1292 H1305 0.962 . S
C1292 H1306 0.960 . S
C1293 C1290 1.511 . S
C1293 H1307 0.961 . S
C1293 H1308 0.961 . S
C1293 H1309 0.961 . S
C1294 C1295 1.370 . S
C1294 C1296 1.363 . S
C1294 H1310 0.931 . S
C1295 C1294 1.370 . S
C1295 C1299 1.408 . S
C1296 C1294 1.363 . S
C1296 C1297 1.370 . S
C1296 C1300 1.524 . S
C1297 C1289 1.503 . S
C1297 C1296 1.370 . S
C1297 C1298 1.403 . S
C1298 C1297 1.403 . S
C1298 C1299 1.404 . S
C1298 C1301 1.539 . S
C1299 C1295 1.408 . S
C1299 C1298 1.404 . S
C1299 H1311 0.930 . S
C1300 C1296 1.524 . S
C1300 H1312 0.956 . S
C1300 H1313 0.961 . S
C1300 H1314 0.961 . S
C1301 C1298 1.539 . S
C1301 H1315 0.958 . S
C1301 H1316 0.961 . S
C1301 H1317 0.960 . S
H1302 C1286 0.931 . S
H1303 C1291 0.929 . S
H1304 C1292 0.960 . S
H1305 C1292 0.962 . S
H1306 C1292 0.960 . S
H1307 C1293 0.961 . S
H1308 C1293 0.961 . S
H1309 C1293 0.961 . S
H1310 C1294 0.931 . S
H1311 C1299 0.930 . S
H1312 C1300 0.956 . S
H1313 C1300 0.961 . S
H1314 C1300 0.961 . S
H1315 C1301 0.958 . S
H1316 C1301 0.961 . S
H1317 C1301 0.960 . S
C1318 C1319 1.391 . S
C1318 C1320 1.394 . S
C1318 H1334 0.931 . S
C1319 C1318 1.391 . S
C1319 C1323 1.376 . S
C1320 C1318 1.394 . S
C1320 C1321 1.369 . S
C1320 C1324 1.531 . S
C1321 C1320 1.369 . S
C1321 C1322 1.410 . S
C1321 C1329 1.503 . S
C1322 C1321 1.410 . S
C1322 C1323 1.392 . S
C1322 C1325 1.511 . S
C1323 C1319 1.376 . S
C1323 C1322 1.392 . S
C1323 H1335 0.929 . S
C1324 C1320 1.531 . S
C1324 H1336 0.960 . S
C1324 H1337 0.962 . S
C1324 H1338 0.960 . S
C1325 C1322 1.511 . S
C1325 H1339 0.961 . S
C1325 H1340 0.961 . S
C1325 H1341 0.961 . S
C1326 C1327 1.370 . S
C1326 C1328 1.363 . S
C1326 H1342 0.931 . S
C1327 C1326 1.370 . S
C1327 C1331 1.408 . S
C1328 C1326 1.363 . S
C1328 C1329 1.370 . S
C1328 C1332 1.524 . S
C1329 C1321 1.503 . S
C1329 C1328 1.370 . S
C1329 C1330 1.403 . S
C1330 C1329 1.403 . S
C1330 C1331 1.404 . S
C1330 C1333 1.539 . S
C1331 C1327 1.408 . S
C1331 C1330 1.404 . S
C1331 H1343 0.930 . S
C1332 C1328 1.524 . S
C1332 H1344 0.956 . S
C1332 H1345 0.961 . S
C1332 H1346 0.961 . S
C1333 C1330 1.539 . S
C1333 H1347 0.958 . S
C1333 H1348 0.961 1_556 S
C1333 H1349 0.960 . S
H1334 C1318 0.931 . S
H1335 C1323 0.929 . S
H1336 C1324 0.960 . S
H1337 C1324 0.962 . S
H1338 C1324 0.960 . S
H1339 C1325 0.961 . S
H1340 C1325 0.961 . S
H1341 C1325 0.961 . S
H1342 C1326 0.931 . S
H1343 C1331 0.930 . S
H1344 C1332 0.956 . S
H1345 C1332 0.961 . S
H1346 C1332 0.961 . S
H1347 C1333 0.958 . S
H1348 C1333 0.961 1_554 S
H1349 C1333 0.960 . S
C1350 C1351 1.391 . S
C1350 C1352 1.394 . S
C1350 H1366 0.931 . S
C1351 C1350 1.391 . S
C1351 C1355 1.376 . S
C1352 C1350 1.394 . S
C1352 C1353 1.369 . S
C1352 C1356 1.531 . S
C1353 C1352 1.369 . S
C1353 C1354 1.410 . S
C1353 C1361 1.503 . S
C1354 C1353 1.410 . S
C1354 C1355 1.392 . S
C1354 C1357 1.511 . S
C1355 C1351 1.376 . S
C1355 C1354 1.392 . S
C1355 H1367 0.929 . S
C1356 C1352 1.531 . S
C1356 H1368 0.960 . S
C1356 H1369 0.962 . S
C1356 H1370 0.960 . S
C1357 C1354 1.511 . S
C1357 H1371 0.961 . S
C1357 H1372 0.961 . S
C1357 H1373 0.961 . S
C1358 C1359 1.370 . S
C1358 C1360 1.363 . S
C1358 H1374 0.931 . S
C1359 C1358 1.370 . S
C1359 C1363 1.408 . S
C1360 C1358 1.363 . S
C1360 C1361 1.370 . S
C1360 C1364 1.524 . S
C1361 C1353 1.503 . S
C1361 C1360 1.370 . S
C1361 C1362 1.403 . S
C1362 C1361 1.403 . S
C1362 C1363 1.404 . S
C1362 C1365 1.539 . S
C1363 C1359 1.408 . S
C1363 C1362 1.404 . S
C1363 H1375 0.930 1_556 S
C1364 C1360 1.524 . S
C1364 H1376 0.956 . S
C1364 H1377 0.961 . S
C1364 H1378 0.961 . S
C1365 C1362 1.539 . S
C1365 H1379 0.958 . S
C1365 H1380 0.961 . S
C1365 H1381 0.960 . S
H1366 C1350 0.931 . S
H1367 C1355 0.929 . S
H1368 C1356 0.960 . S
H1369 C1356 0.962 . S
H1370 C1356 0.960 . S
H1371 C1357 0.961 . S
H1372 C1357 0.961 . S
H1373 C1357 0.961 . S
H1374 C1358 0.931 . S
H1375 C1363 0.930 1_554 S
H1376 C1364 0.956 . S
H1377 C1364 0.961 . S
H1378 C1364 0.961 . S
H1379 C1365 0.958 . S
H1380 C1365 0.961 . S
H1381 C1365 0.960 . S
C1382 C1383 1.391 . S
C1382 C1384 1.394 . S
C1382 H1398 0.931 . S
C1383 C1382 1.391 . S
C1383 C1387 1.376 . S
C1384 C1382 1.394 . S
C1384 C1385 1.369 . S
C1384 C1388 1.531 . S
C1385 C1384 1.369 . S
C1385 C1386 1.410 . S
C1385 C1393 1.503 . S
C1386 C1385 1.410 . S
C1386 C1387 1.392 . S
C1386 C1389 1.511 . S
C1387 C1383 1.376 . S
C1387 C1386 1.392 . S
C1387 H1399 0.929 . S
C1388 C1384 1.531 . S
C1388 H1400 0.960 . S
C1388 H1401 0.962 . S
C1388 H1402 0.960 . S
C1389 C1386 1.511 . S
C1389 H1403 0.961 . S
C1389 H1404 0.961 . S
C1389 H1405 0.961 . S
C1390 C1391 1.370 . S
C1390 C1392 1.363 . S
C1390 H1406 0.931 . S
C1391 C1390 1.370 . S
C1391 C1395 1.408 1_556 S
C1392 C1390 1.363 . S
C1392 C1393 1.370 . S
C1392 C1396 1.524 . S
C1393 C1385 1.503 . S
C1393 C1392 1.370 . S
C1393 C1394 1.403 . S
C1394 C1393 1.403 . S
C1394 C1395 1.404 1_556 S
C1394 C1397 1.539 1_556 S
C1395 C1391 1.408 1_554 S
C1395 C1394 1.404 1_554 S
C1395 H1407 0.930 . S
C1396 C1392 1.524 . S
C1396 H1408 0.956 . S
C1396 H1409 0.961 . S
C1396 H1410 0.961 . S
C1397 C1394 1.539 1_554 S
C1397 H1411 0.958 . S
C1397 H1412 0.961 . S
C1397 H1413 0.960 . S
H1398 C1382 0.931 . S
H1399 C1387 0.929 . S
H1400 C1388 0.960 . S
H1401 C1388 0.962 . S
H1402 C1388 0.960 . S
H1403 C1389 0.961 . S
H1404 C1389 0.961 . S
H1405 C1389 0.961 . S
H1406 C1390 0.931 . S
H1407 C1395 0.930 . S
H1408 C1396 0.956 . S
H1409 C1396 0.961 . S
H1410 C1396 0.961 . S
H1411 C1397 0.958 . S
H1412 C1397 0.961 . S
H1413 C1397 0.960 . S
C1414 C1415 1.391 . S
C1414 C1416 1.394 . S
C1414 H1430 0.931 . S
C1415 C1414 1.391 . S
C1415 C1419 1.376 . S
C1416 C1414 1.394 . S
C1416 C1417 1.369 . S
C1416 C1420 1.531 . S
C1417 C1416 1.369 . S
C1417 C1418 1.410 . S
C1417 C1425 1.503 . S
C1418 C1417 1.410 . S
C1418 C1419 1.392 . S
C1418 C1421 1.511 . S
C1419 C1415 1.376 . S
C1419 C1418 1.392 . S
C1419 H1431 0.929 . S
C1420 C1416 1.531 . S
C1420 H1432 0.960 . S
C1420 H1433 0.962 . S
C1420 H1434 0.960 . S
C1421 C1418 1.511 . S
C1421 H1435 0.961 . S
C1421 H1436 0.961 . S
C1421 H1437 0.961 . S
C1422 C1423 1.370 . S
C1422 C1424 1.363 . S
C1422 H1438 0.931 . S
C1423 C1422 1.370 . S
C1423 C1427 1.408 . S
C1424 C1422 1.363 . S
C1424 C1425 1.370 . S
C1424 C1428 1.524 . S
C1425 C1417 1.503 . S
C1425 C1424 1.370 . S
C1425 C1426 1.403 . S
C1426 C1425 1.403 . S
C1426 C1427 1.404 . S
C1426 C1429 1.539 . S
C1427 C1423 1.408 . S
C1427 C1426 1.404 . S
C1427 H1439 0.930 . S
C1428 C1424 1.524 . S
C1428 H1440 0.956 . S
C1428 H1441 0.961 . S
C1428 H1442 0.961 . S
C1429 C1426 1.539 . S
C1429 H1443 0.958 . S
C1429 H1444 0.961 . S
C1429 H1445 0.960 . S
H1430 C1414 0.931 . S
H1431 C1419 0.929 . S
H1432 C1420 0.960 . S
H1433 C1420 0.962 . S
H1434 C1420 0.960 . S
H1435 C1421 0.961 . S
H1436 C1421 0.961 . S
H1437 C1421 0.961 . S
H1438 C1422 0.931 . S
H1439 C1427 0.930 . S
H1440 C1428 0.956 . S
H1441 C1428 0.961 . S
H1442 C1428 0.961 . S
H1443 C1429 0.958 . S
H1444 C1429 0.961 . S
H1445 C1429 0.960 . S
C1446 C1447 1.391 . S
C1446 C1448 1.394 . S
C1446 H1462 0.931 . S
C1447 C1446 1.391 . S
C1447 C1451 1.376 . S
C1448 C1446 1.394 . S
C1448 C1449 1.369 . S
C1448 C1452 1.531 . S
C1449 C1448 1.369 . S
C1449 C1450 1.410 . S
C1449 C1457 1.503 . S
C1450 C1449 1.410 . S
C1450 C1451 1.392 . S
C1450 C1453 1.511 . S
C1451 C1447 1.376 . S
C1451 C1450 1.392 . S
C1451 H1463 0.929 . S
C1452 C1448 1.531 . S
C1452 H1464 0.960 . S
C1452 H1465 0.962 . S
C1452 H1466 0.960 . S
C1453 C1450 1.511 . S
C1453 H1467 0.961 . S
C1453 H1468 0.961 . S
C1453 H1469 0.961 . S
C1454 C1455 1.370 . S
C1454 C1456 1.363 . S
C1454 H1470 0.931 . S
C1455 C1454 1.370 . S
C1455 C1459 1.408 . S
C1456 C1454 1.363 . S
C1456 C1457 1.370 . S
C1456 C1460 1.524 . S
C1457 C1449 1.503 . S
C1457 C1456 1.370 . S
C1457 C1458 1.403 . S
C1458 C1457 1.403 . S
C1458 C1459 1.404 . S
C1458 C1461 1.539 . S
C1459 C1455 1.408 . S
C1459 C1458 1.404 . S
C1459 H1471 0.930 . S
C1460 C1456 1.524 . S
C1460 H1472 0.956 . S
C1460 H1473 0.961 . S
C1460 H1474 0.961 . S
C1461 C1458 1.539 . S
C1461 H1475 0.958 . S
C1461 H1476 0.961 . S
C1461 H1477 0.960 . S
H1462 C1446 0.931 . S
H1463 C1451 0.929 . S
H1464 C1452 0.960 . S
H1465 C1452 0.962 . S
H1466 C1452 0.960 . S
H1467 C1453 0.961 . S
H1468 C1453 0.961 . S
H1469 C1453 0.961 . S
H1470 C1454 0.931 . S
H1471 C1459 0.930 . S
H1472 C1460 0.956 . S
H1473 C1460 0.961 . S
H1474 C1460 0.961 . S
H1475 C1461 0.958 . S
H1476 C1461 0.961 . S
H1477 C1461 0.960 . S
C1478 C1479 1.391 . S
C1478 C1480 1.394 . S
C1478 H1494 0.931 . S
C1479 C1478 1.391 . S
C1479 C1483 1.376 . S
C1480 C1478 1.394 . S
C1480 C1481 1.369 . S
C1480 C1484 1.531 . S
C1481 C1480 1.369 . S
C1481 C1482 1.410 . S
C1481 C1489 1.503 . S
C1482 C1481 1.410 . S
C1482 C1483 1.392 . S
C1482 C1485 1.511 . S
C1483 C1479 1.376 . S
C1483 C1482 1.392 . S
C1483 H1495 0.929 . S
C1484 C1480 1.531 . S
C1484 H1496 0.960 . S
C1484 H1497 0.962 . S
C1484 H1498 0.960 . S
C1485 C1482 1.511 . S
C1485 H1499 0.961 . S
C1485 H1500 0.961 . S
C1485 H1501 0.961 . S
C1486 C1487 1.370 . S
C1486 C1488 1.363 . S
C1486 H1502 0.931 . S
C1487 C1486 1.370 . S
C1487 C1491 1.408 . S
C1488 C1486 1.363 . S
C1488 C1489 1.370 . S
C1488 C1492 1.524 . S
C1489 C1481 1.503 . S
C1489 C1488 1.370 . S
C1489 C1490 1.403 . S
C1490 C1489 1.403 . S
C1490 C1491 1.404 . S
C1490 C1493 1.539 . S
C1491 C1487 1.408 . S
C1491 C1490 1.404 . S
C1491 H1503 0.930 . S
C1492 C1488 1.524 . S
C1492 H1504 0.956 . S
C1492 H1505 0.961 . S
C1492 H1506 0.961 . S
C1493 C1490 1.539 . S
C1493 H1507 0.958 . S
C1493 H1508 0.961 . S
C1493 H1509 0.960 . S
H1494 C1478 0.931 . S
H1495 C1483 0.929 . S
H1496 C1484 0.960 . S
H1497 C1484 0.962 . S
H1498 C1484 0.960 . S
H1499 C1485 0.961 . S
H1500 C1485 0.961 . S
H1501 C1485 0.961 . S
H1502 C1486 0.931 . S
H1503 C1491 0.930 . S
H1504 C1492 0.956 . S
H1505 C1492 0.961 . S
H1506 C1492 0.961 . S
H1507 C1493 0.958 . S
H1508 C1493 0.961 . S
H1509 C1493 0.960 . S
C1510 C1511 1.391 . S
C1510 C1512 1.394 . S
C1510 H1526 0.931 . S
C1511 C1510 1.391 . S
C1511 C1515 1.376 . S
C1512 C1510 1.394 . S
C1512 C1513 1.369 . S
C1512 C1516 1.531 . S
C1513 C1512 1.369 . S
C1513 C1514 1.410 . S
C1513 C1521 1.503 . S
C1514 C1513 1.410 . S
C1514 C1515 1.392 . S
C1514 C1517 1.511 . S
C1515 C1511 1.376 . S
C1515 C1514 1.392 . S
C1515 H1527 0.929 . S
C1516 C1512 1.531 . S
C1516 H1528 0.960 . S
C1516 H1529 0.962 . S
C1516 H1530 0.960 . S
C1517 C1514 1.511 . S
C1517 H1531 0.961 . S
C1517 H1532 0.961 . S
C1517 H1533 0.961 . S
C1518 C1519 1.370 . S
C1518 C1520 1.363 . S
C1518 H1534 0.931 . S
C1519 C1518 1.370 . S
C1519 C1523 1.408 . S
C1520 C1518 1.363 . S
C1520 C1521 1.370 . S
C1520 C1524 1.524 . S
C1521 C1513 1.503 . S
C1521 C1520 1.370 . S
C1521 C1522 1.403 . S
C1522 C1521 1.403 . S
C1522 C1523 1.404 . S
C1522 C1525 1.539 . S
C1523 C1519 1.408 . S
C1523 C1522 1.404 . S
C1523 H1535 0.930 . S
C1524 C1520 1.524 . S
C1524 H1536 0.956 . S
C1524 H1537 0.961 . S
C1524 H1538 0.961 . S
C1525 C1522 1.539 . S
C1525 H1539 0.958 . S
C1525 H1540 0.961 . S
C1525 H1541 0.960 . S
H1526 C1510 0.931 . S
H1527 C1515 0.929 . S
H1528 C1516 0.960 . S
H1529 C1516 0.962 . S
H1530 C1516 0.960 . S
H1531 C1517 0.961 . S
H1532 C1517 0.961 . S
H1533 C1517 0.961 . S
H1534 C1518 0.931 . S
H1535 C1523 0.930 . S
H1536 C1524 0.956 . S
H1537 C1524 0.961 . S
H1538 C1524 0.961 . S
H1539 C1525 0.958 . S
H1540 C1525 0.961 . S
H1541 C1525 0.960 . S
C1542 C1543 1.391 . S
C1542 C1544 1.394 . S
C1542 H1558 0.931 . S
C1543 C1542 1.391 . S
C1543 C1547 1.376 . S
C1544 C1542 1.394 . S
C1544 C1545 1.369 . S
C1544 C1548 1.531 . S
C1545 C1544 1.369 . S
C1545 C1546 1.410 . S
C1545 C1553 1.503 . S
C1546 C1545 1.410 . S
C1546 C1547 1.392 . S
C1546 C1549 1.511 . S
C1547 C1543 1.376 . S
C1547 C1546 1.392 . S
C1547 H1559 0.929 . S
C1548 C1544 1.531 . S
C1548 H1560 0.960 . S
C1548 H1561 0.962 . S
C1548 H1562 0.960 . S
C1549 C1546 1.511 . S
C1549 H1563 0.961 . S
C1549 H1564 0.961 . S
C1549 H1565 0.961 . S
C1550 C1551 1.370 . S
C1550 C1552 1.363 . S
C1550 H1566 0.931 . S
C1551 C1550 1.370 . S
C1551 C1555 1.408 . S
C1552 C1550 1.363 . S
C1552 C1553 1.370 . S
C1552 C1556 1.524 . S
C1553 C1545 1.503 . S
C1553 C1552 1.370 . S
C1553 C1554 1.403 . S
C1554 C1553 1.403 . S
C1554 C1555 1.404 . S
C1554 C1557 1.539 . S
C1555 C1551 1.408 . S
C1555 C1554 1.404 . S
C1555 H1567 0.930 . S
C1556 C1552 1.524 . S
C1556 H1568 0.956 . S
C1556 H1569 0.961 . S
C1556 H1570 0.961 . S
C1557 C1554 1.539 . S
C1557 H1571 0.958 . S
C1557 H1572 0.961 . S
C1557 H1573 0.960 . S
H1558 C1542 0.931 . S
H1559 C1547 0.929 . S
H1560 C1548 0.960 . S
H1561 C1548 0.962 . S
H1562 C1548 0.960 . S
H1563 C1549 0.961 . S
H1564 C1549 0.961 . S
H1565 C1549 0.961 . S
H1566 C1550 0.931 . S
H1567 C1555 0.930 . S
H1568 C1556 0.956 . S
H1569 C1556 0.961 . S
H1570 C1556 0.961 . S
H1571 C1557 0.958 . S
H1572 C1557 0.961 . S
H1573 C1557 0.960 . S
C1574 C1575 1.391 . S
C1574 C1576 1.394 . S
C1574 H1590 0.931 . S
C1575 C1574 1.391 . S
C1575 C1579 1.376 . S
C1576 C1574 1.394 . S
C1576 C1577 1.369 . S
C1576 C1580 1.531 . S
C1577 C1576 1.369 . S
C1577 C1578 1.410 . S
C1577 C1585 1.503 . S
C1578 C1577 1.410 . S
C1578 C1579 1.392 . S
C1578 C1581 1.511 . S
C1579 C1575 1.376 . S
C1579 C1578 1.392 . S
C1579 H1591 0.929 . S
C1580 C1576 1.531 . S
C1580 H1592 0.960 . S
C1580 H1593 0.962 . S
C1580 H1594 0.960 . S
C1581 C1578 1.511 . S
C1581 H1595 0.961 . S
C1581 H1596 0.961 . S
C1581 H1597 0.961 . S
C1582 C1583 1.370 . S
C1582 C1584 1.363 . S
C1582 H1598 0.931 . S
C1583 C1582 1.370 . S
C1583 C1587 1.408 . S
C1584 C1582 1.363 . S
C1584 C1585 1.370 . S
C1584 C1588 1.524 . S
C1585 C1577 1.503 . S
C1585 C1584 1.370 . S
C1585 C1586 1.403 . S
C1586 C1585 1.403 . S
C1586 C1587 1.404 . S
C1586 C1589 1.539 . S
C1587 C1583 1.408 . S
C1587 C1586 1.404 . S
C1587 H1599 0.930 . S
C1588 C1584 1.524 . S
C1588 H1600 0.956 . S
C1588 H1601 0.961 . S
C1588 H1602 0.961 . S
C1589 C1586 1.539 . S
C1589 H1603 0.958 . S
C1589 H1604 0.961 . S
C1589 H1605 0.960 . S
H1590 C1574 0.931 . S
H1591 C1579 0.929 . S
H1592 C1580 0.960 . S
H1593 C1580 0.962 . S
H1594 C1580 0.960 . S
H1595 C1581 0.961 . S
H1596 C1581 0.961 . S
H1597 C1581 0.961 . S
H1598 C1582 0.931 . S
H1599 C1587 0.930 . S
H1600 C1588 0.956 . S
H1601 C1588 0.961 . S
H1602 C1588 0.961 . S
H1603 C1589 0.958 . S
H1604 C1589 0.961 . S
H1605 C1589 0.960 . S
C1606 C1607 1.391 . S
C1606 C1608 1.394 . S
C1606 H1622 0.931 . S
C1607 C1606 1.391 . S
C1607 C1611 1.376 . S
C1608 C1606 1.394 . S
C1608 C1609 1.369 . S
C1608 C1612 1.531 . S
C1609 C1608 1.369 . S
C1609 C1610 1.410 . S
C1609 C1617 1.503 . S
C1610 C1609 1.410 . S
C1610 C1611 1.392 . S
C1610 C1613 1.511 . S
C1611 C1607 1.376 . S
C1611 C1610 1.392 . S
C1611 H1623 0.929 . S
C1612 C1608 1.531 . S
C1612 H1624 0.960 . S
C1612 H1625 0.962 . S
C1612 H1626 0.960 . S
C1613 C1610 1.511 . S
C1613 H1627 0.961 . S
C1613 H1628 0.961 . S
C1613 H1629 0.961 . S
C1614 C1615 1.370 . S
C1614 C1616 1.363 . S
C1614 H1630 0.931 . S
C1615 C1614 1.370 . S
C1615 C1619 1.408 . S
C1616 C1614 1.363 . S
C1616 C1617 1.370 . S
C1616 C1620 1.524 . S
C1617 C1609 1.503 . S
C1617 C1616 1.370 . S
C1617 C1618 1.403 . S
C1618 C1617 1.403 . S
C1618 C1619 1.404 . S
C1618 C1621 1.539 . S
C1619 C1615 1.408 . S
C1619 C1618 1.404 . S
C1619 H1631 0.930 . S
C1620 C1616 1.524 . S
C1620 H1632 0.956 . S
C1620 H1633 0.961 . S
C1620 H1634 0.961 . S
C1621 C1618 1.539 . S
C1621 H1635 0.958 . S
C1621 H1636 0.961 . S
C1621 H1637 0.960 . S
H1622 C1606 0.931 . S
H1623 C1611 0.929 . S
H1624 C1612 0.960 . S
H1625 C1612 0.962 . S
H1626 C1612 0.960 . S
H1627 C1613 0.961 . S
H1628 C1613 0.961 . S
H1629 C1613 0.961 . S
H1630 C1614 0.931 . S
H1631 C1619 0.930 . S
H1632 C1620 0.956 . S
H1633 C1620 0.961 . S
H1634 C1620 0.961 . S
H1635 C1621 0.958 . S
H1636 C1621 0.961 . S
H1637 C1621 0.960 . S
C1638 C1639 1.391 . S
C1638 C1640 1.394 . S
C1638 H1654 0.931 . S
C1639 C1638 1.391 . S
C1639 C1643 1.376 . S
C1640 C1638 1.394 . S
C1640 C1641 1.369 . S
C1640 C1644 1.531 . S
C1641 C1640 1.369 . S
C1641 C1642 1.410 . S
C1641 C1649 1.503 . S
C1642 C1641 1.410 . S
C1642 C1643 1.392 . S
C1642 C1645 1.511 . S
C1643 C1639 1.376 . S
C1643 C1642 1.392 . S
C1643 H1655 0.929 . S
C1644 C1640 1.531 . S
C1644 H1656 0.960 . S
C1644 H1657 0.962 . S
C1644 H1658 0.960 . S
C1645 C1642 1.511 . S
C1645 H1659 0.961 . S
C1645 H1660 0.961 . S
C1645 H1661 0.961 . S
C1646 C1647 1.370 . S
C1646 C1648 1.363 . S
C1646 H1662 0.931 . S
C1647 C1646 1.370 . S
C1647 C1651 1.408 . S
C1648 C1646 1.363 . S
C1648 C1649 1.370 . S
C1648 C1652 1.524 . S
C1649 C1641 1.503 . S
C1649 C1648 1.370 . S
C1649 C1650 1.403 . S
C1650 C1649 1.403 . S
C1650 C1651 1.404 . S
C1650 C1653 1.539 . S
C1651 C1647 1.408 . S
C1651 C1650 1.404 . S
C1651 H1663 0.930 . S
C1652 C1648 1.524 . S
C1652 H1664 0.956 . S
C1652 H1665 0.961 . S
C1652 H1666 0.961 . S
C1653 C1650 1.539 . S
C1653 H1667 0.958 . S
C1653 H1668 0.961 . S
C1653 H1669 0.960 . S
H1654 C1638 0.931 . S
H1655 C1643 0.929 . S
H1656 C1644 0.960 . S
H1657 C1644 0.962 . S
H1658 C1644 0.960 . S
H1659 C1645 0.961 . S
H1660 C1645 0.961 . S
H1661 C1645 0.961 . S
H1662 C1646 0.931 . S
H1663 C1651 0.930 . S
H1664 C1652 0.956 . S
H1665 C1652 0.961 . S
H1666 C1652 0.961 . S
H1667 C1653 0.958 . S
H1668 C1653 0.961 . S
H1669 C1653 0.960 . S
C1670 C1671 1.391 . S
C1670 C1672 1.394 . S
C1670 H1686 0.931 . S
C1671 C1670 1.391 . S
C1671 C1675 1.376 . S
C1672 C1670 1.394 . S
C1672 C1673 1.369 . S
C1672 C1676 1.531 . S
C1673 C1672 1.369 . S
C1673 C1674 1.410 . S
C1673 C1681 1.503 . S
C1674 C1673 1.410 . S
C1674 C1675 1.392 . S
C1674 C1677 1.511 . S
C1675 C1671 1.376 . S
C1675 C1674 1.392 . S
C1675 H1687 0.929 . S
C1676 C1672 1.531 . S
C1676 H1688 0.960 . S
C1676 H1689 0.962 . S
C1676 H1690 0.960 . S
C1677 C1674 1.511 . S
C1677 H1691 0.961 . S
C1677 H1692 0.961 . S
C1677 H1693 0.961 . S
C1678 C1679 1.370 . S
C1678 C1680 1.363 . S
C1678 H1694 0.931 . S
C1679 C1678 1.370 . S
C1679 C1683 1.408 . S
C1680 C1678 1.363 . S
C1680 C1681 1.370 . S
C1680 C1684 1.524 . S
C1681 C1673 1.503 . S
C1681 C1680 1.370 . S
C1681 C1682 1.403 . S
C1682 C1681 1.403 . S
C1682 C1683 1.404 . S
C1682 C1685 1.539 . S
C1683 C1679 1.408 . S
C1683 C1682 1.404 . S
C1683 H1695 0.930 . S
C1684 C1680 1.524 . S
C1684 H1696 0.956 . S
C1684 H1697 0.961 . S
C1684 H1698 0.961 . S
C1685 C1682 1.539 . S
C1685 H1699 0.958 . S
C1685 H1700 0.961 . S
C1685 H1701 0.960 . S
H1686 C1670 0.931 . S
H1687 C1675 0.929 . S
H1688 C1676 0.960 . S
H1689 C1676 0.962 . S
H1690 C1676 0.960 . S
H1691 C1677 0.961 . S
H1692 C1677 0.961 . S
H1693 C1677 0.961 . S
H1694 C1678 0.931 . S
H1695 C1683 0.930 . S
H1696 C1684 0.956 . S
H1697 C1684 0.961 . S
H1698 C1684 0.961 . S
H1699 C1685 0.958 . S
H1700 C1685 0.961 . S
H1701 C1685 0.960 . S
C1702 C1703 1.391 . S
C1702 C1704 1.394 . S
C1702 H1718 0.931 . S
C1703 C1702 1.391 . S
C1703 C1707 1.376 . S
C1704 C1702 1.394 . S
C1704 C1705 1.369 . S
C1704 C1708 1.531 . S
C1705 C1704 1.369 . S
C1705 C1706 1.410 . S
C1705 C1713 1.503 . S
C1706 C1705 1.410 . S
C1706 C1707 1.392 . S
C1706 C1709 1.511 . S
C1707 C1703 1.376 . S
C1707 C1706 1.392 . S
C1707 H1719 0.929 . S
C1708 C1704 1.531 . S
C1708 H1720 0.960 . S
C1708 H1721 0.962 . S
C1708 H1722 0.960 . S
C1709 C1706 1.511 . S
C1709 H1723 0.961 . S
C1709 H1724 0.961 . S
C1709 H1725 0.961 . S
C1710 C1711 1.370 . S
C1710 C1712 1.363 . S
C1710 H1726 0.931 . S
C1711 C1710 1.370 . S
C1711 C1715 1.408 . S
C1712 C1710 1.363 . S
C1712 C1713 1.370 . S
C1712 C1716 1.524 . S
C1713 C1705 1.503 . S
C1713 C1712 1.370 . S
C1713 C1714 1.403 . S
C1714 C1713 1.403 . S
C1714 C1715 1.404 . S
C1714 C1717 1.539 . S
C1715 C1711 1.408 . S
C1715 C1714 1.404 . S
C1715 H1727 0.930 . S
C1716 C1712 1.524 . S
C1716 H1728 0.956 . S
C1716 H1729 0.961 . S
C1716 H1730 0.961 . S
C1717 C1714 1.539 . S
C1717 H1731 0.958 . S
C1717 H1732 0.961 . S
C1717 H1733 0.960 . S
H1718 C1702 0.931 . S
H1719 C1707 0.929 . S
H1720 C1708 0.960 . S
H1721 C1708 0.962 . S
H1722 C1708 0.960 . S
H1723 C1709 0.961 . S
H1724 C1709 0.961 . S
H1725 C1709 0.961 . S
H1726 C1710 0.931 . S
H1727 C1715 0.930 . S
H1728 C1716 0.956 . S
H1729 C1716 0.961 . S
H1730 C1716 0.961 . S
H1731 C1717 0.958 . S
H1732 C1717 0.961 . S
H1733 C1717 0.960 . S
C1734 C1735 1.391 . S
C1734 C1736 1.394 . S
C1734 H1750 0.931 . S
C1735 C1734 1.391 . S
C1735 C1739 1.376 . S
C1736 C1734 1.394 . S
C1736 C1737 1.369 . S
C1736 C1740 1.531 . S
C1737 C1736 1.369 . S
C1737 C1738 1.410 . S
C1737 C1745 1.503 . S
C1738 C1737 1.410 . S
C1738 C1739 1.392 . S
C1738 C1741 1.511 . S
C1739 C1735 1.376 . S
C1739 C1738 1.392 . S
C1739 H1751 0.929 . S
C1740 C1736 1.531 . S
C1740 H1752 0.960 . S
C1740 H1753 0.962 . S
C1740 H1754 0.960 . S
C1741 C1738 1.511 . S
C1741 H1755 0.961 . S
C1741 H1756 0.961 . S
C1741 H1757 0.961 . S
C1742 C1743 1.370 . S
C1742 C1744 1.363 . S
C1742 H1758 0.931 . S
C1743 C1742 1.370 . S
C1743 C1747 1.408 . S
C1744 C1742 1.363 . S
C1744 C1745 1.370 . S
C1744 C1748 1.524 . S
C1745 C1737 1.503 . S
C1745 C1744 1.370 . S
C1745 C1746 1.403 . S
C1746 C1745 1.403 . S
C1746 C1747 1.404 . S
C1746 C1749 1.539 . S
C1747 C1743 1.408 . S
C1747 C1746 1.404 . S
C1747 H1759 0.930 . S
C1748 C1744 1.524 . S
C1748 H1760 0.956 . S
C1748 H1761 0.961 . S
C1748 H1762 0.961 . S
C1749 C1746 1.539 . S
C1749 H1763 0.958 . S
C1749 H1764 0.961 . S
C1749 H1765 0.960 . S
H1750 C1734 0.931 . S
H1751 C1739 0.929 . S
H1752 C1740 0.960 . S
H1753 C1740 0.962 . S
H1754 C1740 0.960 . S
H1755 C1741 0.961 . S
H1756 C1741 0.961 . S
H1757 C1741 0.961 . S
H1758 C1742 0.931 . S
H1759 C1747 0.930 . S
H1760 C1748 0.956 . S
H1761 C1748 0.961 . S
H1762 C1748 0.961 . S
H1763 C1749 0.958 . S
H1764 C1749 0.961 . S
H1765 C1749 0.960 . S
C1766 C1767 1.391 . S
C1766 C1768 1.394 . S
C1766 H1782 0.931 . S
C1767 C1766 1.391 . S
C1767 C1771 1.376 . S
C1768 C1766 1.394 . S
C1768 C1769 1.369 . S
C1768 C1772 1.531 . S
C1769 C1768 1.369 . S
C1769 C1770 1.410 . S
C1769 C1777 1.503 . S
C1770 C1769 1.410 . S
C1770 C1771 1.392 . S
C1770 C1773 1.511 . S
C1771 C1767 1.376 . S
C1771 C1770 1.392 . S
C1771 H1783 0.929 . S
C1772 C1768 1.531 . S
C1772 H1784 0.960 . S
C1772 H1785 0.962 . S
C1772 H1786 0.960 . S
C1773 C1770 1.511 . S
C1773 H1787 0.961 . S
C1773 H1788 0.961 . S
C1773 H1789 0.961 . S
C1774 C1775 1.370 . S
C1774 C1776 1.363 . S
C1774 H1790 0.931 . S
C1775 C1774 1.370 . S
C1775 C1779 1.408 . S
C1776 C1774 1.363 . S
C1776 C1777 1.370 . S
C1776 C1780 1.524 . S
C1777 C1769 1.503 . S
C1777 C1776 1.370 . S
C1777 C1778 1.403 . S
C1778 C1777 1.403 . S
C1778 C1779 1.404 . S
C1778 C1781 1.539 . S
C1779 C1775 1.408 . S
C1779 C1778 1.404 . S
C1779 H1791 0.930 . S
C1780 C1776 1.524 . S
C1780 H1792 0.956 . S
C1780 H1793 0.961 . S
C1780 H1794 0.961 . S
C1781 C1778 1.539 . S
C1781 H1795 0.958 . S
C1781 H1796 0.961 . S
C1781 H1797 0.960 . S
H1782 C1766 0.931 . S
H1783 C1771 0.929 . S
H1784 C1772 0.960 . S
H1785 C1772 0.962 . S
H1786 C1772 0.960 . S
H1787 C1773 0.961 . S
H1788 C1773 0.961 . S
H1789 C1773 0.961 . S
H1790 C1774 0.931 . S
H1791 C1779 0.930 . S
H1792 C1780 0.956 . S
H1793 C1780 0.961 . S
H1794 C1780 0.961 . S
H1795 C1781 0.958 . S
H1796 C1781 0.961 . S
H1797 C1781 0.960 . S
C1798 C1799 1.391 . S
C1798 C1800 1.394 . S
C1798 H1814 0.931 . S
C1799 C1798 1.391 . S
C1799 C1803 1.376 . S
C1800 C1798 1.394 . S
C1800 C1801 1.369 . S
C1800 C1804 1.531 . S
C1801 C1800 1.369 . S
C1801 C1802 1.410 . S
C1801 C1809 1.503 . S
C1802 C1801 1.410 . S
C1802 C1803 1.392 . S
C1802 C1805 1.511 . S
C1803 C1799 1.376 . S
C1803 C1802 1.392 . S
C1803 H1815 0.929 . S
C1804 C1800 1.531 . S
C1804 H1816 0.960 . S
C1804 H1817 0.962 . S
C1804 H1818 0.960 . S
C1805 C1802 1.511 . S
C1805 H1819 0.961 . S
C1805 H1820 0.961 . S
C1805 H1821 0.961 . S
C1806 C1807 1.370 . S
C1806 C1808 1.363 . S
C1806 H1822 0.931 . S
C1807 C1806 1.370 . S
C1807 C1811 1.408 . S
C1808 C1806 1.363 . S
C1808 C1809 1.370 . S
C1808 C1812 1.524 . S
C1809 C1801 1.503 . S
C1809 C1808 1.370 . S
C1809 C1810 1.403 . S
C1810 C1809 1.403 . S
C1810 C1811 1.404 . S
C1810 C1813 1.539 . S
C1811 C1807 1.408 . S
C1811 C1810 1.404 . S
C1811 H1823 0.930 . S
C1812 C1808 1.524 . S
C1812 H1824 0.956 . S
C1812 H1825 0.961 . S
C1812 H1826 0.961 . S
C1813 C1810 1.539 . S
C1813 H1827 0.958 . S
C1813 H1828 0.961 . S
C1813 H1829 0.960 . S
H1814 C1798 0.931 . S
H1815 C1803 0.929 . S
H1816 C1804 0.960 . S
H1817 C1804 0.962 . S
H1818 C1804 0.960 . S
H1819 C1805 0.961 . S
H1820 C1805 0.961 . S
H1821 C1805 0.961 . S
H1822 C1806 0.931 . S
H1823 C1811 0.930 . S
H1824 C1812 0.956 . S
H1825 C1812 0.961 . S
H1826 C1812 0.961 . S
H1827 C1813 0.958 . S
H1828 C1813 0.961 . S
H1829 C1813 0.960 . S
C1830 C1831 1.391 . S
C1830 C1832 1.394 . S
C1830 H1846 0.931 . S
C1831 C1830 1.391 . S
C1831 C1835 1.376 . S
C1832 C1830 1.394 . S
C1832 C1833 1.369 . S
C1832 C1836 1.531 . S
C1833 C1832 1.369 . S
C1833 C1834 1.410 . S
C1833 C1841 1.503 . S
C1834 C1833 1.410 . S
C1834 C1835 1.392 . S
C1834 C1837 1.511 . S
C1835 C1831 1.376 . S
C1835 C1834 1.392 . S
C1835 H1847 0.929 . S
C1836 C1832 1.531 . S
C1836 H1848 0.960 . S
C1836 H1849 0.962 . S
C1836 H1850 0.960 . S
C1837 C1834 1.511 . S
C1837 H1851 0.961 . S
C1837 H1852 0.961 . S
C1837 H1853 0.961 . S
C1838 C1839 1.370 . S
C1838 C1840 1.363 . S
C1838 H1854 0.931 . S
C1839 C1838 1.370 . S
C1839 C1843 1.408 . S
C1840 C1838 1.363 . S
C1840 C1841 1.370 . S
C1840 C1844 1.524 . S
C1841 C1833 1.503 . S
C1841 C1840 1.370 . S
C1841 C1842 1.403 . S
C1842 C1841 1.403 . S
C1842 C1843 1.404 . S
C1842 C1845 1.539 . S
C1843 C1839 1.408 . S
C1843 C1842 1.404 . S
C1843 H1855 0.930 . S
C1844 C1840 1.524 . S
C1844 H1856 0.956 . S
C1844 H1857 0.961 . S
C1844 H1858 0.961 . S
C1845 C1842 1.539 . S
C1845 H1859 0.958 . S
C1845 H1860 0.961 . S
C1845 H1861 0.960 . S
H1846 C1830 0.931 . S
H1847 C1835 0.929 . S
H1848 C1836 0.960 . S
H1849 C1836 0.962 . S
H1850 C1836 0.960 . S
H1851 C1837 0.961 . S
H1852 C1837 0.961 . S
H1853 C1837 0.961 . S
H1854 C1838 0.931 . S
H1855 C1843 0.930 . S
H1856 C1844 0.956 . S
H1857 C1844 0.961 . S
H1858 C1844 0.961 . S
H1859 C1845 0.958 . S
H1860 C1845 0.961 . S
H1861 C1845 0.960 . S
C1862 C1863 1.391 . S
C1862 C1864 1.394 . S
C1862 H1878 0.931 . S
C1863 C1862 1.391 . S
C1863 C1867 1.376 . S
C1864 C1862 1.394 . S
C1864 C1865 1.369 . S
C1864 C1868 1.531 . S
C1865 C1864 1.369 . S
C1865 C1866 1.410 . S
C1865 C1873 1.503 . S
C1866 C1865 1.410 . S
C1866 C1867 1.392 . S
C1866 C1869 1.511 . S
C1867 C1863 1.376 . S
C1867 C1866 1.392 . S
C1867 H1879 0.929 . S
C1868 C1864 1.531 . S
C1868 H1880 0.960 . S
C1868 H1881 0.962 . S
C1868 H1882 0.960 . S
C1869 C1866 1.511 . S
C1869 H1883 0.961 . S
C1869 H1884 0.961 . S
C1869 H1885 0.961 . S
C1870 C1871 1.370 . S
C1870 C1872 1.363 . S
C1870 H1886 0.931 . S
C1871 C1870 1.370 . S
C1871 C1875 1.408 . S
C1872 C1870 1.363 . S
C1872 C1873 1.370 . S
C1872 C1876 1.524 . S
C1873 C1865 1.503 . S
C1873 C1872 1.370 . S
C1873 C1874 1.403 . S
C1874 C1873 1.403 . S
C1874 C1875 1.404 . S
C1874 C1877 1.539 . S
C1875 C1871 1.408 . S
C1875 C1874 1.404 . S
C1875 H1887 0.930 . S
C1876 C1872 1.524 . S
C1876 H1888 0.956 . S
C1876 H1889 0.961 . S
C1876 H1890 0.961 . S
C1877 C1874 1.539 . S
C1877 H1891 0.958 . S
C1877 H1892 0.961 . S
C1877 H1893 0.960 . S
H1878 C1862 0.931 . S
H1879 C1867 0.929 . S
H1880 C1868 0.960 . S
H1881 C1868 0.962 . S
H1882 C1868 0.960 . S
H1883 C1869 0.961 . S
H1884 C1869 0.961 . S
H1885 C1869 0.961 . S
H1886 C1870 0.931 . S
H1887 C1875 0.930 . S
H1888 C1876 0.956 . S
H1889 C1876 0.961 . S
H1890 C1876 0.961 . S
H1891 C1877 0.958 . S
H1892 C1877 0.961 . S
H1893 C1877 0.960 . S
C1894 C1895 1.391 . S
C1894 C1896 1.394 . S
C1894 H1910 0.931 . S
C1895 C1894 1.391 . S
C1895 C1899 1.376 . S
C1896 C1894 1.394 . S
C1896 C1897 1.369 . S
C1896 C1900 1.531 . S
C1897 C1896 1.369 . S
C1897 C1898 1.410 . S
C1897 C1905 1.503 . S
C1898 C1897 1.410 . S
C1898 C1899 1.392 . S
C1898 C1901 1.511 . S
C1899 C1895 1.376 . S
C1899 C1898 1.392 . S
C1899 H1911 0.929 . S
C1900 C1896 1.531 . S
C1900 H1912 0.960 . S
C1900 H1913 0.962 . S
C1900 H1914 0.960 . S
C1901 C1898 1.511 . S
C1901 H1915 0.961 . S
C1901 H1916 0.961 . S
C1901 H1917 0.961 . S
C1902 C1903 1.370 . S
C1902 C1904 1.363 . S
C1902 H1918 0.931 . S
C1903 C1902 1.370 . S
C1903 C1907 1.408 . S
C1904 C1902 1.363 . S
C1904 C1905 1.370 . S
C1904 C1908 1.524 . S
C1905 C1897 1.503 . S
C1905 C1904 1.370 . S
C1905 C1906 1.403 . S
C1906 C1905 1.403 . S
C1906 C1907 1.404 . S
C1906 C1909 1.539 . S
C1907 C1903 1.408 . S
C1907 C1906 1.404 . S
C1907 H1919 0.930 . S
C1908 C1904 1.524 . S
C1908 H1920 0.956 . S
C1908 H1921 0.961 . S
C1908 H1922 0.961 . S
C1909 C1906 1.539 . S
C1909 H1923 0.958 . S
C1909 H1924 0.961 . S
C1909 H1925 0.960 . S
H1910 C1894 0.931 . S
H1911 C1899 0.929 . S
H1912 C1900 0.960 . S
H1913 C1900 0.962 . S
H1914 C1900 0.960 . S
H1915 C1901 0.961 . S
H1916 C1901 0.961 . S
H1917 C1901 0.961 . S
H1918 C1902 0.931 . S
H1919 C1907 0.930 . S
H1920 C1908 0.956 . S
H1921 C1908 0.961 . S
H1922 C1908 0.961 . S
H1923 C1909 0.958 . S
H1924 C1909 0.961 . S
H1925 C1909 0.960 . S
C1926 C1927 1.391 . S
C1926 C1928 1.394 . S
C1926 H1942 0.931 . S
C1927 C1926 1.391 . S
C1927 C1931 1.376 . S
C1928 C1926 1.394 . S
C1928 C1929 1.369 . S
C1928 C1932 1.531 . S
C1929 C1928 1.369 . S
C1929 C1930 1.410 . S
C1929 C1937 1.503 . S
C1930 C1929 1.410 . S
C1930 C1931 1.392 . S
C1930 C1933 1.511 . S
C1931 C1927 1.376 . S
C1931 C1930 1.392 . S
C1931 H1943 0.929 . S
C1932 C1928 1.531 . S
C1932 H1944 0.960 . S
C1932 H1945 0.962 . S
C1932 H1946 0.960 . S
C1933 C1930 1.511 . S
C1933 H1947 0.961 . S
C1933 H1948 0.961 . S
C1933 H1949 0.961 . S
C1934 C1935 1.370 . S
C1934 C1936 1.363 . S
C1934 H1950 0.931 . S
C1935 C1934 1.370 . S
C1935 C1939 1.408 . S
C1936 C1934 1.363 . S
C1936 C1937 1.370 . S
C1936 C1940 1.524 . S
C1937 C1929 1.503 . S
C1937 C1936 1.370 . S
C1937 C1938 1.403 . S
C1938 C1937 1.403 . S
C1938 C1939 1.404 . S
C1938 C1941 1.539 . S
C1939 C1935 1.408 . S
C1939 C1938 1.404 . S
C1939 H1951 0.930 . S
C1940 C1936 1.524 . S
C1940 H1952 0.956 . S
C1940 H1953 0.961 . S
C1940 H1954 0.961 . S
C1941 C1938 1.539 . S
C1941 H1955 0.958 . S
C1941 H1956 0.961 . S
C1941 H1957 0.960 . S
H1942 C1926 0.931 . S
H1943 C1931 0.929 . S
H1944 C1932 0.960 . S
H1945 C1932 0.962 . S
H1946 C1932 0.960 . S
H1947 C1933 0.961 . S
H1948 C1933 0.961 . S
H1949 C1933 0.961 . S
H1950 C1934 0.931 . S
H1951 C1939 0.930 . S
H1952 C1940 0.956 . S
H1953 C1940 0.961 . S
H1954 C1940 0.961 . S
H1955 C1941 0.958 . S
H1956 C1941 0.961 . S
H1957 C1941 0.960 . S
C1958 C1959 1.391 . S
C1958 C1960 1.394 . S
C1958 H1974 0.931 . S
C1959 C1958 1.391 . S
C1959 C1963 1.376 . S
C1960 C1958 1.394 . S
C1960 C1961 1.369 . S
C1960 C1964 1.531 . S
C1961 C1960 1.369 . S
C1961 C1962 1.410 . S
C1961 C1969 1.503 . S
C1962 C1961 1.410 . S
C1962 C1963 1.392 . S
C1962 C1965 1.511 . S
C1963 C1959 1.376 . S
C1963 C1962 1.392 . S
C1963 H1975 0.929 . S
C1964 C1960 1.531 . S
C1964 H1976 0.960 . S
C1964 H1977 0.962 . S
C1964 H1978 0.960 . S
C1965 C1962 1.511 . S
C1965 H1979 0.961 . S
C1965 H1980 0.961 . S
C1965 H1981 0.961 . S
C1966 C1967 1.370 . S
C1966 C1968 1.363 . S
C1966 H1982 0.931 . S
C1967 C1966 1.370 . S
C1967 C1971 1.408 . S
C1968 C1966 1.363 . S
C1968 C1969 1.370 . S
C1968 C1972 1.524 . S
C1969 C1961 1.503 . S
C1969 C1968 1.370 . S
C1969 C1970 1.403 . S
C1970 C1969 1.403 . S
C1970 C1971 1.404 . S
C1970 C1973 1.539 . S
C1971 C1967 1.408 . S
C1971 C1970 1.404 . S
C1971 H1983 0.930 . S
C1972 C1968 1.524 . S
C1972 H1984 0.956 . S
C1972 H1985 0.961 . S
C1972 H1986 0.961 . S
C1973 C1970 1.539 . S
C1973 H1987 0.958 . S
C1973 H1988 0.961 . S
C1973 H1989 0.960 . S
H1974 C1958 0.931 . S
H1975 C1963 0.929 . S
H1976 C1964 0.960 . S
H1977 C1964 0.962 . S
H1978 C1964 0.960 . S
H1979 C1965 0.961 . S
H1980 C1965 0.961 . S
H1981 C1965 0.961 . S
H1982 C1966 0.931 . S
H1983 C1971 0.930 . S
H1984 C1972 0.956 . S
H1985 C1972 0.961 . S
H1986 C1972 0.961 . S
H1987 C1973 0.958 . S
H1988 C1973 0.961 . S
H1989 C1973 0.960 . S
C1990 C1991 1.391 . S
C1990 C1992 1.394 . S
C1990 H2006 0.931 . S
C1991 C1990 1.391 . S
C1991 C1995 1.376 . S
C1992 C1990 1.394 . S
C1992 C1993 1.369 . S
C1992 C1996 1.531 . S
C1993 C1992 1.369 . S
C1993 C1994 1.410 . S
C1993 C2001 1.503 . S
C1994 C1993 1.410 . S
C1994 C1995 1.392 . S
C1994 C1997 1.511 . S
C1995 C1991 1.376 . S
C1995 C1994 1.392 . S
C1995 H2007 0.929 . S
C1996 C1992 1.531 . S
C1996 H2008 0.960 . S
C1996 H2009 0.962 . S
C1996 H2010 0.960 . S
C1997 C1994 1.511 . S
C1997 H2011 0.961 . S
C1997 H2012 0.961 . S
C1997 H2013 0.961 . S
C1998 C1999 1.370 . S
C1998 C2000 1.363 . S
C1998 H2014 0.931 . S
C1999 C1998 1.370 . S
C1999 C2003 1.408 . S
C2000 C1998 1.363 . S
C2000 C2001 1.370 . S
C2000 C2004 1.524 . S
C2001 C1993 1.503 . S
C2001 C2000 1.370 . S
C2001 C2002 1.403 . S
C2002 C2001 1.403 . S
C2002 C2003 1.404 . S
C2002 C2005 1.539 . S
C2003 C1999 1.408 . S
C2003 C2002 1.404 . S
C2003 H2015 0.930 . S
C2004 C2000 1.524 . S
C2004 H2016 0.956 . S
C2004 H2017 0.961 . S
C2004 H2018 0.961 . S
C2005 C2002 1.539 . S
C2005 H2019 0.958 . S
C2005 H2020 0.961 . S
C2005 H2021 0.960 . S
H2006 C1990 0.931 . S
H2007 C1995 0.929 . S
H2008 C1996 0.960 . S
H2009 C1996 0.962 . S
H2010 C1996 0.960 . S
H2011 C1997 0.961 . S
H2012 C1997 0.961 . S
H2013 C1997 0.961 . S
H2014 C1998 0.931 . S
H2015 C2003 0.930 . S
H2016 C2004 0.956 . S
H2017 C2004 0.961 . S
H2018 C2004 0.961 . S
H2019 C2005 0.958 . S
H2020 C2005 0.961 . S
H2021 C2005 0.960 . S
C2022 C2023 1.391 . S
C2022 C2024 1.394 . S
C2022 H2038 0.931 . S
C2023 C2022 1.391 . S
C2023 C2027 1.376 . S
C2024 C2022 1.394 . S
C2024 C2025 1.369 . S
C2024 C2028 1.531 . S
C2025 C2024 1.369 . S
C2025 C2026 1.410 . S
C2025 C2033 1.503 . S
C2026 C2025 1.410 . S
C2026 C2027 1.392 . S
C2026 C2029 1.511 . S
C2027 C2023 1.376 . S
C2027 C2026 1.392 . S
C2027 H2039 0.929 . S
C2028 C2024 1.531 . S
C2028 H2040 0.960 . S
C2028 H2041 0.962 . S
C2028 H2042 0.960 . S
C2029 C2026 1.511 . S
C2029 H2043 0.961 . S
C2029 H2044 0.961 . S
C2029 H2045 0.961 . S
C2030 C2031 1.370 . S
C2030 C2032 1.363 . S
C2030 H2046 0.931 . S
C2031 C2030 1.370 . S
C2031 C2035 1.408 . S
C2032 C2030 1.363 . S
C2032 C2033 1.370 . S
C2032 C2036 1.524 . S
C2033 C2025 1.503 . S
C2033 C2032 1.370 . S
C2033 C2034 1.403 . S
C2034 C2033 1.403 . S
C2034 C2035 1.404 . S
C2034 C2037 1.539 . S
C2035 C2031 1.408 . S
C2035 C2034 1.404 . S
C2035 H2047 0.930 . S
C2036 C2032 1.524 . S
C2036 H2048 0.956 . S
C2036 H2049 0.961 . S
C2036 H2050 0.961 . S
C2037 C2034 1.539 . S
C2037 H2051 0.958 . S
C2037 H2052 0.961 . S
C2037 H2053 0.960 . S
H2038 C2022 0.931 . S
H2039 C2027 0.929 . S
H2040 C2028 0.960 . S
H2041 C2028 0.962 . S
H2042 C2028 0.960 . S
H2043 C2029 0.961 . S
H2044 C2029 0.961 . S
H2045 C2029 0.961 . S
H2046 C2030 0.931 . S
H2047 C2035 0.930 . S
H2048 C2036 0.956 . S
H2049 C2036 0.961 . S
H2050 C2036 0.961 . S
H2051 C2037 0.958 . S
H2052 C2037 0.961 . S
H2053 C2037 0.960 . S
C527 C347 2.401 . S
C519 C18 2.491 . S
C559 C348 2.728 . S
C551 C59 2.732 . S
C591 C342 1.307 . S
C583 C98 1.316 . S
C615 C125 0.564 . S
C623 C341 0.613 . S
C647 C169 2.633 . S
C655 C344 2.620 . S
C687 C346 1.151 . S
C679 C218 1.192 . S
C711 C255 0.816 . S
C719 C345 0.851 . S
C743 C288 2.478 . S
C751 C343 2.367 . S
C783 C378 0.835 . S
C775 C15 0.807 . S
C807 C45 0.726 . S
C815 C409 0.301 . S
C847 C377 0.346 . S
C839 C95 0.205 . S
C879 C412 0.962 . S
C871 C128 0.943 . S
C903 C178 1.282 . S
C911 C375 1.191 . S
C943 C407 1.516 . S
C935 C215 1.537 . S
C967 C249 2.097 . S
C975 C380 2.179 . S
C999 C299 2.040 . S
C1007 C414 2.005 . S
C1031 C9 2.744 . S
C1039 C410 2.710 . S
C1063 C175 0.496 . S
C1071 C413 0.363 . S
C1103 C381 1.514 . S
C1095 C209 1.548 . S
C1135 C408 1.448 1_556 S
C1127 C258 1.523 . S
C1159 C285 1.396 . S
C1167 C374 1.401 . S
C1191 C89 3.136 . S
C1199 C411 3.170 . S
C1231 C376 2.438 . S
C1223 C139 2.490 . S
C1255 C48 1.733 . S
C1263 C379 1.729 . S
C1287 C298 2.460 . S
C1295 C446 2.355 . S
C1319 C179 2.180 . S
C1327 C447 2.171 . S
C1359 C441 1.316 . S
C1351 C208 1.363 . S
C1391 C440 1.061 . S
C1383 C245 1.050 . S
C1415 C49 2.299 . S
C1423 C443 2.299 . S
C1455 C445 1.224 . S
C1447 C88 1.246 . S
C1479 C135 0.919 . S
C1487 C444 0.951 . S
C1511 C8 2.458 . S
C1519 C442 2.330 . S
C1543 C295 1.365 . S
C1551 C480 1.332 . S
C1583 C512 0.654 . S
C1575 C165 0.579 . S
C1607 C219 1.632 . S
C1615 C473 1.640 . S
C1639 C248 1.813 . S
C1647 C507 1.833 . S
C1679 C478 1.508 . S
C1671 C58 1.544 . S
C1703 C99 3.341 . S
C1711 C509 3.285 . S
C1743 C475 2.667 . S
C1735 C129 2.681 . S
C1775 C510 2.679 . S
C1767 C19 2.617 . S
C1807 C506 1.987 . S
C1799 C289 1.930 . S
C1831 C55 0.786 . S
C1839 C508 0.697 . S
C1863 C85 0.290 . S
C1871 C477 0.171 . S
C1903 C511 1.263 . S
C1895 C138 1.287 . S
C1927 C5 0.836 . S
C1935 C476 0.772 . S
C1959 C205 1.699 . S
C1967 C513 1.623 . S
C1999 C479 2.282 . S
C1991 C259 2.309 . S
C2031 C474 1.053 . S
C2023 C168 1.019 . S
