# Generated by pormake.
# Topology gar, (4,6)-cn, num edge types: 1
# Building blocks:
#     Node 0, Type 0, BuildingBlock: UXUYUI_clean_sbu_0, # of connection points: 4
#     Node 1, Type 0, BuildingBlock: UXUYUI_clean_sbu_0, # of connection points: 4
#     Node 2, Type 0, BuildingBlock: UXUYUI_clean_sbu_0, # of connection points: 4
#     Node 3, Type 0, BuildingBlock: UXUYUI_clean_sbu_0, # of connection points: 4
#     Node 4, Type 0, BuildingBlock: UXUYUI_clean_sbu_0, # of connection points: 4
#     Node 5, Type 0, BuildingBlock: UXUYUI_clean_sbu_0, # of connection points: 4
#     Node 6, Type 0, BuildingBlock: UXUYUI_clean_sbu_0, # of connection points: 4
#     Node 7, Type 0, BuildingBlock: UXUYUI_clean_sbu_0, # of connection points: 4
#     Node 8, Type 0, BuildingBlock: UXUYUI_clean_sbu_0, # of connection points: 4
#     Node 9, Type 0, BuildingBlock: UXUYUI_clean_sbu_0, # of connection points: 4
#     Node 10, Type 0, BuildingBlock: UXUYUI_clean_sbu_0, # of connection points: 4
#     Node 11, Type 0, BuildingBlock: UXUYUI_clean_sbu_0, # of connection points: 4
#     Node 12, Type 0, BuildingBlock: UXUYUI_clean_sbu_0, # of connection points: 4
#     Node 13, Type 0, BuildingBlock: UXUYUI_clean_sbu_0, # of connection points: 4
#     Node 14, Type 0, BuildingBlock: UXUYUI_clean_sbu_0, # of connection points: 4
#     Node 15, Type 0, BuildingBlock: UXUYUI_clean_sbu_0, # of connection points: 4
#     Node 16, Type 0, BuildingBlock: UXUYUI_clean_sbu_0, # of connection points: 4
#     Node 17, Type 0, BuildingBlock: UXUYUI_clean_sbu_0, # of connection points: 4
#     Node 18, Type 0, BuildingBlock: UXUYUI_clean_sbu_0, # of connection points: 4
#     Node 19, Type 0, BuildingBlock: UXUYUI_clean_sbu_0, # of connection points: 4
#     Node 20, Type 0, BuildingBlock: UXUYUI_clean_sbu_0, # of connection points: 4
#     Node 21, Type 0, BuildingBlock: UXUYUI_clean_sbu_0, # of connection points: 4
#     Node 22, Type 0, BuildingBlock: UXUYUI_clean_sbu_0, # of connection points: 4
#     Node 23, Type 0, BuildingBlock: UXUYUI_clean_sbu_0, # of connection points: 4
#     Node 24, Type 1, BuildingBlock: BETDAH_clean_sbu_0, # of connection points: 6
#     Node 25, Type 1, BuildingBlock: BETDAH_clean_sbu_0, # of connection points: 6
#     Node 26, Type 1, BuildingBlock: BETDAH_clean_sbu_0, # of connection points: 6
#     Node 27, Type 1, BuildingBlock: BETDAH_clean_sbu_0, # of connection points: 6
#     Node 28, Type 1, BuildingBlock: BETDAH_clean_sbu_0, # of connection points: 6
#     Node 29, Type 1, BuildingBlock: BETDAH_clean_sbu_0, # of connection points: 6
#     Node 30, Type 1, BuildingBlock: BETDAH_clean_sbu_0, # of connection points: 6
#     Node 31, Type 1, BuildingBlock: BETDAH_clean_sbu_0, # of connection points: 6
#     Node 32, Type 1, BuildingBlock: BETDAH_clean_sbu_0, # of connection points: 6
#     Node 33, Type 1, BuildingBlock: BETDAH_clean_sbu_0, # of connection points: 6
#     Node 34, Type 1, BuildingBlock: BETDAH_clean_sbu_0, # of connection points: 6
#     Node 35, Type 1, BuildingBlock: BETDAH_clean_sbu_0, # of connection points: 6
#     Node 36, Type 1, BuildingBlock: BETDAH_clean_sbu_0, # of connection points: 6
#     Node 37, Type 1, BuildingBlock: BETDAH_clean_sbu_0, # of connection points: 6
#     Node 38, Type 1, BuildingBlock: BETDAH_clean_sbu_0, # of connection points: 6
#     Node 39, Type 1, BuildingBlock: BETDAH_clean_sbu_0, # of connection points: 6
#     Edge 40, Type (0, 1), None
#     Edge 41, Type (0, 1), None
#     Edge 42, Type (0, 1), None
#     Edge 43, Type (0, 1), None
#     Edge 44, Type (0, 1), None
#     Edge 45, Type (0, 1), None
#     Edge 46, Type (0, 1), None
#     Edge 47, Type (0, 1), None
#     Edge 48, Type (0, 1), None
#     Edge 49, Type (0, 1), None
#     Edge 50, Type (0, 1), None
#     Edge 51, Type (0, 1), None
#     Edge 52, Type (0, 1), None
#     Edge 53, Type (0, 1), None
#     Edge 54, Type (0, 1), None
#     Edge 55, Type (0, 1), None
#     Edge 56, Type (0, 1), None
#     Edge 57, Type (0, 1), None
#     Edge 58, Type (0, 1), None
#     Edge 59, Type (0, 1), None
#     Edge 60, Type (0, 1), None
#     Edge 61, Type (0, 1), None
#     Edge 62, Type (0, 1), None
#     Edge 63, Type (0, 1), None
#     Edge 64, Type (0, 1), None
#     Edge 65, Type (0, 1), None
#     Edge 66, Type (0, 1), None
#     Edge 67, Type (0, 1), None
#     Edge 68, Type (0, 1), None
#     Edge 69, Type (0, 1), None
#     Edge 70, Type (0, 1), None
#     Edge 71, Type (0, 1), None
#     Edge 72, Type (0, 1), None
#     Edge 73, Type (0, 1), None
#     Edge 74, Type (0, 1), None
#     Edge 75, Type (0, 1), None
#     Edge 76, Type (0, 1), None
#     Edge 77, Type (0, 1), None
#     Edge 78, Type (0, 1), None
#     Edge 79, Type (0, 1), None
#     Edge 80, Type (0, 1), None
#     Edge 81, Type (0, 1), None
#     Edge 82, Type (0, 1), None
#     Edge 83, Type (0, 1), None
#     Edge 84, Type (0, 1), None
#     Edge 85, Type (0, 1), None
#     Edge 86, Type (0, 1), None
#     Edge 87, Type (0, 1), None
#     Edge 88, Type (0, 1), None
#     Edge 89, Type (0, 1), None
#     Edge 90, Type (0, 1), None
#     Edge 91, Type (0, 1), None
#     Edge 92, Type (0, 1), None
#     Edge 93, Type (0, 1), None
#     Edge 94, Type (0, 1), None
#     Edge 95, Type (0, 1), None
#     Edge 96, Type (0, 1), None
#     Edge 97, Type (0, 1), None
#     Edge 98, Type (0, 1), None
#     Edge 99, Type (0, 1), None
#     Edge 100, Type (0, 1), None
#     Edge 101, Type (0, 1), None
#     Edge 102, Type (0, 1), None
#     Edge 103, Type (0, 1), None
#     Edge 104, Type (0, 1), None
#     Edge 105, Type (0, 1), None
#     Edge 106, Type (0, 1), None
#     Edge 107, Type (0, 1), None
#     Edge 108, Type (0, 1), None
#     Edge 109, Type (0, 1), None
#     Edge 110, Type (0, 1), None
#     Edge 111, Type (0, 1), None
#     Edge 112, Type (0, 1), None
#     Edge 113, Type (0, 1), None
#     Edge 114, Type (0, 1), None
#     Edge 115, Type (0, 1), None
#     Edge 116, Type (0, 1), None
#     Edge 117, Type (0, 1), None
#     Edge 118, Type (0, 1), None
#     Edge 119, Type (0, 1), None
#     Edge 120, Type (0, 1), None
#     Edge 121, Type (0, 1), None
#     Edge 122, Type (0, 1), None
#     Edge 123, Type (0, 1), None
#     Edge 124, Type (0, 1), None
#     Edge 125, Type (0, 1), None
#     Edge 126, Type (0, 1), None
#     Edge 127, Type (0, 1), None
#     Edge 128, Type (0, 1), None
#     Edge 129, Type (0, 1), None
#     Edge 130, Type (0, 1), None
#     Edge 131, Type (0, 1), None
#     Edge 132, Type (0, 1), None
#     Edge 133, Type (0, 1), None
#     Edge 134, Type (0, 1), None
#     Edge 135, Type (0, 1), None
# Relax obj value: 0.300
# Max RMSD: 0.351
# Mean RMSD: 0.217
data_MOF--net-gar--node1-UXUYUI_clean_sbu_0--node2-BETDAH_clean_sbu_0--edge1-none
_symmetry_space_group_name_H-M    P1
_symmetry_Int_Tables_number       1
_symmetry_cell_setting            triclinic
loop_
_symmetry_equiv_pos_as_xyz
'x, y, z'
_cell_length_a     45.199224
_cell_length_b     39.939219
_cell_length_c     40.019359
_cell_angle_alpha  100.90286
_cell_angle_beta   96.315184
_cell_angle_gamma 103.95343
loop_
_atom_site_label
_atom_site_type_symbol
_atom_site_fract_x
_atom_site_fract_y
_atom_site_fract_z
_atom_type_partial_charge
Li0 Li 0.14041 0.37404 0.36667 0.0
Li1 Li 0.16934 0.42051 0.41708 0.0
Li2 Li 0.19583 0.38256 0.38025 0.0
Li3 Li 0.16341 0.35902 0.41993 0.0
C4 C 0.18226 0.43881 0.3478 0.0
N5 N 0.19725 0.48554 0.30599 0.0
C6 C 0.19617 0.47457 0.36243 0.0
C7 C 0.1764 0.42665 0.31203 0.0
C8 C 0.20356 0.49784 0.34081 0.0
C9 C 0.18426 0.45071 0.29131 0.0
C10 C 0.11233 0.39544 0.43505 0.0
C11 C 0.10063 0.41302 0.49208 0.0
N12 N 0.07518 0.42116 0.47808 0.0
C13 C 0.08595 0.40374 0.4212 0.0
C14 C 0.11964 0.3999 0.47075 0.0
C15 C 0.06751 0.4168 0.4434 0.0
C16 C 0.08534 0.3342 0.32192 0.0
N17 N 0.10651 0.36604 0.33347 0.0
C18 C 0.07253 0.39617 0.31089 0.0
C19 C 0.10116 0.39645 0.32732 0.0
C20 C 0.04911 0.36428 0.30124 0.0
C21 C 0.05616 0.33265 0.30519 0.0
H22 H 0.09025 0.31068 0.32813 0.0
H23 H 0.11804 0.42146 0.33823 0.0
C24 C 0.17735 0.47472 0.47541 0.0
N25 N 0.16537 0.46426 0.44138 0.0
C26 C 0.16438 0.49631 0.49743 0.0
C27 C 0.12952 0.49951 0.44845 0.0
C28 C 0.14303 0.47742 0.42726 0.0
C29 C 0.13912 0.5073 0.48414 0.0
H30 H 0.19473 0.46348 0.48593 0.0
H31 H 0.13337 0.46767 0.40019 0.0
C32 C 0.15982 0.31003 0.34418 0.0
N33 N 0.15556 0.25401 0.28989 0.0
C34 C 0.16012 0.27684 0.35042 0.0
C35 C 0.15723 0.31473 0.31039 0.0
C36 C 0.15816 0.2489 0.32262 0.0
C37 C 0.15499 0.28604 0.28326 0.0
C38 C 0.22199 0.39454 0.4584 0.0
C39 C 0.2494 0.38581 0.45248 0.0
C40 C 0.2152 0.40038 0.49191 0.0
C41 C 0.26966 0.38323 0.48025 0.0
C42 C 0.23606 0.39755 0.519 0.0
N43 N 0.26267 0.38926 0.51265 0.0
C44 C 0.2452 0.4 0.34045 0.0
C45 C 0.23424 0.34432 0.35585 0.0
C46 C 0.26695 0.39053 0.32078 0.0
N47 N 0.22927 0.37669 0.35721 0.0
C48 C 0.25482 0.33343 0.33582 0.0
C49 C 0.27137 0.35653 0.31783 0.0
H50 H 0.24093 0.42568 0.34204 0.0
H51 H 0.22188 0.32673 0.37018 0.0
C52 C 0.12489 0.31444 0.45083 0.0
N53 N 0.15503 0.32585 0.44749 0.0
C54 C 0.11607 0.29033 0.47116 0.0
C55 C 0.16922 0.28837 0.48251 0.0
C56 C 0.1771 0.31287 0.46216 0.0
C57 C 0.13844 0.27736 0.4877 0.0
H58 H 0.10761 0.32401 0.43757 0.0
H59 H 0.20071 0.32139 0.458 0.0
O60 O 0.17287 0.41619 0.36843 0.0
O61 O 0.13076 0.38273 0.41371 0.0
O62 O 0.16218 0.33772 0.37121 0.0
O63 O 0.2028 0.39912 0.43175 0.0
H64 H 0.20086 0.4843 0.39014 0.0
H65 H 0.16549 0.39906 0.30038 0.0
H66 H 0.2143 0.52565 0.35172 0.0
H67 H 0.18 0.44163 0.26359 0.0
H68 H 0.10611 0.41676 0.51976 0.0
H69 H 0.07982 0.40026 0.39363 0.0
H70 H 0.13981 0.39334 0.48187 0.0
H71 H 0.04709 0.42347 0.43305 0.0
H72 H 0.06799 0.42128 0.30927 0.0
H73 H 0.03862 0.30757 0.29801 0.0
H74 H 0.17248 0.50212 0.52495 0.0
H75 H 0.1099 0.5073 0.43752 0.0
H76 H 0.16211 0.27283 0.3765 0.0
H77 H 0.15689 0.34021 0.30519 0.0
H78 H 0.15858 0.22312 0.32706 0.0
H79 H 0.15288 0.28926 0.25694 0.0
H80 H 0.25523 0.38165 0.42681 0.0
H81 H 0.1941 0.40703 0.49702 0.0
H82 H 0.29104 0.37667 0.4761 0.0
H83 H 0.23116 0.40205 0.54508 0.0
H84 H 0.2798 0.40927 0.30775 0.0
H85 H 0.25828 0.30741 0.33519 0.0
H86 H 0.09192 0.28156 0.47351 0.0
H87 H 0.18701 0.2784 0.49422 0.0
Li88 Li 0.03308 0.79202 0.64902 0.0
Li89 Li 0.05342 0.77627 0.70316 0.0
Li90 Li 0.02535 0.73 0.65311 0.0
Li91 Li 0.99835 0.76643 0.68746 0.0
C92 C 0.08171 0.75552 0.6334 0.0
N93 N 0.11595 0.73088 0.58607 0.0
C94 C 0.11078 0.75154 0.64463 0.0
C95 C 0.07008 0.74719 0.59812 0.0
C96 C 0.12774 0.73902 0.62027 0.0
C97 C 0.08774 0.73468 0.5746 0.0
C98 C 0.03265 0.83729 0.72664 0.0
C99 C 0.03213 0.85398 0.7876 0.0
N100 N 0.03327 0.88761 0.78458 0.0
C101 C 0.03406 0.87204 0.72413 0.0
C102 C 0.03167 0.82808 0.75855 0.0
C103 C 0.03413 0.89705 0.7537 0.0
C104 C 1.01983 0.83927 0.60927 0.0
N105 N 0.04202 0.82511 0.62171 0.0
C106 C 0.07955 0.85924 0.59531 0.0
C107 C 0.07156 0.83511 0.61584 0.0
C108 C 0.05707 0.87387 0.58149 0.0
C109 C 0.02704 0.8643 0.5893 0.0
H110 H 0.99667 0.83123 0.61503 0.0
H111 H 0.08899 0.82444 0.6272 0.0
C112 C 0.09181 0.75467 0.74362 0.0
N113 N 0.08657 0.78501 0.73722 0.0
C114 C 0.12029 0.75505 0.76048 0.0
C115 C 0.13664 0.8186 0.76615 0.0
C116 C 0.1076 0.81692 0.74898 0.0
C117 C 0.14367 0.78698 0.77024 0.0
H118 H 0.07493 0.72965 0.73263 0.0
H119 H 0.10274 0.84036 0.74251 0.0
C120 C 0.96873 0.73201 0.6135 0.0
N121 N 0.91702 0.68939 0.56822 0.0
C122 C 0.94488 0.71079 0.62571 0.0
C123 C 0.96626 0.73176 0.57832 0.0
C124 C 0.91882 0.6896 0.60242 0.0
C125 C 0.94003 0.70978 0.55579 0.0
C126 C 1.00705 0.70692 0.71562 0.0
C127 C 0.98792 0.67555 0.6944 0.0
C128 C 1.01304 0.71009 0.75122 0.0
C129 C 0.97534 0.64753 0.70924 0.0
C130 C 1.0 0.68149 0.76504 0.0
N131 N 0.9817 0.65104 0.74391 0.0
C132 C 0.05545 0.67605 0.64198 0.0
C133 C 1.01295 0.66838 0.59833 0.0
C134 C 0.06603 0.65024 0.62148 0.0
N135 N 0.03019 0.68567 0.62943 0.0
C136 C 1.02212 0.6419 0.5775 0.0
C137 C 0.04986 0.63387 0.58822 0.0
H138 H 0.06889 0.69051 0.6668 0.0
H139 H 0.99327 0.67661 0.58866 0.0
C140 C 0.95856 0.80444 0.71021 0.0
N141 N 0.96388 0.77225 0.70913 0.0
C142 C 0.93799 0.81528 0.73039 0.0
C143 C 0.92636 0.75838 0.7458 0.0
C144 C 0.94807 0.74901 0.72607 0.0
C145 C 0.92178 0.79227 0.74873 0.0
H146 H 0.971 0.82215 0.69603 0.0
H147 H 0.95247 0.72346 0.72475 0.0
O148 O 0.06454 0.76709 0.65692 0.0
O149 O 0.03172 0.81237 0.69772 0.0
O150 O 0.99387 0.75404 0.63594 0.0
O151 O 1.02121 0.73383 0.70154 0.0
H152 H 0.12004 0.75787 0.67188 0.0
H153 H 0.04754 0.75003 0.58907 0.0
H154 H 0.15024 0.73569 0.62857 0.0
H155 H 0.07898 0.72791 0.54723 0.0
H156 H 0.03143 0.8473 0.81252 0.0
H157 H 0.03476 0.87947 0.69951 0.0
H158 H 0.03044 0.8012 0.76079 0.0
H159 H 0.03496 0.92399 0.75212 0.0
H160 H 0.10318 0.86681 0.59075 0.0
H161 H 1.00934 0.87575 0.57984 0.0
H162 H 0.12481 0.72996 0.76222 0.0
H163 H 0.15414 0.84373 0.77342 0.0
H164 H 0.94635 0.7109 0.65289 0.0
H165 H 0.98445 0.74833 0.56857 0.0
H166 H 0.90008 0.6732 0.61152 0.0
H167 H 0.93787 0.7091 0.52847 0.0
H168 H 0.98308 0.6727 0.66678 0.0
H169 H 0.02784 0.73426 0.76791 0.0
H170 H 0.96067 0.62294 0.6932 0.0
H171 H 1.00452 0.68342 0.79253 0.0
H172 H 0.08745 0.64481 0.63067 0.0
H173 H 1.00866 0.62959 0.55212 0.0
H174 H 0.93439 0.84125 0.73104 0.0
H175 H 0.91376 0.73968 0.75904 0.0
Li176 Li 0.63895 0.8715 0.86558 0.0
Li177 Li 0.66685 0.91917 0.91588 0.0
Li178 Li 0.69447 0.88157 0.87978 0.0
Li179 Li 0.66209 0.85795 0.9193 0.0
C180 C 0.68125 0.93757 0.84749 0.0
N181 N 0.69872 0.98571 0.80767 0.0
C182 C 0.69533 0.97305 0.86321 0.0
C183 C 0.67639 0.92643 0.81163 0.0
C184 C 0.70397 0.99705 0.84258 0.0
C185 C 0.68552 0.95118 0.79193 0.0
C186 C 0.60978 0.89076 0.93404 0.0
C187 C 0.59888 0.90799 0.99149 0.0
N188 N 0.57098 0.91105 0.97787 0.0
C189 C 0.58095 0.89389 0.92059 0.0
C190 C 0.61878 0.89768 0.96976 0.0
C191 C 0.56168 0.90424 0.94319 0.0
C192 C 0.58368 0.83112 0.82133 0.0
N193 N 0.60506 0.86287 0.83228 0.0
C194 C 0.57133 0.89289 0.809 0.0
C195 C 0.59989 0.89316 0.82557 0.0
C196 C 0.54775 0.86115 0.79986 0.0
C197 C 0.55452 0.82958 0.80454 0.0
H198 H 0.58842 0.80774 0.82809 0.0
H199 H 0.61691 0.91815 0.83608 0.0
C200 C 0.67926 0.97971 0.97043 0.0
N201 N 0.66172 0.96273 0.93941 0.0
C202 C 0.6695 1.00487 0.99236 0.0
C203 C 0.62494 0.99638 0.94909 0.0
C204 C 0.63582 0.97161 0.92774 0.0
C205 C 0.64126 1.01215 0.98239 0.0
H206 H 0.69966 0.97207 0.97905 0.0
H207 H 0.62222 0.95727 0.90296 0.0
C208 C 0.65909 0.80895 0.84327 0.0
N209 N 0.65478 0.75418 0.78773 0.0
C210 C 0.65887 0.77528 0.84847 0.0
C211 C 0.65702 0.81478 0.80988 0.0
C212 C 0.6569 0.74797 0.82006 0.0
C213 C 0.65473 0.7867 0.7821 0.0
C214 C 0.71982 0.89536 0.95872 0.0
C215 C 0.74557 0.88266 0.95345 0.0
C216 C 0.71432 0.90591 0.99229 0.0
C217 C 0.76533 0.88056 0.98191 0.0
C218 C 0.73465 0.90346 0.02007 0.0
N219 N 0.75955 0.89103 1.01433 0.0
C220 C 0.74465 0.89971 0.84079 0.0
C221 C 0.73336 0.84374 0.85553 0.0
C222 C 0.76662 0.89044 0.82131 0.0
N223 N 0.72843 0.87616 0.85713 0.0
C224 C 0.75415 0.83305 0.83567 0.0
C225 C 0.77099 0.85639 0.8181 0.0
H226 H 0.74043 0.92544 0.84254 0.0
H227 H 0.72081 0.82591 0.8695 0.0
C228 C 0.6236 0.81251 0.94945 0.0
N229 N 0.6539 0.82523 0.94738 0.0
C230 C 0.61483 0.7886 0.97 0.0
C231 C 0.66846 0.78946 0.98415 0.0
C232 C 0.67625 0.81372 0.96357 0.0
C233 C 0.63746 0.77715 0.98802 0.0
H234 H 0.60615 0.82079 0.93496 0.0
H235 H 0.70001 0.82309 0.96035 0.0
O236 O 0.67069 0.91425 0.86708 0.0
O237 O 0.62899 0.88075 0.91228 0.0
O238 O 0.66152 0.83603 0.87091 0.0
O239 O 0.70094 0.89891 0.93122 0.0
H240 H 0.69917 0.98203 0.89099 0.0
H241 H 0.66531 0.89909 0.79912 0.0
H242 H 0.71478 1.02468 0.85431 0.0
H243 H 0.68209 0.94292 0.76416 0.0
H244 H 0.60559 0.91352 0.01919 0.0
H245 H 0.57357 0.88847 0.89299 0.0
H246 H 0.64086 0.89502 0.98054 0.0
H247 H 0.53933 0.90686 0.93316 0.0
H248 H 0.56698 0.91797 0.80686 0.0
H249 H 0.53679 0.80465 0.79787 0.0
H250 H 0.683 1.01688 1.01777 0.0
H251 H 0.60316 1.00139 0.94052 0.0
H252 H 0.66048 0.7704 0.87424 0.0
H253 H 0.65712 0.84066 0.80549 0.0
H254 H 0.65692 0.72182 0.8237 0.0
H255 H 0.653 0.79079 0.75608 0.0
H256 H 0.75039 0.87475 0.92771 0.0
H257 H 0.69471 0.91609 0.99691 0.0
H258 H 0.78534 0.87075 0.97826 0.0
H259 H 0.73072 0.91157 0.04619 0.0
H260 H 0.77966 0.90937 0.80861 0.0
H261 H 0.75751 0.80696 0.83483 0.0
H262 H 0.59056 0.77877 0.97133 0.0
H263 H 0.68646 0.78063 0.99701 0.0
Li264 Li 0.53327 0.29332 0.14926 0.0
Li265 Li 0.55357 0.27696 0.20313 0.0
Li266 Li 0.52539 0.23127 0.15265 0.0
Li267 Li 0.49852 0.26733 0.18732 0.0
C268 C 0.58209 0.25661 0.1337 0.0
N269 N 0.61673 0.23155 0.08707 0.0
C270 C 0.61078 0.25191 0.14541 0.0
C271 C 0.57109 0.24883 0.0983 0.0
C272 C 0.62794 0.23918 0.1214 0.0
C273 C 0.58892 0.23608 0.07514 0.0
C274 C 0.53278 0.33808 0.22699 0.0
C275 C 0.53227 0.35463 0.28797 0.0
N276 N 0.5333 0.38826 0.28501 0.0
C277 C 0.53407 0.37281 0.22454 0.0
C278 C 0.53187 0.32881 0.25888 0.0
C279 C 0.53409 0.39776 0.25415 0.0
C280 C 0.52004 0.34041 0.10948 0.0
N281 N 0.54227 0.32648 0.12219 0.0
C282 C 0.57985 0.36045 0.09577 0.0
C283 C 0.57185 0.33651 0.11647 0.0
C284 C 0.55732 0.37481 0.08163 0.0
C285 C 0.52726 0.36524 0.08933 0.0
H286 H 0.49684 0.33227 0.11509 0.0
H287 H 0.58928 0.32594 0.128 0.0
C288 C 0.59199 0.25486 0.24316 0.0
N289 N 0.58671 0.28531 0.23713 0.0
C290 C 0.62051 0.25511 0.25982 0.0
C291 C 0.63683 0.31874 0.26605 0.0
C292 C 0.60774 0.31719 0.24907 0.0
C293 C 0.64389 0.28704 0.26975 0.0
H294 H 0.57512 0.22987 0.23198 0.0
H295 H 0.60286 0.34073 0.24288 0.0
C296 C 0.46876 0.23331 0.11361 0.0
N297 N 0.41679 0.19047 0.06891 0.0
C298 C 0.44546 0.21153 0.12604 0.0
C299 C 0.46563 0.23346 0.0785 0.0
C300 C 0.41923 0.19027 0.10305 0.0
C301 C 0.43929 0.21135 0.05625 0.0
C302 C 0.50788 0.20777 0.21563 0.0
C303 C 0.48952 0.17565 0.19494 0.0
C304 C 0.51407 0.21182 0.25134 0.0
C305 C 0.47812 0.14772 0.2104 0.0
C306 C 0.50216 0.1833 0.2658 0.0
N307 N 0.48481 0.15207 0.24516 0.0
C308 C 0.55495 0.1772 0.14168 0.0
C309 C 0.51404 0.17114 0.09661 0.0
C310 C 0.56619 0.15207 0.12118 0.0
N311 N 0.53018 0.18729 0.12852 0.0
C312 C 0.52397 0.14544 0.07564 0.0
C313 C 0.55124 0.13694 0.08724 0.0
H314 H 0.56755 0.19086 0.16711 0.0
H315 H 0.49474 0.17976 0.08649 0.0
C316 C 0.4587 0.30495 0.21024 0.0
N317 N 0.46411 0.2728 0.20903 0.0
C318 C 0.43812 0.3156 0.2305 0.0
C319 C 0.42673 0.2586 0.24574 0.0
C320 C 0.44844 0.24941 0.22592 0.0
C321 C 0.42204 0.29244 0.2488 0.0
H322 H 0.47107 0.32276 0.19611 0.0
H323 H 0.45297 0.2239 0.22448 0.0
O324 O 0.5647 0.26836 0.15687 0.0
O325 O 0.53195 0.31324 0.19805 0.0
O326 O 0.49401 0.25547 0.13577 0.0
O327 O 0.52121 0.23452 0.2009 0.0
H328 H 0.61957 0.25782 0.17275 0.0
H329 H 0.54885 0.25223 0.08888 0.0
H330 H 0.65013 0.23527 0.13007 0.0
H331 H 0.58063 0.22971 0.04768 0.0
H332 H 0.53162 0.34791 0.31287 0.0
H333 H 0.53473 0.38029 0.19994 0.0
H334 H 0.53075 0.30195 0.26108 0.0
H335 H 0.53485 0.4247 0.25262 0.0
H336 H 0.6035 0.36803 0.09128 0.0
H337 H 0.50953 0.37652 0.07961 0.0
H338 H 0.62505 0.22997 0.26127 0.0
H339 H 0.65433 0.34387 0.27344 0.0
H340 H 0.44747 0.21127 0.15316 0.0
H341 H 0.48341 0.25044 0.06857 0.0
H342 H 0.40087 0.17349 0.11234 0.0
H343 H 0.43663 0.21097 0.02898 0.0
H344 H 0.48446 0.17217 0.16725 0.0
H345 H 0.52824 0.23659 0.26762 0.0
H346 H 0.4641 0.12254 0.19481 0.0
H347 H 0.50681 0.18592 0.29337 0.0
H348 H 0.58718 0.14615 0.13105 0.0
H349 H 0.51143 0.13402 0.0497 0.0
H350 H 0.43443 0.34154 0.23126 0.0
H351 H 0.41422 0.2398 0.25895 0.0
Li352 Li 0.14557 0.88296 0.10795 0.0
Li353 Li 0.18245 0.85645 0.15202 0.0
Li354 Li 0.13988 0.81497 0.10403 0.0
Li355 Li 0.12425 0.85071 0.15329 0.0
C356 C 0.18949 0.83585 0.07339 0.0
N357 N 0.21175 0.79786 0.02154 0.0
C358 C 0.21824 0.82913 0.08009 0.0
C359 C 0.17227 0.82379 0.04021 0.0
C360 C 0.22902 0.80969 0.05358 0.0
C361 C 0.18389 0.80454 1.01435 0.0
C362 C 0.15589 0.91883 0.18883 0.0
C363 C 0.15802 0.93699 0.25023 0.0
N364 N 0.14794 0.96545 0.24543 0.0
C365 C 0.14572 0.94837 0.18448 0.0
C366 C 0.16225 0.91316 0.22194 0.0
C367 C 0.14177 0.97159 0.21343 0.0
C368 C 0.1078 0.92213 0.07358 0.0
N369 N 0.13776 0.9243 0.08625 0.0
C370 C 0.15274 0.98315 0.07424 0.0
C371 C 0.16011 0.95448 0.08663 0.0
C372 C 0.12195 0.98144 0.06097 0.0
C373 C 0.09954 0.94991 0.06072 0.0
H374 H 0.08977 0.89902 0.07413 0.0
H375 H 0.18378 0.9569 0.0973 0.0
C376 C 0.2339 0.82657 0.17268 0.0
N377 N 0.22328 0.85607 0.17997 0.0
C378 C 0.2604 0.82321 0.19295 0.0
C379 C 0.26479 0.88025 0.22869 0.0
C380 C 0.23851 0.88275 0.20756 0.0
C381 C 0.27628 0.85013 0.22183 0.0
H382 H 0.22135 0.80493 0.15145 0.0
H383 H 0.22983 0.90575 0.21391 0.0
C384 C 0.08197 0.8258 0.08011 0.0
N385 N 0.02962 0.79061 0.03208 0.0
C386 C 0.05555 0.80698 0.09045 0.0
C387 C 0.08165 0.82695 0.04538 0.0
C388 C 0.02934 0.7893 0.06576 0.0
C389 C 0.05498 0.80895 0.02149 0.0
C390 C 0.1463 0.79338 0.17528 0.0
C391 C 0.12811 0.75838 0.1643 0.0
C392 C 0.16199 0.80553 0.20918 0.0
C393 C 0.12555 0.73629 0.18762 0.0
C394 C 0.15889 0.78259 0.2317 0.0
N395 N 0.14078 0.74881 0.22058 0.0
C396 C 0.15372 0.74817 0.08212 0.0
C397 C 0.10131 0.74416 0.0638 0.0
C398 C 0.14797 0.71113 0.07198 0.0
N399 N 0.1305 0.76422 0.07836 0.0
C400 C 0.0945 0.70698 0.05351 0.0
C401 C 0.11784 0.68966 0.05805 0.0
H402 H 0.17657 0.76395 0.09471 0.0
H403 H 0.08274 0.75651 0.06152 0.0
C404 C 0.07945 0.87681 0.19023 0.0
N405 N 0.09137 0.84873 0.18122 0.0
C406 C 0.05394 0.8737 0.20766 0.0
C407 C 0.05258 0.81254 0.20507 0.0
C408 C 0.07808 0.8169 0.18798 0.0
C409 C 0.04019 0.84118 0.2155 0.0
H410 H 0.08922 0.90148 0.18327 0.0
H411 H 0.08643 0.79433 0.17895 0.0
O412 O 0.1782 0.85391 0.09932 0.0
O413 O 0.1597 0.89569 0.16079 0.0
O414 O 0.10801 0.84294 0.10382 0.0
O415 O 0.1487 0.81565 0.153 0.0
H416 H 0.23214 0.83895 0.10543 0.0
H417 H 0.15006 0.82892 0.0346 0.0
H418 H 0.2512 0.8042 0.05843 0.0
H419 H 0.17072 0.79483 0.98859 0.0
H420 H 0.16275 0.93285 0.27601 0.0
H421 H 0.14071 0.95316 0.159 0.0
H422 H 0.17024 0.89053 0.22574 0.0
H423 H 0.13376 0.99446 0.21046 0.0
H424 H 0.17108 1.00674 0.07555 0.0
H425 H 0.07543 0.94688 0.0513 0.0
H426 H 0.26767 0.79916 0.18673 0.0
H427 H 0.27573 0.90165 0.25082 0.0
H428 H 0.05533 0.80573 0.11715 0.0
H429 H 0.10173 0.84175 0.03699 0.0
H430 H 1.0088 0.77445 0.07336 0.0
H431 H 0.05445 0.80958 0.99453 0.0
H432 H 0.11549 0.74857 0.13833 0.0
H433 H 0.17637 0.83237 0.21806 0.0
H434 H 0.11134 0.70926 0.17958 0.0
H435 H 0.17086 0.79164 0.25803 0.0
H436 H 0.1669 0.6994 0.07625 0.0
H437 H 0.07092 0.69191 0.04294 0.0
H438 H 0.04516 0.89652 0.21498 0.0
H439 H 0.04223 0.78659 0.20933 0.0
Li440 Li 0.5506 0.83312 0.46001 0.0
Li441 Li 0.50969 0.79073 0.4116 0.0
Li442 Li 0.54534 0.76453 0.45657 0.0
Li443 Li 0.56755 0.79534 0.41114 0.0
C444 C 0.50102 0.80725 0.49204 0.0
N445 N 0.4779 0.83549 0.54863 0.0
C446 C 0.47429 0.81871 0.4875 0.0
C447 C 0.51564 0.80943 0.52529 0.0
C448 C 0.46302 0.83304 0.51646 0.0
C449 C 0.50367 0.82396 0.5536 0.0
C450 C 0.54067 0.8499 0.38576 0.0
C451 C 0.54207 0.85764 0.32762 0.0
N452 N 0.53444 0.88868 0.33647 0.0
C453 C 0.53279 0.88181 0.39426 0.0
C454 C 0.54534 0.83763 0.35219 0.0
C455 C 0.52974 0.90104 0.36899 0.0
C456 C 0.5911 0.90385 0.49102 0.0
N457 N 0.56117 0.88381 0.48563 0.0
C458 C 0.54492 0.93677 0.50375 0.0
C459 C 0.53827 0.89977 0.49212 0.0
C460 C 0.57555 0.95822 0.50902 0.0
C461 C 0.59882 0.94094 0.50306 0.0
H462 H 0.60905 0.89132 0.48454 0.0
H463 H 0.5145 0.88409 0.4865 0.0
C464 C 0.45456 0.76402 0.35461 0.0
N465 N 0.46921 0.79084 0.38235 0.0
C466 C 0.4286 0.76617 0.33267 0.0
C467 C 0.43189 0.82303 0.36803 0.0
C468 C 0.45809 0.82003 0.38913 0.0
C469 C 0.41674 0.79603 0.33888 0.0
H470 H 0.46334 0.74104 0.34886 0.0
H471 H 0.47001 0.8417 0.41061 0.0
C472 C 0.60912 0.81726 0.48449 0.0
N473 N 0.66333 0.84077 0.53155 0.0
C474 C 0.63692 0.81351 0.47416 0.0
C475 C 0.60887 0.83288 0.51877 0.0
C476 C 0.66408 0.82554 0.49835 0.0
C477 C 0.63653 0.84467 0.54215 0.0
C478 C 0.53436 0.7269 0.37578 0.0
C479 C 0.54459 0.69744 0.3803 0.0
C480 C 0.52648 0.73146 0.3425 0.0
C481 C 0.547 0.67312 0.35132 0.0
C482 C 0.52921 0.70655 0.3142 0.0
N483 N 0.53935 0.67816 0.31916 0.0
C484 C 0.53204 0.69235 0.47604 0.0
C485 C 0.58286 0.72809 0.49582 0.0
C486 C 0.5397 0.66398 0.48872 0.0
N487 N 0.55354 0.72403 0.47948 0.0
C488 C 0.59144 0.70049 0.5087 0.0
C489 C 0.56997 0.66743 0.50519 0.0
H490 H 0.50895 0.6885 0.46258 0.0
H491 H 0.60025 0.7526 0.4983 0.0
C492 C 0.61859 0.8319 0.38724 0.0
N493 N 0.60126 0.79839 0.38503 0.0
C494 C 0.64494 0.83792 0.37157 0.0
C495 C 0.63562 0.77479 0.35175 0.0
C496 C 0.60953 0.76998 0.36813 0.0
C497 C 0.65372 0.80919 0.35314 0.0
H498 H 0.61216 0.85405 0.40174 0.0
H499 H 0.59626 0.74351 0.36759 0.0
O500 O 0.51269 0.7937 0.46404 0.0
O501 O 0.54453 0.83119 0.41039 0.0
O502 O 0.58226 0.80566 0.46122 0.0
O503 O 0.53186 0.75097 0.4038 0.0
H504 H 0.46245 0.81667 0.46191 0.0
H505 H 0.53604 0.80005 0.52915 0.0
H506 H 0.44245 0.84222 0.51337 0.0
H507 H 0.51482 0.82602 0.57953 0.0
H508 H 0.54572 0.84856 0.30155 0.0
H509 H 0.52906 0.89166 0.42009 0.0
H510 H 0.55172 0.81312 0.34526 0.0
H511 H 0.52371 0.92583 0.37532 0.0
H512 H 0.52598 0.94851 0.50766 0.0
H513 H 0.62272 0.95602 0.50632 0.0
H514 H 0.41815 0.74465 0.31049 0.0
H515 H 0.42425 0.84687 0.37389 0.0
H516 H 0.63752 0.80121 0.44782 0.0
H517 H 0.58759 0.83616 0.52714 0.0
H518 H 0.68576 0.82274 0.49074 0.0
H519 H 0.6367 0.85696 0.56871 0.0
H520 H 0.5508 0.69355 0.4059 0.0
H521 H 0.5184 0.75402 0.33859 0.0
H522 H 0.55501 0.65029 0.35441 0.0
H523 H 0.52328 0.7098 0.28829 0.0
H524 H 0.52209 0.63919 0.48489 0.0
H525 H 0.6151 0.70498 0.52088 0.0
H526 H 0.65849 0.86492 0.3743 0.0
H527 H 0.64132 0.75177 0.33786 0.0
Li528 Li 0.6457 0.38293 0.60817 0.0
Li529 Li 0.68247 0.35638 0.65231 0.0
Li530 Li 0.64002 0.31493 0.60418 0.0
Li531 Li 0.62424 0.35057 0.65341 0.0
C532 C 0.68963 0.33592 0.57363 0.0
N533 N 0.71181 0.29799 0.52165 0.0
C534 C 0.71833 0.32906 0.58027 0.0
C535 C 0.67243 0.32403 0.54044 0.0
C536 C 0.72907 0.30965 0.55371 0.0
C537 C 0.684 0.3048 0.51451 0.0
C538 C 0.65577 0.41867 0.68904 0.0
C539 C 0.65767 0.43671 0.75042 0.0
N540 N 0.64763 0.4652 0.7456 0.0
C541 C 0.64564 0.44823 0.68467 0.0
C542 C 0.66199 0.41292 0.72215 0.0
C543 C 0.6416 0.4714 0.71361 0.0
C544 C 0.60802 0.42213 0.57375 0.0
N545 N 0.63796 0.42429 0.58646 0.0
C546 C 0.65301 0.48313 0.57443 0.0
C547 C 0.66034 0.45446 0.58686 0.0
C548 C 0.62223 0.48143 0.56113 0.0
C549 C 0.59979 0.44992 0.56087 0.0
H550 H 0.58997 0.39904 0.5743 0.0
H551 H 0.684 0.45686 0.59756 0.0
C552 C 0.73408 0.32672 0.67304 0.0
N553 N 0.72326 0.35607 0.68043 0.0
C554 C 0.76053 0.32341 0.69342 0.0
C555 C 0.76444 0.38012 0.72951 0.0
C556 C 0.73823 0.38261 0.70825 0.0
C557 C 0.77614 0.35018 0.72253 0.0
H558 H 0.72171 0.30517 0.65164 0.0
H559 H 0.72938 0.40548 0.71468 0.0
C560 C 0.58208 0.32576 0.58021 0.0
N561 N 0.52969 0.29062 0.5322 0.0
C562 C 0.55568 0.30691 0.59056 0.0
C563 C 0.58172 0.32697 0.54549 0.0
C564 C 0.52945 0.28925 0.56588 0.0
C565 C 0.55504 0.30899 0.52161 0.0
C566 C 0.64637 0.29315 0.67532 0.0
C567 C 0.62828 0.25812 0.66422 0.0
C568 C 0.66208 0.3052 0.70922 0.0
C569 C 0.62589 0.23587 0.6874 0.0
C570 C 0.65915 0.2821 0.73159 0.0
N571 N 0.64118 0.24827 0.72034 0.0
C572 C 0.65389 0.24814 0.58207 0.0
C573 C 0.60151 0.24421 0.56369 0.0
C574 C 0.64813 0.21111 0.57174 0.0
N575 N 0.63069 0.26422 0.57836 0.0
C576 C 0.5947 0.20704 0.55322 0.0
C577 C 0.61802 0.18969 0.55768 0.0
H578 H 0.67673 0.26387 0.59474 0.0
H579 H 0.58294 0.25657 0.56143 0.0
C580 C 0.5793 0.37656 0.69014 0.0
N581 N 0.59132 0.34854 0.68126 0.0
C582 C 0.55377 0.37342 0.70754 0.0
C583 C 0.5526 0.31235 0.7052 0.0
C584 C 0.57812 0.31673 0.68815 0.0
C585 C 0.54011 0.34094 0.71549 0.0
H586 H 0.58901 0.4012 0.6831 0.0
H587 H 0.58657 0.29421 0.67925 0.0
O588 O 0.67837 0.35392 0.59962 0.0
O589 O 0.65969 0.39558 0.66103 0.0
O590 O 0.60814 0.34288 0.6039 0.0
O591 O 0.6487 0.31552 0.65315 0.0
H592 H 0.73223 0.33876 0.60562 0.0
H593 H 0.65026 0.32927 0.53486 0.0
H594 H 0.75121 0.30405 0.55852 0.0
H595 H 0.67085 0.29522 0.48874 0.0
H596 H 0.66229 0.43251 0.77619 0.0
H597 H 0.64074 0.45307 0.65921 0.0
H598 H 0.66993 0.39026 0.72596 0.0
H599 H 0.63362 0.49429 0.71063 0.0
H600 H 0.67136 0.50671 0.57575 0.0
H601 H 0.5757 0.4469 0.55141 0.0
H602 H 0.76796 0.29948 0.6871 0.0
H603 H 0.77517 0.40139 0.75182 0.0
H604 H 0.55549 0.30561 0.61725 0.0
H605 H 0.60179 0.34179 0.53709 0.0
H606 H 0.50892 0.27438 0.57348 0.0
H607 H 0.55449 0.30967 0.49466 0.0
H608 H 0.61563 0.24838 0.63826 0.0
H609 H 0.67635 0.33209 0.71821 0.0
H610 H 0.61178 0.2088 0.67925 0.0
H611 H 0.67115 0.29107 0.75792 0.0
H612 H 0.66705 0.19935 0.57597 0.0
H613 H 0.57112 0.192 0.54255 0.0
H614 H 0.54492 0.3962 0.71475 0.0
H615 H 0.54232 0.28642 0.70956 0.0
Li616 Li 0.05061 0.33334 0.96018 0.0
Li617 Li 1.00979 0.29105 0.91182 0.0
Li618 Li 0.04539 0.26478 0.95668 0.0
Li619 Li 0.06758 0.29564 0.91125 0.0
C620 C 1.00116 0.30747 0.99228 0.0
N621 N 0.9783 0.33587 0.04901 0.0
C622 C 0.97437 0.31882 0.98786 0.0
C623 C 1.01597 0.30981 0.02549 0.0
C624 C 0.96323 0.33324 1.01689 0.0
C625 C 1.00413 0.32443 0.05388 0.0
C626 C 0.04018 0.3501 0.88587 0.0
C627 C 0.04086 0.35775 0.82762 0.0
N628 N 0.03249 0.38834 0.83642 0.0
C629 C 0.03159 0.38158 0.89435 0.0
C630 C 0.04487 0.33802 0.85227 0.0
C631 C 0.0278 0.40053 0.86898 0.0
C632 C 0.09109 0.40398 0.99153 0.0
N633 N 0.06116 0.38393 0.98599 0.0
C634 C 0.04487 0.4368 1.00438 0.0
C635 C 0.03823 0.39983 0.99252 0.0
C636 C 0.07551 0.45826 1.00982 0.0
C637 C 0.0988 0.44103 1.00378 0.0
H638 H 0.10906 0.3915 0.985 0.0
H639 H 1.01446 0.38416 0.98677 0.0
C640 C 0.95485 0.26437 0.85469 0.0
N641 N 0.96929 0.29104 0.88264 0.0
C642 C 0.92889 0.26651 0.83275 0.0
C643 C 0.93173 0.323 0.86858 0.0
C644 C 0.95794 0.32003 0.88966 0.0
C645 C 0.9168 0.29618 0.83921 0.0
H646 H 0.96381 0.24155 0.84876 0.0
H647 H 0.9697 0.34159 0.9113 0.0
C648 C 0.10919 0.3174 0.98455 0.0
N649 N 0.16349 0.34069 0.03147 0.0
C650 C 0.13693 0.3135 0.97412 0.0
C651 C 0.10905 0.33304 1.01885 0.0
C652 C 0.16413 0.32542 0.99825 0.0
C653 C 0.13675 0.34473 0.04216 0.0
C654 C 0.03441 0.22721 0.87589 0.0
C655 C 0.04447 0.19765 0.88039 0.0
C656 C 0.0267 0.2319 0.84263 0.0
C657 C 0.04687 0.17333 0.8514 0.0
C658 C 0.02942 0.207 0.81431 0.0
N659 N 0.03938 0.17849 0.81925 0.0
C660 C 0.032 0.19261 0.97613 0.0
C661 C 0.08285 0.22826 0.99587 0.0
C662 C 0.0396 0.16422 0.98881 0.0
N663 N 0.05354 0.22425 0.97956 0.0
C664 C 0.09139 0.20063 1.00875 0.0
C665 C 0.06987 0.16761 1.00526 0.0
H666 H 1.00891 0.18881 0.9627 0.0
H667 H 0.10027 0.25274 0.99835 0.0
C668 C 0.11855 0.33213 0.88718 0.0
N669 N 0.10127 0.29863 0.88513 0.0
C670 C 0.14489 0.33809 0.87149 0.0
C671 C 0.13566 0.27493 0.85196 0.0
C672 C 0.10958 0.27018 0.86836 0.0
C673 C 0.15371 0.30932 0.85319 0.0
H674 H 0.11209 0.35431 0.90157 0.0
H675 H 0.09635 0.24373 0.86796 0.0
O676 O 1.01274 0.29389 0.96422 0.0
O677 O 0.04462 0.33159 0.91055 0.0
O678 O 0.08229 0.3059 0.96134 0.0
O679 O 0.03192 0.25128 0.90393 0.0
H680 H 0.96237 0.31663 0.96232 0.0
H681 H 0.03641 0.3005 0.02927 0.0
H682 H 0.94261 0.34235 1.01389 0.0
H683 H 1.01543 0.32662 0.07977 0.0
H684 H 0.04449 0.34879 0.80152 0.0
H685 H 0.02785 0.39128 0.9202 0.0
H686 H 0.0518 0.31386 0.84537 0.0
H687 H 1.02119 0.42496 0.87527 0.0
H688 H 0.02592 0.44851 1.00832 0.0
H689 H 0.1227 0.45613 1.00715 0.0
H690 H 0.91861 0.24515 0.8104 0.0
H691 H 0.92391 0.34669 0.87462 0.0
H692 H 0.13744 0.30117 0.94777 0.0
H693 H 0.08783 0.33645 0.02729 0.0
H694 H 0.18576 0.32251 0.99058 0.0
H695 H 0.13701 0.35705 0.06874 0.0
H696 H 0.05056 0.19366 0.90598 0.0
H697 H 1.01877 0.25456 0.83873 0.0
H698 H 0.05476 0.15041 0.85446 0.0
H699 H 0.0236 0.21033 0.78841 0.0
H700 H 1.02197 0.13945 0.98498 0.0
H701 H 0.11504 0.20508 0.02091 0.0
H702 H 0.15841 0.36508 0.87411 0.0
H703 H 0.14137 0.25188 0.83818 0.0
Li704 Li 0.4953 0.08748 0.37097 0.0
Li705 Li 0.44624 0.04597 0.3424 0.0
Li706 Li 0.48545 0.06966 0.30976 0.0
Li707 Li 0.45646 0.10724 0.33988 0.0
C708 C 0.50539 1.01711 0.33635 0.0
N709 N 0.54126 0.97084 0.32157 0.0
C710 C 0.49168 0.98066 0.32626 0.0
C711 C 0.53744 0.02997 0.3396 0.0
C712 C 0.51013 0.95777 0.31842 0.0
C713 C 0.55518 1.00614 0.33208 0.0
C714 C 0.4314 0.07557 0.40081 0.0
C715 C 0.37821 0.05963 0.40915 0.0
N716 N 0.38715 0.05102 0.43926 0.0
C717 C 0.44006 0.06648 0.43175 0.0
C718 C 0.40023 0.07203 0.38933 0.0
C719 C 0.41734 0.05411 0.45083 0.0
C720 C 0.5526 0.12054 0.41831 0.0
N721 N 0.52644 0.0935 0.40716 0.0
C722 C 0.54611 0.05716 0.43912 0.0
C723 C 0.52252 0.06269 0.41777 0.0
C724 C 0.57349 0.08418 0.45066 0.0
C725 C 0.57684 0.11635 0.44044 0.0
H726 H 0.55502 0.14488 0.40968 0.0
H727 H 0.50139 0.04178 0.40838 0.0
C728 C 0.41093 0.98629 0.30332 0.0
N729 N 0.41771 1.00264 0.33724 0.0
C730 C 0.39416 0.95139 0.29293 0.0
C731 C 0.39172 0.94989 0.35282 0.0
C732 C 0.40852 0.98546 0.36213 0.0
C733 C 0.38511 0.93255 0.31782 0.0
H734 H 0.42046 0.99945 0.28428 0.0
H735 H 0.41558 0.99852 0.38901 0.0
C736 C 0.529 0.14332 0.3447 0.0
N737 N 0.58509 0.19414 0.35976 0.0
C738 C 0.5308 0.17814 0.36084 0.0
C739 C 0.55568 0.13436 0.33604 0.0
C740 C 0.55939 0.20345 0.36827 0.0
C741 C 0.58383 0.16042 0.34394 0.0
C742 C 0.41915 0.06227 0.27503 0.0
C743 C 0.42658 0.06262 0.24207 0.0
C744 C 0.38836 0.05724 0.27985 0.0
C745 C 0.4031 0.05772 0.21447 0.0
C746 C 0.36555 0.05288 0.25161 0.0
N747 N 0.37331 0.05307 0.21974 0.0
C748 C 0.49223 1.02113 0.2556 0.0
C749 C 0.51652 0.08114 0.25598 0.0
C750 C 0.50315 1.0094 0.22578 0.0
N751 N 0.49996 0.05625 0.27037 0.0
C752 C 0.52735 0.07071 0.22578 0.0
C753 C 0.52093 0.03448 0.21091 0.0
H754 H 0.4775 1.00236 0.26691 0.0
H755 H 0.52115 0.10889 0.26795 0.0
C756 C 0.41745 0.14945 0.35663 0.0
N757 N 0.43552 0.13992 0.33375 0.0
C758 C 0.39259 0.16165 0.34568 0.0
C759 C 0.4075 0.1566 0.28896 0.0
C760 C 0.43207 0.14471 0.30111 0.0
C761 C 0.38654 0.16349 0.31096 0.0
H762 H 0.42079 0.14481 0.38236 0.0
H763 H 0.44642 0.13566 0.28367 0.0
O764 O 0.4874 0.03994 0.34303 0.0
O765 O 0.4534 0.08839 0.38219 0.0
O766 O 0.50105 0.11852 0.33655 0.0
O767 O 0.44178 0.06519 0.30205 0.0
H768 H 0.46698 0.97013 0.32398 0.0
H769 H 0.5485 0.058 0.34797 0.0
H770 H 0.49966 0.92959 0.30991 0.0
H771 H 0.58001 1.01572 0.33448 0.0
H772 H 0.35401 0.05685 0.40061 0.0
H773 H 0.46407 0.06894 0.44091 0.0
H774 H 0.3931 0.0788 0.36539 0.0
H775 H 0.42371 0.04695 0.47482 0.0
H776 H 0.54285 0.03207 0.44681 0.0
H777 H 0.59766 0.13787 0.44959 0.0
H778 H 0.38985 0.93891 0.2657 0.0
H779 H 0.3853 0.93581 0.37267 0.0
H780 H 0.51028 0.1855 0.36742 0.0
H781 H 0.55469 0.10764 0.32328 0.0
H782 H 0.56115 0.23051 0.38078 0.0
H783 H 0.60466 0.15386 0.33743 0.0
H784 H 0.45017 0.06642 0.23765 0.0
H785 H 0.38211 0.0564 0.30504 0.0
H786 H 0.40863 0.05736 0.18884 0.0
H787 H 0.34164 0.04903 0.25498 0.0
H788 H 0.4977 0.98134 0.21435 0.0
H789 H 0.54111 0.09055 0.21456 0.0
H790 H 0.37738 0.16753 0.36365 0.0
H791 H 0.4042 0.1588 0.26232 0.0
Li792 Li 0.3161 0.25303 0.54588 0.0
Li793 Li 0.33279 0.2056 0.50945 0.0
Li794 Li 0.31539 0.24987 0.47836 0.0
Li795 Li 0.27515 0.2014 0.5046 0.0
C796 C 0.3768 0.28359 0.53287 0.0
N797 N 0.42918 0.33653 0.5657 0.0
C798 C 0.40251 0.27507 0.54823 0.0
C799 C 0.37792 0.31906 0.5339 0.0
C800 C 0.42871 0.3022 0.56481 0.0
C801 C 0.40457 0.34543 0.55067 0.0
C802 C 0.3041 0.17833 0.5649 0.0
C803 C 0.28705 0.11883 0.57323 0.0
N804 N 0.30183 0.13002 0.60644 0.0
C805 C 0.31891 0.18927 0.59925 0.0
C806 C 0.28791 0.14284 0.55186 0.0
C807 C 0.31761 0.16444 0.61977 0.0
C808 C 0.2982 0.27773 0.61331 0.0
N809 N 0.32305 0.27859 0.59653 0.0
C810 C 0.35695 0.30087 0.65175 0.0
C811 C 0.35213 0.29032 0.61539 0.0
C812 C 0.33174 0.29981 0.66974 0.0
C813 C 0.30202 0.28862 0.64963 0.0
H814 H 0.27514 0.26696 0.59875 0.0
H815 H 0.37183 0.2898 0.60261 0.0
C816 C 0.37588 0.16861 0.48244 0.0
N817 N 0.36396 0.18018 0.51088 0.0
C818 C 0.40013 0.15259 0.48527 0.0
C819 C 0.40008 0.16173 0.54665 0.0
C820 C 0.37585 0.17733 0.5426 0.0
C821 C 0.4125 0.14891 0.51777 0.0
H822 H 0.36702 0.1723 0.45762 0.0
H823 H 0.36736 0.18845 0.56507 0.0
C824 C 0.2686 0.27906 0.52725 0.0
N825 N 0.24524 0.32711 0.56798 0.0
C826 C 0.2393 0.26828 0.53613 0.0
C827 C 0.28582 0.31434 0.53862 0.0
C828 C 0.22789 0.29299 0.55676 0.0
C829 C 0.27375 0.33815 0.5595 0.0
C830 C 0.30369 0.16762 0.44215 0.0
C831 C 0.31467 0.17308 0.41173 0.0
C832 C 0.29491 0.1333 0.44754 0.0
C833 C 0.31643 0.144 0.38713 0.0
C834 C 0.29752 0.10499 0.42259 0.0
N835 N 0.30803 0.11087 0.39309 0.0
C836 C 0.35487 0.29212 0.43831 0.0
C837 C 0.30558 0.26409 0.40558 0.0
C838 C 0.36491 0.30587 0.41019 0.0
N839 N 0.32547 0.27167 0.43616 0.0
C840 C 0.31485 0.27733 0.37655 0.0
C841 C 0.34518 0.29845 0.37829 0.0
H842 H 0.37102 0.29767 0.46191 0.0
H843 H 0.28239 0.24742 0.40335 0.0
C844 C 0.22188 0.1706 0.53376 0.0
N845 N 0.23311 0.16902 0.50334 0.0
C846 C 0.1936 0.1474 0.53613 0.0
C847 C 0.18838 0.12078 0.47588 0.0
C848 C 0.21682 0.14453 0.47461 0.0
C849 C 0.1763 0.12182 0.50699 0.0
H850 H 0.23515 0.18972 0.55657 0.0
H851 H 0.22603 0.14299 0.4507 0.0
O852 O 0.35071 0.25739 0.51693 0.0
O853 O 0.30501 0.20233 0.5444 0.0
O854 O 0.28068 0.25496 0.50832 0.0
O855 O 0.30107 0.19565 0.46618 0.0
H856 H 0.40225 0.24787 0.5476 0.0
H857 H 0.35852 0.32617 0.52167 0.0
H858 H 0.44867 0.29596 0.57698 0.0
H859 H 0.4057 0.37298 0.55168 0.0
H860 H 0.27456 0.0913 0.56341 0.0
H861 H 0.33167 0.21651 0.60987 0.0
H862 H 0.27585 0.1339 0.52564 0.0
H863 H 0.32917 0.17254 0.64628 0.0
H864 H 0.38037 0.30909 0.66568 0.0
H865 H 0.28169 0.28687 0.66192 0.0
H866 H 0.40893 0.14297 0.46226 0.0
H867 H 0.40939 0.16034 0.57231 0.0
H868 H 0.2255 0.24117 0.5272 0.0
H869 H 0.30844 0.32313 0.53184 0.0
H870 H 0.20523 0.28502 0.56383 0.0
H871 H 0.28706 0.36543 0.56895 0.0
H872 H 0.32164 0.19941 0.40705 0.0
H873 H 0.28622 0.12854 0.47074 0.0
H874 H 0.32421 0.14772 0.36318 0.0
H875 H 0.29096 0.07832 0.42656 0.0
H876 H 0.3883 0.3225 0.41358 0.0
H877 H 0.29815 0.2717 0.35329 0.0
H878 H 0.1855 0.14932 0.56072 0.0
H879 H 0.17609 0.10152 0.45268 0.0
Li880 Li 0.24329 0.09561 0.79812 0.0
Li881 Li 0.19699 0.05453 0.82893 0.0
Li882 Li 0.2379 1.01839 0.78949 0.0
Li883 Li 0.19444 0.04966 0.75473 0.0
C884 C 0.26742 0.07399 0.86303 0.0
N885 N 0.31156 0.09904 0.9217 0.0
C886 C 0.26341 0.09904 0.89042 0.0
C887 C 0.29371 0.06152 0.86547 0.0
C888 C 0.28605 0.11143 0.91988 0.0
C889 C 0.31574 0.07449 0.89537 0.0
C890 C 0.17815 0.11268 0.79975 0.0
C891 C 0.1289 0.12429 0.78559 0.0
N892 N 0.14025 0.15764 0.80549 0.0
C893 C 0.18923 0.14688 0.82044 0.0
C894 C 0.14767 0.1011 0.78247 0.0
C895 C 0.16974 0.1693 0.82285 0.0
C896 C 0.25857 0.17372 0.78633 0.0
N897 N 0.27145 0.14934 0.79836 0.0
C898 C 0.32159 0.1934 0.80696 0.0
C899 C 0.30284 0.15953 0.80879 0.0
C900 C 0.3091 0.2192 0.79481 0.0
C901 C 0.2766 0.20835 0.78473 0.0
H902 H 0.23399 0.1664 0.77714 0.0
H903 H 0.31389 0.14106 0.81805 0.0
C904 C 0.15359 0.02609 0.88436 0.0
N905 N 0.17158 0.05626 0.8771 0.0
C906 C 0.13767 0.02633 0.914 0.0
C907 C 0.15784 0.08852 0.93083 0.0
C908 C 0.1734 0.08725 0.90071 0.0
C909 C 0.13904 0.05776 0.93882 0.0
H910 H 0.15123 1.00088 0.86713 0.0
H911 H 0.18712 0.11191 0.89664 0.0
C912 C 0.25327 0.05441 0.72624 0.0
N913 N 0.27652 0.05401 0.66521 0.0
C914 C 0.23999 0.02678 0.69748 0.0
C915 C 0.27842 0.08177 0.72405 0.0
C916 C 0.25203 0.02711 0.6668 0.0
C917 C 0.28988 0.08107 0.69297 0.0
C918 C 0.16407 0.98085 0.77531 0.0
C919 C 0.16658 0.95041 0.75325 0.0
C920 C 0.13636 0.98116 0.78755 0.0
C921 C 0.1413 0.92045 0.7442 0.0
C922 C 0.11167 0.95067 0.77799 0.0
N923 N 0.11461 0.92118 0.75672 0.0
C924 C 0.24748 0.93697 0.78404 0.0
C925 C 0.29441 0.97777 0.78655 0.0
C926 C 0.26257 0.9083 0.78199 0.0
N927 N 0.2629 0.97204 0.78628 0.0
C928 C 0.31031 0.94988 0.78477 0.0
C929 C 0.29504 0.91344 0.78228 0.0
H930 H 0.22281 0.93033 0.78393 0.0
H931 H 0.30809 1.00449 0.78827 0.0
C932 C 0.1664 0.08479 0.69913 0.0
N933 N 0.16894 0.05233 0.70412 0.0
C934 C 0.15182 0.0896 0.66718 0.0
C935 C 0.14219 0.02797 0.64371 0.0
C936 C 0.1568 1.02416 0.67628 0.0
C937 C 0.13917 0.06119 0.63795 0.0
H938 H 0.17608 0.10781 0.72 0.0
H939 H 0.15857 0.99818 0.67877 0.0
O940 O 0.24564 0.06155 0.83398 0.0
O941 O 0.19693 0.09048 0.79653 0.0
O942 O 0.24156 0.05482 0.75634 0.0
O943 O 0.18881 1.01001 0.78559 0.0
H944 H 0.24309 0.10885 0.88886 0.0
H945 H 0.29704 0.04203 0.84448 0.0
H946 H 0.28333 0.13085 0.94131 0.0
H947 H 0.3361 0.06496 0.89762 0.0
H948 H 0.10532 0.11578 0.77217 0.0
H949 H 0.21266 0.15603 0.83436 0.0
H950 H 0.1387 0.07454 0.76665 0.0
H951 H 0.17805 0.19595 0.83852 0.0
H952 H 0.34631 0.19923 0.81498 0.0
H953 H 0.26508 0.22602 0.7746 0.0
H954 H 0.12405 1.00125 0.91735 0.0
H955 H 0.16067 0.11398 0.94787 0.0
H956 H 0.22049 1.00542 0.69881 0.0
H957 H 0.28907 0.10322 0.74615 0.0
H958 H 0.2419 1.00599 0.64425 0.0
H959 H 0.30936 0.10204 0.69091 0.0
H960 H 0.18785 0.94992 0.74335 0.0
H961 H 0.13406 1.00464 0.80448 0.0
H962 H 0.14292 0.8966 0.72731 0.0
H963 H 0.09023 0.9505 0.78765 0.0
H964 H 0.24839 0.88182 0.78038 0.0
H965 H 0.33506 0.95729 0.78538 0.0
H966 H 0.15085 0.11604 0.66543 0.0
H967 H 0.13337 1.00464 0.62296 0.0
Li968 Li 0.3428 1.00871 1.00155 0.0
Li969 Li 0.36238 0.97013 0.03168 0.0
Li970 Li 0.39536 1.00333 0.99668 0.0
Li971 Li 0.35165 0.95417 0.96888 0.0
C972 C 0.39068 0.05025 0.06361 0.0
N973 N 0.41696 0.10855 0.1171 0.0
C974 C 0.38137 0.05143 0.0959 0.0
C975 C 0.41339 0.07869 0.05859 0.0
C976 C 0.39459 0.08141 0.12243 0.0
C977 C 0.42666 0.10769 0.08604 0.0
C978 C 0.30183 0.92753 1.00441 0.0
C979 C 0.29193 0.86626 1.00794 0.0
N980 N 0.26236 0.86576 1.01197 0.0
C981 C 0.27139 0.92645 1.00884 0.0
C982 C 0.31226 0.89729 1.00427 0.0
C983 C 0.25177 0.89494 1.01258 0.0
C984 C 0.304 0.05473 0.98965 0.0
N985 N 0.31641 0.03746 1.0112 0.0
C986 C 0.28827 0.05596 0.05494 0.0
C987 C 0.30881 0.03746 0.04308 0.0
C988 C 0.27502 0.07431 0.03354 0.0
C989 C 0.28305 0.07356 1.00043 0.0
H990 H 0.30991 0.05326 0.96409 0.0
H991 H 0.31819 1.02219 0.05896 0.0
C992 C 0.39618 0.96059 0.08569 0.0
N993 N 0.36633 0.95529 0.07154 0.0
C994 C 0.4032 0.9449 0.11234 0.0
C995 C 0.34825 0.92012 0.11018 0.0
C996 C 0.34236 0.9372 0.08417 0.0
C997 C 0.37908 0.92307 0.12369 0.0
H998 H 0.4145 0.97535 0.07489 0.0
H999 H 0.31884 0.93448 0.07298 0.0
C1000 C 0.37451 0.0305 0.94475 0.0
N1001 N 0.4023 0.08694 0.91822 0.0
C1002 C 0.38233 1.02458 0.91172 0.0
C1003 C 0.38041 0.06508 0.96411 0.0
C1004 C 0.39649 0.05348 0.89881 0.0
C1005 C 0.39457 0.09328 0.95028 0.0
C1006 C 0.40453 0.92978 0.99448 0.0
C1007 C 0.42659 0.93292 0.97252 0.0
C1008 C 0.40056 0.90223 1.012 0.0
C1009 C 0.44405 0.90841 0.96821 0.0
C1010 C 0.41844 0.8782 1.00697 0.0
N1011 N 0.43965 0.88176 0.98537 0.0
C1012 C 0.45327 1.0202 0.02841 0.0
C1013 C 0.45273 0.02639 0.9706 0.0
C1014 C 0.48481 1.02402 0.03293 0.0
N1015 N 0.43788 1.02103 0.99767 0.0
C1016 C 0.4847 0.03095 0.97415 0.0
C1017 C 0.50097 0.02926 1.00557 0.0
H1018 H 0.44072 1.01538 0.04916 0.0
H1019 H 0.43978 0.02552 0.94599 0.0
C1020 C 0.32107 0.88591 0.92311 0.0
N1021 N 0.34396 0.91666 0.93057 0.0
C1022 C 0.32218 0.85801 0.89685 0.0
C1023 C 0.36914 0.89497 0.88537 0.0
C1024 C 0.36741 0.92176 0.91208 0.0
C1025 C 0.34659 0.86258 0.87789 0.0
H1026 H 0.30195 0.88289 0.93717 0.0
H1027 H 0.38502 0.94669 0.91851 0.0
O1028 O 0.37902 1.02059 0.03764 0.0
O1029 O 0.32154 0.95855 1.00184 0.0
O1030 O 0.36201 1.00253 0.95846 0.0
O1031 O 0.38787 0.95431 0.99996 0.0
H1032 H 0.36421 0.02942 0.10047 0.0
H1033 H 0.42114 0.07814 0.03392 0.0
H1034 H 0.38711 0.0831 0.14728 0.0
H1035 H 0.44463 0.12955 0.08262 0.0
H1036 H 0.29966 0.8426 1.0076 0.0
H1037 H 0.26308 0.94979 1.00956 0.0
H1038 H 0.33568 0.89769 1.00093 0.0
H1039 H 0.22816 0.89369 1.01604 0.0
H1040 H 0.28199 0.05479 0.08013 0.0
H1041 H 0.27305 0.08707 0.98305 0.0
H1042 H 0.42718 0.94857 0.12286 0.0
H1043 H 0.32894 0.90339 0.11819 0.0
H1044 H 0.37777 0.99795 0.89635 0.0
H1045 H 0.37436 0.07007 0.98965 0.0
H1046 H 0.40284 0.04931 0.87337 0.0
H1047 H 0.39944 0.12019 0.96505 0.0
H1048 H 0.43023 0.95399 0.95881 0.0
H1049 H 0.38404 0.89946 0.02956 0.0
H1050 H 0.46115 0.91061 0.95126 0.0
H1051 H 0.41555 0.8568 0.02037 0.0
H1052 H 0.49634 1.02309 0.0578 0.0
H1053 H 0.49643 0.03544 0.95257 0.0
H1054 H 0.30352 0.83386 0.89042 0.0
H1055 H 0.38758 0.89977 0.87036 0.0
Li1056 Li 0.36023 0.44166 0.06076 0.0
Li1057 Li 0.37929 0.40016 0.09105 0.0
Li1058 Li 0.41749 0.44863 0.06382 0.0
Li1059 Li 0.37837 0.39608 0.02109 0.0
C1060 C 0.38912 0.48143 0.12706 0.0
N1061 N 0.38261 0.53737 0.17549 0.0
C1062 C 0.37492 0.47515 0.15546 0.0
C1063 C 0.40034 0.51617 0.12355 0.0
C1064 C 0.37187 0.50381 0.17967 0.0
C1065 C 0.39662 0.54408 0.14817 0.0
C1066 C 0.31331 0.3756 0.04746 0.0
C1067 C 0.26509 0.33558 1.0163 0.0
N1068 N 0.25032 0.34737 0.04206 0.0
C1069 C 0.29769 0.38705 0.07379 0.0
C1070 C 0.29693 0.34944 1.01862 0.0
C1071 C 0.26582 0.37259 0.07049 0.0
C1072 C 0.31525 0.4663 0.02669 0.0
N1073 N 0.32767 0.46511 0.05883 0.0
C1074 C 0.29203 0.49403 0.08374 0.0
C1075 C 0.31626 0.47816 0.08711 0.0
C1076 C 0.2792 0.49627 0.0509 0.0
C1077 C 0.29104 0.48194 0.02212 0.0
H1078 H 0.3241 0.45488 1.0045 0.0
H1079 H 0.32554 0.47591 0.11228 0.0
C1080 C 0.38758 0.38815 0.1645 0.0
N1081 N 0.36968 0.37706 0.13241 0.0
C1082 C 0.37804 0.37426 0.19308 0.0
C1083 C 0.33166 0.33806 0.15588 0.0
C1084 C 0.3422 0.35198 0.12809 0.0
C1085 C 0.34921 0.34921 0.18939 0.0
H1086 H 0.4093 0.4082 0.16828 0.0
H1087 H 0.32798 0.34276 0.10292 0.0
C1088 C 0.39265 0.47362 1.00731 0.0
N1089 N 0.40576 0.52712 0.97198 0.0
C1090 C 0.40123 0.4669 0.97472 0.0
C1091 C 0.39053 0.50747 0.02184 0.0
C1092 C 0.40784 0.49432 0.9573 0.0
C1093 C 0.3973 0.53418 1.00359 0.0
C1094 C 0.42761 0.3701 0.04896 0.0
C1095 C 0.45248 0.37723 0.03117 0.0
C1096 C 0.41757 0.3367 0.05619 0.0
C1097 C 0.46655 0.35048 0.02018 0.0
C1098 C 0.43254 0.31079 0.0452 0.0
N1099 N 0.45647 0.31814 0.0275 0.0
C1100 C 0.47533 0.50635 0.09314 0.0
C1101 C 0.47095 0.4795 0.03433 0.0
C1102 C 0.50375 0.53016 0.09195 0.0
N1103 N 0.45928 0.48152 0.06451 0.0
C1104 C 0.49927 0.5027 0.03206 0.0
C1105 C 0.51619 0.52875 0.06106 0.0
H1106 H 0.46598 0.50803 0.11696 0.0
H1107 H 0.45811 0.45994 1.01164 0.0
C1108 C 0.34409 0.37232 0.95119 0.0
N1109 N 0.37105 0.37217 0.97021 0.0
C1110 C 0.33871 0.36187 0.91483 0.0
C1111 C 0.38907 0.35171 0.91719 0.0
C1112 C 0.39339 0.36201 0.95363 0.0
C1113 C 0.36146 0.35172 0.89693 0.0
H1114 H 0.327 0.38196 0.96413 0.0
H1115 H 0.41521 0.36316 0.9684 0.0
O1116 O 0.39277 0.45377 0.10336 0.0
O1117 O 0.34467 0.38857 0.05053 0.0
O1118 O 0.38599 0.44705 0.02469 0.0
O1119 O 0.41337 0.39582 0.05971 0.0
H1120 H 0.36604 0.44846 0.15861 0.0
H1121 H 0.41196 0.52155 0.10216 0.0
H1122 H 0.36106 0.49938 0.20181 0.0
H1123 H 0.40506 0.57109 0.14567 0.0
H1124 H 0.25217 0.31527 0.99414 0.0
H1125 H 0.31014 0.40657 0.09672 0.0
H1126 H 0.30876 0.33943 0.99851 0.0
H1127 H 0.25344 0.38124 0.09064 0.0
H1128 H 0.28376 0.50489 0.10669 0.0
H1129 H 0.28151 0.48253 0.99626 0.0
H1130 H 0.39341 0.3827 0.21759 0.0
H1131 H 0.30965 0.31823 0.15092 0.0
H1132 H 0.40294 0.44084 0.96306 0.0
H1133 H 0.38343 0.51298 0.04676 0.0
H1134 H 0.41461 0.4895 0.93211 0.0
H1135 H 0.39574 0.56051 1.01453 0.0
H1136 H 0.46066 0.40302 0.02561 0.0
H1137 H 0.39846 0.33092 0.07019 0.0
H1138 H 0.48574 0.35557 1.00622 0.0
H1139 H 0.42511 0.28484 0.05069 0.0
H1140 H 0.51579 0.5497 0.11508 0.0
H1141 H 0.5077 0.5004 1.00765 0.0
H1142 H 0.31711 0.36278 0.90084 0.0
H1143 H 0.40756 0.34446 0.90501 0.0
Li1144 Li 0.83866 0.1942 0.09792 0.0
Li1145 Li 0.84957 0.14257 0.0611 0.0
Li1146 Li 0.82377 0.18166 0.03629 0.0
Li1147 Li 0.79705 0.14222 0.06879 0.0
C1148 C 0.89058 0.22327 0.06927 0.0
N1149 N 0.9406 0.28242 0.08512 0.0
C1150 C 0.91965 0.22096 0.08293 0.0
C1151 C 0.88704 0.25563 0.06334 0.0
C1152 C 0.94465 0.25119 0.09083 0.0
C1153 C 0.9126 0.28522 0.07157 0.0
C1154 C 0.81797 0.12266 0.12393 0.0
C1155 C 0.78953 0.06441 0.12747 0.0
N1156 N 0.78718 0.07741 0.16074 0.0
C1157 C 0.81556 0.13541 0.15823 0.0
C1158 C 0.80514 0.08686 0.10848 0.0
C1159 C 0.79981 0.11211 0.17639 0.0
C1160 C 0.82145 0.22932 0.15225 0.0
N1161 N 0.84675 0.23136 0.13656 0.0
C1162 C 0.87139 0.28874 0.17168 0.0
C1163 C 0.87167 0.26012 0.1458 0.0
C1164 C 0.84549 0.28704 0.18824 0.0
C1165 C 0.82045 0.2569 0.17857 0.0
H1166 H 0.80182 0.2063 0.14383 0.0
H1167 H 0.89167 0.26107 0.13334 0.0
C1168 C 0.88369 0.11459 1.01761 0.0
N1169 N 0.87757 0.11669 0.05028 0.0
C1170 C 0.90464 0.09641 1.00622 0.0
C1171 C 0.91282 0.08334 0.06263 0.0
C1172 C 0.89149 0.10165 0.07289 0.0
C1173 C 0.91955 0.0805 0.02886 0.0
H1174 H 0.8724 0.12738 1.00052 0.0
H1175 H 0.88618 0.10416 0.09881 0.0
C1176 C 0.78444 0.21738 0.06965 0.0
N1177 N 0.75395 0.26921 0.066 0.0
C1178 C 0.75234 0.20813 0.05987 0.0
C1179 C 0.80098 0.25307 0.07762 0.0
C1180 C 0.73737 0.23468 0.05811 0.0
C1181 C 0.78516 0.27887 0.07565 0.0
C1182 C 0.80207 0.10119 0.99861 0.0
C1183 C 0.78727 0.10424 0.96713 0.0
C1184 C 0.80529 0.06815 1.00253 0.0
C1185 C 0.77539 0.07413 0.94046 0.0
C1186 C 0.79318 0.03866 0.97519 0.0
N1187 N 0.77853 0.04221 0.94502 0.0
C1188 C 0.8421 0.21591 0.98602 0.0
C1189 C 0.78806 0.19812 0.98662 0.0
C1190 C 0.83739 0.23289 0.95967 0.0
N1191 N 0.81762 0.20026 0.99947 0.0
C1192 C 0.78213 0.21386 0.95965 0.0
C1193 C 0.80708 0.23223 0.94656 0.0
H1194 H 0.8652 0.21582 0.99626 0.0
H1195 H 0.76919 0.18384 0.99717 0.0
C1196 C 0.74322 0.13171 0.09882 0.0
N1197 N 0.75553 0.12088 0.07045 0.0
C1198 C 0.71141 0.1281 0.09607 0.0
C1199 C 0.70602 0.10215 0.03526 0.0
C1200 C 0.73751 0.10542 0.03933 0.0
C1201 C 0.69276 0.11453 0.0636 0.0
H1202 H 0.75828 0.14562 0.12285 0.0
H1203 H 0.74774 0.09824 1.01696 0.0
O1204 O 0.86589 0.19389 0.0615 0.0
O1205 O 0.83323 0.14503 0.10572 0.0
O1206 O 0.79938 0.19161 0.07198 0.0
O1207 O 0.81285 0.1303 0.02546 0.0
H1208 H 0.9228 0.19608 0.08749 0.0
H1209 H 0.86482 0.258 0.0527 0.0
H1210 H 0.96726 0.24985 0.10154 0.0
H1211 H 0.91016 0.31043 0.06727 0.0
H1212 H 0.7793 0.03667 0.11575 0.0
H1213 H 0.82583 0.16295 0.17074 0.0
H1214 H 0.80699 0.0766 0.08206 0.0
H1215 H 0.7977 0.1216 0.20295 0.0
H1216 H 0.89164 0.31116 0.17972 0.0
H1217 H 0.80053 0.25444 0.19152 0.0
H1218 H 0.90971 0.09569 0.98031 0.0
H1219 H 0.92401 0.07161 0.08086 0.0
H1220 H 0.73911 0.18074 0.05332 0.0
H1221 H 0.82572 0.2609 0.08554 0.0
H1222 H 0.71256 0.2278 0.05045 0.0
H1223 H 0.7977 0.30658 0.08187 0.0
H1224 H 0.78459 0.12943 0.96334 0.0
H1225 H 0.81712 0.06526 0.02635 0.0
H1226 H 0.76362 0.07613 0.91616 0.0
H1227 H 0.79541 1.01292 0.97796 0.0
H1228 H 0.85725 0.24695 0.95027 0.0
H1229 H 0.75843 0.21181 0.94929 0.0
H1230 H 0.7018 0.13746 0.11852 0.0
H1231 H 0.69231 0.0906 1.00989 0.0
Li1232 Li 0.24887 0.60456 0.22804 0.0
Li1233 Li 0.2122 0.58906 0.26404 0.0
Li1234 Li 0.2363 0.54535 0.23536 0.0
Li1235 Li 0.19853 0.56697 0.20364 0.0
C1236 C 0.2702 0.61052 0.30237 0.0
N1237 N 0.29691 0.65378 0.36647 0.0
C1238 C 0.26847 0.64553 0.31025 0.0
C1239 C 0.28616 0.59778 0.32696 0.0
C1240 C 0.28171 0.66679 0.34288 0.0
C1241 C 0.29956 0.62007 0.35916 0.0
C1242 C 0.18991 0.63704 0.23222 0.0
C1243 C 0.13841 0.64369 0.23382 0.0
N1244 N 0.14986 0.6794 0.2395 0.0
C1245 C 0.2011 0.6738 0.2378 0.0
C1246 C 0.1583 0.62183 0.23022 0.0
C1247 C 0.18053 0.69476 0.2416 0.0
C1248 C 0.27055 0.66409 0.20432 0.0
N1249 N 0.27946 0.64304 0.22409 0.0
C1250 C 0.32087 0.69021 0.25718 0.0
C1251 C 0.3054 0.65446 0.24821 0.0
C1252 C 0.31016 0.71314 0.23955 0.0
C1253 C 0.2862 0.69977 0.21137 0.0
H1254 H 0.24947 0.65404 0.18572 0.0
H1255 H 0.31203 0.63669 0.26302 0.0
C1256 C 0.18741 0.5794 0.32124 0.0
N1257 N 0.19781 0.60456 0.30375 0.0
C1258 C 0.17533 0.58814 0.351 0.0
C1259 C 0.18563 0.64879 0.34433 0.0
C1260 C 0.19762 0.63883 0.31481 0.0
C1261 C 0.1741 0.62315 0.36239 0.0
H1262 H 0.18793 0.55251 0.31144 0.0
H1263 H 0.20684 0.65853 0.30097 0.0
C1264 C 0.26043 0.57137 0.17198 0.0
N1265 N 0.3056 0.59509 0.13425 0.0
C1266 C 0.25245 0.58058 0.1409 0.0
C1267 C 0.29141 0.57433 0.18396 0.0
C1268 C 0.27562 0.59247 0.12217 0.0
C1269 C 0.3139 0.58638 0.16451 0.0
C1270 C 0.16461 0.51518 0.23473 0.0
C1271 C 0.1616 0.48031 0.2177 0.0
C1272 C 0.13908 0.52452 0.24656 0.0
C1273 C 0.13294 0.45535 0.21252 0.0
C1274 C 0.11082 0.49883 0.24081 0.0
N1275 N 0.10836 0.46506 0.22407 0.0
C1276 C 0.25949 0.50787 0.27477 0.0
C1277 C 0.26996 0.49764 0.2174 0.0
C1278 C 0.28311 0.49394 0.28578 0.0
N1279 N 0.25427 0.51041 0.24152 0.0
C1280 C 0.29426 0.4841 0.22737 0.0
C1281 C 0.30194 0.48382 0.26233 0.0
H1282 H 0.24763 0.52027 0.29334 0.0
H1283 H 0.26564 0.50117 0.19135 0.0
C1284 C 0.17143 0.58863 0.1537 0.0
N1285 N 0.16666 0.55974 0.1676 0.0
C1286 C 0.14828 0.59276 0.13064 0.0
C1287 C 0.11619 0.53598 0.13455 0.0
C1288 C 0.13993 0.53331 0.15841 0.0
C1289 C 0.12051 0.56611 0.12067 0.0
H1290 H 0.19294 0.60917 0.16167 0.0
H1291 H 0.13668 0.51059 0.16975 0.0
O1292 O 0.25628 0.58888 0.27086 0.0
O1293 O 0.21001 0.6163 0.22892 0.0
O1294 O 0.23806 0.55962 0.19064 0.0
O1295 O 0.19267 0.53968 0.24075 0.0
H1296 H 0.25684 0.65612 0.29132 0.0
H1297 H 0.28853 0.57113 0.32132 0.0
H1298 H 0.27981 0.69361 0.34936 0.0
H1299 H 0.31202 0.61054 0.37834 0.0
H1300 H 0.11389 0.63228 0.23219 0.0
H1301 H 0.22552 0.68611 0.23992 0.0
H1302 H 0.1492 0.59349 0.22577 0.0
H1303 H 0.18903 0.72324 0.24637 0.0
H1304 H 0.33982 0.70008 0.27865 0.0
H1305 H 0.27776 0.7172 0.19732 0.0
H1306 H 0.16614 0.56761 0.36425 0.0
H1307 H 0.18516 0.67604 0.35282 0.0
H1308 H 0.22862 0.5785 0.1313 0.0
H1309 H 0.29805 0.56786 0.20826 0.0
H1310 H 0.26975 0.59957 0.098 0.0
H1311 H 0.33797 0.58891 0.17352 0.0
H1312 H 0.18123 0.47261 0.20868 0.0
H1313 H 0.14105 0.55125 0.26021 0.0
H1314 H 0.13026 0.42825 0.19941 0.0
H1315 H 0.09087 0.50571 0.24976 0.0
H1316 H 0.28771 0.49318 0.31273 0.0
H1317 H 0.30805 0.4763 0.20841 0.0
H1318 H 0.15221 0.61647 0.12046 0.0
H1319 H 0.09495 0.51486 0.12697 0.0
Li1320 Li 0.86035 0.94182 0.56075 0.0
Li1321 Li 0.87937 0.90028 0.59103 0.0
Li1322 Li 0.91761 0.94878 0.56383 0.0
Li1323 Li 0.87849 0.89625 0.52109 0.0
C1324 C 0.88938 0.98169 0.627 0.0
N1325 N 0.88334 0.03793 0.67542 0.0
C1326 C 0.8755 0.97565 0.65566 0.0
C1327 C 0.9005 1.01635 0.62322 0.0
C1328 C 0.87271 1.00445 0.67987 0.0
C1329 C 0.89701 0.04441 0.64782 0.0
C1330 C 0.8134 0.87576 0.54735 0.0
C1331 C 0.76525 0.8356 0.51617 0.0
N1332 N 0.7504 0.84748 0.54181 0.0
C1333 C 0.79771 0.88729 0.57357 0.0
C1334 C 0.79709 0.84949 0.51855 0.0
C1335 C 0.76583 0.87281 0.5702 0.0
C1336 C 0.81531 0.96625 0.52665 0.0
N1337 N 0.82783 0.96526 0.55882 0.0
C1338 C 0.79224 0.99429 0.58368 0.0
C1339 C 0.81651 0.97848 0.5871 0.0
C1340 C 0.77931 0.99632 0.55079 0.0
C1341 C 0.79108 0.98184 0.52202 0.0
H1342 H 0.82411 0.95471 0.50447 0.0
H1343 H 0.82589 0.97641 0.61231 0.0
C1344 C 0.88769 0.88803 0.66439 0.0
N1345 N 0.86968 0.87717 0.63237 0.0
C1346 C 0.87812 0.87414 0.69296 0.0
C1347 C 0.83147 0.83848 0.65591 0.0
C1348 C 0.84206 0.85235 0.62811 0.0
C1349 C 0.84913 0.84941 0.68936 0.0
H1350 H 0.90954 0.90785 0.66812 0.0
H1351 H 0.82777 0.84328 0.60299 0.0
C1352 C 0.89275 0.97372 0.50724 0.0
N1353 N 0.90578 0.02709 0.47172 0.0
C1354 C 0.90145 0.96696 0.47471 0.0
C1355 C 0.89046 1.00755 0.5216 0.0
C1356 C 0.90801 0.99432 0.4572 0.0
C1357 C 0.89719 0.03419 0.50327 0.0
C1358 C 0.92768 0.87022 0.54891 0.0
C1359 C 0.9526 0.87739 0.53119 0.0
C1360 C 0.91756 0.83677 0.556 0.0
C1361 C 0.96664 0.85062 0.52013 0.0
C1362 C 0.93251 0.81085 0.54495 0.0
N1363 N 0.95647 0.81823 0.52732 0.0
C1364 C 0.97539 1.00662 0.59317 0.0
C1365 C 0.9711 0.97969 0.53439 0.0
C1366 C 1.00379 0.03047 0.59198 0.0
N1367 N 0.9594 0.98173 0.56455 0.0
C1368 C 0.9994 1.00293 0.53213 0.0
C1369 C 1.01626 0.02905 0.5611 0.0
H1370 H 0.96603 1.00832 0.61698 0.0
H1371 H 0.95829 0.96009 0.51172 0.0
C1372 C 0.84418 0.87247 0.45122 0.0
N1373 N 0.87116 0.87234 0.47023 0.0
C1374 C 0.83879 0.86201 0.41486 0.0
C1375 C 0.88917 0.8519 0.4172 0.0
C1376 C 0.8935 0.8622 0.45364 0.0
C1377 C 0.86155 0.85189 0.39696 0.0
H1378 H 0.82709 0.88208 0.46418 0.0
H1379 H 0.91532 0.86336 0.4684 0.0
O1380 O 0.89286 0.9539 0.60335 0.0
O1381 O 0.84477 0.88874 0.5505 0.0
O1382 O 0.88613 0.94722 0.5247 0.0
O1383 O 0.91348 0.89596 0.55971 0.0
H1384 H 0.86673 0.94903 0.65905 0.0
H1385 H 0.91189 1.02155 0.60163 0.0
H1386 H 0.86222 1.00022 0.70226 0.0
H1387 H 0.90537 0.07135 0.64511 0.0
H1388 H 0.75238 0.81521 0.49405 0.0
H1389 H 0.8101 0.9069 0.59647 0.0
H1390 H 0.80898 0.83941 0.49854 0.0
H1391 H 0.75339 0.88152 0.59026 0.0
H1392 H 0.78401 1.00527 0.6066 0.0
H1393 H 0.78149 0.98229 0.49615 0.0
H1394 H 0.8936 0.88233 0.71739 0.0
H1395 H 0.80934 0.81887 0.651 0.0
H1396 H 0.9033 0.94093 0.46318 0.0
H1397 H 0.88324 1.01309 0.54646 0.0
H1398 H 0.91488 0.98947 0.43206 0.0
H1399 H 0.89549 0.06049 0.51408 0.0
H1400 H 0.96085 0.90322 0.52574 0.0
H1401 H 0.89842 0.83096 0.56995 0.0
H1402 H 0.98587 0.85574 0.50623 0.0
H1403 H 0.92502 0.78485 0.55034 0.0
H1404 H 1.01579 0.05007 0.61509 0.0
H1405 H 1.00785 1.00062 0.50773 0.0
H1406 H 0.81718 0.86291 0.40088 0.0
H1407 H 0.90766 0.84467 0.40501 0.0
Li1408 Li 0.99833 0.09917 0.31209 0.0
Li1409 Li 0.94969 0.05514 0.26883 0.0
Li1410 Li 0.99583 0.09561 0.23727 0.0
Li1411 Li 0.9544 0.13095 0.27646 0.0
C1412 C 1.01578 0.03819 0.27007 0.0
N1413 N 0.05574 0.99563 0.27067 0.0
C1414 C 1.009 1.00852 0.28444 0.0
C1415 C 0.04293 0.04628 0.25606 0.0
C1416 C 0.02949 0.98733 0.28453 0.0
C1417 C 0.06282 1.02442 0.25656 0.0
C1418 C 0.93443 0.08692 0.33532 0.0
C1419 C 0.89381 0.09352 0.36825 0.0
N1420 N 0.89945 0.06825 0.38464 0.0
C1421 C 0.9398 0.06098 0.3524 0.0
C1422 C 0.91125 0.10333 0.3432 0.0
C1423 C 0.92187 0.05192 0.37728 0.0
C1424 C 0.03776 0.12603 0.39019 0.0
N1425 N 0.02395 0.09725 0.36334 0.0
C1426 C 0.03939 0.06048 0.40194 0.0
C1427 C 0.02483 0.06479 0.3698 0.0
C1428 C 0.05373 0.08947 0.43011 0.0
C1429 C 0.05237 0.12277 0.42305 0.0
H1430 H 0.03738 0.15214 0.38669 0.0
H1431 H 1.01361 0.04131 0.35018 0.0
C1432 C 0.92918 0.97086 0.25708 0.0
N1433 N 0.92076 1.00162 0.26823 0.0
C1434 C 0.91163 0.9366 0.26029 0.0
C1435 C 0.87553 0.96441 0.28476 0.0
C1436 C 0.89394 0.99802 0.28189 0.0
C1437 C 0.88392 0.93236 0.27439 0.0
H1438 H 0.94985 0.97241 0.24554 0.0
H1439 H 0.8865 1.02144 0.29098 0.0
C1440 C 0.0287 0.16854 0.28908 0.0
N1441 N 0.07832 0.22807 0.30552 0.0
C1442 C 0.02747 0.1978 0.27513 0.0
C1443 C 0.05521 0.16938 0.31113 0.0
C1444 C 0.05283 0.22768 0.28377 0.0
C1445 C 0.08002 0.19979 0.31924 0.0
C1446 C 0.92134 0.07737 0.20717 0.0
C1447 C 0.92364 0.06509 0.17272 0.0
C1448 C 0.89264 0.0789 0.21621 0.0
C1449 C 0.89699 0.05449 0.14781 0.0
C1450 C 0.86662 0.06847 0.19049 0.0
N1451 N 0.86931 0.05653 0.1571 0.0
C1452 C 1.01812 0.06325 0.16451 0.0
C1453 C 0.04085 0.12379 0.18294 0.0
C1454 C 0.03377 0.06185 0.13445 0.0
N1455 N 1.02135 0.09398 0.18912 0.0
C1456 C 0.05677 0.12344 0.15327 0.0
C1457 C 0.05402 0.09224 0.12745 0.0
H1458 H 1.00315 0.03888 0.16772 0.0
H1459 H 0.04448 0.14876 0.20112 0.0
C1460 C 0.94484 0.21277 0.28624 0.0
N1461 N 0.92923 0.17716 0.2799 0.0
C1462 C 0.92956 0.24125 0.28807 0.0
C1463 C 0.88132 0.1985 0.27743 0.0
C1464 C 0.89738 0.17078 0.2757 0.0
C1465 C 0.89674 0.23541 0.28372 0.0
H1466 H 0.9698 0.22001 0.29011 0.0
H1467 H 0.8835 0.1437 0.27089 0.0
O1468 O 0.99584 0.05901 0.26903 0.0
O1469 O 0.95163 0.09604 0.31081 0.0
O1470 O 1.00393 0.13934 0.28178 0.0
O1471 O 0.94704 0.08815 0.23202 0.0
H1472 H 0.98833 1.00216 0.29585 0.0
H1473 H 0.04854 0.0692 0.24485 0.0
H1474 H 0.02453 0.96433 0.29566 0.0
H1475 H 0.08388 0.03032 0.24573 0.0
H1476 H 0.87579 0.106 0.37466 0.0
H1477 H 0.95742 0.04777 0.34624 0.0
H1478 H 0.90679 0.1234 0.3301 0.0
H1479 H 0.92574 0.03186 0.39068 0.0
H1480 H 0.03887 0.03392 0.40473 0.0
H1481 H 0.06258 0.14657 0.44295 0.0
H1482 H 0.91949 0.91352 0.25095 0.0
H1483 H 0.85448 0.96371 0.29551 0.0
H1484 H 1.00718 0.1974 0.25781 0.0
H1485 H 0.05651 0.14685 0.32203 0.0
H1486 H 0.05225 0.25054 0.27318 0.0
H1487 H 0.10056 0.2009 0.33651 0.0
H1488 H 0.94573 0.0637 0.16535 0.0
H1489 H 0.89052 0.08795 0.24285 0.0
H1490 H 0.89824 0.04444 0.12113 0.0
H1491 H 0.84428 0.06963 0.19712 0.0
H1492 H 0.02978 0.03659 0.11661 0.0
H1493 H 0.07156 0.14824 0.15075 0.0
H1494 H 0.94389 0.26819 0.293 0.0
H1495 H 0.85632 0.19058 0.27362 0.0
Li1496 Li 0.33791 0.69296 0.59665 0.0
Li1497 Li 0.3501 0.64261 0.55896 0.0
Li1498 Li 0.32427 0.6821 0.53498 0.0
Li1499 Li 0.29715 0.64066 0.56504 0.0
C1500 C 0.39069 0.72376 0.56918 0.0
N1501 N 0.44063 0.78301 0.58594 0.0
C1502 C 0.41978 0.72129 0.58257 0.0
C1503 C 0.3871 0.75633 0.56396 0.0
C1504 C 0.44474 0.75159 0.59095 0.0
C1505 C 0.41261 0.78597 0.57265 0.0
C1506 C 0.31781 0.6208 0.62116 0.0
C1507 C 0.28998 0.56246 0.62512 0.0
N1508 N 0.28787 0.57549 0.65847 0.0
C1509 C 0.31569 0.63358 0.65556 0.0
C1510 C 0.30517 0.58493 0.60589 0.0
C1511 C 0.30036 0.61027 0.67396 0.0
C1512 C 0.31981 0.72762 0.65135 0.0
N1513 N 0.34527 0.72948 0.63594 0.0
C1514 C 0.37013 0.78661 0.6715 0.0
C1515 C 0.37039 0.75799 0.64562 0.0
C1516 C 0.34406 0.78519 0.68771 0.0
C1517 C 0.31884 0.75521 0.67777 0.0
H1518 H 0.30003 0.70479 0.64263 0.0
H1519 H 0.39055 0.75877 0.63346 0.0
C1520 C 0.38527 0.6158 0.51608 0.0
N1521 N 0.37839 0.61721 0.5484 0.0
C1522 C 0.40617 0.59748 0.50488 0.0
C1523 C 0.41274 0.58285 0.56076 0.0
C1524 C 0.39148 0.60133 0.57084 0.0
C1525 C 0.42021 0.58069 0.52734 0.0
H1526 H 0.37452 0.62915 0.4991 0.0
H1527 H 0.38549 0.60321 0.59644 0.0
C1528 C 0.28364 0.71582 0.56838 0.0
N1529 N 0.25275 0.76747 0.56583 0.0
C1530 C 0.2515 0.70642 0.55889 0.0
C1531 C 0.3 0.75159 0.57673 0.0
C1532 C 0.23633 0.73287 0.55765 0.0
C1533 C 0.28398 0.77728 0.57529 0.0
C1534 C 0.30396 0.60198 0.49534 0.0
C1535 C 0.29069 0.60553 0.46334 0.0
C1536 C 0.30628 0.5687 0.4995 0.0
C1537 C 0.27928 0.57561 0.43637 0.0
C1538 C 0.29473 0.53943 0.47183 0.0
N1539 N 0.2815 0.54344 0.44115 0.0
C1540 C 0.34287 0.71807 0.486 0.0
C1541 C 0.28875 0.69894 0.48572 0.0
C1542 C 0.3381 0.73533 0.45991 0.0
N1543 N 0.31835 0.70162 0.4989 0.0
C1544 C 0.28278 0.71502 0.45902 0.0
C1545 C 0.30773 0.73412 0.44649 0.0
H1546 H 0.36601 0.71827 0.49641 0.0
H1547 H 0.26989 0.68399 0.4958 0.0
C1548 C 0.24298 0.62431 0.59338 0.0
N1549 N 0.25562 0.61778 0.56433 0.0
C1550 C 0.21107 0.619 0.59102 0.0
C1551 C 0.20609 0.60053 0.52903 0.0
C1552 C 0.23786 0.60554 0.53262 0.0
C1553 C 0.19252 0.60819 0.55838 0.0
H1554 H 0.25776 0.63607 0.61801 0.0
H1555 H 0.24839 0.60233 0.50983 0.0
O1556 O 0.36603 0.69432 0.56105 0.0
O1557 O 0.33265 0.64323 0.60274 0.0
O1558 O 0.29879 0.69013 0.57005 0.0
O1559 O 0.31424 0.6309 0.52241 0.0
H1560 H 0.42299 0.69626 0.58659 0.0
H1561 H 0.36487 0.7588 0.55348 0.0
H1562 H 0.46737 0.75013 0.60147 0.0
H1563 H 0.41012 0.81133 0.56888 0.0
H1564 H 0.27988 0.53466 0.61355 0.0
H1565 H 0.32585 0.66118 0.66794 0.0
H1566 H 0.30681 0.57463 0.57941 0.0
H1567 H 0.29846 0.61978 0.70059 0.0
H1568 H 0.39051 0.80884 0.67977 0.0
H1569 H 0.29879 0.75295 0.6905 0.0
H1570 H 0.41183 0.59724 0.47925 0.0
H1571 H 0.42323 0.57038 0.57881 0.0
H1572 H 0.23837 0.67898 0.55229 0.0
H1573 H 0.32475 0.75952 0.58456 0.0
H1574 H 0.2115 0.72588 0.55021 0.0
H1575 H 0.29639 0.80504 0.58177 0.0
H1576 H 0.28884 0.63097 0.45937 0.0
H1577 H 0.317 0.56547 0.52374 0.0
H1578 H 0.2686 0.57795 0.41166 0.0
H1579 H 0.29627 0.5135 0.47476 0.0
H1580 H 0.35794 0.74994 0.45088 0.0
H1581 H 0.25907 0.7126 0.44838 0.0
H1582 H 0.20122 0.62488 0.6142 0.0
H1583 H 0.1924 0.59136 0.50346 0.0
Li1584 Li 0.44968 0.55489 0.7687 0.0
Li1585 Li 0.49829 0.59901 0.812 0.0
Li1586 Li 0.45434 0.63067 0.77627 0.0
Li1587 Li 0.49585 0.59544 0.73713 0.0
C1588 C 0.43442 0.58672 0.83521 0.0
N1589 N 0.39954 0.56814 0.88464 0.0
C1590 C 0.43981 0.56079 0.85229 0.0
C1591 C 0.41128 0.60316 0.84315 0.0
C1592 C 0.42193 0.55178 0.87723 0.0
C1593 C 0.39389 0.5934 0.86825 0.0
C1594 C 0.51577 0.53798 0.76999 0.0
C1595 C 0.56276 0.52409 0.75646 0.0
N1596 N 0.55565 0.49535 0.77062 0.0
C1597 C 0.50896 0.50835 0.78442 0.0
C1598 C 0.5429 0.546 0.75594 0.0
C1599 C 0.52941 0.48712 0.78452 0.0
C1600 C 0.42918 0.47061 0.75701 0.0
N1601 N 0.42076 0.50137 0.76812 0.0
C1602 C 0.37551 0.4642 0.78465 0.0
C1603 C 0.39393 0.4978 0.78176 0.0
C1604 C 0.3839 0.43214 0.77433 0.0
C1605 C 0.41162 0.43636 0.76024 0.0
H1606 H 0.44986 0.47214 0.7455 0.0
H1607 H 0.38649 0.52122 0.79082 0.0
C1608 C 0.53755 0.626 0.89018 0.0
N1609 N 0.52389 0.59719 0.8633 0.0
C1610 C 0.55217 0.62278 0.92307 0.0
C1611 C 0.53945 0.56051 0.90192 0.0
C1612 C 0.5249 0.56477 0.86975 0.0
C1613 C 0.55366 0.58952 0.93011 0.0
H1614 H 0.53706 0.65207 0.88669 0.0
H1615 H 0.51379 0.54128 0.85011 0.0
C1616 C 0.42135 0.57736 0.70703 0.0
N1617 N 0.3693 0.55706 0.65703 0.0
C1618 C 0.42366 0.56569 0.67247 0.0
C1619 C 0.39263 0.5786 0.71621 0.0
C1620 C 0.397 0.55536 0.6476 0.0
C1621 C 0.36661 0.56841 0.69053 0.0
C1622 C 0.52847 0.6685 0.78891 0.0
C1623 C 0.52732 0.69726 0.77412 0.0
C1624 C 0.55475 0.67001 0.81169 0.0
C1625 C 0.55253 0.72729 0.78262 0.0
C1626 C 0.57939 0.70057 0.81968 0.0
N1627 N 0.57778 0.72834 0.8051 0.0
C1628 C 0.44459 0.71236 0.78533 0.0
C1629 C 0.39724 0.67038 0.77606 0.0
C1630 C 0.42924 0.74078 0.78716 0.0
N1631 N 0.42907 0.67679 0.77965 0.0
C1632 C 0.38111 0.69805 0.77781 0.0
C1633 C 0.39644 0.73492 0.78346 0.0
H1634 H 0.46954 0.71961 0.78865 0.0
H1635 H 0.38343 0.64331 0.77175 0.0
C1636 C 0.51821 0.5631 0.66435 0.0
N1637 N 0.52143 0.59382 0.68898 0.0
C1638 C 0.5339 0.56172 0.63431 0.0
C1639 C 0.55692 0.62329 0.65318 0.0
C1640 C 0.54096 0.62363 0.68283 0.0
C1641 C 0.55418 0.5921 0.62734 0.0
H1642 H 0.50323 0.53874 0.66753 0.0
H1643 H 0.54459 0.64859 0.70102 0.0
O1644 O 0.45157 0.59579 0.81064 0.0
O1645 O 0.49587 0.55885 0.76894 0.0
O1646 O 0.44705 0.58788 0.73185 0.0
O1647 O 0.50387 0.63913 0.78165 0.0
H1648 H 0.45741 0.54756 0.8461 0.0
H1649 H 0.40681 0.62323 0.83005 0.0
H1650 H 0.42582 0.53172 0.89063 0.0
H1651 H 0.3759 0.6059 0.8747 0.0
H1652 H 0.58381 0.52993 0.74561 0.0
H1653 H 0.4883 0.50206 0.79585 0.0
H1654 H 0.54853 0.56888 0.74469 0.0
H1655 H 0.52444 0.46415 0.79569 0.0
H1656 H 0.35445 0.46352 0.79538 0.0
H1657 H 0.41947 0.41327 0.75094 0.0
H1658 H 0.56226 0.64659 0.94299 0.0
H1659 H 0.53905 0.53397 0.9047 0.0
H1660 H 0.44577 0.56455 0.66499 0.0
H1661 H 0.39052 0.58725 0.74293 0.0
H1662 H 0.39827 0.54579 0.62083 0.0
H1663 H 0.34425 0.56931 0.69727 0.0
H1664 H 0.50719 0.69636 0.75625 0.0
H1665 H 0.556 0.64786 0.82322 0.0
H1666 H 0.55203 0.74973 0.77132 0.0
H1667 H 0.59975 0.70219 0.83752 0.0
H1668 H 0.44351 0.76769 0.79154 0.0
H1669 H 0.35613 0.6901 0.77452 0.0
H1670 H 0.52991 0.53646 0.61646 0.0
H1671 H 0.57172 0.6481 0.65069 0.0
Li1672 Li 0.71334 0.08866 0.76219 0.0
Li1673 Li 0.7495 0.10479 0.72601 0.0
Li1674 Li 0.69904 0.06701 0.70193 0.0
Li1675 Li 0.73716 0.04532 0.73317 0.0
C1676 C 0.69085 0.13739 0.73169 0.0
N1677 N 0.65151 0.18047 0.74069 0.0
C1678 C 0.70248 0.17417 0.73827 0.0
C1679 C 0.65916 0.12254 0.72951 0.0
C1680 C 0.68226 0.19549 0.74292 0.0
C1681 C 0.63964 0.14476 0.73402 0.0
C1682 C 0.77021 0.11012 0.80062 0.0
C1683 C 0.79611 0.11858 0.85891 0.0
N1684 N 0.79398 0.15252 0.8658 0.0
C1685 C 0.76897 0.14532 0.80815 0.0
C1686 C 0.78419 0.09673 0.82617 0.0
C1687 C 0.78071 0.16615 0.84129 0.0
C1688 C 0.68962 0.07778 0.81956 0.0
N1689 N 0.69935 0.10339 0.80234 0.0
C1690 C 0.68751 0.14676 0.84413 0.0
C1691 C 0.69907 0.13749 0.81415 0.0
C1692 C 0.6763 0.12055 0.86174 0.0
C1693 C 0.67778 0.08576 0.84963 0.0
H1694 H 0.69041 0.05109 0.80928 0.0
H1695 H 0.70793 0.15759 0.80059 0.0
C1696 C 0.77114 0.16483 0.70275 0.0
N1697 N 0.78001 0.14338 0.72206 0.0
C1698 C 0.78694 0.20049 0.7102 0.0
C1699 C 0.82164 0.19011 0.75545 0.0
C1700 C 0.80601 0.15441 0.7461 0.0
C1701 C 0.81101 0.21343 0.73831 0.0
H1702 H 0.74997 0.15509 0.68427 0.0
H1703 H 0.8125 0.13636 0.76066 0.0
C1704 C 0.66542 1.01537 0.73358 0.0
N1705 N 0.60887 0.96613 0.72463 0.0
C1706 C 0.66187 0.98015 0.71724 0.0
C1707 C 0.64028 0.0255 0.7456 0.0
C1708 C 0.63308 0.95565 0.71294 0.0
C1709 C 0.61185 1.00025 0.74071 0.0
C1710 C 0.76084 0.07179 0.66981 0.0
C1711 C 0.75278 0.08157 0.63907 0.0
C1712 C 0.79181 0.07447 0.6815 0.0
C1713 C 0.77587 0.09363 0.62032 0.0
C1714 C 0.81423 0.08672 0.66204 0.0
N1715 N 0.80585 0.09592 0.63208 0.0
C1716 C 0.67136 0.08888 0.65268 0.0
C1717 C 0.64023 0.03325 0.65712 0.0
C1718 C 0.64803 0.09302 0.62987 0.0
N1719 N 0.66688 0.05982 0.66628 0.0
C1720 C 0.61631 0.03591 0.63346 0.0
C1721 C 0.62038 0.06619 0.61981 0.0
H1722 H 0.69281 0.10952 0.66063 0.0
H1723 H 0.63723 1.0104 0.66829 0.0
C1724 C 0.75944 1.0072 0.77226 0.0
N1725 N 0.75496 1.01022 0.73911 0.0
C1726 C 0.78289 0.99326 0.78372 0.0
C1727 C 0.79521 0.98405 0.72579 0.0
C1728 C 0.77113 0.99772 0.71539 0.0
C1729 C 0.80224 0.98347 0.76076 0.0
H1730 H 0.74707 1.01925 0.79046 0.0
H1731 H 0.76733 1.00153 0.68938 0.0
O1732 O 0.71057 0.11626 0.72744 0.0
O1733 O 0.75759 0.08892 0.76853 0.0
O1734 O 0.69366 0.03943 0.73878 0.0
O1735 O 0.73854 0.05983 0.68848 0.0
H1736 H 0.72696 0.1862 0.74047 0.0
H1737 H 0.64969 0.09419 0.72418 0.0
H1738 H 0.69106 0.22399 0.74843 0.0
H1739 H 0.61506 0.13362 0.73228 0.0
H1740 H 0.80697 0.10853 0.87887 0.0
H1741 H 0.75854 0.15631 0.78868 0.0
H1742 H 0.78612 0.0699 0.8209 0.0
H1743 H 0.77904 0.19308 0.84747 0.0
H1744 H 0.68694 0.1739 0.8532 0.0
H1745 H 0.66885 0.06478 0.86247 0.0
H1746 H 0.77851 0.21823 0.69658 0.0
H1747 H 0.8406 0.19964 0.77692 0.0
H1748 H 0.68121 0.97184 0.7081 0.0
H1749 H 0.64266 0.05249 0.75879 0.0
H1750 H 0.63 0.92829 0.70037 0.0
H1751 H 0.59219 1.00774 0.74982 0.0
H1752 H 0.72895 0.07979 0.62976 0.0
H1753 H 0.79853 0.06764 0.70559 0.0
H1754 H 0.76995 0.10116 0.59639 0.0
H1755 H 0.83829 0.089 0.67081 0.0
H1756 H 0.65178 0.11683 0.61986 0.0
H1757 H 0.59518 1.01466 0.62579 0.0
H1758 H 0.78697 0.99221 0.81063 0.0
H1759 H 0.80935 0.9764 0.70718 0.0
Li1760 Li 0.81622 0.75306 0.04595 0.0
Li1761 Li 0.83287 0.70556 1.00956 0.0
Li1762 Li 0.81548 0.74989 0.97843 0.0
Li1763 Li 0.77527 0.70149 1.00472 0.0
C1764 C 0.8769 0.78363 0.0328 0.0
N1765 N 0.92925 0.83674 0.06538 0.0
C1766 C 0.90258 0.77525 0.04842 0.0
C1767 C 0.87805 0.81903 0.03341 0.0
C1768 C 0.92877 0.80247 0.06487 0.0
C1769 C 0.90468 0.84549 0.05007 0.0
C1770 C 0.80422 0.67851 0.06518 0.0
C1771 C 0.78685 0.61924 0.07404 0.0
N1772 N 0.80201 0.63054 0.1071 0.0
C1773 C 0.81939 0.68956 0.09937 0.0
C1774 C 0.78766 0.64308 0.05249 0.0
C1775 C 0.81813 0.66491 0.12009 0.0
C1776 C 0.7983 0.77756 0.11338 0.0
N1777 N 0.82315 0.77865 0.09659 0.0
C1778 C 0.85705 0.80124 0.15179 0.0
C1779 C 0.85224 0.79066 0.11543 0.0
C1780 C 0.83183 0.79995 0.16979 0.0
C1781 C 0.8021 0.78849 0.1497 0.0
H1782 H 0.77525 0.76656 0.09884 0.0
H1783 H 0.87196 0.79035 0.10264 0.0
C1784 C 0.8756 0.66797 0.98248 0.0
N1785 N 0.86395 0.68006 1.01096 0.0
C1786 C 0.89984 0.65191 0.98541 0.0
C1787 C 0.90023 0.66202 0.04691 0.0
C1788 C 0.87605 0.67767 0.04277 0.0
C1789 C 0.91239 0.6487 1.01803 0.0
H1790 H 0.8665 0.67122 0.95755 0.0
H1791 H 0.86775 0.68917 0.06522 0.0
C1792 C 0.76892 0.77935 0.02728 0.0
N1793 N 0.746 0.82786 0.068 0.0
C1794 C 0.73984 0.76875 0.03676 0.0
C1795 C 0.78612 0.81469 0.03803 0.0
C1796 C 0.72868 0.79368 0.05743 0.0
C1797 C 0.77427 0.83874 0.05888 0.0
C1798 C 0.8032 0.66733 0.94226 0.0
C1799 C 0.81217 0.67207 0.91075 0.0
C1800 C 0.79574 0.63337 0.94873 0.0
C1801 C 0.81311 0.64263 0.88609 0.0
C1802 C 0.79757 0.6047 0.92368 0.0
N1803 N 0.80601 0.60987 0.89307 0.0
C1804 C 0.85521 0.79116 0.9379 0.0
C1805 C 0.80532 0.76487 0.90602 0.0
C1806 C 0.86518 0.80482 0.90971 0.0
N1807 N 0.82556 0.77162 0.9362 0.0
C1808 C 0.81451 0.77805 0.87694 0.0
C1809 C 0.84509 0.79821 0.87818 0.0
H1810 H 0.8716 0.79606 0.9612 0.0
H1811 H 0.7819 0.74896 0.90416 0.0
C1812 C 0.72201 0.67075 0.03387 0.0
N1813 N 0.73321 0.66921 1.00343 0.0
C1814 C 0.69372 0.6476 0.03623 0.0
C1815 C 0.68839 0.62113 0.97592 0.0
C1816 C 0.71686 0.64481 0.97467 0.0
C1817 C 0.67633 0.62215 1.00704 0.0
H1818 H 0.73534 0.68978 0.0567 0.0
H1819 H 0.72606 0.64329 0.95075 0.0
O1820 O 0.85083 0.75735 1.01699 0.0
O1821 O 0.80507 0.70234 0.0445 0.0
O1822 O 0.78082 0.75504 1.0084 0.0
O1823 O 0.80121 0.69569 0.96633 0.0
H1824 H 0.90231 0.74811 0.04811 0.0
H1825 H 0.85868 0.82602 0.02094 0.0
H1826 H 0.9487 0.79634 0.07725 0.0
H1827 H 0.90583 0.87299 0.05077 0.0
H1828 H 0.7741 0.59177 0.06449 0.0
H1829 H 0.83242 0.71675 0.10973 0.0
H1830 H 0.77528 0.63406 0.02641 0.0
H1831 H 0.82997 0.67309 0.14649 0.0
H1832 H 0.88048 0.80968 0.16571 0.0
H1833 H 0.78177 0.78654 0.162 0.0
H1834 H 0.90845 0.64188 0.96241 0.0
H1835 H 0.9097 0.66097 0.07264 0.0
H1836 H 0.72605 0.74159 0.02831 0.0
H1837 H 0.80855 0.82334 0.03076 0.0
H1838 H 0.70623 0.78583 0.06501 0.0
H1839 H 0.78757 0.86609 0.06782 0.0
H1840 H 0.81808 0.69812 0.90523 0.0
H1841 H 0.78875 0.62919 0.97286 0.0
H1842 H 0.81922 0.64576 0.86128 0.0
H1843 H 0.79204 0.57831 0.92847 0.0
H1844 H 0.88878 0.82076 0.91273 0.0
H1845 H 0.79756 0.77318 0.85403 0.0
H1846 H 0.68565 0.64948 0.06084 0.0
H1847 H 0.67604 0.60195 0.95269 0.0
Li1848 Li 0.94313 0.54658 0.84609 0.0
Li1849 Li 0.99242 0.58751 0.87535 0.0
Li1850 Li 0.95393 0.608 0.84453 0.0
Li1851 Li 0.98252 0.57097 0.81425 0.0
C1852 C 0.92852 0.57448 0.90453 0.0
N1853 N 0.88431 0.54763 0.94199 0.0
C1854 C 0.93729 0.56478 0.93508 0.0
C1855 C 0.89727 0.57022 0.89281 0.0
C1856 C 0.91459 0.55132 0.95371 0.0
C1857 C 0.87526 0.55668 0.91216 0.0
C1858 C 1.00158 0.51684 0.83873 0.0
C1859 C 0.05078 0.50459 0.83339 0.0
N1860 N 0.03618 0.46955 0.82194 0.0
C1861 C 0.98714 0.48061 0.82754 0.0
C1862 C 0.0337 0.52891 0.842 0.0
C1863 C 1.00498 0.45719 0.81882 0.0
C1864 C 0.90433 0.48812 0.80668 0.0
N1865 N 0.91431 0.50319 0.84067 0.0
C1866 C 0.89238 0.44879 0.85599 0.0
C1867 C 0.90858 0.48457 0.86548 0.0
C1868 C 0.88295 0.43267 0.82082 0.0
C1869 C 0.88818 0.45297 0.79616 0.0
H1870 H 0.91097 0.50239 0.78729 0.0
H1871 H 0.91824 0.49664 0.89217 0.0
C1872 C 0.04963 0.62077 0.92236 0.0
N1873 N 0.02383 0.59325 0.91107 0.0
C1874 C 0.07463 0.61656 0.9433 0.0
C1875 C 0.04533 0.55639 0.94057 0.0
C1876 C 1.02094 0.56195 0.92052 0.0
C1877 C 0.07238 0.58388 0.95219 0.0
H1878 H 0.05116 0.64551 0.91469 0.0
H1879 H 1.00002 0.54073 0.91115 0.0
C1880 C 0.91757 0.5671 0.77923 0.0
N1881 N 0.8742 0.56502 0.72395 0.0
C1882 C 0.9265 0.57072 0.74746 0.0
C1883 C 0.88651 0.56235 0.78284 0.0
C1884 C 0.90427 0.56952 0.71987 0.0
C1885 C 0.86496 0.56153 0.75463 0.0
C1886 C 0.02634 0.64408 0.84933 0.0
C1887 C 0.02803 0.67928 0.86392 0.0
C1888 C 0.05311 0.63475 0.84158 0.0
C1889 C 0.0566 0.7046 0.87077 0.0
C1890 C 0.08124 0.66083 0.84884 0.0
N1891 N 0.08239 0.69492 0.86318 0.0
C1892 C 0.91394 0.64897 0.86028 0.0
C1893 C 0.93294 0.64906 0.8073 0.0
C1894 C 0.88952 0.66131 0.8483 0.0
N1895 N 0.93391 0.64161 0.83895 0.0
C1896 C 0.90874 0.66094 0.79405 0.0
C1897 C 0.88581 0.66537 0.8141 0.0
H1898 H 0.91545 0.64244 0.8853 0.0
H1899 H 0.94895 0.6419 0.79113 0.0
C1900 C 0.99041 0.52447 0.75914 0.0
N1901 N 0.99758 0.55919 0.77523 0.0
C1902 C 1.00252 0.51441 0.72977 0.0
C1903 C 0.02633 0.57657 0.73268 0.0
C1904 C 1.01436 0.58528 0.7624 0.0
C1905 C 1.0208 0.5408 0.71679 0.0
H1906 H 0.97539 0.50476 0.7692 0.0
H1907 H 1.01833 0.61266 0.77525 0.0
O1908 O 0.9505 0.5886 0.88651 0.0
O1909 O 0.98427 0.54022 0.84667 0.0
O1910 O 0.93886 0.56632 0.80606 0.0
O1911 O 0.99839 0.61923 0.84184 0.0
H1912 H 0.96136 0.56758 0.94424 0.0
H1913 H 0.89006 0.57728 0.86904 0.0
H1914 H 0.92105 0.54377 0.97746 0.0
H1915 H 0.85099 0.55337 0.90346 0.0
H1916 H 0.07565 0.51358 0.83577 0.0
H1917 H 0.96236 0.47068 0.82514 0.0
H1918 H 0.04534 0.5567 0.85127 0.0
H1919 H 0.99401 0.42917 0.80967 0.0
H1920 H 0.88893 0.43357 0.87562 0.0
H1921 H 0.88144 0.44145 0.76875 0.0
H1922 H 0.09515 0.63846 0.95266 0.0
H1923 H 0.04287 0.53095 0.94738 0.0
H1924 H 0.95026 0.57427 0.74391 0.0
H1925 H 0.8791 0.559 0.80707 0.0
H1926 H 0.91102 0.57199 0.6952 0.0
H1927 H 0.84086 0.55789 0.75707 0.0
H1928 H 1.00745 0.68694 0.86977 0.0
H1929 H 0.05222 0.60774 0.82994 0.0
H1930 H 0.05826 0.73195 0.88209 0.0
H1931 H 0.10214 0.65398 0.84301 0.0
H1932 H 0.87279 0.6654 0.86485 0.0
H1933 H 0.9072 0.6649 0.76794 0.0
H1934 H 0.99782 0.48666 0.71741 0.0
H1935 H 0.04041 0.59731 0.72275 0.0
Li1936 Li 0.86286 0.47053 0.53141 0.0
Li1937 Li 0.84292 0.50874 0.50112 0.0
Li1938 Li 0.85121 0.4539 0.46874 0.0
Li1939 Li 0.89524 0.50284 0.49513 0.0
C1940 C 0.80202 0.42792 0.5051 0.0
N1941 N 0.76262 0.36637 0.51319 0.0
C1942 C 0.77148 0.42677 0.50908 0.0
C1943 C 0.81259 0.39788 0.5057 0.0
C1944 C 0.75189 0.39537 0.51308 0.0
C1945 C 0.7923 0.36696 0.50964 0.0
C1946 C 0.8911 0.55016 0.56281 0.0
C1947 C 0.92705 0.60738 0.58645 0.0
N1948 N 0.91646 0.60797 0.61702 0.0
C1949 C 0.88092 0.55102 0.59462 0.0
C1950 C 0.91428 0.57861 0.55864 0.0
C1951 C 0.89368 0.58075 0.62152 0.0
C1952 C 0.89714 0.46132 0.58545 0.0
N1953 N 0.86725 0.45631 0.57164 0.0
C1954 C 0.8493 0.42246 0.61138 0.0
C1955 C 0.84335 0.43903 0.58495 0.0
C1956 C 0.88013 0.42511 0.62458 0.0
C1957 C 0.90423 0.44615 0.61248 0.0
H1958 H 0.91541 0.47544 0.57415 0.0
H1959 H 0.8198 0.43653 0.574 0.0
C1960 C 0.80468 0.55552 0.48976 0.0
N1961 N 0.81668 0.53767 0.51101 0.0
C1962 C 0.78377 0.57437 0.50062 0.0
C1963 C 0.78823 0.55567 0.55462 0.0
C1964 C 0.80871 0.53713 0.54266 0.0
C1965 C 0.77539 0.57459 0.53352 0.0
H1966 H 0.81087 0.55447 0.46435 0.0
H1967 H 0.81772 0.52138 0.55825 0.0
C1968 C 0.90421 0.42937 0.49357 0.0
N1969 N 0.93904 0.38108 0.48396 0.0
C1970 C 0.92558 0.43191 0.47077 0.0
C1971 C 0.90081 0.40229 0.51168 0.0
C1972 C 0.9429 0.40727 0.46622 0.0
C1973 C 0.91852 0.37811 0.50638 0.0
C1974 C 0.87418 0.52998 0.444 0.0
C1975 C 0.88161 0.52416 0.41078 0.0
C1976 C 0.88085 0.56448 0.46379 0.0
C1977 C 0.8961 0.55309 0.39809 0.0
C1978 C 0.89532 0.5927 0.45017 0.0
N1979 N 0.90263 0.58646 0.4179 0.0
C1980 C 0.82094 0.3848 0.42406 0.0
C1981 C 0.86605 0.42177 0.41169 0.0
C1982 C 0.82223 0.35703 0.39774 0.0
N1983 N 0.84312 0.41609 0.43079 0.0
C1984 C 0.86794 0.39513 0.38498 0.0
C1985 C 0.84609 0.36227 0.37809 0.0
H1986 H 0.80225 0.38123 0.43871 0.0
H1987 H 0.88318 0.44705 0.4177 0.0
C1988 C 0.95279 0.51867 0.52579 0.0
N1989 N 0.93769 0.52 0.49511 0.0
C1990 C 0.98416 0.52167 0.53035 0.0
C1991 C 0.98469 0.52912 0.47179 0.0
C1992 C 0.95275 0.52516 0.46812 0.0
C1993 C 1.00063 0.52687 0.50319 0.0
H1994 H 0.94008 0.51405 0.54644 0.0
H1995 H 0.93999 0.52465 0.44351 0.0
O1996 O 0.82169 0.45886 0.50227 0.0
O1997 O 0.87973 0.52085 0.53643 0.0
O1998 O 0.88774 0.45406 0.49929 0.0
O1999 O 0.86134 0.50198 0.45752 0.0
H2000 H 0.76305 0.44997 0.50923 0.0
H2001 H 0.83609 0.39835 0.50271 0.0
H2002 H 0.72819 0.39406 0.51619 0.0
H2003 H 0.80013 0.34344 0.50986 0.0
H2004 H 0.94526 0.6293 0.58365 0.0
H2005 H 0.86343 0.52896 0.59858 0.0
H2006 H 0.9227 0.57828 0.53433 0.0
H2007 H 0.88545 0.58217 0.64595 0.0
H2008 H 0.83001 0.40634 0.61997 0.0
H2009 H 0.92824 0.44957 0.62272 0.0
H2010 H 0.77407 0.58832 0.48347 0.0
H2011 H 0.78167 0.55409 0.57963 0.0
H2012 H 0.92881 0.45264 0.45663 0.0
H2013 H 0.88486 0.4 0.52988 0.0
H2014 H 0.95946 0.40901 0.44863 0.0
H2015 H 0.91606 0.35707 0.52022 0.0
H2016 H 0.87646 0.49762 0.39506 0.0
H2017 H 0.87515 0.56939 0.48949 0.0
H2018 H 0.90214 0.549 0.3725 0.0
H2019 H 0.90077 0.61954 0.46527 0.0
H2020 H 0.8041 0.33243 0.39185 0.0
H2021 H 0.88592 0.40043 0.36946 0.0
H2022 H 0.99534 0.52029 0.55524 0.0
H2023 H 0.99665 0.53362 0.45038 0.0
Li2024 Li 0.69726 0.55475 0.3289 0.0
Li2025 Li 0.74348 0.59585 0.2981 0.0
Li2026 Li 0.69465 0.54984 0.25471 0.0
Li2027 Li 0.73819 0.5187 0.28952 0.0
C2028 C 0.67829 0.61281 0.29974 0.0
N2029 N 0.64029 0.65765 0.30554 0.0
C2030 C 0.68933 0.64701 0.32043 0.0
C2031 C 0.64781 0.60117 0.28249 0.0
C2032 C 0.66979 0.66937 0.32287 0.0
C2033 C 0.62898 0.6243 0.28564 0.0
C2034 C 0.76759 0.57449 0.3631 0.0
C2035 C 0.81589 0.57536 0.39575 0.0
N2036 N 0.81155 0.59999 0.4219 0.0
C2037 C 0.76343 0.59963 0.3903 0.0
C2038 C 0.79395 0.56215 0.36579 0.0
C2039 C 0.78598 0.61225 0.41983 0.0
C2040 C 0.65411 0.52622 0.38444 0.0
N2041 N 0.67192 0.55644 0.37708 0.0
C2042 C 0.6581 0.58867 0.43076 0.0
C2043 C 0.67361 0.58743 0.40061 0.0
C2044 C 0.63949 0.55786 0.43886 0.0
C2045 C 0.63824 0.52643 0.41411 0.0
H2046 H 0.65185 0.50102 0.36727 0.0
H2047 H 0.68719 0.61213 0.39645 0.0
C2048 C 0.75873 0.67396 0.28636 0.0
N2049 N 0.77162 0.64957 0.29836 0.0
C2050 C 0.77675 0.70859 0.28476 0.0
C2051 C 0.82176 0.69363 0.30696 0.0
C2052 C 0.803 0.65975 0.30878 0.0
C2053 C 0.80926 0.71943 0.29483 0.0
H2054 H 0.73414 0.66665 0.27718 0.0
H2055 H 0.81406 0.64127 0.31801 0.0
C2056 C 0.66434 0.48106 0.27532 0.0
N2057 N 0.61486 0.42142 0.25669 0.0
C2058 C 0.6668 0.45067 0.25313 0.0
C2059 C 0.63667 0.48134 0.28766 0.0
C2060 C 0.6415 0.42073 0.24406 0.0
C2061 C 0.61196 0.45087 0.27808 0.0
C2062 C 0.75348 0.55463 0.22621 0.0
C2063 C 0.74023 0.52692 0.1975 0.0
C2064 C 0.77857 0.58203 0.22396 0.0
C2065 C 0.75225 0.52722 0.16681 0.0
C2066 C 0.79001 0.58129 0.19286 0.0
N2067 N 0.77669 0.55415 0.16515 0.0
C2068 C 0.66649 0.58488 0.19909 0.0
C2069 C 0.65702 0.52427 0.17623 0.0
C2070 C 0.65188 0.58965 0.16714 0.0
N2071 N 0.66912 0.55245 0.20408 0.0
C2072 C 0.64239 0.52805 0.14366 0.0
C2073 C 0.63928 0.56124 0.1379 0.0
H2074 H 0.67612 0.60791 0.21997 0.0
H2075 H 0.65886 0.49831 0.17872 0.0
C2076 C 0.74781 0.4373 0.28374 0.0
N2077 N 0.76326 0.47246 0.28643 0.0
C2078 C 0.76295 0.40869 0.28176 0.0
C2079 C 0.81079 0.45049 0.28555 0.0
C2080 C 0.79484 0.47833 0.28724 0.0
C2081 C 0.79549 0.41398 0.28261 0.0
H2082 H 0.72309 0.43056 0.28321 0.0
H2083 H 0.80854 0.50512 0.28932 0.0
O2084 O 0.69712 0.59067 0.29649 0.0
O2085 O 0.7459 0.56185 0.33397 0.0
O2086 O 0.68909 0.51022 0.28559 0.0
O2087 O 0.74179 0.55507 0.25633 0.0
H2088 H 0.71277 0.65621 0.33433 0.0
H2089 H 0.63887 0.57461 0.26667 0.0
H2090 H 0.67807 0.69603 0.33854 0.0
H2091 H 0.60539 0.61574 0.27224 0.0
H2092 H 0.8363 0.56595 0.3982 0.0
H2093 H 0.74306 0.60935 0.38854 0.0
H2094 H 0.79739 0.54259 0.34495 0.0
H2095 H 0.78313 0.63174 0.44112 0.0
H2096 H 0.66082 0.61414 0.44773 0.0
H2097 H 0.62476 0.50132 0.41755 0.0
H2098 H 0.76523 0.72627 0.27466 0.0
H2099 H 0.84647 0.69945 0.31497 0.0
H2100 H 0.68803 0.45022 0.24313 0.0
H2101 H 0.6344 0.50479 0.30468 0.0
H2102 H 0.64309 0.39691 0.22708 0.0
H2103 H 0.59055 0.45066 0.28781 0.0
H2104 H 0.72078 0.50554 0.19889 0.0
H2105 H 0.78919 0.60354 0.24602 0.0
H2106 H 0.74215 0.50605 0.1443 0.0
H2107 H 0.80945 0.60229 0.19075 0.0
H2108 H 0.65085 0.61608 0.1654 0.0
H2109 H 0.63361 0.50472 0.1229 0.0
H2110 H 0.74875 0.38214 0.27976 0.0
H2111 H 0.83559 0.458 0.28661 0.0
Ho2112 Ho 0.0742 0.05489 1.01408 0.0
Ho2113 Ho 0.11871 0.09472 0.0519 0.0
C2114 C 0.07942 0.13692 1.01706 0.0
C2115 C 1.01792 0.02563 0.98328 0.0
C2116 C 0.99082 0.03458 0.99551 0.0
C2117 C 0.99415 0.05386 0.02951 0.0
C2118 C 0.97068 0.06791 0.04055 0.0
C2119 C 0.94323 0.0628 1.0178 0.0
C2120 C 0.93948 0.04242 0.984 0.0
C2121 C 0.96325 0.02855 0.97286 0.0
C2122 C 0.121 0.05717 0.97129 0.0
C2123 C 0.11281 1.01237 0.04914 0.0
C2124 C 0.17525 0.12434 0.08186 0.0
C2125 C 0.20272 0.11709 0.06891 0.0
C2126 C 0.20007 0.10024 0.03415 0.0
C2127 C 0.2241 0.08771 0.02231 0.0
C2128 C 0.25129 0.09176 0.04508 0.0
C2129 C 0.25439 0.10993 0.07964 0.0
C2130 C 0.23018 0.12237 0.0915 0.0
C2131 C 0.07206 0.09271 0.09492 0.0
O2132 O 0.05954 0.1063 1.0151 0.0
O2133 O 0.1082 0.1391 0.02876 0.0
O2134 O 0.0364 0.05136 0.97407 0.0
O2135 O 0.03296 1.01084 1.00308 0.0
O2136 O 0.10092 0.02941 0.975 0.0
O2137 O 0.11653 0.08318 0.993 0.0
O2138 O 0.13289 0.04291 0.05112 0.0
O2139 O 0.08413 1.01039 0.03731 0.0
O2140 O 0.15749 0.09759 0.0904 0.0
O2141 O 0.15945 0.13942 0.06321 0.0
O2142 O 0.09249 0.12031 0.09149 0.0
O2143 O 0.07634 0.06664 0.07307 0.0
H2144 H 1.01551 0.05934 0.04719 0.0
H2145 H 0.97463 0.08401 0.06648 0.0
H2146 H 0.91842 0.03775 0.96599 0.0
H2147 H 0.96048 1.01413 0.94641 0.0
H2148 H 0.17884 0.0954 1.01643 0.0
H2149 H 0.2207 0.07332 0.99576 0.0
H2150 H 0.27521 0.11369 0.09772 0.0
H2151 H 0.23247 0.13494 0.11848 0.0
Ho2152 Ho 0.3646 0.82134 0.25835 0.0
Ho2153 Ho 0.32835 0.8238 0.30132 0.0
C2154 C 0.37121 0.89452 0.30659 0.0
C2155 C 0.40015 0.8343 0.21388 0.0
C2156 C 0.39584 0.8567 0.19048 0.0
C2157 C 0.37129 0.87229 0.1929 0.0
C2158 C 0.3668 0.89523 0.17231 0.0
C2159 C 0.38594 0.90158 0.14776 0.0
C2160 C 0.41038 0.88547 0.14495 0.0
C2161 C 0.41553 0.86331 0.16665 0.0
C2162 C 0.39076 0.79945 0.31321 0.0
C2163 C 0.32208 0.75104 0.25224 0.0
C2164 C 0.29148 0.81214 0.34491 0.0
C2165 C 0.29382 0.79113 0.37001 0.0
C2166 C 0.31659 0.77279 0.36925 0.0
C2167 C 0.32055 0.7535 0.3937 0.0
C2168 C 0.30221 0.75299 0.41967 0.0
C2169 C 0.27937 0.77151 0.42044 0.0
C2170 C 0.27509 0.79051 0.39543 0.0
C2171 C 0.3025 0.84634 0.24688 0.0
O2172 O 0.36827 0.87903 0.27416 0.0
O2173 O 0.36118 0.87513 0.32774 0.0
O2174 O 0.40696 0.85118 0.24605 0.0
O2175 O 0.37786 0.80544 0.20877 0.0
O2176 O 0.38665 0.78381 0.28117 0.0
O2177 O 0.37841 0.82512 0.31546 0.0
O2178 O 0.32515 0.76566 0.28503 0.0
O2179 O 0.33116 0.77115 0.23145 0.0
O2180 O 0.28577 0.79408 0.31318 0.0
O2181 O 0.31437 0.84042 0.3502 0.0
O2182 O 0.30699 0.86197 0.27888 0.0
O2183 O 0.31447 0.82034 0.24449 0.0
H2184 H 0.35542 0.86662 0.21067 0.0
H2185 H 0.34809 0.90756 0.17537 0.0
H2186 H 0.42504 0.88934 0.12559 0.0
H2187 H 0.43441 0.85109 0.16457 0.0
H2188 H 0.33163 0.77377 0.35 0.0
H2189 H 0.33793 0.73897 0.3922 0.0
H2190 H 0.26539 0.772 0.44075 0.0
H2191 H 0.25779 0.80515 0.3963 0.0
Ho2192 Ho 0.63221 0.07775 0.53288 0.0
Ho2193 Ho 0.56166 0.07031 0.53591 0.0
C2194 C 0.58261 0.99807 0.5187 0.0
C2195 C 0.6895 0.0767 0.54171 0.0
C2196 C 0.70971 0.05266 0.54153 0.0
C2197 C 0.70796 0.02881 0.56344 0.0
C2198 C 0.7302 1.00995 0.56605 0.0
C2199 C 0.7544 1.01436 0.54657 0.0
C2200 C 0.7553 0.03721 0.52373 0.0
C2201 C 0.73326 0.05621 0.52134 0.0
C2202 C 0.59671 0.07898 0.47572 0.0
C2203 C 0.6111 0.14983 0.54904 0.0
C2204 C 0.50428 0.07113 0.52768 0.0
C2205 C 0.48349 0.09446 0.52748 0.0
C2206 C 0.48537 0.119 0.50628 0.0
C2207 C 0.46255 0.1371 0.50331 0.0
C2208 C 0.43768 0.13119 0.52173 0.0
C2209 C 0.43663 0.10757 0.54382 0.0
C2210 C 0.45924 0.08941 0.54659 0.0
C2211 C 0.59738 0.06963 0.59327 0.0
O2212 O 0.61194 1.01782 0.52702 0.0
O2213 O 0.55915 1.01266 0.51697 0.0
O2214 O 0.67439 0.0771 0.51199 0.0
O2215 O 0.67328 0.07936 0.56675 0.0
O2216 O 0.62507 0.09834 0.48474 0.0
O2217 O 0.58963 0.05955 0.49633 0.0
O2218 O 0.58183 0.12997 0.54007 0.0
O2219 O 0.63453 0.13533 0.55201 0.0
O2220 O 0.51993 0.07181 0.55746 0.0
O2221 O 0.52011 0.06793 0.50233 0.0
O2222 O 0.56905 0.05019 0.58442 0.0
O2223 O 0.60425 0.08876 0.57239 0.0
H2224 H 0.69004 0.02554 0.57939 0.0
H2225 H 0.72868 0.99226 0.58361 0.0
H2226 H 0.77376 0.04149 0.50861 0.0
H2227 H 0.73521 0.07463 0.50447 0.0
H2228 H 0.50385 0.12337 0.49118 0.0
H2229 H 0.46422 0.15544 0.48639 0.0
H2230 H 0.41769 0.10213 0.55813 0.0
H2231 H 0.4572 0.07045 0.5629 0.0
Ho2232 Ho 0.31685 0.33595 0.78258 0.0
Ho2233 Ho 0.37598 0.31455 0.78399 0.0
C2234 C 0.35659 0.34227 0.85778 0.0
C2235 C 0.25976 0.33738 0.78297 0.0
C2236 C 0.23291 0.32859 0.80072 0.0
C2237 C 0.22663 0.29944 0.81623 0.0
C2238 C 0.20088 0.2929 0.83321 0.0
C2239 C 0.1811 0.31547 0.83502 0.0
C2240 C 0.18764 0.3444 0.81916 0.0
C2241 C 0.21322 0.35087 0.80238 0.0
C2242 C 0.36151 0.39614 0.77612 0.0
C2243 C 0.33647 0.30895 0.70886 0.0
C2244 C 0.433 0.31281 0.78369 0.0
C2245 C 0.46068 0.32312 0.76764 0.0
C2246 C 0.46261 0.34509 0.74393 0.0
C2247 C 0.48871 0.35178 0.72747 0.0
C2248 C 0.51308 0.33634 0.7343 0.0
C2249 C 0.51106 0.31509 0.75873 0.0
C2250 C 0.4852 0.30854 0.77506 0.0
C2251 C 0.33129 0.2545 0.79089 0.0
O2252 O 0.32948 0.34058 0.84017 0.0
O2253 O 0.37937 0.3361 0.84149 0.0
O2254 O 0.28342 0.36269 0.80049 0.0
O2255 O 0.26787 0.31162 0.76406 0.0
O2256 O 0.33249 0.3929 0.77681 0.0
O2257 O 0.36577 0.36589 0.779 0.0
O2258 O 0.36367 0.31107 0.72652 0.0
O2259 O 0.31348 0.31437 0.7251 0.0
O2260 O 0.40938 0.28889 0.76417 0.0
O2261 O 0.42487 0.33755 0.8041 0.0
O2262 O 0.36041 0.25789 0.7908 0.0
O2263 O 0.32713 0.28472 0.7878 0.0
H2264 H 0.24165 0.28197 0.81541 0.0
H2265 H 0.1968 0.27055 0.84537 0.0
H2266 H 0.17277 0.36198 0.81929 0.0
H2267 H 0.21762 0.37348 0.79055 0.0
H2268 H 0.44378 0.35643 0.73769 0.0
H2269 H 0.48934 0.36808 0.70867 0.0
H2270 H 0.5295 0.30328 0.76521 0.0
H2271 H 0.48413 0.29147 0.79322 0.0
Ho2272 Ho 0.094 0.10851 0.55146 0.0
Ho2273 Ho 0.09868 0.04245 0.51678 0.0
C2274 C 0.06901 0.08431 0.46562 0.0
C2275 C 0.09925 0.17542 0.56888 0.0
C2276 C 0.11042 0.20256 0.54978 0.0
C2277 C 0.13147 0.19766 0.52716 0.0
C2278 C 0.1411 0.22232 0.50751 0.0
C2279 C 0.12942 0.25204 0.50974 0.0
C2280 C 0.10835 0.2569 0.53244 0.0
C2281 C 0.09893 0.2323 0.55235 0.0
C2282 C 0.04618 0.05486 0.55915 0.0
C2283 C 0.12387 0.06662 0.60256 0.0
C2284 C 0.09327 0.97552 0.49932 0.0
C2285 C 0.08292 0.94867 0.51895 0.0
C2286 C 0.06477 0.95519 0.54452 0.0
C2287 C 0.0558 0.93057 0.56441 0.0
C2288 C 0.06523 0.89924 0.55934 0.0
C2289 C 0.08331 0.89273 0.53361 0.0
C2290 C 0.09207 0.91732 0.5135 0.0
C2291 C 0.14635 0.09612 0.50901 0.0
O2292 O 0.07918 0.11086 0.49367 0.0
O2293 O 0.07217 0.05277 0.4688 0.0
O2294 O 0.07311 0.15229 0.5545 0.0
O2295 O 0.12 0.16067 0.5801 0.0
O2296 O 0.06001 0.08286 0.58298 0.0
O2297 O 0.05747 0.05766 0.5319 0.0
O2298 O 0.11392 0.04018 0.57442 0.0
O2299 O 0.12043 0.09812 0.59954 0.0
O2300 O 0.11963 0.99869 0.51277 0.0
O2301 O 0.07214 0.99019 0.489 0.0
O2302 O 0.13242 0.06819 0.48513 0.0
O2303 O 0.1352 0.09328 0.53636 0.0
H2304 H 0.14006 0.1744 0.52423 0.0
H2305 H 0.15697 0.21757 0.4899 0.0
H2306 H 0.09916 0.27975 0.53481 0.0
H2307 H 0.08244 0.23624 0.56939 0.0
H2308 H 0.05788 0.97959 0.54944 0.0
H2309 H 0.04222 0.93646 0.58433 0.0
H2310 H 0.09065 0.8686 0.52904 0.0
H2311 H 0.10622 0.91205 0.49402 0.0
Ho2312 Ho 0.37432 0.85023 0.78184 0.0
Ho2313 Ho 0.31672 0.79764 0.78379 0.0
C2314 C 0.37857 0.76562 0.78477 0.0
C2315 C 0.42986 0.88935 0.79715 0.0
C2316 C 0.45905 0.87989 0.79538 0.0
C2317 C 0.46571 0.85383 0.81183 0.0
C2318 C 0.49375 0.84558 0.8108 0.0
C2319 C 0.51558 0.86306 0.79311 0.0
C2320 C 0.50803 0.88741 0.77475 0.0
C2321 C 0.48001 0.89596 0.7761 0.0
C2322 C 0.34596 0.81049 0.71972 0.0
C2323 C 0.31272 0.88254 0.78089 0.0
C2324 C 0.26116 0.7586 0.76919 0.0
C2325 C 0.23216 0.7682 0.77213 0.0
C2326 C 0.22539 0.79496 0.75685 0.0
C2327 C 0.19751 0.80335 0.75897 0.0
C2328 C 0.17594 0.78528 0.77656 0.0
C2329 C 0.18371 0.76032 0.79393 0.0
C2330 C 0.21157 0.75164 0.79148 0.0
C2331 C 0.34496 0.83737 0.84588 0.0
O2332 O 0.39345 0.80012 0.78776 0.0
O2333 O 0.34759 0.75772 0.78137 0.0
O2334 O 0.41269 0.88535 0.76735 0.0
O2335 O 0.41413 0.87785 0.82023 0.0
O2336 O 0.36067 0.84372 0.72479 0.0
O2337 O 0.34869 0.80043 0.74742 0.0
O2338 O 0.29779 0.8481 0.77839 0.0
O2339 O 0.34364 0.89026 0.78374 0.0
O2340 O 0.27883 0.76206 0.79852 0.0
O2341 O 0.27641 0.77049 0.74591 0.0
O2342 O 0.33064 0.80402 0.84077 0.0
O2343 O 0.34217 0.84737 0.81814 0.0
H2344 H 0.44971 0.84047 0.82642 0.0
H2345 H 0.49899 0.82716 0.82572 0.0
H2346 H 0.52438 0.90103 0.76067 0.0
H2347 H 0.47495 0.91558 0.76267 0.0
H2348 H 0.24113 0.80873 0.74228 0.0
H2349 H 0.19211 0.8223 0.74482 0.0
H2350 H 0.16759 0.74625 0.80795 0.0
H2351 H 0.21676 0.7315 0.80408 0.0
Ho2352 Ho 0.60011 0.05618 0.06108 0.0
Ho2353 Ho 0.59377 0.09292 1.01014 0.0
C2354 C 0.53492 0.03728 1.01187 0.0
C2355 C 0.59391 1.02037 0.10804 0.0
C2356 C 0.57081 1.01662 0.13019 0.0
C2357 C 0.54798 0.03465 0.12696 0.0
C2358 C 0.52963 0.03788 0.15215 0.0
C2359 C 0.53425 1.02336 0.18079 0.0
C2360 C 0.55548 1.00306 0.18282 0.0
C2361 C 0.57394 0.99979 0.15743 0.0
C2362 C 0.62832 0.03304 1.00855 0.0
C2363 C 0.65928 0.11052 0.05866 0.0
C2364 C 0.59983 0.12856 0.96307 0.0
C2365 C 0.62277 0.13271 0.94074 0.0
C2366 C 0.6469 0.11665 0.94467 0.0
C2367 C 0.66591 0.11482 0.91994 0.0
C2368 C 0.66052 0.12852 0.89086 0.0
C2369 C 0.63734 0.14623 0.88786 0.0
C2370 C 0.61843 0.1483 0.91287 0.0
C2371 C 0.56459 0.11536 0.06199 0.0
O2372 O 0.54887 0.04109 0.04348 0.0
O2373 O 0.55079 0.04976 0.98938 0.0
O2374 O 0.58349 1.0064 0.07542 0.0
O2375 O 0.61166 0.05258 0.11359 0.0
O2376 O 0.63849 0.03754 0.04075 0.0
O2377 O 0.60236 0.03992 1.00471 0.0
O2378 O 0.64508 0.10685 0.0272 0.0
O2379 O 0.6434 0.09906 0.08155 0.0
O2380 O 0.61022 0.14267 0.9957 0.0
O2381 O 0.58234 0.09624 0.95754 0.0
O2382 O 0.55478 0.11047 0.02965 0.0
O2383 O 0.59082 0.10904 0.06638 0.0
H2384 H 0.54589 0.04847 0.10644 0.0
H2385 H 0.51334 0.05372 0.15052 0.0
H2386 H 0.55938 0.99211 0.20519 0.0
H2387 H 0.59181 0.98619 0.16016 0.0
H2388 H 0.64996 0.10372 0.96568 0.0
H2389 H 0.68377 0.10118 0.92266 0.0
H2390 H 0.6326 0.15648 0.86523 0.0
H2391 H 0.5995 0.16025 0.9095 0.0
Ho2392 Ho 0.36872 0.36104 0.3047 0.0
Ho2393 Ho 0.32496 0.28729 0.2632 0.0
C2394 C 0.29506 0.34554 0.29932 0.0
C2395 C 0.39322 0.42759 0.31877 0.0
C2396 C 0.3788 0.44985 0.30107 0.0
C2397 C 0.36236 0.43435 0.26764 0.0
C2398 C 0.33821 0.44631 0.25451 0.0
C2399 C 0.33005 0.47428 0.27457 0.0
C2400 C 0.34814 0.49194 0.30694 0.0
C2401 C 0.37232 0.47961 0.32023 0.0
C2402 C 0.35606 0.31736 0.35026 0.0
C2403 C 0.39861 0.3032 0.26794 0.0
C2404 C 0.29932 0.22086 0.24941 0.0
C2405 C 0.31173 0.19779 0.26801 0.0
C2406 C 0.326 0.21225 0.30244 0.0
C2407 C 0.34924 0.19981 0.31706 0.0
C2408 C 0.35851 0.17241 0.29752 0.0
C2409 C 0.34215 0.15542 0.2642 0.0
C2410 C 0.3189 0.16819 0.24943 0.0
C2411 C 0.33785 0.33074 0.21753 0.0
O2412 O 0.32102 0.36942 0.29944 0.0
O2413 O 0.29133 0.31138 0.28802 0.0
O2414 O 0.3755 0.41229 0.33828 0.0
O2415 O 0.40505 0.40553 0.29942 0.0
O2416 O 0.37617 0.348 0.35744 0.0
O2417 O 0.34691 0.31019 0.31774 0.0
O2418 O 0.37278 0.27916 0.2681 0.0
O2419 O 0.40241 0.33733 0.27962 0.0
O2420 O 0.31858 0.23549 0.23092 0.0
O2421 O 0.28742 0.24365 0.26764 0.0
O2422 O 0.31784 0.30004 0.21036 0.0
O2423 O 0.34685 0.33802 0.25009 0.0
H2424 H 0.36575 0.41039 0.25307 0.0
H2425 H 0.32458 0.43186 0.22973 0.0
H2426 H 0.34275 0.51422 0.32265 0.0
H2427 H 0.38408 0.49132 0.34645 0.0
H2428 H 0.32174 0.23579 0.31686 0.0
H2429 H 0.36153 0.21358 0.34265 0.0
H2430 H 0.34847 0.13359 0.24888 0.0
H2431 H 0.30869 0.15715 0.2226 0.0
Ho2432 Ho 0.5938 0.60837 0.05148 0.0
Ho2433 Ho 0.5988 0.54268 1.01675 0.0
C2434 C 0.56894 0.58439 0.96564 0.0
C2435 C 0.59855 0.67513 0.06912 0.0
C2436 C 0.60974 0.70247 0.05025 0.0
C2437 C 0.6318 0.69846 0.02872 0.0
C2438 C 0.64131 0.72311 1.00905 0.0
C2439 C 0.62851 0.75192 1.01013 0.0
C2440 C 0.60643 0.7559 0.03171 0.0
C2441 C 0.59713 0.73132 0.05168 0.0
C2442 C 0.54613 0.55452 0.05911 0.0
C2443 C 0.62394 0.56665 0.10252 0.0
C2444 C 0.59374 0.47587 0.99909 0.0
C2445 C 0.58324 0.44905 1.01866 0.0
C2446 C 0.56506 0.45573 0.04416 0.0
C2447 C 0.55605 0.43126 0.06417 0.0
C2448 C 0.56547 0.39995 0.0593 0.0
C2449 C 0.58354 0.39324 0.03361 0.0
C2450 C 0.59235 0.41768 1.01338 0.0
C2451 C 0.64633 0.59653 1.00904 0.0
O2452 O 0.57908 0.61091 0.99372 0.0
O2453 O 0.57217 0.55288 0.9688 0.0
O2454 O 0.57258 0.65187 0.05443 0.0
O2455 O 0.61933 0.66054 0.08055 0.0
O2456 O 0.55997 0.58247 0.08299 0.0
O2457 O 0.55737 0.55742 0.03185 0.0
O2458 O 0.61401 0.54024 0.07436 0.0
O2459 O 0.62042 0.59812 0.09952 0.0
O2460 O 0.61998 0.49913 1.01284 0.0
O2461 O 0.57263 0.49044 0.98852 0.0
O2462 O 0.63241 0.56864 0.98512 0.0
O2463 O 0.63523 0.59361 0.0364 0.0
H2464 H 0.64126 0.67586 0.02661 0.0
H2465 H 0.65797 0.71904 0.99227 0.0
H2466 H 0.59634 0.77803 0.03315 0.0
H2467 H 0.57982 0.73453 0.06781 0.0
H2468 H 0.55821 0.48016 0.04896 0.0
H2469 H 0.54247 0.43729 0.08405 0.0
H2470 H 0.59087 0.36909 0.02921 0.0
H2471 H 0.60653 0.41231 0.99396 0.0
Ho2472 Ho 0.87502 0.35108 0.283 0.0
Ho2473 Ho 0.81699 0.29803 0.28347 0.0
C2474 C 0.87894 0.26616 0.28504 0.0
C2475 C 0.93046 0.39044 0.29946 0.0
C2476 C 0.95985 0.38154 0.29741 0.0
C2477 C 0.96676 0.35504 0.31301 0.0
C2478 C 0.99502 0.34738 0.31177 0.0
C2479 C 1.01682 0.36587 0.29471 0.0
C2480 C 1.00903 0.3907 0.27716 0.0
C2481 C 0.9808 0.39867 0.27875 0.0
C2482 C 0.84745 0.31211 0.2204 0.0
C2483 C 0.8132 0.38312 0.2813 0.0
C2484 C 0.76146 0.25895 0.26791 0.0
C2485 C 0.7324 0.26839 0.27098 0.0
C2486 C 0.72555 0.29528 0.25597 0.0
C2487 C 0.69765 0.3036 0.2583 0.0
C2488 C 0.67616 0.28532 0.27583 0.0
C2489 C 0.68401 0.26019 0.2929 0.0
C2490 C 0.71187 0.25159 0.29025 0.0
C2491 C 0.84446 0.3372 0.346 0.0
O2492 O 0.89391 0.30075 0.28863 0.0
O2493 O 0.84793 0.25821 0.28104 0.0
O2494 O 0.91344 0.38722 0.26975 0.0
O2495 O 0.91461 0.37783 0.32197 0.0
O2496 O 0.86241 0.34529 0.22591 0.0
O2497 O 0.84968 0.30164 0.24791 0.0
O2498 O 0.79821 0.34859 0.27817 0.0
O2499 O 0.84418 0.39096 0.28486 0.0
O2500 O 0.77894 0.26178 0.2972 0.0
O2501 O 0.7769 0.27152 0.24509 0.0
O2502 O 0.83 0.30387 0.34053 0.0
O2503 O 0.84212 0.34747 0.31839 0.0
H2504 H 0.95077 0.34087 0.32709 0.0
H2505 H 1.00042 0.32854 0.32607 0.0
H2506 H 0.02533 0.40509 0.26353 0.0
H2507 H 0.97555 0.41866 0.26597 0.0
H2508 H 0.74125 0.30925 0.24149 0.0
H2509 H 0.6922 0.32267 0.24436 0.0
H2510 H 0.66793 0.24595 0.30687 0.0
H2511 H 0.71712 0.23134 0.30264 0.0
Ho2512 Ho 0.09813 0.55315 0.562 0.0
Ho2513 Ho 0.09211 0.59355 0.50936 0.0
C2514 C 0.03458 0.5346 0.51008 0.0
C2515 C 0.09496 0.52597 0.61478 0.0
C2516 C 0.07382 0.5258 0.63892 0.0
C2517 C 0.05019 0.54242 0.63428 0.0
C2518 C 0.03126 0.54529 0.6589 0.0
C2519 C 0.03601 0.53145 0.68799 0.0
C2520 C 0.05863 0.51324 0.69174 0.0
C2521 C 0.07773 0.5105 0.66707 0.0
C2522 C 0.12052 0.52102 0.50846 0.0
C2523 C 0.15894 0.60253 0.55461 0.0
C2524 C 0.0987 0.63174 0.46453 0.0
C2525 C 0.12181 0.63703 0.44237 0.0
C2526 C 0.14667 0.62213 0.44654 0.0
C2527 C 0.16523 0.61985 0.42143 0.0
C2528 C 0.15879 0.63205 0.39168 0.0
C2529 C 0.1351 0.64899 0.3884 0.0
C2530 C 0.11653 0.6514 0.41379 0.0
C2531 C 0.06267 0.61228 0.56229 0.0
O2532 O 0.04754 0.53782 0.54206 0.0
O2533 O 0.05106 0.54762 0.48811 0.0
O2534 O 0.08191 0.50828 0.58362 0.0
O2535 O 0.11297 0.55734 0.61586 0.0
O2536 O 0.11894 0.51168 0.53724 0.0
O2537 O 0.11013 0.54762 0.50873 0.0
O2538 O 0.14355 0.60313 0.52487 0.0
O2539 O 0.1446 0.59004 0.57801 0.0
O2540 O 0.10886 0.64459 0.49752 0.0
O2541 O 0.08109 0.59923 0.45753 0.0
O2542 O 0.05261 0.60858 0.53019 0.0
O2543 O 0.0891 0.60627 0.56563 0.0
H2544 H 0.0472 0.55428 0.61235 0.0
H2545 H 1.01388 0.55956 0.6561 0.0
H2546 H 0.0626 0.503 0.71456 0.0
H2547 H 0.09606 0.49767 0.67052 0.0
H2548 H 0.15055 0.61008 0.46792 0.0
H2549 H 0.18351 0.60682 0.42436 0.0
H2550 H 0.12966 0.65817 0.36527 0.0
H2551 H 0.09703 0.6624 0.41011 0.0
Ho2552 Ho 0.81691 0.83613 0.28261 0.0
Ho2553 Ho 0.87611 0.8148 0.28403 0.0
C2554 C 0.85667 0.84246 0.3578 0.0
C2555 C 0.7598 0.83748 0.28299 0.0
C2556 C 0.73295 0.82864 0.30073 0.0
C2557 C 0.72664 0.79941 0.31613 0.0
C2558 C 0.70089 0.79282 0.33309 0.0
C2559 C 0.68112 0.81541 0.335 0.0
C2560 C 0.68769 0.84442 0.31925 0.0
C2561 C 0.71328 0.85095 0.30248 0.0
C2562 C 0.86154 0.89634 0.27616 0.0
C2563 C 0.83657 0.80912 0.20891 0.0
C2564 C 0.93314 0.81312 0.28377 0.0
C2565 C 0.96081 0.82341 0.2677 0.0
C2566 C 0.96277 0.84546 0.24406 0.0
C2567 C 0.98886 0.85213 0.22759 0.0
C2568 C 1.01319 0.8366 0.23434 0.0
C2569 C 1.01114 0.81527 0.25869 0.0
C2570 C 0.98528 0.80874 0.27503 0.0
C2571 C 0.83144 0.75474 0.29093 0.0
O2572 O 0.82955 0.84074 0.3402 0.0
O2573 O 0.87946 0.83633 0.34152 0.0
O2574 O 0.78345 0.8628 0.30052 0.0
O2575 O 0.76794 0.81175 0.26407 0.0
O2576 O 0.83252 0.89308 0.27684 0.0
O2577 O 0.86582 0.8661 0.27904 0.0
O2578 O 0.86379 0.81131 0.22657 0.0
O2579 O 0.81356 0.8145 0.22514 0.0
O2580 O 0.90953 0.78914 0.26428 0.0
O2581 O 0.92499 0.83788 0.30412 0.0
O2582 O 0.86056 0.75813 0.29084 0.0
O2583 O 0.82727 0.78495 0.28783 0.0
H2584 H 0.74165 0.78192 0.31524 0.0
H2585 H 0.69678 0.7704 0.34516 0.0
H2586 H 0.67284 0.86202 0.31946 0.0
H2587 H 0.7177 0.87361 0.29074 0.0
H2588 H 0.94397 0.85686 0.23788 0.0
H2589 H 0.98952 0.8685 0.20884 0.0
H2590 H 0.02954 0.80338 0.2651 0.0
H2591 H 0.98419 0.79161 0.29314 0.0
Ho2592 Ho 0.8648 0.32236 0.75924 0.0
Ho2593 Ho 0.82802 0.32309 0.8017 0.0
C2594 C 0.87024 0.3945 0.80886 0.0
C2595 C 0.90081 0.33691 0.71554 0.0
C2596 C 0.89683 0.35966 0.69238 0.0
C2597 C 0.87271 0.37592 0.69506 0.0
C2598 C 0.86826 0.39858 0.67411 0.0
C2599 C 0.88702 0.40401 0.64904 0.0
C2600 C 0.91104 0.38728 0.64604 0.0
C2601 C 0.91614 0.36537 0.66802 0.0
C2602 C 0.89087 0.29967 0.81356 0.0
C2603 C 0.82289 0.25125 0.75168 0.0
C2604 C 0.79072 0.30987 0.84456 0.0
C2605 C 0.79308 0.28884 0.86966 0.0
C2606 C 0.81576 0.27037 0.86888 0.0
C2607 C 0.81979 0.25125 0.8935 0.0
C2608 C 0.80161 0.25104 0.91963 0.0
C2609 C 0.77894 0.2698 0.92046 0.0
C2610 C 0.77459 0.2886 0.8953 0.0
C2611 C 0.80227 0.34634 0.74766 0.0
O2612 O 0.8677 0.3798 0.77625 0.0
O2613 O 0.86041 0.37427 0.8294 0.0
O2614 O 0.90711 0.35328 0.74785 0.0
O2615 O 0.87863 0.30787 0.70971 0.0
O2616 O 0.88717 0.28469 0.78139 0.0
O2617 O 0.87819 0.32507 0.81618 0.0
O2618 O 0.82554 0.26524 0.78457 0.0
O2619 O 0.83199 0.27199 0.73142 0.0
O2620 O 0.78568 0.29203 0.8128 0.0
O2621 O 0.81319 0.33861 0.85031 0.0
O2622 O 0.80631 0.36134 0.7798 0.0
O2623 O 0.81458 0.32061 0.74499 0.0
H2624 H 0.85704 0.37085 0.71315 0.0
H2625 H 0.84984 0.41137 0.67727 0.0
H2626 H 0.92537 0.39039 0.62627 0.0
H2627 H 0.93461 0.35254 0.66566 0.0
H2628 H 0.83064 0.27107 0.84947 0.0
H2629 H 0.83706 0.23657 0.89194 0.0
H2630 H 0.76512 0.27062 0.94091 0.0
H2631 H 0.75741 0.30342 0.89624 0.0
Ho2632 Ho 0.86846 0.86097 0.80473 0.0
Ho2633 Ho 0.82473 0.78743 0.76307 0.0
C2634 C 0.7948 0.84548 0.79964 0.0
C2635 C 0.89296 0.92752 0.81894 0.0
C2636 C 0.87874 0.94976 0.80098 0.0
C2637 C 0.86278 0.93432 0.76734 0.0
C2638 C 0.83875 0.94618 0.75375 0.0
C2639 C 0.83022 0.974 0.77356 0.0
C2640 C 0.84782 0.9916 0.8062 0.0
C2641 C 0.87189 0.97938 0.81994 0.0
C2642 C 0.8559 0.81717 0.85018 0.0
C2643 C 0.89833 0.80318 0.76779 0.0
C2644 C 0.79917 0.72096 0.74888 0.0
C2645 C 0.81122 0.69772 0.76764 0.0
C2646 C 0.82346 0.71123 0.80278 0.0
C2647 C 0.84672 0.69948 0.81838 0.0
C2648 C 0.85799 0.67367 0.79914 0.0
C2649 C 0.8436 0.6574 0.76493 0.0
C2650 C 0.82031 0.66944 0.74922 0.0
C2651 C 0.8377 0.83096 0.71749 0.0
O2652 O 0.82075 0.86939 0.79977 0.0
O2653 O 0.79109 0.81134 0.78818 0.0
O2654 O 0.87498 0.91221 0.83821 0.0
O2655 O 0.905 0.90547 0.79987 0.0
O2656 O 0.87606 0.84777 0.85737 0.0
O2657 O 0.84667 0.81003 0.81768 0.0
O2658 O 0.87251 0.77921 0.76809 0.0
O2659 O 0.90212 0.83732 0.77938 0.0
O2660 O 0.8188 0.73573 0.73083 0.0
O2661 O 0.78695 0.74366 0.76676 0.0
O2662 O 0.81763 0.80031 0.71029 0.0
O2663 O 0.84669 0.8382 0.75004 0.0
H2664 H 0.86644 0.91046 0.75291 0.0
H2665 H 0.82549 0.93179 0.72877 0.0
H2666 H 0.84213 1.01376 0.82174 0.0
H2667 H 0.88327 0.99104 0.84631 0.0
H2668 H 0.81753 0.73362 0.81728 0.0
H2669 H 0.85743 0.71257 0.8447 0.0
H2670 H 0.85148 0.63674 0.74981 0.0
H2671 H 0.81164 0.65911 0.72192 0.0
Ho2672 Ho 0.57461 0.5548 0.51399 0.0
Ho2673 Ho 0.61897 0.59466 0.55188 0.0
C2674 C 0.57958 0.63677 0.51701 0.0
C2675 C 0.51851 0.52532 0.48279 0.0
C2676 C 0.49127 0.53412 0.49475 0.0
C2677 C 0.49425 0.5529 0.52888 0.0
C2678 C 0.4708 0.56712 0.53968 0.0
C2679 C 0.44376 0.56272 0.51652 0.0
C2680 C 0.44033 0.5428 0.48259 0.0
C2681 C 0.46407 0.52874 0.47171 0.0
C2682 C 0.6215 0.55723 0.47135 0.0
C2683 C 0.61312 0.51235 0.54924 0.0
C2684 C 0.6755 0.62435 0.58187 0.0
C2685 C 0.70303 0.61723 0.56894 0.0
C2686 C 0.70054 0.60076 0.53409 0.0
C2687 C 0.72461 0.58831 0.52224 0.0
C2688 C 0.75167 0.59203 0.5451 0.0
C2689 C 0.7546 0.6098 0.57976 0.0
C2690 C 0.73036 0.62219 0.59163 0.0
C2691 C 0.57226 0.5926 0.59483 0.0
O2692 O 0.55975 0.60611 0.51503 0.0
O2693 O 0.60838 0.63902 0.52873 0.0
O2694 O 0.537 0.55114 0.47372 0.0
O2695 O 0.53349 0.51059 0.50273 0.0
O2696 O 0.60155 0.52942 0.47512 0.0
O2697 O 0.61693 0.58321 0.493 0.0
O2698 O 0.6332 0.54289 0.55121 0.0
O2699 O 0.58445 0.51036 0.53735 0.0
O2700 O 0.65777 0.59754 0.59035 0.0
O2701 O 0.65966 0.63943 0.56325 0.0
O2702 O 0.5927 0.6202 0.59145 0.0
O2703 O 0.57655 0.56653 0.57297 0.0
H2704 H 0.51535 0.55792 0.54687 0.0
H2705 H 0.47448 0.58287 0.56573 0.0
H2706 H 0.41957 0.5387 0.46428 0.0
H2707 H 0.46161 0.51474 0.44516 0.0
H2708 H 0.6794 0.59615 0.51628 0.0
H2709 H 0.72135 0.57422 0.4956 0.0
H2710 H 0.77532 0.61329 0.59791 0.0
H2711 H 0.73253 0.63444 0.61867 0.0
Ho2712 Ho 0.1321 0.57779 0.03355 0.0
Ho2713 Ho 0.06157 0.57032 0.03705 0.0
C2714 C 0.08255 0.4981 0.01968 0.0
C2715 C 0.18941 0.57677 0.04202 0.0
C2716 C 0.20963 0.55274 0.04183 0.0
C2717 C 0.20793 0.52891 0.06377 0.0
C2718 C 0.23015 0.51002 0.0663 0.0
C2719 C 0.2543 0.51437 0.04675 0.0
C2720 C 0.25517 0.53723 0.02391 0.0
C2721 C 0.23314 0.55625 0.02158 0.0
C2722 C 0.09611 0.57863 0.97655 0.0
C2723 C 0.11094 0.64981 0.04962 0.0
C2724 C 1.00417 0.57108 0.02921 0.0
C2725 C 0.98333 0.59433 0.02858 0.0
C2726 C 0.98529 0.61865 1.00713 0.0
C2727 C 0.96244 0.63667 1.00382 0.0
C2728 C 0.93752 0.63093 0.02218 0.0
C2729 C 0.93639 0.60753 0.04449 0.0
C2730 C 0.95901 0.58943 0.04758 0.0
C2731 C 0.09752 0.56959 0.09418 0.0
O2732 O 0.11189 0.51787 0.0278 0.0
O2733 O 0.05907 0.51267 1.01817 0.0
O2734 O 0.17412 0.57699 1.01234 0.0
O2735 O 0.17336 0.5796 0.0672 0.0
O2736 O 0.12441 0.59823 0.98534 0.0
O2737 O 0.08937 0.55938 0.99736 0.0
O2738 O 0.08168 0.62992 0.04077 0.0
O2739 O 0.13441 0.63536 0.05258 0.0
O2740 O 1.02015 0.57253 0.05904 0.0
O2741 O 1.01968 0.56717 1.00366 0.0
O2742 O 0.06915 0.55025 0.08549 0.0
O2743 O 0.10433 0.58876 0.0733 0.0
H2744 H 0.19005 0.52568 0.07976 0.0
H2745 H 0.22863 0.49232 0.08385 0.0
H2746 H 0.27359 0.54148 1.00874 0.0
H2747 H 0.23505 0.57465 1.00469 0.0
H2748 H 1.00384 0.62288 0.99211 0.0
H2749 H 0.96414 0.65482 0.98672 0.0
H2750 H 0.91742 0.60225 0.05877 0.0
H2751 H 0.95693 0.57065 0.06408 0.0
loop_
_geom_bond_atom_site_label_1
_geom_bond_atom_site_label_2
_geom_bond_distance
_geom_bond_site_symmetry_2
_ccdc_geom_bond_type
Li0 N17 1.990 . S
Li0 O60 1.956 . S
Li0 O61 1.970 . S
Li0 O62 1.961 . S
Li1 N25 1.990 . S
Li1 O60 1.970 . S
Li1 O61 1.956 . S
Li1 O63 1.961 . S
Li2 N47 1.990 . S
Li2 O60 1.961 . S
Li2 O62 1.956 . S
Li2 O63 1.970 . S
Li3 N53 1.990 . S
Li3 O61 1.961 . S
Li3 O62 1.970 . S
Li3 O63 1.956 . S
C4 C6 1.348 . S
C4 C7 1.356 . S
C4 O60 1.325 . S
N5 C8 1.314 . S
N5 C9 1.279 . S
C6 C4 1.348 . S
C6 C8 1.353 . S
C6 H64 0.929 . S
C7 C4 1.356 . S
C7 C9 1.358 . S
C7 H65 0.930 . S
C8 N5 1.314 . S
C8 C6 1.353 . S
C8 H66 0.930 . S
C9 N5 1.279 . S
C9 C7 1.358 . S
C9 H67 0.930 . S
C10 C13 1.348 . S
C10 C14 1.356 . S
C10 O61 1.325 . S
C11 N12 1.279 . S
C11 C14 1.358 . S
C11 H68 0.930 . S
N12 C11 1.279 . S
N12 C15 1.314 . S
C13 C10 1.348 . S
C13 C15 1.353 . S
C13 H69 0.929 . S
C14 C10 1.356 . S
C14 C11 1.358 . S
C14 H70 0.930 . S
C15 N12 1.314 . S
C15 C13 1.353 . S
C15 H71 0.930 . S
C16 N17 1.314 . S
C16 C21 1.353 . S
C16 H22 0.930 . S
N17 Li0 1.990 . S
N17 C16 1.314 . S
N17 C19 1.279 . S
C18 C19 1.358 . S
C18 C20 1.356 . S
C18 H72 0.930 . S
C19 N17 1.279 . S
C19 C18 1.358 . S
C19 H23 0.930 . S
C20 C18 1.356 . S
C20 C21 1.348 . S
C21 C16 1.353 . S
C21 C20 1.348 . S
C21 H73 0.929 . S
H22 C16 0.930 . S
H23 C19 0.930 . S
C24 N25 1.314 . S
C24 C26 1.353 . S
C24 H30 0.930 . S
N25 Li1 1.990 . S
N25 C24 1.314 . S
N25 C28 1.279 . S
C26 C24 1.353 . S
C26 C29 1.348 . S
C26 H74 0.929 . S
C27 C28 1.358 . S
C27 C29 1.356 . S
C27 H75 0.930 . S
C28 N25 1.279 . S
C28 C27 1.358 . S
C28 H31 0.930 . S
C29 C26 1.348 . S
C29 C27 1.356 . S
H30 C24 0.930 . S
H31 C28 0.930 . S
C32 C34 1.348 . S
C32 C35 1.356 . S
C32 O62 1.325 . S
N33 C36 1.314 . S
N33 C37 1.279 . S
C34 C32 1.348 . S
C34 C36 1.353 . S
C34 H76 0.929 . S
C35 C32 1.356 . S
C35 C37 1.358 . S
C35 H77 0.930 . S
C36 N33 1.314 . S
C36 C34 1.353 . S
C36 H78 0.930 . S
C37 N33 1.279 . S
C37 C35 1.358 . S
C37 H79 0.930 . S
C38 C39 1.348 . S
C38 C40 1.356 . S
C38 O63 1.325 . S
C39 C38 1.348 . S
C39 C41 1.353 . S
C39 H80 0.929 . S
C40 C38 1.356 . S
C40 C42 1.358 . S
C40 H81 0.930 . S
C41 C39 1.353 . S
C41 N43 1.314 . S
C41 H82 0.930 . S
C42 C40 1.358 . S
C42 N43 1.279 . S
C42 H83 0.930 . S
N43 C41 1.314 . S
N43 C42 1.279 . S
C44 C46 1.353 . S
C44 N47 1.314 . S
C44 H50 0.930 . S
C45 N47 1.279 . S
C45 C48 1.358 . S
C45 H51 0.930 . S
C46 C44 1.353 . S
C46 C49 1.348 . S
C46 H84 0.929 . S
N47 Li2 1.990 . S
N47 C44 1.314 . S
N47 C45 1.279 . S
C48 C45 1.358 . S
C48 C49 1.356 . S
C48 H85 0.930 . S
C49 C46 1.348 . S
C49 C48 1.356 . S
H50 C44 0.930 . S
H51 C45 0.930 . S
C52 N53 1.314 . S
C52 C54 1.353 . S
C52 H58 0.930 . S
N53 Li3 1.990 . S
N53 C52 1.314 . S
N53 C56 1.279 . S
C54 C52 1.353 . S
C54 C57 1.348 . S
C54 H86 0.929 . S
C55 C56 1.358 . S
C55 C57 1.356 . S
C55 H87 0.930 . S
C56 N53 1.279 . S
C56 C55 1.358 . S
C56 H59 0.930 . S
C57 C54 1.348 . S
C57 C55 1.356 . S
H58 C52 0.930 . S
H59 C56 0.930 . S
O60 Li0 1.956 . S
O60 Li1 1.970 . S
O60 Li2 1.961 . S
O60 C4 1.325 . S
O61 Li0 1.970 . S
O61 Li1 1.956 . S
O61 Li3 1.961 . S
O61 C10 1.325 . S
O62 Li0 1.961 . S
O62 Li2 1.956 . S
O62 Li3 1.970 . S
O62 C32 1.325 . S
O63 Li1 1.961 . S
O63 Li2 1.970 . S
O63 Li3 1.956 . S
O63 C38 1.325 . S
H64 C6 0.929 . S
H65 C7 0.930 . S
H66 C8 0.930 . S
H67 C9 0.930 . S
H68 C11 0.930 . S
H69 C13 0.929 . S
H70 C14 0.930 . S
H71 C15 0.930 . S
H72 C18 0.930 . S
H73 C21 0.929 . S
H74 C26 0.929 . S
H75 C27 0.930 . S
H76 C34 0.929 . S
H77 C35 0.930 . S
H78 C36 0.930 . S
H79 C37 0.930 . S
H80 C39 0.929 . S
H81 C40 0.930 . S
H82 C41 0.930 . S
H83 C42 0.930 . S
H84 C46 0.929 . S
H85 C48 0.930 . S
H86 C54 0.929 . S
H87 C55 0.930 . S
Li88 N105 1.990 . S
Li88 O148 1.956 . S
Li88 O149 1.970 . S
Li88 O150 1.961 1_455 S
Li89 N113 1.990 . S
Li89 O148 1.970 . S
Li89 O149 1.956 . S
Li89 O151 1.959 1_455 S
Li90 N135 1.990 . S
Li90 O148 1.961 1_655 S
Li90 O150 1.956 . S
Li90 O151 1.970 . S
Li91 N141 1.990 . S
Li91 O149 1.961 1_655 S
Li91 O150 1.970 . S
Li91 O151 1.958 . S
C92 C94 1.348 . S
C92 C95 1.356 . S
C92 O148 1.325 . S
N93 C96 1.314 . S
N93 C97 1.279 . S
C94 C92 1.348 . S
C94 C96 1.353 . S
C94 H152 0.929 . S
C95 C92 1.356 . S
C95 C97 1.358 . S
C95 H153 0.930 . S
C96 N93 1.314 . S
C96 C94 1.353 . S
C96 H154 0.930 . S
C97 N93 1.279 . S
C97 C95 1.358 . S
C97 H155 0.930 . S
C98 C101 1.348 . S
C98 C102 1.356 . S
C98 O149 1.325 . S
C99 N100 1.279 . S
C99 C102 1.358 . S
C99 H156 0.930 . S
N100 C99 1.279 . S
N100 C103 1.314 . S
C101 C98 1.348 . S
C101 C103 1.353 . S
C101 H157 0.929 . S
C102 C98 1.356 . S
C102 C99 1.358 . S
C102 H158 0.930 . S
C103 N100 1.314 . S
C103 C101 1.353 . S
C103 H159 0.930 . S
C104 N105 1.314 1_655 S
C104 C109 1.353 . S
C104 H110 0.930 . S
N105 Li88 1.990 . S
N105 C104 1.314 1_455 S
N105 C107 1.279 . S
C106 C107 1.358 . S
C106 C108 1.356 . S
C106 H160 0.930 . S
C107 N105 1.279 . S
C107 C106 1.358 . S
C107 H111 0.930 . S
C108 C106 1.356 . S
C108 C109 1.348 1_455 S
C109 C104 1.353 . S
C109 C108 1.348 1_655 S
C109 H161 0.929 . S
H110 C104 0.930 . S
H111 C107 0.930 . S
C112 N113 1.314 . S
C112 C114 1.353 . S
C112 H118 0.930 . S
N113 Li89 1.990 . S
N113 C112 1.314 . S
N113 C116 1.279 . S
C114 C112 1.353 . S
C114 C117 1.348 . S
C114 H162 0.929 . S
C115 C116 1.358 . S
C115 C117 1.356 . S
C115 H163 0.930 . S
C116 N113 1.279 . S
C116 C115 1.358 . S
C116 H119 0.930 . S
C117 C114 1.348 . S
C117 C115 1.356 . S
H118 C112 0.930 . S
H119 C116 0.930 . S
C120 C122 1.348 . S
C120 C123 1.356 . S
C120 O150 1.325 . S
N121 C124 1.314 . S
N121 C125 1.279 . S
C122 C120 1.348 . S
C122 C124 1.353 . S
C122 H164 0.929 . S
C123 C120 1.356 . S
C123 C125 1.358 . S
C123 H165 0.930 . S
C124 N121 1.314 . S
C124 C122 1.353 . S
C124 H166 0.930 . S
C125 N121 1.279 . S
C125 C123 1.358 . S
C125 H167 0.930 . S
C126 C127 1.348 . S
C126 C128 1.356 1_655 S
C126 O151 1.325 . S
C127 C126 1.348 . S
C127 C129 1.353 . S
C127 H168 0.929 . S
C128 C126 1.356 1_455 S
C128 C130 1.358 . S
C128 H169 0.930 . S
C129 C127 1.353 . S
C129 N131 1.314 . S
C129 H170 0.930 . S
C130 C128 1.358 . S
C130 N131 1.279 1_455 S
C130 H171 0.930 . S
N131 C129 1.314 . S
N131 C130 1.279 1_655 S
C132 C134 1.353 . S
C132 N135 1.314 1_455 S
C132 H138 0.930 . S
C133 N135 1.279 . S
C133 C136 1.358 . S
C133 H139 0.930 . S
C134 C132 1.353 . S
C134 C137 1.348 1_455 S
C134 H172 0.929 . S
N135 Li90 1.990 . S
N135 C132 1.314 1_655 S
N135 C133 1.279 . S
C136 C133 1.358 . S
C136 C137 1.356 . S
C136 H173 0.930 . S
C137 C134 1.348 1_655 S
C137 C136 1.356 . S
H138 C132 0.930 . S
H139 C133 0.930 . S
C140 N141 1.314 . S
C140 C142 1.353 . S
C140 H146 0.930 . S
N141 Li91 1.990 . S
N141 C140 1.314 . S
N141 C144 1.279 . S
C142 C140 1.353 . S
C142 C145 1.348 . S
C142 H174 0.929 . S
C143 C144 1.358 . S
C143 C145 1.356 . S
C143 H175 0.930 . S
C144 N141 1.279 . S
C144 C143 1.358 . S
C144 H147 0.930 . S
C145 C142 1.348 . S
C145 C143 1.356 . S
H146 C140 0.930 . S
H147 C144 0.930 . S
O148 Li88 1.956 . S
O148 Li89 1.970 . S
O148 Li90 1.961 1_455 S
O148 C92 1.325 . S
O149 Li88 1.970 . S
O149 Li89 1.956 . S
O149 Li91 1.961 1_455 S
O149 C98 1.325 . S
O150 Li88 1.961 1_655 S
O150 Li90 1.956 . S
O150 Li91 1.970 . S
O150 C120 1.325 . S
O151 Li89 1.959 1_655 S
O151 Li90 1.970 . S
O151 Li91 1.958 . S
O151 C126 1.325 . S
H152 C94 0.929 . S
H153 C95 0.930 . S
H154 C96 0.930 . S
H155 C97 0.930 . S
H156 C99 0.930 . S
H157 C101 0.929 . S
H158 C102 0.930 . S
H159 C103 0.930 . S
H160 C106 0.930 . S
H161 C109 0.929 . S
H162 C114 0.929 . S
H163 C115 0.930 . S
H164 C122 0.929 . S
H165 C123 0.930 . S
H166 C124 0.930 . S
H167 C125 0.930 . S
H168 C127 0.929 . S
H169 C128 0.930 . S
H170 C129 0.930 . S
H171 C130 0.930 . S
H172 C134 0.929 . S
H173 C136 0.930 . S
H174 C142 0.929 . S
H175 C143 0.930 . S
Li176 N193 1.990 . S
Li176 O236 1.956 . S
Li176 O237 1.970 . S
Li176 O238 1.961 . S
Li177 N201 1.990 . S
Li177 O236 1.970 . S
Li177 O237 1.956 . S
Li177 O239 1.961 . S
Li178 N223 1.990 . S
Li178 O236 1.961 . S
Li178 O238 1.956 . S
Li178 O239 1.970 . S
Li179 N229 1.990 . S
Li179 O237 1.961 . S
Li179 O238 1.970 . S
Li179 O239 1.956 . S
C180 C182 1.348 . S
C180 C183 1.356 . S
C180 O236 1.325 . S
N181 C184 1.314 . S
N181 C185 1.279 . S
C182 C180 1.348 . S
C182 C184 1.353 . S
C182 H240 0.929 . S
C183 C180 1.356 . S
C183 C185 1.358 . S
C183 H241 0.930 . S
C184 N181 1.314 . S
C184 C182 1.353 . S
C184 H242 0.930 1_565 S
C185 N181 1.279 . S
C185 C183 1.358 . S
C185 H243 0.930 . S
C186 C189 1.348 . S
C186 C190 1.356 . S
C186 O237 1.325 . S
C187 N188 1.279 . S
C187 C190 1.358 . S
C187 H244 0.927 1_556 S
N188 C187 1.279 . S
N188 C191 1.314 . S
C189 C186 1.348 . S
C189 C191 1.353 . S
C189 H245 0.929 . S
C190 C186 1.356 . S
C190 C187 1.358 . S
C190 H246 0.930 . S
C191 N188 1.314 . S
C191 C189 1.353 . S
C191 H247 0.930 . S
C192 N193 1.314 . S
C192 C197 1.353 . S
C192 H198 0.930 . S
N193 Li176 1.990 . S
N193 C192 1.314 . S
N193 C195 1.279 . S
C194 C195 1.358 . S
C194 C196 1.356 . S
C194 H248 0.930 . S
C195 N193 1.279 . S
C195 C194 1.358 . S
C195 H199 0.930 . S
C196 C194 1.356 . S
C196 C197 1.348 . S
C197 C192 1.353 . S
C197 C196 1.348 . S
C197 H249 0.929 . S
H198 C192 0.930 . S
H199 C195 0.930 . S
C200 N201 1.314 . S
C200 C202 1.353 1_565 S
C200 H206 0.930 . S
N201 Li177 1.990 . S
N201 C200 1.314 . S
N201 C204 1.279 . S
C202 C200 1.353 1_545 S
C202 C205 1.348 . S
C202 H250 0.929 . S
C203 C204 1.358 . S
C203 C205 1.356 1_565 S
C203 H251 0.930 . S
C204 N201 1.279 . S
C204 C203 1.358 . S
C204 H207 0.930 . S
C205 C202 1.348 . S
C205 C203 1.356 1_545 S
H206 C200 0.930 . S
H207 C204 0.930 . S
C208 C210 1.348 . S
C208 C211 1.356 . S
C208 O238 1.325 . S
N209 C212 1.314 . S
N209 C213 1.279 . S
C210 C208 1.348 . S
C210 C212 1.353 . S
C210 H252 0.929 . S
C211 C208 1.356 . S
C211 C213 1.358 . S
C211 H253 0.930 . S
C212 N209 1.314 . S
C212 C210 1.353 . S
C212 H254 0.930 . S
C213 N209 1.279 . S
C213 C211 1.358 . S
C213 H255 0.930 . S
C214 C215 1.348 . S
C214 C216 1.356 . S
C214 O239 1.325 . S
C215 C214 1.348 . S
C215 C217 1.353 . S
C215 H256 0.929 . S
C216 C214 1.356 . S
C216 C218 1.358 . S
C216 H257 0.930 . S
C217 C215 1.353 . S
C217 N219 1.314 . S
C217 H258 0.930 . S
C218 C216 1.358 . S
C218 N219 1.279 . S
C218 H259 0.930 1_556 S
N219 C217 1.314 . S
N219 C218 1.279 . S
C220 C222 1.353 . S
C220 N223 1.314 . S
C220 H226 0.930 . S
C221 N223 1.279 . S
C221 C224 1.358 . S
C221 H227 0.930 . S
C222 C220 1.353 . S
C222 C225 1.348 . S
C222 H260 0.929 . S
N223 Li178 1.990 . S
N223 C220 1.314 . S
N223 C221 1.279 . S
C224 C221 1.358 . S
C224 C225 1.356 . S
C224 H261 0.930 . S
C225 C222 1.348 . S
C225 C224 1.356 . S
H226 C220 0.930 . S
H227 C221 0.930 . S
C228 N229 1.314 . S
C228 C230 1.353 . S
C228 H234 0.930 . S
N229 Li179 1.990 . S
N229 C228 1.314 . S
N229 C232 1.279 . S
C230 C228 1.353 . S
C230 C233 1.348 . S
C230 H262 0.929 . S
C231 C232 1.358 . S
C231 C233 1.356 . S
C231 H263 0.930 . S
C232 N229 1.279 . S
C232 C231 1.358 . S
C232 H235 0.930 . S
C233 C230 1.348 . S
C233 C231 1.356 . S
H234 C228 0.930 . S
H235 C232 0.930 . S
O236 Li176 1.956 . S
O236 Li177 1.970 . S
O236 Li178 1.961 . S
O236 C180 1.325 . S
O237 Li176 1.970 . S
O237 Li177 1.956 . S
O237 Li179 1.961 . S
O237 C186 1.325 . S
O238 Li176 1.961 . S
O238 Li178 1.956 . S
O238 Li179 1.970 . S
O238 C208 1.325 . S
O239 Li177 1.961 . S
O239 Li178 1.970 . S
O239 Li179 1.956 . S
O239 C214 1.325 . S
H240 C182 0.929 . S
H241 C183 0.930 . S
H242 C184 0.930 1_545 S
H243 C185 0.930 . S
H244 C187 0.927 1_554 S
H245 C189 0.929 . S
H246 C190 0.930 . S
H247 C191 0.930 . S
H248 C194 0.930 . S
H249 C197 0.929 . S
H250 C202 0.929 . S
H251 C203 0.930 . S
H252 C210 0.929 . S
H253 C211 0.930 . S
H254 C212 0.930 . S
H255 C213 0.930 . S
H256 C215 0.929 . S
H257 C216 0.930 . S
H258 C217 0.930 . S
H259 C218 0.930 1_554 S
H260 C222 0.929 . S
H261 C224 0.930 . S
H262 C230 0.929 . S
H263 C231 0.930 . S
Li264 N281 1.990 . S
Li264 O324 1.956 . S
Li264 O325 1.970 . S
Li264 O326 1.961 . S
Li265 N289 1.990 . S
Li265 O324 1.970 . S
Li265 O325 1.956 . S
Li265 O327 1.961 . S
Li266 N311 1.990 . S
Li266 O324 1.961 . S
Li266 O326 1.956 . S
Li266 O327 1.970 . S
Li267 N317 1.990 . S
Li267 O325 1.961 . S
Li267 O326 1.970 . S
Li267 O327 1.956 . S
C268 C270 1.348 . S
C268 C271 1.356 . S
C268 O324 1.325 . S
N269 C272 1.314 . S
N269 C273 1.279 . S
C270 C268 1.348 . S
C270 C272 1.353 . S
C270 H328 0.929 . S
C271 C268 1.356 . S
C271 C273 1.358 . S
C271 H329 0.930 . S
C272 N269 1.314 . S
C272 C270 1.353 . S
C272 H330 0.930 . S
C273 N269 1.279 . S
C273 C271 1.358 . S
C273 H331 0.930 . S
C274 C277 1.348 . S
C274 C278 1.356 . S
C274 O325 1.325 . S
C275 N276 1.279 . S
C275 C278 1.358 . S
C275 H332 0.930 . S
N276 C275 1.279 . S
N276 C279 1.314 . S
C277 C274 1.348 . S
C277 C279 1.353 . S
C277 H333 0.929 . S
C278 C274 1.356 . S
C278 C275 1.358 . S
C278 H334 0.930 . S
C279 N276 1.314 . S
C279 C277 1.353 . S
C279 H335 0.930 . S
C280 N281 1.314 . S
C280 C285 1.353 . S
C280 H286 0.930 . S
N281 Li264 1.990 . S
N281 C280 1.314 . S
N281 C283 1.279 . S
C282 C283 1.358 . S
C282 C284 1.356 . S
C282 H336 0.930 . S
C283 N281 1.279 . S
C283 C282 1.358 . S
C283 H287 0.930 . S
C284 C282 1.356 . S
C284 C285 1.348 . S
C285 C280 1.353 . S
C285 C284 1.348 . S
C285 H337 0.929 . S
H286 C280 0.930 . S
H287 C283 0.930 . S
C288 N289 1.314 . S
C288 C290 1.353 . S
C288 H294 0.930 . S
N289 Li265 1.990 . S
N289 C288 1.314 . S
N289 C292 1.279 . S
C290 C288 1.353 . S
C290 C293 1.348 . S
C290 H338 0.929 . S
C291 C292 1.358 . S
C291 C293 1.356 . S
C291 H339 0.930 . S
C292 N289 1.279 . S
C292 C291 1.358 . S
C292 H295 0.930 . S
C293 C290 1.348 . S
C293 C291 1.356 . S
H294 C288 0.930 . S
H295 C292 0.930 . S
C296 C298 1.348 . S
C296 C299 1.356 . S
C296 O326 1.325 . S
N297 C300 1.314 . S
N297 C301 1.279 . S
C298 C296 1.348 . S
C298 C300 1.353 . S
C298 H340 0.929 . S
C299 C296 1.356 . S
C299 C301 1.358 . S
C299 H341 0.930 . S
C300 N297 1.314 . S
C300 C298 1.353 . S
C300 H342 0.930 . S
C301 N297 1.279 . S
C301 C299 1.358 . S
C301 H343 0.930 . S
C302 C303 1.348 . S
C302 C304 1.356 . S
C302 O327 1.325 . S
C303 C302 1.348 . S
C303 C305 1.353 . S
C303 H344 0.929 . S
C304 C302 1.356 . S
C304 C306 1.358 . S
C304 H345 0.930 . S
C305 C303 1.353 . S
C305 N307 1.314 . S
C305 H346 0.930 . S
C306 C304 1.358 . S
C306 N307 1.279 . S
C306 H347 0.930 . S
N307 C305 1.314 . S
N307 C306 1.279 . S
C308 C310 1.353 . S
C308 N311 1.314 . S
C308 H314 0.930 . S
C309 N311 1.279 . S
C309 C312 1.358 . S
C309 H315 0.930 . S
C310 C308 1.353 . S
C310 C313 1.348 . S
C310 H348 0.929 . S
N311 Li266 1.990 . S
N311 C308 1.314 . S
N311 C309 1.279 . S
C312 C309 1.358 . S
C312 C313 1.356 . S
C312 H349 0.930 . S
C313 C310 1.348 . S
C313 C312 1.356 . S
H314 C308 0.930 . S
H315 C309 0.930 . S
C316 N317 1.314 . S
C316 C318 1.353 . S
C316 H322 0.930 . S
N317 Li267 1.990 . S
N317 C316 1.314 . S
N317 C320 1.279 . S
C318 C316 1.353 . S
C318 C321 1.348 . S
C318 H350 0.929 . S
C319 C320 1.358 . S
C319 C321 1.356 . S
C319 H351 0.930 . S
C320 N317 1.279 . S
C320 C319 1.358 . S
C320 H323 0.930 . S
C321 C318 1.348 . S
C321 C319 1.356 . S
H322 C316 0.930 . S
H323 C320 0.930 . S
O324 Li264 1.956 . S
O324 Li265 1.970 . S
O324 Li266 1.961 . S
O324 C268 1.325 . S
O325 Li264 1.970 . S
O325 Li265 1.956 . S
O325 Li267 1.961 . S
O325 C274 1.325 . S
O326 Li264 1.961 . S
O326 Li266 1.956 . S
O326 Li267 1.970 . S
O326 C296 1.325 . S
O327 Li265 1.961 . S
O327 Li266 1.970 . S
O327 Li267 1.956 . S
O327 C302 1.325 . S
H328 C270 0.929 . S
H329 C271 0.930 . S
H330 C272 0.930 . S
H331 C273 0.930 . S
H332 C275 0.930 . S
H333 C277 0.929 . S
H334 C278 0.930 . S
H335 C279 0.930 . S
H336 C282 0.930 . S
H337 C285 0.929 . S
H338 C290 0.929 . S
H339 C291 0.930 . S
H340 C298 0.929 . S
H341 C299 0.930 . S
H342 C300 0.930 . S
H343 C301 0.930 . S
H344 C303 0.929 . S
H345 C304 0.930 . S
H346 C305 0.930 . S
H347 C306 0.930 . S
H348 C310 0.929 . S
H349 C312 0.930 . S
H350 C318 0.929 . S
H351 C319 0.930 . S
Li352 N369 1.990 . S
Li352 O412 1.956 . S
Li352 O413 1.970 . S
Li352 O414 1.961 . S
Li353 N377 1.990 . S
Li353 O412 1.970 . S
Li353 O413 1.956 . S
Li353 O415 1.961 . S
Li354 N399 1.990 . S
Li354 O412 1.961 . S
Li354 O414 1.956 . S
Li354 O415 1.970 . S
Li355 N405 1.990 . S
Li355 O413 1.961 . S
Li355 O414 1.970 . S
Li355 O415 1.956 . S
C356 C358 1.348 . S
C356 C359 1.356 . S
C356 O412 1.325 . S
N357 C360 1.314 . S
N357 C361 1.279 . S
C358 C356 1.348 . S
C358 C360 1.353 . S
C358 H416 0.929 . S
C359 C356 1.356 . S
C359 C361 1.358 . S
C359 H417 0.930 . S
C360 N357 1.314 . S
C360 C358 1.353 . S
C360 H418 0.930 . S
C361 N357 1.279 . S
C361 C359 1.358 . S
C361 H419 0.930 1_554 S
C362 C365 1.348 . S
C362 C366 1.356 . S
C362 O413 1.325 . S
C363 N364 1.279 . S
C363 C366 1.358 . S
C363 H420 0.930 . S
N364 C363 1.279 . S
N364 C367 1.314 . S
C365 C362 1.348 . S
C365 C367 1.353 . S
C365 H421 0.929 . S
C366 C362 1.356 . S
C366 C363 1.358 . S
C366 H422 0.930 . S
C367 N364 1.314 . S
C367 C365 1.353 . S
C367 H423 0.930 . S
C368 N369 1.314 . S
C368 C373 1.353 . S
C368 H374 0.930 . S
N369 Li352 1.990 . S
N369 C368 1.314 . S
N369 C371 1.279 . S
C370 C371 1.358 . S
C370 C372 1.356 . S
C370 H424 0.930 . S
C371 N369 1.279 . S
C371 C370 1.358 . S
C371 H375 0.930 . S
C372 C370 1.356 . S
C372 C373 1.348 . S
C373 C368 1.353 . S
C373 C372 1.348 . S
C373 H425 0.929 . S
H374 C368 0.930 . S
H375 C371 0.930 . S
C376 N377 1.314 . S
C376 C378 1.353 . S
C376 H382 0.930 . S
N377 Li353 1.990 . S
N377 C376 1.314 . S
N377 C380 1.279 . S
C378 C376 1.353 . S
C378 C381 1.348 . S
C378 H426 0.929 . S
C379 C380 1.358 . S
C379 C381 1.356 . S
C379 H427 0.930 . S
C380 N377 1.279 . S
C380 C379 1.358 . S
C380 H383 0.930 . S
C381 C378 1.348 . S
C381 C379 1.356 . S
H382 C376 0.930 . S
H383 C380 0.930 . S
C384 C386 1.348 . S
C384 C387 1.356 . S
C384 O414 1.325 . S
N385 C388 1.314 . S
N385 C389 1.279 1_654 S
C386 C384 1.348 . S
C386 C388 1.341 1_455 S
C386 H428 0.929 . S
C387 C384 1.356 . S
C387 C389 1.358 1_554 S
C387 H429 0.930 . S
C388 N385 1.314 . S
C388 C386 1.341 1_655 S
C388 H430 0.944 . S
C389 N385 1.279 1_456 S
C389 C387 1.358 1_556 S
C389 H431 0.930 . S
C390 C391 1.348 . S
C390 C392 1.356 . S
C390 O415 1.325 . S
C391 C390 1.348 . S
C391 C393 1.353 . S
C391 H432 0.929 . S
C392 C390 1.356 . S
C392 C394 1.358 . S
C392 H433 0.930 . S
C393 C391 1.353 . S
C393 N395 1.314 . S
C393 H434 0.930 . S
C394 C392 1.358 . S
C394 N395 1.279 . S
C394 H435 0.930 . S
N395 C393 1.314 . S
N395 C394 1.279 . S
C396 C398 1.353 . S
C396 N399 1.314 . S
C396 H402 0.930 . S
C397 N399 1.279 . S
C397 C400 1.358 1_554 S
C397 H403 0.930 . S
C398 C396 1.353 . S
C398 C401 1.348 1_554 S
C398 H436 0.929 . S
N399 Li354 1.990 . S
N399 C396 1.314 . S
N399 C397 1.279 . S
C400 C397 1.358 1_556 S
C400 C401 1.356 . S
C400 H437 0.930 . S
C401 C398 1.348 1_556 S
C401 C400 1.356 . S
H402 C396 0.930 . S
H403 C397 0.930 . S
C404 N405 1.314 . S
C404 C406 1.353 . S
C404 H410 0.930 . S
N405 Li355 1.990 . S
N405 C404 1.314 . S
N405 C408 1.279 . S
C406 C404 1.353 . S
C406 C409 1.348 . S
C406 H438 0.929 . S
C407 C408 1.358 . S
C407 C409 1.356 . S
C407 H439 0.930 . S
C408 N405 1.279 . S
C408 C407 1.358 . S
C408 H411 0.930 . S
C409 C406 1.348 . S
C409 C407 1.356 . S
H410 C404 0.930 . S
H411 C408 0.930 . S
O412 Li352 1.956 . S
O412 Li353 1.970 . S
O412 Li354 1.961 . S
O412 C356 1.325 . S
O413 Li352 1.970 . S
O413 Li353 1.956 . S
O413 Li355 1.961 . S
O413 C362 1.325 . S
O414 Li352 1.961 . S
O414 Li354 1.956 . S
O414 Li355 1.970 . S
O414 C384 1.325 . S
O415 Li353 1.961 . S
O415 Li354 1.970 . S
O415 Li355 1.956 . S
O415 C390 1.325 . S
H416 C358 0.929 . S
H417 C359 0.930 . S
H418 C360 0.930 . S
H419 C361 0.930 1_556 S
H420 C363 0.930 . S
H421 C365 0.929 . S
H422 C366 0.930 . S
H423 C367 0.930 . S
H424 C370 0.930 . S
H425 C373 0.929 . S
H426 C378 0.929 . S
H427 C379 0.930 . S
H428 C386 0.929 . S
H429 C387 0.930 . S
H430 C388 0.944 . S
H431 C389 0.930 . S
H432 C391 0.929 . S
H433 C392 0.930 . S
H434 C393 0.930 . S
H435 C394 0.930 . S
H436 C398 0.929 . S
H437 C400 0.930 . S
H438 C406 0.929 . S
H439 C407 0.930 . S
Li440 N457 1.990 . S
Li440 O500 1.956 . S
Li440 O501 1.970 . S
Li440 O502 1.961 . S
Li441 N465 1.990 . S
Li441 O500 1.970 . S
Li441 O501 1.956 . S
Li441 O503 1.961 . S
Li442 N487 1.990 . S
Li442 O500 1.961 . S
Li442 O502 1.956 . S
Li442 O503 1.970 . S
Li443 N493 1.990 . S
Li443 O501 1.961 . S
Li443 O502 1.970 . S
Li443 O503 1.956 . S
C444 C446 1.348 . S
C444 C447 1.356 . S
C444 O500 1.325 . S
N445 C448 1.314 . S
N445 C449 1.279 . S
C446 C444 1.348 . S
C446 C448 1.353 . S
C446 H504 0.929 . S
C447 C444 1.356 . S
C447 C449 1.358 . S
C447 H505 0.930 . S
C448 N445 1.314 . S
C448 C446 1.353 . S
C448 H506 0.930 . S
C449 N445 1.279 . S
C449 C447 1.358 . S
C449 H507 0.930 . S
C450 C453 1.348 . S
C450 C454 1.356 . S
C450 O501 1.325 . S
C451 N452 1.279 . S
C451 C454 1.358 . S
C451 H508 0.930 . S
N452 C451 1.279 . S
N452 C455 1.314 . S
C453 C450 1.348 . S
C453 C455 1.353 . S
C453 H509 0.929 . S
C454 C450 1.356 . S
C454 C451 1.358 . S
C454 H510 0.930 . S
C455 N452 1.314 . S
C455 C453 1.353 . S
C455 H511 0.930 . S
C456 N457 1.314 . S
C456 C461 1.353 . S
C456 H462 0.930 . S
N457 Li440 1.990 . S
N457 C456 1.314 . S
N457 C459 1.279 . S
C458 C459 1.358 . S
C458 C460 1.356 . S
C458 H512 0.930 . S
C459 N457 1.279 . S
C459 C458 1.358 . S
C459 H463 0.930 . S
C460 C458 1.356 . S
C460 C461 1.348 . S
C461 C456 1.353 . S
C461 C460 1.348 . S
C461 H513 0.929 . S
H462 C456 0.930 . S
H463 C459 0.930 . S
C464 N465 1.314 . S
C464 C466 1.353 . S
C464 H470 0.930 . S
N465 Li441 1.990 . S
N465 C464 1.314 . S
N465 C468 1.279 . S
C466 C464 1.353 . S
C466 C469 1.348 . S
C466 H514 0.929 . S
C467 C468 1.358 . S
C467 C469 1.356 . S
C467 H515 0.930 . S
C468 N465 1.279 . S
C468 C467 1.358 . S
C468 H471 0.930 . S
C469 C466 1.348 . S
C469 C467 1.356 . S
H470 C464 0.930 . S
H471 C468 0.930 . S
C472 C474 1.348 . S
C472 C475 1.356 . S
C472 O502 1.325 . S
N473 C476 1.314 . S
N473 C477 1.279 . S
C474 C472 1.348 . S
C474 C476 1.353 . S
C474 H516 0.929 . S
C475 C472 1.356 . S
C475 C477 1.358 . S
C475 H517 0.930 . S
C476 N473 1.314 . S
C476 C474 1.353 . S
C476 H518 0.930 . S
C477 N473 1.279 . S
C477 C475 1.358 . S
C477 H519 0.930 . S
C478 C479 1.348 . S
C478 C480 1.356 . S
C478 O503 1.325 . S
C479 C478 1.348 . S
C479 C481 1.353 . S
C479 H520 0.929 . S
C480 C478 1.356 . S
C480 C482 1.358 . S
C480 H521 0.930 . S
C481 C479 1.353 . S
C481 N483 1.314 . S
C481 H522 0.930 . S
C482 C480 1.358 . S
C482 N483 1.279 . S
C482 H523 0.930 . S
N483 C481 1.314 . S
N483 C482 1.279 . S
C484 C486 1.353 . S
C484 N487 1.314 . S
C484 H490 0.930 . S
C485 N487 1.279 . S
C485 C488 1.358 . S
C485 H491 0.930 . S
C486 C484 1.353 . S
C486 C489 1.348 . S
C486 H524 0.929 . S
N487 Li442 1.990 . S
N487 C484 1.314 . S
N487 C485 1.279 . S
C488 C485 1.358 . S
C488 C489 1.356 . S
C488 H525 0.930 . S
C489 C486 1.348 . S
C489 C488 1.356 . S
H490 C484 0.930 . S
H491 C485 0.930 . S
C492 N493 1.314 . S
C492 C494 1.353 . S
C492 H498 0.930 . S
N493 Li443 1.990 . S
N493 C492 1.314 . S
N493 C496 1.279 . S
C494 C492 1.353 . S
C494 C497 1.348 . S
C494 H526 0.929 . S
C495 C496 1.358 . S
C495 C497 1.356 . S
C495 H527 0.930 . S
C496 N493 1.279 . S
C496 C495 1.358 . S
C496 H499 0.930 . S
C497 C494 1.348 . S
C497 C495 1.356 . S
H498 C492 0.930 . S
H499 C496 0.930 . S
O500 Li440 1.956 . S
O500 Li441 1.970 . S
O500 Li442 1.961 . S
O500 C444 1.325 . S
O501 Li440 1.970 . S
O501 Li441 1.956 . S
O501 Li443 1.961 . S
O501 C450 1.325 . S
O502 Li440 1.961 . S
O502 Li442 1.956 . S
O502 Li443 1.970 . S
O502 C472 1.325 . S
O503 Li441 1.961 . S
O503 Li442 1.970 . S
O503 Li443 1.956 . S
O503 C478 1.325 . S
H504 C446 0.929 . S
H505 C447 0.930 . S
H506 C448 0.930 . S
H507 C449 0.930 . S
H508 C451 0.930 . S
H509 C453 0.929 . S
H510 C454 0.930 . S
H511 C455 0.930 . S
H512 C458 0.930 . S
H513 C461 0.929 . S
H514 C466 0.929 . S
H515 C467 0.930 . S
H516 C474 0.929 . S
H517 C475 0.930 . S
H518 C476 0.930 . S
H519 C477 0.930 . S
H520 C479 0.929 . S
H521 C480 0.930 . S
H522 C481 0.930 . S
H523 C482 0.930 . S
H524 C486 0.929 . S
H525 C488 0.930 . S
H526 C494 0.929 . S
H527 C495 0.930 . S
Li528 N545 1.990 . S
Li528 O588 1.956 . S
Li528 O589 1.970 . S
Li528 O590 1.961 . S
Li529 N553 1.990 . S
Li529 O588 1.970 . S
Li529 O589 1.956 . S
Li529 O591 1.961 . S
Li530 N575 1.990 . S
Li530 O588 1.961 . S
Li530 O590 1.956 . S
Li530 O591 1.970 . S
Li531 N581 1.990 . S
Li531 O589 1.961 . S
Li531 O590 1.970 . S
Li531 O591 1.956 . S
C532 C534 1.348 . S
C532 C535 1.356 . S
C532 O588 1.325 . S
N533 C536 1.314 . S
N533 C537 1.279 . S
C534 C532 1.348 . S
C534 C536 1.353 . S
C534 H592 0.929 . S
C535 C532 1.356 . S
C535 C537 1.358 . S
C535 H593 0.930 . S
C536 N533 1.314 . S
C536 C534 1.353 . S
C536 H594 0.930 . S
C537 N533 1.279 . S
C537 C535 1.358 . S
C537 H595 0.930 . S
C538 C541 1.348 . S
C538 C542 1.356 . S
C538 O589 1.325 . S
C539 N540 1.279 . S
C539 C542 1.358 . S
C539 H596 0.930 . S
N540 C539 1.279 . S
N540 C543 1.314 . S
C541 C538 1.348 . S
C541 C543 1.353 . S
C541 H597 0.929 . S
C542 C538 1.356 . S
C542 C539 1.358 . S
C542 H598 0.930 . S
C543 N540 1.314 . S
C543 C541 1.353 . S
C543 H599 0.930 . S
C544 N545 1.314 . S
C544 C549 1.353 . S
C544 H550 0.930 . S
N545 Li528 1.990 . S
N545 C544 1.314 . S
N545 C547 1.279 . S
C546 C547 1.358 . S
C546 C548 1.356 . S
C546 H600 0.930 . S
C547 N545 1.279 . S
C547 C546 1.358 . S
C547 H551 0.930 . S
C548 C546 1.356 . S
C548 C549 1.348 . S
C549 C544 1.353 . S
C549 C548 1.348 . S
C549 H601 0.929 . S
H550 C544 0.930 . S
H551 C547 0.930 . S
C552 N553 1.314 . S
C552 C554 1.353 . S
C552 H558 0.930 . S
N553 Li529 1.990 . S
N553 C552 1.314 . S
N553 C556 1.279 . S
C554 C552 1.353 . S
C554 C557 1.348 . S
C554 H602 0.929 . S
C555 C556 1.358 . S
C555 C557 1.356 . S
C555 H603 0.930 . S
C556 N553 1.279 . S
C556 C555 1.358 . S
C556 H559 0.930 . S
C557 C554 1.348 . S
C557 C555 1.356 . S
H558 C552 0.930 . S
H559 C556 0.930 . S
C560 C562 1.348 . S
C560 C563 1.356 . S
C560 O590 1.325 . S
N561 C564 1.314 . S
N561 C565 1.279 . S
C562 C560 1.348 . S
C562 C564 1.353 . S
C562 H604 0.929 . S
C563 C560 1.356 . S
C563 C565 1.358 . S
C563 H605 0.930 . S
C564 N561 1.314 . S
C564 C562 1.353 . S
C564 H606 0.930 . S
C565 N561 1.279 . S
C565 C563 1.358 . S
C565 H607 0.930 . S
C566 C567 1.348 . S
C566 C568 1.356 . S
C566 O591 1.325 . S
C567 C566 1.348 . S
C567 C569 1.353 . S
C567 H608 0.929 . S
C568 C566 1.356 . S
C568 C570 1.358 . S
C568 H609 0.930 . S
C569 C567 1.353 . S
C569 N571 1.314 . S
C569 H610 0.930 . S
C570 C568 1.358 . S
C570 N571 1.279 . S
C570 H611 0.930 . S
N571 C569 1.314 . S
N571 C570 1.279 . S
C572 C574 1.353 . S
C572 N575 1.314 . S
C572 H578 0.930 . S
C573 N575 1.279 . S
C573 C576 1.358 . S
C573 H579 0.930 . S
C574 C572 1.353 . S
C574 C577 1.348 . S
C574 H612 0.929 . S
N575 Li530 1.990 . S
N575 C572 1.314 . S
N575 C573 1.279 . S
C576 C573 1.358 . S
C576 C577 1.356 . S
C576 H613 0.930 . S
C577 C574 1.348 . S
C577 C576 1.356 . S
H578 C572 0.930 . S
H579 C573 0.930 . S
C580 N581 1.314 . S
C580 C582 1.353 . S
C580 H586 0.930 . S
N581 Li531 1.990 . S
N581 C580 1.314 . S
N581 C584 1.279 . S
C582 C580 1.353 . S
C582 C585 1.348 . S
C582 H614 0.929 . S
C583 C584 1.358 . S
C583 C585 1.356 . S
C583 H615 0.930 . S
C584 N581 1.279 . S
C584 C583 1.358 . S
C584 H587 0.930 . S
C585 C582 1.348 . S
C585 C583 1.356 . S
H586 C580 0.930 . S
H587 C584 0.930 . S
O588 Li528 1.956 . S
O588 Li529 1.970 . S
O588 Li530 1.961 . S
O588 C532 1.325 . S
O589 Li528 1.970 . S
O589 Li529 1.956 . S
O589 Li531 1.961 . S
O589 C538 1.325 . S
O590 Li528 1.961 . S
O590 Li530 1.956 . S
O590 Li531 1.970 . S
O590 C560 1.325 . S
O591 Li529 1.961 . S
O591 Li530 1.970 . S
O591 Li531 1.956 . S
O591 C566 1.325 . S
H592 C534 0.929 . S
H593 C535 0.930 . S
H594 C536 0.930 . S
H595 C537 0.930 . S
H596 C539 0.930 . S
H597 C541 0.929 . S
H598 C542 0.930 . S
H599 C543 0.930 . S
H600 C546 0.930 . S
H601 C549 0.929 . S
H602 C554 0.929 . S
H603 C555 0.930 . S
H604 C562 0.929 . S
H605 C563 0.930 . S
H606 C564 0.930 . S
H607 C565 0.930 . S
H608 C567 0.929 . S
H609 C568 0.930 . S
H610 C569 0.930 . S
H611 C570 0.930 . S
H612 C574 0.929 . S
H613 C576 0.930 . S
H614 C582 0.929 . S
H615 C583 0.930 . S
Li616 N633 1.990 . S
Li616 O676 1.956 . S
Li616 O677 1.970 . S
Li616 O678 1.961 . S
Li617 N641 1.990 1_455 S
Li617 O676 1.970 . S
Li617 O677 1.956 . S
Li617 O679 1.961 . S
Li618 N663 1.990 . S
Li618 O676 1.961 . S
Li618 O678 1.956 . S
Li618 O679 1.970 . S
Li619 N669 1.990 . S
Li619 O677 1.961 . S
Li619 O678 1.970 . S
Li619 O679 1.956 . S
C620 C622 1.348 . S
C620 C623 1.356 1_556 S
C620 O676 1.325 1_655 S
N621 C624 1.314 1_554 S
N621 C625 1.279 . S
C622 C620 1.348 . S
C622 C624 1.353 . S
C622 H680 0.929 . S
C623 C620 1.356 1_554 S
C623 C625 1.358 . S
C623 H681 0.930 1_655 S
C624 N621 1.314 1_556 S
C624 C622 1.353 . S
C624 H682 0.930 . S
C625 N621 1.279 . S
C625 C623 1.358 . S
C625 H683 0.930 . S
C626 C629 1.348 . S
C626 C630 1.356 . S
C626 O677 1.325 . S
C627 N628 1.279 . S
C627 C630 1.358 . S
C627 H684 0.930 . S
N628 C627 1.279 . S
N628 C631 1.314 . S
C629 C626 1.348 . S
C629 C631 1.353 . S
C629 H685 0.929 . S
C630 C626 1.356 . S
C630 C627 1.358 . S
C630 H686 0.930 . S
C631 N628 1.314 . S
C631 C629 1.353 . S
C631 H687 0.930 . S
C632 N633 1.314 1_554 S
C632 C637 1.353 . S
C632 H638 0.930 1_554 S
N633 Li616 1.990 . S
N633 C632 1.314 1_556 S
N633 C635 1.279 1_556 S
C634 C635 1.358 . S
C634 C636 1.356 . S
C634 H688 0.930 . S
C635 N633 1.279 1_554 S
C635 C634 1.358 . S
C635 H639 0.930 . S
C636 C634 1.356 . S
C636 C637 1.348 . S
C637 C632 1.353 . S
C637 C636 1.348 . S
C637 H689 0.929 . S
H638 C632 0.930 1_556 S
H639 C635 0.930 . S
C640 N641 1.314 . S
C640 C642 1.353 . S
C640 H646 0.930 . S
N641 Li617 1.990 1_655 S
N641 C640 1.314 . S
N641 C644 1.279 . S
C642 C640 1.353 . S
C642 C645 1.348 . S
C642 H690 0.929 . S
C643 C644 1.358 . S
C643 C645 1.356 . S
C643 H691 0.930 . S
C644 N641 1.279 . S
C644 C643 1.358 . S
C644 H647 0.930 . S
C645 C642 1.348 . S
C645 C643 1.356 . S
H646 C640 0.930 . S
H647 C644 0.930 . S
C648 C650 1.348 . S
C648 C651 1.356 1_556 S
C648 O678 1.325 . S
N649 C652 1.314 1_554 S
N649 C653 1.279 . S
C650 C648 1.348 . S
C650 C652 1.353 . S
C650 H692 0.929 . S
C651 C648 1.356 1_554 S
C651 C653 1.358 . S
C651 H693 0.930 . S
C652 N649 1.314 1_556 S
C652 C650 1.353 . S
C652 H694 0.930 . S
C653 N649 1.279 . S
C653 C651 1.358 . S
C653 H695 0.930 . S
C654 C655 1.348 . S
C654 C656 1.356 . S
C654 O679 1.325 . S
C655 C654 1.348 . S
C655 C657 1.353 . S
C655 H696 0.929 . S
C656 C654 1.356 . S
C656 C658 1.358 . S
C656 H697 0.930 . S
C657 C655 1.353 . S
C657 N659 1.314 . S
C657 H698 0.930 . S
C658 C656 1.358 . S
C658 N659 1.279 . S
C658 H699 0.936 . S
N659 C657 1.314 . S
N659 C658 1.279 . S
C660 C662 1.353 . S
C660 N663 1.314 . S
C660 H666 0.930 1_455 S
C661 N663 1.279 . S
C661 C664 1.358 1_556 S
C661 H667 0.930 . S
C662 C660 1.353 . S
C662 C665 1.347 1_556 S
C662 H700 0.930 1_455 S
N663 Li618 1.990 . S
N663 C660 1.314 . S
N663 C661 1.279 . S
C664 C661 1.358 1_554 S
C664 C665 1.356 . S
C664 H701 0.930 . S
C665 C662 1.347 1_554 S
C665 C664 1.356 . S
H666 C660 0.930 1_655 S
H667 C661 0.930 . S
C668 N669 1.314 . S
C668 C670 1.353 . S
C668 H674 0.930 . S
N669 Li619 1.990 . S
N669 C668 1.314 . S
N669 C672 1.279 . S
C670 C668 1.353 . S
C670 C673 1.348 . S
C670 H702 0.929 . S
C671 C672 1.358 . S
C671 C673 1.356 . S
C671 H703 0.930 . S
C672 N669 1.279 . S
C672 C671 1.358 . S
C672 H675 0.930 . S
C673 C670 1.348 . S
C673 C671 1.356 . S
H674 C668 0.930 . S
H675 C672 0.930 . S
O676 Li616 1.956 . S
O676 Li617 1.970 . S
O676 Li618 1.961 . S
O676 C620 1.325 1_455 S
O677 Li616 1.970 . S
O677 Li617 1.956 . S
O677 Li619 1.961 . S
O677 C626 1.325 . S
O678 Li616 1.961 . S
O678 Li618 1.956 . S
O678 Li619 1.970 . S
O678 C648 1.325 . S
O679 Li617 1.961 . S
O679 Li618 1.970 . S
O679 Li619 1.956 . S
O679 C654 1.325 . S
H680 C622 0.929 . S
H681 C623 0.930 1_455 S
H682 C624 0.930 . S
H683 C625 0.930 . S
H684 C627 0.930 . S
H685 C629 0.929 . S
H686 C630 0.930 . S
H687 C631 0.930 . S
H688 C634 0.930 . S
H689 C637 0.929 . S
H690 C642 0.929 . S
H691 C643 0.930 . S
H692 C650 0.929 . S
H693 C651 0.930 . S
H694 C652 0.930 . S
H695 C653 0.930 . S
H696 C655 0.929 . S
H697 C656 0.930 . S
H698 C657 0.930 . S
H699 C658 0.936 . S
H700 C662 0.930 1_655 S
H701 C664 0.930 . S
H702 C670 0.929 . S
H703 C671 0.930 . S
Li704 N721 1.990 . S
Li704 O764 1.956 1_545 S
Li704 O765 1.970 . S
Li704 O766 1.961 . S
Li705 N729 1.990 . S
Li705 O764 1.970 . S
Li705 O765 1.956 1_565 S
Li705 O767 1.961 . S
Li706 N751 1.990 . S
Li706 O764 1.961 1_545 S
Li706 O766 1.956 . S
Li706 O767 1.970 1_545 S
Li707 N757 1.990 . S
Li707 O765 1.961 . S
Li707 O766 1.970 . S
Li707 O767 1.956 1_545 S
C708 C710 1.348 . S
C708 C711 1.356 . S
C708 O764 1.325 . S
N709 C712 1.314 . S
N709 C713 1.279 . S
C710 C708 1.348 . S
C710 C712 1.353 . S
C710 H768 0.929 . S
C711 C708 1.356 . S
C711 C713 1.358 . S
C711 H769 0.930 . S
C712 N709 1.314 . S
C712 C710 1.353 . S
C712 H770 0.930 . S
C713 N709 1.279 . S
C713 C711 1.358 . S
C713 H771 0.930 . S
C714 C717 1.348 . S
C714 C718 1.362 . S
C714 O765 1.325 1_565 S
C715 N716 1.279 . S
C715 C718 1.360 . S
C715 H772 0.939 . S
N716 C715 1.279 . S
N716 C719 1.314 . S
C717 C714 1.348 . S
C717 C719 1.353 . S
C717 H773 0.929 . S
C718 C714 1.362 . S
C718 C715 1.360 . S
C718 H774 0.924 . S
C719 N716 1.314 . S
C719 C717 1.353 . S
C719 H775 0.930 . S
C720 N721 1.314 . S
C720 C725 1.353 . S
C720 H726 0.930 . S
N721 Li704 1.990 . S
N721 C720 1.314 . S
N721 C723 1.279 1_545 S
C722 C723 1.358 1_545 S
C722 C724 1.356 . S
C722 H776 0.930 1_545 S
C723 N721 1.279 1_565 S
C723 C722 1.358 1_565 S
C723 H727 0.930 . S
C724 C722 1.356 . S
C724 C725 1.348 . S
C725 C720 1.353 . S
C725 C724 1.348 . S
C725 H777 0.929 . S
H726 C720 0.930 . S
H727 C723 0.930 . S
C728 N729 1.314 . S
C728 C730 1.353 . S
C728 H734 0.930 . S
N729 Li705 1.990 . S
N729 C728 1.314 . S
N729 C732 1.279 . S
C730 C728 1.353 . S
C730 C733 1.348 . S
C730 H778 0.929 . S
C731 C732 1.358 . S
C731 C733 1.356 . S
C731 H779 0.930 . S
C732 N729 1.279 . S
C732 C731 1.358 . S
C732 H735 0.930 . S
C733 C730 1.348 . S
C733 C731 1.356 . S
H734 C728 0.930 . S
H735 C732 0.930 . S
C736 C738 1.348 . S
C736 C739 1.356 . S
C736 O766 1.325 . S
N737 C740 1.314 . S
N737 C741 1.279 . S
C738 C736 1.348 . S
C738 C740 1.353 . S
C738 H780 0.929 . S
C739 C736 1.356 . S
C739 C741 1.358 . S
C739 H781 0.930 . S
C740 N737 1.314 . S
C740 C738 1.353 . S
C740 H782 0.930 . S
C741 N737 1.279 . S
C741 C739 1.358 . S
C741 H783 0.930 . S
C742 C743 1.348 . S
C742 C744 1.356 . S
C742 O767 1.325 . S
C743 C742 1.348 . S
C743 C745 1.353 . S
C743 H784 0.929 1_565 S
C744 C742 1.356 . S
C744 C746 1.358 . S
C744 H785 0.930 . S
C745 C743 1.353 . S
C745 N747 1.314 . S
C745 H786 0.930 . S
C746 C744 1.358 . S
C746 N747 1.279 . S
C746 H787 0.930 . S
N747 C745 1.314 . S
N747 C746 1.279 . S
C748 C750 1.353 . S
C748 N751 1.314 1_565 S
C748 H754 0.930 . S
C749 N751 1.279 . S
C749 C752 1.358 . S
C749 H755 0.930 . S
C750 C748 1.353 . S
C750 C753 1.324 1_565 S
C750 H788 0.929 . S
N751 Li706 1.990 . S
N751 C748 1.314 1_545 S
N751 C749 1.279 . S
C752 C749 1.358 . S
C752 C753 1.379 . S
C752 H789 0.930 . S
C753 C750 1.324 1_545 S
C753 C752 1.379 . S
H754 C748 0.930 . S
H755 C749 0.930 . S
C756 N757 1.314 . S
C756 C758 1.353 . S
C756 H762 0.930 . S
N757 Li707 1.990 . S
N757 C756 1.314 . S
N757 C760 1.279 . S
C758 C756 1.353 . S
C758 C761 1.348 . S
C758 H790 0.929 . S
C759 C760 1.358 . S
C759 C761 1.356 . S
C759 H791 0.930 . S
C760 N757 1.279 . S
C760 C759 1.358 . S
C760 H763 0.930 . S
C761 C758 1.348 . S
C761 C759 1.356 . S
H762 C756 0.930 . S
H763 C760 0.930 . S
O764 Li704 1.956 1_565 S
O764 Li705 1.970 . S
O764 Li706 1.961 1_565 S
O764 C708 1.325 . S
O765 Li704 1.970 . S
O765 Li705 1.956 1_545 S
O765 Li707 1.961 . S
O765 C714 1.325 1_545 S
O766 Li704 1.961 . S
O766 Li706 1.956 . S
O766 Li707 1.970 . S
O766 C736 1.325 . S
O767 Li705 1.961 . S
O767 Li706 1.970 1_565 S
O767 Li707 1.956 1_565 S
O767 C742 1.325 . S
H768 C710 0.929 . S
H769 C711 0.930 . S
H770 C712 0.930 . S
H771 C713 0.930 . S
H772 C715 0.939 . S
H773 C717 0.929 . S
H774 C718 0.924 . S
H775 C719 0.930 . S
H776 C722 0.930 1_565 S
H777 C725 0.929 . S
H778 C730 0.929 . S
H779 C731 0.930 . S
H780 C738 0.929 . S
H781 C739 0.930 . S
H782 C740 0.930 . S
H783 C741 0.930 . S
H784 C743 0.929 1_545 S
H785 C744 0.930 . S
H786 C745 0.930 . S
H787 C746 0.930 . S
H788 C750 0.929 . S
H789 C752 0.930 . S
H790 C758 0.929 . S
H791 C759 0.930 . S
Li792 N809 1.990 . S
Li792 O852 1.956 . S
Li792 O853 1.970 . S
Li792 O854 1.961 . S
Li793 N817 1.990 . S
Li793 O852 1.970 . S
Li793 O853 1.956 . S
Li793 O855 1.961 . S
Li794 N839 1.990 . S
Li794 O852 1.961 . S
Li794 O854 1.956 . S
Li794 O855 1.970 . S
Li795 N845 1.990 . S
Li795 O853 1.961 . S
Li795 O854 1.970 . S
Li795 O855 1.956 . S
C796 C798 1.348 . S
C796 C799 1.356 . S
C796 O852 1.325 . S
N797 C800 1.314 . S
N797 C801 1.279 . S
C798 C796 1.348 . S
C798 C800 1.353 . S
C798 H856 0.929 . S
C799 C796 1.356 . S
C799 C801 1.358 . S
C799 H857 0.930 . S
C800 N797 1.314 . S
C800 C798 1.353 . S
C800 H858 0.930 . S
C801 N797 1.279 . S
C801 C799 1.358 . S
C801 H859 0.930 . S
C802 C805 1.348 . S
C802 C806 1.356 . S
C802 O853 1.325 . S
C803 N804 1.279 . S
C803 C806 1.358 . S
C803 H860 0.930 . S
N804 C803 1.279 . S
N804 C807 1.314 . S
C805 C802 1.348 . S
C805 C807 1.353 . S
C805 H861 0.929 . S
C806 C802 1.356 . S
C806 C803 1.358 . S
C806 H862 0.930 . S
C807 N804 1.314 . S
C807 C805 1.353 . S
C807 H863 0.930 . S
C808 N809 1.314 . S
C808 C813 1.353 . S
C808 H814 0.930 . S
N809 Li792 1.990 . S
N809 C808 1.314 . S
N809 C811 1.279 . S
C810 C811 1.358 . S
C810 C812 1.356 . S
C810 H864 0.930 . S
C811 N809 1.279 . S
C811 C810 1.358 . S
C811 H815 0.930 . S
C812 C810 1.356 . S
C812 C813 1.348 . S
C813 C808 1.353 . S
C813 C812 1.348 . S
C813 H865 0.929 . S
H814 C808 0.930 . S
H815 C811 0.930 . S
C816 N817 1.314 . S
C816 C818 1.353 . S
C816 H822 0.930 . S
N817 Li793 1.990 . S
N817 C816 1.314 . S
N817 C820 1.279 . S
C818 C816 1.353 . S
C818 C821 1.348 . S
C818 H866 0.929 . S
C819 C820 1.358 . S
C819 C821 1.356 . S
C819 H867 0.930 . S
C820 N817 1.279 . S
C820 C819 1.358 . S
C820 H823 0.930 . S
C821 C818 1.348 . S
C821 C819 1.356 . S
H822 C816 0.930 . S
H823 C820 0.930 . S
C824 C826 1.348 . S
C824 C827 1.356 . S
C824 O854 1.325 . S
N825 C828 1.314 . S
N825 C829 1.279 . S
C826 C824 1.348 . S
C826 C828 1.353 . S
C826 H868 0.929 . S
C827 C824 1.356 . S
C827 C829 1.358 . S
C827 H869 0.930 . S
C828 N825 1.314 . S
C828 C826 1.353 . S
C828 H870 0.930 . S
C829 N825 1.279 . S
C829 C827 1.358 . S
C829 H871 0.930 . S
C830 C831 1.348 . S
C830 C832 1.356 . S
C830 O855 1.325 . S
C831 C830 1.348 . S
C831 C833 1.353 . S
C831 H872 0.929 . S
C832 C830 1.356 . S
C832 C834 1.358 . S
C832 H873 0.930 . S
C833 C831 1.353 . S
C833 N835 1.314 . S
C833 H874 0.930 . S
C834 C832 1.358 . S
C834 N835 1.279 . S
C834 H875 0.930 . S
N835 C833 1.314 . S
N835 C834 1.279 . S
C836 C838 1.353 . S
C836 N839 1.314 . S
C836 H842 0.930 . S
C837 N839 1.279 . S
C837 C840 1.358 . S
C837 H843 0.930 . S
C838 C836 1.353 . S
C838 C841 1.348 . S
C838 H876 0.929 . S
N839 Li794 1.990 . S
N839 C836 1.314 . S
N839 C837 1.279 . S
C840 C837 1.358 . S
C840 C841 1.356 . S
C840 H877 0.930 . S
C841 C838 1.348 . S
C841 C840 1.356 . S
H842 C836 0.930 . S
H843 C837 0.930 . S
C844 N845 1.314 . S
C844 C846 1.353 . S
C844 H850 0.930 . S
N845 Li795 1.990 . S
N845 C844 1.314 . S
N845 C848 1.279 . S
C846 C844 1.353 . S
C846 C849 1.348 . S
C846 H878 0.929 . S
C847 C848 1.358 . S
C847 C849 1.356 . S
C847 H879 0.930 . S
C848 N845 1.279 . S
C848 C847 1.358 . S
C848 H851 0.930 . S
C849 C846 1.348 . S
C849 C847 1.356 . S
H850 C844 0.930 . S
H851 C848 0.930 . S
O852 Li792 1.956 . S
O852 Li793 1.970 . S
O852 Li794 1.961 . S
O852 C796 1.325 . S
O853 Li792 1.970 . S
O853 Li793 1.956 . S
O853 Li795 1.961 . S
O853 C802 1.325 . S
O854 Li792 1.961 . S
O854 Li794 1.956 . S
O854 Li795 1.970 . S
O854 C824 1.325 . S
O855 Li793 1.961 . S
O855 Li794 1.970 . S
O855 Li795 1.956 . S
O855 C830 1.325 . S
H856 C798 0.929 . S
H857 C799 0.930 . S
H858 C800 0.930 . S
H859 C801 0.930 . S
H860 C803 0.930 . S
H861 C805 0.929 . S
H862 C806 0.930 . S
H863 C807 0.930 . S
H864 C810 0.930 . S
H865 C813 0.929 . S
H866 C818 0.929 . S
H867 C819 0.930 . S
H868 C826 0.929 . S
H869 C827 0.930 . S
H870 C828 0.930 . S
H871 C829 0.930 . S
H872 C831 0.929 . S
H873 C832 0.930 . S
H874 C833 0.930 . S
H875 C834 0.930 . S
H876 C838 0.929 . S
H877 C840 0.930 . S
H878 C846 0.929 . S
H879 C847 0.930 . S
Li880 N897 1.990 . S
Li880 O940 1.956 . S
Li880 O941 1.970 . S
Li880 O942 1.961 . S
Li881 N905 1.990 . S
Li881 O940 1.970 . S
Li881 O941 1.956 . S
Li881 O943 1.961 1_545 S
Li882 N927 1.990 . S
Li882 O940 1.961 1_565 S
Li882 O942 1.956 1_565 S
Li882 O943 1.970 . S
Li883 N933 1.989 . S
Li883 O941 1.961 . S
Li883 O942 1.970 . S
Li883 O943 1.956 1_545 S
C884 C886 1.348 . S
C884 C887 1.356 . S
C884 O940 1.325 . S
N885 C888 1.314 . S
N885 C889 1.279 . S
C886 C884 1.348 . S
C886 C888 1.353 . S
C886 H944 0.929 . S
C887 C884 1.356 . S
C887 C889 1.358 . S
C887 H945 0.930 . S
C888 N885 1.314 . S
C888 C886 1.353 . S
C888 H946 0.930 . S
C889 N885 1.279 . S
C889 C887 1.358 . S
C889 H947 0.930 . S
C890 C893 1.348 . S
C890 C894 1.356 . S
C890 O941 1.325 . S
C891 N892 1.279 . S
C891 C894 1.358 . S
C891 H948 0.930 . S
N892 C891 1.279 . S
N892 C895 1.314 . S
C893 C890 1.348 . S
C893 C895 1.353 . S
C893 H949 0.929 . S
C894 C890 1.356 . S
C894 C891 1.358 . S
C894 H950 0.930 . S
C895 N892 1.314 . S
C895 C893 1.353 . S
C895 H951 0.930 . S
C896 N897 1.314 . S
C896 C901 1.353 . S
C896 H902 0.930 . S
N897 Li880 1.990 . S
N897 C896 1.314 . S
N897 C899 1.279 . S
C898 C899 1.358 . S
C898 C900 1.356 . S
C898 H952 0.930 . S
C899 N897 1.279 . S
C899 C898 1.358 . S
C899 H903 0.930 . S
C900 C898 1.356 . S
C900 C901 1.348 . S
C901 C896 1.353 . S
C901 C900 1.348 . S
C901 H953 0.929 . S
H902 C896 0.930 . S
H903 C899 0.930 . S
C904 N905 1.314 1_565 S
C904 C906 1.353 . S
C904 H910 0.930 . S
N905 Li881 1.990 . S
N905 C904 1.314 1_545 S
N905 C908 1.279 . S
C906 C904 1.353 . S
C906 C909 1.348 1_565 S
C906 H954 0.929 . S
C907 C908 1.358 . S
C907 C909 1.356 . S
C907 H955 0.930 . S
C908 N905 1.279 . S
C908 C907 1.358 . S
C908 H911 0.930 . S
C909 C906 1.348 1_545 S
C909 C907 1.356 . S
H910 C904 0.930 . S
H911 C908 0.930 . S
C912 C914 1.348 . S
C912 C915 1.356 . S
C912 O942 1.325 . S
N913 C916 1.314 . S
N913 C917 1.279 . S
C914 C912 1.348 . S
C914 C916 1.353 . S
C914 H956 0.929 1_545 S
C915 C912 1.356 . S
C915 C917 1.358 . S
C915 H957 0.930 . S
C916 N913 1.314 . S
C916 C914 1.353 . S
C916 H958 0.930 1_545 S
C917 N913 1.279 . S
C917 C915 1.358 . S
C917 H959 0.930 . S
C918 C919 1.348 . S
C918 C920 1.356 . S
C918 O943 1.325 . S
C919 C918 1.348 . S
C919 C921 1.353 . S
C919 H960 0.929 . S
C920 C918 1.356 . S
C920 C922 1.358 . S
C920 H961 0.930 . S
C921 C919 1.353 . S
C921 N923 1.314 . S
C921 H962 0.930 . S
C922 C920 1.358 . S
C922 N923 1.279 . S
C922 H963 0.930 . S
N923 C921 1.314 . S
N923 C922 1.279 . S
C924 C926 1.353 . S
C924 N927 1.314 . S
C924 H930 0.930 . S
C925 N927 1.279 . S
C925 C928 1.358 . S
C925 H931 0.930 . S
C926 C924 1.353 . S
C926 C929 1.348 . S
C926 H964 0.929 . S
N927 Li882 1.990 . S
N927 C924 1.314 . S
N927 C925 1.279 . S
C928 C925 1.358 . S
C928 C929 1.356 . S
C928 H965 0.930 . S
C929 C926 1.348 . S
C929 C928 1.356 . S
H930 C924 0.930 . S
H931 C925 0.930 . S
C932 N933 1.322 . S
C932 C934 1.353 . S
C932 H938 0.930 . S
N933 Li883 1.989 . S
N933 C932 1.322 . S
N933 C936 1.273 1_545 S
C934 C932 1.353 . S
C934 C937 1.348 1_545 S
C934 H966 0.929 . S
C935 C936 1.358 . S
C935 C937 1.356 . S
C935 H967 0.930 . S
C936 N933 1.273 1_565 S
C936 C935 1.358 . S
C936 H939 0.930 . S
C937 C934 1.348 1_565 S
C937 C935 1.356 . S
H938 C932 0.930 . S
H939 C936 0.930 . S
O940 Li880 1.956 . S
O940 Li881 1.970 . S
O940 Li882 1.961 1_545 S
O940 C884 1.325 . S
O941 Li880 1.970 . S
O941 Li881 1.956 . S
O941 Li883 1.961 . S
O941 C890 1.325 . S
O942 Li880 1.961 . S
O942 Li882 1.956 1_545 S
O942 Li883 1.970 . S
O942 C912 1.325 . S
O943 Li881 1.961 1_565 S
O943 Li882 1.970 . S
O943 Li883 1.956 1_565 S
O943 C918 1.325 . S
H944 C886 0.929 . S
H945 C887 0.930 . S
H946 C888 0.930 . S
H947 C889 0.930 . S
H948 C891 0.930 . S
H949 C893 0.929 . S
H950 C894 0.930 . S
H951 C895 0.930 . S
H952 C898 0.930 . S
H953 C901 0.929 . S
H954 C906 0.929 . S
H955 C907 0.930 . S
H956 C914 0.929 1_565 S
H957 C915 0.930 . S
H958 C916 0.930 1_565 S
H959 C917 0.930 . S
H960 C919 0.929 . S
H961 C920 0.930 . S
H962 C921 0.930 . S
H963 C922 0.930 . S
H964 C926 0.929 . S
H965 C928 0.930 . S
H966 C934 0.929 . S
H967 C935 0.930 . S
Li968 N985 1.990 1_565 S
Li968 O1028 1.956 . S
Li968 O1029 1.970 1_554 S
Li968 O1030 1.961 1_554 S
Li969 N993 1.990 . S
Li969 O1028 1.970 . S
Li969 O1029 1.956 1_554 S
Li969 O1031 1.959 1_554 S
Li970 N1015 1.990 1_565 S
Li970 O1028 1.961 . S
Li970 O1030 1.956 1_554 S
Li970 O1031 1.971 1_554 S
Li971 N1021 1.990 . S
Li971 O1029 1.961 . S
Li971 O1030 1.970 . S
Li971 O1031 1.958 . S
C972 C974 1.348 1_545 S
C972 C975 1.356 . S
C972 O1028 1.325 1_545 S
N973 C976 1.314 . S
N973 C977 1.279 . S
C974 C972 1.348 1_565 S
C974 C976 1.353 1_565 S
C974 H1032 0.929 . S
C975 C972 1.356 . S
C975 C977 1.358 . S
C975 H1033 0.930 . S
C976 N973 1.314 . S
C976 C974 1.353 1_545 S
C976 H1034 0.930 . S
C977 N973 1.279 . S
C977 C975 1.358 . S
C977 H1035 0.930 . S
C978 C981 1.348 . S
C978 C982 1.356 . S
C978 O1029 1.325 . S
C979 N980 1.279 . S
C979 C982 1.358 . S
C979 H1036 0.930 . S
N980 C979 1.279 . S
N980 C983 1.314 . S
C981 C978 1.348 . S
C981 C983 1.353 . S
C981 H1037 0.929 1_556 S
C982 C978 1.356 . S
C982 C979 1.358 . S
C982 H1038 0.930 . S
C983 N980 1.314 . S
C983 C981 1.353 . S
C983 H1039 0.930 . S
C984 N985 1.314 1_556 S
C984 C989 1.353 . S
C984 H990 0.930 1_545 S
N985 Li968 1.990 1_545 S
N985 C984 1.314 1_554 S
N985 C987 1.279 . S
C986 C987 1.358 . S
C986 C988 1.356 . S
C986 H1040 0.930 . S
C987 N985 1.279 . S
C987 C986 1.358 . S
C987 H991 0.930 . S
C988 C986 1.356 . S
C988 C989 1.348 1_554 S
C989 C984 1.353 . S
C989 C988 1.348 1_556 S
C989 H1041 0.929 . S
H990 C984 0.930 1_565 S
H991 C987 0.930 . S
C992 N993 1.314 . S
C992 C994 1.353 . S
C992 H998 0.930 . S
N993 Li969 1.990 . S
N993 C992 1.314 . S
N993 C996 1.279 . S
C994 C992 1.353 . S
C994 C997 1.348 . S
C994 H1042 0.929 . S
C995 C996 1.358 . S
C995 C997 1.356 . S
C995 H1043 0.930 . S
C996 N993 1.279 . S
C996 C995 1.358 . S
C996 H999 0.930 . S
C997 C994 1.348 . S
C997 C995 1.356 . S
H998 C992 0.930 . S
H999 C996 0.930 . S
C1000 C1002 1.348 . S
C1000 C1003 1.356 1_565 S
C1000 O1030 1.325 . S
N1001 C1004 1.314 . S
N1001 C1005 1.279 . S
C1002 C1000 1.348 . S
C1002 C1004 1.353 1_565 S
C1002 H1044 0.929 . S
C1003 C1000 1.356 1_545 S
C1003 C1005 1.358 . S
C1003 H1045 0.930 . S
C1004 N1001 1.314 . S
C1004 C1002 1.353 1_545 S
C1004 H1046 0.930 1_545 S
C1005 N1001 1.279 . S
C1005 C1003 1.358 . S
C1005 H1047 0.930 . S
C1006 C1007 1.348 . S
C1006 C1008 1.356 . S
C1006 O1031 1.325 . S
C1007 C1006 1.348 . S
C1007 C1009 1.353 . S
C1007 H1048 0.929 . S
C1008 C1006 1.356 . S
C1008 C1010 1.358 . S
C1008 H1049 0.934 . S
C1009 C1007 1.353 . S
C1009 N1011 1.314 . S
C1009 H1050 0.930 . S
C1010 C1008 1.358 . S
C1010 N1011 1.279 . S
C1010 H1051 0.930 . S
N1011 C1009 1.314 . S
N1011 C1010 1.279 . S
C1012 C1014 1.353 . S
C1012 N1015 1.314 . S
C1012 H1018 0.930 . S
C1013 N1015 1.279 1_556 S
C1013 C1016 1.358 . S
C1013 H1019 0.930 . S
C1014 C1012 1.353 . S
C1014 C1017 1.348 . S
C1014 H1052 0.929 . S
N1015 Li970 1.990 1_545 S
N1015 C1012 1.314 . S
N1015 C1013 1.279 1_554 S
C1016 C1013 1.358 . S
C1016 C1017 1.356 1_556 S
C1016 H1053 0.930 . S
C1017 C1014 1.348 . S
C1017 C1016 1.356 1_554 S
H1018 C1012 0.930 . S
H1019 C1013 0.930 . S
C1020 N1021 1.314 . S
C1020 C1022 1.353 . S
C1020 H1026 0.930 . S
N1021 Li971 1.990 . S
N1021 C1020 1.314 . S
N1021 C1024 1.279 . S
C1022 C1020 1.353 . S
C1022 C1025 1.348 . S
C1022 H1054 0.929 . S
C1023 C1024 1.358 . S
C1023 C1025 1.356 . S
C1023 H1055 0.930 . S
C1024 N1021 1.279 . S
C1024 C1023 1.358 . S
C1024 H1027 0.930 . S
C1025 C1022 1.348 . S
C1025 C1023 1.356 . S
H1026 C1020 0.930 . S
H1027 C1024 0.930 . S
O1028 Li968 1.956 . S
O1028 Li969 1.970 . S
O1028 Li970 1.961 . S
O1028 C972 1.325 1_565 S
O1029 Li968 1.970 1_556 S
O1029 Li969 1.956 1_556 S
O1029 Li971 1.961 . S
O1029 C978 1.325 . S
O1030 Li968 1.961 1_556 S
O1030 Li970 1.956 1_556 S
O1030 Li971 1.970 . S
O1030 C1000 1.325 . S
O1031 Li969 1.959 1_556 S
O1031 Li970 1.971 1_556 S
O1031 Li971 1.958 . S
O1031 C1006 1.325 . S
H1032 C974 0.929 . S
H1033 C975 0.930 . S
H1034 C976 0.930 . S
H1035 C977 0.930 . S
H1036 C979 0.930 . S
H1037 C981 0.929 1_554 S
H1038 C982 0.930 . S
H1039 C983 0.930 . S
H1040 C986 0.930 . S
H1041 C989 0.929 . S
H1042 C994 0.929 . S
H1043 C995 0.930 . S
H1044 C1002 0.929 . S
H1045 C1003 0.930 . S
H1046 C1004 0.930 1_565 S
H1047 C1005 0.930 . S
H1048 C1007 0.929 . S
H1049 C1008 0.934 . S
H1050 C1009 0.930 . S
H1051 C1010 0.930 . S
H1052 C1014 0.929 . S
H1053 C1016 0.930 . S
H1054 C1022 0.929 . S
H1055 C1023 0.930 . S
Li1056 N1073 1.990 . S
Li1056 O1116 1.956 . S
Li1056 O1117 1.970 . S
Li1056 O1118 1.961 1_554 S
Li1057 N1081 1.990 . S
Li1057 O1116 1.970 . S
Li1057 O1117 1.956 . S
Li1057 O1119 1.961 . S
Li1058 N1103 1.990 . S
Li1058 O1116 1.961 . S
Li1058 O1118 1.956 1_554 S
Li1058 O1119 1.970 . S
Li1059 N1109 1.990 . S
Li1059 O1117 1.961 1_556 S
Li1059 O1118 1.970 . S
Li1059 O1119 1.956 1_556 S
C1060 C1062 1.348 . S
C1060 C1063 1.356 . S
C1060 O1116 1.325 . S
N1061 C1064 1.314 . S
N1061 C1065 1.279 . S
C1062 C1060 1.348 . S
C1062 C1064 1.353 . S
C1062 H1120 0.929 . S
C1063 C1060 1.356 . S
C1063 C1065 1.358 . S
C1063 H1121 0.930 . S
C1064 N1061 1.314 . S
C1064 C1062 1.353 . S
C1064 H1122 0.930 . S
C1065 N1061 1.279 . S
C1065 C1063 1.358 . S
C1065 H1123 0.930 . S
C1066 C1069 1.348 . S
C1066 C1070 1.356 . S
C1066 O1117 1.325 . S
C1067 N1068 1.279 1_556 S
C1067 C1070 1.358 1_556 S
C1067 H1124 0.930 . S
N1068 C1067 1.279 1_554 S
N1068 C1071 1.314 . S
C1069 C1066 1.348 . S
C1069 C1071 1.353 . S
C1069 H1125 0.929 . S
C1070 C1066 1.356 . S
C1070 C1067 1.358 1_554 S
C1070 H1126 0.930 1_554 S
C1071 N1068 1.314 . S
C1071 C1069 1.353 . S
C1071 H1127 0.930 . S
C1072 N1073 1.314 . S
C1072 C1077 1.353 . S
C1072 H1078 0.930 1_554 S
N1073 Li1056 1.990 . S
N1073 C1072 1.314 . S
N1073 C1075 1.279 . S
C1074 C1075 1.358 . S
C1074 C1076 1.356 . S
C1074 H1128 0.930 . S
C1075 N1073 1.279 . S
C1075 C1074 1.358 . S
C1075 H1079 0.930 . S
C1076 C1074 1.356 . S
C1076 C1077 1.348 . S
C1077 C1072 1.353 . S
C1077 C1076 1.348 . S
C1077 H1129 0.929 1_554 S
H1078 C1072 0.930 1_556 S
H1079 C1075 0.930 . S
C1080 N1081 1.314 . S
C1080 C1082 1.353 . S
C1080 H1086 0.930 . S
N1081 Li1057 1.990 . S
N1081 C1080 1.314 . S
N1081 C1084 1.279 . S
C1082 C1080 1.353 . S
C1082 C1085 1.348 . S
C1082 H1130 0.929 . S
C1083 C1084 1.358 . S
C1083 C1085 1.356 . S
C1083 H1131 0.930 . S
C1084 N1081 1.279 . S
C1084 C1083 1.358 . S
C1084 H1087 0.930 . S
C1085 C1082 1.348 . S
C1085 C1083 1.356 . S
H1086 C1080 0.930 . S
H1087 C1084 0.930 . S
C1088 C1090 1.348 . S
C1088 C1091 1.356 . S
C1088 O1118 1.325 . S
N1089 C1092 1.314 . S
N1089 C1093 1.279 . S
C1090 C1088 1.348 . S
C1090 C1092 1.353 . S
C1090 H1132 0.929 . S
C1091 C1088 1.356 . S
C1091 C1093 1.358 . S
C1091 H1133 0.930 . S
C1092 N1089 1.314 . S
C1092 C1090 1.353 . S
C1092 H1134 0.930 . S
C1093 N1089 1.279 . S
C1093 C1091 1.358 . S
C1093 H1135 0.930 . S
C1094 C1095 1.348 . S
C1094 C1096 1.356 . S
C1094 O1119 1.325 . S
C1095 C1094 1.348 . S
C1095 C1097 1.353 . S
C1095 H1136 0.929 . S
C1096 C1094 1.356 . S
C1096 C1098 1.358 . S
C1096 H1137 0.930 . S
C1097 C1095 1.353 . S
C1097 N1099 1.314 . S
C1097 H1138 0.930 . S
C1098 C1096 1.358 . S
C1098 N1099 1.279 . S
C1098 H1139 0.930 . S
N1099 C1097 1.314 . S
N1099 C1098 1.279 . S
C1100 C1102 1.353 . S
C1100 N1103 1.314 . S
C1100 H1106 0.930 . S
C1101 N1103 1.279 . S
C1101 C1104 1.358 . S
C1101 H1107 0.930 1_554 S
C1102 C1100 1.353 . S
C1102 C1105 1.348 . S
C1102 H1140 0.929 . S
N1103 Li1058 1.990 . S
N1103 C1100 1.314 . S
N1103 C1101 1.279 . S
C1104 C1101 1.358 . S
C1104 C1105 1.356 . S
C1104 H1141 0.930 . S
C1105 C1102 1.348 . S
C1105 C1104 1.356 . S
H1106 C1100 0.930 . S
H1107 C1101 0.930 1_556 S
C1108 N1109 1.314 . S
C1108 C1110 1.353 . S
C1108 H1114 0.930 . S
N1109 Li1059 1.990 . S
N1109 C1108 1.314 . S
N1109 C1112 1.279 . S
C1110 C1108 1.353 . S
C1110 C1113 1.348 . S
C1110 H1142 0.929 . S
C1111 C1112 1.358 . S
C1111 C1113 1.356 . S
C1111 H1143 0.930 . S
C1112 N1109 1.279 . S
C1112 C1111 1.358 . S
C1112 H1115 0.930 . S
C1113 C1110 1.348 . S
C1113 C1111 1.356 . S
H1114 C1108 0.930 . S
H1115 C1112 0.930 . S
O1116 Li1056 1.956 . S
O1116 Li1057 1.970 . S
O1116 Li1058 1.961 . S
O1116 C1060 1.325 . S
O1117 Li1056 1.970 . S
O1117 Li1057 1.956 . S
O1117 Li1059 1.961 1_554 S
O1117 C1066 1.325 . S
O1118 Li1056 1.961 1_556 S
O1118 Li1058 1.956 1_556 S
O1118 Li1059 1.970 . S
O1118 C1088 1.325 . S
O1119 Li1057 1.961 . S
O1119 Li1058 1.970 . S
O1119 Li1059 1.956 1_554 S
O1119 C1094 1.325 . S
H1120 C1062 0.929 . S
H1121 C1063 0.930 . S
H1122 C1064 0.930 . S
H1123 C1065 0.930 . S
H1124 C1067 0.930 . S
H1125 C1069 0.929 . S
H1126 C1070 0.930 1_556 S
H1127 C1071 0.930 . S
H1128 C1074 0.930 . S
H1129 C1077 0.929 1_556 S
H1130 C1082 0.929 . S
H1131 C1083 0.930 . S
H1132 C1090 0.929 . S
H1133 C1091 0.930 . S
H1134 C1092 0.930 . S
H1135 C1093 0.930 . S
H1136 C1095 0.929 . S
H1137 C1096 0.930 . S
H1138 C1097 0.930 . S
H1139 C1098 0.930 . S
H1140 C1102 0.929 . S
H1141 C1104 0.930 . S
H1142 C1110 0.929 . S
H1143 C1111 0.930 . S
Li1144 N1161 1.990 . S
Li1144 O1204 1.956 . S
Li1144 O1205 1.970 . S
Li1144 O1206 1.961 . S
Li1145 N1169 1.990 . S
Li1145 O1204 1.970 . S
Li1145 O1205 1.956 . S
Li1145 O1207 1.961 1_554 S
Li1146 N1191 1.990 1_554 S
Li1146 O1204 1.961 . S
Li1146 O1206 1.956 . S
Li1146 O1207 1.970 1_554 S
Li1147 N1197 1.990 . S
Li1147 O1205 1.961 . S
Li1147 O1206 1.970 . S
Li1147 O1207 1.956 1_554 S
C1148 C1150 1.348 . S
C1148 C1151 1.356 . S
C1148 O1204 1.325 . S
N1149 C1152 1.314 . S
N1149 C1153 1.279 . S
C1150 C1148 1.348 . S
C1150 C1152 1.353 . S
C1150 H1208 0.929 . S
C1151 C1148 1.356 . S
C1151 C1153 1.358 . S
C1151 H1209 0.930 . S
C1152 N1149 1.314 . S
C1152 C1150 1.353 . S
C1152 H1210 0.930 . S
C1153 N1149 1.279 . S
C1153 C1151 1.358 . S
C1153 H1211 0.930 . S
C1154 C1157 1.348 . S
C1154 C1158 1.356 . S
C1154 O1205 1.325 . S
C1155 N1156 1.279 . S
C1155 C1158 1.358 . S
C1155 H1212 0.930 . S
N1156 C1155 1.279 . S
N1156 C1159 1.314 . S
C1157 C1154 1.348 . S
C1157 C1159 1.353 . S
C1157 H1213 0.929 . S
C1158 C1154 1.356 . S
C1158 C1155 1.358 . S
C1158 H1214 0.930 . S
C1159 N1156 1.314 . S
C1159 C1157 1.353 . S
C1159 H1215 0.930 . S
C1160 N1161 1.314 . S
C1160 C1165 1.353 . S
C1160 H1166 0.930 . S
N1161 Li1144 1.990 . S
N1161 C1160 1.314 . S
N1161 C1163 1.279 . S
C1162 C1163 1.358 . S
C1162 C1164 1.356 . S
C1162 H1216 0.930 . S
C1163 N1161 1.279 . S
C1163 C1162 1.358 . S
C1163 H1167 0.930 . S
C1164 C1162 1.356 . S
C1164 C1165 1.348 . S
C1165 C1160 1.353 . S
C1165 C1164 1.348 . S
C1165 H1217 0.929 . S
H1166 C1160 0.930 . S
H1167 C1163 0.930 . S
C1168 N1169 1.314 . S
C1168 C1170 1.355 . S
C1168 H1174 0.930 1_554 S
N1169 Li1145 1.990 . S
N1169 C1168 1.314 . S
N1169 C1172 1.279 . S
C1170 C1168 1.355 . S
C1170 C1173 1.369 . S
C1170 H1218 0.906 1_554 S
C1171 C1172 1.358 . S
C1171 C1173 1.356 . S
C1171 H1219 0.930 . S
C1172 N1169 1.279 . S
C1172 C1171 1.358 . S
C1172 H1175 0.930 . S
C1173 C1170 1.369 . S
C1173 C1171 1.356 . S
H1174 C1168 0.930 1_556 S
H1175 C1172 0.930 . S
C1176 C1178 1.348 . S
C1176 C1179 1.356 . S
C1176 O1206 1.325 . S
N1177 C1180 1.314 . S
N1177 C1181 1.279 . S
C1178 C1176 1.348 . S
C1178 C1180 1.353 . S
C1178 H1220 0.929 . S
C1179 C1176 1.356 . S
C1179 C1181 1.358 . S
C1179 H1221 0.930 . S
C1180 N1177 1.314 . S
C1180 C1178 1.353 . S
C1180 H1222 0.930 . S
C1181 N1177 1.279 . S
C1181 C1179 1.358 . S
C1181 H1223 0.930 . S
C1182 C1183 1.348 . S
C1182 C1184 1.356 . S
C1182 O1207 1.325 . S
C1183 C1182 1.348 . S
C1183 C1185 1.353 . S
C1183 H1224 0.929 . S
C1184 C1182 1.356 . S
C1184 C1186 1.358 . S
C1184 H1225 0.930 . S
C1185 C1183 1.353 . S
C1185 N1187 1.314 . S
C1185 H1226 0.930 . S
C1186 C1184 1.358 . S
C1186 N1187 1.279 . S
C1186 H1227 0.930 . S
N1187 C1185 1.314 . S
N1187 C1186 1.279 . S
C1188 C1190 1.353 . S
C1188 N1191 1.314 . S
C1188 H1194 0.930 . S
C1189 N1191 1.279 . S
C1189 C1192 1.358 . S
C1189 H1195 0.930 . S
C1190 C1188 1.353 . S
C1190 C1193 1.348 . S
C1190 H1228 0.929 . S
N1191 Li1146 1.990 1_556 S
N1191 C1188 1.314 . S
N1191 C1189 1.279 . S
C1192 C1189 1.358 . S
C1192 C1193 1.356 . S
C1192 H1229 0.930 . S
C1193 C1190 1.348 . S
C1193 C1192 1.356 . S
H1194 C1188 0.930 . S
H1195 C1189 0.930 . S
C1196 N1197 1.314 . S
C1196 C1198 1.353 . S
C1196 H1202 0.930 . S
N1197 Li1147 1.990 . S
N1197 C1196 1.314 . S
N1197 C1200 1.279 1_554 S
C1198 C1196 1.353 . S
C1198 C1201 1.348 . S
C1198 H1230 0.929 . S
C1199 C1200 1.358 . S
C1199 C1201 1.356 1_556 S
C1199 H1231 0.930 . S
C1200 N1197 1.279 1_556 S
C1200 C1199 1.358 . S
C1200 H1203 0.930 . S
C1201 C1198 1.348 . S
C1201 C1199 1.356 1_554 S
H1202 C1196 0.930 . S
H1203 C1200 0.930 . S
O1204 Li1144 1.956 . S
O1204 Li1145 1.970 . S
O1204 Li1146 1.961 . S
O1204 C1148 1.325 . S
O1205 Li1144 1.970 . S
O1205 Li1145 1.956 . S
O1205 Li1147 1.961 . S
O1205 C1154 1.325 . S
O1206 Li1144 1.961 . S
O1206 Li1146 1.956 . S
O1206 Li1147 1.970 . S
O1206 C1176 1.325 . S
O1207 Li1145 1.961 1_556 S
O1207 Li1146 1.970 1_556 S
O1207 Li1147 1.956 1_556 S
O1207 C1182 1.325 . S
H1208 C1150 0.929 . S
H1209 C1151 0.930 . S
H1210 C1152 0.930 . S
H1211 C1153 0.930 . S
H1212 C1155 0.930 . S
H1213 C1157 0.929 . S
H1214 C1158 0.930 . S
H1215 C1159 0.930 . S
H1216 C1162 0.930 . S
H1217 C1165 0.929 . S
H1218 C1170 0.906 1_556 S
H1219 C1171 0.930 . S
H1220 C1178 0.929 . S
H1221 C1179 0.930 . S
H1222 C1180 0.930 . S
H1223 C1181 0.930 . S
H1224 C1183 0.929 . S
H1225 C1184 0.930 . S
H1226 C1185 0.930 . S
H1227 C1186 0.930 . S
H1228 C1190 0.929 . S
H1229 C1192 0.930 . S
H1230 C1198 0.929 . S
H1231 C1199 0.930 . S
Li1232 N1249 1.990 . S
Li1232 O1292 1.956 . S
Li1232 O1293 1.970 . S
Li1232 O1294 1.961 . S
Li1233 N1257 1.990 . S
Li1233 O1292 1.970 . S
Li1233 O1293 1.956 . S
Li1233 O1295 1.961 . S
Li1234 N1279 1.990 . S
Li1234 O1292 1.961 . S
Li1234 O1294 1.956 . S
Li1234 O1295 1.970 . S
Li1235 N1285 1.990 . S
Li1235 O1293 1.961 . S
Li1235 O1294 1.970 . S
Li1235 O1295 1.956 . S
C1236 C1238 1.348 . S
C1236 C1239 1.356 . S
C1236 O1292 1.325 . S
N1237 C1240 1.314 . S
N1237 C1241 1.279 . S
C1238 C1236 1.348 . S
C1238 C1240 1.353 . S
C1238 H1296 0.929 . S
C1239 C1236 1.356 . S
C1239 C1241 1.358 . S
C1239 H1297 0.930 . S
C1240 N1237 1.314 . S
C1240 C1238 1.353 . S
C1240 H1298 0.930 . S
C1241 N1237 1.279 . S
C1241 C1239 1.358 . S
C1241 H1299 0.930 . S
C1242 C1245 1.348 . S
C1242 C1246 1.356 . S
C1242 O1293 1.325 . S
C1243 N1244 1.279 . S
C1243 C1246 1.358 . S
C1243 H1300 0.930 . S
N1244 C1243 1.279 . S
N1244 C1247 1.314 . S
C1245 C1242 1.348 . S
C1245 C1247 1.353 . S
C1245 H1301 0.929 . S
C1246 C1242 1.356 . S
C1246 C1243 1.358 . S
C1246 H1302 0.930 . S
C1247 N1244 1.314 . S
C1247 C1245 1.353 . S
C1247 H1303 0.930 . S
C1248 N1249 1.314 . S
C1248 C1253 1.353 . S
C1248 H1254 0.930 . S
N1249 Li1232 1.990 . S
N1249 C1248 1.314 . S
N1249 C1251 1.279 . S
C1250 C1251 1.358 . S
C1250 C1252 1.356 . S
C1250 H1304 0.930 . S
C1251 N1249 1.279 . S
C1251 C1250 1.358 . S
C1251 H1255 0.930 . S
C1252 C1250 1.356 . S
C1252 C1253 1.348 . S
C1253 C1248 1.353 . S
C1253 C1252 1.348 . S
C1253 H1305 0.929 . S
H1254 C1248 0.930 . S
H1255 C1251 0.930 . S
C1256 N1257 1.314 . S
C1256 C1258 1.353 . S
C1256 H1262 0.930 . S
N1257 Li1233 1.990 . S
N1257 C1256 1.314 . S
N1257 C1260 1.279 . S
C1258 C1256 1.353 . S
C1258 C1261 1.348 . S
C1258 H1306 0.929 . S
C1259 C1260 1.358 . S
C1259 C1261 1.356 . S
C1259 H1307 0.930 . S
C1260 N1257 1.279 . S
C1260 C1259 1.358 . S
C1260 H1263 0.930 . S
C1261 C1258 1.348 . S
C1261 C1259 1.356 . S
H1262 C1256 0.930 . S
H1263 C1260 0.930 . S
C1264 C1266 1.348 . S
C1264 C1267 1.356 . S
C1264 O1294 1.325 . S
N1265 C1268 1.314 . S
N1265 C1269 1.279 . S
C1266 C1264 1.348 . S
C1266 C1268 1.353 . S
C1266 H1308 0.929 . S
C1267 C1264 1.356 . S
C1267 C1269 1.358 . S
C1267 H1309 0.930 . S
C1268 N1265 1.314 . S
C1268 C1266 1.353 . S
C1268 H1310 0.930 . S
C1269 N1265 1.279 . S
C1269 C1267 1.358 . S
C1269 H1311 0.930 . S
C1270 C1271 1.348 . S
C1270 C1272 1.356 . S
C1270 O1295 1.325 . S
C1271 C1270 1.348 . S
C1271 C1273 1.353 . S
C1271 H1312 0.929 . S
C1272 C1270 1.356 . S
C1272 C1274 1.358 . S
C1272 H1313 0.930 . S
C1273 C1271 1.353 . S
C1273 N1275 1.314 . S
C1273 H1314 0.930 . S
C1274 C1272 1.358 . S
C1274 N1275 1.279 . S
C1274 H1315 0.930 . S
N1275 C1273 1.314 . S
N1275 C1274 1.279 . S
C1276 C1278 1.353 . S
C1276 N1279 1.314 . S
C1276 H1282 0.930 . S
C1277 N1279 1.279 . S
C1277 C1280 1.358 . S
C1277 H1283 0.930 . S
C1278 C1276 1.353 . S
C1278 C1281 1.348 . S
C1278 H1316 0.929 . S
N1279 Li1234 1.990 . S
N1279 C1276 1.314 . S
N1279 C1277 1.279 . S
C1280 C1277 1.358 . S
C1280 C1281 1.356 . S
C1280 H1317 0.930 . S
C1281 C1278 1.348 . S
C1281 C1280 1.356 . S
H1282 C1276 0.930 . S
H1283 C1277 0.930 . S
C1284 N1285 1.314 . S
C1284 C1286 1.353 . S
C1284 H1290 0.930 . S
N1285 Li1235 1.990 . S
N1285 C1284 1.314 . S
N1285 C1288 1.279 . S
C1286 C1284 1.353 . S
C1286 C1289 1.348 . S
C1286 H1318 0.929 . S
C1287 C1288 1.358 . S
C1287 C1289 1.356 . S
C1287 H1319 0.930 . S
C1288 N1285 1.279 . S
C1288 C1287 1.358 . S
C1288 H1291 0.930 . S
C1289 C1286 1.348 . S
C1289 C1287 1.356 . S
H1290 C1284 0.930 . S
H1291 C1288 0.930 . S
O1292 Li1232 1.956 . S
O1292 Li1233 1.970 . S
O1292 Li1234 1.961 . S
O1292 C1236 1.325 . S
O1293 Li1232 1.970 . S
O1293 Li1233 1.956 . S
O1293 Li1235 1.961 . S
O1293 C1242 1.325 . S
O1294 Li1232 1.961 . S
O1294 Li1234 1.956 . S
O1294 Li1235 1.970 . S
O1294 C1264 1.325 . S
O1295 Li1233 1.961 . S
O1295 Li1234 1.970 . S
O1295 Li1235 1.956 . S
O1295 C1270 1.325 . S
H1296 C1238 0.929 . S
H1297 C1239 0.930 . S
H1298 C1240 0.930 . S
H1299 C1241 0.930 . S
H1300 C1243 0.930 . S
H1301 C1245 0.929 . S
H1302 C1246 0.930 . S
H1303 C1247 0.930 . S
H1304 C1250 0.930 . S
H1305 C1253 0.929 . S
H1306 C1258 0.929 . S
H1307 C1259 0.930 . S
H1308 C1266 0.929 . S
H1309 C1267 0.930 . S
H1310 C1268 0.930 . S
H1311 C1269 0.930 . S
H1312 C1271 0.929 . S
H1313 C1272 0.930 . S
H1314 C1273 0.930 . S
H1315 C1274 0.930 . S
H1316 C1278 0.929 . S
H1317 C1280 0.930 . S
H1318 C1286 0.929 . S
H1319 C1287 0.930 . S
Li1320 N1337 1.990 . S
Li1320 O1380 1.956 . S
Li1320 O1381 1.970 . S
Li1320 O1382 1.961 . S
Li1321 N1345 1.990 . S
Li1321 O1380 1.970 . S
Li1321 O1381 1.956 . S
Li1321 O1383 1.961 . S
Li1322 N1367 1.990 . S
Li1322 O1380 1.961 . S
Li1322 O1382 1.956 . S
Li1322 O1383 1.970 . S
Li1323 N1373 1.990 . S
Li1323 O1381 1.961 . S
Li1323 O1382 1.970 . S
Li1323 O1383 1.956 . S
C1324 C1326 1.348 . S
C1324 C1327 1.356 . S
C1324 O1380 1.325 . S
N1325 C1328 1.314 . S
N1325 C1329 1.279 . S
C1326 C1324 1.348 . S
C1326 C1328 1.353 . S
C1326 H1384 0.929 . S
C1327 C1324 1.356 . S
C1327 C1329 1.358 . S
C1327 H1385 0.930 . S
C1328 N1325 1.314 . S
C1328 C1326 1.353 . S
C1328 H1386 0.930 . S
C1329 N1325 1.279 . S
C1329 C1327 1.358 . S
C1329 H1387 0.930 1_565 S
C1330 C1333 1.348 . S
C1330 C1334 1.356 . S
C1330 O1381 1.325 . S
C1331 N1332 1.279 . S
C1331 C1334 1.358 . S
C1331 H1388 0.930 . S
N1332 C1331 1.279 . S
N1332 C1335 1.314 . S
C1333 C1330 1.348 . S
C1333 C1335 1.353 . S
C1333 H1389 0.929 . S
C1334 C1330 1.356 . S
C1334 C1331 1.358 . S
C1334 H1390 0.930 . S
C1335 N1332 1.314 . S
C1335 C1333 1.353 . S
C1335 H1391 0.930 . S
C1336 N1337 1.314 . S
C1336 C1341 1.353 . S
C1336 H1342 0.930 . S
N1337 Li1320 1.990 . S
N1337 C1336 1.314 . S
N1337 C1339 1.279 . S
C1338 C1339 1.358 . S
C1338 C1340 1.356 . S
C1338 H1392 0.930 . S
C1339 N1337 1.279 . S
C1339 C1338 1.358 . S
C1339 H1343 0.930 . S
C1340 C1338 1.356 . S
C1340 C1341 1.348 . S
C1341 C1336 1.353 . S
C1341 C1340 1.348 . S
C1341 H1393 0.929 . S
H1342 C1336 0.930 . S
H1343 C1339 0.930 . S
C1344 N1345 1.314 . S
C1344 C1346 1.353 . S
C1344 H1350 0.930 . S
N1345 Li1321 1.990 . S
N1345 C1344 1.314 . S
N1345 C1348 1.279 . S
C1346 C1344 1.353 . S
C1346 C1349 1.348 . S
C1346 H1394 0.929 . S
C1347 C1348 1.358 . S
C1347 C1349 1.356 . S
C1347 H1395 0.930 . S
C1348 N1345 1.279 . S
C1348 C1347 1.358 . S
C1348 H1351 0.930 . S
C1349 C1346 1.348 . S
C1349 C1347 1.356 . S
H1350 C1344 0.930 . S
H1351 C1348 0.930 . S
C1352 C1354 1.348 . S
C1352 C1355 1.356 . S
C1352 O1382 1.325 . S
N1353 C1356 1.314 . S
N1353 C1357 1.279 . S
C1354 C1352 1.348 . S
C1354 C1356 1.353 . S
C1354 H1396 0.929 . S
C1355 C1352 1.356 . S
C1355 C1357 1.358 . S
C1355 H1397 0.930 . S
C1356 N1353 1.314 . S
C1356 C1354 1.353 . S
C1356 H1398 0.930 . S
C1357 N1353 1.279 . S
C1357 C1355 1.358 . S
C1357 H1399 0.964 . S
C1358 C1359 1.348 . S
C1358 C1360 1.356 . S
C1358 O1383 1.325 . S
C1359 C1358 1.348 . S
C1359 C1361 1.353 . S
C1359 H1400 0.929 . S
C1360 C1358 1.356 . S
C1360 C1362 1.358 . S
C1360 H1401 0.930 . S
C1361 C1359 1.353 . S
C1361 N1363 1.314 . S
C1361 H1402 0.930 . S
C1362 C1360 1.358 . S
C1362 N1363 1.279 . S
C1362 H1403 0.930 . S
N1363 C1361 1.314 . S
N1363 C1362 1.279 . S
C1364 C1366 1.353 . S
C1364 N1367 1.314 . S
C1364 H1370 0.930 . S
C1365 N1367 1.279 . S
C1365 C1368 1.358 . S
C1365 H1371 0.930 . S
C1366 C1364 1.353 . S
C1366 C1369 1.348 . S
C1366 H1404 0.929 . S
N1367 Li1322 1.990 . S
N1367 C1364 1.314 . S
N1367 C1365 1.279 . S
C1368 C1365 1.358 . S
C1368 C1369 1.356 . S
C1368 H1405 0.930 . S
C1369 C1366 1.348 . S
C1369 C1368 1.356 . S
H1370 C1364 0.930 . S
H1371 C1365 0.930 . S
C1372 N1373 1.314 . S
C1372 C1374 1.353 . S
C1372 H1378 0.930 . S
N1373 Li1323 1.990 . S
N1373 C1372 1.314 . S
N1373 C1376 1.279 . S
C1374 C1372 1.353 . S
C1374 C1377 1.348 . S
C1374 H1406 0.929 . S
C1375 C1376 1.358 . S
C1375 C1377 1.356 . S
C1375 H1407 0.930 . S
C1376 N1373 1.279 . S
C1376 C1375 1.358 . S
C1376 H1379 0.930 . S
C1377 C1374 1.348 . S
C1377 C1375 1.356 . S
H1378 C1372 0.930 . S
H1379 C1376 0.930 . S
O1380 Li1320 1.956 . S
O1380 Li1321 1.970 . S
O1380 Li1322 1.961 . S
O1380 C1324 1.325 . S
O1381 Li1320 1.970 . S
O1381 Li1321 1.956 . S
O1381 Li1323 1.961 . S
O1381 C1330 1.325 . S
O1382 Li1320 1.961 . S
O1382 Li1322 1.956 . S
O1382 Li1323 1.970 . S
O1382 C1352 1.325 . S
O1383 Li1321 1.961 . S
O1383 Li1322 1.970 . S
O1383 Li1323 1.956 . S
O1383 C1358 1.325 . S
H1384 C1326 0.929 . S
H1385 C1327 0.930 . S
H1386 C1328 0.930 . S
H1387 C1329 0.930 1_545 S
H1388 C1331 0.930 . S
H1389 C1333 0.929 . S
H1390 C1334 0.930 . S
H1391 C1335 0.930 . S
H1392 C1338 0.930 . S
H1393 C1341 0.929 . S
H1394 C1346 0.929 . S
H1395 C1347 0.930 . S
H1396 C1354 0.929 . S
H1397 C1355 0.930 . S
H1398 C1356 0.930 . S
H1399 C1357 0.964 . S
H1400 C1359 0.929 . S
H1401 C1360 0.930 . S
H1402 C1361 0.930 . S
H1403 C1362 0.930 . S
H1404 C1366 0.929 . S
H1405 C1368 0.930 . S
H1406 C1374 0.929 . S
H1407 C1375 0.930 . S
Li1408 N1425 1.990 1_655 S
Li1408 O1468 1.956 . S
Li1408 O1469 1.970 . S
Li1408 O1470 1.961 . S
Li1409 N1433 1.990 1_545 S
Li1409 O1468 1.970 . S
Li1409 O1469 1.956 . S
Li1409 O1471 1.961 . S
Li1410 N1455 1.990 1_655 S
Li1410 O1468 1.961 . S
Li1410 O1470 1.956 . S
Li1410 O1471 1.970 . S
Li1411 N1461 1.990 . S
Li1411 O1469 1.961 . S
Li1411 O1470 1.970 . S
Li1411 O1471 1.956 . S
C1412 C1414 1.348 1_545 S
C1412 C1415 1.356 1_655 S
C1412 O1468 1.325 . S
N1413 C1416 1.314 . S
N1413 C1417 1.279 1_565 S
C1414 C1412 1.348 1_565 S
C1414 C1416 1.353 1_655 S
C1414 H1472 0.929 . S
C1415 C1412 1.356 1_455 S
C1415 C1417 1.358 . S
C1415 H1473 0.930 . S
C1416 N1413 1.314 . S
C1416 C1414 1.353 1_455 S
C1416 H1474 0.930 1_455 S
C1417 N1413 1.279 1_545 S
C1417 C1415 1.358 . S
C1417 H1475 0.930 . S
C1418 C1421 1.348 . S
C1418 C1422 1.356 . S
C1418 O1469 1.325 . S
C1419 N1420 1.279 . S
C1419 C1422 1.358 . S
C1419 H1476 0.930 . S
N1420 C1419 1.279 . S
N1420 C1423 1.314 . S
C1421 C1418 1.348 . S
C1421 C1423 1.353 . S
C1421 H1477 0.929 . S
C1422 C1418 1.356 . S
C1422 C1419 1.358 . S
C1422 H1478 0.930 . S
C1423 N1420 1.314 . S
C1423 C1421 1.353 . S
C1423 H1479 0.930 . S
C1424 N1425 1.314 . S
C1424 C1429 1.353 . S
C1424 H1430 0.930 . S
N1425 Li1408 1.990 1_455 S
N1425 C1424 1.314 . S
N1425 C1427 1.279 . S
C1426 C1427 1.358 . S
C1426 C1428 1.356 . S
C1426 H1480 0.930 . S
C1427 N1425 1.279 . S
C1427 C1426 1.358 . S
C1427 H1431 0.930 . S
C1428 C1426 1.356 . S
C1428 C1429 1.348 . S
C1429 C1424 1.353 . S
C1429 C1428 1.348 . S
C1429 H1481 0.929 . S
H1430 C1424 0.930 . S
H1431 C1427 0.930 . S
C1432 N1433 1.314 . S
C1432 C1434 1.353 . S
C1432 H1438 0.930 . S
N1433 Li1409 1.990 1_565 S
N1433 C1432 1.314 . S
N1433 C1436 1.279 . S
C1434 C1432 1.353 . S
C1434 C1437 1.348 . S
C1434 H1482 0.929 . S
C1435 C1436 1.358 . S
C1435 C1437 1.356 . S
C1435 H1483 0.930 . S
C1436 N1433 1.279 . S
C1436 C1435 1.358 . S
C1436 H1439 0.935 . S
C1437 C1434 1.348 . S
C1437 C1435 1.356 . S
H1438 C1432 0.930 . S
H1439 C1436 0.935 . S
C1440 C1442 1.348 . S
C1440 C1443 1.356 . S
C1440 O1470 1.325 1_455 S
N1441 C1444 1.314 . S
N1441 C1445 1.279 . S
C1442 C1440 1.348 . S
C1442 C1444 1.353 . S
C1442 H1484 0.929 1_455 S
C1443 C1440 1.356 . S
C1443 C1445 1.358 . S
C1443 H1485 0.930 . S
C1444 N1441 1.314 . S
C1444 C1442 1.353 . S
C1444 H1486 0.930 . S
C1445 N1441 1.279 . S
C1445 C1443 1.358 . S
C1445 H1487 0.930 . S
C1446 C1447 1.348 . S
C1446 C1448 1.356 . S
C1446 O1471 1.325 . S
C1447 C1446 1.348 . S
C1447 C1449 1.353 . S
C1447 H1488 0.929 . S
C1448 C1446 1.356 . S
C1448 C1450 1.358 . S
C1448 H1489 0.930 . S
C1449 C1447 1.353 . S
C1449 N1451 1.314 . S
C1449 H1490 0.930 . S
C1450 C1448 1.358 . S
C1450 N1451 1.279 . S
C1450 H1491 0.930 . S
N1451 C1449 1.314 . S
N1451 C1450 1.279 . S
C1452 C1454 1.353 . S
C1452 N1455 1.314 . S
C1452 H1458 0.930 1_455 S
C1453 N1455 1.279 . S
C1453 C1456 1.358 . S
C1453 H1459 0.930 . S
C1454 C1452 1.353 . S
C1454 C1457 1.348 . S
C1454 H1492 0.929 . S
N1455 Li1410 1.990 1_455 S
N1455 C1452 1.314 . S
N1455 C1453 1.279 . S
C1456 C1453 1.358 . S
C1456 C1457 1.356 . S
C1456 H1493 0.930 . S
C1457 C1454 1.348 . S
C1457 C1456 1.356 . S
H1458 C1452 0.930 1_655 S
H1459 C1453 0.930 . S
C1460 N1461 1.314 . S
C1460 C1462 1.353 . S
C1460 H1466 0.930 . S
N1461 Li1411 1.990 . S
N1461 C1460 1.314 . S
N1461 C1464 1.279 . S
C1462 C1460 1.353 . S
C1462 C1465 1.348 . S
C1462 H1494 0.929 . S
C1463 C1464 1.358 . S
C1463 C1465 1.356 . S
C1463 H1495 0.930 . S
C1464 N1461 1.279 . S
C1464 C1463 1.358 . S
C1464 H1467 0.930 . S
C1465 C1462 1.348 . S
C1465 C1463 1.356 . S
H1466 C1460 0.930 . S
H1467 C1464 0.930 . S
O1468 Li1408 1.956 . S
O1468 Li1409 1.970 . S
O1468 Li1410 1.961 . S
O1468 C1412 1.325 . S
O1469 Li1408 1.970 . S
O1469 Li1409 1.956 . S
O1469 Li1411 1.961 . S
O1469 C1418 1.325 . S
O1470 Li1408 1.961 . S
O1470 Li1410 1.956 . S
O1470 Li1411 1.970 . S
O1470 C1440 1.325 1_655 S
O1471 Li1409 1.961 . S
O1471 Li1410 1.970 . S
O1471 Li1411 1.956 . S
O1471 C1446 1.325 . S
H1472 C1414 0.929 . S
H1473 C1415 0.930 . S
H1474 C1416 0.930 1_655 S
H1475 C1417 0.930 . S
H1476 C1419 0.930 . S
H1477 C1421 0.929 . S
H1478 C1422 0.930 . S
H1479 C1423 0.930 . S
H1480 C1426 0.930 . S
H1481 C1429 0.929 . S
H1482 C1434 0.929 . S
H1483 C1435 0.930 . S
H1484 C1442 0.929 1_655 S
H1485 C1443 0.930 . S
H1486 C1444 0.930 . S
H1487 C1445 0.930 . S
H1488 C1447 0.929 . S
H1489 C1448 0.930 . S
H1490 C1449 0.930 . S
H1491 C1450 0.930 . S
H1492 C1454 0.929 . S
H1493 C1456 0.930 . S
H1494 C1462 0.929 . S
H1495 C1463 0.930 . S
Li1496 N1513 1.990 . S
Li1496 O1556 1.956 . S
Li1496 O1557 1.970 . S
Li1496 O1558 1.961 . S
Li1497 N1521 1.990 . S
Li1497 O1556 1.970 . S
Li1497 O1557 1.956 . S
Li1497 O1559 1.961 . S
Li1498 N1543 1.990 . S
Li1498 O1556 1.961 . S
Li1498 O1558 1.956 . S
Li1498 O1559 1.970 . S
Li1499 N1549 1.990 . S
Li1499 O1557 1.961 . S
Li1499 O1558 1.970 . S
Li1499 O1559 1.956 . S
C1500 C1502 1.348 . S
C1500 C1503 1.356 . S
C1500 O1556 1.325 . S
N1501 C1504 1.314 . S
N1501 C1505 1.279 . S
C1502 C1500 1.348 . S
C1502 C1504 1.353 . S
C1502 H1560 0.929 . S
C1503 C1500 1.356 . S
C1503 C1505 1.358 . S
C1503 H1561 0.930 . S
C1504 N1501 1.314 . S
C1504 C1502 1.353 . S
C1504 H1562 0.930 . S
C1505 N1501 1.279 . S
C1505 C1503 1.358 . S
C1505 H1563 0.930 . S
C1506 C1509 1.348 . S
C1506 C1510 1.356 . S
C1506 O1557 1.325 . S
C1507 N1508 1.279 . S
C1507 C1510 1.358 . S
C1507 H1564 0.930 . S
N1508 C1507 1.279 . S
N1508 C1511 1.314 . S
C1509 C1506 1.348 . S
C1509 C1511 1.353 . S
C1509 H1565 0.929 . S
C1510 C1506 1.356 . S
C1510 C1507 1.358 . S
C1510 H1566 0.930 . S
C1511 N1508 1.314 . S
C1511 C1509 1.353 . S
C1511 H1567 0.930 . S
C1512 N1513 1.314 . S
C1512 C1517 1.353 . S
C1512 H1518 0.930 . S
N1513 Li1496 1.990 . S
N1513 C1512 1.314 . S
N1513 C1515 1.279 . S
C1514 C1515 1.358 . S
C1514 C1516 1.356 . S
C1514 H1568 0.930 . S
C1515 N1513 1.279 . S
C1515 C1514 1.358 . S
C1515 H1519 0.930 . S
C1516 C1514 1.356 . S
C1516 C1517 1.348 . S
C1517 C1512 1.353 . S
C1517 C1516 1.348 . S
C1517 H1569 0.929 . S
H1518 C1512 0.930 . S
H1519 C1515 0.930 . S
C1520 N1521 1.314 . S
C1520 C1522 1.353 . S
C1520 H1526 0.930 . S
N1521 Li1497 1.990 . S
N1521 C1520 1.314 . S
N1521 C1524 1.279 . S
C1522 C1520 1.353 . S
C1522 C1525 1.348 . S
C1522 H1570 0.929 . S
C1523 C1524 1.358 . S
C1523 C1525 1.356 . S
C1523 H1571 0.930 . S
C1524 N1521 1.279 . S
C1524 C1523 1.358 . S
C1524 H1527 0.930 . S
C1525 C1522 1.348 . S
C1525 C1523 1.356 . S
H1526 C1520 0.930 . S
H1527 C1524 0.930 . S
C1528 C1530 1.348 . S
C1528 C1531 1.356 . S
C1528 O1558 1.325 . S
N1529 C1532 1.314 . S
N1529 C1533 1.279 . S
C1530 C1528 1.348 . S
C1530 C1532 1.353 . S
C1530 H1572 0.929 . S
C1531 C1528 1.356 . S
C1531 C1533 1.358 . S
C1531 H1573 0.930 . S
C1532 N1529 1.314 . S
C1532 C1530 1.353 . S
C1532 H1574 0.930 . S
C1533 N1529 1.279 . S
C1533 C1531 1.358 . S
C1533 H1575 0.930 . S
C1534 C1535 1.348 . S
C1534 C1536 1.356 . S
C1534 O1559 1.325 . S
C1535 C1534 1.348 . S
C1535 C1537 1.353 . S
C1535 H1576 0.929 . S
C1536 C1534 1.356 . S
C1536 C1538 1.358 . S
C1536 H1577 0.930 . S
C1537 C1535 1.353 . S
C1537 N1539 1.314 . S
C1537 H1578 0.930 . S
C1538 C1536 1.358 . S
C1538 N1539 1.279 . S
C1538 H1579 0.930 . S
N1539 C1537 1.314 . S
N1539 C1538 1.279 . S
C1540 C1542 1.353 . S
C1540 N1543 1.314 . S
C1540 H1546 0.930 . S
C1541 N1543 1.279 . S
C1541 C1544 1.358 . S
C1541 H1547 0.930 . S
C1542 C1540 1.353 . S
C1542 C1545 1.348 . S
C1542 H1580 0.929 . S
N1543 Li1498 1.990 . S
N1543 C1540 1.314 . S
N1543 C1541 1.279 . S
C1544 C1541 1.358 . S
C1544 C1545 1.356 . S
C1544 H1581 0.930 . S
C1545 C1542 1.348 . S
C1545 C1544 1.356 . S
H1546 C1540 0.930 . S
H1547 C1541 0.930 . S
C1548 N1549 1.314 . S
C1548 C1550 1.353 . S
C1548 H1554 0.930 . S
N1549 Li1499 1.990 . S
N1549 C1548 1.314 . S
N1549 C1552 1.279 . S
C1550 C1548 1.353 . S
C1550 C1553 1.348 . S
C1550 H1582 0.929 . S
C1551 C1552 1.358 . S
C1551 C1553 1.356 . S
C1551 H1583 0.930 . S
C1552 N1549 1.279 . S
C1552 C1551 1.358 . S
C1552 H1555 0.930 . S
C1553 C1550 1.348 . S
C1553 C1551 1.356 . S
H1554 C1548 0.930 . S
H1555 C1552 0.930 . S
O1556 Li1496 1.956 . S
O1556 Li1497 1.970 . S
O1556 Li1498 1.961 . S
O1556 C1500 1.325 . S
O1557 Li1496 1.970 . S
O1557 Li1497 1.956 . S
O1557 Li1499 1.961 . S
O1557 C1506 1.325 . S
O1558 Li1496 1.961 . S
O1558 Li1498 1.956 . S
O1558 Li1499 1.970 . S
O1558 C1528 1.325 . S
O1559 Li1497 1.961 . S
O1559 Li1498 1.970 . S
O1559 Li1499 1.956 . S
O1559 C1534 1.325 . S
H1560 C1502 0.929 . S
H1561 C1503 0.930 . S
H1562 C1504 0.930 . S
H1563 C1505 0.930 . S
H1564 C1507 0.930 . S
H1565 C1509 0.929 . S
H1566 C1510 0.930 . S
H1567 C1511 0.930 . S
H1568 C1514 0.930 . S
H1569 C1517 0.929 . S
H1570 C1522 0.929 . S
H1571 C1523 0.930 . S
H1572 C1530 0.929 . S
H1573 C1531 0.930 . S
H1574 C1532 0.930 . S
H1575 C1533 0.930 . S
H1576 C1535 0.929 . S
H1577 C1536 0.930 . S
H1578 C1537 0.930 . S
H1579 C1538 0.930 . S
H1580 C1542 0.929 . S
H1581 C1544 0.930 . S
H1582 C1550 0.929 . S
H1583 C1551 0.930 . S
Li1584 N1601 1.990 . S
Li1584 O1644 1.956 . S
Li1584 O1645 1.970 . S
Li1584 O1646 1.961 . S
Li1585 N1609 1.990 . S
Li1585 O1644 1.970 . S
Li1585 O1645 1.956 . S
Li1585 O1647 1.961 . S
Li1586 N1631 1.990 . S
Li1586 O1644 1.961 . S
Li1586 O1646 1.956 . S
Li1586 O1647 1.970 . S
Li1587 N1637 1.990 . S
Li1587 O1645 1.961 . S
Li1587 O1646 1.970 . S
Li1587 O1647 1.956 . S
C1588 C1590 1.348 . S
C1588 C1591 1.356 . S
C1588 O1644 1.325 . S
N1589 C1592 1.314 . S
N1589 C1593 1.279 . S
C1590 C1588 1.348 . S
C1590 C1592 1.353 . S
C1590 H1648 0.929 . S
C1591 C1588 1.356 . S
C1591 C1593 1.358 . S
C1591 H1649 0.930 . S
C1592 N1589 1.314 . S
C1592 C1590 1.353 . S
C1592 H1650 0.930 . S
C1593 N1589 1.279 . S
C1593 C1591 1.358 . S
C1593 H1651 0.930 . S
C1594 C1597 1.348 . S
C1594 C1598 1.356 . S
C1594 O1645 1.325 . S
C1595 N1596 1.279 . S
C1595 C1598 1.358 . S
C1595 H1652 0.930 . S
N1596 C1595 1.279 . S
N1596 C1599 1.314 . S
C1597 C1594 1.348 . S
C1597 C1599 1.353 . S
C1597 H1653 0.929 . S
C1598 C1594 1.356 . S
C1598 C1595 1.358 . S
C1598 H1654 0.930 . S
C1599 N1596 1.314 . S
C1599 C1597 1.353 . S
C1599 H1655 0.930 . S
C1600 N1601 1.314 . S
C1600 C1605 1.353 . S
C1600 H1606 0.930 . S
N1601 Li1584 1.990 . S
N1601 C1600 1.314 . S
N1601 C1603 1.279 . S
C1602 C1603 1.358 . S
C1602 C1604 1.356 . S
C1602 H1656 0.930 . S
C1603 N1601 1.279 . S
C1603 C1602 1.358 . S
C1603 H1607 0.930 . S
C1604 C1602 1.356 . S
C1604 C1605 1.348 . S
C1605 C1600 1.353 . S
C1605 C1604 1.348 . S
C1605 H1657 0.929 . S
H1606 C1600 0.930 . S
H1607 C1603 0.930 . S
C1608 N1609 1.314 . S
C1608 C1610 1.353 . S
C1608 H1614 0.930 . S
N1609 Li1585 1.990 . S
N1609 C1608 1.314 . S
N1609 C1612 1.279 . S
C1610 C1608 1.353 . S
C1610 C1613 1.348 . S
C1610 H1658 0.929 . S
C1611 C1612 1.358 . S
C1611 C1613 1.356 . S
C1611 H1659 0.930 . S
C1612 N1609 1.279 . S
C1612 C1611 1.358 . S
C1612 H1615 0.930 . S
C1613 C1610 1.348 . S
C1613 C1611 1.356 . S
H1614 C1608 0.930 . S
H1615 C1612 0.930 . S
C1616 C1618 1.348 . S
C1616 C1619 1.356 . S
C1616 O1646 1.325 . S
N1617 C1620 1.314 . S
N1617 C1621 1.279 . S
C1618 C1616 1.348 . S
C1618 C1620 1.353 . S
C1618 H1660 0.929 . S
C1619 C1616 1.356 . S
C1619 C1621 1.358 . S
C1619 H1661 0.930 . S
C1620 N1617 1.314 . S
C1620 C1618 1.353 . S
C1620 H1662 0.930 . S
C1621 N1617 1.279 . S
C1621 C1619 1.358 . S
C1621 H1663 0.930 . S
C1622 C1623 1.348 . S
C1622 C1624 1.356 . S
C1622 O1647 1.325 . S
C1623 C1622 1.348 . S
C1623 C1625 1.353 . S
C1623 H1664 0.929 . S
C1624 C1622 1.356 . S
C1624 C1626 1.358 . S
C1624 H1665 0.930 . S
C1625 C1623 1.353 . S
C1625 N1627 1.314 . S
C1625 H1666 0.930 . S
C1626 C1624 1.358 . S
C1626 N1627 1.279 . S
C1626 H1667 0.930 . S
N1627 C1625 1.314 . S
N1627 C1626 1.279 . S
C1628 C1630 1.353 . S
C1628 N1631 1.314 . S
C1628 H1634 0.930 . S
C1629 N1631 1.279 . S
C1629 C1632 1.358 . S
C1629 H1635 0.930 . S
C1630 C1628 1.353 . S
C1630 C1633 1.348 . S
C1630 H1668 0.929 . S
N1631 Li1586 1.990 . S
N1631 C1628 1.314 . S
N1631 C1629 1.279 . S
C1632 C1629 1.358 . S
C1632 C1633 1.356 . S
C1632 H1669 0.930 . S
C1633 C1630 1.348 . S
C1633 C1632 1.356 . S
H1634 C1628 0.930 . S
H1635 C1629 0.930 . S
C1636 N1637 1.314 . S
C1636 C1638 1.353 . S
C1636 H1642 0.930 . S
N1637 Li1587 1.990 . S
N1637 C1636 1.314 . S
N1637 C1640 1.279 . S
C1638 C1636 1.353 . S
C1638 C1641 1.348 . S
C1638 H1670 0.929 . S
C1639 C1640 1.358 . S
C1639 C1641 1.356 . S
C1639 H1671 0.930 . S
C1640 N1637 1.279 . S
C1640 C1639 1.358 . S
C1640 H1643 0.930 . S
C1641 C1638 1.348 . S
C1641 C1639 1.356 . S
H1642 C1636 0.930 . S
H1643 C1640 0.930 . S
O1644 Li1584 1.956 . S
O1644 Li1585 1.970 . S
O1644 Li1586 1.961 . S
O1644 C1588 1.325 . S
O1645 Li1584 1.970 . S
O1645 Li1585 1.956 . S
O1645 Li1587 1.961 . S
O1645 C1594 1.325 . S
O1646 Li1584 1.961 . S
O1646 Li1586 1.956 . S
O1646 Li1587 1.970 . S
O1646 C1616 1.325 . S
O1647 Li1585 1.961 . S
O1647 Li1586 1.970 . S
O1647 Li1587 1.956 . S
O1647 C1622 1.325 . S
H1648 C1590 0.929 . S
H1649 C1591 0.930 . S
H1650 C1592 0.930 . S
H1651 C1593 0.930 . S
H1652 C1595 0.930 . S
H1653 C1597 0.929 . S
H1654 C1598 0.930 . S
H1655 C1599 0.930 . S
H1656 C1602 0.930 . S
H1657 C1605 0.929 . S
H1658 C1610 0.929 . S
H1659 C1611 0.930 . S
H1660 C1618 0.929 . S
H1661 C1619 0.930 . S
H1662 C1620 0.930 . S
H1663 C1621 0.930 . S
H1664 C1623 0.929 . S
H1665 C1624 0.930 . S
H1666 C1625 0.930 . S
H1667 C1626 0.930 . S
H1668 C1630 0.929 . S
H1669 C1632 0.930 . S
H1670 C1638 0.929 . S
H1671 C1639 0.930 . S
Li1672 N1689 1.990 . S
Li1672 O1732 1.956 . S
Li1672 O1733 1.970 . S
Li1672 O1734 1.961 . S
Li1673 N1697 1.990 . S
Li1673 O1732 1.970 . S
Li1673 O1733 1.956 . S
Li1673 O1735 1.961 . S
Li1674 N1719 1.990 . S
Li1674 O1732 1.961 . S
Li1674 O1734 1.956 . S
Li1674 O1735 1.970 . S
Li1675 N1725 1.990 . S
Li1675 O1733 1.961 . S
Li1675 O1734 1.970 . S
Li1675 O1735 1.956 . S
C1676 C1678 1.348 . S
C1676 C1679 1.356 . S
C1676 O1732 1.325 . S
N1677 C1680 1.314 . S
N1677 C1681 1.279 . S
C1678 C1676 1.348 . S
C1678 C1680 1.353 . S
C1678 H1736 0.929 . S
C1679 C1676 1.356 . S
C1679 C1681 1.358 . S
C1679 H1737 0.930 . S
C1680 N1677 1.314 . S
C1680 C1678 1.353 . S
C1680 H1738 0.930 . S
C1681 N1677 1.279 . S
C1681 C1679 1.358 . S
C1681 H1739 0.930 . S
C1682 C1685 1.348 . S
C1682 C1686 1.356 . S
C1682 O1733 1.325 . S
C1683 N1684 1.279 . S
C1683 C1686 1.358 . S
C1683 H1740 0.930 . S
N1684 C1683 1.279 . S
N1684 C1687 1.314 . S
C1685 C1682 1.348 . S
C1685 C1687 1.353 . S
C1685 H1741 0.929 . S
C1686 C1682 1.356 . S
C1686 C1683 1.358 . S
C1686 H1742 0.930 . S
C1687 N1684 1.314 . S
C1687 C1685 1.353 . S
C1687 H1743 0.930 . S
C1688 N1689 1.314 . S
C1688 C1693 1.353 . S
C1688 H1694 0.930 . S
N1689 Li1672 1.990 . S
N1689 C1688 1.314 . S
N1689 C1691 1.279 . S
C1690 C1691 1.358 . S
C1690 C1692 1.356 . S
C1690 H1744 0.930 . S
C1691 N1689 1.279 . S
C1691 C1690 1.358 . S
C1691 H1695 0.930 . S
C1692 C1690 1.356 . S
C1692 C1693 1.348 . S
C1693 C1688 1.353 . S
C1693 C1692 1.348 . S
C1693 H1745 0.929 . S
H1694 C1688 0.930 . S
H1695 C1691 0.930 . S
C1696 N1697 1.314 . S
C1696 C1698 1.353 . S
C1696 H1702 0.930 . S
N1697 Li1673 1.990 . S
N1697 C1696 1.314 . S
N1697 C1700 1.279 . S
C1698 C1696 1.353 . S
C1698 C1701 1.348 . S
C1698 H1746 0.929 . S
C1699 C1700 1.358 . S
C1699 C1701 1.356 . S
C1699 H1747 0.930 . S
C1700 N1697 1.279 . S
C1700 C1699 1.358 . S
C1700 H1703 0.930 . S
C1701 C1698 1.348 . S
C1701 C1699 1.356 . S
H1702 C1696 0.930 . S
H1703 C1700 0.930 . S
C1704 C1706 1.348 1_545 S
C1704 C1707 1.356 . S
C1704 O1734 1.325 . S
N1705 C1708 1.314 . S
N1705 C1709 1.279 . S
C1706 C1704 1.348 1_565 S
C1706 C1708 1.353 . S
C1706 H1748 0.929 . S
C1707 C1704 1.356 . S
C1707 C1709 1.358 1_545 S
C1707 H1749 0.930 . S
C1708 N1705 1.314 . S
C1708 C1706 1.353 . S
C1708 H1750 0.930 . S
C1709 N1705 1.279 . S
C1709 C1707 1.358 1_565 S
C1709 H1751 0.930 . S
C1710 C1711 1.348 . S
C1710 C1712 1.356 . S
C1710 O1735 1.325 . S
C1711 C1710 1.348 . S
C1711 C1713 1.353 . S
C1711 H1752 0.929 . S
C1712 C1710 1.356 . S
C1712 C1714 1.358 . S
C1712 H1753 0.930 . S
C1713 C1711 1.353 . S
C1713 N1715 1.314 . S
C1713 H1754 0.930 . S
C1714 C1712 1.358 . S
C1714 N1715 1.279 . S
C1714 H1755 0.930 . S
N1715 C1713 1.314 . S
N1715 C1714 1.279 . S
C1716 C1718 1.353 . S
C1716 N1719 1.314 . S
C1716 H1722 0.930 . S
C1717 N1719 1.279 . S
C1717 C1720 1.358 . S
C1717 H1723 0.930 . S
C1718 C1716 1.353 . S
C1718 C1721 1.348 . S
C1718 H1756 0.929 . S
N1719 Li1674 1.990 . S
N1719 C1716 1.314 . S
N1719 C1717 1.279 . S
C1720 C1717 1.358 . S
C1720 C1721 1.356 . S
C1720 H1757 0.930 . S
C1721 C1718 1.348 . S
C1721 C1720 1.356 . S
H1722 C1716 0.930 . S
H1723 C1717 0.930 . S
C1724 N1725 1.314 . S
C1724 C1726 1.353 1_545 S
C1724 H1730 0.930 . S
N1725 Li1675 1.990 . S
N1725 C1724 1.314 . S
N1725 C1728 1.279 . S
C1726 C1724 1.353 1_565 S
C1726 C1729 1.348 . S
C1726 H1758 0.929 . S
C1727 C1728 1.392 . S
C1727 C1729 1.331 1_545 S
C1727 H1759 0.922 1_545 S
C1728 N1725 1.279 . S
C1728 C1727 1.392 . S
C1728 H1731 0.930 . S
C1729 C1726 1.348 . S
C1729 C1727 1.331 1_565 S
H1730 C1724 0.930 . S
H1731 C1728 0.930 . S
O1732 Li1672 1.956 . S
O1732 Li1673 1.970 . S
O1732 Li1674 1.961 . S
O1732 C1676 1.325 . S
O1733 Li1672 1.970 . S
O1733 Li1673 1.956 . S
O1733 Li1675 1.961 . S
O1733 C1682 1.325 . S
O1734 Li1672 1.961 . S
O1734 Li1674 1.956 . S
O1734 Li1675 1.970 . S
O1734 C1704 1.325 . S
O1735 Li1673 1.961 . S
O1735 Li1674 1.970 . S
O1735 Li1675 1.956 . S
O1735 C1710 1.325 . S
H1736 C1678 0.929 . S
H1737 C1679 0.930 . S
H1738 C1680 0.930 . S
H1739 C1681 0.930 . S
H1740 C1683 0.930 . S
H1741 C1685 0.929 . S
H1742 C1686 0.930 . S
H1743 C1687 0.930 . S
H1744 C1690 0.930 . S
H1745 C1693 0.929 . S
H1746 C1698 0.929 . S
H1747 C1699 0.930 . S
H1748 C1706 0.929 . S
H1749 C1707 0.930 . S
H1750 C1708 0.930 . S
H1751 C1709 0.930 . S
H1752 C1711 0.929 . S
H1753 C1712 0.930 . S
H1754 C1713 0.930 . S
H1755 C1714 0.930 . S
H1756 C1718 0.929 . S
H1757 C1720 0.930 . S
H1758 C1726 0.929 . S
H1759 C1727 0.922 1_565 S
Li1760 N1777 1.990 . S
Li1760 O1820 1.956 . S
Li1760 O1821 1.970 . S
Li1760 O1822 1.961 . S
Li1761 N1785 1.990 . S
Li1761 O1820 1.970 . S
Li1761 O1821 1.956 . S
Li1761 O1823 1.961 1_554 S
Li1762 N1807 1.990 . S
Li1762 O1820 1.961 1_556 S
Li1762 O1822 1.956 1_556 S
Li1762 O1823 1.970 . S
Li1763 N1813 1.990 . S
Li1763 O1821 1.961 1_556 S
Li1763 O1822 1.970 1_556 S
Li1763 O1823 1.956 . S
C1764 C1766 1.348 . S
C1764 C1767 1.356 . S
C1764 O1820 1.325 . S
N1765 C1768 1.314 . S
N1765 C1769 1.279 . S
C1766 C1764 1.348 . S
C1766 C1768 1.353 . S
C1766 H1824 0.929 . S
C1767 C1764 1.356 . S
C1767 C1769 1.358 . S
C1767 H1825 0.930 . S
C1768 N1765 1.314 . S
C1768 C1766 1.353 . S
C1768 H1826 0.930 . S
C1769 N1765 1.279 . S
C1769 C1767 1.358 . S
C1769 H1827 0.930 . S
C1770 C1773 1.348 . S
C1770 C1774 1.356 . S
C1770 O1821 1.325 . S
C1771 N1772 1.279 . S
C1771 C1774 1.358 . S
C1771 H1828 0.930 . S
N1772 C1771 1.279 . S
N1772 C1775 1.314 . S
C1773 C1770 1.348 . S
C1773 C1775 1.353 . S
C1773 H1829 0.929 . S
C1774 C1770 1.356 . S
C1774 C1771 1.358 . S
C1774 H1830 0.930 . S
C1775 N1772 1.314 . S
C1775 C1773 1.353 . S
C1775 H1831 0.930 . S
C1776 N1777 1.314 . S
C1776 C1781 1.353 . S
C1776 H1782 0.930 . S
N1777 Li1760 1.990 . S
N1777 C1776 1.314 . S
N1777 C1779 1.279 . S
C1778 C1779 1.358 . S
C1778 C1780 1.356 . S
C1778 H1832 0.930 . S
C1779 N1777 1.279 . S
C1779 C1778 1.358 . S
C1779 H1783 0.930 . S
C1780 C1778 1.356 . S
C1780 C1781 1.348 . S
C1781 C1776 1.353 . S
C1781 C1780 1.348 . S
C1781 H1833 0.929 . S
H1782 C1776 0.930 . S
H1783 C1779 0.930 . S
C1784 N1785 1.314 1_556 S
C1784 C1786 1.353 . S
C1784 H1790 0.930 . S
N1785 Li1761 1.990 . S
N1785 C1784 1.314 1_554 S
N1785 C1788 1.279 . S
C1786 C1784 1.353 . S
C1786 C1789 1.348 1_556 S
C1786 H1834 0.929 . S
C1787 C1788 1.358 . S
C1787 C1789 1.356 . S
C1787 H1835 0.930 . S
C1788 N1785 1.279 . S
C1788 C1787 1.358 . S
C1788 H1791 0.930 . S
C1789 C1786 1.348 1_554 S
C1789 C1787 1.356 . S
H1790 C1784 0.930 . S
H1791 C1788 0.930 . S
C1792 C1794 1.348 1_554 S
C1792 C1795 1.356 . S
C1792 O1822 1.325 . S
N1793 C1796 1.314 1_554 S
N1793 C1797 1.279 . S
C1794 C1792 1.348 1_556 S
C1794 C1796 1.353 . S
C1794 H1836 0.929 . S
C1795 C1792 1.356 . S
C1795 C1797 1.358 . S
C1795 H1837 0.930 . S
C1796 N1793 1.314 1_556 S
C1796 C1794 1.353 . S
C1796 H1838 0.930 . S
C1797 N1793 1.279 . S
C1797 C1795 1.358 . S
C1797 H1839 0.930 . S
C1798 C1799 1.348 . S
C1798 C1800 1.356 . S
C1798 O1823 1.325 . S
C1799 C1798 1.348 . S
C1799 C1801 1.353 . S
C1799 H1840 0.929 . S
C1800 C1798 1.356 . S
C1800 C1802 1.358 . S
C1800 H1841 0.930 . S
C1801 C1799 1.353 . S
C1801 N1803 1.314 . S
C1801 H1842 0.930 . S
C1802 C1800 1.358 . S
C1802 N1803 1.279 . S
C1802 H1843 0.930 . S
N1803 C1801 1.314 . S
N1803 C1802 1.279 . S
C1804 C1806 1.353 . S
C1804 N1807 1.314 . S
C1804 H1810 0.930 . S
C1805 N1807 1.279 . S
C1805 C1808 1.358 . S
C1805 H1811 0.930 . S
C1806 C1804 1.353 . S
C1806 C1809 1.348 . S
C1806 H1844 0.929 . S
N1807 Li1762 1.990 . S
N1807 C1804 1.314 . S
N1807 C1805 1.279 . S
C1808 C1805 1.358 . S
C1808 C1809 1.356 . S
C1808 H1845 0.930 . S
C1809 C1806 1.348 . S
C1809 C1808 1.356 . S
H1810 C1804 0.930 . S
H1811 C1805 0.930 . S
C1812 N1813 1.314 1_554 S
C1812 C1814 1.353 . S
C1812 H1818 0.930 . S
N1813 Li1763 1.990 . S
N1813 C1812 1.314 1_556 S
N1813 C1816 1.279 . S
C1814 C1812 1.353 . S
C1814 C1817 1.348 1_554 S
C1814 H1846 0.929 . S
C1815 C1816 1.358 . S
C1815 C1817 1.356 . S
C1815 H1847 0.930 . S
C1816 N1813 1.279 . S
C1816 C1815 1.358 . S
C1816 H1819 0.930 . S
C1817 C1814 1.348 1_556 S
C1817 C1815 1.356 . S
H1818 C1812 0.930 . S
H1819 C1816 0.930 . S
O1820 Li1760 1.956 . S
O1820 Li1761 1.970 . S
O1820 Li1762 1.961 1_554 S
O1820 C1764 1.325 . S
O1821 Li1760 1.970 . S
O1821 Li1761 1.956 . S
O1821 Li1763 1.961 1_554 S
O1821 C1770 1.325 . S
O1822 Li1760 1.961 . S
O1822 Li1762 1.956 1_554 S
O1822 Li1763 1.970 1_554 S
O1822 C1792 1.325 . S
O1823 Li1761 1.961 1_556 S
O1823 Li1762 1.970 . S
O1823 Li1763 1.956 . S
O1823 C1798 1.325 . S
H1824 C1766 0.929 . S
H1825 C1767 0.930 . S
H1826 C1768 0.930 . S
H1827 C1769 0.930 . S
H1828 C1771 0.930 . S
H1829 C1773 0.929 . S
H1830 C1774 0.930 . S
H1831 C1775 0.930 . S
H1832 C1778 0.930 . S
H1833 C1781 0.929 . S
H1834 C1786 0.929 . S
H1835 C1787 0.930 . S
H1836 C1794 0.929 . S
H1837 C1795 0.930 . S
H1838 C1796 0.930 . S
H1839 C1797 0.930 . S
H1840 C1799 0.929 . S
H1841 C1800 0.930 . S
H1842 C1801 0.930 . S
H1843 C1802 0.930 . S
H1844 C1806 0.929 . S
H1845 C1808 0.930 . S
H1846 C1814 0.929 . S
H1847 C1815 0.930 . S
Li1848 N1865 1.990 . S
Li1848 O1908 1.956 . S
Li1848 O1909 1.970 . S
Li1848 O1910 1.961 . S
Li1849 N1873 1.990 1_655 S
Li1849 O1908 1.970 . S
Li1849 O1909 1.956 . S
Li1849 O1911 1.961 . S
Li1850 N1895 1.990 . S
Li1850 O1908 1.961 . S
Li1850 O1910 1.956 . S
Li1850 O1911 1.970 . S
Li1851 N1901 1.990 . S
Li1851 O1909 1.961 . S
Li1851 O1910 1.970 . S
Li1851 O1911 1.956 . S
C1852 C1854 1.348 . S
C1852 C1855 1.356 . S
C1852 O1908 1.325 . S
N1853 C1856 1.314 . S
N1853 C1857 1.279 . S
C1854 C1852 1.348 . S
C1854 C1856 1.353 . S
C1854 H1912 0.929 . S
C1855 C1852 1.356 . S
C1855 C1857 1.358 . S
C1855 H1913 0.930 . S
C1856 N1853 1.314 . S
C1856 C1854 1.353 . S
C1856 H1914 0.930 . S
C1857 N1853 1.279 . S
C1857 C1855 1.358 . S
C1857 H1915 0.930 . S
C1858 C1861 1.348 . S
C1858 C1862 1.356 1_655 S
C1858 O1909 1.325 . S
C1859 N1860 1.279 . S
C1859 C1862 1.358 . S
C1859 H1916 0.930 . S
N1860 C1859 1.279 . S
N1860 C1863 1.314 1_455 S
C1861 C1858 1.348 . S
C1861 C1863 1.353 . S
C1861 H1917 0.929 . S
C1862 C1858 1.356 1_455 S
C1862 C1859 1.358 . S
C1862 H1918 0.930 . S
C1863 N1860 1.314 1_655 S
C1863 C1861 1.353 . S
C1863 H1919 0.930 . S
C1864 N1865 1.314 . S
C1864 C1869 1.353 . S
C1864 H1870 0.930 . S
N1865 Li1848 1.990 . S
N1865 C1864 1.314 . S
N1865 C1867 1.279 . S
C1866 C1867 1.358 . S
C1866 C1868 1.356 . S
C1866 H1920 0.930 . S
C1867 N1865 1.279 . S
C1867 C1866 1.358 . S
C1867 H1871 0.930 . S
C1868 C1866 1.356 . S
C1868 C1869 1.348 . S
C1869 C1864 1.353 . S
C1869 C1868 1.348 . S
C1869 H1921 0.929 . S
H1870 C1864 0.930 . S
H1871 C1867 0.930 . S
C1872 N1873 1.314 . S
C1872 C1874 1.353 . S
C1872 H1878 0.930 . S
N1873 Li1849 1.990 1_455 S
N1873 C1872 1.314 . S
N1873 C1876 1.279 . S
C1874 C1872 1.353 . S
C1874 C1877 1.348 . S
C1874 H1922 0.929 . S
C1875 C1876 1.358 . S
C1875 C1877 1.356 . S
C1875 H1923 0.930 . S
C1876 N1873 1.279 . S
C1876 C1875 1.358 . S
C1876 H1879 0.930 . S
C1877 C1874 1.348 . S
C1877 C1875 1.356 . S
H1878 C1872 0.930 . S
H1879 C1876 0.930 . S
C1880 C1882 1.348 . S
C1880 C1883 1.356 . S
C1880 O1910 1.325 . S
N1881 C1884 1.314 . S
N1881 C1885 1.279 . S
C1882 C1880 1.348 . S
C1882 C1884 1.353 . S
C1882 H1924 0.929 . S
C1883 C1880 1.356 . S
C1883 C1885 1.358 . S
C1883 H1925 0.930 . S
C1884 N1881 1.314 . S
C1884 C1882 1.353 . S
C1884 H1926 0.930 . S
C1885 N1881 1.279 . S
C1885 C1883 1.358 . S
C1885 H1927 0.930 . S
C1886 C1887 1.348 . S
C1886 C1888 1.356 1_655 S
C1886 O1911 1.325 . S
C1887 C1886 1.348 . S
C1887 C1889 1.353 1_655 S
C1887 H1928 0.929 . S
C1888 C1886 1.356 1_455 S
C1888 C1890 1.358 . S
C1888 H1929 0.930 . S
C1889 C1887 1.353 1_455 S
C1889 N1891 1.314 . S
C1889 H1930 0.930 . S
C1890 C1888 1.358 . S
C1890 N1891 1.279 . S
C1890 H1931 0.930 . S
N1891 C1889 1.314 . S
N1891 C1890 1.279 . S
C1892 C1894 1.353 . S
C1892 N1895 1.314 . S
C1892 H1898 0.930 . S
C1893 N1895 1.279 . S
C1893 C1896 1.358 . S
C1893 H1899 0.930 . S
C1894 C1892 1.353 . S
C1894 C1897 1.348 . S
C1894 H1932 0.929 . S
N1895 Li1850 1.990 . S
N1895 C1892 1.314 . S
N1895 C1893 1.279 . S
C1896 C1893 1.358 . S
C1896 C1897 1.356 . S
C1896 H1933 0.930 . S
C1897 C1894 1.348 . S
C1897 C1896 1.356 . S
H1898 C1892 0.930 . S
H1899 C1893 0.930 . S
C1900 N1901 1.314 . S
C1900 C1902 1.353 1_655 S
C1900 H1906 0.930 . S
N1901 Li1851 1.990 . S
N1901 C1900 1.314 . S
N1901 C1904 1.279 1_655 S
C1902 C1900 1.353 1_455 S
C1902 C1905 1.348 . S
C1902 H1934 0.929 . S
C1903 C1904 1.358 . S
C1903 C1905 1.356 . S
C1903 H1935 0.930 . S
C1904 N1901 1.279 1_455 S
C1904 C1903 1.358 . S
C1904 H1907 0.930 . S
C1905 C1902 1.348 . S
C1905 C1903 1.356 . S
H1906 C1900 0.930 . S
H1907 C1904 0.930 . S
O1908 Li1848 1.956 . S
O1908 Li1849 1.970 . S
O1908 Li1850 1.961 . S
O1908 C1852 1.325 . S
O1909 Li1848 1.970 . S
O1909 Li1849 1.956 . S
O1909 Li1851 1.961 . S
O1909 C1858 1.325 . S
O1910 Li1848 1.961 . S
O1910 Li1850 1.956 . S
O1910 Li1851 1.970 . S
O1910 C1880 1.325 . S
O1911 Li1849 1.961 . S
O1911 Li1850 1.970 . S
O1911 Li1851 1.956 . S
O1911 C1886 1.325 . S
H1912 C1854 0.929 . S
H1913 C1855 0.930 . S
H1914 C1856 0.930 . S
H1915 C1857 0.930 . S
H1916 C1859 0.930 . S
H1917 C1861 0.929 . S
H1918 C1862 0.930 . S
H1919 C1863 0.930 . S
H1920 C1866 0.930 . S
H1921 C1869 0.929 . S
H1922 C1874 0.929 . S
H1923 C1875 0.930 . S
H1924 C1882 0.929 . S
H1925 C1883 0.930 . S
H1926 C1884 0.930 . S
H1927 C1885 0.930 . S
H1928 C1887 0.929 . S
H1929 C1888 0.930 . S
H1930 C1889 0.930 . S
H1931 C1890 0.930 . S
H1932 C1894 0.929 . S
H1933 C1896 0.930 . S
H1934 C1902 0.929 . S
H1935 C1903 0.930 . S
Li1936 N1953 1.990 . S
Li1936 O1996 1.956 . S
Li1936 O1997 1.970 . S
Li1936 O1998 1.961 . S
Li1937 N1961 1.990 . S
Li1937 O1996 1.970 . S
Li1937 O1997 1.956 . S
Li1937 O1999 1.961 . S
Li1938 N1983 1.990 . S
Li1938 O1996 1.961 . S
Li1938 O1998 1.956 . S
Li1938 O1999 1.970 . S
Li1939 N1989 1.990 . S
Li1939 O1997 1.961 . S
Li1939 O1998 1.970 . S
Li1939 O1999 1.956 . S
C1940 C1942 1.348 . S
C1940 C1943 1.356 . S
C1940 O1996 1.325 . S
N1941 C1944 1.314 . S
N1941 C1945 1.279 . S
C1942 C1940 1.348 . S
C1942 C1944 1.353 . S
C1942 H2000 0.929 . S
C1943 C1940 1.356 . S
C1943 C1945 1.358 . S
C1943 H2001 0.930 . S
C1944 N1941 1.314 . S
C1944 C1942 1.353 . S
C1944 H2002 0.930 . S
C1945 N1941 1.279 . S
C1945 C1943 1.358 . S
C1945 H2003 0.930 . S
C1946 C1949 1.348 . S
C1946 C1950 1.356 . S
C1946 O1997 1.325 . S
C1947 N1948 1.279 . S
C1947 C1950 1.358 . S
C1947 H2004 0.930 . S
N1948 C1947 1.279 . S
N1948 C1951 1.314 . S
C1949 C1946 1.348 . S
C1949 C1951 1.353 . S
C1949 H2005 0.929 . S
C1950 C1946 1.356 . S
C1950 C1947 1.358 . S
C1950 H2006 0.930 . S
C1951 N1948 1.314 . S
C1951 C1949 1.353 . S
C1951 H2007 0.930 . S
C1952 N1953 1.314 . S
C1952 C1957 1.353 . S
C1952 H1958 0.930 . S
N1953 Li1936 1.990 . S
N1953 C1952 1.314 . S
N1953 C1955 1.279 . S
C1954 C1955 1.358 . S
C1954 C1956 1.356 . S
C1954 H2008 0.930 . S
C1955 N1953 1.279 . S
C1955 C1954 1.358 . S
C1955 H1959 0.930 . S
C1956 C1954 1.356 . S
C1956 C1957 1.348 . S
C1957 C1952 1.353 . S
C1957 C1956 1.348 . S
C1957 H2009 0.929 . S
H1958 C1952 0.930 . S
H1959 C1955 0.930 . S
C1960 N1961 1.314 . S
C1960 C1962 1.353 . S
C1960 H1966 0.930 . S
N1961 Li1937 1.990 . S
N1961 C1960 1.314 . S
N1961 C1964 1.279 . S
C1962 C1960 1.353 . S
C1962 C1965 1.348 . S
C1962 H2010 0.929 . S
C1963 C1964 1.358 . S
C1963 C1965 1.356 . S
C1963 H2011 0.930 . S
C1964 N1961 1.279 . S
C1964 C1963 1.358 . S
C1964 H1967 0.930 . S
C1965 C1962 1.348 . S
C1965 C1963 1.356 . S
H1966 C1960 0.930 . S
H1967 C1964 0.930 . S
C1968 C1970 1.348 . S
C1968 C1971 1.356 . S
C1968 O1998 1.325 . S
N1969 C1972 1.314 . S
N1969 C1973 1.279 . S
C1970 C1968 1.348 . S
C1970 C1972 1.353 . S
C1970 H2012 0.929 . S
C1971 C1968 1.356 . S
C1971 C1973 1.358 . S
C1971 H2013 0.930 . S
C1972 N1969 1.314 . S
C1972 C1970 1.353 . S
C1972 H2014 0.930 . S
C1973 N1969 1.279 . S
C1973 C1971 1.358 . S
C1973 H2015 0.930 . S
C1974 C1975 1.348 . S
C1974 C1976 1.356 . S
C1974 O1999 1.325 . S
C1975 C1974 1.348 . S
C1975 C1977 1.353 . S
C1975 H2016 0.929 . S
C1976 C1974 1.356 . S
C1976 C1978 1.358 . S
C1976 H2017 0.930 . S
C1977 C1975 1.353 . S
C1977 N1979 1.314 . S
C1977 H2018 0.930 . S
C1978 C1976 1.358 . S
C1978 N1979 1.279 . S
C1978 H2019 0.930 . S
N1979 C1977 1.314 . S
N1979 C1978 1.279 . S
C1980 C1982 1.353 . S
C1980 N1983 1.314 . S
C1980 H1986 0.930 . S
C1981 N1983 1.279 . S
C1981 C1984 1.358 . S
C1981 H1987 0.930 . S
C1982 C1980 1.353 . S
C1982 C1985 1.348 . S
C1982 H2020 0.929 . S
N1983 Li1938 1.990 . S
N1983 C1980 1.314 . S
N1983 C1981 1.279 . S
C1984 C1981 1.358 . S
C1984 C1985 1.356 . S
C1984 H2021 0.930 . S
C1985 C1982 1.348 . S
C1985 C1984 1.356 . S
H1986 C1980 0.930 . S
H1987 C1981 0.930 . S
C1988 N1989 1.314 . S
C1988 C1990 1.353 . S
C1988 H1994 0.930 . S
N1989 Li1939 1.990 . S
N1989 C1988 1.314 . S
N1989 C1992 1.279 . S
C1990 C1988 1.353 . S
C1990 C1993 1.348 1_655 S
C1990 H2022 0.929 1_655 S
C1991 C1992 1.358 . S
C1991 C1993 1.356 1_655 S
C1991 H2023 0.930 . S
C1992 N1989 1.279 . S
C1992 C1991 1.358 . S
C1992 H1995 0.930 . S
C1993 C1990 1.348 1_455 S
C1993 C1991 1.356 1_455 S
H1994 C1988 0.930 . S
H1995 C1992 0.930 . S
O1996 Li1936 1.956 . S
O1996 Li1937 1.970 . S
O1996 Li1938 1.961 . S
O1996 C1940 1.325 . S
O1997 Li1936 1.970 . S
O1997 Li1937 1.956 . S
O1997 Li1939 1.961 . S
O1997 C1946 1.325 . S
O1998 Li1936 1.961 . S
O1998 Li1938 1.956 . S
O1998 Li1939 1.970 . S
O1998 C1968 1.325 . S
O1999 Li1937 1.961 . S
O1999 Li1938 1.970 . S
O1999 Li1939 1.956 . S
O1999 C1974 1.325 . S
H2000 C1942 0.929 . S
H2001 C1943 0.930 . S
H2002 C1944 0.930 . S
H2003 C1945 0.930 . S
H2004 C1947 0.930 . S
H2005 C1949 0.929 . S
H2006 C1950 0.930 . S
H2007 C1951 0.930 . S
H2008 C1954 0.930 . S
H2009 C1957 0.929 . S
H2010 C1962 0.929 . S
H2011 C1963 0.930 . S
H2012 C1970 0.929 . S
H2013 C1971 0.930 . S
H2014 C1972 0.930 . S
H2015 C1973 0.930 . S
H2016 C1975 0.929 . S
H2017 C1976 0.930 . S
H2018 C1977 0.930 . S
H2019 C1978 0.930 . S
H2020 C1982 0.929 . S
H2021 C1984 0.930 . S
H2022 C1990 0.929 1_455 S
H2023 C1991 0.930 . S
Li2024 N2041 1.990 . S
Li2024 O2084 1.956 . S
Li2024 O2085 1.970 . S
Li2024 O2086 1.961 . S
Li2025 N2049 1.990 . S
Li2025 O2084 1.970 . S
Li2025 O2085 1.956 . S
Li2025 O2087 1.961 . S
Li2026 N2071 1.990 . S
Li2026 O2084 1.961 . S
Li2026 O2086 1.956 . S
Li2026 O2087 1.970 . S
Li2027 N2077 1.990 . S
Li2027 O2085 1.961 . S
Li2027 O2086 1.970 . S
Li2027 O2087 1.956 . S
C2028 C2030 1.348 . S
C2028 C2031 1.356 . S
C2028 O2084 1.325 . S
N2029 C2032 1.314 . S
N2029 C2033 1.279 . S
C2030 C2028 1.348 . S
C2030 C2032 1.353 . S
C2030 H2088 0.929 . S
C2031 C2028 1.356 . S
C2031 C2033 1.358 . S
C2031 H2089 0.930 . S
C2032 N2029 1.314 . S
C2032 C2030 1.353 . S
C2032 H2090 0.930 . S
C2033 N2029 1.279 . S
C2033 C2031 1.358 . S
C2033 H2091 0.930 . S
C2034 C2037 1.348 . S
C2034 C2038 1.356 . S
C2034 O2085 1.325 . S
C2035 N2036 1.279 . S
C2035 C2038 1.358 . S
C2035 H2092 0.930 . S
N2036 C2035 1.279 . S
N2036 C2039 1.314 . S
C2037 C2034 1.348 . S
C2037 C2039 1.353 . S
C2037 H2093 0.929 . S
C2038 C2034 1.356 . S
C2038 C2035 1.358 . S
C2038 H2094 0.930 . S
C2039 N2036 1.314 . S
C2039 C2037 1.353 . S
C2039 H2095 0.930 . S
C2040 N2041 1.314 . S
C2040 C2045 1.353 . S
C2040 H2046 0.930 . S
N2041 Li2024 1.990 . S
N2041 C2040 1.314 . S
N2041 C2043 1.279 . S
C2042 C2043 1.358 . S
C2042 C2044 1.356 . S
C2042 H2096 0.930 . S
C2043 N2041 1.279 . S
C2043 C2042 1.358 . S
C2043 H2047 0.930 . S
C2044 C2042 1.356 . S
C2044 C2045 1.348 . S
C2045 C2040 1.353 . S
C2045 C2044 1.348 . S
C2045 H2097 0.929 . S
H2046 C2040 0.930 . S
H2047 C2043 0.930 . S
C2048 N2049 1.314 . S
C2048 C2050 1.353 . S
C2048 H2054 0.930 . S
N2049 Li2025 1.990 . S
N2049 C2048 1.314 . S
N2049 C2052 1.279 . S
C2050 C2048 1.353 . S
C2050 C2053 1.348 . S
C2050 H2098 0.929 . S
C2051 C2052 1.358 . S
C2051 C2053 1.356 . S
C2051 H2099 0.930 . S
C2052 N2049 1.279 . S
C2052 C2051 1.358 . S
C2052 H2055 0.930 . S
C2053 C2050 1.348 . S
C2053 C2051 1.356 . S
H2054 C2048 0.930 . S
H2055 C2052 0.930 . S
C2056 C2058 1.348 . S
C2056 C2059 1.356 . S
C2056 O2086 1.325 . S
N2057 C2060 1.314 . S
N2057 C2061 1.279 . S
C2058 C2056 1.348 . S
C2058 C2060 1.353 . S
C2058 H2100 0.929 . S
C2059 C2056 1.356 . S
C2059 C2061 1.358 . S
C2059 H2101 0.930 . S
C2060 N2057 1.314 . S
C2060 C2058 1.353 . S
C2060 H2102 0.930 . S
C2061 N2057 1.279 . S
C2061 C2059 1.358 . S
C2061 H2103 0.930 . S
C2062 C2063 1.348 . S
C2062 C2064 1.356 . S
C2062 O2087 1.325 . S
C2063 C2062 1.348 . S
C2063 C2065 1.353 . S
C2063 H2104 0.929 . S
C2064 C2062 1.356 . S
C2064 C2066 1.358 . S
C2064 H2105 0.930 . S
C2065 C2063 1.353 . S
C2065 N2067 1.314 . S
C2065 H2106 0.930 . S
C2066 C2064 1.358 . S
C2066 N2067 1.279 . S
C2066 H2107 0.930 . S
N2067 C2065 1.314 . S
N2067 C2066 1.279 . S
C2068 C2070 1.353 . S
C2068 N2071 1.314 . S
C2068 H2074 0.930 . S
C2069 N2071 1.279 . S
C2069 C2072 1.358 . S
C2069 H2075 0.930 . S
C2070 C2068 1.353 . S
C2070 C2073 1.348 . S
C2070 H2108 0.929 . S
N2071 Li2026 1.990 . S
N2071 C2068 1.314 . S
N2071 C2069 1.279 . S
C2072 C2069 1.358 . S
C2072 C2073 1.356 . S
C2072 H2109 0.930 . S
C2073 C2070 1.348 . S
C2073 C2072 1.356 . S
H2074 C2068 0.930 . S
H2075 C2069 0.930 . S
C2076 N2077 1.314 . S
C2076 C2078 1.353 . S
C2076 H2082 0.930 . S
N2077 Li2027 1.990 . S
N2077 C2076 1.314 . S
N2077 C2080 1.279 . S
C2078 C2076 1.353 . S
C2078 C2081 1.348 . S
C2078 H2110 0.929 . S
C2079 C2080 1.358 . S
C2079 C2081 1.356 . S
C2079 H2111 0.930 . S
C2080 N2077 1.279 . S
C2080 C2079 1.358 . S
C2080 H2083 0.930 . S
C2081 C2078 1.348 . S
C2081 C2079 1.356 . S
H2082 C2076 0.930 . S
H2083 C2080 0.930 . S
O2084 Li2024 1.956 . S
O2084 Li2025 1.970 . S
O2084 Li2026 1.961 . S
O2084 C2028 1.325 . S
O2085 Li2024 1.970 . S
O2085 Li2025 1.956 . S
O2085 Li2027 1.961 . S
O2085 C2034 1.325 . S
O2086 Li2024 1.961 . S
O2086 Li2026 1.956 . S
O2086 Li2027 1.970 . S
O2086 C2056 1.325 . S
O2087 Li2025 1.961 . S
O2087 Li2026 1.970 . S
O2087 Li2027 1.956 . S
O2087 C2062 1.325 . S
H2088 C2030 0.929 . S
H2089 C2031 0.930 . S
H2090 C2032 0.930 . S
H2091 C2033 0.930 . S
H2092 C2035 0.930 . S
H2093 C2037 0.929 . S
H2094 C2038 0.930 . S
H2095 C2039 0.930 . S
H2096 C2042 0.930 . S
H2097 C2045 0.929 . S
H2098 C2050 0.929 . S
H2099 C2051 0.930 . S
H2100 C2058 0.929 . S
H2101 C2059 0.930 . S
H2102 C2060 0.930 . S
H2103 C2061 0.930 . S
H2104 C2063 0.929 . S
H2105 C2064 0.930 . S
H2106 C2065 0.930 . S
H2107 C2066 0.930 . S
H2108 C2070 0.929 . S
H2109 C2072 0.930 . S
H2110 C2078 0.929 . S
H2111 C2079 0.930 . S
Ho2112 C2115 2.811 1_455 S
Ho2112 O2132 2.322 . S
Ho2112 O2134 2.378 1_455 S
Ho2112 O2135 2.524 1_456 S
Ho2112 O2136 2.381 . S
Ho2112 O2137 2.669 . S
Ho2112 O2139 2.346 1_546 S
Ho2112 O2143 2.305 1_556 S
Ho2113 C2124 2.811 . S
Ho2113 O2133 2.346 . S
Ho2113 O2137 2.305 1_554 S
Ho2113 O2138 2.322 . S
Ho2113 O2140 2.378 . S
Ho2113 O2141 2.524 . S
Ho2113 O2142 2.381 . S
Ho2113 O2143 2.669 . S
C2114 O2132 1.259 1_554 S
C2114 O2133 1.268 . S
C2115 Ho2112 2.811 1_655 S
C2115 C2116 1.488 . S
C2115 O2134 1.215 . S
C2115 O2135 1.289 1_556 S
C2116 C2115 1.488 . S
C2116 C2117 1.349 1_556 S
C2116 C2121 1.413 . S
C2117 C2116 1.349 1_554 S
C2117 C2118 1.442 1_554 S
C2117 H2144 0.929 . S
C2118 C2117 1.442 1_556 S
C2118 C2119 1.381 . S
C2118 H2145 0.931 1_556 S
C2119 C2118 1.381 . S
C2119 C2120 1.321 . S
C2120 C2119 1.321 . S
C2120 C2121 1.403 . S
C2120 H2146 0.934 . S
C2121 C2116 1.413 . S
C2121 C2120 1.403 . S
C2121 H2147 0.930 . S
C2122 O2136 1.275 . S
C2122 O2137 1.256 . S
C2123 O2138 1.259 1_565 S
C2123 O2139 1.268 . S
C2124 Ho2113 2.811 . S
C2124 C2125 1.488 . S
C2124 O2140 1.215 . S
C2124 O2141 1.289 . S
C2125 C2124 1.488 . S
C2125 C2126 1.348 . S
C2125 C2130 1.413 . S
C2126 C2125 1.348 . S
C2126 C2127 1.442 . S
C2126 H2148 0.930 . S
C2127 C2126 1.442 . S
C2127 C2128 1.381 . S
C2127 H2149 0.931 1_545 S
C2128 C2127 1.381 . S
C2128 C2129 1.321 . S
C2129 C2128 1.321 . S
C2129 C2130 1.403 . S
C2129 H2150 0.934 . S
C2130 C2125 1.413 . S
C2130 C2129 1.403 . S
C2130 H2151 0.930 . S
C2131 O2142 1.275 . S
C2131 O2143 1.256 . S
O2132 Ho2112 2.322 . S
O2132 C2114 1.259 1_556 S
O2133 Ho2113 2.346 . S
O2133 C2114 1.268 . S
O2134 Ho2112 2.378 1_655 S
O2134 C2115 1.215 . S
O2135 Ho2112 2.524 1_654 S
O2135 C2115 1.289 1_554 S
O2136 Ho2112 2.381 . S
O2136 C2122 1.275 . S
O2137 Ho2112 2.669 . S
O2137 Ho2113 2.305 1_556 S
O2137 C2122 1.256 . S
O2138 Ho2113 2.322 . S
O2138 C2123 1.259 1_545 S
O2139 Ho2112 2.346 1_564 S
O2139 C2123 1.268 . S
O2140 Ho2113 2.378 . S
O2140 C2124 1.215 . S
O2141 Ho2113 2.524 . S
O2141 C2124 1.289 . S
O2142 Ho2113 2.381 . S
O2142 C2131 1.275 . S
O2143 Ho2112 2.305 1_554 S
O2143 Ho2113 2.669 . S
O2143 C2131 1.256 . S
H2144 C2117 0.929 . S
H2145 C2118 0.931 1_554 S
H2146 C2120 0.934 . S
H2147 C2121 0.930 . S
H2148 C2126 0.930 . S
H2149 C2127 0.931 1_565 S
H2150 C2129 0.934 . S
H2151 C2130 0.930 . S
Ho2152 C2155 2.811 . S
Ho2152 O2172 2.322 . S
Ho2152 O2174 2.378 . S
Ho2152 O2175 2.524 . S
Ho2152 O2176 2.381 . S
Ho2152 O2177 2.669 . S
Ho2152 O2179 2.346 . S
Ho2152 O2183 2.305 . S
Ho2153 C2164 2.811 . S
Ho2153 O2173 2.346 . S
Ho2153 O2177 2.305 . S
Ho2153 O2178 2.322 . S
Ho2153 O2180 2.378 . S
Ho2153 O2181 2.524 . S
Ho2153 O2182 2.381 . S
Ho2153 O2183 2.669 . S
C2154 O2172 1.259 . S
C2154 O2173 1.268 . S
C2155 Ho2152 2.811 . S
C2155 C2156 1.488 . S
C2155 O2174 1.215 . S
C2155 O2175 1.289 . S
C2156 C2155 1.488 . S
C2156 C2157 1.348 . S
C2156 C2161 1.413 . S
C2157 C2156 1.348 . S
C2157 C2158 1.442 . S
C2157 H2184 0.930 . S
C2158 C2157 1.442 . S
C2158 C2159 1.381 . S
C2158 H2185 0.931 . S
C2159 C2158 1.381 . S
C2159 C2160 1.321 . S
C2160 C2159 1.321 . S
C2160 C2161 1.403 . S
C2160 H2186 0.934 . S
C2161 C2156 1.413 . S
C2161 C2160 1.403 . S
C2161 H2187 0.930 . S
C2162 O2176 1.275 . S
C2162 O2177 1.256 . S
C2163 O2178 1.259 . S
C2163 O2179 1.268 . S
C2164 Ho2153 2.811 . S
C2164 C2165 1.488 . S
C2164 O2180 1.215 . S
C2164 O2181 1.289 . S
C2165 C2164 1.488 . S
C2165 C2166 1.348 . S
C2165 C2170 1.413 . S
C2166 C2165 1.348 . S
C2166 C2167 1.442 . S
C2166 H2188 0.930 . S
C2167 C2166 1.442 . S
C2167 C2168 1.381 . S
C2167 H2189 0.931 . S
C2168 C2167 1.381 . S
C2168 C2169 1.321 . S
C2169 C2168 1.321 . S
C2169 C2170 1.403 . S
C2169 H2190 0.934 . S
C2170 C2165 1.413 . S
C2170 C2169 1.403 . S
C2170 H2191 0.930 . S
C2171 O2182 1.275 . S
C2171 O2183 1.256 . S
O2172 Ho2152 2.322 . S
O2172 C2154 1.259 . S
O2173 Ho2153 2.346 . S
O2173 C2154 1.268 . S
O2174 Ho2152 2.378 . S
O2174 C2155 1.215 . S
O2175 Ho2152 2.524 . S
O2175 C2155 1.289 . S
O2176 Ho2152 2.381 . S
O2176 C2162 1.275 . S
O2177 Ho2152 2.669 . S
O2177 Ho2153 2.305 . S
O2177 C2162 1.256 . S
O2178 Ho2153 2.322 . S
O2178 C2163 1.259 . S
O2179 Ho2152 2.346 . S
O2179 C2163 1.268 . S
O2180 Ho2153 2.378 . S
O2180 C2164 1.215 . S
O2181 Ho2153 2.524 . S
O2181 C2164 1.289 . S
O2182 Ho2153 2.381 . S
O2182 C2171 1.275 . S
O2183 Ho2152 2.305 . S
O2183 Ho2153 2.669 . S
O2183 C2171 1.256 . S
H2184 C2157 0.930 . S
H2185 C2158 0.931 . S
H2186 C2160 0.934 . S
H2187 C2161 0.930 . S
H2188 C2166 0.930 . S
H2189 C2167 0.931 . S
H2190 C2169 0.934 . S
H2191 C2170 0.930 . S
Ho2192 C2195 2.811 . S
Ho2192 O2212 2.322 1_545 S
Ho2192 O2214 2.378 . S
Ho2192 O2215 2.524 . S
Ho2192 O2216 2.381 . S
Ho2192 O2217 2.669 . S
Ho2192 O2219 2.346 . S
Ho2192 O2223 2.305 . S
Ho2193 C2204 2.811 . S
Ho2193 O2213 2.346 1_545 S
Ho2193 O2217 2.305 . S
Ho2193 O2218 2.322 . S
Ho2193 O2220 2.378 . S
Ho2193 O2221 2.524 . S
Ho2193 O2222 2.381 . S
Ho2193 O2223 2.669 . S
C2194 O2212 1.259 . S
C2194 O2213 1.268 . S
C2195 Ho2192 2.811 . S
C2195 C2196 1.488 1_545 S
C2195 O2214 1.215 . S
C2195 O2215 1.289 . S
C2196 C2195 1.488 1_565 S
C2196 C2197 1.348 . S
C2196 C2201 1.413 . S
C2197 C2196 1.348 . S
C2197 C2198 1.442 . S
C2197 H2224 0.930 . S
C2198 C2197 1.442 . S
C2198 C2199 1.381 . S
C2198 H2225 0.931 . S
C2199 C2198 1.381 . S
C2199 C2200 1.321 . S
C2200 C2199 1.321 . S
C2200 C2201 1.403 . S
C2200 H2226 0.934 . S
C2201 C2196 1.413 . S
C2201 C2200 1.403 . S
C2201 H2227 0.930 . S
C2202 O2216 1.275 . S
C2202 O2217 1.256 . S
C2203 O2218 1.259 . S
C2203 O2219 1.268 . S
C2204 Ho2193 2.811 . S
C2204 C2205 1.488 . S
C2204 O2220 1.215 . S
C2204 O2221 1.289 . S
C2205 C2204 1.488 . S
C2205 C2206 1.348 . S
C2205 C2210 1.413 . S
C2206 C2205 1.348 . S
C2206 C2207 1.442 . S
C2206 H2228 0.930 . S
C2207 C2206 1.442 . S
C2207 C2208 1.381 . S
C2207 H2229 0.931 . S
C2208 C2207 1.381 . S
C2208 C2209 1.321 . S
C2209 C2208 1.321 . S
C2209 C2210 1.403 . S
C2209 H2230 0.934 . S
C2210 C2205 1.413 . S
C2210 C2209 1.403 . S
C2210 H2231 0.930 . S
C2211 O2222 1.275 . S
C2211 O2223 1.256 . S
O2212 Ho2192 2.322 1_565 S
O2212 C2194 1.259 . S
O2213 Ho2193 2.346 1_565 S
O2213 C2194 1.268 . S
O2214 Ho2192 2.378 . S
O2214 C2195 1.215 . S
O2215 Ho2192 2.524 . S
O2215 C2195 1.289 . S
O2216 Ho2192 2.381 . S
O2216 C2202 1.275 . S
O2217 Ho2192 2.669 . S
O2217 Ho2193 2.305 . S
O2217 C2202 1.256 . S
O2218 Ho2193 2.322 . S
O2218 C2203 1.259 . S
O2219 Ho2192 2.346 . S
O2219 C2203 1.268 . S
O2220 Ho2193 2.378 . S
O2220 C2204 1.215 . S
O2221 Ho2193 2.524 . S
O2221 C2204 1.289 . S
O2222 Ho2193 2.381 . S
O2222 C2211 1.275 . S
O2223 Ho2192 2.305 . S
O2223 Ho2193 2.669 . S
O2223 C2211 1.256 . S
H2224 C2197 0.930 . S
H2225 C2198 0.931 . S
H2226 C2200 0.934 . S
H2227 C2201 0.930 . S
H2228 C2206 0.930 . S
H2229 C2207 0.931 . S
H2230 C2209 0.934 . S
H2231 C2210 0.930 . S
Ho2232 C2235 2.811 . S
Ho2232 O2252 2.322 . S
Ho2232 O2254 2.378 . S
Ho2232 O2255 2.524 . S
Ho2232 O2256 2.381 . S
Ho2232 O2257 2.669 . S
Ho2232 O2259 2.346 . S
Ho2232 O2263 2.305 . S
Ho2233 C2244 2.811 . S
Ho2233 O2253 2.346 . S
Ho2233 O2257 2.305 . S
Ho2233 O2258 2.322 . S
Ho2233 O2260 2.378 . S
Ho2233 O2261 2.524 . S
Ho2233 O2262 2.381 . S
Ho2233 O2263 2.669 . S
C2234 O2252 1.259 . S
C2234 O2253 1.268 . S
C2235 Ho2232 2.811 . S
C2235 C2236 1.488 . S
C2235 O2254 1.215 . S
C2235 O2255 1.289 . S
C2236 C2235 1.488 . S
C2236 C2237 1.348 . S
C2236 C2241 1.413 . S
C2237 C2236 1.348 . S
C2237 C2238 1.442 . S
C2237 H2264 0.930 . S
C2238 C2237 1.442 . S
C2238 C2239 1.381 . S
C2238 H2265 0.931 . S
C2239 C2238 1.381 . S
C2239 C2240 1.321 . S
C2240 C2239 1.321 . S
C2240 C2241 1.403 . S
C2240 H2266 0.934 . S
C2241 C2236 1.413 . S
C2241 C2240 1.403 . S
C2241 H2267 0.930 . S
C2242 O2256 1.275 . S
C2242 O2257 1.256 . S
C2243 O2258 1.259 . S
C2243 O2259 1.268 . S
C2244 Ho2233 2.811 . S
C2244 C2245 1.488 . S
C2244 O2260 1.215 . S
C2244 O2261 1.289 . S
C2245 C2244 1.488 . S
C2245 C2246 1.348 . S
C2245 C2250 1.413 . S
C2246 C2245 1.348 . S
C2246 C2247 1.442 . S
C2246 H2268 0.930 . S
C2247 C2246 1.442 . S
C2247 C2248 1.381 . S
C2247 H2269 0.931 . S
C2248 C2247 1.381 . S
C2248 C2249 1.321 . S
C2249 C2248 1.321 . S
C2249 C2250 1.403 . S
C2249 H2270 0.934 . S
C2250 C2245 1.413 . S
C2250 C2249 1.403 . S
C2250 H2271 0.930 . S
C2251 O2262 1.275 . S
C2251 O2263 1.256 . S
O2252 Ho2232 2.322 . S
O2252 C2234 1.259 . S
O2253 Ho2233 2.346 . S
O2253 C2234 1.268 . S
O2254 Ho2232 2.378 . S
O2254 C2235 1.215 . S
O2255 Ho2232 2.524 . S
O2255 C2235 1.289 . S
O2256 Ho2232 2.381 . S
O2256 C2242 1.275 . S
O2257 Ho2232 2.669 . S
O2257 Ho2233 2.305 . S
O2257 C2242 1.256 . S
O2258 Ho2233 2.322 . S
O2258 C2243 1.259 . S
O2259 Ho2232 2.346 . S
O2259 C2243 1.268 . S
O2260 Ho2233 2.378 . S
O2260 C2244 1.215 . S
O2261 Ho2233 2.524 . S
O2261 C2244 1.289 . S
O2262 Ho2233 2.381 . S
O2262 C2251 1.275 . S
O2263 Ho2232 2.305 . S
O2263 Ho2233 2.669 . S
O2263 C2251 1.256 . S
H2264 C2237 0.930 . S
H2265 C2238 0.931 . S
H2266 C2240 0.934 . S
H2267 C2241 0.930 . S
H2268 C2246 0.930 . S
H2269 C2247 0.931 . S
H2270 C2249 0.934 . S
H2271 C2250 0.930 . S
Ho2272 C2275 2.811 . S
Ho2272 O2292 2.322 . S
Ho2272 O2294 2.378 . S
Ho2272 O2295 2.524 . S
Ho2272 O2296 2.381 . S
Ho2272 O2297 2.669 . S
Ho2272 O2299 2.346 . S
Ho2272 O2303 2.305 . S
Ho2273 C2284 2.811 1_545 S
Ho2273 O2293 2.346 . S
Ho2273 O2297 2.305 . S
Ho2273 O2298 2.322 . S
Ho2273 O2300 2.378 1_545 S
Ho2273 O2301 2.524 1_545 S
Ho2273 O2302 2.381 . S
Ho2273 O2303 2.669 . S
C2274 O2292 1.259 . S
C2274 O2293 1.268 . S
C2275 Ho2272 2.811 . S
C2275 C2276 1.488 . S
C2275 O2294 1.215 . S
C2275 O2295 1.289 . S
C2276 C2275 1.488 . S
C2276 C2277 1.348 . S
C2276 C2281 1.413 . S
C2277 C2276 1.348 . S
C2277 C2278 1.442 . S
C2277 H2304 0.930 . S
C2278 C2277 1.442 . S
C2278 C2279 1.381 . S
C2278 H2305 0.931 . S
C2279 C2278 1.381 . S
C2279 C2280 1.321 . S
C2280 C2279 1.321 . S
C2280 C2281 1.403 . S
C2280 H2306 0.934 . S
C2281 C2276 1.413 . S
C2281 C2280 1.403 . S
C2281 H2307 0.930 . S
C2282 O2296 1.275 . S
C2282 O2297 1.256 . S
C2283 O2298 1.259 . S
C2283 O2299 1.268 . S
C2284 Ho2273 2.811 1_565 S
C2284 C2285 1.488 . S
C2284 O2300 1.215 . S
C2284 O2301 1.289 . S
C2285 C2284 1.488 . S
C2285 C2286 1.348 . S
C2285 C2290 1.413 . S
C2286 C2285 1.348 . S
C2286 C2287 1.442 . S
C2286 H2308 0.930 . S
C2287 C2286 1.442 . S
C2287 C2288 1.381 . S
C2287 H2309 0.931 . S
C2288 C2287 1.381 . S
C2288 C2289 1.321 . S
C2289 C2288 1.321 . S
C2289 C2290 1.403 . S
C2289 H2310 0.934 . S
C2290 C2285 1.413 . S
C2290 C2289 1.403 . S
C2290 H2311 0.930 . S
C2291 O2302 1.275 . S
C2291 O2303 1.256 . S
O2292 Ho2272 2.322 . S
O2292 C2274 1.259 . S
O2293 Ho2273 2.346 . S
O2293 C2274 1.268 . S
O2294 Ho2272 2.378 . S
O2294 C2275 1.215 . S
O2295 Ho2272 2.524 . S
O2295 C2275 1.289 . S
O2296 Ho2272 2.381 . S
O2296 C2282 1.275 . S
O2297 Ho2272 2.669 . S
O2297 Ho2273 2.305 . S
O2297 C2282 1.256 . S
O2298 Ho2273 2.322 . S
O2298 C2283 1.259 . S
O2299 Ho2272 2.346 . S
O2299 C2283 1.268 . S
O2300 Ho2273 2.378 1_565 S
O2300 C2284 1.215 . S
O2301 Ho2273 2.524 1_565 S
O2301 C2284 1.289 . S
O2302 Ho2273 2.381 . S
O2302 C2291 1.275 . S
O2303 Ho2272 2.305 . S
O2303 Ho2273 2.669 . S
O2303 C2291 1.256 . S
H2304 C2277 0.930 . S
H2305 C2278 0.931 . S
H2306 C2280 0.934 . S
H2307 C2281 0.930 . S
H2308 C2286 0.930 . S
H2309 C2287 0.931 . S
H2310 C2289 0.934 . S
H2311 C2290 0.930 . S
Ho2312 C2315 2.811 . S
Ho2312 O2332 2.322 . S
Ho2312 O2334 2.378 . S
Ho2312 O2335 2.524 . S
Ho2312 O2336 2.381 . S
Ho2312 O2337 2.669 . S
Ho2312 O2339 2.346 . S
Ho2312 O2343 2.305 . S
Ho2313 C2324 2.811 . S
Ho2313 O2333 2.346 . S
Ho2313 O2337 2.305 . S
Ho2313 O2338 2.322 . S
Ho2313 O2340 2.378 . S
Ho2313 O2341 2.524 . S
Ho2313 O2342 2.381 . S
Ho2313 O2343 2.669 . S
C2314 O2332 1.259 . S
C2314 O2333 1.268 . S
C2315 Ho2312 2.811 . S
C2315 C2316 1.488 . S
C2315 O2334 1.215 . S
C2315 O2335 1.289 . S
C2316 C2315 1.488 . S
C2316 C2317 1.348 . S
C2316 C2321 1.413 . S
C2317 C2316 1.348 . S
C2317 C2318 1.442 . S
C2317 H2344 0.930 . S
C2318 C2317 1.442 . S
C2318 C2319 1.381 . S
C2318 H2345 0.931 . S
C2319 C2318 1.381 . S
C2319 C2320 1.321 . S
C2320 C2319 1.321 . S
C2320 C2321 1.403 . S
C2320 H2346 0.934 . S
C2321 C2316 1.413 . S
C2321 C2320 1.403 . S
C2321 H2347 0.930 . S
C2322 O2336 1.275 . S
C2322 O2337 1.256 . S
C2323 O2338 1.259 . S
C2323 O2339 1.268 . S
C2324 Ho2313 2.811 . S
C2324 C2325 1.488 . S
C2324 O2340 1.215 . S
C2324 O2341 1.289 . S
C2325 C2324 1.488 . S
C2325 C2326 1.348 . S
C2325 C2330 1.413 . S
C2326 C2325 1.348 . S
C2326 C2327 1.442 . S
C2326 H2348 0.930 . S
C2327 C2326 1.442 . S
C2327 C2328 1.381 . S
C2327 H2349 0.931 . S
C2328 C2327 1.381 . S
C2328 C2329 1.321 . S
C2329 C2328 1.321 . S
C2329 C2330 1.403 . S
C2329 H2350 0.934 . S
C2330 C2325 1.413 . S
C2330 C2329 1.403 . S
C2330 H2351 0.930 . S
C2331 O2342 1.275 . S
C2331 O2343 1.256 . S
O2332 Ho2312 2.322 . S
O2332 C2314 1.259 . S
O2333 Ho2313 2.346 . S
O2333 C2314 1.268 . S
O2334 Ho2312 2.378 . S
O2334 C2315 1.215 . S
O2335 Ho2312 2.524 . S
O2335 C2315 1.289 . S
O2336 Ho2312 2.381 . S
O2336 C2322 1.275 . S
O2337 Ho2312 2.669 . S
O2337 Ho2313 2.305 . S
O2337 C2322 1.256 . S
O2338 Ho2313 2.322 . S
O2338 C2323 1.259 . S
O2339 Ho2312 2.346 . S
O2339 C2323 1.268 . S
O2340 Ho2313 2.378 . S
O2340 C2324 1.215 . S
O2341 Ho2313 2.524 . S
O2341 C2324 1.289 . S
O2342 Ho2313 2.381 . S
O2342 C2331 1.275 . S
O2343 Ho2312 2.305 . S
O2343 Ho2313 2.669 . S
O2343 C2331 1.256 . S
H2344 C2317 0.930 . S
H2345 C2318 0.931 . S
H2346 C2320 0.934 . S
H2347 C2321 0.930 . S
H2348 C2326 0.930 . S
H2349 C2327 0.931 . S
H2350 C2329 0.934 . S
H2351 C2330 0.930 . S
Ho2352 C2355 2.811 . S
Ho2352 O2372 2.322 . S
Ho2352 O2374 2.378 . S
Ho2352 O2375 2.524 . S
Ho2352 O2376 2.381 1_545 S
Ho2352 O2377 2.669 1_554 S
Ho2352 O2379 2.346 . S
Ho2352 O2383 2.305 . S
Ho2353 C2364 2.811 . S
Ho2353 O2373 2.346 . S
Ho2353 O2377 2.305 . S
Ho2353 O2378 2.322 1_556 S
Ho2353 O2380 2.378 . S
Ho2353 O2381 2.524 . S
Ho2353 O2382 2.381 1_556 S
Ho2353 O2383 2.669 1_556 S
C2354 O2372 1.259 . S
C2354 O2373 1.268 1_554 S
C2355 Ho2352 2.811 . S
C2355 C2356 1.488 . S
C2355 O2374 1.215 . S
C2355 O2375 1.289 . S
C2356 C2355 1.488 . S
C2356 C2357 1.348 . S
C2356 C2361 1.413 1_545 S
C2357 C2356 1.348 . S
C2357 C2358 1.442 . S
C2357 H2384 0.930 . S
C2358 C2357 1.442 . S
C2358 C2359 1.381 1_545 S
C2358 H2385 0.931 . S
C2359 C2358 1.381 1_565 S
C2359 C2360 1.321 . S
C2360 C2359 1.321 . S
C2360 C2361 1.403 . S
C2360 H2386 0.934 . S
C2361 C2356 1.413 1_565 S
C2361 C2360 1.403 . S
C2361 H2387 0.930 . S
C2362 O2376 1.275 1_556 S
C2362 O2377 1.256 1_565 S
C2363 O2378 1.259 . S
C2363 O2379 1.268 . S
C2364 Ho2353 2.811 . S
C2364 C2365 1.488 . S
C2364 O2380 1.215 . S
C2364 O2381 1.289 . S
C2365 C2364 1.488 . S
C2365 C2366 1.348 . S
C2365 C2370 1.413 . S
C2366 C2365 1.348 . S
C2366 C2367 1.442 . S
C2366 H2388 0.930 . S
C2367 C2366 1.442 . S
C2367 C2368 1.381 . S
C2367 H2389 0.931 . S
C2368 C2367 1.381 . S
C2368 C2369 1.321 . S
C2369 C2368 1.321 . S
C2369 C2370 1.403 . S
C2369 H2390 0.934 . S
C2370 C2365 1.413 . S
C2370 C2369 1.403 . S
C2370 H2391 0.930 . S
C2371 O2382 1.275 . S
C2371 O2383 1.256 . S
O2372 Ho2352 2.322 . S
O2372 C2354 1.259 . S
O2373 Ho2353 2.346 . S
O2373 C2354 1.268 1_556 S
O2374 Ho2352 2.378 . S
O2374 C2355 1.215 . S
O2375 Ho2352 2.524 . S
O2375 C2355 1.289 . S
O2376 Ho2352 2.381 1_565 S
O2376 C2362 1.275 1_554 S
O2377 Ho2352 2.669 1_556 S
O2377 Ho2353 2.305 . S
O2377 C2362 1.256 1_545 S
O2378 Ho2353 2.322 1_554 S
O2378 C2363 1.259 . S
O2379 Ho2352 2.346 . S
O2379 C2363 1.268 . S
O2380 Ho2353 2.378 . S
O2380 C2364 1.215 . S
O2381 Ho2353 2.524 . S
O2381 C2364 1.289 . S
O2382 Ho2353 2.381 1_554 S
O2382 C2371 1.275 . S
O2383 Ho2352 2.305 . S
O2383 Ho2353 2.669 1_554 S
O2383 C2371 1.256 . S
H2384 C2357 0.930 . S
H2385 C2358 0.931 . S
H2386 C2360 0.934 . S
H2387 C2361 0.930 . S
H2388 C2366 0.930 . S
H2389 C2367 0.931 . S
H2390 C2369 0.934 . S
H2391 C2370 0.930 . S
Ho2392 C2395 2.811 . S
Ho2392 O2412 2.322 . S
Ho2392 O2414 2.378 . S
Ho2392 O2415 2.524 . S
Ho2392 O2416 2.381 . S
Ho2392 O2417 2.669 . S
Ho2392 O2419 2.346 . S
Ho2392 O2423 2.305 . S
Ho2393 C2404 2.811 . S
Ho2393 O2413 2.346 . S
Ho2393 O2417 2.305 . S
Ho2393 O2418 2.322 . S
Ho2393 O2420 2.378 . S
Ho2393 O2421 2.524 . S
Ho2393 O2422 2.381 . S
Ho2393 O2423 2.669 . S
C2394 O2412 1.259 . S
C2394 O2413 1.268 . S
C2395 Ho2392 2.811 . S
C2395 C2396 1.488 . S
C2395 O2414 1.215 . S
C2395 O2415 1.289 . S
C2396 C2395 1.488 . S
C2396 C2397 1.348 . S
C2396 C2401 1.413 . S
C2397 C2396 1.348 . S
C2397 C2398 1.442 . S
C2397 H2424 0.930 . S
C2398 C2397 1.442 . S
C2398 C2399 1.381 . S
C2398 H2425 0.931 . S
C2399 C2398 1.381 . S
C2399 C2400 1.321 . S
C2400 C2399 1.321 . S
C2400 C2401 1.403 . S
C2400 H2426 0.934 . S
C2401 C2396 1.413 . S
C2401 C2400 1.403 . S
C2401 H2427 0.930 . S
C2402 O2416 1.275 . S
C2402 O2417 1.256 . S
C2403 O2418 1.259 . S
C2403 O2419 1.268 . S
C2404 Ho2393 2.811 . S
C2404 C2405 1.488 . S
C2404 O2420 1.215 . S
C2404 O2421 1.289 . S
C2405 C2404 1.488 . S
C2405 C2406 1.348 . S
C2405 C2410 1.413 . S
C2406 C2405 1.348 . S
C2406 C2407 1.442 . S
C2406 H2428 0.930 . S
C2407 C2406 1.442 . S
C2407 C2408 1.381 . S
C2407 H2429 0.931 . S
C2408 C2407 1.381 . S
C2408 C2409 1.321 . S
C2409 C2408 1.321 . S
C2409 C2410 1.403 . S
C2409 H2430 0.934 . S
C2410 C2405 1.413 . S
C2410 C2409 1.403 . S
C2410 H2431 0.930 . S
C2411 O2422 1.275 . S
C2411 O2423 1.256 . S
O2412 Ho2392 2.322 . S
O2412 C2394 1.259 . S
O2413 Ho2393 2.346 . S
O2413 C2394 1.268 . S
O2414 Ho2392 2.378 . S
O2414 C2395 1.215 . S
O2415 Ho2392 2.524 . S
O2415 C2395 1.289 . S
O2416 Ho2392 2.381 . S
O2416 C2402 1.275 . S
O2417 Ho2392 2.669 . S
O2417 Ho2393 2.305 . S
O2417 C2402 1.256 . S
O2418 Ho2393 2.322 . S
O2418 C2403 1.259 . S
O2419 Ho2392 2.346 . S
O2419 C2403 1.268 . S
O2420 Ho2393 2.378 . S
O2420 C2404 1.215 . S
O2421 Ho2393 2.524 . S
O2421 C2404 1.289 . S
O2422 Ho2393 2.381 . S
O2422 C2411 1.275 . S
O2423 Ho2392 2.305 . S
O2423 Ho2393 2.669 . S
O2423 C2411 1.256 . S
H2424 C2397 0.930 . S
H2425 C2398 0.931 . S
H2426 C2400 0.934 . S
H2427 C2401 0.930 . S
H2428 C2406 0.930 . S
H2429 C2407 0.931 . S
H2430 C2409 0.934 . S
H2431 C2410 0.930 . S
Ho2432 C2435 2.811 . S
Ho2432 O2452 2.322 1_554 S
Ho2432 O2454 2.378 . S
Ho2432 O2455 2.545 . S
Ho2432 O2456 2.381 . S
Ho2432 O2457 2.669 . S
Ho2432 O2459 2.346 . S
Ho2432 O2463 2.305 . S
Ho2433 C2444 2.811 1_556 S
Ho2433 O2453 2.346 . S
Ho2433 O2457 2.305 1_556 S
Ho2433 O2458 2.322 1_556 S
Ho2433 O2460 2.378 1_556 S
Ho2433 O2461 2.524 1_556 S
Ho2433 O2462 2.381 . S
Ho2433 O2463 2.669 1_556 S
C2434 O2452 1.259 . S
C2434 O2453 1.268 . S
C2435 Ho2432 2.811 . S
C2435 C2436 1.488 1_554 S
C2435 O2454 1.215 . S
C2435 O2455 1.295 . S
C2436 C2435 1.488 1_556 S
C2436 C2437 1.348 . S
C2436 C2441 1.413 . S
C2437 C2436 1.348 . S
C2437 C2438 1.442 . S
C2437 H2464 0.930 . S
C2438 C2437 1.442 . S
C2438 C2439 1.381 . S
C2438 H2465 0.931 . S
C2439 C2438 1.381 . S
C2439 C2440 1.321 . S
C2440 C2439 1.321 . S
C2440 C2441 1.403 . S
C2440 H2466 0.934 . S
C2441 C2436 1.413 . S
C2441 C2440 1.403 . S
C2441 H2467 0.930 1_556 S
C2442 O2456 1.275 . S
C2442 O2457 1.256 . S
C2443 O2458 1.259 . S
C2443 O2459 1.268 . S
C2444 Ho2433 2.811 1_554 S
C2444 C2445 1.488 . S
C2444 O2460 1.215 . S
C2444 O2461 1.289 . S
C2445 C2444 1.488 . S
C2445 C2446 1.348 . S
C2445 C2450 1.413 . S
C2446 C2445 1.348 . S
C2446 C2447 1.442 . S
C2446 H2468 0.930 . S
C2447 C2446 1.442 . S
C2447 C2448 1.381 . S
C2447 H2469 0.931 . S
C2448 C2447 1.381 . S
C2448 C2449 1.321 . S
C2449 C2448 1.321 . S
C2449 C2450 1.403 . S
C2449 H2470 0.934 . S
C2450 C2445 1.413 . S
C2450 C2449 1.403 . S
C2450 H2471 0.930 . S
C2451 O2462 1.275 1_554 S
C2451 O2463 1.256 . S
O2452 Ho2432 2.322 1_556 S
O2452 C2434 1.259 . S
O2453 Ho2433 2.346 . S
O2453 C2434 1.268 . S
O2454 Ho2432 2.378 . S
O2454 C2435 1.215 . S
O2455 Ho2432 2.545 . S
O2455 C2435 1.295 . S
O2456 Ho2432 2.381 . S
O2456 C2442 1.275 . S
O2457 Ho2432 2.669 . S
O2457 Ho2433 2.305 1_554 S
O2457 C2442 1.256 . S
O2458 Ho2433 2.322 1_554 S
O2458 C2443 1.259 . S
O2459 Ho2432 2.346 . S
O2459 C2443 1.268 . S
O2460 Ho2433 2.378 1_554 S
O2460 C2444 1.215 . S
O2461 Ho2433 2.524 1_554 S
O2461 C2444 1.289 . S
O2462 Ho2433 2.381 . S
O2462 C2451 1.275 1_556 S
O2463 Ho2432 2.305 . S
O2463 Ho2433 2.669 1_554 S
O2463 C2451 1.256 . S
H2464 C2437 0.930 . S
H2465 C2438 0.931 . S
H2466 C2440 0.934 . S
H2467 C2441 0.930 1_554 S
H2468 C2446 0.930 . S
H2469 C2447 0.931 . S
H2470 C2449 0.934 . S
H2471 C2450 0.930 . S
Ho2472 C2475 2.811 . S
Ho2472 O2492 2.322 . S
Ho2472 O2494 2.378 . S
Ho2472 O2495 2.524 . S
Ho2472 O2496 2.381 . S
Ho2472 O2497 2.669 . S
Ho2472 O2499 2.346 . S
Ho2472 O2503 2.305 . S
Ho2473 C2484 2.811 . S
Ho2473 O2493 2.346 . S
Ho2473 O2497 2.305 . S
Ho2473 O2498 2.322 . S
Ho2473 O2500 2.378 . S
Ho2473 O2501 2.524 . S
Ho2473 O2502 2.381 . S
Ho2473 O2503 2.669 . S
C2474 O2492 1.259 . S
C2474 O2493 1.268 . S
C2475 Ho2472 2.811 . S
C2475 C2476 1.488 . S
C2475 O2494 1.215 . S
C2475 O2495 1.289 . S
C2476 C2475 1.488 . S
C2476 C2477 1.348 . S
C2476 C2481 1.413 . S
C2477 C2476 1.348 . S
C2477 C2478 1.426 1_655 S
C2477 H2504 0.930 . S
C2478 C2477 1.426 1_455 S
C2478 C2479 1.391 . S
C2478 H2505 0.936 . S
C2479 C2478 1.391 . S
C2479 C2480 1.321 . S
C2480 C2479 1.321 . S
C2480 C2481 1.403 1_455 S
C2480 H2506 0.934 . S
C2481 C2476 1.413 . S
C2481 C2480 1.403 1_655 S
C2481 H2507 0.930 . S
C2482 O2496 1.275 . S
C2482 O2497 1.256 . S
C2483 O2498 1.259 . S
C2483 O2499 1.268 . S
C2484 Ho2473 2.811 . S
C2484 C2485 1.488 . S
C2484 O2500 1.215 . S
C2484 O2501 1.289 . S
C2485 C2484 1.488 . S
C2485 C2486 1.348 . S
C2485 C2490 1.413 . S
C2486 C2485 1.348 . S
C2486 C2487 1.442 . S
C2486 H2508 0.930 . S
C2487 C2486 1.442 . S
C2487 C2488 1.381 . S
C2487 H2509 0.931 . S
C2488 C2487 1.381 . S
C2488 C2489 1.321 . S
C2489 C2488 1.321 . S
C2489 C2490 1.403 . S
C2489 H2510 0.934 . S
C2490 C2485 1.413 . S
C2490 C2489 1.403 . S
C2490 H2511 0.930 . S
C2491 O2502 1.275 . S
C2491 O2503 1.256 . S
O2492 Ho2472 2.322 . S
O2492 C2474 1.259 . S
O2493 Ho2473 2.346 . S
O2493 C2474 1.268 . S
O2494 Ho2472 2.378 . S
O2494 C2475 1.215 . S
O2495 Ho2472 2.524 . S
O2495 C2475 1.289 . S
O2496 Ho2472 2.381 . S
O2496 C2482 1.275 . S
O2497 Ho2472 2.669 . S
O2497 Ho2473 2.305 . S
O2497 C2482 1.256 . S
O2498 Ho2473 2.322 . S
O2498 C2483 1.259 . S
O2499 Ho2472 2.346 . S
O2499 C2483 1.268 . S
O2500 Ho2473 2.378 . S
O2500 C2484 1.215 . S
O2501 Ho2473 2.524 . S
O2501 C2484 1.289 . S
O2502 Ho2473 2.381 . S
O2502 C2491 1.275 . S
O2503 Ho2472 2.305 . S
O2503 Ho2473 2.669 . S
O2503 C2491 1.256 . S
H2504 C2477 0.930 . S
H2505 C2478 0.936 . S
H2506 C2480 0.934 . S
H2507 C2481 0.930 . S
H2508 C2486 0.930 . S
H2509 C2487 0.931 . S
H2510 C2489 0.934 . S
H2511 C2490 0.930 . S
Ho2512 C2515 2.811 . S
Ho2512 O2532 2.322 . S
Ho2512 O2534 2.378 . S
Ho2512 O2535 2.524 . S
Ho2512 O2536 2.381 . S
Ho2512 O2537 2.669 . S
Ho2512 O2539 2.346 . S
Ho2512 O2543 2.305 . S
Ho2513 C2524 2.811 . S
Ho2513 O2533 2.346 . S
Ho2513 O2537 2.305 . S
Ho2513 O2538 2.322 . S
Ho2513 O2540 2.378 . S
Ho2513 O2541 2.524 . S
Ho2513 O2542 2.381 . S
Ho2513 O2543 2.669 . S
C2514 O2532 1.259 . S
C2514 O2533 1.268 . S
C2515 Ho2512 2.811 . S
C2515 C2516 1.488 . S
C2515 O2534 1.215 . S
C2515 O2535 1.289 . S
C2516 C2515 1.488 . S
C2516 C2517 1.348 . S
C2516 C2521 1.413 . S
C2517 C2516 1.348 . S
C2517 C2518 1.442 1_455 S
C2517 H2544 0.930 . S
C2518 C2517 1.442 1_655 S
C2518 C2519 1.381 . S
C2518 H2545 0.931 . S
C2519 C2518 1.381 . S
C2519 C2520 1.321 1_655 S
C2520 C2519 1.321 1_455 S
C2520 C2521 1.403 . S
C2520 H2546 0.934 . S
C2521 C2516 1.413 . S
C2521 C2520 1.403 . S
C2521 H2547 0.930 . S
C2522 O2536 1.275 . S
C2522 O2537 1.256 . S
C2523 O2538 1.259 . S
C2523 O2539 1.268 . S
C2524 Ho2513 2.811 . S
C2524 C2525 1.488 . S
C2524 O2540 1.215 . S
C2524 O2541 1.289 . S
C2525 C2524 1.488 . S
C2525 C2526 1.348 . S
C2525 C2530 1.413 . S
C2526 C2525 1.348 . S
C2526 C2527 1.442 . S
C2526 H2548 0.930 . S
C2527 C2526 1.442 . S
C2527 C2528 1.381 . S
C2527 H2549 0.931 . S
C2528 C2527 1.381 . S
C2528 C2529 1.321 . S
C2529 C2528 1.321 . S
C2529 C2530 1.403 . S
C2529 H2550 0.934 . S
C2530 C2525 1.413 . S
C2530 C2529 1.403 . S
C2530 H2551 0.930 . S
C2531 O2542 1.275 . S
C2531 O2543 1.256 . S
O2532 Ho2512 2.322 . S
O2532 C2514 1.259 . S
O2533 Ho2513 2.346 . S
O2533 C2514 1.268 . S
O2534 Ho2512 2.378 . S
O2534 C2515 1.215 . S
O2535 Ho2512 2.524 . S
O2535 C2515 1.289 . S
O2536 Ho2512 2.381 . S
O2536 C2522 1.275 . S
O2537 Ho2512 2.669 . S
O2537 Ho2513 2.305 . S
O2537 C2522 1.256 . S
O2538 Ho2513 2.322 . S
O2538 C2523 1.259 . S
O2539 Ho2512 2.346 . S
O2539 C2523 1.268 . S
O2540 Ho2513 2.378 . S
O2540 C2524 1.215 . S
O2541 Ho2513 2.524 . S
O2541 C2524 1.289 . S
O2542 Ho2513 2.381 . S
O2542 C2531 1.275 . S
O2543 Ho2512 2.305 . S
O2543 Ho2513 2.669 . S
O2543 C2531 1.256 . S
H2544 C2517 0.930 . S
H2545 C2518 0.931 . S
H2546 C2520 0.934 . S
H2547 C2521 0.930 . S
H2548 C2526 0.930 . S
H2549 C2527 0.931 . S
H2550 C2529 0.934 . S
H2551 C2530 0.930 . S
Ho2552 C2555 2.811 . S
Ho2552 O2572 2.322 . S
Ho2552 O2574 2.378 . S
Ho2552 O2575 2.524 . S
Ho2552 O2576 2.381 . S
Ho2552 O2577 2.669 . S
Ho2552 O2579 2.346 . S
Ho2552 O2583 2.305 . S
Ho2553 C2564 2.811 . S
Ho2553 O2573 2.346 . S
Ho2553 O2577 2.305 . S
Ho2553 O2578 2.322 . S
Ho2553 O2580 2.378 . S
Ho2553 O2581 2.524 . S
Ho2553 O2582 2.381 . S
Ho2553 O2583 2.669 . S
C2554 O2572 1.259 . S
C2554 O2573 1.268 . S
C2555 Ho2552 2.811 . S
C2555 C2556 1.488 . S
C2555 O2574 1.215 . S
C2555 O2575 1.289 . S
C2556 C2555 1.488 . S
C2556 C2557 1.348 . S
C2556 C2561 1.413 . S
C2557 C2556 1.348 . S
C2557 C2558 1.442 . S
C2557 H2584 0.930 . S
C2558 C2557 1.442 . S
C2558 C2559 1.381 . S
C2558 H2585 0.931 . S
C2559 C2558 1.381 . S
C2559 C2560 1.321 . S
C2560 C2559 1.321 . S
C2560 C2561 1.403 . S
C2560 H2586 0.934 . S
C2561 C2556 1.413 . S
C2561 C2560 1.403 . S
C2561 H2587 0.930 . S
C2562 O2576 1.275 . S
C2562 O2577 1.256 . S
C2563 O2578 1.259 . S
C2563 O2579 1.268 . S
C2564 Ho2553 2.811 . S
C2564 C2565 1.488 . S
C2564 O2580 1.215 . S
C2564 O2581 1.289 . S
C2565 C2564 1.488 . S
C2565 C2566 1.348 . S
C2565 C2570 1.413 . S
C2566 C2565 1.348 . S
C2566 C2567 1.442 . S
C2566 H2588 0.930 . S
C2567 C2566 1.442 . S
C2567 C2568 1.381 . S
C2567 H2589 0.931 . S
C2568 C2567 1.381 . S
C2568 C2569 1.321 . S
C2569 C2568 1.321 . S
C2569 C2570 1.403 . S
C2569 H2590 0.934 . S
C2570 C2565 1.413 . S
C2570 C2569 1.403 . S
C2570 H2591 0.930 . S
C2571 O2582 1.275 . S
C2571 O2583 1.256 . S
O2572 Ho2552 2.322 . S
O2572 C2554 1.259 . S
O2573 Ho2553 2.346 . S
O2573 C2554 1.268 . S
O2574 Ho2552 2.378 . S
O2574 C2555 1.215 . S
O2575 Ho2552 2.524 . S
O2575 C2555 1.289 . S
O2576 Ho2552 2.381 . S
O2576 C2562 1.275 . S
O2577 Ho2552 2.669 . S
O2577 Ho2553 2.305 . S
O2577 C2562 1.256 . S
O2578 Ho2553 2.322 . S
O2578 C2563 1.259 . S
O2579 Ho2552 2.346 . S
O2579 C2563 1.268 . S
O2580 Ho2553 2.378 . S
O2580 C2564 1.215 . S
O2581 Ho2553 2.524 . S
O2581 C2564 1.289 . S
O2582 Ho2553 2.381 . S
O2582 C2571 1.275 . S
O2583 Ho2552 2.305 . S
O2583 Ho2553 2.669 . S
O2583 C2571 1.256 . S
H2584 C2557 0.930 . S
H2585 C2558 0.931 . S
H2586 C2560 0.934 . S
H2587 C2561 0.930 . S
H2588 C2566 0.930 . S
H2589 C2567 0.931 . S
H2590 C2569 0.934 . S
H2591 C2570 0.930 . S
Ho2592 C2595 2.811 . S
Ho2592 O2612 2.322 . S
Ho2592 O2614 2.378 . S
Ho2592 O2615 2.524 . S
Ho2592 O2616 2.381 . S
Ho2592 O2617 2.669 . S
Ho2592 O2619 2.346 . S
Ho2592 O2623 2.305 . S
Ho2593 C2604 2.811 . S
Ho2593 O2613 2.346 . S
Ho2593 O2617 2.305 . S
Ho2593 O2618 2.322 . S
Ho2593 O2620 2.378 . S
Ho2593 O2621 2.524 . S
Ho2593 O2622 2.381 . S
Ho2593 O2623 2.669 . S
C2594 O2612 1.259 . S
C2594 O2613 1.268 . S
C2595 Ho2592 2.811 . S
C2595 C2596 1.488 . S
C2595 O2614 1.215 . S
C2595 O2615 1.289 . S
C2596 C2595 1.488 . S
C2596 C2597 1.348 . S
C2596 C2601 1.413 . S
C2597 C2596 1.348 . S
C2597 C2598 1.442 . S
C2597 H2624 0.930 . S
C2598 C2597 1.442 . S
C2598 C2599 1.381 . S
C2598 H2625 0.931 . S
C2599 C2598 1.381 . S
C2599 C2600 1.321 . S
C2600 C2599 1.321 . S
C2600 C2601 1.403 . S
C2600 H2626 0.934 . S
C2601 C2596 1.413 . S
C2601 C2600 1.403 . S
C2601 H2627 0.930 . S
C2602 O2616 1.275 . S
C2602 O2617 1.256 . S
C2603 O2618 1.259 . S
C2603 O2619 1.268 . S
C2604 Ho2593 2.811 . S
C2604 C2605 1.488 . S
C2604 O2620 1.215 . S
C2604 O2621 1.289 . S
C2605 C2604 1.488 . S
C2605 C2606 1.348 . S
C2605 C2610 1.413 . S
C2606 C2605 1.348 . S
C2606 C2607 1.442 . S
C2606 H2628 0.930 . S
C2607 C2606 1.442 . S
C2607 C2608 1.381 . S
C2607 H2629 0.931 . S
C2608 C2607 1.381 . S
C2608 C2609 1.321 . S
C2609 C2608 1.321 . S
C2609 C2610 1.403 . S
C2609 H2630 0.934 . S
C2610 C2605 1.413 . S
C2610 C2609 1.403 . S
C2610 H2631 0.930 . S
C2611 O2622 1.275 . S
C2611 O2623 1.256 . S
O2612 Ho2592 2.322 . S
O2612 C2594 1.259 . S
O2613 Ho2593 2.346 . S
O2613 C2594 1.268 . S
O2614 Ho2592 2.378 . S
O2614 C2595 1.215 . S
O2615 Ho2592 2.524 . S
O2615 C2595 1.289 . S
O2616 Ho2592 2.381 . S
O2616 C2602 1.275 . S
O2617 Ho2592 2.669 . S
O2617 Ho2593 2.305 . S
O2617 C2602 1.256 . S
O2618 Ho2593 2.322 . S
O2618 C2603 1.259 . S
O2619 Ho2592 2.346 . S
O2619 C2603 1.268 . S
O2620 Ho2593 2.378 . S
O2620 C2604 1.215 . S
O2621 Ho2593 2.524 . S
O2621 C2604 1.289 . S
O2622 Ho2593 2.381 . S
O2622 C2611 1.275 . S
O2623 Ho2592 2.305 . S
O2623 Ho2593 2.669 . S
O2623 C2611 1.256 . S
H2624 C2597 0.930 . S
H2625 C2598 0.931 . S
H2626 C2600 0.934 . S
H2627 C2601 0.930 . S
H2628 C2606 0.930 . S
H2629 C2607 0.931 . S
H2630 C2609 0.934 . S
H2631 C2610 0.930 . S
Ho2632 C2635 2.811 . S
Ho2632 O2652 2.322 . S
Ho2632 O2654 2.378 . S
Ho2632 O2655 2.524 . S
Ho2632 O2656 2.381 . S
Ho2632 O2657 2.669 . S
Ho2632 O2659 2.346 . S
Ho2632 O2663 2.305 . S
Ho2633 C2644 2.811 . S
Ho2633 O2653 2.346 . S
Ho2633 O2657 2.305 . S
Ho2633 O2658 2.322 . S
Ho2633 O2660 2.378 . S
Ho2633 O2661 2.524 . S
Ho2633 O2662 2.381 . S
Ho2633 O2663 2.669 . S
C2634 O2652 1.259 . S
C2634 O2653 1.268 . S
C2635 Ho2632 2.811 . S
C2635 C2636 1.488 . S
C2635 O2654 1.215 . S
C2635 O2655 1.289 . S
C2636 C2635 1.488 . S
C2636 C2637 1.348 . S
C2636 C2641 1.413 . S
C2637 C2636 1.348 . S
C2637 C2638 1.442 . S
C2637 H2664 0.930 . S
C2638 C2637 1.442 . S
C2638 C2639 1.381 . S
C2638 H2665 0.931 . S
C2639 C2638 1.381 . S
C2639 C2640 1.321 . S
C2640 C2639 1.321 . S
C2640 C2641 1.403 . S
C2640 H2666 0.934 1_565 S
C2641 C2636 1.413 . S
C2641 C2640 1.403 . S
C2641 H2667 0.930 . S
C2642 O2656 1.275 . S
C2642 O2657 1.256 . S
C2643 O2658 1.259 . S
C2643 O2659 1.268 . S
C2644 Ho2633 2.811 . S
C2644 C2645 1.488 . S
C2644 O2660 1.215 . S
C2644 O2661 1.289 . S
C2645 C2644 1.488 . S
C2645 C2646 1.348 . S
C2645 C2650 1.413 . S
C2646 C2645 1.348 . S
C2646 C2647 1.442 . S
C2646 H2668 0.930 . S
C2647 C2646 1.442 . S
C2647 C2648 1.381 . S
C2647 H2669 0.931 . S
C2648 C2647 1.381 . S
C2648 C2649 1.321 . S
C2649 C2648 1.321 . S
C2649 C2650 1.403 . S
C2649 H2670 0.934 . S
C2650 C2645 1.413 . S
C2650 C2649 1.403 . S
C2650 H2671 0.930 . S
C2651 O2662 1.275 . S
C2651 O2663 1.256 . S
O2652 Ho2632 2.322 . S
O2652 C2634 1.259 . S
O2653 Ho2633 2.346 . S
O2653 C2634 1.268 . S
O2654 Ho2632 2.378 . S
O2654 C2635 1.215 . S
O2655 Ho2632 2.524 . S
O2655 C2635 1.289 . S
O2656 Ho2632 2.381 . S
O2656 C2642 1.275 . S
O2657 Ho2632 2.669 . S
O2657 Ho2633 2.305 . S
O2657 C2642 1.256 . S
O2658 Ho2633 2.322 . S
O2658 C2643 1.259 . S
O2659 Ho2632 2.346 . S
O2659 C2643 1.268 . S
O2660 Ho2633 2.378 . S
O2660 C2644 1.215 . S
O2661 Ho2633 2.524 . S
O2661 C2644 1.289 . S
O2662 Ho2633 2.381 . S
O2662 C2651 1.275 . S
O2663 Ho2632 2.305 . S
O2663 Ho2633 2.669 . S
O2663 C2651 1.256 . S
H2664 C2637 0.930 . S
H2665 C2638 0.931 . S
H2666 C2640 0.934 1_545 S
H2667 C2641 0.930 . S
H2668 C2646 0.930 . S
H2669 C2647 0.931 . S
H2670 C2649 0.934 . S
H2671 C2650 0.930 . S
Ho2672 C2675 2.811 . S
Ho2672 O2692 2.322 . S
Ho2672 O2694 2.378 . S
Ho2672 O2695 2.524 . S
Ho2672 O2696 2.381 . S
Ho2672 O2697 2.669 . S
Ho2672 O2699 2.346 . S
Ho2672 O2703 2.305 . S
Ho2673 C2684 2.811 . S
Ho2673 O2693 2.346 . S
Ho2673 O2697 2.305 . S
Ho2673 O2698 2.322 . S
Ho2673 O2700 2.378 . S
Ho2673 O2701 2.524 . S
Ho2673 O2702 2.381 . S
Ho2673 O2703 2.669 . S
C2674 O2692 1.259 . S
C2674 O2693 1.268 . S
C2675 Ho2672 2.811 . S
C2675 C2676 1.488 . S
C2675 O2694 1.215 . S
C2675 O2695 1.289 . S
C2676 C2675 1.488 . S
C2676 C2677 1.348 . S
C2676 C2681 1.413 . S
C2677 C2676 1.348 . S
C2677 C2678 1.442 . S
C2677 H2704 0.930 . S
C2678 C2677 1.442 . S
C2678 C2679 1.381 . S
C2678 H2705 0.931 . S
C2679 C2678 1.381 . S
C2679 C2680 1.321 . S
C2680 C2679 1.321 . S
C2680 C2681 1.403 . S
C2680 H2706 0.934 . S
C2681 C2676 1.413 . S
C2681 C2680 1.403 . S
C2681 H2707 0.930 . S
C2682 O2696 1.275 . S
C2682 O2697 1.256 . S
C2683 O2698 1.259 . S
C2683 O2699 1.268 . S
C2684 Ho2673 2.811 . S
C2684 C2685 1.488 . S
C2684 O2700 1.215 . S
C2684 O2701 1.289 . S
C2685 C2684 1.488 . S
C2685 C2686 1.348 . S
C2685 C2690 1.413 . S
C2686 C2685 1.348 . S
C2686 C2687 1.442 . S
C2686 H2708 0.930 . S
C2687 C2686 1.442 . S
C2687 C2688 1.381 . S
C2687 H2709 0.931 . S
C2688 C2687 1.381 . S
C2688 C2689 1.321 . S
C2689 C2688 1.321 . S
C2689 C2690 1.403 . S
C2689 H2710 0.934 . S
C2690 C2685 1.413 . S
C2690 C2689 1.403 . S
C2690 H2711 0.930 . S
C2691 O2702 1.275 . S
C2691 O2703 1.256 . S
O2692 Ho2672 2.322 . S
O2692 C2674 1.259 . S
O2693 Ho2673 2.346 . S
O2693 C2674 1.268 . S
O2694 Ho2672 2.378 . S
O2694 C2675 1.215 . S
O2695 Ho2672 2.524 . S
O2695 C2675 1.289 . S
O2696 Ho2672 2.381 . S
O2696 C2682 1.275 . S
O2697 Ho2672 2.669 . S
O2697 Ho2673 2.305 . S
O2697 C2682 1.256 . S
O2698 Ho2673 2.322 . S
O2698 C2683 1.259 . S
O2699 Ho2672 2.346 . S
O2699 C2683 1.268 . S
O2700 Ho2673 2.378 . S
O2700 C2684 1.215 . S
O2701 Ho2673 2.524 . S
O2701 C2684 1.289 . S
O2702 Ho2673 2.381 . S
O2702 C2691 1.275 . S
O2703 Ho2672 2.305 . S
O2703 Ho2673 2.669 . S
O2703 C2691 1.256 . S
H2704 C2677 0.930 . S
H2705 C2678 0.931 . S
H2706 C2680 0.934 . S
H2707 C2681 0.930 . S
H2708 C2686 0.930 . S
H2709 C2687 0.931 . S
H2710 C2689 0.934 . S
H2711 C2690 0.930 . S
Ho2712 C2715 2.810 1_554 S
Ho2712 O2732 2.323 1_554 S
Ho2712 O2734 2.372 1_554 S
Ho2712 O2735 2.528 . S
Ho2712 O2736 2.371 1_554 S
Ho2712 O2737 2.668 1_554 S
Ho2712 O2739 2.346 . S
Ho2712 O2743 2.315 . S
Ho2713 C2724 2.811 1_455 S
Ho2713 O2733 2.346 . S
Ho2713 O2737 2.305 1_554 S
Ho2713 O2738 2.322 . S
Ho2713 O2740 2.378 . S
Ho2713 O2741 2.524 . S
Ho2713 O2742 2.381 . S
Ho2713 O2743 2.669 . S
C2714 O2732 1.259 1_554 S
C2714 O2733 1.268 . S
C2715 Ho2712 2.810 1_556 S
C2715 C2716 1.488 . S
C2715 O2734 1.215 . S
C2715 O2735 1.289 1_556 S
C2716 C2715 1.488 . S
C2716 C2717 1.348 1_556 S
C2716 C2721 1.413 . S
C2717 C2716 1.348 1_554 S
C2717 C2718 1.447 . S
C2717 H2744 0.930 . S
C2718 C2717 1.447 . S
C2718 C2719 1.349 1_554 S
C2718 H2745 0.958 . S
C2719 C2718 1.349 1_556 S
C2719 C2720 1.321 . S
C2720 C2719 1.321 . S
C2720 C2721 1.403 . S
C2720 H2746 0.934 . S
C2721 C2716 1.413 . S
C2721 C2720 1.403 . S
C2721 H2747 0.930 . S
C2722 O2736 1.275 . S
C2722 O2737 1.256 . S
C2723 O2738 1.259 . S
C2723 O2739 1.268 . S
C2724 Ho2713 2.811 1_655 S
C2724 C2725 1.488 . S
C2724 O2740 1.215 1_655 S
C2724 O2741 1.289 1_655 S
C2725 C2724 1.488 . S
C2725 C2726 1.348 . S
C2725 C2730 1.413 . S
C2726 C2725 1.348 . S
C2726 C2727 1.442 . S
C2726 H2748 0.930 . S
C2727 C2726 1.442 . S
C2727 C2728 1.381 . S
C2727 H2749 0.931 . S
C2728 C2727 1.381 . S
C2728 C2729 1.321 . S
C2729 C2728 1.321 . S
C2729 C2730 1.403 . S
C2729 H2750 0.934 . S
C2730 C2725 1.413 . S
C2730 C2729 1.403 . S
C2730 H2751 0.930 . S
C2731 O2742 1.275 . S
C2731 O2743 1.256 . S
O2732 Ho2712 2.323 1_556 S
O2732 C2714 1.259 1_556 S
O2733 Ho2713 2.346 . S
O2733 C2714 1.268 . S
O2734 Ho2712 2.372 1_556 S
O2734 C2715 1.215 . S
O2735 Ho2712 2.528 . S
O2735 C2715 1.289 1_554 S
O2736 Ho2712 2.371 1_556 S
O2736 C2722 1.275 . S
O2737 Ho2712 2.668 1_556 S
O2737 Ho2713 2.305 1_556 S
O2737 C2722 1.256 . S
O2738 Ho2713 2.322 . S
O2738 C2723 1.259 . S
O2739 Ho2712 2.346 . S
O2739 C2723 1.268 . S
O2740 Ho2713 2.378 . S
O2740 C2724 1.215 1_455 S
O2741 Ho2713 2.524 . S
O2741 C2724 1.289 1_455 S
O2742 Ho2713 2.381 . S
O2742 C2731 1.275 . S
O2743 Ho2712 2.315 . S
O2743 Ho2713 2.669 . S
O2743 C2731 1.256 . S
H2744 C2717 0.930 . S
H2745 C2718 0.958 . S
H2746 C2720 0.934 . S
H2747 C2721 0.930 . S
H2748 C2726 0.930 . S
H2749 C2727 0.931 . S
H2750 C2729 0.934 . S
H2751 C2730 0.930 . S
C665 C2114 3.837 . S
C381 C2171 3.189 . S
C460 C2194 2.494 . S
C2248 C585 1.871 . S
C108 C2288 3.561 . S
C2319 C196 0.410 . S
C2371 C313 3.905 . S
C49 C2394 3.241 . S
C2131 C1457 3.504 . S
C1545 C2168 1.484 . S
C2211 C1721 0.909 . S
C2234 C1113 2.894 . S
C1428 C2274 3.475 . S
C2322 C1516 1.503 . S
C2368 C1692 1.433 . S
C2411 C1085 3.253 . S
C2128 C988 3.331 . S
C1817 C2451 2.536 1_556 S
C2483 C2081 3.788 . S
C2514 C1993 2.158 . S
C761 C2408 3.812 . S
C821 C2208 2.728 . S
C2053 C2571 3.069 . S
C2594 C1868 0.610 . S
C2123 C372 3.840 . S
C2602 C645 3.178 . S
C577 C2203 2.484 . S
C497 C2559 1.875 . S
C2279 C57 3.577 . S
C293 C2488 0.403 . S
C2362 C205 3.889 1_565 S
C2643 C145 3.253 . S
C2122 C909 3.500 . S
C2599 C1956 1.504 . S
C724 C2202 0.908 . S
C1780 C2563 2.886 . S
C937 C2283 3.480 1_565 S
C2491 C1985 1.508 . S
C753 C2359 1.424 1_545 S
C1809 C2642 3.255 . S
C1173 C2119 3.346 1_554 S
C1105 C2442 2.528 . S
C1633 C2314 3.785 . S
C1553 C2523 2.148 . S
C2639 C1729 3.831 . S
C1340 C2199 2.739 . S
C2242 C1604 3.060 . S
C2163 C1252 0.626 . S
C489 C2674 3.837 . S
C2611 C557 3.189 . S
C636 C2714 2.494 . S
C409 C2568 1.871 1_455 S
C284 C2448 3.561 . S
C2479 C20 0.410 . S
C2531 C137 3.904 1_455 S
C2634 C225 3.241 . S
C2691 C1641 3.504 . S
C1193 C2608 1.484 . S
C2731 C1289 0.910 . S
C2554 C1377 2.894 . S
C2434 C1613 3.475 . S
C1164 C2482 1.502 . S
C2528 C1261 1.432 . S
C1349 C2651 3.253 . S
C2688 C1965 3.335 . S
C849 C2291 2.536 . S
C2323 C929 3.788 . S
C2354 C1017 2.160 . S
C2648 C1897 3.812 . S
C1789 C2728 2.728 . S
C2251 C900 3.068 . S
C2154 C733 0.605 . S
C548 C2683 3.840 . S
C2162 C469 3.178 . S
C401 C2723 2.484 1_556 S
C673 C2239 1.875 . S
C233 C2439 3.576 . S
C2328 C117 0.402 . S
C29 C2522 3.889 . S
C321 C2403 3.253 . S
C2682 C2044 3.500 . S
C997 C2159 1.505 . S
C2722 C1877 0.910 . S
C812 C2243 2.886 . S
C2073 C2443 3.479 . S
C2331 C1025 1.512 . S
C1905 C2519 1.433 1_455 S
C2402 C841 3.255 . S
C2679 C1525 3.346 . S
C2282 C1369 2.528 1_445 S
C1465 C2474 3.785 . S
C2363 C1201 2.148 . S
C1281 C2399 3.830 . S
C1076 C2719 2.740 1_554 S
C2562 C1437 3.060 . S
C2603 C1701 0.626 . S
