# Generated by pormake.
# Topology gar, (4,6)-cn, num edge types: 1
# Building blocks:
#     Node 0, Type 0, BuildingBlock: CEKHIL_clean_sbu_0, # of connection points: 4
#     Node 1, Type 0, BuildingBlock: CEKHIL_clean_sbu_0, # of connection points: 4
#     Node 2, Type 0, BuildingBlock: CEKHIL_clean_sbu_0, # of connection points: 4
#     Node 3, Type 0, BuildingBlock: CEKHIL_clean_sbu_0, # of connection points: 4
#     Node 4, Type 0, BuildingBlock: CEKHIL_clean_sbu_0, # of connection points: 4
#     Node 5, Type 0, BuildingBlock: CEKHIL_clean_sbu_0, # of connection points: 4
#     Node 6, Type 0, BuildingBlock: CEKHIL_clean_sbu_0, # of connection points: 4
#     Node 7, Type 0, BuildingBlock: CEKHIL_clean_sbu_0, # of connection points: 4
#     Node 8, Type 0, BuildingBlock: CEKHIL_clean_sbu_0, # of connection points: 4
#     Node 9, Type 0, BuildingBlock: CEKHIL_clean_sbu_0, # of connection points: 4
#     Node 10, Type 0, BuildingBlock: CEKHIL_clean_sbu_0, # of connection points: 4
#     Node 11, Type 0, BuildingBlock: CEKHIL_clean_sbu_0, # of connection points: 4
#     Node 12, Type 0, BuildingBlock: CEKHIL_clean_sbu_0, # of connection points: 4
#     Node 13, Type 0, BuildingBlock: CEKHIL_clean_sbu_0, # of connection points: 4
#     Node 14, Type 0, BuildingBlock: CEKHIL_clean_sbu_0, # of connection points: 4
#     Node 15, Type 0, BuildingBlock: CEKHIL_clean_sbu_0, # of connection points: 4
#     Node 16, Type 0, BuildingBlock: CEKHIL_clean_sbu_0, # of connection points: 4
#     Node 17, Type 0, BuildingBlock: CEKHIL_clean_sbu_0, # of connection points: 4
#     Node 18, Type 0, BuildingBlock: CEKHIL_clean_sbu_0, # of connection points: 4
#     Node 19, Type 0, BuildingBlock: CEKHIL_clean_sbu_0, # of connection points: 4
#     Node 20, Type 0, BuildingBlock: CEKHIL_clean_sbu_0, # of connection points: 4
#     Node 21, Type 0, BuildingBlock: CEKHIL_clean_sbu_0, # of connection points: 4
#     Node 22, Type 0, BuildingBlock: CEKHIL_clean_sbu_0, # of connection points: 4
#     Node 23, Type 0, BuildingBlock: CEKHIL_clean_sbu_0, # of connection points: 4
#     Node 24, Type 1, BuildingBlock: BETDIP_clean_sbu_0, # of connection points: 6
#     Node 25, Type 1, BuildingBlock: BETDIP_clean_sbu_0, # of connection points: 6
#     Node 26, Type 1, BuildingBlock: BETDIP_clean_sbu_0, # of connection points: 6
#     Node 27, Type 1, BuildingBlock: BETDIP_clean_sbu_0, # of connection points: 6
#     Node 28, Type 1, BuildingBlock: BETDIP_clean_sbu_0, # of connection points: 6
#     Node 29, Type 1, BuildingBlock: BETDIP_clean_sbu_0, # of connection points: 6
#     Node 30, Type 1, BuildingBlock: BETDIP_clean_sbu_0, # of connection points: 6
#     Node 31, Type 1, BuildingBlock: BETDIP_clean_sbu_0, # of connection points: 6
#     Node 32, Type 1, BuildingBlock: BETDIP_clean_sbu_0, # of connection points: 6
#     Node 33, Type 1, BuildingBlock: BETDIP_clean_sbu_0, # of connection points: 6
#     Node 34, Type 1, BuildingBlock: BETDIP_clean_sbu_0, # of connection points: 6
#     Node 35, Type 1, BuildingBlock: BETDIP_clean_sbu_0, # of connection points: 6
#     Node 36, Type 1, BuildingBlock: BETDIP_clean_sbu_0, # of connection points: 6
#     Node 37, Type 1, BuildingBlock: BETDIP_clean_sbu_0, # of connection points: 6
#     Node 38, Type 1, BuildingBlock: BETDIP_clean_sbu_0, # of connection points: 6
#     Node 39, Type 1, BuildingBlock: BETDIP_clean_sbu_0, # of connection points: 6
#     Edge 40, Type (0, 1), BuildingBlock: XUDNAN_clean_linker_2, # of connection points: 2
#     Edge 41, Type (0, 1), BuildingBlock: XUDNAN_clean_linker_2, # of connection points: 2
#     Edge 42, Type (0, 1), BuildingBlock: XUDNAN_clean_linker_2, # of connection points: 2
#     Edge 43, Type (0, 1), BuildingBlock: XUDNAN_clean_linker_2, # of connection points: 2
#     Edge 44, Type (0, 1), BuildingBlock: XUDNAN_clean_linker_2, # of connection points: 2
#     Edge 45, Type (0, 1), BuildingBlock: XUDNAN_clean_linker_2, # of connection points: 2
#     Edge 46, Type (0, 1), BuildingBlock: XUDNAN_clean_linker_2, # of connection points: 2
#     Edge 47, Type (0, 1), BuildingBlock: XUDNAN_clean_linker_2, # of connection points: 2
#     Edge 48, Type (0, 1), BuildingBlock: XUDNAN_clean_linker_2, # of connection points: 2
#     Edge 49, Type (0, 1), BuildingBlock: XUDNAN_clean_linker_2, # of connection points: 2
#     Edge 50, Type (0, 1), BuildingBlock: XUDNAN_clean_linker_2, # of connection points: 2
#     Edge 51, Type (0, 1), BuildingBlock: XUDNAN_clean_linker_2, # of connection points: 2
#     Edge 52, Type (0, 1), BuildingBlock: XUDNAN_clean_linker_2, # of connection points: 2
#     Edge 53, Type (0, 1), BuildingBlock: XUDNAN_clean_linker_2, # of connection points: 2
#     Edge 54, Type (0, 1), BuildingBlock: XUDNAN_clean_linker_2, # of connection points: 2
#     Edge 55, Type (0, 1), BuildingBlock: XUDNAN_clean_linker_2, # of connection points: 2
#     Edge 56, Type (0, 1), BuildingBlock: XUDNAN_clean_linker_2, # of connection points: 2
#     Edge 57, Type (0, 1), BuildingBlock: XUDNAN_clean_linker_2, # of connection points: 2
#     Edge 58, Type (0, 1), BuildingBlock: XUDNAN_clean_linker_2, # of connection points: 2
#     Edge 59, Type (0, 1), BuildingBlock: XUDNAN_clean_linker_2, # of connection points: 2
#     Edge 60, Type (0, 1), BuildingBlock: XUDNAN_clean_linker_2, # of connection points: 2
#     Edge 61, Type (0, 1), BuildingBlock: XUDNAN_clean_linker_2, # of connection points: 2
#     Edge 62, Type (0, 1), BuildingBlock: XUDNAN_clean_linker_2, # of connection points: 2
#     Edge 63, Type (0, 1), BuildingBlock: XUDNAN_clean_linker_2, # of connection points: 2
#     Edge 64, Type (0, 1), BuildingBlock: XUDNAN_clean_linker_2, # of connection points: 2
#     Edge 65, Type (0, 1), BuildingBlock: XUDNAN_clean_linker_2, # of connection points: 2
#     Edge 66, Type (0, 1), BuildingBlock: XUDNAN_clean_linker_2, # of connection points: 2
#     Edge 67, Type (0, 1), BuildingBlock: XUDNAN_clean_linker_2, # of connection points: 2
#     Edge 68, Type (0, 1), BuildingBlock: XUDNAN_clean_linker_2, # of connection points: 2
#     Edge 69, Type (0, 1), BuildingBlock: XUDNAN_clean_linker_2, # of connection points: 2
#     Edge 70, Type (0, 1), BuildingBlock: XUDNAN_clean_linker_2, # of connection points: 2
#     Edge 71, Type (0, 1), BuildingBlock: XUDNAN_clean_linker_2, # of connection points: 2
#     Edge 72, Type (0, 1), BuildingBlock: XUDNAN_clean_linker_2, # of connection points: 2
#     Edge 73, Type (0, 1), BuildingBlock: XUDNAN_clean_linker_2, # of connection points: 2
#     Edge 74, Type (0, 1), BuildingBlock: XUDNAN_clean_linker_2, # of connection points: 2
#     Edge 75, Type (0, 1), BuildingBlock: XUDNAN_clean_linker_2, # of connection points: 2
#     Edge 76, Type (0, 1), BuildingBlock: XUDNAN_clean_linker_2, # of connection points: 2
#     Edge 77, Type (0, 1), BuildingBlock: XUDNAN_clean_linker_2, # of connection points: 2
#     Edge 78, Type (0, 1), BuildingBlock: XUDNAN_clean_linker_2, # of connection points: 2
#     Edge 79, Type (0, 1), BuildingBlock: XUDNAN_clean_linker_2, # of connection points: 2
#     Edge 80, Type (0, 1), BuildingBlock: XUDNAN_clean_linker_2, # of connection points: 2
#     Edge 81, Type (0, 1), BuildingBlock: XUDNAN_clean_linker_2, # of connection points: 2
#     Edge 82, Type (0, 1), BuildingBlock: XUDNAN_clean_linker_2, # of connection points: 2
#     Edge 83, Type (0, 1), BuildingBlock: XUDNAN_clean_linker_2, # of connection points: 2
#     Edge 84, Type (0, 1), BuildingBlock: XUDNAN_clean_linker_2, # of connection points: 2
#     Edge 85, Type (0, 1), BuildingBlock: XUDNAN_clean_linker_2, # of connection points: 2
#     Edge 86, Type (0, 1), BuildingBlock: XUDNAN_clean_linker_2, # of connection points: 2
#     Edge 87, Type (0, 1), BuildingBlock: XUDNAN_clean_linker_2, # of connection points: 2
#     Edge 88, Type (0, 1), BuildingBlock: XUDNAN_clean_linker_2, # of connection points: 2
#     Edge 89, Type (0, 1), BuildingBlock: XUDNAN_clean_linker_2, # of connection points: 2
#     Edge 90, Type (0, 1), BuildingBlock: XUDNAN_clean_linker_2, # of connection points: 2
#     Edge 91, Type (0, 1), BuildingBlock: XUDNAN_clean_linker_2, # of connection points: 2
#     Edge 92, Type (0, 1), BuildingBlock: XUDNAN_clean_linker_2, # of connection points: 2
#     Edge 93, Type (0, 1), BuildingBlock: XUDNAN_clean_linker_2, # of connection points: 2
#     Edge 94, Type (0, 1), BuildingBlock: XUDNAN_clean_linker_2, # of connection points: 2
#     Edge 95, Type (0, 1), BuildingBlock: XUDNAN_clean_linker_2, # of connection points: 2
#     Edge 96, Type (0, 1), BuildingBlock: XUDNAN_clean_linker_2, # of connection points: 2
#     Edge 97, Type (0, 1), BuildingBlock: XUDNAN_clean_linker_2, # of connection points: 2
#     Edge 98, Type (0, 1), BuildingBlock: XUDNAN_clean_linker_2, # of connection points: 2
#     Edge 99, Type (0, 1), BuildingBlock: XUDNAN_clean_linker_2, # of connection points: 2
#     Edge 100, Type (0, 1), BuildingBlock: XUDNAN_clean_linker_2, # of connection points: 2
#     Edge 101, Type (0, 1), BuildingBlock: XUDNAN_clean_linker_2, # of connection points: 2
#     Edge 102, Type (0, 1), BuildingBlock: XUDNAN_clean_linker_2, # of connection points: 2
#     Edge 103, Type (0, 1), BuildingBlock: XUDNAN_clean_linker_2, # of connection points: 2
#     Edge 104, Type (0, 1), BuildingBlock: XUDNAN_clean_linker_2, # of connection points: 2
#     Edge 105, Type (0, 1), BuildingBlock: XUDNAN_clean_linker_2, # of connection points: 2
#     Edge 106, Type (0, 1), BuildingBlock: XUDNAN_clean_linker_2, # of connection points: 2
#     Edge 107, Type (0, 1), BuildingBlock: XUDNAN_clean_linker_2, # of connection points: 2
#     Edge 108, Type (0, 1), BuildingBlock: XUDNAN_clean_linker_2, # of connection points: 2
#     Edge 109, Type (0, 1), BuildingBlock: XUDNAN_clean_linker_2, # of connection points: 2
#     Edge 110, Type (0, 1), BuildingBlock: XUDNAN_clean_linker_2, # of connection points: 2
#     Edge 111, Type (0, 1), BuildingBlock: XUDNAN_clean_linker_2, # of connection points: 2
#     Edge 112, Type (0, 1), BuildingBlock: XUDNAN_clean_linker_2, # of connection points: 2
#     Edge 113, Type (0, 1), BuildingBlock: XUDNAN_clean_linker_2, # of connection points: 2
#     Edge 114, Type (0, 1), BuildingBlock: XUDNAN_clean_linker_2, # of connection points: 2
#     Edge 115, Type (0, 1), BuildingBlock: XUDNAN_clean_linker_2, # of connection points: 2
#     Edge 116, Type (0, 1), BuildingBlock: XUDNAN_clean_linker_2, # of connection points: 2
#     Edge 117, Type (0, 1), BuildingBlock: XUDNAN_clean_linker_2, # of connection points: 2
#     Edge 118, Type (0, 1), BuildingBlock: XUDNAN_clean_linker_2, # of connection points: 2
#     Edge 119, Type (0, 1), BuildingBlock: XUDNAN_clean_linker_2, # of connection points: 2
#     Edge 120, Type (0, 1), BuildingBlock: XUDNAN_clean_linker_2, # of connection points: 2
#     Edge 121, Type (0, 1), BuildingBlock: XUDNAN_clean_linker_2, # of connection points: 2
#     Edge 122, Type (0, 1), BuildingBlock: XUDNAN_clean_linker_2, # of connection points: 2
#     Edge 123, Type (0, 1), BuildingBlock: XUDNAN_clean_linker_2, # of connection points: 2
#     Edge 124, Type (0, 1), BuildingBlock: XUDNAN_clean_linker_2, # of connection points: 2
#     Edge 125, Type (0, 1), BuildingBlock: XUDNAN_clean_linker_2, # of connection points: 2
#     Edge 126, Type (0, 1), BuildingBlock: XUDNAN_clean_linker_2, # of connection points: 2
#     Edge 127, Type (0, 1), BuildingBlock: XUDNAN_clean_linker_2, # of connection points: 2
#     Edge 128, Type (0, 1), BuildingBlock: XUDNAN_clean_linker_2, # of connection points: 2
#     Edge 129, Type (0, 1), BuildingBlock: XUDNAN_clean_linker_2, # of connection points: 2
#     Edge 130, Type (0, 1), BuildingBlock: XUDNAN_clean_linker_2, # of connection points: 2
#     Edge 131, Type (0, 1), BuildingBlock: XUDNAN_clean_linker_2, # of connection points: 2
#     Edge 132, Type (0, 1), BuildingBlock: XUDNAN_clean_linker_2, # of connection points: 2
#     Edge 133, Type (0, 1), BuildingBlock: XUDNAN_clean_linker_2, # of connection points: 2
#     Edge 134, Type (0, 1), BuildingBlock: XUDNAN_clean_linker_2, # of connection points: 2
#     Edge 135, Type (0, 1), BuildingBlock: XUDNAN_clean_linker_2, # of connection points: 2
# Relax obj value: 0.181
# Max RMSD: 0.302
# Mean RMSD: 0.149
data_MOF--net-gar--node1-CEKHIL_clean_sbu_0--node2-BETDIP_clean_sbu_0--edge1-XUDNAN_clean_linker_2
_symmetry_space_group_name_H-M    P1
_symmetry_Int_Tables_number       1
_symmetry_cell_setting            triclinic
loop_
_symmetry_equiv_pos_as_xyz
'x, y, z'
_cell_length_a     63.358839
_cell_length_b     56.317006
_cell_length_c     53.358258
_cell_angle_alpha  96.695494
_cell_angle_beta   98.530754
_cell_angle_gamma 100.6163
loop_
_atom_site_label
_atom_site_type_symbol
_atom_site_fract_x
_atom_site_fract_y
_atom_site_fract_z
_atom_type_partial_charge
Co0 Co 0.06008 0.34154 0.39835 0.0
O1 O 0.09042 0.3456 0.39609 0.0
O2 O 0.06302 0.3332 0.36324 0.0
C3 C 0.06114 0.37653 0.42339 0.0
O4 O 1.02711 0.33646 0.39304 0.0
Co5 Co 0.04416 0.33788 0.45073 0.0
O6 O 1.01589 0.34075 0.43121 0.0
C7 C 0.05692 0.29561 0.42364 0.0
C8 C 0.08391 0.3383 0.37167 0.0
C9 C 1.01233 0.33831 0.40683 0.0
O10 O 0.05949 0.3067 0.40425 0.0
O11 O 0.05212 0.30534 0.44435 0.0
O12 O 0.06112 0.37635 0.39899 0.0
O13 O 0.06369 0.35664 0.43215 0.0
Co14 Co 0.06955 0.76431 0.72967 0.0
O15 O 0.03858 0.75813 0.72749 0.0
O16 O 0.06164 0.75032 0.75938 0.0
C17 C 0.07171 0.80215 0.71916 0.0
O18 O 0.1025 0.76886 0.7384 0.0
Co19 Co 0.09101 0.77729 0.68224 0.0
O20 O 0.11832 0.78575 0.70777 0.0
C21 C 0.06968 0.72634 0.68527 0.0
C22 C 0.04168 0.75102 0.74975 0.0
C23 C 0.11942 0.77819 0.72944 0.0
O24 O 0.06802 0.73139 0.70904 0.0
O25 O 0.07575 0.74249 0.67135 0.0
O26 O 0.0712 0.79904 0.74283 0.0
O27 O 0.06985 0.78267 0.70327 0.0
Co28 Co 0.55345 0.82743 0.90478 0.0
O29 O 0.58239 0.82377 0.90192 0.0
O30 O 0.55668 0.82512 0.86925 0.0
C31 C 0.56253 0.85753 0.93827 0.0
O32 O 0.52204 0.83153 0.90063 0.0
Co33 Co 0.53399 0.81823 0.95397 0.0
O34 O 0.51271 0.83698 0.93964 0.0
C35 C 0.53581 0.77652 0.91546 0.0
C36 C 0.57644 0.82264 0.87738 0.0
C37 C 0.50918 0.83756 0.91563 0.0
O38 O 0.54374 0.79097 0.90075 0.0
O39 O 0.53172 0.78377 0.93756 0.0
O40 O 0.56334 0.86261 0.91521 0.0
O41 O 0.55838 0.83464 0.94039 0.0
Co42 Co 0.57232 0.27599 0.21723 0.0
O43 O 0.54257 0.27825 0.21687 0.0
O44 O 0.56068 0.25768 0.24243 0.0
C45 C 0.58545 0.31572 0.21786 0.0
O46 O 0.60331 0.27059 0.2232 0.0
Co47 Co 0.59384 0.29 0.17053 0.0
O48 O 0.62067 0.28732 0.19354 0.0
C49 C 0.56477 0.24216 0.1661 0.0
C50 C 0.54281 0.26528 0.23542 0.0
C51 C 0.6206 0.27716 0.21369 0.0
O52 O 0.56346 0.24643 0.19001 0.0
O53 O 0.57443 0.25806 0.15407 0.0
O54 O 0.58206 0.30771 0.23903 0.0
O55 O 0.57841 0.30038 0.19705 0.0
Co56 Co 0.09089 0.81466 0.16831 0.0
O57 O 0.05952 0.8112 0.15843 0.0
O58 O 0.07561 0.80776 0.19687 0.0
C59 C 0.09913 0.84949 0.14966 0.0
O60 O 0.12249 0.81725 0.18705 0.0
Co61 Co 0.12259 0.81292 0.1306 0.0
O62 O 0.14675 0.82032 0.16041 0.0
C63 C 0.09544 0.76651 0.13818 0.0
C64 C 0.05753 0.80752 0.18162 0.0
C65 C 0.14231 0.81945 0.18281 0.0
O66 O 0.0884 0.77831 0.15644 0.0
O67 O 0.10801 0.7773 0.12445 0.0
O68 O 0.09437 0.85061 0.17259 0.0
O69 O 0.09842 0.82758 0.13859 0.0
Co70 Co 0.5386 0.78227 0.45203 0.0
O71 O 0.56987 0.78578 0.4618 0.0
O72 O 0.55226 0.77384 0.42232 0.0
C73 C 0.5366 0.81908 0.47362 0.0
O74 O 0.5064 0.77836 0.4342 0.0
Co75 Co 0.50896 0.77902 0.49276 0.0
O76 O 0.48604 0.78335 0.46489 0.0
C77 C 0.52973 0.73776 0.48016 0.0
C78 C 0.57087 0.77937 0.43794 0.0
C79 C 0.48817 0.78092 0.44142 0.0
O80 O 0.53418 0.74694 0.45992 0.0
O81 O 0.52157 0.74912 0.4973 0.0
O82 O 0.54238 0.81751 0.45124 0.0
O83 O 0.53423 0.79888 0.48327 0.0
Co84 Co 0.59694 0.31646 0.67276 0.0
O85 O 0.56535 0.3122 0.67143 0.0
O86 O 0.5888 0.30941 0.7052 0.0
C87 C 0.60022 0.35128 0.65289 0.0
O88 O 0.63038 0.31986 0.6836 0.0
Co89 Co 0.61852 0.31431 0.62502 0.0
O90 O 0.64662 0.31933 0.64906 0.0
C91 C 0.59673 0.26805 0.63907 0.0
C92 C 0.56864 0.30846 0.69514 0.0
C93 C 0.64757 0.32002 0.67317 0.0
O94 O 0.594 0.27988 0.66027 0.0
O95 O 0.60462 0.27871 0.62161 0.0
O96 O 0.59971 0.3526 0.67729 0.0
O97 O 0.59783 0.32924 0.64131 0.0
Co98 Co 0.03769 0.27889 0.95111 0.0
O99 O 0.06913 0.28368 0.96072 0.0
O100 O 0.05145 0.26986 0.9216 0.0
C101 C 0.03536 0.31604 0.97153 0.0
O102 O 1.00512 0.27279 0.93346 0.0
Co103 Co 1.00755 0.27708 0.99116 0.0
O104 O 0.98461 0.28114 0.963 0.0
C105 C 0.0292 0.23563 0.98095 0.0
C106 C 0.07014 0.27642 0.93705 0.0
C107 C 0.98675 0.27638 0.93969 0.0
O108 O 0.03441 0.24434 0.96076 0.0
O109 O 1.02004 0.24715 0.99696 0.0
O110 O 0.04051 0.31383 0.94884 0.0
O111 O 0.03323 0.29622 0.98185 0.0
Co112 Co 0.43215 0.06961 0.30392 0.0
O113 O 0.43733 0.10692 0.30782 0.0
O114 O 0.4058 0.08501 0.29301 0.0
C115 C 0.45055 0.06674 0.34627 0.0
O116 O 0.41605 0.03184 0.29962 0.0
Co117 Co 0.46427 0.03578 0.30635 0.0
O118 O 0.44009 1.00783 0.30738 0.0
C119 C 0.45918 0.05759 0.2585 0.0
C120 C 0.41685 0.10721 0.30023 0.0
C121 C 0.42039 1.01032 0.30285 0.0
O122 O 0.4427 0.0662 0.26657 0.0
O123 O 0.4707 0.04654 0.2731 0.0
O124 O 0.43114 0.07154 0.34176 0.0
O125 O 0.45896 0.06526 0.32559 0.0
Co126 Co 0.28129 0.16863 0.52896 0.0
O127 O 0.31282 0.17036 0.53304 0.0
O128 O 0.28853 0.13734 0.53435 0.0
C129 C 0.27924 0.1893 0.49443 0.0
O130 O 0.24764 0.1582 0.52508 0.0
Co131 Co 0.25958 0.21379 0.53236 0.0
O132 O 0.23154 0.19021 0.52112 0.0
C133 C 0.28063 0.19904 0.57991 0.0
C134 C 0.3089 0.14734 0.53545 0.0
C135 C 0.23036 0.16745 0.52155 0.0
O136 O 0.28388 0.17937 0.56729 0.0
O137 O 0.27265 0.21536 0.56914 0.0
O138 O 0.27952 0.1661 0.49125 0.0
O139 O 0.28115 0.19911 0.51789 0.0
Co140 Co 0.16713 0.0714 0.83816 0.0
O141 O 0.15763 0.03634 0.83518 0.0
O142 O 0.18962 0.05549 0.82839 0.0
C143 C 0.15612 0.07989 0.87591 0.0
O144 O 0.18435 0.10611 0.84082 0.0
Co145 Co 0.13768 0.10773 0.83757 0.0
O146 O 0.16396 0.13443 0.84388 0.0
C147 C 0.13834 0.07788 0.78921 0.0
C148 C 0.1766 0.03502 0.82926 0.0
C149 C 0.1823 0.12845 0.84351 0.0
O150 O 0.15437 0.07009 0.80091 0.0
O151 O 0.1282 0.09219 0.80077 0.0
O152 O 0.1748 0.07379 0.87495 0.0
O153 O 0.14391 0.07972 0.85404 0.0
Co154 Co 0.24783 0.9032 0.99832 0.0
O155 O 0.22098 0.89548 1.01134 0.0
O156 O 0.24469 0.93097 0.02066 0.0
C157 C 0.23493 0.88723 0.95724 0.0
O158 O 0.27648 0.9185 0.9889 0.0
Co159 Co 0.26979 0.8629 0.97527 0.0
O160 O 0.29226 0.89054 0.96976 0.0
C161 C 0.2726 0.87304 0.031 0.0
C162 C 0.2268 0.91737 0.02431 0.0
C163 C 0.29199 0.91258 0.97815 0.0
O164 O 0.26381 0.89159 0.02828 0.0
O165 O 0.27463 0.85789 1.01213 0.0
O166 O 0.23249 0.90901 0.96567 0.0
O167 O 0.24305 0.87527 0.97412 0.0
Co168 Co 0.33205 0.41417 0.07726 0.0
O169 O 0.30058 0.41047 0.0753 0.0
O170 O 0.32446 0.44487 0.08951 0.0
C171 C 0.33038 0.3934 0.0376 0.0
O172 O 0.36551 0.42655 0.07993 0.0
Co173 Co 0.35491 0.3698 0.07377 0.0
O174 O 0.37979 0.39416 0.06807 0.0
C175 C 0.33657 0.38268 0.11983 0.0
C176 C 0.30413 0.43363 0.08395 0.0
C177 C 0.38137 0.41716 0.07313 0.0
O178 O 0.3349 0.4038 0.11317 0.0
O179 O 0.34221 0.36608 0.10536 0.0
O180 O 0.32845 0.41612 0.04013 0.0
O181 O 0.33153 0.3839 0.05841 0.0
Co182 Co 0.86579 0.16298 0.10978 0.0
O183 O 0.89224 0.15229 0.11864 0.0
O184 O 0.86015 0.13497 0.12721 0.0
C185 C 0.86948 0.16722 0.06935 0.0
O186 O 0.83505 0.16828 0.10303 0.0
Co187 Co 0.86424 0.21376 0.09281 0.0
O188 O 0.83224 0.2006 0.08267 0.0
C189 C 0.87956 0.20933 0.1469 0.0
C190 C 0.88072 0.13486 0.12782 0.0
C191 C 0.82373 0.1817 0.09146 0.0
O192 O 0.87226 0.18612 0.14258 0.0
O193 O 0.88004 0.22289 0.12922 0.0
O194 O 0.86182 0.14578 0.07486 0.0
O195 O 0.87606 0.18454 0.08849 0.0
Co196 Co 0.18818 0.51663 0.32905 0.0
O197 O 0.18553 0.4789 0.32619 0.0
O198 O 0.21487 0.50294 0.32346 0.0
C199 C 0.16977 0.52255 0.3663 0.0
O200 O 0.20351 0.55474 0.33245 0.0
Co201 Co 0.15595 0.55073 0.32725 0.0
O202 O 0.17992 0.5798 0.32957 0.0
C203 C 0.15817 0.52285 0.27753 0.0
C204 C 0.20596 0.48039 0.3238 0.0
C205 C 0.19945 0.57673 0.33152 0.0
O206 O 0.17555 0.51555 0.28876 0.0
O207 O 0.14731 0.53483 0.29078 0.0
O208 O 0.18962 0.51874 0.36839 0.0
O209 O 0.16188 0.5222 0.34251 0.0
Co210 Co 0.83606 0.91493 0.57744 0.0
O211 O 0.80467 0.91273 0.57484 0.0
O212 O 0.82943 0.94605 0.59051 0.0
C213 C 0.83431 0.89514 0.53728 0.0
O214 O 0.86989 0.92543 0.5813 0.0
Co215 Co 0.85646 0.8687 0.5725 0.0
O216 O 0.88329 0.89211 0.5704 0.0
C217 C 0.83853 0.8819 0.61893 0.0
C218 C 0.80887 0.93573 0.58428 0.0
C219 C 0.88585 0.91516 0.57631 0.0
O220 O 0.83764 0.90338 0.61278 0.0
O221 O 0.84352 0.86512 0.60402 0.0
O222 O 0.83346 0.91817 0.54061 0.0
O223 O 0.83449 0.88487 0.55756 0.0
Co224 Co 0.9544 0.02239 0.28315 0.0
O225 O 0.96091 0.0572 0.28271 0.0
O226 O 0.92801 0.03351 0.27173 0.0
C227 C 0.97406 0.02392 0.32252 0.0
O228 O 0.9406 0.98628 0.28258 0.0
Co229 Co 0.99015 0.99143 0.28673 0.0
O230 O 0.96724 0.96734 0.29692 0.0
C231 C 0.97687 1.0095 0.23829 0.0
C232 C 0.9401 0.05535 0.27554 0.0
C233 C 0.94711 0.96793 0.29121 0.0
O234 O 0.96065 1.01647 0.24687 0.0
O235 O 0.99114 1.00064 0.25171 0.0
O236 O 0.95447 0.02825 0.32008 0.0
O237 O 0.98158 1.02054 0.30146 0.0
Co238 Co 0.34775 0.6736 0.59139 0.0
O239 O 0.37402 0.67946 0.57712 0.0
O240 O 0.36119 0.64572 0.59248 0.0
C241 C 0.32557 0.68574 0.56105 0.0
O242 O 0.32108 0.66094 0.60643 0.0
Co243 Co 0.32739 0.71774 0.60901 0.0
O244 O 0.30504 0.69208 0.61828 0.0
C245 C 0.36827 0.7115 0.63692 0.0
C246 C 0.37588 0.65764 0.5814 0.0
C247 C 0.30599 0.66951 0.61581 0.0
O248 O 0.36411 0.68899 0.6266 0.0
O249 O 0.35813 0.72718 0.62807 0.0
O250 O 0.33006 0.66416 0.55713 0.0
O251 O 0.33691 0.70004 0.58105 0.0
Co252 Co 0.45756 0.51574 0.78269 0.0
O253 O 0.46384 0.55099 0.78443 0.0
O254 O 0.43149 0.52665 0.77021 0.0
C255 C 0.47594 0.51486 0.82212 0.0
O256 O 0.44351 0.47953 0.77962 0.0
Co257 Co 0.49264 0.48442 0.78434 0.0
O258 O 0.46959 0.45999 0.79402 0.0
C259 C 0.48073 0.50539 0.73748 0.0
C260 C 0.44328 0.54863 0.77514 0.0
C261 C 0.44958 0.46092 0.78803 0.0
O262 O 0.46471 0.51195 0.74685 0.0
O263 O 0.4946 0.49532 0.75003 0.0
O264 O 0.45642 0.51946 0.81931 0.0
O265 O 0.48434 0.51287 0.80149 0.0
Co266 Co 0.68962 1.01505 0.82976 0.0
O267 O 0.68459 0.97783 0.82843 0.0
O268 O 0.71481 0.99821 0.82265 0.0
C269 C 0.67476 0.02297 0.86953 0.0
O270 O 0.7057 0.05236 0.82997 0.0
Co271 Co 0.65942 0.05062 0.83062 0.0
O272 O 0.68423 0.07921 0.83531 0.0
C273 C 0.65903 0.0224 0.77959 0.0
C274 C 0.70428 0.97665 0.82464 0.0
C275 C 0.70279 0.07498 0.8323 0.0
O276 O 0.67533 1.01307 0.79014 0.0
O277 O 0.64988 0.03617 0.79342 0.0
O278 O 0.69431 1.01894 0.86892 0.0
O279 O 0.66458 0.02215 0.84646 0.0
Co280 Co 0.78129 0.66738 0.03067 0.0
O281 O 0.8132 0.67098 0.0347 0.0
O282 O 0.79042 0.63869 0.0412 0.0
C283 C 0.77693 0.68213 0.99249 0.0
O284 O 0.74857 0.65391 0.02828 0.0
Co285 Co 0.75371 0.70596 0.02805 0.0
O286 O 0.72664 0.68042 0.02392 0.0
C287 C 0.7787 0.70179 0.07802 0.0
C288 C 0.81041 0.64913 0.04112 0.0
C289 C 0.72937 0.65888 0.02586 0.0
O290 O 0.784 0.68239 0.06764 0.0
O291 O 0.76775 0.71467 0.06516 0.0
O292 O 0.77866 0.65957 0.99354 0.0
O293 O 0.77818 0.6954 0.0144 0.0
Co294 Co 0.93144 0.56755 0.8031 0.0
O295 O 0.93386 0.60509 0.80678 0.0
O296 O 0.90419 0.57992 0.7908 0.0
C297 C 0.94983 0.5653 0.84542 0.0
O298 O 0.91674 0.52941 0.79868 0.0
Co299 Co 0.9648 0.53525 0.80642 0.0
O300 O 0.94139 0.50627 0.80689 0.0
C301 C 0.95895 0.5565 0.75824 0.0
C302 C 0.91314 0.60283 0.79789 0.0
C303 C 0.92154 0.50814 0.80196 0.0
O304 O 0.94235 0.56488 0.76615 0.0
O305 O 0.97065 0.5457 0.77291 0.0
O306 O 0.92997 0.56886 0.84078 0.0
O307 O 0.95852 0.56457 0.82496 0.0
Co308 Co 0.74519 0.42493 0.49305 0.0
O309 O 0.71661 0.4184 0.502 0.0
O310 O 0.74238 0.45158 0.51717 0.0
C311 C 0.73598 0.41372 0.45061 0.0
O312 O 0.776 0.43843 0.48835 0.0
Co313 Co 0.7654 0.38332 0.46984 0.0
O314 O 0.79097 0.40966 0.46911 0.0
C315 C 0.76145 0.38792 0.52389 0.0
C316 C 0.72319 0.4388 0.51772 0.0
C317 C 0.79184 0.43164 0.47896 0.0
O318 O 0.75642 0.40878 0.52226 0.0
O319 O 0.76348 0.37343 0.50449 0.0
O320 O 0.73439 0.43537 0.46072 0.0
O321 O 0.74041 0.39905 0.46656 0.0
Co322 Co 0.66577 0.57231 0.3351 0.0
O323 O 0.65871 0.53697 0.32849 0.0
O324 O 0.6879 0.56037 0.31925 0.0
C325 C 0.65826 0.57446 0.37568 0.0
O326 O 0.68034 0.6085 0.33981 0.0
Co327 Co 0.63428 0.60497 0.34725 0.0
O328 O 0.65958 0.63288 0.35495 0.0
C329 C 0.63207 0.58328 0.29334 0.0
C330 C 0.67673 0.53864 0.31935 0.0
C331 C 0.67745 0.62981 0.34823 0.0
O332 O 0.64888 0.57414 0.30007 0.0
O333 O 0.62321 0.59498 0.3095 0.0
O334 O 0.67713 0.57109 0.37099 0.0
O335 O 0.64426 0.57579 0.35588 0.0
Tb336 Tb 0.04968 0.02438 0.04044 0.0
Tb337 Tb 0.08753 0.05609 0.07687 0.0
C338 C 1.01022 1.00551 0.02357 0.0
C339 C 0.99269 1.01305 0.03559 0.0
C340 C 0.99925 0.0307 0.05729 0.0
C341 C 0.98457 0.03675 0.07226 0.0
C342 C 0.96218 0.02709 0.06467 0.0
C343 C 0.95519 1.00954 0.04233 0.0
C344 C 0.97051 1.00219 0.02806 0.0
C345 C 0.08464 0.03456 0.01926 0.0
C346 C 0.05676 0.08335 0.04567 0.0
C347 C 0.12539 0.0731 0.10082 0.0
C348 C 0.14007 0.0605 0.11568 0.0
C349 C 0.16114 0.06186 0.11025 0.0
C350 C 0.17219 0.04316 0.11494 0.0
C351 C 0.16232 0.02288 0.12531 0.0
C352 C 0.14264 0.02358 0.1343 0.0
C353 C 0.13148 0.04217 0.12932 0.0
C354 C 0.05179 0.04619 0.09663 0.0
C355 C 0.0816 0.997 0.07046 0.0
O356 O 1.02301 0.99556 0.03872 0.0
O357 O 1.02147 0.02236 1.01314 0.0
O358 O 0.07863 0.0483 0.03602 0.0
O359 O 0.06938 1.01501 1.01203 0.0
O360 O 0.04296 0.06182 0.0403 0.0
O361 O 0.07679 0.08544 0.05827 0.0
O362 O 0.12095 0.06447 0.07634 0.0
O363 O 0.10795 0.07653 0.11 0.0
O364 O 0.05867 0.03208 0.08112 0.0
O365 O 0.06576 0.06682 0.10239 0.0
O366 O 0.09294 1.01885 0.0817 0.0
O367 O 0.06394 0.99449 0.05298 0.0
H368 H 1.01611 0.03935 0.06325 0.0
H369 H 0.99106 0.04925 0.08986 0.0
H370 H 0.93805 1.00174 0.03576 0.0
H371 H 0.96512 0.98831 1.01133 0.0
H372 H 0.16799 0.07579 0.09965 0.0
H373 H 0.18727 0.04339 0.10764 0.0
H374 H 0.13486 1.00858 0.14291 0.0
H375 H 0.1152 0.04073 0.13378 0.0
Tb376 Tb 0.31715 0.78321 0.29623 0.0
Tb377 Tb 0.30342 0.80423 0.33958 0.0
C378 C 0.32452 0.7739 0.25153 0.0
C379 C 0.32427 0.78903 0.23105 0.0
C380 C 0.31262 0.80792 0.23185 0.0
C381 C 0.31176 0.8222 0.21234 0.0
C382 C 0.32265 0.81798 0.1917 0.0
C383 C 0.33467 0.7993 0.19115 0.0
C384 C 0.33549 0.7849 0.21079 0.0
C385 C 0.34438 0.78199 0.33898 0.0
C386 C 0.33088 0.84282 0.31332 0.0
C387 C 0.29288 0.81332 0.38256 0.0
C388 C 0.28596 0.79679 0.40045 0.0
C389 C 0.2973 0.77831 0.40587 0.0
C390 C 0.29002 0.76173 0.42161 0.0
C391 C 0.27103 0.76298 0.43201 0.0
C392 C 0.25945 0.78125 0.42617 0.0
C393 C 0.2669 0.79805 0.41051 0.0
C394 C 0.27782 0.80736 0.29599 0.0
C395 C 0.29003 0.74492 0.3239 0.0
O396 O 0.30559 0.76698 0.25817 0.0
O397 O 0.33991 0.78208 0.27138 0.0
O398 O 0.3351 0.79927 0.33359 0.0
O399 O 0.33814 0.76437 0.31988 0.0
O400 O 0.32769 0.82385 0.29457 0.0
O401 O 0.32376 0.839 0.33489 0.0
O402 O 0.31314 0.81552 0.3791 0.0
O403 O 0.2793 0.81054 0.36102 0.0
O404 O 0.28563 0.78918 0.30177 0.0
O405 O 0.28444 0.82441 0.31548 0.0
O406 O 0.29386 0.76407 0.34236 0.0
O407 O 0.29668 0.74835 0.30196 0.0
H408 H 0.30382 0.81134 0.24736 0.0
H409 H 0.30196 0.83606 0.21306 0.0
H410 H 0.3433 0.79576 0.1755 0.0
H411 H 0.34467 0.77047 0.21005 0.0
H412 H 0.31185 0.77662 0.39799 0.0
H413 H 0.29974 0.7484 0.4262 0.0
H414 H 0.24475 0.78263 0.43382 0.0
H415 H 0.25772 0.81193 0.40609 0.0
Tb416 Tb 0.58125 0.04176 0.54815 0.0
Tb417 Tb 0.5379 0.04175 0.57065 0.0
C418 C 0.6198 0.03852 0.54288 0.0
C419 C 0.63935 0.02899 0.5533 0.0
C420 C 0.63863 1.00397 0.55449 0.0
C421 C 0.6579 0.99538 0.56167 0.0
C422 C 0.67842 1.01155 0.56782 0.0
C423 C 0.6789 0.03656 0.56677 0.0
C424 C 0.65973 0.04508 0.55966 0.0
C425 C 0.54841 0.04939 0.51144 0.0
C426 C 0.54862 0.99138 0.54818 0.0
C427 C 0.49894 0.04454 0.57406 0.0
C428 C 0.48053 0.05668 0.56534 0.0
C429 C 0.46379 0.04477 0.54499 0.0
C430 C 0.44452 0.0536 0.53961 0.0
C431 C 0.44127 0.07461 0.55444 0.0
C432 C 0.45847 0.0873 0.57394 0.0
C433 C 0.47776 0.07837 0.57942 0.0
C434 C 0.57039 0.03398 0.60746 0.0
C435 C 0.57194 0.09135 0.57481 0.0
O436 O 0.61501 0.05709 0.5565 0.0
O437 O 0.6023 0.02276 0.53105 0.0
O438 O 0.54857 0.04641 0.53482 0.0
O439 O 0.56834 0.04884 0.50865 0.0
O440 O 0.56874 1.00287 0.54768 0.0
O441 O 0.53343 1.00298 0.55499 0.0
O442 O 0.50429 0.02863 0.55741 0.0
O443 O 0.51604 0.05758 0.58991 0.0
O444 O 0.57068 0.03699 0.5841 0.0
O445 O 0.55051 0.03505 0.61015 0.0
O446 O 0.55106 0.08081 0.57206 0.0
O447 O 0.58692 0.07889 0.56914 0.0
H448 H 0.62325 0.99095 0.54951 0.0
H449 H 0.65668 0.97606 0.56244 0.0
H450 H 0.69423 0.04966 0.57078 0.0
H451 H 0.66094 0.06435 0.55848 0.0
H452 H 0.46515 0.02797 0.5338 0.0
H453 H 0.43185 0.0435 0.52418 0.0
H454 H 0.45658 0.10342 0.58587 0.0
H455 H 0.49012 0.08795 0.59544 0.0
Tb456 Tb 0.29457 0.29508 0.80887 0.0
Tb457 Tb 0.34144 0.28366 0.81829 0.0
C458 C 0.25482 0.29627 0.81013 0.0
C459 C 0.23784 0.29386 0.82691 0.0
C460 C 0.21658 0.28095 0.81641 0.0
C461 C 0.19991 0.27872 0.83121 0.0
C462 C 0.20383 0.28971 0.85705 0.0
C463 C 0.22521 0.30294 0.86745 0.0
C464 C 0.24197 0.30488 0.85266 0.0
C465 C 0.32745 0.32917 0.80244 0.0
C466 C 0.32335 0.30457 0.86565 0.0
C467 C 0.38148 0.28569 0.81661 0.0
C468 C 0.3981 0.28406 0.79956 0.0
C469 C 0.40543 0.30335 0.78624 0.0
C470 C 0.42386 0.30357 0.77427 0.0
C471 C 0.43561 0.28468 0.77558 0.0
C472 C 0.42755 0.26487 0.7878 0.0
C473 C 0.40917 0.26461 0.79964 0.0
C474 C 0.31043 0.25086 0.82926 0.0
C475 C 0.31188 0.27063 0.76199 0.0
O476 O 0.26172 0.27655 0.80264 0.0
O477 O 0.2707 0.31561 0.81529 0.0
O478 O 0.32709 0.3146 0.81838 0.0
O479 O 0.30779 0.32623 0.78954 0.0
O480 O 0.3037 0.3005 0.85106 0.0
O481 O 0.34113 0.30142 0.85645 0.0
O482 O 0.37213 0.30457 0.8169 0.0
O483 O 0.36797 0.26568 0.81888 0.0
O484 O 0.30858 0.26343 0.8112 0.0
O485 O 0.33081 0.25467 0.84014 0.0
O486 O 0.33123 0.27391 0.77684 0.0
O487 O 0.29462 0.27678 0.77038 0.0
H488 H 0.21282 0.27243 0.79655 0.0
H489 H 0.18399 0.26805 0.82236 0.0
H490 H 0.22907 0.31219 0.887 0.0
H491 H 0.25809 0.31519 0.86134 0.0
H492 H 0.39754 0.31885 0.78595 0.0
H493 H 0.42957 0.31919 0.7652 0.0
H494 H 0.4359 0.24978 0.7889 0.0
H495 H 0.40417 0.24959 0.80986 0.0
Tb496 Tb 0.05401 0.06508 0.55759 0.0
Tb497 Tb 0.06834 1.01316 0.54812 0.0
C498 C 0.05612 0.10955 0.55706 0.0
C499 C 0.05922 0.12411 0.5362 0.0
C500 C 0.04515 0.11763 0.51237 0.0
C501 C 0.04823 0.13134 0.49263 0.0
C502 C 0.06556 0.15154 0.49619 0.0
C503 C 0.08014 0.15751 0.51961 0.0
C504 C 0.07692 0.14393 0.53954 0.0
C505 C 1.02354 0.02849 0.56576 0.0
C506 C 0.04463 0.03296 0.50138 0.0
C507 C 0.07104 0.96957 0.54801 0.0
C508 C 0.0716 0.955 0.56893 0.0
C509 C 0.06376 0.96224 0.59127 0.0
C510 C 0.06657 0.94998 0.61236 0.0
C511 C 0.07776 0.93065 0.61166 0.0
C512 C 0.08614 0.92398 0.58942 0.0
C513 C 0.08292 0.93594 0.56818 0.0
C514 C 0.09785 0.05065 0.53941 0.0
C515 C 0.07751 0.04408 0.60435 0.0
O516 O 0.07295 0.10067 0.56625 0.0
O517 O 0.03759 0.09368 0.55373 0.0
O518 O 0.04207 0.02789 0.55977 0.0
O519 O 1.02204 0.05132 0.56823 0.0
O520 O 0.04584 0.05441 0.51566 0.0
O521 O 0.05082 1.01391 0.51043 0.0
O522 O 0.05259 0.97625 0.54049 0.0
O523 O 0.08804 0.98744 0.55094 0.0
O524 O 0.07937 0.05007 0.54543 0.0
O525 O 0.10028 0.02824 0.53753 0.0
O526 O 0.07556 0.02291 0.58953 0.0
O527 O 0.07128 0.06347 0.59591 0.0
H528 H 0.03161 0.10211 0.50894 0.0
H529 H 0.03682 0.12642 0.47468 0.0
H530 H 0.0935 0.17321 0.52282 0.0
H531 H 0.08814 0.149 0.55761 0.0
H532 H 0.05583 0.97764 0.59267 0.0
H533 H 0.05979 0.9555 0.62905 0.0
H534 H 0.09536 0.9096 0.58845 0.0
H535 H 0.08977 0.93074 0.55142 0.0
Tb536 Tb 0.31598 0.77036 0.81272 0.0
Tb537 Tb 0.31696 0.82362 0.80459 0.0
C538 C 0.32195 0.72751 0.81332 0.0
C539 C 0.33738 0.71166 0.80861 0.0
C540 C 0.35982 0.72071 0.81014 0.0
C541 C 0.37342 0.7048 0.80343 0.0
C542 C 0.36456 0.67989 0.7946 0.0
C543 C 0.34224 0.67099 0.79382 0.0
C544 C 0.32883 0.6867 0.80082 0.0
C545 C 0.29457 0.79433 0.84219 0.0
C546 C 0.35687 0.81238 0.8376 0.0
C547 C 0.31053 0.86602 0.80202 0.0
C548 C 0.29277 0.8793 0.80333 0.0
C549 C 0.27081 0.86719 0.79851 0.0
C550 C 0.25436 0.88051 0.80035 0.0
C551 C 0.25964 0.90609 0.80722 0.0
C552 C 0.28176 0.91792 0.81239 0.0
C553 C 0.29811 0.90466 0.81032 0.0
C554 C 0.33899 0.79943 0.77619 0.0
C555 C 0.27421 0.78281 0.78361 0.0
O556 O 0.31263 0.73517 0.79311 0.0
O557 O 0.32718 0.74436 0.83362 0.0
O558 O 0.31186 0.80279 0.83464 0.0
O559 O 0.29005 0.77086 0.8357 0.0
O560 O 0.34996 0.78916 0.82711 0.0
O561 O 0.34474 0.82886 0.83468 0.0
O562 O 0.31809 0.85872 0.82334 0.0
O563 O 0.30841 0.84948 0.78188 0.0
O564 O 0.32108 0.79105 0.78251 0.0
O565 O 0.34421 0.82274 0.78377 0.0
O566 O 0.28287 0.80617 0.79151 0.0
O567 O 0.28526 0.76531 0.78672 0.0
H568 H 0.36667 0.74002 0.81593 0.0
H569 H 0.39058 0.71207 0.80405 0.0
H570 H 0.33505 0.65186 0.78733 0.0
H571 H 0.31156 0.67942 0.79949 0.0
H572 H 0.26639 0.84753 0.79337 0.0
H573 H 0.23754 0.87082 0.79631 0.0
H574 H 0.28656 0.93745 0.81852 0.0
H575 H 0.315 0.91423 0.81451 0.0
Tb576 Tb 0.54275 0.04182 0.03838 0.0
Tb577 Tb 0.58042 0.04374 0.08101 0.0
C578 C 0.50845 0.02507 1.00652 0.0
C579 C 0.48471 0.02182 1.00262 0.0
C580 C 0.4737 0.02749 0.02274 0.0
C581 C 0.45089 1.0215 0.01886 0.0
C582 C 0.43898 1.0096 0.99489 0.0
C583 C 0.45016 1.00485 0.97463 0.0
C584 C 0.47284 1.01094 0.97849 0.0
C585 C 0.561 0.08583 0.06338 0.0
C586 C 0.53359 0.04161 0.09901 0.0
C587 C 0.61546 0.06027 0.11171 0.0
C588 C 0.63801 0.06941 0.1089 0.0
C589 C 0.65084 0.08864 0.12693 0.0
C590 C 0.67067 0.10099 0.12212 0.0
C591 C 0.67775 0.09446 0.09903 0.0
C592 C 0.66534 0.07446 0.08151 0.0
C593 C 0.64566 0.06186 0.08655 0.0
C594 C 0.56035 1.00009 0.05908 0.0
C595 C 0.58956 0.04365 0.02053 0.0
O596 O 0.51709 1.01243 0.02295 0.0
O597 O 0.51977 0.04735 1.0082 0.0
O598 O 0.55817 0.06573 0.0714 0.0
O599 O 0.55153 0.08196 0.03946 0.0
O600 O 0.52568 0.03986 0.07362 0.0
O601 O 0.55504 0.04336 0.10641 0.0
O602 O 0.60198 0.0738 0.10337 0.0
O603 O 0.60751 0.03682 0.10465 0.0
O604 O 0.5645 1.01879 0.04842 0.0
O605 O 0.56905 1.00524 0.08328 0.0
O606 O 0.59739 0.04735 0.04599 0.0
O607 O 0.56799 0.04001 1.01297 0.0
H608 H 0.48272 0.03582 0.04153 0.0
H609 H 0.44265 0.02519 0.03483 0.0
H610 H 0.44136 0.99596 0.95592 0.0
H611 H 0.48117 1.00645 0.96279 0.0
H612 H 0.64505 0.09481 0.14417 0.0
H613 H 0.67997 0.1164 0.13589 0.0
H614 H 0.6707 0.06888 0.06378 0.0
H615 H 0.63603 0.04684 0.07262 0.0
Tb616 Tb 0.29227 0.27669 0.30069 0.0
Tb617 Tb 0.33095 0.31015 0.32833 0.0
C618 C 0.25386 0.25265 0.28994 0.0
C619 C 0.23288 0.26038 0.28668 0.0
C620 C 0.2164 0.24909 0.29875 0.0
C621 C 0.19831 0.25945 0.30108 0.0
C622 C 0.1964 0.2811 0.29113 0.0
C623 C 0.21215 0.29157 0.27758 0.0
C624 C 0.23042 0.28136 0.27551 0.0
C625 C 0.31515 0.3011 0.27076 0.0
C626 C 0.28884 0.33479 0.32001 0.0
C627 C 0.36968 0.33307 0.33825 0.0
C628 C 0.38879 0.3245 0.33074 0.0
C629 C 0.38694 0.31111 0.30631 0.0
C630 C 0.40408 0.30099 0.29957 0.0
C631 C 0.42366 0.30411 0.31697 0.0
C632 C 0.42561 0.31756 0.34146 0.0
C633 C 0.40825 0.32766 0.34831 0.0
C634 C 0.30698 0.28828 0.35829 0.0
C635 C 0.33491 0.25307 0.30783 0.0
O636 O 0.26491 0.25842 0.31329 0.0
O637 O 0.26612 0.25712 0.27263 0.0
O638 O 0.31143 0.30885 0.29237 0.0
O639 O 0.30508 0.27839 0.26461 0.0
O640 O 0.27848 0.31168 0.30988 0.0
O641 O 0.31038 0.33854 0.3282 0.0
O642 O 0.35546 0.33642 0.31925 0.0
O643 O 0.36033 0.32137 0.35479 0.0
O644 O 0.31124 0.27851 0.33759 0.0
O645 O 0.31699 0.31106 0.36326 0.0
O646 O 0.34449 0.27666 0.31567 0.0
O647 O 0.31312 0.24792 0.30188 0.0
H648 H 0.21815 0.23309 0.30772 0.0
H649 H 0.18624 0.25114 0.31158 0.0
H650 H 0.21099 0.30841 0.27 0.0
H651 H 0.24314 0.2906 0.26645 0.0
H652 H 0.37199 0.30793 0.29246 0.0
H653 H 0.4018 0.29028 0.28078 0.0
H654 H 0.44058 0.32049 0.35521 0.0
H655 H 0.40993 0.33769 0.36734 0.0
Tb656 Tb 0.55092 0.56523 0.05494 0.0
Tb657 Tb 0.56123 0.51433 0.05626 0.0
C658 C 0.54823 0.60633 0.04314 0.0
C659 C 0.54458 0.6148 0.01804 0.0
C660 C 0.52389 0.60875 1.00236 0.0
C661 C 0.52066 0.61688 0.97867 0.0
C662 C 0.53805 0.631 0.97002 0.0
C663 C 0.55884 0.63652 0.98545 0.0
C664 C 0.56204 0.62859 1.00927 0.0
C665 C 0.51957 0.53071 0.0641 0.0
C666 C 0.54473 0.52848 1.00245 0.0
C667 C 0.55641 0.47127 0.06469 0.0
C668 C 0.56822 0.46031 0.0843 0.0
C669 C 0.55822 0.43818 0.09077 0.0
C670 C 0.56775 0.42945 0.11209 0.0
C671 C 0.58738 0.44281 0.12719 0.0
C672 C 0.59784 0.46454 0.12011 0.0
C673 C 0.58819 0.47337 0.09883 0.0
C674 C 0.59757 0.5448 0.05256 0.0
C675 C 0.57213 0.55365 0.10756 0.0
O676 O 0.56686 0.59971 0.04929 0.0
O677 O 0.53186 0.59133 0.04887 0.0
O678 O 0.53281 0.52885 0.04895 0.0
O679 O 0.52316 0.55339 0.07468 0.0
O680 O 0.54545 0.55085 0.01399 0.0
O681 O 0.54902 0.51064 0.01527 0.0
O682 O 0.54539 0.4868 0.07392 0.0
O683 O 0.56742 0.47936 0.04735 0.0
O684 O 0.57902 0.54983 0.05389 0.0
O685 O 0.59575 0.52168 0.05382 0.0
O686 O 0.56897 0.53037 0.0972 0.0
O687 O 0.56794 0.5709 0.09394 0.0
H688 H 0.51009 0.59798 1.00844 0.0
H689 H 0.50442 0.6125 0.9673 0.0
H690 H 0.57247 0.64793 0.9797 0.0
H691 H 0.57814 0.63352 0.02098 0.0
H692 H 0.54271 0.42809 0.07987 0.0
H693 H 0.55961 0.41241 0.11706 0.0
H694 H 0.61297 0.47504 0.13153 0.0
H695 H 0.5959 0.49077 0.09422 0.0
Tb696 Tb 0.81521 0.27775 0.325 0.0
Tb697 Tb 0.81407 0.32742 0.30633 0.0
C698 C 0.81554 0.23306 0.32368 0.0
C699 C 0.83086 0.21688 0.3193 0.0
C700 C 0.8226 0.19302 0.30659 0.0
C701 C 0.83669 0.17767 0.30056 0.0
C702 C 0.85947 0.18581 0.3072 0.0
C703 C 0.86767 0.20973 0.32037 0.0
C704 C 0.85351 0.22517 0.32619 0.0
C705 C 0.80342 0.31058 0.35571 0.0
C706 C 0.85754 0.31876 0.3397 0.0
C707 C 0.81274 0.3715 0.30496 0.0
C708 C 0.79563 0.38598 0.30331 0.0
C709 C 0.77741 0.38065 0.31542 0.0
C710 C 0.76132 0.39468 0.31326 0.0
C711 C 0.76306 0.41398 0.29866 0.0
C712 C 0.78137 0.4192 0.28669 0.0
C713 C 0.79749 0.40535 0.28904 0.0
C714 C 0.82655 0.29485 0.27527 0.0
C715 C 0.77169 0.28674 0.29121 0.0
O716 O 0.80851 0.24277 0.30374 0.0
O717 O 0.82021 0.24869 0.34497 0.0
O718 O 0.79926 0.3069 0.33187 0.0
O719 O 0.81182 0.29299 0.36398 0.0
O720 O 0.8495 0.29492 0.33617 0.0
O721 O 0.84614 0.33457 0.33109 0.0
O722 O 0.81671 0.36238 0.32624 0.0
O723 O 0.81231 0.35593 0.28454 0.0
O724 O 0.83031 0.2982 0.29922 0.0
O725 O 0.81774 0.31249 0.26793 0.0
O726 O 0.78005 0.31041 0.29407 0.0
O727 O 0.78265 0.27098 0.30088 0.0
H728 H 0.80517 0.18641 0.30079 0.0
H729 H 0.82964 0.15969 0.28991 0.0
H730 H 0.88503 0.21662 0.32622 0.0
H731 H 0.86026 0.24362 0.33584 0.0
H732 H 0.77557 0.3656 0.3264 0.0
H733 H 0.74736 0.3902 0.32262 0.0
H734 H 0.78338 0.43421 0.27569 0.0
H735 H 0.81144 0.40975 0.27962 0.0
Tb736 Tb 0.04209 0.55168 0.54084 0.0
Tb737 Tb 0.07296 0.53 0.57392 0.0
C738 C 1.00869 0.55902 0.51346 0.0
C739 C 0.98519 0.55002 0.51154 0.0
C740 C 0.97739 0.52971 0.52298 0.0
C741 C 0.95502 0.52012 0.51952 0.0
C742 C 0.94011 0.53076 0.50464 0.0
C743 C 0.94804 0.55141 0.49365 0.0
C744 C 0.97043 0.56093 0.49705 0.0
C745 C 0.07537 0.584 0.56895 0.0
C746 C 0.03141 0.54167 0.59768 0.0
C747 C 0.10544 0.52151 0.60218 0.0
C748 C 0.1292 0.52873 0.60543 0.0
C749 C 0.13921 0.53947 0.5866 0.0
C750 C 0.16126 0.55077 0.59209 0.0
C751 C 0.17349 0.55169 0.61657 0.0
C752 C 0.1637 0.53959 0.6348 0.0
C753 C 0.14169 0.52818 0.62924 0.0
C754 C 0.03842 0.49826 0.54779 0.0
C755 C 0.08337 0.54078 0.51648 0.0
O756 O 1.01952 0.54242 0.50674 0.0
O757 O 1.0187 0.57343 0.53451 0.0
O758 O 0.06513 0.56482 0.57485 0.0
O759 O 0.06627 0.58584 0.54597 0.0
O760 O 1.02397 0.54492 0.5737 0.0
O761 O 0.05129 0.53663 0.6028 0.0
O762 O 0.09575 0.53948 0.60779 0.0
O763 O 0.09526 0.50712 0.58115 0.0
O764 O 0.04915 0.51649 0.54062 0.0
O765 O 0.04815 0.49662 0.57051 0.0
O766 O 0.09103 0.53614 0.54001 0.0
O767 O 0.06374 0.54644 0.5125 0.0
H768 H 0.98861 0.52103 0.53422 0.0
H769 H 0.94939 0.50441 0.52851 0.0
H770 H 0.93698 0.55985 0.48189 0.0
H771 H 0.97623 0.57653 0.48798 0.0
H772 H 0.12977 0.54027 0.56819 0.0
H773 H 0.16832 0.56017 0.57776 0.0
H774 H 0.17283 0.53985 0.65372 0.0
H775 H 0.13415 0.52008 0.64403 0.0
Tb776 Tb 0.79294 0.79949 0.30729 0.0
Tb777 Tb 0.83772 0.78235 0.31636 0.0
C778 C 0.75368 0.80239 0.3088 0.0
C779 C 0.73701 0.79888 0.32594 0.0
C780 C 0.71695 0.78252 0.31687 0.0
C781 C 0.70044 0.77976 0.33189 0.0
C782 C 0.70345 0.79333 0.35652 0.0
C783 C 0.72368 0.80961 0.36563 0.0
C784 C 0.7402 0.81233 0.35061 0.0
C785 C 0.82772 0.83067 0.30065 0.0
C786 C 0.8218 0.80596 0.3641 0.0
C787 C 0.87652 0.77796 0.31407 0.0
C788 C 0.89308 0.78118 0.29674 0.0
C789 C 0.91349 0.79691 0.30577 0.0
C790 C 0.92981 0.79942 0.29046 0.0
C791 C 0.92621 0.78631 0.26553 0.0
C792 C 0.90571 0.77057 0.25652 0.0
C793 C 0.88944 0.76799 0.27189 0.0
C794 C 0.80349 0.75222 0.32557 0.0
C795 C 0.81008 0.77666 0.25983 0.0
O796 O 0.75959 0.78278 0.29888 0.0
O797 O 0.77021 0.82102 0.31541 0.0
O798 O 0.82655 0.81571 0.31633 0.0
O799 O 0.80802 0.83013 0.28889 0.0
O800 O 0.80258 0.80495 0.34949 0.0
O801 O 0.83866 0.79971 0.35494 0.0
O802 O 0.87133 0.79779 0.32457 0.0
O803 O 0.8595 0.75989 0.30727 0.0
O804 O 0.80392 0.76625 0.30887 0.0
O805 O 0.82345 0.7523 0.33586 0.0
O806 O 0.82931 0.77985 0.27485 0.0
O807 O 0.79259 0.78182 0.26843 0.0
H808 H 0.71394 0.77191 0.29794 0.0
H809 H 0.68536 0.76676 0.32423 0.0
H810 H 0.7267 0.82069 0.38429 0.0
H811 H 0.75538 0.82518 0.35825 0.0
H812 H 0.9169 0.80722 0.32488 0.0
H813 H 0.94518 0.81192 0.29808 0.0
H814 H 0.90229 0.75984 0.23763 0.0
H815 H 0.87409 0.75545 0.26435 0.0
Tb816 Tb 0.81928 0.28054 0.78282 0.0
Tb817 Tb 0.80706 0.29769 0.83554 0.0
C818 C 0.81791 0.27236 0.73545 0.0
C819 C 0.81186 0.28652 0.7153 0.0
C820 C 0.80614 0.30899 0.72186 0.0
C821 C 0.80026 0.32271 0.70297 0.0
C822 C 0.80098 0.31478 0.6772 0.0
C823 C 0.80724 0.29238 0.67079 0.0
C824 C 0.81245 0.27824 0.68974 0.0
C825 C 0.84958 0.27359 0.82009 0.0
C826 C 0.83297 0.3387 0.80728 0.0
C827 C 0.81173 0.30516 0.88308 0.0
C828 C 0.81928 0.28882 0.90004 0.0
C829 C 0.8267 0.26861 0.88932 0.0
C830 C 0.83261 0.25161 0.90438 0.0
C831 C 0.83129 0.25466 0.93045 0.0
C832 C 0.82432 0.2752 0.94139 0.0
C833 C 0.8182 0.2922 0.92615 0.0
C834 C 0.77675 0.30314 0.79697 0.0
C835 C 0.7922 0.2399 0.81133 0.0
O836 O 0.80203 0.26301 0.74684 0.0
O837 O 0.83561 0.28308 0.7517 0.0
O838 O 0.83275 0.28243 0.82239 0.0
O839 O 0.84893 0.26789 0.79578 0.0
O840 O 0.83186 0.32124 0.78749 0.0
O841 O 0.82449 0.33343 0.82792 0.0
O842 O 0.82641 0.31508 0.87037 0.0
O843 O 0.79278 0.29595 0.86839 0.0
O844 O 0.79422 0.29542 0.79644 0.0
O845 O 0.77612 0.30901 0.82111 0.0
O846 O 0.79395 0.25733 0.83127 0.0
O847 O 0.80035 0.24516 0.79036 0.0
H848 H 0.80603 0.31587 0.74164 0.0
H849 H 0.79508 0.33951 0.70869 0.0
H850 H 0.80846 0.28591 0.65125 0.0
H851 H 0.81722 0.26107 0.6845 0.0
H852 H 0.8277 0.26582 0.86915 0.0
H853 H 0.83826 0.23612 0.89568 0.0
H854 H 0.82316 0.27777 0.96155 0.0
H855 H 0.81238 0.30767 0.93459 0.0
Tb856 Tb 0.78841 0.77287 0.7943 0.0
Tb857 Tb 0.82695 0.80474 0.8262 0.0
C858 C 0.75008 0.74892 0.78002 0.0
C859 C 0.72943 0.75507 0.78497 0.0
C860 C 0.72916 0.77015 0.8077 0.0
C861 C 0.71003 0.77704 0.81241 0.0
C862 C 0.69052 0.7686 0.79477 0.0
C863 C 0.69075 0.75347 0.7719 0.0
C864 C 0.71016 0.7468 0.76701 0.0
C865 C 0.81392 0.7984 0.76792 0.0
C866 C 0.78475 0.82944 0.81814 0.0
C867 C 0.86623 0.82598 0.83736 0.0
C868 C 0.88535 0.81557 0.83283 0.0
C869 C 0.88386 0.79906 0.81047 0.0
C870 C 0.901 0.78767 0.80647 0.0
C871 C 0.92061 0.79318 0.82417 0.0
C872 C 0.92223 0.80985 0.8466 0.0
C873 C 0.90465 0.82082 0.85098 0.0
C874 C 0.80141 0.7793 0.85268 0.0
C875 C 0.82984 0.74744 0.80261 0.0
O876 O 0.76305 0.74586 0.80032 0.0
O877 O 0.76048 0.76242 0.76557 0.0
O878 O 0.80921 0.80541 0.78933 0.0
O879 O 0.80366 0.77591 0.76025 0.0
O880 O 0.77498 0.80632 0.80776 0.0
O881 O 0.80638 0.8339 0.82652 0.0
O882 O 0.85329 0.82805 0.81657 0.0
O883 O 0.85533 0.81686 0.85425 0.0
O884 O 0.80606 0.77237 0.83116 0.0
O885 O 0.81224 0.8016 0.86082 0.0
O886 O 0.83996 0.76977 0.81513 0.0
O887 O 0.8087 0.74438 0.79279 0.0
H888 H 0.74382 0.77681 0.82188 0.0
H889 H 0.71066 0.78923 0.82989 0.0
H890 H 0.67594 0.74655 0.75803 0.0
H891 H 0.71013 0.7352 0.74932 0.0
H892 H 0.86929 0.79469 0.79595 0.0
H893 H 0.89875 0.77447 0.78934 0.0
H894 H 0.93716 0.81477 0.86055 0.0
H895 H 0.90614 0.83343 0.8684 0.0
Tb896 Tb 0.55055 0.52466 0.53778 0.0
Tb897 Tb 0.58373 0.55774 0.57667 0.0
C898 C 0.51342 0.506 0.51272 0.0
C899 C 0.49461 0.51802 0.50848 0.0
C900 C 0.47847 0.51414 0.52382 0.0
C901 C 0.46468 0.53056 0.52649 0.0
C902 C 0.46641 0.55096 0.51342 0.0
C903 C 0.48089 0.55322 0.49583 0.0
C904 C 0.49491 0.53696 0.49344 0.0
C905 C 0.58878 0.53433 0.52292 0.0
C906 C 0.5555 0.5831 0.54004 0.0
C907 C 0.61872 0.57732 0.60623 0.0
C908 C 0.63385 0.56552 0.6216 0.0
C909 C 0.65541 0.5687 0.61744 0.0
C910 C 0.66745 0.55088 0.62232 0.0
C911 C 0.65808 0.52968 0.63163 0.0
C912 C 0.63795 0.52881 0.63996 0.0
C913 C 0.62577 0.54648 0.6347 0.0
C914 C 0.54478 0.54833 0.58949 0.0
C915 C 0.57927 0.49868 0.57328 0.0
O916 O 0.51955 0.50342 0.53661 0.0
O917 O 0.5301 0.51384 0.50188 0.0
O918 O 0.58032 0.54906 0.53598 0.0
O919 O 0.57487 0.51363 0.51673 0.0
O920 O 0.5429 0.56098 0.53319 0.0
O921 O 0.57422 0.58644 0.55599 0.0
O922 O 0.61731 0.57149 0.58146 0.0
O923 O 0.59956 0.57662 0.61282 0.0
O924 O 0.55418 0.53346 0.57828 0.0
O925 O 0.55779 0.56958 0.59448 0.0
O926 O 0.59012 0.52105 0.58373 0.0
O927 O 0.56243 0.4953 0.55452 0.0
H928 H 0.47776 0.49962 0.53552 0.0
H929 H 0.45386 0.52817 0.54032 0.0
H930 H 0.4822 0.56827 0.48485 0.0
H931 H 0.50696 0.54031 0.48115 0.0
H932 H 0.66197 0.58333 0.60748 0.0
H933 H 0.68291 0.55245 0.61568 0.0
H934 H 0.63056 0.51314 0.64791 0.0
H935 H 0.60921 0.5437 0.63843 0.0
Tb936 Tb 0.07883 0.54183 0.04731 0.0
Tb937 Tb 0.03525 0.53637 0.06707 0.0
C938 C 0.11719 0.53955 0.04032 0.0
C939 C 0.13618 0.52838 0.04867 0.0
C940 C 0.13447 0.50315 0.04927 0.0
C941 C 0.15323 0.49362 0.05647 0.0
C942 C 0.17406 0.50911 0.06333 0.0
C943 C 0.17552 0.53425 0.06241 0.0
C944 C 0.15692 0.54368 0.05525 0.0
C945 C 0.04511 0.54857 1.01255 0.0
C946 C 0.04953 0.48841 0.04707 0.0
C947 C 0.99548 0.53915 0.06343 0.0
C948 C 0.97926 0.55459 0.06857 0.0
C949 C 0.97358 0.57043 0.05123 0.0
C950 C 0.95542 0.58126 0.05248 0.0
C951 C 0.94222 0.57659 0.07109 0.0
C952 C 0.94863 0.5618 0.08931 0.0
C953 C 0.96674 0.55081 0.08793 0.0
C954 C 0.06794 0.53387 0.1062 0.0
C955 C 0.06677 0.5885 0.07699 0.0
O956 O 0.11261 0.55574 0.05719 0.0
O957 O 0.09957 0.52571 0.02624 0.0
O958 O 0.04479 0.53399 0.0293 0.0
O959 O 0.06551 0.55882 0.01442 0.0
O960 O 0.06895 0.50193 0.0463 0.0
O961 O 0.03313 0.49809 0.05321 0.0
O962 O 1.00819 0.54619 0.04738 0.0
O963 O 1.00552 0.52934 0.0817 0.0
O964 O 0.06879 0.537 0.08297 0.0
O965 O 0.04735 0.53226 0.10774 0.0
O966 O 0.04702 0.57549 0.07591 0.0
O967 O 0.08243 0.579 0.06823 0.0
H968 H 0.11872 0.49082 0.04418 0.0
H969 H 0.15136 0.4742 0.05703 0.0
H970 H 0.19118 0.5468 0.06692 0.0
H971 H 0.15882 0.56312 0.05465 0.0
H972 H 0.9825 0.57357 0.0357 0.0
H973 H 0.9511 0.59221 0.0379 0.0
H974 H 0.93928 0.55809 0.10433 0.0
H975 H 0.97041 0.53857 0.10144 0.0
H976 H 0.03726 0.21881 0.02751 0.0
H977 H 0.03084 0.19659 0.94567 0.0
H978 H 0.03613 0.15543 0.95352 0.0
H979 H 0.08033 0.18625 0.04571 0.0
H980 H 0.07067 0.17835 0.07438 0.0
H981 H 0.06563 0.20573 0.06232 0.0
H982 H 1.02424 0.19106 0.06104 0.0
H983 H 0.02914 0.16357 0.07297 0.0
H984 H 1.01057 0.16163 0.04339 0.0
H985 H 0.03993 0.11562 0.97027 0.0
H986 H 0.04678 0.08214 0.99452 0.0
H987 H 0.05462 0.13075 0.06595 0.0
C988 C 0.03694 0.20527 1.01121 0.0
C989 C 0.03339 0.21102 0.98585 0.0
C990 C 0.03348 0.19279 0.9652 0.0
C991 C 0.03638 0.16926 0.96951 0.0
C992 C 0.03965 0.16418 0.99466 0.0
C993 C 0.04036 0.18182 0.01522 0.0
C994 C 0.04512 0.17191 0.04043 0.0
C995 C 0.06672 0.18642 0.05667 0.0
C996 C 1.02614 0.17205 0.05533 0.0
C997 C 0.04687 0.14589 0.03088 0.0
C998 C 0.04324 0.14173 1.00437 0.0
C999 C 0.043 0.11883 0.991 0.0
C1000 C 0.04679 0.09985 1.00495 0.0
C1001 C 0.05125 0.10376 0.03209 0.0
C1002 C 0.05136 0.12721 0.04521 0.0
H1003 H 0.18704 0.8302 0.18378 0.0
H1004 H 0.13868 0.80464 0.22958 0.0
H1005 H 0.16785 0.79733 0.26215 0.0
H1006 H 0.22161 0.78804 0.19685 0.0
H1007 H 0.2468 0.80973 0.19889 0.0
H1008 H 0.22233 0.81349 0.17916 0.0
H1009 H 0.22659 0.85709 0.20352 0.0
H1010 H 0.25125 0.85355 0.22303 0.0
H1011 H 0.22929 0.86157 0.23795 0.0
H1012 H 0.20217 0.79043 0.28883 0.0
H1013 H 0.23943 0.78945 0.31011 0.0
H1014 H 0.26618 0.82133 0.24862 0.0
C1015 C 0.18256 0.82332 0.20079 0.0
C1016 C 0.16035 0.81804 0.20396 0.0
C1017 C 0.15541 0.80904 0.22661 0.0
C1018 C 0.17192 0.80465 0.2452 0.0
C1019 C 0.19349 0.80954 0.24119 0.0
C1020 C 0.19891 0.8191 0.21976 0.0
C1021 C 0.22346 0.82323 0.22039 0.0
C1022 C 0.22886 0.80769 0.19746 0.0
C1023 C 0.23322 0.85048 0.22128 0.0
C1024 C 0.23098 0.81435 0.24543 0.0
C1025 C 0.21335 0.80625 0.25694 0.0
C1026 C 0.21605 0.79683 0.28 0.0
C1027 C 0.23726 0.79616 0.29187 0.0
C1028 C 0.25563 0.80498 0.28088 0.0
C1029 C 0.2524 0.81412 0.25728 0.0
H1030 H 0.55794 0.86486 0.46898 0.0
H1031 H 0.51156 0.82715 0.51048 0.0
H1032 H 0.50865 0.86701 0.53359 0.0
H1033 H 0.58631 0.90982 0.52276 0.0
H1034 H 0.59144 0.93395 0.50366 0.0
H1035 H 0.58886 0.90264 0.48966 0.0
H1036 H 0.55815 0.90746 0.45391 0.0
H1037 H 0.56064 0.93878 0.46779 0.0
H1038 H 0.53461 0.91794 0.46255 0.0
H1039 H 0.51005 0.91218 0.55104 0.0
H1040 H 0.51834 0.95715 0.56407 0.0
H1041 H 0.56624 0.9644 0.51378 0.0
C1042 C 0.54705 0.86498 0.48282 0.0
C1043 C 0.53478 0.84287 0.48774 0.0
C1044 C 0.52107 0.84384 0.50636 0.0
C1045 C 0.51928 0.86643 0.51952 0.0
C1046 C 0.53165 0.88793 0.51423 0.0
C1047 C 0.54552 0.88729 0.49655 0.0
C1048 C 0.5579 0.91276 0.4952 0.0
C1049 C 0.58259 0.91491 0.50331 0.0
C1050 C 0.5525 0.91963 0.46826 0.0
C1051 C 0.54877 0.92793 0.51471 0.0
C1052 C 0.53341 0.9134 0.52527 0.0
C1053 C 0.52223 0.92362 0.54304 0.0
C1054 C 0.52698 0.94921 0.5503 0.0
C1055 C 0.54311 0.96434 0.54022 0.0
C1056 C 0.55406 0.95337 0.52219 0.0
H1057 H 0.52527 0.31298 0.68326 0.0
H1058 H 0.57107 0.29217 0.74138 0.0
H1059 H 0.54216 0.28356 0.7672 0.0
H1060 H 0.49705 0.34326 0.7276 0.0
H1061 H 0.47047 0.3331 0.70789 0.0
H1062 H 0.4945 0.33708 0.69324 0.0
H1063 H 0.48301 0.29239 0.67039 0.0
H1064 H 0.45894 0.28829 0.68496 0.0
H1065 H 0.47768 0.26797 0.68909 0.0
H1066 H 0.50864 0.27694 0.787 0.0
H1067 H 0.47283 0.27402 0.80034 0.0
H1068 H 0.4477 0.2999 0.73066 0.0
C1069 C 0.52917 0.30652 0.70137 0.0
C1070 C 0.55058 0.3032 0.71017 0.0
C1071 C 0.55493 0.2949 0.73412 0.0
C1072 C 0.53856 0.2899 0.74897 0.0
C1073 C 0.51774 0.29341 0.73987 0.0
C1074 C 0.51294 0.30163 0.7167 0.0
C1075 C 0.4892 0.30432 0.71186 0.0
C1076 C 0.48772 0.33103 0.71004 0.0
C1077 C 0.47646 0.28722 0.68764 0.0
C1078 C 0.4815 0.29632 0.7359 0.0
C1079 C 0.49829 0.28997 0.75164 0.0
C1080 C 0.49536 0.2818 0.77478 0.0
C1081 C 0.47482 0.28004 0.78213 0.0
C1082 C 0.45718 0.28646 0.76655 0.0
C1083 C 0.46075 0.29488 0.7431 0.0
H1084 H 0.07222 0.80879 0.67039 0.0
H1085 H 0.07854 0.849 0.74653 0.0
H1086 H 0.08289 0.8879 0.72794 0.0
H1087 H 0.11097 0.85149 0.64659 0.0
H1088 H 0.09482 0.84542 0.61488 0.0
H1089 H 0.0938 0.82181 0.63497 0.0
H1090 H 0.05173 0.81678 0.62976 0.0
H1091 H 0.05261 0.84031 0.60969 0.0
H1092 H 0.04022 0.84305 0.63791 0.0
H1093 H 0.08525 0.92218 0.69896 0.0
H1094 H 0.08444 0.94733 0.66379 0.0
H1095 H 0.07464 0.88169 0.60842 0.0
C1096 C 0.0748 0.82568 0.68346 0.0
C1097 C 0.07519 0.82594 0.70994 0.0
C1098 C 0.07829 0.84851 0.72614 0.0
C1099 C 0.0808 0.87058 0.71575 0.0
C1100 C 0.08017 0.86945 0.6893 0.0
C1101 C 0.07723 0.84741 0.67355 0.0
C1102 C 0.07603 0.85026 0.64574 0.0
C1103 C 0.09504 0.84175 0.63492 0.0
C1104 C 0.05383 0.83682 0.62986 0.0
C1105 C 0.07845 0.87746 0.64795 0.0
C1106 C 0.08106 0.88847 0.67309 0.0
C1107 C 0.08324 0.91365 0.67926 0.0
C1108 C 0.0826 0.92774 0.65916 0.0
C1109 C 0.07961 0.91648 0.63329 0.0
C1110 C 0.07753 0.89104 0.6279 0.0
H1111 H 0.48276 0.81112 0.87328 0.0
H1112 H 0.4872 0.87121 0.9338 0.0
H1113 H 0.44877 0.87303 0.91832 0.0
H1114 H 0.44412 0.82968 0.82356 0.0
H1115 H 0.42971 0.7986 0.81277 0.0
H1116 H 0.45842 0.80493 0.82581 0.0
H1117 H 0.45077 0.77567 0.85896 0.0
H1118 H 0.42204 0.76957 0.84635 0.0
H1119 H 0.43169 0.78085 0.8799 0.0
H1120 H 0.40957 0.86628 0.89833 0.0
H1121 H 0.37167 0.85097 0.87571 0.0
H1122 H 0.39233 0.79297 0.83066 0.0
C1123 C 0.47582 0.8252 0.88264 0.0
C1124 C 0.48783 0.84139 0.90431 0.0
C1125 C 0.47813 0.85893 0.91692 0.0
C1126 C 0.45642 0.86007 0.90827 0.0
C1127 C 0.44474 0.84329 0.88731 0.0
C1128 C 0.45406 0.82616 0.87466 0.0
C1129 C 0.43738 0.8085 0.85451 0.0
C1130 C 0.44273 0.81056 0.82757 0.0
C1131 C 0.43536 0.78209 0.86029 0.0
C1132 C 0.41714 0.81814 0.85808 0.0
C1133 C 0.4218 0.83844 0.87678 0.0
C1134 C 0.40572 0.85047 0.88358 0.0
C1135 C 0.38429 0.84162 0.87072 0.0
C1136 C 0.37921 0.82073 0.85169 0.0
C1137 C 0.39581 0.8088 0.8454 0.0
H1138 H 0.55878 0.22509 0.11431 0.0
H1139 H 0.55711 0.20141 0.18885 0.0
H1140 H 0.55558 0.15933 0.16957 0.0
H1141 H 0.52121 0.16737 0.07726 0.0
H1142 H 0.5358 0.16823 0.05073 0.0
H1143 H 0.53412 0.1963 0.06966 0.0
H1144 H 0.57626 0.20879 0.07803 0.0
H1145 H 0.57814 0.1805 0.05979 0.0
H1146 H 0.59218 0.1889 0.09248 0.0
H1147 H 0.56235 0.12309 0.14556 0.0
H1148 H 0.56643 0.08952 0.11489 0.0
H1149 H 0.55906 0.13306 0.05324 0.0
C1150 C 0.55739 0.2109 0.12639 0.0
C1151 C 0.55825 0.21663 0.15316 0.0
C1152 C 0.55644 0.19758 0.16834 0.0
C1153 C 0.55571 0.17359 0.1576 0.0
C1154 C 0.55619 0.16884 0.13156 0.0
C1155 C 0.55611 0.1866 0.11583 0.0
C1156 C 0.55681 0.17616 0.08841 0.0
C1157 C 0.53573 0.17706 0.07045 0.0
C1158 C 0.57706 0.18938 0.07915 0.0
C1159 C 0.55832 0.15007 0.09162 0.0
C1160 C 0.55823 0.14662 0.11684 0.0
C1161 C 0.56158 0.12518 0.12555 0.0
C1162 C 0.56403 0.1062 0.10783 0.0
C1163 C 0.56244 0.1083 0.0814 0.0
C1164 C 0.55997 0.13077 0.07321 0.0
H1165 H 0.12514 0.33188 0.38573 0.0
H1166 H 0.07752 0.33459 0.31932 0.0
H1167 H 0.10321 0.32459 0.29092 0.0
H1168 H 0.17396 0.35583 0.36123 0.0
H1169 H 0.18947 0.33504 0.37456 0.0
H1170 H 0.1687 0.34484 0.3905 0.0
H1171 H 0.14861 0.30054 0.3893 0.0
H1172 H 0.16952 0.28985 0.37452 0.0
H1173 H 0.14135 0.28016 0.3593 0.0
H1174 H 0.13329 0.31135 0.26987 0.0
H1175 H 0.16401 0.29318 0.2581 0.0
H1176 H 0.19045 0.29756 0.33855 0.0
C1177 C 0.12032 0.33097 0.36524 0.0
C1178 C 0.09955 0.33432 0.35465 0.0
C1179 C 0.0935 0.33225 0.32774 0.0
C1180 C 0.108 0.32669 0.31151 0.0
C1181 C 0.12831 0.32312 0.32259 0.0
C1182 C 0.13437 0.32503 0.34886 0.0
C1183 C 0.15606 0.3179 0.356 0.0
C1184 C 0.17307 0.3397 0.37148 0.0
C1185 C 0.15373 0.2958 0.37063 0.0
C1186 C 0.16113 0.31124 0.32964 0.0
C1187 C 0.14517 0.31473 0.31056 0.0
C1188 C 0.14597 0.30872 0.28464 0.0
C1189 C 0.16336 0.29844 0.27811 0.0
C1190 C 0.17927 0.29395 0.2975 0.0
C1191 C 0.17832 0.30082 0.32346 0.0
H1192 H 0.99762 0.05014 0.22241 0.0
H1193 H 0.96594 0.97456 0.19633 0.0
H1194 H 0.9792 0.97671 0.15504 0.0
H1195 H 0.98962 0.07131 0.15832 0.0
H1196 H 1.01581 0.09196 0.1654 0.0
H1197 H 1.00085 0.08532 0.19088 0.0
H1198 H 0.03422 0.07129 0.21471 0.0
H1199 H 0.04901 0.07744 0.18911 0.0
H1200 H 0.04496 0.04745 0.19854 0.0
H1201 H 1.00036 0.98549 0.11952 0.0
H1202 H 1.02565 1.00089 0.09126 0.0
H1203 H 0.04295 0.0713 0.13983 0.0
C1204 C 0.99276 0.03442 0.20751 0.0
C1205 C 0.9802 1.01241 0.21202 0.0
C1206 C 0.97499 0.99176 0.19276 0.0
C1207 C 0.98258 0.9928 0.16938 0.0
C1208 C 0.99548 1.01461 0.16572 0.0
C1209 C 1.00034 0.03514 0.18416 0.0
C1210 C 1.01588 0.05571 0.17634 0.0
C1211 C 1.00491 0.07744 0.17255 0.0
C1212 C 0.03728 0.06341 0.19584 0.0
C1213 C 1.01949 0.04339 0.15099 0.0
C1214 C 1.00752 1.01971 0.14515 0.0
C1215 C 1.00941 1.00417 0.12364 0.0
C1216 C 1.02385 1.01307 0.10771 0.0
C1217 C 0.03595 0.03743 0.11306 0.0
C1218 C 0.03359 0.05276 0.13495 0.0
H1219 H 0.30997 0.66998 0.51039 0.0
H1220 H 0.30138 0.71838 0.57567 0.0
H1221 H 0.27495 0.73485 0.54791 0.0
H1222 H 0.31508 0.71115 0.47227 0.0
H1223 H 0.30101 0.69258 0.44256 0.0
H1224 H 0.31278 0.67847 0.46802 0.0
H1225 H 0.27519 0.65044 0.46698 0.0
H1226 H 0.26327 0.66476 0.44143 0.0
H1227 H 0.25181 0.66379 0.47035 0.0
H1228 H 0.25865 0.75378 0.51381 0.0
H1229 H 0.25663 0.77548 0.4766 0.0
H1230 H 0.27355 0.71495 0.43129 0.0
C1231 C 0.30172 0.68328 0.51883 0.0
C1232 C 0.30755 0.69288 0.54505 0.0
C1233 C 0.29714 0.71082 0.55558 0.0
C1234 C 0.28184 0.72005 0.53998 0.0
C1235 C 0.27713 0.71116 0.51387 0.0
C1236 C 0.28668 0.69302 0.50331 0.0
C1237 C 0.28257 0.69039 0.47434 0.0
C1238 C 0.30413 0.69336 0.46371 0.0
C1239 C 0.26729 0.66589 0.46259 0.0
C1240 C 0.27129 0.71151 0.4705 0.0
C1241 C 0.26742 0.72254 0.49346 0.0
C1242 C 0.26085 0.74489 0.49556 0.0
C1243 C 0.25967 0.75712 0.4742 0.0
C1244 C 0.26514 0.74697 0.45111 0.0
C1245 C 0.2694 0.72313 0.4488 0.0
H1246 H 0.61804 0.02697 0.75626 0.0
H1247 H 0.67828 1.01194 0.73549 0.0
H1248 H 0.66342 1.01314 0.68972 0.0
H1249 H 0.58127 0.99097 0.69987 0.0
H1250 H 0.56333 1.01236 0.69872 0.0
H1251 H 0.5788 1.0093 0.72891 0.0
H1252 H 0.59513 0.05565 0.73654 0.0
H1253 H 0.57987 0.05882 0.70628 0.0
H1254 H 0.60908 0.06906 0.7129 0.0
H1255 H 0.64019 1.01903 0.64328 0.0
H1256 H 0.61311 0.02521 0.60685 0.0
H1257 H 0.56839 0.03527 0.65917 0.0
C1258 C 0.62826 0.02357 0.74224 0.0
C1259 C 0.64967 1.01911 0.75042 0.0
C1260 C 0.6619 1.01499 0.73056 0.0
C1261 C 0.65348 1.01589 0.70421 0.0
C1262 C 0.63248 1.02081 0.69715 0.0
C1263 C 0.62005 0.02425 0.71596 0.0
C1264 C 0.59802 0.02929 0.70423 0.0
C1265 C 0.57924 1.00929 0.70817 0.0
C1266 C 0.59537 0.05471 0.71567 0.0
C1267 C 0.59966 0.02835 0.6758 0.0
C1268 C 0.61967 0.02359 0.67179 0.0
C1269 C 0.62458 0.02256 0.64675 0.0
C1270 C 0.60896 0.0262 0.62586 0.0
C1271 C 0.58815 0.03076 0.62944 0.0
C1272 C 0.58387 0.03177 0.65514 0.0
H1273 H 0.30954 0.39377 0.98828 0.0
H1274 H 0.3561 0.3603 0.03242 0.0
H1275 H 0.35912 0.33438 0.99346 0.0
H1276 H 0.28142 0.33757 0.94817 0.0
H1277 H 0.27617 0.35117 0.91953 0.0
H1278 H 0.27867 0.36902 0.95054 0.0
H1279 H 0.30931 0.40149 0.93977 0.0
H1280 H 0.30672 0.38389 0.90862 0.0
H1281 H 0.33282 0.39217 0.92958 0.0
H1282 H 0.35779 0.3123 0.9503 0.0
H1283 H 0.3508 0.29389 0.90477 0.0
H1284 H 0.30249 0.33793 0.88801 0.0
C1285 C 0.32062 0.38126 0.98954 0.0
C1286 C 0.33293 0.37943 1.01337 0.0
C1287 C 0.34675 0.36234 0.01445 0.0
C1288 C 0.34855 0.34741 0.99237 0.0
C1289 C 0.33603 0.34932 0.96929 0.0
C1290 C 0.32217 0.3656 0.96761 0.0
C1291 C 0.30969 0.36275 0.94044 0.0
C1292 C 0.28503 0.35465 0.93964 0.0
C1293 C 0.31496 0.38649 0.92892 0.0
C1294 C 0.31892 0.34256 0.92728 0.0
C1295 C 0.33423 0.33529 0.94434 0.0
C1296 C 0.34571 0.31765 0.93674 0.0
C1297 C 0.34164 0.30729 0.9109 0.0
C1298 C 0.32596 0.31428 0.89306 0.0
C1299 C 0.31426 0.33193 0.90142 0.0
H1300 H 0.97004 0.04527 0.37016 0.0
H1301 H 1.0074 1.00003 0.33134 0.0
H1302 H 0.02957 0.99808 0.37285 0.0
H1303 H 1.01622 0.08048 0.41652 0.0
H1304 H 1.00099 0.08274 0.44235 0.0
H1305 H 0.98743 0.08017 0.40969 0.0
H1306 H 0.95975 0.04215 0.4158 0.0
H1307 H 0.97315 0.04468 0.44851 0.0
H1308 H 0.96963 1.01655 0.42699 0.0
H1309 H 0.04667 0.99959 0.41808 0.0
H1310 H 0.05932 1.00621 0.46476 0.0
H1311 H 1.01307 0.05307 0.47497 0.0
C1312 C 0.98281 0.03485 0.3705 0.0
C1313 C 0.98691 0.02259 0.34759 0.0
C1314 C 1.00397 1.00948 0.34866 0.0
C1315 C 1.01664 1.00828 0.37214 0.0
C1316 C 1.0123 1.02064 0.39435 0.0
C1317 C 0.99597 0.03389 0.3938 0.0
C1318 C 0.99523 0.04603 0.42054 0.0
C1319 C 1.00027 0.07401 0.42237 0.0
C1320 C 0.97313 0.03679 0.42842 0.0
C1321 C 1.01347 0.03718 0.43618 0.0
C1322 C 1.02295 0.02244 0.4206 0.0
C1323 C 0.03951 1.01124 0.43048 0.0
C1324 C 0.04652 1.01505 0.45702 0.0
C1325 C 0.0372 0.03017 0.47342 0.0
C1326 C 1.02062 0.04163 0.46282 0.0
H1327 H 0.35057 0.69437 0.67464 0.0
H1328 H 0.4047 0.74579 0.65882 0.0
H1329 H 0.40881 0.76926 0.70193 0.0
H1330 H 0.32583 0.73612 0.6925 0.0
H1331 H 0.31297 0.72254 0.71684 0.0
H1332 H 0.32034 0.70344 0.69176 0.0
H1333 H 0.3433 0.68455 0.72476 0.0
H1334 H 0.3362 0.70343 0.75058 0.0
H1335 H 0.36449 0.70388 0.74864 0.0
H1336 H 0.40006 0.79333 0.7391 0.0
H1337 H 0.37969 0.81566 0.76635 0.0
H1338 H 0.32783 0.7515 0.75491 0.0
C1339 C 0.36436 0.70946 0.68122 0.0
C1340 C 0.37788 0.71785 0.66407 0.0
C1341 C 0.3948 0.73865 0.67223 0.0
C1342 C 0.39707 0.75216 0.69663 0.0
C1343 C 0.38193 0.74487 0.71223 0.0
C1344 C 0.36589 0.72383 0.70483 0.0
C1345 C 0.34815 0.72331 0.72105 0.0
C1346 C 0.32553 0.72126 0.70454 0.0
C1347 C 0.34803 0.70256 0.73727 0.0
C1348 C 0.35589 0.748 0.73756 0.0
C1349 C 0.37579 0.75977 0.73289 0.0
C1350 C 0.3848 0.78402 0.74343 0.0
C1351 C 0.37302 0.79665 0.75866 0.0
C1352 C 0.35229 0.78514 0.76277 0.0
C1353 C 0.34392 0.76041 0.75262 0.0
H1354 H 0.63019 0.02186 0.87799 0.0
H1355 H 0.69611 0.03377 0.92003 0.0
H1356 H 0.68227 0.04053 0.96068 0.0
H1357 H 0.61051 0.06644 0.92007 0.0
H1358 H 0.58381 0.04777 0.91822 0.0
H1359 H 0.59858 0.0442 0.89209 0.0
H1360 H 0.59485 0.99829 0.89532 0.0
H1361 H 0.58008 1.00176 0.92148 0.0
H1362 H 0.60422 0.98901 0.92553 0.0
H1363 H 0.66069 0.04697 0.99906 0.0
H1364 H 0.63483 0.05038 0.02889 0.0
H1365 H 0.58124 0.03295 0.96474 0.0
C1366 C 0.64186 0.026 0.89569 0.0
C1367 C 0.66482 0.02734 0.89477 0.0
C1368 C 0.67876 0.03257 0.91915 0.0
C1369 C 0.67087 0.03651 0.94276 0.0
C1370 C 0.64848 0.03507 0.94294 0.0
C1371 C 0.63407 0.0297 0.91991 0.0
C1372 C 0.61063 0.02861 0.92579 0.0
C1373 C 0.60026 0.0479 0.91328 0.0
C1374 C 0.59661 1.00289 0.91646 0.0
C1375 C 0.61404 0.03446 0.95545 0.0
C1376 C 0.63613 0.03815 0.96485 0.0
C1377 C 0.64344 0.04393 0.99147 0.0
C1378 C 0.62833 0.04586 1.00867 0.0
C1379 C 0.60535 0.04205 1.00027 0.0
C1380 C 0.59843 0.03621 0.9727 0.0
H1381 H 0.32639 0.33693 0.13229 0.0
H1382 H 0.33728 0.41333 0.16502 0.0
H1383 H 0.33363 0.40084 0.20765 0.0
H1384 H 0.28649 0.31378 0.16996 0.0
H1385 H 0.29642 0.28596 0.17228 0.0
H1386 H 0.29916 0.30128 0.14479 0.0
H1387 H 0.34078 0.30294 0.15323 0.0
H1388 H 0.33823 0.2879 0.18094 0.0
H1389 H 0.35666 0.31699 0.18402 0.0
H1390 H 0.33057 0.37913 0.24733 0.0
H1391 H 0.32532 0.35099 0.27915 0.0
H1392 H 0.31622 0.28898 0.21942 0.0
C1393 C 0.32795 0.35121 0.14833 0.0
C1394 C 0.3323 0.37624 0.14524 0.0
C1395 C 0.3339 0.3941 0.16681 0.0
C1396 C 0.33198 0.38713 0.19111 0.0
C1397 C 0.32828 0.36224 0.19344 0.0
C1398 C 0.32602 0.3446 0.17245 0.0
C1399 C 0.32209 0.31907 0.17965 0.0
C1400 C 0.29971 0.30415 0.16585 0.0
C1401 C 0.34054 0.30597 0.17413 0.0
C1402 C 0.32257 0.32491 0.20815 0.0
C1403 C 0.32626 0.3499 0.21583 0.0
C1404 C 0.32759 0.35959 0.2414 0.0
C1405 C 0.32468 0.34341 0.25938 0.0
C1406 C 0.32037 0.31772 0.25181 0.0
C1407 C 0.31954 0.30847 0.22584 0.0
H1408 H 0.24107 0.95611 0.06219 0.0
H1409 H 0.18505 0.89819 0.03 0.0
H1410 H 0.16428 0.91451 0.06141 0.0
H1411 H 0.2312 0.96021 0.1306 0.0
H1412 H 0.24049 0.99292 0.13576 0.0
H1413 H 0.25208 0.97402 0.11415 0.0
H1414 H 0.24196 0.99881 0.0777 0.0
H1415 H 0.23066 1.01782 0.09922 0.0
H1416 H 0.21408 1.00204 0.06944 0.0
H1417 H 0.14795 0.94137 0.08983 0.0
H1418 H 0.13694 0.97713 0.11048 0.0
H1419 H 0.20436 1.01598 0.12785 0.0
C1420 C 0.22455 0.9466 0.06205 0.0
C1421 C 0.21455 0.92603 0.04364 0.0
C1422 C 0.19295 0.91402 0.044 0.0
C1423 C 0.18114 0.92302 0.06191 0.0
C1424 C 0.19141 0.94363 0.07964 0.0
C1425 C 0.21272 0.95512 0.07997 0.0
C1426 C 0.21925 0.97848 0.09886 0.0
C1427 C 0.2368 0.97626 0.12117 0.0
C1428 C 0.22691 1.00057 0.0855 0.0
C1429 C 0.19779 0.97938 0.1077 0.0
C1430 C 0.18207 0.95879 0.09692 0.0
C1431 C 0.16025 0.95718 0.09907 0.0
C1432 C 0.15414 0.97765 0.11116 0.0
C1433 C 0.16979 0.99945 0.12099 0.0
C1434 C 0.19203 0.9996 0.12062 0.0
H1435 H 0.68623 0.66175 0.03037 0.0
H1436 H 0.72953 0.61051 0.02461 0.0
H1437 H 0.70038 0.57746 0.03026 0.0
H1438 H 0.6594 0.63636 0.07875 0.0
H1439 H 0.63253 0.64021 0.0657 0.0
H1440 H 0.65627 0.66051 0.05996 0.0
H1441 H 0.64256 0.64972 1.01109 0.0
H1442 H 0.61873 0.62946 0.01669 0.0
H1443 H 0.63615 0.61817 0.9964 0.0
H1444 H 0.66861 0.55038 0.03881 0.0
H1445 H 0.63404 0.52881 0.04743 0.0
H1446 H 0.60832 0.59524 0.04724 0.0
C1447 C 0.68945 0.6435 0.02994 0.0
C1448 C 0.71042 0.63893 0.02701 0.0
C1449 C 0.71385 0.61474 0.02683 0.0
C1450 C 0.69732 0.59572 0.03005 0.0
C1451 C 0.67717 0.60087 0.03334 0.0
C1452 C 0.67291 0.624 0.0331 0.0
C1453 C 0.64955 0.62402 0.03745 0.0
C1454 C 0.64944 0.64131 0.06193 0.0
C1455 C 0.63594 0.63074 0.01401 0.0
C1456 C 0.64165 0.59737 0.04054 0.0
C1457 C 0.65809 0.58462 0.03804 0.0
C1458 C 0.65554 0.56008 0.04057 0.0
C1459 C 0.63567 0.54798 0.04556 0.0
C1460 C 0.61817 0.56012 0.04796 0.0
C1461 C 0.62123 0.58534 0.04545 0.0
H1462 H 0.69104 0.50593 0.34787 0.0
H1463 H 0.68178 0.524 0.27085 0.0
H1464 H 0.69908 0.49013 0.2561 0.0
H1465 H 0.74367 0.49579 0.3474 0.0
H1466 H 0.74141 0.47124 0.36635 0.0
H1467 H 0.7251 0.49399 0.36998 0.0
H1468 H 0.69006 0.46006 0.3602 0.0
H1469 H 0.70635 0.4372 0.35658 0.0
H1470 H 0.68471 0.43858 0.33106 0.0
H1471 H 0.72001 0.45718 0.25059 0.0
H1472 H 0.74515 0.4287 0.25484 0.0
H1473 H 0.74293 0.43332 0.33614 0.0
C1474 C 0.69211 0.50214 0.32777 0.0
C1475 C 0.68473 0.51696 0.31022 0.0
C1476 C 0.6871 0.51242 0.28432 0.0
C1477 C 0.69682 0.49325 0.27583 0.0
C1478 C 0.70432 0.47911 0.29365 0.0
C1479 C 0.70221 0.48337 0.31913 0.0
C1480 C 0.71394 0.46741 0.33487 0.0
C1481 C 0.73211 0.48304 0.35588 0.0
C1482 C 0.69779 0.44976 0.34635 0.0
C1483 C 0.72328 0.45385 0.31435 0.0
C1484 C 0.71724 0.46063 0.29067 0.0
C1485 C 0.72474 0.4516 0.26899 0.0
C1486 C 0.73912 0.43557 0.27163 0.0
C1487 C 0.74606 0.42888 0.29582 0.0
C1488 C 0.73766 0.43781 0.31733 0.0
H1489 H 0.83332 0.4243 0.47674 0.0
H1490 H 0.79583 0.48111 0.48517 0.0
H1491 H 0.82955 0.51253 0.49131 0.0
H1492 H 0.87814 0.45338 0.52507 0.0
H1493 H 0.89859 0.44367 0.50848 0.0
H1494 H 0.87136 0.42541 0.50269 0.0
H1495 H 0.86841 0.42744 0.45406 0.0
H1496 H 0.89571 0.44553 0.45967 0.0
H1497 H 0.87348 0.45677 0.4432 0.0
H1498 H 0.86724 0.53779 0.49857 0.0
H1499 H 0.90674 0.5553 0.50613 0.0
H1500 H 0.91996 0.4823 0.49341 0.0
C1501 C 0.83218 0.44335 0.47943 0.0
C1502 C 0.81193 0.45025 0.4804 0.0
C1503 C 0.81116 0.47538 0.48441 0.0
C1504 C 0.83022 0.49339 0.48787 0.0
C1505 C 0.84994 0.48599 0.48735 0.0
C1506 C 0.8511 0.46161 0.48317 0.0
C1507 C 0.87452 0.45865 0.48467 0.0
C1508 C 0.88103 0.44444 0.50653 0.0
C1509 C 0.87824 0.44637 0.45886 0.0
C1510 C 0.8863 0.48516 0.49053 0.0
C1511 C 0.8718 0.50062 0.49185 0.0
C1512 C 0.87877 0.5259 0.49738 0.0
C1513 C 0.90121 0.53567 0.50157 0.0
C1514 C 0.9164 0.52019 0.50031 0.0
C1515 C 0.90875 0.4946 0.49472 0.0
H1516 H 0.37196 0.11554 0.29047 0.0
H1517 H 0.43873 0.15558 0.31297 0.0
H1518 H 0.42562 0.19429 0.31659 0.0
H1519 H 0.35185 0.16112 0.253 0.0
H1520 H 0.32566 0.15732 0.26308 0.0
H1521 H 0.33987 0.13236 0.2618 0.0
H1522 H 0.33766 0.12932 0.30919 0.0
H1523 H 0.32346 0.15428 0.3106 0.0
H1524 H 0.34813 0.15598 0.33302 0.0
H1525 H 0.40481 0.23106 0.31868 0.0
H1526 H 0.37986 0.25974 0.31889 0.0
H1527 H 0.32471 0.19906 0.29492 0.0
C1528 C 0.38398 0.1324 0.29604 0.0
C1529 C 0.40701 0.13136 0.30123 0.0
C1530 C 0.42133 0.15469 0.30865 0.0
C1531 C 0.41386 0.17725 0.31083 0.0
C1532 C 0.39145 0.17755 0.30572 0.0
C1533 C 0.37662 0.1556 0.29842 0.0
C1534 C 0.35332 0.16142 0.29427 0.0
C1535 C 0.34199 0.15251 0.26638 0.0
C1536 C 0.33983 0.14953 0.31287 0.0
C1537 C 0.35726 0.18982 0.30029 0.0
C1538 C 0.37954 0.19858 0.30687 0.0
C1539 C 0.38743 0.22394 0.31342 0.0
C1540 C 0.37278 0.2405 0.31338 0.0
C1541 C 0.3496 0.23288 0.30672 0.0
C1542 C 0.34203 0.20652 0.30005 0.0
H1543 H 0.35408 0.16346 0.54309 0.0
H1544 H 0.3036 0.09805 0.53457 0.0
H1545 H 0.3317 0.07308 0.53827 0.0
H1546 H 0.39032 0.13666 0.50742 0.0
H1547 H 0.41497 0.1531 0.5283 0.0
H1548 H 0.39101 0.16622 0.52501 0.0
H1549 H 0.39254 0.17079 0.57411 0.0
H1550 H 0.41654 0.15773 0.57756 0.0
H1551 H 0.39297 0.14438 0.59015 0.0
H1552 H 0.36493 0.05471 0.5418 0.0
H1553 H 0.40122 0.04425 0.54699 0.0
H1554 H 0.43138 0.12106 0.5545 0.0
C1555 C 0.34895 0.14389 0.54206 0.0
C1556 C 0.32646 0.13279 0.53847 0.0
C1557 C 0.32058 0.1071 0.53732 0.0
C1558 C 0.33648 0.09269 0.53936 0.0
C1559 C 0.3584 0.1041 0.54276 0.0
C1560 C 0.36474 0.12913 0.5443 0.0
C1561 C 0.38954 0.13662 0.54836 0.0
C1562 C 0.39689 0.14888 0.52594 0.0
C1563 C 0.39842 0.15338 0.57408 0.0
C1564 C 0.39608 0.11191 0.54871 0.0
C1565 C 0.37776 0.09345 0.5453 0.0
C1566 C 0.37937 0.06903 0.54449 0.0
C1567 C 0.40015 0.06325 0.54727 0.0
C1568 C 0.41935 0.08171 0.55097 0.0
C1569 C 0.41714 0.10645 0.55181 0.0
H1570 H 0.71853 0.63105 0.33604 0.0
H1571 H 0.67617 0.67818 0.36093 0.0
H1572 H 0.7042 0.71437 0.35908 0.0
H1573 H 0.76962 0.66931 0.37122 0.0
H1574 H 0.78476 0.66274 0.3461 0.0
H1575 H 0.76168 0.64046 0.35026 0.0
H1576 H 0.74409 0.6392 0.30297 0.0
H1577 H 0.76706 0.66152 0.29868 0.0
H1578 H 0.73987 0.66718 0.29162 0.0
H1579 H 0.73615 0.74562 0.35262 0.0
H1580 H 0.77013 0.76939 0.34328 0.0
H1581 H 0.79223 0.70252 0.32315 0.0
C1582 C 0.71518 0.64896 0.34136 0.0
C1583 C 0.69502 0.65162 0.34867 0.0
C1584 C 0.69141 0.6755 0.35534 0.0
C1585 C 0.70726 0.69624 0.35433 0.0
C1586 C 0.72679 0.69292 0.34678 0.0
C1587 C 0.73088 0.66989 0.34058 0.0
C1588 C 0.7531 0.67142 0.33265 0.0
C1589 C 0.76818 0.66032 0.35117 0.0
C1590 C 0.75089 0.6591 0.30483 0.0
C1591 C 0.76077 0.69889 0.33512 0.0
C1592 C 0.74529 0.71094 0.34325 0.0
C1593 C 0.74834 0.73633 0.34625 0.0
C1594 C 0.76762 0.74972 0.34064 0.0
C1595 C 0.7836 0.7378 0.33212 0.0
C1596 C 0.78025 0.71207 0.3297 0.0
H1597 H 0.92375 0.45853 0.79065 0.0
H1598 H 0.87923 0.50389 0.81242 0.0
H1599 H 0.85255 0.46663 0.81579 0.0
H1600 H 0.88104 0.40879 0.75125 0.0
H1601 H 0.89487 0.38499 0.76013 0.0
H1602 H 0.91037 0.41508 0.75945 0.0
H1603 H 0.92857 0.41714 0.80651 0.0
H1604 H 0.91306 0.38711 0.80738 0.0
H1605 H 0.91174 0.41246 0.83065 0.0
H1606 H 0.8313 0.42297 0.82052 0.0
H1607 H 0.8165 0.37919 0.82094 0.0
H1608 H 0.8725 0.36049 0.7918 0.0
C1609 C 0.90829 0.46075 0.79588 0.0
C1610 C 0.90396 0.48487 0.80122 0.0
C1611 C 0.88329 0.4862 0.80795 0.0
C1612 C 0.86795 0.46488 0.81008 0.0
C1613 C 0.87288 0.44162 0.80498 0.0
C1614 C 0.89247 0.43946 0.79747 0.0
C1615 C 0.89355 0.41226 0.79233 0.0
C1616 C 0.89505 0.40484 0.76411 0.0
C1617 C 0.91288 0.40693 0.81028 0.0
C1618 C 0.87174 0.39935 0.79849 0.0
C1619 C 0.8602 0.41674 0.80609 0.0
C1620 C 0.84023 0.40944 0.81415 0.0
C1621 C 0.83186 0.38425 0.81438 0.0
C1622 C 0.84283 0.36569 0.80606 0.0
C1623 C 0.86319 0.37373 0.79785 0.0
H1624 H 0.09697 0.89792 0.16579 0.0
H1625 H 0.10394 0.84924 0.09962 0.0
H1626 H 0.10235 0.88215 0.0732 0.0
H1627 H 0.05932 0.92815 0.13334 0.0
H1628 H 0.07074 0.9581 0.15123 0.0
H1629 H 0.07383 0.93131 0.16568 0.0
H1630 H 0.11562 0.94653 0.17506 0.0
H1631 H 0.1128 0.97337 0.16054 0.0
H1632 H 0.12991 0.95366 0.14925 0.0
H1633 H 0.09603 0.91886 0.0525 0.0
H1634 H 0.08831 0.95781 0.04003 0.0
H1635 H 0.0879 0.98468 0.11937 0.0
C1636 C 0.09855 0.89432 0.14585 0.0
C1637 C 0.10062 0.87076 0.13492 0.0
C1638 C 0.10242 0.86695 0.10863 0.0
C1639 C 0.1015 0.88561 0.09336 0.0
C1640 C 0.09902 0.90836 0.10453 0.0
C1641 C 0.09788 0.91296 0.13026 0.0
C1642 C 0.09484 0.93903 0.13723 0.0
C1643 C 0.07341 0.93914 0.14747 0.0
C1644 C 0.11447 0.95404 0.15667 0.0
C1645 C 0.09389 0.94808 0.11131 0.0
C1646 C 0.09629 0.92999 0.09272 0.0
C1647 C 0.09455 0.93329 0.067 0.0
C1648 C 0.09015 0.95548 0.06006 0.0
C1649 C 0.08795 0.97446 0.07871 0.0
C1650 C 0.09004 0.97071 0.10475 0.0
H1651 H 0.95041 0.29786 0.94043 0.0
H1652 H 0.9774 0.24719 0.89311 0.0
H1653 H 0.94366 0.23894 0.86094 0.0
H1654 H 0.8932 0.26509 0.92469 0.0
H1655 H 0.8821 0.29224 0.9233 0.0
H1656 H 0.90766 0.29347 0.94396 0.0
H1657 H 0.92654 0.32817 0.92203 0.0
H1658 H 0.90098 0.3272 0.90157 0.0
H1659 H 0.92469 0.32364 0.88769 0.0
H1660 H 0.90713 0.23445 0.8349 0.0
H1661 H 0.87259 0.2395 0.81123 0.0
H1662 H 0.86851 0.2965 0.87154 0.0
C1663 C 0.94919 0.28501 0.92327 0.0
C1664 C 0.96673 0.27302 0.91948 0.0
C1665 C 0.96445 0.25664 0.89657 0.0
C1666 C 0.94519 0.25168 0.87826 0.0
C1667 C 0.92824 0.26348 0.88271 0.0
C1668 C 0.9301 0.28022 0.90434 0.0
C1669 C 0.90975 0.29151 0.90317 0.0
C1670 C 0.89746 0.28521 0.92509 0.0
C1671 C 0.91586 0.31928 0.90364 0.0
C1672 C 0.89639 0.27875 0.87727 0.0
C1673 C 0.90732 0.26217 0.86644 0.0
C1674 C 0.89861 0.2476 0.84306 0.0
C1675 C 0.87878 0.25065 0.82975 0.0
C1676 C 0.86761 0.26853 0.83917 0.0
C1677 C 0.87636 0.2825 0.86375 0.0
H1678 H 0.56141 0.23121 0.61542 0.0
H1679 H 0.6286 0.24449 0.65383 0.0
H1680 H 0.62944 0.20098 0.64178 0.0
H1681 H 0.54562 0.16883 0.63342 0.0
H1682 H 0.52773 0.15718 0.60322 0.0
H1683 H 0.53191 0.18901 0.6163 0.0
H1684 H 0.54368 0.20093 0.57428 0.0
H1685 H 0.53986 0.16917 0.56123 0.0
H1686 H 0.56581 0.18939 0.56295 0.0
H1687 H 0.62445 0.15728 0.62163 0.0
H1688 H 0.61254 0.11475 0.59986 0.0
H1689 H 0.54758 0.12777 0.57641 0.0
C1690 C 0.57602 0.22469 0.62196 0.0
C1691 C 0.59485 0.24112 0.63611 0.0
C1692 C 0.61389 0.23211 0.64356 0.0
C1693 C 0.61456 0.20745 0.6366 0.0
C1694 C 0.59595 0.19178 0.62227 0.0
C1695 C 0.57685 0.19984 0.61548 0.0
C1696 C 0.55929 0.17901 0.59983 0.0
C1697 C 0.53999 0.17316 0.61404 0.0
C1698 C 0.55172 0.18499 0.57298 0.0
C1699 C 0.57166 0.15824 0.59845 0.0
C1700 C 0.59285 0.16615 0.61137 0.0
C1701 C 0.6078 0.1508 0.6118 0.0
C1702 C 0.6009 0.12664 0.59916 0.0
C1703 C 0.57909 0.11769 0.58641 0.0
C1704 C 0.56432 0.13388 0.58611 0.0
H1705 H 0.58074 0.77614 0.3884 0.0
H1706 H 0.61025 0.78379 0.46847 0.0
H1707 H 0.64653 0.78701 0.45626 0.0
H1708 H 0.61799 0.7404 0.36293 0.0
H1709 H 0.61903 0.75531 0.33489 0.0
H1710 H 0.595 0.75237 0.34957 0.0
H1711 H 0.59794 0.79918 0.35396 0.0
H1712 H 0.62199 0.80225 0.33936 0.0
H1713 H 0.62292 0.81925 0.37044 0.0
H1714 H 0.68002 0.79061 0.43591 0.0
H1715 H 0.70833 0.79425 0.40876 0.0
H1716 H 0.65823 0.7855 0.34138 0.0
C1717 C 0.59481 0.77818 0.40331 0.0
C1718 C 0.59245 0.77957 0.42949 0.0
C1719 C 0.61143 0.7826 0.44833 0.0
C1720 C 0.63222 0.78445 0.44158 0.0
C1721 C 0.63404 0.78332 0.41579 0.0
C1722 C 0.61589 0.78021 0.39688 0.0
C1723 C 0.62268 0.78029 0.37063 0.0
C1724 C 0.6131 0.75562 0.35349 0.0
C1725 C 0.61598 0.80151 0.35785 0.0
C1726 C 0.64741 0.78413 0.37783 0.0
C1727 C 0.65353 0.78571 0.404 0.0
C1728 C 0.67539 0.78945 0.41538 0.0
C1729 C 0.69144 0.79171 0.39972 0.0
C1730 C 0.68581 0.79039 0.37276 0.0
C1731 C 0.6633 0.78639 0.36181 0.0
H1732 H 1.02795 0.258 0.43307 0.0
H1733 H 0.09226 0.2772 0.41375 0.0
H1734 H 0.0998 0.23724 0.42349 0.0
H1735 H 0.0419 0.23421 0.4851 0.0
H1736 H 1.01852 0.20953 0.4811 0.0
H1737 H 1.01624 0.23632 0.46661 0.0
H1738 H 1.00287 0.20992 0.42197 0.0
H1739 H 1.00477 0.18282 0.4364 0.0
H1740 H 1.01891 0.18914 0.41023 0.0
H1741 H 0.10327 0.20091 0.44595 0.0
H1742 H 0.1008 0.16893 0.47429 0.0
H1743 H 0.03335 0.1725 0.47609 0.0
C1744 C 0.04321 0.2532 0.4298 0.0
C1745 C 0.05951 0.27025 0.42257 0.0
C1746 C 0.07952 0.26398 0.41892 0.0
C1747 C 0.0839 0.24141 0.42445 0.0
C1748 C 0.06782 0.22533 0.43287 0.0
C1749 C 0.04761 0.23071 0.43479 0.0
C1750 C 0.034 0.21191 0.44701 0.0
C1751 C 1.0273 0.22371 0.47139 0.0
C1752 C 1.01396 0.1976 0.42774 0.0
C1753 C 0.0502 0.196 0.4533 0.0
C1754 C 0.06956 0.20378 0.44481 0.0
C1755 C 0.08794 0.19405 0.45183 0.0
C1756 C 0.08648 0.17609 0.46802 0.0
C1757 C 0.06675 0.16806 0.47677 0.0
C1758 C 0.04836 0.17778 0.46884 0.0
H1759 H 0.66078 0.30376 0.21328 0.0
H1760 H 0.6275 0.24198 0.24374 0.0
H1761 H 0.66316 0.23555 0.26489 0.0
H1762 H 0.70787 0.27992 0.20141 0.0
H1763 H 0.72632 0.30906 0.21142 0.0
H1764 H 0.69831 0.30776 0.19773 0.0
H1765 H 0.69378 0.33566 0.23804 0.0
H1766 H 0.72179 0.33719 0.25174 0.0
H1767 H 0.70044 0.32694 0.26924 0.0
H1768 H 0.7029 0.2363 0.28266 0.0
H1769 H 0.74272 0.24664 0.29894 0.0
H1770 H 0.74859 0.30879 0.25758 0.0
C1771 C 0.66098 0.2887 0.22417 0.0
C1772 C 0.64151 0.27318 0.2267 0.0
C1773 C 0.64235 0.25404 0.2416 0.0
C1774 C 0.66247 0.25018 0.25352 0.0
C1775 C 0.68143 0.26581 0.25049 0.0
C1776 C 0.68076 0.28485 0.23641 0.0
C1777 C 0.70318 0.30003 0.23725 0.0
C1778 C 0.70927 0.29912 0.21035 0.0
C1779 C 0.70489 0.32651 0.24982 0.0
C1780 C 0.71665 0.28659 0.25403 0.0
C1781 C 0.70395 0.26672 0.26128 0.0
C1782 C 0.713 0.2518 0.27708 0.0
C1783 C 0.73558 0.25771 0.28611 0.0
C1784 C 0.7486 0.27852 0.27952 0.0
C1785 C 0.73899 0.29282 0.26299 0.0
H1786 H 0.56057 0.9057 0.93719 0.0
H1787 H 0.56247 0.85084 0.98785 0.0
H1788 H 0.55854 0.88055 0.0237 0.0
H1789 H 0.59151 0.95638 0.98275 0.0
H1790 H 0.57566 0.97773 0.97153 0.0
H1791 H 0.57813 0.95187 0.94979 0.0
H1792 H 0.53597 0.93889 0.93897 0.0
H1793 H 0.53341 0.96453 0.96108 0.0
H1794 H 0.5206 0.93399 0.96443 0.0
H1795 H 0.55573 0.91629 0.05433 0.0
H1796 H 0.55659 0.95691 0.0783 0.0
H1797 H 0.55524 0.98789 1.00745 0.0
C1798 C 0.56028 0.90002 0.95586 0.0
C1799 C 0.56183 0.87603 0.9598 0.0
C1800 C 0.56128 0.86917 0.98445 0.0
C1801 C 0.55894 0.88584 1.00489 0.0
C1802 C 0.55708 0.90923 1.00031 0.0
C1803 C 0.55785 0.91641 0.97648 0.0
C1804 C 0.55609 0.94287 0.97692 0.0
C1805 C 0.57657 0.9581 0.96984 0.0
C1806 C 0.53527 0.94519 0.9593 0.0
C1807 C 0.55467 0.94949 1.00484 0.0
C1808 C 0.55508 0.92979 0.01796 0.0
C1809 C 0.55519 0.93183 0.04427 0.0
C1810 C 0.55561 0.95488 0.0577 0.0
C1811 C 0.55592 0.97537 0.04467 0.0
C1812 C 0.55478 0.97244 0.01785 0.0
H1813 H 0.9997 0.7534 0.73329 0.0
H1814 H 0.04355 0.74434 0.80041 0.0
H1815 H 1.01532 0.74971 0.82696 0.0
H1816 H 0.98276 0.80144 0.76182 0.0
H1817 H 0.95505 0.79358 0.74482 0.0
H1818 H 0.97632 0.78343 0.73041 0.0
H1819 H 0.9555 0.73839 0.72491 0.0
H1820 H 0.9339 0.74851 0.73892 0.0
H1821 H 0.94705 0.72593 0.75233 0.0
H1822 H 0.98365 0.76194 0.84686 0.0
H1823 H 0.95211 0.7788 0.85763 0.0
H1824 H 0.93201 0.78322 0.77719 0.0
C1825 C 1.00317 0.75164 0.75341 0.0
C1826 C 1.02376 0.74826 0.76476 0.0
C1827 C 1.02776 0.7466 0.79126 0.0
C1828 C 1.01183 0.7497 0.80648 0.0
C1829 C 0.99206 0.75435 0.79482 0.0
C1830 C 0.98769 0.75504 0.76877 0.0
C1831 C 0.96659 0.76329 0.76112 0.0
C1832 C 0.97043 0.78682 0.74884 0.0
C1833 C 0.94977 0.7428 0.74327 0.0
C1834 C 0.96005 0.76795 0.787 0.0
C1835 C 0.97458 0.76227 0.80623 0.0
C1836 C 0.97208 0.76619 0.83185 0.0
C1837 C 0.95425 0.77606 0.83783 0.0
C1838 C 0.93937 0.78226 0.81829 0.0
C1839 C 0.94255 0.7781 0.79262 0.0
H1840 H 0.11872 0.0511 0.88308 0.0
H1841 H 0.1744 0.10613 0.9227 0.0
H1842 H 0.16173 0.1014 0.96402 0.0
H1843 H 0.079 0.06453 0.92354 0.0
H1844 H 0.06706 0.0327 0.92232 0.0
H1845 H 0.07905 0.04288 0.89586 0.0
H1846 H 0.104 1.01133 0.89967 0.0
H1847 H 0.09233 1.00133 0.92637 0.0
H1848 H 0.1214 1.01182 0.92979 0.0
H1849 H 0.14264 0.09036 1.00096 0.0
H1850 H 0.12032 0.07212 0.0308 0.0
H1851 H 0.07999 1.02058 0.96749 0.0
C1852 C 0.12784 0.06263 0.90041 0.0
C1853 C 0.14714 0.07952 0.89982 0.0
C1854 C 0.1593 0.09351 0.92288 0.0
C1855 C 0.15226 0.09088 0.94636 0.0
C1856 C 0.13333 0.0737 0.94642 0.0
C1857 C 0.12139 0.05967 0.92405 0.0
C1858 C 0.10278 0.04103 0.92955 0.0
C1859 C 0.08067 0.04556 0.91708 0.0
C1860 C 0.10529 1.01483 0.92083 0.0
C1861 C 0.1061 0.0467 0.95848 0.0
C1862 C 0.12356 0.06588 0.96782 0.0
C1863 C 0.12914 0.0751 0.99387 0.0
C1864 C 0.11648 0.0645 1.01074 0.0
C1865 C 0.09885 0.04448 1.00166 0.0
C1866 C 0.09373 0.03545 0.97516 0.0
H1867 H 0.75913 0.342 0.53701 0.0
H1868 H 0.77537 0.41904 0.5687 0.0
H1869 H 0.7864 0.40853 0.61158 0.0
H1870 H 0.737 0.32135 0.59238 0.0
H1871 H 0.74745 0.29365 0.58958 0.0
H1872 H 0.74012 0.30719 0.56142 0.0
H1873 H 0.77893 0.30845 0.55086 0.0
H1874 H 0.78642 0.29514 0.5791 0.0
H1875 H 0.80231 0.32381 0.57448 0.0
H1876 H 0.7991 0.39023 0.64961 0.0
H1877 H 0.80907 0.3649 0.68211 0.0
H1878 H 0.78101 0.29943 0.6269 0.0
C1879 C 0.76487 0.35661 0.55303 0.0
C1880 C 0.76653 0.3813 0.5496 0.0
C1881 C 0.77392 0.39997 0.57098 0.0
C1882 C 0.78028 0.39422 0.59537 0.0
C1883 C 0.77876 0.36973 0.59805 0.0
C1884 C 0.77089 0.35118 0.57762 0.0
C1885 C 0.77082 0.32637 0.58587 0.0
C1886 C 0.74745 0.31125 0.58209 0.0
C1887 C 0.7855 0.31264 0.57174 0.0
C1888 C 0.78042 0.33398 0.61398 0.0
C1889 C 0.78498 0.35906 0.62052 0.0
C1890 C 0.79513 0.37052 0.64495 0.0
C1891 C 0.80058 0.3559 0.66333 0.0
C1892 C 0.7955 0.33004 0.65732 0.0
C1893 C 0.78525 0.31907 0.63223 0.0
H1894 H 0.49404 0.06073 0.36396 0.0
H1895 H 0.43383 0.06629 0.39128 0.0
H1896 H 0.45105 0.0624 0.43494 0.0
H1897 H 0.50977 1.01644 0.40467 0.0
H1898 H 0.53846 0.02995 0.41044 0.0
H1899 H 0.52139 0.03284 0.38124 0.0
H1900 H 0.53374 0.07979 0.39104 0.0
H1901 H 0.55084 0.07702 0.42027 0.0
H1902 H 0.53059 0.09563 0.42119 0.0
H1903 H 0.47604 0.05758 0.47815 0.0
H1904 H 0.50499 0.05331 0.5133 0.0
H1905 H 0.54962 0.05149 0.45936 0.0
C1906 C 0.48436 0.06107 0.37904 0.0
C1907 C 0.4621 0.06383 0.3733 0.0
C1908 C 0.45063 0.06422 0.39434 0.0
C1909 C 0.46043 0.06199 0.41957 0.0
C1910 C 0.48221 0.05938 0.42453 0.0
C1911 C 0.49405 0.05896 0.4047 0.0
C1912 C 0.51732 0.05623 0.41524 0.0
C1913 C 0.52201 0.03246 0.40211 0.0
C1914 C 0.53412 0.07849 0.41172 0.0
C1915 C 0.51681 0.05518 0.44389 0.0
C1916 C 0.49634 0.05695 0.44892 0.0
C1917 C 0.49204 0.05624 0.47405 0.0
C1918 C 0.50874 0.05375 0.4942 0.0
C1919 C 0.53003 0.052 0.48983 0.0
C1920 C 0.53376 0.05279 0.46394 0.0
H1921 H 0.76194 0.73293 0.10983 0.0
H1922 H 0.81181 0.68936 0.1095 0.0
H1923 H 0.82503 0.70439 0.1555 0.0
H1924 H 0.79382 0.78477 0.15341 0.0
H1925 H 0.7718 0.79014 0.16973 0.0
H1926 H 0.76603 0.77608 0.13668 0.0
H1927 H 0.74018 0.73921 0.14814 0.0
H1928 H 0.74578 0.75322 0.1812 0.0
H1929 H 0.75023 0.7228 0.17286 0.0
H1930 H 0.83394 0.72518 0.20044 0.0
H1931 H 0.83635 0.74767 0.24327 0.0
H1932 H 0.77969 0.77689 0.21626 0.0
C1933 C 0.77564 0.72652 0.11945 0.0
C1934 C 0.78592 0.71001 0.10597 0.0
C1935 C 0.80363 0.70191 0.11935 0.0
C1936 C 0.81131 0.71043 0.14547 0.0
C1937 C 0.80095 0.72682 0.15806 0.0
C1938 C 0.78333 0.73458 0.14567 0.0
C1939 C 0.77493 0.75189 0.16401 0.0
C1940 C 0.77676 0.77722 0.15544 0.0
C1941 C 0.75138 0.74113 0.16671 0.0
C1942 C 0.79073 0.75279 0.18862 0.0
C1943 C 0.80569 0.73832 0.18453 0.0
C1944 C 0.82228 0.73649 0.20391 0.0
C1945 C 0.82359 0.74957 0.22819 0.0
C1946 C 0.80833 0.76429 0.23322 0.0
C1947 C 0.79159 0.76582 0.21308 0.0
H1948 H 0.11368 0.09861 0.75403 0.0
H1949 H 0.14665 0.03796 0.76123 0.0
H1950 H 0.1342 0.02295 0.71519 0.0
H1951 H 0.06691 0.06592 0.70794 0.0
H1952 H 0.0653 0.09091 0.68997 0.0
H1953 H 0.07648 0.09699 0.72369 0.0
H1954 H 0.11202 0.1225 0.71418 0.0
H1955 H 0.10093 0.11656 0.68043 0.0
H1956 H 0.12671 0.10892 0.69185 0.0
H1957 H 0.11754 1.01365 0.66921 0.0
H1958 H 0.09977 1.01186 0.62479 0.0
H1959 H 0.07852 0.07948 0.64574 0.0
C1960 C 0.11825 0.08216 0.74591 0.0
C1961 C 0.13111 0.06943 0.76132 0.0
C1962 C 0.1369 0.0481 0.74988 0.0
C1963 C 0.12984 0.03936 0.72374 0.0
C1964 C 0.11717 0.05226 0.70915 0.0
C1965 C 0.11157 0.07332 0.71967 0.0
C1966 C 0.09822 0.08394 0.69938 0.0
C1967 C 0.07537 0.08446 0.70562 0.0
C1968 C 0.11019 0.1095 0.69628 0.0
C1969 C 0.09714 0.06546 0.67587 0.0
C1970 C 0.10805 0.04728 0.68212 0.0
C1971 C 0.10906 0.02786 0.66402 0.0
C1972 C 0.09879 0.02702 0.63876 0.0
C1973 C 0.08773 0.0456 0.63158 0.0
C1974 C 0.08693 0.06509 0.65051 0.0
H1975 H 0.71857 0.37425 0.41537 0.0
H1976 H 0.76744 0.44114 0.4309 0.0
H1977 H 0.79031 0.42176 0.4047 0.0
H1978 H 0.74852 0.33636 0.42335 0.0
H1979 H 0.73651 0.31183 0.39748 0.0
H1980 H 0.72018 0.33212 0.40905 0.0
H1981 H 0.71013 0.34415 0.36411 0.0
H1982 H 0.72511 0.32248 0.35173 0.0
H1983 H 0.7314 0.35378 0.34626 0.0
H1984 H 0.81224 0.39132 0.39126 0.0
H1985 H 0.82721 0.35538 0.37674 0.0
H1986 H 0.76296 0.30921 0.36626 0.0
C1987 C 0.73323 0.38534 0.4114 0.0
C1988 C 0.74143 0.40896 0.42509 0.0
C1989 C 0.7609 0.42302 0.42029 0.0
C1990 C 0.77411 0.41203 0.40568 0.0
C1991 C 0.76685 0.38752 0.39506 0.0
C1992 C 0.74623 0.37476 0.3963 0.0
C1993 C 0.74315 0.34803 0.38546 0.0
C1994 C 0.73672 0.33113 0.40502 0.0
C1995 C 0.72646 0.34174 0.36039 0.0
C1996 C 0.76583 0.3473 0.38042 0.0
C1997 C 0.7793 0.37022 0.38603 0.0
C1998 C 0.80164 0.37348 0.38581 0.0
C1999 C 0.81008 0.35299 0.37814 0.0
C2000 C 0.79614 0.32981 0.37069 0.0
C2001 C 0.77387 0.32686 0.37213 0.0
H2002 H 0.49893 0.05182 0.24338 0.0
H2003 H 0.43607 0.06459 0.21035 0.0
H2004 H 0.44736 0.06158 0.16745 0.0
H2005 H 0.53117 0.08671 0.20284 0.0
H2006 H 0.54966 0.06602 0.20119 0.0
H2007 H 0.53655 0.06959 0.22876 0.0
H2008 H 0.5214 0.02308 0.22199 0.0
H2009 H 0.53434 1.0194 0.19431 0.0
H2010 H 0.50541 1.00828 0.19151 0.0
H2011 H 0.46672 0.05458 0.12508 0.0
H2012 H 0.49048 0.04832 0.09299 0.0
H2013 H 0.54168 0.04167 0.15359 0.0
C2014 C 0.48734 0.05425 0.2273 0.0
C2015 C 0.46619 0.05865 0.2314 0.0
C2016 C 0.45224 0.06153 0.2089 0.0
C2017 C 0.45865 0.05963 0.18403 0.0
C2018 C 0.47942 0.05498 0.18094 0.0
C2019 C 0.49362 0.05267 0.20237 0.0
C2020 C 0.51518 0.04803 0.19445 0.0
C2021 C 0.53427 0.06882 0.2076 0.0
C2022 C 0.51933 0.02323 0.20097 0.0
C2023 C 0.51117 0.04782 0.16519 0.0
C2024 C 0.49034 0.05171 0.15765 0.0
C2025 C 0.48297 0.05171 0.13138 0.0
C2026 C 0.49681 0.04797 0.11291 0.0
C2027 C 0.5185 0.04428 0.11977 0.0
C2028 C 0.52544 0.04432 0.14682 0.0
H2029 H 0.78567 0.73088 0.98632 0.0
H2030 H 0.76821 0.65767 0.94349 0.0
H2031 H 0.77012 0.67492 0.90317 0.0
H2032 H 0.75673 0.76119 0.93862 0.0
H2033 H 0.7779 0.78838 0.94453 0.0
H2034 H 0.77347 0.77051 0.96989 0.0
H2035 H 0.8139 0.76648 0.97626 0.0
H2036 H 0.81844 0.78431 0.95094 0.0
H2037 H 0.82481 0.75433 0.94933 0.0
H2038 H 0.77579 0.69985 0.86762 0.0
H2039 H 0.78575 0.73033 0.83956 0.0
H2040 H 0.80019 0.78797 0.90481 0.0
C2041 C 0.78188 0.71849 0.96841 0.0
C2042 C 0.77656 0.69283 0.96812 0.0
C2043 C 0.77219 0.67732 0.94428 0.0
C2044 C 0.77321 0.68698 0.92123 0.0
C2045 C 0.77875 0.71228 0.9222 0.0
C2046 C 0.78305 0.72786 0.94517 0.0
C2047 C 0.78985 0.75428 0.94093 0.0
C2048 C 0.77351 0.76948 0.94897 0.0
C2049 C 0.81313 0.7655 0.95521 0.0
C2050 C 0.78888 0.75111 0.91204 0.0
C2051 C 0.78226 0.72671 0.90165 0.0
C2052 C 0.78077 0.71901 0.87554 0.0
C2053 C 0.78639 0.73655 0.85969 0.0
C2054 C 0.7935 0.76167 0.86979 0.0
C2055 C 0.79454 0.76899 0.89638 0.0
H2056 H 0.92306 0.13428 0.13839 0.0
H2057 H 0.85898 0.08763 0.12686 0.0
H2058 H 0.87497 0.05147 0.11704 0.0
H2059 H 0.9324 0.11043 0.08351 0.0
H2060 H 0.9615 0.11396 0.09245 0.0
H2061 H 0.94753 0.13392 0.10905 0.0
H2062 H 0.96237 0.12186 0.15251 0.0
H2063 H 0.97711 0.10234 0.13615 0.0
H2064 H 0.95862 0.09013 0.1565 0.0
H2065 H 0.89665 0.02235 0.09742 0.0
H2066 H 0.92138 1.00392 0.07275 0.0
H2067 H 0.96765 0.07335 0.08969 0.0
C2068 C 0.91258 0.1163 0.13521 0.0
C2069 C 0.88994 0.11361 0.13329 0.0
C2070 C 0.87652 0.08995 0.12872 0.0
C2071 C 0.88547 0.06933 0.1229 0.0
C2072 C 0.90769 0.07297 0.12176 0.0
C2073 C 0.92103 0.09603 0.12803 0.0
C2074 C 0.94265 0.0968 0.11943 0.0
C2075 C 0.94618 0.11481 0.09997 0.0
C2076 C 0.96131 0.1031 0.14254 0.0
C2077 C 0.93941 0.07075 0.10688 0.0
C2078 C 0.91948 0.05695 0.10878 0.0
C2079 C 0.91251 0.03288 0.09634 0.0
C2080 C 0.92649 0.0227 0.082 0.0
C2081 C 0.94685 0.03689 0.07967 0.0
C2082 C 0.95292 0.0613 0.09206 0.0
H2083 H 0.40242 0.4656 0.09535 0.0
H2084 H 0.40783 0.4039 0.0413 0.0
H2085 H 0.44286 0.42613 0.03439 0.0
H2086 H 0.42762 0.51306 0.06093 0.0
H2087 H 0.44238 0.53304 0.08947 0.0
H2088 H 0.41704 0.51276 0.09048 0.0
H2089 H 0.43638 0.49446 0.12752 0.0
H2090 H 0.4618 0.5146 0.12653 0.0
H2091 H 0.46011 0.48206 0.12328 0.0
H2092 H 0.47719 0.45335 0.03291 0.0
H2093 H 0.50956 0.48576 0.03609 0.0
H2094 H 0.48473 0.53176 0.091 0.0
C2095 C 0.41095 0.45691 0.08197 0.0
C2096 C 0.40219 0.43271 0.0691 0.0
C2097 C 0.41406 0.42212 0.05178 0.0
C2098 C 0.43409 0.43466 0.04758 0.0
C2099 C 0.44245 0.45806 0.06076 0.0
C2100 C 0.4314 0.4693 0.07754 0.0
C2101 C 0.44474 0.49472 0.08916 0.0
C2102 C 0.43219 0.51457 0.08208 0.0
C2103 C 0.45113 0.49656 0.11836 0.0
C2104 C 0.46477 0.49577 0.07612 0.0
C2105 C 0.46289 0.47424 0.05989 0.0
C2106 C 0.47891 0.47032 0.04557 0.0
C2107 C 0.49735 0.4889 0.0476 0.0
C2108 C 0.49992 0.51134 0.06391 0.0
C2109 C 0.48334 0.51478 0.07846 0.0
H2110 H 0.44987 0.59235 0.80666 0.0
H2111 H 0.41332 0.55161 0.73453 0.0
H2112 H 0.39307 0.58467 0.72893 0.0
H2113 H 0.40536 0.61045 0.82771 0.0
H2114 H 0.41951 0.6403 0.84383 0.0
H2115 H 0.4342 0.61605 0.84001 0.0
H2116 H 0.46115 0.64271 0.81746 0.0
H2117 H 0.44652 0.66713 0.82127 0.0
H2118 H 0.4508 0.65552 0.78988 0.0
H2119 H 0.37395 0.61882 0.73329 0.0
H2120 H 0.35544 0.65117 0.74836 0.0
H2121 H 0.4029 0.66998 0.8187 0.0
C2122 C 0.43811 0.5909 0.78932 0.0
C2123 C 0.43334 0.56976 0.77073 0.0
C2124 C 0.41727 0.56785 0.74878 0.0
C2125 C 0.4058 0.58656 0.74541 0.0
C2126 C 0.41043 0.60696 0.76433 0.0
C2127 C 0.42613 0.60927 0.78594 0.0
C2128 C 0.42583 0.63152 0.80486 0.0
C2129 C 0.42092 0.62412 0.83062 0.0
C2130 C 0.44736 0.65034 0.80858 0.0
C2131 C 0.40709 0.64086 0.79082 0.0
C2132 C 0.39879 0.62662 0.76727 0.0
C2133 C 0.38049 0.63033 0.75151 0.0
C2134 C 0.37005 0.6487 0.76025 0.0
C2135 C 0.37784 0.6631 0.78459 0.0
C2136 C 0.39691 0.65951 0.79981 0.0
H2137 H 0.28528 0.62514 0.58944 0.0
H2138 H 0.2866 0.67571 0.6577 0.0
H2139 H 0.25537 0.6476 0.66833 0.0
H2140 H 0.22869 0.61167 0.57217 0.0
H2141 H 0.22655 0.5801 0.55929 0.0
H2142 H 0.25106 0.60208 0.55935 0.0
H2143 H 0.27385 0.57588 0.58439 0.0
H2144 H 0.24934 0.55378 0.58443 0.0
H2145 H 0.26704 0.56749 0.61425 0.0
H2146 H 0.22272 0.61579 0.66976 0.0
H2147 H 0.18857 0.58469 0.65994 0.0
H2148 H 0.2072 0.55583 0.58933 0.0
C2149 C 0.2793 0.62991 0.60695 0.0
C2150 C 0.28841 0.65225 0.62305 0.0
C2151 C 0.2798 0.6585 0.64532 0.0
C2152 C 0.26222 0.64261 0.65154 0.0
C2153 C 0.25336 0.62079 0.63509 0.0
C2154 C 0.26146 0.61454 0.6131 0.0
C2155 C 0.24737 0.59158 0.59705 0.0
C2156 C 0.23786 0.59668 0.5704 0.0
C2157 C 0.26017 0.57096 0.59492 0.0
C2158 C 0.22984 0.58616 0.61318 0.0
C2159 C 0.23388 0.60292 0.63531 0.0
C2160 C 0.2195 0.60237 0.65267 0.0
C2161 C 0.20021 0.58456 0.64699 0.0
C2162 C 0.19537 0.56777 0.62398 0.0
C2163 C 0.21058 0.56837 0.60712 0.0
H2164 H 0.74881 0.96772 0.82647 0.0
H2165 H 0.68219 0.92846 0.81977 0.0
H2166 H 0.69498 0.88951 0.81763 0.0
H2167 H 0.7673 0.92161 0.78408 0.0
H2168 H 0.79394 0.92529 0.80327 0.0
H2169 H 0.77992 0.95042 0.80378 0.0
H2170 H 0.78369 0.95379 0.85288 0.0
H2171 H 0.7977 0.92866 0.8525 0.0
H2172 H 0.77364 0.92731 0.86699 0.0
H2173 H 0.71539 0.85232 0.815 0.0
H2174 H 0.74002 0.82328 0.81421 0.0
H2175 H 0.79542 0.8836 0.82483 0.0
C2176 C 0.73675 0.95098 0.82444 0.0
C2177 C 0.71385 0.9523 0.82313 0.0
C2178 C 0.69949 0.92913 0.82078 0.0
C2179 C 0.70678 0.90644 0.81952 0.0
C2180 C 0.72907 0.90586 0.82086 0.0
C2181 C 0.74395 0.92768 0.82347 0.0
C2182 C 0.76714 0.92162 0.82507 0.0
C2183 C 0.77771 0.93026 0.80273 0.0
C2184 C 0.7814 0.93357 0.85089 0.0
C2185 C 0.76307 0.89322 0.82285 0.0
C2186 C 0.74081 0.88467 0.82026 0.0
C2187 C 0.73277 0.8593 0.81724 0.0
C2188 C 0.74722 0.84253 0.81684 0.0
C2189 C 0.77037 0.84993 0.81974 0.0
C2190 C 0.77813 0.87631 0.82287 0.0
H2191 H 0.76579 0.92375 0.55967 0.0
H2192 H 0.81189 0.97981 0.61377 0.0
H2193 H 0.78327 1.00399 0.61683 0.0
H2194 H 0.73992 0.96526 0.52597 0.0
H2195 H 0.71299 0.94624 0.5204 0.0
H2196 H 0.73661 0.93255 0.52364 0.0
H2197 H 0.72318 0.91091 0.56028 0.0
H2198 H 0.69952 0.92457 0.55717 0.0
H2199 H 0.71731 0.9288 0.58771 0.0
H2200 H 0.74964 0.0224 0.61383 0.0
H2201 H 0.71448 0.0348 0.60347 0.0
H2202 H 0.6901 0.96814 0.5492 0.0
C2203 C 0.76978 0.94098 0.57241 0.0
C2204 C 0.79115 0.94974 0.58672 0.0
C2205 C 0.79573 0.97262 0.60272 0.0
C2206 C 0.77951 0.98649 0.60461 0.0
C2207 C 0.75871 0.97745 0.59017 0.0
C2208 C 0.75381 0.95529 0.57422 0.0
C2209 C 0.73043 0.9504 0.5598 0.0
C2210 C 0.72997 0.9485 0.53073 0.0
C2211 C 0.71681 0.92729 0.56666 0.0
C2212 C 0.72295 0.97324 0.57014 0.0
C2213 C 0.73951 0.98847 0.58777 0.0
C2214 C 0.73664 1.01065 0.59991 0.0
C2215 C 0.71653 1.01764 0.59369 0.0
C2216 C 0.6993 1.00274 0.57521 0.0
C2217 C 0.70267 0.98002 0.56355 0.0
H2218 H 0.40826 0.44045 0.75997 0.0
H2219 H 0.45351 0.43596 0.828 0.0
H2220 H 0.42632 0.40353 0.83907 0.0
H2221 H 0.35848 0.42834 0.78637 0.0
H2222 H 0.34247 0.40916 0.75798 0.0
H2223 H 0.36499 0.43292 0.75529 0.0
H2224 H 0.38211 0.40112 0.73062 0.0
H2225 H 0.35957 0.37731 0.73309 0.0
H2226 H 0.38711 0.37467 0.74473 0.0
H2227 H 0.39466 0.37402 0.84455 0.0
H2228 H 0.36125 0.34341 0.84145 0.0
H2229 H 0.33607 0.36201 0.76763 0.0
C2230 C 0.41233 0.43257 0.77716 0.0
C2231 C 0.43299 0.44074 0.79321 0.0
C2232 C 0.43788 0.42987 0.81539 0.0
C2233 C 0.42249 0.41155 0.82193 0.0
C2234 C 0.40234 0.40392 0.80588 0.0
C2235 C 0.39723 0.41362 0.7837 0.0
C2236 C 0.3746 0.40079 0.76936 0.0
C2237 C 0.35923 0.41889 0.76712 0.0
C2238 C 0.37593 0.38769 0.74288 0.0
C2239 C 0.36788 0.38255 0.78713 0.0
C2240 C 0.38416 0.38519 0.80821 0.0
C2241 C 0.38196 0.37139 0.82791 0.0
C2242 C 0.36287 0.35391 0.82584 0.0
C2243 C 0.34628 0.34965 0.8039 0.0
C2244 C 0.3486 0.36456 0.78443 0.0
H2245 H 0.20199 0.61318 0.29951 0.0
H2246 H 0.2375 0.59438 0.3676 0.0
H2247 H 0.26344 0.63434 0.37342 0.0
H2248 H 0.25121 0.64372 0.27674 0.0
H2249 H 0.23796 0.6664 0.2637 0.0
H2250 H 0.22221 0.63666 0.26526 0.0
H2251 H 0.19696 0.65688 0.29079 0.0
H2252 H 0.21274 0.68667 0.2895 0.0
H2253 H 0.2086 0.6776 0.31999 0.0
H2254 H 0.2841 0.68023 0.37397 0.0
H2255 H 0.30004 0.72153 0.36547 0.0
H2256 H 0.25478 0.70929 0.29377 0.0
C2257 C 0.21543 0.61722 0.31549 0.0
C2258 C 0.21741 0.59986 0.33302 0.0
C2259 C 0.2354 0.60659 0.3536 0.0
C2260 C 0.25024 0.62962 0.35717 0.0
C2261 C 0.24766 0.64624 0.33972 0.0
C2262 C 0.23092 0.63993 0.31884 0.0
C2263 C 0.23222 0.66058 0.3022 0.0
C2264 C 0.23613 0.65128 0.27538 0.0
C2265 C 0.21139 0.67104 0.30052 0.0
C2266 C 0.25205 0.6797 0.31697 0.0
C2267 C 0.26045 0.67126 0.33891 0.0
C2268 C 0.27776 0.68644 0.35648 0.0
C2269 C 0.28681 0.71019 0.35149 0.0
C2270 C 0.27933 0.71916 0.32866 0.0
C2271 C 0.26152 0.70326 0.3112 0.0
H2272 H 0.54314 0.72126 0.52534 0.0
H2273 H 0.5245 0.69747 0.44349 0.0
H2274 H 0.52784 0.65535 0.45015 0.0
H2275 H 0.58415 0.68416 0.53493 0.0
H2276 H 0.57852 0.67812 0.56597 0.0
H2277 H 0.57389 0.706 0.55477 0.0
H2278 H 0.53383 0.69572 0.5618 0.0
H2279 H 0.53833 0.66774 0.57286 0.0
H2280 H 0.51664 0.66695 0.54657 0.0
H2281 H 0.53053 0.61481 0.46654 0.0
H2282 H 0.53824 0.58102 0.48982 0.0
H2283 H 0.55938 0.63179 0.56053 0.0
C2284 C 0.53981 0.70719 0.50879 0.0
C2285 C 0.53336 0.71272 0.48383 0.0
C2286 C 0.52947 0.69379 0.46272 0.0
C2287 C 0.53121 0.66975 0.46638 0.0
C2288 C 0.53734 0.66488 0.49125 0.0
C2289 C 0.54207 0.68323 0.51204 0.0
C2290 C 0.54939 0.67345 0.53663 0.0
C2291 C 0.57289 0.68619 0.54879 0.0
C2292 C 0.5336 0.67613 0.55558 0.0
C2293 C 0.548 0.6467 0.52652 0.0
C2294 C 0.54052 0.64204 0.50036 0.0
C2295 C 0.53671 0.61842 0.48693 0.0
C2296 C 0.54102 0.59927 0.50038 0.0
C2297 C 0.5496 0.60369 0.52697 0.0
C2298 C 0.5531 0.62783 0.54016 0.0
H2299 H 0.6622 0.32936 0.72675 0.0
H2300 H 0.68179 0.30549 0.65488 0.0
H2301 H 0.71593 0.29873 0.67841 0.0
H2302 H 0.71748 0.36175 0.75843 0.0
H2303 H 0.71407 0.35343 0.78942 0.0
H2304 H 0.69076 0.35659 0.76716 0.0
H2305 H 0.67152 0.31262 0.77035 0.0
H2306 H 0.6948 0.30929 0.79252 0.0
H2307 H 0.68498 0.28765 0.76362 0.0
H2308 H 0.74697 0.29108 0.70936 0.0
H2309 H 0.77446 0.28775 0.74591 0.0
H2310 H 0.73838 0.32012 0.79845 0.0
C2311 C 0.67375 0.3229 0.71597 0.0
C2312 C 0.66898 0.31807 0.6887 0.0
C2313 C 0.68477 0.30961 0.67559 0.0
C2314 C 0.70433 0.30553 0.68884 0.0
C2315 C 0.70843 0.31025 0.71548 0.0
C2316 C 0.69382 0.31914 0.729 0.0
C2317 C 0.70283 0.3232 0.75771 0.0
C2318 C 0.7065 0.35036 0.76884 0.0
C2319 C 0.68762 0.30724 0.77188 0.0
C2320 C 0.72449 0.31485 0.75807 0.0
C2321 C 0.7272 0.30725 0.73342 0.0
C2322 C 0.74523 0.29758 0.7287 0.0
C2323 C 0.76103 0.29595 0.74959 0.0
C2324 C 0.75934 0.30448 0.77501 0.0
C2325 C 0.74055 0.31387 0.77921 0.0
H2326 H 0.05675 0.36166 0.96562 0.0
H2327 H 1.01233 0.32477 1.00994 0.0
H2328 H 1.01134 0.36468 0.0343 0.0
H2329 H 0.08796 0.40608 0.01884 0.0
H2330 H 0.09239 0.43047 0.99993 0.0
H2331 H 0.08888 0.39921 0.98521 0.0
H2332 H 0.05697 0.40488 0.95157 0.0
H2333 H 0.06046 0.43618 0.96609 0.0
H2334 H 0.03429 0.41582 0.96219 0.0
H2335 H 1.01413 0.40904 0.05268 0.0
H2336 H 1.02227 0.45385 0.0656 0.0
H2337 H 0.06746 0.46183 1.01208 0.0
C2338 C 0.04667 0.36202 0.98032 0.0
C2339 C 0.03438 0.34009 0.98569 0.0
C2340 C 1.02178 0.34131 1.00543 0.0
C2341 C 1.02112 0.36391 0.01935 0.0
C2342 C 0.03351 0.38518 0.01369 0.0
C2343 C 0.04625 0.38441 0.99483 0.0
C2344 C 0.0587 0.40984 0.99323 0.0
C2345 C 0.08345 0.41149 0.99969 0.0
C2346 C 0.05221 0.4171 0.96669 0.0
C2347 C 0.05078 0.4251 0.01389 0.0
C2348 C 0.03609 0.41053 0.02529 0.0
C2349 C 1.02579 0.42055 0.04406 0.0
C2350 C 0.0305 0.44605 0.05127 0.0
C2351 C 0.0457 0.46136 0.04012 0.0
C2352 C 0.05608 0.4506 0.02132 0.0
H2353 H 0.04775 0.8035 0.23043 0.0
H2354 H 1.01767 0.80305 0.15177 0.0
H2355 H 0.98148 0.79759 0.16461 0.0
H2356 H 1.00486 0.75793 0.24582 0.0
H2357 H 1.00669 0.77293 0.27805 0.0
H2358 H 0.03038 0.7765 0.26279 0.0
H2359 H 0.03465 0.82349 0.27121 0.0
H2360 H 1.01093 0.82005 0.28642 0.0
H2361 H 1.01207 0.83709 0.25991 0.0
H2362 H 0.94824 0.79237 0.18578 0.0
H2363 H 0.92052 0.78799 0.21373 0.0
H2364 H 0.97131 0.79167 0.27919 0.0
C2365 C 0.03354 0.80215 0.2159 0.0
C2366 C 0.03572 0.80367 0.18997 0.0
C2367 C 1.0166 0.80195 0.17169 0.0
C2368 C 0.99588 0.79883 0.17881 0.0
C2369 C 0.99429 0.7975 0.20442 0.0
C2370 C 1.01259 0.79911 0.22273 0.0
C2371 C 1.0062 0.79736 0.249 0.0
C2372 C 1.0124 0.77484 0.25953 0.0
C2373 C 1.01658 0.8209 0.26774 0.0
C2374 C 0.98152 0.79451 0.24256 0.0
C2375 C 0.97505 0.7946 0.21669 0.0
C2376 C 0.95315 0.79218 0.20605 0.0
C2377 C 0.93743 0.78952 0.22214 0.0
C2378 C 0.94347 0.78928 0.2488 0.0
C2379 C 0.96598 0.79195 0.25902 0.0
H2380 H 0.5652 0.3533 0.22139 0.0
H2381 H 0.62636 0.33396 0.21012 0.0
H2382 H 0.63846 0.37392 0.19656 0.0
H2383 H 0.5553 0.37288 0.16795 0.0
H2384 H 0.54287 0.39799 0.17766 0.0
H2385 H 0.54252 0.37335 0.196 0.0
H2386 H 0.56143 0.40369 0.23688 0.0
H2387 H 0.56167 0.42869 0.21857 0.0
H2388 H 0.58671 0.42445 0.23671 0.0
H2389 H 0.63922 0.4085 0.17259 0.0
H2390 H 0.62808 0.4334 0.13972 0.0
H2391 H 0.56629 0.43089 0.16565 0.0
C2392 C 0.58161 0.3583 0.21749 0.0
C2393 C 0.59507 0.34113 0.21705 0.0
C2394 C 0.61603 0.34725 0.21076 0.0
C2395 C 0.62307 0.36998 0.20327 0.0
C2396 C 0.60886 0.3862 0.20223 0.0
C2397 C 0.58861 0.38076 0.20956 0.0
C2398 C 0.57448 0.39836 0.20139 0.0
C2399 C 0.55255 0.38483 0.18476 0.0
C2400 C 0.57087 0.41478 0.22479 0.0
C2401 C 0.58899 0.41282 0.18605 0.0
C2402 C 0.60914 0.40635 0.18766 0.0
C2403 C 0.62385 0.41439 0.17186 0.0
C2404 C 0.61742 0.42846 0.15322 0.0
C2405 C 0.59638 0.43385 0.15042 0.0
C2406 C 0.58254 0.42705 0.16782 0.0
H2407 H 0.97402 0.3114 0.41398 0.0
H2408 H 1.00176 0.36645 0.37104 0.0
H2409 H 0.96462 0.36937 0.35107 0.0
H2410 H 0.93096 0.28052 0.36206 0.0
H2411 H 0.91148 0.27292 0.38278 0.0
H2412 H 0.94017 0.27619 0.39452 0.0
H2413 H 0.93762 0.30853 0.43216 0.0
H2414 H 0.90896 0.30552 0.42038 0.0
H2415 H 0.92695 0.33509 0.42539 0.0
H2416 H 0.92475 0.36735 0.33735 0.0
H2417 H 0.88462 0.35623 0.32548 0.0
H2418 H 0.88312 0.29993 0.37459 0.0
C2419 C 0.97215 0.32403 0.40036 0.0
C2420 C 0.99045 0.33882 0.39397 0.0
C2421 C 0.98772 0.35495 0.37592 0.0
C2422 C 0.96679 0.35684 0.3647 0.0
C2423 C 0.94897 0.34213 0.37151 0.0
C2424 C 0.95143 0.32566 0.38849 0.0
C2425 C 0.92965 0.31084 0.39124 0.0
C2426 C 0.92797 0.2835 0.3821 0.0
C2427 C 0.92556 0.31527 0.41894 0.0
C2428 C 0.91456 0.32168 0.3733 0.0
C2429 C 0.92601 0.34 0.36247 0.0
C2430 C 0.91559 0.35298 0.34559 0.0
C2431 C 0.89284 0.34667 0.33913 0.0
C2432 C 0.88095 0.32729 0.34921 0.0
C2433 C 0.89193 0.31481 0.36665 0.0
H2434 H 0.05649 0.70835 0.63505 0.0
H2435 H 0.08001 0.68786 0.70837 0.0
H2436 H 0.08717 0.64984 0.68585 0.0
H2437 H 0.03148 0.64663 0.60132 0.0
H2438 H 0.03972 0.65418 0.57182 0.0
H2439 H 0.03412 0.67753 0.59442 0.0
H2440 H 0.0726 0.70329 0.59464 0.0
H2441 H 0.0787 0.6795 0.57299 0.0
H2442 H 0.0963 0.69062 0.60348 0.0
H2443 H 0.09467 0.61603 0.65466 0.0
H2444 H 0.09536 0.58534 0.61793 0.0
H2445 H 0.06892 0.63018 0.56564 0.0
C2446 C 0.06255 0.69551 0.64644 0.0
C2447 C 0.06766 0.70091 0.67342 0.0
C2448 C 0.07568 0.68382 0.68769 0.0
C2449 C 0.08011 0.66243 0.67504 0.0
C2450 C 0.07636 0.65861 0.64828 0.0
C2451 C 0.06726 0.67443 0.63421 0.0
C2452 C 0.06528 0.66676 0.60573 0.0
C2453 C 0.04122 0.66091 0.59255 0.0
C2454 C 0.07904 0.68621 0.59351 0.0
C2455 C 0.07472 0.64406 0.60581 0.0
C2456 C 0.08116 0.63971 0.6305 0.0
C2457 C 0.08967 0.61927 0.63528 0.0
C2458 C 0.09026 0.60209 0.6143 0.0
C2459 C 0.08235 0.60547 0.58898 0.0
C2460 C 0.0755 0.6273 0.58471 0.0
H2461 H 0.61429 0.80761 0.88967 0.0
H2462 H 0.57127 0.82327 0.82527 0.0
H2463 H 0.59543 0.81033 0.79601 0.0
H2464 H 0.66488 0.8274 0.86835 0.0
H2465 H 0.67672 0.80335 0.88045 0.0
H2466 H 0.65646 0.81495 0.89578 0.0
H2467 H 0.63303 0.77105 0.88958 0.0
H2468 H 0.65312 0.75935 0.87402 0.0
H2469 H 0.62519 0.75367 0.85788 0.0
H2470 H 0.62521 0.79565 0.7742 0.0
H2471 H 0.65741 0.78092 0.76221 0.0
H2472 H 0.67781 0.77218 0.84136 0.0
C2473 C 0.60999 0.80861 0.86946 0.0
C2474 C 0.59105 0.8166 0.8597 0.0
C2475 C 0.58584 0.81729 0.83308 0.0
C2476 C 0.59941 0.80995 0.81637 0.0
C2477 C 0.61788 0.80181 0.82669 0.0
C2478 C 0.62307 0.80111 0.85265 0.0
C2479 C 0.64334 0.79109 0.85915 0.0
C2480 C 0.66141 0.81035 0.87698 0.0
C2481 C 0.63836 0.76738 0.87083 0.0
C2482 C 0.64888 0.78623 0.83279 0.0
C2483 C 0.63421 0.79264 0.81424 0.0
C2484 C 0.63671 0.79044 0.78858 0.0
C2485 C 0.65492 0.78188 0.78192 0.0
C2486 C 0.67022 0.77555 0.80087 0.0
C2487 C 0.6667 0.77728 0.82645 0.0
H2488 H 0.50849 0.48872 0.70769 0.0
H2489 H 0.46113 0.53545 0.70894 0.0
H2490 H 0.46975 0.54844 0.66838 0.0
H2491 H 0.54801 0.52857 0.68559 0.0
H2492 H 0.55643 0.50539 0.66538 0.0
H2493 H 0.54498 0.49783 0.69303 0.0
H2494 H 0.51558 0.4634 0.66432 0.0
H2495 H 0.52703 0.4709 0.63657 0.0
H2496 H 0.49858 0.47049 0.63715 0.0
H2497 H 0.48722 0.56075 0.63107 0.0
H2498 H 0.51064 0.56918 0.59845 0.0
H2499 H 0.5447 0.51257 0.6197 0.0
C2500 C 0.4996 0.50134 0.69922 0.0
C2501 C 0.48407 0.51101 0.7116 0.0
C2502 C 0.47296 0.5276 0.69984 0.0
C2503 C 0.47777 0.53513 0.67677 0.0
C2504 C 0.49348 0.52564 0.6654 0.0
C2505 C 0.50401 0.50882 0.67605 0.0
C2506 C 0.521 0.5023 0.66068 0.0
C2507 C 0.54395 0.50893 0.67716 0.0
C2508 C 0.51519 0.47516 0.64898 0.0
C2509 C 0.51879 0.51858 0.64015 0.0
C2510 C 0.50283 0.53193 0.64319 0.0
C2511 C 0.49935 0.54996 0.62809 0.0
C2512 C 0.51268 0.55465 0.60966 0.0
C2513 C 0.52897 0.54109 0.60625 0.0
C2514 C 0.5318 0.52258 0.62138 0.0
H2515 H 0.88409 0.21077 0.05512 0.0
H2516 H 0.84692 0.13768 0.02512 0.0
H2517 H 0.83627 0.15135 0.98343 0.0
H2518 H 0.8454 0.23994 0.03056 0.0
H2519 H 0.86383 0.26593 0.02388 0.0
H2520 H 0.87254 0.24943 0.04902 0.0
H2521 H 0.90554 0.24195 0.02793 0.0
H2522 H 0.8972 0.25889 1.00289 0.0
H2523 H 0.90105 0.22818 0.99483 0.0
H2524 H 0.8258 0.17462 0.94746 0.0
H2525 H 0.81657 0.20526 0.92022 0.0
H2526 H 0.85915 0.26302 0.97575 0.0
C2527 C 0.87423 0.19739 0.03958 0.0
C2528 C 0.86634 0.17319 0.04319 0.0
C2529 C 0.85327 0.15628 0.02255 0.0
C2530 C 0.84715 0.1639 0.99888 0.0
C2531 C 0.85438 0.18833 0.99641 0.0
C2532 C 0.86778 0.20475 0.01621 0.0
C2533 C 0.87112 0.23056 1.01019 0.0
C2534 C 0.86271 0.24744 0.02956 0.0
C2535 C 0.89516 0.24047 1.00888 0.0
C2536 C 0.85703 0.2263 0.98412 0.0
C2537 C 0.84778 0.20182 0.97623 0.0
C2538 C 0.83322 0.19376 0.95326 0.0
C2539 C 0.82806 0.21121 0.938 0.0
C2540 C 0.83719 0.23633 0.94611 0.0
C2541 C 0.85193 0.24389 0.9693 0.0
H2542 H 0.11598 0.52174 0.25368 0.0
H2543 H 0.17925 0.51826 0.23375 0.0
H2544 H 0.1641 0.52034 0.18827 0.0
H2545 H 0.08246 0.48575 0.19505 0.0
H2546 H 0.06204 0.50421 0.19497 0.0
H2547 H 0.07794 0.50098 0.22483 0.0
H2548 H 0.08984 0.54795 0.2357 0.0
H2549 H 0.07416 0.55133 0.20578 0.0
H2550 H 0.10284 0.56492 0.21355 0.0
H2551 H 0.13992 0.52579 0.14233 0.0
H2552 H 0.11202 0.53088 0.10627 0.0
H2553 H 0.06509 0.53066 0.15747 0.0
C2554 C 0.12684 0.52099 0.23988 0.0
C2555 C 0.14917 0.51947 0.24824 0.0
C2556 C 0.16219 0.51886 0.22868 0.0
C2557 C 0.15359 0.52033 0.20251 0.0
C2558 C 0.13165 0.52241 0.19536 0.0
C2559 C 0.11852 0.52244 0.21384 0.0
C2560 C 0.09562 0.5252 0.20218 0.0
C2561 C 0.0785 0.5027 0.20439 0.0
C2562 C 0.09031 0.54874 0.21508 0.0
C2563 C 0.09752 0.52681 0.17412 0.0
C2564 C 0.11841 0.52527 0.1703 0.0
C2565 C 0.12366 0.52684 0.14566 0.0
C2566 C 0.10755 0.52984 0.12499 0.0
C2567 C 0.08589 0.53125 0.12833 0.0
C2568 C 0.08123 0.52965 0.15363 0.0
H2569 H 0.8133 0.89684 0.48839 0.0
H2570 H 0.85915 0.86138 0.53093 0.0
H2571 H 0.86064 0.83506 0.49149 0.0
H2572 H 0.78311 0.84185 0.44836 0.0
H2573 H 0.77803 0.85578 0.41991 0.0
H2574 H 0.78164 0.87369 0.45108 0.0
H2575 H 0.81297 0.90486 0.43972 0.0
H2576 H 0.80927 0.8872 0.4084 0.0
H2577 H 0.83566 0.89426 0.42875 0.0
H2578 H 0.85737 0.81234 0.44817 0.0
H2579 H 0.84891 0.79381 0.40269 0.0
H2580 H 0.80299 0.841 0.38744 0.0
C2581 C 0.82395 0.88385 0.48917 0.0
C2582 C 0.8364 0.88143 0.5127 0.0
C2583 C 0.84964 0.86375 0.51319 0.0
C2584 C 0.85058 0.84864 0.49083 0.0
C2585 C 0.83785 0.85105 0.46808 0.0
C2586 C 0.8247 0.86809 0.46695 0.0
C2587 C 0.81187 0.86579 0.44003 0.0
C2588 C 0.7872 0.85887 0.43985 0.0
C2589 C 0.8178 0.88943 0.42855 0.0
C2590 C 0.82002 0.84494 0.42638 0.0
C2591 C 0.83511 0.8369 0.44299 0.0
C2592 C 0.84549 0.81836 0.43495 0.0
C2593 C 0.84057 0.80794 0.40911 0.0
C2594 C 0.82519 0.81581 0.39164 0.0
C2595 C 0.81456 0.83435 0.40049 0.0
H2596 H 0.47498 0.54044 0.86852 0.0
H2597 H 0.50473 0.48517 0.83248 0.0
H2598 H 0.52531 0.48198 0.87479 0.0
H2599 H 0.5242 0.57065 0.91161 0.0
H2600 H 0.51059 0.57879 0.93762 0.0
H2601 H 0.49674 0.57567 0.90507 0.0
H2602 H 0.46487 0.54393 0.91433 0.0
H2603 H 0.47822 0.54739 0.94716 0.0
H2604 H 0.47051 0.51754 0.92811 0.0
H2605 H 0.54148 0.48386 0.92175 0.0
H2606 H 0.55467 0.49345 0.96861 0.0
H2607 H 0.51735 0.55066 0.97293 0.0
C2608 C 0.48565 0.52748 0.86963 0.0
C2609 C 0.48803 0.51272 0.84738 0.0
C2610 C 0.50258 0.49647 0.84938 0.0
C2611 C 0.5143 0.49453 0.87332 0.0
C2612 C 0.51167 0.50942 0.89496 0.0
C2613 C 0.49796 0.52586 0.89324 0.0
C2614 C 0.4992 0.54099 0.91902 0.0
C2615 C 0.50822 0.56813 0.91825 0.0
C2616 C 0.47687 0.53722 0.92766 0.0
C2617 C 0.51531 0.53011 0.93568 0.0
C2618 C 0.52218 0.51176 0.92151 0.0
C2619 C 0.53639 0.49837 0.93297 0.0
C2620 C 0.54376 0.5039 0.95958 0.0
C2621 C 0.53722 0.52293 0.97435 0.0
C2622 C 0.52291 0.53624 0.9621 0.0
H2623 H 0.86044 0.19438 0.18597 0.0
H2624 H 0.90665 0.25317 0.16637 0.0
H2625 H 0.90338 0.27989 0.20489 0.0
H2626 H 0.8251 0.22589 0.19702 0.0
H2627 H 0.8156 0.21313 0.22376 0.0
H2628 H 0.82747 0.19525 0.20187 0.0
H2629 H 0.85652 0.18893 0.2388 0.0
H2630 H 0.8439 0.20603 0.26086 0.0
H2631 H 0.87264 0.2151 0.26052 0.0
H2632 H 0.88689 0.30306 0.23525 0.0
H2633 H 0.86136 0.32001 0.25953 0.0
H2634 H 0.825 0.24696 0.25952 0.0
C2635 C 0.8709 0.21237 0.19073 0.0
C2636 C 0.88381 0.2218 0.17341 0.0
C2637 C 0.89672 0.24568 0.17958 0.0
C2638 C 0.895 0.26094 0.20145 0.0
C2639 C 0.88043 0.25191 0.2169 0.0
C2640 C 0.86896 0.22794 0.21223 0.0
C2641 C 0.85124 0.22411 0.22838 0.0
C2642 C 0.82854 0.21403 0.21175 0.0
C2643 C 0.85643 0.20754 0.24833 0.0
C2644 C 0.85324 0.25001 0.24105 0.0
C2645 C 0.87054 0.26566 0.2347 0.0
C2646 C 0.87381 0.29092 0.24112 0.0
C2647 C 0.8591 0.3004 0.25448 0.0
C2648 C 0.84143 0.28459 0.26105 0.0
C2649 C 0.83866 0.25918 0.25479 0.0
H2650 H 0.17559 0.51681 0.42131 0.0
H2651 H 0.13159 0.53871 0.36214 0.0
H2652 H 0.10735 0.54556 0.39289 0.0
H2653 H 0.13228 0.48505 0.45249 0.0
H2654 H 0.14667 0.49476 0.4849 0.0
H2655 H 0.16167 0.49184 0.45888 0.0
H2656 H 0.18226 0.53653 0.47246 0.0
H2657 H 0.16731 0.53956 0.49851 0.0
H2658 H 0.16704 0.56048 0.47541 0.0
H2659 H 0.08634 0.55027 0.42981 0.0
H2660 H 0.0704 0.55194 0.46879 0.0
H2661 H 0.12523 0.52688 0.50848 0.0
C2662 C 0.16096 0.52324 0.41476 0.0
C2663 C 0.15618 0.52723 0.38825 0.0
C2664 C 0.13636 0.53539 0.38155 0.0
C2665 C 0.12218 0.5394 0.39921 0.0
C2666 C 0.1272 0.53527 0.42461 0.0
C2667 C 0.14612 0.52732 0.43259 0.0
C2668 C 0.1469 0.52407 0.46132 0.0
C2669 C 0.14689 0.49734 0.4646 0.0
C2670 C 0.16709 0.54117 0.47792 0.0
C2671 C 0.12563 0.5314 0.46805 0.0
C2672 C 0.11475 0.53781 0.44624 0.0
C2673 C 0.0949 0.54523 0.44684 0.0
C2674 C 0.08582 0.54613 0.46965 0.0
C2675 C 0.09591 0.53969 0.49295 0.0
C2676 C 0.11653 0.53216 0.4917 0.0
H2677 H 0.82837 0.83603 0.63117 0.0
H2678 H 0.83899 0.91228 0.66431 0.0
H2679 H 0.83488 0.89949 0.70674 0.0
H2680 H 0.78799 0.81262 0.66779 0.0
H2681 H 0.79783 0.78475 0.67009 0.0
H2682 H 0.80104 0.80034 0.64288 0.0
H2683 H 0.84264 0.80195 0.65211 0.0
H2684 H 0.83961 0.78664 0.67955 0.0
H2685 H 0.85812 0.81574 0.68318 0.0
H2686 H 0.83082 0.87722 0.7463 0.0
H2687 H 0.82448 0.84849 0.77749 0.0
H2688 H 0.81674 0.78732 0.71717 0.0
C2689 C 0.82981 0.85023 0.64724 0.0
C2690 C 0.83417 0.87529 0.6443 0.0
C2691 C 0.83561 0.89302 0.66596 0.0
C2692 C 0.83342 0.88587 0.69016 0.0
C2693 C 0.82967 0.86094 0.69233 0.0
C2694 C 0.82766 0.84346 0.67125 0.0
C2695 C 0.82355 0.81785 0.67817 0.0
C2696 C 0.80128 0.80302 0.66389 0.0
C2697 C 0.84209 0.80479 0.67294 0.0
C2698 C 0.8236 0.82343 0.7066 0.0
C2699 C 0.82724 0.84837 0.71455 0.0
C2700 C 0.82794 0.85772 0.74013 0.0
C2701 C 0.82442 0.84123 0.75776 0.0
C2702 C 0.82016 0.81561 0.74982 0.0
C2703 C 0.82005 0.80676 0.72391 0.0
H2704 H 0.73716 0.47452 0.5589 0.0
H2705 H 0.68134 0.41822 0.52168 0.0
H2706 H 0.66106 0.42948 0.55589 0.0
H2707 H 0.72878 0.46893 0.62664 0.0
H2708 H 0.7376 0.50144 0.63632 0.0
H2709 H 0.749 0.4861 0.61161 0.0
H2710 H 0.73755 0.51537 0.58039 0.0
H2711 H 0.72665 0.53098 0.60512 0.0
H2712 H 0.7095 0.51853 0.57462 0.0
H2713 H 0.64522 0.45101 0.58916 0.0
H2714 H 0.63374 0.48371 0.6145 0.0
H2715 H 0.70056 0.52437 0.63336 0.0
C2716 C 0.72075 0.46435 0.5581 0.0
C2717 C 0.71072 0.44563 0.53761 0.0
C2718 C 0.68927 0.43271 0.53721 0.0
C2719 C 0.67776 0.43875 0.55673 0.0
C2720 C 0.68815 0.45735 0.57672 0.0
C2721 C 0.70919 0.46995 0.57753 0.0
C2722 C 0.71578 0.49106 0.59926 0.0
C2723 C 0.73386 0.4866 0.61967 0.0
C2724 C 0.72275 0.5154 0.58923 0.0
C2725 C 0.69453 0.48966 0.60927 0.0
C2726 C 0.67904 0.46957 0.59659 0.0
C2727 C 0.65733 0.46641 0.59972 0.0
C2728 C 0.65097 0.48514 0.6145 0.0
C2729 C 0.66622 0.50685 0.62587 0.0
C2730 C 0.68852 0.50809 0.62484 0.0
H2731 H 0.21894 0.11973 0.53184 0.0
H2732 H 0.19093 0.18034 0.50891 0.0
H2733 H 0.15435 0.15766 0.51124 0.0
H2734 H 0.1738 0.0713 0.49663 0.0
H2735 H 0.17561 0.05208 0.5213 0.0
H2736 H 0.19962 0.07275 0.51683 0.0
H2737 H 0.20578 0.09204 0.5645 0.0
H2738 H 0.18166 0.07161 0.56903 0.0
H2739 H 0.18431 0.10416 0.57681 0.0
H2740 H 0.12026 0.12888 0.51793 0.0
H2741 H 0.09194 0.09504 0.52569 0.0
H2742 H 0.14161 0.05325 0.54399 0.0
C2743 C 0.2051 0.1281 0.52689 0.0
C2744 C 0.20809 0.15198 0.52017 0.0
C2745 C 0.18935 0.16217 0.51416 0.0
C2746 C 0.16836 0.14942 0.51546 0.0
C2747 C 0.16606 0.12625 0.52272 0.0
C2748 C 0.18389 0.11555 0.52806 0.0
C2749 C 0.17689 0.09047 0.53562 0.0
C2750 C 0.18177 0.07047 0.51645 0.0
C2751 C 0.18781 0.08953 0.56313 0.0
C2752 C 0.15247 0.08888 0.53385 0.0
C2753 C 0.14651 0.10974 0.52647 0.0
C2754 C 0.12481 0.1125 0.5238 0.0
C2755 C 0.10882 0.09335 0.52857 0.0
C2756 C 0.11457 0.07177 0.53595 0.0
C2757 C 0.13671 0.06962 0.53851 0.0
H2758 H 0.21175 0.02684 0.80842 0.0
H2759 H 0.15756 0.99038 0.84017 0.0
H2760 H 0.17155 0.95208 0.83568 0.0
H2761 H 0.21433 0.97467 0.76195 0.0
H2762 H 0.24367 0.98239 0.76637 0.0
H2763 H 0.2284 1.00612 0.77061 0.0
H2764 H 0.25077 1.02094 0.81636 0.0
H2765 H 0.26599 0.99717 0.81235 0.0
H2766 H 0.25173 0.99965 0.83906 0.0
H2767 H 0.19386 0.91891 0.83135 0.0
H2768 H 0.22126 0.89356 0.82572 0.0
H2769 H 0.25912 0.95168 0.79428 0.0
C2770 C 0.20265 1.01073 0.81414 0.0
C2771 C 0.18361 1.01154 0.82467 0.0
C2772 C 0.17216 0.99009 0.83194 0.0
C2773 C 0.17999 0.96829 0.8295 0.0
C2774 C 0.1991 0.96826 0.81943 0.0
C2775 C 0.21009 0.98889 0.8116 0.0
C2776 C 0.23054 0.98448 0.8021 0.0
C2777 C 0.22914 0.98706 0.77356 0.0
C2778 C 0.25095 1.00157 0.81845 0.0
C2779 C 0.22965 0.95827 0.80628 0.0
C2780 C 0.21144 0.94915 0.81628 0.0
C2781 C 0.20796 0.92575 0.82308 0.0
C2782 C 0.22358 0.91142 0.81967 0.0
C2783 C 0.24239 0.92053 0.80946 0.0
C2784 C 0.24511 0.94416 0.80238 0.0
H2785 H 0.33037 0.9076 0.962 0.0
H2786 H 0.29693 0.9617 0.99375 0.0
H2787 H 0.33031 0.99334 0.99848 0.0
H2788 H 0.37951 0.92798 1.0032 0.0
H2789 H 0.39654 0.92242 0.97983 0.0
H2790 H 0.36931 0.90456 0.9758 0.0
H2791 H 0.36006 0.91705 0.93086 0.0
H2792 H 0.3874 0.93477 0.93462 0.0
H2793 H 0.36438 0.94897 0.92742 0.0
H2794 H 0.36847 1.01796 1.00488 0.0
H2795 H 0.40817 0.03418 1.00953 0.0
H2796 H 0.41623 0.96424 0.97303 0.0
C2797 C 0.32984 0.9262 0.96933 0.0
C2798 C 0.31097 0.93209 0.97747 0.0
C2799 C 0.31115 0.95666 0.98732 0.0
C2800 C 0.33004 0.97482 0.99008 0.0
C2801 C 0.34855 0.96822 0.98264 0.0
C2802 C 0.34852 0.94457 0.97214 0.0
C2803 C 0.37091 0.94192 0.96712 0.0
C2804 C 0.37957 0.92312 0.98241 0.0
C2805 C 0.37067 0.93529 0.93829 0.0
C2806 C 0.38365 0.96758 0.97715 0.0
C2807 C 0.37047 0.98253 0.98592 0.0
C2808 C 0.37891 1.00657 0.99765 0.0
C2809 C 0.40143 1.01557 1.00038 0.0
C2810 C 0.41513 1.00055 0.99135 0.0
C2811 C 0.40603 0.97632 0.97952 0.0
H2812 H 0.92331 0.65656 0.81609 0.0
H2813 H 0.87025 0.59806 0.77645 0.0
H2814 H 0.84585 0.62719 0.77355 0.0
H2815 H 0.88969 0.68978 0.85281 0.0
H2816 H 0.90357 0.72006 0.85001 0.0
H2817 H 0.9179 0.6952 0.84898 0.0
H2818 H 0.92793 0.70452 0.80562 0.0
H2819 H 0.91345 0.72923 0.80644 0.0
H2820 H 0.90662 0.70519 0.77942 0.0
H2821 H 0.82531 0.66285 0.77463 0.0
H2822 H 0.81112 0.70045 0.77975 0.0
H2823 H 0.87496 0.74008 0.81926 0.0
C2824 C 0.9066 0.64975 0.8066 0.0
C2825 C 0.8994 0.62383 0.79637 0.0
C2826 C 0.87701 0.61696 0.7845 0.0
C2827 C 0.86269 0.63374 0.78273 0.0
C2828 C 0.87011 0.65856 0.79286 0.0
C2829 C 0.89164 0.66676 0.8046 0.0
C2830 C 0.89484 0.69478 0.81396 0.0
C2831 C 0.90193 0.70028 0.84319 0.0
C2832 C 0.91173 0.70928 0.80058 0.0
C2833 C 0.87189 0.7008 0.80594 0.0
C2834 C 0.85808 0.67933 0.79364 0.0
C2835 C 0.83622 0.67957 0.78427 0.0
C2836 C 0.82815 0.70157 0.78735 0.0
C2837 C 0.84123 0.72448 0.79994 0.0
C2838 C 0.86386 0.72359 0.80939 0.0
H2839 H 0.85487 0.6623 0.03832 0.0
H2840 H 0.80709 0.60612 0.05994 0.0
H2841 H 0.83551 0.58298 0.07105 0.0
H2842 H 0.88501 0.62118 1.00965 0.0
H2843 H 0.91144 0.64074 0.02108 0.0
H2844 H 0.88759 0.65386 0.01551 0.0
H2845 H 0.89663 0.67623 0.0622 0.0
H2846 H 0.92052 0.66317 0.06789 0.0
H2847 H 0.90028 0.65888 0.08829 0.0
H2848 H 0.86834 0.56482 0.07879 0.0
H2849 H 0.90373 0.55249 0.0822 0.0
H2850 H 0.93183 0.61994 0.05665 0.0
C2851 C 0.85046 0.64522 0.04555 0.0
C2852 C 0.82856 0.63616 0.04823 0.0
C2853 C 0.82358 0.61359 0.05762 0.0
C2854 C 0.83968 0.60023 0.06407 0.0
C2855 C 0.86095 0.60948 0.06111 0.0
C2856 C 0.86648 0.63142 0.05209 0.0
C2857 C 0.89067 0.63667 0.0503 0.0
C2858 C 0.89386 0.6382 0.02248 0.0
C2859 C 0.90274 0.66014 0.06824 0.0
C2860 C 0.89765 0.61418 0.05951 0.0
C2861 C 0.88018 0.59887 0.06573 0.0
C2862 C 0.88223 0.5768 0.07424 0.0
C2863 C 0.9026 0.57005 0.07636 0.0
C2864 C 0.92098 0.58524 0.07009 0.0
C2865 C 0.91829 0.60773 0.06159 0.0
H2866 H 0.19191 0.16454 0.81408 0.0
H2867 H 0.21794 0.13414 0.88008 0.0
H2868 H 0.25286 0.16381 0.88487 0.0
H2869 H 0.24085 0.17145 0.78801 0.0
H2870 H 0.2379 0.19932 0.77561 0.0
H2871 H 0.21408 0.17774 0.77896 0.0
H2872 H 0.20165 0.2115 0.8073 0.0
H2873 H 0.22532 0.23292 0.80322 0.0
H2874 H 0.22032 0.2288 0.83499 0.0
H2875 H 0.28497 0.19584 0.88201 0.0
H2876 H 0.31335 0.22668 0.87023 0.0
H2877 H 0.26812 0.23382 0.80343 0.0
C2878 C 0.20486 0.16461 0.82983 0.0
C2879 C 0.20225 0.14753 0.8471 0.0
C2880 C 0.21968 0.14739 0.86694 0.0
C2881 C 0.2395 0.16415 0.8698 0.0
C2882 C 0.24173 0.18063 0.85234 0.0
C2883 C 0.22501 0.18088 0.83257 0.0
C2884 C 0.23243 0.19906 0.81518 0.0
C2885 C 0.23125 0.18611 0.78782 0.0
C2886 C 0.21912 0.21927 0.81521 0.0
C2887 C 0.25586 0.20902 0.8283 0.0
C2888 C 0.26075 0.19832 0.84988 0.0
C2889 C 0.28133 0.20439 0.86519 0.0
C2890 C 0.29735 0.22189 0.8583 0.0
C2891 C 0.29284 0.23295 0.83615 0.0
C2892 C 0.27184 0.22627 0.82088 0.0
H2893 H 0.4227 0.96059 0.29442 0.0
H2894 H 0.3773 1.00674 0.31089 0.0
H2895 H 0.35013 0.9699 0.31432 0.0
H2896 H 0.38124 0.90957 0.25521 0.0
H2897 H 0.39476 0.88633 0.26642 0.0
H2898 H 0.41044 0.91616 0.265 0.0
H2899 H 0.42688 0.92029 0.31298 0.0
H2900 H 0.41119 0.89054 0.31456 0.0
H2901 H 0.40894 0.9167 0.33615 0.0
H2902 H 0.32828 0.92671 0.31962 0.0
H2903 H 0.31341 0.88335 0.32195 0.0
H2904 H 0.37112 0.86345 0.29843 0.0
C2905 C 0.40696 0.96309 0.2985 0.0
C2906 C 0.40254 0.98731 0.30232 0.0
C2907 C 0.38148 0.98898 0.30762 0.0
C2908 C 0.36584 0.96789 0.30976 0.0
C2909 C 0.37089 0.94455 0.30618 0.0
C2910 C 0.39091 0.94205 0.30019 0.0
C2911 C 0.39217 0.91483 0.29677 0.0
C2912 C 0.39482 0.90622 0.26921 0.0
C2913 C 0.41091 0.91033 0.31627 0.0
C2914 C 0.36996 0.90228 0.30216 0.0
C2915 C 0.35802 0.91988 0.3078 0.0
C2916 C 0.33754 0.91301 0.31479 0.0
C2917 C 0.32911 0.88805 0.31607 0.0
C2918 C 0.34055 0.86927 0.30992 0.0
C2919 C 0.36142 0.87685 0.3027 0.0
H2920 H 0.59689 0.3996 0.66945 0.0
H2921 H 0.60348 0.35152 0.6026 0.0
H2922 H 0.60096 0.38444 0.57643 0.0
H2923 H 0.55782 0.42931 0.63715 0.0
H2924 H 0.56892 0.4593 0.65506 0.0
H2925 H 0.57253 0.43258 0.6694 0.0
H2926 H 0.61433 0.44854 0.67849 0.0
H2927 H 0.61079 0.4753 0.66416 0.0
H2928 H 0.62824 0.45623 0.6525 0.0
H2929 H 0.59498 0.42118 0.5562 0.0
H2930 H 0.58709 0.45995 0.54371 0.0
H2931 H 0.5854 0.48641 0.62282 0.0
C2932 C 0.59813 0.39613 0.64939 0.0
C2933 C 0.6005 0.37269 0.63825 0.0
C2934 C 0.60175 0.36908 0.6118 0.0
C2935 C 0.60032 0.38777 0.59667 0.0
C2936 C 0.59769 0.41038 0.60803 0.0
C2937 C 0.59674 0.41481 0.63382 0.0
C2938 C 0.59328 0.44079 0.64082 0.0
C2939 C 0.57187 0.44046 0.65123 0.0
C2940 C 0.61283 0.45613 0.66014 0.0
C2941 C 0.592 0.44997 0.61489 0.0
C2942 C 0.59466 0.43202 0.59632 0.0
C2943 C 0.59317 0.43545 0.57067 0.0
C2944 C 0.58869 0.45759 0.56372 0.0
C2945 C 0.58601 0.47646 0.58222 0.0
C2946 C 0.58785 0.47259 0.60827 0.0
H2947 H 0.45304 0.74659 0.41265 0.0
H2948 H 0.48032 0.82422 0.43022 0.0
H2949 H 0.44655 0.83282 0.40665 0.0
H2950 H 0.4237 0.74827 0.34721 0.0
H2951 H 0.40071 0.72515 0.34999 0.0
H2952 H 0.42746 0.72504 0.36703 0.0
H2953 H 0.41233 0.72576 0.40952 0.0
H2954 H 0.38562 0.72628 0.39267 0.0
H2955 H 0.39869 0.74985 0.41911 0.0
H2956 H 0.40854 0.83333 0.38477 0.0
H2957 H 0.37087 0.8257 0.36093 0.0
H2958 H 0.36791 0.74762 0.35456 0.0
C2959 C 0.45209 0.76532 0.41079 0.0
C2960 C 0.46958 0.78478 0.42276 0.0
C2961 C 0.46739 0.80907 0.42069 0.0
C2962 C 0.44817 0.81412 0.40753 0.0
C2963 C 0.43108 0.79467 0.39633 0.0
C2964 C 0.43295 0.7707 0.39735 0.0
C2965 C 0.41194 0.75329 0.38371 0.0
C2966 C 0.41621 0.73697 0.36061 0.0
C2967 C 0.40154 0.73788 0.40237 0.0
C2968 C 0.39797 0.7712 0.37512 0.0
C2969 C 0.4093 0.79498 0.38293 0.0
C2970 C 0.39965 0.81477 0.37828 0.0
C2971 C 0.37811 0.81024 0.36483 0.0
C2972 C 0.36632 0.78607 0.35569 0.0
C2973 C 0.37646 0.76631 0.36115 0.0
H2974 H 0.10836 0.7349 0.10242 0.0
H2975 H 0.06851 0.73585 0.16201 0.0
H2976 H 0.0586 0.69082 0.15373 0.0
H2977 H 0.07262 0.68515 0.05902 0.0
H2978 H 0.09436 0.67221 0.04847 0.0
H2979 H 0.09872 0.70453 0.05928 0.0
H2980 H 0.13195 0.70172 0.09263 0.0
H2981 H 0.12763 0.66936 0.08201 0.0
H2982 H 0.12858 0.68054 0.1153 0.0
H2983 H 0.05217 0.64602 0.13851 0.0
H2984 H 0.04902 0.60413 0.11717 0.0
H2985 H 0.09349 0.63088 0.06742 0.0
C2986 C 0.09755 0.72571 0.1138 0.0
C2987 C 0.08923 0.73919 0.13297 0.0
C2988 C 0.07514 0.72619 0.14728 0.0
C2989 C 0.06944 0.70053 0.14272 0.0
C2990 C 0.07796 0.68793 0.12381 0.0
C2991 C 0.09171 0.70003 0.10954 0.0
C2992 C 0.09833 0.68199 0.09009 0.0
C2993 C 0.09054 0.68622 0.06259 0.0
C2994 C 0.12309 0.6835 0.09533 0.0
C2995 C 0.08603 0.65781 0.09556 0.0
C2996 C 0.07443 0.66183 0.11513 0.0
C2997 C 0.06124 0.64269 0.12326 0.0
C2998 C 0.05954 0.61889 0.11091 0.0
C2999 C 0.07101 0.61408 0.09058 0.0
C3000 C 0.08474 0.63387 0.08308 0.0
H3001 H 0.0806 0.27546 0.88779 0.0
H3002 H 0.10903 0.27841 0.96753 0.0
H3003 H 0.14544 0.2812 0.95569 0.0
H3004 H 0.11689 0.23984 0.86023 0.0
H3005 H 0.11887 0.25651 0.83352 0.0
H3006 H 0.09465 0.25345 0.84783 0.0
H3007 H 0.09912 0.30049 0.85534 0.0
H3008 H 0.12336 0.30367 0.8411 0.0
H3009 H 0.12439 0.31907 0.87296 0.0
H3010 H 0.17915 0.28409 0.93562 0.0
H3011 H 0.20774 0.28766 0.90898 0.0
H3012 H 0.15873 0.28533 0.84195 0.0
C3013 C 0.09446 0.27637 0.90269 0.0
C3014 C 0.09175 0.27651 0.92868 0.0
C3015 C 0.11049 0.27818 0.94754 0.0
C3016 C 0.13133 0.27977 0.94099 0.0
C3017 C 0.13351 0.27986 0.91538 0.0
C3018 C 0.11562 0.27826 0.89647 0.0
C3019 C 0.12281 0.27963 0.87054 0.0
C3020 C 0.1127 0.25595 0.85193 0.0
C3021 C 0.11708 0.30205 0.85933 0.0
C3022 C 0.14744 0.28234 0.8779 0.0
C3023 C 0.15317 0.28226 0.90386 0.0
C3024 C 0.17484 0.28435 0.91527 0.0
C3025 C 0.1911 0.28663 0.89987 0.0
C3026 C 0.18593 0.28711 0.87312 0.0
C3027 C 0.16357 0.28484 0.86216 0.0
H3028 H 0.50332 0.74213 0.92444 0.0
H3029 H 0.56142 0.75177 0.89007 0.0
H3030 H 0.56123 0.70773 0.88818 0.0
H3031 H 0.51791 0.71053 0.96621 0.0
H3032 H 0.49261 0.68936 0.96537 0.0
H3033 H 0.49211 0.71816 0.95469 0.0
H3034 H 0.46997 0.6963 0.91065 0.0
H3035 H 0.47035 0.66713 0.92136 0.0
H3036 H 0.48017 0.67335 0.89229 0.0
H3037 H 0.56217 0.66834 0.90342 0.0
H3038 H 0.56354 0.63784 0.93292 0.0
H3039 H 0.50434 0.65289 0.9568 0.0
C3040 C 0.51532 0.73458 0.91538 0.0
C3041 C 0.53239 0.75005 0.90752 0.0
C3042 C 0.54807 0.74001 0.89597 0.0
C3043 C 0.54801 0.71499 0.89474 0.0
C3044 C 0.5318 0.70033 0.90448 0.0
C3045 C 0.51531 0.70969 0.91392 0.0
C3046 C 0.50231 0.6917 0.92764 0.0
C3047 C 0.50123 0.70312 0.95508 0.0
C3048 C 0.47934 0.68151 0.91205 0.0
C3049 C 0.51588 0.67227 0.9276 0.0
C3050 C 0.5322 0.67693 0.91313 0.0
C3051 C 0.54902 0.66399 0.91402 0.0
C3052 C 0.54981 0.64685 0.93101 0.0
C3053 C 0.53401 0.64307 0.94709 0.0
C3054 C 0.51625 0.65491 0.94419 0.0
H3055 H 0.15841 0.80773 0.72768 0.0
H3056 H 0.12946 0.74531 0.76065 0.0
H3057 H 0.16621 0.73869 0.7768 0.0
H3058 H 0.20083 0.78343 0.70667 0.0
H3059 H 0.22104 0.81146 0.71477 0.0
H3060 H 0.1926 0.81244 0.70706 0.0
H3061 H 0.19474 0.83941 0.75073 0.0
H3062 H 0.22337 0.83916 0.75773 0.0
H3063 H 0.2058 0.82945 0.77989 0.0
H3064 H 0.20588 0.73645 0.78541 0.0
H3065 H 0.24617 0.74327 0.79288 0.0
H3066 H 0.24899 0.80837 0.7563 0.0
C3067 C 0.15983 0.79295 0.73872 0.0
C3068 C 0.14115 0.77702 0.74293 0.0
C3069 C 0.1436 0.75788 0.75745 0.0
C3070 C 0.16437 0.75383 0.76648 0.0
C3071 C 0.18244 0.76935 0.76117 0.0
C3072 C 0.1804 0.78892 0.74823 0.0
C3073 C 0.2024 0.80298 0.74518 0.0
C3074 C 0.20431 0.80254 0.71673 0.0
C3075 C 0.20683 0.8293 0.75924 0.0
C3076 C 0.21711 0.7881 0.75817 0.0
C3077 C 0.20529 0.76856 0.76693 0.0
C3078 C 0.21534 0.75181 0.77885 0.0
C3079 C 0.23816 0.75564 0.78272 0.0
C3080 C 0.25052 0.77624 0.77501 0.0
C3081 C 0.23983 0.79244 0.7623 0.0
H3082 H 0.06425 0.38422 0.47502 0.0
H3083 H 0.03814 0.40962 0.40555 0.0
H3084 H 1.02112 0.43789 0.43108 0.0
H3085 H 1.01836 0.38939 0.50962 0.0
H3086 H 0.0364 0.40011 0.53989 0.0
H3087 H 0.04385 0.37945 0.51588 0.0
H3088 H 0.08021 0.41002 0.51698 0.0
H3089 H 0.07311 0.4302 0.54147 0.0
H3090 H 0.07946 0.44111 0.51246 0.0
H3091 H 1.01027 0.46586 0.46416 0.0
H3092 H 1.01228 0.49617 0.50212 0.0
H3093 H 0.04506 0.45227 0.54999 0.0
C3094 C 0.05478 0.3956 0.46518 0.0
C3095 C 0.05248 0.39485 0.43841 0.0
C3096 C 0.04022 0.41014 0.42613 0.0
C3097 C 0.0302 0.4259 0.44041 0.0
C3098 C 0.03254 0.42597 0.46682 0.0
C3099 C 0.04479 0.41144 0.47911 0.0
C3100 C 0.04718 0.41709 0.50789 0.0
C3101 C 0.03576 0.3952 0.51897 0.0
C3102 C 0.07141 0.4251 0.52042 0.0
C3103 C 0.03527 0.43797 0.51 0.0
C3104 C 1.02634 0.44229 0.48608 0.0
C3105 C 1.01685 0.46243 0.48299 0.0
C3106 C 1.018 0.47953 0.50465 0.0
C3107 C 0.02882 0.47649 0.52883 0.0
C3108 C 0.03619 0.45469 0.5318 0.0
H3109 H 0.50348 0.27672 0.22161 0.0
H3110 H 0.54119 0.24883 0.2819 0.0
H3111 H 0.51296 0.2525 0.3089 0.0
H3112 H 0.48994 0.32189 0.26036 0.0
H3113 H 0.46295 0.31962 0.24262 0.0
H3114 H 0.4838 0.31053 0.22652 0.0
H3115 H 0.45943 0.26751 0.21062 0.0
H3116 H 0.43827 0.27661 0.22632 0.0
H3117 H 0.44835 0.2498 0.23345 0.0
H3118 H 0.48253 0.26457 0.33113 0.0
H3119 H 0.45218 0.28166 0.34535 0.0
H3120 H 0.43667 0.30335 0.27049 0.0
C3121 C 0.50556 0.27068 0.2402 0.0
C3122 C 0.52446 0.26241 0.24966 0.0
C3123 C 0.52668 0.25498 0.2742 0.0
C3124 C 0.51077 0.25709 0.28967 0.0
C3125 C 0.49278 0.26647 0.28015 0.0
C3126 C 0.49002 0.27282 0.25579 0.0
C3127 C 0.4705 0.28449 0.25063 0.0
C3128 C 0.47721 0.31068 0.2447 0.0
C3129 C 0.45311 0.26865 0.22898 0.0
C3130 C 0.46299 0.28445 0.27615 0.0
C3131 C 0.47577 0.27375 0.29292 0.0
C3132 C 0.47229 0.27272 0.31802 0.0
C3133 C 0.45518 0.28271 0.32602 0.0
C3134 C 0.44195 0.29372 0.30899 0.0
C3135 C 0.44611 0.29457 0.28383 0.0
H3136 H 0.61806 0.55535 0.38569 0.0
H3137 H 0.68425 0.58806 0.42304 0.0
H3138 H 0.67373 0.58264 0.46535 0.0
H3139 H 0.58958 0.57858 0.4343 0.0
H3140 H 0.56963 0.55053 0.43056 0.0
H3141 H 0.58209 0.55899 0.40379 0.0
H3142 H 0.59448 0.51758 0.39863 0.0
H3143 H 0.58217 0.50906 0.42545 0.0
H3144 H 0.61061 0.50898 0.42554 0.0
H3145 H 0.65515 0.57383 0.50405 0.0
H3146 H 0.63129 0.55939 0.53458 0.0
H3147 H 0.57865 0.52904 0.47097 0.0
C3148 C 0.63025 0.56175 0.40281 0.0
C3149 C 0.6519 0.57253 0.40117 0.0
C3150 C 0.66754 0.57997 0.42393 0.0
C3151 C 0.66169 0.57697 0.44802 0.0
C3152 C 0.64022 0.56602 0.44897 0.0
C3153 C 0.62483 0.55829 0.42687 0.0
C3154 C 0.60329 0.5455 0.43275 0.0
C3155 C 0.58508 0.55922 0.42489 0.0
C3156 C 0.59729 0.51869 0.41983 0.0
C3157 C 0.60883 0.54735 0.46162 0.0
C3158 C 0.6301 0.55954 0.47076 0.0
C3159 C 0.63855 0.56406 0.497 0.0
C3160 C 0.62494 0.55583 0.51421 0.0
C3161 C 0.60334 0.54279 0.50506 0.0
C3162 C 0.59527 0.53857 0.47844 0.0
H3163 H 0.28426 0.83199 0.04688 0.0
H3164 H 0.28152 0.90692 0.07425 0.0
H3165 H 0.29772 0.90206 0.11779 0.0
H3166 H 0.26873 0.80758 0.10112 0.0
H3167 H 0.28624 0.78574 0.10072 0.0
H3168 H 0.27598 0.7958 0.07139 0.0
H3169 H 0.31558 0.80913 0.0635 0.0
H3170 H 0.32597 0.79936 0.09303 0.0
H3171 H 0.33526 0.83026 0.08764 0.0
H3172 H 0.31319 0.88891 0.15834 0.0
H3173 H 0.32359 0.86701 0.19418 0.0
H3174 H 0.31493 0.80034 0.14057 0.0
C3175 C 0.28724 0.84745 0.06197 0.0
C3176 C 0.28174 0.86986 0.05715 0.0
C3177 C 0.28557 0.88954 0.0775 0.0
C3178 C 0.29493 0.88705 0.10225 0.0
C3179 C 0.30028 0.86476 0.1063 0.0
C3180 C 0.29638 0.84522 0.08682 0.0
C3181 C 0.30222 0.82273 0.09664 0.0
C3182 C 0.28209 0.80174 0.09221 0.0
C3183 C 0.32087 0.81492 0.08448 0.0
C3184 C 0.30966 0.83259 0.12478 0.0
C3185 C 0.30875 0.85697 0.12988 0.0
C3186 C 0.31404 0.86984 0.15462 0.0
C3187 C 0.31984 0.85724 0.17482 0.0
C3188 C 0.32001 0.83199 0.17011 0.0
C3189 C 0.31534 0.81973 0.1447 0.0
H3190 H 0.99459 0.57696 0.86959 0.0
H3191 H 0.93072 0.54296 0.88222 0.0
H3192 H 0.94738 0.53414 0.92423 0.0
H3193 H 1.02608 0.53733 0.90155 0.0
H3194 H 0.04888 0.56158 0.91611 0.0
H3195 H 0.03226 0.5642 0.88647 0.0
H3196 H 1.02506 0.60511 0.90706 0.0
H3197 H 0.0417 0.60263 0.93673 0.0
H3198 H 1.014 0.60635 0.93631 0.0
H3199 H 0.97234 0.52631 0.96552 0.0
H3200 H 1.00095 0.52544 1.00216 0.0
H3201 H 0.04865 0.5694 0.96713 0.0
C3202 C 0.98405 0.56755 0.8811 0.0
C3203 C 0.96096 0.5605 0.87174 0.0
C3204 C 0.94821 0.54863 0.88824 0.0
C3205 C 0.95768 0.54343 0.91239 0.0
C3206 C 0.98028 0.55057 0.92097 0.0
C3207 C 0.99327 0.56284 0.90592 0.0
C3208 C 1.017 0.56973 0.92036 0.0
C3209 C 0.03194 0.55749 0.90521 0.0
C3210 C 1.02491 0.59762 0.92541 0.0
C3211 C 1.01544 0.55937 0.94567 0.0
C3212 C 0.99412 0.54796 0.94539 0.0
C3213 C 0.9889 0.53582 0.96593 0.0
C3214 C 1.00544 0.53561 0.98713 0.0
C3215 C 1.02739 0.54812 0.98887 0.0
C3216 C 0.03216 0.56001 0.96729 0.0
H3217 H 0.26404 0.22862 0.61274 0.0
H3218 H 0.31074 0.18115 0.61126 0.0
H3219 H 0.32305 0.19365 0.65806 0.0
H3220 H 0.2972 0.27721 0.65669 0.0
H3221 H 0.2756 0.28442 0.6728 0.0
H3222 H 0.26949 0.27058 0.63971 0.0
H3223 H 0.24151 0.23523 0.65054 0.0
H3224 H 0.24735 0.2491 0.68365 0.0
H3225 H 0.24996 0.21796 0.67523 0.0
H3226 H 0.33255 0.21451 0.70393 0.0
H3227 H 0.33628 0.23862 0.74645 0.0
H3228 H 0.2821 0.27132 0.71852 0.0
C3229 C 0.27672 0.2206 0.62225 0.0
C3230 C 0.28653 0.20395 0.60829 0.0
C3231 C 0.30293 0.19381 0.62155 0.0
C3232 C 0.31007 0.2009 0.64808 0.0
C3233 C 0.3004 0.21785 0.66107 0.0
C3234 C 0.28382 0.22725 0.64865 0.0
C3235 C 0.27631 0.24544 0.66687 0.0
C3236 C 0.27987 0.27091 0.65851 0.0
C3237 C 0.25236 0.23638 0.66921 0.0
C3238 C 0.29152 0.24519 0.69152 0.0
C3239 C 0.30536 0.22925 0.68767 0.0
C3240 C 0.32162 0.22679 0.70719 0.0
C3241 C 0.32369 0.24075 0.73127 0.0
C3242 C 0.30946 0.25691 0.73588 0.0
C3243 C 0.29308 0.259 0.71568 0.0
H3244 H 0.62867 0.54617 0.2523 0.0
H3245 H 0.6153 0.61832 0.27195 0.0
H3246 H 0.59937 0.61808 0.22708 0.0
H3247 H 0.64169 0.55425 0.18884 0.0
H3248 H 0.62804 0.5238 0.17397 0.0
H3249 H 0.6395 0.52957 0.20763 0.0
H3250 H 0.60194 0.51096 0.2182 0.0
H3251 H 0.59042 0.50523 0.18456 0.0
H3252 H 0.57842 0.52298 0.20674 0.0
H3253 H 0.58491 0.61097 0.18126 0.0
H3254 H 0.57126 0.59677 0.13561 0.0
H3255 H 0.59171 0.52798 0.14317 0.0
C3256 C 0.62251 0.56193 0.247 0.0
C3257 C 0.62324 0.58231 0.26573 0.0
C3258 C 0.6148 0.60246 0.2581 0.0
C3259 C 0.60577 0.60255 0.23259 0.0
C3260 C 0.60498 0.58222 0.21472 0.0
C3261 C 0.61296 0.56216 0.22139 0.0
C3262 C 0.60914 0.54245 0.19805 0.0
C3263 C 0.63089 0.53722 0.19176 0.0
C3264 C 0.59408 0.51902 0.20214 0.0
C3265 C 0.59792 0.55478 0.17743 0.0
C3266 C 0.59589 0.57775 0.1877 0.0
C3267 C 0.58636 0.593 0.17293 0.0
C3268 C 0.57866 0.58471 0.14688 0.0
C3269 C 0.58035 0.56122 0.13556 0.0
C3270 C 0.59007 0.54598 0.15119 0.0
H3271 H 0.26519 0.90114 0.92855 0.0
H3272 H 0.20402 0.85171 0.92719 0.0
H3273 H 0.2097 0.82648 0.88872 0.0
H3274 H 0.26667 0.88967 0.85582 0.0
H3275 H 0.29559 0.89036 0.86221 0.0
H3276 H 0.28366 0.90969 0.88296 0.0
H3277 H 0.2998 0.89205 0.92153 0.0
H3278 H 0.31159 0.87195 0.90195 0.0
H3279 H 0.29332 0.85955 0.92224 0.0
H3280 H 0.22618 0.80107 0.86008 0.0
H3281 H 0.25141 0.77822 0.84192 0.0
H3282 H 0.3035 0.84232 0.86338 0.0
C3283 C 0.25247 0.88583 0.91908 0.0
C3284 C 0.2339 0.8786 0.93011 0.0
C3285 C 0.21795 0.85786 0.91829 0.0
C3286 C 0.22114 0.8434 0.89653 0.0
C3287 C 0.24049 0.84989 0.88715 0.0
C3288 C 0.25583 0.87085 0.89784 0.0
C3289 C 0.27705 0.87114 0.88783 0.0
C3290 C 0.28099 0.89142 0.87119 0.0
C3291 C 0.29655 0.87377 0.90971 0.0
C3292 C 0.27192 0.84614 0.87176 0.0
C3293 C 0.25052 0.83456 0.87088 0.0
C3294 C 0.24276 0.8102 0.85997 0.0
C3295 C 0.25726 0.79728 0.85001 0.0
C3296 C 0.27929 0.80868 0.85122 0.0
C3297 C 0.28657 0.8335 0.86171 0.0
H3298 H 0.9969 0.5461 0.74181 0.0
H3299 H 0.9376 0.56877 0.71175 0.0
H3300 H 0.94905 0.56728 0.66894 0.0
H3301 H 0.03266 0.58041 0.70473 0.0
H3302 H 0.04838 0.55707 0.70062 0.0
H3303 H 0.03552 0.56033 0.72842 0.0
H3304 H 1.01578 0.51507 0.71746 0.0
H3305 H 0.0285 0.5117 0.68957 0.0
H3306 H 0.99922 0.50409 0.68631 0.0
H3307 H 0.96805 0.56158 0.62673 0.0
H3308 H 0.99096 0.5548 0.59397 0.0
H3309 H 0.03875 0.5364 0.65135 0.0
C3310 C 0.98611 0.55096 0.72643 0.0
C3311 C 0.96592 0.55769 0.73124 0.0
C3312 C 0.95299 0.56372 0.70965 0.0
C3313 C 0.95949 0.56278 0.68489 0.0
C3314 C 0.97929 0.55584 0.68108 0.0
C3315 C 0.99245 0.55021 0.70162 0.0
C3316 C 1.01304 0.54337 0.69295 0.0
C3317 C 0.03362 0.56136 0.70756 0.0
C3318 C 1.0142 0.51699 0.69681 0.0
C3319 C 1.00966 0.54578 0.66424 0.0
C3320 C 0.99001 0.55294 0.65771 0.0
C3321 C 0.98336 0.55607 0.63218 0.0
C3322 C 0.99672 0.55205 0.61334 0.0
C3323 C 1.01717 0.54487 0.61912 0.0
C3324 C 1.02344 0.54177 0.64546 0.0
H3325 H 0.28969 0.18132 0.44551 0.0
H3326 H 0.26608 0.23243 0.4963 0.0
H3327 H 0.26762 0.2612 0.46513 0.0
H3328 H 0.32781 0.2253 0.42514 0.0
H3329 H 0.32362 0.21104 0.39225 0.0
H3330 H 0.31831 0.1927 0.41697 0.0
H3331 H 0.2789 0.17551 0.39277 0.0
H3332 H 0.28415 0.19375 0.36789 0.0
H3333 H 0.2615 0.19631 0.38414 0.0
H3334 H 0.27553 0.28662 0.43164 0.0
H3335 H 0.28814 0.3067 0.39628 0.0
H3336 H 0.30591 0.23999 0.36512 0.0
C3337 C 0.28428 0.19827 0.44967 0.0
C3338 C 0.27759 0.20446 0.47339 0.0
C3339 C 0.2712 0.22714 0.47836 0.0
C3340 C 0.27198 0.24367 0.4607 0.0
C3341 C 0.27916 0.23742 0.4379 0.0
C3342 C 0.28505 0.21523 0.4321 0.0
C3343 C 0.29347 0.21401 0.40676 0.0
C3344 C 0.31721 0.21057 0.41052 0.0
C3345 C 0.27861 0.19368 0.3867 0.0
C3346 C 0.29189 0.23917 0.39973 0.0
C3347 C 0.28347 0.25223 0.41801 0.0
C3348 C 0.28178 0.27644 0.41695 0.0
C3349 C 0.28903 0.28773 0.39683 0.0
C3350 C 0.29772 0.27486 0.37782 0.0
C3351 C 0.29888 0.25011 0.3791 0.0
H3352 H 0.37536 0.60898 0.57136 0.0
H3353 H 0.41429 0.68054 0.56964 0.0
H3354 H 0.44147 0.66107 0.55085 0.0
H3355 H 0.41978 0.57816 0.58654 0.0
H3356 H 0.40601 0.55018 0.56604 0.0
H3357 H 0.39041 0.56993 0.58054 0.0
H3358 H 0.36916 0.57175 0.53558 0.0
H3359 H 0.38486 0.55224 0.52093 0.0
H3360 H 0.38399 0.58162 0.51103 0.0
H3361 H 0.46447 0.6336 0.53279 0.0
H3362 H 0.48168 0.6004 0.51692 0.0
H3363 H 0.42567 0.54701 0.52678 0.0
C3364 C 0.38976 0.62054 0.56737 0.0
C3365 C 0.39291 0.64621 0.57214 0.0
C3366 C 0.41169 0.66079 0.56619 0.0
C3367 C 0.42716 0.64992 0.5555 0.0
C3368 C 0.42337 0.62451 0.5506 0.0
C3369 C 0.40511 0.61002 0.55629 0.0
C3370 C 0.40448 0.5832 0.54838 0.0
C3371 C 0.40522 0.56957 0.57177 0.0
C3372 C 0.38443 0.57152 0.52775 0.0
C3373 C 0.42534 0.58483 0.53753 0.0
C3374 C 0.43606 0.60878 0.53908 0.0
C3375 C 0.45609 0.61477 0.53118 0.0
C3376 C 0.46561 0.59572 0.52188 0.0
C3377 C 0.45498 0.57095 0.5203 0.0
C3378 C 0.43436 0.56564 0.52784 0.0
H3379 H 0.90047 0.96577 0.57704 0.0
H3380 H 0.9231 0.89746 0.57731 0.0
H3381 H 0.95996 0.9187 0.57512 0.0
H3382 H 0.93325 0.98988 0.53285 0.0
H3383 H 0.93953 1.02097 0.54887 0.0
H3384 H 0.91456 1.00088 0.5515 0.0
H3385 H 0.92491 1.00927 0.60096 0.0
H3386 H 0.94986 0.0295 0.59847 0.0
H3387 H 0.95075 1.00422 0.61616 0.0
H3388 H 0.99455 0.94644 0.57074 0.0
H3389 H 1.02451 0.97986 0.56666 0.0
H3390 H 0.9813 0.03089 0.57007 0.0
C3391 C 0.91323 0.95536 0.57697 0.0
C3392 C 0.90849 0.92973 0.57726 0.0
C3393 C 0.92589 0.91697 0.57694 0.0
C3394 C 0.94709 0.92889 0.57571 0.0
C3395 C 0.95112 0.95387 0.57495 0.0
C3396 C 0.9348 0.9671 0.57578 0.0
C3397 C 0.94383 0.99385 0.57442 0.0
C3398 C 0.93209 1.00186 0.55048 0.0
C3399 C 0.94224 1.01017 0.59897 0.0
C3400 C 0.96754 0.99335 0.57244 0.0
C3401 C 0.97133 0.97005 0.57275 0.0
C3402 C 0.99177 0.96482 0.57062 0.0
C3403 C 1.0088 0.9839 0.56819 0.0
C3404 C 1.00551 1.00799 0.56802 0.0
C3405 C 0.98449 1.01266 0.57024 0.0
H3406 H 0.89885 0.05943 0.28178 0.0
H3407 H 0.96011 0.10108 0.2692 0.0
H3408 H 0.9454 0.13886 0.27337 0.0
H3409 H 0.86241 0.09503 0.24977 0.0
H3410 H 0.84486 0.09268 0.27342 0.0
H3411 H 0.85924 0.06867 0.26612 0.0
H3412 H 0.87624 0.0732 0.31415 0.0
H3413 H 0.86206 0.09731 0.32157 0.0
H3414 H 0.89129 0.10261 0.33052 0.0
H3415 H 0.92449 0.1724 0.28121 0.0
H3416 H 0.89968 0.19909 0.29301 0.0
H3417 H 0.85339 0.13561 0.30417 0.0
C3418 C 0.90895 0.0764 0.2792 0.0
C3419 C 0.93049 0.07732 0.27475 0.0
C3420 C 0.94348 0.09998 0.27235 0.0
C3421 C 0.93526 0.12151 0.27469 0.0
C3422 C 0.91411 0.12008 0.2797 0.0
C3423 C 0.90115 0.09809 0.28196 0.0
C3424 C 0.87971 0.10175 0.28951 0.0
C3425 C 0.86042 0.08876 0.26845 0.0
C3426 C 0.87719 0.09322 0.31548 0.0
C3427 C 0.88272 0.12925 0.29145 0.0
C3428 C 0.90252 0.13946 0.28539 0.0
C3429 C 0.90896 0.16459 0.28605 0.0
C3430 C 0.89479 0.17965 0.29308 0.0
C3431 C 0.87448 0.16965 0.29975 0.0
C3432 C 0.86854 0.14401 0.29886 0.0
H3433 H 0.80198 0.16107 0.12573 0.0
H3434 H 0.79219 0.18512 0.05136 0.0
H3435 H 0.75275 0.16627 0.04533 0.0
H3436 H 0.76803 0.10405 0.10859 0.0
H3437 H 0.75785 0.1037 0.13837 0.0
H3438 H 0.78451 0.12123 0.13781 0.0
H3439 H 0.77388 0.16043 0.15829 0.0
H3440 H 0.74728 0.14294 0.15938 0.0
H3441 H 0.74979 0.16964 0.14352 0.0
H3442 H 0.71535 0.14039 0.04594 0.0
H3443 H 0.68236 0.1139 0.05504 0.0
H3444 H 0.71766 0.10815 0.12942 0.0
C3445 C 0.79146 0.16277 0.10834 0.0
C3446 C 0.79995 0.17442 0.08894 0.0
C3447 C 0.78581 0.17639 0.06649 0.0
C3448 C 0.7635 0.16564 0.06289 0.0
C3449 C 0.75581 0.15345 0.08213 0.0
C3450 C 0.76936 0.15242 0.10461 0.0
C3451 C 0.75753 0.13762 0.12204 0.0
C3452 C 0.76758 0.11534 0.12698 0.0
C3453 C 0.75709 0.15362 0.1473 0.0
C3454 C 0.73519 0.13001 0.10571 0.0
C3455 C 0.73444 0.13918 0.08271 0.0
C3456 C 0.71568 0.13342 0.06403 0.0
C3457 C 0.69715 0.11824 0.06924 0.0
C3458 C 0.69759 0.1092 0.09296 0.0
C3459 C 0.71687 0.11513 0.11129 0.0
H3460 H 0.19455 0.42553 0.31736 0.0
H3461 H 0.25023 0.48586 0.32892 0.0
H3462 H 0.27473 0.45684 0.32927 0.0
H3463 H 0.22147 0.38539 0.35685 0.0
H3464 H 0.20935 0.35728 0.33566 0.0
H3465 H 0.19541 0.3825 0.33661 0.0
H3466 H 0.19332 0.38103 0.28792 0.0
H3467 H 0.20744 0.35599 0.2871 0.0
H3468 H 0.21802 0.38329 0.27458 0.0
H3469 H 0.29519 0.42113 0.32965 0.0
H3470 H 0.30895 0.38318 0.32794 0.0
H3471 H 0.24252 0.34131 0.31391 0.0
C3472 C 0.21189 0.43281 0.31997 0.0
C3473 C 0.21975 0.45926 0.32324 0.0
C3474 C 0.24292 0.4666 0.32637 0.0
C3475 C 0.25733 0.44987 0.32664 0.0
C3476 C 0.24926 0.42455 0.32346 0.0
C3477 C 0.22698 0.41583 0.31993 0.0
C3478 C 0.22317 0.38725 0.31645 0.0
C3479 C 0.21166 0.37751 0.33766 0.0
C3480 C 0.20967 0.37623 0.28993 0.0
C3481 C 0.24656 0.3815 0.31877 0.0
C3482 C 0.26119 0.40366 0.32297 0.0
C3483 C 0.28363 0.40387 0.32626 0.0
C3484 C 0.29146 0.38165 0.32529 0.0
C3485 C 0.27754 0.35797 0.32077 0.0
C3486 C 0.25431 0.3584 0.31735 0.0
H3487 H 0.26167 0.42152 0.05744 0.0
H3488 H 0.30574 0.47629 0.11496 0.0
H3489 H 0.27663 0.49979 0.11762 0.0
H3490 H 0.23709 0.46412 0.02451 0.0
H3491 H 0.21016 0.44503 0.01684 0.0
H3492 H 0.23375 0.43135 0.02087 0.0
H3493 H 0.21848 0.40798 0.05545 0.0
H3494 H 0.19483 0.42163 0.05153 0.0
H3495 H 0.21135 0.42474 0.08276 0.0
H3496 H 0.24311 0.51787 0.11364 0.0
H3497 H 0.20843 0.53078 0.10158 0.0
H3498 H 0.18593 0.4659 0.04449 0.0
C3499 C 0.26505 0.43827 0.07089 0.0
C3500 C 0.286 0.44691 0.08627 0.0
C3501 C 0.28988 0.46922 0.10312 0.0
C3502 C 0.2734 0.48268 0.10479 0.0
C3503 C 0.25304 0.47383 0.08926 0.0
C3504 C 0.24881 0.45223 0.07247 0.0
C3505 C 0.22592 0.44771 0.05677 0.0
C3506 C 0.22679 0.44702 0.02805 0.0
C3507 C 0.21181 0.42411 0.06195 0.0
C3508 C 0.21797 0.47014 0.06734 0.0
C3509 C 0.23388 0.4848 0.08623 0.0
C3510 C 0.23061 0.50659 0.09876 0.0
C3511 C 0.21081 0.51387 0.09159 0.0
C3512 C 0.19433 0.49965 0.07177 0.0
C3513 C 0.19799 0.47722 0.0598 0.0
H3514 H 0.90458 0.94915 0.26551 0.0
H3515 H 0.95338 0.93889 0.32739 0.0
H3516 H 0.92794 0.90348 0.33598 0.0
H3517 H 0.85723 0.93124 0.29534 0.0
H3518 H 0.83999 0.91498 0.26616 0.0
H3519 H 0.86166 0.94027 0.2649 0.0
H3520 H 0.87751 0.91248 0.23366 0.0
H3521 H 0.8559 0.8871 0.23486 0.0
H3522 H 0.88396 0.88446 0.24275 0.0
H3523 H 0.89773 0.87075 0.33952 0.0
H3524 H 0.86443 0.83972 0.33609 0.0
H3525 H 0.83475 0.86708 0.26967 0.0
C3526 C 0.90978 0.93948 0.28093 0.0
C3527 C 0.93102 0.94685 0.29581 0.0
C3528 C 0.93731 0.93356 0.31563 0.0
C3529 C 0.92294 0.91344 0.32074 0.0
C3530 C 0.9023 0.90652 0.30571 0.0
C3531 C 0.89566 0.91887 0.28606 0.0
C3532 C 0.87264 0.90672 0.27247 0.0
C3533 C 0.85695 0.92436 0.27487 0.0
C3534 C 0.8725 0.89712 0.24426 0.0
C3535 C 0.86749 0.88579 0.28773 0.0
C3536 C 0.8849 0.88634 0.30691 0.0
C3537 C 0.88415 0.86976 0.32425 0.0
C3538 C 0.8652 0.85192 0.3219 0.0
C3539 C 0.84727 0.85022 0.30199 0.0
C3540 C 0.84835 0.8676 0.28477 0.0
H3541 H 0.70675 0.12542 0.84884 0.0
H3542 H 0.73877 0.07581 0.8075 0.0
H3543 H 0.76419 0.11136 0.79788 0.0
H3544 H 0.71088 0.17221 0.8084 0.0
H3545 H 0.71661 0.19751 0.8341 0.0
H3546 H 0.70116 0.16836 0.83805 0.0
H3547 H 0.72862 0.16758 0.87873 0.0
H3548 H 0.74408 0.19682 0.87499 0.0
H3549 H 0.75723 0.17116 0.87707 0.0
H3550 H 0.78504 0.15417 0.7895 0.0
H3551 H 0.80106 0.19736 0.78783 0.0
H3552 H 0.75834 0.22052 0.83778 0.0
C3553 C 0.71927 0.12186 0.83801 0.0
C3554 C 0.72039 0.09705 0.82912 0.0
C3555 C 0.73727 0.09403 0.81494 0.0
C3556 C 0.75184 0.1144 0.80919 0.0
C3557 C 0.75004 0.13839 0.81794 0.0
C3558 C 0.73437 0.14215 0.83256 0.0
C3559 C 0.73619 0.16979 0.84022 0.0
C3560 C 0.71494 0.17741 0.82956 0.0
C3561 C 0.74186 0.17675 0.8695 0.0
C3562 C 0.75506 0.18114 0.82742 0.0
C3563 C 0.76264 0.16263 0.81437 0.0
C3564 C 0.77924 0.16854 0.80003 0.0
C3565 C 0.78831 0.19345 0.7991 0.0
C3566 C 0.78146 0.21311 0.81274 0.0
C3567 C 0.76446 0.20642 0.82725 0.0
loop_
_geom_bond_atom_site_label_1
_geom_bond_atom_site_label_2
_geom_bond_distance
_geom_bond_site_symmetry_2
_ccdc_geom_bond_type
Co0 O1 2.216 . S
Co0 O2 2.091 . S
Co0 O4 2.004 1_455 S
Co0 O10 2.021 . S
Co0 O12 2.137 . S
Co0 O13 2.244 . S
O1 Co0 2.216 . S
O1 C8 1.247 . S
O2 Co0 2.091 . S
O2 C8 1.261 . S
C3 O12 1.247 . S
C3 O13 1.272 . S
O4 Co0 2.004 1_655 S
O4 C9 1.259 . S
Co5 O6 2.061 . S
Co5 O11 2.052 . S
Co5 O13 2.135 1_655 S
O6 Co5 2.061 . S
O6 C9 1.235 . S
C7 O10 1.238 1_655 S
C7 O11 1.241 . S
C8 O1 1.247 . S
C8 O2 1.261 . S
C9 O4 1.259 . S
C9 O6 1.235 . S
O10 Co0 2.021 . S
O10 C7 1.238 1_455 S
O11 Co5 2.052 . S
O11 C7 1.241 . S
O12 Co0 2.137 . S
O12 C3 1.247 . S
O13 Co0 2.244 . S
O13 C3 1.272 . S
O13 Co5 2.135 1_455 S
Co14 O15 2.216 . S
Co14 O16 2.091 . S
Co14 O18 2.004 . S
Co14 O24 2.021 . S
Co14 O26 2.137 . S
Co14 O27 2.244 . S
O15 Co14 2.216 . S
O15 C22 1.247 . S
O16 Co14 2.091 . S
O16 C22 1.261 . S
C17 O26 1.247 . S
C17 O27 1.272 . S
O18 Co14 2.004 . S
O18 C23 1.259 . S
Co19 O20 2.061 . S
Co19 O25 2.052 . S
Co19 O27 2.135 . S
O20 Co19 2.061 . S
O20 C23 1.235 . S
C21 O24 1.238 . S
C21 O25 1.241 . S
C22 O15 1.247 . S
C22 O16 1.261 . S
C23 O18 1.259 . S
C23 O20 1.235 . S
O24 Co14 2.021 . S
O24 C21 1.238 . S
O25 Co19 2.052 . S
O25 C21 1.241 . S
O26 Co14 2.137 . S
O26 C17 1.247 . S
O27 Co14 2.244 . S
O27 C17 1.272 . S
O27 Co19 2.135 . S
Co28 O29 2.216 . S
Co28 O30 2.091 . S
Co28 O32 2.004 . S
Co28 O38 2.021 . S
Co28 O40 2.137 . S
Co28 O41 2.244 . S
O29 Co28 2.216 . S
O29 C36 1.247 . S
O30 Co28 2.091 . S
O30 C36 1.261 . S
C31 O40 1.247 . S
C31 O41 1.272 . S
O32 Co28 2.004 . S
O32 C37 1.259 . S
Co33 O34 2.061 . S
Co33 O39 2.052 . S
Co33 O41 2.135 . S
O34 Co33 2.061 . S
O34 C37 1.235 . S
C35 O38 1.238 . S
C35 O39 1.241 . S
C36 O29 1.247 . S
C36 O30 1.261 . S
C37 O32 1.259 . S
C37 O34 1.235 . S
O38 Co28 2.021 . S
O38 C35 1.238 . S
O39 Co33 2.052 . S
O39 C35 1.241 . S
O40 Co28 2.137 . S
O40 C31 1.247 . S
O41 Co28 2.244 . S
O41 C31 1.272 . S
O41 Co33 2.135 . S
Co42 O43 2.216 . S
Co42 O44 2.091 . S
Co42 O46 2.004 . S
Co42 O52 2.021 . S
Co42 O54 2.137 . S
Co42 O55 2.244 . S
O43 Co42 2.216 . S
O43 C50 1.247 . S
O44 Co42 2.091 . S
O44 C50 1.261 . S
C45 O54 1.247 . S
C45 O55 1.272 . S
O46 Co42 2.004 . S
O46 C51 1.259 . S
Co47 O48 2.061 . S
Co47 O53 2.052 . S
Co47 O55 2.135 . S
O48 Co47 2.061 . S
O48 C51 1.235 . S
C49 O52 1.238 . S
C49 O53 1.241 . S
C50 O43 1.247 . S
C50 O44 1.261 . S
C51 O46 1.259 . S
C51 O48 1.235 . S
O52 Co42 2.021 . S
O52 C49 1.238 . S
O53 Co47 2.052 . S
O53 C49 1.241 . S
O54 Co42 2.137 . S
O54 C45 1.247 . S
O55 Co42 2.244 . S
O55 C45 1.272 . S
O55 Co47 2.135 . S
Co56 O57 2.216 . S
Co56 O58 2.091 . S
Co56 O60 2.004 . S
Co56 O66 2.021 . S
Co56 O68 2.137 . S
Co56 O69 2.244 . S
O57 Co56 2.216 . S
O57 C64 1.247 . S
O58 Co56 2.091 . S
O58 C64 1.261 . S
C59 O68 1.247 . S
C59 O69 1.272 . S
O60 Co56 2.004 . S
O60 C65 1.259 . S
Co61 O62 2.061 . S
Co61 O67 2.052 . S
Co61 O69 2.135 . S
O62 Co61 2.061 . S
O62 C65 1.235 . S
C63 O66 1.238 . S
C63 O67 1.241 . S
C64 O57 1.247 . S
C64 O58 1.261 . S
C65 O60 1.259 . S
C65 O62 1.235 . S
O66 Co56 2.021 . S
O66 C63 1.238 . S
O67 Co61 2.052 . S
O67 C63 1.241 . S
O68 Co56 2.137 . S
O68 C59 1.247 . S
O69 Co56 2.244 . S
O69 C59 1.272 . S
O69 Co61 2.135 . S
Co70 O71 2.216 . S
Co70 O72 2.091 . S
Co70 O74 2.004 . S
Co70 O80 2.021 . S
Co70 O82 2.137 . S
Co70 O83 2.244 . S
O71 Co70 2.216 . S
O71 C78 1.247 . S
O72 Co70 2.091 . S
O72 C78 1.261 . S
C73 O82 1.247 . S
C73 O83 1.272 . S
O74 Co70 2.004 . S
O74 C79 1.259 . S
Co75 O76 2.061 . S
Co75 O81 2.052 . S
Co75 O83 2.135 . S
O76 Co75 2.061 . S
O76 C79 1.235 . S
C77 O80 1.238 . S
C77 O81 1.241 . S
C78 O71 1.247 . S
C78 O72 1.261 . S
C79 O74 1.259 . S
C79 O76 1.235 . S
O80 Co70 2.021 . S
O80 C77 1.238 . S
O81 Co75 2.052 . S
O81 C77 1.241 . S
O82 Co70 2.137 . S
O82 C73 1.247 . S
O83 Co70 2.244 . S
O83 C73 1.272 . S
O83 Co75 2.135 . S
Co84 O85 2.216 . S
Co84 O86 2.091 . S
Co84 O88 2.004 . S
Co84 O94 2.021 . S
Co84 O96 2.137 . S
Co84 O97 2.244 . S
O85 Co84 2.216 . S
O85 C92 1.247 . S
O86 Co84 2.091 . S
O86 C92 1.261 . S
C87 O96 1.247 . S
C87 O97 1.272 . S
O88 Co84 2.004 . S
O88 C93 1.259 . S
Co89 O90 2.061 . S
Co89 O95 2.052 . S
Co89 O97 2.135 . S
O90 Co89 2.061 . S
O90 C93 1.235 . S
C91 O94 1.238 . S
C91 O95 1.241 . S
C92 O85 1.247 . S
C92 O86 1.261 . S
C93 O88 1.259 . S
C93 O90 1.235 . S
O94 Co84 2.021 . S
O94 C91 1.238 . S
O95 Co89 2.052 . S
O95 C91 1.241 . S
O96 Co84 2.137 . S
O96 C87 1.247 . S
O97 Co84 2.244 . S
O97 C87 1.272 . S
O97 Co89 2.135 . S
Co98 O99 2.216 . S
Co98 O100 2.091 . S
Co98 O102 2.004 1_455 S
Co98 O108 2.021 . S
Co98 O110 2.137 . S
Co98 O111 2.244 . S
O99 Co98 2.216 . S
O99 C106 1.247 . S
O100 Co98 2.091 . S
O100 C106 1.261 . S
C101 O110 1.247 . S
C101 O111 1.272 . S
O102 Co98 2.004 1_655 S
O102 C107 1.259 . S
Co103 O104 2.061 . S
Co103 O109 2.016 1_655 S
Co103 O111 2.135 1_655 S
O104 Co103 2.061 . S
O104 C107 1.235 . S
C105 O108 1.238 . S
C105 O109 1.273 . S
C106 O99 1.247 . S
C106 O100 1.261 . S
C107 O102 1.259 . S
C107 O104 1.235 . S
O108 Co98 2.021 . S
O108 C105 1.238 . S
O109 Co103 2.016 1_455 S
O109 C105 1.273 . S
O110 Co98 2.137 . S
O110 C101 1.247 . S
O111 Co98 2.244 . S
O111 C101 1.272 . S
O111 Co103 2.135 1_455 S
Co112 O113 2.216 . S
Co112 O114 2.091 . S
Co112 O116 2.004 1_545 S
Co112 O122 2.021 . S
Co112 O124 2.137 . S
Co112 O125 2.244 . S
O113 Co112 2.216 . S
O113 C120 1.247 . S
O114 Co112 2.091 . S
O114 C120 1.261 . S
C115 O124 1.247 . S
C115 O125 1.272 . S
O116 Co112 2.004 1_565 S
O116 C121 1.259 . S
Co117 O118 2.061 . S
Co117 O123 2.052 1_565 S
Co117 O125 2.135 1_565 S
O118 Co117 2.061 . S
O118 C121 1.235 . S
C119 O122 1.238 . S
C119 O123 1.241 . S
C120 O113 1.247 . S
C120 O114 1.261 . S
C121 O116 1.259 . S
C121 O118 1.235 . S
O122 Co112 2.021 . S
O122 C119 1.238 . S
O123 Co117 2.052 1_545 S
O123 C119 1.241 . S
O124 Co112 2.137 . S
O124 C115 1.247 . S
O125 Co112 2.244 . S
O125 C115 1.272 . S
O125 Co117 2.135 1_545 S
Co126 O127 2.216 . S
Co126 O128 2.091 . S
Co126 O130 2.004 . S
Co126 O136 2.021 . S
Co126 O138 2.137 . S
Co126 O139 2.244 . S
O127 Co126 2.216 . S
O127 C134 1.247 . S
O128 Co126 2.091 . S
O128 C134 1.261 . S
C129 O138 1.247 . S
C129 O139 1.272 . S
O130 Co126 2.004 . S
O130 C135 1.259 . S
Co131 O132 2.061 . S
Co131 O137 2.052 . S
Co131 O139 2.135 . S
O132 Co131 2.061 . S
O132 C135 1.235 . S
C133 O136 1.238 . S
C133 O137 1.241 . S
C134 O127 1.247 . S
C134 O128 1.261 . S
C135 O130 1.259 . S
C135 O132 1.235 . S
O136 Co126 2.021 . S
O136 C133 1.238 . S
O137 Co131 2.052 . S
O137 C133 1.241 . S
O138 Co126 2.137 . S
O138 C129 1.247 . S
O139 Co126 2.244 . S
O139 C129 1.272 . S
O139 Co131 2.135 . S
Co140 O141 2.216 1_545 S
Co140 O142 2.091 . S
Co140 O144 2.004 . S
Co140 O150 2.021 . S
Co140 O152 2.137 . S
Co140 O153 2.244 . S
O141 Co140 2.216 1_565 S
O141 C148 1.247 . S
O142 Co140 2.091 . S
O142 C148 1.261 1_545 S
C143 O152 1.247 . S
C143 O153 1.272 . S
O144 Co140 2.004 . S
O144 C149 1.259 . S
Co145 O146 2.061 . S
Co145 O151 2.052 . S
Co145 O153 2.135 . S
O146 Co145 2.061 . S
O146 C149 1.235 . S
C147 O150 1.238 . S
C147 O151 1.241 . S
C148 O141 1.247 . S
C148 O142 1.261 1_565 S
C149 O144 1.259 . S
C149 O146 1.235 . S
O150 Co140 2.021 . S
O150 C147 1.238 . S
O151 Co145 2.052 . S
O151 C147 1.241 . S
O152 Co140 2.137 . S
O152 C143 1.247 . S
O153 Co140 2.244 . S
O153 C143 1.272 . S
O153 Co145 2.135 . S
Co154 O155 2.216 . S
Co154 O156 2.091 1_556 S
Co154 O158 2.009 1_556 S
Co154 O164 2.021 1_556 S
Co154 O166 2.137 . S
Co154 O167 2.244 . S
O155 Co154 2.216 . S
O155 C162 1.247 . S
O156 Co154 2.091 1_554 S
O156 C162 1.261 1_554 S
C157 O166 1.247 . S
C157 O167 1.272 . S
O158 Co154 2.009 1_554 S
O158 C163 1.263 . S
Co159 O160 2.061 1_556 S
Co159 O165 2.052 1_556 S
Co159 O167 2.135 . S
O160 Co159 2.061 1_554 S
O160 C163 1.235 . S
C161 O164 1.238 . S
C161 O165 1.241 . S
C162 O155 1.247 . S
C162 O156 1.261 1_556 S
C163 O158 1.263 . S
C163 O160 1.235 . S
O164 Co154 2.021 1_554 S
O164 C161 1.238 . S
O165 Co159 2.052 1_554 S
O165 C161 1.241 . S
O166 Co154 2.137 . S
O166 C157 1.247 . S
O167 Co154 2.244 . S
O167 C157 1.272 . S
O167 Co159 2.135 . S
Co168 O169 2.216 . S
Co168 O170 2.091 . S
Co168 O172 2.004 . S
Co168 O178 2.021 . S
Co168 O180 2.137 . S
Co168 O181 2.244 . S
O169 Co168 2.216 . S
O169 C176 1.247 . S
O170 Co168 2.091 . S
O170 C176 1.261 . S
C171 O180 1.247 . S
C171 O181 1.272 . S
O172 Co168 2.004 . S
O172 C177 1.259 . S
Co173 O174 2.061 . S
Co173 O179 2.052 . S
Co173 O181 2.135 . S
O174 Co173 2.061 . S
O174 C177 1.235 . S
C175 O178 1.238 . S
C175 O179 1.241 . S
C176 O169 1.247 . S
C176 O170 1.261 . S
C177 O172 1.259 . S
C177 O174 1.235 . S
O178 Co168 2.021 . S
O178 C175 1.238 . S
O179 Co173 2.052 . S
O179 C175 1.241 . S
O180 Co168 2.137 . S
O180 C171 1.247 . S
O181 Co168 2.244 . S
O181 C171 1.272 . S
O181 Co173 2.135 . S
Co182 O183 2.216 . S
Co182 O184 2.091 . S
Co182 O186 2.004 . S
Co182 O192 2.021 . S
Co182 O194 2.137 . S
Co182 O195 2.244 . S
O183 Co182 2.216 . S
O183 C190 1.247 . S
O184 Co182 2.091 . S
O184 C190 1.261 . S
C185 O194 1.247 . S
C185 O195 1.272 . S
O186 Co182 2.004 . S
O186 C191 1.259 . S
Co187 O188 2.061 . S
Co187 O193 2.052 . S
Co187 O195 2.135 . S
O188 Co187 2.061 . S
O188 C191 1.235 . S
C189 O192 1.238 . S
C189 O193 1.241 . S
C190 O183 1.247 . S
C190 O184 1.261 . S
C191 O186 1.259 . S
C191 O188 1.235 . S
O192 Co182 2.021 . S
O192 C189 1.238 . S
O193 Co187 2.052 . S
O193 C189 1.241 . S
O194 Co182 2.137 . S
O194 C185 1.247 . S
O195 Co182 2.244 . S
O195 C185 1.272 . S
O195 Co187 2.135 . S
Co196 O197 2.216 . S
Co196 O198 2.091 . S
Co196 O200 2.004 . S
Co196 O206 2.021 . S
Co196 O208 2.137 . S
Co196 O209 2.244 . S
O197 Co196 2.216 . S
O197 C204 1.247 . S
O198 Co196 2.091 . S
O198 C204 1.261 . S
C199 O208 1.247 . S
C199 O209 1.272 . S
O200 Co196 2.004 . S
O200 C205 1.259 . S
Co201 O202 2.061 . S
Co201 O207 2.052 . S
Co201 O209 2.135 . S
O202 Co201 2.061 . S
O202 C205 1.235 . S
C203 O206 1.238 . S
C203 O207 1.241 . S
C204 O197 1.247 . S
C204 O198 1.261 . S
C205 O200 1.259 . S
C205 O202 1.235 . S
O206 Co196 2.021 . S
O206 C203 1.238 . S
O207 Co201 2.052 . S
O207 C203 1.241 . S
O208 Co196 2.137 . S
O208 C199 1.247 . S
O209 Co196 2.244 . S
O209 C199 1.272 . S
O209 Co201 2.135 . S
Co210 O211 2.216 . S
Co210 O212 2.091 . S
Co210 O214 2.004 . S
Co210 O220 2.021 . S
Co210 O222 2.137 . S
Co210 O223 2.244 . S
O211 Co210 2.216 . S
O211 C218 1.247 . S
O212 Co210 2.091 . S
O212 C218 1.261 . S
C213 O222 1.247 . S
C213 O223 1.272 . S
O214 Co210 2.004 . S
O214 C219 1.259 . S
Co215 O216 2.061 . S
Co215 O221 2.052 . S
Co215 O223 2.135 . S
O216 Co215 2.061 . S
O216 C219 1.235 . S
C217 O220 1.238 . S
C217 O221 1.241 . S
C218 O211 1.247 . S
C218 O212 1.261 . S
C219 O214 1.259 . S
C219 O216 1.235 . S
O220 Co210 2.021 . S
O220 C217 1.238 . S
O221 Co215 2.052 . S
O221 C217 1.241 . S
O222 Co210 2.137 . S
O222 C213 1.247 . S
O223 Co210 2.244 . S
O223 C213 1.272 . S
O223 Co215 2.135 . S
Co224 O225 2.216 . S
Co224 O226 2.091 . S
Co224 O228 2.004 1_545 S
Co224 O234 2.021 . S
Co224 O236 2.137 . S
Co224 O237 2.244 1_545 S
O225 Co224 2.216 . S
O225 C232 1.247 . S
O226 Co224 2.091 . S
O226 C232 1.261 . S
C227 O236 1.247 . S
C227 O237 1.272 1_545 S
O228 Co224 2.004 1_565 S
O228 C233 1.259 . S
Co229 O230 2.061 . S
Co229 O235 2.052 . S
Co229 O237 2.135 . S
O230 Co229 2.061 . S
O230 C233 1.235 . S
C231 O234 1.236 1_565 S
C231 O235 1.241 . S
C232 O225 1.247 . S
C232 O226 1.261 . S
C233 O228 1.259 . S
C233 O230 1.235 . S
O234 Co224 2.021 . S
O234 C231 1.236 1_545 S
O235 Co229 2.052 . S
O235 C231 1.241 . S
O236 Co224 2.137 . S
O236 C227 1.247 . S
O237 Co224 2.244 1_565 S
O237 C227 1.272 1_565 S
O237 Co229 2.135 . S
Co238 O239 2.216 . S
Co238 O240 2.091 . S
Co238 O242 2.004 . S
Co238 O248 2.021 . S
Co238 O250 2.137 . S
Co238 O251 2.244 . S
O239 Co238 2.216 . S
O239 C246 1.247 . S
O240 Co238 2.091 . S
O240 C246 1.261 . S
C241 O250 1.247 . S
C241 O251 1.272 . S
O242 Co238 2.004 . S
O242 C247 1.259 . S
Co243 O244 2.061 . S
Co243 O249 2.052 . S
Co243 O251 2.135 . S
O244 Co243 2.061 . S
O244 C247 1.235 . S
C245 O248 1.238 . S
C245 O249 1.241 . S
C246 O239 1.247 . S
C246 O240 1.261 . S
C247 O242 1.259 . S
C247 O244 1.235 . S
O248 Co238 2.021 . S
O248 C245 1.238 . S
O249 Co243 2.052 . S
O249 C245 1.241 . S
O250 Co238 2.137 . S
O250 C241 1.247 . S
O251 Co238 2.244 . S
O251 C241 1.272 . S
O251 Co243 2.135 . S
Co252 O253 2.216 . S
Co252 O254 2.091 . S
Co252 O256 2.004 . S
Co252 O262 2.021 . S
Co252 O264 2.137 . S
Co252 O265 2.244 . S
O253 Co252 2.216 . S
O253 C260 1.247 . S
O254 Co252 2.091 . S
O254 C260 1.261 . S
C255 O264 1.247 . S
C255 O265 1.272 . S
O256 Co252 2.004 . S
O256 C261 1.259 . S
Co257 O258 2.061 . S
Co257 O263 2.052 . S
Co257 O265 2.135 . S
O258 Co257 2.061 . S
O258 C261 1.235 . S
C259 O262 1.238 . S
C259 O263 1.241 . S
C260 O253 1.247 . S
C260 O254 1.261 . S
C261 O256 1.259 . S
C261 O258 1.235 . S
O262 Co252 2.021 . S
O262 C259 1.238 . S
O263 Co257 2.052 . S
O263 C259 1.241 . S
O264 Co252 2.137 . S
O264 C255 1.247 . S
O265 Co252 2.244 . S
O265 C255 1.272 . S
O265 Co257 2.135 . S
Co266 O267 2.216 1_545 S
Co266 O268 2.091 1_545 S
Co266 O270 2.004 . S
Co266 O276 2.021 . S
Co266 O278 2.137 . S
Co266 O279 2.244 . S
O267 Co266 2.216 1_565 S
O267 C274 1.247 . S
O268 Co266 2.091 1_565 S
O268 C274 1.261 . S
C269 O278 1.247 . S
C269 O279 1.272 . S
O270 Co266 2.004 . S
O270 C275 1.259 . S
Co271 O272 2.061 . S
Co271 O277 2.052 . S
Co271 O279 2.135 . S
O272 Co271 2.061 . S
O272 C275 1.235 . S
C273 O276 1.238 . S
C273 O277 1.241 . S
C274 O267 1.247 . S
C274 O268 1.261 . S
C275 O270 1.259 . S
C275 O272 1.235 . S
O276 Co266 2.021 . S
O276 C273 1.238 . S
O277 Co271 2.052 . S
O277 C273 1.241 . S
O278 Co266 2.137 . S
O278 C269 1.247 . S
O279 Co266 2.244 . S
O279 C269 1.272 . S
O279 Co271 2.135 . S
Co280 O281 2.216 . S
Co280 O282 2.091 . S
Co280 O284 2.004 . S
Co280 O290 2.021 . S
Co280 O292 2.137 1_554 S
Co280 O293 2.244 . S
O281 Co280 2.216 . S
O281 C288 1.247 . S
O282 Co280 2.091 . S
O282 C288 1.261 . S
C283 O292 1.247 1_554 S
C283 O293 1.272 . S
O284 Co280 2.004 . S
O284 C289 1.259 . S
Co285 O286 2.061 . S
Co285 O291 2.052 . S
Co285 O293 2.135 . S
O286 Co285 2.061 . S
O286 C289 1.235 . S
C287 O290 1.238 . S
C287 O291 1.241 . S
C288 O281 1.247 . S
C288 O282 1.261 . S
C289 O284 1.259 . S
C289 O286 1.235 . S
O290 Co280 2.021 . S
O290 C287 1.238 . S
O291 Co285 2.052 . S
O291 C287 1.241 . S
O292 Co280 2.137 1_556 S
O292 C283 1.247 1_556 S
O293 Co280 2.244 . S
O293 C283 1.272 . S
O293 Co285 2.135 . S
Co294 O295 2.216 . S
Co294 O296 2.091 . S
Co294 O298 2.004 . S
Co294 O304 2.021 . S
Co294 O306 2.137 . S
Co294 O307 2.244 . S
O295 Co294 2.216 . S
O295 C302 1.247 . S
O296 Co294 2.091 . S
O296 C302 1.261 . S
C297 O306 1.247 . S
C297 O307 1.272 . S
O298 Co294 2.004 . S
O298 C303 1.259 . S
Co299 O300 2.061 . S
Co299 O305 2.052 . S
Co299 O307 2.135 . S
O300 Co299 2.061 . S
O300 C303 1.235 . S
C301 O304 1.238 . S
C301 O305 1.241 . S
C302 O295 1.247 . S
C302 O296 1.261 . S
C303 O298 1.259 . S
C303 O300 1.235 . S
O304 Co294 2.021 . S
O304 C301 1.238 . S
O305 Co299 2.052 . S
O305 C301 1.241 . S
O306 Co294 2.137 . S
O306 C297 1.247 . S
O307 Co294 2.244 . S
O307 C297 1.272 . S
O307 Co299 2.135 . S
Co308 O309 2.216 . S
Co308 O310 2.091 . S
Co308 O312 2.004 . S
Co308 O318 2.021 . S
Co308 O320 2.137 . S
Co308 O321 2.244 . S
O309 Co308 2.216 . S
O309 C316 1.247 . S
O310 Co308 2.091 . S
O310 C316 1.261 . S
C311 O320 1.247 . S
C311 O321 1.272 . S
O312 Co308 2.004 . S
O312 C317 1.259 . S
Co313 O314 2.061 . S
Co313 O319 2.052 . S
Co313 O321 2.135 . S
O314 Co313 2.061 . S
O314 C317 1.235 . S
C315 O318 1.238 . S
C315 O319 1.241 . S
C316 O309 1.247 . S
C316 O310 1.261 . S
C317 O312 1.259 . S
C317 O314 1.235 . S
O318 Co308 2.021 . S
O318 C315 1.238 . S
O319 Co313 2.052 . S
O319 C315 1.241 . S
O320 Co308 2.137 . S
O320 C311 1.247 . S
O321 Co308 2.244 . S
O321 C311 1.272 . S
O321 Co313 2.135 . S
Co322 O323 2.216 . S
Co322 O324 2.091 . S
Co322 O326 2.004 . S
Co322 O332 2.021 . S
Co322 O334 2.137 . S
Co322 O335 2.244 . S
O323 Co322 2.216 . S
O323 C330 1.247 . S
O324 Co322 2.091 . S
O324 C330 1.261 . S
C325 O334 1.247 . S
C325 O335 1.272 . S
O326 Co322 2.004 . S
O326 C331 1.259 . S
Co327 O328 2.061 . S
Co327 O333 2.052 . S
Co327 O335 2.135 . S
O328 Co327 2.061 . S
O328 C331 1.235 . S
C329 O332 1.238 . S
C329 O333 1.241 . S
C330 O323 1.247 . S
C330 O324 1.261 . S
C331 O326 1.259 . S
C331 O328 1.235 . S
O332 Co322 2.021 . S
O332 C329 1.238 . S
O333 Co327 2.052 . S
O333 C329 1.241 . S
O334 Co322 2.137 . S
O334 C325 1.247 . S
O335 Co322 2.244 . S
O335 C325 1.272 . S
O335 Co327 2.135 . S
Tb336 C338 2.809 1_455 S
Tb336 O356 2.484 1_455 S
Tb336 O357 2.440 1_455 S
Tb336 O358 2.658 . S
Tb336 O359 2.409 1_554 S
Tb336 O360 2.378 . S
Tb336 O364 2.325 . S
Tb336 O367 2.341 1_545 S
Tb337 C347 2.809 . S
Tb337 O358 2.325 . S
Tb337 O361 2.341 . S
Tb337 O362 2.484 . S
Tb337 O363 2.440 . S
Tb337 O364 2.658 . S
Tb337 O365 2.409 . S
Tb337 O366 2.378 1_545 S
C338 Tb336 2.809 1_655 S
C338 C339 1.514 . S
C338 O356 1.248 . S
C338 O357 1.266 . S
C339 C338 1.514 . S
C339 C340 1.359 . S
C339 C344 1.361 . S
C340 C339 1.359 . S
C340 C341 1.380 . S
C340 H368 0.929 . S
C341 C340 1.380 . S
C341 C342 1.347 . S
C341 H369 0.931 . S
C342 C341 1.347 . S
C342 C343 1.369 1_554 S
C343 C342 1.369 1_556 S
C343 C344 1.407 1_556 S
C343 H370 0.930 . S
C344 C339 1.361 . S
C344 C343 1.407 1_554 S
C344 H371 0.918 1_554 S
C345 O358 1.281 . S
C345 O359 1.254 1_554 S
C346 O360 1.236 . S
C346 O361 1.266 . S
C347 Tb337 2.809 . S
C347 C348 1.514 1_545 S
C347 O362 1.248 . S
C347 O363 1.266 . S
C348 C347 1.514 1_565 S
C348 C349 1.359 . S
C348 C353 1.348 . S
C349 C348 1.359 . S
C349 C350 1.380 . S
C349 H372 0.929 . S
C350 C349 1.380 . S
C350 C351 1.347 . S
C350 H373 0.931 . S
C351 C350 1.347 . S
C351 C352 1.369 . S
C352 C351 1.369 . S
C352 C353 1.408 . S
C352 H374 0.930 . S
C353 C348 1.348 . S
C353 C352 1.408 . S
C353 H375 0.930 . S
C354 O364 1.281 . S
C354 O365 1.254 . S
C355 O366 1.236 . S
C355 O367 1.266 . S
O356 Tb336 2.484 1_655 S
O356 C338 1.248 . S
O357 Tb336 2.440 1_655 S
O357 C338 1.266 . S
O358 Tb336 2.658 . S
O358 Tb337 2.325 . S
O358 C345 1.281 . S
O359 Tb336 2.409 1_556 S
O359 C345 1.254 1_556 S
O360 Tb336 2.378 . S
O360 C346 1.236 . S
O361 Tb337 2.341 . S
O361 C346 1.266 . S
O362 Tb337 2.484 . S
O362 C347 1.248 . S
O363 Tb337 2.440 . S
O363 C347 1.266 . S
O364 Tb336 2.325 . S
O364 Tb337 2.658 . S
O364 C354 1.281 . S
O365 Tb337 2.409 . S
O365 C354 1.254 . S
O366 Tb337 2.378 1_565 S
O366 C355 1.236 . S
O367 Tb336 2.341 1_565 S
O367 C355 1.266 . S
H368 C340 0.929 . S
H369 C341 0.931 . S
H370 C343 0.930 . S
H371 C344 0.918 1_556 S
H372 C349 0.929 . S
H373 C350 0.931 . S
H374 C352 0.930 . S
H375 C353 0.930 . S
Tb376 C378 2.809 . S
Tb376 O396 2.484 . S
Tb376 O397 2.440 . S
Tb376 O398 2.658 . S
Tb376 O399 2.409 . S
Tb376 O400 2.378 . S
Tb376 O404 2.325 . S
Tb376 O407 2.341 . S
Tb377 C387 2.809 . S
Tb377 O398 2.325 . S
Tb377 O401 2.341 . S
Tb377 O402 2.484 . S
Tb377 O403 2.440 . S
Tb377 O404 2.658 . S
Tb377 O405 2.409 . S
Tb377 O406 2.378 . S
C378 Tb376 2.809 . S
C378 C379 1.514 . S
C378 O396 1.248 . S
C378 O397 1.266 . S
C379 C378 1.514 . S
C379 C380 1.359 . S
C379 C384 1.348 . S
C380 C379 1.359 . S
C380 C381 1.380 . S
C380 H408 0.929 . S
C381 C380 1.380 . S
C381 C382 1.347 . S
C381 H409 0.931 . S
C382 C381 1.347 . S
C382 C383 1.369 . S
C383 C382 1.369 . S
C383 C384 1.408 . S
C383 H410 0.930 . S
C384 C379 1.348 . S
C384 C383 1.408 . S
C384 H411 0.930 . S
C385 O398 1.281 . S
C385 O399 1.254 . S
C386 O400 1.236 . S
C386 O401 1.266 . S
C387 Tb377 2.809 . S
C387 C388 1.514 . S
C387 O402 1.248 . S
C387 O403 1.266 . S
C388 C387 1.514 . S
C388 C389 1.359 . S
C388 C393 1.348 . S
C389 C388 1.359 . S
C389 C390 1.380 . S
C389 H412 0.929 . S
C390 C389 1.380 . S
C390 C391 1.347 . S
C390 H413 0.931 . S
C391 C390 1.347 . S
C391 C392 1.369 . S
C392 C391 1.369 . S
C392 C393 1.408 . S
C392 H414 0.930 . S
C393 C388 1.348 . S
C393 C392 1.408 . S
C393 H415 0.930 . S
C394 O404 1.281 . S
C394 O405 1.254 . S
C395 O406 1.236 . S
C395 O407 1.266 . S
O396 Tb376 2.484 . S
O396 C378 1.248 . S
O397 Tb376 2.440 . S
O397 C378 1.266 . S
O398 Tb376 2.658 . S
O398 Tb377 2.325 . S
O398 C385 1.281 . S
O399 Tb376 2.409 . S
O399 C385 1.254 . S
O400 Tb376 2.378 . S
O400 C386 1.236 . S
O401 Tb377 2.341 . S
O401 C386 1.266 . S
O402 Tb377 2.484 . S
O402 C387 1.248 . S
O403 Tb377 2.440 . S
O403 C387 1.266 . S
O404 Tb376 2.325 . S
O404 Tb377 2.658 . S
O404 C394 1.281 . S
O405 Tb377 2.409 . S
O405 C394 1.254 . S
O406 Tb377 2.378 . S
O406 C395 1.236 . S
O407 Tb376 2.341 . S
O407 C395 1.266 . S
H408 C380 0.929 . S
H409 C381 0.931 . S
H410 C383 0.930 . S
H411 C384 0.930 . S
H412 C389 0.929 . S
H413 C390 0.931 . S
H414 C392 0.930 . S
H415 C393 0.930 . S
Tb416 C418 2.809 1_545 S
Tb416 O436 2.479 1_545 S
Tb416 O437 2.440 . S
Tb416 O438 2.658 . S
Tb416 O439 2.409 . S
Tb416 O440 2.378 1_545 S
Tb416 O444 2.325 . S
Tb416 O447 2.341 . S
Tb417 C427 2.809 . S
Tb417 O438 2.325 . S
Tb417 O441 2.341 1_545 S
Tb417 O442 2.484 . S
Tb417 O443 2.440 . S
Tb417 O444 2.658 . S
Tb417 O445 2.409 . S
Tb417 O446 2.378 . S
C418 Tb416 2.809 1_565 S
C418 C419 1.514 . S
C418 O436 1.248 . S
C418 O437 1.266 1_565 S
C419 C418 1.514 . S
C419 C420 1.359 . S
C419 C424 1.348 . S
C420 C419 1.359 . S
C420 C421 1.380 . S
C420 H448 0.929 . S
C421 C420 1.380 . S
C421 C422 1.347 . S
C421 H449 0.931 . S
C422 C421 1.347 . S
C422 C423 1.369 . S
C423 C422 1.369 . S
C423 C424 1.408 . S
C423 H450 0.930 . S
C424 C419 1.348 . S
C424 C423 1.408 . S
C424 H451 0.930 . S
C425 O438 1.281 . S
C425 O439 1.254 . S
C426 O440 1.236 . S
C426 O441 1.266 . S
C427 Tb417 2.809 . S
C427 C428 1.514 . S
C427 O442 1.248 . S
C427 O443 1.266 . S
C428 C427 1.514 . S
C428 C429 1.359 . S
C428 C433 1.348 . S
C429 C428 1.359 . S
C429 C430 1.380 . S
C429 H452 0.929 . S
C430 C429 1.380 . S
C430 C431 1.347 . S
C430 H453 0.931 . S
C431 C430 1.347 . S
C431 C432 1.369 . S
C432 C431 1.369 . S
C432 C433 1.408 . S
C432 H454 0.930 . S
C433 C428 1.348 . S
C433 C432 1.408 . S
C433 H455 0.930 . S
C434 O444 1.281 . S
C434 O445 1.254 . S
C435 O446 1.236 . S
C435 O447 1.266 . S
O436 Tb416 2.479 1_565 S
O436 C418 1.248 . S
O437 Tb416 2.440 . S
O437 C418 1.266 1_545 S
O438 Tb416 2.658 . S
O438 Tb417 2.325 . S
O438 C425 1.281 . S
O439 Tb416 2.409 . S
O439 C425 1.254 . S
O440 Tb416 2.378 1_565 S
O440 C426 1.236 . S
O441 Tb417 2.341 1_565 S
O441 C426 1.266 . S
O442 Tb417 2.484 . S
O442 C427 1.248 . S
O443 Tb417 2.440 . S
O443 C427 1.266 . S
O444 Tb416 2.325 . S
O444 Tb417 2.658 . S
O444 C434 1.281 . S
O445 Tb417 2.409 . S
O445 C434 1.254 . S
O446 Tb417 2.378 . S
O446 C435 1.236 . S
O447 Tb416 2.341 . S
O447 C435 1.266 . S
H448 C420 0.929 . S
H449 C421 0.931 . S
H450 C423 0.930 . S
H451 C424 0.930 . S
H452 C429 0.929 . S
H453 C430 0.931 . S
H454 C432 0.930 . S
H455 C433 0.930 . S
Tb456 C458 2.809 . S
Tb456 O476 2.484 . S
Tb456 O477 2.440 . S
Tb456 O478 2.658 . S
Tb456 O479 2.409 . S
Tb456 O480 2.378 . S
Tb456 O484 2.325 . S
Tb456 O487 2.341 . S
Tb457 C467 2.809 . S
Tb457 O478 2.325 . S
Tb457 O481 2.341 . S
Tb457 O482 2.484 . S
Tb457 O483 2.440 . S
Tb457 O484 2.658 . S
Tb457 O485 2.409 . S
Tb457 O486 2.378 . S
C458 Tb456 2.809 . S
C458 C459 1.514 . S
C458 O476 1.248 . S
C458 O477 1.266 . S
C459 C458 1.514 . S
C459 C460 1.359 . S
C459 C464 1.348 . S
C460 C459 1.359 . S
C460 C461 1.380 . S
C460 H488 0.929 . S
C461 C460 1.380 . S
C461 C462 1.347 . S
C461 H489 0.931 . S
C462 C461 1.347 . S
C462 C463 1.369 . S
C463 C462 1.369 . S
C463 C464 1.408 . S
C463 H490 0.930 . S
C464 C459 1.348 . S
C464 C463 1.408 . S
C464 H491 0.930 . S
C465 O478 1.281 . S
C465 O479 1.254 . S
C466 O480 1.236 . S
C466 O481 1.266 . S
C467 Tb457 2.809 . S
C467 C468 1.514 . S
C467 O482 1.248 . S
C467 O483 1.266 . S
C468 C467 1.514 . S
C468 C469 1.359 . S
C468 C473 1.348 . S
C469 C468 1.359 . S
C469 C470 1.380 . S
C469 H492 0.929 . S
C470 C469 1.380 . S
C470 C471 1.347 . S
C470 H493 0.931 . S
C471 C470 1.347 . S
C471 C472 1.369 . S
C472 C471 1.369 . S
C472 C473 1.408 . S
C472 H494 0.930 . S
C473 C468 1.348 . S
C473 C472 1.408 . S
C473 H495 0.930 . S
C474 O484 1.281 . S
C474 O485 1.254 . S
C475 O486 1.236 . S
C475 O487 1.266 . S
O476 Tb456 2.484 . S
O476 C458 1.248 . S
O477 Tb456 2.440 . S
O477 C458 1.266 . S
O478 Tb456 2.658 . S
O478 Tb457 2.325 . S
O478 C465 1.281 . S
O479 Tb456 2.409 . S
O479 C465 1.254 . S
O480 Tb456 2.378 . S
O480 C466 1.236 . S
O481 Tb457 2.341 . S
O481 C466 1.266 . S
O482 Tb457 2.484 . S
O482 C467 1.248 . S
O483 Tb457 2.440 . S
O483 C467 1.266 . S
O484 Tb456 2.325 . S
O484 Tb457 2.658 . S
O484 C474 1.281 . S
O485 Tb457 2.409 . S
O485 C474 1.254 . S
O486 Tb457 2.378 . S
O486 C475 1.236 . S
O487 Tb456 2.341 . S
O487 C475 1.266 . S
H488 C460 0.929 . S
H489 C461 0.931 . S
H490 C463 0.930 . S
H491 C464 0.930 . S
H492 C469 0.929 . S
H493 C470 0.931 . S
H494 C472 0.930 . S
H495 C473 0.930 . S
Tb496 C498 2.809 . S
Tb496 O516 2.484 . S
Tb496 O517 2.440 . S
Tb496 O518 2.658 . S
Tb496 O519 2.409 1_455 S
Tb496 O520 2.378 . S
Tb496 O524 2.325 . S
Tb496 O527 2.341 . S
Tb497 C507 2.809 . S
Tb497 O518 2.325 1_565 S
Tb497 O521 2.347 . S
Tb497 O522 2.484 . S
Tb497 O523 2.440 . S
Tb497 O524 2.658 1_565 S
Tb497 O525 2.409 1_565 S
Tb497 O526 2.378 1_565 S
C498 Tb496 2.809 . S
C498 C499 1.514 . S
C498 O516 1.248 . S
C498 O517 1.266 . S
C499 C498 1.514 . S
C499 C500 1.359 . S
C499 C504 1.348 1_455 S
C500 C499 1.359 . S
C500 C501 1.380 . S
C500 H528 0.929 . S
C501 C500 1.380 . S
C501 C502 1.347 . S
C501 H529 0.931 . S
C502 C501 1.347 . S
C502 C503 1.369 1_455 S
C503 C502 1.369 1_655 S
C503 C504 1.408 . S
C503 H530 0.930 . S
C504 C499 1.348 1_655 S
C504 C503 1.408 . S
C504 H531 0.930 . S
C505 O518 1.281 1_655 S
C505 O519 1.254 . S
C506 O520 1.236 . S
C506 O521 1.256 1_545 S
C507 Tb497 2.809 . S
C507 C508 1.514 . S
C507 O522 1.248 . S
C507 O523 1.266 . S
C508 C507 1.514 . S
C508 C509 1.359 . S
C508 C513 1.348 . S
C509 C508 1.359 . S
C509 C510 1.380 . S
C509 H532 0.929 . S
C510 C509 1.380 . S
C510 C511 1.347 . S
C510 H533 0.931 . S
C511 C510 1.347 . S
C511 C512 1.369 . S
C512 C511 1.369 . S
C512 C513 1.408 . S
C512 H534 0.930 . S
C513 C508 1.348 . S
C513 C512 1.408 . S
C513 H535 0.930 . S
C514 O524 1.281 . S
C514 O525 1.254 . S
C515 O526 1.236 . S
C515 O527 1.266 . S
O516 Tb496 2.484 . S
O516 C498 1.248 . S
O517 Tb496 2.440 . S
O517 C498 1.266 . S
O518 Tb496 2.658 . S
O518 Tb497 2.325 1_545 S
O518 C505 1.281 1_455 S
O519 Tb496 2.409 1_655 S
O519 C505 1.254 . S
O520 Tb496 2.378 . S
O520 C506 1.236 . S
O521 Tb497 2.347 . S
O521 C506 1.256 1_565 S
O522 Tb497 2.484 . S
O522 C507 1.248 . S
O523 Tb497 2.440 . S
O523 C507 1.266 . S
O524 Tb496 2.325 . S
O524 Tb497 2.658 1_545 S
O524 C514 1.281 . S
O525 Tb497 2.409 1_545 S
O525 C514 1.254 . S
O526 Tb497 2.378 1_545 S
O526 C515 1.236 . S
O527 Tb496 2.341 . S
O527 C515 1.266 . S
H528 C500 0.929 . S
H529 C501 0.931 . S
H530 C503 0.930 . S
H531 C504 0.930 . S
H532 C509 0.929 . S
H533 C510 0.931 . S
H534 C512 0.930 . S
H535 C513 0.930 . S
Tb536 C538 2.809 . S
Tb536 O556 2.484 . S
Tb536 O557 2.440 . S
Tb536 O558 2.658 . S
Tb536 O559 2.409 . S
Tb536 O560 2.378 . S
Tb536 O564 2.325 . S
Tb536 O567 2.341 . S
Tb537 C547 2.809 . S
Tb537 O558 2.325 . S
Tb537 O561 2.341 . S
Tb537 O562 2.484 . S
Tb537 O563 2.440 . S
Tb537 O564 2.658 . S
Tb537 O565 2.409 . S
Tb537 O566 2.378 . S
C538 Tb536 2.809 . S
C538 C539 1.514 . S
C538 O556 1.248 . S
C538 O557 1.266 . S
C539 C538 1.514 . S
C539 C540 1.359 . S
C539 C544 1.348 . S
C540 C539 1.359 . S
C540 C541 1.380 . S
C540 H568 0.929 . S
C541 C540 1.380 . S
C541 C542 1.347 . S
C541 H569 0.931 . S
C542 C541 1.347 . S
C542 C543 1.369 . S
C543 C542 1.369 . S
C543 C544 1.408 . S
C543 H570 0.930 . S
C544 C539 1.348 . S
C544 C543 1.408 . S
C544 H571 0.930 . S
C545 O558 1.281 . S
C545 O559 1.254 . S
C546 O560 1.236 . S
C546 O561 1.266 . S
C547 Tb537 2.809 . S
C547 C548 1.514 . S
C547 O562 1.248 . S
C547 O563 1.266 . S
C548 C547 1.514 . S
C548 C549 1.359 . S
C548 C553 1.348 . S
C549 C548 1.359 . S
C549 C550 1.380 . S
C549 H572 0.929 . S
C550 C549 1.380 . S
C550 C551 1.347 . S
C550 H573 0.931 . S
C551 C550 1.347 . S
C551 C552 1.369 . S
C552 C551 1.369 . S
C552 C553 1.408 . S
C552 H574 0.930 . S
C553 C548 1.348 . S
C553 C552 1.408 . S
C553 H575 0.930 . S
C554 O564 1.281 . S
C554 O565 1.254 . S
C555 O566 1.236 . S
C555 O567 1.266 . S
O556 Tb536 2.484 . S
O556 C538 1.248 . S
O557 Tb536 2.440 . S
O557 C538 1.266 . S
O558 Tb536 2.658 . S
O558 Tb537 2.325 . S
O558 C545 1.281 . S
O559 Tb536 2.409 . S
O559 C545 1.254 . S
O560 Tb536 2.378 . S
O560 C546 1.236 . S
O561 Tb537 2.341 . S
O561 C546 1.266 . S
O562 Tb537 2.484 . S
O562 C547 1.248 . S
O563 Tb537 2.440 . S
O563 C547 1.266 . S
O564 Tb536 2.325 . S
O564 Tb537 2.658 . S
O564 C554 1.281 . S
O565 Tb537 2.409 . S
O565 C554 1.254 . S
O566 Tb537 2.378 . S
O566 C555 1.236 . S
O567 Tb536 2.341 . S
O567 C555 1.266 . S
H568 C540 0.929 . S
H569 C541 0.931 . S
H570 C543 0.930 . S
H571 C544 0.930 . S
H572 C549 0.929 . S
H573 C550 0.931 . S
H574 C552 0.930 . S
H575 C553 0.930 . S
Tb576 C578 2.809 . S
Tb576 O596 2.484 1_545 S
Tb576 O597 2.440 . S
Tb576 O598 2.658 . S
Tb576 O599 2.409 . S
Tb576 O600 2.378 . S
Tb576 O604 2.325 1_545 S
Tb576 O607 2.341 . S
Tb577 C587 2.809 . S
Tb577 O598 2.325 . S
Tb577 O601 2.341 . S
Tb577 O602 2.484 . S
Tb577 O603 2.440 . S
Tb577 O604 2.658 1_545 S
Tb577 O605 2.409 1_545 S
Tb577 O606 2.378 . S
C578 Tb576 2.809 . S
C578 C579 1.514 1_545 S
C578 O596 1.248 1_545 S
C578 O597 1.266 . S
C579 C578 1.514 1_565 S
C579 C580 1.359 . S
C579 C584 1.348 1_565 S
C580 C579 1.359 . S
C580 C581 1.380 . S
C580 H608 0.929 . S
C581 C580 1.380 . S
C581 C582 1.347 . S
C581 H609 0.931 . S
C582 C581 1.347 . S
C582 C583 1.340 1_565 S
C583 C582 1.340 1_545 S
C583 C584 1.414 . S
C583 H610 0.954 . S
C584 C579 1.348 1_545 S
C584 C583 1.414 . S
C584 H611 0.930 . S
C585 O598 1.281 . S
C585 O599 1.254 . S
C586 O600 1.236 . S
C586 O601 1.266 . S
C587 Tb577 2.809 . S
C587 C588 1.514 . S
C587 O602 1.248 . S
C587 O603 1.266 . S
C588 C587 1.514 . S
C588 C589 1.359 . S
C588 C593 1.348 . S
C589 C588 1.359 . S
C589 C590 1.380 . S
C589 H612 0.929 . S
C590 C589 1.380 . S
C590 C591 1.347 . S
C590 H613 0.931 . S
C591 C590 1.347 . S
C591 C592 1.369 . S
C592 C591 1.369 . S
C592 C593 1.408 . S
C592 H614 0.930 . S
C593 C588 1.348 . S
C593 C592 1.408 . S
C593 H615 0.930 . S
C594 O604 1.281 . S
C594 O605 1.254 . S
C595 O606 1.236 . S
C595 O607 1.266 . S
O596 Tb576 2.484 1_565 S
O596 C578 1.248 1_565 S
O597 Tb576 2.440 . S
O597 C578 1.266 . S
O598 Tb576 2.658 . S
O598 Tb577 2.325 . S
O598 C585 1.281 . S
O599 Tb576 2.409 . S
O599 C585 1.254 . S
O600 Tb576 2.378 . S
O600 C586 1.236 . S
O601 Tb577 2.341 . S
O601 C586 1.266 . S
O602 Tb577 2.484 . S
O602 C587 1.248 . S
O603 Tb577 2.440 . S
O603 C587 1.266 . S
O604 Tb576 2.325 1_565 S
O604 Tb577 2.658 1_565 S
O604 C594 1.281 . S
O605 Tb577 2.409 1_565 S
O605 C594 1.254 . S
O606 Tb577 2.378 . S
O606 C595 1.236 . S
O607 Tb576 2.341 . S
O607 C595 1.266 . S
H608 C580 0.929 . S
H609 C581 0.931 . S
H610 C583 0.954 . S
H611 C584 0.930 . S
H612 C589 0.929 . S
H613 C590 0.931 . S
H614 C592 0.930 . S
H615 C593 0.930 . S
Tb616 C618 2.809 . S
Tb616 O636 2.484 . S
Tb616 O637 2.440 . S
Tb616 O638 2.658 . S
Tb616 O639 2.409 . S
Tb616 O640 2.378 . S
Tb616 O644 2.325 . S
Tb616 O647 2.341 . S
Tb617 C627 2.809 . S
Tb617 O638 2.325 . S
Tb617 O641 2.341 . S
Tb617 O642 2.484 . S
Tb617 O643 2.440 . S
Tb617 O644 2.658 . S
Tb617 O645 2.409 . S
Tb617 O646 2.378 . S
C618 Tb616 2.809 . S
C618 C619 1.514 . S
C618 O636 1.248 . S
C618 O637 1.266 . S
C619 C618 1.514 . S
C619 C620 1.359 . S
C619 C624 1.348 . S
C620 C619 1.359 . S
C620 C621 1.380 . S
C620 H648 0.929 . S
C621 C620 1.380 . S
C621 C622 1.347 . S
C621 H649 0.931 . S
C622 C621 1.347 . S
C622 C623 1.369 . S
C623 C622 1.369 . S
C623 C624 1.408 . S
C623 H650 0.930 . S
C624 C619 1.348 . S
C624 C623 1.408 . S
C624 H651 0.930 . S
C625 O638 1.281 . S
C625 O639 1.254 . S
C626 O640 1.236 . S
C626 O641 1.266 . S
C627 Tb617 2.809 . S
C627 C628 1.514 . S
C627 O642 1.248 . S
C627 O643 1.266 . S
C628 C627 1.514 . S
C628 C629 1.359 . S
C628 C633 1.348 . S
C629 C628 1.359 . S
C629 C630 1.380 . S
C629 H652 0.929 . S
C630 C629 1.380 . S
C630 C631 1.347 . S
C630 H653 0.931 . S
C631 C630 1.347 . S
C631 C632 1.369 . S
C632 C631 1.369 . S
C632 C633 1.408 . S
C632 H654 0.930 . S
C633 C628 1.348 . S
C633 C632 1.408 . S
C633 H655 0.930 . S
C634 O644 1.281 . S
C634 O645 1.254 . S
C635 O646 1.236 . S
C635 O647 1.266 . S
O636 Tb616 2.484 . S
O636 C618 1.248 . S
O637 Tb616 2.440 . S
O637 C618 1.266 . S
O638 Tb616 2.658 . S
O638 Tb617 2.325 . S
O638 C625 1.281 . S
O639 Tb616 2.409 . S
O639 C625 1.254 . S
O640 Tb616 2.378 . S
O640 C626 1.236 . S
O641 Tb617 2.341 . S
O641 C626 1.266 . S
O642 Tb617 2.484 . S
O642 C627 1.248 . S
O643 Tb617 2.440 . S
O643 C627 1.266 . S
O644 Tb616 2.325 . S
O644 Tb617 2.658 . S
O644 C634 1.281 . S
O645 Tb617 2.409 . S
O645 C634 1.254 . S
O646 Tb617 2.378 . S
O646 C635 1.236 . S
O647 Tb616 2.341 . S
O647 C635 1.266 . S
H648 C620 0.929 . S
H649 C621 0.931 . S
H650 C623 0.930 . S
H651 C624 0.930 . S
H652 C629 0.929 . S
H653 C630 0.931 . S
H654 C632 0.930 . S
H655 C633 0.930 . S
Tb656 C658 2.809 . S
Tb656 O676 2.484 . S
Tb656 O677 2.440 . S
Tb656 O678 2.658 . S
Tb656 O679 2.409 . S
Tb656 O680 2.378 . S
Tb656 O684 2.325 . S
Tb656 O687 2.341 . S
Tb657 C667 2.809 . S
Tb657 O678 2.325 . S
Tb657 O681 2.381 . S
Tb657 O682 2.484 . S
Tb657 O683 2.440 . S
Tb657 O684 2.658 . S
Tb657 O685 2.409 . S
Tb657 O686 2.378 . S
C658 Tb656 2.809 . S
C658 C659 1.514 . S
C658 O676 1.248 . S
C658 O677 1.266 . S
C659 C658 1.514 . S
C659 C660 1.359 1_554 S
C659 C664 1.348 . S
C660 C659 1.359 1_556 S
C660 C661 1.380 . S
C660 H688 0.929 . S
C661 C660 1.380 . S
C661 C662 1.347 . S
C661 H689 0.931 . S
C662 C661 1.347 . S
C662 C663 1.369 . S
C663 C662 1.369 . S
C663 C664 1.408 1_556 S
C663 H690 0.930 . S
C664 C659 1.348 . S
C664 C663 1.408 1_554 S
C664 H691 0.930 . S
C665 O678 1.281 . S
C665 O679 1.254 . S
C666 O680 1.236 1_556 S
C666 O681 1.254 1_556 S
C667 Tb657 2.809 . S
C667 C668 1.514 . S
C667 O682 1.248 . S
C667 O683 1.266 . S
C668 C667 1.514 . S
C668 C669 1.359 . S
C668 C673 1.348 . S
C669 C668 1.359 . S
C669 C670 1.380 . S
C669 H692 0.929 . S
C670 C669 1.380 . S
C670 C671 1.347 . S
C670 H693 0.931 . S
C671 C670 1.347 . S
C671 C672 1.369 . S
C672 C671 1.369 . S
C672 C673 1.408 . S
C672 H694 0.930 . S
C673 C668 1.348 . S
C673 C672 1.408 . S
C673 H695 0.930 . S
C674 O684 1.281 . S
C674 O685 1.254 . S
C675 O686 1.236 . S
C675 O687 1.266 . S
O676 Tb656 2.484 . S
O676 C658 1.248 . S
O677 Tb656 2.440 . S
O677 C658 1.266 . S
O678 Tb656 2.658 . S
O678 Tb657 2.325 . S
O678 C665 1.281 . S
O679 Tb656 2.409 . S
O679 C665 1.254 . S
O680 Tb656 2.378 . S
O680 C666 1.236 1_554 S
O681 Tb657 2.381 . S
O681 C666 1.254 1_554 S
O682 Tb657 2.484 . S
O682 C667 1.248 . S
O683 Tb657 2.440 . S
O683 C667 1.266 . S
O684 Tb656 2.325 . S
O684 Tb657 2.658 . S
O684 C674 1.281 . S
O685 Tb657 2.409 . S
O685 C674 1.254 . S
O686 Tb657 2.378 . S
O686 C675 1.236 . S
O687 Tb656 2.341 . S
O687 C675 1.266 . S
H688 C660 0.929 . S
H689 C661 0.931 . S
H690 C663 0.930 . S
H691 C664 0.930 . S
H692 C669 0.929 . S
H693 C670 0.931 . S
H694 C672 0.930 . S
H695 C673 0.930 . S
Tb696 C698 2.809 . S
Tb696 O716 2.484 . S
Tb696 O717 2.440 . S
Tb696 O718 2.658 . S
Tb696 O719 2.409 . S
Tb696 O720 2.378 . S
Tb696 O724 2.325 . S
Tb696 O727 2.341 . S
Tb697 C707 2.809 . S
Tb697 O718 2.325 . S
Tb697 O721 2.341 . S
Tb697 O722 2.484 . S
Tb697 O723 2.440 . S
Tb697 O724 2.658 . S
Tb697 O725 2.409 . S
Tb697 O726 2.378 . S
C698 Tb696 2.809 . S
C698 C699 1.514 . S
C698 O716 1.248 . S
C698 O717 1.266 . S
C699 C698 1.514 . S
C699 C700 1.359 . S
C699 C704 1.348 . S
C700 C699 1.359 . S
C700 C701 1.380 . S
C700 H728 0.929 . S
C701 C700 1.380 . S
C701 C702 1.347 . S
C701 H729 0.931 . S
C702 C701 1.347 . S
C702 C703 1.369 . S
C703 C702 1.369 . S
C703 C704 1.408 . S
C703 H730 0.930 . S
C704 C699 1.348 . S
C704 C703 1.408 . S
C704 H731 0.930 . S
C705 O718 1.281 . S
C705 O719 1.254 . S
C706 O720 1.236 . S
C706 O721 1.266 . S
C707 Tb697 2.809 . S
C707 C708 1.514 . S
C707 O722 1.248 . S
C707 O723 1.266 . S
C708 C707 1.514 . S
C708 C709 1.359 . S
C708 C713 1.348 . S
C709 C708 1.359 . S
C709 C710 1.380 . S
C709 H732 0.929 . S
C710 C709 1.380 . S
C710 C711 1.347 . S
C710 H733 0.931 . S
C711 C710 1.347 . S
C711 C712 1.369 . S
C712 C711 1.369 . S
C712 C713 1.408 . S
C712 H734 0.930 . S
C713 C708 1.348 . S
C713 C712 1.408 . S
C713 H735 0.930 . S
C714 O724 1.281 . S
C714 O725 1.254 . S
C715 O726 1.236 . S
C715 O727 1.266 . S
O716 Tb696 2.484 . S
O716 C698 1.248 . S
O717 Tb696 2.440 . S
O717 C698 1.266 . S
O718 Tb696 2.658 . S
O718 Tb697 2.325 . S
O718 C705 1.281 . S
O719 Tb696 2.409 . S
O719 C705 1.254 . S
O720 Tb696 2.378 . S
O720 C706 1.236 . S
O721 Tb697 2.341 . S
O721 C706 1.266 . S
O722 Tb697 2.484 . S
O722 C707 1.248 . S
O723 Tb697 2.440 . S
O723 C707 1.266 . S
O724 Tb696 2.325 . S
O724 Tb697 2.658 . S
O724 C714 1.281 . S
O725 Tb697 2.409 . S
O725 C714 1.254 . S
O726 Tb697 2.378 . S
O726 C715 1.236 . S
O727 Tb696 2.341 . S
O727 C715 1.266 . S
H728 C700 0.929 . S
H729 C701 0.931 . S
H730 C703 0.930 . S
H731 C704 0.930 . S
H732 C709 0.929 . S
H733 C710 0.931 . S
H734 C712 0.930 . S
H735 C713 0.930 . S
Tb736 C738 2.809 1_455 S
Tb736 O756 2.484 1_455 S
Tb736 O757 2.440 1_455 S
Tb736 O758 2.658 . S
Tb736 O759 2.409 . S
Tb736 O760 2.378 . S
Tb736 O764 2.325 . S
Tb736 O767 2.341 . S
Tb737 C747 2.809 . S
Tb737 O758 2.325 . S
Tb737 O761 2.341 . S
Tb737 O762 2.484 . S
Tb737 O763 2.440 . S
Tb737 O764 2.658 . S
Tb737 O765 2.409 . S
Tb737 O766 2.378 . S
C738 Tb736 2.809 1_655 S
C738 C739 1.514 . S
C738 O756 1.248 . S
C738 O757 1.266 . S
C739 C738 1.514 . S
C739 C740 1.359 . S
C739 C744 1.348 . S
C740 C739 1.359 . S
C740 C741 1.380 . S
C740 H768 0.929 . S
C741 C740 1.380 . S
C741 C742 1.347 . S
C741 H769 0.931 . S
C742 C741 1.347 . S
C742 C743 1.369 . S
C743 C742 1.369 . S
C743 C744 1.408 . S
C743 H770 0.930 . S
C744 C739 1.348 . S
C744 C743 1.408 . S
C744 H771 0.930 . S
C745 O758 1.281 . S
C745 O759 1.254 . S
C746 O760 1.236 . S
C746 O761 1.266 . S
C747 Tb737 2.809 . S
C747 C748 1.514 . S
C747 O762 1.248 . S
C747 O763 1.266 . S
C748 C747 1.514 . S
C748 C749 1.359 . S
C748 C753 1.348 . S
C749 C748 1.359 . S
C749 C750 1.380 . S
C749 H772 0.929 . S
C750 C749 1.380 . S
C750 C751 1.347 . S
C750 H773 0.931 . S
C751 C750 1.347 . S
C751 C752 1.369 . S
C752 C751 1.369 . S
C752 C753 1.408 . S
C752 H774 0.930 . S
C753 C748 1.348 . S
C753 C752 1.408 . S
C753 H775 0.930 . S
C754 O764 1.281 . S
C754 O765 1.254 . S
C755 O766 1.236 . S
C755 O767 1.266 . S
O756 Tb736 2.484 1_655 S
O756 C738 1.248 . S
O757 Tb736 2.440 1_655 S
O757 C738 1.266 . S
O758 Tb736 2.658 . S
O758 Tb737 2.325 . S
O758 C745 1.281 . S
O759 Tb736 2.409 . S
O759 C745 1.254 . S
O760 Tb736 2.378 . S
O760 C746 1.236 . S
O761 Tb737 2.341 . S
O761 C746 1.266 . S
O762 Tb737 2.484 . S
O762 C747 1.248 . S
O763 Tb737 2.440 . S
O763 C747 1.266 . S
O764 Tb736 2.325 . S
O764 Tb737 2.658 . S
O764 C754 1.281 . S
O765 Tb737 2.409 . S
O765 C754 1.254 . S
O766 Tb737 2.378 . S
O766 C755 1.236 . S
O767 Tb736 2.341 . S
O767 C755 1.266 . S
H768 C740 0.929 . S
H769 C741 0.931 . S
H770 C743 0.930 . S
H771 C744 0.930 . S
H772 C749 0.929 . S
H773 C750 0.931 . S
H774 C752 0.930 . S
H775 C753 0.930 . S
Tb776 C778 2.809 . S
Tb776 O796 2.484 . S
Tb776 O797 2.440 . S
Tb776 O798 2.658 . S
Tb776 O799 2.409 . S
Tb776 O800 2.378 . S
Tb776 O804 2.325 . S
Tb776 O807 2.341 . S
Tb777 C787 2.809 . S
Tb777 O798 2.325 . S
Tb777 O801 2.341 . S
Tb777 O802 2.484 . S
Tb777 O803 2.440 . S
Tb777 O804 2.658 . S
Tb777 O805 2.409 . S
Tb777 O806 2.378 . S
C778 Tb776 2.809 . S
C778 C779 1.514 . S
C778 O796 1.248 . S
C778 O797 1.266 . S
C779 C778 1.514 . S
C779 C780 1.359 . S
C779 C784 1.348 . S
C780 C779 1.359 . S
C780 C781 1.380 . S
C780 H808 0.929 . S
C781 C780 1.380 . S
C781 C782 1.347 . S
C781 H809 0.931 . S
C782 C781 1.347 . S
C782 C783 1.369 . S
C783 C782 1.369 . S
C783 C784 1.408 . S
C783 H810 0.930 . S
C784 C779 1.348 . S
C784 C783 1.408 . S
C784 H811 0.930 . S
C785 O798 1.281 . S
C785 O799 1.254 . S
C786 O800 1.236 . S
C786 O801 1.266 . S
C787 Tb777 2.809 . S
C787 C788 1.514 . S
C787 O802 1.248 . S
C787 O803 1.266 . S
C788 C787 1.514 . S
C788 C789 1.359 . S
C788 C793 1.348 . S
C789 C788 1.359 . S
C789 C790 1.380 . S
C789 H812 0.929 . S
C790 C789 1.380 . S
C790 C791 1.347 . S
C790 H813 0.931 . S
C791 C790 1.347 . S
C791 C792 1.369 . S
C792 C791 1.369 . S
C792 C793 1.408 . S
C792 H814 0.930 . S
C793 C788 1.348 . S
C793 C792 1.408 . S
C793 H815 0.930 . S
C794 O804 1.281 . S
C794 O805 1.254 . S
C795 O806 1.236 . S
C795 O807 1.266 . S
O796 Tb776 2.484 . S
O796 C778 1.248 . S
O797 Tb776 2.440 . S
O797 C778 1.266 . S
O798 Tb776 2.658 . S
O798 Tb777 2.325 . S
O798 C785 1.281 . S
O799 Tb776 2.409 . S
O799 C785 1.254 . S
O800 Tb776 2.378 . S
O800 C786 1.236 . S
O801 Tb777 2.341 . S
O801 C786 1.266 . S
O802 Tb777 2.484 . S
O802 C787 1.248 . S
O803 Tb777 2.440 . S
O803 C787 1.266 . S
O804 Tb776 2.325 . S
O804 Tb777 2.658 . S
O804 C794 1.281 . S
O805 Tb777 2.409 . S
O805 C794 1.254 . S
O806 Tb777 2.378 . S
O806 C795 1.236 . S
O807 Tb776 2.341 . S
O807 C795 1.266 . S
H808 C780 0.929 . S
H809 C781 0.931 . S
H810 C783 0.930 . S
H811 C784 0.930 . S
H812 C789 0.929 . S
H813 C790 0.931 . S
H814 C792 0.930 . S
H815 C793 0.930 . S
Tb816 C818 2.809 . S
Tb816 O836 2.484 . S
Tb816 O837 2.440 . S
Tb816 O838 2.658 . S
Tb816 O839 2.409 . S
Tb816 O840 2.378 . S
Tb816 O844 2.325 . S
Tb816 O847 2.341 . S
Tb817 C827 2.809 . S
Tb817 O838 2.325 . S
Tb817 O841 2.341 . S
Tb817 O842 2.484 . S
Tb817 O843 2.440 . S
Tb817 O844 2.658 . S
Tb817 O845 2.409 . S
Tb817 O846 2.378 . S
C818 Tb816 2.809 . S
C818 C819 1.514 . S
C818 O836 1.248 . S
C818 O837 1.266 . S
C819 C818 1.514 . S
C819 C820 1.359 . S
C819 C824 1.348 . S
C820 C819 1.359 . S
C820 C821 1.380 . S
C820 H848 0.929 . S
C821 C820 1.380 . S
C821 C822 1.347 . S
C821 H849 0.931 . S
C822 C821 1.347 . S
C822 C823 1.369 . S
C823 C822 1.369 . S
C823 C824 1.408 . S
C823 H850 0.930 . S
C824 C819 1.348 . S
C824 C823 1.408 . S
C824 H851 0.930 . S
C825 O838 1.281 . S
C825 O839 1.254 . S
C826 O840 1.236 . S
C826 O841 1.266 . S
C827 Tb817 2.809 . S
C827 C828 1.514 . S
C827 O842 1.248 . S
C827 O843 1.266 . S
C828 C827 1.514 . S
C828 C829 1.359 . S
C828 C833 1.348 . S
C829 C828 1.359 . S
C829 C830 1.380 . S
C829 H852 0.929 . S
C830 C829 1.380 . S
C830 C831 1.347 . S
C830 H853 0.931 . S
C831 C830 1.347 . S
C831 C832 1.369 . S
C832 C831 1.369 . S
C832 C833 1.408 . S
C832 H854 0.930 . S
C833 C828 1.348 . S
C833 C832 1.408 . S
C833 H855 0.930 . S
C834 O844 1.281 . S
C834 O845 1.254 . S
C835 O846 1.236 . S
C835 O847 1.266 . S
O836 Tb816 2.484 . S
O836 C818 1.248 . S
O837 Tb816 2.440 . S
O837 C818 1.266 . S
O838 Tb816 2.658 . S
O838 Tb817 2.325 . S
O838 C825 1.281 . S
O839 Tb816 2.409 . S
O839 C825 1.254 . S
O840 Tb816 2.378 . S
O840 C826 1.236 . S
O841 Tb817 2.341 . S
O841 C826 1.266 . S
O842 Tb817 2.484 . S
O842 C827 1.248 . S
O843 Tb817 2.440 . S
O843 C827 1.266 . S
O844 Tb816 2.325 . S
O844 Tb817 2.658 . S
O844 C834 1.281 . S
O845 Tb817 2.409 . S
O845 C834 1.254 . S
O846 Tb817 2.378 . S
O846 C835 1.236 . S
O847 Tb816 2.341 . S
O847 C835 1.266 . S
H848 C820 0.929 . S
H849 C821 0.931 . S
H850 C823 0.930 . S
H851 C824 0.930 . S
H852 C829 0.929 . S
H853 C830 0.931 . S
H854 C832 0.930 . S
H855 C833 0.930 . S
Tb856 C858 2.809 . S
Tb856 O876 2.484 . S
Tb856 O877 2.440 . S
Tb856 O878 2.658 . S
Tb856 O879 2.409 . S
Tb856 O880 2.378 . S
Tb856 O884 2.325 . S
Tb856 O887 2.341 . S
Tb857 C867 2.809 . S
Tb857 O878 2.325 . S
Tb857 O881 2.341 . S
Tb857 O882 2.484 . S
Tb857 O883 2.440 . S
Tb857 O884 2.658 . S
Tb857 O885 2.409 . S
Tb857 O886 2.378 . S
C858 Tb856 2.809 . S
C858 C859 1.514 . S
C858 O876 1.248 . S
C858 O877 1.266 . S
C859 C858 1.514 . S
C859 C860 1.359 . S
C859 C864 1.348 . S
C860 C859 1.359 . S
C860 C861 1.380 . S
C860 H888 0.929 . S
C861 C860 1.380 . S
C861 C862 1.347 . S
C861 H889 0.931 . S
C862 C861 1.347 . S
C862 C863 1.369 . S
C863 C862 1.369 . S
C863 C864 1.408 . S
C863 H890 0.930 . S
C864 C859 1.348 . S
C864 C863 1.408 . S
C864 H891 0.930 . S
C865 O878 1.281 . S
C865 O879 1.254 . S
C866 O880 1.236 . S
C866 O881 1.266 . S
C867 Tb857 2.809 . S
C867 C868 1.514 . S
C867 O882 1.248 . S
C867 O883 1.266 . S
C868 C867 1.514 . S
C868 C869 1.359 . S
C868 C873 1.348 . S
C869 C868 1.359 . S
C869 C870 1.380 . S
C869 H892 0.929 . S
C870 C869 1.380 . S
C870 C871 1.347 . S
C870 H893 0.931 . S
C871 C870 1.347 . S
C871 C872 1.369 . S
C872 C871 1.369 . S
C872 C873 1.408 . S
C872 H894 0.930 . S
C873 C868 1.348 . S
C873 C872 1.408 . S
C873 H895 0.930 . S
C874 O884 1.281 . S
C874 O885 1.254 . S
C875 O886 1.236 . S
C875 O887 1.266 . S
O876 Tb856 2.484 . S
O876 C858 1.248 . S
O877 Tb856 2.440 . S
O877 C858 1.266 . S
O878 Tb856 2.658 . S
O878 Tb857 2.325 . S
O878 C865 1.281 . S
O879 Tb856 2.409 . S
O879 C865 1.254 . S
O880 Tb856 2.378 . S
O880 C866 1.236 . S
O881 Tb857 2.341 . S
O881 C866 1.266 . S
O882 Tb857 2.484 . S
O882 C867 1.248 . S
O883 Tb857 2.440 . S
O883 C867 1.266 . S
O884 Tb856 2.325 . S
O884 Tb857 2.658 . S
O884 C874 1.281 . S
O885 Tb857 2.409 . S
O885 C874 1.254 . S
O886 Tb857 2.378 . S
O886 C875 1.236 . S
O887 Tb856 2.341 . S
O887 C875 1.266 . S
H888 C860 0.929 . S
H889 C861 0.931 . S
H890 C863 0.930 . S
H891 C864 0.930 . S
H892 C869 0.929 . S
H893 C870 0.931 . S
H894 C872 0.930 . S
H895 C873 0.930 . S
Tb896 C898 2.809 . S
Tb896 O916 2.484 . S
Tb896 O917 2.440 . S
Tb896 O918 2.658 . S
Tb896 O919 2.409 . S
Tb896 O920 2.378 . S
Tb896 O924 2.325 . S
Tb896 O927 2.341 . S
Tb897 C907 2.809 . S
Tb897 O918 2.325 . S
Tb897 O921 2.341 . S
Tb897 O922 2.484 . S
Tb897 O923 2.440 . S
Tb897 O924 2.658 . S
Tb897 O925 2.409 . S
Tb897 O926 2.378 . S
C898 Tb896 2.809 . S
C898 C899 1.514 . S
C898 O916 1.248 . S
C898 O917 1.266 . S
C899 C898 1.514 . S
C899 C900 1.359 . S
C899 C904 1.348 . S
C900 C899 1.359 . S
C900 C901 1.380 . S
C900 H928 0.929 . S
C901 C900 1.380 . S
C901 C902 1.347 . S
C901 H929 0.931 . S
C902 C901 1.347 . S
C902 C903 1.369 . S
C903 C902 1.369 . S
C903 C904 1.408 . S
C903 H930 0.930 . S
C904 C899 1.348 . S
C904 C903 1.408 . S
C904 H931 0.930 . S
C905 O918 1.281 . S
C905 O919 1.254 . S
C906 O920 1.236 . S
C906 O921 1.266 . S
C907 Tb897 2.809 . S
C907 C908 1.514 . S
C907 O922 1.248 . S
C907 O923 1.266 . S
C908 C907 1.514 . S
C908 C909 1.359 . S
C908 C913 1.348 . S
C909 C908 1.359 . S
C909 C910 1.380 . S
C909 H932 0.929 . S
C910 C909 1.380 . S
C910 C911 1.347 . S
C910 H933 0.931 . S
C911 C910 1.347 . S
C911 C912 1.369 . S
C912 C911 1.369 . S
C912 C913 1.408 . S
C912 H934 0.930 . S
C913 C908 1.348 . S
C913 C912 1.408 . S
C913 H935 0.930 . S
C914 O924 1.281 . S
C914 O925 1.254 . S
C915 O926 1.236 . S
C915 O927 1.266 . S
O916 Tb896 2.484 . S
O916 C898 1.248 . S
O917 Tb896 2.440 . S
O917 C898 1.266 . S
O918 Tb896 2.658 . S
O918 Tb897 2.325 . S
O918 C905 1.281 . S
O919 Tb896 2.409 . S
O919 C905 1.254 . S
O920 Tb896 2.378 . S
O920 C906 1.236 . S
O921 Tb897 2.341 . S
O921 C906 1.266 . S
O922 Tb897 2.484 . S
O922 C907 1.248 . S
O923 Tb897 2.440 . S
O923 C907 1.266 . S
O924 Tb896 2.325 . S
O924 Tb897 2.658 . S
O924 C914 1.281 . S
O925 Tb897 2.409 . S
O925 C914 1.254 . S
O926 Tb897 2.378 . S
O926 C915 1.236 . S
O927 Tb896 2.341 . S
O927 C915 1.266 . S
H928 C900 0.929 . S
H929 C901 0.931 . S
H930 C903 0.930 . S
H931 C904 0.930 . S
H932 C909 0.929 . S
H933 C910 0.931 . S
H934 C912 0.930 . S
H935 C913 0.930 . S
Tb936 C938 2.809 . S
Tb936 O956 2.484 . S
Tb936 O957 2.440 . S
Tb936 O958 2.658 . S
Tb936 O959 2.409 1_554 S
Tb936 O960 2.378 . S
Tb936 O964 2.325 . S
Tb936 O967 2.341 . S
Tb937 C947 2.809 1_455 S
Tb937 O958 2.325 . S
Tb937 O961 2.341 . S
Tb937 O962 2.484 1_455 S
Tb937 O963 2.440 1_455 S
Tb937 O964 2.658 . S
Tb937 O965 2.409 . S
Tb937 O966 2.378 . S
C938 Tb936 2.809 . S
C938 C939 1.514 . S
C938 O956 1.248 . S
C938 O957 1.266 . S
C939 C938 1.514 . S
C939 C940 1.359 . S
C939 C944 1.348 . S
C940 C939 1.359 . S
C940 C941 1.380 . S
C940 H968 0.929 . S
C941 C940 1.380 . S
C941 C942 1.347 . S
C941 H969 0.931 . S
C942 C941 1.347 . S
C942 C943 1.369 1_554 S
C943 C942 1.369 1_556 S
C943 C944 1.408 1_556 S
C943 H970 0.930 . S
C944 C939 1.348 . S
C944 C943 1.408 1_554 S
C944 H971 0.930 1_554 S
C945 O958 1.281 . S
C945 O959 1.254 1_554 S
C946 O960 1.236 . S
C946 O961 1.266 . S
C947 Tb937 2.809 1_655 S
C947 C948 1.514 . S
C947 O962 1.248 . S
C947 O963 1.266 . S
C948 C947 1.514 . S
C948 C949 1.359 . S
C948 C953 1.348 . S
C949 C948 1.359 . S
C949 C950 1.380 . S
C949 H972 0.929 . S
C950 C949 1.380 . S
C950 C951 1.347 . S
C950 H973 0.931 . S
C951 C950 1.347 . S
C951 C952 1.369 . S
C952 C951 1.369 . S
C952 C953 1.408 . S
C952 H974 0.930 . S
C953 C948 1.348 . S
C953 C952 1.408 . S
C953 H975 0.930 . S
C954 O964 1.281 . S
C954 O965 1.254 . S
C955 O966 1.236 . S
C955 O967 1.266 . S
O956 Tb936 2.484 . S
O956 C938 1.248 . S
O957 Tb936 2.440 . S
O957 C938 1.266 . S
O958 Tb936 2.658 . S
O958 Tb937 2.325 . S
O958 C945 1.281 . S
O959 Tb936 2.409 1_556 S
O959 C945 1.254 1_556 S
O960 Tb936 2.378 . S
O960 C946 1.236 . S
O961 Tb937 2.341 . S
O961 C946 1.266 . S
O962 Tb937 2.484 1_655 S
O962 C947 1.248 . S
O963 Tb937 2.440 1_655 S
O963 C947 1.266 . S
O964 Tb936 2.325 . S
O964 Tb937 2.658 . S
O964 C954 1.281 . S
O965 Tb937 2.409 . S
O965 C954 1.254 . S
O966 Tb937 2.378 . S
O966 C955 1.236 . S
O967 Tb936 2.341 . S
O967 C955 1.266 . S
H968 C940 0.929 . S
H969 C941 0.931 . S
H970 C943 0.930 . S
H971 C944 0.930 1_556 S
H972 C949 0.929 . S
H973 C950 0.931 . S
H974 C952 0.930 . S
H975 C953 0.930 . S
H976 C988 0.930 . S
H977 C990 0.930 1_655 S
H978 C991 0.930 1_655 S
H979 C995 0.959 . S
H980 C995 0.959 . S
H981 C995 0.961 . S
H982 C996 0.960 . S
H983 C996 0.961 . S
H984 C996 0.959 . S
H985 C999 0.929 . S
H986 C1000 0.931 . S
H987 C1002 0.930 . S
C988 H976 0.930 . S
C988 C989 1.399 1_554 S
C988 C993 1.399 . S
C989 C988 1.399 1_556 S
C989 C990 1.376 . S
C990 H977 0.930 1_455 S
C990 C989 1.376 . S
C990 C991 1.388 . S
C991 H978 0.930 1_455 S
C991 C990 1.388 . S
C991 C992 1.390 . S
C992 C991 1.390 . S
C992 C993 1.394 1_556 S
C992 C998 1.465 1_556 S
C993 C988 1.399 . S
C993 C992 1.394 1_554 S
C993 C994 1.516 . S
C994 C993 1.516 . S
C994 C995 1.502 . S
C994 C996 1.561 . S
C994 C997 1.526 . S
C995 H979 0.959 . S
C995 H980 0.959 . S
C995 H981 0.961 . S
C995 C994 1.502 . S
C996 H982 0.960 . S
C996 H983 0.961 . S
C996 H984 0.959 . S
C996 C994 1.561 . S
C997 C994 1.526 . S
C997 C998 1.396 . S
C997 C1002 1.390 . S
C998 C992 1.465 1_554 S
C998 C997 1.396 . S
C998 C999 1.399 1_554 S
C999 H985 0.929 . S
C999 C998 1.399 1_556 S
C999 C1000 1.385 1_556 S
C1000 H986 0.931 . S
C1000 C999 1.385 1_554 S
C1000 C1001 1.389 . S
C1001 C1000 1.389 . S
C1001 C1002 1.387 . S
C1002 H987 0.930 . S
C1002 C997 1.390 . S
C1002 C1001 1.387 . S
H1003 C1015 0.930 . S
H1004 C1017 0.930 . S
H1005 C1018 0.930 . S
H1006 C1022 0.959 . S
H1007 C1022 0.959 . S
H1008 C1022 0.961 . S
H1009 C1023 0.960 . S
H1010 C1023 0.961 . S
H1011 C1023 0.959 . S
H1012 C1026 0.929 . S
H1013 C1027 0.931 . S
H1014 C1029 0.930 . S
C1015 H1003 0.930 . S
C1015 C1016 1.399 . S
C1015 C1020 1.399 . S
C1016 C1015 1.399 . S
C1016 C1017 1.376 . S
C1017 H1004 0.930 . S
C1017 C1016 1.376 . S
C1017 C1018 1.388 . S
C1018 H1005 0.930 . S
C1018 C1017 1.388 . S
C1018 C1019 1.390 . S
C1019 C1018 1.390 . S
C1019 C1020 1.394 . S
C1019 C1025 1.465 . S
C1020 C1015 1.399 . S
C1020 C1019 1.394 . S
C1020 C1021 1.516 . S
C1021 C1020 1.516 . S
C1021 C1022 1.502 . S
C1021 C1023 1.561 . S
C1021 C1024 1.526 . S
C1022 H1006 0.959 . S
C1022 H1007 0.959 . S
C1022 H1008 0.961 . S
C1022 C1021 1.502 . S
C1023 H1009 0.960 . S
C1023 H1010 0.961 . S
C1023 H1011 0.959 . S
C1023 C1021 1.561 . S
C1024 C1021 1.526 . S
C1024 C1025 1.396 . S
C1024 C1029 1.390 . S
C1025 C1019 1.465 . S
C1025 C1024 1.396 . S
C1025 C1026 1.399 . S
C1026 H1012 0.929 . S
C1026 C1025 1.399 . S
C1026 C1027 1.385 . S
C1027 H1013 0.931 . S
C1027 C1026 1.385 . S
C1027 C1028 1.389 . S
C1028 C1027 1.389 . S
C1028 C1029 1.387 . S
C1029 H1014 0.930 . S
C1029 C1024 1.390 . S
C1029 C1028 1.387 . S
H1030 C1042 0.930 . S
H1031 C1044 0.930 . S
H1032 C1045 0.930 . S
H1033 C1049 0.959 . S
H1034 C1049 0.959 . S
H1035 C1049 0.961 . S
H1036 C1050 0.960 . S
H1037 C1050 0.961 . S
H1038 C1050 0.959 . S
H1039 C1053 0.929 . S
H1040 C1054 0.931 . S
H1041 C1056 0.930 . S
C1042 H1030 0.930 . S
C1042 C1043 1.399 . S
C1042 C1047 1.399 . S
C1043 C1042 1.399 . S
C1043 C1044 1.376 . S
C1044 H1031 0.930 . S
C1044 C1043 1.376 . S
C1044 C1045 1.388 . S
C1045 H1032 0.930 . S
C1045 C1044 1.388 . S
C1045 C1046 1.390 . S
C1046 C1045 1.390 . S
C1046 C1047 1.394 . S
C1046 C1052 1.465 . S
C1047 C1042 1.399 . S
C1047 C1046 1.394 . S
C1047 C1048 1.516 . S
C1048 C1047 1.516 . S
C1048 C1049 1.502 . S
C1048 C1050 1.561 . S
C1048 C1051 1.526 . S
C1049 H1033 0.959 . S
C1049 H1034 0.959 . S
C1049 H1035 0.961 . S
C1049 C1048 1.502 . S
C1050 H1036 0.960 . S
C1050 H1037 0.961 . S
C1050 H1038 0.959 . S
C1050 C1048 1.561 . S
C1051 C1048 1.526 . S
C1051 C1052 1.396 . S
C1051 C1056 1.390 . S
C1052 C1046 1.465 . S
C1052 C1051 1.396 . S
C1052 C1053 1.399 . S
C1053 H1039 0.929 . S
C1053 C1052 1.399 . S
C1053 C1054 1.385 . S
C1054 H1040 0.931 . S
C1054 C1053 1.385 . S
C1054 C1055 1.389 . S
C1055 C1054 1.389 . S
C1055 C1056 1.387 . S
C1056 H1041 0.930 . S
C1056 C1051 1.390 . S
C1056 C1055 1.387 . S
H1057 C1069 0.930 . S
H1058 C1071 0.930 . S
H1059 C1072 0.930 . S
H1060 C1076 0.959 . S
H1061 C1076 0.959 . S
H1062 C1076 0.961 . S
H1063 C1077 0.960 . S
H1064 C1077 0.961 . S
H1065 C1077 0.959 . S
H1066 C1080 0.929 . S
H1067 C1081 0.931 . S
H1068 C1083 0.930 . S
C1069 H1057 0.930 . S
C1069 C1070 1.399 . S
C1069 C1074 1.399 . S
C1070 C1069 1.399 . S
C1070 C1071 1.376 . S
C1071 H1058 0.930 . S
C1071 C1070 1.376 . S
C1071 C1072 1.388 . S
C1072 H1059 0.930 . S
C1072 C1071 1.388 . S
C1072 C1073 1.390 . S
C1073 C1072 1.390 . S
C1073 C1074 1.394 . S
C1073 C1079 1.465 . S
C1074 C1069 1.399 . S
C1074 C1073 1.394 . S
C1074 C1075 1.516 . S
C1075 C1074 1.516 . S
C1075 C1076 1.502 . S
C1075 C1077 1.561 . S
C1075 C1078 1.526 . S
C1076 H1060 0.959 . S
C1076 H1061 0.959 . S
C1076 H1062 0.961 . S
C1076 C1075 1.502 . S
C1077 H1063 0.960 . S
C1077 H1064 0.961 . S
C1077 H1065 0.959 . S
C1077 C1075 1.561 . S
C1078 C1075 1.526 . S
C1078 C1079 1.396 . S
C1078 C1083 1.390 . S
C1079 C1073 1.465 . S
C1079 C1078 1.396 . S
C1079 C1080 1.399 . S
C1080 H1066 0.929 . S
C1080 C1079 1.399 . S
C1080 C1081 1.385 . S
C1081 H1067 0.931 . S
C1081 C1080 1.385 . S
C1081 C1082 1.389 . S
C1082 C1081 1.389 . S
C1082 C1083 1.387 . S
C1083 H1068 0.930 . S
C1083 C1078 1.390 . S
C1083 C1082 1.387 . S
H1084 C1096 0.930 . S
H1085 C1098 0.930 . S
H1086 C1099 0.930 . S
H1087 C1103 0.959 . S
H1088 C1103 0.959 . S
H1089 C1103 0.961 . S
H1090 C1104 0.960 . S
H1091 C1104 0.961 . S
H1092 C1104 0.959 . S
H1093 C1107 0.929 . S
H1094 C1108 0.931 . S
H1095 C1110 0.930 . S
C1096 H1084 0.930 . S
C1096 C1097 1.399 . S
C1096 C1101 1.399 . S
C1097 C1096 1.399 . S
C1097 C1098 1.376 . S
C1098 H1085 0.930 . S
C1098 C1097 1.376 . S
C1098 C1099 1.388 . S
C1099 H1086 0.930 . S
C1099 C1098 1.388 . S
C1099 C1100 1.390 . S
C1100 C1099 1.390 . S
C1100 C1101 1.394 . S
C1100 C1106 1.465 . S
C1101 C1096 1.399 . S
C1101 C1100 1.394 . S
C1101 C1102 1.516 . S
C1102 C1101 1.516 . S
C1102 C1103 1.502 . S
C1102 C1104 1.561 . S
C1102 C1105 1.526 . S
C1103 H1087 0.959 . S
C1103 H1088 0.959 . S
C1103 H1089 0.961 . S
C1103 C1102 1.502 . S
C1104 H1090 0.960 . S
C1104 H1091 0.961 . S
C1104 H1092 0.959 . S
C1104 C1102 1.561 . S
C1105 C1102 1.526 . S
C1105 C1106 1.396 . S
C1105 C1110 1.390 . S
C1106 C1100 1.465 . S
C1106 C1105 1.396 . S
C1106 C1107 1.399 . S
C1107 H1093 0.929 . S
C1107 C1106 1.399 . S
C1107 C1108 1.385 . S
C1108 H1094 0.931 . S
C1108 C1107 1.385 . S
C1108 C1109 1.389 . S
C1109 C1108 1.389 . S
C1109 C1110 1.387 . S
C1110 H1095 0.930 . S
C1110 C1105 1.390 . S
C1110 C1109 1.387 . S
H1111 C1123 0.930 . S
H1112 C1125 0.930 . S
H1113 C1126 0.930 . S
H1114 C1130 0.959 . S
H1115 C1130 0.959 . S
H1116 C1130 0.961 . S
H1117 C1131 0.960 . S
H1118 C1131 0.961 . S
H1119 C1131 0.959 . S
H1120 C1134 0.929 . S
H1121 C1135 0.931 . S
H1122 C1137 0.930 . S
C1123 H1111 0.930 . S
C1123 C1124 1.399 . S
C1123 C1128 1.399 . S
C1124 C1123 1.399 . S
C1124 C1125 1.376 . S
C1125 H1112 0.930 . S
C1125 C1124 1.376 . S
C1125 C1126 1.388 . S
C1126 H1113 0.930 . S
C1126 C1125 1.388 . S
C1126 C1127 1.390 . S
C1127 C1126 1.390 . S
C1127 C1128 1.394 . S
C1127 C1133 1.465 . S
C1128 C1123 1.399 . S
C1128 C1127 1.394 . S
C1128 C1129 1.516 . S
C1129 C1128 1.516 . S
C1129 C1130 1.502 . S
C1129 C1131 1.561 . S
C1129 C1132 1.526 . S
C1130 H1114 0.959 . S
C1130 H1115 0.959 . S
C1130 H1116 0.961 . S
C1130 C1129 1.502 . S
C1131 H1117 0.960 . S
C1131 H1118 0.961 . S
C1131 H1119 0.959 . S
C1131 C1129 1.561 . S
C1132 C1129 1.526 . S
C1132 C1133 1.396 . S
C1132 C1137 1.390 . S
C1133 C1127 1.465 . S
C1133 C1132 1.396 . S
C1133 C1134 1.399 . S
C1134 H1120 0.929 . S
C1134 C1133 1.399 . S
C1134 C1135 1.385 . S
C1135 H1121 0.931 . S
C1135 C1134 1.385 . S
C1135 C1136 1.389 . S
C1136 C1135 1.389 . S
C1136 C1137 1.387 . S
C1137 H1122 0.930 . S
C1137 C1132 1.390 . S
C1137 C1136 1.387 . S
H1138 C1150 0.930 . S
H1139 C1152 0.930 . S
H1140 C1153 0.930 . S
H1141 C1157 0.959 . S
H1142 C1157 0.959 . S
H1143 C1157 0.961 . S
H1144 C1158 0.960 . S
H1145 C1158 0.961 . S
H1146 C1158 0.959 . S
H1147 C1161 0.929 . S
H1148 C1162 0.931 . S
H1149 C1164 0.930 . S
C1150 H1138 0.930 . S
C1150 C1151 1.399 . S
C1150 C1155 1.399 . S
C1151 C1150 1.399 . S
C1151 C1152 1.376 . S
C1152 H1139 0.930 . S
C1152 C1151 1.376 . S
C1152 C1153 1.388 . S
C1153 H1140 0.930 . S
C1153 C1152 1.388 . S
C1153 C1154 1.390 . S
C1154 C1153 1.390 . S
C1154 C1155 1.394 . S
C1154 C1160 1.465 . S
C1155 C1150 1.399 . S
C1155 C1154 1.394 . S
C1155 C1156 1.516 . S
C1156 C1155 1.516 . S
C1156 C1157 1.502 . S
C1156 C1158 1.561 . S
C1156 C1159 1.526 . S
C1157 H1141 0.959 . S
C1157 H1142 0.959 . S
C1157 H1143 0.961 . S
C1157 C1156 1.502 . S
C1158 H1144 0.960 . S
C1158 H1145 0.961 . S
C1158 H1146 0.959 . S
C1158 C1156 1.561 . S
C1159 C1156 1.526 . S
C1159 C1160 1.396 . S
C1159 C1164 1.390 . S
C1160 C1154 1.465 . S
C1160 C1159 1.396 . S
C1160 C1161 1.399 . S
C1161 H1147 0.929 . S
C1161 C1160 1.399 . S
C1161 C1162 1.385 . S
C1162 H1148 0.931 . S
C1162 C1161 1.385 . S
C1162 C1163 1.389 . S
C1163 C1162 1.389 . S
C1163 C1164 1.387 . S
C1164 H1149 0.930 . S
C1164 C1159 1.390 . S
C1164 C1163 1.387 . S
H1165 C1177 0.930 . S
H1166 C1179 0.930 . S
H1167 C1180 0.930 . S
H1168 C1184 0.959 . S
H1169 C1184 0.959 . S
H1170 C1184 0.961 . S
H1171 C1185 0.960 . S
H1172 C1185 0.961 . S
H1173 C1185 0.959 . S
H1174 C1188 0.929 . S
H1175 C1189 0.931 . S
H1176 C1191 0.930 . S
C1177 H1165 0.930 . S
C1177 C1178 1.399 . S
C1177 C1182 1.399 . S
C1178 C1177 1.399 . S
C1178 C1179 1.376 . S
C1179 H1166 0.930 . S
C1179 C1178 1.376 . S
C1179 C1180 1.388 . S
C1180 H1167 0.930 . S
C1180 C1179 1.388 . S
C1180 C1181 1.390 . S
C1181 C1180 1.390 . S
C1181 C1182 1.394 . S
C1181 C1187 1.465 . S
C1182 C1177 1.399 . S
C1182 C1181 1.394 . S
C1182 C1183 1.516 . S
C1183 C1182 1.516 . S
C1183 C1184 1.502 . S
C1183 C1185 1.561 . S
C1183 C1186 1.526 . S
C1184 H1168 0.959 . S
C1184 H1169 0.959 . S
C1184 H1170 0.961 . S
C1184 C1183 1.502 . S
C1185 H1171 0.960 . S
C1185 H1172 0.961 . S
C1185 H1173 0.959 . S
C1185 C1183 1.561 . S
C1186 C1183 1.526 . S
C1186 C1187 1.396 . S
C1186 C1191 1.390 . S
C1187 C1181 1.465 . S
C1187 C1186 1.396 . S
C1187 C1188 1.399 . S
C1188 H1174 0.929 . S
C1188 C1187 1.399 . S
C1188 C1189 1.385 . S
C1189 H1175 0.931 . S
C1189 C1188 1.385 . S
C1189 C1190 1.389 . S
C1190 C1189 1.389 . S
C1190 C1191 1.387 . S
C1191 H1176 0.930 . S
C1191 C1186 1.390 . S
C1191 C1190 1.387 . S
H1192 C1204 0.930 . S
H1193 C1206 0.930 . S
H1194 C1207 0.930 . S
H1195 C1211 0.959 . S
H1196 C1211 0.959 . S
H1197 C1211 0.961 . S
H1198 C1212 0.960 . S
H1199 C1212 0.955 1_455 S
H1200 C1212 0.959 1_455 S
H1201 C1215 0.929 . S
H1202 C1216 0.931 1_565 S
H1203 C1218 0.930 . S
C1204 H1192 0.930 . S
C1204 C1205 1.399 . S
C1204 C1209 1.399 . S
C1205 C1204 1.399 . S
C1205 C1206 1.376 1_545 S
C1206 H1193 0.930 . S
C1206 C1205 1.376 1_565 S
C1206 C1207 1.388 . S
C1207 H1194 0.930 . S
C1207 C1206 1.388 . S
C1207 C1208 1.390 1_565 S
C1208 C1207 1.390 1_545 S
C1208 C1209 1.394 . S
C1208 C1214 1.468 1_655 S
C1209 C1204 1.399 . S
C1209 C1208 1.394 . S
C1209 C1210 1.516 . S
C1210 C1209 1.516 . S
C1210 C1211 1.502 . S
C1210 C1212 1.561 . S
C1210 C1213 1.526 . S
C1211 H1195 0.959 . S
C1211 H1196 0.959 . S
C1211 H1197 0.961 . S
C1211 C1210 1.502 . S
C1212 H1198 0.960 . S
C1212 H1199 0.955 1_655 S
C1212 H1200 0.959 1_655 S
C1212 C1210 1.561 . S
C1213 C1210 1.526 . S
C1213 C1214 1.398 1_655 S
C1213 C1218 1.390 1_655 S
C1214 C1208 1.468 1_455 S
C1214 C1213 1.398 1_455 S
C1214 C1215 1.395 1_545 S
C1215 H1201 0.929 . S
C1215 C1214 1.395 1_565 S
C1215 C1216 1.385 1_565 S
C1216 H1202 0.931 1_545 S
C1216 C1215 1.385 1_545 S
C1216 C1217 1.389 . S
C1217 C1216 1.389 . S
C1217 C1218 1.387 . S
C1218 H1203 0.930 . S
C1218 C1213 1.390 1_455 S
C1218 C1217 1.387 . S
H1219 C1231 0.930 . S
H1220 C1233 0.930 . S
H1221 C1234 0.930 . S
H1222 C1238 0.959 . S
H1223 C1238 0.959 . S
H1224 C1238 0.961 . S
H1225 C1239 0.960 . S
H1226 C1239 0.961 . S
H1227 C1239 0.959 . S
H1228 C1242 0.929 . S
H1229 C1243 0.931 . S
H1230 C1245 0.930 . S
C1231 H1219 0.930 . S
C1231 C1232 1.399 . S
C1231 C1236 1.399 . S
C1232 C1231 1.399 . S
C1232 C1233 1.376 . S
C1233 H1220 0.930 . S
C1233 C1232 1.376 . S
C1233 C1234 1.388 . S
C1234 H1221 0.930 . S
C1234 C1233 1.388 . S
C1234 C1235 1.390 . S
C1235 C1234 1.390 . S
C1235 C1236 1.394 . S
C1235 C1241 1.465 . S
C1236 C1231 1.399 . S
C1236 C1235 1.394 . S
C1236 C1237 1.516 . S
C1237 C1236 1.516 . S
C1237 C1238 1.502 . S
C1237 C1239 1.561 . S
C1237 C1240 1.526 . S
C1238 H1222 0.959 . S
C1238 H1223 0.959 . S
C1238 H1224 0.961 . S
C1238 C1237 1.502 . S
C1239 H1225 0.960 . S
C1239 H1226 0.961 . S
C1239 H1227 0.959 . S
C1239 C1237 1.561 . S
C1240 C1237 1.526 . S
C1240 C1241 1.396 . S
C1240 C1245 1.390 . S
C1241 C1235 1.465 . S
C1241 C1240 1.396 . S
C1241 C1242 1.399 . S
C1242 H1228 0.929 . S
C1242 C1241 1.399 . S
C1242 C1243 1.385 . S
C1243 H1229 0.931 . S
C1243 C1242 1.385 . S
C1243 C1244 1.389 . S
C1244 C1243 1.389 . S
C1244 C1245 1.387 . S
C1245 H1230 0.930 . S
C1245 C1240 1.390 . S
C1245 C1244 1.387 . S
H1246 C1258 0.930 . S
H1247 C1260 0.930 . S
H1248 C1261 0.930 . S
H1249 C1265 0.959 . S
H1250 C1265 0.959 . S
H1251 C1265 0.961 . S
H1252 C1266 0.960 . S
H1253 C1266 0.961 . S
H1254 C1266 0.959 . S
H1255 C1269 0.929 . S
H1256 C1270 0.931 . S
H1257 C1272 0.894 1_565 S
C1258 H1246 0.930 . S
C1258 C1259 1.399 1_565 S
C1258 C1263 1.399 1_565 S
C1259 C1258 1.399 1_545 S
C1259 C1260 1.376 . S
C1260 H1247 0.930 . S
C1260 C1259 1.376 . S
C1260 C1261 1.388 . S
C1261 H1248 0.930 . S
C1261 C1260 1.388 . S
C1261 C1262 1.390 . S
C1262 C1261 1.390 . S
C1262 C1263 1.394 . S
C1262 C1268 1.465 . S
C1263 C1258 1.399 1_545 S
C1263 C1262 1.394 . S
C1263 C1264 1.516 1_545 S
C1264 C1263 1.516 1_565 S
C1264 C1265 1.502 . S
C1264 C1266 1.561 . S
C1264 C1267 1.526 1_565 S
C1265 H1249 0.959 . S
C1265 H1250 0.959 . S
C1265 H1251 0.961 . S
C1265 C1264 1.502 . S
C1266 H1252 0.960 . S
C1266 H1253 0.961 . S
C1266 H1254 0.959 . S
C1266 C1264 1.561 . S
C1267 C1264 1.526 1_545 S
C1267 C1268 1.396 . S
C1267 C1272 1.384 . S
C1268 C1262 1.465 . S
C1268 C1267 1.396 . S
C1268 C1269 1.399 . S
C1269 H1255 0.929 . S
C1269 C1268 1.399 . S
C1269 C1270 1.385 . S
C1270 H1256 0.931 . S
C1270 C1269 1.385 . S
C1270 C1271 1.389 . S
C1271 C1270 1.389 . S
C1271 C1272 1.429 . S
C1272 H1257 0.894 1_545 S
C1272 C1267 1.384 . S
C1272 C1271 1.429 . S
H1273 C1285 0.930 . S
H1274 C1287 0.930 1_554 S
H1275 C1288 0.930 . S
H1276 C1292 0.959 . S
H1277 C1292 0.959 . S
H1278 C1292 0.961 . S
H1279 C1293 0.960 . S
H1280 C1293 0.961 . S
H1281 C1293 0.959 . S
H1282 C1296 0.929 . S
H1283 C1297 0.931 . S
H1284 C1299 0.930 . S
C1285 H1273 0.930 . S
C1285 C1286 1.399 . S
C1285 C1290 1.399 . S
C1286 C1285 1.399 . S
C1286 C1287 1.376 . S
C1287 H1274 0.930 1_556 S
C1287 C1286 1.376 . S
C1287 C1288 1.388 . S
C1288 H1275 0.930 . S
C1288 C1287 1.388 . S
C1288 C1289 1.390 . S
C1289 C1288 1.390 . S
C1289 C1290 1.394 . S
C1289 C1295 1.465 . S
C1290 C1285 1.399 . S
C1290 C1289 1.394 . S
C1290 C1291 1.516 . S
C1291 C1290 1.516 . S
C1291 C1292 1.502 . S
C1291 C1293 1.561 . S
C1291 C1294 1.526 . S
C1292 H1276 0.959 . S
C1292 H1277 0.959 . S
C1292 H1278 0.961 . S
C1292 C1291 1.502 . S
C1293 H1279 0.960 . S
C1293 H1280 0.961 . S
C1293 H1281 0.959 . S
C1293 C1291 1.561 . S
C1294 C1291 1.526 . S
C1294 C1295 1.396 . S
C1294 C1299 1.390 . S
C1295 C1289 1.465 . S
C1295 C1294 1.396 . S
C1295 C1296 1.399 . S
C1296 H1282 0.929 . S
C1296 C1295 1.399 . S
C1296 C1297 1.385 . S
C1297 H1283 0.931 . S
C1297 C1296 1.385 . S
C1297 C1298 1.389 . S
C1298 C1297 1.389 . S
C1298 C1299 1.387 . S
C1299 H1284 0.930 . S
C1299 C1294 1.390 . S
C1299 C1298 1.387 . S
H1300 C1312 0.930 . S
H1301 C1314 0.930 . S
H1302 C1315 0.930 . S
H1303 C1319 0.959 . S
H1304 C1319 0.959 . S
H1305 C1319 0.961 . S
H1306 C1320 0.960 . S
H1307 C1320 0.961 . S
H1308 C1320 0.959 . S
H1309 C1323 0.929 . S
H1310 C1324 0.931 . S
H1311 C1326 0.930 . S
C1312 H1300 0.930 . S
C1312 C1313 1.399 . S
C1312 C1317 1.399 . S
C1313 C1312 1.399 . S
C1313 C1314 1.376 1_545 S
C1314 H1301 0.930 . S
C1314 C1313 1.376 1_565 S
C1314 C1315 1.388 . S
C1315 H1302 0.930 . S
C1315 C1314 1.388 . S
C1315 C1316 1.394 . S
C1316 C1315 1.394 . S
C1316 C1317 1.387 1_565 S
C1316 C1322 1.466 1_565 S
C1317 C1312 1.399 . S
C1317 C1316 1.387 1_545 S
C1317 C1318 1.516 . S
C1318 C1317 1.516 . S
C1318 C1319 1.502 1_655 S
C1318 C1320 1.561 . S
C1318 C1321 1.526 . S
C1319 H1303 0.959 . S
C1319 H1304 0.959 . S
C1319 H1305 0.961 . S
C1319 C1318 1.502 1_455 S
C1320 H1306 0.960 . S
C1320 H1307 0.961 . S
C1320 H1308 0.959 . S
C1320 C1318 1.561 . S
C1321 C1318 1.526 . S
C1321 C1322 1.396 . S
C1321 C1326 1.390 1_655 S
C1322 C1316 1.466 1_545 S
C1322 C1321 1.396 . S
C1322 C1323 1.399 1_545 S
C1323 H1309 0.929 . S
C1323 C1322 1.399 1_565 S
C1323 C1324 1.385 1_655 S
C1324 H1310 0.931 . S
C1324 C1323 1.385 1_455 S
C1324 C1325 1.389 1_565 S
C1325 C1324 1.389 1_545 S
C1325 C1326 1.387 . S
C1326 H1311 0.930 . S
C1326 C1321 1.390 1_455 S
C1326 C1325 1.387 . S
H1327 C1339 0.930 . S
H1328 C1341 0.930 . S
H1329 C1342 0.930 . S
H1330 C1346 0.959 . S
H1331 C1346 0.959 . S
H1332 C1346 0.961 . S
H1333 C1347 0.960 . S
H1334 C1347 0.961 . S
H1335 C1347 0.959 . S
H1336 C1350 0.929 . S
H1337 C1351 0.931 . S
H1338 C1353 0.930 . S
C1339 H1327 0.930 . S
C1339 C1340 1.399 . S
C1339 C1344 1.399 . S
C1340 C1339 1.399 . S
C1340 C1341 1.376 . S
C1341 H1328 0.930 . S
C1341 C1340 1.376 . S
C1341 C1342 1.388 . S
C1342 H1329 0.930 . S
C1342 C1341 1.388 . S
C1342 C1343 1.390 . S
C1343 C1342 1.390 . S
C1343 C1344 1.394 . S
C1343 C1349 1.465 . S
C1344 C1339 1.399 . S
C1344 C1343 1.394 . S
C1344 C1345 1.516 . S
C1345 C1344 1.516 . S
C1345 C1346 1.502 . S
C1345 C1347 1.561 . S
C1345 C1348 1.526 . S
C1346 H1330 0.959 . S
C1346 H1331 0.959 . S
C1346 H1332 0.961 . S
C1346 C1345 1.502 . S
C1347 H1333 0.960 . S
C1347 H1334 0.961 . S
C1347 H1335 0.959 . S
C1347 C1345 1.561 . S
C1348 C1345 1.526 . S
C1348 C1349 1.396 . S
C1348 C1353 1.390 . S
C1349 C1343 1.465 . S
C1349 C1348 1.396 . S
C1349 C1350 1.399 . S
C1350 H1336 0.929 . S
C1350 C1349 1.399 . S
C1350 C1351 1.385 . S
C1351 H1337 0.931 . S
C1351 C1350 1.385 . S
C1351 C1352 1.389 . S
C1352 C1351 1.389 . S
C1352 C1353 1.387 . S
C1353 H1338 0.930 . S
C1353 C1348 1.390 . S
C1353 C1352 1.387 . S
H1354 C1366 0.930 . S
H1355 C1368 0.930 . S
H1356 C1369 0.930 . S
H1357 C1373 0.959 . S
H1358 C1373 0.959 . S
H1359 C1373 0.961 . S
H1360 C1374 0.960 . S
H1361 C1374 0.961 . S
H1362 C1374 0.959 . S
H1363 C1377 0.929 1_565 S
H1364 C1378 0.921 1_565 S
H1365 C1380 0.930 . S
C1366 H1354 0.930 . S
C1366 C1367 1.399 . S
C1366 C1371 1.399 . S
C1367 C1366 1.399 . S
C1367 C1368 1.376 1_545 S
C1368 H1355 0.930 . S
C1368 C1367 1.376 1_565 S
C1368 C1369 1.388 . S
C1369 H1356 0.930 . S
C1369 C1368 1.388 . S
C1369 C1370 1.390 1_565 S
C1370 C1369 1.390 1_545 S
C1370 C1371 1.394 . S
C1370 C1376 1.465 . S
C1371 C1366 1.399 . S
C1371 C1370 1.394 . S
C1371 C1372 1.516 . S
C1372 C1371 1.516 . S
C1372 C1373 1.502 . S
C1372 C1374 1.561 . S
C1372 C1375 1.526 . S
C1373 H1357 0.959 . S
C1373 H1358 0.959 . S
C1373 H1359 0.961 . S
C1373 C1372 1.502 . S
C1374 H1360 0.960 . S
C1374 H1361 0.961 . S
C1374 H1362 0.959 . S
C1374 C1372 1.561 . S
C1375 C1372 1.526 . S
C1375 C1376 1.396 . S
C1375 C1380 1.390 . S
C1376 C1370 1.465 . S
C1376 C1375 1.396 . S
C1376 C1377 1.399 . S
C1377 H1363 0.929 1_545 S
C1377 C1376 1.399 . S
C1377 C1378 1.385 . S
C1378 H1364 0.921 1_545 S
C1378 C1377 1.385 . S
C1378 C1379 1.389 . S
C1379 C1378 1.389 . S
C1379 C1380 1.387 . S
C1380 H1365 0.930 . S
C1380 C1375 1.390 . S
C1380 C1379 1.387 . S
H1381 C1393 0.930 . S
H1382 C1395 0.930 . S
H1383 C1396 0.930 . S
H1384 C1400 0.959 . S
H1385 C1400 0.959 . S
H1386 C1400 0.961 . S
H1387 C1401 0.960 . S
H1388 C1401 0.961 . S
H1389 C1401 0.959 . S
H1390 C1404 0.929 . S
H1391 C1405 0.931 . S
H1392 C1407 0.930 . S
C1393 H1381 0.930 . S
C1393 C1394 1.399 . S
C1393 C1398 1.399 . S
C1394 C1393 1.399 . S
C1394 C1395 1.376 . S
C1395 H1382 0.930 . S
C1395 C1394 1.376 . S
C1395 C1396 1.388 . S
C1396 H1383 0.930 . S
C1396 C1395 1.388 . S
C1396 C1397 1.390 . S
C1397 C1396 1.390 . S
C1397 C1398 1.394 . S
C1397 C1403 1.465 . S
C1398 C1393 1.399 . S
C1398 C1397 1.394 . S
C1398 C1399 1.516 . S
C1399 C1398 1.516 . S
C1399 C1400 1.502 . S
C1399 C1401 1.561 . S
C1399 C1402 1.526 . S
C1400 H1384 0.959 . S
C1400 H1385 0.959 . S
C1400 H1386 0.961 . S
C1400 C1399 1.502 . S
C1401 H1387 0.960 . S
C1401 H1388 0.961 . S
C1401 H1389 0.959 . S
C1401 C1399 1.561 . S
C1402 C1399 1.526 . S
C1402 C1403 1.396 . S
C1402 C1407 1.390 . S
C1403 C1397 1.465 . S
C1403 C1402 1.396 . S
C1403 C1404 1.399 . S
C1404 H1390 0.929 . S
C1404 C1403 1.399 . S
C1404 C1405 1.385 . S
C1405 H1391 0.931 . S
C1405 C1404 1.385 . S
C1405 C1406 1.389 . S
C1406 C1405 1.389 . S
C1406 C1407 1.387 . S
C1407 H1392 0.930 . S
C1407 C1402 1.390 . S
C1407 C1406 1.387 . S
H1408 C1420 0.930 1_556 S
H1409 C1422 0.930 . S
H1410 C1423 0.930 . S
H1411 C1427 0.959 . S
H1412 C1427 0.959 . S
H1413 C1427 0.961 1_556 S
H1414 C1428 0.960 . S
H1415 C1428 0.961 . S
H1416 C1428 0.959 1_554 S
H1417 C1431 0.929 . S
H1418 C1432 0.931 . S
H1419 C1434 0.930 . S
C1420 H1408 0.930 1_554 S
C1420 C1421 1.399 . S
C1420 C1425 1.399 . S
C1421 C1420 1.399 . S
C1421 C1422 1.376 . S
C1422 H1409 0.930 . S
C1422 C1421 1.376 . S
C1422 C1423 1.388 . S
C1423 H1410 0.930 . S
C1423 C1422 1.388 . S
C1423 C1424 1.390 . S
C1424 C1423 1.390 . S
C1424 C1425 1.394 . S
C1424 C1430 1.465 . S
C1425 C1420 1.399 . S
C1425 C1424 1.394 . S
C1425 C1426 1.516 . S
C1426 C1425 1.516 . S
C1426 C1427 1.502 . S
C1426 C1428 1.561 1_554 S
C1426 C1429 1.526 . S
C1427 H1411 0.959 . S
C1427 H1412 0.959 . S
C1427 H1413 0.961 1_554 S
C1427 C1426 1.502 . S
C1428 H1414 0.960 . S
C1428 H1415 0.961 . S
C1428 H1416 0.959 1_556 S
C1428 C1426 1.561 1_556 S
C1429 C1426 1.526 . S
C1429 C1430 1.396 . S
C1429 C1434 1.390 . S
C1430 C1424 1.465 . S
C1430 C1429 1.396 . S
C1430 C1431 1.399 . S
C1431 H1417 0.929 . S
C1431 C1430 1.399 . S
C1431 C1432 1.385 . S
C1432 H1418 0.931 . S
C1432 C1431 1.385 . S
C1432 C1433 1.389 . S
C1433 C1432 1.389 . S
C1433 C1434 1.387 . S
C1434 H1419 0.930 . S
C1434 C1429 1.390 . S
C1434 C1433 1.387 . S
H1435 C1447 0.930 . S
H1436 C1449 0.930 . S
H1437 C1450 0.930 . S
H1438 C1454 0.959 . S
H1439 C1454 0.959 1_556 S
H1440 C1454 0.930 1_556 S
H1441 C1455 0.960 . S
H1442 C1455 0.961 . S
H1443 C1455 0.959 . S
H1444 C1458 0.929 . S
H1445 C1459 0.931 . S
H1446 C1461 0.930 . S
C1447 H1435 0.930 . S
C1447 C1448 1.399 . S
C1447 C1452 1.399 . S
C1448 C1447 1.399 . S
C1448 C1449 1.376 . S
C1449 H1436 0.930 . S
C1449 C1448 1.376 . S
C1449 C1450 1.388 . S
C1450 H1437 0.930 . S
C1450 C1449 1.388 . S
C1450 C1451 1.390 . S
C1451 C1450 1.390 . S
C1451 C1452 1.394 . S
C1451 C1457 1.465 . S
C1452 C1447 1.399 . S
C1452 C1451 1.394 . S
C1452 C1453 1.516 . S
C1453 C1452 1.516 . S
C1453 C1454 1.502 . S
C1453 C1455 1.561 1_554 S
C1453 C1456 1.526 . S
C1454 H1438 0.959 . S
C1454 H1439 0.959 1_554 S
C1454 H1440 0.930 1_554 S
C1454 C1453 1.502 . S
C1455 H1441 0.960 . S
C1455 H1442 0.961 . S
C1455 H1443 0.959 . S
C1455 C1453 1.561 1_556 S
C1456 C1453 1.526 . S
C1456 C1457 1.396 . S
C1456 C1461 1.390 . S
C1457 C1451 1.465 . S
C1457 C1456 1.396 . S
C1457 C1458 1.399 . S
C1458 H1444 0.929 . S
C1458 C1457 1.399 . S
C1458 C1459 1.385 . S
C1459 H1445 0.931 . S
C1459 C1458 1.385 . S
C1459 C1460 1.389 . S
C1460 C1459 1.389 . S
C1460 C1461 1.387 . S
C1461 H1446 0.930 . S
C1461 C1456 1.390 . S
C1461 C1460 1.387 . S
H1462 C1474 0.930 . S
H1463 C1476 0.930 . S
H1464 C1477 0.930 . S
H1465 C1481 0.959 . S
H1466 C1481 0.959 . S
H1467 C1481 0.961 . S
H1468 C1482 0.960 . S
H1469 C1482 0.961 . S
H1470 C1482 0.959 . S
H1471 C1485 0.929 . S
H1472 C1486 0.931 . S
H1473 C1488 0.930 . S
C1474 H1462 0.930 . S
C1474 C1475 1.399 . S
C1474 C1479 1.399 . S
C1475 C1474 1.399 . S
C1475 C1476 1.376 . S
C1476 H1463 0.930 . S
C1476 C1475 1.376 . S
C1476 C1477 1.388 . S
C1477 H1464 0.930 . S
C1477 C1476 1.388 . S
C1477 C1478 1.390 . S
C1478 C1477 1.390 . S
C1478 C1479 1.394 . S
C1478 C1484 1.465 . S
C1479 C1474 1.399 . S
C1479 C1478 1.394 . S
C1479 C1480 1.516 . S
C1480 C1479 1.516 . S
C1480 C1481 1.502 . S
C1480 C1482 1.561 . S
C1480 C1483 1.526 . S
C1481 H1465 0.959 . S
C1481 H1466 0.959 . S
C1481 H1467 0.961 . S
C1481 C1480 1.502 . S
C1482 H1468 0.960 . S
C1482 H1469 0.961 . S
C1482 H1470 0.959 . S
C1482 C1480 1.561 . S
C1483 C1480 1.526 . S
C1483 C1484 1.396 . S
C1483 C1488 1.390 . S
C1484 C1478 1.465 . S
C1484 C1483 1.396 . S
C1484 C1485 1.399 . S
C1485 H1471 0.929 . S
C1485 C1484 1.399 . S
C1485 C1486 1.385 . S
C1486 H1472 0.931 . S
C1486 C1485 1.385 . S
C1486 C1487 1.389 . S
C1487 C1486 1.389 . S
C1487 C1488 1.387 . S
C1488 H1473 0.930 . S
C1488 C1483 1.390 . S
C1488 C1487 1.387 . S
H1489 C1501 0.930 . S
H1490 C1503 0.930 . S
H1491 C1504 0.930 . S
H1492 C1508 0.959 . S
H1493 C1508 0.959 . S
H1494 C1508 0.961 . S
H1495 C1509 0.960 . S
H1496 C1509 0.961 . S
H1497 C1509 0.959 . S
H1498 C1512 0.929 . S
H1499 C1513 0.931 . S
H1500 C1515 0.930 . S
C1501 H1489 0.930 . S
C1501 C1502 1.399 . S
C1501 C1506 1.399 . S
C1502 C1501 1.399 . S
C1502 C1503 1.376 . S
C1503 H1490 0.930 . S
C1503 C1502 1.376 . S
C1503 C1504 1.388 . S
C1504 H1491 0.930 . S
C1504 C1503 1.388 . S
C1504 C1505 1.390 . S
C1505 C1504 1.390 . S
C1505 C1506 1.394 . S
C1505 C1511 1.465 . S
C1506 C1501 1.399 . S
C1506 C1505 1.394 . S
C1506 C1507 1.516 . S
C1507 C1506 1.516 . S
C1507 C1508 1.502 . S
C1507 C1509 1.561 . S
C1507 C1510 1.526 . S
C1508 H1492 0.959 . S
C1508 H1493 0.959 . S
C1508 H1494 0.961 . S
C1508 C1507 1.502 . S
C1509 H1495 0.960 . S
C1509 H1496 0.961 . S
C1509 H1497 0.959 . S
C1509 C1507 1.561 . S
C1510 C1507 1.526 . S
C1510 C1511 1.396 . S
C1510 C1515 1.390 . S
C1511 C1505 1.465 . S
C1511 C1510 1.396 . S
C1511 C1512 1.399 . S
C1512 H1498 0.929 . S
C1512 C1511 1.399 . S
C1512 C1513 1.385 . S
C1513 H1499 0.931 . S
C1513 C1512 1.385 . S
C1513 C1514 1.389 . S
C1514 C1513 1.389 . S
C1514 C1515 1.387 . S
C1515 H1500 0.930 . S
C1515 C1510 1.390 . S
C1515 C1514 1.387 . S
H1516 C1528 0.930 . S
H1517 C1530 0.930 . S
H1518 C1531 0.930 . S
H1519 C1535 0.959 . S
H1520 C1535 0.959 . S
H1521 C1535 0.961 . S
H1522 C1536 0.960 . S
H1523 C1536 0.961 . S
H1524 C1536 0.959 . S
H1525 C1539 0.929 . S
H1526 C1540 0.931 . S
H1527 C1542 0.930 . S
C1528 H1516 0.930 . S
C1528 C1529 1.399 . S
C1528 C1533 1.399 . S
C1529 C1528 1.399 . S
C1529 C1530 1.376 . S
C1530 H1517 0.930 . S
C1530 C1529 1.376 . S
C1530 C1531 1.388 . S
C1531 H1518 0.930 . S
C1531 C1530 1.388 . S
C1531 C1532 1.390 . S
C1532 C1531 1.390 . S
C1532 C1533 1.394 . S
C1532 C1538 1.465 . S
C1533 C1528 1.399 . S
C1533 C1532 1.394 . S
C1533 C1534 1.516 . S
C1534 C1533 1.516 . S
C1534 C1535 1.502 . S
C1534 C1536 1.561 . S
C1534 C1537 1.526 . S
C1535 H1519 0.959 . S
C1535 H1520 0.959 . S
C1535 H1521 0.961 . S
C1535 C1534 1.502 . S
C1536 H1522 0.960 . S
C1536 H1523 0.961 . S
C1536 H1524 0.959 . S
C1536 C1534 1.561 . S
C1537 C1534 1.526 . S
C1537 C1538 1.396 . S
C1537 C1542 1.390 . S
C1538 C1532 1.465 . S
C1538 C1537 1.396 . S
C1538 C1539 1.399 . S
C1539 H1525 0.929 . S
C1539 C1538 1.399 . S
C1539 C1540 1.385 . S
C1540 H1526 0.931 . S
C1540 C1539 1.385 . S
C1540 C1541 1.389 . S
C1541 C1540 1.389 . S
C1541 C1542 1.387 . S
C1542 H1527 0.930 . S
C1542 C1537 1.390 . S
C1542 C1541 1.387 . S
H1543 C1555 0.930 . S
H1544 C1557 0.930 . S
H1545 C1558 0.930 . S
H1546 C1562 0.959 . S
H1547 C1562 0.959 . S
H1548 C1562 0.961 . S
H1549 C1563 0.960 . S
H1550 C1563 0.961 . S
H1551 C1563 0.959 . S
H1552 C1566 0.929 . S
H1553 C1567 0.931 . S
H1554 C1569 0.930 . S
C1555 H1543 0.930 . S
C1555 C1556 1.399 . S
C1555 C1560 1.399 . S
C1556 C1555 1.399 . S
C1556 C1557 1.376 . S
C1557 H1544 0.930 . S
C1557 C1556 1.376 . S
C1557 C1558 1.388 . S
C1558 H1545 0.930 . S
C1558 C1557 1.388 . S
C1558 C1559 1.390 . S
C1559 C1558 1.390 . S
C1559 C1560 1.394 . S
C1559 C1565 1.465 . S
C1560 C1555 1.399 . S
C1560 C1559 1.394 . S
C1560 C1561 1.516 . S
C1561 C1560 1.516 . S
C1561 C1562 1.502 . S
C1561 C1563 1.561 . S
C1561 C1564 1.526 . S
C1562 H1546 0.959 . S
C1562 H1547 0.959 . S
C1562 H1548 0.961 . S
C1562 C1561 1.502 . S
C1563 H1549 0.960 . S
C1563 H1550 0.961 . S
C1563 H1551 0.959 . S
C1563 C1561 1.561 . S
C1564 C1561 1.526 . S
C1564 C1565 1.396 . S
C1564 C1569 1.390 . S
C1565 C1559 1.465 . S
C1565 C1564 1.396 . S
C1565 C1566 1.399 . S
C1566 H1552 0.929 . S
C1566 C1565 1.399 . S
C1566 C1567 1.385 . S
C1567 H1553 0.931 . S
C1567 C1566 1.385 . S
C1567 C1568 1.389 . S
C1568 C1567 1.389 . S
C1568 C1569 1.387 . S
C1569 H1554 0.930 . S
C1569 C1564 1.390 . S
C1569 C1568 1.387 . S
H1570 C1582 0.930 . S
H1571 C1584 0.930 . S
H1572 C1585 0.930 . S
H1573 C1589 0.959 . S
H1574 C1589 0.959 . S
H1575 C1589 0.961 . S
H1576 C1590 0.960 . S
H1577 C1590 0.961 . S
H1578 C1590 0.959 . S
H1579 C1593 0.929 . S
H1580 C1594 0.931 . S
H1581 C1596 0.930 . S
C1582 H1570 0.930 . S
C1582 C1583 1.399 . S
C1582 C1587 1.399 . S
C1583 C1582 1.399 . S
C1583 C1584 1.376 . S
C1584 H1571 0.930 . S
C1584 C1583 1.376 . S
C1584 C1585 1.388 . S
C1585 H1572 0.930 . S
C1585 C1584 1.388 . S
C1585 C1586 1.390 . S
C1586 C1585 1.390 . S
C1586 C1587 1.394 . S
C1586 C1592 1.465 . S
C1587 C1582 1.399 . S
C1587 C1586 1.394 . S
C1587 C1588 1.516 . S
C1588 C1587 1.516 . S
C1588 C1589 1.502 . S
C1588 C1590 1.561 . S
C1588 C1591 1.526 . S
C1589 H1573 0.959 . S
C1589 H1574 0.959 . S
C1589 H1575 0.961 . S
C1589 C1588 1.502 . S
C1590 H1576 0.960 . S
C1590 H1577 0.961 . S
C1590 H1578 0.959 . S
C1590 C1588 1.561 . S
C1591 C1588 1.526 . S
C1591 C1592 1.396 . S
C1591 C1596 1.390 . S
C1592 C1586 1.465 . S
C1592 C1591 1.396 . S
C1592 C1593 1.399 . S
C1593 H1579 0.929 . S
C1593 C1592 1.399 . S
C1593 C1594 1.385 . S
C1594 H1580 0.931 . S
C1594 C1593 1.385 . S
C1594 C1595 1.389 . S
C1595 C1594 1.389 . S
C1595 C1596 1.387 . S
C1596 H1581 0.930 . S
C1596 C1591 1.390 . S
C1596 C1595 1.387 . S
H1597 C1609 0.930 . S
H1598 C1611 0.930 . S
H1599 C1612 0.930 . S
H1600 C1616 0.959 . S
H1601 C1616 0.959 . S
H1602 C1616 0.961 . S
H1603 C1617 0.960 . S
H1604 C1617 0.961 . S
H1605 C1617 0.959 . S
H1606 C1620 0.929 . S
H1607 C1621 0.931 . S
H1608 C1623 0.930 . S
C1609 H1597 0.930 . S
C1609 C1610 1.399 . S
C1609 C1614 1.399 . S
C1610 C1609 1.399 . S
C1610 C1611 1.376 . S
C1611 H1598 0.930 . S
C1611 C1610 1.376 . S
C1611 C1612 1.388 . S
C1612 H1599 0.930 . S
C1612 C1611 1.388 . S
C1612 C1613 1.390 . S
C1613 C1612 1.390 . S
C1613 C1614 1.394 . S
C1613 C1619 1.465 . S
C1614 C1609 1.399 . S
C1614 C1613 1.394 . S
C1614 C1615 1.516 . S
C1615 C1614 1.516 . S
C1615 C1616 1.502 . S
C1615 C1617 1.561 . S
C1615 C1618 1.526 . S
C1616 H1600 0.959 . S
C1616 H1601 0.959 . S
C1616 H1602 0.961 . S
C1616 C1615 1.502 . S
C1617 H1603 0.960 . S
C1617 H1604 0.961 . S
C1617 H1605 0.959 . S
C1617 C1615 1.561 . S
C1618 C1615 1.526 . S
C1618 C1619 1.396 . S
C1618 C1623 1.390 . S
C1619 C1613 1.465 . S
C1619 C1618 1.396 . S
C1619 C1620 1.399 . S
C1620 H1606 0.929 . S
C1620 C1619 1.399 . S
C1620 C1621 1.385 . S
C1621 H1607 0.931 . S
C1621 C1620 1.385 . S
C1621 C1622 1.389 . S
C1622 C1621 1.389 . S
C1622 C1623 1.387 . S
C1623 H1608 0.930 . S
C1623 C1618 1.390 . S
C1623 C1622 1.387 . S
H1624 C1636 0.930 . S
H1625 C1638 0.930 . S
H1626 C1639 0.930 . S
H1627 C1643 0.959 . S
H1628 C1643 0.959 . S
H1629 C1643 0.961 . S
H1630 C1644 0.960 . S
H1631 C1644 0.961 . S
H1632 C1644 0.959 . S
H1633 C1647 0.929 . S
H1634 C1648 0.931 . S
H1635 C1650 0.930 . S
C1636 H1624 0.930 . S
C1636 C1637 1.399 . S
C1636 C1641 1.399 . S
C1637 C1636 1.399 . S
C1637 C1638 1.376 . S
C1638 H1625 0.930 . S
C1638 C1637 1.376 . S
C1638 C1639 1.388 . S
C1639 H1626 0.930 . S
C1639 C1638 1.388 . S
C1639 C1640 1.390 . S
C1640 C1639 1.390 . S
C1640 C1641 1.394 . S
C1640 C1646 1.465 . S
C1641 C1636 1.399 . S
C1641 C1640 1.394 . S
C1641 C1642 1.516 . S
C1642 C1641 1.516 . S
C1642 C1643 1.502 . S
C1642 C1644 1.561 . S
C1642 C1645 1.526 . S
C1643 H1627 0.959 . S
C1643 H1628 0.959 . S
C1643 H1629 0.961 . S
C1643 C1642 1.502 . S
C1644 H1630 0.960 . S
C1644 H1631 0.961 . S
C1644 H1632 0.959 . S
C1644 C1642 1.561 . S
C1645 C1642 1.526 . S
C1645 C1646 1.396 . S
C1645 C1650 1.390 . S
C1646 C1640 1.465 . S
C1646 C1645 1.396 . S
C1646 C1647 1.399 . S
C1647 H1633 0.929 . S
C1647 C1646 1.399 . S
C1647 C1648 1.385 . S
C1648 H1634 0.931 . S
C1648 C1647 1.385 . S
C1648 C1649 1.389 . S
C1649 C1648 1.389 . S
C1649 C1650 1.387 . S
C1650 H1635 0.930 . S
C1650 C1645 1.390 . S
C1650 C1649 1.387 . S
H1651 C1663 0.930 . S
H1652 C1665 0.930 . S
H1653 C1666 0.930 . S
H1654 C1670 0.959 . S
H1655 C1670 0.959 . S
H1656 C1670 0.961 . S
H1657 C1671 0.960 . S
H1658 C1671 0.961 . S
H1659 C1671 0.959 . S
H1660 C1674 0.929 . S
H1661 C1675 0.931 . S
H1662 C1677 0.930 . S
C1663 H1651 0.930 . S
C1663 C1664 1.399 . S
C1663 C1668 1.399 . S
C1664 C1663 1.399 . S
C1664 C1665 1.376 . S
C1665 H1652 0.930 . S
C1665 C1664 1.376 . S
C1665 C1666 1.388 . S
C1666 H1653 0.930 . S
C1666 C1665 1.388 . S
C1666 C1667 1.390 . S
C1667 C1666 1.390 . S
C1667 C1668 1.394 . S
C1667 C1673 1.465 . S
C1668 C1663 1.399 . S
C1668 C1667 1.394 . S
C1668 C1669 1.516 . S
C1669 C1668 1.516 . S
C1669 C1670 1.502 . S
C1669 C1671 1.561 . S
C1669 C1672 1.526 . S
C1670 H1654 0.959 . S
C1670 H1655 0.959 . S
C1670 H1656 0.961 . S
C1670 C1669 1.502 . S
C1671 H1657 0.960 . S
C1671 H1658 0.961 . S
C1671 H1659 0.959 . S
C1671 C1669 1.561 . S
C1672 C1669 1.526 . S
C1672 C1673 1.396 . S
C1672 C1677 1.390 . S
C1673 C1667 1.465 . S
C1673 C1672 1.396 . S
C1673 C1674 1.399 . S
C1674 H1660 0.929 . S
C1674 C1673 1.399 . S
C1674 C1675 1.385 . S
C1675 H1661 0.931 . S
C1675 C1674 1.385 . S
C1675 C1676 1.389 . S
C1676 C1675 1.389 . S
C1676 C1677 1.387 . S
C1677 H1662 0.930 . S
C1677 C1672 1.390 . S
C1677 C1676 1.387 . S
H1678 C1690 0.930 . S
H1679 C1692 0.930 . S
H1680 C1693 0.930 . S
H1681 C1697 0.959 . S
H1682 C1697 0.959 . S
H1683 C1697 0.961 . S
H1684 C1698 0.960 . S
H1685 C1698 0.961 . S
H1686 C1698 0.959 . S
H1687 C1701 0.929 . S
H1688 C1702 0.931 . S
H1689 C1704 0.930 . S
C1690 H1678 0.930 . S
C1690 C1691 1.399 . S
C1690 C1695 1.399 . S
C1691 C1690 1.399 . S
C1691 C1692 1.376 . S
C1692 H1679 0.930 . S
C1692 C1691 1.376 . S
C1692 C1693 1.388 . S
C1693 H1680 0.930 . S
C1693 C1692 1.388 . S
C1693 C1694 1.390 . S
C1694 C1693 1.390 . S
C1694 C1695 1.394 . S
C1694 C1700 1.465 . S
C1695 C1690 1.399 . S
C1695 C1694 1.394 . S
C1695 C1696 1.516 . S
C1696 C1695 1.516 . S
C1696 C1697 1.502 . S
C1696 C1698 1.561 . S
C1696 C1699 1.526 . S
C1697 H1681 0.959 . S
C1697 H1682 0.959 . S
C1697 H1683 0.961 . S
C1697 C1696 1.502 . S
C1698 H1684 0.960 . S
C1698 H1685 0.961 . S
C1698 H1686 0.959 . S
C1698 C1696 1.561 . S
C1699 C1696 1.526 . S
C1699 C1700 1.396 . S
C1699 C1704 1.390 . S
C1700 C1694 1.465 . S
C1700 C1699 1.396 . S
C1700 C1701 1.399 . S
C1701 H1687 0.929 . S
C1701 C1700 1.399 . S
C1701 C1702 1.385 . S
C1702 H1688 0.931 . S
C1702 C1701 1.385 . S
C1702 C1703 1.389 . S
C1703 C1702 1.389 . S
C1703 C1704 1.387 . S
C1704 H1689 0.930 . S
C1704 C1699 1.390 . S
C1704 C1703 1.387 . S
H1705 C1717 0.930 . S
H1706 C1719 0.930 . S
H1707 C1720 0.930 . S
H1708 C1724 0.959 . S
H1709 C1724 0.959 . S
H1710 C1724 0.961 . S
H1711 C1725 0.960 . S
H1712 C1725 0.961 . S
H1713 C1725 0.959 . S
H1714 C1728 0.929 . S
H1715 C1729 0.931 . S
H1716 C1731 0.930 . S
C1717 H1705 0.930 . S
C1717 C1718 1.399 . S
C1717 C1722 1.399 . S
C1718 C1717 1.399 . S
C1718 C1719 1.376 . S
C1719 H1706 0.930 . S
C1719 C1718 1.376 . S
C1719 C1720 1.388 . S
C1720 H1707 0.930 . S
C1720 C1719 1.388 . S
C1720 C1721 1.390 . S
C1721 C1720 1.390 . S
C1721 C1722 1.394 . S
C1721 C1727 1.465 . S
C1722 C1717 1.399 . S
C1722 C1721 1.394 . S
C1722 C1723 1.516 . S
C1723 C1722 1.516 . S
C1723 C1724 1.502 . S
C1723 C1725 1.561 . S
C1723 C1726 1.526 . S
C1724 H1708 0.959 . S
C1724 H1709 0.959 . S
C1724 H1710 0.961 . S
C1724 C1723 1.502 . S
C1725 H1711 0.960 . S
C1725 H1712 0.961 . S
C1725 H1713 0.959 . S
C1725 C1723 1.561 . S
C1726 C1723 1.526 . S
C1726 C1727 1.396 . S
C1726 C1731 1.390 . S
C1727 C1721 1.465 . S
C1727 C1726 1.396 . S
C1727 C1728 1.399 . S
C1728 H1714 0.929 . S
C1728 C1727 1.399 . S
C1728 C1729 1.385 . S
C1729 H1715 0.931 . S
C1729 C1728 1.385 . S
C1729 C1730 1.389 . S
C1730 C1729 1.389 . S
C1730 C1731 1.387 . S
C1731 H1716 0.930 . S
C1731 C1726 1.390 . S
C1731 C1730 1.387 . S
H1732 C1744 0.930 . S
H1733 C1746 0.930 . S
H1734 C1747 0.930 . S
H1735 C1751 0.959 . S
H1736 C1751 0.959 . S
H1737 C1751 0.961 . S
H1738 C1752 0.960 . S
H1739 C1752 0.960 1_655 S
H1740 C1752 0.959 . S
H1741 C1755 0.929 . S
H1742 C1756 0.931 . S
H1743 C1758 0.930 . S
C1744 H1732 0.930 . S
C1744 C1745 1.399 1_655 S
C1744 C1749 1.399 . S
C1745 C1744 1.399 1_455 S
C1745 C1746 1.376 . S
C1746 H1733 0.930 . S
C1746 C1745 1.376 . S
C1746 C1747 1.388 . S
C1747 H1734 0.930 . S
C1747 C1746 1.388 . S
C1747 C1748 1.390 . S
C1748 C1747 1.390 . S
C1748 C1749 1.394 1_455 S
C1748 C1754 1.465 . S
C1749 C1744 1.399 . S
C1749 C1748 1.394 1_655 S
C1749 C1750 1.516 . S
C1750 C1749 1.516 . S
C1750 C1751 1.502 . S
C1750 C1752 1.561 1_655 S
C1750 C1753 1.526 . S
C1751 H1735 0.959 . S
C1751 H1736 0.959 . S
C1751 H1737 0.961 . S
C1751 C1750 1.502 . S
C1752 H1738 0.960 . S
C1752 H1739 0.960 1_455 S
C1752 H1740 0.959 . S
C1752 C1750 1.561 1_455 S
C1753 C1750 1.526 . S
C1753 C1754 1.396 1_655 S
C1753 C1758 1.390 . S
C1754 C1748 1.465 . S
C1754 C1753 1.396 1_455 S
C1754 C1755 1.399 . S
C1755 H1741 0.929 . S
C1755 C1754 1.399 . S
C1755 C1756 1.385 . S
C1756 H1742 0.931 . S
C1756 C1755 1.385 . S
C1756 C1757 1.389 . S
C1757 C1756 1.389 . S
C1757 C1758 1.387 1_455 S
C1758 H1743 0.930 . S
C1758 C1753 1.390 . S
C1758 C1757 1.387 1_655 S
H1759 C1771 0.930 . S
H1760 C1773 0.930 . S
H1761 C1774 0.930 . S
H1762 C1778 0.959 . S
H1763 C1778 0.959 . S
H1764 C1778 0.961 . S
H1765 C1779 0.960 . S
H1766 C1779 0.961 . S
H1767 C1779 0.959 . S
H1768 C1782 0.929 . S
H1769 C1783 0.931 . S
H1770 C1785 0.930 . S
C1771 H1759 0.930 . S
C1771 C1772 1.399 . S
C1771 C1776 1.399 . S
C1772 C1771 1.399 . S
C1772 C1773 1.376 . S
C1773 H1760 0.930 . S
C1773 C1772 1.376 . S
C1773 C1774 1.388 . S
C1774 H1761 0.930 . S
C1774 C1773 1.388 . S
C1774 C1775 1.390 . S
C1775 C1774 1.390 . S
C1775 C1776 1.394 . S
C1775 C1781 1.465 . S
C1776 C1771 1.399 . S
C1776 C1775 1.394 . S
C1776 C1777 1.516 . S
C1777 C1776 1.516 . S
C1777 C1778 1.502 . S
C1777 C1779 1.561 . S
C1777 C1780 1.526 . S
C1778 H1762 0.959 . S
C1778 H1763 0.959 . S
C1778 H1764 0.961 . S
C1778 C1777 1.502 . S
C1779 H1765 0.960 . S
C1779 H1766 0.961 . S
C1779 H1767 0.959 . S
C1779 C1777 1.561 . S
C1780 C1777 1.526 . S
C1780 C1781 1.396 . S
C1780 C1785 1.390 . S
C1781 C1775 1.465 . S
C1781 C1780 1.396 . S
C1781 C1782 1.399 . S
C1782 H1768 0.929 . S
C1782 C1781 1.399 . S
C1782 C1783 1.385 . S
C1783 H1769 0.931 . S
C1783 C1782 1.385 . S
C1783 C1784 1.389 . S
C1784 C1783 1.389 . S
C1784 C1785 1.387 . S
C1785 H1770 0.930 . S
C1785 C1780 1.390 . S
C1785 C1784 1.387 . S
H1786 C1798 0.930 . S
H1787 C1800 0.930 . S
H1788 C1801 0.930 . S
H1789 C1805 0.959 . S
H1790 C1805 0.959 . S
H1791 C1805 0.961 . S
H1792 C1806 0.960 . S
H1793 C1806 0.961 . S
H1794 C1806 0.959 . S
H1795 C1809 0.929 . S
H1796 C1810 0.931 . S
H1797 C1812 0.930 . S
C1798 H1786 0.930 . S
C1798 C1799 1.399 . S
C1798 C1803 1.399 . S
C1799 C1798 1.399 . S
C1799 C1800 1.376 . S
C1800 H1787 0.930 . S
C1800 C1799 1.376 . S
C1800 C1801 1.388 . S
C1801 H1788 0.930 . S
C1801 C1800 1.388 . S
C1801 C1802 1.390 . S
C1802 C1801 1.390 . S
C1802 C1803 1.394 . S
C1802 C1808 1.465 . S
C1803 C1798 1.399 . S
C1803 C1802 1.394 . S
C1803 C1804 1.516 . S
C1804 C1803 1.516 . S
C1804 C1805 1.502 . S
C1804 C1806 1.561 . S
C1804 C1807 1.526 . S
C1805 H1789 0.959 . S
C1805 H1790 0.959 . S
C1805 H1791 0.961 . S
C1805 C1804 1.502 . S
C1806 H1792 0.960 . S
C1806 H1793 0.961 . S
C1806 H1794 0.959 . S
C1806 C1804 1.561 . S
C1807 C1804 1.526 . S
C1807 C1808 1.396 . S
C1807 C1812 1.390 . S
C1808 C1802 1.465 . S
C1808 C1807 1.396 . S
C1808 C1809 1.399 1_556 S
C1809 H1795 0.929 . S
C1809 C1808 1.399 1_554 S
C1809 C1810 1.385 . S
C1810 H1796 0.931 . S
C1810 C1809 1.385 . S
C1810 C1811 1.389 . S
C1811 C1810 1.389 . S
C1811 C1812 1.387 1_554 S
C1812 H1797 0.930 . S
C1812 C1807 1.390 . S
C1812 C1811 1.387 1_556 S
H1813 C1825 0.932 . S
H1814 C1827 0.930 1_455 S
H1815 C1828 0.930 . S
H1816 C1832 0.959 . S
H1817 C1832 0.959 . S
H1818 C1832 0.961 . S
H1819 C1833 0.960 . S
H1820 C1833 0.961 . S
H1821 C1833 0.959 . S
H1822 C1836 0.929 . S
H1823 C1837 0.931 . S
H1824 C1839 0.930 . S
C1825 H1813 0.932 . S
C1825 C1826 1.402 . S
C1825 C1830 1.394 1_455 S
C1826 C1825 1.402 . S
C1826 C1827 1.376 1_455 S
C1827 H1814 0.930 1_655 S
C1827 C1826 1.376 1_655 S
C1827 C1828 1.388 . S
C1828 H1815 0.930 . S
C1828 C1827 1.388 . S
C1828 C1829 1.390 . S
C1829 C1828 1.390 . S
C1829 C1830 1.394 . S
C1829 C1835 1.465 . S
C1830 C1825 1.394 1_655 S
C1830 C1829 1.394 . S
C1830 C1831 1.516 . S
C1831 C1830 1.516 . S
C1831 C1832 1.502 . S
C1831 C1833 1.561 . S
C1831 C1834 1.526 . S
C1832 H1816 0.959 . S
C1832 H1817 0.959 . S
C1832 H1818 0.961 . S
C1832 C1831 1.502 . S
C1833 H1819 0.960 . S
C1833 H1820 0.961 . S
C1833 H1821 0.959 . S
C1833 C1831 1.561 . S
C1834 C1831 1.526 . S
C1834 C1835 1.396 . S
C1834 C1839 1.390 . S
C1835 C1829 1.465 . S
C1835 C1834 1.396 . S
C1835 C1836 1.399 . S
C1836 H1822 0.929 . S
C1836 C1835 1.399 . S
C1836 C1837 1.385 . S
C1837 H1823 0.931 . S
C1837 C1836 1.385 . S
C1837 C1838 1.389 . S
C1838 C1837 1.389 . S
C1838 C1839 1.387 . S
C1839 H1824 0.930 . S
C1839 C1834 1.390 . S
C1839 C1838 1.387 . S
H1840 C1852 0.930 . S
H1841 C1854 0.930 . S
H1842 C1855 0.930 1_565 S
H1843 C1859 0.959 . S
H1844 C1859 0.959 . S
H1845 C1859 0.961 . S
H1846 C1860 0.960 . S
H1847 C1860 0.961 . S
H1848 C1860 0.959 . S
H1849 C1863 0.929 . S
H1850 C1864 0.931 . S
H1851 C1866 0.930 . S
C1852 H1840 0.930 . S
C1852 C1853 1.399 . S
C1852 C1857 1.399 . S
C1853 C1852 1.399 . S
C1853 C1854 1.376 . S
C1854 H1841 0.930 . S
C1854 C1853 1.376 . S
C1854 C1855 1.388 . S
C1855 H1842 0.930 1_545 S
C1855 C1854 1.388 . S
C1855 C1856 1.390 . S
C1856 C1855 1.390 . S
C1856 C1857 1.394 . S
C1856 C1862 1.465 . S
C1857 C1852 1.399 . S
C1857 C1856 1.394 . S
C1857 C1858 1.516 . S
C1858 C1857 1.516 . S
C1858 C1859 1.502 . S
C1858 C1860 1.561 . S
C1858 C1861 1.526 . S
C1859 H1843 0.959 . S
C1859 H1844 0.959 . S
C1859 H1845 0.961 . S
C1859 C1858 1.502 . S
C1860 H1846 0.960 . S
C1860 H1847 0.961 . S
C1860 H1848 0.959 . S
C1860 C1858 1.561 . S
C1861 C1858 1.526 . S
C1861 C1862 1.396 . S
C1861 C1866 1.390 . S
C1862 C1856 1.465 . S
C1862 C1861 1.396 . S
C1862 C1863 1.399 1_545 S
C1863 H1849 0.929 . S
C1863 C1862 1.399 1_565 S
C1863 C1864 1.385 . S
C1864 H1850 0.931 . S
C1864 C1863 1.385 . S
C1864 C1865 1.389 1_565 S
C1865 C1864 1.389 1_545 S
C1865 C1866 1.387 . S
C1866 H1851 0.930 . S
C1866 C1861 1.390 . S
C1866 C1865 1.387 . S
H1867 C1879 0.930 . S
H1868 C1881 0.930 . S
H1869 C1882 0.930 . S
H1870 C1886 0.959 . S
H1871 C1886 0.959 . S
H1872 C1886 0.961 . S
H1873 C1887 0.960 . S
H1874 C1887 0.961 . S
H1875 C1887 0.959 . S
H1876 C1890 0.929 . S
H1877 C1891 0.931 . S
H1878 C1893 0.930 . S
C1879 H1867 0.930 . S
C1879 C1880 1.399 . S
C1879 C1884 1.399 . S
C1880 C1879 1.399 . S
C1880 C1881 1.376 . S
C1881 H1868 0.930 . S
C1881 C1880 1.376 . S
C1881 C1882 1.388 . S
C1882 H1869 0.930 . S
C1882 C1881 1.388 . S
C1882 C1883 1.390 . S
C1883 C1882 1.390 . S
C1883 C1884 1.394 . S
C1883 C1889 1.465 . S
C1884 C1879 1.399 . S
C1884 C1883 1.394 . S
C1884 C1885 1.516 . S
C1885 C1884 1.516 . S
C1885 C1886 1.502 . S
C1885 C1887 1.561 . S
C1885 C1888 1.526 . S
C1886 H1870 0.959 . S
C1886 H1871 0.959 . S
C1886 H1872 0.961 . S
C1886 C1885 1.502 . S
C1887 H1873 0.960 . S
C1887 H1874 0.961 . S
C1887 H1875 0.959 . S
C1887 C1885 1.561 . S
C1888 C1885 1.526 . S
C1888 C1889 1.396 . S
C1888 C1893 1.390 . S
C1889 C1883 1.465 . S
C1889 C1888 1.396 . S
C1889 C1890 1.399 . S
C1890 H1876 0.929 . S
C1890 C1889 1.399 . S
C1890 C1891 1.385 . S
C1891 H1877 0.931 . S
C1891 C1890 1.385 . S
C1891 C1892 1.389 . S
C1892 C1891 1.389 . S
C1892 C1893 1.387 . S
C1893 H1878 0.930 . S
C1893 C1888 1.390 . S
C1893 C1892 1.387 . S
H1894 C1906 0.930 . S
H1895 C1908 0.930 1_565 S
H1896 C1909 0.933 1_565 S
H1897 C1913 0.959 . S
H1898 C1913 0.959 . S
H1899 C1913 0.961 . S
H1900 C1914 0.960 . S
H1901 C1914 0.961 . S
H1902 C1914 0.959 . S
H1903 C1917 0.929 . S
H1904 C1918 0.927 . S
H1905 C1920 0.930 . S
C1906 H1894 0.930 . S
C1906 C1907 1.399 . S
C1906 C1911 1.399 . S
C1907 C1906 1.399 . S
C1907 C1908 1.376 . S
C1908 H1895 0.930 1_545 S
C1908 C1907 1.376 . S
C1908 C1909 1.387 . S
C1909 H1896 0.933 1_545 S
C1909 C1908 1.387 . S
C1909 C1910 1.389 . S
C1910 C1909 1.389 . S
C1910 C1911 1.394 . S
C1910 C1916 1.465 . S
C1911 C1906 1.399 . S
C1911 C1910 1.394 . S
C1911 C1912 1.516 . S
C1912 C1911 1.516 . S
C1912 C1913 1.502 . S
C1912 C1914 1.561 . S
C1912 C1915 1.526 . S
C1913 H1897 0.959 . S
C1913 H1898 0.959 . S
C1913 H1899 0.961 . S
C1913 C1912 1.502 . S
C1914 H1900 0.960 . S
C1914 H1901 0.961 . S
C1914 H1902 0.959 . S
C1914 C1912 1.561 . S
C1915 C1912 1.526 . S
C1915 C1916 1.396 . S
C1915 C1920 1.390 . S
C1916 C1910 1.465 . S
C1916 C1915 1.396 . S
C1916 C1917 1.399 1_545 S
C1917 H1903 0.929 . S
C1917 C1916 1.399 1_565 S
C1917 C1918 1.386 . S
C1918 H1904 0.927 . S
C1918 C1917 1.386 . S
C1918 C1919 1.392 1_565 S
C1919 C1918 1.392 1_545 S
C1919 C1920 1.387 . S
C1920 H1905 0.930 . S
C1920 C1915 1.390 . S
C1920 C1919 1.387 . S
H1921 C1933 0.930 . S
H1922 C1935 0.930 . S
H1923 C1936 0.930 . S
H1924 C1940 0.959 . S
H1925 C1940 0.959 . S
H1926 C1940 0.961 . S
H1927 C1941 0.960 . S
H1928 C1941 0.961 . S
H1929 C1941 0.959 . S
H1930 C1944 0.929 . S
H1931 C1945 0.931 . S
H1932 C1947 0.930 . S
C1933 H1921 0.930 . S
C1933 C1934 1.399 . S
C1933 C1938 1.399 . S
C1934 C1933 1.399 . S
C1934 C1935 1.376 . S
C1935 H1922 0.930 . S
C1935 C1934 1.376 . S
C1935 C1936 1.388 . S
C1936 H1923 0.930 . S
C1936 C1935 1.388 . S
C1936 C1937 1.390 . S
C1937 C1936 1.390 . S
C1937 C1938 1.394 . S
C1937 C1943 1.465 . S
C1938 C1933 1.399 . S
C1938 C1937 1.394 . S
C1938 C1939 1.516 . S
C1939 C1938 1.516 . S
C1939 C1940 1.502 . S
C1939 C1941 1.561 . S
C1939 C1942 1.526 . S
C1940 H1924 0.959 . S
C1940 H1925 0.959 . S
C1940 H1926 0.961 . S
C1940 C1939 1.502 . S
C1941 H1927 0.960 . S
C1941 H1928 0.961 . S
C1941 H1929 0.959 . S
C1941 C1939 1.561 . S
C1942 C1939 1.526 . S
C1942 C1943 1.396 . S
C1942 C1947 1.390 . S
C1943 C1937 1.465 . S
C1943 C1942 1.396 . S
C1943 C1944 1.399 . S
C1944 H1930 0.929 . S
C1944 C1943 1.399 . S
C1944 C1945 1.385 . S
C1945 H1931 0.931 . S
C1945 C1944 1.385 . S
C1945 C1946 1.389 . S
C1946 C1945 1.389 . S
C1946 C1947 1.387 . S
C1947 H1932 0.930 . S
C1947 C1942 1.390 . S
C1947 C1946 1.387 . S
H1948 C1960 0.930 . S
H1949 C1962 0.894 1_565 S
H1950 C1963 0.930 1_565 S
H1951 C1967 0.959 . S
H1952 C1967 0.959 . S
H1953 C1967 0.961 . S
H1954 C1968 0.960 . S
H1955 C1968 0.961 . S
H1956 C1968 0.959 . S
H1957 C1971 0.929 . S
H1958 C1972 0.953 . S
H1959 C1974 0.930 . S
C1960 H1948 0.930 . S
C1960 C1961 1.399 . S
C1960 C1965 1.399 . S
C1961 C1960 1.399 . S
C1961 C1962 1.376 . S
C1962 H1949 0.894 1_545 S
C1962 C1961 1.376 . S
C1962 C1963 1.388 . S
C1963 H1950 0.930 1_545 S
C1963 C1962 1.388 . S
C1963 C1964 1.390 . S
C1964 C1963 1.390 . S
C1964 C1965 1.394 . S
C1964 C1970 1.465 . S
C1965 C1960 1.399 . S
C1965 C1964 1.394 . S
C1965 C1966 1.516 . S
C1966 C1965 1.516 . S
C1966 C1967 1.502 . S
C1966 C1968 1.561 . S
C1966 C1969 1.526 . S
C1967 H1951 0.959 . S
C1967 H1952 0.959 . S
C1967 H1953 0.961 . S
C1967 C1966 1.502 . S
C1968 H1954 0.960 . S
C1968 H1955 0.961 . S
C1968 H1956 0.959 . S
C1968 C1966 1.561 . S
C1969 C1966 1.526 . S
C1969 C1970 1.396 . S
C1969 C1974 1.390 . S
C1970 C1964 1.465 . S
C1970 C1969 1.396 . S
C1970 C1971 1.399 1_545 S
C1971 H1957 0.929 . S
C1971 C1970 1.399 1_565 S
C1971 C1972 1.397 . S
C1972 H1958 0.953 . S
C1972 C1971 1.397 . S
C1972 C1973 1.357 1_565 S
C1973 C1972 1.357 1_545 S
C1973 C1974 1.387 . S
C1974 H1959 0.930 . S
C1974 C1969 1.390 . S
C1974 C1973 1.387 . S
H1975 C1987 0.930 . S
H1976 C1989 0.930 . S
H1977 C1990 0.930 . S
H1978 C1994 0.959 . S
H1979 C1994 0.959 . S
H1980 C1994 0.961 . S
H1981 C1995 0.960 . S
H1982 C1995 0.961 . S
H1983 C1995 0.959 . S
H1984 C1998 0.929 . S
H1985 C1999 0.931 . S
H1986 C2001 0.930 . S
C1987 H1975 0.930 . S
C1987 C1988 1.399 . S
C1987 C1992 1.399 . S
C1988 C1987 1.399 . S
C1988 C1989 1.376 . S
C1989 H1976 0.930 . S
C1989 C1988 1.376 . S
C1989 C1990 1.388 . S
C1990 H1977 0.930 . S
C1990 C1989 1.388 . S
C1990 C1991 1.390 . S
C1991 C1990 1.390 . S
C1991 C1992 1.394 . S
C1991 C1997 1.465 . S
C1992 C1987 1.399 . S
C1992 C1991 1.394 . S
C1992 C1993 1.516 . S
C1993 C1992 1.516 . S
C1993 C1994 1.502 . S
C1993 C1995 1.561 . S
C1993 C1996 1.526 . S
C1994 H1978 0.959 . S
C1994 H1979 0.959 . S
C1994 H1980 0.961 . S
C1994 C1993 1.502 . S
C1995 H1981 0.960 . S
C1995 H1982 0.961 . S
C1995 H1983 0.959 . S
C1995 C1993 1.561 . S
C1996 C1993 1.526 . S
C1996 C1997 1.396 . S
C1996 C2001 1.390 . S
C1997 C1991 1.465 . S
C1997 C1996 1.396 . S
C1997 C1998 1.399 . S
C1998 H1984 0.929 . S
C1998 C1997 1.399 . S
C1998 C1999 1.385 . S
C1999 H1985 0.931 . S
C1999 C1998 1.385 . S
C1999 C2000 1.389 . S
C2000 C1999 1.389 . S
C2000 C2001 1.387 . S
C2001 H1986 0.930 . S
C2001 C1996 1.390 . S
C2001 C2000 1.387 . S
H2002 C2014 0.930 1_565 S
H2003 C2016 0.930 . S
H2004 C2017 0.930 . S
H2005 C2021 0.959 . S
H2006 C2021 0.959 . S
H2007 C2021 0.961 . S
H2008 C2022 0.960 . S
H2009 C2022 0.961 . S
H2010 C2022 0.959 . S
H2011 C2025 0.929 . S
H2012 C2026 0.931 . S
H2013 C2028 0.930 . S
C2014 H2002 0.930 1_545 S
C2014 C2015 1.399 . S
C2014 C2019 1.399 . S
C2015 C2014 1.399 . S
C2015 C2016 1.376 . S
C2016 H2003 0.930 . S
C2016 C2015 1.376 . S
C2016 C2017 1.388 . S
C2017 H2004 0.930 . S
C2017 C2016 1.388 . S
C2017 C2018 1.390 . S
C2018 C2017 1.390 . S
C2018 C2019 1.394 . S
C2018 C2024 1.465 . S
C2019 C2014 1.399 . S
C2019 C2018 1.394 . S
C2019 C2020 1.516 1_545 S
C2020 C2019 1.516 1_565 S
C2020 C2021 1.502 . S
C2020 C2022 1.561 . S
C2020 C2023 1.502 1_565 S
C2021 H2005 0.959 . S
C2021 H2006 0.959 . S
C2021 H2007 0.961 . S
C2021 C2020 1.502 . S
C2022 H2008 0.960 . S
C2022 H2009 0.961 . S
C2022 H2010 0.959 . S
C2022 C2020 1.561 . S
C2023 C2020 1.502 1_545 S
C2023 C2024 1.440 . S
C2023 C2028 1.376 1_545 S
C2024 C2018 1.465 . S
C2024 C2023 1.440 . S
C2024 C2025 1.399 . S
C2025 H2011 0.929 . S
C2025 C2024 1.399 . S
C2025 C2026 1.385 . S
C2026 H2012 0.931 . S
C2026 C2025 1.385 . S
C2026 C2027 1.389 . S
C2027 C2026 1.389 . S
C2027 C2028 1.387 1_545 S
C2028 H2013 0.930 . S
C2028 C2023 1.376 1_565 S
C2028 C2027 1.387 1_565 S
H2029 C2041 0.930 . S
H2030 C2043 0.930 . S
H2031 C2044 0.930 . S
H2032 C2048 0.959 . S
H2033 C2048 0.959 . S
H2034 C2048 0.961 . S
H2035 C2049 0.960 . S
H2036 C2049 0.961 . S
H2037 C2049 0.959 . S
H2038 C2052 0.929 . S
H2039 C2053 0.931 . S
H2040 C2055 0.930 . S
C2041 H2029 0.930 . S
C2041 C2042 1.399 . S
C2041 C2046 1.399 . S
C2042 C2041 1.399 . S
C2042 C2043 1.376 . S
C2043 H2030 0.930 . S
C2043 C2042 1.376 . S
C2043 C2044 1.388 . S
C2044 H2031 0.930 . S
C2044 C2043 1.388 . S
C2044 C2045 1.390 . S
C2045 C2044 1.390 . S
C2045 C2046 1.394 . S
C2045 C2051 1.465 . S
C2046 C2041 1.399 . S
C2046 C2045 1.394 . S
C2046 C2047 1.516 . S
C2047 C2046 1.516 . S
C2047 C2048 1.502 . S
C2047 C2049 1.561 . S
C2047 C2050 1.526 . S
C2048 H2032 0.959 . S
C2048 H2033 0.959 . S
C2048 H2034 0.961 . S
C2048 C2047 1.502 . S
C2049 H2035 0.960 . S
C2049 H2036 0.961 . S
C2049 H2037 0.959 . S
C2049 C2047 1.561 . S
C2050 C2047 1.526 . S
C2050 C2051 1.396 . S
C2050 C2055 1.390 . S
C2051 C2045 1.465 . S
C2051 C2050 1.396 . S
C2051 C2052 1.399 . S
C2052 H2038 0.929 . S
C2052 C2051 1.399 . S
C2052 C2053 1.385 . S
C2053 H2039 0.931 . S
C2053 C2052 1.385 . S
C2053 C2054 1.389 . S
C2054 C2053 1.389 . S
C2054 C2055 1.387 . S
C2055 H2040 0.930 . S
C2055 C2050 1.390 . S
C2055 C2054 1.387 . S
H2056 C2068 0.930 . S
H2057 C2070 0.930 . S
H2058 C2071 0.930 . S
H2059 C2075 0.959 . S
H2060 C2075 0.959 . S
H2061 C2075 0.961 . S
H2062 C2076 0.960 . S
H2063 C2076 0.961 . S
H2064 C2076 0.959 . S
H2065 C2079 0.929 . S
H2066 C2080 0.931 1_556 S
H2067 C2082 0.930 . S
C2068 H2056 0.930 . S
C2068 C2069 1.399 . S
C2068 C2073 1.399 . S
C2069 C2068 1.399 . S
C2069 C2070 1.376 . S
C2070 H2057 0.930 . S
C2070 C2069 1.376 . S
C2070 C2071 1.388 . S
C2071 H2058 0.930 . S
C2071 C2070 1.388 . S
C2071 C2072 1.390 . S
C2072 C2071 1.390 . S
C2072 C2073 1.394 . S
C2072 C2078 1.465 . S
C2073 C2068 1.399 . S
C2073 C2072 1.394 . S
C2073 C2074 1.516 . S
C2074 C2073 1.516 . S
C2074 C2075 1.502 . S
C2074 C2076 1.561 . S
C2074 C2077 1.526 . S
C2075 H2059 0.959 . S
C2075 H2060 0.959 . S
C2075 H2061 0.961 . S
C2075 C2074 1.502 . S
C2076 H2062 0.960 . S
C2076 H2063 0.961 . S
C2076 H2064 0.959 . S
C2076 C2074 1.561 . S
C2077 C2074 1.526 . S
C2077 C2078 1.396 . S
C2077 C2082 1.390 . S
C2078 C2072 1.465 . S
C2078 C2077 1.396 . S
C2078 C2079 1.399 . S
C2079 H2065 0.929 . S
C2079 C2078 1.399 . S
C2079 C2080 1.385 . S
C2080 H2066 0.931 1_554 S
C2080 C2079 1.385 . S
C2080 C2081 1.389 . S
C2081 C2080 1.389 . S
C2081 C2082 1.387 . S
C2082 H2067 0.930 . S
C2082 C2077 1.390 . S
C2082 C2081 1.387 . S
H2083 C2095 0.930 . S
H2084 C2097 0.930 . S
H2085 C2098 0.930 . S
H2086 C2102 0.959 . S
H2087 C2102 0.959 . S
H2088 C2102 0.961 . S
H2089 C2103 0.960 . S
H2090 C2103 0.961 . S
H2091 C2103 0.959 . S
H2092 C2106 0.929 . S
H2093 C2107 0.931 . S
H2094 C2109 0.930 . S
C2095 H2083 0.930 . S
C2095 C2096 1.399 . S
C2095 C2100 1.399 . S
C2096 C2095 1.399 . S
C2096 C2097 1.376 . S
C2097 H2084 0.930 . S
C2097 C2096 1.376 . S
C2097 C2098 1.388 . S
C2098 H2085 0.930 . S
C2098 C2097 1.388 . S
C2098 C2099 1.390 . S
C2099 C2098 1.390 . S
C2099 C2100 1.394 . S
C2099 C2105 1.465 . S
C2100 C2095 1.399 . S
C2100 C2099 1.394 . S
C2100 C2101 1.516 . S
C2101 C2100 1.516 . S
C2101 C2102 1.502 . S
C2101 C2103 1.561 . S
C2101 C2104 1.526 . S
C2102 H2086 0.959 . S
C2102 H2087 0.959 . S
C2102 H2088 0.961 . S
C2102 C2101 1.502 . S
C2103 H2089 0.960 . S
C2103 H2090 0.961 . S
C2103 H2091 0.959 . S
C2103 C2101 1.561 . S
C2104 C2101 1.526 . S
C2104 C2105 1.396 . S
C2104 C2109 1.390 . S
C2105 C2099 1.465 . S
C2105 C2104 1.396 . S
C2105 C2106 1.399 . S
C2106 H2092 0.929 . S
C2106 C2105 1.399 . S
C2106 C2107 1.385 . S
C2107 H2093 0.931 . S
C2107 C2106 1.385 . S
C2107 C2108 1.389 . S
C2108 C2107 1.389 . S
C2108 C2109 1.387 . S
C2109 H2094 0.930 . S
C2109 C2104 1.390 . S
C2109 C2108 1.387 . S
H2110 C2122 0.930 . S
H2111 C2124 0.930 . S
H2112 C2125 0.930 . S
H2113 C2129 0.959 . S
H2114 C2129 0.959 . S
H2115 C2129 0.961 . S
H2116 C2130 0.960 . S
H2117 C2130 0.961 . S
H2118 C2130 0.959 . S
H2119 C2133 0.929 . S
H2120 C2134 0.931 . S
H2121 C2136 0.930 . S
C2122 H2110 0.930 . S
C2122 C2123 1.399 . S
C2122 C2127 1.399 . S
C2123 C2122 1.399 . S
C2123 C2124 1.376 . S
C2124 H2111 0.930 . S
C2124 C2123 1.376 . S
C2124 C2125 1.388 . S
C2125 H2112 0.930 . S
C2125 C2124 1.388 . S
C2125 C2126 1.390 . S
C2126 C2125 1.390 . S
C2126 C2127 1.394 . S
C2126 C2132 1.465 . S
C2127 C2122 1.399 . S
C2127 C2126 1.394 . S
C2127 C2128 1.516 . S
C2128 C2127 1.516 . S
C2128 C2129 1.502 . S
C2128 C2130 1.561 . S
C2128 C2131 1.526 . S
C2129 H2113 0.959 . S
C2129 H2114 0.959 . S
C2129 H2115 0.961 . S
C2129 C2128 1.502 . S
C2130 H2116 0.960 . S
C2130 H2117 0.961 . S
C2130 H2118 0.959 . S
C2130 C2128 1.561 . S
C2131 C2128 1.526 . S
C2131 C2132 1.396 . S
C2131 C2136 1.390 . S
C2132 C2126 1.465 . S
C2132 C2131 1.396 . S
C2132 C2133 1.399 . S
C2133 H2119 0.929 . S
C2133 C2132 1.399 . S
C2133 C2134 1.385 . S
C2134 H2120 0.931 . S
C2134 C2133 1.385 . S
C2134 C2135 1.389 . S
C2135 C2134 1.389 . S
C2135 C2136 1.387 . S
C2136 H2121 0.930 . S
C2136 C2131 1.390 . S
C2136 C2135 1.387 . S
H2137 C2149 0.930 . S
H2138 C2151 0.930 . S
H2139 C2152 0.930 . S
H2140 C2156 0.959 . S
H2141 C2156 0.959 . S
H2142 C2156 0.961 . S
H2143 C2157 0.960 . S
H2144 C2157 0.961 . S
H2145 C2157 0.959 . S
H2146 C2160 0.929 . S
H2147 C2161 0.931 . S
H2148 C2163 0.930 . S
C2149 H2137 0.930 . S
C2149 C2150 1.399 . S
C2149 C2154 1.399 . S
C2150 C2149 1.399 . S
C2150 C2151 1.376 . S
C2151 H2138 0.930 . S
C2151 C2150 1.376 . S
C2151 C2152 1.388 . S
C2152 H2139 0.930 . S
C2152 C2151 1.388 . S
C2152 C2153 1.390 . S
C2153 C2152 1.390 . S
C2153 C2154 1.394 . S
C2153 C2159 1.465 . S
C2154 C2149 1.399 . S
C2154 C2153 1.394 . S
C2154 C2155 1.516 . S
C2155 C2154 1.516 . S
C2155 C2156 1.502 . S
C2155 C2157 1.561 . S
C2155 C2158 1.526 . S
C2156 H2140 0.959 . S
C2156 H2141 0.959 . S
C2156 H2142 0.961 . S
C2156 C2155 1.502 . S
C2157 H2143 0.960 . S
C2157 H2144 0.961 . S
C2157 H2145 0.959 . S
C2157 C2155 1.561 . S
C2158 C2155 1.526 . S
C2158 C2159 1.396 . S
C2158 C2163 1.390 . S
C2159 C2153 1.465 . S
C2159 C2158 1.396 . S
C2159 C2160 1.399 . S
C2160 H2146 0.929 . S
C2160 C2159 1.399 . S
C2160 C2161 1.385 . S
C2161 H2147 0.931 . S
C2161 C2160 1.385 . S
C2161 C2162 1.389 . S
C2162 C2161 1.389 . S
C2162 C2163 1.387 . S
C2163 H2148 0.930 . S
C2163 C2158 1.390 . S
C2163 C2162 1.387 . S
H2164 C2176 0.930 . S
H2165 C2178 0.930 . S
H2166 C2179 0.930 . S
H2167 C2183 0.959 . S
H2168 C2183 0.959 . S
H2169 C2183 0.961 . S
H2170 C2184 0.960 . S
H2171 C2184 0.961 . S
H2172 C2184 0.959 . S
H2173 C2187 0.929 . S
H2174 C2188 0.931 . S
H2175 C2190 0.930 . S
C2176 H2164 0.930 . S
C2176 C2177 1.399 . S
C2176 C2181 1.399 . S
C2177 C2176 1.399 . S
C2177 C2178 1.376 . S
C2178 H2165 0.930 . S
C2178 C2177 1.376 . S
C2178 C2179 1.388 . S
C2179 H2166 0.930 . S
C2179 C2178 1.388 . S
C2179 C2180 1.390 . S
C2180 C2179 1.390 . S
C2180 C2181 1.394 . S
C2180 C2186 1.465 . S
C2181 C2176 1.399 . S
C2181 C2180 1.394 . S
C2181 C2182 1.516 . S
C2182 C2181 1.516 . S
C2182 C2183 1.502 . S
C2182 C2184 1.561 . S
C2182 C2185 1.526 . S
C2183 H2167 0.959 . S
C2183 H2168 0.959 . S
C2183 H2169 0.961 . S
C2183 C2182 1.502 . S
C2184 H2170 0.960 . S
C2184 H2171 0.961 . S
C2184 H2172 0.959 . S
C2184 C2182 1.561 . S
C2185 C2182 1.526 . S
C2185 C2186 1.396 . S
C2185 C2190 1.390 . S
C2186 C2180 1.465 . S
C2186 C2185 1.396 . S
C2186 C2187 1.399 . S
C2187 H2173 0.929 . S
C2187 C2186 1.399 . S
C2187 C2188 1.385 . S
C2188 H2174 0.931 . S
C2188 C2187 1.385 . S
C2188 C2189 1.389 . S
C2189 C2188 1.389 . S
C2189 C2190 1.387 . S
C2190 H2175 0.930 . S
C2190 C2185 1.390 . S
C2190 C2189 1.387 . S
H2191 C2203 0.930 . S
H2192 C2205 0.930 . S
H2193 C2206 0.930 . S
H2194 C2210 0.959 . S
H2195 C2210 0.959 . S
H2196 C2210 0.961 . S
H2197 C2211 0.960 . S
H2198 C2211 0.961 . S
H2199 C2211 0.959 . S
H2200 C2214 0.929 . S
H2201 C2215 0.931 . S
H2202 C2217 0.930 . S
C2203 H2191 0.930 . S
C2203 C2204 1.399 . S
C2203 C2208 1.399 . S
C2204 C2203 1.399 . S
C2204 C2205 1.376 . S
C2205 H2192 0.930 . S
C2205 C2204 1.376 . S
C2205 C2206 1.388 . S
C2206 H2193 0.930 . S
C2206 C2205 1.388 . S
C2206 C2207 1.390 . S
C2207 C2206 1.390 . S
C2207 C2208 1.394 . S
C2207 C2213 1.465 . S
C2208 C2203 1.399 . S
C2208 C2207 1.394 . S
C2208 C2209 1.516 . S
C2209 C2208 1.516 . S
C2209 C2210 1.502 . S
C2209 C2211 1.561 . S
C2209 C2212 1.526 . S
C2210 H2194 0.959 . S
C2210 H2195 0.959 . S
C2210 H2196 0.961 . S
C2210 C2209 1.502 . S
C2211 H2197 0.960 . S
C2211 H2198 0.961 . S
C2211 H2199 0.959 . S
C2211 C2209 1.561 . S
C2212 C2209 1.526 . S
C2212 C2213 1.396 . S
C2212 C2217 1.390 . S
C2213 C2207 1.465 . S
C2213 C2212 1.396 . S
C2213 C2214 1.399 . S
C2214 H2200 0.929 . S
C2214 C2213 1.399 . S
C2214 C2215 1.385 . S
C2215 H2201 0.931 . S
C2215 C2214 1.385 . S
C2215 C2216 1.389 . S
C2216 C2215 1.389 . S
C2216 C2217 1.387 . S
C2217 H2202 0.930 . S
C2217 C2212 1.390 . S
C2217 C2216 1.387 . S
H2218 C2230 0.930 . S
H2219 C2232 0.930 . S
H2220 C2233 0.930 . S
H2221 C2237 0.959 . S
H2222 C2237 0.959 . S
H2223 C2237 0.961 . S
H2224 C2238 0.960 . S
H2225 C2238 0.961 . S
H2226 C2238 0.959 . S
H2227 C2241 0.929 . S
H2228 C2242 0.931 . S
H2229 C2244 0.930 . S
C2230 H2218 0.930 . S
C2230 C2231 1.399 . S
C2230 C2235 1.399 . S
C2231 C2230 1.399 . S
C2231 C2232 1.376 . S
C2232 H2219 0.930 . S
C2232 C2231 1.376 . S
C2232 C2233 1.388 . S
C2233 H2220 0.930 . S
C2233 C2232 1.388 . S
C2233 C2234 1.390 . S
C2234 C2233 1.390 . S
C2234 C2235 1.394 . S
C2234 C2240 1.465 . S
C2235 C2230 1.399 . S
C2235 C2234 1.394 . S
C2235 C2236 1.516 . S
C2236 C2235 1.516 . S
C2236 C2237 1.502 . S
C2236 C2238 1.561 . S
C2236 C2239 1.526 . S
C2237 H2221 0.959 . S
C2237 H2222 0.959 . S
C2237 H2223 0.961 . S
C2237 C2236 1.502 . S
C2238 H2224 0.960 . S
C2238 H2225 0.961 . S
C2238 H2226 0.959 . S
C2238 C2236 1.561 . S
C2239 C2236 1.526 . S
C2239 C2240 1.396 . S
C2239 C2244 1.390 . S
C2240 C2234 1.465 . S
C2240 C2239 1.396 . S
C2240 C2241 1.399 . S
C2241 H2227 0.929 . S
C2241 C2240 1.399 . S
C2241 C2242 1.385 . S
C2242 H2228 0.931 . S
C2242 C2241 1.385 . S
C2242 C2243 1.389 . S
C2243 C2242 1.389 . S
C2243 C2244 1.387 . S
C2244 H2229 0.930 . S
C2244 C2239 1.390 . S
C2244 C2243 1.387 . S
H2245 C2257 0.930 . S
H2246 C2259 0.930 . S
H2247 C2260 0.930 . S
H2248 C2264 0.959 . S
H2249 C2264 0.959 . S
H2250 C2264 0.961 . S
H2251 C2265 0.960 . S
H2252 C2265 0.961 . S
H2253 C2265 0.959 . S
H2254 C2268 0.929 . S
H2255 C2269 0.931 . S
H2256 C2271 0.930 . S
C2257 H2245 0.930 . S
C2257 C2258 1.399 . S
C2257 C2262 1.399 . S
C2258 C2257 1.399 . S
C2258 C2259 1.376 . S
C2259 H2246 0.930 . S
C2259 C2258 1.376 . S
C2259 C2260 1.388 . S
C2260 H2247 0.930 . S
C2260 C2259 1.388 . S
C2260 C2261 1.390 . S
C2261 C2260 1.390 . S
C2261 C2262 1.394 . S
C2261 C2267 1.465 . S
C2262 C2257 1.399 . S
C2262 C2261 1.394 . S
C2262 C2263 1.516 . S
C2263 C2262 1.516 . S
C2263 C2264 1.502 . S
C2263 C2265 1.561 . S
C2263 C2266 1.526 . S
C2264 H2248 0.959 . S
C2264 H2249 0.959 . S
C2264 H2250 0.961 . S
C2264 C2263 1.502 . S
C2265 H2251 0.960 . S
C2265 H2252 0.961 . S
C2265 H2253 0.959 . S
C2265 C2263 1.561 . S
C2266 C2263 1.526 . S
C2266 C2267 1.396 . S
C2266 C2271 1.390 . S
C2267 C2261 1.465 . S
C2267 C2266 1.396 . S
C2267 C2268 1.399 . S
C2268 H2254 0.929 . S
C2268 C2267 1.399 . S
C2268 C2269 1.385 . S
C2269 H2255 0.931 . S
C2269 C2268 1.385 . S
C2269 C2270 1.389 . S
C2270 C2269 1.389 . S
C2270 C2271 1.387 . S
C2271 H2256 0.930 . S
C2271 C2266 1.390 . S
C2271 C2270 1.387 . S
H2272 C2284 0.930 . S
H2273 C2286 0.930 . S
H2274 C2287 0.930 . S
H2275 C2291 0.959 . S
H2276 C2291 0.959 . S
H2277 C2291 0.961 . S
H2278 C2292 0.960 . S
H2279 C2292 0.961 . S
H2280 C2292 0.959 . S
H2281 C2295 0.929 . S
H2282 C2296 0.931 . S
H2283 C2298 0.930 . S
C2284 H2272 0.930 . S
C2284 C2285 1.399 . S
C2284 C2289 1.399 . S
C2285 C2284 1.399 . S
C2285 C2286 1.376 . S
C2286 H2273 0.930 . S
C2286 C2285 1.376 . S
C2286 C2287 1.388 . S
C2287 H2274 0.930 . S
C2287 C2286 1.388 . S
C2287 C2288 1.390 . S
C2288 C2287 1.390 . S
C2288 C2289 1.394 . S
C2288 C2294 1.465 . S
C2289 C2284 1.399 . S
C2289 C2288 1.394 . S
C2289 C2290 1.516 . S
C2290 C2289 1.516 . S
C2290 C2291 1.502 . S
C2290 C2292 1.561 . S
C2290 C2293 1.526 . S
C2291 H2275 0.959 . S
C2291 H2276 0.959 . S
C2291 H2277 0.961 . S
C2291 C2290 1.502 . S
C2292 H2278 0.960 . S
C2292 H2279 0.961 . S
C2292 H2280 0.959 . S
C2292 C2290 1.561 . S
C2293 C2290 1.526 . S
C2293 C2294 1.396 . S
C2293 C2298 1.390 . S
C2294 C2288 1.465 . S
C2294 C2293 1.396 . S
C2294 C2295 1.399 . S
C2295 H2281 0.929 . S
C2295 C2294 1.399 . S
C2295 C2296 1.385 . S
C2296 H2282 0.931 . S
C2296 C2295 1.385 . S
C2296 C2297 1.389 . S
C2297 C2296 1.389 . S
C2297 C2298 1.387 . S
C2298 H2283 0.930 . S
C2298 C2293 1.390 . S
C2298 C2297 1.387 . S
H2299 C2311 0.930 . S
H2300 C2313 0.930 . S
H2301 C2314 0.930 . S
H2302 C2318 0.959 . S
H2303 C2318 0.959 . S
H2304 C2318 0.961 . S
H2305 C2319 0.960 . S
H2306 C2319 0.961 . S
H2307 C2319 0.959 . S
H2308 C2322 0.929 . S
H2309 C2323 0.931 . S
H2310 C2325 0.930 . S
C2311 H2299 0.930 . S
C2311 C2312 1.399 . S
C2311 C2316 1.399 . S
C2312 C2311 1.399 . S
C2312 C2313 1.376 . S
C2313 H2300 0.930 . S
C2313 C2312 1.376 . S
C2313 C2314 1.388 . S
C2314 H2301 0.930 . S
C2314 C2313 1.388 . S
C2314 C2315 1.390 . S
C2315 C2314 1.390 . S
C2315 C2316 1.394 . S
C2315 C2321 1.465 . S
C2316 C2311 1.399 . S
C2316 C2315 1.394 . S
C2316 C2317 1.516 . S
C2317 C2316 1.516 . S
C2317 C2318 1.502 . S
C2317 C2319 1.561 . S
C2317 C2320 1.526 . S
C2318 H2302 0.959 . S
C2318 H2303 0.959 . S
C2318 H2304 0.961 . S
C2318 C2317 1.502 . S
C2319 H2305 0.960 . S
C2319 H2306 0.961 . S
C2319 H2307 0.959 . S
C2319 C2317 1.561 . S
C2320 C2317 1.526 . S
C2320 C2321 1.396 . S
C2320 C2325 1.390 . S
C2321 C2315 1.465 . S
C2321 C2320 1.396 . S
C2321 C2322 1.399 . S
C2322 H2308 0.929 . S
C2322 C2321 1.399 . S
C2322 C2323 1.385 . S
C2323 H2309 0.931 . S
C2323 C2322 1.385 . S
C2323 C2324 1.389 . S
C2324 C2323 1.389 . S
C2324 C2325 1.387 . S
C2325 H2310 0.930 . S
C2325 C2320 1.390 . S
C2325 C2324 1.387 . S
H2326 C2338 0.930 . S
H2327 C2340 0.930 . S
H2328 C2341 0.930 . S
H2329 C2345 0.959 1_655 S
H2330 C2345 0.959 . S
H2331 C2345 0.961 . S
H2332 C2346 0.960 . S
H2333 C2346 0.961 . S
H2334 C2346 0.959 . S
H2335 C2349 0.929 . S
H2336 C2350 0.925 1_556 S
H2337 C2352 0.930 . S
C2338 H2326 0.930 . S
C2338 C2339 1.399 1_554 S
C2338 C2343 1.399 . S
C2339 C2338 1.399 1_556 S
C2339 C2340 1.376 . S
C2340 H2327 0.930 . S
C2340 C2339 1.376 . S
C2340 C2341 1.388 . S
C2341 H2328 0.930 . S
C2341 C2340 1.388 . S
C2341 C2342 1.390 . S
C2342 C2341 1.390 . S
C2342 C2343 1.394 1_556 S
C2342 C2348 1.465 . S
C2343 C2338 1.399 . S
C2343 C2342 1.394 1_554 S
C2343 C2344 1.516 . S
C2344 C2343 1.516 . S
C2344 C2345 1.502 . S
C2344 C2346 1.561 . S
C2344 C2347 1.526 . S
C2345 H2329 0.959 1_455 S
C2345 H2330 0.959 . S
C2345 H2331 0.961 . S
C2345 C2344 1.502 . S
C2346 H2332 0.960 . S
C2346 H2333 0.961 . S
C2346 H2334 0.959 . S
C2346 C2344 1.561 . S
C2347 C2344 1.526 . S
C2347 C2348 1.396 1_554 S
C2347 C2352 1.390 . S
C2348 C2342 1.465 . S
C2348 C2347 1.396 1_556 S
C2348 C2349 1.399 . S
C2349 H2335 0.929 . S
C2349 C2348 1.399 . S
C2349 C2350 1.381 1_556 S
C2350 H2336 0.925 1_554 S
C2350 C2349 1.381 1_554 S
C2350 C2351 1.399 . S
C2351 C2350 1.399 . S
C2351 C2352 1.387 . S
C2352 H2337 0.930 . S
C2352 C2347 1.390 . S
C2352 C2351 1.387 . S
H2353 C2365 0.930 . S
H2354 C2367 0.930 . S
H2355 C2368 0.930 . S
H2356 C2372 0.959 . S
H2357 C2372 0.959 . S
H2358 C2372 0.961 . S
H2359 C2373 0.960 . S
H2360 C2373 0.961 . S
H2361 C2373 0.959 . S
H2362 C2376 0.929 . S
H2363 C2377 0.931 . S
H2364 C2379 0.930 . S
C2365 H2353 0.930 . S
C2365 C2366 1.399 . S
C2365 C2370 1.399 . S
C2366 C2365 1.399 . S
C2366 C2367 1.376 . S
C2367 H2354 0.930 . S
C2367 C2366 1.376 . S
C2367 C2368 1.388 . S
C2368 H2355 0.930 . S
C2368 C2367 1.388 . S
C2368 C2369 1.390 . S
C2369 C2368 1.390 . S
C2369 C2370 1.394 . S
C2369 C2375 1.465 . S
C2370 C2365 1.399 . S
C2370 C2369 1.394 . S
C2370 C2371 1.516 . S
C2371 C2370 1.516 . S
C2371 C2372 1.502 . S
C2371 C2373 1.561 . S
C2371 C2374 1.526 . S
C2372 H2356 0.959 . S
C2372 H2357 0.959 . S
C2372 H2358 0.961 . S
C2372 C2371 1.502 . S
C2373 H2359 0.960 . S
C2373 H2360 0.961 . S
C2373 H2361 0.959 . S
C2373 C2371 1.561 . S
C2374 C2371 1.526 . S
C2374 C2375 1.396 . S
C2374 C2379 1.390 . S
C2375 C2369 1.465 . S
C2375 C2374 1.396 . S
C2375 C2376 1.399 . S
C2376 H2362 0.929 . S
C2376 C2375 1.399 . S
C2376 C2377 1.385 . S
C2377 H2363 0.931 . S
C2377 C2376 1.385 . S
C2377 C2378 1.389 . S
C2378 C2377 1.389 . S
C2378 C2379 1.387 . S
C2379 H2364 0.930 . S
C2379 C2374 1.390 . S
C2379 C2378 1.387 . S
H2380 C2392 0.930 . S
H2381 C2394 0.930 . S
H2382 C2395 0.930 . S
H2383 C2399 0.959 . S
H2384 C2399 0.959 . S
H2385 C2399 0.961 . S
H2386 C2400 0.960 . S
H2387 C2400 0.961 . S
H2388 C2400 0.959 . S
H2389 C2403 0.929 . S
H2390 C2404 0.931 . S
H2391 C2406 0.930 . S
C2392 H2380 0.930 . S
C2392 C2393 1.399 . S
C2392 C2397 1.399 . S
C2393 C2392 1.399 . S
C2393 C2394 1.376 . S
C2394 H2381 0.930 . S
C2394 C2393 1.376 . S
C2394 C2395 1.388 . S
C2395 H2382 0.930 . S
C2395 C2394 1.388 . S
C2395 C2396 1.390 . S
C2396 C2395 1.390 . S
C2396 C2397 1.394 . S
C2396 C2402 1.465 . S
C2397 C2392 1.399 . S
C2397 C2396 1.394 . S
C2397 C2398 1.516 . S
C2398 C2397 1.516 . S
C2398 C2399 1.502 . S
C2398 C2400 1.561 . S
C2398 C2401 1.526 . S
C2399 H2383 0.959 . S
C2399 H2384 0.959 . S
C2399 H2385 0.961 . S
C2399 C2398 1.502 . S
C2400 H2386 0.960 . S
C2400 H2387 0.961 . S
C2400 H2388 0.959 . S
C2400 C2398 1.561 . S
C2401 C2398 1.526 . S
C2401 C2402 1.396 . S
C2401 C2406 1.390 . S
C2402 C2396 1.465 . S
C2402 C2401 1.396 . S
C2402 C2403 1.399 . S
C2403 H2389 0.929 . S
C2403 C2402 1.399 . S
C2403 C2404 1.385 . S
C2404 H2390 0.931 . S
C2404 C2403 1.385 . S
C2404 C2405 1.389 . S
C2405 C2404 1.389 . S
C2405 C2406 1.387 . S
C2406 H2391 0.930 . S
C2406 C2401 1.390 . S
C2406 C2405 1.387 . S
H2407 C2419 0.930 . S
H2408 C2421 0.930 . S
H2409 C2422 0.930 . S
H2410 C2426 0.959 . S
H2411 C2426 0.959 . S
H2412 C2426 0.961 . S
H2413 C2427 0.960 . S
H2414 C2427 0.961 . S
H2415 C2427 0.959 . S
H2416 C2430 0.929 . S
H2417 C2431 0.931 . S
H2418 C2433 0.930 . S
C2419 H2407 0.930 . S
C2419 C2420 1.399 . S
C2419 C2424 1.399 . S
C2420 C2419 1.399 . S
C2420 C2421 1.376 . S
C2421 H2408 0.930 . S
C2421 C2420 1.376 . S
C2421 C2422 1.388 . S
C2422 H2409 0.930 . S
C2422 C2421 1.388 . S
C2422 C2423 1.390 . S
C2423 C2422 1.390 . S
C2423 C2424 1.394 . S
C2423 C2429 1.465 . S
C2424 C2419 1.399 . S
C2424 C2423 1.394 . S
C2424 C2425 1.516 . S
C2425 C2424 1.516 . S
C2425 C2426 1.502 . S
C2425 C2427 1.561 . S
C2425 C2428 1.526 . S
C2426 H2410 0.959 . S
C2426 H2411 0.959 . S
C2426 H2412 0.961 . S
C2426 C2425 1.502 . S
C2427 H2413 0.960 . S
C2427 H2414 0.961 . S
C2427 H2415 0.959 . S
C2427 C2425 1.561 . S
C2428 C2425 1.526 . S
C2428 C2429 1.396 . S
C2428 C2433 1.390 . S
C2429 C2423 1.465 . S
C2429 C2428 1.396 . S
C2429 C2430 1.399 . S
C2430 H2416 0.929 . S
C2430 C2429 1.399 . S
C2430 C2431 1.385 . S
C2431 H2417 0.931 . S
C2431 C2430 1.385 . S
C2431 C2432 1.389 . S
C2432 C2431 1.389 . S
C2432 C2433 1.387 . S
C2433 H2418 0.930 . S
C2433 C2428 1.390 . S
C2433 C2432 1.387 . S
H2434 C2446 0.930 . S
H2435 C2448 0.930 . S
H2436 C2449 0.930 . S
H2437 C2453 0.959 . S
H2438 C2453 0.959 . S
H2439 C2453 0.961 . S
H2440 C2454 0.960 . S
H2441 C2454 0.961 . S
H2442 C2454 0.959 . S
H2443 C2457 0.929 . S
H2444 C2458 0.931 . S
H2445 C2460 0.930 . S
C2446 H2434 0.930 . S
C2446 C2447 1.399 . S
C2446 C2451 1.399 . S
C2447 C2446 1.399 . S
C2447 C2448 1.376 . S
C2448 H2435 0.930 . S
C2448 C2447 1.376 . S
C2448 C2449 1.388 . S
C2449 H2436 0.930 . S
C2449 C2448 1.388 . S
C2449 C2450 1.390 . S
C2450 C2449 1.390 . S
C2450 C2451 1.394 . S
C2450 C2456 1.465 . S
C2451 C2446 1.399 . S
C2451 C2450 1.394 . S
C2451 C2452 1.516 . S
C2452 C2451 1.516 . S
C2452 C2453 1.502 . S
C2452 C2454 1.561 . S
C2452 C2455 1.526 . S
C2453 H2437 0.959 . S
C2453 H2438 0.959 . S
C2453 H2439 0.961 . S
C2453 C2452 1.502 . S
C2454 H2440 0.960 . S
C2454 H2441 0.961 . S
C2454 H2442 0.959 . S
C2454 C2452 1.561 . S
C2455 C2452 1.526 . S
C2455 C2456 1.396 . S
C2455 C2460 1.390 . S
C2456 C2450 1.465 . S
C2456 C2455 1.396 . S
C2456 C2457 1.399 . S
C2457 H2443 0.929 . S
C2457 C2456 1.399 . S
C2457 C2458 1.385 . S
C2458 H2444 0.931 . S
C2458 C2457 1.385 . S
C2458 C2459 1.389 . S
C2459 C2458 1.389 . S
C2459 C2460 1.387 . S
C2460 H2445 0.930 . S
C2460 C2455 1.390 . S
C2460 C2459 1.387 . S
H2461 C2473 0.930 . S
H2462 C2475 0.930 . S
H2463 C2476 0.930 . S
H2464 C2480 0.959 . S
H2465 C2480 0.959 . S
H2466 C2480 0.961 . S
H2467 C2481 0.960 . S
H2468 C2481 0.961 . S
H2469 C2481 0.959 . S
H2470 C2484 0.929 . S
H2471 C2485 0.931 . S
H2472 C2487 0.930 . S
C2473 H2461 0.930 . S
C2473 C2474 1.399 . S
C2473 C2478 1.399 . S
C2474 C2473 1.399 . S
C2474 C2475 1.376 . S
C2475 H2462 0.930 . S
C2475 C2474 1.376 . S
C2475 C2476 1.388 . S
C2476 H2463 0.930 . S
C2476 C2475 1.388 . S
C2476 C2477 1.390 . S
C2477 C2476 1.390 . S
C2477 C2478 1.394 . S
C2477 C2483 1.465 . S
C2478 C2473 1.399 . S
C2478 C2477 1.394 . S
C2478 C2479 1.516 . S
C2479 C2478 1.516 . S
C2479 C2480 1.502 . S
C2479 C2481 1.561 . S
C2479 C2482 1.526 . S
C2480 H2464 0.959 . S
C2480 H2465 0.959 . S
C2480 H2466 0.961 . S
C2480 C2479 1.502 . S
C2481 H2467 0.960 . S
C2481 H2468 0.961 . S
C2481 H2469 0.959 . S
C2481 C2479 1.561 . S
C2482 C2479 1.526 . S
C2482 C2483 1.396 . S
C2482 C2487 1.390 . S
C2483 C2477 1.465 . S
C2483 C2482 1.396 . S
C2483 C2484 1.399 . S
C2484 H2470 0.929 . S
C2484 C2483 1.399 . S
C2484 C2485 1.385 . S
C2485 H2471 0.931 . S
C2485 C2484 1.385 . S
C2485 C2486 1.389 . S
C2486 C2485 1.389 . S
C2486 C2487 1.387 . S
C2487 H2472 0.930 . S
C2487 C2482 1.390 . S
C2487 C2486 1.387 . S
H2488 C2500 0.930 . S
H2489 C2502 0.930 . S
H2490 C2503 0.930 . S
H2491 C2507 0.959 . S
H2492 C2507 0.959 . S
H2493 C2507 0.961 . S
H2494 C2508 0.960 . S
H2495 C2508 0.961 . S
H2496 C2508 0.959 . S
H2497 C2511 0.929 . S
H2498 C2512 0.931 . S
H2499 C2514 0.930 . S
C2500 H2488 0.930 . S
C2500 C2501 1.399 . S
C2500 C2505 1.399 . S
C2501 C2500 1.399 . S
C2501 C2502 1.376 . S
C2502 H2489 0.930 . S
C2502 C2501 1.376 . S
C2502 C2503 1.388 . S
C2503 H2490 0.930 . S
C2503 C2502 1.388 . S
C2503 C2504 1.390 . S
C2504 C2503 1.390 . S
C2504 C2505 1.394 . S
C2504 C2510 1.465 . S
C2505 C2500 1.399 . S
C2505 C2504 1.394 . S
C2505 C2506 1.516 . S
C2506 C2505 1.516 . S
C2506 C2507 1.502 . S
C2506 C2508 1.561 . S
C2506 C2509 1.526 . S
C2507 H2491 0.959 . S
C2507 H2492 0.959 . S
C2507 H2493 0.961 . S
C2507 C2506 1.502 . S
C2508 H2494 0.960 . S
C2508 H2495 0.961 . S
C2508 H2496 0.959 . S
C2508 C2506 1.561 . S
C2509 C2506 1.526 . S
C2509 C2510 1.396 . S
C2509 C2514 1.390 . S
C2510 C2504 1.465 . S
C2510 C2509 1.396 . S
C2510 C2511 1.399 . S
C2511 H2497 0.929 . S
C2511 C2510 1.399 . S
C2511 C2512 1.385 . S
C2512 H2498 0.931 . S
C2512 C2511 1.385 . S
C2512 C2513 1.389 . S
C2513 C2512 1.389 . S
C2513 C2514 1.387 . S
C2514 H2499 0.930 . S
C2514 C2509 1.390 . S
C2514 C2513 1.387 . S
H2515 C2527 0.930 . S
H2516 C2529 0.930 . S
H2517 C2530 0.930 1_556 S
H2518 C2534 0.959 . S
H2519 C2534 0.959 . S
H2520 C2534 0.961 . S
H2521 C2535 0.960 . S
H2522 C2535 0.961 . S
H2523 C2535 0.959 . S
H2524 C2538 0.929 . S
H2525 C2539 0.931 . S
H2526 C2541 0.930 . S
C2527 H2515 0.930 . S
C2527 C2528 1.399 . S
C2527 C2532 1.399 . S
C2528 C2527 1.399 . S
C2528 C2529 1.376 . S
C2529 H2516 0.930 . S
C2529 C2528 1.376 . S
C2529 C2530 1.388 . S
C2530 H2517 0.930 1_554 S
C2530 C2529 1.388 . S
C2530 C2531 1.382 1_554 S
C2531 C2530 1.382 1_556 S
C2531 C2532 1.364 1_556 S
C2531 C2537 1.501 . S
C2532 C2527 1.399 . S
C2532 C2531 1.364 1_554 S
C2532 C2533 1.516 . S
C2533 C2532 1.516 . S
C2533 C2534 1.502 . S
C2533 C2535 1.561 . S
C2533 C2536 1.526 1_554 S
C2534 H2518 0.959 . S
C2534 H2519 0.959 . S
C2534 H2520 0.961 . S
C2534 C2533 1.502 . S
C2535 H2521 0.960 . S
C2535 H2522 0.961 . S
C2535 H2523 0.959 . S
C2535 C2533 1.561 . S
C2536 C2533 1.526 1_556 S
C2536 C2537 1.396 . S
C2536 C2541 1.390 . S
C2537 C2531 1.501 . S
C2537 C2536 1.396 . S
C2537 C2538 1.399 . S
C2538 H2524 0.929 . S
C2538 C2537 1.399 . S
C2538 C2539 1.385 . S
C2539 H2525 0.931 . S
C2539 C2538 1.385 . S
C2539 C2540 1.389 . S
C2540 C2539 1.389 . S
C2540 C2541 1.387 . S
C2541 H2526 0.930 . S
C2541 C2536 1.390 . S
C2541 C2540 1.387 . S
H2542 C2554 0.930 . S
H2543 C2556 0.930 . S
H2544 C2557 0.930 . S
H2545 C2561 0.959 . S
H2546 C2561 0.959 . S
H2547 C2561 0.961 . S
H2548 C2562 0.960 . S
H2549 C2562 0.961 . S
H2550 C2562 0.959 . S
H2551 C2565 0.929 . S
H2552 C2566 0.931 . S
H2553 C2568 0.930 . S
C2554 H2542 0.930 . S
C2554 C2555 1.399 . S
C2554 C2559 1.399 . S
C2555 C2554 1.399 . S
C2555 C2556 1.376 . S
C2556 H2543 0.930 . S
C2556 C2555 1.376 . S
C2556 C2557 1.388 . S
C2557 H2544 0.930 . S
C2557 C2556 1.388 . S
C2557 C2558 1.390 . S
C2558 C2557 1.390 . S
C2558 C2559 1.394 . S
C2558 C2564 1.465 . S
C2559 C2554 1.399 . S
C2559 C2558 1.394 . S
C2559 C2560 1.516 . S
C2560 C2559 1.516 . S
C2560 C2561 1.502 . S
C2560 C2562 1.561 . S
C2560 C2563 1.526 . S
C2561 H2545 0.959 . S
C2561 H2546 0.959 . S
C2561 H2547 0.961 . S
C2561 C2560 1.502 . S
C2562 H2548 0.960 . S
C2562 H2549 0.961 . S
C2562 H2550 0.959 . S
C2562 C2560 1.561 . S
C2563 C2560 1.526 . S
C2563 C2564 1.396 . S
C2563 C2568 1.390 . S
C2564 C2558 1.465 . S
C2564 C2563 1.396 . S
C2564 C2565 1.399 . S
C2565 H2551 0.929 . S
C2565 C2564 1.399 . S
C2565 C2566 1.385 . S
C2566 H2552 0.931 . S
C2566 C2565 1.385 . S
C2566 C2567 1.389 . S
C2567 C2566 1.389 . S
C2567 C2568 1.387 . S
C2568 H2553 0.930 . S
C2568 C2563 1.390 . S
C2568 C2567 1.387 . S
H2569 C2581 0.930 . S
H2570 C2583 0.930 . S
H2571 C2584 0.930 . S
H2572 C2588 0.959 . S
H2573 C2588 0.959 . S
H2574 C2588 0.961 . S
H2575 C2589 0.960 . S
H2576 C2589 0.961 . S
H2577 C2589 0.959 . S
H2578 C2592 0.929 . S
H2579 C2593 0.931 . S
H2580 C2595 0.930 . S
C2581 H2569 0.930 . S
C2581 C2582 1.399 . S
C2581 C2586 1.399 . S
C2582 C2581 1.399 . S
C2582 C2583 1.376 . S
C2583 H2570 0.930 . S
C2583 C2582 1.376 . S
C2583 C2584 1.388 . S
C2584 H2571 0.930 . S
C2584 C2583 1.388 . S
C2584 C2585 1.390 . S
C2585 C2584 1.390 . S
C2585 C2586 1.394 . S
C2585 C2591 1.465 . S
C2586 C2581 1.399 . S
C2586 C2585 1.394 . S
C2586 C2587 1.516 . S
C2587 C2586 1.516 . S
C2587 C2588 1.502 . S
C2587 C2589 1.561 . S
C2587 C2590 1.526 . S
C2588 H2572 0.959 . S
C2588 H2573 0.959 . S
C2588 H2574 0.961 . S
C2588 C2587 1.502 . S
C2589 H2575 0.960 . S
C2589 H2576 0.961 . S
C2589 H2577 0.959 . S
C2589 C2587 1.561 . S
C2590 C2587 1.526 . S
C2590 C2591 1.396 . S
C2590 C2595 1.390 . S
C2591 C2585 1.465 . S
C2591 C2590 1.396 . S
C2591 C2592 1.399 . S
C2592 H2578 0.929 . S
C2592 C2591 1.399 . S
C2592 C2593 1.385 . S
C2593 H2579 0.931 . S
C2593 C2592 1.385 . S
C2593 C2594 1.389 . S
C2594 C2593 1.389 . S
C2594 C2595 1.387 . S
C2595 H2580 0.930 . S
C2595 C2590 1.390 . S
C2595 C2594 1.387 . S
H2596 C2608 0.930 . S
H2597 C2610 0.930 . S
H2598 C2611 0.930 . S
H2599 C2615 0.959 . S
H2600 C2615 0.959 . S
H2601 C2615 0.961 . S
H2602 C2616 0.960 . S
H2603 C2616 0.961 . S
H2604 C2616 0.959 . S
H2605 C2619 0.929 . S
H2606 C2620 0.931 . S
H2607 C2622 0.930 . S
C2608 H2596 0.930 . S
C2608 C2609 1.399 . S
C2608 C2613 1.399 . S
C2609 C2608 1.399 . S
C2609 C2610 1.376 . S
C2610 H2597 0.930 . S
C2610 C2609 1.376 . S
C2610 C2611 1.388 . S
C2611 H2598 0.930 . S
C2611 C2610 1.388 . S
C2611 C2612 1.390 . S
C2612 C2611 1.390 . S
C2612 C2613 1.394 . S
C2612 C2618 1.465 . S
C2613 C2608 1.399 . S
C2613 C2612 1.394 . S
C2613 C2614 1.516 . S
C2614 C2613 1.516 . S
C2614 C2615 1.502 . S
C2614 C2616 1.561 . S
C2614 C2617 1.526 . S
C2615 H2599 0.959 . S
C2615 H2600 0.959 . S
C2615 H2601 0.961 . S
C2615 C2614 1.502 . S
C2616 H2602 0.960 . S
C2616 H2603 0.961 . S
C2616 H2604 0.959 . S
C2616 C2614 1.561 . S
C2617 C2614 1.526 . S
C2617 C2618 1.396 . S
C2617 C2622 1.390 . S
C2618 C2612 1.465 . S
C2618 C2617 1.396 . S
C2618 C2619 1.399 . S
C2619 H2605 0.929 . S
C2619 C2618 1.399 . S
C2619 C2620 1.385 . S
C2620 H2606 0.931 . S
C2620 C2619 1.385 . S
C2620 C2621 1.389 . S
C2621 C2620 1.389 . S
C2621 C2622 1.387 . S
C2622 H2607 0.930 . S
C2622 C2617 1.390 . S
C2622 C2621 1.387 . S
H2623 C2635 0.930 . S
H2624 C2637 0.930 . S
H2625 C2638 0.930 . S
H2626 C2642 0.959 . S
H2627 C2642 0.959 . S
H2628 C2642 0.961 . S
H2629 C2643 0.960 . S
H2630 C2643 0.961 . S
H2631 C2643 0.959 . S
H2632 C2646 0.929 . S
H2633 C2647 0.931 . S
H2634 C2649 0.930 . S
C2635 H2623 0.930 . S
C2635 C2636 1.399 . S
C2635 C2640 1.399 . S
C2636 C2635 1.399 . S
C2636 C2637 1.376 . S
C2637 H2624 0.930 . S
C2637 C2636 1.376 . S
C2637 C2638 1.388 . S
C2638 H2625 0.930 . S
C2638 C2637 1.388 . S
C2638 C2639 1.390 . S
C2639 C2638 1.390 . S
C2639 C2640 1.394 . S
C2639 C2645 1.465 . S
C2640 C2635 1.399 . S
C2640 C2639 1.394 . S
C2640 C2641 1.516 . S
C2641 C2640 1.516 . S
C2641 C2642 1.502 . S
C2641 C2643 1.561 . S
C2641 C2644 1.526 . S
C2642 H2626 0.959 . S
C2642 H2627 0.959 . S
C2642 H2628 0.961 . S
C2642 C2641 1.502 . S
C2643 H2629 0.960 . S
C2643 H2630 0.961 . S
C2643 H2631 0.959 . S
C2643 C2641 1.561 . S
C2644 C2641 1.526 . S
C2644 C2645 1.396 . S
C2644 C2649 1.390 . S
C2645 C2639 1.465 . S
C2645 C2644 1.396 . S
C2645 C2646 1.399 . S
C2646 H2632 0.929 . S
C2646 C2645 1.399 . S
C2646 C2647 1.385 . S
C2647 H2633 0.931 . S
C2647 C2646 1.385 . S
C2647 C2648 1.389 . S
C2648 C2647 1.389 . S
C2648 C2649 1.387 . S
C2649 H2634 0.930 . S
C2649 C2644 1.390 . S
C2649 C2648 1.387 . S
H2650 C2662 0.930 . S
H2651 C2664 0.930 . S
H2652 C2665 0.930 . S
H2653 C2669 0.959 . S
H2654 C2669 0.959 . S
H2655 C2669 0.961 . S
H2656 C2670 0.960 . S
H2657 C2670 0.961 . S
H2658 C2670 0.959 . S
H2659 C2673 0.929 . S
H2660 C2674 0.931 . S
H2661 C2676 0.930 . S
C2662 H2650 0.930 . S
C2662 C2663 1.399 . S
C2662 C2667 1.399 . S
C2663 C2662 1.399 . S
C2663 C2664 1.376 . S
C2664 H2651 0.930 . S
C2664 C2663 1.376 . S
C2664 C2665 1.388 . S
C2665 H2652 0.930 . S
C2665 C2664 1.388 . S
C2665 C2666 1.390 . S
C2666 C2665 1.390 . S
C2666 C2667 1.394 . S
C2666 C2672 1.465 . S
C2667 C2662 1.399 . S
C2667 C2666 1.394 . S
C2667 C2668 1.516 . S
C2668 C2667 1.516 . S
C2668 C2669 1.502 . S
C2668 C2670 1.561 . S
C2668 C2671 1.526 . S
C2669 H2653 0.959 . S
C2669 H2654 0.959 . S
C2669 H2655 0.961 . S
C2669 C2668 1.502 . S
C2670 H2656 0.960 . S
C2670 H2657 0.961 . S
C2670 H2658 0.959 . S
C2670 C2668 1.561 . S
C2671 C2668 1.526 . S
C2671 C2672 1.396 . S
C2671 C2676 1.390 . S
C2672 C2666 1.465 . S
C2672 C2671 1.396 . S
C2672 C2673 1.399 . S
C2673 H2659 0.929 . S
C2673 C2672 1.399 . S
C2673 C2674 1.385 . S
C2674 H2660 0.931 . S
C2674 C2673 1.385 . S
C2674 C2675 1.389 . S
C2675 C2674 1.389 . S
C2675 C2676 1.387 . S
C2676 H2661 0.930 . S
C2676 C2671 1.390 . S
C2676 C2675 1.387 . S
H2677 C2689 0.930 . S
H2678 C2691 0.930 . S
H2679 C2692 0.930 . S
H2680 C2696 0.959 . S
H2681 C2696 0.959 . S
H2682 C2696 0.961 . S
H2683 C2697 0.960 . S
H2684 C2697 0.961 . S
H2685 C2697 0.959 . S
H2686 C2700 0.929 . S
H2687 C2701 0.931 . S
H2688 C2703 0.930 . S
C2689 H2677 0.930 . S
C2689 C2690 1.399 . S
C2689 C2694 1.399 . S
C2690 C2689 1.399 . S
C2690 C2691 1.376 . S
C2691 H2678 0.930 . S
C2691 C2690 1.376 . S
C2691 C2692 1.388 . S
C2692 H2679 0.930 . S
C2692 C2691 1.388 . S
C2692 C2693 1.390 . S
C2693 C2692 1.390 . S
C2693 C2694 1.394 . S
C2693 C2699 1.465 . S
C2694 C2689 1.399 . S
C2694 C2693 1.394 . S
C2694 C2695 1.516 . S
C2695 C2694 1.516 . S
C2695 C2696 1.502 . S
C2695 C2697 1.561 . S
C2695 C2698 1.526 . S
C2696 H2680 0.959 . S
C2696 H2681 0.959 . S
C2696 H2682 0.961 . S
C2696 C2695 1.502 . S
C2697 H2683 0.960 . S
C2697 H2684 0.961 . S
C2697 H2685 0.959 . S
C2697 C2695 1.561 . S
C2698 C2695 1.526 . S
C2698 C2699 1.396 . S
C2698 C2703 1.390 . S
C2699 C2693 1.465 . S
C2699 C2698 1.396 . S
C2699 C2700 1.399 . S
C2700 H2686 0.929 . S
C2700 C2699 1.399 . S
C2700 C2701 1.385 . S
C2701 H2687 0.931 . S
C2701 C2700 1.385 . S
C2701 C2702 1.389 . S
C2702 C2701 1.389 . S
C2702 C2703 1.387 . S
C2703 H2688 0.930 . S
C2703 C2698 1.390 . S
C2703 C2702 1.387 . S
H2704 C2716 0.930 . S
H2705 C2718 0.930 . S
H2706 C2719 0.930 . S
H2707 C2723 0.959 . S
H2708 C2723 0.959 . S
H2709 C2723 0.961 . S
H2710 C2724 0.960 . S
H2711 C2724 0.961 . S
H2712 C2724 0.959 . S
H2713 C2727 0.929 . S
H2714 C2728 0.931 . S
H2715 C2730 0.930 . S
C2716 H2704 0.930 . S
C2716 C2717 1.399 . S
C2716 C2721 1.399 . S
C2717 C2716 1.399 . S
C2717 C2718 1.376 . S
C2718 H2705 0.930 . S
C2718 C2717 1.376 . S
C2718 C2719 1.388 . S
C2719 H2706 0.930 . S
C2719 C2718 1.388 . S
C2719 C2720 1.390 . S
C2720 C2719 1.390 . S
C2720 C2721 1.394 . S
C2720 C2726 1.465 . S
C2721 C2716 1.399 . S
C2721 C2720 1.394 . S
C2721 C2722 1.516 . S
C2722 C2721 1.516 . S
C2722 C2723 1.502 . S
C2722 C2724 1.561 . S
C2722 C2725 1.526 . S
C2723 H2707 0.959 . S
C2723 H2708 0.959 . S
C2723 H2709 0.961 . S
C2723 C2722 1.502 . S
C2724 H2710 0.960 . S
C2724 H2711 0.961 . S
C2724 H2712 0.959 . S
C2724 C2722 1.561 . S
C2725 C2722 1.526 . S
C2725 C2726 1.396 . S
C2725 C2730 1.390 . S
C2726 C2720 1.465 . S
C2726 C2725 1.396 . S
C2726 C2727 1.399 . S
C2727 H2713 0.929 . S
C2727 C2726 1.399 . S
C2727 C2728 1.385 . S
C2728 H2714 0.931 . S
C2728 C2727 1.385 . S
C2728 C2729 1.389 . S
C2729 C2728 1.389 . S
C2729 C2730 1.387 . S
C2730 H2715 0.930 . S
C2730 C2725 1.390 . S
C2730 C2729 1.387 . S
H2731 C2743 0.930 . S
H2732 C2745 0.930 . S
H2733 C2746 0.930 . S
H2734 C2750 0.959 . S
H2735 C2750 0.959 . S
H2736 C2750 0.961 . S
H2737 C2751 0.960 . S
H2738 C2751 0.961 . S
H2739 C2751 0.959 . S
H2740 C2754 0.929 . S
H2741 C2755 0.931 . S
H2742 C2757 0.930 . S
C2743 H2731 0.930 . S
C2743 C2744 1.399 . S
C2743 C2748 1.399 . S
C2744 C2743 1.399 . S
C2744 C2745 1.376 . S
C2745 H2732 0.930 . S
C2745 C2744 1.376 . S
C2745 C2746 1.388 . S
C2746 H2733 0.930 . S
C2746 C2745 1.388 . S
C2746 C2747 1.390 . S
C2747 C2746 1.390 . S
C2747 C2748 1.394 . S
C2747 C2753 1.465 . S
C2748 C2743 1.399 . S
C2748 C2747 1.394 . S
C2748 C2749 1.516 . S
C2749 C2748 1.516 . S
C2749 C2750 1.502 . S
C2749 C2751 1.561 . S
C2749 C2752 1.526 . S
C2750 H2734 0.959 . S
C2750 H2735 0.959 . S
C2750 H2736 0.961 . S
C2750 C2749 1.502 . S
C2751 H2737 0.960 . S
C2751 H2738 0.961 . S
C2751 H2739 0.959 . S
C2751 C2749 1.561 . S
C2752 C2749 1.526 . S
C2752 C2753 1.396 . S
C2752 C2757 1.390 . S
C2753 C2747 1.465 . S
C2753 C2752 1.396 . S
C2753 C2754 1.399 . S
C2754 H2740 0.929 . S
C2754 C2753 1.399 . S
C2754 C2755 1.385 . S
C2755 H2741 0.931 . S
C2755 C2754 1.385 . S
C2755 C2756 1.389 . S
C2756 C2755 1.389 . S
C2756 C2757 1.387 . S
C2757 H2742 0.930 . S
C2757 C2752 1.390 . S
C2757 C2756 1.387 . S
H2758 C2770 0.930 . S
H2759 C2772 0.930 . S
H2760 C2773 0.930 . S
H2761 C2777 0.959 . S
H2762 C2777 0.959 . S
H2763 C2777 0.961 . S
H2764 C2778 0.960 . S
H2765 C2778 0.961 . S
H2766 C2778 0.959 . S
H2767 C2781 0.929 . S
H2768 C2782 0.931 . S
H2769 C2784 0.930 . S
C2770 H2758 0.930 . S
C2770 C2771 1.399 . S
C2770 C2775 1.399 . S
C2771 C2770 1.399 . S
C2771 C2772 1.376 . S
C2772 H2759 0.930 . S
C2772 C2771 1.376 . S
C2772 C2773 1.388 . S
C2773 H2760 0.930 . S
C2773 C2772 1.388 . S
C2773 C2774 1.390 . S
C2774 C2773 1.390 . S
C2774 C2775 1.394 . S
C2774 C2780 1.465 . S
C2775 C2770 1.399 . S
C2775 C2774 1.394 . S
C2775 C2776 1.516 . S
C2776 C2775 1.516 . S
C2776 C2777 1.502 . S
C2776 C2778 1.561 . S
C2776 C2779 1.526 . S
C2777 H2761 0.959 . S
C2777 H2762 0.959 . S
C2777 H2763 0.961 . S
C2777 C2776 1.502 . S
C2778 H2764 0.960 . S
C2778 H2765 0.961 . S
C2778 H2766 0.959 . S
C2778 C2776 1.561 . S
C2779 C2776 1.526 . S
C2779 C2780 1.396 . S
C2779 C2784 1.390 . S
C2780 C2774 1.465 . S
C2780 C2779 1.396 . S
C2780 C2781 1.399 . S
C2781 H2767 0.929 . S
C2781 C2780 1.399 . S
C2781 C2782 1.385 . S
C2782 H2768 0.931 . S
C2782 C2781 1.385 . S
C2782 C2783 1.389 . S
C2783 C2782 1.389 . S
C2783 C2784 1.387 . S
C2784 H2769 0.930 . S
C2784 C2779 1.390 . S
C2784 C2783 1.387 . S
H2785 C2797 0.930 . S
H2786 C2799 0.930 . S
H2787 C2800 0.930 . S
H2788 C2804 0.959 . S
H2789 C2804 0.959 . S
H2790 C2804 0.961 . S
H2791 C2805 0.960 . S
H2792 C2805 0.961 . S
H2793 C2805 0.959 . S
H2794 C2808 0.929 . S
H2795 C2809 0.931 . S
H2796 C2811 0.930 1_556 S
C2797 H2785 0.930 . S
C2797 C2798 1.399 1_556 S
C2797 C2802 1.399 1_556 S
C2798 C2797 1.399 1_554 S
C2798 C2799 1.376 . S
C2799 H2786 0.930 . S
C2799 C2798 1.376 . S
C2799 C2800 1.388 . S
C2800 H2787 0.930 . S
C2800 C2799 1.388 . S
C2800 C2801 1.390 . S
C2801 C2800 1.390 . S
C2801 C2802 1.394 . S
C2801 C2807 1.465 . S
C2802 C2797 1.399 1_554 S
C2802 C2801 1.394 . S
C2802 C2803 1.516 1_554 S
C2803 C2802 1.516 1_556 S
C2803 C2804 1.502 . S
C2803 C2805 1.561 . S
C2803 C2806 1.526 1_556 S
C2804 H2788 0.959 . S
C2804 H2789 0.959 . S
C2804 H2790 0.961 . S
C2804 C2803 1.502 . S
C2805 H2791 0.960 . S
C2805 H2792 0.961 . S
C2805 H2793 0.959 . S
C2805 C2803 1.561 . S
C2806 C2803 1.526 1_554 S
C2806 C2807 1.396 . S
C2806 C2811 1.390 . S
C2807 C2801 1.465 . S
C2807 C2806 1.396 . S
C2807 C2808 1.399 . S
C2808 H2794 0.929 . S
C2808 C2807 1.399 . S
C2808 C2809 1.385 . S
C2809 H2795 0.931 . S
C2809 C2808 1.385 . S
C2809 C2810 1.389 . S
C2810 C2809 1.389 . S
C2810 C2811 1.387 . S
C2811 H2796 0.930 1_554 S
C2811 C2806 1.390 . S
C2811 C2810 1.387 . S
H2812 C2824 0.930 . S
H2813 C2826 0.930 . S
H2814 C2827 0.930 . S
H2815 C2831 0.959 . S
H2816 C2831 0.959 . S
H2817 C2831 0.961 . S
H2818 C2832 0.960 . S
H2819 C2832 0.961 . S
H2820 C2832 0.959 . S
H2821 C2835 0.929 . S
H2822 C2836 0.931 . S
H2823 C2838 0.930 . S
C2824 H2812 0.930 . S
C2824 C2825 1.399 . S
C2824 C2829 1.399 . S
C2825 C2824 1.399 . S
C2825 C2826 1.376 . S
C2826 H2813 0.930 . S
C2826 C2825 1.376 . S
C2826 C2827 1.388 . S
C2827 H2814 0.930 . S
C2827 C2826 1.388 . S
C2827 C2828 1.390 . S
C2828 C2827 1.390 . S
C2828 C2829 1.394 . S
C2828 C2834 1.465 . S
C2829 C2824 1.399 . S
C2829 C2828 1.394 . S
C2829 C2830 1.516 . S
C2830 C2829 1.516 . S
C2830 C2831 1.502 . S
C2830 C2832 1.561 . S
C2830 C2833 1.526 . S
C2831 H2815 0.959 . S
C2831 H2816 0.959 . S
C2831 H2817 0.961 . S
C2831 C2830 1.502 . S
C2832 H2818 0.960 . S
C2832 H2819 0.961 . S
C2832 H2820 0.959 . S
C2832 C2830 1.561 . S
C2833 C2830 1.526 . S
C2833 C2834 1.396 . S
C2833 C2838 1.390 . S
C2834 C2828 1.465 . S
C2834 C2833 1.396 . S
C2834 C2835 1.399 . S
C2835 H2821 0.929 . S
C2835 C2834 1.399 . S
C2835 C2836 1.385 . S
C2836 H2822 0.931 . S
C2836 C2835 1.385 . S
C2836 C2837 1.389 . S
C2837 C2836 1.389 . S
C2837 C2838 1.387 . S
C2838 H2823 0.930 . S
C2838 C2833 1.390 . S
C2838 C2837 1.387 . S
H2839 C2851 0.930 . S
H2840 C2853 0.930 . S
H2841 C2854 0.930 . S
H2842 C2858 0.959 . S
H2843 C2858 0.959 . S
H2844 C2858 0.961 . S
H2845 C2859 0.960 . S
H2846 C2859 0.961 . S
H2847 C2859 0.959 . S
H2848 C2862 0.929 . S
H2849 C2863 0.931 . S
H2850 C2865 0.930 . S
C2851 H2839 0.930 . S
C2851 C2852 1.399 . S
C2851 C2856 1.399 . S
C2852 C2851 1.399 . S
C2852 C2853 1.376 . S
C2853 H2840 0.930 . S
C2853 C2852 1.376 . S
C2853 C2854 1.388 . S
C2854 H2841 0.930 . S
C2854 C2853 1.388 . S
C2854 C2855 1.390 . S
C2855 C2854 1.390 . S
C2855 C2856 1.394 . S
C2855 C2861 1.465 . S
C2856 C2851 1.399 . S
C2856 C2855 1.394 . S
C2856 C2857 1.516 . S
C2857 C2856 1.516 . S
C2857 C2858 1.502 . S
C2857 C2859 1.561 . S
C2857 C2860 1.526 . S
C2858 H2842 0.959 . S
C2858 H2843 0.959 . S
C2858 H2844 0.961 . S
C2858 C2857 1.502 . S
C2859 H2845 0.960 . S
C2859 H2846 0.961 . S
C2859 H2847 0.959 . S
C2859 C2857 1.561 . S
C2860 C2857 1.526 . S
C2860 C2861 1.396 . S
C2860 C2865 1.390 . S
C2861 C2855 1.465 . S
C2861 C2860 1.396 . S
C2861 C2862 1.399 . S
C2862 H2848 0.929 . S
C2862 C2861 1.399 . S
C2862 C2863 1.385 . S
C2863 H2849 0.931 . S
C2863 C2862 1.385 . S
C2863 C2864 1.389 . S
C2864 C2863 1.389 . S
C2864 C2865 1.387 . S
C2865 H2850 0.930 . S
C2865 C2860 1.390 . S
C2865 C2864 1.387 . S
H2866 C2878 0.930 . S
H2867 C2880 0.930 . S
H2868 C2881 0.930 . S
H2869 C2885 0.959 . S
H2870 C2885 0.959 . S
H2871 C2885 0.961 . S
H2872 C2886 0.960 . S
H2873 C2886 0.961 . S
H2874 C2886 0.959 . S
H2875 C2889 0.929 . S
H2876 C2890 0.931 . S
H2877 C2892 0.930 . S
C2878 H2866 0.930 . S
C2878 C2879 1.399 . S
C2878 C2883 1.399 . S
C2879 C2878 1.399 . S
C2879 C2880 1.376 . S
C2880 H2867 0.930 . S
C2880 C2879 1.376 . S
C2880 C2881 1.388 . S
C2881 H2868 0.930 . S
C2881 C2880 1.388 . S
C2881 C2882 1.390 . S
C2882 C2881 1.390 . S
C2882 C2883 1.394 . S
C2882 C2888 1.465 . S
C2883 C2878 1.399 . S
C2883 C2882 1.394 . S
C2883 C2884 1.516 . S
C2884 C2883 1.516 . S
C2884 C2885 1.502 . S
C2884 C2886 1.561 . S
C2884 C2887 1.526 . S
C2885 H2869 0.959 . S
C2885 H2870 0.959 . S
C2885 H2871 0.961 . S
C2885 C2884 1.502 . S
C2886 H2872 0.960 . S
C2886 H2873 0.961 . S
C2886 H2874 0.959 . S
C2886 C2884 1.561 . S
C2887 C2884 1.526 . S
C2887 C2888 1.396 . S
C2887 C2892 1.390 . S
C2888 C2882 1.465 . S
C2888 C2887 1.396 . S
C2888 C2889 1.399 . S
C2889 H2875 0.929 . S
C2889 C2888 1.399 . S
C2889 C2890 1.385 . S
C2890 H2876 0.931 . S
C2890 C2889 1.385 . S
C2890 C2891 1.389 . S
C2891 C2890 1.389 . S
C2891 C2892 1.387 . S
C2892 H2877 0.930 . S
C2892 C2887 1.390 . S
C2892 C2891 1.387 . S
H2893 C2905 0.930 . S
H2894 C2907 0.930 . S
H2895 C2908 0.930 . S
H2896 C2912 0.959 . S
H2897 C2912 0.959 . S
H2898 C2912 0.961 . S
H2899 C2913 0.960 . S
H2900 C2913 0.961 . S
H2901 C2913 0.959 . S
H2902 C2916 0.929 . S
H2903 C2917 0.931 . S
H2904 C2919 0.930 . S
C2905 H2893 0.930 . S
C2905 C2906 1.399 . S
C2905 C2910 1.399 . S
C2906 C2905 1.399 . S
C2906 C2907 1.376 . S
C2907 H2894 0.930 . S
C2907 C2906 1.376 . S
C2907 C2908 1.388 . S
C2908 H2895 0.930 . S
C2908 C2907 1.388 . S
C2908 C2909 1.390 . S
C2909 C2908 1.390 . S
C2909 C2910 1.394 . S
C2909 C2915 1.465 . S
C2910 C2905 1.399 . S
C2910 C2909 1.394 . S
C2910 C2911 1.516 . S
C2911 C2910 1.516 . S
C2911 C2912 1.502 . S
C2911 C2913 1.561 . S
C2911 C2914 1.526 . S
C2912 H2896 0.959 . S
C2912 H2897 0.959 . S
C2912 H2898 0.961 . S
C2912 C2911 1.502 . S
C2913 H2899 0.960 . S
C2913 H2900 0.961 . S
C2913 H2901 0.959 . S
C2913 C2911 1.561 . S
C2914 C2911 1.526 . S
C2914 C2915 1.396 . S
C2914 C2919 1.390 . S
C2915 C2909 1.465 . S
C2915 C2914 1.396 . S
C2915 C2916 1.399 . S
C2916 H2902 0.929 . S
C2916 C2915 1.399 . S
C2916 C2917 1.385 . S
C2917 H2903 0.931 . S
C2917 C2916 1.385 . S
C2917 C2918 1.389 . S
C2918 C2917 1.389 . S
C2918 C2919 1.387 . S
C2919 H2904 0.930 . S
C2919 C2914 1.390 . S
C2919 C2918 1.387 . S
H2920 C2932 0.930 . S
H2921 C2934 0.930 . S
H2922 C2935 0.930 . S
H2923 C2939 0.959 . S
H2924 C2939 0.959 . S
H2925 C2939 0.961 . S
H2926 C2940 0.960 . S
H2927 C2940 0.961 . S
H2928 C2940 0.959 . S
H2929 C2943 0.929 . S
H2930 C2944 0.931 . S
H2931 C2946 0.930 . S
C2932 H2920 0.930 . S
C2932 C2933 1.399 . S
C2932 C2937 1.399 . S
C2933 C2932 1.399 . S
C2933 C2934 1.376 . S
C2934 H2921 0.930 . S
C2934 C2933 1.376 . S
C2934 C2935 1.388 . S
C2935 H2922 0.930 . S
C2935 C2934 1.388 . S
C2935 C2936 1.390 . S
C2936 C2935 1.390 . S
C2936 C2937 1.394 . S
C2936 C2942 1.465 . S
C2937 C2932 1.399 . S
C2937 C2936 1.394 . S
C2937 C2938 1.516 . S
C2938 C2937 1.516 . S
C2938 C2939 1.502 . S
C2938 C2940 1.561 . S
C2938 C2941 1.526 . S
C2939 H2923 0.959 . S
C2939 H2924 0.959 . S
C2939 H2925 0.961 . S
C2939 C2938 1.502 . S
C2940 H2926 0.960 . S
C2940 H2927 0.961 . S
C2940 H2928 0.959 . S
C2940 C2938 1.561 . S
C2941 C2938 1.526 . S
C2941 C2942 1.396 . S
C2941 C2946 1.390 . S
C2942 C2936 1.465 . S
C2942 C2941 1.396 . S
C2942 C2943 1.399 . S
C2943 H2929 0.929 . S
C2943 C2942 1.399 . S
C2943 C2944 1.385 . S
C2944 H2930 0.931 . S
C2944 C2943 1.385 . S
C2944 C2945 1.389 . S
C2945 C2944 1.389 . S
C2945 C2946 1.387 . S
C2946 H2931 0.930 . S
C2946 C2941 1.390 . S
C2946 C2945 1.387 . S
H2947 C2959 0.930 . S
H2948 C2961 0.930 . S
H2949 C2962 0.930 . S
H2950 C2966 0.959 . S
H2951 C2966 0.959 . S
H2952 C2966 0.961 . S
H2953 C2967 0.960 . S
H2954 C2967 0.961 . S
H2955 C2967 0.959 . S
H2956 C2970 0.929 . S
H2957 C2971 0.931 . S
H2958 C2973 0.930 . S
C2959 H2947 0.930 . S
C2959 C2960 1.399 . S
C2959 C2964 1.399 . S
C2960 C2959 1.399 . S
C2960 C2961 1.376 . S
C2961 H2948 0.930 . S
C2961 C2960 1.376 . S
C2961 C2962 1.388 . S
C2962 H2949 0.930 . S
C2962 C2961 1.388 . S
C2962 C2963 1.390 . S
C2963 C2962 1.390 . S
C2963 C2964 1.394 . S
C2963 C2969 1.465 . S
C2964 C2959 1.399 . S
C2964 C2963 1.394 . S
C2964 C2965 1.516 . S
C2965 C2964 1.516 . S
C2965 C2966 1.502 . S
C2965 C2967 1.561 . S
C2965 C2968 1.526 . S
C2966 H2950 0.959 . S
C2966 H2951 0.959 . S
C2966 H2952 0.961 . S
C2966 C2965 1.502 . S
C2967 H2953 0.960 . S
C2967 H2954 0.961 . S
C2967 H2955 0.959 . S
C2967 C2965 1.561 . S
C2968 C2965 1.526 . S
C2968 C2969 1.396 . S
C2968 C2973 1.390 . S
C2969 C2963 1.465 . S
C2969 C2968 1.396 . S
C2969 C2970 1.399 . S
C2970 H2956 0.929 . S
C2970 C2969 1.399 . S
C2970 C2971 1.385 . S
C2971 H2957 0.931 . S
C2971 C2970 1.385 . S
C2971 C2972 1.389 . S
C2972 C2971 1.389 . S
C2972 C2973 1.387 . S
C2973 H2958 0.930 . S
C2973 C2968 1.390 . S
C2973 C2972 1.387 . S
H2974 C2986 0.930 . S
H2975 C2988 0.930 . S
H2976 C2989 0.930 . S
H2977 C2993 0.959 1_655 S
H2978 C2993 0.957 1_655 S
H2979 C2993 0.961 . S
H2980 C2994 0.960 . S
H2981 C2994 0.961 . S
H2982 C2994 0.959 . S
H2983 C2997 0.929 . S
H2984 C2998 0.931 . S
H2985 C3000 0.930 . S
C2986 H2974 0.930 . S
C2986 C2987 1.399 . S
C2986 C2991 1.399 . S
C2987 C2986 1.399 . S
C2987 C2988 1.376 . S
C2988 H2975 0.930 . S
C2988 C2987 1.376 . S
C2988 C2989 1.388 . S
C2989 H2976 0.930 . S
C2989 C2988 1.388 . S
C2989 C2990 1.390 . S
C2990 C2989 1.390 . S
C2990 C2991 1.394 . S
C2990 C2996 1.465 . S
C2991 C2986 1.399 . S
C2991 C2990 1.394 . S
C2991 C2992 1.516 . S
C2992 C2991 1.516 . S
C2992 C2993 1.502 . S
C2992 C2994 1.561 . S
C2992 C2995 1.526 . S
C2993 H2977 0.959 1_455 S
C2993 H2978 0.957 1_455 S
C2993 H2979 0.961 . S
C2993 C2992 1.502 . S
C2994 H2980 0.960 . S
C2994 H2981 0.961 . S
C2994 H2982 0.959 . S
C2994 C2992 1.561 . S
C2995 C2992 1.526 . S
C2995 C2996 1.396 . S
C2995 C3000 1.390 . S
C2996 C2990 1.465 . S
C2996 C2995 1.396 . S
C2996 C2997 1.399 . S
C2997 H2983 0.929 . S
C2997 C2996 1.399 . S
C2997 C2998 1.385 . S
C2998 H2984 0.931 . S
C2998 C2997 1.385 . S
C2998 C2999 1.389 . S
C2999 C2998 1.389 . S
C2999 C3000 1.387 . S
C3000 H2985 0.930 . S
C3000 C2995 1.390 . S
C3000 C2999 1.387 . S
H3001 C3013 0.930 . S
H3002 C3015 0.930 . S
H3003 C3016 0.930 . S
H3004 C3020 0.959 . S
H3005 C3020 0.959 . S
H3006 C3020 0.961 . S
H3007 C3021 0.960 . S
H3008 C3021 0.961 . S
H3009 C3021 0.959 . S
H3010 C3024 0.929 . S
H3011 C3025 0.931 . S
H3012 C3027 0.930 . S
C3013 H3001 0.930 . S
C3013 C3014 1.399 . S
C3013 C3018 1.399 . S
C3014 C3013 1.399 . S
C3014 C3015 1.376 . S
C3015 H3002 0.930 . S
C3015 C3014 1.376 . S
C3015 C3016 1.388 . S
C3016 H3003 0.930 . S
C3016 C3015 1.388 . S
C3016 C3017 1.390 . S
C3017 C3016 1.390 . S
C3017 C3018 1.394 . S
C3017 C3023 1.465 . S
C3018 C3013 1.399 . S
C3018 C3017 1.394 . S
C3018 C3019 1.516 . S
C3019 C3018 1.516 . S
C3019 C3020 1.502 . S
C3019 C3021 1.561 . S
C3019 C3022 1.526 . S
C3020 H3004 0.959 . S
C3020 H3005 0.959 . S
C3020 H3006 0.961 . S
C3020 C3019 1.502 . S
C3021 H3007 0.960 . S
C3021 H3008 0.961 . S
C3021 H3009 0.959 . S
C3021 C3019 1.561 . S
C3022 C3019 1.526 . S
C3022 C3023 1.396 . S
C3022 C3027 1.390 . S
C3023 C3017 1.465 . S
C3023 C3022 1.396 . S
C3023 C3024 1.399 . S
C3024 H3010 0.929 . S
C3024 C3023 1.399 . S
C3024 C3025 1.385 . S
C3025 H3011 0.931 . S
C3025 C3024 1.385 . S
C3025 C3026 1.389 . S
C3026 C3025 1.389 . S
C3026 C3027 1.387 . S
C3027 H3012 0.930 . S
C3027 C3022 1.390 . S
C3027 C3026 1.387 . S
H3028 C3040 0.930 . S
H3029 C3042 0.930 . S
H3030 C3043 0.930 . S
H3031 C3047 0.959 . S
H3032 C3047 0.959 . S
H3033 C3047 0.961 . S
H3034 C3048 0.960 . S
H3035 C3048 0.961 . S
H3036 C3048 0.959 . S
H3037 C3051 0.929 . S
H3038 C3052 0.931 1_554 S
H3039 C3054 0.930 . S
C3040 H3028 0.930 . S
C3040 C3041 1.399 . S
C3040 C3045 1.399 . S
C3041 C3040 1.399 . S
C3041 C3042 1.376 . S
C3042 H3029 0.930 . S
C3042 C3041 1.376 . S
C3042 C3043 1.388 . S
C3043 H3030 0.930 . S
C3043 C3042 1.388 . S
C3043 C3044 1.390 . S
C3044 C3043 1.390 . S
C3044 C3045 1.394 . S
C3044 C3050 1.465 . S
C3045 C3040 1.399 . S
C3045 C3044 1.394 . S
C3045 C3046 1.516 . S
C3046 C3045 1.516 . S
C3046 C3047 1.502 . S
C3046 C3048 1.561 . S
C3046 C3049 1.526 . S
C3047 H3031 0.959 . S
C3047 H3032 0.959 . S
C3047 H3033 0.961 . S
C3047 C3046 1.502 . S
C3048 H3034 0.960 . S
C3048 H3035 0.961 . S
C3048 H3036 0.959 . S
C3048 C3046 1.561 . S
C3049 C3046 1.526 . S
C3049 C3050 1.396 . S
C3049 C3054 1.390 . S
C3050 C3044 1.465 . S
C3050 C3049 1.396 . S
C3050 C3051 1.399 . S
C3051 H3037 0.929 . S
C3051 C3050 1.399 . S
C3051 C3052 1.385 . S
C3052 H3038 0.931 1_556 S
C3052 C3051 1.385 . S
C3052 C3053 1.389 . S
C3053 C3052 1.389 . S
C3053 C3054 1.387 . S
C3054 H3039 0.930 . S
C3054 C3049 1.390 . S
C3054 C3053 1.387 . S
H3055 C3067 0.930 . S
H3056 C3069 0.930 . S
H3057 C3070 0.930 . S
H3058 C3074 0.959 . S
H3059 C3074 0.959 . S
H3060 C3074 0.961 . S
H3061 C3075 0.960 . S
H3062 C3075 0.961 . S
H3063 C3075 0.959 . S
H3064 C3078 0.929 . S
H3065 C3079 0.931 . S
H3066 C3081 0.930 . S
C3067 H3055 0.930 . S
C3067 C3068 1.399 . S
C3067 C3072 1.399 . S
C3068 C3067 1.399 . S
C3068 C3069 1.376 . S
C3069 H3056 0.930 . S
C3069 C3068 1.376 . S
C3069 C3070 1.388 . S
C3070 H3057 0.930 . S
C3070 C3069 1.388 . S
C3070 C3071 1.390 . S
C3071 C3070 1.390 . S
C3071 C3072 1.394 . S
C3071 C3077 1.465 . S
C3072 C3067 1.399 . S
C3072 C3071 1.394 . S
C3072 C3073 1.516 . S
C3073 C3072 1.516 . S
C3073 C3074 1.502 . S
C3073 C3075 1.561 . S
C3073 C3076 1.526 . S
C3074 H3058 0.959 . S
C3074 H3059 0.959 . S
C3074 H3060 0.961 . S
C3074 C3073 1.502 . S
C3075 H3061 0.960 . S
C3075 H3062 0.961 . S
C3075 H3063 0.959 . S
C3075 C3073 1.561 . S
C3076 C3073 1.526 . S
C3076 C3077 1.396 . S
C3076 C3081 1.390 . S
C3077 C3071 1.465 . S
C3077 C3076 1.396 . S
C3077 C3078 1.399 . S
C3078 H3064 0.929 . S
C3078 C3077 1.399 . S
C3078 C3079 1.385 . S
C3079 H3065 0.931 . S
C3079 C3078 1.385 . S
C3079 C3080 1.389 . S
C3080 C3079 1.389 . S
C3080 C3081 1.387 . S
C3081 H3066 0.930 . S
C3081 C3076 1.390 . S
C3081 C3080 1.387 . S
H3082 C3094 0.936 . S
H3083 C3096 0.930 . S
H3084 C3097 0.930 . S
H3085 C3101 0.959 . S
H3086 C3101 0.959 . S
H3087 C3101 0.961 . S
H3088 C3102 0.960 . S
H3089 C3102 0.961 . S
H3090 C3102 0.959 . S
H3091 C3105 0.929 . S
H3092 C3106 0.931 . S
H3093 C3108 0.930 . S
C3094 H3082 0.936 . S
C3094 C3095 1.399 . S
C3094 C3099 1.399 . S
C3095 C3094 1.399 . S
C3095 C3096 1.376 . S
C3096 H3083 0.930 . S
C3096 C3095 1.376 . S
C3096 C3097 1.388 . S
C3097 H3084 0.930 . S
C3097 C3096 1.388 . S
C3097 C3098 1.390 . S
C3098 C3097 1.390 . S
C3098 C3099 1.394 . S
C3098 C3104 1.465 . S
C3099 C3094 1.399 . S
C3099 C3098 1.394 . S
C3099 C3100 1.516 . S
C3100 C3099 1.516 . S
C3100 C3101 1.502 1_455 S
C3100 C3102 1.561 . S
C3100 C3103 1.526 . S
C3101 H3085 0.959 . S
C3101 H3086 0.959 . S
C3101 H3087 0.961 . S
C3101 C3100 1.502 1_655 S
C3102 H3088 0.960 . S
C3102 H3089 0.961 . S
C3102 H3090 0.959 . S
C3102 C3100 1.561 . S
C3103 C3100 1.526 . S
C3103 C3104 1.396 . S
C3103 C3108 1.390 . S
C3104 C3098 1.465 . S
C3104 C3103 1.396 . S
C3104 C3105 1.399 . S
C3105 H3091 0.929 . S
C3105 C3104 1.399 . S
C3105 C3106 1.385 . S
C3106 H3092 0.931 . S
C3106 C3105 1.385 . S
C3106 C3107 1.389 . S
C3107 C3106 1.389 . S
C3107 C3108 1.387 . S
C3108 H3093 0.930 . S
C3108 C3103 1.390 . S
C3108 C3107 1.387 . S
H3109 C3121 0.930 . S
H3110 C3123 0.930 . S
H3111 C3124 0.930 . S
H3112 C3128 0.959 . S
H3113 C3128 0.959 . S
H3114 C3128 0.961 . S
H3115 C3129 0.960 . S
H3116 C3129 0.961 . S
H3117 C3129 0.959 . S
H3118 C3132 0.929 . S
H3119 C3133 0.931 . S
H3120 C3135 0.930 . S
C3121 H3109 0.930 . S
C3121 C3122 1.399 . S
C3121 C3126 1.399 . S
C3122 C3121 1.399 . S
C3122 C3123 1.376 . S
C3123 H3110 0.930 . S
C3123 C3122 1.376 . S
C3123 C3124 1.388 . S
C3124 H3111 0.930 . S
C3124 C3123 1.388 . S
C3124 C3125 1.390 . S
C3125 C3124 1.390 . S
C3125 C3126 1.394 . S
C3125 C3131 1.465 . S
C3126 C3121 1.399 . S
C3126 C3125 1.394 . S
C3126 C3127 1.516 . S
C3127 C3126 1.516 . S
C3127 C3128 1.502 . S
C3127 C3129 1.561 . S
C3127 C3130 1.526 . S
C3128 H3112 0.959 . S
C3128 H3113 0.959 . S
C3128 H3114 0.961 . S
C3128 C3127 1.502 . S
C3129 H3115 0.960 . S
C3129 H3116 0.961 . S
C3129 H3117 0.959 . S
C3129 C3127 1.561 . S
C3130 C3127 1.526 . S
C3130 C3131 1.396 . S
C3130 C3135 1.390 . S
C3131 C3125 1.465 . S
C3131 C3130 1.396 . S
C3131 C3132 1.399 . S
C3132 H3118 0.929 . S
C3132 C3131 1.399 . S
C3132 C3133 1.385 . S
C3133 H3119 0.931 . S
C3133 C3132 1.385 . S
C3133 C3134 1.389 . S
C3134 C3133 1.389 . S
C3134 C3135 1.387 . S
C3135 H3120 0.930 . S
C3135 C3130 1.390 . S
C3135 C3134 1.387 . S
H3136 C3148 0.930 . S
H3137 C3150 0.930 . S
H3138 C3151 0.930 . S
H3139 C3155 0.959 . S
H3140 C3155 0.959 . S
H3141 C3155 0.961 . S
H3142 C3156 0.960 . S
H3143 C3156 0.961 . S
H3144 C3156 0.959 . S
H3145 C3159 0.929 . S
H3146 C3160 0.931 . S
H3147 C3162 0.930 . S
C3148 H3136 0.930 . S
C3148 C3149 1.399 . S
C3148 C3153 1.399 . S
C3149 C3148 1.399 . S
C3149 C3150 1.376 . S
C3150 H3137 0.930 . S
C3150 C3149 1.376 . S
C3150 C3151 1.388 . S
C3151 H3138 0.930 . S
C3151 C3150 1.388 . S
C3151 C3152 1.390 . S
C3152 C3151 1.390 . S
C3152 C3153 1.394 . S
C3152 C3158 1.465 . S
C3153 C3148 1.399 . S
C3153 C3152 1.394 . S
C3153 C3154 1.516 . S
C3154 C3153 1.516 . S
C3154 C3155 1.502 . S
C3154 C3156 1.561 . S
C3154 C3157 1.526 . S
C3155 H3139 0.959 . S
C3155 H3140 0.959 . S
C3155 H3141 0.961 . S
C3155 C3154 1.502 . S
C3156 H3142 0.960 . S
C3156 H3143 0.961 . S
C3156 H3144 0.959 . S
C3156 C3154 1.561 . S
C3157 C3154 1.526 . S
C3157 C3158 1.396 . S
C3157 C3162 1.390 . S
C3158 C3152 1.465 . S
C3158 C3157 1.396 . S
C3158 C3159 1.399 . S
C3159 H3145 0.929 . S
C3159 C3158 1.399 . S
C3159 C3160 1.385 . S
C3160 H3146 0.931 . S
C3160 C3159 1.385 . S
C3160 C3161 1.389 . S
C3161 C3160 1.389 . S
C3161 C3162 1.387 . S
C3162 H3147 0.930 . S
C3162 C3157 1.390 . S
C3162 C3161 1.387 . S
H3163 C3175 0.930 . S
H3164 C3177 0.930 . S
H3165 C3178 0.930 . S
H3166 C3182 0.959 . S
H3167 C3182 0.959 . S
H3168 C3182 0.961 . S
H3169 C3183 0.960 . S
H3170 C3183 0.961 . S
H3171 C3183 0.959 . S
H3172 C3186 0.929 . S
H3173 C3187 0.931 . S
H3174 C3189 0.930 . S
C3175 H3163 0.930 . S
C3175 C3176 1.399 . S
C3175 C3180 1.399 . S
C3176 C3175 1.399 . S
C3176 C3177 1.376 . S
C3177 H3164 0.930 . S
C3177 C3176 1.376 . S
C3177 C3178 1.388 . S
C3178 H3165 0.930 . S
C3178 C3177 1.388 . S
C3178 C3179 1.390 . S
C3179 C3178 1.390 . S
C3179 C3180 1.394 . S
C3179 C3185 1.465 . S
C3180 C3175 1.399 . S
C3180 C3179 1.394 . S
C3180 C3181 1.516 . S
C3181 C3180 1.516 . S
C3181 C3182 1.502 . S
C3181 C3183 1.561 . S
C3181 C3184 1.526 . S
C3182 H3166 0.959 . S
C3182 H3167 0.959 . S
C3182 H3168 0.961 . S
C3182 C3181 1.502 . S
C3183 H3169 0.960 . S
C3183 H3170 0.961 . S
C3183 H3171 0.959 . S
C3183 C3181 1.561 . S
C3184 C3181 1.526 . S
C3184 C3185 1.396 . S
C3184 C3189 1.390 . S
C3185 C3179 1.465 . S
C3185 C3184 1.396 . S
C3185 C3186 1.399 . S
C3186 H3172 0.929 . S
C3186 C3185 1.399 . S
C3186 C3187 1.385 . S
C3187 H3173 0.931 . S
C3187 C3186 1.385 . S
C3187 C3188 1.389 . S
C3188 C3187 1.389 . S
C3188 C3189 1.387 . S
C3189 H3174 0.930 . S
C3189 C3184 1.390 . S
C3189 C3188 1.387 . S
H3190 C3202 0.930 . S
H3191 C3204 0.930 . S
H3192 C3205 0.930 . S
H3193 C3209 0.927 1_455 S
H3194 C3209 0.940 1_455 S
H3195 C3209 0.974 . S
H3196 C3210 0.960 . S
H3197 C3210 0.961 . S
H3198 C3210 0.959 . S
H3199 C3213 0.929 . S
H3200 C3214 0.931 . S
H3201 C3216 0.930 1_455 S
C3202 H3190 0.930 . S
C3202 C3203 1.399 . S
C3202 C3207 1.399 . S
C3203 C3202 1.399 . S
C3203 C3204 1.376 . S
C3204 H3191 0.930 . S
C3204 C3203 1.376 . S
C3204 C3205 1.388 . S
C3205 H3192 0.930 . S
C3205 C3204 1.388 . S
C3205 C3206 1.390 . S
C3206 C3205 1.390 . S
C3206 C3207 1.394 . S
C3206 C3212 1.465 . S
C3207 C3202 1.399 . S
C3207 C3206 1.394 . S
C3207 C3208 1.516 . S
C3208 C3207 1.516 . S
C3208 C3209 1.543 . S
C3208 C3210 1.561 . S
C3208 C3211 1.526 . S
C3209 H3193 0.927 1_655 S
C3209 H3194 0.940 1_655 S
C3209 H3195 0.974 . S
C3209 C3208 1.543 . S
C3210 H3196 0.960 . S
C3210 H3197 0.961 . S
C3210 H3198 0.959 . S
C3210 C3208 1.561 . S
C3211 C3208 1.526 . S
C3211 C3212 1.396 . S
C3211 C3216 1.390 . S
C3212 C3206 1.465 . S
C3212 C3211 1.396 . S
C3212 C3213 1.399 . S
C3213 H3199 0.929 . S
C3213 C3212 1.399 . S
C3213 C3214 1.385 . S
C3214 H3200 0.931 . S
C3214 C3213 1.385 . S
C3214 C3215 1.389 . S
C3215 C3214 1.389 . S
C3215 C3216 1.387 . S
C3216 H3201 0.930 1_655 S
C3216 C3211 1.390 . S
C3216 C3215 1.387 . S
H3217 C3229 0.930 . S
H3218 C3231 0.930 . S
H3219 C3232 0.930 . S
H3220 C3236 0.959 . S
H3221 C3236 0.959 . S
H3222 C3236 0.961 . S
H3223 C3237 0.960 . S
H3224 C3237 0.961 . S
H3225 C3237 0.959 . S
H3226 C3240 0.929 . S
H3227 C3241 0.931 . S
H3228 C3243 0.930 . S
C3229 H3217 0.930 . S
C3229 C3230 1.399 . S
C3229 C3234 1.399 . S
C3230 C3229 1.399 . S
C3230 C3231 1.376 . S
C3231 H3218 0.930 . S
C3231 C3230 1.376 . S
C3231 C3232 1.388 . S
C3232 H3219 0.930 . S
C3232 C3231 1.388 . S
C3232 C3233 1.390 . S
C3233 C3232 1.390 . S
C3233 C3234 1.394 . S
C3233 C3239 1.465 . S
C3234 C3229 1.399 . S
C3234 C3233 1.394 . S
C3234 C3235 1.516 . S
C3235 C3234 1.516 . S
C3235 C3236 1.502 . S
C3235 C3237 1.561 . S
C3235 C3238 1.526 . S
C3236 H3220 0.959 . S
C3236 H3221 0.959 . S
C3236 H3222 0.961 . S
C3236 C3235 1.502 . S
C3237 H3223 0.960 . S
C3237 H3224 0.961 . S
C3237 H3225 0.959 . S
C3237 C3235 1.561 . S
C3238 C3235 1.526 . S
C3238 C3239 1.396 . S
C3238 C3243 1.390 . S
C3239 C3233 1.465 . S
C3239 C3238 1.396 . S
C3239 C3240 1.399 . S
C3240 H3226 0.929 . S
C3240 C3239 1.399 . S
C3240 C3241 1.385 . S
C3241 H3227 0.931 . S
C3241 C3240 1.385 . S
C3241 C3242 1.389 . S
C3242 C3241 1.389 . S
C3242 C3243 1.387 . S
C3243 H3228 0.930 . S
C3243 C3238 1.390 . S
C3243 C3242 1.387 . S
H3244 C3256 0.930 . S
H3245 C3258 0.930 . S
H3246 C3259 0.930 . S
H3247 C3263 0.959 . S
H3248 C3263 0.959 . S
H3249 C3263 0.961 . S
H3250 C3264 0.960 . S
H3251 C3264 0.961 . S
H3252 C3264 0.959 . S
H3253 C3267 0.929 . S
H3254 C3268 0.931 . S
H3255 C3270 0.930 . S
C3256 H3244 0.930 . S
C3256 C3257 1.399 . S
C3256 C3261 1.399 . S
C3257 C3256 1.399 . S
C3257 C3258 1.376 . S
C3258 H3245 0.930 . S
C3258 C3257 1.376 . S
C3258 C3259 1.388 . S
C3259 H3246 0.930 . S
C3259 C3258 1.388 . S
C3259 C3260 1.390 . S
C3260 C3259 1.390 . S
C3260 C3261 1.394 . S
C3260 C3266 1.465 . S
C3261 C3256 1.399 . S
C3261 C3260 1.394 . S
C3261 C3262 1.516 . S
C3262 C3261 1.516 . S
C3262 C3263 1.502 . S
C3262 C3264 1.561 . S
C3262 C3265 1.526 . S
C3263 H3247 0.959 . S
C3263 H3248 0.959 . S
C3263 H3249 0.961 . S
C3263 C3262 1.502 . S
C3264 H3250 0.960 . S
C3264 H3251 0.961 . S
C3264 H3252 0.959 . S
C3264 C3262 1.561 . S
C3265 C3262 1.526 . S
C3265 C3266 1.396 . S
C3265 C3270 1.390 . S
C3266 C3260 1.465 . S
C3266 C3265 1.396 . S
C3266 C3267 1.399 . S
C3267 H3253 0.929 . S
C3267 C3266 1.399 . S
C3267 C3268 1.385 . S
C3268 H3254 0.931 . S
C3268 C3267 1.385 . S
C3268 C3269 1.389 . S
C3269 C3268 1.389 . S
C3269 C3270 1.387 . S
C3270 H3255 0.930 . S
C3270 C3265 1.390 . S
C3270 C3269 1.387 . S
H3271 C3283 0.930 . S
H3272 C3285 0.930 . S
H3273 C3286 0.930 . S
H3274 C3290 0.959 . S
H3275 C3290 0.959 . S
H3276 C3290 0.961 . S
H3277 C3291 0.960 . S
H3278 C3291 0.961 . S
H3279 C3291 0.959 . S
H3280 C3294 0.929 . S
H3281 C3295 0.931 . S
H3282 C3297 0.930 . S
C3283 H3271 0.930 . S
C3283 C3284 1.399 . S
C3283 C3288 1.399 . S
C3284 C3283 1.399 . S
C3284 C3285 1.376 . S
C3285 H3272 0.930 . S
C3285 C3284 1.376 . S
C3285 C3286 1.388 . S
C3286 H3273 0.930 . S
C3286 C3285 1.388 . S
C3286 C3287 1.390 . S
C3287 C3286 1.390 . S
C3287 C3288 1.394 . S
C3287 C3293 1.465 . S
C3288 C3283 1.399 . S
C3288 C3287 1.394 . S
C3288 C3289 1.516 . S
C3289 C3288 1.516 . S
C3289 C3290 1.502 . S
C3289 C3291 1.561 . S
C3289 C3292 1.526 . S
C3290 H3274 0.959 . S
C3290 H3275 0.959 . S
C3290 H3276 0.961 . S
C3290 C3289 1.502 . S
C3291 H3277 0.960 . S
C3291 H3278 0.961 . S
C3291 H3279 0.959 . S
C3291 C3289 1.561 . S
C3292 C3289 1.526 . S
C3292 C3293 1.396 . S
C3292 C3297 1.390 . S
C3293 C3287 1.465 . S
C3293 C3292 1.396 . S
C3293 C3294 1.399 . S
C3294 H3280 0.929 . S
C3294 C3293 1.399 . S
C3294 C3295 1.385 . S
C3295 H3281 0.931 . S
C3295 C3294 1.385 . S
C3295 C3296 1.389 . S
C3296 C3295 1.389 . S
C3296 C3297 1.387 . S
C3297 H3282 0.930 . S
C3297 C3292 1.390 . S
C3297 C3296 1.387 . S
H3298 C3310 0.930 . S
H3299 C3312 0.930 . S
H3300 C3313 0.930 . S
H3301 C3317 0.959 . S
H3302 C3317 0.959 . S
H3303 C3317 0.961 . S
H3304 C3318 0.960 . S
H3305 C3318 0.961 . S
H3306 C3318 0.959 . S
H3307 C3321 0.929 . S
H3308 C3322 0.931 . S
H3309 C3324 0.930 . S
C3310 H3298 0.930 . S
C3310 C3311 1.399 . S
C3310 C3315 1.399 . S
C3311 C3310 1.399 . S
C3311 C3312 1.376 . S
C3312 H3299 0.930 . S
C3312 C3311 1.376 . S
C3312 C3313 1.388 . S
C3313 H3300 0.930 . S
C3313 C3312 1.388 . S
C3313 C3314 1.390 . S
C3314 C3313 1.390 . S
C3314 C3315 1.394 . S
C3314 C3320 1.465 . S
C3315 C3310 1.399 . S
C3315 C3314 1.394 . S
C3315 C3316 1.516 . S
C3316 C3315 1.516 . S
C3316 C3317 1.502 . S
C3316 C3318 1.561 . S
C3316 C3319 1.526 . S
C3317 H3301 0.959 . S
C3317 H3302 0.959 . S
C3317 H3303 0.961 . S
C3317 C3316 1.502 . S
C3318 H3304 0.960 . S
C3318 H3305 0.961 . S
C3318 H3306 0.959 . S
C3318 C3316 1.561 . S
C3319 C3316 1.526 . S
C3319 C3320 1.396 . S
C3319 C3324 1.390 . S
C3320 C3314 1.465 . S
C3320 C3319 1.396 . S
C3320 C3321 1.399 . S
C3321 H3307 0.929 . S
C3321 C3320 1.399 . S
C3321 C3322 1.385 . S
C3322 H3308 0.931 . S
C3322 C3321 1.385 . S
C3322 C3323 1.389 . S
C3323 C3322 1.389 . S
C3323 C3324 1.387 . S
C3324 H3309 0.930 . S
C3324 C3319 1.390 . S
C3324 C3323 1.387 . S
H3325 C3337 0.930 . S
H3326 C3339 0.930 . S
H3327 C3340 0.930 . S
H3328 C3344 0.959 . S
H3329 C3344 0.959 . S
H3330 C3344 0.961 . S
H3331 C3345 0.960 . S
H3332 C3345 0.961 . S
H3333 C3345 0.959 . S
H3334 C3348 0.929 . S
H3335 C3349 0.931 . S
H3336 C3351 0.930 . S
C3337 H3325 0.930 . S
C3337 C3338 1.399 . S
C3337 C3342 1.399 . S
C3338 C3337 1.399 . S
C3338 C3339 1.376 . S
C3339 H3326 0.930 . S
C3339 C3338 1.376 . S
C3339 C3340 1.388 . S
C3340 H3327 0.930 . S
C3340 C3339 1.388 . S
C3340 C3341 1.390 . S
C3341 C3340 1.390 . S
C3341 C3342 1.394 . S
C3341 C3347 1.465 . S
C3342 C3337 1.399 . S
C3342 C3341 1.394 . S
C3342 C3343 1.516 . S
C3343 C3342 1.516 . S
C3343 C3344 1.502 . S
C3343 C3345 1.561 . S
C3343 C3346 1.526 . S
C3344 H3328 0.959 . S
C3344 H3329 0.959 . S
C3344 H3330 0.961 . S
C3344 C3343 1.502 . S
C3345 H3331 0.960 . S
C3345 H3332 0.961 . S
C3345 H3333 0.959 . S
C3345 C3343 1.561 . S
C3346 C3343 1.526 . S
C3346 C3347 1.396 . S
C3346 C3351 1.390 . S
C3347 C3341 1.465 . S
C3347 C3346 1.396 . S
C3347 C3348 1.399 . S
C3348 H3334 0.929 . S
C3348 C3347 1.399 . S
C3348 C3349 1.385 . S
C3349 H3335 0.931 . S
C3349 C3348 1.385 . S
C3349 C3350 1.389 . S
C3350 C3349 1.389 . S
C3350 C3351 1.387 . S
C3351 H3336 0.930 . S
C3351 C3346 1.390 . S
C3351 C3350 1.387 . S
H3352 C3364 0.930 . S
H3353 C3366 0.930 . S
H3354 C3367 0.930 . S
H3355 C3371 0.959 . S
H3356 C3371 0.959 . S
H3357 C3371 0.961 . S
H3358 C3372 0.960 . S
H3359 C3372 0.961 . S
H3360 C3372 0.959 . S
H3361 C3375 0.929 . S
H3362 C3376 0.931 . S
H3363 C3378 0.930 . S
C3364 H3352 0.930 . S
C3364 C3365 1.399 . S
C3364 C3369 1.399 . S
C3365 C3364 1.399 . S
C3365 C3366 1.376 . S
C3366 H3353 0.930 . S
C3366 C3365 1.376 . S
C3366 C3367 1.388 . S
C3367 H3354 0.930 . S
C3367 C3366 1.388 . S
C3367 C3368 1.390 . S
C3368 C3367 1.390 . S
C3368 C3369 1.394 . S
C3368 C3374 1.465 . S
C3369 C3364 1.399 . S
C3369 C3368 1.394 . S
C3369 C3370 1.516 . S
C3370 C3369 1.516 . S
C3370 C3371 1.502 . S
C3370 C3372 1.561 . S
C3370 C3373 1.526 . S
C3371 H3355 0.959 . S
C3371 H3356 0.959 . S
C3371 H3357 0.961 . S
C3371 C3370 1.502 . S
C3372 H3358 0.960 . S
C3372 H3359 0.961 . S
C3372 H3360 0.959 . S
C3372 C3370 1.561 . S
C3373 C3370 1.526 . S
C3373 C3374 1.396 . S
C3373 C3378 1.390 . S
C3374 C3368 1.465 . S
C3374 C3373 1.396 . S
C3374 C3375 1.399 . S
C3375 H3361 0.929 . S
C3375 C3374 1.399 . S
C3375 C3376 1.385 . S
C3376 H3362 0.931 . S
C3376 C3375 1.385 . S
C3376 C3377 1.389 . S
C3377 C3376 1.389 . S
C3377 C3378 1.387 . S
C3378 H3363 0.930 . S
C3378 C3373 1.390 . S
C3378 C3377 1.387 . S
H3379 C3391 0.930 . S
H3380 C3393 0.930 . S
H3381 C3394 0.930 . S
H3382 C3398 0.959 . S
H3383 C3398 0.959 1_545 S
H3384 C3398 0.961 . S
H3385 C3399 0.960 . S
H3386 C3399 0.961 . S
H3387 C3399 0.959 . S
H3388 C3402 0.929 . S
H3389 C3403 0.931 . S
H3390 C3405 0.929 . S
C3391 H3379 0.930 . S
C3391 C3392 1.399 . S
C3391 C3396 1.399 . S
C3392 C3391 1.399 . S
C3392 C3393 1.376 . S
C3393 H3380 0.930 . S
C3393 C3392 1.376 . S
C3393 C3394 1.388 . S
C3394 H3381 0.930 . S
C3394 C3393 1.388 . S
C3394 C3395 1.390 . S
C3395 C3394 1.390 . S
C3395 C3396 1.394 . S
C3395 C3401 1.465 . S
C3396 C3391 1.399 . S
C3396 C3395 1.394 . S
C3396 C3397 1.516 . S
C3397 C3396 1.516 . S
C3397 C3398 1.502 . S
C3397 C3399 1.561 . S
C3397 C3400 1.526 . S
C3398 H3382 0.959 . S
C3398 H3383 0.959 1_565 S
C3398 H3384 0.961 . S
C3398 C3397 1.502 . S
C3399 H3385 0.960 . S
C3399 H3386 0.961 . S
C3399 H3387 0.959 . S
C3399 C3397 1.561 . S
C3400 C3397 1.526 . S
C3400 C3401 1.396 . S
C3400 C3405 1.390 . S
C3401 C3395 1.465 . S
C3401 C3400 1.396 . S
C3401 C3402 1.399 . S
C3402 H3388 0.929 . S
C3402 C3401 1.399 . S
C3402 C3403 1.385 . S
C3403 H3389 0.931 . S
C3403 C3402 1.385 . S
C3403 C3404 1.389 . S
C3404 C3403 1.389 . S
C3404 C3405 1.387 . S
C3405 H3390 0.929 . S
C3405 C3400 1.390 . S
C3405 C3404 1.387 . S
H3406 C3418 0.930 . S
H3407 C3420 0.930 . S
H3408 C3421 0.930 . S
H3409 C3425 0.959 . S
H3410 C3425 0.959 . S
H3411 C3425 0.961 . S
H3412 C3426 0.960 . S
H3413 C3426 0.961 . S
H3414 C3426 0.959 . S
H3415 C3429 0.929 . S
H3416 C3430 0.931 . S
H3417 C3432 0.930 . S
C3418 H3406 0.930 . S
C3418 C3419 1.399 . S
C3418 C3423 1.399 . S
C3419 C3418 1.399 . S
C3419 C3420 1.376 . S
C3420 H3407 0.930 . S
C3420 C3419 1.376 . S
C3420 C3421 1.388 . S
C3421 H3408 0.930 . S
C3421 C3420 1.388 . S
C3421 C3422 1.390 . S
C3422 C3421 1.390 . S
C3422 C3423 1.394 . S
C3422 C3428 1.465 . S
C3423 C3418 1.399 . S
C3423 C3422 1.394 . S
C3423 C3424 1.516 . S
C3424 C3423 1.516 . S
C3424 C3425 1.502 . S
C3424 C3426 1.561 . S
C3424 C3427 1.526 . S
C3425 H3409 0.959 . S
C3425 H3410 0.959 . S
C3425 H3411 0.961 . S
C3425 C3424 1.502 . S
C3426 H3412 0.960 . S
C3426 H3413 0.961 . S
C3426 H3414 0.959 . S
C3426 C3424 1.561 . S
C3427 C3424 1.526 . S
C3427 C3428 1.396 . S
C3427 C3432 1.390 . S
C3428 C3422 1.465 . S
C3428 C3427 1.396 . S
C3428 C3429 1.399 . S
C3429 H3415 0.929 . S
C3429 C3428 1.399 . S
C3429 C3430 1.385 . S
C3430 H3416 0.931 . S
C3430 C3429 1.385 . S
C3430 C3431 1.389 . S
C3431 C3430 1.389 . S
C3431 C3432 1.387 . S
C3432 H3417 0.930 . S
C3432 C3427 1.390 . S
C3432 C3431 1.387 . S
H3433 C3445 0.930 . S
H3434 C3447 0.930 . S
H3435 C3448 0.930 . S
H3436 C3452 0.959 . S
H3437 C3452 0.959 . S
H3438 C3452 0.961 . S
H3439 C3453 0.960 . S
H3440 C3453 0.961 . S
H3441 C3453 0.959 . S
H3442 C3456 0.929 . S
H3443 C3457 0.931 . S
H3444 C3459 0.930 . S
C3445 H3433 0.930 . S
C3445 C3446 1.399 . S
C3445 C3450 1.399 . S
C3446 C3445 1.399 . S
C3446 C3447 1.376 . S
C3447 H3434 0.930 . S
C3447 C3446 1.376 . S
C3447 C3448 1.388 . S
C3448 H3435 0.930 . S
C3448 C3447 1.388 . S
C3448 C3449 1.390 . S
C3449 C3448 1.390 . S
C3449 C3450 1.394 . S
C3449 C3455 1.465 . S
C3450 C3445 1.399 . S
C3450 C3449 1.394 . S
C3450 C3451 1.516 . S
C3451 C3450 1.516 . S
C3451 C3452 1.502 . S
C3451 C3453 1.561 . S
C3451 C3454 1.526 . S
C3452 H3436 0.959 . S
C3452 H3437 0.959 . S
C3452 H3438 0.961 . S
C3452 C3451 1.502 . S
C3453 H3439 0.960 . S
C3453 H3440 0.961 . S
C3453 H3441 0.959 . S
C3453 C3451 1.561 . S
C3454 C3451 1.526 . S
C3454 C3455 1.396 . S
C3454 C3459 1.390 . S
C3455 C3449 1.465 . S
C3455 C3454 1.396 . S
C3455 C3456 1.399 . S
C3456 H3442 0.929 . S
C3456 C3455 1.399 . S
C3456 C3457 1.385 . S
C3457 H3443 0.931 . S
C3457 C3456 1.385 . S
C3457 C3458 1.389 . S
C3458 C3457 1.389 . S
C3458 C3459 1.387 . S
C3459 H3444 0.930 . S
C3459 C3454 1.390 . S
C3459 C3458 1.387 . S
H3460 C3472 0.930 . S
H3461 C3474 0.930 . S
H3462 C3475 0.930 . S
H3463 C3479 0.959 . S
H3464 C3479 0.959 . S
H3465 C3479 0.961 . S
H3466 C3480 0.960 . S
H3467 C3480 0.961 . S
H3468 C3480 0.959 . S
H3469 C3483 0.929 . S
H3470 C3484 0.931 . S
H3471 C3486 0.930 . S
C3472 H3460 0.930 . S
C3472 C3473 1.399 . S
C3472 C3477 1.399 . S
C3473 C3472 1.399 . S
C3473 C3474 1.376 . S
C3474 H3461 0.930 . S
C3474 C3473 1.376 . S
C3474 C3475 1.388 . S
C3475 H3462 0.930 . S
C3475 C3474 1.388 . S
C3475 C3476 1.390 . S
C3476 C3475 1.390 . S
C3476 C3477 1.394 . S
C3476 C3482 1.465 . S
C3477 C3472 1.399 . S
C3477 C3476 1.394 . S
C3477 C3478 1.516 . S
C3478 C3477 1.516 . S
C3478 C3479 1.502 . S
C3478 C3480 1.561 . S
C3478 C3481 1.526 . S
C3479 H3463 0.959 . S
C3479 H3464 0.959 . S
C3479 H3465 0.961 . S
C3479 C3478 1.502 . S
C3480 H3466 0.960 . S
C3480 H3467 0.961 . S
C3480 H3468 0.959 . S
C3480 C3478 1.561 . S
C3481 C3478 1.526 . S
C3481 C3482 1.396 . S
C3481 C3486 1.390 . S
C3482 C3476 1.465 . S
C3482 C3481 1.396 . S
C3482 C3483 1.399 . S
C3483 H3469 0.929 . S
C3483 C3482 1.399 . S
C3483 C3484 1.385 . S
C3484 H3470 0.931 . S
C3484 C3483 1.385 . S
C3484 C3485 1.389 . S
C3485 C3484 1.389 . S
C3485 C3486 1.387 . S
C3486 H3471 0.930 . S
C3486 C3481 1.390 . S
C3486 C3485 1.387 . S
H3487 C3499 0.930 . S
H3488 C3501 0.930 . S
H3489 C3502 0.944 . S
H3490 C3506 0.959 . S
H3491 C3506 0.959 . S
H3492 C3506 0.961 . S
H3493 C3507 0.960 . S
H3494 C3507 0.961 . S
H3495 C3507 0.959 . S
H3496 C3510 0.926 1_556 S
H3497 C3511 0.931 . S
H3498 C3513 0.930 . S
C3499 H3487 0.930 . S
C3499 C3500 1.399 . S
C3499 C3504 1.399 . S
C3500 C3499 1.399 . S
C3500 C3501 1.376 . S
C3501 H3488 0.930 . S
C3501 C3500 1.376 . S
C3501 C3502 1.388 . S
C3502 H3489 0.944 . S
C3502 C3501 1.388 . S
C3502 C3503 1.390 . S
C3503 C3502 1.390 . S
C3503 C3504 1.394 . S
C3503 C3509 1.465 . S
C3504 C3499 1.399 . S
C3504 C3503 1.394 . S
C3504 C3505 1.516 . S
C3505 C3504 1.516 . S
C3505 C3506 1.502 . S
C3505 C3507 1.561 . S
C3505 C3508 1.526 . S
C3506 H3490 0.959 . S
C3506 H3491 0.959 . S
C3506 H3492 0.961 . S
C3506 C3505 1.502 . S
C3507 H3493 0.960 . S
C3507 H3494 0.961 . S
C3507 H3495 0.959 . S
C3507 C3505 1.561 . S
C3508 C3505 1.526 . S
C3508 C3509 1.396 . S
C3508 C3513 1.390 . S
C3509 C3503 1.465 . S
C3509 C3508 1.396 . S
C3509 C3510 1.402 . S
C3510 H3496 0.926 1_554 S
C3510 C3509 1.402 . S
C3510 C3511 1.385 1_554 S
C3511 H3497 0.931 . S
C3511 C3510 1.385 1_556 S
C3511 C3512 1.389 1_556 S
C3512 C3511 1.389 1_554 S
C3512 C3513 1.387 . S
C3513 H3498 0.930 . S
C3513 C3508 1.390 . S
C3513 C3512 1.387 . S
H3514 C3526 0.930 . S
H3515 C3528 0.930 . S
H3516 C3529 0.930 . S
H3517 C3533 0.959 . S
H3518 C3533 0.959 . S
H3519 C3533 0.961 . S
H3520 C3534 0.960 . S
H3521 C3534 0.961 . S
H3522 C3534 0.959 . S
H3523 C3537 0.929 . S
H3524 C3538 0.931 . S
H3525 C3540 0.930 . S
C3526 H3514 0.930 . S
C3526 C3527 1.399 . S
C3526 C3531 1.399 . S
C3527 C3526 1.399 . S
C3527 C3528 1.376 . S
C3528 H3515 0.930 . S
C3528 C3527 1.376 . S
C3528 C3529 1.388 . S
C3529 H3516 0.930 . S
C3529 C3528 1.388 . S
C3529 C3530 1.390 . S
C3530 C3529 1.390 . S
C3530 C3531 1.394 . S
C3530 C3536 1.465 . S
C3531 C3526 1.399 . S
C3531 C3530 1.394 . S
C3531 C3532 1.516 . S
C3532 C3531 1.516 . S
C3532 C3533 1.502 . S
C3532 C3534 1.561 . S
C3532 C3535 1.526 . S
C3533 H3517 0.959 . S
C3533 H3518 0.959 . S
C3533 H3519 0.961 . S
C3533 C3532 1.502 . S
C3534 H3520 0.960 . S
C3534 H3521 0.961 . S
C3534 H3522 0.959 . S
C3534 C3532 1.561 . S
C3535 C3532 1.526 . S
C3535 C3536 1.396 . S
C3535 C3540 1.390 . S
C3536 C3530 1.465 . S
C3536 C3535 1.396 . S
C3536 C3537 1.399 . S
C3537 H3523 0.929 . S
C3537 C3536 1.399 . S
C3537 C3538 1.385 . S
C3538 H3524 0.931 . S
C3538 C3537 1.385 . S
C3538 C3539 1.389 . S
C3539 C3538 1.389 . S
C3539 C3540 1.387 . S
C3540 H3525 0.930 . S
C3540 C3535 1.390 . S
C3540 C3539 1.387 . S
H3541 C3553 0.930 . S
H3542 C3555 0.930 . S
H3543 C3556 0.930 . S
H3544 C3560 0.959 . S
H3545 C3560 0.959 . S
H3546 C3560 0.961 . S
H3547 C3561 0.960 . S
H3548 C3561 0.961 . S
H3549 C3561 0.959 . S
H3550 C3564 0.929 . S
H3551 C3565 0.931 . S
H3552 C3567 0.930 . S
C3553 H3541 0.930 . S
C3553 C3554 1.399 . S
C3553 C3558 1.399 . S
C3554 C3553 1.399 . S
C3554 C3555 1.376 . S
C3555 H3542 0.930 . S
C3555 C3554 1.376 . S
C3555 C3556 1.388 . S
C3556 H3543 0.930 . S
C3556 C3555 1.388 . S
C3556 C3557 1.390 . S
C3557 C3556 1.390 . S
C3557 C3558 1.394 . S
C3557 C3563 1.465 . S
C3558 C3553 1.399 . S
C3558 C3557 1.394 . S
C3558 C3559 1.516 . S
C3559 C3558 1.516 . S
C3559 C3560 1.502 . S
C3559 C3561 1.561 . S
C3559 C3562 1.526 . S
C3560 H3544 0.959 . S
C3560 H3545 0.959 . S
C3560 H3546 0.961 . S
C3560 C3559 1.502 . S
C3561 H3547 0.960 . S
C3561 H3548 0.961 . S
C3561 H3549 0.959 . S
C3561 C3559 1.561 . S
C3562 C3559 1.526 . S
C3562 C3563 1.396 . S
C3562 C3567 1.390 . S
C3563 C3557 1.465 . S
C3563 C3562 1.396 . S
C3563 C3564 1.399 . S
C3564 H3550 0.929 . S
C3564 C3563 1.399 . S
C3564 C3565 1.385 . S
C3565 H3551 0.931 . S
C3565 C3564 1.385 . S
C3565 C3566 1.389 . S
C3566 C3565 1.389 . S
C3566 C3567 1.387 . S
C3567 H3552 0.930 . S
C3567 C3562 1.390 . S
C3567 C3566 1.387 . S
C989 C105 2.343 . S
C1001 C346 2.247 . S
C1016 C65 2.075 . S
C1028 C394 2.082 . S
C1043 C73 1.340 . S
C1055 C426 1.331 . S
C1082 C471 1.586 . S
C1070 C92 1.634 . S
C1097 C17 0.946 . S
C1109 C511 0.946 . S
C1136 C546 0.989 . S
C1124 C37 0.967 . S
C1163 C585 1.276 . S
C1151 C49 1.208 . S
C1178 C8 1.244 . S
C1190 C622 1.228 . S
C1217 C354 2.056 . S
C1205 C231 2.020 1_545 S
C1232 C241 0.401 . S
C1244 C391 0.520 . S
C1271 C434 2.392 . S
C1259 C273 2.300 . S
C1298 C466 1.121 . S
C1286 C171 1.120 1_556 S
C1313 C227 1.253 . S
C1325 C506 1.215 . S
C1352 C554 0.392 . S
C1340 C245 0.623 . S
C1379 C595 1.988 1_556 S
C1367 C269 2.103 . S
C1406 C625 2.018 . S
C1394 C175 1.984 . S
C1433 C351 1.428 . S
C1421 C162 1.421 1_554 S
C1448 C289 2.182 . S
C1460 C674 2.153 . S
C1487 C711 1.267 . S
C1475 C330 1.241 . S
C1514 C742 0.697 . S
C1502 C317 0.608 . S
C1529 C120 2.744 . S
C1541 C635 2.714 . S
C1556 C134 1.451 . S
C1568 C431 1.407 . S
C1583 C331 1.758 . S
C1595 C794 1.740 . S
C1622 C826 1.783 . S
C1610 C303 1.789 . S
C1649 C355 2.289 . S
C1637 C59 2.349 . S
C1676 C825 2.113 . S
C1664 C107 2.140 . S
C1691 C91 1.367 . S
C1703 C435 1.392 . S
C1718 C78 1.631 . S
C1730 C782 1.650 . S
C1757 C502 0.973 . S
C1745 C7 0.984 1_455 S
C1772 C51 1.024 . S
C1784 C715 1.065 . S
C1811 C594 1.256 . S
C1799 C31 1.256 . S
C1838 C871 1.252 . S
C1826 C22 1.282 . S
C1865 C345 2.088 1_556 S
C1853 C143 2.081 . S
C1892 C822 0.571 . S
C1880 C315 0.443 . S
C1907 C115 2.442 . S
C1919 C425 2.438 . S
C1934 C287 1.166 . S
C1946 C795 1.182 . S
C1961 C147 1.324 . S
C1973 C515 1.297 . S
C2000 C705 0.524 . S
C1988 C311 0.363 . S
C2015 C119 2.086 . S
C2027 C586 2.033 . S
C2042 C283 2.010 1_556 S
C2054 C874 1.998 . S
C2069 C190 1.308 . S
C2081 C342 1.411 . S
C2096 C177 2.214 . S
C2108 C665 2.223 . S
C2123 C260 1.205 . S
C2135 C542 1.254 . S
C2150 C247 0.592 . S
C2162 C751 0.657 . S
C2189 C866 2.712 . S
C2177 C274 2.774 . S
C2204 C218 1.452 . S
C2216 C422 1.474 . S
C2243 C465 1.792 . S
C2231 C261 1.761 . S
C2270 C395 1.841 . S
C2258 C205 1.862 . S
C2285 C77 2.342 . S
C2297 C906 2.250 . S
C2324 C834 2.066 . S
C2312 C93 2.084 . S
C2339 C101 1.315 . S
C2351 C946 1.301 . S
C2366 C64 1.642 1_655 S
C2378 C791 1.625 . S
C2393 C45 0.968 . S
C2405 C671 0.974 . S
C2432 C706 1.034 . S
C2420 C9 1.040 . S
C2459 C745 1.272 . S
C2447 C21 1.216 . S
C2486 C862 1.247 . S
C2474 C36 1.247 . S
C2513 C914 2.057 . S
C2501 C259 2.022 . S
C2528 C185 0.447 . S
C2540 C831 0.432 . S
C2567 C954 2.394 . S
C2555 C203 2.352 . S
C2594 C786 1.117 . S
C2582 C213 1.118 . S
C2621 C666 1.270 . S
C2609 C255 1.269 . S
C2636 C189 0.637 . S
C2648 C714 0.233 . S
C2675 C755 2.047 . S
C2663 C199 2.105 . S
C2690 C217 2.009 . S
C2702 C865 2.006 . S
C2729 C911 1.376 . S
C2717 C316 1.463 . S
C2744 C135 2.179 . S
C2756 C514 2.163 . S
C2783 C551 1.206 . S
C2771 C148 1.230 . S
C2810 C582 0.665 . S
C2798 C163 0.621 . S
C2837 C875 2.687 . S
C2825 C302 2.724 . S
C2852 C288 1.442 . S
C2864 C951 1.432 . S
C2891 C474 1.734 . S
C2879 C149 1.758 . S
C2918 C386 1.788 . S
C2906 C121 1.787 . S
C2933 C87 2.348 . S
C2945 C915 2.295 . S
C2972 C385 2.140 . S
C2960 C79 2.117 . S
C2987 C63 1.345 . S
C2999 C955 1.344 . S
C3014 C106 1.632 . S
C3026 C462 1.646 . S
C3041 C35 0.970 . S
C3053 C662 0.980 . S
C3080 C555 1.076 . S
C3068 C23 1.091 . S
C3095 C3 1.274 . S
C3107 C754 1.242 . S
C3122 C50 1.280 . S
C3134 C631 1.241 . S
C3161 C905 2.092 . S
C3149 C325 2.093 . S
C3176 C161 0.409 . S
C3188 C382 0.592 . S
C3215 C945 2.437 1_656 S
C3203 C297 2.442 . S
C3230 C133 1.160 . S
C3242 C475 1.183 . S
C3257 C329 1.262 . S
C3269 C675 1.294 . S
C3296 C545 0.399 . S
C3284 C157 0.373 . S
C3311 C301 2.023 . S
C3323 C746 2.089 1_655 S
C3350 C634 1.993 . S
C3338 C129 2.022 . S
C3377 C902 1.410 . S
C3365 C246 1.308 . S
C3404 C505 2.222 1_565 S
C3392 C219 2.210 . S
C3419 C232 1.269 . S
C3431 C702 1.213 . S
C3458 C591 0.591 . S
C3446 C191 0.621 . S
C3473 C204 2.761 . S
C3485 C626 2.743 . S
C3500 C176 1.452 . S
C3512 C942 1.476 . S
C3539 C785 1.792 . S
C3527 C233 1.770 . S
C3566 C835 1.859 . S
C3554 C275 1.864 . S
