# Generated by pormake.
# Topology pts, (4,4)-cn, num edge types: 1
# Building blocks:
#     Node 0, Type 0, BuildingBlock: MUDLON_clean_sbu_0, # of connection points: 4
#     Node 1, Type 0, BuildingBlock: MUDLON_clean_sbu_0, # of connection points: 4
#     Node 2, Type 1, BuildingBlock: UXUYUI_clean_sbu_0, # of connection points: 4
#     Node 3, Type 1, BuildingBlock: UXUYUI_clean_sbu_0, # of connection points: 4
#     Edge 4, Type (0, 1), BuildingBlock: EZIPEK_clean_linker_0, # of connection points: 2
#     Edge 5, Type (0, 1), BuildingBlock: EZIPEK_clean_linker_0, # of connection points: 2
#     Edge 6, Type (0, 1), BuildingBlock: EZIPEK_clean_linker_0, # of connection points: 2
#     Edge 7, Type (0, 1), BuildingBlock: EZIPEK_clean_linker_0, # of connection points: 2
#     Edge 8, Type (0, 1), BuildingBlock: EZIPEK_clean_linker_0, # of connection points: 2
#     Edge 9, Type (0, 1), BuildingBlock: EZIPEK_clean_linker_0, # of connection points: 2
#     Edge 10, Type (0, 1), BuildingBlock: EZIPEK_clean_linker_0, # of connection points: 2
#     Edge 11, Type (0, 1), BuildingBlock: EZIPEK_clean_linker_0, # of connection points: 2
# Relax obj value: 0.040
# Max RMSD: 0.092
# Mean RMSD: 0.080
data_MOF--net-pts--node1-MUDLON_clean_sbu_0--node2-UXUYUI_clean_sbu_0--edge1-EZIPEK_clean_linker_0
_symmetry_space_group_name_H-M    P1
_symmetry_Int_Tables_number       1
_symmetry_cell_setting            triclinic
loop_
_symmetry_equiv_pos_as_xyz
'x, y, z'
_cell_length_a     22.343909
_cell_length_b     22.386419
_cell_length_c     36.944307
_cell_angle_alpha  90.303097
_cell_angle_beta   89.730746
_cell_angle_gamma 90.006541
loop_
_atom_site_label
_atom_site_type_symbol
_atom_site_fract_x
_atom_site_fract_y
_atom_site_fract_z
_atom_type_partial_charge
Mg0 Mg 0.51185 0.01405 0.02965 0.0
C1 C 0.41139 0.0369 0.98096 0.0
O2 O 0.403 0.98179 0.99184 0.0
C3 C 0.61196 0.03782 0.0786 0.0
O4 O 0.62059 0.9826 0.06765 0.0
C5 C 0.45329 0.95556 0.09573 0.0
O6 O 0.50574 0.96499 0.11049 0.0
O7 O 0.44641 0.96527 0.06217 0.0
O8 O 0.45627 0.06602 0.99277 0.0
O9 O 0.5774 0.96518 0.99694 0.0
C10 C 0.57019 0.95458 0.96343 0.0
O11 O 0.51753 0.96338 0.94886 0.0
O12 O 0.56711 0.06665 0.0667 0.0
Mg13 Mg 1.00455 0.51003 0.52956 0.0
C14 C 0.05999 0.56758 0.59733 0.0
O15 O 0.04997 0.51515 0.61191 0.0
C16 C 0.06234 0.45295 0.4622 0.0
O17 O 0.05269 0.50552 0.44779 0.0
C18 C 0.98397 0.61207 0.48222 0.0
O19 O 0.03947 0.61823 0.49314 0.0
O20 O 0.95342 0.56784 0.49355 0.0
O21 O 0.0522 0.57443 0.56356 0.0
O22 O 0.95231 0.45209 0.56516 0.0
C23 C 0.98289 0.4085 0.57715 0.0
O24 O 0.03907 0.40308 0.56708 0.0
O25 O 0.0535 0.44575 0.4959 0.0
Li26 Li 0.03118 0.06514 0.30437 0.0
Li27 Li 1.0021 0.9658 0.30599 0.0
Li28 Li 0.07385 0.99849 0.25902 0.0
Li29 Li 0.9605 0.0271 0.25836 0.0
C30 C 0.12479 0.01976 0.33542 0.0
N31 N 0.20446 0.07186 0.38306 0.0
C32 C 0.11037 0.02456 0.37218 0.0
C33 C 0.17992 0.04101 0.32293 0.0
C34 C 0.15116 0.05125 0.39581 0.0
C35 C 0.21959 0.06723 0.34745 0.0
C36 C 0.90458 0.01637 0.33368 0.0
C37 C 0.80373 0.98194 0.34425 0.0
N38 N 0.81659 0.97469 0.37991 0.0
C39 C 0.91661 1.00912 0.37052 0.0
C40 C 0.84759 1.00302 0.32045 0.0
C41 C 0.87161 0.98773 0.39341 0.0
C42 C 1.00641 0.15133 0.35812 0.0
N43 N 0.04843 0.13537 0.33316 0.0
C44 C 0.10842 0.22025 0.34905 0.0
C45 C 0.09918 0.16833 0.32859 0.0
C46 C 0.06535 0.23765 0.37472 0.0
C47 C 0.0142 0.20225 0.37946 0.0
H48 H 0.9662 0.12512 0.36107 0.0
H49 H 0.13211 0.15497 0.30866 0.0
C50 C 0.02944 0.8783 0.35785 0.0
N51 N 0.98432 0.89848 0.33659 0.0
C52 C 0.02002 0.83036 0.38115 0.0
C53 C 0.91792 0.82401 0.36013 0.0
C54 C 0.92948 0.87183 0.33695 0.0
C55 C 0.96367 0.803 0.38251 0.0
H56 H 0.07289 0.89937 0.35668 0.0
H57 H 0.89457 0.88773 0.31936 0.0
C58 C 0.04744 0.13589 0.2467 0.0
N59 N 0.07436 0.25587 0.24061 0.0
C60 C 1.00429 0.17899 0.2552 0.0
C61 C 0.10416 0.15374 0.23487 0.0
C62 C 0.01884 0.23944 0.25208 0.0
C63 C 0.11689 0.21465 0.23197 0.0
C64 C 0.99133 0.88753 0.25284 0.0
C65 C 0.0391 0.84912 0.25993 0.0
C66 C 0.93421 0.86401 0.24703 0.0
C67 C 0.02879 0.78762 0.26142 0.0
C68 C 0.92577 0.80223 0.24866 0.0
N69 N 0.97282 0.76565 0.25581 0.0
C70 C 0.18609 0.94541 0.24131 0.0
C71 C 0.14133 1.00228 0.19468 0.0
C72 C 0.23681 0.93529 0.21981 0.0
N73 N 0.14025 0.97933 0.22867 0.0
C74 C 0.1911 0.99331 0.1723 0.0
C75 C 0.23979 0.9602 0.18511 0.0
H76 H 0.18393 0.92764 0.26846 0.0
H77 H 0.10413 0.02894 0.18535 0.0
C78 C 0.85802 0.09025 0.23284 0.0
N79 N 0.89534 0.04316 0.22675 0.0
C80 C 0.81016 0.10108 0.20947 0.0
C81 C 0.83984 0.0145 0.17433 0.0
C82 C 0.88757 1.00593 0.19797 0.0
C83 C 0.8003 0.0623 0.18013 0.0
H84 H 0.86503 0.11899 0.25604 0.0
H85 H 0.91834 0.96933 0.19351 0.0
O86 O 0.08499 0.99467 0.31177 0.0
O87 O 0.9481 0.03703 0.31076 0.0
O88 O 0.03439 0.07654 0.25022 0.0
O89 O 1.00031 0.94793 0.25234 0.0
H90 H 0.06796 1.00826 0.3823 0.0
H91 H 0.19158 0.0383 0.29453 0.0
H92 H 0.14041 0.05565 0.42428 0.0
H93 H 0.26223 0.08425 0.33812 0.0
H94 H 0.75954 0.97111 0.33434 0.0
H95 H 0.96042 0.01923 0.38124 0.0
H96 H 0.83744 1.00822 0.29205 0.0
H97 H 0.8805 0.98136 0.42189 0.0
H98 H 0.1481 0.24703 0.34454 0.0
H99 H 0.97985 0.21489 0.39882 0.0
H100 H 0.05623 0.81485 0.39808 0.0
H101 H 0.87401 0.80353 0.36055 0.0
H102 H 0.96046 0.16589 0.26479 0.0
H103 H 0.13822 0.12097 0.22842 0.0
H104 H 0.98607 0.27329 0.25891 0.0
H105 H 0.16068 0.22915 0.22301 0.0
H106 H 0.08347 0.86671 0.26476 0.0
H107 H 0.8966 0.89318 0.24193 0.0
H108 H 0.06525 0.75738 0.26716 0.0
H109 H 0.88175 0.78339 0.24445 0.0
H110 H 0.274 0.90994 0.23047 0.0
H111 H 0.19244 0.01342 0.1457 0.0
H112 H 0.78055 0.13854 0.21452 0.0
H113 H 0.83365 0.98405 0.15177 0.0
Li114 Li 0.94969 0.99115 0.79956 0.0
Li115 Li 0.06286 0.01954 0.80163 0.0
Li116 Li 0.99467 0.05544 0.75429 0.0
Li117 Li 0.02332 0.95599 0.75387 0.0
C118 C 0.97247 0.12835 0.80973 0.0
N119 N 0.93879 0.24705 0.81161 0.0
C120 C 0.01481 0.17311 0.80345 0.0
C121 C 0.9131 0.1439 0.81723 0.0
C122 C 0.99684 0.23287 0.80438 0.0
C123 C 0.89696 0.2042 0.81806 0.0
C124 C 0.02785 0.87982 0.80897 0.0
C125 C 0.08628 0.79109 0.81953 0.0
N126 N 0.03863 0.7569 0.80975 0.0
C127 C 0.97938 0.84382 0.7992 0.0
C128 C 0.08174 0.85334 0.81931 0.0
C129 C 0.98576 0.78176 0.79968 0.0
C130 C 0.83691 0.93844 0.81746 0.0
N131 N 0.88248 0.97346 0.8296 0.0
C132 C 0.83128 0.99058 0.88564 0.0
C133 C 0.88106 0.99853 0.86319 0.0
C134 C 0.78289 0.95628 0.87334 0.0
C135 C 0.78617 0.9293 0.83906 0.0
H136 H 0.8393 0.9189 0.79066 0.0
H137 H 0.91804 0.02598 0.87214 0.0
C138 C 0.16441 0.08386 0.82711 0.0
N139 N 0.127 0.03715 0.83372 0.0
C140 C 0.21221 0.0958 0.8504 0.0
C141 C 0.18215 0.01112 0.88658 0.0
C142 C 0.13444 1.00149 0.86301 0.0
C143 C 0.22194 0.05842 0.88018 0.0
H144 H 0.15752 0.11139 0.80353 0.0
H145 H 0.10351 0.96525 0.86791 0.0
C146 C 0.90197 1.00752 0.72167 0.0
N147 N 0.8239 0.05386 0.67124 0.0
C148 C 0.91999 0.01396 0.68559 0.0
C149 C 0.84407 0.02429 0.73202 0.0
C150 C 0.87994 0.03765 0.66054 0.0
C151 C 0.80528 0.04763 0.70612 0.0
C152 C 0.12207 1.00293 0.72801 0.0
C153 C 0.11353 0.99674 0.69072 0.0
C154 C 0.17616 0.98493 0.74336 0.0
C155 C 0.159 0.97173 0.66944 0.0
C156 C 0.22062 0.96031 0.72114 0.0
N157 N 0.21115 0.95417 0.68497 0.0
C158 C 0.0244 0.14239 0.70239 0.0
C159 C 0.92522 0.15267 0.72461 0.0
C160 C 0.01608 0.19011 0.67882 0.0
N161 N 0.97913 0.1242 0.72445 0.0
C162 C 0.91482 0.20046 0.70127 0.0
C163 C 0.9607 0.21939 0.67805 0.0
H164 H 0.06699 0.11961 0.70293 0.0
H165 H 0.88997 0.13794 0.74253 0.0
C166 C 1.00052 0.86995 0.69974 0.0
N167 N 0.04231 0.8871 0.72432 0.0
C168 C 1.0093 0.81893 0.67859 0.0
C169 C 0.10395 0.80324 0.70845 0.0
C170 C 0.09372 0.85525 0.72872 0.0
C171 C 0.06113 0.78458 0.68319 0.0
H172 H 0.95956 0.89503 0.69713 0.0
H173 H 0.12619 0.86932 0.74857 0.0
O174 O 0.98893 0.06958 0.80821 0.0
O175 O 0.02281 0.94065 0.80768 0.0
O176 O 0.94073 0.98483 0.74667 0.0
O177 O 0.0778 0.02668 0.74936 0.0
H178 H 0.06081 0.16176 0.79736 0.0
H179 H 0.87967 0.10979 0.82189 0.0
H180 H 0.029 0.26798 0.79926 0.0
H181 H 0.85112 0.2169 0.82364 0.0
H182 H 0.12781 0.76997 0.82725 0.0
H183 H 0.93764 0.86363 0.79072 0.0
H184 H 0.11997 0.88051 0.82649 0.0
H185 H 0.94878 0.75336 0.79189 0.0
H186 H 0.82973 0.01226 0.91191 0.0
H187 H 0.74923 0.90297 0.82879 0.0
H188 H 0.24197 0.13288 0.84489 0.0
H189 H 0.18821 0.98179 0.90951 0.0
H190 H 0.96463 1.00138 0.67711 0.0
H191 H 0.8295 0.02037 0.75984 0.0
H192 H 0.89347 0.04329 0.63262 0.0
H193 H 0.7605 0.06115 0.71381 0.0
H194 H 0.07206 0.01067 0.67838 0.0
H195 H 0.18352 0.98921 0.77217 0.0
H196 H 0.15282 0.96623 0.64059 0.0
H197 H 0.26256 0.94584 0.73268 0.0
H198 H 0.05235 0.20388 0.66118 0.0
H199 H 0.87156 0.22229 0.70123 0.0
H200 H 0.97507 0.80523 0.6596 0.0
H201 H 0.14407 0.77723 0.71293 0.0
C202 C 0.38262 1.00833 0.13756 0.0
C203 C 0.3994 0.95493 0.11923 0.0
C204 C 0.30977 0.90478 0.14288 0.0
C205 C 0.29591 0.95681 0.16344 0.0
N206 N 0.32494 0.05386 0.18597 0.0
N207 N 0.38374 0.85039 0.10715 0.0
C208 C 0.33417 1.00729 0.16248 0.0
C209 C 0.36429 0.90248 0.12266 0.0
N210 N 0.41108 0.06089 0.12982 0.0
N211 N 0.26997 0.85843 0.1419 0.0
H212 H 0.42289 0.84778 0.09171 0.0
H213 H 0.36362 0.80912 0.11158 0.0
H214 H 0.23025 0.85837 0.15686 0.0
H215 H 0.27415 0.82189 0.12454 0.0
H216 H 0.39646 0.10229 0.13932 0.0
H217 H 0.44586 0.06419 0.11102 0.0
H218 H 0.35527 0.08876 0.18934 0.0
H219 H 0.28966 0.05507 0.20456 0.0
C220 C 0.95002 0.37622 0.63885 0.0
C221 C 0.9574 0.36266 0.60161 0.0
C222 C 0.94648 0.25595 0.61475 0.0
C223 C 0.9513 0.2691 0.65222 0.0
N224 N 0.95912 0.34141 0.70063 0.0
N225 N 0.95964 0.29062 0.55306 0.0
C226 C 0.95237 0.32923 0.66457 0.0
C227 C 0.95389 0.30271 0.58921 0.0
N228 N 0.9412 0.434 0.64952 0.0
N229 N 0.93444 0.19878 0.60379 0.0
H230 H 0.96108 0.32422 0.53358 0.0
H231 H 0.96513 0.24779 0.54246 0.0
H232 H 0.92848 0.16378 0.62201 0.0
H233 H 0.92522 0.1869 0.57712 0.0
H234 H 0.93083 0.44665 0.67597 0.0
H235 H 0.93783 0.46861 0.63096 0.0
H236 H 0.96731 0.38403 0.71087 0.0
H237 H 0.96058 0.30827 0.72034 0.0
C238 C 0.71405 0.07696 0.09247 0.0
C239 C 0.65515 0.06411 0.10447 0.0
C240 C 0.68942 0.05943 0.16718 0.0
C241 C 0.74886 0.07081 0.15519 0.0
N242 N 0.81486 0.10729 0.10853 0.0
N243 N 0.58349 0.06301 0.15314 0.0
C244 C 0.76017 0.08525 0.11842 0.0
C245 C 0.64175 0.06238 0.1419 0.0
N246 N 0.72609 0.07914 0.0562 0.0
N247 N 0.67884 0.04188 0.20201 0.0
H248 H 0.54817 0.06683 0.13498 0.0
H249 H 0.57063 0.06659 0.18019 0.0
H250 H 0.71243 0.03807 0.22133 0.0
H251 H 0.63743 0.02646 0.21105 0.0
H252 H 0.76922 0.08086 0.04546 0.0
H253 H 0.69249 0.07674 0.0367 0.0
H254 H 0.82444 0.12347 0.08277 0.0
H255 H 0.84915 0.11455 0.12712 0.0
C256 C 0.11136 0.66335 0.6161 0.0
C257 C 0.06427 0.62147 0.62087 0.0
C258 C 0.02548 0.68063 0.67172 0.0
C259 C 0.06697 0.72654 0.66372 0.0
N260 N 0.14568 0.76516 0.62554 0.0
N261 N 0.96706 0.60009 0.64687 0.0
C262 C 0.10929 0.71883 0.63526 0.0
C263 C 0.01892 0.63244 0.64715 0.0
N264 N 0.15844 0.64968 0.59384 0.0
N265 N 0.99227 0.68298 0.70286 0.0
H266 H 0.95736 0.56868 0.62686 0.0
H267 H 0.93055 0.61001 0.66349 0.0
H268 H 0.99652 0.71734 0.72188 0.0
H269 H 0.96536 0.64774 0.71149 0.0
H270 H 0.19688 0.67581 0.59195 0.0
H271 H 0.16127 0.60942 0.57958 0.0
H272 H 0.17278 0.7644 0.60253 0.0
H273 H 0.14549 0.80625 0.63897 0.0
C274 C 0.30926 0.07593 0.96738 0.0
C275 C 0.368 0.06264 0.9552 0.0
C276 C 0.33298 0.05584 0.89269 0.0
C277 C 0.27369 0.06773 0.90485 0.0
N278 N 0.20833 0.10594 0.95158 0.0
N279 N 0.43907 0.06 0.90624 0.0
C280 C 0.26285 0.08345 0.94158 0.0
C281 C 0.38094 0.05969 0.91774 0.0
N282 N 0.29764 0.07925 1.00368 0.0
N283 N 0.34316 0.03688 0.85796 0.0
H284 H 0.47458 0.0645 0.92423 0.0
H285 H 0.4516 0.0627 0.87911 0.0
H286 H 0.30934 0.03218 0.83884 0.0
H287 H 0.38447 0.02114 0.84889 0.0
H288 H 0.25463 0.08138 1.01458 0.0
H289 H 0.33147 0.07738 1.02304 0.0
H290 H 0.1991 0.12299 0.97728 0.0
H291 H 0.17385 0.11267 0.93308 0.0
C292 C 0.02144 0.38844 0.41246 0.0
C293 C 0.06685 0.39933 0.43845 0.0
C294 C 0.11273 0.30272 0.42301 0.0
C295 C 0.07042 0.29523 0.39475 0.0
N296 N 0.99489 0.33873 0.3566 0.0
N297 N 0.16118 0.37135 0.46478 0.0
C298 C 0.02831 0.34081 0.38748 0.0
C299 C 0.11428 0.35777 0.44263 0.0
N300 N 0.96934 0.42039 0.41336 0.0
N301 N 0.14962 0.25654 0.43209 0.0
H302 H 0.16354 0.41123 0.47945 0.0
H303 H 0.19988 0.34557 0.46624 0.0
H304 H 0.14978 0.21575 0.41832 0.0
H305 H 0.17679 0.25703 0.45491 0.0
H306 H 0.9328 0.41045 0.39697 0.0
H307 H 0.95956 0.45144 0.43362 0.0
H308 H 0.96752 0.37385 0.34847 0.0
H309 H 0.99933 0.30481 0.33729 0.0
C310 C 0.6591 0.9007 0.93667 0.0
C311 C 0.62383 0.95315 0.93973 0.0
C312 C 0.68839 1.00384 0.89571 0.0
C313 C 0.72688 0.95351 0.89513 0.0
N314 N 0.75346 0.85625 0.91759 0.0
N315 N 0.61168 0.05858 0.92818 0.0
C316 C 0.71343 0.90235 0.91624 0.0
C317 C 0.64021 1.0058 0.92081 0.0
N318 N 0.63998 0.8492 0.95271 0.0
N319 N 0.69714 0.04935 0.8717 0.0
H320 H 0.57719 0.06259 0.94714 0.0
H321 H 0.62602 0.0996 0.91819 0.0
H322 H 0.73216 0.04981 0.85293 0.0
H323 H 0.66664 0.08398 0.86812 0.0
H324 H 0.66021 0.80783 0.94857 0.0
H325 H 0.60098 0.84708 0.9683 0.0
H326 H 0.74959 0.8205 0.93534 0.0
H327 H 0.79307 0.8557 0.90252 0.0
C328 C 0.95392 0.71727 0.47044 0.0
C329 C 0.9592 0.65784 0.45764 0.0
C330 C 0.95455 0.69289 0.39488 0.0
C331 C 0.95329 0.75276 0.40785 0.0
N332 N 0.94168 0.82113 0.45867 0.0
N333 N 0.94671 0.58727 0.40901 0.0
C334 C 0.94903 0.76461 0.44555 0.0
C335 C 0.95337 0.64506 0.4202 0.0
N336 N 0.95394 0.72898 0.50677 0.0
N337 N 0.96065 0.6819 0.3586 0.0
H338 H 0.9443 0.5521 0.42724 0.0
H339 H 0.93749 0.57473 0.38245 0.0
H340 H 0.96098 0.71564 0.33926 0.0
H341 H 0.96901 0.63976 0.34768 0.0
H342 H 0.95128 0.77231 0.51725 0.0
H343 H 0.95534 0.69523 0.52615 0.0
H344 H 0.93658 0.85877 0.4424 0.0
H345 H 0.93658 0.85877 0.4424 0.0
loop_
_geom_bond_atom_site_label_1
_geom_bond_atom_site_label_2
_geom_bond_distance
_geom_bond_site_symmetry_2
_ccdc_geom_bond_type
Mg0 O7 2.165 . S
Mg0 O8 2.025 1_554 S
Mg0 O9 2.025 1_554 S
Mg0 O12 2.165 . S
C1 O2 1.313 . S
C1 O8 1.195 1_565 S
O2 C1 1.313 . S
C3 O4 1.245 . S
C3 O12 1.289 1_565 S
O4 C3 1.245 . S
C5 O6 1.245 . S
C5 O7 1.289 1_565 S
O6 C5 1.245 . S
O7 Mg0 2.165 . S
O7 C5 1.289 1_545 S
O8 Mg0 2.025 1_556 S
O8 C1 1.195 1_545 S
O9 Mg0 2.025 1_556 S
O9 C10 1.195 1_545 S
C10 O9 1.195 1_565 S
C10 O11 1.313 . S
O11 C10 1.313 . S
O12 Mg0 2.165 . S
O12 C3 1.289 1_545 S
Mg13 O20 2.141 . S
Mg13 O21 2.048 . S
Mg13 O22 2.048 . S
Mg13 O25 2.141 . S
C14 O15 1.313 . S
C14 O21 1.195 1_455 S
O15 C14 1.313 . S
C16 O17 1.245 . S
C16 O25 1.289 1_455 S
O17 C16 1.245 . S
C18 O19 1.245 . S
C18 O20 1.289 1_455 S
O19 C18 1.245 . S
O20 Mg13 2.141 . S
O20 C18 1.289 1_655 S
O21 Mg13 2.048 . S
O21 C14 1.195 1_655 S
O22 Mg13 2.048 . S
O22 C23 1.195 1_655 S
C23 O22 1.195 1_455 S
C23 O24 1.313 . S
O24 C23 1.313 . S
O25 Mg13 2.141 . S
O25 C16 1.289 1_655 S
Li26 N43 1.990 . S
Li26 O86 1.956 1_545 S
Li26 O87 1.970 1_455 S
Li26 O88 1.961 1_455 S
Li27 N51 1.990 . S
Li27 O86 1.970 1_655 S
Li27 O87 1.956 1_565 S
Li27 O89 1.961 1_655 S
Li28 N73 1.990 . S
Li28 O86 1.961 1_545 S
Li28 O88 1.956 1_455 S
Li28 O89 1.970 1_545 S
Li29 N79 1.990 . S
Li29 O87 1.961 1_565 S
Li29 O88 1.970 1_565 S
Li29 O89 1.956 1_655 S
C30 C32 1.348 1_545 S
C30 C33 1.356 . S
C30 O86 1.325 1_545 S
N31 C34 1.314 1_545 S
N31 C35 1.279 . S
C32 C30 1.348 1_565 S
C32 C34 1.353 . S
C32 H90 0.929 . S
C33 C30 1.356 . S
C33 C35 1.358 . S
C33 H91 0.930 . S
C34 N31 1.314 1_565 S
C34 C32 1.353 . S
C34 H92 0.930 . S
C35 N31 1.279 . S
C35 C33 1.358 . S
C35 H93 0.930 . S
C36 C39 1.348 . S
C36 C40 1.356 1_545 S
C36 O87 1.325 . S
C37 N38 1.279 . S
C37 C40 1.358 . S
C37 H94 0.930 . S
N38 C37 1.279 . S
N38 C41 1.314 1_565 S
C39 C36 1.348 . S
C39 C41 1.353 . S
C39 H95 0.929 . S
C40 C36 1.356 1_565 S
C40 C37 1.358 . S
C40 H96 0.930 . S
C41 N38 1.314 1_545 S
C41 C39 1.353 . S
C41 H97 0.930 . S
C42 N43 1.314 1_655 S
C42 C47 1.353 . S
C42 H48 0.930 . S
N43 Li26 1.990 . S
N43 C42 1.314 1_455 S
N43 C45 1.279 . S
C44 C45 1.358 . S
C44 C46 1.356 . S
C44 H98 0.930 . S
C45 N43 1.279 . S
C45 C44 1.358 . S
C45 H49 0.930 . S
C46 C44 1.356 . S
C46 C47 1.348 1_455 S
C47 C42 1.353 . S
C47 C46 1.348 1_655 S
C47 H99 0.929 . S
H48 C42 0.930 . S
H49 C45 0.930 . S
C50 N51 1.314 1_455 S
C50 C52 1.353 . S
C50 H56 0.930 . S
N51 Li27 1.990 . S
N51 C50 1.314 1_655 S
N51 C54 1.279 . S
C52 C50 1.353 . S
C52 C55 1.348 . S
C52 H100 0.929 . S
C53 C54 1.358 . S
C53 C55 1.356 1_655 S
C53 H101 0.930 . S
C54 N51 1.279 . S
C54 C53 1.358 . S
C54 H57 0.930 . S
C55 C52 1.348 . S
C55 C53 1.356 1_455 S
H56 C50 0.930 . S
H57 C54 0.930 . S
C58 C60 1.348 1_455 S
C58 C61 1.356 . S
C58 O88 1.325 1_455 S
N59 C62 1.314 1_455 S
N59 C63 1.279 . S
C60 C58 1.348 1_655 S
C60 C62 1.353 . S
C60 H102 0.929 . S
C61 C58 1.356 . S
C61 C63 1.358 . S
C61 H103 0.930 . S
C62 N59 1.314 1_655 S
C62 C60 1.353 . S
C62 H104 0.930 . S
C63 N59 1.279 . S
C63 C61 1.358 . S
C63 H105 0.930 . S
C64 C65 1.348 . S
C64 C66 1.356 1_455 S
C64 O89 1.325 . S
C65 C64 1.348 . S
C65 C67 1.353 . S
C65 H106 0.929 . S
C66 C64 1.356 1_655 S
C66 C68 1.358 . S
C66 H107 0.930 . S
C67 C65 1.353 . S
C67 N69 1.314 1_455 S
C67 H108 0.930 . S
C68 C66 1.358 . S
C68 N69 1.279 . S
C68 H109 0.930 . S
N69 C67 1.314 1_655 S
N69 C68 1.279 . S
C70 C72 1.353 . S
C70 N73 1.314 1_565 S
C70 H76 0.930 . S
C71 N73 1.279 . S
C71 C74 1.358 . S
C71 H77 0.930 . S
C72 C70 1.353 . S
C72 C75 1.348 1_565 S
C72 H110 0.929 . S
N73 Li28 1.990 . S
N73 C70 1.314 1_545 S
N73 C71 1.279 . S
C74 C71 1.358 . S
C74 C75 1.356 . S
C74 H111 0.930 . S
C75 C72 1.348 1_545 S
C75 C74 1.356 . S
H76 C70 0.930 . S
H77 C71 0.930 . S
C78 N79 1.314 1_545 S
C78 C80 1.353 . S
C78 H84 0.930 . S
N79 Li29 1.990 . S
N79 C78 1.314 1_565 S
N79 C82 1.279 . S
C80 C78 1.353 . S
C80 C83 1.348 . S
C80 H112 0.929 . S
C81 C82 1.358 . S
C81 C83 1.356 1_565 S
C81 H113 0.930 . S
C82 N79 1.279 . S
C82 C81 1.358 . S
C82 H85 0.930 . S
C83 C80 1.348 . S
C83 C81 1.356 1_545 S
H84 C78 0.930 . S
H85 C82 0.930 . S
O86 Li26 1.956 1_565 S
O86 Li27 1.970 1_455 S
O86 Li28 1.961 1_565 S
O86 C30 1.325 1_565 S
O87 Li26 1.970 1_655 S
O87 Li27 1.956 1_545 S
O87 Li29 1.961 1_545 S
O87 C36 1.325 . S
O88 Li26 1.961 1_655 S
O88 Li28 1.956 1_655 S
O88 Li29 1.970 1_545 S
O88 C58 1.325 1_655 S
O89 Li27 1.961 1_455 S
O89 Li28 1.970 1_565 S
O89 Li29 1.956 1_455 S
O89 C64 1.325 . S
H90 C32 0.929 . S
H91 C33 0.930 . S
H92 C34 0.930 . S
H93 C35 0.930 . S
H94 C37 0.930 . S
H95 C39 0.929 . S
H96 C40 0.930 . S
H97 C41 0.930 . S
H98 C44 0.930 . S
H99 C47 0.929 . S
H100 C52 0.929 . S
H101 C53 0.930 . S
H102 C60 0.929 . S
H103 C61 0.930 . S
H104 C62 0.930 . S
H105 C63 0.930 . S
H106 C65 0.929 . S
H107 C66 0.930 . S
H108 C67 0.930 . S
H109 C68 0.930 . S
H110 C72 0.929 . S
H111 C74 0.930 . S
H112 C80 0.929 . S
H113 C81 0.930 . S
Li114 N131 1.990 . S
Li114 O174 1.956 1_655 S
Li114 O175 1.970 1_545 S
Li114 O176 1.961 1_545 S
Li115 N139 1.990 . S
Li115 O174 1.970 1_565 S
Li115 O175 1.956 1_455 S
Li115 O177 1.961 1_565 S
Li116 N161 1.990 . S
Li116 O174 1.961 1_655 S
Li116 O176 1.956 1_545 S
Li116 O177 1.970 1_655 S
Li117 N167 1.990 . S
Li117 O175 1.961 1_455 S
Li117 O176 1.970 1_455 S
Li117 O177 1.956 1_565 S
C118 C120 1.348 . S
C118 C121 1.355 1_455 S
C118 O174 1.325 . S
N119 C122 1.314 1_655 S
N119 C123 1.279 . S
C120 C118 1.348 . S
C120 C122 1.353 . S
C120 H178 0.929 . S
C121 C118 1.355 1_655 S
C121 C123 1.358 . S
C121 H179 0.930 . S
C122 N119 1.314 1_455 S
C122 C120 1.353 . S
C122 H180 0.930 . S
C123 N119 1.279 . S
C123 C121 1.358 . S
C123 H181 0.930 . S
C124 C127 1.348 1_455 S
C124 C128 1.355 . S
C124 O175 1.325 1_455 S
C125 N126 1.279 . S
C125 C128 1.358 . S
C125 H182 0.930 . S
N126 C125 1.279 . S
N126 C129 1.314 1_455 S
C127 C124 1.348 1_655 S
C127 C129 1.353 . S
C127 H183 0.929 . S
C128 C124 1.355 . S
C128 C125 1.358 . S
C128 H184 0.930 . S
C129 N126 1.314 1_655 S
C129 C127 1.353 . S
C129 H185 0.930 . S
C130 N131 1.314 1_565 S
C130 C135 1.353 . S
C130 H136 0.930 . S
N131 Li114 1.990 . S
N131 C130 1.314 1_545 S
N131 C133 1.279 . S
C132 C133 1.358 . S
C132 C134 1.355 . S
C132 H186 0.930 . S
C133 N131 1.279 . S
C133 C132 1.358 . S
C133 H137 0.930 . S
C134 C132 1.355 . S
C134 C135 1.348 1_545 S
C135 C130 1.353 . S
C135 C134 1.348 1_565 S
C135 H187 0.929 . S
H136 C130 0.930 . S
H137 C133 0.930 . S
C138 N139 1.314 1_545 S
C138 C140 1.353 . S
C138 H144 0.930 . S
N139 Li115 1.990 . S
N139 C138 1.314 1_565 S
N139 C142 1.279 . S
C140 C138 1.353 . S
C140 C143 1.348 . S
C140 H188 0.929 . S
C141 C142 1.358 . S
C141 C143 1.355 1_565 S
C141 H189 0.930 . S
C142 N139 1.279 . S
C142 C141 1.358 . S
C142 H145 0.930 . S
C143 C140 1.348 . S
C143 C141 1.355 1_545 S
H144 C138 0.930 . S
H145 C142 0.930 . S
C146 C148 1.348 1_545 S
C146 C149 1.355 . S
C146 O176 1.325 1_545 S
N147 C150 1.314 1_545 S
N147 C151 1.279 . S
C148 C146 1.348 1_565 S
C148 C150 1.353 . S
C148 H190 0.929 . S
C149 C146 1.355 . S
C149 C151 1.358 . S
C149 H191 0.930 . S
C150 N147 1.314 1_565 S
C150 C148 1.353 . S
C150 H192 0.930 . S
C151 N147 1.279 . S
C151 C149 1.358 . S
C151 H193 0.930 . S
C152 C153 1.348 . S
C152 C154 1.355 1_545 S
C152 O177 1.325 . S
C153 C152 1.348 . S
C153 C155 1.353 . S
C153 H194 0.929 . S
C154 C152 1.355 1_565 S
C154 C156 1.358 . S
C154 H195 0.930 . S
C155 C153 1.353 . S
C155 N157 1.314 1_545 S
C155 H196 0.930 . S
C156 C154 1.358 . S
C156 N157 1.279 . S
C156 H197 0.930 . S
N157 C155 1.314 1_565 S
N157 C156 1.279 . S
C158 C160 1.353 . S
C158 N161 1.314 1_455 S
C158 H164 0.930 . S
C159 N161 1.279 . S
C159 C162 1.358 . S
C159 H165 0.930 . S
C160 C158 1.353 . S
C160 C163 1.348 . S
C160 H198 0.929 . S
N161 Li116 1.990 . S
N161 C158 1.314 1_655 S
N161 C159 1.279 . S
C162 C159 1.358 . S
C162 C163 1.355 1_655 S
C162 H199 0.930 . S
C163 C160 1.348 . S
C163 C162 1.355 1_455 S
H164 C158 0.930 . S
H165 C159 0.930 . S
C166 N167 1.314 1_655 S
C166 C168 1.353 . S
C166 H172 0.930 . S
N167 Li117 1.990 . S
N167 C166 1.314 1_455 S
N167 C170 1.279 . S
C168 C166 1.353 . S
C168 C171 1.348 1_655 S
C168 H200 0.929 . S
C169 C170 1.358 . S
C169 C171 1.355 . S
C169 H201 0.930 . S
C170 N167 1.279 . S
C170 C169 1.358 . S
C170 H173 0.930 . S
C171 C168 1.348 1_455 S
C171 C169 1.355 . S
H172 C166 0.930 . S
H173 C170 0.930 . S
O174 Li114 1.956 1_455 S
O174 Li115 1.970 1_545 S
O174 Li116 1.961 1_455 S
O174 C118 1.325 . S
O175 Li114 1.970 1_565 S
O175 Li115 1.956 1_655 S
O175 Li117 1.961 1_655 S
O175 C124 1.325 1_655 S
O176 Li114 1.961 1_565 S
O176 Li116 1.956 1_565 S
O176 Li117 1.970 1_655 S
O176 C146 1.325 1_565 S
O177 Li115 1.961 1_545 S
O177 Li116 1.970 1_455 S
O177 Li117 1.956 1_545 S
O177 C152 1.325 . S
H178 C120 0.929 . S
H179 C121 0.930 . S
H180 C122 0.930 . S
H181 C123 0.930 . S
H182 C125 0.930 . S
H183 C127 0.929 . S
H184 C128 0.930 . S
H185 C129 0.930 . S
H186 C132 0.930 . S
H187 C135 0.929 . S
H188 C140 0.929 . S
H189 C141 0.930 . S
H190 C148 0.929 . S
H191 C149 0.930 . S
H192 C150 0.930 . S
H193 C151 0.930 . S
H194 C153 0.929 . S
H195 C154 0.930 . S
H196 C155 0.930 . S
H197 C156 0.930 . S
H198 C160 0.929 . S
H199 C162 0.930 . S
H200 C168 0.929 . S
H201 C169 0.930 . S
C202 C203 1.363 1_545 S
C202 C208 1.379 . S
C202 N210 1.356 . S
C203 C202 1.363 1_565 S
C203 C209 1.363 . S
C204 C205 1.363 . S
C204 C209 1.379 . S
C204 N211 1.356 . S
C205 C204 1.363 . S
C205 C208 1.363 1_565 S
N206 C208 1.356 . S
N206 H218 0.984 . S
N206 H219 0.985 . S
N207 C209 1.356 . S
N207 H212 0.984 . S
N207 H213 0.985 . S
C208 C202 1.379 . S
C208 C205 1.363 1_545 S
C208 N206 1.356 . S
C209 C203 1.363 . S
C209 C204 1.379 . S
C209 N207 1.356 . S
N210 C202 1.356 . S
N210 H216 0.984 . S
N210 H217 0.984 . S
N211 C204 1.356 . S
N211 H214 0.984 . S
N211 H215 0.985 . S
H212 N207 0.984 . S
H213 N207 0.985 . S
H214 N211 0.984 . S
H215 N211 0.985 . S
H216 N210 0.984 . S
H217 N210 0.984 . S
H218 N206 0.984 . S
H219 N206 0.985 . S
C220 C221 1.366 . S
C220 C226 1.379 . S
C220 N228 1.356 . S
C221 C220 1.366 . S
C221 C227 1.360 1_455 S
C222 C223 1.363 1_655 S
C222 C227 1.379 . S
C222 N229 1.356 . S
C223 C222 1.363 1_455 S
C223 C226 1.363 . S
N224 C226 1.356 . S
N224 H236 0.984 . S
N224 H237 0.985 . S
N225 C227 1.356 . S
N225 H230 0.984 . S
N225 H231 0.985 . S
C226 C220 1.379 . S
C226 C223 1.363 . S
C226 N224 1.356 . S
C227 C221 1.360 1_655 S
C227 C222 1.379 . S
C227 N225 1.356 . S
N228 C220 1.356 . S
N228 H234 0.984 . S
N228 H235 0.984 . S
N229 C222 1.356 . S
N229 H232 0.984 . S
N229 H233 0.985 . S
H230 N225 0.984 . S
H231 N225 0.985 . S
H232 N229 0.984 . S
H233 N229 0.985 . S
H234 N228 0.984 . S
H235 N228 0.984 . S
H236 N224 0.984 . S
H237 N224 0.985 . S
C238 C239 1.366 . S
C238 C244 1.379 . S
C238 N246 1.356 . S
C239 C238 1.366 . S
C239 C245 1.360 1_545 S
C240 C241 1.363 1_565 S
C240 C245 1.379 . S
C240 N247 1.356 . S
C241 C240 1.363 1_545 S
C241 C244 1.363 . S
N242 C244 1.356 . S
N242 H254 0.984 . S
N242 H255 0.985 . S
N243 C245 1.356 . S
N243 H248 0.984 . S
N243 H249 0.985 . S
C244 C238 1.379 . S
C244 C241 1.363 . S
C244 N242 1.356 . S
C245 C239 1.360 1_565 S
C245 C240 1.379 . S
C245 N243 1.356 . S
N246 C238 1.356 . S
N246 H252 0.984 . S
N246 H253 0.984 . S
N247 C240 1.356 . S
N247 H250 0.984 . S
N247 H251 0.985 . S
H248 N243 0.984 . S
H249 N243 0.985 . S
H250 N247 0.984 . S
H251 N247 0.985 . S
H252 N246 0.984 . S
H253 N246 0.984 . S
H254 N242 0.984 . S
H255 N242 0.985 . S
C256 C257 1.363 1_455 S
C256 C262 1.379 . S
C256 N264 1.356 . S
C257 C256 1.363 1_655 S
C257 C263 1.363 . S
C258 C259 1.363 . S
C258 C263 1.379 . S
C258 N265 1.356 . S
C259 C258 1.363 . S
C259 C262 1.363 1_655 S
N260 C262 1.356 . S
N260 H272 0.984 . S
N260 H273 0.985 . S
N261 C263 1.356 . S
N261 H266 0.984 . S
N261 H267 0.985 . S
C262 C256 1.379 . S
C262 C259 1.363 1_455 S
C262 N260 1.356 . S
C263 C257 1.363 . S
C263 C258 1.379 . S
C263 N261 1.356 . S
N264 C256 1.356 . S
N264 H270 0.984 . S
N264 H271 0.984 . S
N265 C258 1.356 . S
N265 H268 0.984 . S
N265 H269 0.985 . S
H266 N261 0.984 . S
H267 N261 0.985 . S
H268 N265 0.984 . S
H269 N265 0.985 . S
H270 N264 0.984 . S
H271 N264 0.984 . S
H272 N260 0.984 . S
H273 N260 0.985 . S
C274 C275 1.367 . S
C274 C280 1.379 . S
C274 N282 1.356 . S
C275 C274 1.367 . S
C275 C281 1.359 1_545 S
C276 C277 1.363 1_565 S
C276 C281 1.379 . S
C276 N283 1.356 . S
C277 C276 1.363 1_545 S
C277 C280 1.363 . S
N278 C280 1.356 . S
N278 H290 0.984 . S
N278 H291 0.985 . S
N279 C281 1.356 . S
N279 H284 0.984 . S
N279 H285 0.985 . S
C280 C274 1.379 . S
C280 C277 1.363 . S
C280 N278 1.356 . S
C281 C275 1.359 1_565 S
C281 C276 1.379 . S
C281 N279 1.356 . S
N282 C274 1.356 . S
N282 H288 0.984 . S
N282 H289 0.984 . S
N283 C276 1.356 . S
N283 H286 0.984 . S
N283 H287 0.985 . S
H284 N279 0.984 . S
H285 N279 0.985 . S
H286 N283 0.984 . S
H287 N283 0.985 . S
H288 N282 0.984 . S
H289 N282 0.984 . S
H290 N278 0.984 . S
H291 N278 0.985 . S
C292 C293 1.363 . S
C292 C298 1.379 . S
C292 N300 1.356 . S
C293 C292 1.363 . S
C293 C299 1.363 1_655 S
C294 C295 1.363 1_455 S
C294 C299 1.379 . S
C294 N301 1.356 . S
C295 C294 1.363 1_655 S
C295 C298 1.363 . S
N296 C298 1.356 . S
N296 H308 0.984 . S
N296 H309 0.985 . S
N297 C299 1.356 . S
N297 H302 0.984 . S
N297 H303 0.985 . S
C298 C292 1.379 . S
C298 C295 1.363 . S
C298 N296 1.356 . S
C299 C293 1.363 1_455 S
C299 C294 1.379 . S
C299 N297 1.356 . S
N300 C292 1.356 . S
N300 H306 0.984 . S
N300 H307 0.984 . S
N301 C294 1.356 . S
N301 H304 0.984 . S
N301 H305 0.985 . S
H302 N297 0.984 . S
H303 N297 0.985 . S
H304 N301 0.984 . S
H305 N301 0.985 . S
H306 N300 0.984 . S
H307 N300 0.984 . S
H308 N296 0.984 . S
H309 N296 0.985 . S
C310 C311 1.364 . S
C310 C316 1.379 . S
C310 N318 1.356 . S
C311 C310 1.364 . S
C311 C317 1.362 1_565 S
C312 C313 1.363 1_545 S
C312 C317 1.379 . S
C312 N319 1.356 . S
C313 C312 1.363 1_565 S
C313 C316 1.363 . S
N314 C316 1.356 . S
N314 H326 0.984 . S
N314 H327 0.985 . S
N315 C317 1.356 . S
N315 H320 0.984 . S
N315 H321 0.985 . S
C316 C310 1.379 . S
C316 C313 1.363 . S
C316 N314 1.356 . S
C317 C311 1.362 1_545 S
C317 C312 1.379 . S
C317 N315 1.356 . S
N318 C310 1.356 . S
N318 H324 0.984 . S
N318 H325 0.984 . S
N319 C312 1.356 . S
N319 H322 0.984 . S
N319 H323 0.985 . S
H320 N315 0.984 . S
H321 N315 0.985 . S
H322 N319 0.984 . S
H323 N319 0.985 . S
H324 N318 0.984 . S
H325 N318 0.984 . S
H326 N314 0.984 . S
H327 N314 0.985 . S
C328 C329 1.360 1_655 S
C328 C334 1.379 . S
C328 N336 1.356 . S
C329 C328 1.360 1_455 S
C329 C335 1.366 . S
C330 C331 1.363 . S
C330 C335 1.379 . S
C330 N337 1.356 . S
C331 C330 1.363 . S
C331 C334 1.363 1_455 S
N332 C334 1.356 . S
N332 H344 0.984 . S
N332 H345 0.985 . S
N333 C335 1.356 . S
N333 H338 0.984 . S
N333 H339 0.985 . S
C334 C328 1.379 . S
C334 C331 1.363 1_655 S
C334 N332 1.356 . S
C335 C329 1.366 . S
C335 C330 1.379 . S
C335 N333 1.356 . S
N336 C328 1.356 . S
N336 H342 0.984 . S
N336 H343 0.984 . S
N337 C330 1.356 . S
N337 H340 0.984 . S
N337 H341 0.985 . S
H338 N333 0.984 . S
H339 N333 0.985 . S
H340 N337 0.984 . S
H341 N337 0.985 . S
H342 N336 0.984 . S
H343 N336 0.984 . S
H344 N332 0.984 . S
H345 N332 0.985 . S
C205 C75 1.429 1_565 S
C203 C5 1.420 . S
C223 C163 1.492 . S
C221 C23 1.489 . S
C241 C83 1.429 . S
C239 C3 1.424 1_545 S
C259 C171 1.492 1_655 S
C257 C14 1.493 1_655 S
C277 C143 1.492 . S
C275 C1 1.491 1_545 S
C295 C46 1.430 1_655 S
C293 C16 1.424 1_655 S
C313 C134 1.492 1_565 S
C311 C10 1.494 . S
C329 C18 1.425 . S
C331 C55 1.431 . S
