# Generated by pormake.
# Topology gar, (4,6)-cn, num edge types: 1
# Building blocks:
#     Node 0, Type 0, BuildingBlock: TATPOV_clean_sbu_0, # of connection points: 4
#     Node 1, Type 0, BuildingBlock: TATPOV_clean_sbu_0, # of connection points: 4
#     Node 2, Type 0, BuildingBlock: TATPOV_clean_sbu_0, # of connection points: 4
#     Node 3, Type 0, BuildingBlock: TATPOV_clean_sbu_0, # of connection points: 4
#     Node 4, Type 0, BuildingBlock: TATPOV_clean_sbu_0, # of connection points: 4
#     Node 5, Type 0, BuildingBlock: TATPOV_clean_sbu_0, # of connection points: 4
#     Node 6, Type 0, BuildingBlock: TATPOV_clean_sbu_0, # of connection points: 4
#     Node 7, Type 0, BuildingBlock: TATPOV_clean_sbu_0, # of connection points: 4
#     Node 8, Type 0, BuildingBlock: TATPOV_clean_sbu_0, # of connection points: 4
#     Node 9, Type 0, BuildingBlock: TATPOV_clean_sbu_0, # of connection points: 4
#     Node 10, Type 0, BuildingBlock: TATPOV_clean_sbu_0, # of connection points: 4
#     Node 11, Type 0, BuildingBlock: TATPOV_clean_sbu_0, # of connection points: 4
#     Node 12, Type 0, BuildingBlock: TATPOV_clean_sbu_0, # of connection points: 4
#     Node 13, Type 0, BuildingBlock: TATPOV_clean_sbu_0, # of connection points: 4
#     Node 14, Type 0, BuildingBlock: TATPOV_clean_sbu_0, # of connection points: 4
#     Node 15, Type 0, BuildingBlock: TATPOV_clean_sbu_0, # of connection points: 4
#     Node 16, Type 0, BuildingBlock: TATPOV_clean_sbu_0, # of connection points: 4
#     Node 17, Type 0, BuildingBlock: TATPOV_clean_sbu_0, # of connection points: 4
#     Node 18, Type 0, BuildingBlock: TATPOV_clean_sbu_0, # of connection points: 4
#     Node 19, Type 0, BuildingBlock: TATPOV_clean_sbu_0, # of connection points: 4
#     Node 20, Type 0, BuildingBlock: TATPOV_clean_sbu_0, # of connection points: 4
#     Node 21, Type 0, BuildingBlock: TATPOV_clean_sbu_0, # of connection points: 4
#     Node 22, Type 0, BuildingBlock: TATPOV_clean_sbu_0, # of connection points: 4
#     Node 23, Type 0, BuildingBlock: TATPOV_clean_sbu_0, # of connection points: 4
#     Node 24, Type 1, BuildingBlock: KUMBUR_clean_sbu_0, # of connection points: 6
#     Node 25, Type 1, BuildingBlock: KUMBUR_clean_sbu_0, # of connection points: 6
#     Node 26, Type 1, BuildingBlock: KUMBUR_clean_sbu_0, # of connection points: 6
#     Node 27, Type 1, BuildingBlock: KUMBUR_clean_sbu_0, # of connection points: 6
#     Node 28, Type 1, BuildingBlock: KUMBUR_clean_sbu_0, # of connection points: 6
#     Node 29, Type 1, BuildingBlock: KUMBUR_clean_sbu_0, # of connection points: 6
#     Node 30, Type 1, BuildingBlock: KUMBUR_clean_sbu_0, # of connection points: 6
#     Node 31, Type 1, BuildingBlock: KUMBUR_clean_sbu_0, # of connection points: 6
#     Node 32, Type 1, BuildingBlock: KUMBUR_clean_sbu_0, # of connection points: 6
#     Node 33, Type 1, BuildingBlock: KUMBUR_clean_sbu_0, # of connection points: 6
#     Node 34, Type 1, BuildingBlock: KUMBUR_clean_sbu_0, # of connection points: 6
#     Node 35, Type 1, BuildingBlock: KUMBUR_clean_sbu_0, # of connection points: 6
#     Node 36, Type 1, BuildingBlock: KUMBUR_clean_sbu_0, # of connection points: 6
#     Node 37, Type 1, BuildingBlock: KUMBUR_clean_sbu_0, # of connection points: 6
#     Node 38, Type 1, BuildingBlock: KUMBUR_clean_sbu_0, # of connection points: 6
#     Node 39, Type 1, BuildingBlock: KUMBUR_clean_sbu_0, # of connection points: 6
#     Edge 40, Type (0, 1), BuildingBlock: OJICUG_clean_linker_0, # of connection points: 2
#     Edge 41, Type (0, 1), BuildingBlock: OJICUG_clean_linker_0, # of connection points: 2
#     Edge 42, Type (0, 1), BuildingBlock: OJICUG_clean_linker_0, # of connection points: 2
#     Edge 43, Type (0, 1), BuildingBlock: OJICUG_clean_linker_0, # of connection points: 2
#     Edge 44, Type (0, 1), BuildingBlock: OJICUG_clean_linker_0, # of connection points: 2
#     Edge 45, Type (0, 1), BuildingBlock: OJICUG_clean_linker_0, # of connection points: 2
#     Edge 46, Type (0, 1), BuildingBlock: OJICUG_clean_linker_0, # of connection points: 2
#     Edge 47, Type (0, 1), BuildingBlock: OJICUG_clean_linker_0, # of connection points: 2
#     Edge 48, Type (0, 1), BuildingBlock: OJICUG_clean_linker_0, # of connection points: 2
#     Edge 49, Type (0, 1), BuildingBlock: OJICUG_clean_linker_0, # of connection points: 2
#     Edge 50, Type (0, 1), BuildingBlock: OJICUG_clean_linker_0, # of connection points: 2
#     Edge 51, Type (0, 1), BuildingBlock: OJICUG_clean_linker_0, # of connection points: 2
#     Edge 52, Type (0, 1), BuildingBlock: OJICUG_clean_linker_0, # of connection points: 2
#     Edge 53, Type (0, 1), BuildingBlock: OJICUG_clean_linker_0, # of connection points: 2
#     Edge 54, Type (0, 1), BuildingBlock: OJICUG_clean_linker_0, # of connection points: 2
#     Edge 55, Type (0, 1), BuildingBlock: OJICUG_clean_linker_0, # of connection points: 2
#     Edge 56, Type (0, 1), BuildingBlock: OJICUG_clean_linker_0, # of connection points: 2
#     Edge 57, Type (0, 1), BuildingBlock: OJICUG_clean_linker_0, # of connection points: 2
#     Edge 58, Type (0, 1), BuildingBlock: OJICUG_clean_linker_0, # of connection points: 2
#     Edge 59, Type (0, 1), BuildingBlock: OJICUG_clean_linker_0, # of connection points: 2
#     Edge 60, Type (0, 1), BuildingBlock: OJICUG_clean_linker_0, # of connection points: 2
#     Edge 61, Type (0, 1), BuildingBlock: OJICUG_clean_linker_0, # of connection points: 2
#     Edge 62, Type (0, 1), BuildingBlock: OJICUG_clean_linker_0, # of connection points: 2
#     Edge 63, Type (0, 1), BuildingBlock: OJICUG_clean_linker_0, # of connection points: 2
#     Edge 64, Type (0, 1), BuildingBlock: OJICUG_clean_linker_0, # of connection points: 2
#     Edge 65, Type (0, 1), BuildingBlock: OJICUG_clean_linker_0, # of connection points: 2
#     Edge 66, Type (0, 1), BuildingBlock: OJICUG_clean_linker_0, # of connection points: 2
#     Edge 67, Type (0, 1), BuildingBlock: OJICUG_clean_linker_0, # of connection points: 2
#     Edge 68, Type (0, 1), BuildingBlock: OJICUG_clean_linker_0, # of connection points: 2
#     Edge 69, Type (0, 1), BuildingBlock: OJICUG_clean_linker_0, # of connection points: 2
#     Edge 70, Type (0, 1), BuildingBlock: OJICUG_clean_linker_0, # of connection points: 2
#     Edge 71, Type (0, 1), BuildingBlock: OJICUG_clean_linker_0, # of connection points: 2
#     Edge 72, Type (0, 1), BuildingBlock: OJICUG_clean_linker_0, # of connection points: 2
#     Edge 73, Type (0, 1), BuildingBlock: OJICUG_clean_linker_0, # of connection points: 2
#     Edge 74, Type (0, 1), BuildingBlock: OJICUG_clean_linker_0, # of connection points: 2
#     Edge 75, Type (0, 1), BuildingBlock: OJICUG_clean_linker_0, # of connection points: 2
#     Edge 76, Type (0, 1), BuildingBlock: OJICUG_clean_linker_0, # of connection points: 2
#     Edge 77, Type (0, 1), BuildingBlock: OJICUG_clean_linker_0, # of connection points: 2
#     Edge 78, Type (0, 1), BuildingBlock: OJICUG_clean_linker_0, # of connection points: 2
#     Edge 79, Type (0, 1), BuildingBlock: OJICUG_clean_linker_0, # of connection points: 2
#     Edge 80, Type (0, 1), BuildingBlock: OJICUG_clean_linker_0, # of connection points: 2
#     Edge 81, Type (0, 1), BuildingBlock: OJICUG_clean_linker_0, # of connection points: 2
#     Edge 82, Type (0, 1), BuildingBlock: OJICUG_clean_linker_0, # of connection points: 2
#     Edge 83, Type (0, 1), BuildingBlock: OJICUG_clean_linker_0, # of connection points: 2
#     Edge 84, Type (0, 1), BuildingBlock: OJICUG_clean_linker_0, # of connection points: 2
#     Edge 85, Type (0, 1), BuildingBlock: OJICUG_clean_linker_0, # of connection points: 2
#     Edge 86, Type (0, 1), BuildingBlock: OJICUG_clean_linker_0, # of connection points: 2
#     Edge 87, Type (0, 1), BuildingBlock: OJICUG_clean_linker_0, # of connection points: 2
#     Edge 88, Type (0, 1), BuildingBlock: OJICUG_clean_linker_0, # of connection points: 2
#     Edge 89, Type (0, 1), BuildingBlock: OJICUG_clean_linker_0, # of connection points: 2
#     Edge 90, Type (0, 1), BuildingBlock: OJICUG_clean_linker_0, # of connection points: 2
#     Edge 91, Type (0, 1), BuildingBlock: OJICUG_clean_linker_0, # of connection points: 2
#     Edge 92, Type (0, 1), BuildingBlock: OJICUG_clean_linker_0, # of connection points: 2
#     Edge 93, Type (0, 1), BuildingBlock: OJICUG_clean_linker_0, # of connection points: 2
#     Edge 94, Type (0, 1), BuildingBlock: OJICUG_clean_linker_0, # of connection points: 2
#     Edge 95, Type (0, 1), BuildingBlock: OJICUG_clean_linker_0, # of connection points: 2
#     Edge 96, Type (0, 1), BuildingBlock: OJICUG_clean_linker_0, # of connection points: 2
#     Edge 97, Type (0, 1), BuildingBlock: OJICUG_clean_linker_0, # of connection points: 2
#     Edge 98, Type (0, 1), BuildingBlock: OJICUG_clean_linker_0, # of connection points: 2
#     Edge 99, Type (0, 1), BuildingBlock: OJICUG_clean_linker_0, # of connection points: 2
#     Edge 100, Type (0, 1), BuildingBlock: OJICUG_clean_linker_0, # of connection points: 2
#     Edge 101, Type (0, 1), BuildingBlock: OJICUG_clean_linker_0, # of connection points: 2
#     Edge 102, Type (0, 1), BuildingBlock: OJICUG_clean_linker_0, # of connection points: 2
#     Edge 103, Type (0, 1), BuildingBlock: OJICUG_clean_linker_0, # of connection points: 2
#     Edge 104, Type (0, 1), BuildingBlock: OJICUG_clean_linker_0, # of connection points: 2
#     Edge 105, Type (0, 1), BuildingBlock: OJICUG_clean_linker_0, # of connection points: 2
#     Edge 106, Type (0, 1), BuildingBlock: OJICUG_clean_linker_0, # of connection points: 2
#     Edge 107, Type (0, 1), BuildingBlock: OJICUG_clean_linker_0, # of connection points: 2
#     Edge 108, Type (0, 1), BuildingBlock: OJICUG_clean_linker_0, # of connection points: 2
#     Edge 109, Type (0, 1), BuildingBlock: OJICUG_clean_linker_0, # of connection points: 2
#     Edge 110, Type (0, 1), BuildingBlock: OJICUG_clean_linker_0, # of connection points: 2
#     Edge 111, Type (0, 1), BuildingBlock: OJICUG_clean_linker_0, # of connection points: 2
#     Edge 112, Type (0, 1), BuildingBlock: OJICUG_clean_linker_0, # of connection points: 2
#     Edge 113, Type (0, 1), BuildingBlock: OJICUG_clean_linker_0, # of connection points: 2
#     Edge 114, Type (0, 1), BuildingBlock: OJICUG_clean_linker_0, # of connection points: 2
#     Edge 115, Type (0, 1), BuildingBlock: OJICUG_clean_linker_0, # of connection points: 2
#     Edge 116, Type (0, 1), BuildingBlock: OJICUG_clean_linker_0, # of connection points: 2
#     Edge 117, Type (0, 1), BuildingBlock: OJICUG_clean_linker_0, # of connection points: 2
#     Edge 118, Type (0, 1), BuildingBlock: OJICUG_clean_linker_0, # of connection points: 2
#     Edge 119, Type (0, 1), BuildingBlock: OJICUG_clean_linker_0, # of connection points: 2
#     Edge 120, Type (0, 1), BuildingBlock: OJICUG_clean_linker_0, # of connection points: 2
#     Edge 121, Type (0, 1), BuildingBlock: OJICUG_clean_linker_0, # of connection points: 2
#     Edge 122, Type (0, 1), BuildingBlock: OJICUG_clean_linker_0, # of connection points: 2
#     Edge 123, Type (0, 1), BuildingBlock: OJICUG_clean_linker_0, # of connection points: 2
#     Edge 124, Type (0, 1), BuildingBlock: OJICUG_clean_linker_0, # of connection points: 2
#     Edge 125, Type (0, 1), BuildingBlock: OJICUG_clean_linker_0, # of connection points: 2
#     Edge 126, Type (0, 1), BuildingBlock: OJICUG_clean_linker_0, # of connection points: 2
#     Edge 127, Type (0, 1), BuildingBlock: OJICUG_clean_linker_0, # of connection points: 2
#     Edge 128, Type (0, 1), BuildingBlock: OJICUG_clean_linker_0, # of connection points: 2
#     Edge 129, Type (0, 1), BuildingBlock: OJICUG_clean_linker_0, # of connection points: 2
#     Edge 130, Type (0, 1), BuildingBlock: OJICUG_clean_linker_0, # of connection points: 2
#     Edge 131, Type (0, 1), BuildingBlock: OJICUG_clean_linker_0, # of connection points: 2
#     Edge 132, Type (0, 1), BuildingBlock: OJICUG_clean_linker_0, # of connection points: 2
#     Edge 133, Type (0, 1), BuildingBlock: OJICUG_clean_linker_0, # of connection points: 2
#     Edge 134, Type (0, 1), BuildingBlock: OJICUG_clean_linker_0, # of connection points: 2
#     Edge 135, Type (0, 1), BuildingBlock: OJICUG_clean_linker_0, # of connection points: 2
# Relax obj value: 0.166
# Max RMSD: 0.358
# Mean RMSD: 0.177
data_MOF--net-gar--node1-TATPOV_clean_sbu_0--node2-KUMBUR_clean_sbu_0--edge1-OJICUG_clean_linker_0
_symmetry_space_group_name_H-M    P1
_symmetry_Int_Tables_number       1
_symmetry_cell_setting            triclinic
loop_
_symmetry_equiv_pos_as_xyz
'x, y, z'
_cell_length_a     47.046872
_cell_length_b     41.494253
_cell_length_c     41.799397
_cell_angle_alpha  101.72422
_cell_angle_beta   95.402422
_cell_angle_gamma 104.77998
loop_
_atom_site_label
_atom_site_type_symbol
_atom_site_fract_x
_atom_site_fract_y
_atom_site_fract_z
_atom_type_partial_charge
Zn0 Zn 0.12205 0.36214 0.42484 0.0
Zn1 Zn 0.16334 0.3611 0.40126 0.0
O2 O 0.17665 0.40922 0.43324 0.0
O3 O 0.1307 0.41091 0.42281 0.0
O4 O 0.19625 0.35493 0.37607 0.0
O5 O 0.13999 0.351 0.465 0.0
O6 O 0.15459 0.32089 0.4243 0.0
C7 C 0.15777 0.42641 0.43336 0.0
C8 C 0.1018 0.34033 0.36359 0.0
O9 O 0.12848 0.35875 0.36661 0.0
O10 O 0.09368 0.3269 0.387 0.0
C11 C 0.19443 0.35217 0.34503 0.0
O12 O 0.1708 0.35578 0.32841 0.0
C13 C 0.14819 0.32497 0.45344 0.0
Zn14 Zn 0.99046 0.70082 0.68912 0.0
Zn15 Zn 1.00584 0.75363 0.66775 0.0
O16 O 0.97149 0.76004 0.69241 0.0
O17 O 0.97073 0.72309 0.72359 0.0
O18 O 0.01574 0.79175 0.64489 0.0
O19 O 0.03352 0.70436 0.69844 0.0
O20 O 0.04493 0.75867 0.69654 0.0
C21 C 0.96263 0.74781 0.71645 0.0
C22 C 0.98278 0.68061 0.62401 0.0
O23 O 0.99871 0.71152 0.63023 0.0
O24 O 0.96836 0.67017 0.64574 0.0
C25 C 1.00248 0.78875 0.61608 0.0
O26 O 0.9797 0.76184 0.60294 0.0
C27 C 0.05268 0.73301 0.70254 0.0
Zn28 Zn 0.62005 0.8446 0.93049 0.0
Zn29 Zn 0.66065 0.8563 0.8984 0.0
O30 O 0.66786 0.90608 0.91825 0.0
O31 O 0.64781 0.89053 0.96016 0.0
O32 O 0.68908 0.8473 0.86742 0.0
O33 O 0.62701 0.79698 0.91607 0.0
O34 O 0.66853 0.83352 0.93744 0.0
C35 C 0.66106 0.91404 0.94691 0.0
C36 C 0.59503 0.84777 0.87266 0.0
O37 O 0.62037 0.84423 0.86684 0.0
O38 O 0.58893 0.85181 0.90165 0.0
C39 C 0.70279 0.86703 0.85083 0.0
O40 O 0.70117 0.89872 0.85524 0.0
C41 C 0.65033 0.80494 0.93654 0.0
Zn42 Zn 0.48734 0.19577 0.19184 0.0
Zn43 Zn 0.5054 0.24805 0.16422 0.0
O44 O 0.4747 0.25954 0.19134 0.0
O45 O 0.46571 0.22173 0.22186 0.0
O46 O 0.51463 0.28398 0.13862 0.0
O47 O 0.53136 0.20239 0.20284 0.0
O48 O 0.54484 0.25301 0.19095 0.0
C49 C 0.46232 0.24866 0.21432 0.0
C50 C 0.47998 0.17265 0.12518 0.0
O51 O 0.49532 0.20357 0.12947 0.0
O52 O 0.46728 0.1631 0.1484 0.0
C53 C 0.50308 0.2781 0.10857 0.0
O54 O 0.48284 0.24896 0.09488 0.0
C55 C 0.55141 0.22896 0.2018 0.0
Zn56 Zn 0.16344 0.82678 0.0778 0.0
Zn57 Zn 0.12778 0.82635 0.12082 0.0
O58 O 0.12237 0.86948 0.10044 0.0
O59 O 0.14925 0.86833 0.06073 0.0
O60 O 0.09421 0.82044 0.14723 0.0
O61 O 0.14469 0.77223 0.0561 0.0
O62 O 0.11669 0.77428 0.0948 0.0
C63 C 0.13158 0.88207 0.0764 0.0
C64 C 0.19272 0.83499 0.14888 0.0
O65 O 0.16617 0.83291 0.1547 0.0
O66 O 0.19806 0.83564 0.11952 0.0
C67 C 0.07745 0.83964 0.15458 0.0
O68 O 0.08295 0.86978 0.14737 0.0
C69 C 0.12543 0.7563 0.07117 0.0
Zn70 Zn 0.50155 0.77314 0.48543 0.0
Zn71 Zn 0.53118 0.77037 0.43602 0.0
O72 O 0.54135 0.82315 0.46008 0.0
O73 O 0.52123 0.82694 0.50525 0.0
O74 O 0.56271 0.77329 0.40577 0.0
O75 O 0.51659 0.73162 0.50068 0.0
O76 O 0.53896 0.7289 0.45725 0.0
C77 C 0.53598 0.84194 0.48579 0.0
C78 C 0.4653 0.76286 0.41702 0.0
O79 O 0.48969 0.76088 0.40651 0.0
O80 O 0.46439 0.76623 0.44797 0.0
C81 C 0.58936 0.79027 0.41872 0.0
O82 O 0.59502 0.80515 0.45043 0.0
C83 C 0.5323 0.71705 0.48253 0.0
Zn84 Zn 0.6639 0.32891 0.57936 0.0
Zn85 Zn 0.62918 0.32861 0.623 0.0
O86 O 0.62344 0.37202 0.60303 0.0
O87 O 0.64923 0.37059 0.56243 0.0
O88 O 0.59557 0.32202 0.64925 0.0
O89 O 0.64535 0.27412 0.5577 0.0
O90 O 0.61834 0.27629 0.59727 0.0
C91 C 0.63217 0.38474 0.57884 0.0
C92 C 0.69412 0.33771 0.65058 0.0
O93 O 0.6677 0.33586 0.6568 0.0
O94 O 0.69897 0.33785 0.62096 0.0
C95 C 0.57925 0.34144 0.65774 0.0
O96 O 0.58541 0.37233 0.65219 0.0
C97 C 0.62667 0.25817 0.57337 0.0
Zn98 Zn 1.00132 0.2725 0.98578 0.0
Zn99 Zn 0.0301 0.26802 0.93608 0.0
O100 O 0.04023 0.32119 0.95963 0.0
O101 O 0.02139 0.32596 1.00563 0.0
O102 O 0.06198 0.27062 0.90616 0.0
O103 O 0.01517 0.23058 1.00135 0.0
O104 O 0.03785 0.22676 0.95814 0.0
C105 C 0.0355 0.34046 0.98547 0.0
C106 C 0.96478 0.26217 0.91731 0.0
O107 O 0.98844 0.25823 0.9061 0.0
O108 O 0.96468 0.26697 0.94848 0.0
C109 C 0.08868 0.28726 0.91934 0.0
O110 O 0.09417 0.30211 0.95106 0.0
C111 C 0.03096 0.21563 0.98373 0.0
Zn112 Zn 0.47746 0.9883 0.3355 0.0
Zn113 Zn 0.43864 0.05928 0.33094 0.0
O114 O 0.45419 0.0713 0.37972 0.0
O115 O 0.45482 0.01954 0.35917 0.0
O116 O 0.43369 0.09835 0.31492 0.0
O117 O 0.50127 1.01185 0.30381 0.0
O118 O 0.47011 0.04346 0.30816 0.0
C119 C 0.46511 0.04674 0.38157 0.0
C120 C 0.40801 0.99315 0.31857 0.0
O121 O 0.39931 0.01957 0.31823 0.0
O122 O 0.43582 0.99802 0.32626 0.0
C123 C 0.41288 0.10598 0.32876 0.0
O124 O 0.41232 0.10407 0.3597 0.0
C125 C 0.48984 0.03357 0.29383 0.0
Zn126 Zn 0.27448 0.24932 0.51739 0.0
Zn127 Zn 0.30706 0.20557 0.51488 0.0
O128 O 0.31743 0.22686 0.47458 0.0
O129 O 0.29471 0.26734 0.47979 0.0
O130 O 0.33311 0.17447 0.51685 0.0
O131 O 0.28973 0.27041 0.56794 0.0
O132 O 0.31668 0.23415 0.56362 0.0
C133 C 0.31106 0.25153 0.46438 0.0
C134 C 0.23998 0.17653 0.50317 0.0
O135 O 0.26566 0.17193 0.50724 0.0
O136 O 0.23741 0.20652 0.50464 0.0
C137 C 0.35795 0.177 0.50653 0.0
O138 O 0.36836 0.20142 0.49149 0.0
C139 C 0.30786 0.25739 0.58156 0.0
Zn140 Zn 0.16969 0.06021 0.78508 0.0
Zn141 Zn 0.2026 1.01496 0.77673 0.0
O142 O 0.17862 1.01463 0.82512 0.0
O143 O 0.151 0.05036 0.82647 0.0
O144 O 0.22883 0.97047 0.7714 0.0
O145 O 0.14668 0.04846 0.73742 0.0
O146 O 0.1749 1.01417 0.7248 0.0
C147 C 0.16018 0.02947 0.84013 0.0
C148 C 0.23304 0.09678 0.79006 0.0
O149 O 0.23615 0.06598 0.78439 0.0
O150 O 0.20739 0.1006 0.79263 0.0
C151 C 0.2466 0.96218 0.79292 0.0
O152 O 0.25166 0.98129 0.82319 0.0
C153 C 0.15526 0.02931 0.71485 0.0
Zn154 Zn 0.40544 0.93103 0.03348 0.0
Zn155 Zn 0.36503 0.96105 0.02106 0.0
O156 O 0.35613 0.92086 0.98149 0.0
O157 O 0.38605 0.89131 0.99585 0.0
O158 O 0.33278 0.9824 0.02094 0.0
O159 O 0.3988 0.93211 0.07897 0.0
O160 O 0.36026 0.95002 0.06548 0.0
C161 C 0.36618 0.89485 0.97538 0.0
C162 C 0.42679 0.99635 0.01825 0.0
O163 O 0.40052 0.99899 0.01737 0.0
O164 O 0.43325 0.97025 0.0243 0.0
C165 C 0.31473 0.99103 1.00245 0.0
O166 O 0.31494 0.98522 0.97041 0.0
C167 C 0.37596 0.94083 0.08614 0.0
Zn168 Zn 0.38279 0.35031 0.04235 0.0
Zn169 Zn 0.34725 0.389 0.03946 0.0
O170 O 0.33837 0.35858 0.99122 0.0
O171 O 0.37147 0.32976 0.99165 0.0
O172 O 0.31547 0.41338 0.03567 0.0
O173 O 0.36197 0.32933 0.07807 0.0
O174 O 0.33734 0.36783 0.08048 0.0
C175 C 0.35101 0.33776 0.97576 0.0
C176 C 0.41481 0.42301 0.05375 0.0
O177 O 0.38865 0.42568 0.04621 0.0
O178 O 0.41817 0.39423 0.05651 0.0
C179 C 0.31737 0.44489 0.04643 0.0
O180 O 0.34281 0.46599 0.0625 0.0
C181 C 0.34414 0.34396 0.09186 0.0
Zn182 Zn 0.74098 0.15455 0.02452 0.0
Zn183 Zn 0.79798 0.13149 0.05082 0.0
O184 O 0.8046 0.15427 0.01113 0.0
O185 O 0.75948 0.12851 0.9872 0.0
O186 O 0.83108 0.11075 0.05678 0.0
O187 O 0.76508 0.18867 0.06966 0.0
O188 O 0.80296 0.17021 0.08683 0.0
C189 C 0.78536 0.14612 0.98541 0.0
C190 C 0.73854 0.09189 0.03127 0.0
O191 O 0.75885 0.09836 0.05549 0.0
O192 O 0.74572 0.10556 1.00787 0.0
C193 C 0.83255 0.09323 0.02877 0.0
O194 O 0.81183 0.08897 1.0037 0.0
C195 C 0.78775 0.19156 0.09063 0.0
Zn196 Zn 0.19682 0.59705 0.21 0.0
Zn197 Zn 0.22718 0.54274 0.21972 0.0
O198 O 0.21286 0.54546 0.26389 0.0
O199 O 0.19513 0.58852 0.257 0.0
O200 O 0.25366 0.514 0.21767 0.0
O201 O 0.2083 0.56834 0.17067 0.0
O202 O 0.19304 0.52033 0.18448 0.0
C203 C 0.20066 0.56856 0.27464 0.0
C204 C 0.25357 0.61541 0.23838 0.0
O205 O 0.25393 0.58926 0.21688 0.0
O206 O 0.22953 0.61721 0.24877 0.0
C207 C 0.27686 0.53074 0.23808 0.0
O208 O 0.27793 0.56082 0.2565 0.0
C209 C 0.1902 0.53895 0.16483 0.0
Zn210 Zn 0.88276 0.84819 0.54281 0.0
Zn211 Zn 0.8501 0.89155 0.5446 0.0
O212 O 0.84246 0.8628 0.4958 0.0
O213 O 0.86932 0.82648 0.49255 0.0
O214 O 0.81795 0.91609 0.54216 0.0
O215 O 0.86281 0.82829 0.57964 0.0
O216 O 0.84074 0.86929 0.585 0.0
C217 C 0.85158 0.83951 0.47835 0.0
C218 C 0.91711 0.92211 0.55644 0.0
O219 O 0.89158 0.92751 0.55257 0.0
O220 O 0.91881 0.89178 0.55524 0.0
C221 C 0.82199 0.94729 0.54108 0.0
O222 O 0.84919 0.96659 0.54251 0.0
C223 C 0.84657 0.84423 0.59504 0.0
Zn224 Zn 0.99756 0.04551 0.27469 0.0
Zn225 Zn 0.96135 0.08422 0.27993 0.0
O226 O 0.98754 0.08531 0.33307 0.0
O227 O 0.02056 0.05712 0.32159 0.0
O228 O 0.9347 0.12782 0.27874 0.0
O229 O 0.01687 0.0522 0.23335 0.0
O230 O 0.98596 0.08383 0.23191 0.0
C231 C 0.00882 0.07267 0.34368 0.0
C232 C 0.93485 1.00336 0.26935 0.0
O233 O 0.92843 0.03237 0.27226 0.0
O234 O 0.96182 1.00365 0.26864 0.0
C235 C 0.92191 0.14746 0.29822 0.0
O236 O 0.92294 0.14445 0.32895 0.0
C237 C 1.00582 0.07064 0.21806 0.0
Zn238 Zn 0.23487 0.67579 0.52244 0.0
Zn239 Zn 0.29856 0.63169 0.54237 0.0
O240 O 0.30451 0.63821 0.49453 0.0
O241 O 0.266 0.6521 0.50824 0.0
O242 O 0.33601 0.62156 0.55797 0.0
O243 O 0.26016 0.707 0.56534 0.0
O244 O 0.29407 0.67769 0.5722 0.0
C245 C 0.2837 0.65074 0.48745 0.0
C246 C 0.24069 0.60817 0.53929 0.0
O247 O 0.26014 0.59312 0.5453 0.0
O248 O 0.24947 0.63508 0.52911 0.0
C249 C 0.33584 0.59055 0.54786 0.0
O250 O 0.31072 0.56781 0.53313 0.0
C251 C 0.28317 0.70306 0.58153 0.0
Zn252 Zn 0.49477 0.54186 0.77237 0.0
Zn253 Zn 0.46127 0.58435 0.77925 0.0
O254 O 0.48779 0.58568 0.83202 0.0
O255 O 0.51685 0.55236 0.81967 0.0
O256 O 0.43529 0.62836 0.77784 0.0
O257 O 0.5147 0.54946 0.73172 0.0
O258 O 0.48594 0.58371 0.73148 0.0
C259 C 0.50742 0.57061 0.8421 0.0
C260 C 0.43199 0.50285 0.76632 0.0
O261 O 0.42756 0.53303 0.77176 0.0
O262 O 0.45819 0.50085 0.76404 0.0
C263 C 0.42134 0.64702 0.79668 0.0
O264 O 0.4203 0.64236 0.82675 0.0
C265 C 0.50495 0.56935 0.71721 0.0
Zn266 Zn 0.69744 0.099 0.71098 0.0
Zn267 Zn 0.72649 0.04467 0.72208 0.0
O268 O 0.71182 0.04801 0.76576 0.0
O269 O 0.69721 0.09312 0.75902 0.0
O270 O 0.75281 1.01638 0.72175 0.0
O271 O 0.70873 0.06899 0.67249 0.0
O272 O 0.69267 0.02138 0.68658 0.0
C273 C 0.70181 0.07291 0.77684 0.0
C274 C 0.75434 0.1176 0.74009 0.0
O275 O 0.75453 0.09088 0.71918 0.0
O276 O 0.73016 0.12027 0.74964 0.0
C277 C 0.77469 0.03367 0.74379 0.0
O278 O 0.7736 0.06226 0.76336 0.0
C279 C 0.69 0.04003 0.66694 0.0
Zn280 Zn 0.78016 0.75102 0.02062 0.0
Zn281 Zn 0.80619 0.70218 0.01667 0.0
O282 O 0.81868 0.72385 0.9772 0.0
O283 O 0.79984 0.76747 0.98222 0.0
O284 O 0.83173 0.6709 0.01925 0.0
O285 O 0.79588 0.77354 0.07036 0.0
O286 O 0.81237 0.72823 0.06657 0.0
C287 C 0.81452 0.74935 0.96675 0.0
C288 C 0.74055 0.67824 1.00405 0.0
O289 O 0.76458 0.6696 1.00479 0.0
O290 O 0.7416 0.7099 0.00969 0.0
C291 C 0.85623 0.67315 1.00823 0.0
O292 O 0.86612 0.69704 0.99241 0.0
C293 C 0.80773 0.75477 0.08439 0.0
Zn294 Zn 0.98008 0.48482 0.82929 0.0
Zn295 Zn 0.94659 0.55559 0.82807 0.0
O296 O 0.94457 0.55491 0.87569 0.0
O297 O 0.94961 0.50607 0.8517 0.0
O298 O 0.94255 0.59866 0.81925 0.0
O299 O 0.00922 0.51089 0.80289 0.0
O300 O 0.98509 0.54623 0.8216 0.0
C301 C 0.95662 0.53108 0.87676 0.0
C302 C 0.91358 0.48577 0.79422 0.0
O303 O 0.91361 0.51704 0.79985 0.0
O304 O 0.93562 0.47648 0.80591 0.0
C305 C 0.92046 0.60617 0.83074 0.0
O306 O 0.91263 0.59633 0.85734 0.0
C307 C 0.99611 0.53291 0.7977 0.0
Zn308 Zn 0.92238 0.46561 0.53118 0.0
Zn309 Zn 0.86621 0.47192 0.51123 0.0
O310 O 0.86154 0.42832 0.48039 0.0
O311 O 0.90944 0.43159 0.48465 0.0
O312 O 0.82758 0.48224 0.50807 0.0
O313 O 0.90919 0.44486 0.56663 0.0
O314 O 0.86963 0.46368 0.55836 0.0
C315 C 0.88273 0.41733 0.47038 0.0
C316 C 0.91912 0.52117 0.51814 0.0
O317 O 0.89772 0.50654 0.49505 0.0
O318 O 0.91535 0.51319 0.54504 0.0
C319 C 0.81595 0.50057 0.49324 0.0
O320 O 0.83055 0.51698 0.47336 0.0
C321 C 0.88592 0.45132 0.5757 0.0
Zn322 Zn 0.66851 0.55836 0.28449 0.0
Zn323 Zn 0.70189 0.51451 0.27637 0.0
O324 O 0.67855 0.51498 0.32534 0.0
O325 O 0.65017 0.54984 0.32608 0.0
O326 O 0.72852 0.47011 0.27177 0.0
O327 O 0.64526 0.54783 0.2373 0.0
O328 O 0.67421 0.51455 0.22426 0.0
C329 C 0.66006 0.5298 0.34031 0.0
C330 C 0.73157 0.59585 0.28995 0.0
O331 O 0.73532 0.56537 0.28397 0.0
O332 O 0.70574 0.59892 0.29269 0.0
C333 C 0.74591 0.46203 0.29391 0.0
O334 O 0.75002 0.48113 0.32408 0.0
C335 C 0.65432 0.52954 0.21452 0.0
Tb336 Tb 0.04973 0.02299 1.00825 0.0
C337 C 0.14369 0.15601 0.08184 0.0
C338 C 0.15781 0.18398 0.03808 0.0
C339 C 0.16945 0.21714 0.09485 0.0
C340 C 0.14454 0.15415 0.0488 0.0
C341 C 0.15507 0.18787 0.10516 0.0
C342 C 0.17111 0.21511 0.06135 0.0
C343 C 0.13729 0.15969 0.14723 0.0
N344 N 0.1307 0.12693 0.09108 0.0
C345 C 0.12942 0.12831 0.12402 0.0
C346 C 0.15089 0.18959 0.13799 0.0
Tb347 Tb 0.11617 0.07628 0.05036 0.0
N348 N 0.13051 0.1238 0.02709 0.0
C349 C 0.12769 0.12294 0.99376 0.0
C350 C 0.15647 0.18207 1.00427 0.0
C351 C 0.14081 0.15157 0.98205 0.0
H352 H 0.12144 0.10518 0.13256 0.0
H353 H 0.13853 0.15008 0.95574 0.0
H354 H 0.18174 0.23803 0.05355 0.0
H355 H 0.13317 0.16068 0.17234 0.0
H356 H 0.11476 0.10075 0.97524 0.0
H357 H 0.02769 0.94381 0.0983 0.0
H358 H 0.16642 0.2043 0.9951 0.0
H359 H 0.04092 1.00018 0.92616 0.0
H360 H 0.04983 0.99543 0.08132 0.0
H361 H 0.02582 0.9474 0.8825 0.0
H362 H 0.17885 0.24158 0.11251 0.0
H363 H 1.00202 0.89018 0.05686 0.0
H364 H 0.98692 0.85911 0.99747 0.0
H365 H 0.15818 0.21374 0.15637 0.0
H366 H 0.9878 0.85943 0.9388 0.0
N367 N 0.03633 0.97378 0.02896 0.0
C368 C 0.03822 0.97332 0.06196 0.0
C369 C 0.01159 0.91329 0.04882 0.0
C370 C 0.01044 0.91309 0.01532 0.0
C371 C 0.02595 0.94346 0.07221 0.0
C372 C 0.02318 0.94399 1.0061 0.0
H373 H 1.00472 0.8914 0.89598 0.0
N374 N 0.03473 0.97455 0.9655 0.0
C375 C 0.02429 0.94594 0.9078 0.0
C376 C 0.02307 0.94426 0.97329 0.0
C377 C 0.03364 0.97588 0.9329 0.0
C378 C 0.0128 0.91455 0.9156 0.0
C379 C 0.01103 0.91359 0.94857 0.0
O380 O 0.01686 0.02898 0.97458 0.0
O381 O 0.07274 0.0777 0.02904 0.0
O382 O 0.08337 0.08271 0.08634 0.0
O383 O 0.0413 0.03939 0.0607 0.0
O384 O 0.05555 0.06312 0.9804 0.0
O385 O 0.00815 0.02281 0.02341 0.0
O386 O 0.14951 0.07548 0.0869 0.0
O387 O 0.09301 0.02163 0.03026 0.0
O388 O 0.08191 1.01593 0.97171 0.0
O389 O 0.12455 0.05849 0.99786 0.0
O390 O 0.1101 0.03683 0.07903 0.0
O391 O 0.15639 0.07015 0.03574 0.0
C392 C 0.06672 0.08996 1.00412 0.0
C393 C 0.96665 1.01701 0.98302 0.0
C394 C 0.91943 0.02958 0.98561 0.0
C395 C 0.94866 0.03456 0.99975 0.0
C396 C 0.90773 1.00598 0.95524 0.0
C397 C 0.95506 0.99355 0.95243 0.0
C398 C 0.92546 0.9879 0.93873 0.0
C399 C 0.0561 0.06349 0.08751 0.0
C400 C 0.99829 0.02874 0.99566 0.0
C401 C 0.9977 0.88304 0.95749 0.0
C402 C 0.99717 0.88286 0.99084 0.0
C403 C 0.09898 1.0098 0.05551 0.0
C404 C 0.19923 0.08315 0.07618 0.0
C405 C 0.21699 0.06628 0.05838 0.0
C406 C 0.2471 0.07277 0.07041 0.0
C407 C 0.25967 0.09704 0.10033 0.0
C408 C 0.21179 0.10738 0.10596 0.0
C409 C 0.24205 0.11452 0.11779 0.0
C410 C 0.10945 0.03474 0.97076 0.0
C411 C 0.16718 0.07016 0.06558 0.0
H412 H 0.95793 0.05365 0.02278 0.0
H413 H 0.88491 1.00183 0.94455 0.0
H414 H 0.96898 0.98044 0.93886 0.0
H415 H 0.91647 0.97008 0.91503 0.0
H416 H 0.20689 0.04641 0.03607 0.0
H417 H 0.28291 0.1022 0.11028 0.0
H418 H 0.19798 0.1196 0.12041 0.0
H419 H 0.25169 0.13284 0.14097 0.0
Tb420 Tb 0.34545 0.79036 0.25016 0.0
C421 C 0.30492 0.88813 0.34864 0.0
C422 C 0.34896 0.92009 0.38865 0.0
C423 C 0.30744 0.94412 0.38334 0.0
C424 C 0.33313 0.89045 0.36387 0.0
C425 C 0.29162 0.91479 0.35896 0.0
C426 C 0.33606 0.94682 0.39804 0.0
C427 C 0.24597 0.87968 0.32465 0.0
N428 N 0.2895 0.85872 0.32608 0.0
C429 C 0.25965 0.85377 0.3158 0.0
C430 C 0.2621 0.9105 0.34605 0.0
Tb431 Tb 0.31126 0.81411 0.32158 0.0
N432 N 0.34452 0.8633 0.3556 0.0
C433 C 0.3724 0.86551 0.37091 0.0
C434 C 0.37705 0.9218 0.40415 0.0
C435 C 0.38888 0.89452 0.39502 0.0
H436 H 0.24544 0.82917 0.30175 0.0
H437 H 0.41084 0.89577 0.40658 0.0
H438 H 0.34781 0.96942 0.41723 0.0
H439 H 0.22257 0.87528 0.31596 0.0
H440 H 0.38346 0.84618 0.36429 0.0
H441 H 0.25108 0.71512 0.15217 0.0
H442 H 0.38978 0.94406 0.42321 0.0
H443 H 0.41023 0.77509 0.26535 0.0
H444 H 0.27748 0.76364 0.19446 0.0
H445 H 0.43304 0.72839 0.2521 0.0
H446 H 0.29741 0.96452 0.39163 0.0
H447 H 0.26976 0.66462 0.13896 0.0
H448 H 0.30884 0.63633 0.14909 0.0
H449 H 0.25112 0.93017 0.35372 0.0
H450 H 0.35755 0.63892 0.17759 0.0
N451 N 0.31357 0.74366 0.20988 0.0
C452 C 0.28757 0.74322 0.19114 0.0
C453 C 0.2821 0.68637 0.15875 0.0
C454 C 0.30859 0.68647 0.17667 0.0
C455 C 0.27159 0.71484 0.16607 0.0
C456 C 0.32394 0.7155 0.20249 0.0
H457 H 0.40377 0.67278 0.21594 0.0
N458 N 0.36626 0.74517 0.24238 0.0
C459 C 0.40963 0.72404 0.24351 0.0
C460 C 0.35092 0.71624 0.21938 0.0
C461 C 0.39617 0.75027 0.25174 0.0
C462 C 0.39309 0.69284 0.22307 0.0
C463 C 0.36377 0.68901 0.20972 0.0
O464 O 0.38942 0.81922 0.25045 0.0
O465 O 0.34608 0.82966 0.29379 0.0
O466 O 0.28331 0.8158 0.27503 0.0
O467 O 0.30875 0.80827 0.22963 0.0
O468 O 0.34709 0.84256 0.2484 0.0
O469 O 0.36123 0.78772 0.20504 0.0
O470 O 0.26812 0.79089 0.33003 0.0
O471 O 0.311 0.77607 0.2782 0.0
O472 O 0.36989 0.78151 0.29584 0.0
O473 O 0.34767 0.79624 0.34254 0.0
O474 O 0.30452 0.75983 0.32121 0.0
O475 O 0.30371 0.81987 0.3706 0.0
C476 C 0.34682 0.85362 0.27935 0.0
C477 C 0.40057 0.83252 0.20015 0.0
C478 C 0.39706 0.87642 0.1716 0.0
C479 C 0.38512 0.85458 0.19101 0.0
C480 C 0.42408 0.87552 0.16017 0.0
C481 C 0.42755 0.83148 0.18891 0.0
C482 C 0.43921 0.8529 0.16874 0.0
C483 C 0.28584 0.81534 0.24328 0.0
C484 C 0.38748 0.80806 0.21856 0.0
C485 C 0.34802 0.65993 0.18511 0.0
C486 C 0.32042 0.6586 0.16874 0.0
C487 C 0.30719 0.75075 0.29064 0.0
C488 C 0.26111 0.78478 0.38436 0.0
C489 C 0.27134 0.75891 0.39418 0.0
C490 C 0.25768 0.74274 0.41735 0.0
C491 C 0.23444 0.75326 0.43119 0.0
C492 C 0.2378 0.79492 0.3981 0.0
C493 C 0.22461 0.7793 0.42159 0.0
C494 C 0.36863 0.78494 0.3283 0.0
C495 C 0.27548 0.80379 0.36185 0.0
H496 H 0.3635 0.85422 0.19794 0.0
H497 H 0.43295 0.89161 0.14395 0.0
H498 H 0.43917 0.8136 0.19511 0.0
H499 H 0.45972 0.85169 0.15944 0.0
H500 H 0.28957 0.75132 0.38381 0.0
H501 H 0.22404 0.74145 0.44962 0.0
H502 H 0.23013 0.81537 0.39101 0.0
H503 H 0.20684 0.78745 0.43243 0.0
Tb504 Tb 0.61327 0.05173 0.51366 0.0
C505 C 0.50724 0.99313 0.57761 0.0
C506 C 0.47787 0.94359 0.53538 0.0
C507 C 0.47643 0.94401 0.59343 0.0
C508 C 0.49818 0.97668 0.5446 0.0
C509 C 0.49613 0.97725 0.60242 0.0
C510 C 0.46737 0.92718 0.55997 0.0
C511 C 0.52384 0.02881 0.64306 0.0
N512 N 0.52677 0.02496 0.58539 0.0
C513 C 0.53434 0.04348 0.61759 0.0
C514 C 0.5049 0.99542 0.63548 0.0
Tb515 Tb 0.54307 0.04613 0.54174 0.0
N516 N 0.50898 0.99327 0.52156 0.0
C517 C 0.49892 0.97866 0.48861 0.0
C518 C 0.46851 0.92811 0.50174 0.0
C519 C 0.47886 0.94589 0.47829 0.0
H520 H 0.54905 0.06927 0.62356 0.0
H521 H 0.47144 0.93435 0.45219 0.0
H522 H 0.45196 0.90168 0.55337 0.0
H523 H 0.53036 0.04324 0.66852 0.0
H524 H 0.50649 0.99164 0.46985 0.0
H525 H 0.68527 0.16451 0.60118 0.0
H526 H 0.45301 0.9027 0.49365 0.0
H527 H 0.60695 0.02665 0.43162 0.0
H528 H 0.65006 0.10725 0.58457 0.0
H529 H 0.62563 0.05135 0.38603 0.0
H530 H 0.46783 0.93124 0.61213 0.0
H531 H 0.70366 0.19493 0.55886 0.0
H532 H 0.70458 0.19453 0.49883 0.0
H533 H 0.49684 0.98411 0.65526 0.0
H534 H 0.68851 0.16379 0.4404 0.0
N535 N 0.64745 0.10452 0.53268 0.0
C536 C 0.65762 0.11973 0.56548 0.0
C537 C 0.68811 0.16953 0.55125 0.0
C538 C 0.67865 0.15338 0.51776 0.0
C539 C 0.67778 0.15245 0.57519 0.0
C540 C 0.65825 0.12036 0.50917 0.0
H541 H 0.65936 0.11029 0.39816 0.0
N542 N 0.62953 0.07144 0.46921 0.0
C543 C 0.63225 0.06628 0.41132 0.0
C544 C 0.64911 0.10321 0.47635 0.0
C545 C 0.62175 0.05236 0.43719 0.0
C546 C 0.65131 0.09956 0.41826 0.0
C547 C 0.66018 0.11836 0.4511 0.0
O548 O 0.6281 1.00899 0.49552 0.0
O549 O 0.57255 1.01729 0.52174 0.0
O550 O 0.56706 0.02418 0.57338 0.0
O551 O 0.61421 0.05397 0.56651 0.0
O552 O 0.58742 1.00317 0.47887 0.0
O553 O 0.65492 0.04916 0.5358 0.0
O554 O 0.52721 0.0869 0.56293 0.0
O555 O 0.58378 0.08082 0.53354 0.0
O556 O 0.589 0.07259 0.48078 0.0
O557 O 0.54149 0.04539 0.48939 0.0
O558 O 0.56853 0.09544 0.57597 0.0
O559 O 0.50196 0.04944 0.51925 0.0
C560 C 0.56756 0.99245 0.49651 0.0
C561 C 0.6795 1.01619 0.50026 0.0
C562 C 0.72459 0.99735 0.50045 0.0
C563 C 0.70092 1.00412 0.51634 0.0
C564 C 0.72647 1.00225 0.4684 0.0
C565 C 0.68193 0.02094 0.46819 0.0
C566 C 0.7052 1.01391 0.45237 0.0
C567 C 0.59563 0.03705 0.58327 0.0
C568 C 0.65314 0.02014 0.51553 0.0
C569 C 0.67994 0.15157 0.45945 0.0
C570 C 0.68911 0.16906 0.49272 0.0
C571 C 0.58849 0.10608 0.55841 0.0
C572 C 0.47569 0.07876 0.55569 0.0
C573 C 0.45584 0.09272 0.53986 0.0
C574 C 0.43246 0.10101 0.55526 0.0
C575 C 0.42891 0.09435 0.58659 0.0
C576 C 0.47147 0.07184 0.58668 0.0
C577 C 0.44815 0.07955 0.60197 0.0
C578 C 0.5601 0.06122 0.47203 0.0
C579 C 0.50286 0.07671 0.54172 0.0
H580 H 0.69911 0.99983 0.5409 0.0
H581 H 0.74442 0.99687 0.45574 0.0
H582 H 0.66555 0.02927 0.45494 0.0
H583 H 0.70663 0.01731 0.42751 0.0
H584 H 0.4592 0.09801 0.51592 0.0
H585 H 0.41173 0.10133 0.59964 0.0
H586 H 0.48664 0.0616 0.59962 0.0
H587 H 0.44544 0.07486 0.62621 0.0
Tb588 Tb 0.29644 0.30955 0.77814 0.0
C589 C 0.40195 0.27195 0.83905 0.0
C590 C 0.43332 0.32487 0.87513 0.0
C591 C 0.4347 0.27055 0.88724 0.0
C592 C 0.41107 0.30734 0.84741 0.0
C593 C 0.41437 0.25316 0.85837 0.0
C594 C 0.44425 0.30636 0.89553 0.0
C595 C 0.39007 0.20168 0.81635 0.0
N596 N 0.38338 0.25597 0.81019 0.0
C597 C 0.379 0.22141 0.7977 0.0
C598 C 0.40743 0.21755 0.84713 0.0
Tb599 Tb 0.36658 0.29055 0.78055 0.0
N600 N 0.40027 0.32444 0.82684 0.0
C601 C 0.41294 0.35925 0.83183 0.0
C602 C 0.44518 0.36033 0.88065 0.0
C603 C 0.43537 0.37743 0.85849 0.0
H604 H 0.36628 0.20894 0.7734 0.0
H605 H 0.44482 0.40483 0.8621 0.0
H606 H 0.461 0.31946 0.91706 0.0
H607 H 0.38564 0.17434 0.8067 0.0
H608 H 0.40652 0.37421 0.81592 0.0
H609 H 0.23888 0.20049 0.67575 0.0
H610 H 0.46248 0.37457 0.90136 0.0
H611 H 0.29266 0.38991 0.79351 0.0
H612 H 0.27194 0.22907 0.72699 0.0
H613 H 0.27035 0.42656 0.76562 0.0
H614 H 0.44423 0.25653 0.90247 0.0
H615 H 0.21496 0.23332 0.64431 0.0
H616 H 0.20699 0.28954 0.63985 0.0
H617 H 0.41654 0.20232 0.86126 0.0
H618 H 0.21651 0.35125 0.66352 0.0
N619 N 0.2679 0.27944 0.72717 0.0
C620 C 0.26175 0.24461 0.71498 0.0
C621 C 0.2297 0.24645 0.66737 0.0
C622 C 0.23546 0.28174 0.6797 0.0
C623 C 0.24301 0.22786 0.68509 0.0
C624 C 0.25492 0.29768 0.70991 0.0
H625 H 0.24044 0.40256 0.70999 0.0
N626 N 0.2784 0.34629 0.75262 0.0
C627 C 0.26773 0.40022 0.7531 0.0
C628 C 0.26073 0.33236 0.72283 0.0
C629 C 0.28058 0.37941 0.76865 0.0
C630 C 0.2509 0.3866 0.72172 0.0
C631 C 0.24659 0.35211 0.70652 0.0
O632 O 0.27589 0.33248 0.81561 0.0
O633 O 0.33341 0.3029 0.80904 0.0
O634 O 0.33535 0.24712 0.79463 0.0
O635 O 0.28888 0.25473 0.78085 0.0
O636 O 0.31909 0.34417 0.82578 0.0
O637 O 0.25528 0.28106 0.78773 0.0
O638 O 0.3852 0.26163 0.74546 0.0
O639 O 0.33031 0.29786 0.74907 0.0
O640 O 0.32702 0.35681 0.77003 0.0
O641 O 0.37223 0.34348 0.77257 0.0
O642 O 0.34311 0.25401 0.73529 0.0
O643 O 0.40621 0.31548 0.76539 0.0
C644 C 0.33747 0.32785 0.83378 0.0
C645 C 0.22355 0.31296 0.81087 0.0
C646 C 0.17827 0.31177 0.83552 0.0
C647 C 0.20574 0.30404 0.83484 0.0
C648 C 0.16908 0.32899 0.81269 0.0
C649 C 0.2135 0.32961 0.78796 0.0
C650 C 0.18665 0.33787 0.78909 0.0
C651 C 0.30585 0.23536 0.78859 0.0
C652 C 0.25288 0.30598 0.81089 0.0
C653 C 0.22757 0.33651 0.67633 0.0
C654 C 0.22204 0.30138 0.66293 0.0
C655 C 0.32714 0.27205 0.72525 0.0
C656 C 0.43728 0.28098 0.74715 0.0
C657 C 0.45731 0.2953 0.72748 0.0
C658 C 0.48442 0.28707 0.72596 0.0
C659 C 0.49146 0.26474 0.74457 0.0
C660 C 0.44505 0.25928 0.76604 0.0
C661 C 0.47194 0.25115 0.76465 0.0
C662 C 0.35623 0.36545 0.77013 0.0
C663 C 0.4079 0.28746 0.74601 0.0
H664 H 0.2131 0.29106 0.85268 0.0
H665 H 0.14817 0.33541 0.81307 0.0
H666 H 0.22623 0.33637 0.76919 0.0
H667 H 0.17936 0.35107 0.77148 0.0
H668 H 0.45148 0.31203 0.71273 0.0
H669 H 0.51227 0.25813 0.74388 0.0
H670 H 0.43039 0.24824 0.78157 0.0
H671 H 0.4776 0.23413 0.77907 0.0
Tb672 Tb 0.07593 0.08625 0.54844 0.0
C673 C 0.09265 0.98121 0.43472 0.0
C674 C 0.04381 0.9606 0.40121 0.0
C675 C 0.08693 0.95235 0.37663 0.0
C676 C 0.06228 0.97696 0.43192 0.0
C677 C 0.10523 0.9685 0.40717 0.0
C678 C 0.05632 0.94854 0.37363 0.0
C679 C 0.15284 0.98626 0.44242 0.0
N680 N 0.1097 0.99647 0.46469 0.0
C681 C 0.1394 0.99818 0.46905 0.0
C682 C 0.13571 0.97147 0.4113 0.0
Tb683 Tb 0.08444 1.0094 0.50773 0.0
N684 N 0.05076 0.988 0.45935 0.0
C685 C 0.02058 0.98309 0.45733 0.0
C686 C 0.0132 0.95624 0.39916 0.0
C687 C 1.00158 0.96763 0.42734 0.0
H688 H 0.15271 1.00895 0.49327 0.0
H689 H 0.97789 0.96433 0.42605 0.0
H690 H 0.04243 0.93577 0.34997 0.0
H691 H 0.17633 0.98807 0.44603 0.0
H692 H 0.01058 0.99168 0.47835 0.0
H693 H 0.17858 0.13283 0.63751 0.0
H694 H 0.99832 0.94387 0.37605 0.0
H695 H 0.00786 0.09091 0.55635 0.0
H696 H 0.14801 0.10069 0.58561 0.0
H697 H 0.9823 0.11757 0.59872 0.0
H698 H 0.09619 0.94236 0.35527 0.0
H699 H 0.15688 0.16184 0.68238 0.0
H700 H 0.11224 0.17613 0.70254 0.0
H701 H 0.14612 0.96185 0.39079 0.0
H702 H 0.05886 0.17153 0.69235 0.0
N703 N 0.10714 0.10993 0.59896 0.0
C704 C 0.13711 0.11274 0.60402 0.0
C705 C 0.14278 0.1473 0.65928 0.0
C706 C 0.11244 0.14469 0.65438 0.0
C707 C 0.15509 0.13107 0.63402 0.0
C708 C 0.09502 0.12551 0.62373 0.0
H709 H 0.01024 0.14933 0.65402 0.0
N710 N 0.04942 0.10499 0.5881 0.0
C711 C 1.00556 0.11904 0.60462 0.0
C712 C 0.06511 0.12282 0.61812 0.0
C713 C 0.02008 0.10371 0.58079 0.0
C714 C 0.0214 0.13696 0.63577 0.0
C715 C 0.05161 0.13937 0.64276 0.0
O716 O 0.05658 0.12025 0.53027 0.0
O717 O 0.07243 0.05463 0.49804 0.0
O718 O 0.11666 0.04863 0.49128 0.0
O719 O 0.12089 0.09335 0.53578 0.0
O720 O 0.03767 0.07292 0.50815 0.0
O721 O 0.10406 0.13433 0.54681 0.0
O722 O 0.10843 0.97555 0.51775 0.0
O723 O 0.08753 0.0405 0.5583 0.0
O724 O 0.04009 0.04898 0.56255 0.0
O725 O 0.04178 0.99879 0.52683 0.0
O726 O 0.12187 0.02125 0.54874 0.0
O727 O 0.05971 0.95804 0.50408 0.0
C728 C 0.0479 0.0576 0.48377 0.0
C729 C 0.08166 0.17901 0.54307 0.0
C730 C 0.09443 0.23334 0.52763 0.0
C731 C 0.09875 0.20122 0.52675 0.0
C732 C 0.07363 0.24394 0.5461 0.0
C733 C 0.06119 0.18971 0.56205 0.0
C734 C 0.05743 0.22233 0.56374 0.0
C735 C 0.13127 0.07889 0.51025 0.0
C736 C 0.08187 0.14334 0.53395 0.0
C737 C 0.06879 0.15845 0.67323 0.0
C738 C 0.09916 0.16111 0.67902 0.0
C739 C 0.11175 0.03704 0.57294 0.0
C740 C 0.08537 0.91577 0.51322 0.0
C741 C 0.06523 0.89673 0.52961 0.0
C742 C 0.06801 0.86519 0.5342 0.0
C743 C 0.0905 0.8522 0.5216 0.0
C744 C 0.10801 0.90289 0.50082 0.0
C745 C 0.11036 0.87099 0.50476 0.0
C746 C 0.02865 1.01611 0.54798 0.0
C747 C 0.08428 0.95022 0.5117 0.0
H748 H 0.1138 0.19248 0.51115 0.0
H749 H 0.06971 0.26863 0.54649 0.0
H750 H 0.04739 0.17254 0.57436 0.0
H751 H 0.04124 0.23041 0.57779 0.0
H752 H 0.04828 0.90711 0.54011 0.0
H753 H 0.09306 0.82799 0.52547 0.0
H754 H 0.12397 0.91763 0.48841 0.0
H755 H 0.12793 0.86117 0.49537 0.0
Tb756 Tb 0.36686 0.82734 0.76989 0.0
C757 C 0.29136 0.7293 0.83763 0.0
C758 C 0.29505 0.6732 0.81129 0.0
C759 C 0.2831 0.68359 0.86706 0.0
C760 C 0.29672 0.70754 0.81068 0.0
C761 C 0.28403 0.71744 0.86597 0.0
C762 C 0.2886 0.66151 0.83976 0.0
C763 C 0.27634 0.77227 0.88884 0.0
N764 N 0.2917 0.76159 0.83533 0.0
C765 C 0.28323 0.78269 0.86004 0.0
C766 C 0.27695 0.73961 0.89194 0.0
Tb767 Tb 0.30283 0.77586 0.7867 0.0
N768 N 0.30216 0.71953 0.78332 0.0
C769 C 0.30527 0.69775 0.75526 0.0
C770 C 0.29915 0.65136 0.78301 0.0
C771 C 0.3041 0.66367 0.75482 0.0
H772 H 0.28225 0.80787 0.85806 0.0
H773 H 0.30687 0.64687 0.7326 0.0
H774 H 0.28726 0.63526 0.84067 0.0
H775 H 0.27032 0.78939 0.90854 0.0
H776 H 0.30879 0.70615 0.73289 0.0
H777 H 0.36391 0.95565 0.82848 0.0
H778 H 0.298 0.62484 0.78248 0.0
H779 H 0.38681 0.79738 0.69824 0.0
H780 H 0.36158 0.89595 0.82607 0.0
H781 H 0.39966 0.81794 0.64868 0.0
H782 H 0.27755 0.67403 0.88861 0.0
H783 H 0.37262 0.97948 0.77957 0.0
H784 H 0.3832 0.97093 0.72131 0.0
H785 H 0.27123 0.73147 0.91413 0.0
H786 H 0.39275 0.93348 0.67231 0.0
N787 N 0.36728 0.88386 0.7752 0.0
C788 C 0.36476 0.905 0.80399 0.0
C789 C 0.37106 0.95269 0.77803 0.0
C790 C 0.37469 0.93153 0.74901 0.0
C791 C 0.36622 0.93937 0.80567 0.0
C792 C 0.37252 0.89679 0.74831 0.0
H793 H 0.39901 0.8765 0.64505 0.0
N794 N 0.37724 0.84314 0.72186 0.0
C795 C 0.39334 0.83439 0.66867 0.0
C796 C 0.37766 0.87573 0.72068 0.0
C797 C 0.38601 0.82282 0.69682 0.0
C798 C 0.39285 0.86742 0.66667 0.0
C799 C 0.38545 0.88876 0.69307 0.0
O800 O 0.40811 0.81721 0.76816 0.0
O801 O 0.34987 0.77844 0.78445 0.0
O802 O 0.33395 0.78942 0.8319 0.0
O803 O 0.36184 0.83969 0.82216 0.0
O804 O 0.37515 0.77719 0.74857 0.0
O805 O 0.4047 0.86261 0.8012 0.0
O806 O 0.26188 0.78702 0.78495 0.0
O807 O 0.31956 0.82536 0.77228 0.0
O808 O 0.33588 0.81254 0.7243 0.0
O809 O 0.30862 0.76241 0.73491 0.0
O810 O 0.29564 0.8257 0.80958 0.0
O811 O 0.26527 0.73956 0.75587 0.0
C812 C 0.36246 0.75808 0.76689 0.0
C813 C 0.45104 0.86308 0.78242 0.0
C814 C 0.50437 0.87151 0.78898 0.0
C815 C 0.47665 0.85806 0.79787 0.0
C816 C 0.50663 0.8904 0.76467 0.0
C817 C 0.45329 0.88188 0.75794 0.0
C818 C 0.48104 0.89545 0.74911 0.0
C819 C 0.3524 0.82021 0.84242 0.0
C820 C 0.42241 0.84498 0.79002 0.0
C821 C 0.38681 0.92301 0.69328 0.0
C822 C 0.3814 0.94434 0.72119 0.0
C823 C 0.30749 0.84536 0.79134 0.0
C824 C 0.21886 0.74192 0.77258 0.0
C825 C 0.19348 0.74517 0.75481 0.0
C826 C 0.16573 0.73383 0.76435 0.0
C827 C 0.16324 0.7192 0.79175 0.0
C828 C 0.21632 0.72716 0.79993 0.0
C829 C 0.18855 0.71594 0.80952 0.0
C830 C 0.31747 0.78166 0.71434 0.0
C831 C 0.24768 0.7583 0.76448 0.0
H832 H 0.47503 0.84334 0.81667 0.0
H833 H 0.52806 0.90113 0.75783 0.0
H834 H 0.43384 0.8858 0.74549 0.0
H835 H 0.48268 0.90978 0.7301 0.0
H836 H 0.19532 0.75684 0.73381 0.0
H837 H 0.14174 0.7103 0.79926 0.0
H838 H 0.23562 0.72474 0.81412 0.0
H839 H 0.18668 0.70486 0.83081 0.0
Tb840 Tb 0.58537 0.04647 0.06336 0.0
C841 C 0.51772 0.08037 0.94671 0.0
C842 C 0.4947 0.02508 0.90902 0.0
C843 C 0.4714 0.07112 0.91026 0.0
C844 C 0.51764 0.04692 0.93434 0.0
C845 C 0.49513 0.09321 0.93404 0.0
C846 C 0.4712 0.03708 0.89775 0.0
C847 C 0.52307 0.14965 0.96606 0.0
N848 N 0.54099 0.10097 0.9696 0.0
C849 C 0.54486 0.13566 0.9779 0.0
C850 C 0.49774 0.1282 0.94461 0.0
Tb851 Tb 0.57603 0.0762 0.98713 0.0
N852 N 0.54049 0.0361 0.94633 0.0
C853 C 0.5422 1.00376 0.93255 0.0
C854 C 0.49626 0.99201 0.89545 0.0
C855 C 0.52033 0.98149 0.907 0.0
H856 H 0.56438 0.15231 0.99467 0.0
H857 H 0.52182 0.95596 0.89662 0.0
H858 H 0.45316 0.02051 0.8788 0.0
H859 H 0.52578 0.17694 0.97357 0.0
H860 H 0.55991 0.9941 0.94096 0.0
H861 H 0.64599 0.16217 0.15626 0.0
H862 H 0.47915 0.97452 0.876 0.0
H863 H 0.59015 0.9674 0.05344 0.0
H864 H 0.60605 0.12742 0.11212 0.0
H865 H 0.6251 0.93751 0.07345 0.0
H866 H 0.45361 0.08038 0.90063 0.0
H867 H 0.68623 0.13878 0.17494 0.0
H868 H 0.70764 0.08884 0.17078 0.0
H869 H 0.48091 0.13908 0.93542 0.0
H870 H 0.70222 0.02768 0.14796 0.0
N871 N 0.62245 0.08308 0.10447 0.0
C872 C 0.62292 0.11597 0.11937 0.0
C873 C 0.66846 0.12295 0.15532 0.0
C874 C 0.66753 0.08914 0.14086 0.0
C875 C 0.64578 0.1362 0.14488 0.0
C876 C 0.64378 0.06954 0.11551 0.0
H877 H 0.67114 0.97084 0.11219 0.0
N878 N 0.61683 1.01701 0.07971 0.0
C879 C 0.62995 0.96508 0.08162 0.0
C880 C 0.64088 0.03532 0.10263 0.0
C881 C 0.61024 0.98201 0.07037 0.0
C882 C 0.65595 0.98399 0.10343 0.0
C883 C 0.66141 0.01948 0.11474 0.0
O884 O 0.55409 1.00727 0.07549 0.0
O885 O 0.55982 0.04413 0.01799 0.0
O886 O 0.54661 0.09491 0.01877 0.0
O887 O 0.57019 0.09315 0.06989 0.0
O888 O 0.54917 1.00194 0.03364 0.0
O889 O 0.56699 0.05933 0.10633 0.0
O890 O 0.60149 0.11749 0.97147 0.0
O891 O 0.60191 0.0791 0.03258 0.0
O892 O 0.61516 0.02783 0.0332 0.0
O893 O 0.59569 0.03218 0.98089 0.0
O894 O 0.61238 0.12086 0.01647 0.0
O895 O 0.59667 0.06426 0.94613 0.0
C896 C 0.54 1.0164 0.01177 0.0
C897 C 0.54648 1.01368 0.13022 0.0
C898 C 0.51711 1.00651 0.17332 0.0
C899 C 0.52534 0.02262 0.14839 0.0
C900 C 0.53018 0.98125 0.18034 0.0
C901 C 0.56006 0.98891 0.13721 0.0
C902 C 0.55175 0.97264 0.16235 0.0
C903 C 0.55087 0.10294 0.05149 0.0
C904 C 0.55051 0.02781 0.10175 0.0
C905 C 0.68598 0.03927 0.13864 0.0
C906 C 0.68905 0.07407 0.15167 0.0
C907 C 0.62207 0.10672 0.03836 0.0
C908 C 0.60707 0.10576 0.91538 0.0
C909 C 0.62756 0.09629 0.89661 0.0
C910 C 0.63157 0.10711 0.86781 0.0
C911 C 0.61445 0.12716 0.85699 0.0
C912 C 0.58924 0.1252 0.9048 0.0
C913 C 0.59295 0.1358 0.87536 0.0
C914 C 0.61258 0.02041 1.0006 0.0
C915 C 0.60756 0.09675 0.94689 0.0
H916 H 0.51516 0.0421 0.1431 0.0
H917 H 0.52454 0.96925 0.20051 0.0
H918 H 0.57644 0.98174 0.12296 0.0
H919 H 0.56206 0.95351 0.16797 0.0
H920 H 0.64138 0.08136 0.90511 0.0
H921 H 0.61757 0.13577 0.83444 0.0
H922 H 0.5731 0.13261 0.91933 0.0
H923 H 0.57954 0.15105 0.86707 0.0
Tb924 Tb 0.34924 0.34207 0.29573 0.0
C925 C 0.23995 0.21682 0.22962 0.0
C926 C 0.21179 0.21143 0.27464 0.0
C927 C 0.19014 0.17764 0.21933 0.0
C928 C 0.23814 0.22546 0.2626 0.0
C929 C 0.21573 0.1933 0.20733 0.0
C930 C 0.18789 0.18717 0.25284 0.0
C931 C 0.24515 0.19943 0.16361 0.0
N932 N 0.26611 0.23004 0.21971 0.0
C933 C 0.26922 0.22063 0.1871 0.0
C934 C 0.21841 0.18529 0.1739 0.0
Tb935 Tb 0.30638 0.2558 0.26082 0.0
N936 N 0.26266 0.24669 0.28306 0.0
C937 C 0.26161 0.25569 0.3162 0.0
C938 C 0.21073 0.22107 0.30839 0.0
C939 C 0.23573 0.24368 0.32922 0.0
H940 H 0.29059 0.22861 0.17923 0.0
H941 H 0.23534 0.25138 0.35549 0.0
H942 H 0.16792 0.17508 0.26174 0.0
H943 H 0.24766 0.19274 0.13783 0.0
H944 H 0.28035 0.27256 0.3331 0.0
H945 H 0.41112 0.38973 0.20141 0.0
H946 H 0.19094 0.21097 0.31861 0.0
H947 H 0.37583 0.35152 0.3745 0.0
H948 H 0.36847 0.37829 0.22923 0.0
H949 H 0.42317 0.36578 0.40916 0.0
H950 H 0.17243 0.15739 0.20321 0.0
H951 H 0.45988 0.38891 0.22771 0.0
H952 H 0.49081 0.38836 0.27882 0.0
H953 H 0.20013 0.16793 0.15602 0.0
H954 H 0.49435 0.384 0.33652 0.0
N955 N 0.38901 0.35942 0.26738 0.0
C956 C 0.38793 0.3726 0.23962 0.0
C957 C 0.44031 0.38068 0.23902 0.0
C958 C 0.44261 0.37296 0.26993 0.0
C959 C 0.41286 0.38112 0.2241 0.0
C960 C 0.41631 0.36145 0.28338 0.0
H961 H 0.46907 0.37624 0.38516 0.0
N962 N 0.39303 0.34703 0.32831 0.0
C963 C 0.4222 0.3617 0.38261 0.0
C964 C 0.41842 0.35617 0.31515 0.0
C965 C 0.39495 0.35206 0.36213 0.0
C966 C 0.44814 0.36786 0.36894 0.0
C967 C 0.44669 0.3659 0.33509 0.0
O968 O 0.3377 0.37086 0.33767 0.0
O969 O 0.30636 0.30556 0.28894 0.0
O970 O 0.30163 0.2831 0.22106 0.0
O971 O 0.33396 0.33838 0.24281 0.0
O972 O 0.30813 0.35234 0.27833 0.0
O973 O 0.3711 0.39422 0.31125 0.0
O974 O 0.31856 0.21482 0.23283 0.0
O975 O 0.35086 0.29108 0.27739 0.0
O976 O 0.33958 0.31445 0.33502 0.0
O977 O 0.32509 0.25639 0.31131 0.0
O978 O 0.34049 0.26113 0.22953 0.0
O979 O 0.3046 0.21246 0.28029 0.0
C980 C 0.29025 0.32365 0.2806 0.0
C981 C 0.34866 0.43018 0.343 0.0
C982 C 0.33568 0.47504 0.32195 0.0
C983 C 0.33973 0.44253 0.31649 0.0
C984 C 0.33978 0.49513 0.35433 0.0
C985 C 0.35265 0.44984 0.37544 0.0
C986 C 0.34791 0.48225 0.38104 0.0
C987 C 0.31662 0.31386 0.21782 0.0
C988 C 0.35726 0.39879 0.33653 0.0
C989 C 0.47262 0.37645 0.32147 0.0
C990 C 0.47058 0.37914 0.28869 0.0
C991 C 0.36109 0.2834 0.25109 0.0
C992 C 0.30194 0.15971 0.2434 0.0
C993 C 0.31401 0.14118 0.26221 0.0
C994 C 0.31079 0.10635 0.24999 0.0
C995 C 0.29365 0.08926 0.21908 0.0
C996 C 0.28426 0.14277 0.21266 0.0
C997 C 0.27972 0.10737 0.20085 0.0
C998 C 0.33452 0.28233 0.3375 0.0
C999 C 0.31367 0.19689 0.25473 0.0
H1000 H 0.3369 0.42724 0.29141 0.0
H1001 H 0.33608 0.52028 0.35892 0.0
H1002 H 0.35996 0.44043 0.3962 0.0
H1003 H 0.35058 0.49743 0.40596 0.0
H1004 H 0.32878 0.15488 0.28524 0.0
H1005 H 0.29177 0.06251 0.20883 0.0
H1006 H 0.27503 0.15692 0.1975 0.0
H1007 H 0.26657 0.09427 0.17692 0.0
Tb1008 Tb 0.57313 0.58741 0.04712 0.0
C1009 C 0.5954 0.47509 0.93936 0.0
C1010 C 0.54804 0.45168 0.90329 0.0
C1011 C 0.59258 0.44159 0.88348 0.0
C1012 C 0.56521 0.47077 0.9341 0.0
C1013 C 0.60948 0.4604 0.91417 0.0
C1014 C 0.56189 0.43718 0.87807 0.0
C1015 C 0.6556 0.48188 0.95218 0.0
N1016 N 0.61088 0.49281 0.96951 0.0
C1017 C 0.64054 0.49535 0.97651 0.0
C1018 C 0.64002 0.46441 0.9208 0.0
Tb1019 Tb 0.58401 0.51051 0.00937 0.0
N1020 N 0.55263 0.48496 0.95923 0.0
C1021 C 0.52243 0.4806 0.95449 0.0
C1022 C 0.51742 0.44739 0.89875 0.0
C1023 C 0.50461 0.46204 0.92445 0.0
H1024 H 0.65265 0.50804 1.00102 0.0
H1025 H 0.48089 0.45901 0.92121 0.0
H1026 H 0.54903 0.42238 0.85437 0.0
H1027 H 0.67914 0.48457 0.9578 0.0
H1028 H 0.51128 0.49169 0.97319 0.0
H1029 H 0.67923 0.6361 0.13038 0.0
H1030 H 0.5035 0.43284 0.87555 0.0
H1031 H 0.50562 0.59135 0.0593 0.0
H1032 H 0.64702 0.60561 0.07886 0.0
H1033 H 0.48156 0.61594 0.10448 0.0
H1034 H 0.60297 0.43004 0.86389 0.0
H1035 H 0.65872 0.66112 0.17849 0.0
H1036 H 0.6146 0.6724 0.20258 0.0
H1037 H 0.65164 0.45358 0.9021 0.0
H1038 H 0.56095 0.66678 0.19574 0.0
N1039 N 0.60653 0.61198 0.09589 0.0
C1040 C 0.63672 0.61616 0.09879 0.0
C1041 C 0.64395 0.64743 0.15558 0.0
C1042 C 0.61344 0.64386 0.1527 0.0
C1043 C 0.6556 0.63346 0.12849 0.0
C1044 C 0.59511 0.62574 0.12226 0.0
H1045 H 0.51127 0.64572 0.15941 0.0
N1046 N 0.54831 0.60545 0.08881 0.0
C1047 C 0.50501 0.61773 0.10887 0.0
C1048 C 0.56499 0.62234 0.11858 0.0
C1049 C 0.5187 0.6037 0.08342 0.0
C1050 C 0.52184 0.63451 0.13982 0.0
C1051 C 0.55225 0.63726 0.14493 0.0
O1052 O 0.55087 0.62141 0.03243 0.0
O1053 O 0.57067 0.55456 0.99777 0.0
O1054 O 0.61841 0.5486 0.99354 0.0
O1055 O 0.61641 0.59734 0.03071 0.0
O1056 O 0.53512 0.57188 1.00649 0.0
O1057 O 0.59891 0.63449 0.04147 0.0
O1058 O 0.60601 0.47824 0.02714 0.0
O1059 O 0.58639 0.54325 0.05897 0.0
O1060 O 0.53865 0.54945 0.06224 0.0
O1061 O 0.53909 0.50119 0.0233 0.0
O1062 O 0.62227 0.52668 0.04976 0.0
O1063 O 0.55809 0.46226 0.01333 0.0
C1064 C 0.54608 0.55667 0.9827 0.0
C1065 C 0.57787 0.68022 0.04094 0.0
C1066 C 0.5995 0.73694 0.03134 0.0
C1067 C 0.59536 0.70132 0.02379 0.0
C1068 C 0.58441 0.75073 0.05598 0.0
C1069 C 0.56278 0.69418 0.06497 0.0
C1070 C 0.56594 0.7294 0.07223 0.0
C1071 C 0.62931 0.58151 1.00838 0.0
C1072 C 0.57574 0.64372 0.03179 0.0
C1073 C 0.57032 0.65509 0.17526 0.0
C1074 C 0.60085 0.65833 0.17914 0.0
C1075 C 0.61134 0.54151 0.07378 0.0
C1076 C 0.58213 0.41892 0.01765 0.0
C1077 C 0.56425 0.39687 0.03354 0.0
C1078 C 0.56683 0.36375 0.03173 0.0
C1079 C 0.58715 0.35237 0.01294 0.0
C1080 C 0.60261 0.40764 0.99911 0.0
C1081 C 0.60491 0.37429 0.99666 0.0
C1082 C 0.52639 0.51738 0.04576 0.0
C1083 C 0.58141 0.4546 0.02539 0.0
H1084 H 0.60523 0.68934 1.00397 0.0
H1085 H 0.58687 0.77795 0.06312 0.0
H1086 H 0.54872 0.67803 0.078 0.0
H1087 H 0.55427 0.74031 0.09077 0.0
H1088 H 0.5488 0.40595 0.04827 0.0
H1089 H 0.5898 0.32698 0.01157 0.0
H1090 H 0.61713 0.42468 0.98726 0.0
H1091 H 0.62092 0.36565 0.9827 0.0
Tb1092 Tb 0.86711 0.32678 0.27232 0.0
C1093 C 0.79204 0.22784 0.33845 0.0
C1094 C 0.79791 0.17333 0.31076 0.0
C1095 C 0.78585 0.18112 0.36652 0.0
C1096 C 0.79839 0.2076 0.3112 0.0
C1097 C 0.78489 0.21459 0.36612 0.0
C1098 C 0.79233 0.1605 0.33885 0.0
C1099 C 0.77184 0.26631 0.38856 0.0
N1100 N 0.79024 0.25953 0.33658 0.0
C1101 C 0.77845 0.27787 0.3602 0.0
C1102 C 0.77555 0.23474 0.3918 0.0
Tb1103 Tb 0.80236 0.27714 0.28976 0.0
N1104 N 0.80269 0.22063 0.28422 0.0
C1105 C 0.80498 0.1996 0.25521 0.0
C1106 C 0.80183 0.15254 0.28169 0.0
C1107 C 0.80502 0.16565 0.25369 0.0
H1108 H 0.77425 0.30154 0.35725 0.0
H1109 H 0.80738 0.14957 0.23079 0.0
H1110 H 0.79203 0.13433 0.33901 0.0
H1111 H 0.76342 0.28147 0.40763 0.0
H1112 H 0.80728 0.20857 0.23293 0.0
H1113 H 0.86526 0.45349 0.33754 0.0
H1114 H 0.80155 0.1261 0.28032 0.0
H1115 H 0.88686 0.30017 0.19993 0.0
H1116 H 0.86176 0.39302 0.3318 0.0
H1117 H 0.90065 0.32381 0.15209 0.0
H1118 H 0.78058 0.17055 0.38761 0.0
H1119 H 0.87493 0.48042 0.29065 0.0
H1120 H 0.88611 0.47507 0.23272 0.0
H1121 H 0.7699 0.22553 0.4135 0.0
H1122 H 0.8956 0.43986 0.18222 0.0
N1123 N 0.86826 0.38377 0.28101 0.0
C1124 C 0.86578 0.40356 0.31062 0.0
C1125 C 0.87305 0.45337 0.28764 0.0
C1126 C 0.87668 0.43356 0.25783 0.0
C1127 C 0.86772 0.4383 0.31418 0.0
C1128 C 0.87396 0.39839 0.25517 0.0
H1129 H 0.90117 0.38354 0.15199 0.0
N1130 N 0.87779 0.34534 0.22574 0.0
C1131 C 0.89436 0.33939 0.17276 0.0
C1132 C 0.87893 0.37853 0.2266 0.0
C1133 C 0.88644 0.32604 0.19984 0.0
C1134 C 0.89456 0.37309 0.17277 0.0
C1135 C 0.88726 0.3933 0.2001 0.0
O1136 O 0.90732 0.31507 0.26653 0.0
O1137 O 0.84937 0.27836 0.28751 0.0
O1138 O 0.83094 0.29406 0.3372 0.0
O1139 O 0.86676 0.33821 0.32542 0.0
O1140 O 0.87335 0.276 0.25015 0.0
O1141 O 0.90637 0.35971 0.30283 0.0
O1142 O 0.76139 0.2884 0.28941 0.0
O1143 O 0.82003 0.32615 0.27531 0.0
O1144 O 0.83615 0.31353 0.22675 0.0
O1145 O 0.80669 0.26479 0.2375 0.0
O1146 O 0.79621 0.32744 0.31291 0.0
O1147 O 0.7648 0.2423 0.25789 0.0
C1148 C 0.86128 0.25759 0.26933 0.0
C1149 C 0.95184 0.35886 0.28241 0.0
C1150 C 1.00498 0.36518 0.28873 0.0
C1151 C 0.9768 0.35129 0.29645 0.0
C1152 C 0.00807 0.38682 0.2667 0.0
C1153 C 0.95504 0.38029 0.26025 0.0
C1154 C 0.9831 0.39415 0.25239 0.0
C1155 C 0.85388 0.32157 0.34621 0.0
C1156 C 0.92282 0.34137 0.28949 0.0
C1157 C 0.88925 0.42805 0.20231 0.0
C1158 C 0.88389 0.44811 0.23108 0.0
C1159 C 0.80835 0.34661 0.29436 0.0
C1160 C 0.71826 0.24297 0.27451 0.0
C1161 C 0.69295 0.24486 0.25549 0.0
C1162 C 0.66481 0.23085 0.26293 0.0
C1163 C 0.66193 0.21535 0.28977 0.0
C1164 C 0.71532 0.22706 0.30109 0.0
C1165 C 0.68719 0.21359 0.30886 0.0
C1166 C 0.8158 0.28391 0.21692 0.0
C1167 C 0.74722 0.26059 0.26765 0.0
H1168 H 0.9743 0.33463 0.31356 0.0
H1169 H 0.02969 0.39781 0.26044 0.0
H1170 H 0.93605 0.38616 0.24892 0.0
H1171 H 0.98551 0.41055 0.23514 0.0
H1172 H 0.69512 0.25723 0.23497 0.0
H1173 H 0.64016 0.20472 0.29591 0.0
H1174 H 0.73451 0.22519 0.31593 0.0
H1175 H 0.68496 0.20176 0.32965 0.0
Tb1176 Tb 0.08329 0.54566 0.56495 0.0
C1177 C 0.01526 0.57781 0.44876 0.0
C1178 C 0.99061 0.5213 0.41422 0.0
C1179 C 0.96768 0.56751 0.41432 0.0
C1180 C 0.01444 0.54391 0.43797 0.0
C1181 C 0.99244 0.59034 0.43618 0.0
C1182 C 0.96679 0.53301 0.40332 0.0
C1183 C 0.02226 0.64759 0.46384 0.0
N1184 N 0.03963 0.59909 0.46961 0.0
C1185 C 0.04429 0.63387 0.47556 0.0
C1186 C 0.99589 0.62565 0.44469 0.0
Tb1187 Tb 0.07446 0.57458 0.48816 0.0
N1188 N 0.03781 0.53361 0.44931 0.0
C1189 C 0.03923 0.50099 0.43627 0.0
C1190 C 0.99177 0.48788 0.40152 0.0
C1191 C 0.01643 0.47788 0.41225 0.0
H1192 H 0.06463 0.6509 0.49055 0.0
H1193 H 0.01772 0.45215 0.40239 0.0
H1194 H 0.94804 0.51586 0.38562 0.0
H1195 H 0.02563 0.67505 0.46963 0.0
H1196 H 0.05759 0.49195 0.44404 0.0
H1197 H 0.14395 0.6622 0.65685 0.0
H1198 H 0.974 0.46979 0.38321 0.0
H1199 H 0.08768 0.46671 0.55734 0.0
H1200 H 0.10371 0.62679 0.61326 0.0
H1201 H 0.12271 0.43728 0.5781 0.0
H1202 H 0.94968 0.57654 0.40482 0.0
H1203 H 0.18504 0.6397 0.67478 0.0
H1204 H 0.20703 0.59019 0.67053 0.0
H1205 H 0.9789 0.63633 0.43551 0.0
H1206 H 0.20141 0.52877 0.64891 0.0
N1207 N 0.12068 0.58289 0.60542 0.0
C1208 C 0.1209 0.61568 0.62033 0.0
C1209 C 0.1671 0.62355 0.6555 0.0
C1210 C 0.16635 0.58977 0.64119 0.0
C1211 C 0.14391 0.63628 0.64552 0.0
C1212 C 0.14234 0.56973 0.61632 0.0
H1213 H 0.16948 0.47127 0.61527 0.0
N1214 N 0.11484 0.51663 0.58198 0.0
C1215 C 0.1278 0.46494 0.58533 0.0
C1216 C 0.13931 0.53538 0.60414 0.0
C1217 C 0.10804 0.4816 0.57367 0.0
C1218 C 0.15423 0.48422 0.60625 0.0
C1219 C 0.16001 0.51985 0.61643 0.0
O1220 O 0.05219 0.50752 0.57914 0.0
O1221 O 0.0573 0.54303 0.51956 0.0
O1222 O 0.04697 0.59675 0.5198 0.0
O1223 O 0.06749 0.59203 0.57142 0.0
O1224 O 0.04799 0.50038 0.53483 0.0
O1225 O 0.06507 0.56026 0.60769 0.0
O1226 O 0.10121 0.61437 0.47152 0.0
O1227 O 0.10037 0.57767 0.53367 0.0
O1228 O 0.11379 0.52684 0.53516 0.0
O1229 O 0.09424 0.5312 0.48292 0.0
O1230 O 0.11091 0.61933 0.5169 0.0
O1231 O 0.09379 0.56077 0.44641 0.0
C1232 C 0.03808 0.51461 0.51313 0.0
C1233 C 0.0463 0.5167 0.63474 0.0
C1234 C 0.01786 0.50716 0.67873 0.0
C1235 C 0.02278 0.52117 0.6515 0.0
C1236 C 0.03675 0.48864 0.68921 0.0
C1237 C 0.06546 0.49882 0.64553 0.0
C1238 C 0.06054 0.48469 0.67273 0.0
C1239 C 0.05054 0.60424 0.55246 0.0
C1240 C 0.04872 0.52901 0.60483 0.0
C1241 C 0.185 0.54011 0.63954 0.0
C1242 C 0.18819 0.57506 0.65188 0.0
C1243 C 0.12029 0.60553 0.53924 0.0
C1244 C 0.10658 0.60189 0.41533 0.0
C1245 C 0.12662 0.59135 0.39628 0.0
C1246 C 0.13161 0.60284 0.36786 0.0
C1247 C 0.1158 0.62445 0.3577 0.0
C1248 C 0.09018 0.62296 0.40522 0.0
C1249 C 0.09476 0.63408 0.37621 0.0
C1250 C 0.11204 0.52058 0.50257 0.0
C1251 C 0.10631 0.59281 0.44693 0.0
H1252 H 0.00835 0.53559 0.64342 0.0
H1253 H 0.03382 0.4784 0.71093 0.0
H1254 H 0.08387 0.49551 0.63284 0.0
H1255 H 0.07527 0.47091 0.68122 0.0
H1256 H 0.13942 0.57525 0.40436 0.0
H1257 H 0.11962 0.63358 0.33554 0.0
H1258 H 0.07451 0.63132 0.41991 0.0
H1259 H 0.08243 0.6506 0.3684 0.0
Tb1260 Tb 0.79682 0.80926 0.27932 0.0
C1261 C 0.90556 0.77038 0.33748 0.0
C1262 C 0.93371 0.82351 0.37583 0.0
C1263 C 0.94292 0.76997 0.38182 0.0
C1264 C 0.91181 0.80547 0.34802 0.0
C1265 C 0.92114 0.75218 0.35422 0.0
C1266 C 0.94926 0.80559 0.39253 0.0
C1267 C 0.8948 0.70053 0.31334 0.0
N1268 N 0.88503 0.75422 0.31011 0.0
C1269 C 0.88066 0.7198 0.29704 0.0
C1270 C 0.91504 0.71677 0.34218 0.0
Tb1271 Tb 0.86607 0.78879 0.28233 0.0
N1272 N 0.89624 0.82186 0.33125 0.0
C1273 C 0.90159 0.85676 0.34193 0.0
C1274 C 0.93942 0.85903 0.38608 0.0
C1275 C 0.92308 0.87565 0.36919 0.0
H1276 H 0.86645 0.70715 0.2736 0.0
H1277 H 0.92702 0.90314 0.37714 0.0
H1278 H 0.96624 0.81905 0.41375 0.0
H1279 H 0.89068 0.67333 0.30312 0.0
H1280 H 0.88915 0.87083 0.3304 0.0
H1281 H 0.73242 0.6971 0.18354 0.0
H1282 H 0.95617 0.8738 0.40713 0.0
H1283 H 0.79251 0.88934 0.29079 0.0
H1284 H 0.76295 0.72641 0.23618 0.0
H1285 H 0.77531 0.92585 0.25801 0.0
H1286 H 0.95521 0.75646 0.39481 0.0
H1287 H 0.71834 0.72982 0.14463 0.0
H1288 H 0.71889 0.78668 0.13296 0.0
H1289 H 0.92647 0.70193 0.35439 0.0
H1290 H 0.73117 0.8493 0.15293 0.0
N1291 N 0.76763 0.77744 0.22933 0.0
C1292 C 0.75751 0.7422 0.22059 0.0
C1293 C 0.7321 0.74337 0.16819 0.0
C1294 C 0.74128 0.77915 0.17742 0.0
C1295 C 0.7399 0.72486 0.19011 0.0
C1296 C 0.75899 0.7956 0.20858 0.0
H1297 H 0.75183 0.90135 0.19967 0.0
N1298 N 0.78086 0.845 0.25073 0.0
C1299 C 0.77284 0.8992 0.24674 0.0
C1300 C 0.76607 0.83067 0.2196 0.0
C1301 C 0.78257 0.8784 0.26519 0.0
C1302 C 0.75971 0.88532 0.21381 0.0
C1303 C 0.75537 0.85045 0.20013 0.0
O1304 O 0.77651 0.83522 0.31506 0.0
O1305 O 0.83238 0.80088 0.31114 0.0
O1306 O 0.83477 0.74308 0.29174 0.0
O1307 O 0.78923 0.75554 0.28615 0.0
O1308 O 0.82041 0.84508 0.32501 0.0
O1309 O 0.75558 0.7828 0.29021 0.0
O1310 O 0.88577 0.76228 0.2465 0.0
O1311 O 0.82996 0.79612 0.25097 0.0
O1312 O 0.8288 0.85564 0.27018 0.0
O1313 O 0.87382 0.84216 0.27581 0.0
O1314 O 0.84258 0.75236 0.2364 0.0
O1315 O 0.90605 0.81563 0.26906 0.0
C1316 C 0.8358 0.82653 0.33515 0.0
C1317 C 0.72421 0.81608 0.31072 0.0
C1318 C 0.67835 0.81497 0.33404 0.0
C1319 C 0.70616 0.80805 0.33472 0.0
C1320 C 0.66906 0.83055 0.30976 0.0
C1321 C 0.71422 0.83114 0.28635 0.0
C1322 C 0.68695 0.83864 0.28613 0.0
C1323 C 0.80542 0.73402 0.28984 0.0
C1324 C 0.75345 0.80909 0.31183 0.0
C1325 C 0.73929 0.83449 0.16837 0.0
C1326 C 0.73224 0.79886 0.15703 0.0
C1327 C 0.82575 0.76997 0.22743 0.0
C1328 C 0.9378 0.78264 0.24877 0.0
C1329 C 0.95707 0.79626 0.22802 0.0
C1330 C 0.98431 0.78831 0.22617 0.0
C1331 C 0.99228 0.76716 0.24565 0.0
C1332 C 0.9464 0.76171 0.26803 0.0
C1333 C 0.97345 0.75408 0.26652 0.0
C1334 C 0.85828 0.86414 0.27163 0.0
C1335 C 0.90824 0.78874 0.24829 0.0
H1336 H 0.71355 0.79621 0.35356 0.0
H1337 H 0.64782 0.83629 0.30904 0.0
H1338 H 0.72731 0.83704 0.26743 0.0
H1339 H 0.67955 0.85055 0.2674 0.0
H1340 H 0.95053 0.81215 0.21272 0.0
H1341 H 0.01326 0.76094 0.24492 0.0
H1342 H 0.93228 0.75081 0.28397 0.0
H1343 H 0.97974 0.73778 0.28143 0.0
Tb1344 Tb 0.84713 0.29534 0.75609 0.0
C1345 C 0.80158 0.38602 0.86136 0.0
C1346 C 0.84513 0.41446 0.90295 0.0
C1347 C 0.80247 0.43714 0.90279 0.0
C1348 C 0.82959 0.38705 0.87593 0.0
C1349 C 0.78773 0.41111 0.87481 0.0
C1350 C 0.83113 0.43886 0.91679 0.0
C1351 C 0.74467 0.38179 0.83364 0.0
N1352 N 0.78778 0.36022 0.83442 0.0
C1353 C 0.7589 0.35716 0.82166 0.0
C1354 C 0.75916 0.40898 0.86026 0.0
Tb1355 Tb 0.80953 0.31584 0.82447 0.0
N1356 N 0.84275 0.36338 0.86133 0.0
C1357 C 0.87274 0.36868 0.87066 0.0
C1358 C 0.87481 0.41762 0.91425 0.0
C1359 C 0.88887 0.39521 0.89741 0.0
H1360 H 0.74551 0.3347 0.80354 0.0
H1361 H 0.91231 0.39854 0.90483 0.0
H1362 H 0.84258 0.45969 0.93782 0.0
H1363 H 0.72199 0.37898 0.82313 0.0
H1364 H 0.88511 0.35333 0.85745 0.0
H1365 H 0.75497 0.22122 0.65853 0.0
H1366 H 0.88748 0.43831 0.93483 0.0
H1367 H 0.9133 0.2827 0.7742 0.0
H1368 H 0.78079 0.26877 0.70389 0.0
H1369 H 0.93825 0.23804 0.75836 0.0
H1370 H 0.79201 0.45632 0.91358 0.0
H1371 H 0.77561 0.17242 0.64246 0.0
H1372 H 0.8165 0.14568 0.65068 0.0
H1373 H 0.74779 0.42764 0.86997 0.0
H1374 H 0.86576 0.14949 0.67886 0.0
N1375 N 0.81669 0.24842 0.71681 0.0
C1376 C 0.79072 0.24833 0.69864 0.0
C1377 C 0.78722 0.19341 0.66329 0.0
C1378 C 0.81402 0.19365 0.68089 0.0
C1379 C 0.77558 0.22091 0.67222 0.0
C1380 C 0.82843 0.22171 0.70791 0.0
H1381 H 0.91105 0.18346 0.71901 0.0
N1382 N 0.87039 0.25213 0.74825 0.0
C1383 C 0.91492 0.2332 0.7491 0.0
C1384 C 0.85597 0.22351 0.72429 0.0
C1385 C 0.9004 0.25826 0.7584 0.0
C1386 C 0.8995 0.20248 0.72694 0.0
C1387 C 0.87005 0.19777 0.71335 0.0
O1388 O 0.88823 0.31787 0.74268 0.0
O1389 O 0.83565 0.33573 0.7896 0.0
O1390 O 0.7819 0.31759 0.77806 0.0
O1391 O 0.81293 0.31897 0.73765 0.0
O1392 O 0.87887 0.34276 0.78487 0.0
O1393 O 0.84774 0.29845 0.70674 0.0
O1394 O 0.7653 0.28937 0.828 0.0
O1395 O 0.81124 0.27831 0.7815 0.0
O1396 O 0.86811 0.2801 0.79905 0.0
O1397 O 0.84863 0.30158 0.84579 0.0
O1398 O 0.80582 0.26214 0.82466 0.0
O1399 O 0.79761 0.31796 0.87133 0.0
C1400 C 0.86022 0.35815 0.79666 0.0
C1401 C 0.89097 0.32978 0.68989 0.0
C1402 C 0.89368 0.37216 0.65796 0.0
C1403 C 0.87847 0.35284 0.67781 0.0
C1404 C 0.92036 0.36696 0.64846 0.0
C1405 C 0.91759 0.32449 0.68048 0.0
C1406 C 0.93211 0.34287 0.65949 0.0
C1407 C 0.78747 0.3218 0.74813 0.0
C1408 C 0.87664 0.31004 0.71165 0.0
C1409 C 0.85523 0.16933 0.68748 0.0
C1410 C 0.82726 0.16725 0.67133 0.0
C1411 C 0.80807 0.25296 0.794 0.0
C1412 C 0.75666 0.27784 0.88076 0.0
C1413 C 0.77061 0.25487 0.8913 0.0
C1414 C 0.75993 0.23865 0.91579 0.0
C1415 C 0.73554 0.24553 0.92987 0.0
C1416 C 0.73219 0.28443 0.89484 0.0
C1417 C 0.72172 0.26836 0.91937 0.0
C1418 C 0.86824 0.28723 0.83168 0.0
C1419 C 0.7702 0.30014 0.86017 0.0
H1420 H 0.85745 0.35625 0.68424 0.0
H1421 H 0.93191 0.38138 0.63234 0.0
H1422 H 0.92701 0.30603 0.68928 0.0
H1423 H 0.95252 0.33864 0.65198 0.0
H1424 H 0.79003 0.25034 0.88128 0.0
H1425 H 0.72731 0.23331 0.94907 0.0
H1426 H 0.7219 0.30303 0.88772 0.0
H1427 H 0.70317 0.27397 0.93057 0.0
Tb1428 Tb 0.84846 0.83074 0.79501 0.0
C1429 C 0.73354 0.71547 0.73588 0.0
C1430 C 0.71049 0.70268 0.78294 0.0
C1431 C 0.68406 0.6754 0.72751 0.0
C1432 C 0.7354 0.71856 0.76958 0.0
C1433 C 0.70793 0.6933 0.7144 0.0
C1434 C 0.68506 0.68066 0.76172 0.0
C1435 C 0.73152 0.70674 0.66835 0.0
N1436 N 0.75756 0.73235 0.72409 0.0
C1437 C 0.75638 0.72833 0.6904 0.0
C1438 C 0.70752 0.68853 0.68035 0.0
Tb1439 Tb 0.80167 0.74767 0.76037 0.0
N1440 N 0.76125 0.73814 0.78926 0.0
C1441 C 0.76144 0.74674 0.82294 0.0
C1442 C 0.71175 0.7095 0.8172 0.0
C1443 C 0.73702 0.73247 0.8372 0.0
H1444 H 0.77537 0.73843 0.67931 0.0
H1445 H 0.7378 0.73919 0.86375 0.0
H1446 H 0.66609 0.66748 0.77153 0.0
H1447 H 0.7316 0.70274 0.64194 0.0
H1448 H 0.77975 0.7654 0.83951 0.0
H1449 H 0.91376 0.82998 0.69469 0.0
H1450 H 0.69302 0.69806 0.82837 0.0
H1451 H 0.86859 0.85495 0.87635 0.0
H1452 H 0.87008 0.81021 0.71972 0.0
H1453 H 0.9121 0.89334 0.91459 0.0
H1454 H 0.66466 0.65752 0.71144 0.0
H1455 H 0.96031 0.86774 0.72964 0.0
H1456 H 0.9869 0.90125 0.78589 0.0
H1457 H 0.68923 0.67019 0.66308 0.0
H1458 H 0.9859 0.91902 0.8452 0.0
N1459 N 0.89026 0.8356 0.76927 0.0
C1460 C 0.88952 0.8268 0.73573 0.0
C1461 C 0.94099 0.85854 0.74099 0.0
C1462 C 0.94187 0.86765 0.77517 0.0
C1463 C 0.91476 0.83757 0.72122 0.0
C1464 C 0.91613 0.85476 0.78877 0.0
H1465 H 0.95805 0.9167 0.89341 0.0
N1466 N 0.89074 0.8507 0.8341 0.0
C1467 C 0.91388 0.88431 0.88888 0.0
C1468 C 0.91626 0.86305 0.82238 0.0
C1469 C 0.88939 0.86147 0.86711 0.0
C1470 C 0.93989 0.89733 0.87686 0.0
C1471 C 0.94149 0.88657 0.84334 0.0
O1472 O 0.84355 0.87306 0.82795 0.0
O1473 O 0.80185 0.80085 0.77688 0.0
O1474 O 0.80933 0.77609 0.72066 0.0
O1475 O 0.8294 0.83385 0.74589 0.0
O1476 O 0.81301 0.8289 0.82458 0.0
O1477 O 0.85965 0.8784 0.78123 0.0
O1478 O 0.80937 0.71566 0.71767 0.0
O1479 O 0.84563 0.78146 0.76602 0.0
O1480 O 0.85193 0.8015 0.83316 0.0
O1481 O 0.81611 0.74819 0.81255 0.0
O1482 O 0.84241 0.73469 0.77541 0.0
O1483 O 0.78534 0.69469 0.75373 0.0
C1484 C 0.79087 0.8118 0.80191 0.0
C1485 C 0.86028 0.93007 0.82168 0.0
C1486 C 0.85479 0.98169 0.808 0.0
C1487 C 0.85757 0.94873 0.79826 0.0
C1488 C 0.85971 0.99808 0.84174 0.0
C1489 C 0.86497 0.94594 0.85552 0.0
C1490 C 0.86536 0.98029 0.86539 0.0
C1491 C 0.81775 0.8088 0.71912 0.0
C1492 C 0.85541 0.89351 0.81018 0.0
C1493 C 0.96678 0.90026 0.82983 0.0
C1494 C 0.9672 0.89037 0.79593 0.0
C1495 C 0.86101 0.76277 0.77378 0.0
C1496 C 0.80466 0.65739 0.7183 0.0
C1497 C 0.8226 0.65003 0.74273 0.0
C1498 C 0.82924 0.61852 0.7373 0.0
C1499 C 0.81738 0.59418 0.70723 0.0
C1500 C 0.79353 0.63338 0.68806 0.0
C1501 C 0.79995 0.60185 0.6826 0.0
C1502 C 0.83539 0.77171 0.83687 0.0
C1503 C 0.79437 0.68798 0.72529 0.0
H1504 H 0.85367 0.93614 0.77214 0.0
H1505 H 0.85696 0.02347 0.84983 0.0
H1506 H 0.86747 0.93164 0.87408 0.0
H1507 H 0.86798 0.99249 0.89122 0.0
H1508 H 0.83155 0.66895 0.76582 0.0
H1509 H 0.82194 0.56948 0.70258 0.0
H1510 H 0.77935 0.63872 0.66902 0.0
H1511 H 0.79143 0.58327 0.65933 0.0
Tb1512 Tb 0.55162 0.52353 0.50851 0.0
C1513 C 0.63482 0.66183 0.58103 0.0
C1514 C 0.64894 0.68925 0.53675 0.0
C1515 C 0.65916 0.72335 0.59311 0.0
C1516 C 0.63627 0.65947 0.54785 0.0
C1517 C 0.64566 0.69409 0.60392 0.0
C1518 C 0.66093 0.7209 0.5596 0.0
C1519 C 0.63148 0.66622 0.64736 0.0
N1520 N 0.62377 0.63256 0.59108 0.0
C1521 C 0.62365 0.63466 0.62447 0.0
C1522 C 0.64311 0.69608 0.63718 0.0
Tb1523 Tb 0.61669 0.58169 0.55124 0.0
N1524 N 0.62544 0.62819 0.5265 0.0
C1525 C 0.62503 0.62606 0.49315 0.0
C1526 C 0.64941 0.68648 0.50302 0.0
C1527 C 0.63682 0.65486 0.48109 0.0
H1528 H 0.61837 0.61183 0.63403 0.0
H1529 H 0.63623 0.65252 0.45475 0.0
H1530 H 0.67134 0.74374 0.55155 0.0
H1531 H 0.63004 0.66732 0.67319 0.0
H1532 H 0.61466 0.60263 0.47489 0.0
H1533 H 0.53211 0.44682 0.60038 0.0
H1534 H 0.65894 0.70869 0.49361 0.0
H1535 H 0.54448 0.49891 0.42596 0.0
H1536 H 0.55287 0.49843 0.58239 0.0
H1537 H 0.53199 0.44503 0.38323 0.0
H1538 H 0.66831 0.74802 0.61048 0.0
H1539 H 0.51004 0.39169 0.55964 0.0
H1540 H 0.4984 0.3589 0.50067 0.0
H1541 H 0.65078 0.72038 0.65534 0.0
H1542 H 0.5011 0.35797 0.44204 0.0
N1543 N 0.54151 0.47509 0.53033 0.0
C1544 C 0.54248 0.47557 0.56343 0.0
C1545 C 0.51893 0.41474 0.55121 0.0
C1546 C 0.51903 0.41367 0.51765 0.0
C1547 C 0.53118 0.44577 0.5742 0.0
C1548 C 0.53067 0.44454 0.50789 0.0
H1549 H 0.5182 0.3895 0.39895 0.0
N1550 N 0.54082 0.47444 0.46639 0.0
C1551 C 0.53169 0.44437 0.40895 0.0
C1552 C 0.53117 0.44413 0.47495 0.0
C1553 C 0.53918 0.47484 0.43343 0.0
C1554 C 0.52344 0.41314 0.41783 0.0
C1555 C 0.52137 0.41276 0.45085 0.0
O1556 O 0.51752 0.52334 0.47216 0.0
O1557 O 0.57236 0.57909 0.52878 0.0
O1558 O 0.58344 0.58263 0.58726 0.0
O1559 O 0.54119 0.54034 0.55996 0.0
O1560 O 0.55418 0.56329 0.48013 0.0
O1561 O 0.50857 0.51841 0.52167 0.0
O1562 O 0.6524 0.59476 0.58932 0.0
O1563 O 0.59598 0.52621 0.532 0.0
O1564 O 0.58484 0.51808 0.47322 0.0
O1565 O 0.62647 0.5623 0.49945 0.0
O1566 O 0.61742 0.54184 0.57918 0.0
O1567 O 0.65991 0.58699 0.53877 0.0
C1568 C 0.56528 0.59029 0.50361 0.0
C1569 C 0.46704 0.51816 0.48201 0.0
C1570 C 0.42327 0.53702 0.49211 0.0
C1571 C 0.45155 0.53507 0.50369 0.0
C1572 C 0.41025 0.52131 0.45919 0.0
C1573 C 0.45372 0.50233 0.44916 0.0
C1574 C 0.42531 0.50372 0.4379 0.0
C1575 C 0.55586 0.56367 0.58733 0.0
C1576 C 0.4982 0.52045 0.49234 0.0
C1577 C 0.50946 0.38212 0.46033 0.0
C1578 C 0.50788 0.38266 0.49365 0.0
C1579 C 0.60397 0.51461 0.55668 0.0
C1580 C 0.69591 0.57975 0.57918 0.0
C1581 C 0.70993 0.56304 0.55549 0.0
C1582 C 0.73379 0.55108 0.5657 0.0
C1583 C 0.74359 0.55614 0.59966 0.0
C1584 C 0.70645 0.58514 0.613 0.0
C1585 C 0.72994 0.57308 0.62311 0.0
C1586 C 0.61203 0.53774 0.4725 0.0
C1587 C 0.67207 0.59448 0.56968 0.0
H1588 H 0.4619 0.54787 0.52894 0.0
H1589 H 0.38844 0.52279 0.45013 0.0
H1590 H 0.46549 0.48938 0.4321 0.0
H1591 H 0.41518 0.49168 0.41251 0.0
H1592 H 0.70243 0.55935 0.52933 0.0
H1593 H 0.76217 0.5474 0.60801 0.0
H1594 H 0.69665 0.59896 0.63174 0.0
H1595 H 0.73761 0.57708 0.6492 0.0
Tb1596 Tb 0.11137 0.55044 0.01021 0.0
C1597 C 0.00702 0.49223 0.07754 0.0
C1598 C 0.97681 0.44245 0.03613 0.0
C1599 C 0.97615 0.44389 0.09446 0.0
C1600 C 0.99737 0.47539 0.04469 0.0
C1601 C 0.99622 0.47691 0.10282 0.0
C1602 C 0.96654 0.42666 0.06119 0.0
C1603 C 0.02511 0.52847 0.1427 0.0
N1604 N 0.02691 0.5238 0.08472 0.0
C1605 C 0.03533 0.54256 0.1168 0.0
C1606 C 1.00569 0.49539 0.13571 0.0
Tb1607 Tb 0.04209 0.54436 0.04035 0.0
N1608 N 0.00789 0.49141 0.02116 0.0
C1609 C 0.99743 0.47622 0.98838 0.0
C1610 C 0.967 0.42644 1.00267 0.0
C1611 C 0.97717 0.44356 0.97872 0.0
H1612 H 0.05035 0.56816 0.12233 0.0
H1613 H 0.96945 0.4316 0.95275 0.0
H1614 H 0.9509 0.4013 0.05508 0.0
H1615 H 0.03221 0.54313 0.16803 0.0
H1616 H 1.00479 0.48855 0.96917 0.0
H1617 H 0.18321 0.66133 0.10094 0.0
H1618 H 0.95132 0.40112 0.99509 0.0
H1619 H 0.10743 0.52747 0.92879 0.0
H1620 H 0.14781 0.60457 0.08274 0.0
H1621 H 0.12748 0.5534 0.88436 0.0
H1622 H 0.96775 0.43158 0.11353 0.0
H1623 H 0.20242 0.69328 0.06002 0.0
H1624 H 0.20435 0.69468 1.00055 0.0
H1625 H 0.99784 0.48453 0.15583 0.0
H1626 H 0.18926 0.6654 0.94165 0.0
N1627 N 0.14545 0.60336 0.03102 0.0
C1628 C 0.15553 0.61757 0.06407 0.0
C1629 C 0.18664 0.66807 0.05163 0.0
C1630 C 0.17744 0.65293 0.01792 0.0
C1631 C 0.17587 0.65012 0.07478 0.0
C1632 C 0.15673 0.62008 1.0083 0.0
H1633 H 0.1609 0.6126 0.89815 0.0
N1634 N 0.12859 0.572 0.96715 0.0
C1635 C 0.13325 0.56797 0.9098 0.0
C1636 C 0.14805 0.60383 0.97525 0.0
C1637 C 0.12196 0.55337 0.93498 0.0
C1638 C 0.15211 0.60139 0.91768 0.0
C1639 C 0.16004 0.61962 0.95077 0.0
O1640 O 0.12683 0.50887 0.98991 0.0
O1641 O 0.07138 0.51585 0.01937 0.0
O1642 O 0.06655 0.52217 0.07122 0.0
O1643 O 0.11324 0.55168 0.06303 0.0
O1644 O 0.08574 0.50126 0.97628 0.0
O1645 O 0.15235 0.54667 0.03279 0.0
O1646 O 0.02706 0.58543 0.06246 0.0
O1647 O 0.0818 0.57932 0.0301 0.0
O1648 O 0.08489 0.56752 0.97537 0.0
O1649 O 0.03813 0.54273 0.98784 0.0
O1650 O 0.06847 0.59343 0.07406 0.0
O1651 O 1.00046 0.54776 0.01955 0.0
C1652 C 0.06629 0.49068 0.99441 0.0
C1653 C 0.1783 0.5157 0.99732 0.0
C1654 C 0.22297 0.49618 0.99952 0.0
C1655 C 0.19904 0.50355 0.01438 0.0
C1656 C 0.22611 0.50101 0.96767 0.0
C1657 C 0.18205 0.52072 0.96556 0.0
C1658 C 0.20579 0.51339 0.95086 0.0
C1659 C 0.09525 0.53459 0.08016 0.0
C1660 C 0.15113 0.51878 0.01111 0.0
C1661 C 0.18 0.65271 0.96011 0.0
C1662 C 0.18862 0.66937 0.99364 0.0
C1663 C 0.08719 0.60432 0.05533 0.0
C1664 C 0.97568 0.57778 0.05728 0.0
C1665 C 0.95512 0.59074 0.04144 0.0
C1666 C 0.93245 0.59979 0.05761 0.0
C1667 C 0.93016 0.59476 0.08968 0.0
C1668 C 0.97289 0.5726 0.08914 0.0
C1669 C 0.95015 0.58093 0.10516 0.0
C1670 C 0.05571 0.55632 0.96838 0.0
C1671 C 1.00216 0.57524 0.04215 0.0
H1672 H 0.19616 0.49897 0.03867 0.0
H1673 H 0.24427 0.49509 0.95579 0.0
H1674 H 0.16625 0.52936 0.95165 0.0
H1675 H 0.20821 0.51687 0.92619 0.0
H1676 H 0.95743 0.5948 0.01688 0.0
H1677 H 0.91345 0.60232 0.10319 0.0
H1678 H 0.98875 0.5633 0.10215 0.0
H1679 H 0.94851 0.57755 0.13 0.0
C1680 C 0.06272 0.18615 0.01705 0.0
C1681 C 0.03967 0.18399 0.99138 0.0
H1682 H 0.08859 0.15995 0.0427 0.0
C1683 C 0.02495 0.15055 0.97245 0.0
H1684 H 0.07483 0.21107 0.03258 0.0
C1685 C 0.03335 0.12119 0.97786 0.0
C1686 C 0.05696 0.12302 1.00272 0.0
H1687 H 1.00677 0.14695 0.95295 0.0
H1688 H 0.02107 0.09656 0.96191 0.0
C1689 C 0.07093 0.15643 0.0228 0.0
C1690 C 0.20916 0.81004 0.19637 0.0
C1691 C 0.21641 0.83255 0.17517 0.0
H1692 H 0.22476 0.78678 0.23381 0.0
C1693 C 0.24675 0.85046 0.178 0.0
H1694 H 0.18631 0.79508 0.19464 0.0
C1695 C 0.2689 0.84562 0.20061 0.0
C1696 C 0.26168 0.82265 0.22131 0.0
H1697 H 0.25345 0.86818 0.16252 0.0
H1698 H 0.29189 0.85983 0.20176 0.0
C1699 C 0.23132 0.8052 0.21897 0.0
C1700 C 0.54982 0.89505 0.46265 0.0
C1701 C 0.5439 0.88081 0.49007 0.0
H1702 H 0.56047 0.93994 0.44308 0.0
C1703 C 0.54428 0.90409 0.52016 0.0
H1704 H 0.5494 0.87851 0.43885 0.0
C1705 C 0.55128 0.94014 0.52275 0.0
C1706 C 0.55707 0.95412 0.49504 0.0
H1707 H 0.53969 0.89453 0.54193 0.0
H1708 H 0.55262 0.95698 0.54659 0.0
C1709 C 0.55598 0.93064 0.46503 0.0
C1710 C 0.53966 0.35022 0.69219 0.0
C1711 C 0.55278 0.32809 0.67258 0.0
H1712 H 0.50736 0.35436 0.72475 0.0
C1713 C 0.54086 0.29247 0.66774 0.0
H1714 H 0.54827 0.37777 0.69606 0.0
C1715 C 0.51753 0.27923 0.68378 0.0
C1716 C 0.50566 0.3013 0.70507 0.0
H1717 H 0.54996 0.27473 0.65201 0.0
H1718 H 0.5093 0.25167 0.68029 0.0
C1719 C 0.51623 0.33688 0.70841 0.0
C1720 C 1.00682 0.8034 0.56121 0.0
C1721 C 0.01646 0.81139 0.59553 0.0
H1722 H 0.01616 0.81436 0.51457 0.0
C1723 C 0.04188 0.83894 0.6095 0.0
H1724 H 0.9873 0.78237 0.54975 0.0
C1725 C 0.05823 0.85691 0.58939 0.0
C1726 C 0.0494 0.84764 0.5551 0.0
H1727 H 0.0498 0.84584 0.63584 0.0
H1728 H 0.07824 0.87743 0.60047 0.0
C1729 C 0.02331 0.82141 0.54108 0.0
C1730 C 0.56 0.82938 0.81956 0.0
C1731 C 0.57516 0.85468 0.84777 0.0
H1732 H 0.52478 0.81515 0.7783 0.0
C1733 C 0.56889 0.88645 0.85465 0.0
H1734 H 0.56439 0.80459 0.81437 0.0
C1735 C 0.54692 0.89261 0.8341 0.0
C1736 C 0.53082 0.86692 0.80666 0.0
H1737 H 0.58034 0.9061 0.87661 0.0
H1738 H 0.54151 0.91677 0.84049 0.0
C1739 C 0.53757 0.8354 0.79915 0.0
C1740 C 0.50819 0.13101 0.11847 0.0
C1741 C 0.49064 0.14788 0.10314 0.0
H1742 H 0.54232 0.10637 0.11532 0.0
C1743 C 0.49195 0.14902 0.07001 0.0
H1744 H 0.50847 0.13097 0.14444 0.0
C1745 C 0.51102 0.13373 0.05265 0.0
C1746 C 0.53022 0.11903 0.06885 0.0
H1747 H 0.47921 0.16288 0.05809 0.0
H1748 H 0.51132 0.13446 0.02706 0.0
C1749 C 0.52821 0.11753 0.10184 0.0
C1750 C 0.21554 0.33659 0.29301 0.0
C1751 C 0.21819 0.34325 0.32773 0.0
H1752 H 0.23657 0.32418 0.25043 0.0
C1753 C 0.24382 0.34101 0.34611 0.0
H1754 H 0.196 0.33823 0.27823 0.0
C1755 C 0.26659 0.33301 0.33026 0.0
C1756 C 0.26395 0.32616 0.2957 0.0
H1757 H 0.24665 0.34608 0.37285 0.0
H1758 H 0.28659 0.33283 0.34521 0.0
C1759 C 0.23844 0.32822 0.27707 0.0
C1760 C 0.03799 0.09978 0.17733 0.0
C1761 C 0.01504 0.07255 0.18303 0.0
H1762 H 0.0684 0.11914 0.14489 0.0
C1763 C 1.00597 0.043 0.15623 0.0
H1764 H 0.047 0.12278 0.19692 0.0
C1765 C 0.01828 0.04089 0.12589 0.0
C1766 C 0.04156 0.06771 0.12024 0.0
H1767 H 0.98951 0.02058 0.15902 0.0
H1768 H 0.00995 1.01723 0.10702 0.0
C1769 C 0.05081 0.09744 0.14705 0.0
C1770 C 0.30363 0.69612 0.45852 0.0
C1771 C 0.2811 0.66727 0.46025 0.0
H1772 H 0.31358 0.74357 0.44308 0.0
C1773 C 0.25252 0.66056 0.44276 0.0
H1774 H 0.32561 0.70201 0.47263 0.0
C1775 C 0.2456 0.68415 0.42643 0.0
C1776 C 0.26719 0.71477 0.42745 0.0
H1777 H 0.23481 0.63861 0.44433 0.0
H1778 H 0.22284 0.67964 0.41504 0.0
C1779 C 0.29667 0.71993 0.44202 0.0
C1780 C 0.64143 1.00495 0.63492 0.0
C1781 C 0.66004 0.03697 0.65238 0.0
H1782 H 0.60307 0.97955 0.59823 0.0
C1783 C 0.65026 0.06654 0.6546 0.0
H1784 H 0.64851 0.98191 0.63366 0.0
C1785 C 0.62377 0.06472 0.63635 0.0
C1786 C 0.60811 0.0339 0.61444 0.0
H1787 H 0.66387 0.09163 0.66808 0.0
H1788 H 0.61818 0.08834 0.6353 0.0
C1789 C 0.61526 1.00343 0.61554 0.0
C1790 C 0.32088 0.31156 0.91802 0.0
C1791 C 0.34768 0.33075 0.93892 0.0
H1792 H 0.29732 0.29395 0.86798 0.0
C1793 C 0.37129 0.34727 0.92458 0.0
H1794 H 0.30188 0.29947 0.92842 0.0
C1795 C 0.36793 0.34593 0.89064 0.0
C1796 C 0.34209 0.32545 0.86916 0.0
H1797 H 0.3918 0.36338 0.94007 0.0
H1798 H 0.38497 0.36276 0.88179 0.0
C1799 C 0.31835 0.30835 0.88341 0.0
C1800 C 0.04491 0.05996 0.38845 0.0
C1801 C 0.01958 0.07186 0.38059 0.0
H1802 H 0.07397 0.04675 0.42432 0.0
C1803 C 1.0044 0.07886 0.4078 0.0
H1804 H 0.05781 0.0537 0.36918 0.0
C1805 C 0.01366 0.07393 0.43999 0.0
C1806 C 0.03881 0.06178 0.44767 0.0
H1807 H 0.98478 0.08756 0.40419 0.0
H1808 H 1.00064 0.07972 0.45928 0.0
C1809 C 0.05435 0.05543 0.42069 0.0
C1810 C 0.31315 0.71625 0.63713 0.0
C1811 C 0.29546 0.72626 0.61419 0.0
H1812 H 0.33395 0.72656 0.68723 0.0
C1813 C 0.28743 0.75685 0.6239 0.0
H1814 H 0.31963 0.69281 0.63051 0.0
C1815 C 0.29598 0.77632 0.65643 0.0
C1816 C 0.31207 0.76493 0.67945 0.0
H1817 H 0.27384 0.76518 0.60669 0.0
H1818 H 0.28884 0.7992 0.66395 0.0
C1819 C 0.32119 0.73536 0.66958 0.0
C1820 C 0.69902 0.11338 0.82665 0.0
C1821 C 0.69357 0.07901 0.80954 0.0
H1822 H 0.68204 0.14949 0.85773 0.0
C1823 C 0.67142 0.05331 0.81699 0.0
H1824 H 0.71651 0.13343 0.82142 0.0
C1825 C 0.65159 0.06256 0.83721 0.0
C1826 C 0.65424 0.0974 0.84991 0.0
H1827 H 0.66708 0.02672 0.804 0.0
H1828 H 0.633 0.04279 0.84096 0.0
C1829 C 0.67904 0.12265 0.84651 0.0
C1830 C 0.32337 0.35778 0.14553 0.0
C1831 C 0.33294 0.3346 0.12231 0.0
H1832 H 0.31087 0.36971 0.19399 0.0
C1833 C 0.33378 0.30319 0.12974 0.0
H1834 H 0.32249 0.38226 0.14086 0.0
C1835 C 0.32626 0.29565 0.15973 0.0
C1836 C 0.31822 0.31951 0.18365 0.0
H1837 H 0.34102 0.28465 0.11268 0.0
H1838 H 0.32859 0.2719 0.16501 0.0
C1839 C 0.31659 0.35057 0.176 0.0
C1840 C 0.27908 0.02664 1.00143 0.0
C1841 C 0.29582 1.01044 0.01881 0.0
H1842 H 0.2507 0.05981 1.00454 0.0
C1843 C 0.29597 1.01448 0.05316 0.0
H1844 H 0.27853 0.02392 0.97504 0.0
C1845 C 0.28054 0.03519 0.06995 0.0
C1846 C 0.26441 0.05204 0.05273 0.0
H1847 H 0.30833 1.00194 0.06733 0.0
H1848 H 0.28091 0.0377 0.09632 0.0
C1849 C 0.26337 0.04725 0.0183 0.0
C1850 C 0.70938 0.61655 0.99542 0.0
C1851 C 0.71142 0.65176 0.99952 0.0
H1852 H 0.68156 0.56614 0.99439 0.0
C1853 C 0.68537 0.66204 1.00191 0.0
H1854 H 0.72902 0.60768 0.99333 0.0
C1855 C 0.65847 0.63835 1.00222 0.0
C1856 C 0.65662 0.60359 1.0003 0.0
H1857 H 0.68588 0.68873 1.00486 0.0
H1858 H 0.6392 0.64771 1.00517 0.0
C1859 C 0.68215 0.59262 0.99574 0.0
C1860 C 0.77545 0.42513 0.31889 0.0
C1861 C 0.76213 0.43192 0.28973 0.0
H1862 H 0.79918 0.39611 0.34287 0.0
C1863 C 0.76641 0.41032 0.26007 0.0
H1864 H 0.77372 0.43979 0.34283 0.0
C1865 C 0.78241 0.38419 0.26026 0.0
C1866 C 0.79526 0.37775 0.29009 0.0
H1867 H 0.75731 0.41336 0.23647 0.0
H1868 H 0.78389 0.36835 0.23682 0.0
C1869 C 0.79082 0.39939 0.31904 0.0
C1870 C 0.97228 0.54285 0.53759 0.0
C1871 C 0.94966 0.52513 0.51105 0.0
H1872 H 0.01558 0.54804 0.5607 0.0
C1873 C 0.95599 0.50263 0.48431 0.0
H1874 H 0.96773 0.55888 0.55931 0.0
C1875 C 0.98438 0.49737 0.48504 0.0
C1876 C 1.00684 0.51549 0.51174 0.0
H1877 H 0.93857 0.48727 0.46417 0.0
H1878 H 0.98838 0.47853 0.46548 0.0
C1879 C 0.99982 0.53671 0.53847 0.0
C1880 C 0.38256 0.09142 0.27282 0.0
C1881 C 0.38464 0.10024 0.30749 0.0
H1882 H 0.3555 0.08394 0.22641 0.0
C1883 C 0.35899 0.1012 0.32169 0.0
H1884 H 0.40181 0.0893 0.26108 0.0
C1885 C 0.33228 0.09657 0.30172 0.0
C1886 C 0.33112 0.09193 0.26736 0.0
H1887 H 0.35978 0.10703 0.34828 0.0
H1888 H 0.31348 0.10079 0.31334 0.0
C1889 C 0.35584 0.08714 0.25284 0.0
C1890 C 0.36451 0.12884 0.53103 0.0
C1891 C 0.37628 0.15506 0.51529 0.0
H1892 H 0.37275 0.09078 0.55525 0.0
C1893 C 0.40616 0.16162 0.51044 0.0
H1894 H 0.34148 0.12288 0.53488 0.0
C1895 C 0.42428 0.14349 0.52265 0.0
C1896 C 0.41277 0.11821 0.53965 0.0
H1897 H 0.41588 0.18163 0.49837 0.0
H1898 H 0.44756 0.15029 0.51988 0.0
C1899 C 0.38251 0.11058 0.54297 0.0
C1900 C 0.75886 0.6575 0.31907 0.0
C1901 C 0.75585 0.62895 0.29255 0.0
H1902 H 0.77653 0.71211 0.3393 0.0
C1903 C 0.77081 0.63541 0.26575 0.0
H1904 H 0.7473 0.65402 0.33988 0.0
C1905 C 0.78755 0.66913 0.26536 0.0
C1906 C 0.78967 0.69768 0.29155 0.0
H1907 H 0.7682 0.61476 0.2442 0.0
H1908 H 0.79782 0.67312 0.24382 0.0
C1909 C 0.77541 0.69108 0.31862 0.0
C1910 C 0.88346 0.43209 0.75768 0.0
C1911 C 0.88558 0.45924 0.78459 0.0
H1912 H 0.87295 0.3778 0.74107 0.0
C1913 C 0.8704 0.45311 0.81089 0.0
H1914 H 0.8949 0.43642 0.73694 0.0
C1915 C 0.85993 0.41969 0.81415 0.0
C1916 C 0.86255 0.39224 0.79013 0.0
H1917 H 0.87191 0.47391 0.83203 0.0
H1918 H 0.85329 0.41657 0.83703 0.0
C1919 C 0.87166 0.39859 0.76044 0.0
C1920 C 0.10504 0.91393 0.0397 0.0
C1921 C 0.12354 0.91423 0.06888 0.0
H1922 H 0.08303 0.94204 0.01162 0.0
C1923 C 0.13408 0.94631 0.09181 0.0
H1924 H 0.09608 0.89011 0.02111 0.0
C1925 C 0.12634 0.97606 0.08648 0.0
C1926 C 0.10735 0.97607 0.05788 0.0
H1927 H 0.14863 0.94856 0.11432 0.0
H1928 H 0.13551 0.99957 0.10543 0.0
C1929 C 0.09725 0.94407 0.03424 0.0
C1930 C 0.92333 0.28991 0.90761 0.0
C1931 C 0.93887 0.26624 0.89523 0.0
H1932 H 0.88982 0.3151 0.89813 0.0
C1933 C 0.93006 0.24847 0.86171 0.0
H1934 H 0.92953 0.30464 0.93301 0.0
C1935 C 0.90668 0.25426 0.84154 0.0
C1936 C 0.89171 0.27872 0.85374 0.0
H1937 H 0.94106 0.22981 0.85109 0.0
H1938 H 0.90019 0.23923 0.81637 0.0
C1939 C 0.90038 0.29606 0.88737 0.0
C1940 C 0.61657 0.19581 0.53721 0.0
C1941 C 0.61729 0.21887 0.56765 0.0
H1942 H 0.60605 0.14288 0.50943 0.0
C1943 C 0.60956 0.20381 0.59419 0.0
H1944 H 0.62229 0.20583 0.51597 0.0
C1945 C 0.60162 0.16792 0.5908 0.0
C1946 C 0.60032 0.14467 0.56054 0.0
H1947 H 0.60999 0.21999 0.61818 0.0
H1948 H 0.59601 0.15822 0.61227 0.0
C1949 C 0.60761 0.1594 0.53354 0.0
C1950 C 0.63993 0.82172 0.40952 0.0
C1951 C 0.61364 0.79453 0.39838 0.0
H1952 H 0.68131 0.8494 0.39768 0.0
C1953 C 0.61054 0.77212 0.36735 0.0
H1954 H 0.64298 0.83947 0.43331 0.0
C1955 C 0.63264 0.77765 0.34728 0.0
C1956 C 0.6582 0.80565 0.35783 0.0
H1957 H 0.59079 0.75068 0.35832 0.0
H1958 H 0.62932 0.76074 0.32297 0.0
C1959 C 0.66196 0.82733 0.38932 0.0
C1960 C 0.1058 0.28105 0.46081 0.0
C1961 C 0.13674 0.29541 0.46678 0.0
H1962 H 0.06807 0.25082 0.47646 0.0
C1963 C 0.15425 0.28717 0.49113 0.0
H1964 H 0.09203 0.2877 0.44232 0.0
C1965 C 0.14051 0.26584 0.5105 0.0
C1966 C 0.10932 0.25383 0.50618 0.0
H1967 H 0.17812 0.2986 0.49629 0.0
H1968 H 0.15403 0.26007 0.52982 0.0
C1969 C 0.09211 0.26063 0.4806 0.0
C1970 C 0.60311 0.26235 0.2286 0.0
C1971 C 0.58236 0.23094 0.21278 0.0
H1972 H 0.64636 0.28682 0.25749 0.0
C1973 C 0.59068 0.2004 0.2094 0.0
H1974 H 0.59715 0.28619 0.23106 0.0
C1975 C 0.61845 0.2008 0.22424 0.0
C1976 C 0.63819 0.23172 0.24253 0.0
H1977 H 0.57528 0.17601 0.19631 0.0
H1978 H 0.62407 0.17682 0.22264 0.0
C1979 C 0.63105 0.26272 0.24359 0.0
C1980 C 0.66359 0.96314 0.99315 0.0
C1981 C 0.65777 0.94836 0.95919 0.0
H1982 H 0.65547 0.99933 0.03261 0.0
C1983 C 0.64098 0.96149 0.93814 0.0
H1984 H 0.6765 0.95342 0.00979 0.0
C1985 C 0.62727 0.98627 0.95135 0.0
C1986 C 0.63068 0.99866 0.98572 0.0
H1987 H 0.63594 0.95016 0.91179 0.0
H1988 H 0.61274 0.99414 0.93475 0.0
C1989 C 0.65076 0.98871 1.00621 0.0
C1990 C 0.9406 0.76699 0.76592 0.0
C1991 C 0.9383 0.75681 0.73141 0.0
H1992 H 0.91719 0.77759 0.80683 0.0
C1993 C 0.91092 0.74934 0.71126 0.0
H1994 H 0.96169 0.77221 0.78166 0.0
C1995 C 0.88571 0.75082 0.7255 0.0
C1996 C 0.8879 0.76121 0.75993 0.0
H1997 H 0.90877 0.7407 0.68464 0.0
H1998 H 0.86452 0.74426 0.7096 0.0
C1999 C 0.91538 0.76958 0.78021 0.0
C2000 C 0.16281 0.05264 0.90385 0.0
C2001 C 0.15025 0.02614 0.87471 0.0
H2002 H 0.16143 0.07592 0.95489 0.0
C2003 C 0.12385 1.00188 0.87829 0.0
H2004 H 0.18215 0.07303 0.90294 0.0
C2005 C 0.11126 1.00389 0.90871 0.0
C2006 C 0.12391 0.03053 0.93785 0.0
H2007 H 0.1121 0.98163 0.85697 0.0
H2008 H 0.09102 0.98453 0.90905 0.0
C2009 C 0.15042 0.05453 0.93423 0.0
C2010 C 0.85535 0.40811 0.59908 0.0
C2011 C 0.87644 0.44013 0.60454 0.0
H2012 H 0.84464 0.36009 0.61309 0.0
C2013 C 0.89654 0.45314 0.63408 0.0
H2014 H 0.83994 0.39772 0.5761 0.0
C2015 C 0.89923 0.43175 0.65505 0.0
C2016 C 0.88189 0.39754 0.64623 0.0
H2017 H 0.91305 0.47778 0.63839 0.0
H2018 H 0.91734 0.44044 0.6756 0.0
C2019 C 0.8582 0.38655 0.61998 0.0
C2020 C 0.50615 0.02522 0.40054 0.0
C2021 C 0.49421 0.05292 0.40036 0.0
H2022 H 0.54077 1.00807 0.42156 0.0
C2023 C 0.51041 0.08607 0.41795 0.0
H2024 H 0.49374 0.99915 0.38844 0.0
C2025 C 0.53695 0.09075 0.43822 0.0
C2026 C 0.54716 0.06234 0.44026 0.0
H2027 H 0.50169 0.10781 0.41779 0.0
H2028 H 0.5474 0.11547 0.45511 0.0
C2029 C 0.53328 0.03029 0.41927 0.0
C2030 C 0.81962 0.79298 0.14304 0.0
C2031 C 0.81188 0.76015 0.12132 0.0
H2032 H 0.83019 0.82223 0.19385 0.0
C2033 C 0.80652 0.73139 0.13516 0.0
H2034 H 0.82384 0.8157 0.13326 0.0
C2035 C 0.80954 0.7351 0.16947 0.0
C2036 C 0.81801 0.76768 0.19131 0.0
H2037 H 0.79977 0.70573 0.11934 0.0
H2038 H 0.80564 0.71224 0.17906 0.0
C2039 C 0.82294 0.79672 0.17773 0.0
C2040 C 0.15445 1.01534 0.64933 0.0
C2041 C 0.14289 0.02836 0.6778 0.0
H2042 H 0.15455 1.008 0.59649 0.0
C2043 C 0.11978 0.04393 0.6706 0.0
H2044 H 0.1721 1.0033 0.65224 0.0
C2045 C 0.10912 0.04635 0.63784 0.0
C2046 C 0.1213 0.03421 0.60955 0.0
H2047 H 0.10967 0.05482 0.69078 0.0
H2048 H 0.0914 0.05827 0.63492 0.0
C2049 C 0.14415 0.01834 0.61666 0.0
C2050 C 0.89819 0.37714 0.4265 0.0
C2051 C 0.87575 0.38884 0.44093 0.0
H2052 H 0.90851 0.34533 0.38436 0.0
C2053 C 0.846 0.37452 0.42573 0.0
H2054 H 0.92132 0.3878 0.43769 0.0
C2055 C 0.8389 0.35036 0.39593 0.0
C2056 C 0.86121 0.33963 0.38084 0.0
H2057 H 0.82816 0.38317 0.43591 0.0
H2058 H 0.81625 0.34243 0.38347 0.0
C2059 C 0.89092 0.35277 0.39631 0.0
C2060 C 0.50624 0.05974 0.24849 0.0
C2061 C 0.48801 0.03337 0.25941 0.0
H2062 H 0.52872 0.07169 0.20864 0.0
C2063 C 0.47035 1.00346 0.23703 0.0
H2064 H 0.51887 0.0835 0.26566 0.0
C2065 C 0.47589 0.99663 0.20484 0.0
C2066 C 0.49897 0.01992 0.19577 0.0
H2067 H 0.45513 0.98365 0.24544 0.0
H2068 H 0.46569 0.9713 0.18897 0.0
C2069 C 0.51142 0.05311 0.21598 0.0
C2070 C 0.82842 0.7296 0.91025 0.0
C2071 C 0.82425 0.75602 0.93496 0.0
H2072 H 0.83492 0.71351 0.85967 0.0
C2073 C 0.8266 0.78812 0.92766 0.0
H2074 H 0.82648 0.7044 0.9148 0.0
C2075 C 0.83198 0.79339 0.89642 0.0
C2076 C 0.835 0.76675 0.87129 0.0
H2077 H 0.8233 0.80899 0.94581 0.0
H2078 H 0.83163 0.8178 0.89131 0.0
C2079 C 0.83325 0.73475 0.87861 0.0
C2080 C 0.86927 0.06187 0.04112 0.0
C2081 C 0.85897 0.08234 0.02257 0.0
H2082 H 0.89721 0.02845 0.04336 0.0
C2083 C 0.87208 0.0896 0.99517 0.0
H2084 H 0.85941 0.05633 0.0625 0.0
C2085 C 0.8934 0.07399 0.98445 0.0
C2086 C 0.90166 0.05086 1.00098 0.0
H2087 H 0.8648 0.10613 0.98117 0.0
H2088 H 0.90235 0.0786 0.96231 0.0
C2089 C 0.89065 0.04602 0.03023 0.0
C2090 C 0.46704 0.4583 0.07925 0.0
C2091 C 0.4418 0.45187 0.05537 0.0
H2092 H 0.51346 0.48511 0.09557 0.0
C2093 C 0.44409 0.47003 0.03029 0.0
H2094 H 0.46602 0.44456 0.09874 0.0
C2095 C 0.47138 0.49263 0.02813 0.0
C2096 C 0.49676 0.49824 0.05145 0.0
H2097 H 0.42527 0.46517 0.01116 0.0
H2098 H 0.47289 0.50485 1.00753 0.0
C2099 C 0.49416 0.48152 0.0775 0.0
C2100 C 0.40453 0.68484 0.75697 0.0
C2101 C 0.40548 0.67447 0.78737 0.0
H2102 H 0.39097 0.71717 0.72712 0.0
C2103 C 0.39045 0.69179 0.81071 0.0
H2104 H 0.41517 0.67329 0.73769 0.0
C2105 C 0.3761 0.7174 0.80454 0.0
C2106 C 0.37548 0.728 0.77434 0.0
H2107 H 0.38986 0.68573 0.83466 0.0
H2108 H 0.36586 0.72936 0.824 0.0
C2109 C 0.39022 0.71058 0.75085 0.0
C2110 C 0.18904 0.58269 0.51518 0.0
C2111 C 0.20976 0.59793 0.5439 0.0
H2112 H 0.14598 0.57717 0.49039 0.0
C2113 C 0.2013 0.61678 0.57143 0.0
H2114 H 0.19568 0.57042 0.49277 0.0
C2115 C 0.17247 0.62045 0.57001 0.0
C2116 C 0.15153 0.60445 0.54153 0.0
H2117 H 0.21772 0.63125 0.59287 0.0
H2118 H 0.16723 0.6373 0.5903 0.0
C2119 C 0.16063 0.58692 0.51374 0.0
C2120 C 0.79246 0.98425 0.74809 0.0
C2121 C 0.79863 0.01957 0.75154 0.0
H2122 H 0.80558 0.94457 0.76456 0.0
C2123 C 0.82612 0.04179 0.76798 0.0
H2124 H 0.77115 0.96689 0.73564 0.0
C2125 C 0.84624 0.02905 0.78425 0.0
C2126 C 0.83868 0.99418 0.78402 0.0
H2127 H 0.83106 0.06922 0.77027 0.0
H2128 H 0.86658 0.04663 0.79887 0.0
C2129 C 0.8123 0.97159 0.7646 0.0
C2130 C 0.76684 0.93899 0.52769 0.0
C2131 C 0.79615 0.96089 0.53528 0.0
H2132 H 0.72083 0.93369 0.51098 0.0
C2133 C 0.80075 0.99569 0.53517 0.0
H2134 H 0.76249 0.91204 0.52755 0.0
C2135 C 0.77695 1.00791 0.52584 0.0
C2136 C 0.74804 0.98571 0.51671 0.0
H2137 H 0.82292 1.01332 0.54113 0.0
H2138 H 0.78127 0.03447 0.52444 0.0
C2139 C 0.74296 0.95133 0.51842 0.0
C2140 C 0.38413 0.46488 0.78157 0.0
C2141 C 0.40841 0.46878 0.7637 0.0
H2142 H 0.34866 0.42991 0.79763 0.0
C2143 C 0.41334 0.43806 0.74641 0.0
H2144 H 0.3797 0.48741 0.79592 0.0
C2145 C 0.39606 0.40529 0.74795 0.0
C2146 C 0.37243 0.40116 0.76642 0.0
H2147 H 0.43154 0.43928 0.73222 0.0
H2148 H 0.4016 0.38291 0.73485 0.0
C2149 C 0.36634 0.43165 0.7827 0.0
C2150 C 0.30064 0.65766 0.26473 0.0
C2151 C 0.27485 0.64779 0.24127 0.0
H2152 H 0.3319 0.70017 0.29954 0.0
C2153 C 0.26297 0.67226 0.23097 0.0
H2154 H 0.30935 0.63867 0.27341 0.0
C2155 C 0.27377 0.70601 0.24777 0.0
C2156 C 0.29868 0.71602 0.27205 0.0
H2157 H 0.24265 0.66464 0.21329 0.0
H2158 H 0.26201 0.72416 0.24262 0.0
C2159 C 0.31281 0.69226 0.28016 0.0
C2160 C 0.54379 0.67765 0.52122 0.0
C2161 C 0.54216 0.68578 0.48967 0.0
H2162 H 0.5531 0.6432 0.55123 0.0
C2163 C 0.54989 0.66288 0.46428 0.0
H2164 H 0.53822 0.69412 0.54181 0.0
C2165 C 0.55777 0.63323 0.4696 0.0
C2166 C 0.55954 0.62498 0.5009 0.0
H2167 H 0.5491 0.66733 0.43961 0.0
H2168 H 0.56246 0.61635 0.44864 0.0
C2169 C 0.55263 0.64825 0.52681 0.0
C2170 C 0.71083 0.31827 0.70192 0.0
C2171 C 0.71824 0.33605 0.67696 0.0
H2172 H 0.72604 0.29953 0.743 0.0
C2173 C 0.74889 0.35 0.67654 0.0
H2174 H 0.68771 0.30634 0.70292 0.0
C2175 C 0.77109 0.3461 0.69981 0.0
C2176 C 0.76365 0.32801 0.72452 0.0
H2177 H 0.75582 0.36395 0.65803 0.0
H2178 H 0.79427 0.35725 0.69836 0.0
C2179 C 0.733 0.31433 0.72512 0.0
C2180 C 0.04365 0.40282 0.01916 0.0
C2181 C 0.04338 0.37927 0.98928 0.0
H2182 H 0.05165 0.4558 0.04505 0.0
C2183 C 0.04923 0.39318 0.96166 0.0
H2184 H 0.03909 0.39353 0.04108 0.0
C2185 C 0.05519 0.42869 0.96365 0.0
C2186 C 0.0561 0.45243 0.99344 0.0
H2187 H 0.04892 0.37644 0.93802 0.0
H2188 H 0.05962 0.43772 0.94156 0.0
C2189 C 0.05043 0.43879 0.02135 0.0
C2190 C 0.04023 0.79146 0.16736 0.0
C2191 C 0.05123 0.82685 0.17004 0.0
H2192 H 0.00974 0.75156 0.18228 0.0
C2193 C 0.03745 0.84934 0.18812 0.0
H2194 H 0.04982 0.77338 0.15284 0.0
C2195 C 0.01437 0.83671 0.20512 0.0
C2196 C 1.00479 0.80148 0.20405 0.0
H2197 H 0.04531 0.87672 0.19027 0.0
H2198 H 1.00508 0.85459 0.22036 0.0
C2199 C 0.01721 0.77892 0.18409 0.0
C2200 C 0.53193 0.33524 0.10273 0.0
C2201 C 0.51649 0.3009 0.08807 0.0
H2202 H 0.56019 0.382 0.09629 0.0
C2203 C 0.51676 0.28758 0.05444 0.0
H2204 H 0.53204 0.34606 0.12864 0.0
C2205 C 0.53325 0.30795 0.03606 0.0
C2206 C 0.5492 0.34207 0.0509 0.0
H2207 H 0.50524 0.26105 0.04266 0.0
H2208 H 0.5336 0.29706 0.0103 0.0
C2209 C 0.54802 0.35572 0.08425 0.0
C2210 C 0.05514 0.31793 0.32275 0.0
C2211 C 0.07902 0.34543 0.34048 0.0
H2212 H 0.01289 0.30275 0.29138 0.0
C2213 C 0.07909 0.37917 0.33993 0.0
H2214 H 0.05464 0.29181 0.32335 0.0
C2215 C 0.05529 0.38545 0.32234 0.0
C2216 C 0.03116 0.35808 0.30485 0.0
H2217 H 0.09686 0.40081 0.35451 0.0
H2218 H 0.05517 0.41174 0.32346 0.0
C2219 C 0.03137 0.32421 0.30478 0.0
C2220 C 1.00247 0.66414 0.57184 0.0
C2221 C 0.99267 0.65595 0.60066 0.0
H2222 H 0.02903 0.65459 0.53424 0.0
C2223 C 1.00094 0.62981 0.61244 0.0
H2224 H 0.99711 0.68498 0.56293 0.0
C2225 C 0.02042 0.61398 0.59722 0.0
C2226 C 0.03089 0.62256 0.56884 0.0
H2227 H 0.99452 0.62362 0.63518 0.0
H2228 H 0.02723 0.595 0.60792 0.0
C2229 C 0.0211 0.64713 0.55574 0.0
C2230 C 0.74894 0.87602 0.82465 0.0
C2231 C 0.722 0.85431 0.82855 0.0
H2232 H 0.7919 0.87906 0.81097 0.0
C2233 C 0.71496 0.81915 0.81383 0.0
H2234 H 0.7546 0.90342 0.83494 0.0
C2235 C 0.73604 0.80537 0.79925 0.0
C2236 C 0.76496 0.82607 0.80072 0.0
H2237 H 0.69371 0.80198 0.8152 0.0
H2238 H 0.7299 0.77837 0.7893 0.0
C2239 C 0.77028 0.86195 0.81085 0.0
C2240 C 0.53625 0.59941 0.67638 0.0
C2241 C 0.51437 0.57139 0.68235 0.0
H2242 H 0.56584 0.61975 0.64375 0.0
C2243 C 0.50631 0.54152 0.65591 0.0
H2244 H 0.54437 0.62279 0.69566 0.0
C2245 C 0.51864 0.53976 0.62563 0.0
C2246 C 0.54101 0.56731 0.61979 0.0
H2247 H 0.4906 0.51863 0.65893 0.0
H2248 H 0.51111 0.51585 0.60701 0.0
C2249 C 0.54916 0.5974 0.6462 0.0
C2250 C 0.76621 0.15578 0.93225 0.0
C2251 C 0.78742 0.1674 0.96113 0.0
H2252 H 0.74074 0.1701 0.89517 0.0
C2253 C 0.80437 0.20195 0.97025 0.0
H2254 H 0.75291 0.12923 0.92469 0.0
C2255 C 0.79731 0.22531 0.95323 0.0
C2256 C 0.77359 0.21405 0.92691 0.0
H2257 H 0.82076 0.21157 0.99246 0.0
H2258 H 0.80856 0.25241 0.96236 0.0
C2259 C 0.75915 0.17905 0.91542 0.0
C2260 C 0.14928 0.56365 0.15265 0.0
C2261 C 0.16033 0.53491 0.14945 0.0
H2262 H 0.11634 0.58455 0.13366 0.0
C2263 C 0.1432 0.50297 0.1302 0.0
H2264 H 0.16179 0.58858 0.16763 0.0
C2265 C 0.11711 0.50097 0.11043 0.0
C2266 C 0.10852 0.53086 0.11068 0.0
H2267 H 0.15137 0.48058 0.12808 0.0
H2268 H 0.10598 0.47744 0.09207 0.0
C2269 C 0.12294 0.56133 0.13377 0.0
C2270 C 0.82836 0.85021 0.42637 0.0
C2271 C 0.84462 0.83164 0.44125 0.0
H2272 H 0.81372 0.86376 0.38256 0.0
C2273 C 0.85612 0.80842 0.42029 0.0
H2274 H 0.81852 0.86777 0.44121 0.0
C2275 C 0.85226 0.80502 0.38563 0.0
C2276 C 0.83846 0.82622 0.37133 0.0
H2277 H 0.86844 0.79321 0.43066 0.0
H2278 H 0.86032 0.78617 0.37027 0.0
C2279 C 0.82575 0.84795 0.39233 0.0
C2280 C 0.53962 0.55162 0.8857 0.0
C2281 C 0.51868 0.57016 0.87897 0.0
H2282 H 0.56533 0.53369 0.92073 0.0
C2283 C 0.50837 0.58499 0.90761 0.0
H2284 H 0.54871 0.53926 0.86536 0.0
C2285 C 0.51763 0.58069 0.94006 0.0
C2286 C 0.53811 0.5616 0.94662 0.0
H2287 H 0.49257 0.59959 0.90504 0.0
H2288 H 0.50833 0.59261 0.96045 0.0
C2289 C 0.54927 0.54788 0.91819 0.0
C2290 C 0.78006 0.24284 0.12902 0.0
C2291 C 0.79651 0.21915 0.121 0.0
H2292 H 0.7738 0.28324 0.16667 0.0
C2293 C 0.82118 0.22045 0.14348 0.0
H2294 H 0.76098 0.24243 0.11211 0.0
C2295 C 0.82837 0.24353 0.17389 0.0
C2296 C 0.81134 0.26605 0.18246 0.0
H2297 H 0.83442 0.20269 0.13829 0.0
H2298 H 0.84642 0.24248 0.19137 0.0
C2299 C 0.78743 0.26624 0.15989 0.0
C2300 C 0.16906 0.54834 0.31381 0.0
C2301 C 0.19213 0.5738 0.30734 0.0
H2302 H 0.1307 0.53828 0.33804 0.0
C2303 C 0.19863 0.60784 0.32578 0.0
H2304 H 0.1637 0.52206 0.29958 0.0
C2305 C 0.17935 0.61726 0.34663 0.0
C2306 C 0.15396 0.5925 0.34959 0.0
H2307 H 0.2166 0.62775 0.3211 0.0
H2308 H 0.18328 0.644 0.35892 0.0
C2309 C 0.1499 0.55773 0.33502 0.0
C2310 C 0.83145 0.85925 0.65183 0.0
C2311 C 0.83571 0.83458 0.62547 0.0
H2312 H 0.8227 0.87079 0.70194 0.0
C2313 C 0.83125 0.80082 0.62938 0.0
H2314 H 0.83488 0.88557 0.64991 0.0
C2315 C 0.82348 0.79213 0.65887 0.0
C2316 C 0.82051 0.81705 0.68584 0.0
H2317 H 0.83427 0.7811 0.60973 0.0
H2318 H 0.82141 0.76611 0.66108 0.0
C2319 C 0.82438 0.85073 0.68172 0.0
C2320 C 0.78074 0.5371 0.49854 0.0
C2321 C 0.78949 0.50885 0.50505 0.0
H2322 H 0.7557 0.57282 0.51293 0.0
C2323 C 0.77563 0.49137 0.52748 0.0
H2324 H 0.79086 0.55088 0.48121 0.0
C2325 C 0.75593 0.50399 0.54563 0.0
C2326 C 0.74935 0.53407 0.54147 0.0
H2327 H 0.78145 0.46913 0.53272 0.0
H2328 H 0.747 0.49121 0.5642 0.0
C2329 C 0.76067 0.54963 0.51666 0.0
C2330 C 0.21232 0.1279 0.52483 0.0
C2331 C 0.21327 0.14766 0.50115 0.0
H2332 H 0.18516 0.0905 0.54623 0.0
C2333 C 0.18782 0.14135 0.47773 0.0
H2334 H 0.23153 0.13253 0.54339 0.0
C2335 C 0.16153 0.11646 0.47875 0.0
C2336 C 0.16019 0.0982 0.50366 0.0
H2337 H 0.18807 0.15624 0.45921 0.0
H2338 H 0.14179 0.11294 0.46133 0.0
C2339 C 0.18588 0.1038 0.5264 0.0
C2340 C 0.27012 0.91989 0.81658 0.0
C2341 C 0.26155 0.93111 0.78804 0.0
H2342 H 0.28973 0.88718 0.83967 0.0
C2343 C 0.27023 0.91378 0.75875 0.0
H2344 H 0.26479 0.93123 0.84013 0.0
C2345 C 0.28603 0.88743 0.75868 0.0
C2346 C 0.29412 0.87651 0.78787 0.0
H2347 H 0.26517 0.92072 0.73572 0.0
H2348 H 0.29135 0.87523 0.73547 0.0
C2349 C 0.28522 0.89395 0.81642 0.0
C2350 C 0.45984 1.00752 0.98026 0.0
C2351 C 0.45058 0.02115 0.00972 0.0
H2352 H 0.49347 0.98708 0.9606 0.0
C2353 C 0.47199 0.03996 0.03697 0.0
H2354 H 0.44343 0.99306 0.95879 0.0
C2355 C 0.50065 0.03671 0.03769 0.0
C2356 C 0.5092 0.01839 0.0099 0.0
H2357 H 0.46537 0.05097 0.05993 0.0
H2358 H 0.51562 0.04701 0.06071 0.0
C2359 C 0.48842 1.00354 0.98128 0.0
C2360 C 0.87426 0.62303 0.81859 0.0
C2361 C 0.8974 0.61049 0.80736 0.0
H2362 H 0.83366 0.63459 0.80497 0.0
C2363 C 0.89656 0.59804 0.77332 0.0
H2364 H 0.87411 0.63189 0.8448 0.0
C2365 C 0.87349 0.59912 0.75077 0.0
C2366 C 0.85089 0.61284 0.76174 0.0
H2367 H 0.91354 0.58701 0.76396 0.0
H2368 H 0.87399 0.59027 0.72466 0.0
C2369 C 0.85114 0.62432 0.79588 0.0
C2370 C 0.90457 0.65827 0.0115 0.0
C2371 C 0.8749 0.65171 0.0171 0.0
H2372 H 0.94628 0.64757 0.02057 0.0
C2373 C 0.86375 0.62612 0.03378 0.0
H2374 H 0.91379 0.67781 0.99869 0.0
C2375 C 0.88221 0.60853 0.04598 0.0
C2376 C 0.91226 0.61622 0.04189 0.0
H2377 H 0.84088 0.6202 0.03821 0.0
H2378 H 0.873 0.58925 0.05907 0.0
C2379 C 0.92314 0.64079 0.02393 0.0
C2380 C 0.26153 0.13928 0.76021 0.0
C2381 C 0.25752 0.12896 0.79005 0.0
H2382 H 0.27986 0.1795 0.73626 0.0
C2383 C 0.27118 0.15393 0.81963 0.0
H2384 H 0.25069 0.12158 0.7369 0.0
C2385 C 0.28785 0.18775 0.81931 0.0
C2386 C 0.29081 0.19831 0.78942 0.0
H2387 H 0.26794 0.14773 0.84321 0.0
H2388 H 0.29737 0.20612 0.84262 0.0
C2389 C 0.27786 0.17306 0.7599 0.0
C2390 C 0.40052 0.93462 0.32424 0.0
C2391 C 0.38854 0.95863 0.31284 0.0
H2392 H 0.39723 0.882 0.31989 0.0
C2393 C 0.36035 0.94815 0.29347 0.0
H2394 H 0.4222 0.94205 0.33937 0.0
C2395 C 0.34508 0.91328 0.28422 0.0
C2396 C 0.35815 0.88953 0.29456 0.0
H2397 H 0.3511 0.96639 0.28407 0.0
H2398 H 0.32399 0.9047 0.26777 0.0
C2399 C 0.38595 0.90029 0.31405 0.0
C2400 C 0.61764 0.44134 0.59679 0.0
C2401 C 0.62337 0.41672 0.5713 0.0
H2402 H 0.60785 0.48969 0.61233 0.0
C2403 C 0.62073 0.42391 0.53932 0.0
H2404 H 0.61924 0.43778 0.62179 0.0
C2405 C 0.61294 0.45395 0.53349 0.0
C2406 C 0.60818 0.47902 0.55952 0.0
H2407 H 0.62463 0.40613 0.51853 0.0
H2408 H 0.61161 0.45803 0.50868 0.0
C2409 C 0.6109 0.4716 0.59121 0.0
C2410 C 0.41556 0.77667 0.40637 0.0
C2411 C 0.43915 0.76526 0.39397 0.0
H2412 H 0.37573 0.79178 0.39635 0.0
C2413 C 0.43854 0.7591 0.35945 0.0
H2414 H 0.41503 0.78221 0.43273 0.0
C2415 C 0.41571 0.76457 0.33841 0.0
C2416 C 0.39244 0.7768 0.35063 0.0
H2417 H 0.45606 0.75042 0.34853 0.0
H2418 H 0.4169 0.75948 0.31257 0.0
C2419 C 0.39282 0.78235 0.38525 0.0
C2420 C 0.11506 0.69421 0.03463 0.0
C2421 C 0.1159 0.71706 0.06521 0.0
H2422 H 0.10427 0.64138 1.00653 0.0
C2423 C 0.10818 0.70189 0.09166 0.0
H2424 H 0.1208 0.7044 0.01348 0.0
C2425 C 0.10017 0.66599 0.08806 0.0
C2426 C 0.09873 0.64293 0.05763 0.0
H2427 H 0.10874 0.71797 0.11576 0.0
H2428 H 0.09467 0.65617 0.10949 0.0
C2429 C 0.10594 0.6578 0.03072 0.0
C2430 C 0.14012 0.31722 0.91113 0.0
C2431 C 0.1132 0.29111 0.89927 0.0
H2432 H 0.1822 0.34404 0.90009 0.0
C2433 C 0.10971 0.26947 0.86775 0.0
H2434 H 0.14352 0.33439 0.93532 0.0
C2435 C 0.13203 0.27479 0.84792 0.0
C2436 C 0.15824 0.30179 0.85921 0.0
H2437 H 0.08945 0.24889 0.85808 0.0
H2438 H 0.12832 0.25866 0.82316 0.0
C2439 C 0.16239 0.32263 0.89118 0.0
C2440 C 0.65367 0.76508 0.97304 0.0
C2441 C 0.64612 0.79413 0.96743 0.0
H2442 H 0.6468 0.72565 0.99949 0.0
C2443 C 0.62673 0.80719 0.98641 0.0
H2444 H 0.66839 0.7544 0.95845 0.0
C2445 C 0.61246 0.78945 1.00798 0.0
C2446 C 0.61818 0.75881 0.01226 0.0
H2447 H 0.62031 0.82944 0.98222 0.0
H2448 H 0.59552 0.79883 0.01937 0.0
C2449 C 0.64043 0.74808 0.99593 0.0
C2450 C 0.10304 0.76628 0.73396 0.0
C2451 C 0.08364 0.73557 0.71438 0.0
H2452 H 0.14507 0.78963 0.76579 0.0
C2453 C 0.09314 0.70573 0.70814 0.0
H2454 H 0.09618 0.7896 0.73882 0.0
C2455 C 0.12066 0.70579 0.72336 0.0
C2456 C 0.13903 0.73569 0.74489 0.0
H2457 H 0.07882 0.68194 0.69239 0.0
H2458 H 0.12715 0.6822 0.71934 0.0
C2459 C 0.13075 0.76629 0.74934 0.0
C2460 C 0.16438 0.46532 0.48713 0.0
C2461 C 0.16359 0.4613 0.45289 0.0
H2462 H 0.14815 0.4872 0.52993 0.0
C2463 C 0.15243 0.48334 0.4373 0.0
H2464 H 0.17291 0.44852 0.49969 0.0
C2465 C 0.13663 0.50373 0.45397 0.0
C2466 C 0.13286 0.50339 0.48689 0.0
H2467 H 0.15175 0.48073 0.41088 0.0
H2468 H 0.12583 0.51793 0.44026 0.0
C2469 C 0.14908 0.48641 0.50412 0.0
C2470 C 0.43098 0.25831 0.2583 0.0
C2471 C 0.44102 0.26503 0.22906 0.0
H2472 H 0.39753 0.26093 0.28944 0.0
C2473 C 0.42779 0.28414 0.21136 0.0
H2474 H 0.44089 0.24356 0.27229 0.0
C2475 C 0.40274 0.29295 0.22056 0.0
C2476 C 0.39174 0.2846 0.2486 0.0
H2477 H 0.43505 0.28963 0.18871 0.0
H2478 H 0.39083 0.3043 0.20458 0.0
C2479 C 0.40653 0.26851 0.2683 0.0
C2480 C 0.62978 0.50057 0.38261 0.0
C2481 C 0.65145 0.52827 0.37573 0.0
H2482 H 0.60087 0.48107 0.41631 0.0
C2483 C 0.66001 0.55841 0.40195 0.0
H2484 H 0.62117 0.47704 0.36359 0.0
C2485 C 0.6485 0.56069 0.43279 0.0
C2486 C 0.62643 0.53343 0.4396 0.0
H2487 H 0.6755 0.58115 0.39831 0.0
H2488 H 0.65639 0.58481 0.45109 0.0
C2489 C 0.61763 0.50312 0.41334 0.0
C2490 C 0.34778 0.90087 0.11344 0.0
C2491 C 0.36568 0.93426 0.11626 0.0
H2492 H 0.34506 0.85475 0.1298 0.0
C2493 C 0.38534 0.95175 0.14547 0.0
H2494 H 0.33233 0.8872 0.09098 0.0
C2495 C 0.39288 0.93321 0.16744 0.0
C2496 C 0.38005 0.89775 0.16019 0.0
H2497 H 0.399 0.97775 0.14802 0.0
H2498 H 0.41144 0.94547 0.18723 0.0
C2499 C 0.35538 0.88219 0.13532 0.0
C2500 C 1.00037 0.51395 0.89713 0.0
C2501 C 0.9863 0.53979 0.896 0.0
H2502 H 0.03696 0.50066 0.91956 0.0
C2503 C 1.0011 0.57383 0.91283 0.0
H2504 H 0.98935 0.48744 0.88485 0.0
C2505 C 0.02826 0.58119 0.93307 0.0
C2506 C 0.04075 0.55465 0.93626 0.0
H2507 H 0.99102 0.59441 0.91184 0.0
H2508 H 0.03772 0.60667 0.94895 0.0
C2509 C 0.02788 0.52158 0.91647 0.0
C2510 C 0.30873 0.2919 0.6403 0.0
C2511 C 0.31528 0.26472 0.61863 0.0
H2512 H 0.30928 0.31742 0.69097 0.0
C2513 C 0.32687 0.24192 0.63281 0.0
H2514 H 0.3 0.31024 0.63044 0.0
C2515 C 0.33004 0.24465 0.66694 0.0
C2516 C 0.32278 0.27101 0.68876 0.0
H2517 H 0.33252 0.22084 0.61738 0.0
H2518 H 0.33828 0.22565 0.67619 0.0
C2519 C 0.31334 0.2956 0.67503 0.0
C2520 C 0.61844 0.54444 0.1708 0.0
C2521 C 0.64214 0.52955 0.17762 0.0
H2522 H 0.58981 0.55933 0.13578 0.0
C2523 C 0.65447 0.51843 0.1491 0.0
H2524 H 0.60773 0.55393 0.19105 0.0
C2525 C 0.64429 0.52248 0.11678 0.0
C2526 C 0.62079 0.53761 0.11006 0.0
H2527 H 0.67266 0.50713 0.1517 0.0
H2528 H 0.65531 0.51356 0.09659 0.0
C2529 C 0.60795 0.54798 0.13839 0.0
C2530 C 0.34386 0.88167 0.91662 0.0
C2531 C 0.35876 0.87214 0.94221 0.0
H2532 H 0.33112 0.87273 0.86464 0.0
C2533 C 0.37023 0.84372 0.93482 0.0
H2534 H 0.33489 0.90347 0.92146 0.0
C2535 C 0.36771 0.82594 0.90211 0.0
C2536 C 0.35439 0.83705 0.87676 0.0
H2537 H 0.38199 0.83598 0.95413 0.0
H2538 H 0.37704 0.80448 0.89654 0.0
C2539 C 0.34201 0.86444 0.88411 0.0
C2540 C 0.99583 0.55739 0.74922 0.0
C2541 C 0.98401 0.53015 0.76345 0.0
H2542 H 0.01578 0.57083 0.70816 0.0
C2543 C 0.97151 0.49706 0.74302 0.0
H2544 H 1.00502 0.58318 0.76451 0.0
C2545 C 0.97775 0.48992 0.71093 0.0
C2546 C 0.99631 0.51595 0.69961 0.0
H2547 H 0.96178 0.47568 0.7534 0.0
H2548 H 0.97255 0.46339 0.69739 0.0
C2549 C 1.00202 0.55026 0.71697 0.0
C2550 C 0.32117 0.29256 0.42708 0.0
C2551 C 0.32078 0.2604 0.43328 0.0
H2552 H 0.32637 0.3248 0.39284 0.0
C2553 C 0.32749 0.23617 0.40837 0.0
H2554 H 0.31619 0.3119 0.44554 0.0
C2555 C 0.33288 0.24339 0.37756 0.0
C2556 C 0.33251 0.27535 0.37119 0.0
H2557 H 0.32731 0.21106 0.41214 0.0
H2558 H 0.33677 0.22371 0.35851 0.0
C2559 C 0.32724 0.30004 0.39674 0.0
C2560 C 0.38234 0.60055 0.52361 0.0
C2561 C 0.36368 0.58231 0.54216 0.0
H2562 H 0.41612 0.59981 0.4926 0.0
C2563 C 0.36835 0.55204 0.5486 0.0
H2564 H 0.37866 0.6236 0.51779 0.0
C2565 C 0.39013 0.53889 0.53478 0.0
C2566 C 0.40684 0.55547 0.51376 0.0
H2567 H 0.35394 0.53753 0.56259 0.0
H2568 H 0.3923 0.51444 0.53836 0.0
C2569 C 0.4036 0.58695 0.50912 0.0
C2570 C 0.97239 0.94688 0.57339 0.0
C2571 C 0.94514 0.95012 0.55935 0.0
H2572 H 0.02009 0.96563 0.58118 0.0
C2573 C 0.94569 0.97807 0.54483 0.0
H2574 H 0.97284 0.92582 0.58488 0.0
C2575 C 0.97294 1.00107 0.54295 0.0
C2576 C 1.00008 0.99664 0.55568 0.0
H2577 H 0.92522 0.98105 0.53329 0.0
H2578 H 0.97286 0.02115 0.52995 0.0
C2579 C 0.99948 0.96974 0.57143 0.0
C2580 C 0.89166 0.19278 0.31322 0.0
C2581 C 0.90537 0.17446 0.28907 0.0
H2582 H 0.86783 0.23096 0.3274 0.0
C2583 C 0.90265 0.18361 0.25815 0.0
H2584 H 0.89245 0.1877 0.33763 0.0
C2585 C 0.88801 0.2092 0.25231 0.0
C2586 C 0.87464 0.22765 0.27662 0.0
H2587 H 0.91216 0.17125 0.23822 0.0
H2588 H 0.88741 0.21485 0.22812 0.0
C2589 C 0.87696 0.2182 0.30733 0.0
C2590 C 0.70203 0.10898 0.06635 0.0
C2591 C 0.70804 0.08992 0.03712 0.0
H2592 H 0.67077 0.13229 0.08892 0.0
C2593 C 0.68628 0.0782 0.00906 0.0
H2594 H 0.71914 0.12014 0.08782 0.0
C2595 C 0.65972 0.08654 0.00956 0.0
C2596 C 0.65278 0.10413 0.03872 0.0
H2597 H 0.69074 0.06474 0.98582 0.0
H2598 H 0.64439 0.07856 0.98684 0.0
C2599 C 0.6745 0.11626 0.06697 0.0
C2600 C 0.2874 0.47851 0.24767 0.0
C2601 C 0.29775 0.51348 0.24864 0.0
H2602 H 0.29112 0.43908 0.27192 0.0
C2603 C 0.3247 0.53357 0.26827 0.0
H2604 H 0.26668 0.46258 0.23246 0.0
C2605 C 0.33853 0.52027 0.29105 0.0
C2606 C 0.32556 0.48683 0.29367 0.0
H2607 H 0.33317 0.56053 0.26863 0.0
H2608 H 0.35801 0.53675 0.30808 0.0
C2609 C 0.30118 0.46523 0.27047 0.0
C2610 C 0.2941 0.49313 0.04671 0.0
C2611 C 0.2916 0.45782 0.03833 0.0
H2612 H 0.27376 0.53291 0.0411 0.0
C2613 C 0.26469 0.43503 0.0203 0.0
H2614 H 0.31443 0.51134 0.06066 0.0
C2615 C 0.24151 0.44745 0.00931 0.0
C2616 C 0.24473 0.48279 0.01639 0.0
H2617 H 0.26188 0.40765 0.0136 0.0
H2618 H 0.22155 0.42959 0.99414 0.0
C2619 C 0.27085 0.5055 0.03573 0.0
C2620 C 0.88176 0.96118 0.26706 0.0
C2621 C 0.91306 0.96841 0.26884 0.0
H2622 H 0.83987 0.92355 0.26611 0.0
C2623 C 0.925 0.94067 0.27097 0.0
H2624 H 0.87124 0.98128 0.26549 0.0
C2625 C 0.90721 0.90789 0.2714 0.0
C2626 C 0.87606 0.90022 0.26962 0.0
H2627 H 0.94874 0.94415 0.27276 0.0
H2628 H 0.91837 0.88843 0.27347 0.0
C2629 C 0.86361 0.9277 0.26735 0.0
C2630 C 0.76534 0.1744 0.73274 0.0
C2631 C 0.77647 0.14964 0.74349 0.0
H2632 H 0.76332 0.22584 0.74541 0.0
C2633 C 0.80135 0.15935 0.76825 0.0
H2634 H 0.74565 0.16701 0.71416 0.0
C2635 C 0.81335 0.19397 0.7841 0.0
C2636 C 0.79966 0.21794 0.7755 0.0
H2637 H 0.80944 0.14021 0.77746 0.0
H2638 H 0.83183 0.2017 0.80418 0.0
C2639 C 0.77529 0.20789 0.75052 0.0
loop_
_geom_bond_atom_site_label_1
_geom_bond_atom_site_label_2
_geom_bond_distance
_geom_bond_site_symmetry_2
_ccdc_geom_bond_type
Zn0 O3 2.031 . S
Zn0 O5 2.049 . S
Zn0 O10 2.067 . S
Zn1 O2 1.962 . S
Zn1 O4 1.986 . S
Zn1 O6 1.996 . S
Zn1 O9 1.943 . S
O2 Zn1 1.962 . S
O2 C7 1.254 . S
O3 Zn0 2.031 . S
O3 C7 1.269 . S
O4 Zn1 1.986 . S
O4 C11 1.262 . S
O5 Zn0 2.049 . S
O5 C13 1.260 . S
O6 Zn1 1.996 . S
O6 C13 1.257 . S
C7 O2 1.254 . S
C7 O3 1.269 . S
C8 O9 1.249 . S
C8 O10 1.270 . S
O9 Zn1 1.943 . S
O9 C8 1.249 . S
O10 Zn0 2.067 . S
O10 C8 1.270 . S
C11 O4 1.262 . S
C11 O12 1.232 . S
O12 C11 1.232 . S
C13 O5 1.260 . S
C13 O6 1.257 . S
Zn14 O17 2.031 1_455 S
Zn14 O19 2.049 . S
Zn14 O24 2.067 . S
Zn15 O16 1.943 1_455 S
Zn15 O18 1.994 . S
Zn15 O20 2.011 . S
Zn15 O23 1.947 1_455 S
O16 Zn15 1.943 1_655 S
O16 C21 1.254 . S
O17 Zn14 2.031 1_655 S
O17 C21 1.269 . S
O18 Zn15 1.994 . S
O18 C25 1.262 . S
O19 Zn14 2.049 . S
O19 C27 1.260 . S
O20 Zn15 2.011 . S
O20 C27 1.257 . S
C21 O16 1.254 . S
C21 O17 1.269 . S
C22 O23 1.249 . S
C22 O24 1.270 1_655 S
O23 Zn15 1.947 1_655 S
O23 C22 1.249 . S
O24 Zn14 2.067 . S
O24 C22 1.270 1_455 S
C25 O18 1.262 . S
C25 O26 1.232 1_455 S
O26 C25 1.232 1_655 S
C27 O19 1.260 . S
C27 O20 1.257 . S
Zn28 O31 2.031 . S
Zn28 O33 2.049 . S
Zn28 O38 2.067 . S
Zn29 O30 1.962 . S
Zn29 O32 1.986 . S
Zn29 O34 1.996 . S
Zn29 O37 1.943 . S
O30 Zn29 1.962 . S
O30 C35 1.254 . S
O31 Zn28 2.031 . S
O31 C35 1.269 . S
O32 Zn29 1.986 . S
O32 C39 1.262 . S
O33 Zn28 2.049 . S
O33 C41 1.260 . S
O34 Zn29 1.996 . S
O34 C41 1.257 . S
C35 O30 1.254 . S
C35 O31 1.269 . S
C36 O37 1.249 . S
C36 O38 1.270 . S
O37 Zn29 1.943 . S
O37 C36 1.249 . S
O38 Zn28 2.067 . S
O38 C36 1.270 . S
C39 O32 1.262 . S
C39 O40 1.232 . S
O40 C39 1.232 . S
C41 O33 1.260 . S
C41 O34 1.257 . S
Zn42 O45 2.031 . S
Zn42 O47 2.049 . S
Zn42 O52 2.067 . S
Zn43 O44 1.962 . S
Zn43 O46 1.986 . S
Zn43 O48 1.996 . S
Zn43 O51 1.943 . S
O44 Zn43 1.962 . S
O44 C49 1.254 . S
O45 Zn42 2.031 . S
O45 C49 1.269 . S
O46 Zn43 1.986 . S
O46 C53 1.262 . S
O47 Zn42 2.049 . S
O47 C55 1.260 . S
O48 Zn43 1.996 . S
O48 C55 1.257 . S
C49 O44 1.254 . S
C49 O45 1.269 . S
C50 O51 1.249 . S
C50 O52 1.270 . S
O51 Zn43 1.943 . S
O51 C50 1.249 . S
O52 Zn42 2.067 . S
O52 C50 1.270 . S
C53 O46 1.262 . S
C53 O54 1.232 . S
O54 C53 1.232 . S
C55 O47 1.260 . S
C55 O48 1.257 . S
Zn56 O59 2.031 . S
Zn56 O61 2.049 . S
Zn56 O66 2.067 . S
Zn57 O58 1.962 . S
Zn57 O60 1.986 . S
Zn57 O62 1.996 . S
Zn57 O65 1.943 . S
O58 Zn57 1.962 . S
O58 C63 1.254 . S
O59 Zn56 2.031 . S
O59 C63 1.269 . S
O60 Zn57 1.986 . S
O60 C67 1.262 . S
O61 Zn56 2.049 . S
O61 C69 1.260 . S
O62 Zn57 1.996 . S
O62 C69 1.257 . S
C63 O58 1.254 . S
C63 O59 1.269 . S
C64 O65 1.249 . S
C64 O66 1.270 . S
O65 Zn57 1.943 . S
O65 C64 1.249 . S
O66 Zn56 2.067 . S
O66 C64 1.270 . S
C67 O60 1.262 . S
C67 O68 1.232 . S
O68 C67 1.232 . S
C69 O61 1.260 . S
C69 O62 1.257 . S
Zn70 O73 2.031 . S
Zn70 O75 2.049 . S
Zn70 O80 2.067 . S
Zn71 O72 1.962 . S
Zn71 O74 1.986 . S
Zn71 O76 1.996 . S
Zn71 O79 1.943 . S
O72 Zn71 1.962 . S
O72 C77 1.254 . S
O73 Zn70 2.031 . S
O73 C77 1.269 . S
O74 Zn71 1.986 . S
O74 C81 1.262 . S
O75 Zn70 2.049 . S
O75 C83 1.260 . S
O76 Zn71 1.996 . S
O76 C83 1.257 . S
C77 O72 1.254 . S
C77 O73 1.269 . S
C78 O79 1.249 . S
C78 O80 1.270 . S
O79 Zn71 1.943 . S
O79 C78 1.249 . S
O80 Zn70 2.067 . S
O80 C78 1.270 . S
C81 O74 1.262 . S
C81 O82 1.232 . S
O82 C81 1.232 . S
C83 O75 1.260 . S
C83 O76 1.257 . S
Zn84 O87 2.031 . S
Zn84 O89 2.049 . S
Zn84 O94 2.067 . S
Zn85 O86 1.962 . S
Zn85 O88 1.986 . S
Zn85 O90 1.996 . S
Zn85 O93 1.943 . S
O86 Zn85 1.962 . S
O86 C91 1.254 . S
O87 Zn84 2.031 . S
O87 C91 1.269 . S
O88 Zn85 1.986 . S
O88 C95 1.262 . S
O89 Zn84 2.049 . S
O89 C97 1.260 . S
O90 Zn85 1.996 . S
O90 C97 1.257 . S
C91 O86 1.254 . S
C91 O87 1.269 . S
C92 O93 1.249 . S
C92 O94 1.270 . S
O93 Zn85 1.943 . S
O93 C92 1.249 . S
O94 Zn84 2.067 . S
O94 C92 1.270 . S
C95 O88 1.262 . S
C95 O96 1.232 . S
O96 C95 1.232 . S
C97 O89 1.260 . S
C97 O90 1.257 . S
Zn98 O101 2.031 1_655 S
Zn98 O103 2.049 . S
Zn98 O108 2.067 . S
Zn99 O100 1.962 . S
Zn99 O102 1.986 . S
Zn99 O104 1.996 . S
Zn99 O107 1.943 . S
O100 Zn99 1.962 . S
O100 C105 1.254 . S
O101 Zn98 2.031 1_455 S
O101 C105 1.269 . S
O102 Zn99 1.986 . S
O102 C109 1.262 . S
O103 Zn98 2.049 . S
O103 C111 1.260 1_655 S
O104 Zn99 1.996 . S
O104 C111 1.257 . S
C105 O100 1.254 . S
C105 O101 1.269 . S
C106 O107 1.249 1_655 S
C106 O108 1.270 . S
O107 Zn99 1.943 . S
O107 C106 1.249 1_455 S
O108 Zn98 2.067 . S
O108 C106 1.270 . S
C109 O102 1.262 . S
C109 O110 1.232 . S
O110 C109 1.232 . S
C111 O103 1.260 1_455 S
C111 O104 1.257 . S
Zn112 O115 2.031 . S
Zn112 O117 2.049 . S
Zn112 O122 2.067 . S
Zn113 O114 1.962 . S
Zn113 O116 1.986 . S
Zn113 O118 1.996 . S
Zn113 O121 1.943 1_545 S
O114 Zn113 1.962 . S
O114 C119 1.254 . S
O115 Zn112 2.031 . S
O115 C119 1.269 1_565 S
O116 Zn113 1.986 . S
O116 C123 1.262 . S
O117 Zn112 2.049 . S
O117 C125 1.260 . S
O118 Zn113 1.996 . S
O118 C125 1.257 1_545 S
C119 O114 1.254 . S
C119 O115 1.269 1_545 S
C120 O121 1.249 . S
C120 O122 1.270 . S
O121 Zn113 1.943 1_565 S
O121 C120 1.249 . S
O122 Zn112 2.067 . S
O122 C120 1.270 . S
C123 O116 1.262 . S
C123 O124 1.232 . S
O124 C123 1.232 . S
C125 O117 1.260 . S
C125 O118 1.257 1_565 S
Zn126 O129 2.031 . S
Zn126 O131 2.049 . S
Zn126 O136 2.067 . S
Zn127 O128 1.962 . S
Zn127 O130 1.986 . S
Zn127 O132 1.996 . S
Zn127 O135 1.943 . S
O128 Zn127 1.962 . S
O128 C133 1.254 . S
O129 Zn126 2.031 . S
O129 C133 1.269 . S
O130 Zn127 1.986 . S
O130 C137 1.262 . S
O131 Zn126 2.049 . S
O131 C139 1.260 . S
O132 Zn127 1.996 . S
O132 C139 1.257 . S
C133 O128 1.254 . S
C133 O129 1.269 . S
C134 O135 1.249 . S
C134 O136 1.270 . S
O135 Zn127 1.943 . S
O135 C134 1.249 . S
O136 Zn126 2.067 . S
O136 C134 1.270 . S
C137 O130 1.262 . S
C137 O138 1.232 . S
O138 C137 1.232 . S
C139 O131 1.260 . S
C139 O132 1.257 . S
Zn140 O143 2.031 . S
Zn140 O145 2.049 . S
Zn140 O150 2.067 . S
Zn141 O142 1.962 . S
Zn141 O144 1.986 . S
Zn141 O146 1.996 . S
Zn141 O149 1.943 1_565 S
O142 Zn141 1.962 . S
O142 C147 1.254 1_565 S
O143 Zn140 2.031 . S
O143 C147 1.269 . S
O144 Zn141 1.986 . S
O144 C151 1.262 . S
O145 Zn140 2.049 . S
O145 C153 1.260 1_545 S
O146 Zn141 1.996 . S
O146 C153 1.257 . S
C147 O142 1.254 1_545 S
C147 O143 1.269 . S
C148 O149 1.249 . S
C148 O150 1.270 . S
O149 Zn141 1.943 1_545 S
O149 C148 1.249 . S
O150 Zn140 2.067 . S
O150 C148 1.270 . S
C151 O144 1.262 . S
C151 O152 1.232 . S
O152 C151 1.232 . S
C153 O145 1.260 1_565 S
C153 O146 1.257 . S
Zn154 O157 2.031 1_554 S
Zn154 O159 2.049 . S
Zn154 O164 2.067 . S
Zn155 O156 1.962 1_554 S
Zn155 O158 1.986 . S
Zn155 O160 1.996 . S
Zn155 O163 1.943 . S
O156 Zn155 1.962 1_556 S
O156 C161 1.254 . S
O157 Zn154 2.031 1_556 S
O157 C161 1.269 . S
O158 Zn155 1.986 . S
O158 C165 1.262 . S
O159 Zn154 2.049 . S
O159 C167 1.260 . S
O160 Zn155 1.996 . S
O160 C167 1.257 . S
C161 O156 1.254 . S
C161 O157 1.269 . S
C162 O163 1.249 . S
C162 O164 1.270 . S
O163 Zn155 1.943 . S
O163 C162 1.249 . S
O164 Zn154 2.067 . S
O164 C162 1.270 . S
C165 O158 1.262 . S
C165 O166 1.232 1_554 S
O166 C165 1.232 1_556 S
C167 O159 1.260 . S
C167 O160 1.257 . S
Zn168 O171 2.031 1_554 S
Zn168 O173 2.049 . S
Zn168 O178 2.067 . S
Zn169 O170 1.962 1_554 S
Zn169 O172 1.986 . S
Zn169 O174 1.996 . S
Zn169 O177 1.943 . S
O170 Zn169 1.962 1_556 S
O170 C175 1.254 . S
O171 Zn168 2.031 1_556 S
O171 C175 1.269 . S
O172 Zn169 1.986 . S
O172 C179 1.262 . S
O173 Zn168 2.049 . S
O173 C181 1.260 . S
O174 Zn169 1.996 . S
O174 C181 1.257 . S
C175 O170 1.254 . S
C175 O171 1.269 . S
C176 O177 1.249 . S
C176 O178 1.270 . S
O177 Zn169 1.943 . S
O177 C176 1.249 . S
O178 Zn168 2.067 . S
O178 C176 1.270 . S
C179 O172 1.262 . S
C179 O180 1.232 . S
O180 C179 1.232 . S
C181 O173 1.260 . S
C181 O174 1.257 . S
Zn182 O185 2.031 . S
Zn182 O187 2.049 . S
Zn182 O192 2.067 . S
Zn183 O184 1.962 . S
Zn183 O186 1.986 . S
Zn183 O188 1.996 . S
Zn183 O191 1.943 . S
O184 Zn183 1.962 . S
O184 C189 1.254 1_554 S
O185 Zn182 2.031 . S
O185 C189 1.269 1_554 S
O186 Zn183 1.986 . S
O186 C193 1.262 . S
O187 Zn182 2.049 . S
O187 C195 1.260 . S
O188 Zn183 1.996 . S
O188 C195 1.257 . S
C189 O184 1.254 1_556 S
C189 O185 1.269 1_556 S
C190 O191 1.249 . S
C190 O192 1.270 . S
O191 Zn183 1.943 . S
O191 C190 1.249 . S
O192 Zn182 2.067 . S
O192 C190 1.270 . S
C193 O186 1.262 . S
C193 O194 1.232 . S
O194 C193 1.232 . S
C195 O187 1.260 . S
C195 O188 1.257 . S
Zn196 O199 2.031 . S
Zn196 O201 2.049 . S
Zn196 O206 2.067 . S
Zn197 O198 1.962 . S
Zn197 O200 1.986 . S
Zn197 O202 1.996 . S
Zn197 O205 1.943 . S
O198 Zn197 1.962 . S
O198 C203 1.254 . S
O199 Zn196 2.031 . S
O199 C203 1.269 . S
O200 Zn197 1.986 . S
O200 C207 1.262 . S
O201 Zn196 2.049 . S
O201 C209 1.260 . S
O202 Zn197 1.996 . S
O202 C209 1.257 . S
C203 O198 1.254 . S
C203 O199 1.269 . S
C204 O205 1.249 . S
C204 O206 1.270 . S
O205 Zn197 1.943 . S
O205 C204 1.249 . S
O206 Zn196 2.067 . S
O206 C204 1.270 . S
C207 O200 1.262 . S
C207 O208 1.232 . S
O208 C207 1.232 . S
C209 O201 1.260 . S
C209 O202 1.257 . S
Zn210 O213 2.031 . S
Zn210 O215 2.049 . S
Zn210 O220 2.067 . S
Zn211 O212 1.962 . S
Zn211 O214 1.986 . S
Zn211 O216 1.996 . S
Zn211 O219 1.943 . S
O212 Zn211 1.962 . S
O212 C217 1.254 . S
O213 Zn210 2.031 . S
O213 C217 1.269 . S
O214 Zn211 1.986 . S
O214 C221 1.262 . S
O215 Zn210 2.049 . S
O215 C223 1.260 . S
O216 Zn211 1.996 . S
O216 C223 1.257 . S
C217 O212 1.254 . S
C217 O213 1.269 . S
C218 O219 1.249 . S
C218 O220 1.270 . S
O219 Zn211 1.943 . S
O219 C218 1.249 . S
O220 Zn210 2.067 . S
O220 C218 1.270 . S
C221 O214 1.262 . S
C221 O222 1.232 . S
O222 C221 1.232 . S
C223 O215 1.260 . S
C223 O216 1.257 . S
Zn224 O227 2.031 1_455 S
Zn224 O229 2.049 . S
Zn224 O234 2.067 1_445 S
Zn225 O226 1.962 . S
Zn225 O228 1.986 . S
Zn225 O230 1.996 . S
Zn225 O233 1.943 . S
O226 Zn225 1.962 . S
O226 C231 1.254 . S
O227 Zn224 2.031 1_655 S
O227 C231 1.269 . S
O228 Zn225 1.986 . S
O228 C235 1.262 . S
O229 Zn224 2.049 . S
O229 C237 1.255 1_455 S
O230 Zn225 1.996 . S
O230 C237 1.262 . S
C231 O226 1.254 . S
C231 O227 1.269 . S
C232 O233 1.249 . S
C232 O234 1.270 1_545 S
O233 Zn225 1.943 . S
O233 C232 1.249 . S
O234 Zn224 2.067 1_665 S
O234 C232 1.270 1_565 S
C235 O228 1.262 . S
C235 O236 1.232 . S
O236 C235 1.232 . S
C237 O229 1.255 1_655 S
C237 O230 1.262 . S
Zn238 O241 2.031 . S
Zn238 O243 2.049 . S
Zn238 O248 2.067 . S
Zn239 O240 1.962 . S
Zn239 O242 1.986 . S
Zn239 O244 1.996 . S
Zn239 O247 1.943 . S
O240 Zn239 1.962 . S
O240 C245 1.254 . S
O241 Zn238 2.031 . S
O241 C245 1.269 . S
O242 Zn239 1.986 . S
O242 C249 1.262 . S
O243 Zn238 2.049 . S
O243 C251 1.260 . S
O244 Zn239 1.996 . S
O244 C251 1.257 . S
C245 O240 1.254 . S
C245 O241 1.269 . S
C246 O247 1.249 . S
C246 O248 1.270 . S
O247 Zn239 1.943 . S
O247 C246 1.249 . S
O248 Zn238 2.067 . S
O248 C246 1.270 . S
C249 O242 1.262 . S
C249 O250 1.232 . S
O250 C249 1.232 . S
C251 O243 1.260 . S
C251 O244 1.257 . S
Zn252 O255 2.031 . S
Zn252 O257 2.049 . S
Zn252 O262 2.067 . S
Zn253 O254 1.962 . S
Zn253 O256 1.986 . S
Zn253 O258 1.996 . S
Zn253 O261 1.943 . S
O254 Zn253 1.962 . S
O254 C259 1.254 . S
O255 Zn252 2.031 . S
O255 C259 1.269 . S
O256 Zn253 1.986 . S
O256 C263 1.262 . S
O257 Zn252 2.049 . S
O257 C265 1.260 . S
O258 Zn253 1.996 . S
O258 C265 1.257 . S
C259 O254 1.254 . S
C259 O255 1.269 . S
C260 O261 1.249 . S
C260 O262 1.270 . S
O261 Zn253 1.943 . S
O261 C260 1.249 . S
O262 Zn252 2.067 . S
O262 C260 1.270 . S
C263 O256 1.262 . S
C263 O264 1.232 . S
O264 C263 1.232 . S
C265 O257 1.260 . S
C265 O258 1.257 . S
Zn266 O269 2.031 . S
Zn266 O271 2.049 . S
Zn266 O276 2.067 . S
Zn267 O268 1.962 . S
Zn267 O270 1.986 . S
Zn267 O272 1.996 . S
Zn267 O275 1.943 . S
O268 Zn267 1.962 . S
O268 C273 1.254 . S
O269 Zn266 2.031 . S
O269 C273 1.269 . S
O270 Zn267 1.986 . S
O270 C277 1.262 . S
O271 Zn266 2.049 . S
O271 C279 1.260 . S
O272 Zn267 1.996 . S
O272 C279 1.257 . S
C273 O268 1.254 . S
C273 O269 1.269 . S
C274 O275 1.249 . S
C274 O276 1.270 . S
O275 Zn267 1.943 . S
O275 C274 1.249 . S
O276 Zn266 2.067 . S
O276 C274 1.270 . S
C277 O270 1.262 . S
C277 O278 1.232 . S
O278 C277 1.232 . S
C279 O271 1.260 . S
C279 O272 1.257 . S
Zn280 O283 2.031 1_554 S
Zn280 O285 2.049 . S
Zn280 O290 2.067 . S
Zn281 O282 1.986 . S
Zn281 O284 1.973 1_556 S
Zn281 O286 1.979 1_556 S
Zn281 O289 1.940 . S
O282 Zn281 1.986 . S
O282 C287 1.254 . S
O283 Zn280 2.031 1_556 S
O283 C287 1.269 . S
O284 Zn281 1.973 1_554 S
O284 C291 1.262 1_554 S
O285 Zn280 2.049 . S
O285 C293 1.260 . S
O286 Zn281 1.979 1_554 S
O286 C293 1.257 . S
C287 O282 1.254 . S
C287 O283 1.269 . S
C288 O289 1.249 . S
C288 O290 1.270 1_556 S
O289 Zn281 1.940 . S
O289 C288 1.249 . S
O290 Zn280 2.067 . S
O290 C288 1.270 1_554 S
C291 O284 1.262 1_556 S
C291 O292 1.232 . S
O292 C291 1.232 . S
C293 O285 1.260 . S
C293 O286 1.257 . S
Zn294 O297 2.031 . S
Zn294 O299 2.049 . S
Zn294 O304 2.067 . S
Zn295 O296 1.962 . S
Zn295 O298 1.986 . S
Zn295 O300 1.996 . S
Zn295 O303 1.943 . S
O296 Zn295 1.962 . S
O296 C301 1.254 . S
O297 Zn294 2.031 . S
O297 C301 1.269 . S
O298 Zn295 1.986 . S
O298 C305 1.262 . S
O299 Zn294 2.049 . S
O299 C307 1.260 . S
O300 Zn295 1.996 . S
O300 C307 1.257 . S
C301 O296 1.254 . S
C301 O297 1.269 . S
C302 O303 1.249 . S
C302 O304 1.270 . S
O303 Zn295 1.943 . S
O303 C302 1.249 . S
O304 Zn294 2.067 . S
O304 C302 1.270 . S
C305 O298 1.262 . S
C305 O306 1.232 . S
O306 C305 1.232 . S
C307 O299 1.260 . S
C307 O300 1.257 . S
Zn308 O311 2.031 . S
Zn308 O313 2.049 . S
Zn308 O318 2.067 . S
Zn309 O310 1.962 . S
Zn309 O312 1.986 . S
Zn309 O314 1.996 . S
Zn309 O317 1.943 . S
O310 Zn309 1.962 . S
O310 C315 1.254 . S
O311 Zn308 2.031 . S
O311 C315 1.269 . S
O312 Zn309 1.986 . S
O312 C319 1.262 . S
O313 Zn308 2.049 . S
O313 C321 1.260 . S
O314 Zn309 1.996 . S
O314 C321 1.257 . S
C315 O310 1.254 . S
C315 O311 1.269 . S
C316 O317 1.249 . S
C316 O318 1.270 . S
O317 Zn309 1.943 . S
O317 C316 1.249 . S
O318 Zn308 2.067 . S
O318 C316 1.270 . S
C319 O312 1.262 . S
C319 O320 1.232 . S
O320 C319 1.232 . S
C321 O313 1.260 . S
C321 O314 1.257 . S
Zn322 O325 2.031 . S
Zn322 O327 2.049 . S
Zn322 O332 2.067 . S
Zn323 O324 1.962 . S
Zn323 O326 1.986 . S
Zn323 O328 1.996 . S
Zn323 O331 1.943 . S
O324 Zn323 1.962 . S
O324 C329 1.254 . S
O325 Zn322 2.031 . S
O325 C329 1.269 . S
O326 Zn323 1.986 . S
O326 C333 1.262 . S
O327 Zn322 2.049 . S
O327 C335 1.260 . S
O328 Zn323 1.996 . S
O328 C335 1.257 . S
C329 O324 1.254 . S
C329 O325 1.269 . S
C330 O331 1.249 . S
C330 O332 1.270 . S
O331 Zn323 1.943 . S
O331 C330 1.249 . S
O332 Zn322 2.067 . S
O332 C330 1.270 . S
C333 O326 1.262 . S
C333 O334 1.232 . S
O334 C333 1.232 . S
C335 O327 1.260 . S
C335 O328 1.257 . S
Tb336 N367 2.660 1_545 S
Tb336 N374 2.600 1_544 S
Tb336 O380 2.546 1_454 S
Tb336 O381 2.610 . S
Tb336 O383 2.320 . S
Tb336 O384 2.552 1_554 S
Tb336 O385 2.413 1_455 S
Tb336 O387 2.379 . S
Tb336 O388 2.421 1_554 S
Tb336 C400 2.833 1_454 S
C337 C340 1.432 . S
C337 C341 1.414 . S
C337 N344 1.359 . S
C338 C340 1.417 . S
C338 C342 1.432 . S
C338 C350 1.410 1_554 S
C339 C341 1.444 . S
C339 C342 1.317 . S
C339 H362 0.929 . S
C340 C337 1.432 . S
C340 C338 1.417 . S
C340 N348 1.360 . S
C341 C337 1.414 . S
C341 C339 1.444 . S
C341 C346 1.385 . S
C342 C338 1.432 . S
C342 C339 1.317 . S
C342 H354 0.930 . S
C343 C345 1.392 . S
C343 C346 1.370 . S
C343 H355 0.931 . S
N344 C337 1.359 . S
N344 C345 1.327 . S
N344 Tb347 2.600 . S
C345 C343 1.392 . S
C345 N344 1.327 . S
C345 H352 0.930 . S
C346 C341 1.385 . S
C346 C343 1.370 . S
C346 H365 0.930 . S
Tb347 N344 2.600 . S
Tb347 N348 2.660 . S
Tb347 O381 2.362 . S
Tb347 O382 2.421 . S
Tb347 O386 2.546 . S
Tb347 O387 2.630 . S
Tb347 O389 2.320 1_554 S
Tb347 O390 2.552 1_545 S
Tb347 O391 2.413 . S
Tb347 C411 2.833 . S
N348 C340 1.360 . S
N348 Tb347 2.660 . S
N348 C349 1.305 1_554 S
C349 N348 1.305 1_556 S
C349 C351 1.407 . S
C349 H356 0.930 . S
C350 C338 1.410 1_556 S
C350 C351 1.345 . S
C350 H358 0.930 . S
C351 C349 1.407 . S
C351 C350 1.345 . S
C351 H353 0.930 . S
H352 C345 0.930 . S
H353 C351 0.930 . S
H354 C342 0.930 . S
H355 C343 0.931 . S
H356 C349 0.930 . S
H357 C371 0.930 . S
H358 C350 0.930 . S
H359 C377 0.930 . S
H360 C368 0.930 . S
H361 C375 0.931 . S
H362 C339 0.929 . S
H363 C369 0.930 . S
H364 C402 0.930 . S
H365 C346 0.930 . S
H366 C401 0.929 . S
N367 Tb336 2.660 1_565 S
N367 C368 1.305 . S
N367 C372 1.362 . S
C368 H360 0.930 . S
C368 N367 1.305 . S
C368 C371 1.407 . S
C369 H363 0.930 . S
C369 C370 1.410 . S
C369 C371 1.345 1_655 S
C370 C369 1.410 . S
C370 C372 1.414 1_655 S
C370 C402 1.432 1_554 S
C371 H357 0.930 . S
C371 C368 1.407 . S
C371 C369 1.345 1_455 S
C372 N367 1.362 . S
C372 C370 1.414 1_455 S
C372 C376 1.433 1_454 S
H373 C378 0.930 . S
N374 Tb336 2.600 1_566 S
N374 C376 1.359 1_455 S
N374 C377 1.327 . S
C375 H361 0.931 . S
C375 C377 1.392 1_655 S
C375 C378 1.370 . S
C376 C372 1.433 1_656 S
C376 N374 1.359 1_655 S
C376 C379 1.414 . S
C377 H359 0.930 . S
C377 N374 1.327 . S
C377 C375 1.392 1_455 S
C378 H373 0.930 . S
C378 C375 1.370 . S
C378 C379 1.385 . S
C379 C376 1.414 . S
C379 C378 1.385 . S
C379 C401 1.444 . S
O380 Tb336 2.546 1_656 S
O380 C400 1.251 . S
O381 Tb336 2.610 . S
O381 Tb347 2.362 . S
O381 C392 1.283 . S
O382 Tb347 2.421 . S
O382 C399 1.262 . S
O383 Tb336 2.320 . S
O383 C399 1.260 . S
O384 Tb336 2.552 1_556 S
O384 C392 1.243 1_556 S
O385 Tb336 2.413 1_655 S
O385 C400 1.256 1_554 S
O386 Tb347 2.546 . S
O386 C411 1.251 . S
O387 Tb336 2.379 . S
O387 Tb347 2.630 . S
O387 C403 1.258 1_545 S
O388 Tb336 2.421 1_556 S
O388 C410 1.262 . S
O389 Tb347 2.320 1_556 S
O389 C410 1.260 . S
O390 Tb347 2.552 1_565 S
O390 C403 1.243 . S
O391 Tb347 2.413 . S
O391 C411 1.256 . S
C392 O381 1.283 . S
C392 O384 1.243 1_554 S
C393 C395 1.382 . S
C393 C397 1.392 1_545 S
C393 C400 1.500 . S
C394 C395 1.400 . S
C394 C396 1.384 . S
C395 C393 1.382 . S
C395 C394 1.400 . S
C395 H412 0.930 1_556 S
C396 C394 1.384 . S
C396 C398 1.392 . S
C396 H413 0.931 . S
C397 C393 1.392 1_565 S
C397 C398 1.396 1_565 S
C397 H414 0.937 . S
C398 C396 1.392 . S
C398 C397 1.396 1_545 S
C398 H415 0.930 1_545 S
C399 O382 1.262 . S
C399 O383 1.260 . S
C400 Tb336 2.833 1_656 S
C400 O380 1.251 . S
C400 O385 1.256 1_556 S
C400 C393 1.500 . S
C401 H366 0.929 . S
C401 C379 1.444 . S
C401 C402 1.317 . S
C402 H364 0.930 . S
C402 C370 1.432 1_556 S
C402 C401 1.317 . S
C403 O387 1.258 1_565 S
C403 O390 1.243 . S
C404 C405 1.382 . S
C404 C408 1.393 . S
C404 C411 1.500 . S
C405 C404 1.382 . S
C405 C406 1.400 . S
C405 H416 0.930 . S
C406 C405 1.400 . S
C406 C407 1.384 . S
C407 C406 1.384 . S
C407 C409 1.392 . S
C407 H417 0.931 . S
C408 C404 1.393 . S
C408 C409 1.401 . S
C408 H418 0.930 . S
C409 C407 1.392 . S
C409 C408 1.401 . S
C409 H419 0.930 . S
C410 O388 1.262 . S
C410 O389 1.260 . S
C411 Tb347 2.833 . S
C411 O386 1.251 . S
C411 O391 1.256 . S
C411 C404 1.500 . S
H412 C395 0.930 1_554 S
H413 C396 0.931 . S
H414 C397 0.937 . S
H415 C398 0.930 1_565 S
H416 C405 0.930 . S
H417 C407 0.931 . S
H418 C408 0.930 . S
H419 C409 0.930 . S
Tb420 N451 2.660 . S
Tb420 N458 2.600 . S
Tb420 O464 2.546 . S
Tb420 O465 2.610 . S
Tb420 O467 2.320 . S
Tb420 O468 2.552 . S
Tb420 O469 2.413 . S
Tb420 O471 2.362 . S
Tb420 O472 2.421 . S
Tb420 C484 2.833 . S
C421 C424 1.432 . S
C421 C425 1.414 . S
C421 N428 1.359 . S
C422 C424 1.417 . S
C422 C426 1.432 . S
C422 C434 1.410 . S
C423 C425 1.444 . S
C423 C426 1.317 . S
C423 H446 0.929 . S
C424 C421 1.432 . S
C424 C422 1.417 . S
C424 N432 1.360 . S
C425 C421 1.414 . S
C425 C423 1.444 . S
C425 C430 1.385 . S
C426 C422 1.432 . S
C426 C423 1.317 . S
C426 H438 0.930 . S
C427 C429 1.392 . S
C427 C430 1.370 . S
C427 H439 0.931 . S
N428 C421 1.359 . S
N428 C429 1.327 . S
N428 Tb431 2.600 . S
C429 C427 1.392 . S
C429 N428 1.327 . S
C429 H436 0.930 . S
C430 C425 1.385 . S
C430 C427 1.370 . S
C430 H449 0.930 . S
Tb431 N428 2.600 . S
Tb431 N432 2.660 . S
Tb431 O465 2.362 . S
Tb431 O466 2.421 . S
Tb431 O470 2.546 . S
Tb431 O471 2.610 . S
Tb431 O473 2.320 . S
Tb431 O474 2.552 . S
Tb431 O475 2.413 . S
Tb431 C495 2.833 . S
N432 C424 1.360 . S
N432 Tb431 2.660 . S
N432 C433 1.305 . S
C433 N432 1.305 . S
C433 C435 1.407 . S
C433 H440 0.930 . S
C434 C422 1.410 . S
C434 C435 1.345 . S
C434 H442 0.930 . S
C435 C433 1.407 . S
C435 C434 1.345 . S
C435 H437 0.930 . S
H436 C429 0.930 . S
H437 C435 0.930 . S
H438 C426 0.930 . S
H439 C427 0.931 . S
H440 C433 0.930 . S
H441 C455 0.930 . S
H442 C434 0.930 . S
H443 C461 0.930 . S
H444 C452 0.930 . S
H445 C459 0.931 . S
H446 C423 0.929 . S
H447 C453 0.930 . S
H448 C486 0.930 . S
H449 C430 0.930 . S
H450 C485 0.929 . S
N451 Tb420 2.660 . S
N451 C452 1.305 . S
N451 C456 1.360 . S
C452 H444 0.930 . S
C452 N451 1.305 . S
C452 C455 1.407 . S
C453 H447 0.930 . S
C453 C454 1.410 . S
C453 C455 1.345 . S
C454 C453 1.410 . S
C454 C456 1.417 . S
C454 C486 1.432 . S
C455 H441 0.930 . S
C455 C452 1.407 . S
C455 C453 1.345 . S
C456 N451 1.360 . S
C456 C454 1.417 . S
C456 C460 1.432 . S
H457 C462 0.930 . S
N458 Tb420 2.600 . S
N458 C460 1.359 . S
N458 C461 1.327 . S
C459 H445 0.931 . S
C459 C461 1.392 . S
C459 C462 1.370 . S
C460 C456 1.432 . S
C460 N458 1.359 . S
C460 C463 1.414 . S
C461 H443 0.930 . S
C461 N458 1.327 . S
C461 C459 1.392 . S
C462 H457 0.930 . S
C462 C459 1.370 . S
C462 C463 1.385 . S
C463 C460 1.414 . S
C463 C462 1.385 . S
C463 C485 1.444 . S
O464 Tb420 2.546 . S
O464 C484 1.251 . S
O465 Tb420 2.610 . S
O465 Tb431 2.362 . S
O465 C476 1.283 . S
O466 Tb431 2.421 . S
O466 C483 1.262 . S
O467 Tb420 2.320 . S
O467 C483 1.260 . S
O468 Tb420 2.552 . S
O468 C476 1.243 . S
O469 Tb420 2.413 . S
O469 C484 1.256 . S
O470 Tb431 2.546 . S
O470 C495 1.251 . S
O471 Tb420 2.362 . S
O471 Tb431 2.610 . S
O471 C487 1.283 . S
O472 Tb420 2.421 . S
O472 C494 1.262 . S
O473 Tb431 2.320 . S
O473 C494 1.260 . S
O474 Tb431 2.552 . S
O474 C487 1.243 . S
O475 Tb431 2.413 . S
O475 C495 1.256 . S
C476 O465 1.283 . S
C476 O468 1.243 . S
C477 C479 1.382 . S
C477 C481 1.393 . S
C477 C484 1.500 . S
C478 C479 1.400 . S
C478 C480 1.384 . S
C479 C477 1.382 . S
C479 C478 1.400 . S
C479 H496 0.930 . S
C480 C478 1.384 . S
C480 C482 1.392 . S
C480 H497 0.931 . S
C481 C477 1.393 . S
C481 C482 1.401 . S
C481 H498 0.930 . S
C482 C480 1.392 . S
C482 C481 1.401 . S
C482 H499 0.930 . S
C483 O466 1.262 . S
C483 O467 1.260 . S
C484 Tb420 2.833 . S
C484 O464 1.251 . S
C484 O469 1.256 . S
C484 C477 1.500 . S
C485 H450 0.929 . S
C485 C463 1.444 . S
C485 C486 1.317 . S
C486 H448 0.930 . S
C486 C454 1.432 . S
C486 C485 1.317 . S
C487 O471 1.283 . S
C487 O474 1.243 . S
C488 C489 1.382 . S
C488 C492 1.393 . S
C488 C495 1.500 . S
C489 C488 1.382 . S
C489 C490 1.400 . S
C489 H500 0.930 . S
C490 C489 1.400 . S
C490 C491 1.384 . S
C491 C490 1.384 . S
C491 C493 1.392 . S
C491 H501 0.931 . S
C492 C488 1.393 . S
C492 C493 1.401 . S
C492 H502 0.930 . S
C493 C491 1.392 . S
C493 C492 1.401 . S
C493 H503 0.930 . S
C494 O472 1.262 . S
C494 O473 1.260 . S
C495 Tb431 2.833 . S
C495 O470 1.251 . S
C495 O475 1.256 . S
C495 C488 1.500 . S
H496 C479 0.930 . S
H497 C480 0.931 . S
H498 C481 0.930 . S
H499 C482 0.930 . S
H500 C489 0.930 . S
H501 C491 0.931 . S
H502 C492 0.930 . S
H503 C493 0.930 . S
Tb504 N535 2.660 . S
Tb504 N542 2.600 . S
Tb504 O548 2.546 . S
Tb504 O549 2.610 1_545 S
Tb504 O551 2.320 . S
Tb504 O552 2.552 1_545 S
Tb504 O553 2.413 . S
Tb504 O555 2.362 . S
Tb504 O556 2.421 . S
Tb504 C568 2.833 . S
C505 C508 1.432 . S
C505 C509 1.414 . S
C505 N512 1.359 . S
C506 C508 1.417 . S
C506 C510 1.432 . S
C506 C518 1.410 . S
C507 C509 1.444 . S
C507 C510 1.317 . S
C507 H530 0.929 . S
C508 C505 1.432 . S
C508 C506 1.417 . S
C508 N516 1.360 . S
C509 C505 1.414 . S
C509 C507 1.444 . S
C509 C514 1.385 . S
C510 C506 1.432 . S
C510 C507 1.317 . S
C510 H522 0.930 . S
C511 C513 1.392 1_565 S
C511 C514 1.370 . S
C511 H523 0.930 1_565 S
N512 C505 1.359 . S
N512 C513 1.327 1_565 S
N512 Tb515 2.600 1_565 S
C513 C511 1.392 1_545 S
C513 N512 1.327 1_545 S
C513 H520 0.930 . S
C514 C509 1.385 . S
C514 C511 1.370 . S
C514 H533 0.930 . S
Tb515 N512 2.600 1_545 S
Tb515 N516 2.660 1_545 S
Tb515 O549 2.362 1_545 S
Tb515 O550 2.421 . S
Tb515 O554 2.546 . S
Tb515 O555 2.610 . S
Tb515 O557 2.320 . S
Tb515 O558 2.552 . S
Tb515 O559 2.413 . S
Tb515 C579 2.833 . S
N516 C508 1.360 . S
N516 Tb515 2.660 1_565 S
N516 C517 1.305 . S
C517 N516 1.305 . S
C517 C519 1.407 . S
C517 H524 0.930 . S
C518 C506 1.410 . S
C518 C519 1.345 . S
C518 H526 0.930 . S
C519 C517 1.407 . S
C519 C518 1.345 . S
C519 H521 0.930 . S
H520 C513 0.930 . S
H521 C519 0.930 . S
H522 C510 0.930 . S
H523 C511 0.930 1_545 S
H524 C517 0.930 . S
H525 C539 0.930 . S
H526 C518 0.930 . S
H527 C545 0.930 . S
H528 C536 0.930 . S
H529 C543 0.931 . S
H530 C507 0.929 . S
H531 C537 0.930 . S
H532 C570 0.930 . S
H533 C514 0.930 . S
H534 C569 0.929 . S
N535 Tb504 2.660 . S
N535 C536 1.305 . S
N535 C540 1.360 . S
C536 H528 0.930 . S
C536 N535 1.305 . S
C536 C539 1.407 . S
C537 H531 0.930 . S
C537 C538 1.410 . S
C537 C539 1.345 . S
C538 C537 1.410 . S
C538 C540 1.417 . S
C538 C570 1.432 . S
C539 H525 0.930 . S
C539 C536 1.407 . S
C539 C537 1.345 . S
C540 N535 1.360 . S
C540 C538 1.417 . S
C540 C544 1.432 . S
H541 C546 0.930 . S
N542 Tb504 2.600 . S
N542 C544 1.359 . S
N542 C545 1.327 . S
C543 H529 0.931 . S
C543 C545 1.392 . S
C543 C546 1.370 . S
C544 C540 1.432 . S
C544 N542 1.359 . S
C544 C547 1.414 . S
C545 H527 0.930 . S
C545 N542 1.327 . S
C545 C543 1.392 . S
C546 H541 0.930 . S
C546 C543 1.370 . S
C546 C547 1.385 . S
C547 C544 1.414 . S
C547 C546 1.385 . S
C547 C569 1.444 . S
O548 Tb504 2.546 . S
O548 C568 1.251 . S
O549 Tb504 2.610 1_565 S
O549 Tb515 2.362 1_565 S
O549 C560 1.283 . S
O550 Tb515 2.421 . S
O550 C567 1.262 . S
O551 Tb504 2.320 . S
O551 C567 1.260 . S
O552 Tb504 2.552 1_565 S
O552 C560 1.243 . S
O553 Tb504 2.413 . S
O553 C568 1.256 . S
O554 Tb515 2.546 . S
O554 C579 1.251 . S
O555 Tb504 2.362 . S
O555 Tb515 2.610 . S
O555 C571 1.283 . S
O556 Tb504 2.421 . S
O556 C578 1.262 . S
O557 Tb515 2.320 . S
O557 C578 1.260 . S
O558 Tb515 2.552 . S
O558 C571 1.243 . S
O559 Tb515 2.413 . S
O559 C579 1.256 . S
C560 O549 1.283 . S
C560 O552 1.243 . S
C561 C563 1.382 . S
C561 C565 1.393 . S
C561 C568 1.500 1_565 S
C562 C563 1.400 . S
C562 C564 1.384 . S
C563 C561 1.382 . S
C563 C562 1.400 . S
C563 H580 0.930 . S
C564 C562 1.384 . S
C564 C566 1.392 . S
C564 H581 0.931 . S
C565 C561 1.393 . S
C565 C566 1.401 . S
C565 H582 0.930 . S
C566 C564 1.392 . S
C566 C565 1.401 . S
C566 H583 0.930 . S
C567 O550 1.262 . S
C567 O551 1.260 . S
C568 Tb504 2.833 . S
C568 O548 1.251 . S
C568 O553 1.256 . S
C568 C561 1.500 1_545 S
C569 H534 0.929 . S
C569 C547 1.444 . S
C569 C570 1.317 . S
C570 H532 0.930 . S
C570 C538 1.432 . S
C570 C569 1.317 . S
C571 O555 1.283 . S
C571 O558 1.243 . S
C572 C573 1.382 . S
C572 C576 1.393 . S
C572 C579 1.500 . S
C573 C572 1.382 . S
C573 C574 1.400 . S
C573 H584 0.930 . S
C574 C573 1.400 . S
C574 C575 1.384 . S
C575 C574 1.384 . S
C575 C577 1.392 . S
C575 H585 0.931 . S
C576 C572 1.393 . S
C576 C577 1.401 . S
C576 H586 0.930 . S
C577 C575 1.392 . S
C577 C576 1.401 . S
C577 H587 0.930 . S
C578 O556 1.262 . S
C578 O557 1.260 . S
C579 Tb515 2.833 . S
C579 O554 1.251 . S
C579 O559 1.256 . S
C579 C572 1.500 . S
H580 C563 0.930 . S
H581 C564 0.931 . S
H582 C565 0.930 . S
H583 C566 0.930 . S
H584 C573 0.930 . S
H585 C575 0.931 . S
H586 C576 0.930 . S
H587 C577 0.930 . S
Tb588 N619 2.660 . S
Tb588 N626 2.600 . S
Tb588 O632 2.546 . S
Tb588 O633 2.610 . S
Tb588 O635 2.320 . S
Tb588 O636 2.552 . S
Tb588 O637 2.413 . S
Tb588 O639 2.362 . S
Tb588 O640 2.421 . S
Tb588 C652 2.833 . S
C589 C592 1.432 . S
C589 C593 1.414 . S
C589 N596 1.359 . S
C590 C592 1.417 . S
C590 C594 1.432 . S
C590 C602 1.410 . S
C591 C593 1.444 . S
C591 C594 1.317 . S
C591 H614 0.929 . S
C592 C589 1.432 . S
C592 C590 1.417 . S
C592 N600 1.360 . S
C593 C589 1.414 . S
C593 C591 1.444 . S
C593 C598 1.385 . S
C594 C590 1.432 . S
C594 C591 1.317 . S
C594 H606 0.930 . S
C595 C597 1.392 . S
C595 C598 1.370 . S
C595 H607 0.931 . S
N596 C589 1.359 . S
N596 C597 1.327 . S
N596 Tb599 2.600 . S
C597 C595 1.392 . S
C597 N596 1.327 . S
C597 H604 0.930 . S
C598 C593 1.385 . S
C598 C595 1.370 . S
C598 H617 0.930 . S
Tb599 N596 2.600 . S
Tb599 N600 2.660 . S
Tb599 O633 2.362 . S
Tb599 O634 2.421 . S
Tb599 O638 2.546 . S
Tb599 O639 2.610 . S
Tb599 O641 2.320 . S
Tb599 O642 2.552 . S
Tb599 O643 2.413 . S
Tb599 C663 2.833 . S
N600 C592 1.360 . S
N600 Tb599 2.660 . S
N600 C601 1.305 . S
C601 N600 1.305 . S
C601 C603 1.407 . S
C601 H608 0.930 . S
C602 C590 1.410 . S
C602 C603 1.345 . S
C602 H610 0.930 . S
C603 C601 1.407 . S
C603 C602 1.345 . S
C603 H605 0.930 . S
H604 C597 0.930 . S
H605 C603 0.930 . S
H606 C594 0.930 . S
H607 C595 0.931 . S
H608 C601 0.930 . S
H609 C623 0.930 . S
H610 C602 0.930 . S
H611 C629 0.930 . S
H612 C620 0.930 . S
H613 C627 0.931 . S
H614 C591 0.929 . S
H615 C621 0.930 . S
H616 C654 0.930 . S
H617 C598 0.930 . S
H618 C653 0.929 . S
N619 Tb588 2.660 . S
N619 C620 1.305 . S
N619 C624 1.360 . S
C620 H612 0.930 . S
C620 N619 1.305 . S
C620 C623 1.407 . S
C621 H615 0.930 . S
C621 C622 1.410 . S
C621 C623 1.345 . S
C622 C621 1.410 . S
C622 C624 1.417 . S
C622 C654 1.432 . S
C623 H609 0.930 . S
C623 C620 1.407 . S
C623 C621 1.345 . S
C624 N619 1.360 . S
C624 C622 1.417 . S
C624 C628 1.432 . S
H625 C630 0.930 . S
N626 Tb588 2.600 . S
N626 C628 1.359 . S
N626 C629 1.327 . S
C627 H613 0.931 . S
C627 C629 1.392 . S
C627 C630 1.370 . S
C628 C624 1.432 . S
C628 N626 1.359 . S
C628 C631 1.414 . S
C629 H611 0.930 . S
C629 N626 1.327 . S
C629 C627 1.392 . S
C630 H625 0.930 . S
C630 C627 1.370 . S
C630 C631 1.385 . S
C631 C628 1.414 . S
C631 C630 1.385 . S
C631 C653 1.444 . S
O632 Tb588 2.546 . S
O632 C652 1.251 . S
O633 Tb588 2.610 . S
O633 Tb599 2.362 . S
O633 C644 1.283 . S
O634 Tb599 2.421 . S
O634 C651 1.262 . S
O635 Tb588 2.320 . S
O635 C651 1.260 . S
O636 Tb588 2.552 . S
O636 C644 1.243 . S
O637 Tb588 2.413 . S
O637 C652 1.256 . S
O638 Tb599 2.546 . S
O638 C663 1.251 . S
O639 Tb588 2.362 . S
O639 Tb599 2.610 . S
O639 C655 1.283 . S
O640 Tb588 2.421 . S
O640 C662 1.262 . S
O641 Tb599 2.320 . S
O641 C662 1.260 . S
O642 Tb599 2.552 . S
O642 C655 1.243 . S
O643 Tb599 2.413 . S
O643 C663 1.256 . S
C644 O633 1.283 . S
C644 O636 1.243 . S
C645 C647 1.382 . S
C645 C649 1.393 . S
C645 C652 1.500 . S
C646 C647 1.400 . S
C646 C648 1.384 . S
C647 C645 1.382 . S
C647 C646 1.400 . S
C647 H664 0.930 . S
C648 C646 1.384 . S
C648 C650 1.392 . S
C648 H665 0.931 . S
C649 C645 1.393 . S
C649 C650 1.401 . S
C649 H666 0.930 . S
C650 C648 1.392 . S
C650 C649 1.401 . S
C650 H667 0.930 . S
C651 O634 1.262 . S
C651 O635 1.260 . S
C652 Tb588 2.833 . S
C652 O632 1.251 . S
C652 O637 1.256 . S
C652 C645 1.500 . S
C653 H618 0.929 . S
C653 C631 1.444 . S
C653 C654 1.317 . S
C654 H616 0.930 . S
C654 C622 1.432 . S
C654 C653 1.317 . S
C655 O639 1.283 . S
C655 O642 1.243 . S
C656 C657 1.382 . S
C656 C660 1.393 . S
C656 C663 1.500 . S
C657 C656 1.382 . S
C657 C658 1.400 . S
C657 H668 0.930 . S
C658 C657 1.400 . S
C658 C659 1.384 . S
C659 C658 1.384 . S
C659 C661 1.392 . S
C659 H669 0.931 . S
C660 C656 1.393 . S
C660 C661 1.401 . S
C660 H670 0.930 . S
C661 C659 1.392 . S
C661 C660 1.401 . S
C661 H671 0.930 . S
C662 O640 1.262 . S
C662 O641 1.260 . S
C663 Tb599 2.833 . S
C663 O638 1.251 . S
C663 O643 1.256 . S
C663 C656 1.500 . S
H664 C647 0.930 . S
H665 C648 0.931 . S
H666 C649 0.930 . S
H667 C650 0.930 . S
H668 C657 0.930 . S
H669 C659 0.931 . S
H670 C660 0.930 . S
H671 C661 0.930 . S
Tb672 N703 2.660 . S
Tb672 N710 2.600 . S
Tb672 O716 2.546 . S
Tb672 O717 2.610 . S
Tb672 O719 2.320 . S
Tb672 O720 2.552 . S
Tb672 O721 2.413 . S
Tb672 O723 2.362 . S
Tb672 O724 2.421 . S
Tb672 C736 2.833 . S
C673 C676 1.432 . S
C673 C677 1.414 . S
C673 N680 1.359 . S
C674 C676 1.417 . S
C674 C678 1.432 . S
C674 C686 1.433 . S
C675 C677 1.444 . S
C675 C678 1.317 . S
C675 H698 0.929 . S
C676 C673 1.432 . S
C676 C674 1.417 . S
C676 N684 1.360 . S
C677 C673 1.414 . S
C677 C675 1.444 . S
C677 C682 1.385 . S
C678 C674 1.432 . S
C678 C675 1.317 . S
C678 H690 0.930 . S
C679 C681 1.392 . S
C679 C682 1.370 . S
C679 H691 0.931 . S
N680 C673 1.359 . S
N680 C681 1.327 . S
N680 Tb683 2.600 . S
C681 C679 1.392 . S
C681 N680 1.327 . S
C681 H688 0.930 . S
C682 C677 1.385 . S
C682 C679 1.370 . S
C682 H701 0.930 . S
Tb683 N680 2.600 . S
Tb683 N684 2.660 . S
Tb683 O717 2.362 1_565 S
Tb683 O718 2.421 1_565 S
Tb683 O722 2.546 . S
Tb683 O723 2.610 1_565 S
Tb683 O725 2.320 . S
Tb683 O726 2.552 . S
Tb683 O727 2.413 . S
Tb683 C747 2.833 . S
N684 C676 1.360 . S
N684 Tb683 2.660 . S
N684 C685 1.305 . S
C685 N684 1.305 . S
C685 C687 1.407 1_455 S
C685 H692 0.930 . S
C686 C674 1.433 . S
C686 C687 1.333 1_455 S
C686 H694 0.919 1_455 S
C687 C685 1.407 1_655 S
C687 C686 1.333 1_655 S
C687 H689 0.930 . S
H688 C681 0.930 . S
H689 C687 0.930 . S
H690 C678 0.930 . S
H691 C679 0.931 . S
H692 C685 0.930 . S
H693 C707 0.930 . S
H694 C686 0.919 1_655 S
H695 C713 0.930 . S
H696 C704 0.930 . S
H697 C711 0.931 1_655 S
H698 C675 0.929 . S
H699 C705 0.930 . S
H700 C738 0.930 . S
H701 C682 0.930 . S
H702 C737 0.929 . S
N703 Tb672 2.660 . S
N703 C704 1.305 . S
N703 C708 1.360 . S
C704 H696 0.930 . S
C704 N703 1.305 . S
C704 C707 1.407 . S
C705 H699 0.930 . S
C705 C706 1.410 . S
C705 C707 1.345 . S
C706 C705 1.410 . S
C706 C708 1.417 . S
C706 C738 1.432 . S
C707 H693 0.930 . S
C707 C704 1.407 . S
C707 C705 1.345 . S
C708 N703 1.360 . S
C708 C706 1.417 . S
C708 C712 1.432 . S
H709 C714 0.930 . S
N710 Tb672 2.600 . S
N710 C712 1.359 . S
N710 C713 1.327 . S
C711 H697 0.931 1_455 S
C711 C713 1.392 . S
C711 C714 1.370 . S
C712 C708 1.432 . S
C712 N710 1.359 . S
C712 C715 1.414 . S
C713 H695 0.930 . S
C713 N710 1.327 . S
C713 C711 1.392 . S
C714 H709 0.930 . S
C714 C711 1.370 . S
C714 C715 1.385 . S
C715 C712 1.414 . S
C715 C714 1.385 . S
C715 C737 1.444 . S
O716 Tb672 2.546 . S
O716 C736 1.251 . S
O717 Tb672 2.610 . S
O717 Tb683 2.362 1_545 S
O717 C728 1.283 . S
O718 Tb683 2.421 1_545 S
O718 C735 1.262 . S
O719 Tb672 2.320 . S
O719 C735 1.260 . S
O720 Tb672 2.552 . S
O720 C728 1.243 . S
O721 Tb672 2.413 . S
O721 C736 1.256 . S
O722 Tb683 2.546 . S
O722 C747 1.251 . S
O723 Tb672 2.362 . S
O723 Tb683 2.610 1_545 S
O723 C739 1.283 . S
O724 Tb672 2.421 . S
O724 C746 1.262 . S
O725 Tb683 2.320 . S
O725 C746 1.260 1_565 S
O726 Tb683 2.552 . S
O726 C739 1.243 1_565 S
O727 Tb683 2.413 . S
O727 C747 1.256 . S
C728 O717 1.283 . S
C728 O720 1.243 . S
C729 C731 1.382 . S
C729 C733 1.393 . S
C729 C736 1.500 . S
C730 C731 1.400 . S
C730 C732 1.384 . S
C731 C729 1.382 . S
C731 C730 1.400 . S
C731 H748 0.930 . S
C732 C730 1.384 . S
C732 C734 1.392 . S
C732 H749 0.931 . S
C733 C729 1.393 . S
C733 C734 1.401 . S
C733 H750 0.930 . S
C734 C732 1.392 . S
C734 C733 1.401 . S
C734 H751 0.930 . S
C735 O718 1.262 . S
C735 O719 1.260 . S
C736 Tb672 2.833 . S
C736 O716 1.251 . S
C736 O721 1.256 . S
C736 C729 1.500 . S
C737 H702 0.929 . S
C737 C715 1.444 . S
C737 C738 1.317 . S
C738 H700 0.930 . S
C738 C706 1.432 . S
C738 C737 1.317 . S
C739 O723 1.283 . S
C739 O726 1.243 1_545 S
C740 C741 1.382 . S
C740 C744 1.393 . S
C740 C747 1.500 . S
C741 C740 1.382 . S
C741 C742 1.400 . S
C741 H752 0.930 . S
C742 C741 1.400 . S
C742 C743 1.384 . S
C743 C742 1.384 . S
C743 C745 1.392 . S
C743 H753 0.931 . S
C744 C740 1.393 . S
C744 C745 1.401 . S
C744 H754 0.930 . S
C745 C743 1.392 . S
C745 C744 1.401 . S
C745 H755 0.930 . S
C746 O724 1.262 . S
C746 O725 1.260 1_545 S
C747 Tb683 2.833 . S
C747 O722 1.251 . S
C747 O727 1.256 . S
C747 C740 1.500 . S
H748 C731 0.930 . S
H749 C732 0.931 . S
H750 C733 0.930 . S
H751 C734 0.930 . S
H752 C741 0.930 . S
H753 C743 0.931 . S
H754 C744 0.930 . S
H755 C745 0.930 . S
Tb756 N787 2.660 . S
Tb756 N794 2.600 . S
Tb756 O800 2.546 . S
Tb756 O801 2.610 . S
Tb756 O803 2.320 . S
Tb756 O804 2.552 . S
Tb756 O805 2.413 . S
Tb756 O807 2.362 . S
Tb756 O808 2.421 . S
Tb756 C820 2.833 . S
C757 C760 1.432 . S
C757 C761 1.414 . S
C757 N764 1.359 . S
C758 C760 1.417 . S
C758 C762 1.432 . S
C758 C770 1.410 . S
C759 C761 1.444 . S
C759 C762 1.317 . S
C759 H782 0.929 . S
C760 C757 1.432 . S
C760 C758 1.417 . S
C760 N768 1.360 . S
C761 C757 1.414 . S
C761 C759 1.444 . S
C761 C766 1.385 . S
C762 C758 1.432 . S
C762 C759 1.317 . S
C762 H774 0.930 . S
C763 C765 1.392 . S
C763 C766 1.370 . S
C763 H775 0.931 . S
N764 C757 1.359 . S
N764 C765 1.327 . S
N764 Tb767 2.600 . S
C765 C763 1.392 . S
C765 N764 1.327 . S
C765 H772 0.930 . S
C766 C761 1.385 . S
C766 C763 1.370 . S
C766 H785 0.930 . S
Tb767 N764 2.600 . S
Tb767 N768 2.660 . S
Tb767 O801 2.362 . S
Tb767 O802 2.421 . S
Tb767 O806 2.546 . S
Tb767 O807 2.610 . S
Tb767 O809 2.320 . S
Tb767 O810 2.552 . S
Tb767 O811 2.413 . S
Tb767 C831 2.833 . S
N768 C760 1.360 . S
N768 Tb767 2.660 . S
N768 C769 1.305 . S
C769 N768 1.305 . S
C769 C771 1.407 . S
C769 H776 0.930 . S
C770 C758 1.410 . S
C770 C771 1.345 . S
C770 H778 0.930 . S
C771 C769 1.407 . S
C771 C770 1.345 . S
C771 H773 0.930 . S
H772 C765 0.930 . S
H773 C771 0.930 . S
H774 C762 0.930 . S
H775 C763 0.931 . S
H776 C769 0.930 . S
H777 C791 0.930 . S
H778 C770 0.930 . S
H779 C797 0.930 . S
H780 C788 0.930 . S
H781 C795 0.931 . S
H782 C759 0.929 . S
H783 C789 0.930 . S
H784 C822 0.930 . S
H785 C766 0.930 . S
H786 C821 0.929 . S
N787 Tb756 2.660 . S
N787 C788 1.305 . S
N787 C792 1.360 . S
C788 H780 0.930 . S
C788 N787 1.305 . S
C788 C791 1.407 . S
C789 H783 0.930 . S
C789 C790 1.410 . S
C789 C791 1.345 . S
C790 C789 1.410 . S
C790 C792 1.417 . S
C790 C822 1.432 . S
C791 H777 0.930 . S
C791 C788 1.407 . S
C791 C789 1.345 . S
C792 N787 1.360 . S
C792 C790 1.417 . S
C792 C796 1.432 . S
H793 C798 0.930 . S
N794 Tb756 2.600 . S
N794 C796 1.359 . S
N794 C797 1.327 . S
C795 H781 0.931 . S
C795 C797 1.392 . S
C795 C798 1.370 . S
C796 C792 1.432 . S
C796 N794 1.359 . S
C796 C799 1.414 . S
C797 H779 0.930 . S
C797 N794 1.327 . S
C797 C795 1.392 . S
C798 H793 0.930 . S
C798 C795 1.370 . S
C798 C799 1.385 . S
C799 C796 1.414 . S
C799 C798 1.385 . S
C799 C821 1.444 . S
O800 Tb756 2.546 . S
O800 C820 1.251 . S
O801 Tb756 2.610 . S
O801 Tb767 2.362 . S
O801 C812 1.283 . S
O802 Tb767 2.421 . S
O802 C819 1.262 . S
O803 Tb756 2.320 . S
O803 C819 1.260 . S
O804 Tb756 2.552 . S
O804 C812 1.243 . S
O805 Tb756 2.413 . S
O805 C820 1.256 . S
O806 Tb767 2.546 . S
O806 C831 1.251 . S
O807 Tb756 2.362 . S
O807 Tb767 2.610 . S
O807 C823 1.283 . S
O808 Tb756 2.421 . S
O808 C830 1.262 . S
O809 Tb767 2.320 . S
O809 C830 1.260 . S
O810 Tb767 2.552 . S
O810 C823 1.243 . S
O811 Tb767 2.413 . S
O811 C831 1.256 . S
C812 O801 1.283 . S
C812 O804 1.243 . S
C813 C815 1.382 . S
C813 C817 1.393 . S
C813 C820 1.500 . S
C814 C815 1.400 . S
C814 C816 1.384 . S
C815 C813 1.382 . S
C815 C814 1.400 . S
C815 H832 0.930 . S
C816 C814 1.384 . S
C816 C818 1.392 . S
C816 H833 0.931 . S
C817 C813 1.393 . S
C817 C818 1.401 . S
C817 H834 0.930 . S
C818 C816 1.392 . S
C818 C817 1.401 . S
C818 H835 0.930 . S
C819 O802 1.262 . S
C819 O803 1.260 . S
C820 Tb756 2.833 . S
C820 O800 1.251 . S
C820 O805 1.256 . S
C820 C813 1.500 . S
C821 H786 0.929 . S
C821 C799 1.444 . S
C821 C822 1.317 . S
C822 H784 0.930 . S
C822 C790 1.432 . S
C822 C821 1.317 . S
C823 O807 1.283 . S
C823 O810 1.243 . S
C824 C825 1.382 . S
C824 C828 1.393 . S
C824 C831 1.500 . S
C825 C824 1.382 . S
C825 C826 1.400 . S
C825 H836 0.930 . S
C826 C825 1.400 . S
C826 C827 1.384 . S
C827 C826 1.384 . S
C827 C829 1.392 . S
C827 H837 0.931 . S
C828 C824 1.393 . S
C828 C829 1.401 . S
C828 H838 0.930 . S
C829 C827 1.392 . S
C829 C828 1.401 . S
C829 H839 0.930 . S
C830 O808 1.262 . S
C830 O809 1.260 . S
C831 Tb767 2.833 . S
C831 O806 1.251 . S
C831 O811 1.256 . S
C831 C824 1.500 . S
H832 C815 0.930 . S
H833 C816 0.931 . S
H834 C817 0.930 . S
H835 C818 0.930 . S
H836 C825 0.930 . S
H837 C827 0.931 . S
H838 C828 0.930 . S
H839 C829 0.930 . S
Tb840 N871 2.660 . S
Tb840 N878 2.600 . S
Tb840 O884 2.546 1_545 S
Tb840 O885 2.610 . S
Tb840 O887 2.320 . S
Tb840 O888 2.552 1_545 S
Tb840 O889 2.413 . S
Tb840 O891 2.362 . S
Tb840 O892 2.421 1_545 S
Tb840 C904 2.833 . S
C841 C844 1.432 . S
C841 C845 1.414 . S
C841 N848 1.359 . S
C842 C844 1.417 1_565 S
C842 C846 1.432 1_565 S
C842 C854 1.410 . S
C843 C845 1.444 . S
C843 C846 1.317 . S
C843 H866 0.929 . S
C844 C841 1.432 . S
C844 C842 1.417 1_545 S
C844 N852 1.360 . S
C845 C841 1.414 . S
C845 C843 1.444 . S
C845 C850 1.385 . S
C846 C842 1.432 1_545 S
C846 C843 1.317 . S
C846 H858 0.930 1_545 S
C847 C849 1.392 . S
C847 C850 1.370 . S
C847 H859 0.931 . S
N848 C841 1.359 . S
N848 C849 1.327 . S
N848 Tb851 2.600 . S
C849 C847 1.392 . S
C849 N848 1.327 . S
C849 H856 0.930 . S
C850 C845 1.385 . S
C850 C847 1.370 . S
C850 H869 0.930 . S
Tb851 N848 2.600 . S
Tb851 N852 2.660 . S
Tb851 O885 2.362 1_556 S
Tb851 O886 2.421 1_556 S
Tb851 O890 2.546 . S
Tb851 O891 2.610 1_556 S
Tb851 O893 2.320 . S
Tb851 O894 2.552 . S
Tb851 O895 2.413 . S
Tb851 C915 2.833 . S
N852 C844 1.360 . S
N852 Tb851 2.660 . S
N852 C853 1.305 1_545 S
C853 N852 1.305 1_565 S
C853 C855 1.407 . S
C853 H860 0.930 . S
C854 C842 1.410 . S
C854 C855 1.345 . S
C854 H862 0.930 . S
C855 C853 1.407 . S
C855 C854 1.345 . S
C855 H857 0.930 . S
H856 C849 0.930 . S
H857 C855 0.930 . S
H858 C846 0.930 1_565 S
H859 C847 0.931 . S
H860 C853 0.930 . S
H861 C875 0.930 . S
H862 C854 0.930 . S
H863 C881 0.930 . S
H864 C872 0.930 . S
H865 C879 0.931 . S
H866 C843 0.929 . S
H867 C873 0.930 . S
H868 C906 0.930 . S
H869 C850 0.930 . S
H870 C905 0.929 . S
N871 Tb840 2.660 . S
N871 C872 1.305 . S
N871 C876 1.360 . S
C872 H864 0.930 . S
C872 N871 1.305 . S
C872 C875 1.407 . S
C873 H867 0.930 . S
C873 C874 1.410 . S
C873 C875 1.345 . S
C874 C873 1.410 . S
C874 C876 1.417 . S
C874 C906 1.432 . S
C875 H861 0.930 . S
C875 C872 1.407 . S
C875 C873 1.345 . S
C876 N871 1.360 . S
C876 C874 1.417 . S
C876 C880 1.432 . S
H877 C882 0.930 . S
N878 Tb840 2.600 . S
N878 C880 1.359 . S
N878 C881 1.327 1_545 S
C879 H865 0.931 . S
C879 C881 1.392 . S
C879 C882 1.370 . S
C880 C876 1.432 . S
C880 N878 1.359 . S
C880 C883 1.414 . S
C881 H863 0.930 . S
C881 N878 1.327 1_565 S
C881 C879 1.392 . S
C882 H877 0.930 . S
C882 C879 1.370 . S
C882 C883 1.385 1_565 S
C883 C880 1.414 . S
C883 C882 1.385 1_545 S
C883 C905 1.444 . S
O884 Tb840 2.546 1_565 S
O884 C904 1.251 1_565 S
O885 Tb840 2.610 . S
O885 Tb851 2.362 1_554 S
O885 C896 1.283 . S
O886 Tb851 2.421 1_554 S
O886 C903 1.262 . S
O887 Tb840 2.320 . S
O887 C903 1.260 . S
O888 Tb840 2.552 1_565 S
O888 C896 1.243 1_565 S
O889 Tb840 2.413 . S
O889 C904 1.256 . S
O890 Tb851 2.546 . S
O890 C915 1.251 . S
O891 Tb840 2.362 . S
O891 Tb851 2.610 1_554 S
O891 C907 1.283 . S
O892 Tb840 2.421 1_565 S
O892 C914 1.262 1_554 S
O893 Tb851 2.320 . S
O893 C914 1.260 1_545 S
O894 Tb851 2.552 . S
O894 C907 1.243 1_556 S
O895 Tb851 2.413 . S
O895 C915 1.256 . S
C896 O885 1.283 . S
C896 O888 1.243 1_545 S
C897 C899 1.382 1_565 S
C897 C901 1.393 . S
C897 C904 1.500 1_565 S
C898 C899 1.400 . S
C898 C900 1.384 1_545 S
C899 C897 1.382 1_545 S
C899 C898 1.400 . S
C899 H916 0.930 . S
C900 C898 1.384 1_565 S
C900 C902 1.392 . S
C900 H917 0.931 . S
C901 C897 1.393 . S
C901 C902 1.401 . S
C901 H918 0.930 . S
C902 C900 1.392 . S
C902 C901 1.401 . S
C902 H919 0.930 . S
C903 O886 1.262 . S
C903 O887 1.260 . S
C904 Tb840 2.833 . S
C904 O884 1.251 1_545 S
C904 O889 1.256 . S
C904 C897 1.500 1_545 S
C905 H870 0.929 . S
C905 C883 1.444 . S
C905 C906 1.317 . S
C906 H868 0.930 . S
C906 C874 1.432 . S
C906 C905 1.317 . S
C907 O891 1.283 . S
C907 O894 1.243 1_554 S
C908 C909 1.382 . S
C908 C912 1.393 . S
C908 C915 1.500 . S
C909 C908 1.382 . S
C909 C910 1.400 . S
C909 H920 0.930 . S
C910 C909 1.400 . S
C910 C911 1.384 . S
C911 C910 1.384 . S
C911 C913 1.392 . S
C911 H921 0.931 . S
C912 C908 1.393 . S
C912 C913 1.401 . S
C912 H922 0.930 . S
C913 C911 1.392 . S
C913 C912 1.401 . S
C913 H923 0.930 . S
C914 O892 1.262 1_556 S
C914 O893 1.260 1_565 S
C915 Tb851 2.833 . S
C915 O890 1.251 . S
C915 O895 1.256 . S
C915 C908 1.500 . S
H916 C899 0.930 . S
H917 C900 0.931 . S
H918 C901 0.930 . S
H919 C902 0.930 . S
H920 C909 0.930 . S
H921 C911 0.931 . S
H922 C912 0.930 . S
H923 C913 0.930 . S
Tb924 N955 2.660 . S
Tb924 N962 2.600 . S
Tb924 O968 2.546 . S
Tb924 O969 2.610 . S
Tb924 O971 2.320 . S
Tb924 O972 2.552 . S
Tb924 O973 2.413 . S
Tb924 O975 2.362 . S
Tb924 O976 2.421 . S
Tb924 C988 2.833 . S
C925 C928 1.432 . S
C925 C929 1.414 . S
C925 N932 1.359 . S
C926 C928 1.417 . S
C926 C930 1.432 . S
C926 C938 1.410 . S
C927 C929 1.444 . S
C927 C930 1.317 . S
C927 H950 0.929 . S
C928 C925 1.432 . S
C928 C926 1.417 . S
C928 N936 1.360 . S
C929 C925 1.414 . S
C929 C927 1.444 . S
C929 C934 1.385 . S
C930 C926 1.432 . S
C930 C927 1.317 . S
C930 H942 0.930 . S
C931 C933 1.392 . S
C931 C934 1.370 . S
C931 H943 0.931 . S
N932 C925 1.359 . S
N932 C933 1.327 . S
N932 Tb935 2.600 . S
C933 C931 1.392 . S
C933 N932 1.327 . S
C933 H940 0.930 . S
C934 C929 1.385 . S
C934 C931 1.370 . S
C934 H953 0.930 . S
Tb935 N932 2.600 . S
Tb935 N936 2.660 . S
Tb935 O969 2.362 . S
Tb935 O970 2.421 . S
Tb935 O974 2.546 . S
Tb935 O975 2.610 . S
Tb935 O977 2.320 . S
Tb935 O978 2.552 . S
Tb935 O979 2.413 . S
Tb935 C999 2.833 . S
N936 C928 1.360 . S
N936 Tb935 2.660 . S
N936 C937 1.305 . S
C937 N936 1.305 . S
C937 C939 1.407 . S
C937 H944 0.930 . S
C938 C926 1.410 . S
C938 C939 1.345 . S
C938 H946 0.930 . S
C939 C937 1.407 . S
C939 C938 1.345 . S
C939 H941 0.930 . S
H940 C933 0.930 . S
H941 C939 0.930 . S
H942 C930 0.930 . S
H943 C931 0.931 . S
H944 C937 0.930 . S
H945 C959 0.930 . S
H946 C938 0.930 . S
H947 C965 0.930 . S
H948 C956 0.930 . S
H949 C963 0.931 . S
H950 C927 0.929 . S
H951 C957 0.930 . S
H952 C990 0.930 . S
H953 C934 0.930 . S
H954 C989 0.929 . S
N955 Tb924 2.660 . S
N955 C956 1.305 . S
N955 C960 1.360 . S
C956 H948 0.930 . S
C956 N955 1.305 . S
C956 C959 1.407 . S
C957 H951 0.930 . S
C957 C958 1.410 . S
C957 C959 1.345 . S
C958 C957 1.410 . S
C958 C960 1.417 . S
C958 C990 1.432 . S
C959 H945 0.930 . S
C959 C956 1.407 . S
C959 C957 1.345 . S
C960 N955 1.360 . S
C960 C958 1.417 . S
C960 C964 1.432 . S
H961 C966 0.930 . S
N962 Tb924 2.600 . S
N962 C964 1.359 . S
N962 C965 1.327 . S
C963 H949 0.931 . S
C963 C965 1.392 . S
C963 C966 1.370 . S
C964 C960 1.432 . S
C964 N962 1.359 . S
C964 C967 1.414 . S
C965 H947 0.930 . S
C965 N962 1.327 . S
C965 C963 1.392 . S
C966 H961 0.930 . S
C966 C963 1.370 . S
C966 C967 1.385 . S
C967 C964 1.414 . S
C967 C966 1.385 . S
C967 C989 1.444 . S
O968 Tb924 2.546 . S
O968 C988 1.251 . S
O969 Tb924 2.610 . S
O969 Tb935 2.362 . S
O969 C980 1.283 . S
O970 Tb935 2.421 . S
O970 C987 1.262 . S
O971 Tb924 2.320 . S
O971 C987 1.260 . S
O972 Tb924 2.552 . S
O972 C980 1.243 . S
O973 Tb924 2.413 . S
O973 C988 1.256 . S
O974 Tb935 2.546 . S
O974 C999 1.251 . S
O975 Tb924 2.362 . S
O975 Tb935 2.610 . S
O975 C991 1.283 . S
O976 Tb924 2.421 . S
O976 C998 1.262 . S
O977 Tb935 2.320 . S
O977 C998 1.260 . S
O978 Tb935 2.552 . S
O978 C991 1.243 . S
O979 Tb935 2.413 . S
O979 C999 1.256 . S
C980 O969 1.283 . S
C980 O972 1.243 . S
C981 C983 1.382 . S
C981 C985 1.393 . S
C981 C988 1.500 . S
C982 C983 1.400 . S
C982 C984 1.384 . S
C983 C981 1.382 . S
C983 C982 1.400 . S
C983 H1000 0.930 . S
C984 C982 1.384 . S
C984 C986 1.392 . S
C984 H1001 0.931 . S
C985 C981 1.393 . S
C985 C986 1.401 . S
C985 H1002 0.930 . S
C986 C984 1.392 . S
C986 C985 1.401 . S
C986 H1003 0.930 . S
C987 O970 1.262 . S
C987 O971 1.260 . S
C988 Tb924 2.833 . S
C988 O968 1.251 . S
C988 O973 1.256 . S
C988 C981 1.500 . S
C989 H954 0.929 . S
C989 C967 1.444 . S
C989 C990 1.317 . S
C990 H952 0.930 . S
C990 C958 1.432 . S
C990 C989 1.317 . S
C991 O975 1.283 . S
C991 O978 1.243 . S
C992 C993 1.382 . S
C992 C996 1.393 . S
C992 C999 1.500 . S
C993 C992 1.382 . S
C993 C994 1.400 . S
C993 H1004 0.930 . S
C994 C993 1.400 . S
C994 C995 1.384 . S
C995 C994 1.384 . S
C995 C997 1.392 . S
C995 H1005 0.931 . S
C996 C992 1.393 . S
C996 C997 1.401 . S
C996 H1006 0.930 . S
C997 C995 1.392 . S
C997 C996 1.401 . S
C997 H1007 0.930 . S
C998 O976 1.262 . S
C998 O977 1.260 . S
C999 Tb935 2.833 . S
C999 O974 1.251 . S
C999 O979 1.256 . S
C999 C992 1.500 . S
H1000 C983 0.930 . S
H1001 C984 0.931 . S
H1002 C985 0.930 . S
H1003 C986 0.930 . S
H1004 C993 0.930 . S
H1005 C995 0.931 . S
H1006 C996 0.930 . S
H1007 C997 0.930 . S
Tb1008 N1039 2.660 . S
Tb1008 N1046 2.600 . S
Tb1008 O1052 2.546 . S
Tb1008 O1053 2.610 1_554 S
Tb1008 O1055 2.320 . S
Tb1008 O1056 2.552 1_554 S
Tb1008 O1057 2.413 . S
Tb1008 O1059 2.362 . S
Tb1008 O1060 2.421 . S
Tb1008 C1072 2.833 . S
C1009 C1012 1.432 . S
C1009 C1013 1.414 . S
C1009 N1016 1.359 . S
C1010 C1012 1.417 . S
C1010 C1014 1.432 . S
C1010 C1022 1.410 . S
C1011 C1013 1.444 . S
C1011 C1014 1.317 . S
C1011 H1034 0.929 . S
C1012 C1009 1.432 . S
C1012 C1010 1.417 . S
C1012 N1020 1.360 . S
C1013 C1009 1.414 . S
C1013 C1011 1.444 . S
C1013 C1018 1.385 . S
C1014 C1010 1.432 . S
C1014 C1011 1.317 . S
C1014 H1026 0.930 . S
C1015 C1017 1.392 . S
C1015 C1018 1.370 . S
C1015 H1027 0.931 . S
N1016 C1009 1.359 . S
N1016 C1017 1.327 . S
N1016 Tb1019 2.591 1_556 S
C1017 C1015 1.392 . S
C1017 N1016 1.327 . S
C1017 H1024 0.930 . S
C1018 C1013 1.385 . S
C1018 C1015 1.370 . S
C1018 H1037 0.930 . S
Tb1019 N1016 2.591 1_554 S
Tb1019 N1020 2.652 1_554 S
Tb1019 O1053 2.356 1_554 S
Tb1019 O1054 2.418 . S
Tb1019 O1058 2.548 . S
Tb1019 O1059 2.617 . S
Tb1019 O1061 2.324 . S
Tb1019 O1062 2.563 . S
Tb1019 O1063 2.418 . S
Tb1019 C1083 2.836 . S
N1020 C1012 1.360 . S
N1020 Tb1019 2.652 1_556 S
N1020 C1021 1.305 . S
C1021 N1020 1.305 . S
C1021 C1023 1.407 . S
C1021 H1028 0.930 . S
C1022 C1010 1.410 . S
C1022 C1023 1.345 . S
C1022 H1030 0.930 . S
C1023 C1021 1.407 . S
C1023 C1022 1.345 . S
C1023 H1025 0.930 . S
H1024 C1017 0.930 . S
H1025 C1023 0.930 . S
H1026 C1014 0.930 . S
H1027 C1015 0.931 . S
H1028 C1021 0.930 . S
H1029 C1043 0.930 . S
H1030 C1022 0.930 . S
H1031 C1049 0.930 . S
H1032 C1040 0.930 . S
H1033 C1047 0.931 . S
H1034 C1011 0.929 . S
H1035 C1041 0.930 . S
H1036 C1074 0.930 . S
H1037 C1018 0.930 . S
H1038 C1073 0.929 . S
N1039 Tb1008 2.660 . S
N1039 C1040 1.305 . S
N1039 C1044 1.360 . S
C1040 H1032 0.930 . S
C1040 N1039 1.305 . S
C1040 C1043 1.407 . S
C1041 H1035 0.930 . S
C1041 C1042 1.410 . S
C1041 C1043 1.345 . S
C1042 C1041 1.410 . S
C1042 C1044 1.417 . S
C1042 C1074 1.432 . S
C1043 H1029 0.930 . S
C1043 C1040 1.407 . S
C1043 C1041 1.345 . S
C1044 N1039 1.360 . S
C1044 C1042 1.417 . S
C1044 C1048 1.432 . S
H1045 C1050 0.930 . S
N1046 Tb1008 2.600 . S
N1046 C1048 1.359 . S
N1046 C1049 1.327 . S
C1047 H1033 0.931 . S
C1047 C1049 1.392 . S
C1047 C1050 1.370 . S
C1048 C1044 1.432 . S
C1048 N1046 1.359 . S
C1048 C1051 1.414 . S
C1049 H1031 0.930 . S
C1049 N1046 1.327 . S
C1049 C1047 1.392 . S
C1050 H1045 0.930 . S
C1050 C1047 1.370 . S
C1050 C1051 1.385 . S
C1051 C1048 1.414 . S
C1051 C1050 1.385 . S
C1051 C1073 1.444 . S
O1052 Tb1008 2.546 . S
O1052 C1072 1.251 . S
O1053 Tb1008 2.610 1_556 S
O1053 Tb1019 2.356 1_556 S
O1053 C1064 1.283 . S
O1054 Tb1019 2.418 . S
O1054 C1071 1.262 . S
O1055 Tb1008 2.320 . S
O1055 C1071 1.260 . S
O1056 Tb1008 2.552 1_556 S
O1056 C1064 1.243 . S
O1057 Tb1008 2.413 . S
O1057 C1072 1.256 . S
O1058 Tb1019 2.548 . S
O1058 C1083 1.251 . S
O1059 Tb1008 2.362 . S
O1059 Tb1019 2.617 . S
O1059 C1075 1.283 . S
O1060 Tb1008 2.421 . S
O1060 C1082 1.262 . S
O1061 Tb1019 2.324 . S
O1061 C1082 1.260 . S
O1062 Tb1019 2.563 . S
O1062 C1075 1.243 . S
O1063 Tb1019 2.418 . S
O1063 C1083 1.256 . S
C1064 O1053 1.283 . S
C1064 O1056 1.243 . S
C1065 C1067 1.382 . S
C1065 C1069 1.393 . S
C1065 C1072 1.500 . S
C1066 C1067 1.400 1_556 S
C1066 C1068 1.384 1_556 S
C1067 C1065 1.382 . S
C1067 C1066 1.400 1_554 S
C1067 H1084 0.930 1_554 S
C1068 C1066 1.384 1_554 S
C1068 C1070 1.392 . S
C1068 H1085 0.931 . S
C1069 C1065 1.393 . S
C1069 C1070 1.401 . S
C1069 H1086 0.930 . S
C1070 C1068 1.392 . S
C1070 C1069 1.401 . S
C1070 H1087 0.930 . S
C1071 O1054 1.262 . S
C1071 O1055 1.260 . S
C1072 Tb1008 2.833 . S
C1072 O1052 1.251 . S
C1072 O1057 1.256 . S
C1072 C1065 1.500 . S
C1073 H1038 0.929 . S
C1073 C1051 1.444 . S
C1073 C1074 1.317 . S
C1074 H1036 0.930 . S
C1074 C1042 1.432 . S
C1074 C1073 1.317 . S
C1075 O1059 1.283 . S
C1075 O1062 1.243 . S
C1076 C1077 1.382 . S
C1076 C1080 1.393 . S
C1076 C1083 1.500 . S
C1077 C1076 1.382 . S
C1077 C1078 1.400 . S
C1077 H1088 0.930 . S
C1078 C1077 1.400 . S
C1078 C1079 1.384 . S
C1079 C1078 1.384 . S
C1079 C1081 1.392 . S
C1079 H1089 0.931 . S
C1080 C1076 1.393 . S
C1080 C1081 1.401 . S
C1080 H1090 0.930 1_554 S
C1081 C1079 1.392 . S
C1081 C1080 1.401 . S
C1081 H1091 0.930 . S
C1082 O1060 1.262 . S
C1082 O1061 1.260 . S
C1083 Tb1019 2.836 . S
C1083 O1058 1.251 . S
C1083 O1063 1.256 . S
C1083 C1076 1.500 . S
H1084 C1067 0.930 1_556 S
H1085 C1068 0.931 . S
H1086 C1069 0.930 . S
H1087 C1070 0.930 . S
H1088 C1077 0.930 . S
H1089 C1079 0.931 . S
H1090 C1080 0.930 1_556 S
H1091 C1081 0.930 . S
Tb1092 N1123 2.660 . S
Tb1092 N1130 2.600 . S
Tb1092 O1136 2.546 . S
Tb1092 O1137 2.610 . S
Tb1092 O1139 2.320 . S
Tb1092 O1140 2.552 . S
Tb1092 O1141 2.413 . S
Tb1092 O1143 2.362 . S
Tb1092 O1144 2.421 . S
Tb1092 C1156 2.833 . S
C1093 C1096 1.432 . S
C1093 C1097 1.414 . S
C1093 N1100 1.359 . S
C1094 C1096 1.417 . S
C1094 C1098 1.432 . S
C1094 C1106 1.410 . S
C1095 C1097 1.444 . S
C1095 C1098 1.317 . S
C1095 H1118 0.929 . S
C1096 C1093 1.432 . S
C1096 C1094 1.417 . S
C1096 N1104 1.360 . S
C1097 C1093 1.414 . S
C1097 C1095 1.444 . S
C1097 C1102 1.385 . S
C1098 C1094 1.432 . S
C1098 C1095 1.317 . S
C1098 H1110 0.930 . S
C1099 C1101 1.392 . S
C1099 C1102 1.370 . S
C1099 H1111 0.931 . S
N1100 C1093 1.359 . S
N1100 C1101 1.327 . S
N1100 Tb1103 2.600 . S
C1101 C1099 1.392 . S
C1101 N1100 1.327 . S
C1101 H1108 0.930 . S
C1102 C1097 1.385 . S
C1102 C1099 1.370 . S
C1102 H1121 0.930 . S
Tb1103 N1100 2.600 . S
Tb1103 N1104 2.660 . S
Tb1103 O1137 2.362 . S
Tb1103 O1138 2.421 . S
Tb1103 O1142 2.546 . S
Tb1103 O1143 2.610 . S
Tb1103 O1145 2.320 . S
Tb1103 O1146 2.552 . S
Tb1103 O1147 2.413 . S
Tb1103 C1167 2.833 . S
N1104 C1096 1.360 . S
N1104 Tb1103 2.660 . S
N1104 C1105 1.305 . S
C1105 N1104 1.305 . S
C1105 C1107 1.407 . S
C1105 H1112 0.930 . S
C1106 C1094 1.410 . S
C1106 C1107 1.345 . S
C1106 H1114 0.930 . S
C1107 C1105 1.407 . S
C1107 C1106 1.345 . S
C1107 H1109 0.930 . S
H1108 C1101 0.930 . S
H1109 C1107 0.930 . S
H1110 C1098 0.930 . S
H1111 C1099 0.931 . S
H1112 C1105 0.930 . S
H1113 C1127 0.930 . S
H1114 C1106 0.930 . S
H1115 C1133 0.930 . S
H1116 C1124 0.930 . S
H1117 C1131 0.931 . S
H1118 C1095 0.929 . S
H1119 C1125 0.930 . S
H1120 C1158 0.930 . S
H1121 C1102 0.930 . S
H1122 C1157 0.929 . S
N1123 Tb1092 2.660 . S
N1123 C1124 1.305 . S
N1123 C1128 1.360 . S
C1124 H1116 0.930 . S
C1124 N1123 1.305 . S
C1124 C1127 1.407 . S
C1125 H1119 0.930 . S
C1125 C1126 1.410 . S
C1125 C1127 1.345 . S
C1126 C1125 1.410 . S
C1126 C1128 1.417 . S
C1126 C1158 1.432 . S
C1127 H1113 0.930 . S
C1127 C1124 1.407 . S
C1127 C1125 1.345 . S
C1128 N1123 1.360 . S
C1128 C1126 1.417 . S
C1128 C1132 1.432 . S
H1129 C1134 0.930 . S
N1130 Tb1092 2.600 . S
N1130 C1132 1.359 . S
N1130 C1133 1.327 . S
C1131 H1117 0.931 . S
C1131 C1133 1.392 . S
C1131 C1134 1.370 . S
C1132 C1128 1.432 . S
C1132 N1130 1.359 . S
C1132 C1135 1.414 . S
C1133 H1115 0.930 . S
C1133 N1130 1.327 . S
C1133 C1131 1.392 . S
C1134 H1129 0.930 . S
C1134 C1131 1.370 . S
C1134 C1135 1.385 . S
C1135 C1132 1.414 . S
C1135 C1134 1.385 . S
C1135 C1157 1.444 . S
O1136 Tb1092 2.546 . S
O1136 C1156 1.251 . S
O1137 Tb1092 2.610 . S
O1137 Tb1103 2.362 . S
O1137 C1148 1.283 . S
O1138 Tb1103 2.421 . S
O1138 C1155 1.262 . S
O1139 Tb1092 2.320 . S
O1139 C1155 1.260 . S
O1140 Tb1092 2.552 . S
O1140 C1148 1.243 . S
O1141 Tb1092 2.413 . S
O1141 C1156 1.256 . S
O1142 Tb1103 2.546 . S
O1142 C1167 1.251 . S
O1143 Tb1092 2.362 . S
O1143 Tb1103 2.610 . S
O1143 C1159 1.283 . S
O1144 Tb1092 2.421 . S
O1144 C1166 1.262 . S
O1145 Tb1103 2.320 . S
O1145 C1166 1.260 . S
O1146 Tb1103 2.552 . S
O1146 C1159 1.243 . S
O1147 Tb1103 2.413 . S
O1147 C1167 1.256 . S
C1148 O1137 1.283 . S
C1148 O1140 1.243 . S
C1149 C1151 1.382 . S
C1149 C1153 1.393 . S
C1149 C1156 1.500 . S
C1150 C1151 1.400 1_455 S
C1150 C1152 1.384 . S
C1151 C1149 1.382 . S
C1151 C1150 1.400 1_655 S
C1151 H1168 0.930 . S
C1152 C1150 1.384 . S
C1152 C1154 1.392 . S
C1152 H1169 0.931 . S
C1153 C1149 1.393 . S
C1153 C1154 1.401 1_655 S
C1153 H1170 0.930 . S
C1154 C1152 1.392 . S
C1154 C1153 1.401 1_455 S
C1154 H1171 0.930 . S
C1155 O1138 1.262 . S
C1155 O1139 1.260 . S
C1156 Tb1092 2.833 . S
C1156 O1136 1.251 . S
C1156 O1141 1.256 . S
C1156 C1149 1.500 . S
C1157 H1122 0.929 . S
C1157 C1135 1.444 . S
C1157 C1158 1.317 . S
C1158 H1120 0.930 . S
C1158 C1126 1.432 . S
C1158 C1157 1.317 . S
C1159 O1143 1.283 . S
C1159 O1146 1.243 . S
C1160 C1161 1.382 . S
C1160 C1164 1.393 . S
C1160 C1167 1.500 . S
C1161 C1160 1.382 . S
C1161 C1162 1.400 . S
C1161 H1172 0.930 . S
C1162 C1161 1.400 . S
C1162 C1163 1.384 . S
C1163 C1162 1.384 . S
C1163 C1165 1.392 . S
C1163 H1173 0.931 . S
C1164 C1160 1.393 . S
C1164 C1165 1.401 . S
C1164 H1174 0.930 . S
C1165 C1163 1.392 . S
C1165 C1164 1.401 . S
C1165 H1175 0.930 . S
C1166 O1144 1.262 . S
C1166 O1145 1.260 . S
C1167 Tb1103 2.833 . S
C1167 O1142 1.251 . S
C1167 O1147 1.256 . S
C1167 C1160 1.500 . S
H1168 C1151 0.930 . S
H1169 C1152 0.931 . S
H1170 C1153 0.930 . S
H1171 C1154 0.930 . S
H1172 C1161 0.930 . S
H1173 C1163 0.931 . S
H1174 C1164 0.930 . S
H1175 C1165 0.930 . S
Tb1176 N1207 2.660 . S
Tb1176 N1214 2.600 . S
Tb1176 O1220 2.546 . S
Tb1176 O1221 2.610 . S
Tb1176 O1223 2.320 . S
Tb1176 O1224 2.552 . S
Tb1176 O1225 2.413 . S
Tb1176 O1227 2.362 . S
Tb1176 O1228 2.421 . S
Tb1176 C1240 2.833 . S
C1177 C1180 1.433 1_455 S
C1177 C1181 1.410 1_455 S
C1177 N1184 1.362 . S
C1178 C1180 1.417 . S
C1178 C1182 1.432 . S
C1178 C1190 1.410 . S
C1179 C1181 1.444 . S
C1179 C1182 1.317 . S
C1179 H1202 0.929 . S
C1180 C1177 1.433 1_655 S
C1180 C1178 1.417 . S
C1180 N1188 1.360 1_655 S
C1181 C1177 1.410 1_655 S
C1181 C1179 1.444 . S
C1181 C1186 1.385 . S
C1182 C1178 1.432 . S
C1182 C1179 1.317 . S
C1182 H1194 0.930 . S
C1183 C1185 1.392 . S
C1183 C1186 1.370 1_455 S
C1183 H1195 0.931 . S
N1184 C1177 1.362 . S
N1184 C1185 1.327 . S
N1184 Tb1187 2.600 . S
C1185 C1183 1.392 . S
C1185 N1184 1.327 . S
C1185 H1192 0.930 . S
C1186 C1181 1.385 . S
C1186 C1183 1.370 1_655 S
C1186 H1205 0.930 . S
Tb1187 N1184 2.600 . S
Tb1187 N1188 2.660 . S
Tb1187 O1221 2.362 . S
Tb1187 O1222 2.421 . S
Tb1187 O1226 2.546 . S
Tb1187 O1227 2.610 . S
Tb1187 O1229 2.320 . S
Tb1187 O1230 2.552 . S
Tb1187 O1231 2.413 . S
Tb1187 C1251 2.833 . S
N1188 C1180 1.360 1_455 S
N1188 Tb1187 2.660 . S
N1188 C1189 1.305 . S
C1189 N1188 1.305 . S
C1189 C1191 1.407 1_455 S
C1189 H1196 0.930 . S
C1190 C1178 1.410 . S
C1190 C1191 1.345 . S
C1190 H1198 0.930 . S
C1191 C1189 1.407 1_655 S
C1191 C1190 1.345 . S
C1191 H1193 0.930 . S
H1192 C1185 0.930 . S
H1193 C1191 0.930 . S
H1194 C1182 0.930 . S
H1195 C1183 0.931 . S
H1196 C1189 0.930 . S
H1197 C1211 0.930 . S
H1198 C1190 0.930 . S
H1199 C1217 0.930 . S
H1200 C1208 0.930 . S
H1201 C1215 0.931 . S
H1202 C1179 0.929 . S
H1203 C1209 0.930 . S
H1204 C1242 0.930 . S
H1205 C1186 0.930 . S
H1206 C1241 0.929 . S
N1207 Tb1176 2.660 . S
N1207 C1208 1.305 . S
N1207 C1212 1.360 . S
C1208 H1200 0.930 . S
C1208 N1207 1.305 . S
C1208 C1211 1.407 . S
C1209 H1203 0.930 . S
C1209 C1210 1.410 . S
C1209 C1211 1.345 . S
C1210 C1209 1.410 . S
C1210 C1212 1.417 . S
C1210 C1242 1.432 . S
C1211 H1197 0.930 . S
C1211 C1208 1.407 . S
C1211 C1209 1.345 . S
C1212 N1207 1.360 . S
C1212 C1210 1.417 . S
C1212 C1216 1.432 . S
H1213 C1218 0.930 . S
N1214 Tb1176 2.600 . S
N1214 C1216 1.359 . S
N1214 C1217 1.327 . S
C1215 H1201 0.931 . S
C1215 C1217 1.392 . S
C1215 C1218 1.370 . S
C1216 C1212 1.432 . S
C1216 N1214 1.359 . S
C1216 C1219 1.414 . S
C1217 H1199 0.930 . S
C1217 N1214 1.327 . S
C1217 C1215 1.392 . S
C1218 H1213 0.930 . S
C1218 C1215 1.370 . S
C1218 C1219 1.385 . S
C1219 C1216 1.414 . S
C1219 C1218 1.385 . S
C1219 C1241 1.444 . S
O1220 Tb1176 2.546 . S
O1220 C1240 1.251 . S
O1221 Tb1176 2.610 . S
O1221 Tb1187 2.362 . S
O1221 C1232 1.283 . S
O1222 Tb1187 2.421 . S
O1222 C1239 1.262 . S
O1223 Tb1176 2.320 . S
O1223 C1239 1.260 . S
O1224 Tb1176 2.552 . S
O1224 C1232 1.243 . S
O1225 Tb1176 2.413 . S
O1225 C1240 1.256 . S
O1226 Tb1187 2.546 . S
O1226 C1251 1.251 . S
O1227 Tb1176 2.362 . S
O1227 Tb1187 2.610 . S
O1227 C1243 1.283 . S
O1228 Tb1176 2.421 . S
O1228 C1250 1.262 . S
O1229 Tb1187 2.320 . S
O1229 C1250 1.260 . S
O1230 Tb1187 2.552 . S
O1230 C1243 1.243 . S
O1231 Tb1187 2.413 . S
O1231 C1251 1.256 . S
C1232 O1221 1.283 . S
C1232 O1224 1.243 . S
C1233 C1235 1.382 . S
C1233 C1237 1.393 . S
C1233 C1240 1.500 . S
C1234 C1235 1.400 . S
C1234 C1236 1.384 . S
C1235 C1233 1.382 . S
C1235 C1234 1.400 . S
C1235 H1252 0.930 . S
C1236 C1234 1.384 . S
C1236 C1238 1.392 . S
C1236 H1253 0.931 1_455 S
C1237 C1233 1.393 . S
C1237 C1238 1.401 . S
C1237 H1254 0.930 . S
C1238 C1236 1.392 . S
C1238 C1237 1.401 . S
C1238 H1255 0.930 . S
C1239 O1222 1.262 . S
C1239 O1223 1.260 . S
C1240 Tb1176 2.833 . S
C1240 O1220 1.251 . S
C1240 O1225 1.256 . S
C1240 C1233 1.500 . S
C1241 H1206 0.929 . S
C1241 C1219 1.444 . S
C1241 C1242 1.317 . S
C1242 H1204 0.930 . S
C1242 C1210 1.432 . S
C1242 C1241 1.317 . S
C1243 O1227 1.283 . S
C1243 O1230 1.243 . S
C1244 C1245 1.382 . S
C1244 C1248 1.393 . S
C1244 C1251 1.500 . S
C1245 C1244 1.382 . S
C1245 C1246 1.400 . S
C1245 H1256 0.930 . S
C1246 C1245 1.400 . S
C1246 C1247 1.384 . S
C1247 C1246 1.384 . S
C1247 C1249 1.392 . S
C1247 H1257 0.931 . S
C1248 C1244 1.393 . S
C1248 C1249 1.401 . S
C1248 H1258 0.930 . S
C1249 C1247 1.392 . S
C1249 C1248 1.401 . S
C1249 H1259 0.930 . S
C1250 O1228 1.262 . S
C1250 O1229 1.260 . S
C1251 Tb1187 2.833 . S
C1251 O1226 1.251 . S
C1251 O1231 1.256 . S
C1251 C1244 1.500 . S
H1252 C1235 0.930 . S
H1253 C1236 0.931 1_655 S
H1254 C1237 0.930 . S
H1255 C1238 0.930 . S
H1256 C1245 0.930 . S
H1257 C1247 0.931 . S
H1258 C1248 0.930 . S
H1259 C1249 0.930 . S
Tb1260 N1291 2.660 . S
Tb1260 N1298 2.600 . S
Tb1260 O1304 2.546 . S
Tb1260 O1305 2.610 . S
Tb1260 O1307 2.320 . S
Tb1260 O1308 2.552 . S
Tb1260 O1309 2.413 . S
Tb1260 O1311 2.362 . S
Tb1260 O1312 2.421 . S
Tb1260 C1324 2.833 . S
C1261 C1264 1.432 . S
C1261 C1265 1.414 . S
C1261 N1268 1.359 . S
C1262 C1264 1.417 . S
C1262 C1266 1.432 . S
C1262 C1274 1.410 . S
C1263 C1265 1.444 . S
C1263 C1266 1.317 . S
C1263 H1286 0.929 . S
C1264 C1261 1.432 . S
C1264 C1262 1.417 . S
C1264 N1272 1.360 . S
C1265 C1261 1.414 . S
C1265 C1263 1.444 . S
C1265 C1270 1.385 . S
C1266 C1262 1.432 . S
C1266 C1263 1.317 . S
C1266 H1278 0.930 . S
C1267 C1269 1.392 . S
C1267 C1270 1.370 . S
C1267 H1279 0.931 . S
N1268 C1261 1.359 . S
N1268 C1269 1.327 . S
N1268 Tb1271 2.600 . S
C1269 C1267 1.392 . S
C1269 N1268 1.327 . S
C1269 H1276 0.930 . S
C1270 C1265 1.385 . S
C1270 C1267 1.370 . S
C1270 H1289 0.930 . S
Tb1271 N1268 2.600 . S
Tb1271 N1272 2.660 . S
Tb1271 O1305 2.362 . S
Tb1271 O1306 2.421 . S
Tb1271 O1310 2.546 . S
Tb1271 O1311 2.610 . S
Tb1271 O1313 2.320 . S
Tb1271 O1314 2.552 . S
Tb1271 O1315 2.413 . S
Tb1271 C1335 2.833 . S
N1272 C1264 1.360 . S
N1272 Tb1271 2.660 . S
N1272 C1273 1.305 . S
C1273 N1272 1.305 . S
C1273 C1275 1.407 . S
C1273 H1280 0.930 . S
C1274 C1262 1.410 . S
C1274 C1275 1.345 . S
C1274 H1282 0.930 . S
C1275 C1273 1.407 . S
C1275 C1274 1.345 . S
C1275 H1277 0.930 . S
H1276 C1269 0.930 . S
H1277 C1275 0.930 . S
H1278 C1266 0.930 . S
H1279 C1267 0.931 . S
H1280 C1273 0.930 . S
H1281 C1295 0.930 . S
H1282 C1274 0.930 . S
H1283 C1301 0.930 . S
H1284 C1292 0.930 . S
H1285 C1299 0.931 . S
H1286 C1263 0.929 . S
H1287 C1293 0.930 . S
H1288 C1326 0.930 . S
H1289 C1270 0.930 . S
H1290 C1325 0.929 . S
N1291 Tb1260 2.660 . S
N1291 C1292 1.305 . S
N1291 C1296 1.360 . S
C1292 H1284 0.930 . S
C1292 N1291 1.305 . S
C1292 C1295 1.407 . S
C1293 H1287 0.930 . S
C1293 C1294 1.410 . S
C1293 C1295 1.345 . S
C1294 C1293 1.410 . S
C1294 C1296 1.417 . S
C1294 C1326 1.432 . S
C1295 H1281 0.930 . S
C1295 C1292 1.407 . S
C1295 C1293 1.345 . S
C1296 N1291 1.360 . S
C1296 C1294 1.417 . S
C1296 C1300 1.432 . S
H1297 C1302 0.930 . S
N1298 Tb1260 2.600 . S
N1298 C1300 1.359 . S
N1298 C1301 1.327 . S
C1299 H1285 0.931 . S
C1299 C1301 1.392 . S
C1299 C1302 1.370 . S
C1300 C1296 1.432 . S
C1300 N1298 1.359 . S
C1300 C1303 1.414 . S
C1301 H1283 0.930 . S
C1301 N1298 1.327 . S
C1301 C1299 1.392 . S
C1302 H1297 0.930 . S
C1302 C1299 1.370 . S
C1302 C1303 1.385 . S
C1303 C1300 1.414 . S
C1303 C1302 1.385 . S
C1303 C1325 1.444 . S
O1304 Tb1260 2.546 . S
O1304 C1324 1.251 . S
O1305 Tb1260 2.610 . S
O1305 Tb1271 2.362 . S
O1305 C1316 1.283 . S
O1306 Tb1271 2.421 . S
O1306 C1323 1.262 . S
O1307 Tb1260 2.320 . S
O1307 C1323 1.260 . S
O1308 Tb1260 2.552 . S
O1308 C1316 1.243 . S
O1309 Tb1260 2.413 . S
O1309 C1324 1.256 . S
O1310 Tb1271 2.546 . S
O1310 C1335 1.251 . S
O1311 Tb1260 2.362 . S
O1311 Tb1271 2.610 . S
O1311 C1327 1.283 . S
O1312 Tb1260 2.421 . S
O1312 C1334 1.262 . S
O1313 Tb1271 2.320 . S
O1313 C1334 1.260 . S
O1314 Tb1271 2.552 . S
O1314 C1327 1.243 . S
O1315 Tb1271 2.413 . S
O1315 C1335 1.256 . S
C1316 O1305 1.283 . S
C1316 O1308 1.243 . S
C1317 C1319 1.382 . S
C1317 C1321 1.393 . S
C1317 C1324 1.500 . S
C1318 C1319 1.400 . S
C1318 C1320 1.384 . S
C1319 C1317 1.382 . S
C1319 C1318 1.400 . S
C1319 H1336 0.930 . S
C1320 C1318 1.384 . S
C1320 C1322 1.392 . S
C1320 H1337 0.931 . S
C1321 C1317 1.393 . S
C1321 C1322 1.401 . S
C1321 H1338 0.930 . S
C1322 C1320 1.392 . S
C1322 C1321 1.401 . S
C1322 H1339 0.930 . S
C1323 O1306 1.262 . S
C1323 O1307 1.260 . S
C1324 Tb1260 2.833 . S
C1324 O1304 1.251 . S
C1324 O1309 1.256 . S
C1324 C1317 1.500 . S
C1325 H1290 0.929 . S
C1325 C1303 1.444 . S
C1325 C1326 1.317 . S
C1326 H1288 0.930 . S
C1326 C1294 1.432 . S
C1326 C1325 1.317 . S
C1327 O1311 1.283 . S
C1327 O1314 1.243 . S
C1328 C1329 1.382 . S
C1328 C1332 1.393 . S
C1328 C1335 1.500 . S
C1329 C1328 1.382 . S
C1329 C1330 1.400 . S
C1329 H1340 0.930 . S
C1330 C1329 1.400 . S
C1330 C1331 1.384 . S
C1331 C1330 1.384 . S
C1331 C1333 1.392 . S
C1331 H1341 0.931 1_655 S
C1332 C1328 1.393 . S
C1332 C1333 1.401 . S
C1332 H1342 0.930 . S
C1333 C1331 1.392 . S
C1333 C1332 1.401 . S
C1333 H1343 0.930 . S
C1334 O1312 1.262 . S
C1334 O1313 1.260 . S
C1335 Tb1271 2.833 . S
C1335 O1310 1.251 . S
C1335 O1315 1.256 . S
C1335 C1328 1.500 . S
H1336 C1319 0.930 . S
H1337 C1320 0.931 . S
H1338 C1321 0.930 . S
H1339 C1322 0.930 . S
H1340 C1329 0.930 . S
H1341 C1331 0.931 1_455 S
H1342 C1332 0.930 . S
H1343 C1333 0.930 . S
Tb1344 N1375 2.660 . S
Tb1344 N1382 2.600 . S
Tb1344 O1388 2.546 . S
Tb1344 O1389 2.610 . S
Tb1344 O1391 2.320 . S
Tb1344 O1392 2.552 . S
Tb1344 O1393 2.413 . S
Tb1344 O1395 2.362 . S
Tb1344 O1396 2.421 . S
Tb1344 C1408 2.833 . S
C1345 C1348 1.432 . S
C1345 C1349 1.414 . S
C1345 N1352 1.359 . S
C1346 C1348 1.417 . S
C1346 C1350 1.432 . S
C1346 C1358 1.410 . S
C1347 C1349 1.444 . S
C1347 C1350 1.317 . S
C1347 H1370 0.929 . S
C1348 C1345 1.432 . S
C1348 C1346 1.417 . S
C1348 N1356 1.360 . S
C1349 C1345 1.414 . S
C1349 C1347 1.444 . S
C1349 C1354 1.385 . S
C1350 C1346 1.432 . S
C1350 C1347 1.317 . S
C1350 H1362 0.930 . S
C1351 C1353 1.392 . S
C1351 C1354 1.370 . S
C1351 H1363 0.931 . S
N1352 C1345 1.359 . S
N1352 C1353 1.327 . S
N1352 Tb1355 2.600 . S
C1353 C1351 1.392 . S
C1353 N1352 1.327 . S
C1353 H1360 0.930 . S
C1354 C1349 1.385 . S
C1354 C1351 1.370 . S
C1354 H1373 0.930 . S
Tb1355 N1352 2.600 . S
Tb1355 N1356 2.660 . S
Tb1355 O1389 2.362 . S
Tb1355 O1390 2.421 . S
Tb1355 O1394 2.546 . S
Tb1355 O1395 2.610 . S
Tb1355 O1397 2.320 . S
Tb1355 O1398 2.552 . S
Tb1355 O1399 2.413 . S
Tb1355 C1419 2.833 . S
N1356 C1348 1.360 . S
N1356 Tb1355 2.660 . S
N1356 C1357 1.305 . S
C1357 N1356 1.305 . S
C1357 C1359 1.407 . S
C1357 H1364 0.930 . S
C1358 C1346 1.410 . S
C1358 C1359 1.345 . S
C1358 H1366 0.930 . S
C1359 C1357 1.407 . S
C1359 C1358 1.345 . S
C1359 H1361 0.930 . S
H1360 C1353 0.930 . S
H1361 C1359 0.930 . S
H1362 C1350 0.930 . S
H1363 C1351 0.931 . S
H1364 C1357 0.930 . S
H1365 C1379 0.930 . S
H1366 C1358 0.930 . S
H1367 C1385 0.930 . S
H1368 C1376 0.930 . S
H1369 C1383 0.931 . S
H1370 C1347 0.929 . S
H1371 C1377 0.930 . S
H1372 C1410 0.930 . S
H1373 C1354 0.930 . S
H1374 C1409 0.929 . S
N1375 Tb1344 2.660 . S
N1375 C1376 1.305 . S
N1375 C1380 1.360 . S
C1376 H1368 0.930 . S
C1376 N1375 1.305 . S
C1376 C1379 1.407 . S
C1377 H1371 0.930 . S
C1377 C1378 1.410 . S
C1377 C1379 1.345 . S
C1378 C1377 1.410 . S
C1378 C1380 1.417 . S
C1378 C1410 1.432 . S
C1379 H1365 0.930 . S
C1379 C1376 1.407 . S
C1379 C1377 1.345 . S
C1380 N1375 1.360 . S
C1380 C1378 1.417 . S
C1380 C1384 1.432 . S
H1381 C1386 0.930 . S
N1382 Tb1344 2.600 . S
N1382 C1384 1.359 . S
N1382 C1385 1.327 . S
C1383 H1369 0.931 . S
C1383 C1385 1.392 . S
C1383 C1386 1.370 . S
C1384 C1380 1.432 . S
C1384 N1382 1.359 . S
C1384 C1387 1.414 . S
C1385 H1367 0.930 . S
C1385 N1382 1.327 . S
C1385 C1383 1.392 . S
C1386 H1381 0.930 . S
C1386 C1383 1.370 . S
C1386 C1387 1.385 . S
C1387 C1384 1.414 . S
C1387 C1386 1.385 . S
C1387 C1409 1.444 . S
O1388 Tb1344 2.546 . S
O1388 C1408 1.251 . S
O1389 Tb1344 2.610 . S
O1389 Tb1355 2.362 . S
O1389 C1400 1.283 . S
O1390 Tb1355 2.421 . S
O1390 C1407 1.262 . S
O1391 Tb1344 2.320 . S
O1391 C1407 1.260 . S
O1392 Tb1344 2.552 . S
O1392 C1400 1.243 . S
O1393 Tb1344 2.413 . S
O1393 C1408 1.256 . S
O1394 Tb1355 2.546 . S
O1394 C1419 1.251 . S
O1395 Tb1344 2.362 . S
O1395 Tb1355 2.610 . S
O1395 C1411 1.283 . S
O1396 Tb1344 2.421 . S
O1396 C1418 1.262 . S
O1397 Tb1355 2.320 . S
O1397 C1418 1.260 . S
O1398 Tb1355 2.552 . S
O1398 C1411 1.243 . S
O1399 Tb1355 2.413 . S
O1399 C1419 1.256 . S
C1400 O1389 1.283 . S
C1400 O1392 1.243 . S
C1401 C1403 1.382 . S
C1401 C1405 1.393 . S
C1401 C1408 1.500 . S
C1402 C1403 1.400 . S
C1402 C1404 1.384 . S
C1403 C1401 1.382 . S
C1403 C1402 1.400 . S
C1403 H1420 0.930 . S
C1404 C1402 1.384 . S
C1404 C1406 1.392 . S
C1404 H1421 0.931 . S
C1405 C1401 1.393 . S
C1405 C1406 1.401 . S
C1405 H1422 0.930 . S
C1406 C1404 1.392 . S
C1406 C1405 1.401 . S
C1406 H1423 0.930 . S
C1407 O1390 1.262 . S
C1407 O1391 1.260 . S
C1408 Tb1344 2.833 . S
C1408 O1388 1.251 . S
C1408 O1393 1.256 . S
C1408 C1401 1.500 . S
C1409 H1374 0.929 . S
C1409 C1387 1.444 . S
C1409 C1410 1.317 . S
C1410 H1372 0.930 . S
C1410 C1378 1.432 . S
C1410 C1409 1.317 . S
C1411 O1395 1.283 . S
C1411 O1398 1.243 . S
C1412 C1413 1.382 . S
C1412 C1416 1.393 . S
C1412 C1419 1.500 . S
C1413 C1412 1.382 . S
C1413 C1414 1.400 . S
C1413 H1424 0.930 . S
C1414 C1413 1.400 . S
C1414 C1415 1.384 . S
C1415 C1414 1.384 . S
C1415 C1417 1.392 . S
C1415 H1425 0.931 . S
C1416 C1412 1.393 . S
C1416 C1417 1.401 . S
C1416 H1426 0.930 . S
C1417 C1415 1.392 . S
C1417 C1416 1.401 . S
C1417 H1427 0.930 . S
C1418 O1396 1.262 . S
C1418 O1397 1.260 . S
C1419 Tb1355 2.833 . S
C1419 O1394 1.251 . S
C1419 O1399 1.256 . S
C1419 C1412 1.500 . S
H1420 C1403 0.930 . S
H1421 C1404 0.931 . S
H1422 C1405 0.930 . S
H1423 C1406 0.930 . S
H1424 C1413 0.930 . S
H1425 C1415 0.931 . S
H1426 C1416 0.930 . S
H1427 C1417 0.930 . S
Tb1428 N1459 2.660 . S
Tb1428 N1466 2.600 . S
Tb1428 O1472 2.546 . S
Tb1428 O1473 2.610 . S
Tb1428 O1475 2.320 . S
Tb1428 O1476 2.552 . S
Tb1428 O1477 2.413 . S
Tb1428 O1479 2.362 . S
Tb1428 O1480 2.421 . S
Tb1428 C1492 2.833 . S
C1429 C1432 1.432 . S
C1429 C1433 1.414 . S
C1429 N1436 1.359 . S
C1430 C1432 1.417 . S
C1430 C1434 1.432 . S
C1430 C1442 1.410 . S
C1431 C1433 1.444 . S
C1431 C1434 1.317 . S
C1431 H1454 0.929 . S
C1432 C1429 1.432 . S
C1432 C1430 1.417 . S
C1432 N1440 1.360 . S
C1433 C1429 1.414 . S
C1433 C1431 1.444 . S
C1433 C1438 1.385 . S
C1434 C1430 1.432 . S
C1434 C1431 1.317 . S
C1434 H1446 0.930 . S
C1435 C1437 1.392 . S
C1435 C1438 1.370 . S
C1435 H1447 0.931 . S
N1436 C1429 1.359 . S
N1436 C1437 1.327 . S
N1436 Tb1439 2.600 . S
C1437 C1435 1.392 . S
C1437 N1436 1.327 . S
C1437 H1444 0.930 . S
C1438 C1433 1.385 . S
C1438 C1435 1.370 . S
C1438 H1457 0.930 . S
Tb1439 N1436 2.600 . S
Tb1439 N1440 2.660 . S
Tb1439 O1473 2.362 . S
Tb1439 O1474 2.421 . S
Tb1439 O1478 2.546 . S
Tb1439 O1479 2.610 . S
Tb1439 O1481 2.320 . S
Tb1439 O1482 2.552 . S
Tb1439 O1483 2.413 . S
Tb1439 C1503 2.833 . S
N1440 C1432 1.360 . S
N1440 Tb1439 2.660 . S
N1440 C1441 1.305 . S
C1441 N1440 1.305 . S
C1441 C1443 1.407 . S
C1441 H1448 0.930 . S
C1442 C1430 1.410 . S
C1442 C1443 1.345 . S
C1442 H1450 0.930 . S
C1443 C1441 1.407 . S
C1443 C1442 1.345 . S
C1443 H1445 0.930 . S
H1444 C1437 0.930 . S
H1445 C1443 0.930 . S
H1446 C1434 0.930 . S
H1447 C1435 0.931 . S
H1448 C1441 0.930 . S
H1449 C1463 0.930 . S
H1450 C1442 0.930 . S
H1451 C1469 0.930 . S
H1452 C1460 0.930 . S
H1453 C1467 0.931 . S
H1454 C1431 0.929 . S
H1455 C1461 0.930 . S
H1456 C1494 0.930 . S
H1457 C1438 0.930 . S
H1458 C1493 0.929 . S
N1459 Tb1428 2.660 . S
N1459 C1460 1.305 . S
N1459 C1464 1.360 . S
C1460 H1452 0.930 . S
C1460 N1459 1.305 . S
C1460 C1463 1.407 . S
C1461 H1455 0.930 . S
C1461 C1462 1.410 . S
C1461 C1463 1.345 . S
C1462 C1461 1.410 . S
C1462 C1464 1.417 . S
C1462 C1494 1.432 . S
C1463 H1449 0.930 . S
C1463 C1460 1.407 . S
C1463 C1461 1.345 . S
C1464 N1459 1.360 . S
C1464 C1462 1.417 . S
C1464 C1468 1.432 . S
H1465 C1470 0.930 . S
N1466 Tb1428 2.600 . S
N1466 C1468 1.359 . S
N1466 C1469 1.327 . S
C1467 H1453 0.931 . S
C1467 C1469 1.392 . S
C1467 C1470 1.370 . S
C1468 C1464 1.432 . S
C1468 N1466 1.359 . S
C1468 C1471 1.414 . S
C1469 H1451 0.930 . S
C1469 N1466 1.327 . S
C1469 C1467 1.392 . S
C1470 H1465 0.930 . S
C1470 C1467 1.370 . S
C1470 C1471 1.385 . S
C1471 C1468 1.414 . S
C1471 C1470 1.385 . S
C1471 C1493 1.444 . S
O1472 Tb1428 2.546 . S
O1472 C1492 1.251 . S
O1473 Tb1428 2.610 . S
O1473 Tb1439 2.362 . S
O1473 C1484 1.283 . S
O1474 Tb1439 2.421 . S
O1474 C1491 1.262 . S
O1475 Tb1428 2.320 . S
O1475 C1491 1.260 . S
O1476 Tb1428 2.552 . S
O1476 C1484 1.243 . S
O1477 Tb1428 2.413 . S
O1477 C1492 1.256 . S
O1478 Tb1439 2.546 . S
O1478 C1503 1.251 . S
O1479 Tb1428 2.362 . S
O1479 Tb1439 2.610 . S
O1479 C1495 1.283 . S
O1480 Tb1428 2.421 . S
O1480 C1502 1.262 . S
O1481 Tb1439 2.320 . S
O1481 C1502 1.260 . S
O1482 Tb1439 2.552 . S
O1482 C1495 1.243 . S
O1483 Tb1439 2.413 . S
O1483 C1503 1.256 . S
C1484 O1473 1.283 . S
C1484 O1476 1.243 . S
C1485 C1487 1.382 . S
C1485 C1489 1.393 . S
C1485 C1492 1.500 . S
C1486 C1487 1.400 . S
C1486 C1488 1.384 . S
C1487 C1485 1.382 . S
C1487 C1486 1.400 . S
C1487 H1504 0.930 . S
C1488 C1486 1.384 . S
C1488 C1490 1.392 . S
C1488 H1505 0.931 1_565 S
C1489 C1485 1.393 . S
C1489 C1490 1.401 . S
C1489 H1506 0.930 . S
C1490 C1488 1.392 . S
C1490 C1489 1.401 . S
C1490 H1507 0.930 . S
C1491 O1474 1.262 . S
C1491 O1475 1.260 . S
C1492 Tb1428 2.833 . S
C1492 O1472 1.251 . S
C1492 O1477 1.256 . S
C1492 C1485 1.500 . S
C1493 H1458 0.929 . S
C1493 C1471 1.444 . S
C1493 C1494 1.317 . S
C1494 H1456 0.930 . S
C1494 C1462 1.432 . S
C1494 C1493 1.317 . S
C1495 O1479 1.283 . S
C1495 O1482 1.243 . S
C1496 C1497 1.382 . S
C1496 C1500 1.393 . S
C1496 C1503 1.500 . S
C1497 C1496 1.382 . S
C1497 C1498 1.400 . S
C1497 H1508 0.930 . S
C1498 C1497 1.400 . S
C1498 C1499 1.384 . S
C1499 C1498 1.384 . S
C1499 C1501 1.392 . S
C1499 H1509 0.931 . S
C1500 C1496 1.393 . S
C1500 C1501 1.401 . S
C1500 H1510 0.930 . S
C1501 C1499 1.392 . S
C1501 C1500 1.401 . S
C1501 H1511 0.930 . S
C1502 O1480 1.262 . S
C1502 O1481 1.260 . S
C1503 Tb1439 2.833 . S
C1503 O1478 1.251 . S
C1503 O1483 1.256 . S
C1503 C1496 1.500 . S
H1504 C1487 0.930 . S
H1505 C1488 0.931 1_545 S
H1506 C1489 0.930 . S
H1507 C1490 0.930 . S
H1508 C1497 0.930 . S
H1509 C1499 0.931 . S
H1510 C1500 0.930 . S
H1511 C1501 0.930 . S
Tb1512 N1543 2.660 . S
Tb1512 N1550 2.600 . S
Tb1512 O1556 2.546 . S
Tb1512 O1557 2.610 . S
Tb1512 O1559 2.320 . S
Tb1512 O1560 2.552 . S
Tb1512 O1561 2.413 . S
Tb1512 O1563 2.362 . S
Tb1512 O1564 2.421 . S
Tb1512 C1576 2.833 . S
C1513 C1516 1.432 . S
C1513 C1517 1.414 . S
C1513 N1520 1.359 . S
C1514 C1516 1.417 . S
C1514 C1518 1.432 . S
C1514 C1526 1.410 . S
C1515 C1517 1.444 . S
C1515 C1518 1.317 . S
C1515 H1538 0.929 . S
C1516 C1513 1.432 . S
C1516 C1514 1.417 . S
C1516 N1524 1.360 . S
C1517 C1513 1.414 . S
C1517 C1515 1.444 . S
C1517 C1522 1.385 . S
C1518 C1514 1.432 . S
C1518 C1515 1.317 . S
C1518 H1530 0.930 . S
C1519 C1521 1.392 . S
C1519 C1522 1.370 . S
C1519 H1531 0.931 . S
N1520 C1513 1.359 . S
N1520 C1521 1.327 . S
N1520 Tb1523 2.600 . S
C1521 C1519 1.392 . S
C1521 N1520 1.327 . S
C1521 H1528 0.930 . S
C1522 C1517 1.385 . S
C1522 C1519 1.370 . S
C1522 H1541 0.930 . S
Tb1523 N1520 2.600 . S
Tb1523 N1524 2.660 . S
Tb1523 O1557 2.362 . S
Tb1523 O1558 2.421 . S
Tb1523 O1562 2.546 . S
Tb1523 O1563 2.610 . S
Tb1523 O1565 2.320 . S
Tb1523 O1566 2.552 . S
Tb1523 O1567 2.413 . S
Tb1523 C1587 2.833 . S
N1524 C1516 1.360 . S
N1524 Tb1523 2.660 . S
N1524 C1525 1.305 . S
C1525 N1524 1.305 . S
C1525 C1527 1.407 . S
C1525 H1532 0.930 . S
C1526 C1514 1.410 . S
C1526 C1527 1.345 . S
C1526 H1534 0.930 . S
C1527 C1525 1.407 . S
C1527 C1526 1.345 . S
C1527 H1529 0.930 . S
H1528 C1521 0.930 . S
H1529 C1527 0.930 . S
H1530 C1518 0.930 . S
H1531 C1519 0.931 . S
H1532 C1525 0.930 . S
H1533 C1547 0.930 . S
H1534 C1526 0.930 . S
H1535 C1553 0.930 . S
H1536 C1544 0.930 . S
H1537 C1551 0.931 . S
H1538 C1515 0.929 . S
H1539 C1545 0.930 . S
H1540 C1578 0.930 . S
H1541 C1522 0.930 . S
H1542 C1577 0.929 . S
N1543 Tb1512 2.660 . S
N1543 C1544 1.305 . S
N1543 C1548 1.360 . S
C1544 H1536 0.930 . S
C1544 N1543 1.305 . S
C1544 C1547 1.407 . S
C1545 H1539 0.930 . S
C1545 C1546 1.410 . S
C1545 C1547 1.345 . S
C1546 C1545 1.410 . S
C1546 C1548 1.417 . S
C1546 C1578 1.432 . S
C1547 H1533 0.930 . S
C1547 C1544 1.407 . S
C1547 C1545 1.345 . S
C1548 N1543 1.360 . S
C1548 C1546 1.417 . S
C1548 C1552 1.432 . S
H1549 C1554 0.930 . S
N1550 Tb1512 2.600 . S
N1550 C1552 1.359 . S
N1550 C1553 1.327 . S
C1551 H1537 0.931 . S
C1551 C1553 1.392 . S
C1551 C1554 1.370 . S
C1552 C1548 1.432 . S
C1552 N1550 1.359 . S
C1552 C1555 1.414 . S
C1553 H1535 0.930 . S
C1553 N1550 1.327 . S
C1553 C1551 1.392 . S
C1554 H1549 0.930 . S
C1554 C1551 1.370 . S
C1554 C1555 1.385 . S
C1555 C1552 1.414 . S
C1555 C1554 1.385 . S
C1555 C1577 1.444 . S
O1556 Tb1512 2.546 . S
O1556 C1576 1.251 . S
O1557 Tb1512 2.610 . S
O1557 Tb1523 2.362 . S
O1557 C1568 1.283 . S
O1558 Tb1523 2.421 . S
O1558 C1575 1.262 . S
O1559 Tb1512 2.320 . S
O1559 C1575 1.260 . S
O1560 Tb1512 2.552 . S
O1560 C1568 1.243 . S
O1561 Tb1512 2.413 . S
O1561 C1576 1.256 . S
O1562 Tb1523 2.546 . S
O1562 C1587 1.251 . S
O1563 Tb1512 2.362 . S
O1563 Tb1523 2.610 . S
O1563 C1579 1.283 . S
O1564 Tb1512 2.421 . S
O1564 C1586 1.262 . S
O1565 Tb1523 2.320 . S
O1565 C1586 1.260 . S
O1566 Tb1523 2.552 . S
O1566 C1579 1.243 . S
O1567 Tb1523 2.413 . S
O1567 C1587 1.256 . S
C1568 O1557 1.283 . S
C1568 O1560 1.243 . S
C1569 C1571 1.382 . S
C1569 C1573 1.393 . S
C1569 C1576 1.500 . S
C1570 C1571 1.400 . S
C1570 C1572 1.384 . S
C1571 C1569 1.382 . S
C1571 C1570 1.400 . S
C1571 H1588 0.930 . S
C1572 C1570 1.384 . S
C1572 C1574 1.392 . S
C1572 H1589 0.931 . S
C1573 C1569 1.393 . S
C1573 C1574 1.401 . S
C1573 H1590 0.930 . S
C1574 C1572 1.392 . S
C1574 C1573 1.401 . S
C1574 H1591 0.930 . S
C1575 O1558 1.262 . S
C1575 O1559 1.260 . S
C1576 Tb1512 2.833 . S
C1576 O1556 1.251 . S
C1576 O1561 1.256 . S
C1576 C1569 1.500 . S
C1577 H1542 0.929 . S
C1577 C1555 1.444 . S
C1577 C1578 1.317 . S
C1578 H1540 0.930 . S
C1578 C1546 1.432 . S
C1578 C1577 1.317 . S
C1579 O1563 1.283 . S
C1579 O1566 1.243 . S
C1580 C1581 1.382 . S
C1580 C1584 1.393 . S
C1580 C1587 1.500 . S
C1581 C1580 1.382 . S
C1581 C1582 1.400 . S
C1581 H1592 0.930 . S
C1582 C1581 1.400 . S
C1582 C1583 1.384 . S
C1583 C1582 1.384 . S
C1583 C1585 1.392 . S
C1583 H1593 0.931 . S
C1584 C1580 1.393 . S
C1584 C1585 1.401 . S
C1584 H1594 0.930 . S
C1585 C1583 1.392 . S
C1585 C1584 1.401 . S
C1585 H1595 0.930 . S
C1586 O1564 1.262 . S
C1586 O1565 1.260 . S
C1587 Tb1523 2.833 . S
C1587 O1562 1.251 . S
C1587 O1567 1.256 . S
C1587 C1580 1.500 . S
H1588 C1571 0.930 . S
H1589 C1572 0.931 . S
H1590 C1573 0.930 . S
H1591 C1574 0.930 . S
H1592 C1581 0.930 . S
H1593 C1583 0.931 . S
H1594 C1584 0.930 . S
H1595 C1585 0.930 . S
Tb1596 N1627 2.661 . S
Tb1596 N1634 2.590 1_554 S
Tb1596 O1640 2.538 1_554 S
Tb1596 O1641 2.616 . S
Tb1596 O1643 2.332 . S
Tb1596 O1644 2.554 1_554 S
Tb1596 O1645 2.415 . S
Tb1596 O1647 2.365 . S
Tb1596 O1648 2.413 1_554 S
Tb1596 C1660 2.829 1_554 S
C1597 C1600 1.432 . S
C1597 C1601 1.414 . S
C1597 N1604 1.359 1_655 S
C1598 C1600 1.417 . S
C1598 C1602 1.432 . S
C1598 C1610 1.410 1_554 S
C1599 C1601 1.444 . S
C1599 C1602 1.317 . S
C1599 H1622 0.929 . S
C1600 C1597 1.432 . S
C1600 C1598 1.417 . S
C1600 N1608 1.360 . S
C1601 C1597 1.414 . S
C1601 C1599 1.444 . S
C1601 C1606 1.385 . S
C1602 C1598 1.432 . S
C1602 C1599 1.317 . S
C1602 H1614 0.930 . S
C1603 C1605 1.392 . S
C1603 C1606 1.370 1_455 S
C1603 H1615 0.931 . S
N1604 C1597 1.359 1_455 S
N1604 C1605 1.327 . S
N1604 Tb1607 2.600 . S
C1605 C1603 1.392 . S
C1605 N1604 1.327 . S
C1605 H1612 0.930 . S
C1606 C1601 1.385 . S
C1606 C1603 1.370 1_655 S
C1606 H1625 0.930 . S
Tb1607 N1604 2.600 . S
Tb1607 N1608 2.660 1_455 S
Tb1607 O1641 2.362 . S
Tb1607 O1642 2.421 . S
Tb1607 O1646 2.546 . S
Tb1607 O1647 2.610 . S
Tb1607 O1649 2.320 1_554 S
Tb1607 O1650 2.552 . S
Tb1607 O1651 2.413 1_455 S
Tb1607 C1671 2.833 1_455 S
N1608 C1600 1.360 . S
N1608 Tb1607 2.660 1_655 S
N1608 C1609 1.305 1_554 S
C1609 N1608 1.305 1_556 S
C1609 C1611 1.407 . S
C1609 H1616 0.930 . S
C1610 C1598 1.410 1_556 S
C1610 C1611 1.345 . S
C1610 H1618 0.930 . S
C1611 C1609 1.407 . S
C1611 C1610 1.345 . S
C1611 H1613 0.930 . S
H1612 C1605 0.930 . S
H1613 C1611 0.930 . S
H1614 C1602 0.930 . S
H1615 C1603 0.931 . S
H1616 C1609 0.930 . S
H1617 C1631 0.930 . S
H1618 C1610 0.930 . S
H1619 C1637 0.930 . S
H1620 C1628 0.930 . S
H1621 C1635 0.931 . S
H1622 C1599 0.929 . S
H1623 C1629 0.930 . S
H1624 C1662 0.930 1_554 S
H1625 C1606 0.930 . S
H1626 C1661 0.929 . S
N1627 Tb1596 2.661 . S
N1627 C1628 1.305 . S
N1627 C1632 1.360 . S
C1628 H1620 0.930 . S
C1628 N1627 1.305 . S
C1628 C1631 1.407 . S
C1629 H1623 0.930 . S
C1629 C1630 1.410 . S
C1629 C1631 1.345 . S
C1630 C1629 1.410 . S
C1630 C1632 1.417 . S
C1630 C1662 1.432 1_554 S
C1631 H1617 0.930 . S
C1631 C1628 1.407 . S
C1631 C1629 1.345 . S
C1632 N1627 1.360 . S
C1632 C1630 1.417 . S
C1632 C1636 1.432 1_554 S
H1633 C1638 0.930 . S
N1634 Tb1596 2.590 1_556 S
N1634 C1636 1.359 . S
N1634 C1637 1.327 . S
C1635 H1621 0.931 . S
C1635 C1637 1.392 . S
C1635 C1638 1.370 . S
C1636 C1632 1.432 1_556 S
C1636 N1634 1.359 . S
C1636 C1639 1.414 . S
C1637 H1619 0.930 . S
C1637 N1634 1.327 . S
C1637 C1635 1.392 . S
C1638 H1633 0.930 . S
C1638 C1635 1.370 . S
C1638 C1639 1.385 . S
C1639 C1636 1.414 . S
C1639 C1638 1.385 . S
C1639 C1661 1.444 . S
O1640 Tb1596 2.538 1_556 S
O1640 C1660 1.251 . S
O1641 Tb1596 2.616 . S
O1641 Tb1607 2.362 . S
O1641 C1652 1.283 . S
O1642 Tb1607 2.421 . S
O1642 C1659 1.262 . S
O1643 Tb1596 2.332 . S
O1643 C1659 1.260 . S
O1644 Tb1596 2.554 1_556 S
O1644 C1652 1.243 1_556 S
O1645 Tb1596 2.415 . S
O1645 C1660 1.256 1_554 S
O1646 Tb1607 2.546 . S
O1646 C1671 1.251 1_455 S
O1647 Tb1596 2.365 . S
O1647 Tb1607 2.610 . S
O1647 C1663 1.283 . S
O1648 Tb1596 2.413 1_556 S
O1648 C1670 1.262 . S
O1649 Tb1607 2.320 1_556 S
O1649 C1670 1.260 . S
O1650 Tb1607 2.552 . S
O1650 C1663 1.243 . S
O1651 Tb1607 2.413 1_655 S
O1651 C1671 1.256 . S
C1652 O1641 1.283 . S
C1652 O1644 1.243 1_554 S
C1653 C1655 1.382 . S
C1653 C1657 1.393 . S
C1653 C1660 1.500 . S
C1654 C1655 1.400 . S
C1654 C1656 1.384 . S
C1655 C1653 1.382 . S
C1655 C1654 1.400 . S
C1655 H1672 0.930 1_556 S
C1656 C1654 1.384 . S
C1656 C1658 1.392 . S
C1656 H1673 0.931 . S
C1657 C1653 1.393 . S
C1657 C1658 1.401 . S
C1657 H1674 0.930 . S
C1658 C1656 1.392 . S
C1658 C1657 1.401 . S
C1658 H1675 0.930 . S
C1659 O1642 1.262 . S
C1659 O1643 1.260 . S
C1660 Tb1596 2.829 1_556 S
C1660 O1640 1.251 . S
C1660 O1645 1.256 1_556 S
C1660 C1653 1.500 . S
C1661 H1626 0.929 . S
C1661 C1639 1.444 . S
C1661 C1662 1.317 . S
C1662 H1624 0.930 1_556 S
C1662 C1630 1.432 1_556 S
C1662 C1661 1.317 . S
C1663 O1647 1.283 . S
C1663 O1650 1.243 . S
C1664 C1665 1.382 . S
C1664 C1668 1.393 . S
C1664 C1671 1.500 . S
C1665 C1664 1.382 . S
C1665 C1666 1.400 . S
C1665 H1676 0.930 . S
C1666 C1665 1.400 . S
C1666 C1667 1.384 . S
C1667 C1666 1.384 . S
C1667 C1669 1.392 . S
C1667 H1677 0.931 . S
C1668 C1664 1.393 . S
C1668 C1669 1.401 . S
C1668 H1678 0.930 . S
C1669 C1667 1.392 . S
C1669 C1668 1.401 . S
C1669 H1679 0.930 . S
C1670 O1648 1.262 . S
C1670 O1649 1.260 . S
C1671 Tb1607 2.833 1_655 S
C1671 O1646 1.251 1_655 S
C1671 O1651 1.256 . S
C1671 C1664 1.500 . S
H1672 C1655 0.930 1_554 S
H1673 C1656 0.931 . S
H1674 C1657 0.930 . S
H1675 C1658 0.930 . S
H1676 C1665 0.930 . S
H1677 C1667 0.931 . S
H1678 C1668 0.930 . S
H1679 C1669 0.930 . S
C1680 C1681 1.387 1_554 S
C1680 H1684 0.950 . S
C1680 C1689 1.390 . S
C1681 C1680 1.387 1_556 S
C1681 C1683 1.387 . S
H1682 C1689 0.950 . S
C1683 C1681 1.387 . S
C1683 C1685 1.390 . S
C1683 H1687 0.950 1_455 S
H1684 C1680 0.950 . S
C1685 C1683 1.390 . S
C1685 C1686 1.387 1_556 S
C1685 H1688 0.950 . S
C1686 C1685 1.387 1_554 S
C1686 C1689 1.387 . S
H1687 C1683 0.950 1_655 S
H1688 C1685 0.950 . S
C1689 C1680 1.390 . S
C1689 H1682 0.950 . S
C1689 C1686 1.387 . S
C1690 C1691 1.387 . S
C1690 H1694 0.950 . S
C1690 C1699 1.390 . S
C1691 C1690 1.387 . S
C1691 C1693 1.387 . S
H1692 C1699 0.950 . S
C1693 C1691 1.387 . S
C1693 C1695 1.390 . S
C1693 H1697 0.950 . S
H1694 C1690 0.950 . S
C1695 C1693 1.390 . S
C1695 C1696 1.387 . S
C1695 H1698 0.950 . S
C1696 C1695 1.387 . S
C1696 C1699 1.387 . S
H1697 C1693 0.950 . S
H1698 C1695 0.950 . S
C1699 C1690 1.390 . S
C1699 H1692 0.950 . S
C1699 C1696 1.387 . S
C1700 C1701 1.387 . S
C1700 H1704 0.950 . S
C1700 C1709 1.390 . S
C1701 C1700 1.387 . S
C1701 C1703 1.387 . S
H1702 C1709 0.950 . S
C1703 C1701 1.387 . S
C1703 C1705 1.390 . S
C1703 H1707 0.950 . S
H1704 C1700 0.950 . S
C1705 C1703 1.390 . S
C1705 C1706 1.387 . S
C1705 H1708 0.950 . S
C1706 C1705 1.387 . S
C1706 C1709 1.387 . S
H1707 C1703 0.950 . S
H1708 C1705 0.950 . S
C1709 C1700 1.390 . S
C1709 H1702 0.950 . S
C1709 C1706 1.387 . S
C1710 C1711 1.387 . S
C1710 H1714 0.950 . S
C1710 C1719 1.390 . S
C1711 C1710 1.387 . S
C1711 C1713 1.387 . S
H1712 C1719 0.950 . S
C1713 C1711 1.387 . S
C1713 C1715 1.390 . S
C1713 H1717 0.950 . S
H1714 C1710 0.950 . S
C1715 C1713 1.390 . S
C1715 C1716 1.387 . S
C1715 H1718 0.950 . S
C1716 C1715 1.387 . S
C1716 C1719 1.387 . S
H1717 C1713 0.950 . S
H1718 C1715 0.950 . S
C1719 C1710 1.390 . S
C1719 H1712 0.950 . S
C1719 C1716 1.387 . S
C1720 C1721 1.387 . S
C1720 H1724 0.950 1_455 S
C1720 C1729 1.390 . S
C1721 C1720 1.387 . S
C1721 C1723 1.387 . S
H1722 C1729 0.950 . S
C1723 C1721 1.387 . S
C1723 C1725 1.390 . S
C1723 H1727 0.950 . S
H1724 C1720 0.950 1_655 S
C1725 C1723 1.390 . S
C1725 C1726 1.387 . S
C1725 H1728 0.950 . S
C1726 C1725 1.387 . S
C1726 C1729 1.387 . S
H1727 C1723 0.950 . S
H1728 C1725 0.950 . S
C1729 C1720 1.390 . S
C1729 H1722 0.950 . S
C1729 C1726 1.387 . S
C1730 C1731 1.387 . S
C1730 H1734 0.950 . S
C1730 C1739 1.390 . S
C1731 C1730 1.387 . S
C1731 C1733 1.387 . S
H1732 C1739 0.950 . S
C1733 C1731 1.387 . S
C1733 C1735 1.390 . S
C1733 H1737 0.950 . S
H1734 C1730 0.950 . S
C1735 C1733 1.390 . S
C1735 C1736 1.387 . S
C1735 H1738 0.950 . S
C1736 C1735 1.387 . S
C1736 C1739 1.387 . S
H1737 C1733 0.950 . S
H1738 C1735 0.950 . S
C1739 C1730 1.390 . S
C1739 H1732 0.950 . S
C1739 C1736 1.387 . S
C1740 C1741 1.387 . S
C1740 H1744 0.950 . S
C1740 C1749 1.390 . S
C1741 C1740 1.387 . S
C1741 C1743 1.387 . S
H1742 C1749 0.950 . S
C1743 C1741 1.387 . S
C1743 C1745 1.390 . S
C1743 H1747 0.950 . S
H1744 C1740 0.950 . S
C1745 C1743 1.390 . S
C1745 C1746 1.387 . S
C1745 H1748 0.950 . S
C1746 C1745 1.387 . S
C1746 C1749 1.387 . S
H1747 C1743 0.950 . S
H1748 C1745 0.950 . S
C1749 C1740 1.390 . S
C1749 H1742 0.950 . S
C1749 C1746 1.387 . S
C1750 C1751 1.387 . S
C1750 H1754 0.950 . S
C1750 C1759 1.390 . S
C1751 C1750 1.387 . S
C1751 C1753 1.387 . S
H1752 C1759 0.950 . S
C1753 C1751 1.387 . S
C1753 C1755 1.390 . S
C1753 H1757 0.950 . S
H1754 C1750 0.950 . S
C1755 C1753 1.390 . S
C1755 C1756 1.387 . S
C1755 H1758 0.950 . S
C1756 C1755 1.387 . S
C1756 C1759 1.387 . S
H1757 C1753 0.950 . S
H1758 C1755 0.950 . S
C1759 C1750 1.390 . S
C1759 H1752 0.950 . S
C1759 C1756 1.387 . S
C1760 C1761 1.387 . S
C1760 H1764 0.950 . S
C1760 C1769 1.390 . S
C1761 C1760 1.387 . S
C1761 C1763 1.387 . S
H1762 C1769 0.950 . S
C1763 C1761 1.387 . S
C1763 C1765 1.390 . S
C1763 H1767 0.950 . S
H1764 C1760 0.950 . S
C1765 C1763 1.390 . S
C1765 C1766 1.387 . S
C1765 H1768 0.950 . S
C1766 C1765 1.387 . S
C1766 C1769 1.387 . S
H1767 C1763 0.950 . S
H1768 C1765 0.950 . S
C1769 C1760 1.390 . S
C1769 H1762 0.950 . S
C1769 C1766 1.387 . S
C1770 C1771 1.387 . S
C1770 H1774 0.950 . S
C1770 C1779 1.390 . S
C1771 C1770 1.387 . S
C1771 C1773 1.387 . S
H1772 C1779 0.950 . S
C1773 C1771 1.387 . S
C1773 C1775 1.390 . S
C1773 H1777 0.950 . S
H1774 C1770 0.950 . S
C1775 C1773 1.390 . S
C1775 C1776 1.387 . S
C1775 H1778 0.950 . S
C1776 C1775 1.387 . S
C1776 C1779 1.387 . S
H1777 C1773 0.950 . S
H1778 C1775 0.950 . S
C1779 C1770 1.390 . S
C1779 H1772 0.950 . S
C1779 C1776 1.387 . S
C1780 C1781 1.387 . S
C1780 H1784 0.919 1_545 S
C1780 C1789 1.390 . S
C1781 C1780 1.387 . S
C1781 C1783 1.387 . S
H1782 C1789 0.950 1_565 S
C1783 C1781 1.387 . S
C1783 C1785 1.390 . S
C1783 H1787 0.950 . S
H1784 C1780 0.919 1_565 S
C1785 C1783 1.390 . S
C1785 C1786 1.387 . S
C1785 H1788 0.950 . S
C1786 C1785 1.387 . S
C1786 C1789 1.387 . S
H1787 C1783 0.950 . S
H1788 C1785 0.950 . S
C1789 C1780 1.390 . S
C1789 H1782 0.950 1_545 S
C1789 C1786 1.387 . S
C1790 C1791 1.387 . S
C1790 H1794 0.950 . S
C1790 C1799 1.390 . S
C1791 C1790 1.387 . S
C1791 C1793 1.387 . S
H1792 C1799 0.950 . S
C1793 C1791 1.387 . S
C1793 C1795 1.390 . S
C1793 H1797 0.950 . S
H1794 C1790 0.950 . S
C1795 C1793 1.390 . S
C1795 C1796 1.387 . S
C1795 H1798 0.950 . S
C1796 C1795 1.387 . S
C1796 C1799 1.387 . S
H1797 C1793 0.950 . S
H1798 C1795 0.950 . S
C1799 C1790 1.390 . S
C1799 H1792 0.950 . S
C1799 C1796 1.387 . S
C1800 C1801 1.387 . S
C1800 H1804 0.950 . S
C1800 C1809 1.390 . S
C1801 C1800 1.387 . S
C1801 C1803 1.387 . S
H1802 C1809 0.950 . S
C1803 C1801 1.387 . S
C1803 C1805 1.390 . S
C1803 H1807 0.954 1_455 S
H1804 C1800 0.950 . S
C1805 C1803 1.390 . S
C1805 C1806 1.387 . S
C1805 H1808 0.950 . S
C1806 C1805 1.387 . S
C1806 C1809 1.387 . S
H1807 C1803 0.954 1_655 S
H1808 C1805 0.950 . S
C1809 C1800 1.390 . S
C1809 H1802 0.950 . S
C1809 C1806 1.387 . S
C1810 C1811 1.387 . S
C1810 H1814 0.950 . S
C1810 C1819 1.390 . S
C1811 C1810 1.387 . S
C1811 C1813 1.387 . S
H1812 C1819 0.950 . S
C1813 C1811 1.387 . S
C1813 C1815 1.390 . S
C1813 H1817 0.950 . S
H1814 C1810 0.950 . S
C1815 C1813 1.390 . S
C1815 C1816 1.387 . S
C1815 H1818 0.950 . S
C1816 C1815 1.387 . S
C1816 C1819 1.387 . S
H1817 C1813 0.950 . S
H1818 C1815 0.950 . S
C1819 C1810 1.390 . S
C1819 H1812 0.950 . S
C1819 C1816 1.387 . S
C1820 C1821 1.387 . S
C1820 H1824 0.950 . S
C1820 C1829 1.390 . S
C1821 C1820 1.387 . S
C1821 C1823 1.387 . S
H1822 C1829 0.950 . S
C1823 C1821 1.387 . S
C1823 C1825 1.390 . S
C1823 H1827 0.950 . S
H1824 C1820 0.950 . S
C1825 C1823 1.390 . S
C1825 C1826 1.387 . S
C1825 H1828 0.950 . S
C1826 C1825 1.387 . S
C1826 C1829 1.387 . S
H1827 C1823 0.950 . S
H1828 C1825 0.950 . S
C1829 C1820 1.390 . S
C1829 H1822 0.950 . S
C1829 C1826 1.387 . S
C1830 C1831 1.387 . S
C1830 H1834 0.950 . S
C1830 C1839 1.390 . S
C1831 C1830 1.387 . S
C1831 C1833 1.387 . S
H1832 C1839 0.950 . S
C1833 C1831 1.387 . S
C1833 C1835 1.390 . S
C1833 H1837 0.950 . S
H1834 C1830 0.950 . S
C1835 C1833 1.390 . S
C1835 C1836 1.387 . S
C1835 H1838 0.950 . S
C1836 C1835 1.387 . S
C1836 C1839 1.387 . S
H1837 C1833 0.950 . S
H1838 C1835 0.950 . S
C1839 C1830 1.390 . S
C1839 H1832 0.950 . S
C1839 C1836 1.387 . S
C1840 C1841 1.387 1_556 S
C1840 H1844 0.950 . S
C1840 C1849 1.390 1_566 S
C1841 C1840 1.387 1_554 S
C1841 C1843 1.387 1_565 S
H1842 C1849 0.950 1_556 S
C1843 C1841 1.387 1_545 S
C1843 C1845 1.390 . S
C1843 H1847 0.950 . S
H1844 C1840 0.950 . S
C1845 C1843 1.390 . S
C1845 C1846 1.387 . S
C1845 H1848 0.950 . S
C1846 C1845 1.387 . S
C1846 C1849 1.387 . S
H1847 C1843 0.950 . S
H1848 C1845 0.950 . S
C1849 C1840 1.390 1_544 S
C1849 H1842 0.950 1_554 S
C1849 C1846 1.387 . S
C1850 C1851 1.387 . S
C1850 H1854 0.950 . S
C1850 C1859 1.390 . S
C1851 C1850 1.387 . S
C1851 C1853 1.387 1_556 S
H1852 C1859 0.950 . S
C1853 C1851 1.387 1_554 S
C1853 C1855 1.390 . S
C1853 H1857 0.950 . S
H1854 C1850 0.950 . S
C1855 C1853 1.390 . S
C1855 C1856 1.387 1_554 S
C1855 H1858 0.950 . S
C1856 C1855 1.387 1_556 S
C1856 C1859 1.387 . S
H1857 C1853 0.950 . S
H1858 C1855 0.950 . S
C1859 C1850 1.390 . S
C1859 H1852 0.950 . S
C1859 C1856 1.387 . S
C1860 C1861 1.387 . S
C1860 H1864 0.950 . S
C1860 C1869 1.390 . S
C1861 C1860 1.387 . S
C1861 C1863 1.387 . S
H1862 C1869 0.950 . S
C1863 C1861 1.387 . S
C1863 C1865 1.390 . S
C1863 H1867 0.950 . S
H1864 C1860 0.950 . S
C1865 C1863 1.390 . S
C1865 C1866 1.387 . S
C1865 H1868 0.950 . S
C1866 C1865 1.387 . S
C1866 C1869 1.387 . S
H1867 C1863 0.950 . S
H1868 C1865 0.950 . S
C1869 C1860 1.390 . S
C1869 H1862 0.950 . S
C1869 C1866 1.387 . S
C1870 C1871 1.387 . S
C1870 H1874 0.950 . S
C1870 C1879 1.390 . S
C1871 C1870 1.387 . S
C1871 C1873 1.387 . S
H1872 C1879 0.950 1_455 S
C1873 C1871 1.387 . S
C1873 C1875 1.390 . S
C1873 H1877 0.950 . S
H1874 C1870 0.950 . S
C1875 C1873 1.390 . S
C1875 C1876 1.387 1_655 S
C1875 H1878 0.950 . S
C1876 C1875 1.387 1_455 S
C1876 C1879 1.387 1_455 S
H1877 C1873 0.950 . S
H1878 C1875 0.950 . S
C1879 C1870 1.390 . S
C1879 H1872 0.950 1_655 S
C1879 C1876 1.387 1_655 S
C1880 C1881 1.387 . S
C1880 H1884 0.950 . S
C1880 C1889 1.390 . S
C1881 C1880 1.387 . S
C1881 C1883 1.387 . S
H1882 C1889 0.950 . S
C1883 C1881 1.387 . S
C1883 C1885 1.390 . S
C1883 H1887 0.950 . S
H1884 C1880 0.950 . S
C1885 C1883 1.390 . S
C1885 C1886 1.387 . S
C1885 H1888 0.950 . S
C1886 C1885 1.387 . S
C1886 C1889 1.387 . S
H1887 C1883 0.950 . S
H1888 C1885 0.950 . S
C1889 C1880 1.390 . S
C1889 H1882 0.950 . S
C1889 C1886 1.387 . S
C1890 C1891 1.387 . S
C1890 H1894 0.950 . S
C1890 C1899 1.390 . S
C1891 C1890 1.387 . S
C1891 C1893 1.387 . S
H1892 C1899 0.950 . S
C1893 C1891 1.387 . S
C1893 C1895 1.390 . S
C1893 H1897 0.950 . S
H1894 C1890 0.950 . S
C1895 C1893 1.390 . S
C1895 C1896 1.387 . S
C1895 H1898 0.950 . S
C1896 C1895 1.387 . S
C1896 C1899 1.387 . S
H1897 C1893 0.950 . S
H1898 C1895 0.950 . S
C1899 C1890 1.390 . S
C1899 H1892 0.950 . S
C1899 C1896 1.387 . S
C1900 C1901 1.387 . S
C1900 H1904 0.950 . S
C1900 C1909 1.390 . S
C1901 C1900 1.387 . S
C1901 C1903 1.387 . S
H1902 C1909 0.950 . S
C1903 C1901 1.387 . S
C1903 C1905 1.390 . S
C1903 H1907 0.950 . S
H1904 C1900 0.950 . S
C1905 C1903 1.390 . S
C1905 C1906 1.387 . S
C1905 H1908 0.950 . S
C1906 C1905 1.387 . S
C1906 C1909 1.387 . S
H1907 C1903 0.950 . S
H1908 C1905 0.950 . S
C1909 C1900 1.390 . S
C1909 H1902 0.950 . S
C1909 C1906 1.387 . S
C1910 C1911 1.387 . S
C1910 H1914 0.950 . S
C1910 C1919 1.390 . S
C1911 C1910 1.387 . S
C1911 C1913 1.387 . S
H1912 C1919 0.950 . S
C1913 C1911 1.387 . S
C1913 C1915 1.390 . S
C1913 H1917 0.950 . S
H1914 C1910 0.950 . S
C1915 C1913 1.390 . S
C1915 C1916 1.387 . S
C1915 H1918 0.950 . S
C1916 C1915 1.387 . S
C1916 C1919 1.387 . S
H1917 C1913 0.950 . S
H1918 C1915 0.950 . S
C1919 C1910 1.390 . S
C1919 H1912 0.950 . S
C1919 C1916 1.387 . S
C1920 C1921 1.387 . S
C1920 H1924 0.950 . S
C1920 C1929 1.390 . S
C1921 C1920 1.387 . S
C1921 C1923 1.387 . S
H1922 C1929 0.950 . S
C1923 C1921 1.387 . S
C1923 C1925 1.390 . S
C1923 H1927 0.950 . S
H1924 C1920 0.950 . S
C1925 C1923 1.390 . S
C1925 C1926 1.387 . S
C1925 H1928 0.950 . S
C1926 C1925 1.387 . S
C1926 C1929 1.387 . S
H1927 C1923 0.950 . S
H1928 C1925 0.950 . S
C1929 C1920 1.390 . S
C1929 H1922 0.950 . S
C1929 C1926 1.387 . S
C1930 C1931 1.387 . S
C1930 H1934 0.950 . S
C1930 C1939 1.390 . S
C1931 C1930 1.387 . S
C1931 C1933 1.387 . S
H1932 C1939 0.950 . S
C1933 C1931 1.387 . S
C1933 C1935 1.390 . S
C1933 H1937 0.950 . S
H1934 C1930 0.950 . S
C1935 C1933 1.390 . S
C1935 C1936 1.387 . S
C1935 H1938 0.950 . S
C1936 C1935 1.387 . S
C1936 C1939 1.387 . S
H1937 C1933 0.950 . S
H1938 C1935 0.950 . S
C1939 C1930 1.390 . S
C1939 H1932 0.950 . S
C1939 C1936 1.387 . S
C1940 C1941 1.387 . S
C1940 H1944 0.950 . S
C1940 C1949 1.390 . S
C1941 C1940 1.387 . S
C1941 C1943 1.387 . S
H1942 C1949 0.950 . S
C1943 C1941 1.387 . S
C1943 C1945 1.390 . S
C1943 H1947 0.950 . S
H1944 C1940 0.950 . S
C1945 C1943 1.390 . S
C1945 C1946 1.387 . S
C1945 H1948 0.950 . S
C1946 C1945 1.387 . S
C1946 C1949 1.387 . S
H1947 C1943 0.950 . S
H1948 C1945 0.950 . S
C1949 C1940 1.390 . S
C1949 H1942 0.950 . S
C1949 C1946 1.387 . S
C1950 C1951 1.387 . S
C1950 H1954 0.950 . S
C1950 C1959 1.390 . S
C1951 C1950 1.387 . S
C1951 C1953 1.387 . S
H1952 C1959 0.950 . S
C1953 C1951 1.387 . S
C1953 C1955 1.390 . S
C1953 H1957 0.950 . S
H1954 C1950 0.950 . S
C1955 C1953 1.390 . S
C1955 C1956 1.387 . S
C1955 H1958 0.950 . S
C1956 C1955 1.387 . S
C1956 C1959 1.387 . S
H1957 C1953 0.950 . S
H1958 C1955 0.950 . S
C1959 C1950 1.390 . S
C1959 H1952 0.950 . S
C1959 C1956 1.387 . S
C1960 C1961 1.387 . S
C1960 H1964 0.950 . S
C1960 C1969 1.390 . S
C1961 C1960 1.387 . S
C1961 C1963 1.387 . S
H1962 C1969 0.950 . S
C1963 C1961 1.387 . S
C1963 C1965 1.390 . S
C1963 H1967 0.950 . S
H1964 C1960 0.950 . S
C1965 C1963 1.390 . S
C1965 C1966 1.387 . S
C1965 H1968 0.950 . S
C1966 C1965 1.387 . S
C1966 C1969 1.387 . S
H1967 C1963 0.950 . S
H1968 C1965 0.950 . S
C1969 C1960 1.390 . S
C1969 H1962 0.950 . S
C1969 C1966 1.387 . S
C1970 C1971 1.387 . S
C1970 H1974 0.950 . S
C1970 C1979 1.390 . S
C1971 C1970 1.387 . S
C1971 C1973 1.387 . S
H1972 C1979 0.950 . S
C1973 C1971 1.387 . S
C1973 C1975 1.390 . S
C1973 H1977 0.950 . S
H1974 C1970 0.950 . S
C1975 C1973 1.390 . S
C1975 C1976 1.387 . S
C1975 H1978 0.950 . S
C1976 C1975 1.387 . S
C1976 C1979 1.387 . S
H1977 C1973 0.950 . S
H1978 C1975 0.950 . S
C1979 C1970 1.390 . S
C1979 H1972 0.950 . S
C1979 C1976 1.387 . S
C1980 C1981 1.387 . S
C1980 H1984 0.950 . S
C1980 C1989 1.390 . S
C1981 C1980 1.387 . S
C1981 C1983 1.387 . S
H1982 C1989 0.950 1_554 S
C1983 C1981 1.387 . S
C1983 C1985 1.390 . S
C1983 H1987 0.950 . S
H1984 C1980 0.950 . S
C1985 C1983 1.390 . S
C1985 C1986 1.387 . S
C1985 H1988 0.950 . S
C1986 C1985 1.387 . S
C1986 C1989 1.387 . S
H1987 C1983 0.950 . S
H1988 C1985 0.950 . S
C1989 C1980 1.390 . S
C1989 H1982 0.950 1_556 S
C1989 C1986 1.387 . S
C1990 C1991 1.387 . S
C1990 H1994 0.950 . S
C1990 C1999 1.390 . S
C1991 C1990 1.387 . S
C1991 C1993 1.387 . S
H1992 C1999 0.950 . S
C1993 C1991 1.387 . S
C1993 C1995 1.390 . S
C1993 H1997 0.950 . S
H1994 C1990 0.950 . S
C1995 C1993 1.390 . S
C1995 C1996 1.387 . S
C1995 H1998 0.950 . S
C1996 C1995 1.387 . S
C1996 C1999 1.387 . S
H1997 C1993 0.950 . S
H1998 C1995 0.950 . S
C1999 C1990 1.390 . S
C1999 H1992 0.950 . S
C1999 C1996 1.387 . S
C2000 C2001 1.387 . S
C2000 H2004 0.950 . S
C2000 C2009 1.390 . S
C2001 C2000 1.387 . S
C2001 C2003 1.387 1_545 S
H2002 C2009 0.950 . S
C2003 C2001 1.387 1_565 S
C2003 C2005 1.390 . S
C2003 H2007 0.950 . S
H2004 C2000 0.950 . S
C2005 C2003 1.390 . S
C2005 C2006 1.387 1_565 S
C2005 H2008 0.950 . S
C2006 C2005 1.387 1_545 S
C2006 C2009 1.387 . S
H2007 C2003 0.950 . S
H2008 C2005 0.950 . S
C2009 C2000 1.390 . S
C2009 H2002 0.950 . S
C2009 C2006 1.387 . S
C2010 C2011 1.387 . S
C2010 H2014 0.950 . S
C2010 C2019 1.390 . S
C2011 C2010 1.387 . S
C2011 C2013 1.387 . S
H2012 C2019 0.950 . S
C2013 C2011 1.387 . S
C2013 C2015 1.390 . S
C2013 H2017 0.950 . S
H2014 C2010 0.950 . S
C2015 C2013 1.390 . S
C2015 C2016 1.387 . S
C2015 H2018 0.950 . S
C2016 C2015 1.387 . S
C2016 C2019 1.387 . S
H2017 C2013 0.950 . S
H2018 C2015 0.950 . S
C2019 C2010 1.390 . S
C2019 H2012 0.950 . S
C2019 C2016 1.387 . S
C2020 C2021 1.387 1_565 S
C2020 H2024 0.950 . S
C2020 C2029 1.390 . S
C2021 C2020 1.387 1_545 S
C2021 C2023 1.387 . S
H2022 C2029 0.950 . S
C2023 C2021 1.387 . S
C2023 C2025 1.390 . S
C2023 H2027 0.950 . S
H2024 C2020 0.950 . S
C2025 C2023 1.390 . S
C2025 C2026 1.387 . S
C2025 H2028 0.950 . S
C2026 C2025 1.387 . S
C2026 C2029 1.387 1_545 S
H2027 C2023 0.950 . S
H2028 C2025 0.950 . S
C2029 C2020 1.390 . S
C2029 H2022 0.950 . S
C2029 C2026 1.387 1_565 S
C2030 C2031 1.387 . S
C2030 H2034 0.950 . S
C2030 C2039 1.390 . S
C2031 C2030 1.387 . S
C2031 C2033 1.387 . S
H2032 C2039 0.950 . S
C2033 C2031 1.387 . S
C2033 C2035 1.390 . S
C2033 H2037 0.950 . S
H2034 C2030 0.950 . S
C2035 C2033 1.390 . S
C2035 C2036 1.387 . S
C2035 H2038 0.950 . S
C2036 C2035 1.387 . S
C2036 C2039 1.387 . S
H2037 C2033 0.950 . S
H2038 C2035 0.950 . S
C2039 C2030 1.390 . S
C2039 H2032 0.950 . S
C2039 C2036 1.387 . S
C2040 C2041 1.387 . S
C2040 H2044 0.950 . S
C2040 C2049 1.390 . S
C2041 C2040 1.387 . S
C2041 C2043 1.387 1_565 S
H2042 C2049 0.950 . S
C2043 C2041 1.387 1_545 S
C2043 C2045 1.390 . S
C2043 H2047 0.950 . S
H2044 C2040 0.950 . S
C2045 C2043 1.390 . S
C2045 C2046 1.387 . S
C2045 H2048 0.950 . S
C2046 C2045 1.387 . S
C2046 C2049 1.387 1_545 S
H2047 C2043 0.950 . S
H2048 C2045 0.950 . S
C2049 C2040 1.390 . S
C2049 H2042 0.950 . S
C2049 C2046 1.387 1_565 S
C2050 C2051 1.387 . S
C2050 H2054 0.950 . S
C2050 C2059 1.390 . S
C2051 C2050 1.387 . S
C2051 C2053 1.387 . S
H2052 C2059 0.950 . S
C2053 C2051 1.387 . S
C2053 C2055 1.390 . S
C2053 H2057 0.950 . S
H2054 C2050 0.950 . S
C2055 C2053 1.390 . S
C2055 C2056 1.387 . S
C2055 H2058 0.950 . S
C2056 C2055 1.387 . S
C2056 C2059 1.387 . S
H2057 C2053 0.950 . S
H2058 C2055 0.950 . S
C2059 C2050 1.390 . S
C2059 H2052 0.950 . S
C2059 C2056 1.387 . S
C2060 C2061 1.378 1_545 S
C2060 H2064 0.950 . S
C2060 C2069 1.390 . S
C2061 C2060 1.378 1_565 S
C2061 C2063 1.392 . S
H2062 C2069 0.950 . S
C2063 C2061 1.392 . S
C2063 C2065 1.390 . S
C2063 H2067 0.950 . S
H2064 C2060 0.950 . S
C2065 C2063 1.390 . S
C2065 C2066 1.387 1_565 S
C2065 H2068 0.950 . S
C2066 C2065 1.387 1_545 S
C2066 C2069 1.387 . S
H2067 C2063 0.950 . S
H2068 C2065 0.950 . S
C2069 C2060 1.390 . S
C2069 H2062 0.950 . S
C2069 C2066 1.387 . S
C2070 C2071 1.387 . S
C2070 H2074 0.950 . S
C2070 C2079 1.390 . S
C2071 C2070 1.387 . S
C2071 C2073 1.387 . S
H2072 C2079 0.950 . S
C2073 C2071 1.387 . S
C2073 C2075 1.390 . S
C2073 H2077 0.950 . S
H2074 C2070 0.950 . S
C2075 C2073 1.390 . S
C2075 C2076 1.387 . S
C2075 H2078 0.950 . S
C2076 C2075 1.387 . S
C2076 C2079 1.387 . S
H2077 C2073 0.950 . S
H2078 C2075 0.950 . S
C2079 C2070 1.390 . S
C2079 H2072 0.950 . S
C2079 C2076 1.387 . S
C2080 C2081 1.387 . S
C2080 H2084 0.950 . S
C2080 C2089 1.390 . S
C2081 C2080 1.387 . S
C2081 C2083 1.387 . S
H2082 C2089 0.950 . S
C2083 C2081 1.387 . S
C2083 C2085 1.390 1_554 S
C2083 H2087 0.950 1_554 S
H2084 C2080 0.950 . S
C2085 C2083 1.390 1_556 S
C2085 C2086 1.387 1_556 S
C2085 H2088 0.950 . S
C2086 C2085 1.387 1_554 S
C2086 C2089 1.387 . S
H2087 C2083 0.950 1_556 S
H2088 C2085 0.950 . S
C2089 C2080 1.390 . S
C2089 H2082 0.950 . S
C2089 C2086 1.387 . S
C2090 C2091 1.387 . S
C2090 H2094 0.950 . S
C2090 C2099 1.390 . S
C2091 C2090 1.387 . S
C2091 C2093 1.387 . S
H2092 C2099 0.950 . S
C2093 C2091 1.387 . S
C2093 C2095 1.390 . S
C2093 H2097 0.950 1_554 S
H2094 C2090 0.950 . S
C2095 C2093 1.390 . S
C2095 C2096 1.387 . S
C2095 H2098 0.950 1_554 S
C2096 C2095 1.387 . S
C2096 C2099 1.387 . S
H2097 C2093 0.950 1_556 S
H2098 C2095 0.950 1_556 S
C2099 C2090 1.390 . S
C2099 H2092 0.950 . S
C2099 C2096 1.387 . S
C2100 C2101 1.387 . S
C2100 H2104 0.950 . S
C2100 C2109 1.390 . S
C2101 C2100 1.387 . S
C2101 C2103 1.387 . S
H2102 C2109 0.950 . S
C2103 C2101 1.387 . S
C2103 C2105 1.390 . S
C2103 H2107 0.950 . S
H2104 C2100 0.950 . S
C2105 C2103 1.390 . S
C2105 C2106 1.387 . S
C2105 H2108 0.950 . S
C2106 C2105 1.387 . S
C2106 C2109 1.387 . S
H2107 C2103 0.950 . S
H2108 C2105 0.950 . S
C2109 C2100 1.390 . S
C2109 H2102 0.950 . S
C2109 C2106 1.387 . S
C2110 C2111 1.387 . S
C2110 H2114 0.950 . S
C2110 C2119 1.390 . S
C2111 C2110 1.387 . S
C2111 C2113 1.387 . S
H2112 C2119 0.950 . S
C2113 C2111 1.387 . S
C2113 C2115 1.390 . S
C2113 H2117 0.950 . S
H2114 C2110 0.950 . S
C2115 C2113 1.390 . S
C2115 C2116 1.387 . S
C2115 H2118 0.950 . S
C2116 C2115 1.387 . S
C2116 C2119 1.387 . S
H2117 C2113 0.950 . S
H2118 C2115 0.950 . S
C2119 C2110 1.390 . S
C2119 H2112 0.950 . S
C2119 C2116 1.387 . S
C2120 C2121 1.387 . S
C2120 H2124 0.950 . S
C2120 C2129 1.390 . S
C2121 C2120 1.387 . S
C2121 C2123 1.387 1_565 S
H2122 C2129 0.950 . S
C2123 C2121 1.387 1_545 S
C2123 C2125 1.390 . S
C2123 H2127 0.950 . S
H2124 C2120 0.950 . S
C2125 C2123 1.390 . S
C2125 C2126 1.387 1_545 S
C2125 H2128 0.950 . S
C2126 C2125 1.387 1_565 S
C2126 C2129 1.387 . S
H2127 C2123 0.950 . S
H2128 C2125 0.950 . S
C2129 C2120 1.390 . S
C2129 H2122 0.950 . S
C2129 C2126 1.387 . S
C2130 C2131 1.387 . S
C2130 H2134 0.950 . S
C2130 C2139 1.390 . S
C2131 C2130 1.387 . S
C2131 C2133 1.387 . S
H2132 C2139 0.950 . S
C2133 C2131 1.387 . S
C2133 C2135 1.390 . S
C2133 H2137 0.950 . S
H2134 C2130 0.950 . S
C2135 C2133 1.390 . S
C2135 C2136 1.387 . S
C2135 H2138 0.950 . S
C2136 C2135 1.387 . S
C2136 C2139 1.387 . S
H2137 C2133 0.950 . S
H2138 C2135 0.950 . S
C2139 C2130 1.390 . S
C2139 H2132 0.950 . S
C2139 C2136 1.387 . S
C2140 C2141 1.387 . S
C2140 H2144 0.950 . S
C2140 C2149 1.390 . S
C2141 C2140 1.387 . S
C2141 C2143 1.387 . S
H2142 C2149 0.950 . S
C2143 C2141 1.387 . S
C2143 C2145 1.390 . S
C2143 H2147 0.950 . S
H2144 C2140 0.950 . S
C2145 C2143 1.390 . S
C2145 C2146 1.387 . S
C2145 H2148 0.950 . S
C2146 C2145 1.387 . S
C2146 C2149 1.387 . S
H2147 C2143 0.950 . S
H2148 C2145 0.950 . S
C2149 C2140 1.390 . S
C2149 H2142 0.950 . S
C2149 C2146 1.387 . S
C2150 C2151 1.387 . S
C2150 H2154 0.950 . S
C2150 C2159 1.390 . S
C2151 C2150 1.387 . S
C2151 C2153 1.387 . S
H2152 C2159 0.950 . S
C2153 C2151 1.387 . S
C2153 C2155 1.390 . S
C2153 H2157 0.950 . S
H2154 C2150 0.950 . S
C2155 C2153 1.390 . S
C2155 C2156 1.387 . S
C2155 H2158 0.950 . S
C2156 C2155 1.387 . S
C2156 C2159 1.387 . S
H2157 C2153 0.950 . S
H2158 C2155 0.950 . S
C2159 C2150 1.390 . S
C2159 H2152 0.950 . S
C2159 C2156 1.387 . S
C2160 C2161 1.387 . S
C2160 H2164 0.950 . S
C2160 C2169 1.390 . S
C2161 C2160 1.387 . S
C2161 C2163 1.387 . S
H2162 C2169 0.950 . S
C2163 C2161 1.387 . S
C2163 C2165 1.390 . S
C2163 H2167 0.950 . S
H2164 C2160 0.950 . S
C2165 C2163 1.390 . S
C2165 C2166 1.387 . S
C2165 H2168 0.950 . S
C2166 C2165 1.387 . S
C2166 C2169 1.387 . S
H2167 C2163 0.950 . S
H2168 C2165 0.950 . S
C2169 C2160 1.390 . S
C2169 H2162 0.950 . S
C2169 C2166 1.387 . S
C2170 C2171 1.387 . S
C2170 H2174 0.950 . S
C2170 C2179 1.390 . S
C2171 C2170 1.387 . S
C2171 C2173 1.387 . S
H2172 C2179 0.950 . S
C2173 C2171 1.387 . S
C2173 C2175 1.390 . S
C2173 H2177 0.950 . S
H2174 C2170 0.950 . S
C2175 C2173 1.390 . S
C2175 C2176 1.387 . S
C2175 H2178 0.950 . S
C2176 C2175 1.387 . S
C2176 C2179 1.387 . S
H2177 C2173 0.950 . S
H2178 C2175 0.950 . S
C2179 C2170 1.390 . S
C2179 H2172 0.950 . S
C2179 C2176 1.387 . S
C2180 C2181 1.387 1_554 S
C2180 H2184 0.950 . S
C2180 C2189 1.390 . S
C2181 C2180 1.387 1_556 S
C2181 C2183 1.387 . S
H2182 C2189 0.950 . S
C2183 C2181 1.387 . S
C2183 C2185 1.390 . S
C2183 H2187 0.950 . S
H2184 C2180 0.950 . S
C2185 C2183 1.390 . S
C2185 C2186 1.387 1_556 S
C2185 H2188 0.950 . S
C2186 C2185 1.387 1_554 S
C2186 C2189 1.387 . S
H2187 C2183 0.950 . S
H2188 C2185 0.950 . S
C2189 C2180 1.390 . S
C2189 H2182 0.950 . S
C2189 C2186 1.387 . S
C2190 C2191 1.387 . S
C2190 H2194 0.950 . S
C2190 C2199 1.390 . S
C2191 C2190 1.387 . S
C2191 C2193 1.387 . S
H2192 C2199 0.950 1_655 S
C2193 C2191 1.387 . S
C2193 C2195 1.390 . S
C2193 H2197 0.950 . S
H2194 C2190 0.950 . S
C2195 C2193 1.390 . S
C2195 C2196 1.387 1_455 S
C2195 H2198 0.959 . S
C2196 C2195 1.387 1_655 S
C2196 C2199 1.387 1_655 S
H2197 C2193 0.950 . S
H2198 C2195 0.959 . S
C2199 C2190 1.390 . S
C2199 H2192 0.950 1_455 S
C2199 C2196 1.387 1_455 S
C2200 C2201 1.387 . S
C2200 H2204 0.950 . S
C2200 C2209 1.390 . S
C2201 C2200 1.387 . S
C2201 C2203 1.387 . S
H2202 C2209 0.950 . S
C2203 C2201 1.387 . S
C2203 C2205 1.390 . S
C2203 H2207 0.950 . S
H2204 C2200 0.950 . S
C2205 C2203 1.390 . S
C2205 C2206 1.387 . S
C2205 H2208 0.950 . S
C2206 C2205 1.387 . S
C2206 C2209 1.387 . S
H2207 C2203 0.950 . S
H2208 C2205 0.950 . S
C2209 C2200 1.390 . S
C2209 H2202 0.950 . S
C2209 C2206 1.387 . S
C2210 C2211 1.387 . S
C2210 H2214 0.950 . S
C2210 C2219 1.390 . S
C2211 C2210 1.387 . S
C2211 C2213 1.387 . S
H2212 C2219 0.950 . S
C2213 C2211 1.387 . S
C2213 C2215 1.390 . S
C2213 H2217 0.950 . S
H2214 C2210 0.950 . S
C2215 C2213 1.390 . S
C2215 C2216 1.387 . S
C2215 H2218 0.950 . S
C2216 C2215 1.387 . S
C2216 C2219 1.387 . S
H2217 C2213 0.950 . S
H2218 C2215 0.950 . S
C2219 C2210 1.390 . S
C2219 H2212 0.950 . S
C2219 C2216 1.387 . S
C2220 C2221 1.387 1_455 S
C2220 H2224 0.950 . S
C2220 C2229 1.390 . S
C2221 C2220 1.387 1_655 S
C2221 C2223 1.387 1_655 S
H2222 C2229 0.950 . S
C2223 C2221 1.387 1_455 S
C2223 C2225 1.390 . S
C2223 H2227 0.950 1_455 S
H2224 C2220 0.950 . S
C2225 C2223 1.390 . S
C2225 C2226 1.387 . S
C2225 H2228 0.950 . S
C2226 C2225 1.387 . S
C2226 C2229 1.387 . S
H2227 C2223 0.950 1_655 S
H2228 C2225 0.950 . S
C2229 C2220 1.390 . S
C2229 H2222 0.950 . S
C2229 C2226 1.387 . S
C2230 C2231 1.387 . S
C2230 H2234 0.950 . S
C2230 C2239 1.390 . S
C2231 C2230 1.387 . S
C2231 C2233 1.387 . S
H2232 C2239 0.950 . S
C2233 C2231 1.387 . S
C2233 C2235 1.390 . S
C2233 H2237 0.950 . S
H2234 C2230 0.950 . S
C2235 C2233 1.390 . S
C2235 C2236 1.387 . S
C2235 H2238 0.950 . S
C2236 C2235 1.387 . S
C2236 C2239 1.387 . S
H2237 C2233 0.950 . S
H2238 C2235 0.950 . S
C2239 C2230 1.390 . S
C2239 H2232 0.950 . S
C2239 C2236 1.387 . S
C2240 C2241 1.387 . S
C2240 H2244 0.950 . S
C2240 C2249 1.390 . S
C2241 C2240 1.387 . S
C2241 C2243 1.387 . S
H2242 C2249 0.950 . S
C2243 C2241 1.387 . S
C2243 C2245 1.390 . S
C2243 H2247 0.950 . S
H2244 C2240 0.950 . S
C2245 C2243 1.390 . S
C2245 C2246 1.387 . S
C2245 H2248 0.950 . S
C2246 C2245 1.387 . S
C2246 C2249 1.387 . S
H2247 C2243 0.950 . S
H2248 C2245 0.950 . S
C2249 C2240 1.390 . S
C2249 H2242 0.950 . S
C2249 C2246 1.387 . S
C2250 C2251 1.387 . S
C2250 H2254 0.950 . S
C2250 C2259 1.390 . S
C2251 C2250 1.387 . S
C2251 C2253 1.387 . S
H2252 C2259 0.950 . S
C2253 C2251 1.387 . S
C2253 C2255 1.390 . S
C2253 H2257 0.950 . S
H2254 C2250 0.950 . S
C2255 C2253 1.390 . S
C2255 C2256 1.387 . S
C2255 H2258 0.950 . S
C2256 C2255 1.387 . S
C2256 C2259 1.387 . S
H2257 C2253 0.950 . S
H2258 C2255 0.950 . S
C2259 C2250 1.390 . S
C2259 H2252 0.950 . S
C2259 C2256 1.387 . S
C2260 C2261 1.387 . S
C2260 H2264 0.950 . S
C2260 C2269 1.390 . S
C2261 C2260 1.387 . S
C2261 C2263 1.387 . S
H2262 C2269 0.950 . S
C2263 C2261 1.387 . S
C2263 C2265 1.390 . S
C2263 H2267 0.950 . S
H2264 C2260 0.950 . S
C2265 C2263 1.390 . S
C2265 C2266 1.387 . S
C2265 H2268 0.950 . S
C2266 C2265 1.387 . S
C2266 C2269 1.387 . S
H2267 C2263 0.950 . S
H2268 C2265 0.950 . S
C2269 C2260 1.390 . S
C2269 H2262 0.950 . S
C2269 C2266 1.387 . S
C2270 C2271 1.387 . S
C2270 H2274 0.950 . S
C2270 C2279 1.390 . S
C2271 C2270 1.387 . S
C2271 C2273 1.387 . S
H2272 C2279 0.950 . S
C2273 C2271 1.387 . S
C2273 C2275 1.390 . S
C2273 H2277 0.950 . S
H2274 C2270 0.950 . S
C2275 C2273 1.390 . S
C2275 C2276 1.387 . S
C2275 H2278 0.950 . S
C2276 C2275 1.387 . S
C2276 C2279 1.387 . S
H2277 C2273 0.950 . S
H2278 C2275 0.950 . S
C2279 C2270 1.390 . S
C2279 H2272 0.950 . S
C2279 C2276 1.387 . S
C2280 C2281 1.387 . S
C2280 H2284 0.950 . S
C2280 C2289 1.390 . S
C2281 C2280 1.387 . S
C2281 C2283 1.387 . S
H2282 C2289 0.950 . S
C2283 C2281 1.387 . S
C2283 C2285 1.390 . S
C2283 H2287 0.950 . S
H2284 C2280 0.950 . S
C2285 C2283 1.390 . S
C2285 C2286 1.387 . S
C2285 H2288 0.950 . S
C2286 C2285 1.387 . S
C2286 C2289 1.387 . S
H2287 C2283 0.950 . S
H2288 C2285 0.950 . S
C2289 C2280 1.390 . S
C2289 H2282 0.950 . S
C2289 C2286 1.387 . S
C2290 C2291 1.387 . S
C2290 H2294 0.950 . S
C2290 C2299 1.390 . S
C2291 C2290 1.387 . S
C2291 C2293 1.387 . S
H2292 C2299 0.950 . S
C2293 C2291 1.387 . S
C2293 C2295 1.390 . S
C2293 H2297 0.950 . S
H2294 C2290 0.950 . S
C2295 C2293 1.390 . S
C2295 C2296 1.387 . S
C2295 H2298 0.950 . S
C2296 C2295 1.387 . S
C2296 C2299 1.387 . S
H2297 C2293 0.950 . S
H2298 C2295 0.950 . S
C2299 C2290 1.390 . S
C2299 H2292 0.950 . S
C2299 C2296 1.387 . S
C2300 C2301 1.387 . S
C2300 H2304 0.950 . S
C2300 C2309 1.390 . S
C2301 C2300 1.387 . S
C2301 C2303 1.387 . S
H2302 C2309 0.950 . S
C2303 C2301 1.387 . S
C2303 C2305 1.390 . S
C2303 H2307 0.950 . S
H2304 C2300 0.950 . S
C2305 C2303 1.390 . S
C2305 C2306 1.387 . S
C2305 H2308 0.950 . S
C2306 C2305 1.387 . S
C2306 C2309 1.387 . S
H2307 C2303 0.950 . S
H2308 C2305 0.950 . S
C2309 C2300 1.390 . S
C2309 H2302 0.950 . S
C2309 C2306 1.387 . S
C2310 C2311 1.387 . S
C2310 H2314 0.950 . S
C2310 C2319 1.390 . S
C2311 C2310 1.387 . S
C2311 C2313 1.387 . S
H2312 C2319 0.950 . S
C2313 C2311 1.387 . S
C2313 C2315 1.390 . S
C2313 H2317 0.950 . S
H2314 C2310 0.950 . S
C2315 C2313 1.390 . S
C2315 C2316 1.387 . S
C2315 H2318 0.950 . S
C2316 C2315 1.387 . S
C2316 C2319 1.387 . S
H2317 C2313 0.950 . S
H2318 C2315 0.950 . S
C2319 C2310 1.390 . S
C2319 H2312 0.950 . S
C2319 C2316 1.387 . S
C2320 C2321 1.387 . S
C2320 H2324 0.950 . S
C2320 C2329 1.390 . S
C2321 C2320 1.387 . S
C2321 C2323 1.387 . S
H2322 C2329 0.950 . S
C2323 C2321 1.387 . S
C2323 C2325 1.390 . S
C2323 H2327 0.950 . S
H2324 C2320 0.950 . S
C2325 C2323 1.390 . S
C2325 C2326 1.387 . S
C2325 H2328 0.950 . S
C2326 C2325 1.387 . S
C2326 C2329 1.387 . S
H2327 C2323 0.950 . S
H2328 C2325 0.950 . S
C2329 C2320 1.390 . S
C2329 H2322 0.950 . S
C2329 C2326 1.387 . S
C2330 C2331 1.387 . S
C2330 H2334 0.950 . S
C2330 C2339 1.390 . S
C2331 C2330 1.387 . S
C2331 C2333 1.387 . S
H2332 C2339 0.950 . S
C2333 C2331 1.387 . S
C2333 C2335 1.390 . S
C2333 H2337 0.950 . S
H2334 C2330 0.950 . S
C2335 C2333 1.390 . S
C2335 C2336 1.387 . S
C2335 H2338 0.950 . S
C2336 C2335 1.387 . S
C2336 C2339 1.387 . S
H2337 C2333 0.950 . S
H2338 C2335 0.950 . S
C2339 C2330 1.390 . S
C2339 H2332 0.950 . S
C2339 C2336 1.387 . S
C2340 C2341 1.387 . S
C2340 H2344 0.950 . S
C2340 C2349 1.390 . S
C2341 C2340 1.387 . S
C2341 C2343 1.387 . S
H2342 C2349 0.950 . S
C2343 C2341 1.387 . S
C2343 C2345 1.390 . S
C2343 H2347 0.950 . S
H2344 C2340 0.950 . S
C2345 C2343 1.390 . S
C2345 C2346 1.387 . S
C2345 H2348 0.950 . S
C2346 C2345 1.387 . S
C2346 C2349 1.387 . S
H2347 C2343 0.950 . S
H2348 C2345 0.950 . S
C2349 C2340 1.390 . S
C2349 H2342 0.950 . S
C2349 C2346 1.387 . S
C2350 C2351 1.387 1_556 S
C2350 H2354 0.950 . S
C2350 C2359 1.390 . S
C2351 C2350 1.387 1_554 S
C2351 C2353 1.387 1_565 S
H2352 C2359 0.950 . S
C2353 C2351 1.387 1_545 S
C2353 C2355 1.390 . S
C2353 H2357 0.950 . S
H2354 C2350 0.950 . S
C2355 C2353 1.390 . S
C2355 C2356 1.387 . S
C2355 H2358 0.950 . S
C2356 C2355 1.387 . S
C2356 C2359 1.387 1_544 S
H2357 C2353 0.950 . S
H2358 C2355 0.950 . S
C2359 C2350 1.390 . S
C2359 H2352 0.950 . S
C2359 C2356 1.387 1_566 S
C2360 C2361 1.387 . S
C2360 H2364 0.950 . S
C2360 C2369 1.390 . S
C2361 C2360 1.387 . S
C2361 C2363 1.387 . S
H2362 C2369 0.950 . S
C2363 C2361 1.387 . S
C2363 C2365 1.390 . S
C2363 H2367 0.950 . S
H2364 C2360 0.950 . S
C2365 C2363 1.390 . S
C2365 C2366 1.387 . S
C2365 H2368 0.950 . S
C2366 C2365 1.387 . S
C2366 C2369 1.387 . S
H2367 C2363 0.950 . S
H2368 C2365 0.950 . S
C2369 C2360 1.390 . S
C2369 H2362 0.950 . S
C2369 C2366 1.387 . S
C2370 C2371 1.387 1_556 S
C2370 H2374 0.950 . S
C2370 C2379 1.390 1_556 S
C2371 C2370 1.387 1_554 S
C2371 C2373 1.387 . S
H2372 C2379 0.950 . S
C2373 C2371 1.387 . S
C2373 C2375 1.390 . S
C2373 H2377 0.950 . S
H2374 C2370 0.950 . S
C2375 C2373 1.390 . S
C2375 C2376 1.387 . S
C2375 H2378 0.950 . S
C2376 C2375 1.387 . S
C2376 C2379 1.387 . S
H2377 C2373 0.950 . S
H2378 C2375 0.950 . S
C2379 C2370 1.390 1_554 S
C2379 H2372 0.950 . S
C2379 C2376 1.387 . S
C2380 C2381 1.387 . S
C2380 H2384 0.950 . S
C2380 C2389 1.390 . S
C2381 C2380 1.387 . S
C2381 C2383 1.387 . S
H2382 C2389 0.950 . S
C2383 C2381 1.387 . S
C2383 C2385 1.390 . S
C2383 H2387 0.950 . S
H2384 C2380 0.950 . S
C2385 C2383 1.390 . S
C2385 C2386 1.387 . S
C2385 H2388 0.950 . S
C2386 C2385 1.387 . S
C2386 C2389 1.387 . S
H2387 C2383 0.950 . S
H2388 C2385 0.950 . S
C2389 C2380 1.390 . S
C2389 H2382 0.950 . S
C2389 C2386 1.387 . S
C2390 C2391 1.387 . S
C2390 H2394 0.950 . S
C2390 C2399 1.390 . S
C2391 C2390 1.387 . S
C2391 C2393 1.387 . S
H2392 C2399 0.950 . S
C2393 C2391 1.387 . S
C2393 C2395 1.390 . S
C2393 H2397 0.950 . S
H2394 C2390 0.950 . S
C2395 C2393 1.390 . S
C2395 C2396 1.387 . S
C2395 H2398 0.950 . S
C2396 C2395 1.387 . S
C2396 C2399 1.387 . S
H2397 C2393 0.950 . S
H2398 C2395 0.950 . S
C2399 C2390 1.390 . S
C2399 H2392 0.950 . S
C2399 C2396 1.387 . S
C2400 C2401 1.387 . S
C2400 H2404 0.950 . S
C2400 C2409 1.390 . S
C2401 C2400 1.387 . S
C2401 C2403 1.387 . S
H2402 C2409 0.950 . S
C2403 C2401 1.387 . S
C2403 C2405 1.390 . S
C2403 H2407 0.950 . S
H2404 C2400 0.950 . S
C2405 C2403 1.390 . S
C2405 C2406 1.387 . S
C2405 H2408 0.950 . S
C2406 C2405 1.387 . S
C2406 C2409 1.387 . S
H2407 C2403 0.950 . S
H2408 C2405 0.950 . S
C2409 C2400 1.390 . S
C2409 H2402 0.950 . S
C2409 C2406 1.387 . S
C2410 C2411 1.387 . S
C2410 H2414 0.950 . S
C2410 C2419 1.390 . S
C2411 C2410 1.387 . S
C2411 C2413 1.387 . S
H2412 C2419 0.950 . S
C2413 C2411 1.387 . S
C2413 C2415 1.390 . S
C2413 H2417 0.950 . S
H2414 C2410 0.950 . S
C2415 C2413 1.390 . S
C2415 C2416 1.387 . S
C2415 H2418 0.950 . S
C2416 C2415 1.387 . S
C2416 C2419 1.387 . S
H2417 C2413 0.950 . S
H2418 C2415 0.950 . S
C2419 C2410 1.390 . S
C2419 H2412 0.950 . S
C2419 C2416 1.387 . S
C2420 C2421 1.387 . S
C2420 H2424 0.950 1_554 S
C2420 C2429 1.390 . S
C2421 C2420 1.387 . S
C2421 C2423 1.387 . S
H2422 C2429 0.950 1_556 S
C2423 C2421 1.387 . S
C2423 C2425 1.390 . S
C2423 H2427 0.950 . S
H2424 C2420 0.950 1_556 S
C2425 C2423 1.390 . S
C2425 C2426 1.387 . S
C2425 H2428 0.950 . S
C2426 C2425 1.387 . S
C2426 C2429 1.387 . S
H2427 C2423 0.950 . S
H2428 C2425 0.950 . S
C2429 C2420 1.390 . S
C2429 H2422 0.950 1_554 S
C2429 C2426 1.387 . S
C2430 C2431 1.387 . S
C2430 H2434 0.950 . S
C2430 C2439 1.390 . S
C2431 C2430 1.387 . S
C2431 C2433 1.387 . S
H2432 C2439 0.950 . S
C2433 C2431 1.387 . S
C2433 C2435 1.390 . S
C2433 H2437 0.950 . S
H2434 C2430 0.950 . S
C2435 C2433 1.390 . S
C2435 C2436 1.387 . S
C2435 H2438 0.950 . S
C2436 C2435 1.387 . S
C2436 C2439 1.387 . S
H2437 C2433 0.950 . S
H2438 C2435 0.950 . S
C2439 C2430 1.390 . S
C2439 H2432 0.950 . S
C2439 C2436 1.387 . S
C2440 C2441 1.387 . S
C2440 H2444 0.950 . S
C2440 C2449 1.390 . S
C2441 C2440 1.387 . S
C2441 C2443 1.387 . S
H2442 C2449 0.950 . S
C2443 C2441 1.387 . S
C2443 C2445 1.390 . S
C2443 H2447 0.950 . S
H2444 C2440 0.950 . S
C2445 C2443 1.390 . S
C2445 C2446 1.387 . S
C2445 H2448 0.950 . S
C2446 C2445 1.387 . S
C2446 C2449 1.387 . S
H2447 C2443 0.950 . S
H2448 C2445 0.950 . S
C2449 C2440 1.390 . S
C2449 H2442 0.950 . S
C2449 C2446 1.387 . S
C2450 C2451 1.387 . S
C2450 H2454 0.950 . S
C2450 C2459 1.390 . S
C2451 C2450 1.387 . S
C2451 C2453 1.387 . S
H2452 C2459 0.950 . S
C2453 C2451 1.387 . S
C2453 C2455 1.390 . S
C2453 H2457 0.950 . S
H2454 C2450 0.950 . S
C2455 C2453 1.390 . S
C2455 C2456 1.387 . S
C2455 H2458 0.950 . S
C2456 C2455 1.387 . S
C2456 C2459 1.387 . S
H2457 C2453 0.950 . S
H2458 C2455 0.950 . S
C2459 C2450 1.390 . S
C2459 H2452 0.950 . S
C2459 C2456 1.387 . S
C2460 C2461 1.387 . S
C2460 H2464 0.950 . S
C2460 C2469 1.390 . S
C2461 C2460 1.387 . S
C2461 C2463 1.387 . S
H2462 C2469 0.950 . S
C2463 C2461 1.387 . S
C2463 C2465 1.390 . S
C2463 H2467 0.950 . S
H2464 C2460 0.950 . S
C2465 C2463 1.390 . S
C2465 C2466 1.387 . S
C2465 H2468 0.950 . S
C2466 C2465 1.387 . S
C2466 C2469 1.387 . S
H2467 C2463 0.950 . S
H2468 C2465 0.950 . S
C2469 C2460 1.390 . S
C2469 H2462 0.950 . S
C2469 C2466 1.387 . S
C2470 C2471 1.387 . S
C2470 H2474 0.950 . S
C2470 C2479 1.390 . S
C2471 C2470 1.387 . S
C2471 C2473 1.387 . S
H2472 C2479 0.950 . S
C2473 C2471 1.387 . S
C2473 C2475 1.390 . S
C2473 H2477 0.950 . S
H2474 C2470 0.950 . S
C2475 C2473 1.390 . S
C2475 C2476 1.387 . S
C2475 H2478 0.950 . S
C2476 C2475 1.387 . S
C2476 C2479 1.387 . S
H2477 C2473 0.950 . S
H2478 C2475 0.950 . S
C2479 C2470 1.390 . S
C2479 H2472 0.950 . S
C2479 C2476 1.387 . S
C2480 C2481 1.387 . S
C2480 H2484 0.950 . S
C2480 C2489 1.390 . S
C2481 C2480 1.387 . S
C2481 C2483 1.387 . S
H2482 C2489 0.950 . S
C2483 C2481 1.387 . S
C2483 C2485 1.390 . S
C2483 H2487 0.950 . S
H2484 C2480 0.950 . S
C2485 C2483 1.390 . S
C2485 C2486 1.387 . S
C2485 H2488 0.950 . S
C2486 C2485 1.387 . S
C2486 C2489 1.387 . S
H2487 C2483 0.950 . S
H2488 C2485 0.950 . S
C2489 C2480 1.390 . S
C2489 H2482 0.950 . S
C2489 C2486 1.387 . S
C2490 C2491 1.387 . S
C2490 H2494 0.950 . S
C2490 C2499 1.390 . S
C2491 C2490 1.387 . S
C2491 C2493 1.387 . S
H2492 C2499 0.950 . S
C2493 C2491 1.387 . S
C2493 C2495 1.390 . S
C2493 H2497 0.950 . S
H2494 C2490 0.950 . S
C2495 C2493 1.390 . S
C2495 C2496 1.387 . S
C2495 H2498 0.950 . S
C2496 C2495 1.387 . S
C2496 C2499 1.387 . S
H2497 C2493 0.950 . S
H2498 C2495 0.950 . S
C2499 C2490 1.390 . S
C2499 H2492 0.950 . S
C2499 C2496 1.387 . S
C2500 C2501 1.387 . S
C2500 H2504 0.950 . S
C2500 C2509 1.390 1_655 S
C2501 C2500 1.387 . S
C2501 C2503 1.387 . S
H2502 C2509 0.950 . S
C2503 C2501 1.387 . S
C2503 C2505 1.390 1_655 S
C2503 H2507 0.950 . S
H2504 C2500 0.950 . S
C2505 C2503 1.390 1_455 S
C2505 C2506 1.387 . S
C2505 H2508 0.950 . S
C2506 C2505 1.387 . S
C2506 C2509 1.387 . S
H2507 C2503 0.950 . S
H2508 C2505 0.950 . S
C2509 C2500 1.390 1_455 S
C2509 H2502 0.950 . S
C2509 C2506 1.387 . S
C2510 C2511 1.387 . S
C2510 H2514 0.950 . S
C2510 C2519 1.390 . S
C2511 C2510 1.387 . S
C2511 C2513 1.387 . S
H2512 C2519 0.950 . S
C2513 C2511 1.387 . S
C2513 C2515 1.390 . S
C2513 H2517 0.950 . S
H2514 C2510 0.950 . S
C2515 C2513 1.390 . S
C2515 C2516 1.387 . S
C2515 H2518 0.950 . S
C2516 C2515 1.387 . S
C2516 C2519 1.387 . S
H2517 C2513 0.950 . S
H2518 C2515 0.950 . S
C2519 C2510 1.390 . S
C2519 H2512 0.950 . S
C2519 C2516 1.387 . S
C2520 C2521 1.387 . S
C2520 H2524 0.950 . S
C2520 C2529 1.390 . S
C2521 C2520 1.387 . S
C2521 C2523 1.387 . S
H2522 C2529 0.950 . S
C2523 C2521 1.387 . S
C2523 C2525 1.390 . S
C2523 H2527 0.950 . S
H2524 C2520 0.950 . S
C2525 C2523 1.390 . S
C2525 C2526 1.387 . S
C2525 H2528 0.950 . S
C2526 C2525 1.387 . S
C2526 C2529 1.387 . S
H2527 C2523 0.950 . S
H2528 C2525 0.950 . S
C2529 C2520 1.390 . S
C2529 H2522 0.950 . S
C2529 C2526 1.387 . S
C2530 C2531 1.387 . S
C2530 H2534 0.950 . S
C2530 C2539 1.390 . S
C2531 C2530 1.387 . S
C2531 C2533 1.387 . S
H2532 C2539 0.950 . S
C2533 C2531 1.387 . S
C2533 C2535 1.390 . S
C2533 H2537 0.950 . S
H2534 C2530 0.950 . S
C2535 C2533 1.390 . S
C2535 C2536 1.387 . S
C2535 H2538 0.950 . S
C2536 C2535 1.387 . S
C2536 C2539 1.387 . S
H2537 C2533 0.950 . S
H2538 C2535 0.950 . S
C2539 C2530 1.390 . S
C2539 H2532 0.950 . S
C2539 C2536 1.387 . S
C2540 C2541 1.387 . S
C2540 H2544 0.950 . S
C2540 C2549 1.390 . S
C2541 C2540 1.387 . S
C2541 C2543 1.387 . S
H2542 C2549 0.950 . S
C2543 C2541 1.387 . S
C2543 C2545 1.390 . S
C2543 H2547 0.950 . S
H2544 C2540 0.950 . S
C2545 C2543 1.390 . S
C2545 C2546 1.387 . S
C2545 H2548 0.975 . S
C2546 C2545 1.387 . S
C2546 C2549 1.387 . S
H2547 C2543 0.950 . S
H2548 C2545 0.975 . S
C2549 C2540 1.390 . S
C2549 H2542 0.950 . S
C2549 C2546 1.387 . S
C2550 C2551 1.387 . S
C2550 H2554 0.950 . S
C2550 C2559 1.390 . S
C2551 C2550 1.387 . S
C2551 C2553 1.387 . S
H2552 C2559 0.950 . S
C2553 C2551 1.387 . S
C2553 C2555 1.390 . S
C2553 H2557 0.950 . S
H2554 C2550 0.950 . S
C2555 C2553 1.390 . S
C2555 C2556 1.387 . S
C2555 H2558 0.950 . S
C2556 C2555 1.387 . S
C2556 C2559 1.387 . S
H2557 C2553 0.950 . S
H2558 C2555 0.950 . S
C2559 C2550 1.390 . S
C2559 H2552 0.950 . S
C2559 C2556 1.387 . S
C2560 C2561 1.387 . S
C2560 H2564 0.950 . S
C2560 C2569 1.390 . S
C2561 C2560 1.387 . S
C2561 C2563 1.387 . S
H2562 C2569 0.950 . S
C2563 C2561 1.387 . S
C2563 C2565 1.390 . S
C2563 H2567 0.950 . S
H2564 C2560 0.950 . S
C2565 C2563 1.390 . S
C2565 C2566 1.387 . S
C2565 H2568 0.950 . S
C2566 C2565 1.387 . S
C2566 C2569 1.387 . S
H2567 C2563 0.950 . S
H2568 C2565 0.950 . S
C2569 C2560 1.390 . S
C2569 H2562 0.950 . S
C2569 C2566 1.387 . S
C2570 C2571 1.387 . S
C2570 H2574 0.950 . S
C2570 C2579 1.390 . S
C2571 C2570 1.387 . S
C2571 C2573 1.387 . S
H2572 C2579 0.950 . S
C2573 C2571 1.387 . S
C2573 C2575 1.390 . S
C2573 H2577 0.950 . S
H2574 C2570 0.950 . S
C2575 C2573 1.390 . S
C2575 C2576 1.387 . S
C2575 H2578 0.950 . S
C2576 C2575 1.387 . S
C2576 C2579 1.387 . S
H2577 C2573 0.950 . S
H2578 C2575 0.950 . S
C2579 C2570 1.390 . S
C2579 H2572 0.950 . S
C2579 C2576 1.387 . S
C2580 C2581 1.387 . S
C2580 H2584 0.950 . S
C2580 C2589 1.390 . S
C2581 C2580 1.387 . S
C2581 C2583 1.387 . S
H2582 C2589 0.950 . S
C2583 C2581 1.387 . S
C2583 C2585 1.390 . S
C2583 H2587 0.950 . S
H2584 C2580 0.950 . S
C2585 C2583 1.390 . S
C2585 C2586 1.387 . S
C2585 H2588 0.950 . S
C2586 C2585 1.387 . S
C2586 C2589 1.387 . S
H2587 C2583 0.950 . S
H2588 C2585 0.950 . S
C2589 C2580 1.390 . S
C2589 H2582 0.950 . S
C2589 C2586 1.387 . S
C2590 C2591 1.387 . S
C2590 H2594 0.950 . S
C2590 C2599 1.390 . S
C2591 C2590 1.387 . S
C2591 C2593 1.387 1_554 S
H2592 C2599 0.950 . S
C2593 C2591 1.387 1_556 S
C2593 C2595 1.390 . S
C2593 H2597 0.950 . S
H2594 C2590 0.950 . S
C2595 C2593 1.390 . S
C2595 C2596 1.387 1_556 S
C2595 H2598 0.950 . S
C2596 C2595 1.387 1_554 S
C2596 C2599 1.387 . S
H2597 C2593 0.950 . S
H2598 C2595 0.950 . S
C2599 C2590 1.390 . S
C2599 H2592 0.950 . S
C2599 C2596 1.387 . S
C2600 C2601 1.387 . S
C2600 H2604 0.950 . S
C2600 C2609 1.390 . S
C2601 C2600 1.387 . S
C2601 C2603 1.387 . S
H2602 C2609 0.950 . S
C2603 C2601 1.387 . S
C2603 C2605 1.390 . S
C2603 H2607 0.950 . S
H2604 C2600 0.950 . S
C2605 C2603 1.390 . S
C2605 C2606 1.387 . S
C2605 H2608 0.950 . S
C2606 C2605 1.387 . S
C2606 C2609 1.387 . S
H2607 C2603 0.950 . S
H2608 C2605 0.950 . S
C2609 C2600 1.390 . S
C2609 H2602 0.950 . S
C2609 C2606 1.387 . S
C2610 C2611 1.387 . S
C2610 H2614 0.950 . S
C2610 C2619 1.390 . S
C2611 C2610 1.387 . S
C2611 C2613 1.387 . S
H2612 C2619 0.950 . S
C2613 C2611 1.387 . S
C2613 C2615 1.390 . S
C2613 H2617 0.950 . S
H2614 C2610 0.950 . S
C2615 C2613 1.390 . S
C2615 C2616 1.387 . S
C2615 H2618 0.950 1_554 S
C2616 C2615 1.387 . S
C2616 C2619 1.387 . S
H2617 C2613 0.950 . S
H2618 C2615 0.950 1_556 S
C2619 C2610 1.390 . S
C2619 H2612 0.950 . S
C2619 C2616 1.387 . S
C2620 C2621 1.387 . S
C2620 H2624 0.950 . S
C2620 C2629 1.390 . S
C2621 C2620 1.387 . S
C2621 C2623 1.387 . S
H2622 C2629 0.950 . S
C2623 C2621 1.387 . S
C2623 C2625 1.390 . S
C2623 H2627 0.950 . S
H2624 C2620 0.950 . S
C2625 C2623 1.390 . S
C2625 C2626 1.387 . S
C2625 H2628 0.950 . S
C2626 C2625 1.387 . S
C2626 C2629 1.387 . S
H2627 C2623 0.950 . S
H2628 C2625 0.950 . S
C2629 C2620 1.390 . S
C2629 H2622 0.950 . S
C2629 C2626 1.387 . S
C2630 C2631 1.387 . S
C2630 H2634 0.950 . S
C2630 C2639 1.390 . S
C2631 C2630 1.387 . S
C2631 C2633 1.387 . S
H2632 C2639 0.950 . S
C2633 C2631 1.387 . S
C2633 C2635 1.390 . S
C2633 H2637 0.950 . S
H2634 C2630 0.950 . S
C2635 C2633 1.390 . S
C2635 C2636 1.387 . S
C2635 H2638 0.950 . S
C2636 C2635 1.387 . S
C2636 C2639 1.387 . S
H2637 C2633 0.950 . S
H2638 C2635 0.950 . S
C2639 C2630 1.390 . S
C2639 H2632 0.950 . S
C2639 C2636 1.387 . S
C1681 C111 2.066 . S
C1686 C392 1.884 . S
C1691 C64 2.237 . S
C1696 C483 2.276 . S
C1701 C77 1.680 . S
C1706 C560 1.626 . S
C1716 C658 1.201 . S
C1711 C95 1.314 . S
C1721 C25 1.448 . S
C1726 C742 1.446 . S
C1736 C814 1.028 . S
C1731 C36 1.081 . S
C1746 C903 1.377 . S
C1741 C50 1.140 . S
C1751 C11 1.779 . S
C1756 C980 1.482 . S
C1766 C399 2.048 . S
C1761 C237 2.066 1_455 S
C1771 C245 0.810 . S
C1776 C490 0.806 . S
C1786 C567 1.097 . S
C1781 C279 1.055 . S
C1796 C644 1.623 . S
C1791 C175 1.697 . S
C1801 C231 2.056 1_455 S
C1806 C728 1.911 . S
C1816 C830 1.157 . S
C1811 C251 1.162 . S
C1826 C910 0.816 . S
C1821 C273 0.842 . S
C1836 C987 1.659 . S
C1831 C181 1.859 . S
C1846 C406 1.378 . S
C1841 C165 1.421 . S
C1851 C288 1.844 . S
C1856 C1071 1.844 1_556 S
C1866 C1159 2.254 . S
C1861 C333 2.455 . S
C1876 C1232 0.629 . S
C1871 C316 0.642 . S
C1881 C123 1.383 . S
C1886 C994 1.468 . S
C1891 C137 1.476 . S
C1896 C574 1.468 . S
C1901 C330 2.099 . S
C1906 C1323 2.117 . S
C1916 C1400 0.764 . S
C1911 C302 0.776 . S
C1926 C403 1.989 . S
C1921 C63 2.140 . S
C1936 C1418 2.273 . S
C1931 C106 2.329 . S
C1941 C97 1.729 . S
C1946 C571 1.692 . S
C1951 C81 1.357 . S
C1956 C1318 1.241 . S
C1966 C730 1.496 . S
C1961 C13 1.292 . S
C1971 C55 1.043 . S
C1976 C1162 1.012 . S
C1986 C914 1.389 . S
C1981 C35 1.220 . S
C1996 C1495 1.651 . S
C1991 C21 1.868 . S
C2006 C410 2.136 . S
C2001 C147 2.262 . S
C2016 C1402 0.780 . S
C2011 C321 0.790 . S
C2021 C119 1.160 . S
C2026 C578 1.118 . S
C2031 C293 1.744 . S
C2036 C1327 1.724 . S
C2041 C153 1.997 . S
C2046 C739 2.059 . S
C2056 C1155 1.193 . S
C2051 C315 1.285 . S
C2061 C125 0.867 . S
C2066 C898 0.809 . S
C2071 C287 1.956 . S
C2076 C1502 1.746 . S
C2081 C193 1.419 . S
C2086 C394 1.412 1_554 S
C2091 C176 1.898 . S
C2096 C1082 1.848 . S
C2101 C263 2.406 . S
C2106 C812 2.213 . S
C2111 C246 0.809 . S
C2116 C1243 0.837 . S
C2126 C1486 1.364 . S
C2121 C277 1.223 1_565 S
C2131 C221 1.417 . S
C2136 C562 1.466 . S
C2146 C662 2.150 . S
C2141 C260 2.168 . S
C2156 C487 0.875 . S
C2151 C204 0.885 . S
C2161 C83 2.065 . S
C2166 C1568 1.883 . S
C2176 C1407 2.276 . S
C2171 C92 2.237 . S
C2181 C105 1.680 . S
C2186 C1652 1.624 . S
C2191 C67 1.314 . S
C2196 C1330 1.199 . S
C2201 C53 1.450 . S
C2206 C1078 1.445 . S
C2216 C1150 1.027 . S
C2211 C8 1.081 . S
C2226 C1239 1.377 . S
C2221 C22 1.146 . S
C2236 C1484 1.482 . S
C2231 C39 1.780 . S
C2246 C1575 2.048 . S
C2241 C265 2.070 . S
C2251 C189 0.814 . S
C2256 C1414 0.803 . S
C2266 C1659 1.097 . S
C2261 C209 1.049 . S
C2276 C1316 1.623 . S
C2271 C217 1.697 . S
C2286 C1064 1.913 . S
C2281 C259 2.057 . S
C2291 C195 1.164 . S
C2296 C1166 1.160 . S
C2306 C1246 0.821 . S
C2301 C203 0.840 . S
C2311 C223 1.858 . S
C2316 C1491 1.659 . S
C2326 C1582 1.379 . S
C2321 C319 1.421 . S
C2331 C134 1.843 . S
C2336 C735 1.847 . S
C2346 C823 2.255 . S
C2341 C151 2.459 . S
C2356 C896 0.636 . S
C2351 C162 0.633 . S
C2366 C1498 1.467 . S
C2361 C305 1.382 . S
C2371 C291 1.477 1_554 S
C2376 C1666 1.465 . S
C2386 C651 2.117 . S
C2381 C148 2.097 . S
C2396 C476 0.773 . S
C2391 C120 0.773 . S
C2401 C91 2.138 . S
C2406 C1579 1.988 . S
C2416 C494 2.272 . S
C2411 C78 2.329 . S
C2421 C69 1.729 . S
C2426 C1663 1.693 . S
C2431 C109 1.357 . S
C2436 C646 1.241 . S
C2441 C41 1.293 . S
C2446 C1066 1.495 . S
C2456 C826 1.012 . S
C2451 C27 1.043 . S
C2461 C7 1.221 . S
C2466 C1250 1.389 . S
C2471 C49 1.867 . S
C2476 C991 1.653 . S
C2486 C1586 2.137 . S
C2481 C329 2.261 . S
C2491 C167 0.790 . S
C2496 C478 0.780 . S
C2506 C1670 1.118 . S
C2501 C301 1.161 . S
C2511 C139 1.744 . S
C2516 C655 1.726 . S
C2521 C335 1.996 . S
C2526 C1075 2.059 . S
C2536 C819 1.192 . S
C2531 C161 1.283 . S
C2541 C307 0.856 . S
C2546 C1234 0.812 1_655 S
C2556 C998 1.745 . S
C2551 C133 1.956 . S
C2566 C1570 1.415 . S
C2561 C249 1.418 . S
C2576 C746 1.847 1_665 S
C2571 C218 1.898 . S
C2581 C235 2.406 . S
C2586 C1148 2.210 . S
C2596 C907 0.836 . S
C2591 C190 0.816 . S
C2601 C207 1.222 . S
C2606 C982 1.363 . S
C2611 C179 1.421 . S
C2616 C1654 1.463 1_554 S
C2626 C1334 2.151 . S
C2621 C232 2.169 1_565 S
C2636 C1411 0.868 . S
C2631 C274 0.888 . S
