# Generated by pormake.
# Topology pth, (4,4)-cn, num edge types: 1
# Building blocks:
#     Node 0, Type 0, BuildingBlock: QUQFOY_clean_sbu_3, # of connection points: 4
#     Node 1, Type 0, BuildingBlock: QUQFOY_clean_sbu_3, # of connection points: 4
#     Node 2, Type 0, BuildingBlock: QUQFOY_clean_sbu_3, # of connection points: 4
#     Node 3, Type 1, BuildingBlock: NAWXER_clean_sbu_0, # of connection points: 4
#     Node 4, Type 1, BuildingBlock: NAWXER_clean_sbu_0, # of connection points: 4
#     Node 5, Type 1, BuildingBlock: NAWXER_clean_sbu_0, # of connection points: 4
#     Edge 6, Type (0, 1), BuildingBlock: FUNLAD_clean_linker_0, # of connection points: 2
#     Edge 7, Type (0, 1), BuildingBlock: FUNLAD_clean_linker_0, # of connection points: 2
#     Edge 8, Type (0, 1), BuildingBlock: FUNLAD_clean_linker_0, # of connection points: 2
#     Edge 9, Type (0, 1), BuildingBlock: FUNLAD_clean_linker_0, # of connection points: 2
#     Edge 10, Type (0, 1), BuildingBlock: FUNLAD_clean_linker_0, # of connection points: 2
#     Edge 11, Type (0, 1), BuildingBlock: FUNLAD_clean_linker_0, # of connection points: 2
#     Edge 12, Type (0, 1), BuildingBlock: FUNLAD_clean_linker_0, # of connection points: 2
#     Edge 13, Type (0, 1), BuildingBlock: FUNLAD_clean_linker_0, # of connection points: 2
#     Edge 14, Type (0, 1), BuildingBlock: FUNLAD_clean_linker_0, # of connection points: 2
#     Edge 15, Type (0, 1), BuildingBlock: FUNLAD_clean_linker_0, # of connection points: 2
#     Edge 16, Type (0, 1), BuildingBlock: FUNLAD_clean_linker_0, # of connection points: 2
#     Edge 17, Type (0, 1), BuildingBlock: FUNLAD_clean_linker_0, # of connection points: 2
# Relax obj value: 0.004
# Max RMSD: 0.054
# Mean RMSD: 0.030
data_MOF--net-pth--node1-QUQFOY_clean_sbu_3--node2-NAWXER_clean_sbu_0--edge1-FUNLAD_clean_linker_0
_symmetry_space_group_name_H-M    P1
_symmetry_Int_Tables_number       1
_symmetry_cell_setting            triclinic
loop_
_symmetry_equiv_pos_as_xyz
'x, y, z'
_cell_length_a     26.908319
_cell_length_b     26.731236
_cell_length_c     69.126849
_cell_angle_alpha  90.117039
_cell_angle_beta   90.543277
_cell_angle_gamma 120.67957
loop_
_atom_site_label
_atom_site_type_symbol
_atom_site_fract_x
_atom_site_fract_y
_atom_site_fract_z
_atom_type_partial_charge
C0 C 0.02198 0.20383 0.08454 0.0
O1 O 0.00241 0.20582 0.06795 0.0
Cd2 Cd 0.99715 0.14595 0.04105 0.0
O3 O 0.0408 0.1694 0.08764 0.0
Cd4 Cd 0.05114 0.0948 0.06975 0.0
C5 C 0.13833 0.18314 0.03482 0.0
O6 O 0.9568 0.04942 0.05314 0.0
O7 O 0.01481 0.02051 0.04433 0.0
O8 O 0.02196 0.03657 0.09883 0.0
C9 C 0.96509 0.01465 0.04312 0.0
O10 O 0.09304 0.18051 0.02788 0.0
C11 C 0.06501 0.02938 0.0998 0.0
O12 O 0.1373 0.16041 0.0511 0.0
O13 O 0.10333 0.05422 0.08696 0.0
C14 C 0.15938 0.10362 0.42431 0.0
O15 O 0.1895 0.13632 0.41061 0.0
Cd16 Cd 0.14982 0.16146 0.38396 0.0
O17 O 0.10595 0.08723 0.42557 0.0
Cd18 Cd 0.03312 0.10223 0.40792 0.0
C19 C 0.04246 0.01963 0.37319 0.0
O20 O 0.09401 0.20125 0.39548 0.0
O21 O 0.01063 0.14814 0.38174 0.0
O22 O 0.00638 0.12479 0.43895 0.0
C23 C 0.05634 0.19745 0.38343 0.0
O24 O 0.0902 0.0656 0.36947 0.0
C25 C 0.95223 0.09245 0.43636 0.0
O26 O 0.01108 0.0185 0.38708 0.0
O27 O 0.9355 0.06262 0.42081 0.0
C28 C 0.90813 0.10034 0.71958 0.0
O29 O 0.91099 0.12946 0.73451 0.0
Cd30 Cd 0.97546 0.14855 0.76119 0.0
O31 O 0.94457 0.08391 0.71715 0.0
Cd32 Cd 0.03236 0.09637 0.73416 0.0
C33 C 0.94634 0.00812 0.76892 0.0
O34 O 0.07177 0.19209 0.74986 0.0
O35 O 0.0991 0.13501 0.76149 0.0
O36 O 0.08882 0.12934 0.70461 0.0
C37 C 0.10402 0.18476 0.76159 0.0
O38 O 0.94446 0.05263 0.77445 0.0
C39 C 0.10455 0.09193 0.70493 0.0
O40 O 0.97303 0.00961 0.75359 0.0
O41 O 0.08516 0.05519 0.71856 0.0
C42 C 0.97684 0.63442 0.26226 0.0
C43 C 0.98586 0.50966 0.21226 0.0
O44 O 0.02819 0.64576 0.25855 0.0
Zn45 Zn 0.07145 0.61537 0.24024 0.0
O46 O 0.9339 0.59279 0.25339 0.0
Zn47 Zn 0.97894 0.57053 0.23754 0.0
O48 O 0.01194 0.53658 0.25873 0.0
O49 O 0.10725 0.58865 0.25881 0.0
O50 O 0.9408 0.5077 0.2187 0.0
O51 O 0.03549 0.54728 0.21921 0.0
O52 O 0.11901 0.68348 0.22459 0.0
O53 O 0.02518 0.64611 0.22 0.0
C54 C 0.06077 0.54689 0.26557 0.0
C55 C 0.07748 0.68526 0.21635 0.0
C56 C 0.53046 0.97315 0.59832 0.0
C57 C 0.43728 0.995 0.54059 0.0
O58 O 0.49473 0.93184 0.58732 0.0
Zn59 Zn 0.48199 0.98069 0.56953 0.0
O60 O 0.54514 0.02583 0.59457 0.0
Zn61 Zn 0.52862 0.07385 0.57346 0.0
O62 O 0.49521 0.10965 0.58898 0.0
O63 O 0.44078 0.01396 0.58744 0.0
O64 O 0.4732 0.04305 0.54894 0.0
O65 O 0.42784 0.94712 0.54771 0.0
O66 O 0.56486 0.0264 0.5562 0.0
O67 O 0.60354 0.12078 0.5615 0.0
C68 C 0.4495 0.063 0.59373 0.0
C69 C 0.60662 0.07878 0.55416 0.0
C70 C 0.5273 0.49882 0.93348 0.0
C71 C 0.62383 0.61694 0.87701 0.0
O72 O 0.50866 0.53262 0.92861 0.0
Zn73 Zn 0.52271 0.59427 0.90663 0.0
O74 O 0.56585 0.49721 0.92347 0.0
Zn75 Zn 0.57619 0.55621 0.90495 0.0
O76 O 0.60974 0.6335 0.92222 0.0
O77 O 0.54755 0.66432 0.9218 0.0
O78 O 0.63455 0.58072 0.88512 0.0
O79 O 0.58412 0.62494 0.88371 0.0
O80 O 0.44955 0.55847 0.89257 0.0
O81 O 0.49791 0.51303 0.88846 0.0
C82 C 0.5955 0.67049 0.92748 0.0
C83 C 0.45356 0.5175 0.88482 0.0
C84 C 0.99353 0.27262 0.09821 0.0
C85 C 0.02077 0.23995 0.10062 0.0
C86 C 0.99075 0.30515 0.11359 0.0
C87 C 0.01517 0.30566 0.13174 0.0
C88 C 0.04314 0.27378 0.13402 0.0
C89 C 0.04562 0.241 0.1187 0.0
C90 C 0.01514 0.34124 0.14827 0.0
C91 C 0.97583 0.35782 0.15045 0.0
C92 C 0.97858 0.39583 0.16667 0.0
C93 C 0.92776 0.39339 0.17283 0.0
C94 C 0.92955 0.42977 0.18779 0.0
C95 C 0.98243 0.46977 0.1967 0.0
H96 H 0.07185 0.44107 0.17076 0.0
C97 C 0.03324 0.47246 0.19037 0.0
C98 C 0.03143 0.43621 0.17552 0.0
H99 H 0.07487 0.50309 0.19677 0.0
H100 H 0.97413 0.27298 0.08445 0.0
H101 H 0.97042 0.33059 0.11106 0.0
H102 H 0.06291 0.27394 0.14777 0.0
H103 H 0.06709 0.21651 0.12106 0.0
H104 H 0.048 0.3525 0.15941 0.0
H105 H 0.93948 0.34185 0.14042 0.0
H106 H 0.88654 0.36312 0.1661 0.0
H107 H 0.88968 0.42683 0.19226 0.0
C108 C 0.92954 0.11697 0.46884 0.0
C109 C 0.91083 0.09253 0.45028 0.0
C110 C 0.89134 0.12052 0.48157 0.0
C111 C 0.83377 0.10023 0.47589 0.0
C112 C 0.81518 0.07598 0.45733 0.0
C113 C 0.8531 0.07153 0.44472 0.0
C114 C 0.79263 0.10507 0.4888 0.0
C115 C 0.79335 0.09936 0.50811 0.0
C116 C 0.74821 0.0979 0.52058 0.0
C117 C 0.72413 0.05572 0.53505 0.0
C118 C 0.67871 0.05046 0.54617 0.0
C119 C 0.65793 0.08867 0.54349 0.0
H120 H 0.74691 0.17059 0.50724 0.0
C121 C 0.68388 0.1329 0.5297 0.0
C122 C 0.7283 0.13704 0.51812 0.0
H123 H 0.66833 0.16268 0.52737 0.0
H124 H 0.97389 0.13389 0.47349 0.0
H125 H 0.90737 0.14051 0.49564 0.0
H126 H 0.77109 0.06025 0.45259 0.0
H127 H 0.83756 0.05299 0.43044 0.0
H128 H 0.75795 0.10881 0.4821 0.0
H129 H 0.82394 0.08921 0.51472 0.0
H130 H 0.73907 0.02539 0.53728 0.0
H131 H 0.65945 0.01614 0.5568 0.0
C132 C 0.88395 0.95263 0.79664 0.0
C133 C 0.91542 0.95401 0.78034 0.0
C134 C 0.85238 0.90163 0.8071 0.0
C135 C 0.85113 0.85043 0.80151 0.0
C136 C 0.88433 0.85205 0.78572 0.0
C137 C 0.91591 0.90334 0.7751 0.0
C138 C 0.81532 0.79554 0.81221 0.0
C139 C 0.7632 0.78211 0.81897 0.0
C140 C 0.72657 0.73266 0.83186 0.0
C141 C 0.66997 0.72014 0.83504 0.0
C142 C 0.63602 0.68056 0.84911 0.0
C143 C 0.65775 0.65223 0.86042 0.0
H144 H 0.79124 0.71109 0.84068 0.0
C145 C 0.71323 0.66202 0.85661 0.0
C146 C 0.74761 0.70221 0.8425 0.0
H147 H 0.7311 0.64086 0.86515 0.0
H148 H 0.88311 0.9909 0.8013 0.0
H149 H 0.82894 0.90245 0.81963 0.0
H150 H 0.88466 0.8133 0.78131 0.0
H151 H 0.94014 0.9031 0.76271 0.0
H152 H 0.83161 0.76618 0.81415 0.0
H153 H 0.74639 0.81018 0.81511 0.0
H154 H 0.65249 0.74271 0.82706 0.0
H155 H 0.59318 0.67349 0.85152 0.0
C156 C 0.11672 0.9847 0.11629 0.0
C157 C 0.06809 0.99105 0.11456 0.0
C158 C 0.11715 0.94517 0.1295 0.0
C159 C 0.06868 0.91115 0.14108 0.0
C160 C 0.02062 0.91819 0.13943 0.0
C161 C 0.02043 0.95791 0.12647 0.0
C162 C 0.06446 0.86559 0.15432 0.0
C163 C 0.10981 0.86606 0.16299 0.0
C164 C 0.1022 0.82082 0.17719 0.0
C165 C 0.1473 0.80967 0.18055 0.0
C166 C 0.14023 0.7662 0.19351 0.0
C167 C 0.08774 0.73307 0.20322 0.0
H168 H 0.01608 0.79827 0.18652 0.0
C169 C 0.04353 0.74558 0.20031 0.0
C170 C 0.05085 0.78926 0.1877 0.0
H171 H 0.00311 0.72191 0.20798 0.0
H172 H 0.154 0.00949 0.10723 0.0
H173 H 0.15453 0.94009 0.13011 0.0
H174 H 0.98267 0.89246 0.14815 0.0
H175 H 0.98219 0.96154 0.12547 0.0
H176 H 0.02095 0.83059 0.15732 0.0
H177 H 0.15354 0.90017 0.15971 0.0
H178 H 0.1877 0.83399 0.17292 0.0
H179 H 0.17523 0.75777 0.19561 0.0
C180 C 0.23731 0.08285 0.43297 0.0
C181 C 0.18584 0.0809 0.43792 0.0
C182 C 0.26165 0.05943 0.44519 0.0
C183 C 0.2359 0.03462 0.46299 0.0
C184 C 0.18388 0.03181 0.46779 0.0
C185 C 0.15895 0.05452 0.45537 0.0
C186 C 0.26243 0.01227 0.47698 0.0
C187 C 0.31893 0.029 0.47678 0.0
C188 C 0.34838 0.01474 0.4922 0.0
C189 C 0.40725 0.05421 0.49561 0.0
C190 C 0.43629 0.04604 0.5109 0.0
C191 C 0.40749 -0.00254 0.52294 0.0
H192 H 0.27487 0.93231 0.5011 0.0
C193 C 0.34947 0.95575 0.51891 0.0
C194 C 0.31988 0.96448 0.50369 0.0
H195 H 0.3264 0.91792 0.52802 0.0
H196 H 0.25839 0.10152 0.4194 0.0
H197 H 0.30026 0.06048 0.44037 0.0
H198 H 0.16272 0.01254 0.4813 0.0
H199 H 0.11891 0.05179 0.4595 0.0
H200 H 0.23572 0.98533 0.48872 0.0
H201 H 0.34685 0.05991 0.46607 0.0
H202 H 0.43047 0.09288 0.48686 0.0
H203 H 0.48121 0.07862 0.51358 0.0
C204 C 0.16051 0.21234 0.79249 0.0
C205 C 0.13917 0.22848 0.77657 0.0
C206 C 0.19359 0.25288 0.80681 0.0
C207 C 0.20744 0.31113 0.80533 0.0
C208 C 0.18478 0.32693 0.78967 0.0
C209 C 0.1509 0.28598 0.7754 0.0
C210 C 0.24549 0.35604 0.81984 0.0
C211 C 0.28571 0.35149 0.83017 0.0
C212 C 0.32692 0.39539 0.84431 0.0
C213 C 0.37406 0.39041 0.85038 0.0
C214 C 0.41444 0.42977 0.86361 0.0
C215 C 0.40877 0.47533 0.87125 0.0
H216 H 0.28406 0.44516 0.84819 0.0
C217 C 0.36118 0.48018 0.86547 0.0
C218 C 0.32045 0.44049 0.85212 0.0
H219 H 0.3555 0.51468 0.87118 0.0
H220 H 0.15115 0.16804 0.79403 0.0
H221 H 0.20769 0.23798 0.81906 0.0
H222 H 0.19411 0.37126 0.78829 0.0
H223 H 0.13453 0.29948 0.76337 0.0
H224 H 0.24248 0.39487 0.82104 0.0
H225 H 0.29126 0.31463 0.82747 0.0
H226 H 0.38007 0.35599 0.84477 0.0
H227 H 0.45037 0.42442 0.86776 0.0
C228 C 0.84677 0.03998 0.69142 0.0
C229 C 0.86052 0.08361 0.7054 0.0
C230 C 0.79967 0.02245 0.67876 0.0
C231 C 0.76574 0.04861 0.67981 0.0
C232 C 0.78035 0.09292 0.69351 0.0
C233 C 0.82682 0.10994 0.70625 0.0
C234 C 0.71643 0.03339 0.66646 0.0
C235 C 0.6851 0.98193 0.65713 0.0
C236 C 0.63681 0.97061 0.64373 0.0
C237 C 0.62494 0.93449 0.62743 0.0
C238 C 0.58585 0.93072 0.61311 0.0
C239 C 0.55836 0.96311 0.61501 0.0
H240 H 0.60997 0.02365 0.65925 0.0
C241 C 0.56637 0.99498 0.63205 0.0
C242 C 0.60449 -0.00198 0.6464 0.0
H243 H 0.54498 0.01973 0.6339 0.0
H244 H 0.87197 0.01889 0.69039 0.0
H245 H 0.79073 0.98926 0.66804 0.0
H246 H 0.75532 0.11422 0.69451 0.0
H247 H 0.8363 0.14384 0.71677 0.0
H248 H 0.70537 0.06684 0.66444 0.0
H249 H 0.69639 0.94849 0.65859 0.0
H250 H 0.64846 0.91204 0.6252 0.0
H251 H 0.58046 0.9061 0.59999 0.0
C252 C 0.86774 0.9702 0.02695 0.0
C253 C 0.92024 0.97162 0.02984 0.0
C254 C 0.8258 0.92984 0.01413 0.0
C255 C 0.83571 0.89011 0.00398 0.0
C256 C 0.88785 0.89116 0.00714 0.0
C257 C 0.92978 0.9316 0.01984 0.0
C258 C 0.79302 0.84607 0.99024 0.0
C259 C 0.75048 0.84995 0.9812 0.0
C260 C 0.7116 0.80605 0.96663 0.0
C261 C 0.65492 0.79475 0.96397 0.0
C262 C 0.617 0.75159 0.9509 0.0
C263 C 0.63542 0.71927 0.94025 0.0
H264 H 0.77473 0.78504 0.95602 0.0
C265 C 0.69287 0.73253 0.94231 0.0
C266 C 0.7306 0.77565 0.95518 0.0
H267 H 0.70887 0.7094 0.93399 0.0
H268 H 0.85906 0.00034 0.03456 0.0
H269 H 0.78564 0.92953 0.0125 0.0
H270 H 0.89651 0.86086 -0.00039 0.0
H271 H 0.96966 0.93141 0.02181 0.0
H272 H 0.79831 0.80925 0.98708 0.0
H273 H 0.74338 0.8855 0.98448 0.0
H274 H 0.63954 0.81832 0.97236 0.0
H275 H 0.57304 0.74257 0.9495 0.0
C276 C 0.9704 0.92065 0.35945 0.0
C277 C 0.02782 0.96592 0.36245 0.0
C278 C 0.95867 0.87025 0.34918 0.0
C279 C 0.00443 0.8642 0.34233 0.0
C280 C 0.06145 0.90901 0.34572 0.0
C281 C 0.07303 0.9595 0.35541 0.0
C282 C 0.99591 0.81238 0.33165 0.0
C283 C 0.95463 0.78378 0.31805 0.0
C284 C 0.95928 0.74428 0.30395 0.0
C285 C 0.90959 0.69628 0.29591 0.0
C286 C 0.91456 0.65984 0.28236 0.0
C287 C 0.9694 0.67141 0.27653 0.0
H288 H 0.05316 0.79445 0.30272 0.0
C289 C 0.01877 0.72025 0.28431 0.0
C290 C 0.01383 0.75632 0.29766 0.0
H291 H 0.06174 0.73133 0.27993 0.0
H292 H 0.93481 0.9245 0.36483 0.0
H293 H 0.91424 0.8359 0.34693 0.0
H294 H 0.09742 0.90532 0.3406 0.0
H295 H 0.11775 0.99322 0.35769 0.0
H296 H 0.02993 0.80212 0.3334 0.0
H297 H 0.91948 0.79233 0.31632 0.0
H298 H 0.86705 0.68672 0.30023 0.0
H299 H 0.87568 0.6228 0.27649 0.0
C300 C 0.16588 0.05396 0.69207 0.0
C301 C 0.14555 0.09288 0.69059 0.0
C302 C 0.20687 0.05682 0.67914 0.0
C303 C 0.22809 0.09843 0.66428 0.0
C304 C 0.20779 0.13737 0.66286 0.0
C305 C 0.16684 0.13454 0.67582 0.0
C306 C 0.27259 0.10372 0.65044 0.0
C307 C 0.28046 0.05913 0.64604 0.0
C308 C 0.32411 0.06283 0.63215 0.0
C309 C 0.31636 0.01085 0.62434 0.0
C310 C 0.35674 0.01131 0.61174 0.0
C311 C 0.40641 0.06391 0.6067 0.0
H312 H 0.38225 0.15669 0.63322 0.0
C313 C 0.41445 0.1162 0.61448 0.0
C314 C 0.37378 0.11573 0.62713 0.0
H315 H 0.45245 0.1574 0.611 0.0
H316 H 0.1509 0.02185 0.70345 0.0
H317 H 0.22269 0.02724 0.6812 0.0
H318 H 0.22364 0.17013 0.65168 0.0
H319 H 0.15233 0.16543 0.67435 0.0
H320 H 0.2975 0.14487 0.64303 0.0
H321 H 0.25181 0.01667 0.6522 0.0
H322 H 0.27881 0.96945 0.62801 0.0
H323 H 0.34905 0.97011 0.60608 0.0
C324 C 0.24645 0.23336 0.03217 0.0
C325 C 0.19181 0.21099 0.02333 0.0
C326 C 0.29666 0.26083 0.02106 0.0
C327 C 0.29282 0.26534 0.00088 0.0
C328 C 0.23816 0.24109 0.99205 0.0
C329 C 0.18825 0.21488 0.00315 0.0
C330 C 0.34455 0.2967 0.98859 0.0
C331 C 0.39205 0.34627 0.99437 0.0
C332 C 0.4351 0.38588 0.98021 0.0
C333 C 0.45407 0.44533 0.98136 0.0
C334 C 0.48637 0.48253 0.96645 0.0
C335 C 0.50186 0.46128 0.95043 0.0
H336 H 0.43984 0.31943 0.96366 0.0
C337 C 0.48699 0.40275 0.94998 0.0
C338 C 0.45323 0.36505 0.9647 0.0
H339 H 0.49844 0.38545 0.93774 0.0
H340 H 0.25043 0.23059 0.04768 0.0
H341 H 0.33827 0.27832 0.02823 0.0
H342 H 0.23407 0.24385 0.97653 0.0
H343 H 0.14676 0.19735 -0.00413 0.0
H344 H 0.3399 0.28369 0.97346 0.0
H345 H 0.39417 0.36296 0.00889 0.0
H346 H 0.44085 0.46239 0.99321 0.0
H347 H 0.49772 0.52767 0.96715 0.0
C348 C 0.0243 0.23889 0.35719 0.0
C349 C 0.067 0.24604 0.37059 0.0
C350 C 0.03388 0.28381 0.34473 0.0
C351 C 0.0863 0.33742 0.34551 0.0
C352 C 0.12943 0.34435 0.35869 0.0
C353 C 0.11979 0.2992 0.37122 0.0
C354 C 0.0973 0.38557 0.33219 0.0
C355 C 0.05412 0.39294 0.32567 0.0
C356 C 0.05955 0.43579 0.31087 0.0
C357 C 0.00862 0.43372 0.30481 0.0
C358 C 0.00951 0.47007 0.29026 0.0
C359 C 0.06156 0.50999 0.28137 0.0
H360 H 0.15256 0.47998 0.30641 0.0
C361 C 0.11305 0.51335 0.28763 0.0
C362 C 0.11213 0.47647 0.30222 0.0
H363 H 0.15388 0.54384 0.28109 0.0
H364 H 0.98342 0.19826 0.35616 0.0
H365 H 0.00041 0.27581 0.33426 0.0
H366 H 0.17046 0.38491 0.3594 0.0
H367 H 0.15371 0.30584 0.38131 0.0
H368 H 0.14157 0.41496 0.32796 0.0
H369 H 0.01102 0.36473 0.33128 0.0
H370 H 0.96746 0.40308 0.31116 0.0
H371 H 0.96901 0.46652 0.28595 0.0
loop_
_geom_bond_atom_site_label_1
_geom_bond_atom_site_label_2
_geom_bond_distance
_geom_bond_site_symmetry_2
_ccdc_geom_bond_type
C0 O1 1.306 . S
C0 O3 1.160 . S
O1 C0 1.306 . S
O1 Cd2 2.228 1_455 S
Cd2 O1 2.228 1_655 S
Cd2 O6 2.273 . S
Cd2 O10 2.277 1_655 S
O3 C0 1.160 . S
O3 Cd4 2.203 . S
Cd4 O3 2.203 . S
Cd4 O6 2.411 1_455 S
Cd4 O7 2.333 . S
Cd4 O8 2.352 . S
Cd4 O12 2.277 . S
Cd4 O13 2.356 . S
C5 O10 1.209 . S
C5 O12 1.226 . S
O6 Cd2 2.273 . S
O6 Cd4 2.411 1_655 S
O6 C9 1.320 . S
O7 Cd4 2.333 . S
O7 C9 1.214 1_455 S
O8 Cd4 2.352 . S
O8 C11 1.258 1_545 S
C9 O6 1.320 . S
C9 O7 1.214 1_655 S
O10 Cd2 2.277 1_455 S
O10 C5 1.209 . S
C11 O8 1.258 1_565 S
C11 O13 1.282 1_565 S
O12 Cd4 2.277 . S
O12 C5 1.226 . S
O13 Cd4 2.356 . S
O13 C11 1.282 1_545 S
C14 O15 1.306 . S
C14 O17 1.160 . S
O15 C14 1.306 . S
O15 Cd16 2.228 . S
Cd16 O15 2.228 . S
Cd16 O20 2.273 . S
Cd16 O24 2.277 . S
O17 C14 1.160 . S
O17 Cd18 2.203 . S
Cd18 O17 2.203 . S
Cd18 O20 2.411 . S
Cd18 O21 2.333 1_455 S
Cd18 O22 2.352 1_455 S
Cd18 O26 2.277 1_445 S
Cd18 O27 2.356 1_455 S
C19 O24 1.209 1_565 S
C19 O26 1.226 1_455 S
O20 Cd16 2.273 . S
O20 Cd18 2.411 . S
O20 C23 1.320 . S
O21 Cd18 2.333 1_655 S
O21 C23 1.214 1_655 S
O22 Cd18 2.352 1_655 S
O22 C25 1.258 . S
C23 O20 1.320 . S
C23 O21 1.214 1_455 S
O24 Cd16 2.277 . S
O24 C19 1.209 1_545 S
C25 O22 1.258 . S
C25 O27 1.282 . S
O26 Cd18 2.277 1_665 S
O26 C19 1.226 1_655 S
O27 Cd18 2.356 1_655 S
O27 C25 1.282 . S
C28 O29 1.306 . S
C28 O31 1.160 . S
O29 C28 1.306 . S
O29 Cd30 2.228 . S
Cd30 O29 2.228 . S
Cd30 O34 2.273 1_655 S
Cd30 O38 2.277 . S
O31 C28 1.160 . S
O31 Cd32 2.203 1_655 S
Cd32 O31 2.203 1_455 S
Cd32 O34 2.411 . S
Cd32 O35 2.333 . S
Cd32 O36 2.352 . S
Cd32 O40 2.277 1_445 S
Cd32 O41 2.356 . S
C33 O38 1.209 . S
C33 O40 1.226 1_545 S
O34 Cd30 2.273 1_455 S
O34 Cd32 2.411 . S
O34 C37 1.320 . S
O35 Cd32 2.333 . S
O35 C37 1.214 . S
O36 Cd32 2.352 . S
O36 C39 1.258 . S
C37 O34 1.320 . S
C37 O35 1.214 . S
O38 Cd30 2.277 . S
O38 C33 1.209 . S
C39 O36 1.258 . S
C39 O41 1.282 . S
O40 Cd32 2.277 1_665 S
O40 C33 1.226 1_565 S
O41 Cd32 2.356 . S
O41 C39 1.282 . S
C42 O44 1.247 . S
C42 O46 1.258 . S
C43 O50 1.247 . S
C43 O51 1.258 . S
O44 C42 1.247 . S
O44 Zn45 2.028 . S
Zn45 O44 2.028 . S
Zn45 O49 2.035 . S
Zn45 O51 2.035 . S
Zn45 O52 2.028 . S
O46 C42 1.258 . S
O46 Zn47 2.035 1_455 S
Zn47 O46 2.035 1_655 S
Zn47 O48 2.028 1_655 S
Zn47 O50 2.028 1_655 S
Zn47 O53 2.035 1_655 S
O48 Zn47 2.028 1_455 S
O48 C54 1.247 . S
O49 Zn45 2.035 . S
O49 C54 1.258 . S
O50 C43 1.247 . S
O50 Zn47 2.028 1_455 S
O51 C43 1.258 . S
O51 Zn45 2.035 . S
O52 Zn45 2.028 . S
O52 C55 1.247 . S
O53 Zn47 2.035 1_455 S
O53 C55 1.258 . S
C54 O48 1.247 . S
C54 O49 1.258 . S
C55 O52 1.247 . S
C55 O53 1.258 . S
C56 O58 1.247 . S
C56 O60 1.258 . S
C57 O64 1.247 . S
C57 O65 1.258 . S
O58 C56 1.247 . S
O58 Zn59 2.028 . S
Zn59 O58 2.028 . S
Zn59 O63 2.035 . S
Zn59 O65 2.035 . S
Zn59 O66 2.028 . S
O60 C56 1.258 . S
O60 Zn61 2.035 . S
Zn61 O60 2.035 . S
Zn61 O62 2.028 . S
Zn61 O64 2.028 . S
Zn61 O67 2.035 . S
O62 Zn61 2.028 . S
O62 C68 1.247 . S
O63 Zn59 2.035 . S
O63 C68 1.258 . S
O64 C57 1.247 . S
O64 Zn61 2.028 . S
O65 C57 1.258 . S
O65 Zn59 2.035 . S
O66 Zn59 2.028 . S
O66 C69 1.247 . S
O67 Zn61 2.035 . S
O67 C69 1.258 . S
C68 O62 1.247 . S
C68 O63 1.258 . S
C69 O66 1.247 . S
C69 O67 1.258 . S
C70 O72 1.247 . S
C70 O74 1.258 . S
C71 O78 1.247 . S
C71 O79 1.258 . S
O72 C70 1.247 . S
O72 Zn73 2.028 . S
Zn73 O72 2.028 . S
Zn73 O77 2.035 . S
Zn73 O79 2.035 . S
Zn73 O80 2.028 . S
O74 C70 1.258 . S
O74 Zn75 2.035 . S
Zn75 O74 2.035 . S
Zn75 O76 2.028 . S
Zn75 O78 2.028 . S
Zn75 O81 2.035 . S
O76 Zn75 2.028 . S
O76 C82 1.247 . S
O77 Zn73 2.035 . S
O77 C82 1.258 . S
O78 C71 1.247 . S
O78 Zn75 2.028 . S
O79 C71 1.258 . S
O79 Zn73 2.035 . S
O80 Zn73 2.028 . S
O80 C83 1.247 . S
O81 Zn75 2.035 . S
O81 C83 1.258 . S
C82 O76 1.247 . S
C82 O77 1.258 . S
C83 O80 1.247 . S
C83 O81 1.258 . S
C84 C85 1.380 1_655 S
C84 C86 1.384 1_655 S
C84 H100 0.955 . S
C85 C84 1.380 1_455 S
C85 C89 1.383 . S
C86 C84 1.384 1_455 S
C86 C87 1.402 . S
C86 H101 0.951 1_455 S
C87 C86 1.402 . S
C87 C88 1.375 . S
C87 C90 1.481 . S
C88 C87 1.375 . S
C88 C89 1.367 . S
C88 H102 0.951 . S
C89 C85 1.383 . S
C89 C88 1.367 . S
C89 H103 0.950 . S
C90 C87 1.481 . S
C90 C91 1.297 . S
C90 H104 0.950 . S
C91 C90 1.297 . S
C91 C92 1.479 . S
C91 H105 0.950 1_455 S
C92 C91 1.479 . S
C92 C93 1.375 1_455 S
C92 C98 1.404 . S
C93 C92 1.375 1_655 S
C93 C94 1.369 . S
C93 H106 0.950 . S
C94 C93 1.369 . S
C94 C95 1.392 1_655 S
C94 H107 0.951 . S
C95 C94 1.392 1_455 S
C95 C97 1.384 . S
H96 C98 0.949 . S
C97 C95 1.384 . S
C97 C98 1.385 . S
C97 H99 0.950 . S
C98 C92 1.404 . S
C98 H96 0.949 . S
C98 C97 1.385 . S
H99 C97 0.950 . S
H100 C84 0.955 . S
H101 C86 0.951 1_655 S
H102 C88 0.951 . S
H103 C89 0.950 . S
H104 C90 0.950 . S
H105 C91 0.950 1_655 S
H106 C93 0.950 . S
H107 C94 0.951 . S
C108 C109 1.386 . S
C108 C110 1.383 . S
C108 H124 0.951 . S
C109 C108 1.386 . S
C109 C113 1.383 . S
C110 C108 1.383 . S
C110 C111 1.402 . S
C110 H125 0.951 . S
C111 C110 1.402 . S
C111 C112 1.375 . S
C111 C114 1.481 . S
C112 C111 1.375 . S
C112 C113 1.367 . S
C112 H126 0.951 . S
C113 C109 1.383 . S
C113 C112 1.367 . S
C113 H127 0.950 . S
C114 C111 1.481 . S
C114 C115 1.297 . S
C114 H128 0.950 . S
C115 C114 1.297 . S
C115 C116 1.479 . S
C115 H129 0.950 . S
C116 C115 1.479 . S
C116 C117 1.375 . S
C116 C122 1.404 . S
C117 C116 1.375 . S
C117 C118 1.369 . S
C117 H130 0.950 . S
C118 C117 1.369 . S
C118 C119 1.392 . S
C118 H131 0.951 . S
C119 C118 1.392 . S
C119 C121 1.384 . S
H120 C122 0.949 . S
C121 C119 1.384 . S
C121 C122 1.385 . S
C121 H123 0.950 . S
C122 C116 1.404 . S
C122 H120 0.949 . S
C122 C121 1.385 . S
H123 C121 0.950 . S
H124 C108 0.951 . S
H125 C110 0.951 . S
H126 C112 0.951 . S
H127 C113 0.950 . S
H128 C114 0.950 . S
H129 C115 0.950 . S
H130 C117 0.950 . S
H131 C118 0.951 . S
C132 C133 1.386 . S
C132 C134 1.383 . S
C132 H148 0.951 1_565 S
C133 C132 1.386 . S
C133 C137 1.383 . S
C134 C132 1.383 . S
C134 C135 1.402 . S
C134 H149 0.951 . S
C135 C134 1.402 . S
C135 C136 1.375 . S
C135 C138 1.481 . S
C136 C135 1.375 . S
C136 C137 1.367 . S
C136 H150 0.951 . S
C137 C133 1.383 . S
C137 C136 1.367 . S
C137 H151 0.950 . S
C138 C135 1.481 . S
C138 C139 1.297 . S
C138 H152 0.950 . S
C139 C138 1.297 . S
C139 C140 1.479 . S
C139 H153 0.950 . S
C140 C139 1.479 . S
C140 C141 1.375 . S
C140 C146 1.404 . S
C141 C140 1.375 . S
C141 C142 1.369 . S
C141 H154 0.950 . S
C142 C141 1.369 . S
C142 C143 1.392 . S
C142 H155 0.951 . S
C143 C142 1.392 . S
C143 C145 1.384 . S
H144 C146 0.949 . S
C145 C143 1.384 . S
C145 C146 1.385 . S
C145 H147 0.950 . S
C146 C140 1.404 . S
C146 H144 0.949 . S
C146 C145 1.385 . S
H147 C145 0.950 . S
H148 C132 0.951 1_545 S
H149 C134 0.951 . S
H150 C136 0.951 . S
H151 C137 0.950 . S
H152 C138 0.950 . S
H153 C139 0.950 . S
H154 C141 0.950 . S
H155 C142 0.951 . S
C156 C157 1.386 . S
C156 C158 1.383 . S
C156 H172 0.951 . S
C157 C156 1.386 . S
C157 C161 1.383 . S
C158 C156 1.383 . S
C158 C159 1.402 . S
C158 H173 0.951 . S
C159 C158 1.402 . S
C159 C160 1.389 . S
C159 C162 1.481 . S
C160 C159 1.389 . S
C160 C161 1.363 . S
C160 H174 0.941 1_455 S
C161 C157 1.383 . S
C161 C160 1.363 . S
C161 H175 0.950 1_455 S
C162 C159 1.481 . S
C162 C163 1.297 . S
C162 H176 0.950 . S
C163 C162 1.297 . S
C163 C164 1.479 . S
C163 H177 0.950 . S
C164 C163 1.479 . S
C164 C165 1.375 . S
C164 C170 1.404 . S
C165 C164 1.375 . S
C165 C166 1.369 . S
C165 H178 0.950 . S
C166 C165 1.369 . S
C166 C167 1.392 . S
C166 H179 0.951 . S
C167 C166 1.392 . S
C167 C169 1.384 . S
H168 C170 0.949 1_655 S
C169 C167 1.384 . S
C169 C170 1.385 . S
C169 H171 0.950 1_455 S
C170 C164 1.404 . S
C170 H168 0.949 1_455 S
C170 C169 1.385 . S
H171 C169 0.950 1_655 S
H172 C156 0.951 . S
H173 C158 0.951 . S
H174 C160 0.941 1_655 S
H175 C161 0.950 1_655 S
H176 C162 0.950 . S
H177 C163 0.950 . S
H178 C165 0.950 . S
H179 C166 0.951 . S
C180 C181 1.386 . S
C180 C182 1.383 . S
C180 H196 0.951 . S
C181 C180 1.386 . S
C181 C185 1.383 . S
C182 C180 1.383 . S
C182 C183 1.402 . S
C182 H197 0.951 . S
C183 C182 1.402 . S
C183 C184 1.375 . S
C183 C186 1.481 . S
C184 C183 1.375 . S
C184 C185 1.367 . S
C184 H198 0.951 1_545 S
C185 C181 1.383 . S
C185 C184 1.367 . S
C185 H199 0.950 1_545 S
C186 C183 1.481 . S
C186 C187 1.297 . S
C186 H200 0.950 . S
C187 C186 1.297 . S
C187 C188 1.479 . S
C187 H201 0.950 . S
C188 C187 1.479 . S
C188 C189 1.375 . S
C188 C194 1.404 . S
C189 C188 1.375 . S
C189 C190 1.369 . S
C189 H202 0.950 . S
C190 C189 1.369 . S
C190 C191 1.392 . S
C190 H203 0.951 . S
C191 C190 1.392 . S
C191 C193 1.384 . S
H192 C194 0.949 1_565 S
C193 C191 1.384 . S
C193 C194 1.385 . S
C193 H195 0.950 1_545 S
C194 C188 1.404 . S
C194 H192 0.949 1_545 S
C194 C193 1.385 . S
H195 C193 0.950 1_565 S
H196 C180 0.951 . S
H197 C182 0.951 . S
H198 C184 0.951 1_565 S
H199 C185 0.950 1_565 S
H200 C186 0.950 . S
H201 C187 0.950 . S
H202 C189 0.950 . S
H203 C190 0.951 . S
C204 C205 1.386 . S
C204 C206 1.383 . S
C204 H220 0.951 . S
C205 C204 1.386 . S
C205 C209 1.383 . S
C206 C204 1.383 . S
C206 C207 1.402 . S
C206 H221 0.951 . S
C207 C206 1.402 . S
C207 C208 1.375 . S
C207 C210 1.481 . S
C208 C207 1.375 . S
C208 C209 1.367 . S
C208 H222 0.951 . S
C209 C205 1.383 . S
C209 C208 1.367 . S
C209 H223 0.950 . S
C210 C207 1.481 . S
C210 C211 1.297 . S
C210 H224 0.950 . S
C211 C210 1.297 . S
C211 C212 1.479 . S
C211 H225 0.950 . S
C212 C211 1.479 . S
C212 C213 1.375 . S
C212 C218 1.404 . S
C213 C212 1.375 . S
C213 C214 1.369 . S
C213 H226 0.950 . S
C214 C213 1.369 . S
C214 C215 1.392 . S
C214 H227 0.951 . S
C215 C214 1.392 . S
C215 C217 1.384 . S
H216 C218 0.949 . S
C217 C215 1.384 . S
C217 C218 1.385 . S
C217 H219 0.950 . S
C218 C212 1.404 . S
C218 H216 0.949 . S
C218 C217 1.385 . S
H219 C217 0.950 . S
H220 C204 0.951 . S
H221 C206 0.951 . S
H222 C208 0.951 . S
H223 C209 0.950 . S
H224 C210 0.950 . S
H225 C211 0.950 . S
H226 C213 0.950 . S
H227 C214 0.951 . S
C228 C229 1.386 . S
C228 C230 1.383 . S
C228 H244 0.951 . S
C229 C228 1.386 . S
C229 C233 1.383 . S
C230 C228 1.383 . S
C230 C231 1.402 . S
C230 H245 0.951 . S
C231 C230 1.402 . S
C231 C232 1.375 . S
C231 C234 1.481 . S
C232 C231 1.375 . S
C232 C233 1.367 . S
C232 H246 0.951 . S
C233 C229 1.383 . S
C233 C232 1.367 . S
C233 H247 0.950 . S
C234 C231 1.481 . S
C234 C235 1.297 . S
C234 H248 0.950 . S
C235 C234 1.297 . S
C235 C236 1.479 . S
C235 H249 0.950 . S
C236 C235 1.479 . S
C236 C237 1.375 . S
C236 C242 1.404 . S
C237 C236 1.375 . S
C237 C238 1.369 . S
C237 H250 0.950 1_545 S
C238 C237 1.369 . S
C238 C239 1.392 . S
C238 H251 0.951 1_545 S
C239 C238 1.392 . S
C239 C241 1.384 . S
H240 C242 0.949 . S
C241 C239 1.384 . S
C241 C242 1.385 . S
C241 H243 0.950 . S
C242 C236 1.404 . S
C242 H240 0.949 . S
C242 C241 1.385 . S
H243 C241 0.950 . S
H244 C228 0.951 . S
H245 C230 0.951 . S
H246 C232 0.951 . S
H247 C233 0.950 . S
H248 C234 0.950 . S
H249 C235 0.950 . S
H250 C237 0.950 1_565 S
H251 C238 0.951 1_565 S
C252 C253 1.386 . S
C252 C254 1.383 . S
C252 H268 0.951 . S
C253 C252 1.386 . S
C253 C257 1.383 . S
C254 C252 1.383 . S
C254 C255 1.402 . S
C254 H269 0.951 . S
C255 C254 1.402 . S
C255 C256 1.375 . S
C255 C258 1.481 1_554 S
C256 C255 1.375 . S
C256 C257 1.367 . S
C256 H270 0.951 1_554 S
C257 C253 1.383 . S
C257 C256 1.367 . S
C257 H271 0.950 . S
C258 C255 1.481 1_556 S
C258 C259 1.297 . S
C258 H272 0.950 . S
C259 C258 1.297 . S
C259 C260 1.479 . S
C259 H273 0.950 . S
C260 C259 1.479 . S
C260 C261 1.375 . S
C260 C266 1.404 . S
C261 C260 1.375 . S
C261 C262 1.369 . S
C261 H274 0.950 . S
C262 C261 1.369 . S
C262 C263 1.392 . S
C262 H275 0.951 . S
C263 C262 1.392 . S
C263 C265 1.384 . S
H264 C266 0.949 . S
C265 C263 1.384 . S
C265 C266 1.385 . S
C265 H267 0.950 . S
C266 C260 1.404 . S
C266 H264 0.949 . S
C266 C265 1.385 . S
H267 C265 0.950 . S
H268 C252 0.951 . S
H269 C254 0.951 . S
H270 C256 0.951 1_556 S
H271 C257 0.950 . S
H272 C258 0.950 . S
H273 C259 0.950 . S
H274 C261 0.950 . S
H275 C262 0.951 . S
C276 C277 1.386 1_655 S
C276 C278 1.383 . S
C276 H292 0.951 . S
C277 C276 1.386 1_455 S
C277 C281 1.383 . S
C278 C276 1.383 . S
C278 C279 1.402 1_655 S
C278 H293 0.951 . S
C279 C278 1.402 1_455 S
C279 C280 1.375 . S
C279 C282 1.481 . S
C280 C279 1.375 . S
C280 C281 1.367 . S
C280 H294 0.951 . S
C281 C277 1.383 . S
C281 C280 1.367 . S
C281 H295 0.950 1_565 S
C282 C279 1.481 . S
C282 C283 1.297 . S
C282 H296 0.950 . S
C283 C282 1.297 . S
C283 C284 1.479 . S
C283 H297 0.950 1_455 S
C284 C283 1.479 . S
C284 C285 1.375 1_455 S
C284 C290 1.404 . S
C285 C284 1.375 1_655 S
C285 C286 1.360 1_655 S
C285 H298 0.950 . S
C286 C285 1.360 1_455 S
C286 C287 1.401 . S
C286 H299 0.951 1_455 S
C287 C286 1.401 . S
C287 C289 1.384 . S
H288 C290 0.949 . S
C289 C287 1.384 . S
C289 C290 1.385 . S
C289 H291 0.950 . S
C290 C284 1.404 . S
C290 H288 0.949 . S
C290 C289 1.385 . S
H291 C289 0.950 . S
H292 C276 0.951 . S
H293 C278 0.951 . S
H294 C280 0.951 . S
H295 C281 0.950 1_545 S
H296 C282 0.950 . S
H297 C283 0.950 1_655 S
H298 C285 0.950 . S
H299 C286 0.951 1_655 S
C300 C301 1.386 . S
C300 C302 1.383 . S
C300 H316 0.950 1_545 S
C301 C300 1.386 . S
C301 C305 1.383 . S
C302 C300 1.383 . S
C302 C303 1.402 . S
C302 H317 0.951 . S
C303 C302 1.402 . S
C303 C304 1.375 . S
C303 C306 1.481 . S
C304 C303 1.375 . S
C304 C305 1.367 . S
C304 H318 0.951 . S
C305 C301 1.383 . S
C305 C304 1.367 . S
C305 H319 0.950 . S
C306 C303 1.481 . S
C306 C307 1.297 . S
C306 H320 0.950 . S
C307 C306 1.297 . S
C307 C308 1.479 . S
C307 H321 0.950 . S
C308 C307 1.479 . S
C308 C309 1.375 . S
C308 C314 1.404 . S
C309 C308 1.375 . S
C309 C310 1.369 . S
C309 H322 0.950 1_545 S
C310 C309 1.369 . S
C310 C311 1.392 . S
C310 H323 0.951 1_545 S
C311 C310 1.392 . S
C311 C313 1.384 . S
H312 C314 0.949 . S
C313 C311 1.384 . S
C313 C314 1.385 . S
C313 H315 0.950 . S
C314 C308 1.404 . S
C314 H312 0.949 . S
C314 C313 1.385 . S
H315 C313 0.950 . S
H316 C300 0.950 1_565 S
H317 C302 0.951 . S
H318 C304 0.951 . S
H319 C305 0.950 . S
H320 C306 0.950 . S
H321 C307 0.950 . S
H322 C309 0.950 1_565 S
H323 C310 0.951 1_565 S
C324 C325 1.386 . S
C324 C326 1.383 . S
C324 H340 0.951 . S
C325 C324 1.386 . S
C325 C329 1.383 . S
C326 C324 1.383 . S
C326 C327 1.402 . S
C326 H341 0.951 . S
C327 C326 1.402 . S
C327 C328 1.375 . S
C327 C330 1.481 1_554 S
C328 C327 1.375 . S
C328 C329 1.367 . S
C328 H342 0.951 1_554 S
C329 C325 1.383 . S
C329 C328 1.367 . S
C329 H343 0.950 . S
C330 C327 1.481 1_556 S
C330 C331 1.297 . S
C330 H344 0.950 . S
C331 C330 1.297 . S
C331 C332 1.479 . S
C331 H345 0.950 1_556 S
C332 C331 1.479 . S
C332 C333 1.375 . S
C332 C338 1.404 . S
C333 C332 1.375 . S
C333 C334 1.369 . S
C333 H346 0.950 . S
C334 C333 1.369 . S
C334 C335 1.392 . S
C334 H347 0.951 . S
C335 C334 1.392 . S
C335 C337 1.384 . S
H336 C338 0.949 . S
C337 C335 1.384 . S
C337 C338 1.385 . S
C337 H339 0.950 . S
C338 C332 1.404 . S
C338 H336 0.949 . S
C338 C337 1.385 . S
H339 C337 0.950 . S
H340 C324 0.951 . S
H341 C326 0.951 . S
H342 C328 0.951 1_556 S
H343 C329 0.950 . S
H344 C330 0.950 . S
H345 C331 0.950 1_554 S
H346 C333 0.950 . S
H347 C334 0.951 . S
C348 C349 1.380 1_655 S
C348 C350 1.384 1_655 S
C348 H364 0.955 . S
C349 C348 1.380 1_455 S
C349 C353 1.383 . S
C350 C348 1.384 1_455 S
C350 C351 1.402 . S
C350 H365 0.951 1_455 S
C351 C350 1.402 . S
C351 C352 1.375 . S
C351 C354 1.481 . S
C352 C351 1.375 . S
C352 C353 1.367 . S
C352 H366 0.951 . S
C353 C349 1.383 . S
C353 C352 1.367 . S
C353 H367 0.950 . S
C354 C351 1.481 . S
C354 C355 1.297 . S
C354 H368 0.950 . S
C355 C354 1.297 . S
C355 C356 1.479 . S
C355 H369 0.950 . S
C356 C355 1.479 . S
C356 C357 1.375 1_455 S
C356 C362 1.404 . S
C357 C356 1.375 1_655 S
C357 C358 1.369 . S
C357 H370 0.950 . S
C358 C357 1.369 . S
C358 C359 1.392 1_655 S
C358 H371 0.951 . S
C359 C358 1.392 1_455 S
C359 C361 1.384 . S
H360 C362 0.949 . S
C361 C359 1.384 . S
C361 C362 1.385 . S
C361 H363 0.950 . S
C362 C356 1.404 . S
C362 H360 0.949 . S
C362 C361 1.385 . S
H363 C361 0.950 . S
H364 C348 0.955 . S
H365 C350 0.951 1_655 S
H366 C352 0.951 . S
H367 C353 0.950 . S
H368 C354 0.950 . S
H369 C355 0.950 . S
H370 C357 0.950 . S
H371 C358 0.951 . S
C95 C43 1.429 . S
C85 C0 1.435 . S
C109 C25 1.457 . S
C119 C69 1.456 . S
C133 C33 1.477 1_565 S
C143 C71 1.468 . S
C157 C11 1.410 . S
C167 C55 1.407 . S
C191 C57 1.457 . S
C181 C14 1.458 . S
C205 C37 1.474 . S
C215 C83 1.457 . S
C239 C56 1.442 . S
C229 C28 1.446 . S
C253 C9 1.470 1_565 S
C263 C82 1.473 . S
C287 C42 1.494 . S
C277 C19 1.497 . S
C311 C68 1.455 . S
C301 C39 1.456 . S
C335 C70 1.458 . S
C325 C5 1.478 . S
C349 C23 1.522 . S
C359 C54 1.505 . S
