# Generated by pormake.
# Topology gar, (4,6)-cn, num edge types: 1
# Building blocks:
#     Node 0, Type 0, BuildingBlock: QUQFOY_clean_sbu_3, # of connection points: 4
#     Node 1, Type 0, BuildingBlock: QUQFOY_clean_sbu_3, # of connection points: 4
#     Node 2, Type 0, BuildingBlock: QUQFOY_clean_sbu_3, # of connection points: 4
#     Node 3, Type 0, BuildingBlock: QUQFOY_clean_sbu_3, # of connection points: 4
#     Node 4, Type 0, BuildingBlock: QUQFOY_clean_sbu_3, # of connection points: 4
#     Node 5, Type 0, BuildingBlock: QUQFOY_clean_sbu_3, # of connection points: 4
#     Node 6, Type 0, BuildingBlock: QUQFOY_clean_sbu_3, # of connection points: 4
#     Node 7, Type 0, BuildingBlock: QUQFOY_clean_sbu_3, # of connection points: 4
#     Node 8, Type 0, BuildingBlock: QUQFOY_clean_sbu_3, # of connection points: 4
#     Node 9, Type 0, BuildingBlock: QUQFOY_clean_sbu_3, # of connection points: 4
#     Node 10, Type 0, BuildingBlock: QUQFOY_clean_sbu_3, # of connection points: 4
#     Node 11, Type 0, BuildingBlock: QUQFOY_clean_sbu_3, # of connection points: 4
#     Node 12, Type 0, BuildingBlock: QUQFOY_clean_sbu_3, # of connection points: 4
#     Node 13, Type 0, BuildingBlock: QUQFOY_clean_sbu_3, # of connection points: 4
#     Node 14, Type 0, BuildingBlock: QUQFOY_clean_sbu_3, # of connection points: 4
#     Node 15, Type 0, BuildingBlock: QUQFOY_clean_sbu_3, # of connection points: 4
#     Node 16, Type 0, BuildingBlock: QUQFOY_clean_sbu_3, # of connection points: 4
#     Node 17, Type 0, BuildingBlock: QUQFOY_clean_sbu_3, # of connection points: 4
#     Node 18, Type 0, BuildingBlock: QUQFOY_clean_sbu_3, # of connection points: 4
#     Node 19, Type 0, BuildingBlock: QUQFOY_clean_sbu_3, # of connection points: 4
#     Node 20, Type 0, BuildingBlock: QUQFOY_clean_sbu_3, # of connection points: 4
#     Node 21, Type 0, BuildingBlock: QUQFOY_clean_sbu_3, # of connection points: 4
#     Node 22, Type 0, BuildingBlock: QUQFOY_clean_sbu_3, # of connection points: 4
#     Node 23, Type 0, BuildingBlock: QUQFOY_clean_sbu_3, # of connection points: 4
#     Node 24, Type 1, BuildingBlock: BETDIP_clean_sbu_0, # of connection points: 6
#     Node 25, Type 1, BuildingBlock: BETDIP_clean_sbu_0, # of connection points: 6
#     Node 26, Type 1, BuildingBlock: BETDIP_clean_sbu_0, # of connection points: 6
#     Node 27, Type 1, BuildingBlock: BETDIP_clean_sbu_0, # of connection points: 6
#     Node 28, Type 1, BuildingBlock: BETDIP_clean_sbu_0, # of connection points: 6
#     Node 29, Type 1, BuildingBlock: BETDIP_clean_sbu_0, # of connection points: 6
#     Node 30, Type 1, BuildingBlock: BETDIP_clean_sbu_0, # of connection points: 6
#     Node 31, Type 1, BuildingBlock: BETDIP_clean_sbu_0, # of connection points: 6
#     Node 32, Type 1, BuildingBlock: BETDIP_clean_sbu_0, # of connection points: 6
#     Node 33, Type 1, BuildingBlock: BETDIP_clean_sbu_0, # of connection points: 6
#     Node 34, Type 1, BuildingBlock: BETDIP_clean_sbu_0, # of connection points: 6
#     Node 35, Type 1, BuildingBlock: BETDIP_clean_sbu_0, # of connection points: 6
#     Node 36, Type 1, BuildingBlock: BETDIP_clean_sbu_0, # of connection points: 6
#     Node 37, Type 1, BuildingBlock: BETDIP_clean_sbu_0, # of connection points: 6
#     Node 38, Type 1, BuildingBlock: BETDIP_clean_sbu_0, # of connection points: 6
#     Node 39, Type 1, BuildingBlock: BETDIP_clean_sbu_0, # of connection points: 6
#     Edge 40, Type (0, 1), BuildingBlock: OJICUG_clean_linker_0, # of connection points: 2
#     Edge 41, Type (0, 1), BuildingBlock: OJICUG_clean_linker_0, # of connection points: 2
#     Edge 42, Type (0, 1), BuildingBlock: OJICUG_clean_linker_0, # of connection points: 2
#     Edge 43, Type (0, 1), BuildingBlock: OJICUG_clean_linker_0, # of connection points: 2
#     Edge 44, Type (0, 1), BuildingBlock: OJICUG_clean_linker_0, # of connection points: 2
#     Edge 45, Type (0, 1), BuildingBlock: OJICUG_clean_linker_0, # of connection points: 2
#     Edge 46, Type (0, 1), BuildingBlock: OJICUG_clean_linker_0, # of connection points: 2
#     Edge 47, Type (0, 1), BuildingBlock: OJICUG_clean_linker_0, # of connection points: 2
#     Edge 48, Type (0, 1), BuildingBlock: OJICUG_clean_linker_0, # of connection points: 2
#     Edge 49, Type (0, 1), BuildingBlock: OJICUG_clean_linker_0, # of connection points: 2
#     Edge 50, Type (0, 1), BuildingBlock: OJICUG_clean_linker_0, # of connection points: 2
#     Edge 51, Type (0, 1), BuildingBlock: OJICUG_clean_linker_0, # of connection points: 2
#     Edge 52, Type (0, 1), BuildingBlock: OJICUG_clean_linker_0, # of connection points: 2
#     Edge 53, Type (0, 1), BuildingBlock: OJICUG_clean_linker_0, # of connection points: 2
#     Edge 54, Type (0, 1), BuildingBlock: OJICUG_clean_linker_0, # of connection points: 2
#     Edge 55, Type (0, 1), BuildingBlock: OJICUG_clean_linker_0, # of connection points: 2
#     Edge 56, Type (0, 1), BuildingBlock: OJICUG_clean_linker_0, # of connection points: 2
#     Edge 57, Type (0, 1), BuildingBlock: OJICUG_clean_linker_0, # of connection points: 2
#     Edge 58, Type (0, 1), BuildingBlock: OJICUG_clean_linker_0, # of connection points: 2
#     Edge 59, Type (0, 1), BuildingBlock: OJICUG_clean_linker_0, # of connection points: 2
#     Edge 60, Type (0, 1), BuildingBlock: OJICUG_clean_linker_0, # of connection points: 2
#     Edge 61, Type (0, 1), BuildingBlock: OJICUG_clean_linker_0, # of connection points: 2
#     Edge 62, Type (0, 1), BuildingBlock: OJICUG_clean_linker_0, # of connection points: 2
#     Edge 63, Type (0, 1), BuildingBlock: OJICUG_clean_linker_0, # of connection points: 2
#     Edge 64, Type (0, 1), BuildingBlock: OJICUG_clean_linker_0, # of connection points: 2
#     Edge 65, Type (0, 1), BuildingBlock: OJICUG_clean_linker_0, # of connection points: 2
#     Edge 66, Type (0, 1), BuildingBlock: OJICUG_clean_linker_0, # of connection points: 2
#     Edge 67, Type (0, 1), BuildingBlock: OJICUG_clean_linker_0, # of connection points: 2
#     Edge 68, Type (0, 1), BuildingBlock: OJICUG_clean_linker_0, # of connection points: 2
#     Edge 69, Type (0, 1), BuildingBlock: OJICUG_clean_linker_0, # of connection points: 2
#     Edge 70, Type (0, 1), BuildingBlock: OJICUG_clean_linker_0, # of connection points: 2
#     Edge 71, Type (0, 1), BuildingBlock: OJICUG_clean_linker_0, # of connection points: 2
#     Edge 72, Type (0, 1), BuildingBlock: OJICUG_clean_linker_0, # of connection points: 2
#     Edge 73, Type (0, 1), BuildingBlock: OJICUG_clean_linker_0, # of connection points: 2
#     Edge 74, Type (0, 1), BuildingBlock: OJICUG_clean_linker_0, # of connection points: 2
#     Edge 75, Type (0, 1), BuildingBlock: OJICUG_clean_linker_0, # of connection points: 2
#     Edge 76, Type (0, 1), BuildingBlock: OJICUG_clean_linker_0, # of connection points: 2
#     Edge 77, Type (0, 1), BuildingBlock: OJICUG_clean_linker_0, # of connection points: 2
#     Edge 78, Type (0, 1), BuildingBlock: OJICUG_clean_linker_0, # of connection points: 2
#     Edge 79, Type (0, 1), BuildingBlock: OJICUG_clean_linker_0, # of connection points: 2
#     Edge 80, Type (0, 1), BuildingBlock: OJICUG_clean_linker_0, # of connection points: 2
#     Edge 81, Type (0, 1), BuildingBlock: OJICUG_clean_linker_0, # of connection points: 2
#     Edge 82, Type (0, 1), BuildingBlock: OJICUG_clean_linker_0, # of connection points: 2
#     Edge 83, Type (0, 1), BuildingBlock: OJICUG_clean_linker_0, # of connection points: 2
#     Edge 84, Type (0, 1), BuildingBlock: OJICUG_clean_linker_0, # of connection points: 2
#     Edge 85, Type (0, 1), BuildingBlock: OJICUG_clean_linker_0, # of connection points: 2
#     Edge 86, Type (0, 1), BuildingBlock: OJICUG_clean_linker_0, # of connection points: 2
#     Edge 87, Type (0, 1), BuildingBlock: OJICUG_clean_linker_0, # of connection points: 2
#     Edge 88, Type (0, 1), BuildingBlock: OJICUG_clean_linker_0, # of connection points: 2
#     Edge 89, Type (0, 1), BuildingBlock: OJICUG_clean_linker_0, # of connection points: 2
#     Edge 90, Type (0, 1), BuildingBlock: OJICUG_clean_linker_0, # of connection points: 2
#     Edge 91, Type (0, 1), BuildingBlock: OJICUG_clean_linker_0, # of connection points: 2
#     Edge 92, Type (0, 1), BuildingBlock: OJICUG_clean_linker_0, # of connection points: 2
#     Edge 93, Type (0, 1), BuildingBlock: OJICUG_clean_linker_0, # of connection points: 2
#     Edge 94, Type (0, 1), BuildingBlock: OJICUG_clean_linker_0, # of connection points: 2
#     Edge 95, Type (0, 1), BuildingBlock: OJICUG_clean_linker_0, # of connection points: 2
#     Edge 96, Type (0, 1), BuildingBlock: OJICUG_clean_linker_0, # of connection points: 2
#     Edge 97, Type (0, 1), BuildingBlock: OJICUG_clean_linker_0, # of connection points: 2
#     Edge 98, Type (0, 1), BuildingBlock: OJICUG_clean_linker_0, # of connection points: 2
#     Edge 99, Type (0, 1), BuildingBlock: OJICUG_clean_linker_0, # of connection points: 2
#     Edge 100, Type (0, 1), BuildingBlock: OJICUG_clean_linker_0, # of connection points: 2
#     Edge 101, Type (0, 1), BuildingBlock: OJICUG_clean_linker_0, # of connection points: 2
#     Edge 102, Type (0, 1), BuildingBlock: OJICUG_clean_linker_0, # of connection points: 2
#     Edge 103, Type (0, 1), BuildingBlock: OJICUG_clean_linker_0, # of connection points: 2
#     Edge 104, Type (0, 1), BuildingBlock: OJICUG_clean_linker_0, # of connection points: 2
#     Edge 105, Type (0, 1), BuildingBlock: OJICUG_clean_linker_0, # of connection points: 2
#     Edge 106, Type (0, 1), BuildingBlock: OJICUG_clean_linker_0, # of connection points: 2
#     Edge 107, Type (0, 1), BuildingBlock: OJICUG_clean_linker_0, # of connection points: 2
#     Edge 108, Type (0, 1), BuildingBlock: OJICUG_clean_linker_0, # of connection points: 2
#     Edge 109, Type (0, 1), BuildingBlock: OJICUG_clean_linker_0, # of connection points: 2
#     Edge 110, Type (0, 1), BuildingBlock: OJICUG_clean_linker_0, # of connection points: 2
#     Edge 111, Type (0, 1), BuildingBlock: OJICUG_clean_linker_0, # of connection points: 2
#     Edge 112, Type (0, 1), BuildingBlock: OJICUG_clean_linker_0, # of connection points: 2
#     Edge 113, Type (0, 1), BuildingBlock: OJICUG_clean_linker_0, # of connection points: 2
#     Edge 114, Type (0, 1), BuildingBlock: OJICUG_clean_linker_0, # of connection points: 2
#     Edge 115, Type (0, 1), BuildingBlock: OJICUG_clean_linker_0, # of connection points: 2
#     Edge 116, Type (0, 1), BuildingBlock: OJICUG_clean_linker_0, # of connection points: 2
#     Edge 117, Type (0, 1), BuildingBlock: OJICUG_clean_linker_0, # of connection points: 2
#     Edge 118, Type (0, 1), BuildingBlock: OJICUG_clean_linker_0, # of connection points: 2
#     Edge 119, Type (0, 1), BuildingBlock: OJICUG_clean_linker_0, # of connection points: 2
#     Edge 120, Type (0, 1), BuildingBlock: OJICUG_clean_linker_0, # of connection points: 2
#     Edge 121, Type (0, 1), BuildingBlock: OJICUG_clean_linker_0, # of connection points: 2
#     Edge 122, Type (0, 1), BuildingBlock: OJICUG_clean_linker_0, # of connection points: 2
#     Edge 123, Type (0, 1), BuildingBlock: OJICUG_clean_linker_0, # of connection points: 2
#     Edge 124, Type (0, 1), BuildingBlock: OJICUG_clean_linker_0, # of connection points: 2
#     Edge 125, Type (0, 1), BuildingBlock: OJICUG_clean_linker_0, # of connection points: 2
#     Edge 126, Type (0, 1), BuildingBlock: OJICUG_clean_linker_0, # of connection points: 2
#     Edge 127, Type (0, 1), BuildingBlock: OJICUG_clean_linker_0, # of connection points: 2
#     Edge 128, Type (0, 1), BuildingBlock: OJICUG_clean_linker_0, # of connection points: 2
#     Edge 129, Type (0, 1), BuildingBlock: OJICUG_clean_linker_0, # of connection points: 2
#     Edge 130, Type (0, 1), BuildingBlock: OJICUG_clean_linker_0, # of connection points: 2
#     Edge 131, Type (0, 1), BuildingBlock: OJICUG_clean_linker_0, # of connection points: 2
#     Edge 132, Type (0, 1), BuildingBlock: OJICUG_clean_linker_0, # of connection points: 2
#     Edge 133, Type (0, 1), BuildingBlock: OJICUG_clean_linker_0, # of connection points: 2
#     Edge 134, Type (0, 1), BuildingBlock: OJICUG_clean_linker_0, # of connection points: 2
#     Edge 135, Type (0, 1), BuildingBlock: OJICUG_clean_linker_0, # of connection points: 2
# Relax obj value: 0.242
# Max RMSD: 0.363
# Mean RMSD: 0.167
data_MOF--net-gar--node1-QUQFOY_clean_sbu_3--node2-BETDIP_clean_sbu_0--edge1-OJICUG_clean_linker_0
_symmetry_space_group_name_H-M    P1
_symmetry_Int_Tables_number       1
_symmetry_cell_setting            triclinic
loop_
_symmetry_equiv_pos_as_xyz
'x, y, z'
_cell_length_a     49.602615
_cell_length_b     43.309226
_cell_length_c     40.580759
_cell_angle_alpha  98.664036
_cell_angle_beta   100.08484
_cell_angle_gamma 102.103
loop_
_atom_site_label
_atom_site_type_symbol
_atom_site_fract_x
_atom_site_fract_y
_atom_site_fract_z
_atom_type_partial_charge
C0 C 0.98642 0.37242 0.37629 0.0
O1 O 1.00038 0.39909 0.37211 0.0
Cd2 Cd 0.05109 0.41028 0.39352 0.0
O3 O 0.9988 0.35459 0.39207 0.0
Cd4 Cd 0.04353 0.35482 0.42236 0.0
C5 C 0.05163 0.42045 0.47662 0.0
O6 O 0.06902 0.36319 0.37729 0.0
O7 O 0.09354 0.36778 0.42833 0.0
O8 O 0.02277 0.29707 0.4126 0.0
C9 C 0.09186 0.36215 0.39638 0.0
O10 O 0.06271 0.43403 0.45488 0.0
C11 C 0.03614 0.29491 0.44149 0.0
O12 O 0.03876 0.39115 0.46918 0.0
O13 O 0.05245 0.32023 0.46039 0.0
C14 C 0.03043 0.75865 0.80684 0.0
O15 O 0.03656 0.73448 0.81761 0.0
Cd16 Cd 0.07614 0.71767 0.79922 0.0
O17 O 0.04489 0.77269 0.78832 0.0
Cd18 Cd 0.08402 0.7693 0.76388 0.0
C19 C 0.05845 0.70348 0.71254 0.0
O20 O 0.1185 0.76013 0.80981 0.0
O21 O 0.12213 0.74545 0.75756 0.0
O22 O 0.09565 0.82788 0.77509 0.0
C23 C 0.13361 0.75268 0.78903 0.0
O24 O 0.06808 0.69312 0.73877 0.0
C25 C 0.10053 0.82912 0.7456 0.0
O26 O 0.05525 0.73186 0.71518 0.0
O27 O 0.09775 0.80272 0.72549 0.0
C28 C 0.48714 0.86773 0.87686 0.0
O29 O 0.50004 0.88801 0.862 0.0
Cd30 Cd 0.55004 0.90012 0.88395 0.0
O31 O 0.50082 0.8542 0.89717 0.0
Cd32 Cd 0.54597 0.84803 0.9216 0.0
C33 C 0.55051 0.9135 0.97084 0.0
O34 O 0.569 0.85299 0.87432 0.0
O35 O 0.59544 0.86478 0.92524 0.0
O36 O 0.5229 0.79098 0.91129 0.0
C37 C 0.59292 0.85583 0.8934 0.0
O38 O 0.55333 0.92402 0.94364 0.0
C39 C 0.53751 0.78752 0.93882 0.0
O40 O 0.54679 0.88389 0.97116 0.0
O41 O 0.55564 0.81185 0.95708 0.0
C42 C 0.53529 0.26464 0.31834 0.0
O43 O 0.53997 0.23903 0.32701 0.0
Cd44 Cd 0.57863 0.22054 0.30794 0.0
O45 O 0.54892 0.27789 0.29861 0.0
Cd46 Cd 0.58357 0.27023 0.2679 0.0
C47 C 0.55939 0.20242 0.22181 0.0
O48 O 0.61999 0.26306 0.3129 0.0
O49 O 0.62201 0.24771 0.26011 0.0
O50 O 0.597 0.32857 0.27436 0.0
C51 C 0.63428 0.25514 0.29131 0.0
O52 O 0.57073 0.19421 0.24867 0.0
C53 C 0.59781 0.32709 0.24311 0.0
O54 O 0.5528 0.22919 0.2235 0.0
O55 O 0.59171 0.29944 0.2242 0.0
C56 C 0.05801 0.82016 0.24953 0.0
O57 O 0.07724 0.81467 0.27129 0.0
Cd58 Cd 0.12067 0.80632 0.26012 0.0
O59 O 0.06295 0.82675 0.22116 0.0
Cd60 Cd 0.10605 0.83889 0.19434 0.0
C61 C 0.09549 0.75883 0.17822 0.0
O62 O 0.14526 0.85272 0.24455 0.0
O63 O 0.15614 0.83485 0.19767 0.0
O64 O 0.09202 0.88991 0.19045 0.0
C65 C 0.16409 0.84535 0.22958 0.0
O66 O 0.10518 0.76291 0.2102 0.0
C67 C 0.09587 0.89145 0.1606 0.0
O68 O 0.09217 0.78242 0.16379 0.0
O69 O 0.10498 0.86888 0.1459 0.0
C70 C 0.46234 0.79489 0.43922 0.0
O71 O 0.47851 0.81137 0.42391 0.0
Cd72 Cd 0.52852 0.8264 0.43813 0.0
O73 O 0.47257 0.78235 0.46384 0.0
Cd74 Cd 0.52348 0.78315 0.49504 0.0
C75 C 0.53101 0.86307 0.52043 0.0
O76 O 0.54846 0.78209 0.44734 0.0
O77 O 0.57431 0.80414 0.49696 0.0
O78 O 0.51297 0.7251 0.49996 0.0
C79 C 0.57306 0.7939 0.46567 0.0
O80 O 0.53479 0.86494 0.49052 0.0
C81 C 0.52609 0.72945 0.53081 0.0
O82 O 0.52501 0.83601 0.52969 0.0
O83 O 0.53669 0.75859 0.54568 0.0
C84 C 0.5549 0.31447 0.74311 0.0
O85 O 0.57245 0.30556 0.76401 0.0
Cd86 Cd 0.61873 0.30273 0.75631 0.0
O87 O 0.56193 0.32537 0.71753 0.0
Cd88 Cd 0.60565 0.3388 0.69327 0.0
C89 C 0.59991 0.25923 0.6732 0.0
O90 O 0.64381 0.35132 0.74482 0.0
O91 O 0.65585 0.33539 0.698 0.0
O92 O 0.5947 0.39164 0.6921 0.0
C93 C 0.66315 0.34504 0.73009 0.0
O94 O 0.6108 0.26233 0.70474 0.0
C95 C 0.59641 0.39302 0.66148 0.0
O96 O 0.59246 0.2825 0.66111 0.0
O97 O 0.60317 0.36939 0.645 0.0
C98 C 0.96137 0.29187 0.93717 0.0
O99 O 0.97799 0.30912 0.92297 0.0
Cd100 Cd 0.02825 0.32208 0.93381 0.0
O101 O 0.97108 0.27786 0.96074 0.0
Cd102 Cd 0.02207 0.2801 0.99248 0.0
C103 C 0.03551 0.36153 0.01589 0.0
O104 O 0.04811 0.27892 0.94592 0.0
O105 O 0.07302 0.3014 0.99609 0.0
O106 O 0.02367 0.22378 0.99615 0.0
C107 C 0.07244 0.29108 0.96493 0.0
O108 O 0.03963 0.36168 0.98583 0.0
C109 C 0.02654 0.22683 0.02826 0.0
O110 O 0.02645 0.33524 0.02558 0.0
O111 O 0.02556 0.25405 0.04424 0.0
C112 C 0.47771 0.07112 0.40096 0.0
O113 O 0.48392 0.05084 0.37932 0.0
Cd114 Cd 0.46852 0.0378 0.31842 0.0
O115 O 0.46076 0.08844 0.38999 0.0
Cd116 Cd 0.42967 0.0897 0.3253 0.0
C117 C 0.4009 1.00159 0.31875 0.0
O118 O 0.47269 0.08644 0.29537 0.0
O119 O 0.43485 0.07988 0.25937 0.0
O120 O 0.4242 0.15132 0.34179 0.0
C121 C 0.46129 0.08195 0.2639 0.0
O122 O 0.42359 0.99806 0.30987 0.0
C123 C 0.39801 0.14788 0.32897 0.0
O124 O 0.39759 0.03047 0.3272 0.0
O125 O 0.38609 0.11861 0.31474 0.0
C126 C 0.31608 0.15239 0.58196 0.0
O127 O 0.30052 0.13846 0.5997 0.0
Cd128 Cd 0.25313 0.14173 0.60158 0.0
O129 O 0.30766 0.17139 0.56364 0.0
Cd130 Cd 0.26499 0.19416 0.5552 0.0
C131 C 0.27063 0.2209 0.63936 0.0
O132 O 0.22783 0.14489 0.54718 0.0
O133 O 0.21488 0.18882 0.5599 0.0
O134 O 0.26508 0.1993 0.49496 0.0
C135 C 0.20804 0.1583 0.55188 0.0
O136 O 0.25857 0.19213 0.64024 0.0
C137 C 0.27246 0.22987 0.50161 0.0
O138 O 0.27864 0.22816 0.61275 0.0
O139 O 0.27519 0.24341 0.53242 0.0
C140 C 0.12206 0.09955 0.93572 0.0
O141 O 0.11823 0.12574 0.92779 0.0
Cd142 Cd 0.14268 0.1266 0.88185 0.0
O143 O 0.13637 0.08437 0.91944 0.0
Cd144 Cd 0.15922 0.09971 0.87288 0.0
C145 C 0.19492 0.17475 0.88317 0.0
O146 O 0.11572 0.09441 0.82909 0.0
O147 O 0.15575 0.11291 0.8161 0.0
O148 O 0.15873 0.04598 0.84551 0.0
C149 C 0.12931 0.10135 0.80643 0.0
O150 O 0.16979 0.17685 0.87353 0.0
C151 C 0.18249 0.04586 0.86281 0.0
O152 O 0.19888 0.14848 0.8909 0.0
O153 O 0.19566 0.07098 0.8846 0.0
C154 C 0.28197 0.91935 0.98289 0.0
O155 O 0.2647 0.92946 0.96263 0.0
Cd156 Cd 0.21497 0.91312 0.96156 0.0
O157 O 0.27304 0.89758 0.99897 0.0
Cd158 Cd 0.2314 0.86116 0.01026 0.0
C159 C 0.2025 0.8367 0.9383 0.0
O160 O 0.22362 0.91256 0.0222 0.0
O161 O 0.19664 0.87571 0.04101 0.0
O162 O 0.24985 0.85635 0.06625 0.0
C163 C 0.20503 0.90517 0.03934 0.0
O164 O 0.19115 0.85854 0.92902 0.0
C165 C 0.26592 0.8388 0.05777 0.0
O166 O 0.19546 0.82622 0.96374 0.0
O167 O 0.26326 0.82765 0.02635 0.0
C168 C 0.40693 0.47901 0.12103 0.0
O169 O 0.39221 0.49457 0.10454 0.0
Cd170 Cd 0.34257 0.47842 0.08532 0.0
O171 O 0.39527 0.45424 0.13165 0.0
Cd172 Cd 0.34454 0.42453 0.12923 0.0
C173 C 0.34002 0.40124 0.04588 0.0
O174 O 0.32018 0.46817 0.13147 0.0
O175 O 0.29405 0.42112 0.1074 0.0
O176 O 0.3487 0.41864 0.18936 0.0
C177 C 0.29559 0.45042 0.1191 0.0
O178 O 0.33845 0.42986 0.04377 0.0
C179 C 0.34114 0.38806 0.18268 0.0
O180 O 0.3429 0.39211 0.07434 0.0
O181 O 0.33632 0.37463 0.1515 0.0
C182 C 0.89382 0.18121 0.15506 0.0
O183 O 0.89019 0.17028 0.18188 0.0
Cd184 Cd 0.87812 0.192 0.23405 0.0
O185 O 0.89148 0.20921 0.15131 0.0
Cd186 Cd 0.87864 0.25397 0.18206 0.0
C187 C 0.91357 0.26338 0.25203 0.0
O188 O 0.84569 0.21612 0.20334 0.0
O189 O 0.82667 0.24569 0.17377 0.0
O190 O 0.87676 0.26208 0.12659 0.0
C191 C 0.82327 0.22171 0.18815 0.0
O192 O 0.91844 0.23769 0.2605 0.0
C193 C 0.86747 0.28727 0.13161 0.0
O194 O 0.92235 0.27108 0.22626 0.0
O195 O 0.86935 0.30109 0.1623 0.0
C196 C 0.14281 0.55512 0.42071 0.0
O197 O 0.134 0.57216 0.40036 0.0
Cd198 Cd 0.14573 0.57854 0.34648 0.0
O199 O 0.16095 0.53899 0.41203 0.0
Cd200 Cd 0.18783 0.53159 0.3539 0.0
C201 C 0.21467 0.61929 0.35694 0.0
O202 O 0.14202 0.52771 0.31 0.0
O203 O 0.17826 0.53657 0.28863 0.0
O204 O 0.19199 0.4692 0.34383 0.0
C205 C 0.15155 0.53182 0.28346 0.0
O206 O 0.18889 0.62042 0.35211 0.0
C207 C 0.21857 0.47263 0.35335 0.0
O208 O 0.22111 0.59208 0.35972 0.0
O209 O 0.23143 0.50232 0.3634 0.0
C210 C 0.90735 0.97992 0.62002 0.0
O211 O 0.89155 0.9929 0.60142 0.0
Cd212 Cd 0.84165 0.97721 0.58527 0.0
O213 O 0.89698 0.9568 0.63383 0.0
Cd214 Cd 0.84717 0.92566 0.6326 0.0
C215 C 0.83834 0.89929 0.54834 0.0
O216 O 0.82181 0.96823 0.63334 0.0
O217 O 0.7963 0.92041 0.61107 0.0
O218 O 0.8481 0.92368 0.69297 0.0
C219 C 0.79739 0.94979 0.62192 0.0
O220 O 0.83526 0.92722 0.54526 0.0
C221 C 0.84538 0.89351 0.68975 0.0
O222 O 0.84408 0.89176 0.57745 0.0
O223 O 0.84484 0.87821 0.66028 0.0
C224 C 1.00455 1.01288 0.37786 0.0
O225 O 1.01394 0.99159 0.36158 0.0
Cd226 Cd 0.99394 0.97402 0.30234 0.0
O227 O 0.98592 0.02478 0.36225 0.0
Cd228 Cd 0.96056 1.0202 0.30302 0.0
C229 C 0.92423 0.94584 0.30179 0.0
O230 O 1.00253 0.02371 0.27937 0.0
O231 O 0.96297 1.01491 0.24293 0.0
O232 O 0.965 0.07414 0.3324 0.0
C233 C 0.98966 0.0238 0.24952 0.0
O234 O 0.94773 0.93846 0.30191 0.0
C235 C 0.94296 0.07771 0.31389 0.0
O236 O 0.92244 0.97451 0.30133 0.0
O237 O 0.92919 0.05452 0.28989 0.0
C238 C 0.41114 0.70036 0.65292 0.0
O239 O 0.41251 0.69097 0.68129 0.0
Cd240 Cd 0.39322 0.70691 0.72991 0.0
O241 O 0.39963 0.72291 0.64652 0.0
Cd242 Cd 0.37908 0.75976 0.67828 0.0
C243 C 0.41317 0.78 0.74927 0.0
O244 O 0.34963 0.71624 0.70012 0.0
O245 O 0.32878 0.74592 0.67165 0.0
O246 O 0.37217 0.76659 0.62203 0.0
C247 C 0.32679 0.72104 0.68457 0.0
O248 O 0.42457 0.75868 0.75971 0.0
C249 C 0.361 0.79019 0.62773 0.0
O250 O 0.41985 0.78897 0.72297 0.0
O251 O 0.3634 0.80388 0.65854 0.0
C252 C 0.50377 0.51433 0.88024 0.0
O253 O 0.51188 0.49217 0.86343 0.0
Cd254 Cd 0.49317 0.47507 0.80362 0.0
O255 O 0.48607 0.5278 0.86529 0.0
Cd256 Cd 0.45997 0.52275 0.80667 0.0
C257 C 0.4245 0.44676 0.80407 0.0
O258 O 0.50005 0.52456 0.78014 0.0
O259 O 0.45955 0.51629 0.74559 0.0
O260 O 0.46177 0.57952 0.8255 0.0
C261 C 0.48623 0.52417 0.75064 0.0
O262 O 0.44723 0.43841 0.80146 0.0
C263 C 0.43526 0.57514 0.81576 0.0
O264 O 0.42374 0.47599 0.80633 0.0
O265 O 0.4213 0.54712 0.80054 0.0
C266 C 0.64387 0.05763 0.92043 0.0
O267 O 0.63538 0.07486 0.90001 0.0
Cd268 Cd 0.64399 0.08252 0.84473 0.0
O269 O 0.6614 0.04053 0.91168 0.0
Cd270 Cd 0.68839 0.03086 0.85364 0.0
C271 C 0.71501 0.11923 0.85663 0.0
O272 O 0.64282 0.03113 0.81248 0.0
O273 O 0.67551 0.02697 0.78635 0.0
O274 O 0.69513 0.97079 0.86046 0.0
C275 C 0.65036 0.02987 0.78408 0.0
O276 O 0.68935 0.12094 0.85101 0.0
C277 C 0.71954 0.97212 0.85368 0.0
O278 O 0.7211 0.09189 0.85991 0.0
O279 O 0.73011 0.99968 0.84758 0.0
C280 C 0.81693 0.65214 0.08083 0.0
O281 O 0.80106 0.63823 0.09828 0.0
Cd282 Cd 0.75376 0.6417 0.10051 0.0
O283 O 0.80878 0.67139 0.06259 0.0
Cd284 Cd 0.76583 0.69451 0.05474 0.0
C285 C 0.77254 0.7204 0.13927 0.0
O286 O 0.72794 0.64543 0.04662 0.0
O287 O 0.71583 0.68966 0.06037 0.0
O288 O 0.76728 0.70116 0.99515 0.0
C289 C 0.70848 0.65919 0.05202 0.0
O290 O 0.75988 0.69181 0.13992 0.0
C291 C 0.7722 0.7317 1.00182 0.0
O292 O 0.78059 0.72768 0.11268 0.0
O293 O 0.77336 0.74455 0.03246 0.0
C294 C 0.9771 0.5726 0.90261 0.0
O295 O 0.98399 0.552 0.8821 0.0
Cd296 Cd 0.9684 0.53935 0.82106 0.0
O297 O 0.95989 0.58908 0.89037 0.0
Cd298 Cd 0.92905 0.58888 0.82544 0.0
C299 C 0.901 0.50154 0.82006 0.0
O300 O 0.97245 0.58723 0.79593 0.0
O301 O 0.93394 0.57583 0.75984 0.0
O302 O 0.92339 0.65022 0.84135 0.0
C303 C 0.96067 0.58057 0.76441 0.0
O304 O 0.92398 0.49843 0.8117 0.0
C305 C 0.89727 0.64672 0.82821 0.0
O306 O 0.89724 0.53021 0.82813 0.0
O307 O 0.88543 0.61748 0.81385 0.0
C308 C 0.77524 0.42241 0.48745 0.0
O309 O 0.75739 0.43447 0.47039 0.0
Cd310 Cd 0.70678 0.41692 0.46762 0.0
O311 O 0.76709 0.39934 0.50224 0.0
Cd312 Cd 0.73043 0.36061 0.51797 0.0
C313 C 0.70138 0.34275 0.4406 0.0
O314 O 0.71047 0.40302 0.52308 0.0
O315 O 0.71563 0.38523 0.56992 0.0
O316 O 0.74618 0.32121 0.5479 0.0
C317 C 0.70911 0.40672 0.5541 0.0
O318 O 0.69038 0.36396 0.42892 0.0
C319 C 0.7721 0.33577 0.55163 0.0
O320 O 0.69476 0.33459 0.46741 0.0
O321 O 0.77777 0.35999 0.53772 0.0
C322 C 0.62425 0.605 0.44115 0.0
O323 O 0.62034 0.63146 0.43412 0.0
Cd324 Cd 0.64066 0.63183 0.38436 0.0
O325 O 0.6375 0.58966 0.42336 0.0
Cd326 Cd 0.65735 0.60618 0.37528 0.0
C327 C 0.69488 0.67856 0.38741 0.0
O328 O 0.61273 0.5989 0.33202 0.0
O329 O 0.65194 0.61891 0.3184 0.0
O330 O 0.65583 0.54952 0.36779 0.0
C331 C 0.62575 0.60618 0.309 0.0
O332 O 0.67013 0.68006 0.3746 0.0
C333 C 0.68039 0.5532 0.36187 0.0
O334 O 0.69782 0.6535 0.39884 0.0
O335 O 0.69409 0.58158 0.36267 0.0
Tb336 Tb 0.03419 0.04315 0.07527 0.0
Tb337 Tb 0.09085 0.07862 0.11865 0.0
C338 C 0.98263 0.02844 0.0502 0.0
C339 C 0.96434 0.04974 0.05764 0.0
C340 C 0.97237 0.07156 0.08897 0.0
C341 C 0.95836 0.09547 0.09527 0.0
C342 C 0.93548 0.09741 0.07084 0.0
C343 C 0.92685 0.07546 0.03965 0.0
C344 C 0.94166 0.05189 0.03279 0.0
C345 C 0.07595 0.04941 0.04261 0.0
C346 C 0.05317 0.1208 0.08962 0.0
C347 C 0.14292 0.092 0.13932 0.0
C348 C 0.16052 0.06951 0.13126 0.0
C349 C 0.1638 0.06164 0.09746 0.0
C350 C 0.17242 0.03398 0.08678 0.0
C351 C 0.17837 1.01407 0.10973 0.0
C352 C 0.17737 0.02288 0.14404 0.0
C353 C 0.16842 0.05052 0.15479 0.0
C354 C 0.04951 0.07306 0.15187 0.0
C355 C 0.07141 1.00113 0.1052 0.0
O356 O 0.99366 1.01744 0.07636 0.0
O357 O 1.00143 0.03979 0.03341 0.0
O358 O 0.07208 0.0692 0.0661 0.0
O359 O 0.05485 0.0243 0.03585 0.0
O360 O 0.03227 0.09459 0.08449 0.0
O361 O 0.07962 0.12 0.10084 0.0
O362 O 0.13073 0.10234 0.11327 0.0
O363 O 0.12541 0.08316 0.15878 0.0
O364 O 0.05269 0.05287 0.12813 0.0
O365 O 0.07153 0.09732 0.15956 0.0
O366 O 0.09245 0.0272 0.11009 0.0
O367 O 0.04505 1.00199 0.09368 0.0
H368 H 0.98987 0.07052 0.10855 0.0
H369 H 0.96479 0.11186 0.11979 0.0
H370 H 0.90872 0.07648 0.02098 0.0
H371 H 0.93557 0.03556 1.00829 0.0
H372 H 0.15792 0.07557 0.07854 0.0
H373 H 0.17348 0.02749 0.06025 0.0
H374 H 0.18218 1.00763 0.16199 0.0
H375 H 0.16592 0.05584 0.18087 0.0
Tb376 Tb 0.31701 0.79706 0.31566 0.0
Tb377 Tb 0.29974 0.82612 0.36868 0.0
C378 C 0.33288 0.78041 0.26179 0.0
C379 C 0.33587 0.7963 0.23322 0.0
C380 C 0.32269 0.82144 0.22924 0.0
C381 C 0.32223 0.83423 0.19999 0.0
C382 C 0.33473 0.82178 0.1741 0.0
C383 C 0.34984 0.79828 0.17937 0.0
C384 C 0.35041 0.78554 0.209 0.0
C385 C 0.34837 0.79212 0.37435 0.0
C386 C 0.33698 0.87459 0.33618 0.0
C387 C 0.28421 0.84303 0.42275 0.0
C388 C 0.28134 0.82753 0.45157 0.0
C389 C 0.29295 0.80106 0.45448 0.0
C390 C 0.29554 0.78981 0.48467 0.0
C391 C 0.28695 0.80527 0.51259 0.0
C392 C 0.27275 0.82974 0.50847 0.0
C393 C 0.26997 0.84091 0.47787 0.0
C394 C 0.26908 0.83326 0.31111 0.0
C395 C 0.27956 0.74827 0.347 0.0
O396 O 0.30693 0.77139 0.26547 0.0
O397 O 0.3502 0.79525 0.29043 0.0
O398 O 0.34046 0.81685 0.3676 0.0
O399 O 0.33771 0.76928 0.34818 0.0
O400 O 0.33098 0.84881 0.31139 0.0
O401 O 0.32907 0.87076 0.36499 0.0
O402 O 0.31016 0.85163 0.41891 0.0
O403 O 0.26674 0.82814 0.39423 0.0
O404 O 0.27631 0.8076 0.31631 0.0
O405 O 0.28007 0.85515 0.33798 0.0
O406 O 0.2852 0.77393 0.37193 0.0
O407 O 0.28782 0.75237 0.31853 0.0
H408 H 0.31114 0.8298 0.24765 0.0
H409 H 0.30986 0.8518 0.19648 0.0
H410 H 0.35965 0.78844 0.15975 0.0
H411 H 0.36093 0.76631 0.2122 0.0
H412 H 0.30226 0.79083 0.4346 0.0
H413 H 0.30704 0.77129 0.48711 0.0
H414 H 0.26578 0.84176 0.52964 0.0
H415 H 0.26073 0.86125 0.47557 0.0
Tb416 Tb 0.58906 0.06086 0.58351 0.0
Tb417 Tb 0.53367 0.05877 0.61115 0.0
C418 C 0.63757 0.05798 0.57529 0.0
C419 C 0.6588 0.0393 0.58318 0.0
C420 C 0.66946 0.03642 0.61668 0.0
C421 C 0.69041 1.01964 0.62327 0.0
C422 C 0.70134 1.00571 0.59653 0.0
C423 C 0.69028 1.00818 0.56296 0.0
C424 C 0.66925 0.02483 0.5564 0.0
C425 C 0.5468 0.0693 0.53468 0.0
C426 C 0.54775 0.99407 0.58299 0.0
C427 C 0.48471 0.06107 0.61757 0.0
C428 C 0.46364 0.08002 0.61083 0.0
C429 C 0.45773 0.09094 0.58009 0.0
C430 C 0.43639 0.10753 0.57452 0.0
C431 C 0.42071 0.11345 0.59961 0.0
C432 C 0.42744 0.10309 0.63062 0.0
C433 C 0.44867 0.08672 0.63614 0.0
C434 C 0.57493 0.05049 0.66097 0.0
C435 C 0.57574 0.12564 0.61289 0.0
O436 O 0.63297 0.07766 0.60054 0.0
O437 O 0.61429 0.04217 0.55342 0.0
O438 O 0.54695 0.06526 0.56506 0.0
O439 O 0.57202 0.06827 0.53119 0.0
O440 O 0.57397 1.01025 0.58513 0.0
O441 O 0.52728 1.00837 0.58791 0.0
O442 O 0.48998 0.04312 0.5915 0.0
O443 O 0.50747 0.07579 0.64081 0.0
O444 O 0.57617 0.05451 0.63062 0.0
O445 O 0.54934 0.05109 0.66305 0.0
O446 O 0.54945 0.10979 0.61116 0.0
O447 O 0.59587 0.11104 0.60722 0.0
H448 H 0.66205 0.04763 0.63785 0.0
H449 H 0.6983 1.01785 0.64937 0.0
H450 H 0.69848 0.99813 0.54184 0.0
H451 H 0.66149 0.02692 0.53035 0.0
H452 H 0.46931 0.08635 0.56032 0.0
H453 H 0.43208 0.11549 0.55053 0.0
H454 H 0.41564 0.10651 0.65037 0.0
H455 H 0.45301 0.0786 0.66008 0.0
Tb456 Tb 0.28344 0.32334 0.8427 0.0
Tb457 Tb 0.33611 0.29692 0.8449 0.0
C458 C 0.23705 0.33519 0.8506 0.0
C459 C 0.21658 0.3303 0.87296 0.0
C460 C 0.21052 0.30189 0.88593 0.0
C461 C 0.18828 0.29595 0.903 0.0
C462 C 0.17215 0.31863 0.90793 0.0
C463 C 0.17908 0.34769 0.89649 0.0
C464 C 0.20106 0.35341 0.87903 0.0
C465 C 0.3271 0.36206 0.82912 0.0
C466 C 0.3246 0.32745 0.91294 0.0
C467 C 0.3808 0.28055 0.8369 0.0
C468 C 0.40179 0.28429 0.81523 0.0
C469 C 0.40787 0.31159 0.80052 0.0
C470 C 0.43063 0.31671 0.78421 0.0
C471 C 0.44718 0.29413 0.78153 0.0
C472 C 0.43991 0.26586 0.79443 0.0
C473 C 0.41754 0.26112 0.81134 0.0
C474 C 0.29208 0.2593 0.85894 0.0
C475 C 0.29626 0.29506 0.77422 0.0
O476 O 0.23932 0.30944 0.83084 0.0
O477 O 0.26154 0.35545 0.86375 0.0
O478 O 0.32785 0.34355 0.85013 0.0
O479 O 0.30102 0.36173 0.81715 0.0
O480 O 0.29806 0.32243 0.8966 0.0
O481 O 0.34495 0.32362 0.89678 0.0
O482 O 0.38021 0.30646 0.85775 0.0
O483 O 0.3555 0.26281 0.82248 0.0
O484 O 0.29184 0.27696 0.83719 0.0
O485 O 0.31798 0.26037 0.87238 0.0
O486 O 0.32256 0.29899 0.79102 0.0
O487 O 0.27583 0.29934 0.79008 0.0
H488 H 0.22247 0.28397 0.88212 0.0
H489 H 0.1833 0.27341 0.91175 0.0
H490 H 0.16687 0.36547 0.90006 0.0
H491 H 0.20537 0.37551 0.86932 0.0
H492 H 0.39552 0.32928 0.80239 0.0
H493 H 0.43557 0.33852 0.77415 0.0
H494 H 0.45236 0.24813 0.79289 0.0
H495 H 0.41311 0.23981 0.82237 0.0
Tb496 Tb 0.05339 0.09122 0.5978 0.0
Tb497 Tb 0.06986 0.0321 0.58913 0.0
C498 C 0.0411 0.14379 0.59388 0.0
C499 C 0.03542 0.15917 0.56493 0.0
C500 C 0.0476 0.1526 0.53679 0.0
C501 C 0.043 0.16819 0.50965 0.0
C502 C 0.02622 0.19046 0.51048 0.0
C503 C 1.01259 0.19549 0.53762 0.0
C504 C 1.01721 0.17982 0.56487 0.0
C505 C 0.01919 0.04441 0.61618 0.0
C506 C 0.03891 0.04665 0.52432 0.0
C507 C 0.08035 0.97884 0.59349 0.0
C508 C 0.08735 0.96351 0.62248 0.0
C509 C 0.06695 0.95228 0.64072 0.0
C510 C 0.07399 0.93708 0.66768 0.0
C511 C 0.10149 0.93306 0.67678 0.0
C512 C 0.12217 0.94581 0.6597 0.0
C513 C 0.11509 0.96068 0.63254 0.0
C514 C 0.10436 0.07814 0.57013 0.0
C515 C 0.08506 0.07623 0.66239 0.0
O516 O 0.06704 0.14102 0.60252 0.0
O517 O 0.02241 0.1173 0.59267 0.0
O518 O 0.02973 0.04215 0.59006 0.0
O519 O 0.02776 0.07374 0.63282 0.0
O520 O 0.04475 0.07648 0.54172 0.0
O521 O 0.04305 0.02302 0.5397 0.0
O522 O 0.05468 0.98281 0.58651 0.0
O523 O 0.09942 1.0042 0.59214 0.0
O524 O 0.09375 0.08145 0.59627 0.0
O525 O 0.09599 0.04845 0.55451 0.0
O526 O 0.07881 0.04652 0.64481 0.0
O527 O 0.08051 0.10008 0.64748 0.0
H528 H 0.0615 0.13638 0.53632 0.0
H529 H 0.0538 0.16431 0.48894 0.0
H530 H 0.99994 0.21305 0.53881 0.0
H531 H 1.00737 0.18458 0.58631 0.0
H532 H 0.04542 0.95446 0.63372 0.0
H533 H 0.05753 0.92694 0.68011 0.0
H534 H 0.14354 0.94306 0.66645 0.0
H535 H 0.1312 0.96949 0.61902 0.0
Tb536 Tb 0.3134 0.78123 0.85942 0.0
Tb537 Tb 0.30623 0.84056 0.83199 0.0
C538 C 0.31637 0.72595 0.86748 0.0
C539 C 0.33799 0.70809 0.86532 0.0
C540 C 0.36009 0.71814 0.849 0.0
C541 C 0.37877 0.69883 0.8438 0.0
C542 C 0.37584 0.66978 0.85571 0.0
C543 C 0.35522 0.66144 0.87473 0.0
C544 C 0.33621 0.68035 0.87918 0.0
C545 C 0.30468 0.82777 0.90383 0.0
C546 C 0.36756 0.83399 0.8637 0.0
C547 C 0.30359 0.89639 0.8259 0.0
C548 C 0.28186 0.91398 0.8285 0.0
C549 C 0.25895 0.90213 0.84285 0.0
C550 C 0.23938 0.92028 0.84758 0.0
C551 C 0.24197 0.9496 0.83648 0.0
C552 C 0.26395 0.96055 0.8204 0.0
C553 C 0.28402 0.94289 0.8167 0.0
C554 C 0.31351 0.79364 0.78715 0.0
C555 C 0.25279 0.78633 0.825 0.0
O556 O 0.30442 0.73215 0.83858 0.0
O557 O 0.32305 0.75074 0.89266 0.0
O558 O 0.29441 0.81946 0.87253 0.0
O559 O 0.31936 0.80754 0.91177 0.0
O560 O 0.35694 0.80297 0.86151 0.0
O561 O 0.35137 0.8537 0.856 0.0
O562 O 0.31511 0.88922 0.85449 0.0
O563 O 0.29712 0.87226 0.79998 0.0
O564 O 0.32453 0.802 0.81832 0.0
O565 O 0.29923 0.81437 0.77945 0.0
O566 O 0.26247 0.81777 0.82905 0.0
O567 O 0.26928 0.76697 0.83238 0.0
H568 H 0.36238 0.74035 0.8395 0.0
H569 H 0.39455 0.70583 0.82918 0.0
H570 H 0.35309 0.63957 0.88498 0.0
H571 H 0.31968 0.67286 0.89263 0.0
H572 H 0.2564 0.87909 0.85064 0.0
H573 H 0.22238 0.91161 0.85993 0.0
H574 H 0.26609 0.98328 0.81181 0.0
H575 H 0.30138 0.95197 0.80509 0.0
Tb576 Tb 0.53034 0.06705 0.06995 0.0
Tb577 Tb 0.58204 0.06209 0.12194 0.0
C578 C 0.48198 0.04861 0.03195 0.0
C579 C 0.45311 0.03255 0.03381 0.0
C580 C 0.44745 1.00263 0.04413 0.0
C581 C 0.41974 0.98425 0.03855 0.0
C582 C 0.39716 0.99554 0.0228 0.0
C583 C 0.40279 0.02667 0.01531 0.0
C584 C 0.43051 0.04487 0.02052 0.0
C585 C 0.56344 0.12221 0.10246 0.0
C586 C 0.52518 0.06305 0.15005 0.0
C587 C 0.63038 0.07739 0.16015 0.0
C588 C 0.65882 0.09454 0.15794 0.0
C589 C 0.66272 0.12241 0.14383 0.0
C590 C 0.68981 0.14133 0.1466 0.0
C591 C 0.71373 0.13245 0.16285 0.0
C592 C 0.70972 0.10324 0.17479 0.0
C593 C 0.68251 0.08465 0.17262 0.0
C594 C 0.54965 1.00758 0.08493 0.0
C595 C 0.5876 0.06748 0.04219 0.0
O596 O 0.50031 0.031 0.03481 0.0
O597 O 0.49261 0.07851 0.04811 0.0
O598 O 0.55796 0.09639 0.11345 0.0
O599 O 0.54809 0.11779 0.07172 0.0
O600 O 0.51277 0.06232 0.11756 0.0
O601 O 0.55249 0.06263 0.15775 0.0
O602 O 0.61189 0.09485 0.16098 0.0
O603 O 0.61963 0.04893 0.14062 0.0
O604 O 0.55547 0.03485 0.0778 0.0
O605 O 0.56407 1.00969 0.11575 0.0
O606 O 0.60017 0.06828 0.07472 0.0
O607 O 0.56017 0.06746 0.03445 0.0
H608 H 0.46448 0.99255 0.05479 0.0
H609 H 0.41622 0.96049 0.0448 0.0
H610 H 0.38579 0.03654 1.0042 0.0
H611 H 0.43434 0.06792 0.01262 0.0
H612 H 0.64479 0.13032 0.13179 0.0
H613 H 0.69176 0.16364 0.13724 0.0
H614 H 0.72756 0.09499 0.18646 0.0
H615 H 0.67996 0.063 0.18328 0.0
Tb616 Tb 0.28002 0.28493 0.32039 0.0
Tb617 Tb 0.33397 0.33361 0.36006 0.0
C618 C 0.22982 0.25421 0.30461 0.0
C619 C 0.20703 0.26489 0.3179 0.0
C620 C 0.2127 0.28118 0.35193 0.0
C621 C 0.19349 0.29665 0.36374 0.0
C622 C 0.16804 0.29604 0.34191 0.0
C623 C 0.16215 0.27951 0.30786 0.0
C624 C 0.18164 0.26408 0.29588 0.0
C625 C 0.31225 0.31288 0.28331 0.0
C626 C 0.27846 0.3615 0.34921 0.0
C627 C 0.382 0.36851 0.36682 0.0
C628 C 0.40806 0.35792 0.36537 0.0
C629 C 0.41785 0.35716 0.33495 0.0
C630 C 0.43851 0.34106 0.32954 0.0
C631 C 0.45051 0.32624 0.35488 0.0
C632 C 0.44137 0.32753 0.38572 0.0
C633 C 0.42018 0.34326 0.39095 0.0
C634 C 0.30964 0.30351 0.40317 0.0
C635 C 0.33565 0.2571 0.33506 0.0
O636 O 0.24876 0.24718 0.32723 0.0
O637 O 0.2412 0.27245 0.28529 0.0
O638 O 0.30732 0.3253 0.31103 0.0
O639 O 0.29769 0.28312 0.27453 0.0
O640 O 0.26466 0.33076 0.33455 0.0
O641 O 0.30637 0.36835 0.36136 0.0
O642 O 0.36347 0.35986 0.33786 0.0
O643 O 0.37052 0.36389 0.393 0.0
O644 O 0.30155 0.29959 0.3713 0.0
O645 O 0.33213 0.32699 0.41227 0.0
O646 O 0.34963 0.28811 0.3473 0.0
O647 O 0.30753 0.24997 0.32439 0.0
H648 H 0.23259 0.28322 0.3692 0.0
H649 H 0.19901 0.3099 0.38981 0.0
H650 H 0.14262 0.27866 0.29053 0.0
H651 H 0.17732 0.25241 0.26931 0.0
H652 H 0.40851 0.36769 0.31455 0.0
H653 H 0.44485 0.33982 0.30523 0.0
H654 H 0.45056 0.31643 0.40565 0.0
H655 H 0.41276 0.34306 0.4145 0.0
Tb656 Tb 0.55184 0.58962 0.09972 0.0
Tb657 Tb 0.57172 0.53384 0.09146 0.0
C658 C 0.53582 0.64004 0.09485 0.0
C659 C 0.53114 0.65503 0.06547 0.0
C660 C 0.54501 0.64856 0.0389 0.0
C661 C 0.54104 0.66297 0.01083 0.0
C662 C 0.52365 0.68457 0.0094 0.0
C663 C 0.50848 0.68965 0.03505 0.0
C664 C 0.51218 0.67475 0.06307 0.0
C665 C 0.51979 0.54165 0.11937 0.0
C666 C 0.53804 0.54513 0.02673 0.0
C667 C 0.58783 0.48344 0.09539 0.0
C668 C 0.59438 0.46687 0.12318 0.0
C669 C 0.5769 0.46282 0.14668 0.0
C670 C 0.58299 0.44551 0.17205 0.0
C671 C 0.60677 0.43253 0.17432 0.0
C672 C 0.62533 0.43889 0.15239 0.0
C673 C 0.61902 0.45576 0.12675 0.0
C674 C 0.60356 0.58106 0.07052 0.0
C675 C 0.58493 0.57734 0.16439 0.0
O676 O 0.56208 0.63982 0.10642 0.0
O677 O 0.5185 0.61211 0.0917 0.0
O678 O 0.5302 0.53969 0.09309 0.0
O679 O 0.52763 0.57114 0.13553 0.0
O680 O 0.5434 0.57492 0.04385 0.0
O681 O 0.5437 0.5222 0.04241 0.0
O682 O 0.56134 0.48374 0.0856 0.0
O683 O 0.60508 0.5114 0.0983 0.0
O684 O 0.5935 0.58399 0.09717 0.0
O685 O 0.59544 0.55135 0.05516 0.0
O686 O 0.57918 0.54756 0.14717 0.0
O687 O 0.57977 0.60059 0.14892 0.0
H688 H 0.55973 0.63331 0.04036 0.0
H689 H 0.55292 0.65888 0.99126 0.0
H690 H 0.49528 0.70665 0.03452 0.0
H691 H 0.50104 0.67939 0.08328 0.0
H692 H 0.55813 0.47209 0.1448 0.0
H693 H 0.56823 0.4407 0.18849 0.0
H694 H 0.644 0.42947 0.15406 0.0
H695 H 0.63302 0.45953 0.10923 0.0
Tb696 Tb 0.81307 0.27868 0.35103 0.0
Tb697 Tb 0.80595 0.34356 0.33541 0.0
C698 C 0.82491 0.22711 0.36113 0.0
C699 C 0.84619 0.20965 0.35591 0.0
C700 C 0.87026 0.22371 0.34485 0.0
C701 C 0.89001 0.20605 0.33909 0.0
C702 C 0.88612 0.1748 0.34568 0.0
C703 C 0.8626 0.16131 0.35805 0.0
C704 C 0.84256 0.17864 0.3629 0.0
C705 C 0.79678 0.31378 0.3989 0.0
C706 C 0.86628 0.33438 0.35493 0.0
C707 C 0.79558 0.39691 0.33146 0.0
C708 C 0.77327 0.41355 0.33491 0.0
C709 C 0.7669 0.42321 0.36667 0.0
C710 C 0.74683 0.4411 0.36895 0.0
C711 C 0.73375 0.45017 0.33969 0.0
C712 C 0.73946 0.43973 0.30791 0.0
C713 C 0.7591 0.42147 0.30553 0.0
C714 C 0.82052 0.30817 0.28606 0.0
C715 C 0.7533 0.28504 0.32426 0.0
O716 O 0.80772 0.22928 0.33358 0.0
O717 O 0.83401 0.25421 0.38336 0.0
O718 O 0.81335 0.3244 0.38061 0.0
O719 O 0.79051 0.28286 0.39179 0.0
O720 O 0.85522 0.30311 0.34919 0.0
O721 O 0.85092 0.35579 0.35577 0.0
O722 O 0.81022 0.39131 0.3592 0.0
O723 O 0.78902 0.37265 0.30565 0.0
O724 O 0.80529 0.29802 0.30592 0.0
O725 O 0.82569 0.33916 0.29198 0.0
O726 O 0.76302 0.31662 0.33202 0.0
O727 O 0.76965 0.2647 0.32416 0.0
H728 H 0.87354 0.24806 0.34036 0.0
H729 H 0.90815 0.2166 0.32947 0.0
H730 H 0.85939 0.13707 0.36306 0.0
H731 H 0.82418 0.16782 0.37194 0.0
H732 H 0.77807 0.41814 0.38986 0.0
H733 H 0.74293 0.44964 0.39377 0.0
H734 H 0.72969 0.44699 0.28524 0.0
H735 H 0.764 0.41456 0.28088 0.0
Tb736 Tb 0.02889 0.55702 0.56985 0.0
Tb737 Tb 0.08292 0.5651 0.62373 0.0
C738 C 0.98192 0.53059 0.53081 0.0
C739 C 0.95204 0.51733 0.53135 0.0
C740 C 0.9432 0.48633 0.53815 0.0
C741 C 0.91452 0.47165 0.53298 0.0
C742 C 0.89398 0.48761 0.52088 0.0
C743 C 0.90288 0.51927 0.51584 0.0
C744 C 0.9316 0.53389 0.52081 0.0
C745 C 0.0564 0.61663 0.59621 0.0
C746 C 0.02509 0.56196 0.65122 0.0
C747 C 0.1309 0.5878 0.66206 0.0
C748 C 0.15972 0.60288 0.65894 0.0
C749 C 0.16529 0.63185 0.64696 0.0
C750 C 0.19296 0.64835 0.64864 0.0
C751 C 0.21584 0.63608 0.6618 0.0
C752 C 0.21015 0.60617 0.67206 0.0
C753 C 0.18235 0.58984 0.67083 0.0
C754 C 0.05515 0.50572 0.59565 0.0
C755 C 0.08671 0.56199 0.54248 0.0
O756 O 1.00011 0.51485 0.54275 0.0
O757 O 0.99187 0.56193 0.53903 0.0
O758 O 0.05389 0.59276 0.61056 0.0
O759 O 0.04037 0.60766 0.56569 0.0
O760 O 1.01171 0.55522 0.61814 0.0
O761 O 0.05329 0.56731 0.65935 0.0
O762 O 0.11191 0.60434 0.65623 0.0
O763 O 0.12096 0.55705 0.64916 0.0
O764 O 0.05834 0.53021 0.58251 0.0
O765 O 0.06991 0.51418 0.62685 0.0
O766 O 0.10019 0.56834 0.57551 0.0
O767 O 0.05855 0.55634 0.53441 0.0
H768 H 0.95837 0.47275 0.5461 0.0
H769 H 0.90853 0.4472 0.53696 0.0
H770 H 0.88764 0.53255 0.50733 0.0
H771 H 0.93777 0.55774 0.51525 0.0
H772 H 0.14838 0.64251 0.63737 0.0
H773 H 0.19631 0.67146 0.64088 0.0
H774 H 0.22717 0.59562 0.68161 0.0
H775 H 0.17858 0.56743 0.68004 0.0
Tb776 Tb 0.78317 0.82337 0.34169 0.0
Tb777 Tb 0.83675 0.79863 0.34703 0.0
C778 C 0.73646 0.83523 0.34814 0.0
C779 C 0.71583 0.8305 0.37044 0.0
C780 C 0.70681 0.80059 0.37954 0.0
C781 C 0.68458 0.79517 0.39659 0.0
C782 C 0.67136 0.81986 0.40567 0.0
C783 C 0.68131 0.85033 0.39827 0.0
C784 C 0.70321 0.85551 0.38052 0.0
C785 C 0.82693 0.86208 0.32825 0.0
C786 C 0.82278 0.82869 0.41376 0.0
C787 C 0.88278 0.78507 0.3409 0.0
C788 C 0.9031 0.78774 0.31837 0.0
C789 C 0.90723 0.81284 0.30004 0.0
C790 C 0.92992 0.81758 0.28343 0.0
C791 C 0.94859 0.79726 0.28501 0.0
C792 C 0.94315 0.77097 0.30138 0.0
C793 C 0.9206 0.76624 0.31784 0.0
C794 C 0.793 0.76026 0.36063 0.0
C795 C 0.79736 0.79346 0.27474 0.0
O796 O 0.73905 0.80939 0.32879 0.0
O797 O 0.76082 0.85574 0.36126 0.0
O798 O 0.82746 0.84461 0.35029 0.0
O799 O 0.80089 0.86059 0.31479 0.0
O800 O 0.79661 0.82367 0.39614 0.0
O801 O 0.84381 0.8247 0.39888 0.0
O802 O 0.88088 0.81197 0.35887 0.0
O803 O 0.85818 0.76484 0.32866 0.0
O804 O 0.79261 0.77745 0.33834 0.0
O805 O 0.81895 0.76222 0.37481 0.0
O806 O 0.82344 0.7979 0.29243 0.0
O807 O 0.77648 0.79809 0.28964 0.0
H808 H 0.71643 0.78117 0.37271 0.0
H809 H 0.67749 0.77156 0.40237 0.0
H810 H 0.67143 0.86975 0.40503 0.0
H811 H 0.70976 0.87882 0.37384 0.0
H812 H 0.89373 0.82949 0.2998 0.0
H813 H 0.93383 0.83814 0.27115 0.0
H814 H 0.95727 0.75498 0.30289 0.0
H815 H 0.91766 0.74664 0.33163 0.0
Tb816 Tb 0.81579 0.29745 0.81485 0.0
Tb817 Tb 0.79949 0.32603 0.86941 0.0
C818 C 0.83088 0.28073 0.76037 0.0
C819 C 0.83617 0.29575 0.73172 0.0
C820 C 0.82597 0.32279 0.7263 0.0
C821 C 0.82667 0.33349 0.69578 0.0
C822 C 0.83721 0.31693 0.6704 0.0
C823 C 0.84982 0.29185 0.67728 0.0
C824 C 0.84938 0.28135 0.70802 0.0
C825 C 0.84774 0.29155 0.87272 0.0
C826 C 0.8362 0.37471 0.83639 0.0
C827 C 0.78549 0.34255 0.92472 0.0
C828 C 0.78486 0.32771 0.95435 0.0
C829 C 0.79682 0.30139 0.95627 0.0
C830 C 0.80191 0.29097 0.98679 0.0
C831 C 0.79534 0.30699 0.01599 0.0
C832 C 0.78104 0.33157 0.01325 0.0
C833 C 0.77582 0.34196 0.98235 0.0
C834 C 0.76793 0.33363 0.81267 0.0
C835 C 0.77919 0.24832 0.8468 0.0
O836 O 0.80464 0.27445 0.76361 0.0
O837 O 0.84851 0.29385 0.78927 0.0
O838 O 0.83988 0.31653 0.86668 0.0
O839 O 0.83674 0.26902 0.8463 0.0
O840 O 0.82994 0.3492 0.81128 0.0
O841 O 0.82864 0.37066 0.86535 0.0
O842 O 0.81081 0.3523 0.91934 0.0
O843 O 0.76751 0.32648 0.89699 0.0
O844 O 0.77535 0.30796 0.81728 0.0
O845 O 0.7789 0.35521 0.8398 0.0
O846 O 0.78556 0.27366 0.87225 0.0
O847 O 0.78653 0.25285 0.81791 0.0
H848 H 0.8157 0.33413 0.74447 0.0
H849 H 0.81641 0.35258 0.69073 0.0
H850 H 0.85793 0.27882 0.65786 0.0
H851 H 0.85763 0.26068 0.71228 0.0
H852 H 0.8044 0.29054 0.93505 0.0
H853 H 0.81343 0.27237 0.98811 0.0
H854 H 0.77556 0.344 0.0354 0.0
H855 H 0.76641 0.36228 0.98092 0.0
Tb856 Tb 0.77949 0.78518 0.82237 0.0
Tb857 Tb 0.83491 0.83234 0.86092 0.0
C858 C 0.73261 0.74671 0.80877 0.0
C859 C 0.70937 0.75576 0.82249 0.0
C860 C 0.71611 0.77611 0.8547 0.0
C861 C 0.69698 0.79229 0.86538 0.0
C862 C 0.67022 0.78795 0.84458 0.0
C863 C 0.66297 0.76677 0.81271 0.0
C864 C 0.6826 0.75097 0.80158 0.0
C865 C 0.80708 0.81869 0.78502 0.0
C866 C 0.77911 0.86062 0.84817 0.0
C867 C 0.88368 0.86639 0.87273 0.0
C868 C 0.90756 0.8558 0.86212 0.0
C869 C 0.90482 0.84095 0.82806 0.0
C870 C 0.9239 0.82353 0.81933 0.0
C871 C 0.94601 0.82057 0.84445 0.0
C872 C 0.9492 0.83588 0.87838 0.0
C873 C 0.93014 0.85354 0.88715 0.0
C874 C 0.80544 0.80922 0.9047 0.0
C875 C 0.83571 0.75631 0.83519 0.0
O876 O 0.75364 0.74386 0.83168 0.0
O877 O 0.74121 0.76404 0.78713 0.0
O878 O 0.81801 0.80727 0.80949 0.0
O879 O 0.77991 0.8091 0.77905 0.0
O880 O 0.76452 0.8296 0.84125 0.0
O881 O 0.80735 0.86714 0.85334 0.0
O882 O 0.86363 0.86932 0.84831 0.0
O883 O 0.87376 0.85082 0.89498 0.0
O884 O 0.79931 0.80441 0.87281 0.0
O885 O 0.82929 0.83044 0.91371 0.0
O886 O 0.84993 0.78643 0.85083 0.0
O887 O 0.808 0.75061 0.82139 0.0
H888 H 0.73694 0.78126 0.87097 0.0
H889 H 0.7037 0.80915 0.88953 0.0
H890 H 0.64239 0.7628 0.79622 0.0
H891 H 0.67734 0.73616 0.77625 0.0
H892 H 0.88719 0.8414 0.80833 0.0
H893 H 0.92097 0.81171 0.793 0.0
H894 H 0.96635 0.83412 0.89805 0.0
H895 H 0.93218 0.86409 0.9137 0.0
Tb896 Tb 0.53154 0.54169 0.5746 0.0
Tb897 Tb 0.5869 0.57969 0.61998 0.0
C898 C 0.48005 0.52637 0.54964 0.0
C899 C 0.46181 0.54822 0.55691 0.0
C900 C 0.46232 0.56063 0.59115 0.0
C901 C 0.4538 0.58866 0.59974 0.0
C902 C 0.44408 0.60467 0.57436 0.0
C903 C 0.44104 0.5911 0.53991 0.0
C904 C 0.45012 0.56302 0.5312 0.0
C905 C 0.57431 0.55169 0.54394 0.0
C906 C 0.54733 0.61969 0.58973 0.0
C907 C 0.63871 0.59449 0.64185 0.0
C908 C 0.65634 0.57296 0.63151 0.0
C909 C 0.65122 0.55835 0.59692 0.0
C910 C 0.66189 0.53217 0.58704 0.0
C911 C 0.67841 0.52016 0.61132 0.0
C912 C 0.68423 0.53502 0.6459 0.0
C913 C 0.67319 0.56132 0.65596 0.0
C914 C 0.54475 0.5718 0.65144 0.0
C915 C 0.57051 0.50178 0.60475 0.0
O916 O 0.49122 0.51528 0.5757 0.0
O917 O 0.49872 0.53681 0.53222 0.0
O918 O 0.56904 0.57028 0.56734 0.0
O919 O 0.55396 0.52565 0.53555 0.0
O920 O 0.52752 0.59222 0.58242 0.0
O921 O 0.57381 0.62087 0.60369 0.0
O922 O 0.62653 0.60683 0.61741 0.0
O923 O 0.62113 0.58296 0.66012 0.0
O924 O 0.54895 0.55194 0.62804 0.0
O925 O 0.56613 0.59678 0.65972 0.0
O926 O 0.59061 0.52887 0.61105 0.0
O927 O 0.54389 0.50112 0.59262 0.0
H928 H 0.4712 0.55015 0.61175 0.0
H929 H 0.45562 0.59844 0.62648 0.0
H930 H 0.43309 0.60305 0.52005 0.0
H931 H 0.44981 0.55416 0.50468 0.0
H932 H 0.63757 0.56585 0.57743 0.0
H933 H 0.6564 0.52066 0.56032 0.0
H934 H 0.69695 0.52609 0.66505 0.0
H935 H 0.67673 0.57163 0.68284 0.0
Tb936 Tb 0.08969 0.56459 0.08403 0.0
Tb937 Tb 0.03239 0.55418 0.10911 0.0
C938 C 0.13897 0.5639 0.07745 0.0
C939 C 0.15932 0.54379 0.08402 0.0
C940 C 0.16931 0.53897 0.11696 0.0
C941 C 0.18975 0.5214 0.12267 0.0
C942 C 0.2006 0.50823 0.09554 0.0
C943 C 0.18994 0.5121 0.06239 0.0
C944 C 0.16959 0.52984 0.05673 0.0
C945 C 0.0468 0.57145 0.03535 0.0
C946 C 0.0515 0.49366 0.07878 0.0
C947 C 0.98205 0.55343 0.11179 0.0
C948 C 0.96167 0.57362 0.10656 0.0
C949 C 0.95772 0.58818 0.07794 0.0
C950 C 0.93704 0.60584 0.07349 0.0
C951 C 0.92 0.60929 0.09759 0.0
C952 C 0.92475 0.59524 0.12655 0.0
C953 C 0.94534 0.5778 0.13097 0.0
C954 C 0.0741 0.54741 0.15904 0.0
C955 C 0.07207 0.62493 0.11742 0.0
O956 O 0.13331 0.58108 0.10383 0.0
O957 O 0.11644 0.55035 0.0534 0.0
O958 O 0.04668 0.56433 0.06458 0.0
O959 O 0.07304 0.57576 0.03335 0.0
O960 O 0.07657 0.51274 0.08051 0.0
O961 O 0.02979 0.5047 0.08586 0.0
O962 O 0.98947 0.53946 0.08491 0.0
O963 O 1.0033 0.56496 0.13793 0.0
O964 O 0.0758 0.55403 0.12959 0.0
O965 O 0.04759 0.54363 0.1597 0.0
O966 O 0.04683 0.60643 0.11631 0.0
O967 O 0.09314 0.61367 0.10859 0.0
H968 H 0.16183 0.54926 0.13846 0.0
H969 H 0.19736 0.51846 0.14843 0.0
H970 H 0.19807 0.50242 0.04103 0.0
H971 H 0.16225 0.5332 0.03106 0.0
H972 H 0.97033 0.58563 0.05889 0.0
H973 H 0.93433 0.61663 0.05112 0.0
H974 H 0.91189 0.59665 0.14544 0.0
H975 H 0.9481 0.56691 0.1533 0.0
C976 C 1.01676 0.18674 0.06679 0.0
C977 C 0.03371 0.20101 0.04609 0.0
H978 H 1.00915 0.14953 0.09627 0.0
C979 C 0.05781 0.18998 0.04177 0.0
H980 H 0.99812 0.19484 0.07063 0.0
C981 C 0.06483 0.16527 0.05767 0.0
C982 C 0.04725 0.14988 0.07708 0.0
H983 H 0.07134 0.20058 0.0261 0.0
H984 H 0.08352 0.15735 0.05362 0.0
C985 C 0.0231 0.16089 0.08149 0.0
C986 C 0.20207 0.86004 0.28256 0.0
C987 C 0.19135 0.84213 0.24935 0.0
H988 H 0.23462 0.87137 0.32747 0.0
C989 C 0.20617 0.82022 0.23632 0.0
H990 H 0.19116 0.87687 0.29352 0.0
C991 C 0.23115 0.81639 0.25628 0.0
C992 C 0.24205 0.83492 0.28932 0.0
H993 H 0.1982 0.80567 0.21093 0.0
H994 H 0.24211 0.79941 0.24575 0.0
C995 C 0.22711 0.85677 0.30204 0.0
C996 C 0.51066 0.90881 0.53849 0.0
C997 C 0.53278 0.89327 0.54354 0.0
H998 H 0.49788 0.95311 0.54776 0.0
C999 C 0.55863 0.90994 0.56512 0.0
H1000 H 0.49075 0.89644 0.52127 0.0
C1001 C 0.56292 0.94242 0.57972 0.0
C1002 C 0.54135 0.95863 0.57307 0.0
H1003 H 0.57608 0.8985 0.56879 0.0
H1004 H 0.58355 0.95524 0.59493 0.0
C1005 C 0.51479 0.9412 0.5535 0.0
C1006 C 0.5199 0.33522 0.77162 0.0
C1007 C 0.52597 0.31136 0.74865 0.0
H1008 H 0.4899 0.34854 0.79969 0.0
C1009 C 0.50526 0.28271 0.73448 0.0
H1010 H 0.5358 0.35726 0.78325 0.0
C1011 C 0.47914 0.2775 0.74413 0.0
C1012 C 0.47328 0.301 0.76791 0.0
H1013 H 0.50968 0.26386 0.71698 0.0
H1014 H 0.46378 0.25482 0.73364 0.0
C1015 C 0.49369 0.33021 0.78096 0.0
C1016 C 0.09617 0.88533 0.74641 0.0
C1017 C 0.1066 0.85936 0.73352 0.0
H1018 H 0.08654 0.92992 0.73823 0.0
C1019 C 0.11942 0.86059 0.70546 0.0
H1020 H 0.08613 0.88472 0.76804 0.0
C1021 C 0.11973 0.88619 0.68866 0.0
C1022 C 0.10711 0.91087 0.69961 0.0
H1023 H 0.12773 0.84083 0.69526 0.0
H1024 H 0.12789 0.8853 0.66555 0.0
C1025 C 0.09627 0.91097 0.72934 0.0
C1026 C 0.44348 0.83284 0.88433 0.0
C1027 C 0.45639 0.85976 0.87236 0.0
H1028 H 0.40549 0.8044 0.89191 0.0
C1029 C 0.43995 0.87938 0.8587 0.0
H1030 H 0.45556 0.8172 0.89506 0.0
C1031 C 0.41087 0.87198 0.85704 0.0
C1032 C 0.39817 0.84481 0.86884 0.0
H1033 H 0.44954 0.90044 0.84965 0.0
H1034 H 0.39833 0.88695 0.84585 0.0
C1035 C 0.41475 0.82553 0.88269 0.0
C1036 C 0.54095 0.18205 0.15933 0.0
C1037 C 0.5618 0.18583 0.18876 0.0
H1038 H 0.52568 0.15889 0.10691 0.0
C1039 C 0.58653 0.1756 0.1863 0.0
H1040 H 0.52214 0.19075 0.16062 0.0
C1041 C 0.58924 0.1591 0.15544 0.0
C1042 C 0.56697 0.15175 0.12698 0.0
H1043 H 0.60357 0.17978 0.20844 0.0
H1044 H 0.60779 0.14995 0.15451 0.0
C1045 C 0.54339 0.16473 0.12851 0.0
C1046 C 0.12647 0.3288 0.40199 0.0
C1047 C 0.11228 0.347 0.38253 0.0
H1048 H 0.15402 0.29716 0.40368 0.0
C1049 C 0.11583 0.34787 0.34913 0.0
H1050 H 0.12341 0.32694 0.42748 0.0
C1051 C 0.13389 0.33117 0.33561 0.0
C1052 C 0.14808 0.31291 0.35515 0.0
H1053 H 0.10476 0.36151 0.33363 0.0
H1054 H 0.13698 0.33284 0.31011 0.0
C1055 C 0.14393 0.31165 0.38831 0.0
C1056 C 0.02778 0.06396 0.23534 0.0
C1057 C 1.00474 0.03694 0.22465 0.0
H1058 H 0.05946 0.09761 0.22032 0.0
C1059 C 0.99556 0.02331 0.18988 0.0
H1060 H 0.03498 0.07512 0.2621 0.0
C1061 C 1.00978 0.03577 0.16622 0.0
C1062 C 0.03281 0.06276 0.17669 0.0
H1063 H 0.97784 1.00248 0.1811 0.0
H1064 H 1.00303 0.02384 0.13978 0.0
C1065 C 0.04151 0.07705 0.21146 0.0
C1066 C 0.32248 0.76721 0.57767 0.0
C1067 C 0.33956 0.79467 0.6007 0.0
H1068 H 0.29015 0.74886 0.53269 0.0
C1069 C 0.3343 0.8249 0.59888 0.0
H1070 H 0.32525 0.74336 0.57976 0.0
C1071 C 0.3143 0.82807 0.57165 0.0
C1072 C 0.29911 0.80086 0.54668 0.0
H1073 H 0.34664 0.8461 0.61728 0.0
H1074 H 0.3125 0.85204 0.56868 0.0
C1075 C 0.30203 0.77022 0.55122 0.0
C1076 C 0.63856 0.03004 0.71878 0.0
C1077 C 0.63221 0.03559 0.75172 0.0
H1078 H 0.62594 0.02941 0.66447 0.0
C1079 C 0.60785 0.04709 0.75358 0.0
H1080 H 0.65692 1.02103 0.71571 0.0
C1081 C 0.59061 0.0525 0.72436 0.0
C1082 C 0.5965 0.0467 0.69136 0.0
H1083 H 0.60195 0.05205 0.77795 0.0
H1084 H 0.57213 0.06116 0.72777 0.0
C1085 C 0.62093 0.03527 0.68916 0.0
C1086 C 0.31698 0.35091 1.00327 0.0
C1087 C 0.33892 0.37883 0.0146 0.0
H1088 H 0.29502 0.31247 0.96119 0.0
C1089 C 0.35823 0.38713 0.99409 0.0
H1090 H 0.30185 0.3443 0.01884 0.0
C1091 C 0.35493 0.36847 0.96183 0.0
C1092 C 0.33172 0.34197 0.94935 0.0
H1093 H 0.37529 0.40867 1.00258 0.0
H1094 H 0.36933 0.37614 0.94576 0.0
C1095 C 0.31311 0.33282 0.9705 0.0
C1096 C 0.0279 1.00351 0.43354 0.0
C1097 C 1.01433 0.02288 0.41518 0.0
H1098 H 0.04599 0.99579 0.48224 0.0
C1099 C 1.0095 0.05108 0.43292 0.0
H1100 H 0.03194 0.98169 0.42065 0.0
C1101 C 1.01789 0.05947 0.46855 0.0
C1102 C 0.03063 0.03937 0.48681 0.0
H1103 H 0.99922 0.06659 0.41931 0.0
H1104 H 1.01393 0.08119 0.48177 0.0
C1105 C 0.03576 1.01152 0.46892 0.0
C1106 C 0.36981 0.80059 0.73923 0.0
C1107 C 0.38354 0.77802 0.75165 0.0
H1108 H 0.33476 0.82204 0.73899 0.0
C1109 C 0.36938 0.7556 0.76834 0.0
H1110 H 0.38036 0.81849 0.72675 0.0
C1111 C 0.34265 0.75674 0.77378 0.0
C1112 C 0.33063 0.78161 0.76492 0.0
H1113 H 0.37925 0.73792 0.7783 0.0
H1114 H 0.3327 0.74043 0.78827 0.0
C1115 C 0.34341 0.80224 0.7456 0.0
C1116 C 0.63558 0.04105 0.97959 0.0
C1117 C 0.63146 0.05925 0.95354 0.0
H1118 H 0.62593 0.02926 0.02731 0.0
C1119 C 0.61337 0.08039 0.95863 0.0
H1120 H 0.64875 0.02414 0.97751 0.0
C1121 C 0.59996 0.08294 0.98683 0.0
C1122 C 0.60405 0.0652 0.01287 0.0
H1123 H 0.60902 0.09534 0.94023 0.0
H1124 H 0.58624 0.09931 0.98825 0.0
C1125 C 0.62237 0.04415 1.00861 0.0
C1126 C 0.33611 0.38417 0.2425 0.0
C1127 C 0.33647 0.36896 0.20951 0.0
H1128 H 0.32788 0.37838 0.29154 0.0
C1129 C 0.33052 0.33513 0.20174 0.0
H1130 H 0.34033 0.41016 0.24923 0.0
C1131 C 0.32372 0.3169 0.22616 0.0
C1132 C 0.32256 0.33209 0.25879 0.0
H1133 H 0.33057 0.32266 0.17653 0.0
H1134 H 0.31865 0.29087 0.21921 0.0
C1135 C 0.32909 0.36593 0.26682 0.0
C1136 C 0.16991 0.93015 0.06222 0.0
C1137 C 0.19802 0.93059 0.06144 0.0
H1138 H 0.14152 0.95757 0.0772 0.0
C1139 C 0.21973 0.95699 0.07987 0.0
H1140 H 0.153 0.91 0.04781 0.0
C1141 C 0.2133 0.98343 0.09791 0.0
C1142 C 0.18512 0.98388 0.09701 0.0
H1143 H 0.24162 0.95751 0.07953 0.0
H1144 H 0.23016 1.00418 0.11096 0.0
C1145 C 0.16343 0.9571 0.07934 0.0
C1146 C 0.66447 0.6538 0.0765 0.0
C1147 C 0.68073 0.64035 0.05567 0.0
H1148 H 0.62744 0.64558 0.09817 0.0
C1149 C 0.67099 0.60787 0.0396 0.0
H1150 H 0.67158 0.67872 0.08957 0.0
C1151 C 0.64571 0.58927 0.04404 0.0
C1152 C 0.62964 0.60232 0.06534 0.0
H1153 H 0.683 0.59672 0.02354 0.0
H1154 H 0.63906 0.56426 0.03118 0.0
C1155 C 0.63928 0.63486 0.08157 0.0
C1156 C 0.68156 0.4963 0.36313 0.0
C1157 C 0.69267 0.52589 0.35453 0.0
H1158 H 0.68643 0.4485 0.36529 0.0
C1159 C 0.71622 0.52964 0.33952 0.0
H1160 H 0.66336 0.49301 0.37476 0.0
C1161 C 0.72888 0.50432 0.33372 0.0
C1162 C 0.71833 0.47513 0.34318 0.0
H1163 H 0.72502 0.5522 0.33253 0.0
H1164 H 0.74747 0.50785 0.32278 0.0
C1165 C 0.6946 0.47102 0.3578 0.0
C1166 C 0.81691 0.45893 0.47451 0.0
C1167 C 0.8058 0.4378 0.49449 0.0
H1168 H 0.85352 0.49071 0.46673 0.0
C1169 C 0.82391 0.43302 0.52311 0.0
H1170 H 0.80352 0.46302 0.45229 0.0
C1171 C 0.85234 0.4494 0.53189 0.0
C1172 C 0.86352 0.47069 0.51203 0.0
H1173 H 0.816 0.4173 0.53946 0.0
H1174 H 0.86542 0.44575 0.5546 0.0
C1175 C 0.8455 0.47505 0.48306 0.0
C1176 C 0.35304 0.17127 0.31562 0.0
C1177 C 0.38222 0.17611 0.33044 0.0
H1178 H 0.31625 0.19086 0.30515 0.0
C1179 C 0.39574 0.20861 0.34662 0.0
H1180 H 0.34111 0.14731 0.30268 0.0
C1181 C 0.3812 0.23425 0.3479 0.0
C1182 C 0.35194 0.22931 0.33327 0.0
H1183 H 0.41794 0.21446 0.35859 0.0
H1184 H 0.39312 0.25822 0.3608 0.0
C1185 C 0.33847 0.19681 0.31707 0.0
C1186 C 0.36376 0.15649 0.61603 0.0
C1187 C 0.34473 0.14738 0.58438 0.0
H1188 H 0.40344 0.1547 0.6452 0.0
C1189 C 0.35222 0.13046 0.55653 0.0
H1190 H 0.35842 0.16982 0.63778 0.0
C1191 C 0.37766 0.12078 0.56093 0.0
C1192 C 0.39618 0.12831 0.59319 0.0
H1193 H 0.33768 0.12308 0.53194 0.0
H1194 H 0.38198 0.10586 0.53952 0.0
C1195 C 0.3894 0.14753 0.62027 0.0
C1196 C 0.71731 0.71749 0.35513 0.0
C1197 C 0.71973 0.70185 0.38304 0.0
H1198 H 0.73877 0.74733 0.32558 0.0
C1199 C 0.74655 0.70552 0.40361 0.0
H1200 H 0.69703 0.71443 0.33827 0.0
C1201 C 0.77045 0.72484 0.39657 0.0
C1202 C 0.76792 0.74029 0.36853 0.0
H1203 H 0.74907 0.69319 0.42486 0.0
H1204 H 0.7909 0.72741 0.41284 0.0
C1205 C 0.74122 0.73621 0.34774 0.0
C1206 C 0.86789 0.46735 0.85068 0.0
C1207 C 0.8804 0.47065 0.82226 0.0
H1208 H 0.84494 0.4353 0.8779 0.0
C1209 C 0.87706 0.4421 0.79822 0.0
H1210 H 0.87038 0.48828 0.8703 0.0
C1211 C 0.86232 0.41168 0.8024 0.0
C1212 C 0.85071 0.40803 0.83136 0.0
H1213 H 0.88653 0.44317 0.77617 0.0
H1214 H 0.86074 0.39073 0.78318 0.0
C1215 C 0.85352 0.43664 0.85525 0.0
C1216 C 0.06201 0.9232 0.13938 0.0
C1217 C 0.08934 0.91803 0.14388 0.0
H1218 H 0.03467 0.95269 0.12252 0.0
C1219 C 0.11054 0.93965 0.13431 0.0
H1220 H 0.04535 0.9071 0.1469 0.0
C1221 C 0.10465 0.96649 0.12151 0.0
C1222 C 0.07726 0.9715 0.1165 0.0
H1223 H 0.1319 0.93652 0.13803 0.0
H1224 H 0.12157 0.9837 0.11596 0.0
C1225 C 0.05591 0.94928 0.12528 0.0
C1226 C 0.91029 0.262 0.91397 0.0
C1227 C 0.9308 0.29099 0.92714 0.0
H1228 H 0.86783 0.23955 0.88633 0.0
C1229 C 0.92268 0.32018 0.92586 0.0
H1230 H 0.91597 0.23919 0.91412 0.0
C1231 C 0.89512 0.32049 0.91043 0.0
C1232 C 0.87506 0.29157 0.89518 0.0
H1233 H 0.93809 0.34294 0.9357 0.0
H1234 H 0.89004 0.34342 0.90872 0.0
C1235 C 0.88277 0.2623 0.89794 0.0
C1236 C 0.61628 0.21034 0.65499 0.0
C1237 C 0.59501 0.22724 0.65157 0.0
H1238 H 0.62702 0.16502 0.64469 0.0
C1239 C 0.56808 0.21139 0.632 0.0
H1240 H 0.6372 0.22214 0.67012 0.0
C1241 C 0.56201 0.17842 0.61818 0.0
C1242 C 0.58297 0.1611 0.62313 0.0
H1243 H 0.55129 0.22389 0.62935 0.0
H1244 H 0.54069 0.16627 0.60459 0.0
C1245 C 0.61044 0.17767 0.64049 0.0
C1246 C 0.59803 0.78382 0.41783 0.0
C1247 C 0.59838 0.8004 0.45051 0.0
H1248 H 0.62113 0.77672 0.37836 0.0
C1249 C 0.62304 0.82357 0.4684 0.0
H1250 H 0.57938 0.7659 0.40339 0.0
C1251 C 0.64668 0.83021 0.45374 0.0
C1252 C 0.64636 0.81327 0.42128 0.0
H1253 H 0.62395 0.83689 0.49356 0.0
H1254 H 0.66533 0.84829 0.46789 0.0
C1255 C 0.62189 0.78994 0.40353 0.0
C1256 C 1.00649 0.24457 0.45092 0.0
C1257 C 0.03321 0.26469 0.45346 0.0
H1258 H 0.98316 0.2046 0.46802 0.0
C1259 C 0.05736 0.25814 0.47162 0.0
H1260 H 0.98765 0.24976 0.43733 0.0
C1261 C 0.05488 0.23243 0.4883 0.0
C1262 C 0.02816 0.21331 0.48754 0.0
H1263 H 0.0781 0.27366 0.47394 0.0
H1264 H 0.07375 0.22865 0.5035 0.0
C1265 C 1.00392 0.21906 0.46842 0.0
C1266 C 0.67958 0.25098 0.27556 0.0
C1267 C 0.66453 0.25779 0.301 0.0
H1268 H 0.72032 0.25436 0.26351 0.0
C1269 C 0.67905 0.27034 0.33485 0.0
H1270 H 0.66885 0.2414 0.2492 0.0
C1271 C 0.70836 0.27786 0.34273 0.0
C1272 C 0.72316 0.27249 0.31693 0.0
H1273 H 0.6679 0.27573 0.35485 0.0
H1274 H 0.7195 0.28879 0.36867 0.0
C1275 C 0.70887 0.25825 0.28358 0.0
C1276 C 0.54133 0.96415 0.99599 0.0
C1277 C 0.54836 0.93547 1.00084 0.0
H1278 H 0.5361 1.00847 0.01814 0.0
C1279 C 0.55222 0.92809 0.03377 0.0
H1280 H 0.53772 0.97031 0.97093 0.0
C1281 C 0.55071 0.95049 0.06186 0.0
C1282 C 0.54485 0.97995 0.05683 0.0
H1283 H 0.55733 0.90567 0.03792 0.0
H1284 H 0.55535 0.94546 0.08731 0.0
C1285 C 0.53952 0.98586 0.02343 0.0
C1286 C 0.995 0.7644 0.84311 0.0
C1287 C 1.00717 0.77188 0.81569 0.0
H1288 H 0.96569 0.77437 0.87403 0.0
C1289 C 0.99825 0.7943 0.79735 0.0
H1290 H 1.0016 0.74723 0.85762 0.0
C1291 C 0.9782 0.8097 0.80672 0.0
C1292 C 0.96652 0.803 0.83456 0.0
H1293 H 1.00711 0.80051 0.77595 0.0
H1294 H 0.97231 0.82747 0.79261 0.0
C1295 C 0.97478 0.78006 0.85263 0.0
C1296 C 0.09377 0.10257 0.98061 0.0
C1297 C 0.11026 0.08644 0.96303 0.0
H1298 H 0.0696 0.10278 0.01918 0.0
C1299 C 0.11523 0.05741 0.97159 0.0
H1300 H 0.08933 0.12473 0.97443 0.0
C1301 C 0.10396 0.04489 0.99743 0.0
C1302 C 0.08787 0.06142 0.01513 0.0
H1303 H 0.12784 0.04437 0.95836 0.0
H1304 H 0.10806 0.02266 1.00382 0.0
C1305 C 0.08266 0.09013 1.00636 0.0
C1306 C 0.81554 0.35494 0.59678 0.0
C1307 C 0.79427 0.32902 0.57628 0.0
H1308 H 0.84632 0.37136 0.6438 0.0
C1309 C 0.79188 0.29811 0.58344 0.0
H1310 H 0.81761 0.37911 0.59176 0.0
C1311 C 0.80896 0.29361 0.6125 0.0
C1312 C 0.82794 0.32014 0.63509 0.0
H1313 H 0.77565 0.27791 0.56786 0.0
H1314 H 0.80525 0.26997 0.6191 0.0
C1315 C 0.83204 0.35061 0.6264 0.0
C1316 C 0.49553 0.04261 0.44762 0.0
C1317 C 0.49021 0.07153 0.43861 0.0
H1318 H 0.51619 1.01913 0.48416 0.0
C1319 C 0.50064 0.0995 0.46454 0.0
H1320 H 0.48822 1.02035 0.42892 0.0
C1321 C 0.51701 0.09859 0.49707 0.0
C1322 C 0.52305 0.06963 0.5052 0.0
H1323 H 0.49772 0.12243 0.45907 0.0
H1324 H 0.52624 0.12096 0.51523 0.0
C1325 C 0.51152 0.04172 0.47982 0.0
C1326 C 0.80689 0.75927 0.18727 0.0
C1327 C 0.77885 0.74464 0.17069 0.0
H1328 H 0.83489 0.78628 0.23369 0.0
C1329 C 0.75691 0.74951 0.18685 0.0
H1330 H 0.82409 0.75543 0.17525 0.0
C1331 C 0.76293 0.76744 0.21996 0.0
C1332 C 0.79106 0.78009 0.23776 0.0
H1333 H 0.73513 0.73831 0.17434 0.0
H1334 H 0.74554 0.76972 0.23224 0.0
C1335 C 0.813 0.77671 0.22072 0.0
C1336 C 0.10275 0.06373 0.75304 0.0
C1337 C 0.11574 0.09529 0.77042 0.0
H1338 H 0.08339 0.03273 0.70466 0.0
C1339 C 0.11828 0.12057 0.75251 0.0
H1340 H 0.10112 0.04391 0.7666 0.0
C1341 C 0.10787 0.11439 0.71736 0.0
C1342 C 0.09556 0.08267 0.69957 0.0
H1343 H 0.12848 0.14503 0.7657 0.0
H1344 H 0.11002 0.13436 0.70406 0.0
C1345 C 0.09296 0.05738 0.71771 0.0
C1346 C 0.74505 0.32285 0.45277 0.0
C1347 C 0.73011 0.34218 0.4359 0.0
H1348 H 0.77933 0.29999 0.45483 0.0
C1349 C 0.74166 0.35808 0.41198 0.0
H1350 H 0.73686 0.31029 0.47142 0.0
C1351 C 0.76624 0.35231 0.40286 0.0
C1352 C 0.77941 0.33048 0.41717 0.0
H1353 H 0.73069 0.37316 0.39852 0.0
H1354 H 0.77289 0.36198 0.38197 0.0
C1355 C 0.76956 0.31717 0.44353 0.0
C1356 C 0.50574 0.07353 0.24072 0.0
C1357 C 0.47745 0.07673 0.23453 0.0
H1358 H 0.54224 0.06658 0.22073 0.0
C1359 C 0.46508 0.07465 0.19969 0.0
H1360 H 0.51656 0.07473 0.26665 0.0
C1361 C 0.48008 0.06992 0.17286 0.0
C1362 C 0.50838 0.0667 0.17905 0.0
H1363 H 0.44359 0.07697 0.19298 0.0
H1364 H 0.46934 0.06903 0.14697 0.0
C1365 C 0.52069 0.06864 0.2139 0.0
C1366 C 0.7897 0.78499 0.98614 0.0
C1367 C 0.77791 0.75167 0.97585 0.0
H1368 H 0.80745 0.82907 0.9715 0.0
C1369 C 0.77318 0.73774 0.94104 0.0
H1370 H 0.79391 0.79651 0.01275 0.0
C1371 C 0.78066 0.75666 0.91727 0.0
C1372 C 0.79307 0.78979 0.92787 0.0
H1373 H 0.76436 0.71211 0.93229 0.0
H1374 H 0.77821 0.74502 0.8911 0.0
C1375 C 0.7974 0.80371 0.9625 0.0
C1376 C 0.9196 0.17319 0.10842 0.0
C1377 C 0.90028 0.16049 0.1273 0.0
H1378 H 0.9462 0.16204 0.07425 0.0
C1379 C 0.88827 0.12733 0.12091 0.0
H1380 H 0.92894 0.19883 0.11298 0.0
C1381 C 0.89713 0.1067 0.09786 0.0
C1382 C 0.91851 0.11901 0.08164 0.0
H1383 H 0.87302 0.11724 0.13493 0.0
H1384 H 0.88939 0.08095 0.09537 0.0
C1385 C 0.92909 0.15237 0.08598 0.0
C1386 C 0.44902 0.48106 0.09543 0.0
C1387 C 0.43771 0.48854 0.12422 0.0
H1388 H 0.48429 0.49155 0.07145 0.0
C1389 C 0.45483 0.51056 0.15285 0.0
H1390 H 0.4359 0.46461 0.07278 0.0
C1391 C 0.48238 0.52622 0.15199 0.0
C1392 C 0.49321 0.52018 0.12245 0.0
H1393 H 0.44633 0.51718 0.175 0.0
H1394 H 0.49469 0.54436 0.1738 0.0
C1395 C 0.47664 0.49654 0.09463 0.0
C1396 C 0.43527 0.63269 0.83602 0.0
C1397 C 0.42062 0.60028 0.82443 0.0
H1398 H 0.4324 0.68061 0.85516 0.0
C1399 C 0.39153 0.59124 0.82294 0.0
H1400 H 0.45777 0.64013 0.83741 0.0
C1401 C 0.3773 0.614 0.83323 0.0
C1402 C 0.39179 0.64634 0.84522 0.0
H1403 H 0.37973 0.56639 0.81441 0.0
H1404 H 0.35478 0.60623 0.83157 0.0
C1405 C 0.42084 0.65572 0.84612 0.0
C1406 C 0.29306 0.67709 0.70111 0.0
C1407 C 0.2992 0.69797 0.67874 0.0
H1408 H 0.26162 0.64156 0.71381 0.0
C1409 C 0.27868 0.69656 0.64954 0.0
H1410 H 0.30866 0.67761 0.72363 0.0
C1411 C 0.25223 0.67535 0.64324 0.0
C1412 C 0.2453 0.65552 0.66644 0.0
H1413 H 0.28312 0.71182 0.63131 0.0
H1414 H 0.23711 0.67482 0.62028 0.0
C1415 C 0.26621 0.65625 0.6952 0.0
C1416 C 0.72497 0.91463 0.86462 0.0
C1417 C 0.73472 0.94336 0.85254 0.0
H1418 H 0.73008 0.86749 0.873 0.0
C1419 C 0.75943 0.94382 0.83904 0.0
H1420 H 0.70643 0.91235 0.87558 0.0
C1421 C 0.77342 0.91778 0.83794 0.0
C1422 C 0.76361 0.88902 0.8498 0.0
H1423 H 0.76811 0.96456 0.82892 0.0
H1424 H 0.79201 0.92011 0.82706 0.0
C1425 C 0.73879 0.88836 0.86309 0.0
C1426 C 0.74898 0.94777 0.58926 0.0
C1427 C 0.77218 0.96299 0.61615 0.0
H1428 H 0.70839 0.94944 0.56178 0.0
C1429 C 0.77159 0.99171 0.63697 0.0
H1430 H 0.74901 0.92573 0.57262 0.0
C1431 C 0.7483 1.00506 0.63104 0.0
C1432 C 0.72526 0.99027 0.60378 0.0
H1433 H 0.78919 1.0039 0.65788 0.0
H1434 H 0.74868 0.02748 0.64729 0.0
C1435 C 0.72584 0.96144 0.58293 0.0
C1436 C 0.37224 0.42705 0.79586 0.0
C1437 C 0.39951 0.42343 0.80799 0.0
H1438 H 0.32781 0.40987 0.79242 0.0
C1439 C 0.40279 0.39959 0.82718 0.0
H1440 H 0.36919 0.44568 0.78153 0.0
C1441 C 0.37924 0.38018 0.83469 0.0
C1442 C 0.35194 0.38316 0.82184 0.0
H1443 H 0.42362 0.39683 0.83756 0.0
H1444 H 0.38244 0.36295 0.85071 0.0
C1445 C 0.34861 0.40672 0.80225 0.0
C1446 C 0.24913 0.65536 0.33014 0.0
C1447 C 0.23606 0.65059 0.35783 0.0
H1448 H 0.27238 0.68886 0.30474 0.0
C1449 C 0.23837 0.67842 0.38247 0.0
H1450 H 0.24715 0.63509 0.30991 0.0
C1451 C 0.253 0.70954 0.37963 0.0
C1452 C 0.2653 0.71452 0.35139 0.0
H1453 H 0.22802 0.67625 0.40369 0.0
H1454 H 0.25383 0.72994 0.39917 0.0
C1455 C 0.26335 0.68658 0.32695 0.0
C1456 C 0.51297 0.67071 0.53459 0.0
C1457 C 0.53009 0.70192 0.54792 0.0
H1458 H 0.50447 0.62075 0.53779 0.0
C1459 C 0.55205 0.70616 0.57669 0.0
H1460 H 0.496 0.66644 0.5124 0.0
C1461 C 0.55728 0.67974 0.59097 0.0
C1462 C 0.54024 0.64849 0.57743 0.0
H1463 H 0.56583 0.72978 0.58751 0.0
H1464 H 0.57492 0.68373 0.61234 0.0
C1465 C 0.51776 0.64448 0.54935 0.0
C1466 C 0.70244 0.36247 0.78177 0.0
C1467 C 0.69041 0.34211 0.75004 0.0
H1468 H 0.73618 0.3761 0.8256 0.0
C1469 C 0.70398 0.31822 0.73863 0.0
H1470 H 0.69247 0.38092 0.79139 0.0
C1471 C 0.72899 0.31472 0.75883 0.0
C1472 C 0.74121 0.3356 0.79039 0.0
H1473 H 0.69492 0.30179 0.71444 0.0
H1474 H 0.73883 0.296 0.74969 0.0
C1475 C 0.7276 0.35958 0.80137 0.0
C1476 C 0.01996 0.40304 0.05333 0.0
C1477 C 0.04111 0.39309 0.03861 0.0
H1478 H 1.00636 0.44309 0.0774 0.0
C1479 C 0.06624 0.41568 0.04002 0.0
H1480 H 1.00017 0.38605 0.05196 0.0
C1481 C 0.06984 0.44791 0.05444 0.0
C1482 C 0.04816 0.45859 0.06736 0.0
H1483 H 0.08271 0.4086 0.02852 0.0
H1484 H 0.08928 0.46463 0.05395 0.0
C1485 C 0.02339 0.43569 0.06747 0.0
C1486 C 1.00487 0.81186 0.23223 0.0
C1487 C 0.02963 0.81761 0.25768 0.0
H1488 H 0.95931 0.80074 0.22087 0.0
C1489 C 0.02715 0.81861 0.29179 0.0
H1490 H 1.00605 0.81072 0.20569 0.0
C1491 C 1.00077 0.81278 0.30023 0.0
C1492 C 0.97606 0.8059 0.27491 0.0
H1493 H 0.04568 0.82331 0.31214 0.0
H1494 H 0.99965 0.81316 0.32672 0.0
C1495 C 0.97819 0.80609 0.24083 0.0
C1496 C 0.61157 0.35301 0.19656 0.0
C1497 C 0.60437 0.3559 0.22856 0.0
H1498 H 0.61798 0.37523 0.15441 0.0
C1499 C 0.60138 0.3856 0.2448 0.0
H1500 H 0.6142 0.33039 0.18367 0.0
C1501 C 0.60374 0.41157 0.22803 0.0
C1502 C 0.60941 0.40801 0.19514 0.0
H1503 H 0.59584 0.38828 0.26956 0.0
H1504 H 0.60013 0.43396 0.24013 0.0
C1505 C 0.61408 0.37883 0.18 0.0
C1506 C 0.9421 0.33239 0.37236 0.0
C1507 C 0.95551 0.3626 0.36694 0.0
H1508 H 0.90377 0.30063 0.37407 0.0
C1509 C 0.93917 0.38357 0.35637 0.0
H1510 H 0.95397 0.31552 0.38051 0.0
C1511 C 0.90982 0.3747 0.35247 0.0
C1512 C 0.89683 0.34485 0.35909 0.0
H1513 H 0.94904 0.40697 0.35205 0.0
H1514 H 0.89739 0.39107 0.34438 0.0
C1515 C 0.91319 0.32374 0.36869 0.0
C1516 C 0.03393 0.67618 0.65315 0.0
C1517 C 0.05844 0.68611 0.67892 0.0
H1518 H 1.01433 0.646 0.60435 0.0
C1519 C 0.08382 0.67985 0.6725 0.0
H1520 H 1.01435 0.68156 0.65763 0.0
C1521 C 0.08414 0.66119 0.64162 0.0
C1522 C 0.05899 0.64776 0.61746 0.0
H1523 H 0.10318 0.68846 0.69184 0.0
H1524 H 0.10352 0.655 0.63782 0.0
C1525 C 0.03413 0.65669 0.62249 0.0
C1526 C 0.63219 0.82932 0.90345 0.0
C1527 C 0.61413 0.84126 0.88079 0.0
H1528 H 0.66262 0.80155 0.90948 0.0
C1529 C 0.61443 0.83573 0.84593 0.0
H1530 H 0.6319 0.83255 0.93038 0.0
C1531 C 0.63272 0.81847 0.83391 0.0
C1532 C 0.65043 0.80594 0.85657 0.0
H1533 H 0.60044 0.84455 0.82802 0.0
H1534 H 0.63304 0.81506 0.80701 0.0
C1535 C 0.64982 0.81148 0.89141 0.0
C1536 C 0.52226 0.56495 0.73463 0.0
C1537 C 0.50048 0.53671 0.72494 0.0
H1538 H 0.55258 0.59908 0.71849 0.0
C1539 C 0.49226 0.52104 0.69069 0.0
H1540 H 0.52873 0.57753 0.76098 0.0
C1541 C 0.50644 0.5328 0.6666 0.0
C1542 C 0.5281 0.5612 0.67613 0.0
H1543 H 0.47553 0.49918 0.68279 0.0
H1544 H 0.50077 0.51935 0.64069 0.0
C1545 C 0.53567 0.57741 0.7103 0.0
C1546 C 0.84335 0.32404 0.10233 0.0
C1547 C 0.84764 0.29329 0.10367 0.0
H1548 H 0.82274 0.35265 0.07272 0.0
C1549 C 0.83046 0.26661 0.07957 0.0
H1550 H 0.85567 0.3447 0.12149 0.0
C1551 C 0.81071 0.27077 0.05304 0.0
C1552 C 0.80847 0.30183 0.04942 0.0
H1553 H 0.83232 0.24234 0.08111 0.0
H1554 H 0.79845 0.24987 0.03413 0.0
C1555 C 0.82405 0.32838 0.07498 0.0
C1556 C 0.10318 0.52646 0.24552 0.0
C1557 C 0.13281 0.53502 0.2502 0.0
H1558 H 0.06267 0.52304 0.2143 0.0
C1559 C 0.14354 0.5475 0.2233 0.0
H1560 H 0.09362 0.51693 0.26508 0.0
C1561 C 0.12529 0.55151 0.19348 0.0
C1562 C 0.09558 0.54267 0.18903 0.0
H1563 H 0.16614 0.55489 0.2256 0.0
H1564 H 0.13439 0.56236 0.17444 0.0
C1565 C 0.08521 0.53005 0.21589 0.0
C1566 C 0.85847 0.88041 0.49975 0.0
C1567 C 0.83641 0.87624 0.51727 0.0
H1568 H 0.87163 0.86777 0.45308 0.0
C1569 C 0.811 0.85352 0.50217 0.0
H1570 H 0.87809 0.89825 0.51101 0.0
C1571 C 0.80707 0.8365 0.4689 0.0
C1572 C 0.82865 0.84183 0.45059 0.0
H1573 H 0.79368 0.85035 0.5153 0.0
H1574 H 0.78678 0.82018 0.45701 0.0
C1575 C 0.85476 0.86301 0.46673 0.0
C1576 C 0.52324 0.50106 0.93559 0.0
C1577 C 0.5134 0.52309 0.91758 0.0
H1578 H 0.53817 0.49052 0.9841 0.0
C1579 C 0.51164 0.55272 0.93569 0.0
H1580 H 0.5246 0.47796 0.92233 0.0
C1581 C 0.51966 0.56012 0.97131 0.0
C1582 C 0.52902 0.53774 0.98928 0.0
H1583 H 0.50416 0.57018 0.92234 0.0
H1584 H 0.51832 0.58317 0.98471 0.0
C1585 C 0.53077 0.50819 0.97104 0.0
C1586 C 0.86737 0.25259 0.27092 0.0
C1587 C 0.88673 0.27133 0.25603 0.0
H1588 H 0.82905 0.24808 0.28904 0.0
C1589 C 0.88107 0.29944 0.24618 0.0
H1590 H 0.87084 0.23054 0.27814 0.0
C1591 C 0.8575 0.30952 0.25292 0.0
C1592 C 0.83933 0.29193 0.27005 0.0
H1593 H 0.89556 0.31449 0.23463 0.0
H1594 H 0.85461 0.33228 0.24677 0.0
C1595 C 0.84335 0.26242 0.27699 0.0
C1596 C 0.10801 0.57177 0.45597 0.0
C1597 C 0.12998 0.55552 0.45341 0.0
H1598 H 0.07807 0.58634 0.48386 0.0
C1599 C 0.13815 0.54162 0.48203 0.0
H1600 H 0.10041 0.58317 0.43544 0.0
C1601 C 0.12511 0.54428 0.5112 0.0
C1602 C 0.10296 0.56047 0.513 0.0
H1603 H 0.15462 0.52872 0.48204 0.0
H1604 H 0.13198 0.5329 0.53208 0.0
C1605 C 0.09484 0.57381 0.48435 0.0
C1606 C 0.82311 0.88754 0.73963 0.0
C1607 C 0.83969 0.87662 0.71785 0.0
H1608 H 0.79954 0.87716 0.77783 0.0
C1609 C 0.84826 0.84808 0.72129 0.0
H1610 H 0.81585 0.90918 0.73724 0.0
C1611 C 0.83974 0.83036 0.74554 0.0
C1612 C 0.82183 0.84047 0.76582 0.0
H1613 H 0.86094 0.8391 0.70468 0.0
H1614 H 0.84566 0.80782 0.74693 0.0
C1615 C 0.81384 0.86931 0.76291 0.0
C1616 C 0.70605 0.46278 0.55535 0.0
C1617 C 0.70254 0.43578 0.57078 0.0
H1618 H 0.7024 0.51102 0.55709 0.0
C1619 C 0.69334 0.43739 0.60166 0.0
H1620 H 0.71376 0.46243 0.53193 0.0
C1621 C 0.68639 0.4654 0.61597 0.0
C1622 C 0.68902 0.492 0.59966 0.0
H1623 H 0.69076 0.41683 0.6141 0.0
H1624 H 0.67802 0.46584 0.63892 0.0
C1625 C 0.69964 0.49065 0.5698 0.0
C1626 C 0.17067 0.10694 0.53798 0.0
C1627 C 0.18048 0.13905 0.55529 0.0
H1628 H 0.13886 0.06307 0.52859 0.0
C1629 C 0.16462 0.1516 0.57726 0.0
H1630 H 0.18243 0.09655 0.52102 0.0
C1631 C 0.13973 0.13208 0.58226 0.0
C1632 C 0.13003 0.0999 0.56485 0.0
H1633 H 0.17188 0.17618 0.59132 0.0
H1634 H 0.12822 0.14205 0.59982 0.0
C1635 C 0.14564 0.08777 0.54238 0.0
C1636 C 0.21264 1.01099 0.88372 0.0
C1637 C 0.19484 1.01838 0.85676 0.0
H1638 H 0.24101 0.98189 0.89813 0.0
C1639 C 0.19021 1.00054 0.82357 0.0
H1640 H 0.2162 0.0244 0.90952 0.0
C1641 C 0.20472 0.97684 0.81704 0.0
C1642 C 0.22325 0.9703 0.84383 0.0
H1643 H 0.17657 1.00605 0.80247 0.0
H1644 H 0.20224 0.96438 0.79105 0.0
C1645 C 0.22656 0.98671 0.87731 0.0
C1646 C 0.32353 0.95567 0.97024 0.0
C1647 C 0.31234 0.93567 0.99116 0.0
H1648 H 0.3591 0.98963 0.96348 0.0
C1649 C 0.32972 0.93409 0.02198 0.0
H1650 H 0.31077 0.95715 0.94623 0.0
C1651 C 0.35731 0.95331 0.03232 0.0
C1652 C 0.36815 0.97428 0.01191 0.0
H1653 H 0.32166 0.91903 0.03884 0.0
H1654 H 0.36981 0.95244 0.05673 0.0
C1655 C 0.35113 0.97459 0.98039 0.0
C1656 C 0.895 0.70712 0.84674 0.0
C1657 C 0.88153 0.67491 0.82964 0.0
H1658 H 0.89246 0.75653 0.86192 0.0
C1659 C 0.85254 0.67037 0.81402 0.0
H1660 H 0.91706 0.71272 0.85928 0.0
C1661 C 0.8381 0.69603 0.81559 0.0
C1662 C 0.85154 0.72821 0.83287 0.0
H1663 H 0.84071 0.64661 0.80035 0.0
H1664 H 0.81603 0.69042 0.80306 0.0
C1665 C 0.88058 0.73278 0.84827 0.0
C1666 C 0.86308 0.65181 0.11606 0.0
C1667 C 0.84557 0.64668 0.08364 0.0
H1668 H 0.90106 0.64601 0.1457 0.0
C1669 C 0.85439 0.63293 0.05508 0.0
H1670 H 0.85683 0.66274 0.13843 0.0
C1671 C 0.87938 0.62219 0.05927 0.0
C1672 C 0.89619 0.62553 0.09209 0.0
H1673 H 0.84111 0.62863 0.02983 0.0
H1674 H 0.88459 0.60966 0.03699 0.0
C1675 C 0.8883 0.64189 0.12019 0.0
C1676 C 0.21639 0.21607 0.85279 0.0
C1677 C 0.21906 0.19964 0.88003 0.0
H1678 H 0.23775 0.24695 0.82403 0.0
C1679 C 0.24576 0.20391 0.90109 0.0
H1680 H 0.19614 0.21259 0.83571 0.0
C1681 C 0.26949 0.224 0.89472 0.0
C1682 C 0.26692 0.23961 0.86684 0.0
H1683 H 0.24834 0.19123 0.92205 0.0
H1684 H 0.28991 0.22681 0.91119 0.0
C1685 C 0.2402 0.23559 0.84601 0.0
C1686 C 0.36882 0.9673 0.35045 0.0
C1687 C 0.3802 0.97082 0.32124 0.0
H1688 H 0.34707 0.93506 0.37847 0.0
C1689 C 0.37598 0.94237 0.29667 0.0
H1690 H 0.37204 0.98809 0.37051 0.0
C1691 C 0.36157 0.91186 0.30112 0.0
C1692 C 0.35114 0.90799 0.33084 0.0
H1693 H 0.38458 0.94357 0.274 0.0
H1694 H 0.3593 0.89103 0.28145 0.0
C1695 C 0.35473 0.93652 0.35522 0.0
C1696 C 0.60018 0.42875 0.61736 0.0
C1697 C 0.5899 0.42054 0.64597 0.0
H1698 H 0.60273 0.46152 0.58218 0.0
C1699 C 0.57312 0.43913 0.66015 0.0
H1700 H 0.61322 0.41502 0.60588 0.0
C1701 C 0.56653 0.46492 0.64604 0.0
C1702 C 0.57712 0.47344 0.61791 0.0
H1703 H 0.56477 0.43355 0.68208 0.0
H1704 H 0.55349 0.47867 0.65756 0.0
C1705 C 0.59422 0.45532 0.60379 0.0
C1706 C 0.42309 0.82229 0.42779 0.0
C1707 C 0.43168 0.79341 0.42931 0.0
H1708 H 0.38996 0.8447 0.41025 0.0
C1709 C 0.41158 0.76411 0.4162 0.0
H1710 H 0.43823 0.84527 0.4375 0.0
C1711 C 0.38395 0.7638 0.40004 0.0
C1712 C 0.37575 0.79276 0.39704 0.0
H1713 H 0.41767 0.74153 0.41648 0.0
H1714 H 0.36932 0.74083 0.38849 0.0
C1715 C 0.39542 0.822 0.41219 0.0
C1716 C 0.06797 0.7027 0.1698 0.0
C1717 C 0.08698 0.72563 0.1588 0.0
H1718 H 0.04815 0.65296 0.16492 0.0
C1719 C 0.10041 0.71562 0.13285 0.0
H1720 H 0.05771 0.70996 0.19014 0.0
C1721 C 0.0956 0.68273 0.11903 0.0
C1722 C 0.07678 0.65974 0.13047 0.0
H1723 H 0.11554 0.73298 0.12448 0.0
H1724 H 0.10669 0.67529 0.09967 0.0
C1725 C 0.06261 0.67014 0.15545 0.0
C1726 C 0.09703 0.28626 0.91592 0.0
C1727 C 0.09823 0.29768 0.95061 0.0
H1728 H 0.1197 0.28389 0.87543 0.0
C1729 C 0.12424 0.31595 0.9713 0.0
H1730 H 0.07738 0.27225 0.89925 0.0
C1731 C 0.14836 0.32274 0.95752 0.0
C1732 C 0.14699 0.31117 0.92293 0.0
H1733 H 0.12592 0.32524 0.99809 0.0
H1734 H 0.16808 0.33703 0.97383 0.0
C1735 C 0.12119 0.29286 0.90226 0.0
C1736 C 0.55704 0.74942 0.9684 0.0
C1737 C 0.53342 0.75719 0.95054 0.0
H1738 H 0.57215 0.71982 1.00091 0.0
C1739 C 0.5062 0.73856 0.94865 0.0
H1740 H 0.57816 0.76379 0.97025 0.0
C1741 C 0.50267 0.71348 0.96664 0.0
C1742 C 0.5264 0.70672 0.98576 0.0
H1743 H 0.48776 0.74473 0.9353 0.0
H1744 H 0.48157 0.70025 0.96673 0.0
C1745 C 0.55358 0.72425 0.98574 0.0
C1746 C 0.17788 0.76976 0.83373 0.0
C1747 C 0.16398 0.75634 0.79979 0.0
H1748 H 0.21788 0.79002 0.86826 0.0
C1749 C 0.17975 0.74993 0.77503 0.0
H1750 H 0.16619 0.77495 0.8532 0.0
C1751 C 0.20903 0.75847 0.78371 0.0
C1752 C 0.22266 0.77343 0.81708 0.0
H1753 H 0.16954 0.73968 0.74863 0.0
H1754 H 0.22098 0.75472 0.76412 0.0
C1755 C 0.20723 0.77845 0.8423 0.0
C1756 C 0.02889 0.43634 0.52402 0.0
C1757 C 0.05332 0.43836 0.51063 0.0
H1758 H 1.0104 0.45657 0.56347 0.0
C1759 C 0.07922 0.45738 0.52996 0.0
H1760 H 1.00874 0.42147 0.50933 0.0
C1761 C 0.08039 0.47574 0.56165 0.0
C1762 C 0.05551 0.47617 0.57362 0.0
H1763 H 0.0983 0.45878 0.52012 0.0
H1764 H 0.10022 0.49226 0.57506 0.0
C1765 C 0.02989 0.45569 0.55519 0.0
C1766 C 0.51482 0.31167 0.32558 0.0
C1767 C 0.51451 0.28026 0.33077 0.0
H1768 H 0.49527 0.35085 0.33004 0.0
C1769 C 0.49404 0.26457 0.34652 0.0
H1770 H 0.53057 0.32472 0.31399 0.0
C1771 C 0.47342 0.2798 0.35559 0.0
C1772 C 0.47332 0.31073 0.34898 0.0
H1773 H 0.49349 0.2404 0.35087 0.0
H1774 H 0.4571 0.26708 0.36662 0.0
C1775 C 0.49457 0.32673 0.33471 0.0
C1776 C 0.60713 0.55786 0.46721 0.0
C1777 C 0.6131 0.59136 0.46852 0.0
H1778 H 0.58977 0.51876 0.49018 0.0
C1779 C 0.60797 0.6115 0.49584 0.0
H1780 H 0.61093 0.54179 0.44629 0.0
C1781 C 0.59673 0.59842 0.52122 0.0
C1782 C 0.58963 0.56485 0.51926 0.0
H1783 H 0.61259 0.63735 0.49756 0.0
H1784 H 0.59264 0.61467 0.54174 0.0
C1785 C 0.59513 0.54465 0.49223 0.0
C1786 C 0.30354 0.86234 0.10861 0.0
C1787 C 0.28891 0.83538 0.08337 0.0
H1788 H 0.33205 0.87956 0.1569 0.0
C1789 C 0.2956 0.8057 0.08404 0.0
H1790 H 0.29923 0.88576 0.10767 0.0
C1791 C 0.31407 0.80201 0.11246 0.0
C1792 C 0.32613 0.82821 0.13983 0.0
H1793 H 0.28482 0.7849 0.06422 0.0
H1794 H 0.31647 0.77804 0.11446 0.0
C1795 C 0.32253 0.85891 0.13642 0.0
C1796 C 0.98823 0.5461 0.95368 0.0
C1797 C 0.98918 0.57482 0.9406 0.0
H1798 H 1.00417 0.52255 0.99358 0.0
C1799 C 1.00673 0.60327 0.96204 0.0
H1800 H 0.97573 0.52342 0.93796 0.0
C1801 C 0.0237 0.60255 0.99407 0.0
C1802 C 0.02324 0.57361 1.00659 0.0
H1803 H 1.00899 0.62576 0.953 0.0
H1804 H 0.03834 0.62462 1.00841 0.0
C1805 C 1.00459 0.54554 0.98595 0.0
C1806 C 0.30364 0.26434 0.68475 0.0
C1807 C 0.27625 0.24536 0.67058 0.0
H1808 H 0.33169 0.2951 0.72937 0.0
C1809 C 0.25489 0.2465 0.68889 0.0
H1810 H 0.32044 0.26361 0.67103 0.0
C1811 C 0.26108 0.26488 0.72176 0.0
C1812 C 0.28895 0.28172 0.73725 0.0
H1813 H 0.2336 0.23205 0.67828 0.0
H1814 H 0.24435 0.26406 0.7358 0.0
C1815 C 0.31005 0.28216 0.7181 0.0
C1816 C 0.59813 0.56771 0.25641 0.0
C1817 C 0.6122 0.59929 0.2729 0.0
H1818 H 0.57908 0.53565 0.20844 0.0
C1819 C 0.61695 0.62348 0.25382 0.0
H1820 H 0.59489 0.54863 0.27084 0.0
C1821 C 0.60777 0.61627 0.2185 0.0
C1822 C 0.59448 0.58452 0.20167 0.0
H1823 H 0.62815 0.64788 0.26623 0.0
H1824 H 0.6117 0.63544 0.20432 0.0
C1825 C 0.58955 0.56026 0.22085 0.0
C1826 C 0.24646 0.86265 0.92076 0.0
C1827 C 0.23238 0.83954 0.93667 0.0
H1828 H 0.28375 0.87978 0.90262 0.0
C1829 C 0.24646 0.81719 0.94897 0.0
H1830 H 0.23625 0.88014 0.91089 0.0
C1831 C 0.27333 0.81668 0.94345 0.0
C1832 C 0.28628 0.83828 0.92516 0.0
H1833 H 0.23597 0.79869 0.96083 0.0
H1834 H 0.28239 0.79713 0.95001 0.0
C1835 C 0.27364 0.86265 0.91618 0.0
C1836 C 1.00692 0.58322 0.74141 0.0
C1837 C 0.97698 0.57563 0.73516 0.0
H1838 H 0.0449 0.58528 0.7216 0.0
C1839 C 0.96316 0.56295 0.70051 0.0
H1840 H 0.01892 0.59309 0.76719 0.0
C1841 C 0.97834 0.55827 0.67385 0.0
C1842 C 1.00831 0.56589 0.68014 0.0
H1843 H 0.94033 0.55643 0.69382 0.0
H1844 H 0.96636 0.54854 0.64804 0.0
C1845 C 0.02207 0.57855 0.71481 0.0
C1846 C 0.29874 0.27937 0.48625 0.0
C1847 C 0.27982 0.24898 0.47562 0.0
H1848 H 0.32287 0.31997 0.47164 0.0
C1849 C 0.26943 0.23691 0.44041 0.0
H1850 H 0.30746 0.28917 0.51311 0.0
C1851 C 0.27806 0.25497 0.41638 0.0
C1852 C 0.29751 0.28506 0.42725 0.0
H1853 H 0.25486 0.21349 0.43149 0.0
H1854 H 0.27029 0.24494 0.38949 0.0
C1855 C 0.30761 0.29702 0.46241 0.0
C1856 C 0.40063 0.66075 0.5993 0.0
C1857 C 0.42066 0.68247 0.62592 0.0
H1858 H 0.39286 0.61826 0.56088 0.0
C1859 C 0.44928 0.68293 0.62968 0.0
H1860 H 0.37838 0.66024 0.59638 0.0
C1861 C 0.45757 0.65959 0.60902 0.0
C1862 C 0.43713 0.6353 0.58517 0.0
H1863 H 0.46487 0.69979 0.6501 0.0
H1864 H 0.47953 0.65856 0.61396 0.0
C1865 C 0.40886 0.63703 0.57893 0.0
C1866 C 0.94856 0.98398 0.59272 0.0
C1867 C 0.93793 0.99037 0.62227 0.0
H1868 H 0.98307 0.99555 0.56781 0.0
C1869 C 0.95546 1.01173 0.65112 0.0
H1870 H 0.93514 0.96793 0.56998 0.0
C1871 C 0.9827 0.02795 0.64971 0.0
C1872 C 0.99282 0.02289 0.61951 0.0
H1873 H 0.94748 1.01742 0.67391 0.0
H1874 H 0.99536 0.04563 0.67171 0.0
C1875 C 0.9759 0.99982 0.59145 0.0
C1876 C 0.93502 0.12051 0.35598 0.0
C1877 C 0.93244 0.10631 0.32179 0.0
H1878 H 0.92169 0.15386 0.3904 0.0
C1879 C 0.91753 0.11775 0.29554 0.0
H1880 H 0.94624 0.1117 0.37655 0.0
C1881 C 0.90425 0.14234 0.30347 0.0
C1882 C 0.90528 0.15494 0.33766 0.0
H1883 H 0.91545 0.10702 0.26903 0.0
H1884 H 0.89176 0.15009 0.28305 0.0
C1885 C 0.92113 0.14449 0.3639 0.0
C1886 C 0.78919 0.17878 0.20524 0.0
C1887 C 0.79538 0.19922 0.18249 0.0
H1888 H 0.75837 0.14244 0.21758 0.0
C1889 C 0.7752 0.19675 0.15263 0.0
H1890 H 0.80453 0.1801 0.22829 0.0
C1891 C 0.74922 0.17437 0.14568 0.0
C1892 C 0.74242 0.15444 0.16889 0.0
H1893 H 0.77973 0.21166 0.13413 0.0
H1894 H 0.73455 0.1727 0.12197 0.0
C1895 C 0.76284 0.1569 0.19875 0.0
C1896 C 0.21945 0.41131 0.33736 0.0
C1897 C 0.23365 0.44385 0.35267 0.0
H1898 H 0.22107 0.36123 0.32402 0.0
C1899 C 0.26279 0.4482 0.36722 0.0
H1900 H 0.19723 0.40585 0.32558 0.0
C1901 C 0.27669 0.42212 0.36645 0.0
C1902 C 0.26259 0.3896 0.35097 0.0
H1903 H 0.27518 0.47216 0.3795 0.0
H1904 H 0.29894 0.4277 0.37811 0.0
C1905 C 0.2334 0.38518 0.33647 0.0
C1906 C 0.24671 0.44874 0.08797 0.0
C1907 C 0.2707 0.46428 0.11373 0.0
H1908 H 0.20573 0.45066 0.06171 0.0
C1909 C 0.27111 0.4938 0.13384 0.0
H1910 H 0.24589 0.42602 0.07194 0.0
C1911 C 0.24805 0.50758 0.12832 0.0
C1912 C 0.22427 0.49243 0.10219 0.0
H1913 H 0.2893 0.50629 0.15387 0.0
H1914 H 0.24911 0.53055 0.14402 0.0
C1915 C 0.22381 0.46286 0.082 0.0
C1916 C 0.87227 0.92148 0.28867 0.0
C1917 C 0.89957 0.92221 0.30603 0.0
H1918 H 0.82784 0.90114 0.28152 0.0
C1919 C 0.90287 0.90268 0.33035 0.0
H1920 H 0.86921 0.93663 0.27007 0.0
C1921 C 0.87922 0.88344 0.33787 0.0
C1922 C 0.85192 0.88239 0.32028 0.0
H1923 H 0.92367 0.90343 0.34469 0.0
H1924 H 0.88232 0.86991 0.35792 0.0
C1925 C 0.84866 0.90137 0.29537 0.0
C1926 C 0.74159 0.17723 0.88377 0.0
C1927 C 0.73676 0.15012 0.85728 0.0
H1928 H 0.75867 0.2284 0.90192 0.0
C1929 C 0.74692 0.15577 0.82779 0.0
H1930 H 0.73335 0.17444 0.90645 0.0
C1931 C 0.76089 0.18711 0.82475 0.0
C1932 C 0.7653 0.21438 0.85102 0.0
H1933 H 0.7428 0.13614 0.80619 0.0
H1934 H 0.76764 0.19004 0.8012 0.0
C1935 C 0.75585 0.20853 0.88093 0.0
loop_
_geom_bond_atom_site_label_1
_geom_bond_atom_site_label_2
_geom_bond_distance
_geom_bond_site_symmetry_2
_ccdc_geom_bond_type
C0 O1 1.306 . S
C0 O3 1.160 . S
O1 C0 1.306 . S
O1 Cd2 2.228 1_655 S
Cd2 O1 2.228 1_455 S
Cd2 O6 2.273 . S
Cd2 O10 2.277 . S
O3 C0 1.160 . S
O3 Cd4 2.203 1_655 S
Cd4 O3 2.203 1_455 S
Cd4 O6 2.411 . S
Cd4 O7 2.333 . S
Cd4 O8 2.352 1_455 S
Cd4 O12 2.277 . S
Cd4 O13 2.356 . S
C5 O10 1.209 . S
C5 O12 1.226 . S
O6 Cd2 2.273 . S
O6 Cd4 2.411 . S
O6 C9 1.320 . S
O7 Cd4 2.333 . S
O7 C9 1.214 . S
O8 Cd4 2.352 1_655 S
O8 C11 1.258 1_655 S
C9 O6 1.320 . S
C9 O7 1.214 . S
O10 Cd2 2.277 . S
O10 C5 1.209 . S
C11 O8 1.258 1_455 S
C11 O13 1.282 . S
O12 Cd4 2.277 . S
O12 C5 1.226 . S
O13 Cd4 2.356 . S
O13 C11 1.282 . S
C14 O15 1.306 . S
C14 O17 1.160 . S
O15 C14 1.306 . S
O15 Cd16 2.228 . S
Cd16 O15 2.228 . S
Cd16 O20 2.273 . S
Cd16 O24 2.277 . S
O17 C14 1.160 . S
O17 Cd18 2.203 . S
Cd18 O17 2.203 . S
Cd18 O20 2.411 . S
Cd18 O21 2.333 . S
Cd18 O22 2.352 . S
Cd18 O26 2.277 . S
Cd18 O27 2.356 . S
C19 O24 1.209 . S
C19 O26 1.226 . S
O20 Cd16 2.273 . S
O20 Cd18 2.411 . S
O20 C23 1.320 . S
O21 Cd18 2.333 . S
O21 C23 1.214 . S
O22 Cd18 2.352 . S
O22 C25 1.258 . S
C23 O20 1.320 . S
C23 O21 1.214 . S
O24 Cd16 2.277 . S
O24 C19 1.209 . S
C25 O22 1.258 . S
C25 O27 1.282 . S
O26 Cd18 2.277 . S
O26 C19 1.226 . S
O27 Cd18 2.356 . S
O27 C25 1.282 . S
C28 O29 1.306 . S
C28 O31 1.160 . S
O29 C28 1.306 . S
O29 Cd30 2.228 . S
Cd30 O29 2.228 . S
Cd30 O34 2.273 . S
Cd30 O38 2.277 . S
O31 C28 1.160 . S
O31 Cd32 2.203 . S
Cd32 O31 2.203 . S
Cd32 O34 2.411 . S
Cd32 O35 2.333 . S
Cd32 O36 2.352 . S
Cd32 O40 2.277 . S
Cd32 O41 2.356 . S
C33 O38 1.209 . S
C33 O40 1.226 . S
O34 Cd30 2.273 . S
O34 Cd32 2.411 . S
O34 C37 1.320 . S
O35 Cd32 2.333 . S
O35 C37 1.214 . S
O36 Cd32 2.352 . S
O36 C39 1.258 . S
C37 O34 1.320 . S
C37 O35 1.214 . S
O38 Cd30 2.277 . S
O38 C33 1.209 . S
C39 O36 1.258 . S
C39 O41 1.282 . S
O40 Cd32 2.277 . S
O40 C33 1.226 . S
O41 Cd32 2.356 . S
O41 C39 1.282 . S
C42 O43 1.306 . S
C42 O45 1.160 . S
O43 C42 1.306 . S
O43 Cd44 2.228 . S
Cd44 O43 2.228 . S
Cd44 O48 2.273 . S
Cd44 O52 2.277 . S
O45 C42 1.160 . S
O45 Cd46 2.203 . S
Cd46 O45 2.203 . S
Cd46 O48 2.411 . S
Cd46 O49 2.333 . S
Cd46 O50 2.352 . S
Cd46 O54 2.277 . S
Cd46 O55 2.356 . S
C47 O52 1.209 . S
C47 O54 1.226 . S
O48 Cd44 2.273 . S
O48 Cd46 2.411 . S
O48 C51 1.320 . S
O49 Cd46 2.333 . S
O49 C51 1.214 . S
O50 Cd46 2.352 . S
O50 C53 1.258 . S
C51 O48 1.320 . S
C51 O49 1.214 . S
O52 Cd44 2.277 . S
O52 C47 1.209 . S
C53 O50 1.258 . S
C53 O55 1.282 . S
O54 Cd46 2.277 . S
O54 C47 1.226 . S
O55 Cd46 2.356 . S
O55 C53 1.282 . S
C56 O57 1.306 . S
C56 O59 1.160 . S
O57 C56 1.306 . S
O57 Cd58 2.228 . S
Cd58 O57 2.228 . S
Cd58 O62 2.273 . S
Cd58 O66 2.277 . S
O59 C56 1.160 . S
O59 Cd60 2.203 . S
Cd60 O59 2.203 . S
Cd60 O62 2.411 . S
Cd60 O63 2.333 . S
Cd60 O64 2.352 . S
Cd60 O68 2.277 . S
Cd60 O69 2.356 . S
C61 O66 1.209 . S
C61 O68 1.226 . S
O62 Cd58 2.273 . S
O62 Cd60 2.411 . S
O62 C65 1.320 . S
O63 Cd60 2.333 . S
O63 C65 1.214 . S
O64 Cd60 2.352 . S
O64 C67 1.258 . S
C65 O62 1.320 . S
C65 O63 1.214 . S
O66 Cd58 2.277 . S
O66 C61 1.209 . S
C67 O64 1.258 . S
C67 O69 1.282 . S
O68 Cd60 2.277 . S
O68 C61 1.226 . S
O69 Cd60 2.356 . S
O69 C67 1.282 . S
C70 O71 1.306 . S
C70 O73 1.160 . S
O71 C70 1.306 . S
O71 Cd72 2.228 . S
Cd72 O71 2.228 . S
Cd72 O76 2.273 . S
Cd72 O80 2.277 . S
O73 C70 1.160 . S
O73 Cd74 2.203 . S
Cd74 O73 2.203 . S
Cd74 O76 2.411 . S
Cd74 O77 2.333 . S
Cd74 O78 2.352 . S
Cd74 O82 2.277 . S
Cd74 O83 2.356 . S
C75 O80 1.209 . S
C75 O82 1.226 . S
O76 Cd72 2.273 . S
O76 Cd74 2.411 . S
O76 C79 1.320 . S
O77 Cd74 2.333 . S
O77 C79 1.214 . S
O78 Cd74 2.352 . S
O78 C81 1.258 . S
C79 O76 1.320 . S
C79 O77 1.214 . S
O80 Cd72 2.277 . S
O80 C75 1.209 . S
C81 O78 1.258 . S
C81 O83 1.282 . S
O82 Cd74 2.277 . S
O82 C75 1.226 . S
O83 Cd74 2.356 . S
O83 C81 1.282 . S
C84 O85 1.306 . S
C84 O87 1.160 . S
O85 C84 1.306 . S
O85 Cd86 2.228 . S
Cd86 O85 2.228 . S
Cd86 O90 2.273 . S
Cd86 O94 2.277 . S
O87 C84 1.160 . S
O87 Cd88 2.203 . S
Cd88 O87 2.203 . S
Cd88 O90 2.411 . S
Cd88 O91 2.333 . S
Cd88 O92 2.352 . S
Cd88 O96 2.277 . S
Cd88 O97 2.356 . S
C89 O94 1.209 . S
C89 O96 1.226 . S
O90 Cd86 2.273 . S
O90 Cd88 2.411 . S
O90 C93 1.320 . S
O91 Cd88 2.333 . S
O91 C93 1.214 . S
O92 Cd88 2.352 . S
O92 C95 1.258 . S
C93 O90 1.320 . S
C93 O91 1.214 . S
O94 Cd86 2.277 . S
O94 C89 1.209 . S
C95 O92 1.258 . S
C95 O97 1.282 . S
O96 Cd88 2.277 . S
O96 C89 1.226 . S
O97 Cd88 2.356 . S
O97 C95 1.282 . S
C98 O99 1.306 . S
C98 O101 1.160 . S
O99 C98 1.306 . S
O99 Cd100 2.228 1_655 S
Cd100 O99 2.228 1_455 S
Cd100 O104 2.273 . S
Cd100 O108 2.277 . S
O101 C98 1.160 . S
O101 Cd102 2.203 1_655 S
Cd102 O101 2.203 1_455 S
Cd102 O104 2.411 . S
Cd102 O105 2.333 . S
Cd102 O106 2.352 . S
Cd102 O110 2.277 1_556 S
Cd102 O111 2.356 1_556 S
C103 O108 1.209 1_554 S
C103 O110 1.226 . S
O104 Cd100 2.273 . S
O104 Cd102 2.411 . S
O104 C107 1.320 . S
O105 Cd102 2.333 . S
O105 C107 1.214 . S
O106 Cd102 2.352 . S
O106 C109 1.258 1_556 S
C107 O104 1.320 . S
C107 O105 1.214 . S
O108 Cd100 2.277 . S
O108 C103 1.209 1_556 S
C109 O106 1.258 1_554 S
C109 O111 1.282 . S
O110 Cd102 2.277 1_554 S
O110 C103 1.226 . S
O111 Cd102 2.356 1_554 S
O111 C109 1.282 . S
C112 O113 1.306 . S
C112 O115 1.160 . S
O113 C112 1.306 . S
O113 Cd114 2.228 . S
Cd114 O113 2.228 . S
Cd114 O118 2.273 . S
Cd114 O122 2.277 1_545 S
O115 C112 1.160 . S
O115 Cd116 2.203 . S
Cd116 O115 2.203 . S
Cd116 O118 2.411 . S
Cd116 O119 2.333 . S
Cd116 O120 2.352 . S
Cd116 O124 2.277 1_545 S
Cd116 O125 2.356 . S
C117 O122 1.209 . S
C117 O124 1.226 . S
O118 Cd114 2.273 . S
O118 Cd116 2.411 . S
O118 C121 1.320 . S
O119 Cd116 2.333 . S
O119 C121 1.214 . S
O120 Cd116 2.352 . S
O120 C123 1.258 . S
C121 O118 1.320 . S
C121 O119 1.214 . S
O122 Cd114 2.277 1_565 S
O122 C117 1.209 . S
C123 O120 1.258 . S
C123 O125 1.282 . S
O124 Cd116 2.277 1_565 S
O124 C117 1.226 . S
O125 Cd116 2.356 . S
O125 C123 1.282 . S
C126 O127 1.306 . S
C126 O129 1.160 . S
O127 C126 1.306 . S
O127 Cd128 2.228 . S
Cd128 O127 2.228 . S
Cd128 O132 2.273 . S
Cd128 O136 2.277 . S
O129 C126 1.160 . S
O129 Cd130 2.203 . S
Cd130 O129 2.203 . S
Cd130 O132 2.411 . S
Cd130 O133 2.333 . S
Cd130 O134 2.352 . S
Cd130 O138 2.277 . S
Cd130 O139 2.356 . S
C131 O136 1.209 . S
C131 O138 1.226 . S
O132 Cd128 2.273 . S
O132 Cd130 2.411 . S
O132 C135 1.320 . S
O133 Cd130 2.333 . S
O133 C135 1.214 . S
O134 Cd130 2.352 . S
O134 C137 1.258 . S
C135 O132 1.320 . S
C135 O133 1.214 . S
O136 Cd128 2.277 . S
O136 C131 1.209 . S
C137 O134 1.258 . S
C137 O139 1.282 . S
O138 Cd130 2.277 . S
O138 C131 1.226 . S
O139 Cd130 2.356 . S
O139 C137 1.282 . S
C140 O141 1.306 . S
C140 O143 1.160 . S
O141 C140 1.306 . S
O141 Cd142 2.228 . S
Cd142 O141 2.228 . S
Cd142 O146 2.273 . S
Cd142 O150 2.277 . S
O143 C140 1.160 . S
O143 Cd144 2.203 . S
Cd144 O143 2.203 . S
Cd144 O146 2.411 . S
Cd144 O147 2.333 . S
Cd144 O148 2.352 . S
Cd144 O152 2.277 . S
Cd144 O153 2.356 . S
C145 O150 1.209 . S
C145 O152 1.226 . S
O146 Cd142 2.273 . S
O146 Cd144 2.411 . S
O146 C149 1.320 . S
O147 Cd144 2.333 . S
O147 C149 1.214 . S
O148 Cd144 2.352 . S
O148 C151 1.258 . S
C149 O146 1.320 . S
C149 O147 1.214 . S
O150 Cd142 2.277 . S
O150 C145 1.209 . S
C151 O148 1.258 . S
C151 O153 1.282 . S
O152 Cd144 2.277 . S
O152 C145 1.226 . S
O153 Cd144 2.356 . S
O153 C151 1.282 . S
C154 O155 1.306 1_554 S
C154 O157 1.160 . S
O155 C154 1.306 1_556 S
O155 Cd156 2.228 . S
Cd156 O155 2.228 . S
Cd156 O160 2.248 1_556 S
Cd156 O164 2.277 . S
O157 C154 1.160 . S
O157 Cd158 2.203 . S
Cd158 O157 2.203 . S
Cd158 O160 2.415 . S
Cd158 O161 2.333 1_554 S
Cd158 O162 2.352 . S
Cd158 O166 2.277 1_554 S
Cd158 O167 2.356 . S
C159 O164 1.209 . S
C159 O166 1.226 . S
O160 Cd156 2.248 1_554 S
O160 Cd158 2.415 . S
O160 C163 1.326 1_554 S
O161 Cd158 2.333 1_556 S
O161 C163 1.214 . S
O162 Cd158 2.352 . S
O162 C165 1.258 . S
C163 O160 1.326 1_556 S
C163 O161 1.214 . S
O164 Cd156 2.277 . S
O164 C159 1.209 . S
C165 O162 1.258 . S
C165 O167 1.282 . S
O166 Cd158 2.277 1_556 S
O166 C159 1.226 . S
O167 Cd158 2.356 . S
O167 C165 1.282 . S
C168 O169 1.306 . S
C168 O171 1.160 . S
O169 C168 1.306 . S
O169 Cd170 2.228 . S
Cd170 O169 2.228 . S
Cd170 O174 2.273 . S
Cd170 O178 2.277 . S
O171 C168 1.160 . S
O171 Cd172 2.203 . S
Cd172 O171 2.203 . S
Cd172 O174 2.411 . S
Cd172 O175 2.333 . S
Cd172 O176 2.352 . S
Cd172 O180 2.277 . S
Cd172 O181 2.356 . S
C173 O178 1.209 . S
C173 O180 1.226 . S
O174 Cd170 2.273 . S
O174 Cd172 2.411 . S
O174 C177 1.320 . S
O175 Cd172 2.333 . S
O175 C177 1.214 . S
O176 Cd172 2.352 . S
O176 C179 1.258 . S
C177 O174 1.320 . S
C177 O175 1.214 . S
O178 Cd170 2.277 . S
O178 C173 1.209 . S
C179 O176 1.258 . S
C179 O181 1.282 . S
O180 Cd172 2.277 . S
O180 C173 1.226 . S
O181 Cd172 2.356 . S
O181 C179 1.282 . S
C182 O183 1.306 . S
C182 O185 1.160 . S
O183 C182 1.306 . S
O183 Cd184 2.228 . S
Cd184 O183 2.228 . S
Cd184 O188 2.273 . S
Cd184 O192 2.277 . S
O185 C182 1.160 . S
O185 Cd186 2.203 . S
Cd186 O185 2.203 . S
Cd186 O188 2.411 . S
Cd186 O189 2.333 . S
Cd186 O190 2.352 . S
Cd186 O194 2.277 . S
Cd186 O195 2.356 . S
C187 O192 1.209 . S
C187 O194 1.226 . S
O188 Cd184 2.273 . S
O188 Cd186 2.411 . S
O188 C191 1.320 . S
O189 Cd186 2.333 . S
O189 C191 1.214 . S
O190 Cd186 2.352 . S
O190 C193 1.258 . S
C191 O188 1.320 . S
C191 O189 1.214 . S
O192 Cd184 2.277 . S
O192 C187 1.209 . S
C193 O190 1.258 . S
C193 O195 1.282 . S
O194 Cd186 2.277 . S
O194 C187 1.226 . S
O195 Cd186 2.356 . S
O195 C193 1.282 . S
C196 O197 1.306 . S
C196 O199 1.160 . S
O197 C196 1.306 . S
O197 Cd198 2.228 . S
Cd198 O197 2.228 . S
Cd198 O202 2.273 . S
Cd198 O206 2.277 . S
O199 C196 1.160 . S
O199 Cd200 2.203 . S
Cd200 O199 2.203 . S
Cd200 O202 2.411 . S
Cd200 O203 2.333 . S
Cd200 O204 2.352 . S
Cd200 O208 2.277 . S
Cd200 O209 2.356 . S
C201 O206 1.209 . S
C201 O208 1.226 . S
O202 Cd198 2.273 . S
O202 Cd200 2.411 . S
O202 C205 1.320 . S
O203 Cd200 2.333 . S
O203 C205 1.214 . S
O204 Cd200 2.352 . S
O204 C207 1.258 . S
C205 O202 1.320 . S
C205 O203 1.214 . S
O206 Cd198 2.277 . S
O206 C201 1.209 . S
C207 O204 1.258 . S
C207 O209 1.282 . S
O208 Cd200 2.277 . S
O208 C201 1.226 . S
O209 Cd200 2.356 . S
O209 C207 1.282 . S
C210 O211 1.306 . S
C210 O213 1.160 . S
O211 C210 1.306 . S
O211 Cd212 2.228 . S
Cd212 O211 2.228 . S
Cd212 O216 2.273 . S
Cd212 O220 2.277 . S
O213 C210 1.160 . S
O213 Cd214 2.203 . S
Cd214 O213 2.203 . S
Cd214 O216 2.411 . S
Cd214 O217 2.333 . S
Cd214 O218 2.352 . S
Cd214 O222 2.277 . S
Cd214 O223 2.356 . S
C215 O220 1.209 . S
C215 O222 1.226 . S
O216 Cd212 2.273 . S
O216 Cd214 2.411 . S
O216 C219 1.320 . S
O217 Cd214 2.333 . S
O217 C219 1.214 . S
O218 Cd214 2.352 . S
O218 C221 1.258 . S
C219 O216 1.320 . S
C219 O217 1.214 . S
O220 Cd212 2.277 . S
O220 C215 1.209 . S
C221 O218 1.258 . S
C221 O223 1.282 . S
O222 Cd214 2.277 . S
O222 C215 1.226 . S
O223 Cd214 2.356 . S
O223 C221 1.282 . S
C224 O225 1.306 1_545 S
C224 O227 1.160 . S
O225 C224 1.306 1_565 S
O225 Cd226 2.228 . S
Cd226 O225 2.228 . S
Cd226 O230 2.273 1_565 S
Cd226 O234 2.277 . S
O227 C224 1.160 . S
O227 Cd228 2.203 . S
Cd228 O227 2.203 . S
Cd228 O230 2.411 . S
Cd228 O231 2.333 1_545 S
Cd228 O232 2.352 . S
Cd228 O236 2.277 1_545 S
Cd228 O237 2.356 . S
C229 O234 1.209 . S
C229 O236 1.226 . S
O230 Cd226 2.273 1_545 S
O230 Cd228 2.411 . S
O230 C233 1.327 1_545 S
O231 Cd228 2.333 1_565 S
O231 C233 1.206 . S
O232 Cd228 2.352 . S
O232 C235 1.258 . S
C233 O230 1.327 1_565 S
C233 O231 1.206 . S
O234 Cd226 2.277 . S
O234 C229 1.209 . S
C235 O232 1.258 . S
C235 O237 1.282 . S
O236 Cd228 2.277 1_565 S
O236 C229 1.226 . S
O237 Cd228 2.356 . S
O237 C235 1.282 . S
C238 O239 1.306 . S
C238 O241 1.160 . S
O239 C238 1.306 . S
O239 Cd240 2.228 . S
Cd240 O239 2.228 . S
Cd240 O244 2.273 . S
Cd240 O248 2.277 . S
O241 C238 1.160 . S
O241 Cd242 2.203 . S
Cd242 O241 2.203 . S
Cd242 O244 2.411 . S
Cd242 O245 2.333 . S
Cd242 O246 2.352 . S
Cd242 O250 2.277 . S
Cd242 O251 2.356 . S
C243 O248 1.209 . S
C243 O250 1.226 . S
O244 Cd240 2.273 . S
O244 Cd242 2.411 . S
O244 C247 1.320 . S
O245 Cd242 2.333 . S
O245 C247 1.214 . S
O246 Cd242 2.352 . S
O246 C249 1.258 . S
C247 O244 1.320 . S
C247 O245 1.214 . S
O248 Cd240 2.277 . S
O248 C243 1.209 . S
C249 O246 1.258 . S
C249 O251 1.282 . S
O250 Cd242 2.277 . S
O250 C243 1.226 . S
O251 Cd242 2.356 . S
O251 C249 1.282 . S
C252 O253 1.306 . S
C252 O255 1.160 . S
O253 C252 1.306 . S
O253 Cd254 2.228 . S
Cd254 O253 2.228 . S
Cd254 O258 2.273 . S
Cd254 O262 2.277 . S
O255 C252 1.160 . S
O255 Cd256 2.203 . S
Cd256 O255 2.203 . S
Cd256 O258 2.411 . S
Cd256 O259 2.333 . S
Cd256 O260 2.352 . S
Cd256 O264 2.277 . S
Cd256 O265 2.356 . S
C257 O262 1.209 . S
C257 O264 1.226 . S
O258 Cd254 2.273 . S
O258 Cd256 2.411 . S
O258 C261 1.320 . S
O259 Cd256 2.333 . S
O259 C261 1.214 . S
O260 Cd256 2.352 . S
O260 C263 1.258 . S
C261 O258 1.320 . S
C261 O259 1.214 . S
O262 Cd254 2.277 . S
O262 C257 1.209 . S
C263 O260 1.258 . S
C263 O265 1.282 . S
O264 Cd256 2.277 . S
O264 C257 1.226 . S
O265 Cd256 2.356 . S
O265 C263 1.282 . S
C266 O267 1.306 . S
C266 O269 1.160 . S
O267 C266 1.306 . S
O267 Cd268 2.228 . S
Cd268 O267 2.228 . S
Cd268 O272 2.273 . S
Cd268 O276 2.277 . S
O269 C266 1.160 . S
O269 Cd270 2.203 . S
Cd270 O269 2.203 . S
Cd270 O272 2.411 . S
Cd270 O273 2.333 . S
Cd270 O274 2.352 1_545 S
Cd270 O278 2.277 . S
Cd270 O279 2.356 . S
C271 O276 1.209 . S
C271 O278 1.226 . S
O272 Cd268 2.273 . S
O272 Cd270 2.411 . S
O272 C275 1.320 . S
O273 Cd270 2.333 . S
O273 C275 1.214 . S
O274 Cd270 2.352 1_565 S
O274 C277 1.258 . S
C275 O272 1.320 . S
C275 O273 1.214 . S
O276 Cd268 2.277 . S
O276 C271 1.209 . S
C277 O274 1.258 . S
C277 O279 1.282 1_565 S
O278 Cd270 2.277 . S
O278 C271 1.226 . S
O279 Cd270 2.356 . S
O279 C277 1.282 1_545 S
C280 O281 1.306 . S
C280 O283 1.160 . S
O281 C280 1.306 . S
O281 Cd282 2.228 . S
Cd282 O281 2.228 . S
Cd282 O286 2.273 . S
Cd282 O290 2.277 . S
O283 C280 1.160 . S
O283 Cd284 2.203 . S
Cd284 O283 2.203 . S
Cd284 O286 2.411 . S
Cd284 O287 2.333 . S
Cd284 O288 2.352 . S
Cd284 O292 2.277 . S
Cd284 O293 2.356 . S
C285 O290 1.209 . S
C285 O292 1.226 . S
O286 Cd282 2.273 . S
O286 Cd284 2.411 . S
O286 C289 1.320 . S
O287 Cd284 2.333 . S
O287 C289 1.214 . S
O288 Cd284 2.352 . S
O288 C291 1.258 . S
C289 O286 1.320 . S
C289 O287 1.214 . S
O290 Cd282 2.277 . S
O290 C285 1.209 . S
C291 O288 1.258 . S
C291 O293 1.282 . S
O292 Cd284 2.277 . S
O292 C285 1.226 . S
O293 Cd284 2.356 . S
O293 C291 1.282 . S
C294 O295 1.306 . S
C294 O297 1.160 . S
O295 C294 1.306 . S
O295 Cd296 2.228 . S
Cd296 O295 2.228 . S
Cd296 O300 2.273 . S
Cd296 O304 2.277 . S
O297 C294 1.160 . S
O297 Cd298 2.203 . S
Cd298 O297 2.203 . S
Cd298 O300 2.411 . S
Cd298 O301 2.333 . S
Cd298 O302 2.352 . S
Cd298 O306 2.277 . S
Cd298 O307 2.356 . S
C299 O304 1.209 . S
C299 O306 1.226 . S
O300 Cd296 2.273 . S
O300 Cd298 2.411 . S
O300 C303 1.320 . S
O301 Cd298 2.333 . S
O301 C303 1.214 . S
O302 Cd298 2.352 . S
O302 C305 1.258 . S
C303 O300 1.320 . S
C303 O301 1.214 . S
O304 Cd296 2.277 . S
O304 C299 1.209 . S
C305 O302 1.258 . S
C305 O307 1.282 . S
O306 Cd298 2.277 . S
O306 C299 1.226 . S
O307 Cd298 2.356 . S
O307 C305 1.282 . S
C308 O309 1.306 . S
C308 O311 1.160 . S
O309 C308 1.306 . S
O309 Cd310 2.228 . S
Cd310 O309 2.228 . S
Cd310 O314 2.273 . S
Cd310 O318 2.277 . S
O311 C308 1.160 . S
O311 Cd312 2.203 . S
Cd312 O311 2.203 . S
Cd312 O314 2.411 . S
Cd312 O315 2.333 . S
Cd312 O316 2.352 . S
Cd312 O320 2.277 . S
Cd312 O321 2.356 . S
C313 O318 1.209 . S
C313 O320 1.226 . S
O314 Cd310 2.273 . S
O314 Cd312 2.411 . S
O314 C317 1.320 . S
O315 Cd312 2.333 . S
O315 C317 1.214 . S
O316 Cd312 2.352 . S
O316 C319 1.258 . S
C317 O314 1.320 . S
C317 O315 1.214 . S
O318 Cd310 2.277 . S
O318 C313 1.209 . S
C319 O316 1.258 . S
C319 O321 1.282 . S
O320 Cd312 2.277 . S
O320 C313 1.226 . S
O321 Cd312 2.356 . S
O321 C319 1.282 . S
C322 O323 1.306 . S
C322 O325 1.160 . S
O323 C322 1.306 . S
O323 Cd324 2.228 . S
Cd324 O323 2.228 . S
Cd324 O328 2.273 . S
Cd324 O332 2.277 . S
O325 C322 1.160 . S
O325 Cd326 2.203 . S
Cd326 O325 2.203 . S
Cd326 O328 2.411 . S
Cd326 O329 2.333 . S
Cd326 O330 2.352 . S
Cd326 O334 2.277 . S
Cd326 O335 2.356 . S
C327 O332 1.209 . S
C327 O334 1.226 . S
O328 Cd324 2.273 . S
O328 Cd326 2.411 . S
O328 C331 1.320 . S
O329 Cd326 2.333 . S
O329 C331 1.214 . S
O330 Cd326 2.352 . S
O330 C333 1.258 . S
C331 O328 1.320 . S
C331 O329 1.214 . S
O332 Cd324 2.277 . S
O332 C327 1.209 . S
C333 O330 1.258 . S
C333 O335 1.282 . S
O334 Cd326 2.277 . S
O334 C327 1.226 . S
O335 Cd326 2.356 . S
O335 C333 1.282 . S
Tb336 C338 2.809 1_455 S
Tb336 O356 2.484 1_455 S
Tb336 O357 2.440 1_455 S
Tb336 O358 2.658 . S
Tb336 O359 2.409 . S
Tb336 O360 2.378 . S
Tb336 O364 2.325 . S
Tb336 O367 2.341 1_545 S
Tb337 C347 2.809 . S
Tb337 O358 2.325 . S
Tb337 O361 2.341 . S
Tb337 O362 2.484 . S
Tb337 O363 2.440 . S
Tb337 O364 2.658 . S
Tb337 O365 2.409 . S
Tb337 O366 2.378 1_545 S
C338 Tb336 2.809 1_655 S
C338 C339 1.514 . S
C338 O356 1.248 . S
C338 O357 1.266 . S
C339 C338 1.514 . S
C339 C340 1.359 . S
C339 C344 1.348 . S
C340 C339 1.359 . S
C340 C341 1.380 . S
C340 H368 0.929 . S
C341 C340 1.380 . S
C341 C342 1.347 . S
C341 H369 0.931 . S
C342 C341 1.347 . S
C342 C343 1.369 . S
C343 C342 1.369 . S
C343 C344 1.408 . S
C343 H370 0.930 . S
C344 C339 1.348 . S
C344 C343 1.408 . S
C344 H371 0.930 . S
C345 O358 1.281 . S
C345 O359 1.254 . S
C346 O360 1.236 . S
C346 O361 1.266 . S
C347 Tb337 2.809 . S
C347 C348 1.514 1_545 S
C347 O362 1.248 . S
C347 O363 1.266 . S
C348 C347 1.514 1_565 S
C348 C349 1.359 . S
C348 C353 1.348 . S
C349 C348 1.359 . S
C349 C350 1.380 . S
C349 H372 0.929 . S
C350 C349 1.380 . S
C350 C351 1.347 . S
C350 H373 0.931 . S
C351 C350 1.347 . S
C351 C352 1.369 . S
C352 C351 1.369 . S
C352 C353 1.408 . S
C352 H374 0.930 . S
C353 C348 1.348 . S
C353 C352 1.408 . S
C353 H375 0.930 1_565 S
C354 O364 1.281 . S
C354 O365 1.254 . S
C355 O366 1.236 . S
C355 O367 1.266 . S
O356 Tb336 2.484 1_655 S
O356 C338 1.248 . S
O357 Tb336 2.440 1_655 S
O357 C338 1.266 . S
O358 Tb336 2.658 . S
O358 Tb337 2.325 . S
O358 C345 1.281 . S
O359 Tb336 2.409 . S
O359 C345 1.254 . S
O360 Tb336 2.378 . S
O360 C346 1.236 . S
O361 Tb337 2.341 . S
O361 C346 1.266 . S
O362 Tb337 2.484 . S
O362 C347 1.248 . S
O363 Tb337 2.440 . S
O363 C347 1.266 . S
O364 Tb336 2.325 . S
O364 Tb337 2.658 . S
O364 C354 1.281 . S
O365 Tb337 2.409 . S
O365 C354 1.254 . S
O366 Tb337 2.378 1_565 S
O366 C355 1.236 . S
O367 Tb336 2.341 1_565 S
O367 C355 1.266 . S
H368 C340 0.929 . S
H369 C341 0.931 . S
H370 C343 0.930 . S
H371 C344 0.930 . S
H372 C349 0.929 . S
H373 C350 0.931 . S
H374 C352 0.930 . S
H375 C353 0.930 1_545 S
Tb376 C378 2.809 . S
Tb376 O396 2.484 . S
Tb376 O397 2.440 . S
Tb376 O398 2.658 . S
Tb376 O399 2.409 . S
Tb376 O400 2.378 . S
Tb376 O404 2.325 . S
Tb376 O407 2.341 . S
Tb377 C387 2.809 . S
Tb377 O398 2.325 . S
Tb377 O401 2.341 . S
Tb377 O402 2.484 . S
Tb377 O403 2.440 . S
Tb377 O404 2.658 . S
Tb377 O405 2.409 . S
Tb377 O406 2.378 . S
C378 Tb376 2.809 . S
C378 C379 1.514 . S
C378 O396 1.248 . S
C378 O397 1.266 . S
C379 C378 1.514 . S
C379 C380 1.359 . S
C379 C384 1.348 . S
C380 C379 1.359 . S
C380 C381 1.380 . S
C380 H408 0.929 . S
C381 C380 1.380 . S
C381 C382 1.347 . S
C381 H409 0.931 . S
C382 C381 1.347 . S
C382 C383 1.369 . S
C383 C382 1.369 . S
C383 C384 1.408 . S
C383 H410 0.930 . S
C384 C379 1.348 . S
C384 C383 1.408 . S
C384 H411 0.930 . S
C385 O398 1.281 . S
C385 O399 1.254 . S
C386 O400 1.236 . S
C386 O401 1.266 . S
C387 Tb377 2.809 . S
C387 C388 1.514 . S
C387 O402 1.248 . S
C387 O403 1.266 . S
C388 C387 1.514 . S
C388 C389 1.359 . S
C388 C393 1.348 . S
C389 C388 1.359 . S
C389 C390 1.380 . S
C389 H412 0.929 . S
C390 C389 1.380 . S
C390 C391 1.347 . S
C390 H413 0.931 . S
C391 C390 1.347 . S
C391 C392 1.369 . S
C392 C391 1.369 . S
C392 C393 1.408 . S
C392 H414 0.930 . S
C393 C388 1.348 . S
C393 C392 1.408 . S
C393 H415 0.930 . S
C394 O404 1.281 . S
C394 O405 1.254 . S
C395 O406 1.236 . S
C395 O407 1.266 . S
O396 Tb376 2.484 . S
O396 C378 1.248 . S
O397 Tb376 2.440 . S
O397 C378 1.266 . S
O398 Tb376 2.658 . S
O398 Tb377 2.325 . S
O398 C385 1.281 . S
O399 Tb376 2.409 . S
O399 C385 1.254 . S
O400 Tb376 2.378 . S
O400 C386 1.236 . S
O401 Tb377 2.341 . S
O401 C386 1.266 . S
O402 Tb377 2.484 . S
O402 C387 1.248 . S
O403 Tb377 2.440 . S
O403 C387 1.266 . S
O404 Tb376 2.325 . S
O404 Tb377 2.658 . S
O404 C394 1.281 . S
O405 Tb377 2.409 . S
O405 C394 1.254 . S
O406 Tb377 2.378 . S
O406 C395 1.236 . S
O407 Tb376 2.341 . S
O407 C395 1.266 . S
H408 C380 0.929 . S
H409 C381 0.931 . S
H410 C383 0.930 . S
H411 C384 0.930 . S
H412 C389 0.929 . S
H413 C390 0.931 . S
H414 C392 0.930 . S
H415 C393 0.930 . S
Tb416 C418 2.809 . S
Tb416 O436 2.484 . S
Tb416 O437 2.440 . S
Tb416 O438 2.658 . S
Tb416 O439 2.409 . S
Tb416 O440 2.378 1_545 S
Tb416 O444 2.325 . S
Tb416 O447 2.341 . S
Tb417 C427 2.809 . S
Tb417 O438 2.325 . S
Tb417 O441 2.341 1_545 S
Tb417 O442 2.484 . S
Tb417 O443 2.440 . S
Tb417 O444 2.658 . S
Tb417 O445 2.409 . S
Tb417 O446 2.378 . S
C418 Tb416 2.809 . S
C418 C419 1.514 1_545 S
C418 O436 1.248 . S
C418 O437 1.266 . S
C419 C418 1.514 1_565 S
C419 C420 1.359 . S
C419 C424 1.348 . S
C420 C419 1.359 . S
C420 C421 1.380 . S
C420 H448 0.929 . S
C421 C420 1.380 . S
C421 C422 1.347 . S
C421 H449 0.931 . S
C422 C421 1.347 . S
C422 C423 1.369 . S
C423 C422 1.369 . S
C423 C424 1.408 . S
C423 H450 0.930 . S
C424 C419 1.348 . S
C424 C423 1.408 . S
C424 H451 0.930 . S
C425 O438 1.281 . S
C425 O439 1.254 . S
C426 O440 1.236 . S
C426 O441 1.266 . S
C427 Tb417 2.809 . S
C427 C428 1.514 . S
C427 O442 1.248 . S
C427 O443 1.266 . S
C428 C427 1.514 . S
C428 C429 1.359 . S
C428 C433 1.348 . S
C429 C428 1.359 . S
C429 C430 1.380 . S
C429 H452 0.929 . S
C430 C429 1.380 . S
C430 C431 1.347 . S
C430 H453 0.931 . S
C431 C430 1.347 . S
C431 C432 1.369 . S
C432 C431 1.369 . S
C432 C433 1.408 . S
C432 H454 0.930 . S
C433 C428 1.348 . S
C433 C432 1.408 . S
C433 H455 0.930 . S
C434 O444 1.281 . S
C434 O445 1.254 . S
C435 O446 1.236 . S
C435 O447 1.266 . S
O436 Tb416 2.484 . S
O436 C418 1.248 . S
O437 Tb416 2.440 . S
O437 C418 1.266 . S
O438 Tb416 2.658 . S
O438 Tb417 2.325 . S
O438 C425 1.281 . S
O439 Tb416 2.409 . S
O439 C425 1.254 . S
O440 Tb416 2.378 1_565 S
O440 C426 1.236 . S
O441 Tb417 2.341 1_565 S
O441 C426 1.266 . S
O442 Tb417 2.484 . S
O442 C427 1.248 . S
O443 Tb417 2.440 . S
O443 C427 1.266 . S
O444 Tb416 2.325 . S
O444 Tb417 2.658 . S
O444 C434 1.281 . S
O445 Tb417 2.409 . S
O445 C434 1.254 . S
O446 Tb417 2.378 . S
O446 C435 1.236 . S
O447 Tb416 2.341 . S
O447 C435 1.266 . S
H448 C420 0.929 . S
H449 C421 0.931 . S
H450 C423 0.930 . S
H451 C424 0.930 . S
H452 C429 0.929 . S
H453 C430 0.931 . S
H454 C432 0.930 . S
H455 C433 0.930 . S
Tb456 C458 2.809 . S
Tb456 O476 2.484 . S
Tb456 O477 2.440 . S
Tb456 O478 2.658 . S
Tb456 O479 2.409 . S
Tb456 O480 2.378 . S
Tb456 O484 2.325 . S
Tb456 O487 2.341 . S
Tb457 C467 2.809 . S
Tb457 O478 2.325 . S
Tb457 O481 2.341 . S
Tb457 O482 2.484 . S
Tb457 O483 2.440 . S
Tb457 O484 2.658 . S
Tb457 O485 2.409 . S
Tb457 O486 2.378 . S
C458 Tb456 2.809 . S
C458 C459 1.514 . S
C458 O476 1.248 . S
C458 O477 1.266 . S
C459 C458 1.514 . S
C459 C460 1.359 . S
C459 C464 1.348 . S
C460 C459 1.359 . S
C460 C461 1.380 . S
C460 H488 0.929 . S
C461 C460 1.380 . S
C461 C462 1.347 . S
C461 H489 0.931 . S
C462 C461 1.347 . S
C462 C463 1.369 . S
C463 C462 1.369 . S
C463 C464 1.408 . S
C463 H490 0.930 . S
C464 C459 1.348 . S
C464 C463 1.408 . S
C464 H491 0.930 . S
C465 O478 1.281 . S
C465 O479 1.254 . S
C466 O480 1.236 . S
C466 O481 1.266 . S
C467 Tb457 2.809 . S
C467 C468 1.514 . S
C467 O482 1.248 . S
C467 O483 1.266 . S
C468 C467 1.514 . S
C468 C469 1.359 . S
C468 C473 1.348 . S
C469 C468 1.359 . S
C469 C470 1.380 . S
C469 H492 0.929 . S
C470 C469 1.380 . S
C470 C471 1.347 . S
C470 H493 0.931 . S
C471 C470 1.347 . S
C471 C472 1.369 . S
C472 C471 1.369 . S
C472 C473 1.408 . S
C472 H494 0.930 . S
C473 C468 1.348 . S
C473 C472 1.408 . S
C473 H495 0.930 . S
C474 O484 1.281 . S
C474 O485 1.254 . S
C475 O486 1.236 . S
C475 O487 1.266 . S
O476 Tb456 2.484 . S
O476 C458 1.248 . S
O477 Tb456 2.440 . S
O477 C458 1.266 . S
O478 Tb456 2.658 . S
O478 Tb457 2.325 . S
O478 C465 1.281 . S
O479 Tb456 2.409 . S
O479 C465 1.254 . S
O480 Tb456 2.378 . S
O480 C466 1.236 . S
O481 Tb457 2.341 . S
O481 C466 1.266 . S
O482 Tb457 2.484 . S
O482 C467 1.248 . S
O483 Tb457 2.440 . S
O483 C467 1.266 . S
O484 Tb456 2.325 . S
O484 Tb457 2.658 . S
O484 C474 1.281 . S
O485 Tb457 2.409 . S
O485 C474 1.254 . S
O486 Tb457 2.378 . S
O486 C475 1.236 . S
O487 Tb456 2.341 . S
O487 C475 1.266 . S
H488 C460 0.929 . S
H489 C461 0.931 . S
H490 C463 0.930 . S
H491 C464 0.930 . S
H492 C469 0.929 . S
H493 C470 0.931 . S
H494 C472 0.930 . S
H495 C473 0.930 . S
Tb496 C498 2.809 . S
Tb496 O516 2.484 . S
Tb496 O517 2.440 . S
Tb496 O518 2.658 . S
Tb496 O519 2.409 1_455 S
Tb496 O520 2.378 . S
Tb496 O524 2.325 . S
Tb496 O527 2.341 . S
Tb497 C507 2.809 . S
Tb497 O518 2.325 1_565 S
Tb497 O521 2.341 1_565 S
Tb497 O522 2.484 . S
Tb497 O523 2.440 . S
Tb497 O524 2.658 1_565 S
Tb497 O525 2.409 1_565 S
Tb497 O526 2.378 1_565 S
C498 Tb496 2.809 . S
C498 C499 1.514 . S
C498 O516 1.248 . S
C498 O517 1.266 . S
C499 C498 1.514 . S
C499 C500 1.359 . S
C499 C504 1.348 1_455 S
C500 C499 1.359 . S
C500 C501 1.380 . S
C500 H528 0.929 . S
C501 C500 1.380 . S
C501 C502 1.347 . S
C501 H529 0.931 . S
C502 C501 1.347 . S
C502 C503 1.369 1_455 S
C503 C502 1.369 1_655 S
C503 C504 1.408 . S
C503 H530 0.930 . S
C504 C499 1.348 1_655 S
C504 C503 1.408 . S
C504 H531 0.930 . S
C505 O518 1.281 1_655 S
C505 O519 1.254 . S
C506 O520 1.236 . S
C506 O521 1.266 . S
C507 Tb497 2.809 . S
C507 C508 1.514 . S
C507 O522 1.248 . S
C507 O523 1.266 . S
C508 C507 1.514 . S
C508 C509 1.359 . S
C508 C513 1.348 . S
C509 C508 1.359 . S
C509 C510 1.380 . S
C509 H532 0.929 . S
C510 C509 1.380 . S
C510 C511 1.347 . S
C510 H533 0.931 . S
C511 C510 1.347 . S
C511 C512 1.369 . S
C512 C511 1.369 . S
C512 C513 1.408 . S
C512 H534 0.930 . S
C513 C508 1.348 . S
C513 C512 1.408 . S
C513 H535 0.930 . S
C514 O524 1.281 . S
C514 O525 1.254 . S
C515 O526 1.236 . S
C515 O527 1.266 . S
O516 Tb496 2.484 . S
O516 C498 1.248 . S
O517 Tb496 2.440 . S
O517 C498 1.266 . S
O518 Tb496 2.658 . S
O518 Tb497 2.325 1_545 S
O518 C505 1.281 1_455 S
O519 Tb496 2.409 1_655 S
O519 C505 1.254 . S
O520 Tb496 2.378 . S
O520 C506 1.236 . S
O521 Tb497 2.341 1_545 S
O521 C506 1.266 . S
O522 Tb497 2.484 . S
O522 C507 1.248 . S
O523 Tb497 2.440 . S
O523 C507 1.266 . S
O524 Tb496 2.325 . S
O524 Tb497 2.658 1_545 S
O524 C514 1.281 . S
O525 Tb497 2.409 1_545 S
O525 C514 1.254 . S
O526 Tb497 2.378 1_545 S
O526 C515 1.236 . S
O527 Tb496 2.341 . S
O527 C515 1.266 . S
H528 C500 0.929 . S
H529 C501 0.931 . S
H530 C503 0.930 . S
H531 C504 0.930 . S
H532 C509 0.929 . S
H533 C510 0.931 . S
H534 C512 0.930 . S
H535 C513 0.930 . S
Tb536 C538 2.809 . S
Tb536 O556 2.484 . S
Tb536 O557 2.440 . S
Tb536 O558 2.658 . S
Tb536 O559 2.409 . S
Tb536 O560 2.378 . S
Tb536 O564 2.325 . S
Tb536 O567 2.341 . S
Tb537 C547 2.809 . S
Tb537 O558 2.325 . S
Tb537 O561 2.341 . S
Tb537 O562 2.484 . S
Tb537 O563 2.440 . S
Tb537 O564 2.658 . S
Tb537 O565 2.409 . S
Tb537 O566 2.378 . S
C538 Tb536 2.809 . S
C538 C539 1.514 . S
C538 O556 1.248 . S
C538 O557 1.266 . S
C539 C538 1.514 . S
C539 C540 1.359 . S
C539 C544 1.348 . S
C540 C539 1.359 . S
C540 C541 1.380 . S
C540 H568 0.929 . S
C541 C540 1.380 . S
C541 C542 1.347 . S
C541 H569 0.931 . S
C542 C541 1.347 . S
C542 C543 1.369 . S
C543 C542 1.369 . S
C543 C544 1.408 . S
C543 H570 0.930 . S
C544 C539 1.348 . S
C544 C543 1.408 . S
C544 H571 0.930 . S
C545 O558 1.281 . S
C545 O559 1.254 . S
C546 O560 1.236 . S
C546 O561 1.266 . S
C547 Tb537 2.809 . S
C547 C548 1.514 . S
C547 O562 1.248 . S
C547 O563 1.266 . S
C548 C547 1.514 . S
C548 C549 1.359 . S
C548 C553 1.348 . S
C549 C548 1.359 . S
C549 C550 1.380 . S
C549 H572 0.929 . S
C550 C549 1.380 . S
C550 C551 1.347 . S
C550 H573 0.931 . S
C551 C550 1.347 . S
C551 C552 1.369 . S
C552 C551 1.369 . S
C552 C553 1.408 . S
C552 H574 0.930 . S
C553 C548 1.348 . S
C553 C552 1.408 . S
C553 H575 0.930 . S
C554 O564 1.281 . S
C554 O565 1.254 . S
C555 O566 1.236 . S
C555 O567 1.266 . S
O556 Tb536 2.484 . S
O556 C538 1.248 . S
O557 Tb536 2.440 . S
O557 C538 1.266 . S
O558 Tb536 2.658 . S
O558 Tb537 2.325 . S
O558 C545 1.281 . S
O559 Tb536 2.409 . S
O559 C545 1.254 . S
O560 Tb536 2.378 . S
O560 C546 1.236 . S
O561 Tb537 2.341 . S
O561 C546 1.266 . S
O562 Tb537 2.484 . S
O562 C547 1.248 . S
O563 Tb537 2.440 . S
O563 C547 1.266 . S
O564 Tb536 2.325 . S
O564 Tb537 2.658 . S
O564 C554 1.281 . S
O565 Tb537 2.409 . S
O565 C554 1.254 . S
O566 Tb537 2.378 . S
O566 C555 1.236 . S
O567 Tb536 2.341 . S
O567 C555 1.266 . S
H568 C540 0.929 . S
H569 C541 0.931 . S
H570 C543 0.930 . S
H571 C544 0.930 . S
H572 C549 0.929 . S
H573 C550 0.931 . S
H574 C552 0.930 . S
H575 C553 0.930 . S
Tb576 C578 2.809 . S
Tb576 O596 2.484 1_545 S
Tb576 O597 2.440 . S
Tb576 O598 2.658 . S
Tb576 O599 2.409 . S
Tb576 O600 2.378 . S
Tb576 O604 2.325 . S
Tb576 O607 2.341 . S
Tb577 C587 2.809 . S
Tb577 O598 2.325 . S
Tb577 O601 2.341 . S
Tb577 O602 2.484 . S
Tb577 O603 2.440 . S
Tb577 O604 2.658 . S
Tb577 O605 2.409 1_545 S
Tb577 O606 2.378 . S
C578 Tb576 2.809 . S
C578 C579 1.513 1_545 S
C578 O596 1.248 1_545 S
C578 O597 1.266 . S
C579 C578 1.513 1_565 S
C579 C580 1.362 . S
C579 C584 1.345 1_565 S
C580 C579 1.362 . S
C580 C581 1.380 . S
C580 H608 0.929 . S
C581 C580 1.380 . S
C581 C582 1.347 . S
C581 H609 0.931 . S
C582 C581 1.347 . S
C582 C583 1.369 1_565 S
C583 C582 1.369 1_545 S
C583 C584 1.408 . S
C583 H610 0.930 . S
C584 C579 1.345 1_545 S
C584 C583 1.408 . S
C584 H611 0.930 . S
C585 O598 1.281 . S
C585 O599 1.254 . S
C586 O600 1.236 . S
C586 O601 1.266 . S
C587 Tb577 2.809 . S
C587 C588 1.514 . S
C587 O602 1.248 . S
C587 O603 1.266 . S
C588 C587 1.514 . S
C588 C589 1.359 . S
C588 C593 1.348 . S
C589 C588 1.359 . S
C589 C590 1.380 . S
C589 H612 0.929 . S
C590 C589 1.380 . S
C590 C591 1.347 . S
C590 H613 0.931 . S
C591 C590 1.347 . S
C591 C592 1.369 . S
C592 C591 1.369 . S
C592 C593 1.408 . S
C592 H614 0.930 . S
C593 C588 1.348 . S
C593 C592 1.408 . S
C593 H615 0.930 . S
C594 O604 1.281 1_565 S
C594 O605 1.254 . S
C595 O606 1.236 . S
C595 O607 1.266 . S
O596 Tb576 2.484 1_565 S
O596 C578 1.248 1_565 S
O597 Tb576 2.440 . S
O597 C578 1.266 . S
O598 Tb576 2.658 . S
O598 Tb577 2.325 . S
O598 C585 1.281 . S
O599 Tb576 2.409 . S
O599 C585 1.254 . S
O600 Tb576 2.378 . S
O600 C586 1.236 . S
O601 Tb577 2.341 . S
O601 C586 1.266 . S
O602 Tb577 2.484 . S
O602 C587 1.248 . S
O603 Tb577 2.440 . S
O603 C587 1.266 . S
O604 Tb576 2.325 . S
O604 Tb577 2.658 . S
O604 C594 1.281 1_545 S
O605 Tb577 2.409 1_565 S
O605 C594 1.254 . S
O606 Tb577 2.378 . S
O606 C595 1.236 . S
O607 Tb576 2.341 . S
O607 C595 1.266 . S
H608 C580 0.929 . S
H609 C581 0.931 . S
H610 C583 0.930 . S
H611 C584 0.930 . S
H612 C589 0.929 . S
H613 C590 0.931 . S
H614 C592 0.930 . S
H615 C593 0.930 . S
Tb616 C618 2.809 . S
Tb616 O636 2.484 . S
Tb616 O637 2.440 . S
Tb616 O638 2.658 . S
Tb616 O639 2.409 . S
Tb616 O640 2.378 . S
Tb616 O644 2.325 . S
Tb616 O647 2.341 . S
Tb617 C627 2.809 . S
Tb617 O638 2.325 . S
Tb617 O641 2.341 . S
Tb617 O642 2.484 . S
Tb617 O643 2.440 . S
Tb617 O644 2.658 . S
Tb617 O645 2.409 . S
Tb617 O646 2.378 . S
C618 Tb616 2.809 . S
C618 C619 1.514 . S
C618 O636 1.248 . S
C618 O637 1.266 . S
C619 C618 1.514 . S
C619 C620 1.359 . S
C619 C624 1.348 . S
C620 C619 1.359 . S
C620 C621 1.380 . S
C620 H648 0.929 . S
C621 C620 1.380 . S
C621 C622 1.347 . S
C621 H649 0.931 . S
C622 C621 1.347 . S
C622 C623 1.369 . S
C623 C622 1.369 . S
C623 C624 1.408 . S
C623 H650 0.930 . S
C624 C619 1.348 . S
C624 C623 1.408 . S
C624 H651 0.930 . S
C625 O638 1.281 . S
C625 O639 1.254 . S
C626 O640 1.236 . S
C626 O641 1.266 . S
C627 Tb617 2.809 . S
C627 C628 1.514 . S
C627 O642 1.248 . S
C627 O643 1.266 . S
C628 C627 1.514 . S
C628 C629 1.359 . S
C628 C633 1.348 . S
C629 C628 1.359 . S
C629 C630 1.380 . S
C629 H652 0.929 . S
C630 C629 1.380 . S
C630 C631 1.347 . S
C630 H653 0.931 . S
C631 C630 1.347 . S
C631 C632 1.369 . S
C632 C631 1.369 . S
C632 C633 1.408 . S
C632 H654 0.930 . S
C633 C628 1.348 . S
C633 C632 1.408 . S
C633 H655 0.930 . S
C634 O644 1.281 . S
C634 O645 1.254 . S
C635 O646 1.236 . S
C635 O647 1.266 . S
O636 Tb616 2.484 . S
O636 C618 1.248 . S
O637 Tb616 2.440 . S
O637 C618 1.266 . S
O638 Tb616 2.658 . S
O638 Tb617 2.325 . S
O638 C625 1.281 . S
O639 Tb616 2.409 . S
O639 C625 1.254 . S
O640 Tb616 2.378 . S
O640 C626 1.236 . S
O641 Tb617 2.341 . S
O641 C626 1.266 . S
O642 Tb617 2.484 . S
O642 C627 1.248 . S
O643 Tb617 2.440 . S
O643 C627 1.266 . S
O644 Tb616 2.325 . S
O644 Tb617 2.658 . S
O644 C634 1.281 . S
O645 Tb617 2.409 . S
O645 C634 1.254 . S
O646 Tb617 2.378 . S
O646 C635 1.236 . S
O647 Tb616 2.341 . S
O647 C635 1.266 . S
H648 C620 0.929 . S
H649 C621 0.931 . S
H650 C623 0.930 . S
H651 C624 0.930 . S
H652 C629 0.929 . S
H653 C630 0.931 . S
H654 C632 0.930 . S
H655 C633 0.930 . S
Tb656 C658 2.809 . S
Tb656 O676 2.484 . S
Tb656 O677 2.440 . S
Tb656 O678 2.658 . S
Tb656 O679 2.409 . S
Tb656 O680 2.378 . S
Tb656 O684 2.325 . S
Tb656 O687 2.341 . S
Tb657 C667 2.809 . S
Tb657 O678 2.325 . S
Tb657 O681 2.341 . S
Tb657 O682 2.484 . S
Tb657 O683 2.440 . S
Tb657 O684 2.658 . S
Tb657 O685 2.409 . S
Tb657 O686 2.378 . S
C658 Tb656 2.809 . S
C658 C659 1.514 . S
C658 O676 1.248 . S
C658 O677 1.266 . S
C659 C658 1.514 . S
C659 C660 1.359 . S
C659 C664 1.348 . S
C660 C659 1.359 . S
C660 C661 1.380 1_554 S
C660 H688 0.929 . S
C661 C660 1.380 1_556 S
C661 C662 1.347 . S
C661 H689 0.931 . S
C662 C661 1.347 . S
C662 C663 1.369 1_556 S
C663 C662 1.369 1_554 S
C663 C664 1.408 . S
C663 H690 0.930 . S
C664 C659 1.348 . S
C664 C663 1.408 . S
C664 H691 0.930 . S
C665 O678 1.281 . S
C665 O679 1.254 . S
C666 O680 1.236 . S
C666 O681 1.266 . S
C667 Tb657 2.809 . S
C667 C668 1.514 . S
C667 O682 1.248 . S
C667 O683 1.266 . S
C668 C667 1.514 . S
C668 C669 1.359 . S
C668 C673 1.348 . S
C669 C668 1.359 . S
C669 C670 1.380 . S
C669 H692 0.929 . S
C670 C669 1.380 . S
C670 C671 1.347 . S
C670 H693 0.931 . S
C671 C670 1.347 . S
C671 C672 1.369 . S
C672 C671 1.369 . S
C672 C673 1.408 . S
C672 H694 0.930 . S
C673 C668 1.348 . S
C673 C672 1.408 . S
C673 H695 0.930 . S
C674 O684 1.281 . S
C674 O685 1.254 . S
C675 O686 1.236 . S
C675 O687 1.266 . S
O676 Tb656 2.484 . S
O676 C658 1.248 . S
O677 Tb656 2.440 . S
O677 C658 1.266 . S
O678 Tb656 2.658 . S
O678 Tb657 2.325 . S
O678 C665 1.281 . S
O679 Tb656 2.409 . S
O679 C665 1.254 . S
O680 Tb656 2.378 . S
O680 C666 1.236 . S
O681 Tb657 2.341 . S
O681 C666 1.266 . S
O682 Tb657 2.484 . S
O682 C667 1.248 . S
O683 Tb657 2.440 . S
O683 C667 1.266 . S
O684 Tb656 2.325 . S
O684 Tb657 2.658 . S
O684 C674 1.281 . S
O685 Tb657 2.409 . S
O685 C674 1.254 . S
O686 Tb657 2.378 . S
O686 C675 1.236 . S
O687 Tb656 2.341 . S
O687 C675 1.266 . S
H688 C660 0.929 . S
H689 C661 0.931 . S
H690 C663 0.930 . S
H691 C664 0.930 . S
H692 C669 0.929 . S
H693 C670 0.931 . S
H694 C672 0.930 . S
H695 C673 0.930 . S
Tb696 C698 2.809 . S
Tb696 O716 2.484 . S
Tb696 O717 2.440 . S
Tb696 O718 2.658 . S
Tb696 O719 2.409 . S
Tb696 O720 2.378 . S
Tb696 O724 2.325 . S
Tb696 O727 2.341 . S
Tb697 C707 2.809 . S
Tb697 O718 2.325 . S
Tb697 O721 2.341 . S
Tb697 O722 2.484 . S
Tb697 O723 2.440 . S
Tb697 O724 2.658 . S
Tb697 O725 2.409 . S
Tb697 O726 2.378 . S
C698 Tb696 2.809 . S
C698 C699 1.514 . S
C698 O716 1.248 . S
C698 O717 1.266 . S
C699 C698 1.514 . S
C699 C700 1.359 . S
C699 C704 1.348 . S
C700 C699 1.359 . S
C700 C701 1.380 . S
C700 H728 0.929 . S
C701 C700 1.380 . S
C701 C702 1.347 . S
C701 H729 0.931 . S
C702 C701 1.347 . S
C702 C703 1.369 . S
C703 C702 1.369 . S
C703 C704 1.408 . S
C703 H730 0.930 . S
C704 C699 1.348 . S
C704 C703 1.408 . S
C704 H731 0.930 . S
C705 O718 1.281 . S
C705 O719 1.254 . S
C706 O720 1.236 . S
C706 O721 1.266 . S
C707 Tb697 2.809 . S
C707 C708 1.514 . S
C707 O722 1.248 . S
C707 O723 1.266 . S
C708 C707 1.514 . S
C708 C709 1.359 . S
C708 C713 1.348 . S
C709 C708 1.359 . S
C709 C710 1.380 . S
C709 H732 0.929 . S
C710 C709 1.380 . S
C710 C711 1.347 . S
C710 H733 0.931 . S
C711 C710 1.347 . S
C711 C712 1.369 . S
C712 C711 1.369 . S
C712 C713 1.408 . S
C712 H734 0.930 . S
C713 C708 1.348 . S
C713 C712 1.408 . S
C713 H735 0.930 . S
C714 O724 1.281 . S
C714 O725 1.254 . S
C715 O726 1.236 . S
C715 O727 1.266 . S
O716 Tb696 2.484 . S
O716 C698 1.248 . S
O717 Tb696 2.440 . S
O717 C698 1.266 . S
O718 Tb696 2.658 . S
O718 Tb697 2.325 . S
O718 C705 1.281 . S
O719 Tb696 2.409 . S
O719 C705 1.254 . S
O720 Tb696 2.378 . S
O720 C706 1.236 . S
O721 Tb697 2.341 . S
O721 C706 1.266 . S
O722 Tb697 2.484 . S
O722 C707 1.248 . S
O723 Tb697 2.440 . S
O723 C707 1.266 . S
O724 Tb696 2.325 . S
O724 Tb697 2.658 . S
O724 C714 1.281 . S
O725 Tb697 2.409 . S
O725 C714 1.254 . S
O726 Tb697 2.378 . S
O726 C715 1.236 . S
O727 Tb696 2.341 . S
O727 C715 1.266 . S
H728 C700 0.929 . S
H729 C701 0.931 . S
H730 C703 0.930 . S
H731 C704 0.930 . S
H732 C709 0.929 . S
H733 C710 0.931 . S
H734 C712 0.930 . S
H735 C713 0.930 . S
Tb736 C738 2.809 1_455 S
Tb736 O756 2.484 1_455 S
Tb736 O757 2.440 1_455 S
Tb736 O758 2.658 . S
Tb736 O759 2.409 . S
Tb736 O760 2.383 . S
Tb736 O764 2.325 . S
Tb736 O767 2.341 . S
Tb737 C747 2.809 . S
Tb737 O758 2.325 . S
Tb737 O761 2.341 . S
Tb737 O762 2.484 . S
Tb737 O763 2.440 . S
Tb737 O764 2.658 . S
Tb737 O765 2.409 . S
Tb737 O766 2.378 . S
C738 Tb736 2.809 1_655 S
C738 C739 1.514 . S
C738 O756 1.248 . S
C738 O757 1.266 . S
C739 C738 1.514 . S
C739 C740 1.359 . S
C739 C744 1.348 . S
C740 C739 1.359 . S
C740 C741 1.380 . S
C740 H768 0.929 . S
C741 C740 1.380 . S
C741 C742 1.347 . S
C741 H769 0.931 . S
C742 C741 1.347 . S
C742 C743 1.369 . S
C743 C742 1.369 . S
C743 C744 1.408 . S
C743 H770 0.930 . S
C744 C739 1.348 . S
C744 C743 1.408 . S
C744 H771 0.930 . S
C745 O758 1.281 . S
C745 O759 1.254 . S
C746 O760 1.245 . S
C746 O761 1.266 . S
C747 Tb737 2.809 . S
C747 C748 1.514 . S
C747 O762 1.248 . S
C747 O763 1.266 . S
C748 C747 1.514 . S
C748 C749 1.359 . S
C748 C753 1.348 . S
C749 C748 1.359 . S
C749 C750 1.380 . S
C749 H772 0.929 . S
C750 C749 1.380 . S
C750 C751 1.347 . S
C750 H773 0.931 . S
C751 C750 1.347 . S
C751 C752 1.369 . S
C752 C751 1.369 . S
C752 C753 1.408 . S
C752 H774 0.930 . S
C753 C748 1.348 . S
C753 C752 1.408 . S
C753 H775 0.930 . S
C754 O764 1.281 . S
C754 O765 1.254 . S
C755 O766 1.236 . S
C755 O767 1.266 . S
O756 Tb736 2.484 1_655 S
O756 C738 1.248 . S
O757 Tb736 2.440 1_655 S
O757 C738 1.266 . S
O758 Tb736 2.658 . S
O758 Tb737 2.325 . S
O758 C745 1.281 . S
O759 Tb736 2.409 . S
O759 C745 1.254 . S
O760 Tb736 2.383 . S
O760 C746 1.245 . S
O761 Tb737 2.341 . S
O761 C746 1.266 . S
O762 Tb737 2.484 . S
O762 C747 1.248 . S
O763 Tb737 2.440 . S
O763 C747 1.266 . S
O764 Tb736 2.325 . S
O764 Tb737 2.658 . S
O764 C754 1.281 . S
O765 Tb737 2.409 . S
O765 C754 1.254 . S
O766 Tb737 2.378 . S
O766 C755 1.236 . S
O767 Tb736 2.341 . S
O767 C755 1.266 . S
H768 C740 0.929 . S
H769 C741 0.931 . S
H770 C743 0.930 . S
H771 C744 0.930 . S
H772 C749 0.929 . S
H773 C750 0.931 . S
H774 C752 0.930 . S
H775 C753 0.930 . S
Tb776 C778 2.809 . S
Tb776 O796 2.484 . S
Tb776 O797 2.440 . S
Tb776 O798 2.658 . S
Tb776 O799 2.409 . S
Tb776 O800 2.378 . S
Tb776 O804 2.325 . S
Tb776 O807 2.341 . S
Tb777 C787 2.809 . S
Tb777 O798 2.325 . S
Tb777 O801 2.341 . S
Tb777 O802 2.484 . S
Tb777 O803 2.440 . S
Tb777 O804 2.658 . S
Tb777 O805 2.409 . S
Tb777 O806 2.378 . S
C778 Tb776 2.809 . S
C778 C779 1.514 . S
C778 O796 1.248 . S
C778 O797 1.266 . S
C779 C778 1.514 . S
C779 C780 1.359 . S
C779 C784 1.348 . S
C780 C779 1.359 . S
C780 C781 1.380 . S
C780 H808 0.929 . S
C781 C780 1.380 . S
C781 C782 1.347 . S
C781 H809 0.931 . S
C782 C781 1.347 . S
C782 C783 1.369 . S
C783 C782 1.369 . S
C783 C784 1.408 . S
C783 H810 0.930 . S
C784 C779 1.348 . S
C784 C783 1.408 . S
C784 H811 0.930 . S
C785 O798 1.281 . S
C785 O799 1.254 . S
C786 O800 1.236 . S
C786 O801 1.266 . S
C787 Tb777 2.809 . S
C787 C788 1.514 . S
C787 O802 1.248 . S
C787 O803 1.266 . S
C788 C787 1.514 . S
C788 C789 1.359 . S
C788 C793 1.348 . S
C789 C788 1.359 . S
C789 C790 1.380 . S
C789 H812 0.929 . S
C790 C789 1.380 . S
C790 C791 1.347 . S
C790 H813 0.931 . S
C791 C790 1.347 . S
C791 C792 1.369 . S
C792 C791 1.369 . S
C792 C793 1.408 . S
C792 H814 0.930 . S
C793 C788 1.348 . S
C793 C792 1.408 . S
C793 H815 0.930 . S
C794 O804 1.281 . S
C794 O805 1.254 . S
C795 O806 1.236 . S
C795 O807 1.266 . S
O796 Tb776 2.484 . S
O796 C778 1.248 . S
O797 Tb776 2.440 . S
O797 C778 1.266 . S
O798 Tb776 2.658 . S
O798 Tb777 2.325 . S
O798 C785 1.281 . S
O799 Tb776 2.409 . S
O799 C785 1.254 . S
O800 Tb776 2.378 . S
O800 C786 1.236 . S
O801 Tb777 2.341 . S
O801 C786 1.266 . S
O802 Tb777 2.484 . S
O802 C787 1.248 . S
O803 Tb777 2.440 . S
O803 C787 1.266 . S
O804 Tb776 2.325 . S
O804 Tb777 2.658 . S
O804 C794 1.281 . S
O805 Tb777 2.409 . S
O805 C794 1.254 . S
O806 Tb777 2.378 . S
O806 C795 1.236 . S
O807 Tb776 2.341 . S
O807 C795 1.266 . S
H808 C780 0.929 . S
H809 C781 0.931 . S
H810 C783 0.930 . S
H811 C784 0.930 . S
H812 C789 0.929 . S
H813 C790 0.931 . S
H814 C792 0.930 . S
H815 C793 0.930 . S
Tb816 C818 2.809 . S
Tb816 O836 2.484 . S
Tb816 O837 2.440 . S
Tb816 O838 2.658 . S
Tb816 O839 2.409 . S
Tb816 O840 2.378 . S
Tb816 O844 2.325 . S
Tb816 O847 2.341 . S
Tb817 C827 2.809 . S
Tb817 O838 2.325 . S
Tb817 O841 2.341 . S
Tb817 O842 2.484 . S
Tb817 O843 2.440 . S
Tb817 O844 2.658 . S
Tb817 O845 2.409 . S
Tb817 O846 2.378 . S
C818 Tb816 2.809 . S
C818 C819 1.514 . S
C818 O836 1.248 . S
C818 O837 1.266 . S
C819 C818 1.514 . S
C819 C820 1.359 . S
C819 C824 1.348 . S
C820 C819 1.359 . S
C820 C821 1.380 . S
C820 H848 0.929 . S
C821 C820 1.380 . S
C821 C822 1.347 . S
C821 H849 0.931 . S
C822 C821 1.347 . S
C822 C823 1.369 . S
C823 C822 1.369 . S
C823 C824 1.408 . S
C823 H850 0.930 . S
C824 C819 1.348 . S
C824 C823 1.408 . S
C824 H851 0.930 . S
C825 O838 1.281 . S
C825 O839 1.254 . S
C826 O840 1.236 . S
C826 O841 1.266 . S
C827 Tb817 2.809 . S
C827 C828 1.514 . S
C827 O842 1.248 . S
C827 O843 1.266 . S
C828 C827 1.514 . S
C828 C829 1.359 . S
C828 C833 1.348 . S
C829 C828 1.359 . S
C829 C830 1.380 1_556 S
C829 H852 0.929 . S
C830 C829 1.380 1_554 S
C830 C831 1.347 . S
C830 H853 0.931 . S
C831 C830 1.347 . S
C831 C832 1.369 . S
C832 C831 1.369 . S
C832 C833 1.408 1_554 S
C832 H854 0.930 . S
C833 C828 1.348 . S
C833 C832 1.408 1_556 S
C833 H855 0.930 . S
C834 O844 1.281 . S
C834 O845 1.254 . S
C835 O846 1.236 . S
C835 O847 1.266 . S
O836 Tb816 2.484 . S
O836 C818 1.248 . S
O837 Tb816 2.440 . S
O837 C818 1.266 . S
O838 Tb816 2.658 . S
O838 Tb817 2.325 . S
O838 C825 1.281 . S
O839 Tb816 2.409 . S
O839 C825 1.254 . S
O840 Tb816 2.378 . S
O840 C826 1.236 . S
O841 Tb817 2.341 . S
O841 C826 1.266 . S
O842 Tb817 2.484 . S
O842 C827 1.248 . S
O843 Tb817 2.440 . S
O843 C827 1.266 . S
O844 Tb816 2.325 . S
O844 Tb817 2.658 . S
O844 C834 1.281 . S
O845 Tb817 2.409 . S
O845 C834 1.254 . S
O846 Tb817 2.378 . S
O846 C835 1.236 . S
O847 Tb816 2.341 . S
O847 C835 1.266 . S
H848 C820 0.929 . S
H849 C821 0.931 . S
H850 C823 0.930 . S
H851 C824 0.930 . S
H852 C829 0.929 . S
H853 C830 0.931 . S
H854 C832 0.930 . S
H855 C833 0.930 . S
Tb856 C858 2.809 . S
Tb856 O876 2.484 . S
Tb856 O877 2.440 . S
Tb856 O878 2.658 . S
Tb856 O879 2.409 . S
Tb856 O880 2.378 . S
Tb856 O884 2.325 . S
Tb856 O887 2.341 . S
Tb857 C867 2.809 . S
Tb857 O878 2.325 . S
Tb857 O881 2.341 . S
Tb857 O882 2.484 . S
Tb857 O883 2.440 . S
Tb857 O884 2.658 . S
Tb857 O885 2.409 . S
Tb857 O886 2.378 . S
C858 Tb856 2.809 . S
C858 C859 1.514 . S
C858 O876 1.248 . S
C858 O877 1.266 . S
C859 C858 1.514 . S
C859 C860 1.359 . S
C859 C864 1.348 . S
C860 C859 1.359 . S
C860 C861 1.380 . S
C860 H888 0.929 . S
C861 C860 1.380 . S
C861 C862 1.347 . S
C861 H889 0.931 . S
C862 C861 1.347 . S
C862 C863 1.369 . S
C863 C862 1.369 . S
C863 C864 1.408 . S
C863 H890 0.930 . S
C864 C859 1.348 . S
C864 C863 1.408 . S
C864 H891 0.930 . S
C865 O878 1.281 . S
C865 O879 1.254 . S
C866 O880 1.236 . S
C866 O881 1.266 . S
C867 Tb857 2.809 . S
C867 C868 1.514 . S
C867 O882 1.248 . S
C867 O883 1.266 . S
C868 C867 1.514 . S
C868 C869 1.359 . S
C868 C873 1.348 . S
C869 C868 1.359 . S
C869 C870 1.380 . S
C869 H892 0.929 . S
C870 C869 1.380 . S
C870 C871 1.347 . S
C870 H893 0.931 . S
C871 C870 1.347 . S
C871 C872 1.369 . S
C872 C871 1.369 . S
C872 C873 1.408 . S
C872 H894 0.930 . S
C873 C868 1.348 . S
C873 C872 1.408 . S
C873 H895 0.930 . S
C874 O884 1.281 . S
C874 O885 1.254 . S
C875 O886 1.236 . S
C875 O887 1.266 . S
O876 Tb856 2.484 . S
O876 C858 1.248 . S
O877 Tb856 2.440 . S
O877 C858 1.266 . S
O878 Tb856 2.658 . S
O878 Tb857 2.325 . S
O878 C865 1.281 . S
O879 Tb856 2.409 . S
O879 C865 1.254 . S
O880 Tb856 2.378 . S
O880 C866 1.236 . S
O881 Tb857 2.341 . S
O881 C866 1.266 . S
O882 Tb857 2.484 . S
O882 C867 1.248 . S
O883 Tb857 2.440 . S
O883 C867 1.266 . S
O884 Tb856 2.325 . S
O884 Tb857 2.658 . S
O884 C874 1.281 . S
O885 Tb857 2.409 . S
O885 C874 1.254 . S
O886 Tb857 2.378 . S
O886 C875 1.236 . S
O887 Tb856 2.341 . S
O887 C875 1.266 . S
H888 C860 0.929 . S
H889 C861 0.931 . S
H890 C863 0.930 . S
H891 C864 0.930 . S
H892 C869 0.929 . S
H893 C870 0.931 . S
H894 C872 0.930 . S
H895 C873 0.930 . S
Tb896 C898 2.809 . S
Tb896 O916 2.484 . S
Tb896 O917 2.440 . S
Tb896 O918 2.658 . S
Tb896 O919 2.409 . S
Tb896 O920 2.378 . S
Tb896 O924 2.325 . S
Tb896 O927 2.341 . S
Tb897 C907 2.809 . S
Tb897 O918 2.325 . S
Tb897 O921 2.341 . S
Tb897 O922 2.484 . S
Tb897 O923 2.440 . S
Tb897 O924 2.658 . S
Tb897 O925 2.409 . S
Tb897 O926 2.378 . S
C898 Tb896 2.809 . S
C898 C899 1.514 . S
C898 O916 1.248 . S
C898 O917 1.266 . S
C899 C898 1.514 . S
C899 C900 1.359 . S
C899 C904 1.348 . S
C900 C899 1.359 . S
C900 C901 1.380 . S
C900 H928 0.929 . S
C901 C900 1.380 . S
C901 C902 1.347 . S
C901 H929 0.931 . S
C902 C901 1.347 . S
C902 C903 1.369 . S
C903 C902 1.369 . S
C903 C904 1.408 . S
C903 H930 0.930 . S
C904 C899 1.348 . S
C904 C903 1.408 . S
C904 H931 0.930 . S
C905 O918 1.281 . S
C905 O919 1.254 . S
C906 O920 1.236 . S
C906 O921 1.266 . S
C907 Tb897 2.809 . S
C907 C908 1.514 . S
C907 O922 1.248 . S
C907 O923 1.266 . S
C908 C907 1.514 . S
C908 C909 1.359 . S
C908 C913 1.348 . S
C909 C908 1.359 . S
C909 C910 1.380 . S
C909 H932 0.929 . S
C910 C909 1.380 . S
C910 C911 1.347 . S
C910 H933 0.931 . S
C911 C910 1.347 . S
C911 C912 1.369 . S
C912 C911 1.369 . S
C912 C913 1.408 . S
C912 H934 0.930 . S
C913 C908 1.348 . S
C913 C912 1.408 . S
C913 H935 0.930 . S
C914 O924 1.281 . S
C914 O925 1.254 . S
C915 O926 1.236 . S
C915 O927 1.266 . S
O916 Tb896 2.484 . S
O916 C898 1.248 . S
O917 Tb896 2.440 . S
O917 C898 1.266 . S
O918 Tb896 2.658 . S
O918 Tb897 2.325 . S
O918 C905 1.281 . S
O919 Tb896 2.409 . S
O919 C905 1.254 . S
O920 Tb896 2.378 . S
O920 C906 1.236 . S
O921 Tb897 2.341 . S
O921 C906 1.266 . S
O922 Tb897 2.484 . S
O922 C907 1.248 . S
O923 Tb897 2.440 . S
O923 C907 1.266 . S
O924 Tb896 2.325 . S
O924 Tb897 2.658 . S
O924 C914 1.281 . S
O925 Tb897 2.409 . S
O925 C914 1.254 . S
O926 Tb897 2.378 . S
O926 C915 1.236 . S
O927 Tb896 2.341 . S
O927 C915 1.266 . S
H928 C900 0.929 . S
H929 C901 0.931 . S
H930 C903 0.930 . S
H931 C904 0.930 . S
H932 C909 0.929 . S
H933 C910 0.931 . S
H934 C912 0.930 . S
H935 C913 0.930 . S
Tb936 C938 2.809 . S
Tb936 O956 2.484 . S
Tb936 O957 2.440 . S
Tb936 O958 2.658 . S
Tb936 O959 2.409 . S
Tb936 O960 2.378 . S
Tb936 O964 2.325 . S
Tb936 O967 2.341 . S
Tb937 C947 2.809 1_455 S
Tb937 O958 2.325 . S
Tb937 O961 2.341 . S
Tb937 O962 2.484 1_455 S
Tb937 O963 2.440 1_455 S
Tb937 O964 2.658 . S
Tb937 O965 2.409 . S
Tb937 O966 2.378 . S
C938 Tb936 2.809 . S
C938 C939 1.514 . S
C938 O956 1.248 . S
C938 O957 1.266 . S
C939 C938 1.514 . S
C939 C940 1.359 . S
C939 C944 1.348 . S
C940 C939 1.359 . S
C940 C941 1.380 . S
C940 H968 0.929 . S
C941 C940 1.380 . S
C941 C942 1.347 . S
C941 H969 0.931 . S
C942 C941 1.347 . S
C942 C943 1.369 . S
C943 C942 1.369 . S
C943 C944 1.408 . S
C943 H970 0.930 . S
C944 C939 1.348 . S
C944 C943 1.408 . S
C944 H971 0.930 . S
C945 O958 1.281 . S
C945 O959 1.254 . S
C946 O960 1.236 . S
C946 O961 1.266 . S
C947 Tb937 2.809 1_655 S
C947 C948 1.514 . S
C947 O962 1.248 . S
C947 O963 1.266 . S
C948 C947 1.514 . S
C948 C949 1.359 . S
C948 C953 1.348 . S
C949 C948 1.359 . S
C949 C950 1.380 . S
C949 H972 0.929 . S
C950 C949 1.380 . S
C950 C951 1.347 . S
C950 H973 0.931 . S
C951 C950 1.347 . S
C951 C952 1.369 . S
C952 C951 1.369 . S
C952 C953 1.408 . S
C952 H974 0.930 . S
C953 C948 1.348 . S
C953 C952 1.408 . S
C953 H975 0.930 . S
C954 O964 1.281 . S
C954 O965 1.254 . S
C955 O966 1.236 . S
C955 O967 1.266 . S
O956 Tb936 2.484 . S
O956 C938 1.248 . S
O957 Tb936 2.440 . S
O957 C938 1.266 . S
O958 Tb936 2.658 . S
O958 Tb937 2.325 . S
O958 C945 1.281 . S
O959 Tb936 2.409 . S
O959 C945 1.254 . S
O960 Tb936 2.378 . S
O960 C946 1.236 . S
O961 Tb937 2.341 . S
O961 C946 1.266 . S
O962 Tb937 2.484 1_655 S
O962 C947 1.248 . S
O963 Tb937 2.440 1_655 S
O963 C947 1.266 . S
O964 Tb936 2.325 . S
O964 Tb937 2.658 . S
O964 C954 1.281 . S
O965 Tb937 2.409 . S
O965 C954 1.254 . S
O966 Tb937 2.378 . S
O966 C955 1.236 . S
O967 Tb936 2.341 . S
O967 C955 1.266 . S
H968 C940 0.929 . S
H969 C941 0.931 . S
H970 C943 0.930 . S
H971 C944 0.930 . S
H972 C949 0.929 . S
H973 C950 0.931 . S
H974 C952 0.930 . S
H975 C953 0.930 . S
C976 C977 1.387 . S
C976 H980 0.950 1_455 S
C976 C985 1.390 . S
C977 C976 1.387 . S
C977 C979 1.387 . S
H978 C985 0.950 . S
C979 C977 1.387 . S
C979 C981 1.390 . S
C979 H983 0.950 . S
H980 C976 0.950 1_655 S
C981 C979 1.390 . S
C981 C982 1.387 . S
C981 H984 0.950 . S
C982 C981 1.387 . S
C982 C985 1.387 . S
H983 C979 0.950 . S
H984 C981 0.950 . S
C985 C976 1.390 . S
C985 H978 0.950 . S
C985 C982 1.387 . S
C986 C987 1.387 . S
C986 H990 0.950 . S
C986 C995 1.390 . S
C987 C986 1.387 . S
C987 C989 1.387 . S
H988 C995 0.950 . S
C989 C987 1.387 . S
C989 C991 1.390 . S
C989 H993 0.950 . S
H990 C986 0.950 . S
C991 C989 1.390 . S
C991 C992 1.387 . S
C991 H994 0.950 . S
C992 C991 1.387 . S
C992 C995 1.387 . S
H993 C989 0.950 . S
H994 C991 0.950 . S
C995 C986 1.390 . S
C995 H988 0.950 . S
C995 C992 1.387 . S
C996 C997 1.387 . S
C996 H1000 0.950 . S
C996 C1005 1.390 . S
C997 C996 1.387 . S
C997 C999 1.387 . S
H998 C1005 0.950 . S
C999 C997 1.387 . S
C999 C1001 1.390 . S
C999 H1003 0.950 . S
H1000 C996 0.950 . S
C1001 C999 1.390 . S
C1001 C1002 1.387 . S
C1001 H1004 0.950 . S
C1002 C1001 1.387 . S
C1002 C1005 1.387 . S
H1003 C999 0.950 . S
H1004 C1001 0.950 . S
C1005 C996 1.390 . S
C1005 H998 0.950 . S
C1005 C1002 1.387 . S
C1006 C1007 1.387 . S
C1006 H1010 0.950 . S
C1006 C1015 1.390 . S
C1007 C1006 1.387 . S
C1007 C1009 1.387 . S
H1008 C1015 0.950 . S
C1009 C1007 1.387 . S
C1009 C1011 1.390 . S
C1009 H1013 0.950 . S
H1010 C1006 0.950 . S
C1011 C1009 1.390 . S
C1011 C1012 1.387 . S
C1011 H1014 0.950 . S
C1012 C1011 1.387 . S
C1012 C1015 1.387 . S
H1013 C1009 0.950 . S
H1014 C1011 0.950 . S
C1015 C1006 1.390 . S
C1015 H1008 0.950 . S
C1015 C1012 1.387 . S
C1016 C1017 1.387 . S
C1016 H1020 0.950 . S
C1016 C1025 1.390 . S
C1017 C1016 1.387 . S
C1017 C1019 1.387 . S
H1018 C1025 0.950 . S
C1019 C1017 1.387 . S
C1019 C1021 1.390 . S
C1019 H1023 0.950 . S
H1020 C1016 0.950 . S
C1021 C1019 1.390 . S
C1021 C1022 1.387 . S
C1021 H1024 0.950 . S
C1022 C1021 1.387 . S
C1022 C1025 1.387 . S
H1023 C1019 0.950 . S
H1024 C1021 0.950 . S
C1025 C1016 1.390 . S
C1025 H1018 0.950 . S
C1025 C1022 1.387 . S
C1026 C1027 1.387 . S
C1026 H1030 0.950 . S
C1026 C1035 1.390 . S
C1027 C1026 1.387 . S
C1027 C1029 1.387 . S
H1028 C1035 0.950 . S
C1029 C1027 1.387 . S
C1029 C1031 1.390 . S
C1029 H1033 0.950 . S
H1030 C1026 0.950 . S
C1031 C1029 1.390 . S
C1031 C1032 1.387 . S
C1031 H1034 0.950 . S
C1032 C1031 1.387 . S
C1032 C1035 1.387 . S
H1033 C1029 0.950 . S
H1034 C1031 0.950 . S
C1035 C1026 1.390 . S
C1035 H1028 0.950 . S
C1035 C1032 1.387 . S
C1036 C1037 1.387 . S
C1036 H1040 0.950 . S
C1036 C1045 1.390 . S
C1037 C1036 1.387 . S
C1037 C1039 1.387 . S
H1038 C1045 0.950 . S
C1039 C1037 1.387 . S
C1039 C1041 1.390 . S
C1039 H1043 0.950 . S
H1040 C1036 0.950 . S
C1041 C1039 1.390 . S
C1041 C1042 1.387 . S
C1041 H1044 0.950 . S
C1042 C1041 1.387 . S
C1042 C1045 1.387 . S
H1043 C1039 0.950 . S
H1044 C1041 0.950 . S
C1045 C1036 1.390 . S
C1045 H1038 0.950 . S
C1045 C1042 1.387 . S
C1046 C1047 1.387 . S
C1046 H1050 0.950 . S
C1046 C1055 1.390 . S
C1047 C1046 1.387 . S
C1047 C1049 1.387 . S
H1048 C1055 0.950 . S
C1049 C1047 1.387 . S
C1049 C1051 1.390 . S
C1049 H1053 0.950 . S
H1050 C1046 0.950 . S
C1051 C1049 1.390 . S
C1051 C1052 1.387 . S
C1051 H1054 0.950 . S
C1052 C1051 1.387 . S
C1052 C1055 1.387 . S
H1053 C1049 0.950 . S
H1054 C1051 0.950 . S
C1055 C1046 1.390 . S
C1055 H1048 0.950 . S
C1055 C1052 1.387 . S
C1056 C1057 1.387 . S
C1056 H1060 0.950 . S
C1056 C1065 1.390 1_655 S
C1057 C1056 1.387 . S
C1057 C1059 1.387 1_545 S
H1058 C1065 0.950 . S
C1059 C1057 1.387 1_565 S
C1059 C1061 1.390 1_665 S
C1059 H1063 0.950 . S
H1060 C1056 0.950 . S
C1061 C1059 1.390 1_445 S
C1061 C1062 1.387 . S
C1061 H1064 0.950 1_545 S
C1062 C1061 1.387 . S
C1062 C1065 1.387 . S
H1063 C1059 0.950 . S
H1064 C1061 0.950 1_565 S
C1065 C1056 1.390 1_455 S
C1065 H1058 0.950 . S
C1065 C1062 1.387 . S
C1066 C1067 1.387 . S
C1066 H1070 0.950 . S
C1066 C1075 1.390 . S
C1067 C1066 1.387 . S
C1067 C1069 1.387 . S
H1068 C1075 0.950 . S
C1069 C1067 1.387 . S
C1069 C1071 1.390 . S
C1069 H1073 0.950 . S
H1070 C1066 0.950 . S
C1071 C1069 1.390 . S
C1071 C1072 1.387 . S
C1071 H1074 0.950 . S
C1072 C1071 1.387 . S
C1072 C1075 1.387 . S
H1073 C1069 0.950 . S
H1074 C1071 0.950 . S
C1075 C1066 1.390 . S
C1075 H1068 0.950 . S
C1075 C1072 1.387 . S
C1076 C1077 1.387 . S
C1076 H1080 0.950 1_545 S
C1076 C1085 1.390 . S
C1077 C1076 1.387 . S
C1077 C1079 1.387 . S
H1078 C1085 0.950 1_565 S
C1079 C1077 1.387 . S
C1079 C1081 1.390 . S
C1079 H1083 0.950 . S
H1080 C1076 0.950 1_565 S
C1081 C1079 1.390 . S
C1081 C1082 1.387 . S
C1081 H1084 0.950 . S
C1082 C1081 1.387 . S
C1082 C1085 1.387 . S
H1083 C1079 0.950 . S
H1084 C1081 0.950 . S
C1085 C1076 1.390 . S
C1085 H1078 0.950 1_545 S
C1085 C1082 1.387 . S
C1086 C1087 1.387 . S
C1086 H1090 0.950 . S
C1086 C1095 1.390 . S
C1087 C1086 1.387 . S
C1087 C1089 1.387 . S
H1088 C1095 0.950 . S
C1089 C1087 1.387 . S
C1089 C1091 1.390 . S
C1089 H1093 0.950 . S
H1090 C1086 0.950 . S
C1091 C1089 1.390 . S
C1091 C1092 1.387 . S
C1091 H1094 0.950 . S
C1092 C1091 1.387 . S
C1092 C1095 1.387 . S
H1093 C1089 0.950 . S
H1094 C1091 0.950 . S
C1095 C1086 1.390 . S
C1095 H1088 0.950 . S
C1095 C1092 1.387 . S
C1096 C1097 1.387 1_565 S
C1096 H1100 0.950 . S
C1096 C1105 1.390 1_665 S
C1097 C1096 1.387 1_545 S
C1097 C1099 1.387 . S
H1098 C1105 0.948 1_565 S
C1099 C1097 1.387 . S
C1099 C1101 1.388 1_655 S
C1099 H1103 0.950 . S
H1100 C1096 0.950 . S
C1101 C1099 1.388 1_455 S
C1101 C1102 1.393 . S
C1101 H1104 0.947 . S
C1102 C1101 1.393 . S
C1102 C1105 1.389 . S
H1103 C1099 0.950 . S
H1104 C1101 0.947 . S
C1105 C1096 1.390 1_445 S
C1105 H1098 0.948 1_545 S
C1105 C1102 1.389 . S
C1106 C1107 1.387 . S
C1106 H1110 0.950 . S
C1106 C1115 1.390 . S
C1107 C1106 1.387 . S
C1107 C1109 1.387 . S
H1108 C1115 0.950 . S
C1109 C1107 1.387 . S
C1109 C1111 1.390 . S
C1109 H1113 0.950 . S
H1110 C1106 0.950 . S
C1111 C1109 1.390 . S
C1111 C1112 1.387 . S
C1111 H1114 0.950 . S
C1112 C1111 1.387 . S
C1112 C1115 1.387 . S
H1113 C1109 0.950 . S
H1114 C1111 0.950 . S
C1115 C1106 1.390 . S
C1115 H1108 0.950 . S
C1115 C1112 1.387 . S
C1116 C1117 1.387 . S
C1116 H1120 0.950 . S
C1116 C1125 1.390 . S
C1117 C1116 1.387 . S
C1117 C1119 1.387 . S
H1118 C1125 0.933 1_554 S
C1119 C1117 1.387 . S
C1119 C1121 1.390 . S
C1119 H1123 0.950 . S
H1120 C1116 0.950 . S
C1121 C1119 1.390 . S
C1121 C1122 1.387 1_556 S
C1121 H1124 0.950 1_556 S
C1122 C1121 1.387 1_554 S
C1122 C1125 1.387 1_554 S
H1123 C1119 0.950 . S
H1124 C1121 0.950 1_554 S
C1125 C1116 1.390 . S
C1125 H1118 0.933 1_556 S
C1125 C1122 1.387 1_556 S
C1126 C1127 1.387 . S
C1126 H1130 0.950 . S
C1126 C1135 1.390 . S
C1127 C1126 1.387 . S
C1127 C1129 1.387 . S
H1128 C1135 0.950 . S
C1129 C1127 1.387 . S
C1129 C1131 1.390 . S
C1129 H1133 0.950 . S
H1130 C1126 0.950 . S
C1131 C1129 1.390 . S
C1131 C1132 1.387 . S
C1131 H1134 0.950 . S
C1132 C1131 1.387 . S
C1132 C1135 1.387 . S
H1133 C1129 0.950 . S
H1134 C1131 0.950 . S
C1135 C1126 1.390 . S
C1135 H1128 0.950 . S
C1135 C1132 1.387 . S
C1136 C1137 1.387 . S
C1136 H1140 0.950 . S
C1136 C1145 1.390 . S
C1137 C1136 1.387 . S
C1137 C1139 1.387 . S
H1138 C1145 0.950 . S
C1139 C1137 1.387 . S
C1139 C1141 1.390 . S
C1139 H1143 0.950 . S
H1140 C1136 0.950 . S
C1141 C1139 1.390 . S
C1141 C1142 1.387 . S
C1141 H1144 0.950 . S
C1142 C1141 1.387 . S
C1142 C1145 1.387 . S
H1143 C1139 0.950 . S
H1144 C1141 0.950 . S
C1145 C1136 1.390 . S
C1145 H1138 0.950 . S
C1145 C1142 1.387 . S
C1146 C1147 1.387 . S
C1146 H1150 0.950 . S
C1146 C1155 1.390 . S
C1147 C1146 1.387 . S
C1147 C1149 1.387 . S
H1148 C1155 0.950 . S
C1149 C1147 1.387 . S
C1149 C1151 1.390 . S
C1149 H1153 0.950 . S
H1150 C1146 0.950 . S
C1151 C1149 1.390 . S
C1151 C1152 1.387 . S
C1151 H1154 0.950 . S
C1152 C1151 1.387 . S
C1152 C1155 1.387 . S
H1153 C1149 0.950 . S
H1154 C1151 0.950 . S
C1155 C1146 1.390 . S
C1155 H1148 0.950 . S
C1155 C1152 1.387 . S
C1156 C1157 1.387 . S
C1156 H1160 0.950 . S
C1156 C1165 1.390 . S
C1157 C1156 1.387 . S
C1157 C1159 1.387 . S
H1158 C1165 0.950 . S
C1159 C1157 1.387 . S
C1159 C1161 1.390 . S
C1159 H1163 0.950 . S
H1160 C1156 0.950 . S
C1161 C1159 1.390 . S
C1161 C1162 1.387 . S
C1161 H1164 0.950 . S
C1162 C1161 1.387 . S
C1162 C1165 1.387 . S
H1163 C1159 0.950 . S
H1164 C1161 0.950 . S
C1165 C1156 1.390 . S
C1165 H1158 0.950 . S
C1165 C1162 1.387 . S
C1166 C1167 1.387 . S
C1166 H1170 0.950 . S
C1166 C1175 1.390 . S
C1167 C1166 1.387 . S
C1167 C1169 1.387 . S
H1168 C1175 0.950 . S
C1169 C1167 1.387 . S
C1169 C1171 1.390 . S
C1169 H1173 0.950 . S
H1170 C1166 0.950 . S
C1171 C1169 1.390 . S
C1171 C1172 1.387 . S
C1171 H1174 0.950 . S
C1172 C1171 1.387 . S
C1172 C1175 1.387 . S
H1173 C1169 0.950 . S
H1174 C1171 0.950 . S
C1175 C1166 1.390 . S
C1175 H1168 0.950 . S
C1175 C1172 1.387 . S
C1176 C1177 1.387 . S
C1176 H1180 0.950 . S
C1176 C1185 1.390 . S
C1177 C1176 1.387 . S
C1177 C1179 1.387 . S
H1178 C1185 0.950 . S
C1179 C1177 1.387 . S
C1179 C1181 1.390 . S
C1179 H1183 0.950 . S
H1180 C1176 0.950 . S
C1181 C1179 1.390 . S
C1181 C1182 1.387 . S
C1181 H1184 0.950 . S
C1182 C1181 1.387 . S
C1182 C1185 1.387 . S
H1183 C1179 0.950 . S
H1184 C1181 0.950 . S
C1185 C1176 1.390 . S
C1185 H1178 0.950 . S
C1185 C1182 1.387 . S
C1186 C1187 1.387 . S
C1186 H1190 0.950 . S
C1186 C1195 1.390 . S
C1187 C1186 1.387 . S
C1187 C1189 1.387 . S
H1188 C1195 0.950 . S
C1189 C1187 1.387 . S
C1189 C1191 1.390 . S
C1189 H1193 0.950 . S
H1190 C1186 0.950 . S
C1191 C1189 1.390 . S
C1191 C1192 1.387 . S
C1191 H1194 0.950 . S
C1192 C1191 1.387 . S
C1192 C1195 1.387 . S
H1193 C1189 0.950 . S
H1194 C1191 0.950 . S
C1195 C1186 1.390 . S
C1195 H1188 0.950 . S
C1195 C1192 1.387 . S
C1196 C1197 1.387 . S
C1196 H1200 0.950 . S
C1196 C1205 1.390 . S
C1197 C1196 1.387 . S
C1197 C1199 1.387 . S
H1198 C1205 0.950 . S
C1199 C1197 1.387 . S
C1199 C1201 1.390 . S
C1199 H1203 0.950 . S
H1200 C1196 0.950 . S
C1201 C1199 1.390 . S
C1201 C1202 1.387 . S
C1201 H1204 0.950 . S
C1202 C1201 1.387 . S
C1202 C1205 1.387 . S
H1203 C1199 0.950 . S
H1204 C1201 0.950 . S
C1205 C1196 1.390 . S
C1205 H1198 0.950 . S
C1205 C1202 1.387 . S
C1206 C1207 1.387 . S
C1206 H1210 0.950 . S
C1206 C1215 1.390 . S
C1207 C1206 1.387 . S
C1207 C1209 1.387 . S
H1208 C1215 0.950 . S
C1209 C1207 1.387 . S
C1209 C1211 1.390 . S
C1209 H1213 0.950 . S
H1210 C1206 0.950 . S
C1211 C1209 1.390 . S
C1211 C1212 1.387 . S
C1211 H1214 0.950 . S
C1212 C1211 1.387 . S
C1212 C1215 1.387 . S
H1213 C1209 0.950 . S
H1214 C1211 0.950 . S
C1215 C1206 1.390 . S
C1215 H1208 0.950 . S
C1215 C1212 1.387 . S
C1216 C1217 1.387 . S
C1216 H1220 0.950 . S
C1216 C1225 1.390 . S
C1217 C1216 1.387 . S
C1217 C1219 1.387 . S
H1218 C1225 0.950 . S
C1219 C1217 1.387 . S
C1219 C1221 1.390 . S
C1219 H1223 0.950 . S
H1220 C1216 0.950 . S
C1221 C1219 1.390 . S
C1221 C1222 1.387 . S
C1221 H1224 0.950 . S
C1222 C1221 1.387 . S
C1222 C1225 1.387 . S
H1223 C1219 0.950 . S
H1224 C1221 0.950 . S
C1225 C1216 1.390 . S
C1225 H1218 0.950 . S
C1225 C1222 1.387 . S
C1226 C1227 1.387 . S
C1226 H1230 0.950 . S
C1226 C1235 1.390 . S
C1227 C1226 1.387 . S
C1227 C1229 1.387 . S
H1228 C1235 0.950 . S
C1229 C1227 1.387 . S
C1229 C1231 1.390 . S
C1229 H1233 0.950 . S
H1230 C1226 0.950 . S
C1231 C1229 1.390 . S
C1231 C1232 1.387 . S
C1231 H1234 0.950 . S
C1232 C1231 1.387 . S
C1232 C1235 1.387 . S
H1233 C1229 0.950 . S
H1234 C1231 0.950 . S
C1235 C1226 1.390 . S
C1235 H1228 0.950 . S
C1235 C1232 1.387 . S
C1236 C1237 1.387 . S
C1236 H1240 0.950 . S
C1236 C1245 1.390 . S
C1237 C1236 1.387 . S
C1237 C1239 1.387 . S
H1238 C1245 0.950 . S
C1239 C1237 1.387 . S
C1239 C1241 1.390 . S
C1239 H1243 0.950 . S
H1240 C1236 0.950 . S
C1241 C1239 1.390 . S
C1241 C1242 1.387 . S
C1241 H1244 0.950 . S
C1242 C1241 1.387 . S
C1242 C1245 1.387 . S
H1243 C1239 0.950 . S
H1244 C1241 0.950 . S
C1245 C1236 1.390 . S
C1245 H1238 0.950 . S
C1245 C1242 1.387 . S
C1246 C1247 1.387 . S
C1246 H1250 0.950 . S
C1246 C1255 1.390 . S
C1247 C1246 1.387 . S
C1247 C1249 1.387 . S
H1248 C1255 0.950 . S
C1249 C1247 1.387 . S
C1249 C1251 1.390 . S
C1249 H1253 0.950 . S
H1250 C1246 0.950 . S
C1251 C1249 1.390 . S
C1251 C1252 1.387 . S
C1251 H1254 0.950 . S
C1252 C1251 1.387 . S
C1252 C1255 1.387 . S
H1253 C1249 0.950 . S
H1254 C1251 0.950 . S
C1255 C1246 1.390 . S
C1255 H1248 0.950 . S
C1255 C1252 1.387 . S
C1256 C1257 1.387 1_655 S
C1256 H1260 0.950 . S
C1256 C1265 1.390 . S
C1257 C1256 1.387 1_455 S
C1257 C1259 1.387 . S
H1258 C1265 0.950 . S
C1259 C1257 1.387 . S
C1259 C1261 1.390 . S
C1259 H1263 0.950 . S
H1260 C1256 0.950 . S
C1261 C1259 1.390 . S
C1261 C1262 1.387 1_455 S
C1261 H1264 0.950 . S
C1262 C1261 1.387 1_655 S
C1262 C1265 1.387 . S
H1263 C1259 0.950 . S
H1264 C1261 0.950 . S
C1265 C1256 1.390 . S
C1265 H1258 0.950 . S
C1265 C1262 1.387 . S
C1266 C1267 1.387 . S
C1266 H1270 0.950 . S
C1266 C1275 1.390 . S
C1267 C1266 1.387 . S
C1267 C1269 1.387 . S
H1268 C1275 0.950 . S
C1269 C1267 1.387 . S
C1269 C1271 1.390 . S
C1269 H1273 0.950 . S
H1270 C1266 0.950 . S
C1271 C1269 1.390 . S
C1271 C1272 1.387 . S
C1271 H1274 0.950 . S
C1272 C1271 1.387 . S
C1272 C1275 1.387 . S
H1273 C1269 0.950 . S
H1274 C1271 0.950 . S
C1275 C1266 1.390 . S
C1275 H1268 0.950 . S
C1275 C1272 1.387 . S
C1276 C1277 1.387 . S
C1276 H1280 0.950 . S
C1276 C1285 1.390 1_556 S
C1277 C1276 1.387 . S
C1277 C1279 1.387 1_556 S
H1278 C1285 0.950 . S
C1279 C1277 1.387 1_554 S
C1279 C1281 1.390 . S
C1279 H1283 0.950 . S
H1280 C1276 0.950 . S
C1281 C1279 1.390 . S
C1281 C1282 1.387 . S
C1281 H1284 0.950 . S
C1282 C1281 1.387 . S
C1282 C1285 1.387 . S
H1283 C1279 0.950 . S
H1284 C1281 0.950 . S
C1285 C1276 1.390 1_554 S
C1285 H1278 0.950 . S
C1285 C1282 1.387 . S
C1286 C1287 1.387 . S
C1286 H1290 0.950 . S
C1286 C1295 1.390 1_455 S
C1287 C1286 1.387 . S
C1287 C1289 1.387 . S
H1288 C1295 0.950 . S
C1289 C1287 1.387 . S
C1289 C1291 1.390 1_455 S
C1289 H1293 0.950 . S
H1290 C1286 0.950 . S
C1291 C1289 1.390 1_655 S
C1291 C1292 1.387 . S
C1291 H1294 0.950 . S
C1292 C1291 1.387 . S
C1292 C1295 1.387 . S
H1293 C1289 0.950 . S
H1294 C1291 0.950 . S
C1295 C1286 1.390 1_655 S
C1295 H1288 0.950 . S
C1295 C1292 1.387 . S
C1296 C1297 1.387 . S
C1296 H1300 0.950 . S
C1296 C1305 1.390 . S
C1297 C1296 1.387 . S
C1297 C1299 1.387 . S
H1298 C1305 0.950 . S
C1299 C1297 1.387 . S
C1299 C1301 1.390 . S
C1299 H1303 0.950 . S
H1300 C1296 0.950 . S
C1301 C1299 1.390 . S
C1301 C1302 1.387 . S
C1301 H1304 0.950 . S
C1302 C1301 1.387 . S
C1302 C1305 1.387 . S
H1303 C1299 0.950 . S
H1304 C1301 0.950 . S
C1305 C1296 1.390 . S
C1305 H1298 0.950 . S
C1305 C1302 1.387 . S
C1306 C1307 1.387 . S
C1306 H1310 0.950 . S
C1306 C1315 1.390 . S
C1307 C1306 1.387 . S
C1307 C1309 1.387 . S
H1308 C1315 0.950 . S
C1309 C1307 1.387 . S
C1309 C1311 1.390 . S
C1309 H1313 0.950 . S
H1310 C1306 0.950 . S
C1311 C1309 1.390 . S
C1311 C1312 1.387 . S
C1311 H1314 0.950 . S
C1312 C1311 1.387 . S
C1312 C1315 1.387 . S
H1313 C1309 0.950 . S
H1314 C1311 0.950 . S
C1315 C1306 1.390 . S
C1315 H1308 0.950 . S
C1315 C1312 1.387 . S
C1316 C1317 1.387 . S
C1316 H1320 0.974 . S
C1316 C1325 1.390 . S
C1317 C1316 1.387 . S
C1317 C1319 1.387 . S
H1318 C1325 0.950 1_565 S
C1319 C1317 1.387 . S
C1319 C1321 1.390 . S
C1319 H1323 0.950 . S
H1320 C1316 0.974 . S
C1321 C1319 1.390 . S
C1321 C1322 1.387 . S
C1321 H1324 0.950 . S
C1322 C1321 1.387 . S
C1322 C1325 1.387 . S
H1323 C1319 0.950 . S
H1324 C1321 0.950 . S
C1325 C1316 1.390 . S
C1325 H1318 0.950 1_545 S
C1325 C1322 1.387 . S
C1326 C1327 1.387 . S
C1326 H1330 0.950 . S
C1326 C1335 1.390 . S
C1327 C1326 1.387 . S
C1327 C1329 1.387 . S
H1328 C1335 0.950 . S
C1329 C1327 1.387 . S
C1329 C1331 1.390 . S
C1329 H1333 0.950 . S
H1330 C1326 0.950 . S
C1331 C1329 1.390 . S
C1331 C1332 1.387 . S
C1331 H1334 0.950 . S
C1332 C1331 1.387 . S
C1332 C1335 1.387 . S
H1333 C1329 0.950 . S
H1334 C1331 0.950 . S
C1335 C1326 1.390 . S
C1335 H1328 0.950 . S
C1335 C1332 1.387 . S
C1336 C1337 1.387 . S
C1336 H1340 0.950 . S
C1336 C1345 1.390 . S
C1337 C1336 1.387 . S
C1337 C1339 1.387 . S
H1338 C1345 0.950 . S
C1339 C1337 1.387 . S
C1339 C1341 1.390 . S
C1339 H1343 0.950 . S
H1340 C1336 0.950 . S
C1341 C1339 1.390 . S
C1341 C1342 1.387 . S
C1341 H1344 0.950 . S
C1342 C1341 1.387 . S
C1342 C1345 1.387 . S
H1343 C1339 0.950 . S
H1344 C1341 0.950 . S
C1345 C1336 1.390 . S
C1345 H1338 0.950 . S
C1345 C1342 1.387 . S
C1346 C1347 1.387 . S
C1346 H1350 0.950 . S
C1346 C1355 1.390 . S
C1347 C1346 1.387 . S
C1347 C1349 1.387 . S
H1348 C1355 0.950 . S
C1349 C1347 1.387 . S
C1349 C1351 1.390 . S
C1349 H1353 0.950 . S
H1350 C1346 0.950 . S
C1351 C1349 1.390 . S
C1351 C1352 1.387 . S
C1351 H1354 0.950 . S
C1352 C1351 1.387 . S
C1352 C1355 1.387 . S
H1353 C1349 0.950 . S
H1354 C1351 0.950 . S
C1355 C1346 1.390 . S
C1355 H1348 0.950 . S
C1355 C1352 1.387 . S
C1356 C1357 1.387 . S
C1356 H1360 0.950 1_545 S
C1356 C1365 1.390 1_545 S
C1357 C1356 1.387 . S
C1357 C1359 1.387 . S
H1358 C1365 0.950 . S
C1359 C1357 1.387 . S
C1359 C1361 1.390 . S
C1359 H1363 0.950 . S
H1360 C1356 0.950 1_565 S
C1361 C1359 1.390 . S
C1361 C1362 1.387 . S
C1361 H1364 0.950 . S
C1362 C1361 1.387 . S
C1362 C1365 1.387 1_545 S
H1363 C1359 0.950 . S
H1364 C1361 0.950 . S
C1365 C1356 1.390 1_565 S
C1365 H1358 0.950 . S
C1365 C1362 1.387 1_565 S
C1366 C1367 1.387 . S
C1366 H1370 0.950 1_556 S
C1366 C1375 1.390 . S
C1367 C1366 1.387 . S
C1367 C1369 1.387 . S
H1368 C1375 0.950 . S
C1369 C1367 1.387 . S
C1369 C1371 1.390 . S
C1369 H1373 0.950 . S
H1370 C1366 0.950 1_554 S
C1371 C1369 1.390 . S
C1371 C1372 1.387 . S
C1371 H1374 0.950 . S
C1372 C1371 1.387 . S
C1372 C1375 1.387 . S
H1373 C1369 0.950 . S
H1374 C1371 0.950 . S
C1375 C1366 1.390 . S
C1375 H1368 0.950 . S
C1375 C1372 1.387 . S
C1376 C1377 1.387 . S
C1376 H1380 0.950 . S
C1376 C1385 1.390 . S
C1377 C1376 1.387 . S
C1377 C1379 1.387 . S
H1378 C1385 0.950 . S
C1379 C1377 1.387 . S
C1379 C1381 1.390 . S
C1379 H1383 0.950 . S
H1380 C1376 0.950 . S
C1381 C1379 1.390 . S
C1381 C1382 1.387 . S
C1381 H1384 0.950 . S
C1382 C1381 1.387 . S
C1382 C1385 1.387 . S
H1383 C1379 0.950 . S
H1384 C1381 0.950 . S
C1385 C1376 1.390 . S
C1385 H1378 0.950 . S
C1385 C1382 1.387 . S
C1386 C1387 1.387 . S
C1386 H1390 0.950 . S
C1386 C1395 1.390 . S
C1387 C1386 1.387 . S
C1387 C1389 1.387 . S
H1388 C1395 0.950 . S
C1389 C1387 1.387 . S
C1389 C1391 1.390 . S
C1389 H1393 0.950 . S
H1390 C1386 0.950 . S
C1391 C1389 1.390 . S
C1391 C1392 1.387 . S
C1391 H1394 0.950 . S
C1392 C1391 1.387 . S
C1392 C1395 1.387 . S
H1393 C1389 0.950 . S
H1394 C1391 0.950 . S
C1395 C1386 1.390 . S
C1395 H1388 0.950 . S
C1395 C1392 1.387 . S
C1396 C1397 1.387 . S
C1396 H1400 0.950 . S
C1396 C1405 1.390 . S
C1397 C1396 1.387 . S
C1397 C1399 1.387 . S
H1398 C1405 0.950 . S
C1399 C1397 1.387 . S
C1399 C1401 1.390 . S
C1399 H1403 0.950 . S
H1400 C1396 0.950 . S
C1401 C1399 1.390 . S
C1401 C1402 1.387 . S
C1401 H1404 0.950 . S
C1402 C1401 1.387 . S
C1402 C1405 1.387 . S
H1403 C1399 0.950 . S
H1404 C1401 0.950 . S
C1405 C1396 1.390 . S
C1405 H1398 0.950 . S
C1405 C1402 1.387 . S
C1406 C1407 1.387 . S
C1406 H1410 0.950 . S
C1406 C1415 1.390 . S
C1407 C1406 1.387 . S
C1407 C1409 1.387 . S
H1408 C1415 0.950 . S
C1409 C1407 1.387 . S
C1409 C1411 1.390 . S
C1409 H1413 0.950 . S
H1410 C1406 0.950 . S
C1411 C1409 1.390 . S
C1411 C1412 1.387 . S
C1411 H1414 0.950 . S
C1412 C1411 1.387 . S
C1412 C1415 1.387 . S
H1413 C1409 0.950 . S
H1414 C1411 0.950 . S
C1415 C1406 1.390 . S
C1415 H1408 0.950 . S
C1415 C1412 1.387 . S
C1416 C1417 1.387 . S
C1416 H1420 0.950 . S
C1416 C1425 1.390 . S
C1417 C1416 1.387 . S
C1417 C1419 1.387 . S
H1418 C1425 0.950 . S
C1419 C1417 1.387 . S
C1419 C1421 1.390 . S
C1419 H1423 0.950 . S
H1420 C1416 0.950 . S
C1421 C1419 1.390 . S
C1421 C1422 1.387 . S
C1421 H1424 0.950 . S
C1422 C1421 1.387 . S
C1422 C1425 1.387 . S
H1423 C1419 0.950 . S
H1424 C1421 0.950 . S
C1425 C1416 1.390 . S
C1425 H1418 0.950 . S
C1425 C1422 1.387 . S
C1426 C1427 1.387 . S
C1426 H1430 0.950 . S
C1426 C1435 1.390 . S
C1427 C1426 1.387 . S
C1427 C1429 1.387 . S
H1428 C1435 0.950 . S
C1429 C1427 1.387 . S
C1429 C1431 1.390 . S
C1429 H1433 0.950 . S
H1430 C1426 0.950 . S
C1431 C1429 1.390 . S
C1431 C1432 1.387 . S
C1431 H1434 0.950 . S
C1432 C1431 1.387 . S
C1432 C1435 1.387 . S
H1433 C1429 0.950 . S
H1434 C1431 0.950 . S
C1435 C1426 1.390 . S
C1435 H1428 0.950 . S
C1435 C1432 1.387 . S
C1436 C1437 1.387 . S
C1436 H1440 0.950 . S
C1436 C1445 1.390 . S
C1437 C1436 1.387 . S
C1437 C1439 1.387 . S
H1438 C1445 0.950 . S
C1439 C1437 1.387 . S
C1439 C1441 1.390 . S
C1439 H1443 0.950 . S
H1440 C1436 0.950 . S
C1441 C1439 1.390 . S
C1441 C1442 1.387 . S
C1441 H1444 0.950 . S
C1442 C1441 1.387 . S
C1442 C1445 1.387 . S
H1443 C1439 0.950 . S
H1444 C1441 0.950 . S
C1445 C1436 1.390 . S
C1445 H1438 0.950 . S
C1445 C1442 1.387 . S
C1446 C1447 1.387 . S
C1446 H1450 0.950 . S
C1446 C1455 1.390 . S
C1447 C1446 1.387 . S
C1447 C1449 1.387 . S
H1448 C1455 0.950 . S
C1449 C1447 1.387 . S
C1449 C1451 1.390 . S
C1449 H1453 0.950 . S
H1450 C1446 0.950 . S
C1451 C1449 1.390 . S
C1451 C1452 1.387 . S
C1451 H1454 0.950 . S
C1452 C1451 1.387 . S
C1452 C1455 1.387 . S
H1453 C1449 0.950 . S
H1454 C1451 0.950 . S
C1455 C1446 1.390 . S
C1455 H1448 0.950 . S
C1455 C1452 1.387 . S
C1456 C1457 1.387 . S
C1456 H1460 0.950 . S
C1456 C1465 1.390 . S
C1457 C1456 1.387 . S
C1457 C1459 1.387 . S
H1458 C1465 0.950 . S
C1459 C1457 1.387 . S
C1459 C1461 1.390 . S
C1459 H1463 0.950 . S
H1460 C1456 0.950 . S
C1461 C1459 1.390 . S
C1461 C1462 1.387 . S
C1461 H1464 0.950 . S
C1462 C1461 1.387 . S
C1462 C1465 1.387 . S
H1463 C1459 0.950 . S
H1464 C1461 0.950 . S
C1465 C1456 1.390 . S
C1465 H1458 0.950 . S
C1465 C1462 1.387 . S
C1466 C1467 1.387 . S
C1466 H1470 0.950 . S
C1466 C1475 1.390 . S
C1467 C1466 1.387 . S
C1467 C1469 1.387 . S
H1468 C1475 0.950 . S
C1469 C1467 1.387 . S
C1469 C1471 1.390 . S
C1469 H1473 0.950 . S
H1470 C1466 0.950 . S
C1471 C1469 1.390 . S
C1471 C1472 1.387 . S
C1471 H1474 0.950 . S
C1472 C1471 1.387 . S
C1472 C1475 1.387 . S
H1473 C1469 0.950 . S
H1474 C1471 0.950 . S
C1475 C1466 1.390 . S
C1475 H1468 0.950 . S
C1475 C1472 1.387 . S
C1476 C1477 1.387 . S
C1476 H1480 0.950 1_455 S
C1476 C1485 1.390 . S
C1477 C1476 1.387 . S
C1477 C1479 1.387 . S
H1478 C1485 0.950 . S
C1479 C1477 1.387 . S
C1479 C1481 1.390 . S
C1479 H1483 0.950 . S
H1480 C1476 0.950 1_655 S
C1481 C1479 1.390 . S
C1481 C1482 1.387 . S
C1481 H1484 0.950 . S
C1482 C1481 1.387 . S
C1482 C1485 1.387 . S
H1483 C1479 0.950 . S
H1484 C1481 0.950 . S
C1485 C1476 1.390 . S
C1485 H1478 0.950 . S
C1485 C1482 1.387 . S
C1486 C1487 1.387 . S
C1486 H1490 0.950 . S
C1486 C1495 1.390 . S
C1487 C1486 1.387 . S
C1487 C1489 1.387 . S
H1488 C1495 0.950 . S
C1489 C1487 1.387 . S
C1489 C1491 1.390 . S
C1489 H1493 0.950 1_655 S
H1490 C1486 0.950 . S
C1491 C1489 1.390 . S
C1491 C1492 1.387 . S
C1491 H1494 0.950 . S
C1492 C1491 1.387 . S
C1492 C1495 1.387 . S
H1493 C1489 0.950 1_455 S
H1494 C1491 0.950 . S
C1495 C1486 1.390 . S
C1495 H1488 0.950 . S
C1495 C1492 1.387 . S
C1496 C1497 1.387 . S
C1496 H1500 0.950 . S
C1496 C1505 1.390 . S
C1497 C1496 1.387 . S
C1497 C1499 1.387 . S
H1498 C1505 0.950 . S
C1499 C1497 1.387 . S
C1499 C1501 1.390 . S
C1499 H1503 0.950 . S
H1500 C1496 0.950 . S
C1501 C1499 1.390 . S
C1501 C1502 1.387 . S
C1501 H1504 0.950 . S
C1502 C1501 1.387 . S
C1502 C1505 1.387 . S
H1503 C1499 0.950 . S
H1504 C1501 0.950 . S
C1505 C1496 1.390 . S
C1505 H1498 0.950 . S
C1505 C1502 1.387 . S
C1506 C1507 1.387 . S
C1506 H1510 0.950 . S
C1506 C1515 1.390 . S
C1507 C1506 1.387 . S
C1507 C1509 1.387 . S
H1508 C1515 0.950 . S
C1509 C1507 1.387 . S
C1509 C1511 1.390 . S
C1509 H1513 0.950 . S
H1510 C1506 0.950 . S
C1511 C1509 1.390 . S
C1511 C1512 1.387 . S
C1511 H1514 0.950 . S
C1512 C1511 1.387 . S
C1512 C1515 1.387 . S
H1513 C1509 0.950 . S
H1514 C1511 0.950 . S
C1515 C1506 1.390 . S
C1515 H1508 0.950 . S
C1515 C1512 1.387 . S
C1516 C1517 1.387 . S
C1516 H1520 0.950 . S
C1516 C1525 1.390 . S
C1517 C1516 1.387 . S
C1517 C1519 1.387 . S
H1518 C1525 0.950 . S
C1519 C1517 1.387 . S
C1519 C1521 1.390 . S
C1519 H1523 0.950 . S
H1520 C1516 0.950 . S
C1521 C1519 1.390 . S
C1521 C1522 1.387 . S
C1521 H1524 0.950 . S
C1522 C1521 1.387 . S
C1522 C1525 1.387 . S
H1523 C1519 0.950 . S
H1524 C1521 0.950 . S
C1525 C1516 1.390 . S
C1525 H1518 0.950 . S
C1525 C1522 1.387 . S
C1526 C1527 1.387 . S
C1526 H1530 0.950 . S
C1526 C1535 1.390 . S
C1527 C1526 1.387 . S
C1527 C1529 1.387 . S
H1528 C1535 0.950 . S
C1529 C1527 1.387 . S
C1529 C1531 1.390 . S
C1529 H1533 0.950 . S
H1530 C1526 0.950 . S
C1531 C1529 1.390 . S
C1531 C1532 1.387 . S
C1531 H1534 0.950 . S
C1532 C1531 1.387 . S
C1532 C1535 1.387 . S
H1533 C1529 0.950 . S
H1534 C1531 0.950 . S
C1535 C1526 1.390 . S
C1535 H1528 0.950 . S
C1535 C1532 1.387 . S
C1536 C1537 1.387 . S
C1536 H1540 0.950 . S
C1536 C1545 1.390 . S
C1537 C1536 1.387 . S
C1537 C1539 1.387 . S
H1538 C1545 0.950 . S
C1539 C1537 1.387 . S
C1539 C1541 1.390 . S
C1539 H1543 0.950 . S
H1540 C1536 0.950 . S
C1541 C1539 1.390 . S
C1541 C1542 1.387 . S
C1541 H1544 0.950 . S
C1542 C1541 1.387 . S
C1542 C1545 1.387 . S
H1543 C1539 0.950 . S
H1544 C1541 0.950 . S
C1545 C1536 1.390 . S
C1545 H1538 0.950 . S
C1545 C1542 1.387 . S
C1546 C1547 1.387 . S
C1546 H1550 0.950 . S
C1546 C1555 1.390 . S
C1547 C1546 1.387 . S
C1547 C1549 1.387 . S
H1548 C1555 0.950 . S
C1549 C1547 1.387 . S
C1549 C1551 1.390 . S
C1549 H1553 0.950 . S
H1550 C1546 0.950 . S
C1551 C1549 1.390 . S
C1551 C1552 1.387 . S
C1551 H1554 0.950 . S
C1552 C1551 1.387 . S
C1552 C1555 1.387 . S
H1553 C1549 0.950 . S
H1554 C1551 0.950 . S
C1555 C1546 1.390 . S
C1555 H1548 0.950 . S
C1555 C1552 1.387 . S
C1556 C1557 1.387 . S
C1556 H1560 0.950 . S
C1556 C1565 1.390 . S
C1557 C1556 1.387 . S
C1557 C1559 1.387 . S
H1558 C1565 0.950 . S
C1559 C1557 1.387 . S
C1559 C1561 1.390 . S
C1559 H1563 0.950 . S
H1560 C1556 0.950 . S
C1561 C1559 1.390 . S
C1561 C1562 1.387 . S
C1561 H1564 0.950 . S
C1562 C1561 1.387 . S
C1562 C1565 1.387 . S
H1563 C1559 0.950 . S
H1564 C1561 0.950 . S
C1565 C1556 1.390 . S
C1565 H1558 0.950 . S
C1565 C1562 1.387 . S
C1566 C1567 1.387 . S
C1566 H1570 0.950 . S
C1566 C1575 1.390 . S
C1567 C1566 1.387 . S
C1567 C1569 1.387 . S
H1568 C1575 0.950 . S
C1569 C1567 1.387 . S
C1569 C1571 1.390 . S
C1569 H1573 0.950 . S
H1570 C1566 0.950 . S
C1571 C1569 1.390 . S
C1571 C1572 1.387 . S
C1571 H1574 0.950 . S
C1572 C1571 1.387 . S
C1572 C1575 1.387 . S
H1573 C1569 0.950 . S
H1574 C1571 0.950 . S
C1575 C1566 1.390 . S
C1575 H1568 0.950 . S
C1575 C1572 1.387 . S
C1576 C1577 1.387 . S
C1576 H1580 0.950 . S
C1576 C1585 1.390 . S
C1577 C1576 1.387 . S
C1577 C1579 1.387 . S
H1578 C1585 0.950 . S
C1579 C1577 1.387 . S
C1579 C1581 1.390 . S
C1579 H1583 0.950 . S
H1580 C1576 0.950 . S
C1581 C1579 1.390 . S
C1581 C1582 1.387 . S
C1581 H1584 0.950 . S
C1582 C1581 1.387 . S
C1582 C1585 1.387 . S
H1583 C1579 0.950 . S
H1584 C1581 0.950 . S
C1585 C1576 1.390 . S
C1585 H1578 0.950 . S
C1585 C1582 1.387 . S
C1586 C1587 1.387 . S
C1586 H1590 0.950 . S
C1586 C1595 1.390 . S
C1587 C1586 1.387 . S
C1587 C1589 1.387 . S
H1588 C1595 0.950 . S
C1589 C1587 1.387 . S
C1589 C1591 1.390 . S
C1589 H1593 0.950 . S
H1590 C1586 0.950 . S
C1591 C1589 1.390 . S
C1591 C1592 1.387 . S
C1591 H1594 0.950 . S
C1592 C1591 1.387 . S
C1592 C1595 1.387 . S
H1593 C1589 0.950 . S
H1594 C1591 0.950 . S
C1595 C1586 1.390 . S
C1595 H1588 0.950 . S
C1595 C1592 1.387 . S
C1596 C1597 1.387 . S
C1596 H1600 0.950 . S
C1596 C1605 1.390 . S
C1597 C1596 1.387 . S
C1597 C1599 1.387 . S
H1598 C1605 0.950 . S
C1599 C1597 1.387 . S
C1599 C1601 1.390 . S
C1599 H1603 0.950 . S
H1600 C1596 0.950 . S
C1601 C1599 1.390 . S
C1601 C1602 1.387 . S
C1601 H1604 0.950 . S
C1602 C1601 1.387 . S
C1602 C1605 1.387 . S
H1603 C1599 0.950 . S
H1604 C1601 0.950 . S
C1605 C1596 1.390 . S
C1605 H1598 0.950 . S
C1605 C1602 1.387 . S
C1606 C1607 1.387 . S
C1606 H1610 0.950 . S
C1606 C1615 1.390 . S
C1607 C1606 1.387 . S
C1607 C1609 1.387 . S
H1608 C1615 0.950 . S
C1609 C1607 1.387 . S
C1609 C1611 1.390 . S
C1609 H1613 0.950 . S
H1610 C1606 0.950 . S
C1611 C1609 1.390 . S
C1611 C1612 1.387 . S
C1611 H1614 0.950 . S
C1612 C1611 1.387 . S
C1612 C1615 1.387 . S
H1613 C1609 0.950 . S
H1614 C1611 0.950 . S
C1615 C1606 1.390 . S
C1615 H1608 0.950 . S
C1615 C1612 1.387 . S
C1616 C1617 1.387 . S
C1616 H1620 0.950 . S
C1616 C1625 1.390 . S
C1617 C1616 1.387 . S
C1617 C1619 1.387 . S
H1618 C1625 0.950 . S
C1619 C1617 1.387 . S
C1619 C1621 1.390 . S
C1619 H1623 0.950 . S
H1620 C1616 0.950 . S
C1621 C1619 1.390 . S
C1621 C1622 1.387 . S
C1621 H1624 0.950 . S
C1622 C1621 1.387 . S
C1622 C1625 1.387 . S
H1623 C1619 0.950 . S
H1624 C1621 0.950 . S
C1625 C1616 1.390 . S
C1625 H1618 0.950 . S
C1625 C1622 1.387 . S
C1626 C1627 1.387 . S
C1626 H1630 0.950 . S
C1626 C1635 1.390 . S
C1627 C1626 1.387 . S
C1627 C1629 1.387 . S
H1628 C1635 0.950 . S
C1629 C1627 1.387 . S
C1629 C1631 1.390 . S
C1629 H1633 0.950 . S
H1630 C1626 0.950 . S
C1631 C1629 1.390 . S
C1631 C1632 1.387 . S
C1631 H1634 0.950 . S
C1632 C1631 1.387 . S
C1632 C1635 1.387 . S
H1633 C1629 0.950 . S
H1634 C1631 0.950 . S
C1635 C1626 1.390 . S
C1635 H1628 0.950 . S
C1635 C1632 1.387 . S
C1636 C1637 1.387 . S
C1636 H1640 0.950 . S
C1636 C1645 1.390 . S
C1637 C1636 1.387 . S
C1637 C1639 1.387 . S
H1638 C1645 0.950 . S
C1639 C1637 1.387 . S
C1639 C1641 1.390 . S
C1639 H1643 0.950 1_565 S
H1640 C1636 0.950 . S
C1641 C1639 1.390 . S
C1641 C1642 1.387 . S
C1641 H1644 0.950 . S
C1642 C1641 1.387 . S
C1642 C1645 1.387 . S
H1643 C1639 0.950 1_545 S
H1644 C1641 0.950 . S
C1645 C1636 1.390 . S
C1645 H1638 0.950 . S
C1645 C1642 1.387 . S
C1646 C1647 1.387 1_556 S
C1646 H1650 0.950 . S
C1646 C1655 1.390 1_556 S
C1647 C1646 1.387 1_554 S
C1647 C1649 1.387 . S
H1648 C1655 0.950 1_556 S
C1649 C1647 1.387 . S
C1649 C1651 1.390 . S
C1649 H1653 0.950 . S
H1650 C1646 0.950 . S
C1651 C1649 1.390 . S
C1651 C1652 1.387 . S
C1651 H1654 0.950 . S
C1652 C1651 1.387 . S
C1652 C1655 1.387 . S
H1653 C1649 0.950 . S
H1654 C1651 0.950 . S
C1655 C1646 1.390 1_554 S
C1655 H1648 0.950 1_554 S
C1655 C1652 1.387 . S
C1656 C1657 1.387 . S
C1656 H1660 0.950 . S
C1656 C1665 1.390 . S
C1657 C1656 1.387 . S
C1657 C1659 1.387 . S
H1658 C1665 0.950 . S
C1659 C1657 1.387 . S
C1659 C1661 1.390 . S
C1659 H1663 0.950 . S
H1660 C1656 0.950 . S
C1661 C1659 1.390 . S
C1661 C1662 1.387 . S
C1661 H1664 0.950 . S
C1662 C1661 1.387 . S
C1662 C1665 1.387 . S
H1663 C1659 0.950 . S
H1664 C1661 0.950 . S
C1665 C1656 1.390 . S
C1665 H1658 0.950 . S
C1665 C1662 1.387 . S
C1666 C1667 1.387 . S
C1666 H1670 0.950 . S
C1666 C1675 1.390 . S
C1667 C1666 1.387 . S
C1667 C1669 1.387 . S
H1668 C1675 0.950 . S
C1669 C1667 1.387 . S
C1669 C1671 1.390 . S
C1669 H1673 0.950 . S
H1670 C1666 0.950 . S
C1671 C1669 1.390 . S
C1671 C1672 1.387 . S
C1671 H1674 0.950 . S
C1672 C1671 1.387 . S
C1672 C1675 1.387 . S
H1673 C1669 0.950 . S
H1674 C1671 0.950 . S
C1675 C1666 1.390 . S
C1675 H1668 0.950 . S
C1675 C1672 1.387 . S
C1676 C1677 1.387 . S
C1676 H1680 0.950 . S
C1676 C1685 1.390 . S
C1677 C1676 1.387 . S
C1677 C1679 1.387 . S
H1678 C1685 0.950 . S
C1679 C1677 1.387 . S
C1679 C1681 1.390 . S
C1679 H1683 0.950 . S
H1680 C1676 0.950 . S
C1681 C1679 1.390 . S
C1681 C1682 1.387 . S
C1681 H1684 0.950 . S
C1682 C1681 1.387 . S
C1682 C1685 1.387 . S
H1683 C1679 0.950 . S
H1684 C1681 0.950 . S
C1685 C1676 1.390 . S
C1685 H1678 0.950 . S
C1685 C1682 1.387 . S
C1686 C1687 1.387 . S
C1686 H1690 0.950 . S
C1686 C1695 1.390 . S
C1687 C1686 1.387 . S
C1687 C1689 1.387 . S
H1688 C1695 0.950 . S
C1689 C1687 1.387 . S
C1689 C1691 1.390 . S
C1689 H1693 0.950 . S
H1690 C1686 0.950 . S
C1691 C1689 1.390 . S
C1691 C1692 1.387 . S
C1691 H1694 0.950 . S
C1692 C1691 1.387 . S
C1692 C1695 1.387 . S
H1693 C1689 0.950 . S
H1694 C1691 0.950 . S
C1695 C1686 1.390 . S
C1695 H1688 0.950 . S
C1695 C1692 1.387 . S
C1696 C1697 1.387 . S
C1696 H1700 0.950 . S
C1696 C1705 1.390 . S
C1697 C1696 1.387 . S
C1697 C1699 1.387 . S
H1698 C1705 0.950 . S
C1699 C1697 1.387 . S
C1699 C1701 1.390 . S
C1699 H1703 0.950 . S
H1700 C1696 0.950 . S
C1701 C1699 1.390 . S
C1701 C1702 1.387 . S
C1701 H1704 0.950 . S
C1702 C1701 1.387 . S
C1702 C1705 1.387 . S
H1703 C1699 0.950 . S
H1704 C1701 0.950 . S
C1705 C1696 1.390 . S
C1705 H1698 0.950 . S
C1705 C1702 1.387 . S
C1706 C1707 1.387 . S
C1706 H1710 0.950 . S
C1706 C1715 1.390 . S
C1707 C1706 1.387 . S
C1707 C1709 1.387 . S
H1708 C1715 0.950 . S
C1709 C1707 1.387 . S
C1709 C1711 1.390 . S
C1709 H1713 0.950 . S
H1710 C1706 0.950 . S
C1711 C1709 1.390 . S
C1711 C1712 1.387 . S
C1711 H1714 0.950 . S
C1712 C1711 1.387 . S
C1712 C1715 1.387 . S
H1713 C1709 0.950 . S
H1714 C1711 0.950 . S
C1715 C1706 1.390 . S
C1715 H1708 0.950 . S
C1715 C1712 1.387 . S
C1716 C1717 1.387 . S
C1716 H1720 0.950 . S
C1716 C1725 1.390 . S
C1717 C1716 1.387 . S
C1717 C1719 1.387 . S
H1718 C1725 0.950 . S
C1719 C1717 1.387 . S
C1719 C1721 1.390 . S
C1719 H1723 0.950 . S
H1720 C1716 0.950 . S
C1721 C1719 1.390 . S
C1721 C1722 1.387 . S
C1721 H1724 0.950 . S
C1722 C1721 1.387 . S
C1722 C1725 1.387 . S
H1723 C1719 0.950 . S
H1724 C1721 0.950 . S
C1725 C1716 1.390 . S
C1725 H1718 0.950 . S
C1725 C1722 1.387 . S
C1726 C1727 1.387 . S
C1726 H1730 0.950 . S
C1726 C1735 1.390 . S
C1727 C1726 1.387 . S
C1727 C1729 1.387 . S
H1728 C1735 0.950 . S
C1729 C1727 1.387 . S
C1729 C1731 1.390 . S
C1729 H1733 0.950 . S
H1730 C1726 0.950 . S
C1731 C1729 1.390 . S
C1731 C1732 1.387 . S
C1731 H1734 0.950 . S
C1732 C1731 1.387 . S
C1732 C1735 1.387 . S
H1733 C1729 0.950 . S
H1734 C1731 0.950 . S
C1735 C1726 1.390 . S
C1735 H1728 0.950 . S
C1735 C1732 1.387 . S
C1736 C1737 1.387 . S
C1736 H1740 0.950 . S
C1736 C1745 1.390 . S
C1737 C1736 1.387 . S
C1737 C1739 1.387 . S
H1738 C1745 0.950 . S
C1739 C1737 1.387 . S
C1739 C1741 1.390 . S
C1739 H1743 0.950 . S
H1740 C1736 0.950 . S
C1741 C1739 1.390 . S
C1741 C1742 1.387 . S
C1741 H1744 0.950 . S
C1742 C1741 1.387 . S
C1742 C1745 1.387 . S
H1743 C1739 0.950 . S
H1744 C1741 0.950 . S
C1745 C1736 1.390 . S
C1745 H1738 0.950 . S
C1745 C1742 1.387 . S
C1746 C1747 1.387 . S
C1746 H1750 0.950 . S
C1746 C1755 1.390 . S
C1747 C1746 1.387 . S
C1747 C1749 1.387 . S
H1748 C1755 0.950 . S
C1749 C1747 1.387 . S
C1749 C1751 1.390 . S
C1749 H1753 0.950 . S
H1750 C1746 0.950 . S
C1751 C1749 1.390 . S
C1751 C1752 1.387 . S
C1751 H1754 0.950 . S
C1752 C1751 1.387 . S
C1752 C1755 1.387 . S
H1753 C1749 0.950 . S
H1754 C1751 0.950 . S
C1755 C1746 1.390 . S
C1755 H1748 0.950 . S
C1755 C1752 1.387 . S
C1756 C1757 1.387 1_655 S
C1756 H1760 0.950 . S
C1756 C1765 1.390 1_655 S
C1757 C1756 1.387 1_455 S
C1757 C1759 1.387 . S
H1758 C1765 0.950 1_655 S
C1759 C1757 1.387 . S
C1759 C1761 1.390 . S
C1759 H1763 0.950 . S
H1760 C1756 0.950 . S
C1761 C1759 1.390 . S
C1761 C1762 1.387 . S
C1761 H1764 0.950 . S
C1762 C1761 1.387 . S
C1762 C1765 1.387 . S
H1763 C1759 0.950 . S
H1764 C1761 0.950 . S
C1765 C1756 1.390 1_455 S
C1765 H1758 0.950 1_455 S
C1765 C1762 1.387 . S
C1766 C1767 1.387 . S
C1766 H1770 0.950 . S
C1766 C1775 1.390 . S
C1767 C1766 1.387 . S
C1767 C1769 1.387 . S
H1768 C1775 0.950 . S
C1769 C1767 1.387 . S
C1769 C1771 1.390 . S
C1769 H1773 0.950 . S
H1770 C1766 0.950 . S
C1771 C1769 1.390 . S
C1771 C1772 1.387 . S
C1771 H1774 0.950 . S
C1772 C1771 1.387 . S
C1772 C1775 1.387 . S
H1773 C1769 0.950 . S
H1774 C1771 0.950 . S
C1775 C1766 1.390 . S
C1775 H1768 0.950 . S
C1775 C1772 1.387 . S
C1776 C1777 1.387 . S
C1776 H1780 0.950 . S
C1776 C1785 1.390 . S
C1777 C1776 1.387 . S
C1777 C1779 1.387 . S
H1778 C1785 0.950 . S
C1779 C1777 1.387 . S
C1779 C1781 1.390 . S
C1779 H1783 0.950 . S
H1780 C1776 0.950 . S
C1781 C1779 1.390 . S
C1781 C1782 1.387 . S
C1781 H1784 0.950 . S
C1782 C1781 1.387 . S
C1782 C1785 1.387 . S
H1783 C1779 0.950 . S
H1784 C1781 0.950 . S
C1785 C1776 1.390 . S
C1785 H1778 0.950 . S
C1785 C1782 1.387 . S
C1786 C1787 1.387 . S
C1786 H1790 0.950 . S
C1786 C1795 1.390 . S
C1787 C1786 1.387 . S
C1787 C1789 1.387 . S
H1788 C1795 0.950 . S
C1789 C1787 1.387 . S
C1789 C1791 1.390 . S
C1789 H1793 0.950 . S
H1790 C1786 0.950 . S
C1791 C1789 1.390 . S
C1791 C1792 1.387 . S
C1791 H1794 0.950 . S
C1792 C1791 1.387 . S
C1792 C1795 1.387 . S
H1793 C1789 0.950 . S
H1794 C1791 0.950 . S
C1795 C1786 1.390 . S
C1795 H1788 0.950 . S
C1795 C1792 1.387 . S
C1796 C1797 1.387 . S
C1796 H1800 0.950 . S
C1796 C1805 1.390 . S
C1797 C1796 1.387 . S
C1797 C1799 1.387 . S
H1798 C1805 0.950 . S
C1799 C1797 1.387 . S
C1799 C1801 1.390 . S
C1799 H1803 0.950 . S
H1800 C1796 0.950 . S
C1801 C1799 1.390 . S
C1801 C1802 1.387 . S
C1801 H1804 0.950 1_655 S
C1802 C1801 1.387 . S
C1802 C1805 1.387 . S
H1803 C1799 0.950 . S
H1804 C1801 0.950 1_455 S
C1805 C1796 1.390 . S
C1805 H1798 0.950 . S
C1805 C1802 1.387 . S
C1806 C1807 1.387 . S
C1806 H1810 0.950 . S
C1806 C1815 1.390 . S
C1807 C1806 1.387 . S
C1807 C1809 1.387 . S
H1808 C1815 0.950 . S
C1809 C1807 1.387 . S
C1809 C1811 1.390 . S
C1809 H1813 0.950 . S
H1810 C1806 0.950 . S
C1811 C1809 1.390 . S
C1811 C1812 1.387 . S
C1811 H1814 0.950 . S
C1812 C1811 1.387 . S
C1812 C1815 1.387 . S
H1813 C1809 0.950 . S
H1814 C1811 0.950 . S
C1815 C1806 1.390 . S
C1815 H1808 0.950 . S
C1815 C1812 1.387 . S
C1816 C1817 1.387 . S
C1816 H1820 0.950 . S
C1816 C1825 1.390 . S
C1817 C1816 1.387 . S
C1817 C1819 1.387 . S
H1818 C1825 0.950 . S
C1819 C1817 1.387 . S
C1819 C1821 1.390 . S
C1819 H1823 0.950 . S
H1820 C1816 0.950 . S
C1821 C1819 1.390 . S
C1821 C1822 1.387 . S
C1821 H1824 0.950 . S
C1822 C1821 1.387 . S
C1822 C1825 1.387 . S
H1823 C1819 0.950 . S
H1824 C1821 0.950 . S
C1825 C1816 1.390 . S
C1825 H1818 0.950 . S
C1825 C1822 1.387 . S
C1826 C1827 1.387 . S
C1826 H1830 0.950 . S
C1826 C1835 1.390 . S
C1827 C1826 1.387 . S
C1827 C1829 1.387 . S
H1828 C1835 0.950 . S
C1829 C1827 1.387 . S
C1829 C1831 1.390 . S
C1829 H1833 0.950 . S
H1830 C1826 0.950 . S
C1831 C1829 1.390 . S
C1831 C1832 1.387 . S
C1831 H1834 0.950 . S
C1832 C1831 1.387 . S
C1832 C1835 1.387 . S
H1833 C1829 0.950 . S
H1834 C1831 0.950 . S
C1835 C1826 1.390 . S
C1835 H1828 0.950 . S
C1835 C1832 1.387 . S
C1836 C1837 1.387 . S
C1836 H1840 0.950 . S
C1836 C1845 1.390 . S
C1837 C1836 1.387 . S
C1837 C1839 1.387 . S
H1838 C1845 0.950 . S
C1839 C1837 1.387 . S
C1839 C1841 1.390 . S
C1839 H1843 0.950 . S
H1840 C1836 0.950 . S
C1841 C1839 1.390 . S
C1841 C1842 1.387 . S
C1841 H1844 0.950 . S
C1842 C1841 1.387 . S
C1842 C1845 1.387 . S
H1843 C1839 0.950 . S
H1844 C1841 0.950 . S
C1845 C1836 1.390 . S
C1845 H1838 0.950 . S
C1845 C1842 1.387 . S
C1846 C1847 1.387 . S
C1846 H1850 0.950 . S
C1846 C1855 1.390 . S
C1847 C1846 1.387 . S
C1847 C1849 1.387 . S
H1848 C1855 0.950 . S
C1849 C1847 1.387 . S
C1849 C1851 1.390 . S
C1849 H1853 0.950 . S
H1850 C1846 0.950 . S
C1851 C1849 1.390 . S
C1851 C1852 1.387 . S
C1851 H1854 0.950 . S
C1852 C1851 1.387 . S
C1852 C1855 1.387 . S
H1853 C1849 0.950 . S
H1854 C1851 0.950 . S
C1855 C1846 1.390 . S
C1855 H1848 0.950 . S
C1855 C1852 1.387 . S
C1856 C1857 1.387 . S
C1856 H1860 0.950 . S
C1856 C1865 1.390 . S
C1857 C1856 1.387 . S
C1857 C1859 1.387 . S
H1858 C1865 0.950 . S
C1859 C1857 1.387 . S
C1859 C1861 1.390 . S
C1859 H1863 0.950 . S
H1860 C1856 0.950 . S
C1861 C1859 1.390 . S
C1861 C1862 1.387 . S
C1861 H1864 0.950 . S
C1862 C1861 1.387 . S
C1862 C1865 1.387 . S
H1863 C1859 0.950 . S
H1864 C1861 0.950 . S
C1865 C1856 1.390 . S
C1865 H1858 0.950 . S
C1865 C1862 1.387 . S
C1866 C1867 1.387 . S
C1866 H1870 0.950 . S
C1866 C1875 1.390 . S
C1867 C1866 1.387 . S
C1867 C1869 1.387 . S
H1868 C1875 0.950 . S
C1869 C1867 1.387 . S
C1869 C1871 1.390 . S
C1869 H1873 0.950 . S
H1870 C1866 0.950 . S
C1871 C1869 1.390 . S
C1871 C1872 1.387 . S
C1871 H1874 0.950 1_565 S
C1872 C1871 1.387 . S
C1872 C1875 1.387 . S
H1873 C1869 0.950 . S
H1874 C1871 0.950 1_545 S
C1875 C1866 1.390 . S
C1875 H1868 0.950 . S
C1875 C1872 1.387 . S
C1876 C1877 1.387 . S
C1876 H1880 0.950 . S
C1876 C1885 1.390 . S
C1877 C1876 1.387 . S
C1877 C1879 1.387 . S
H1878 C1885 0.950 . S
C1879 C1877 1.387 . S
C1879 C1881 1.390 . S
C1879 H1883 0.950 . S
H1880 C1876 0.950 . S
C1881 C1879 1.390 . S
C1881 C1882 1.387 . S
C1881 H1884 0.950 . S
C1882 C1881 1.387 . S
C1882 C1885 1.387 . S
H1883 C1879 0.950 . S
H1884 C1881 0.950 . S
C1885 C1876 1.390 . S
C1885 H1878 0.950 . S
C1885 C1882 1.387 . S
C1886 C1887 1.387 . S
C1886 H1890 0.950 . S
C1886 C1895 1.390 . S
C1887 C1886 1.387 . S
C1887 C1889 1.387 . S
H1888 C1895 0.950 . S
C1889 C1887 1.387 . S
C1889 C1891 1.390 . S
C1889 H1893 0.950 . S
H1890 C1886 0.950 . S
C1891 C1889 1.390 . S
C1891 C1892 1.387 . S
C1891 H1894 0.950 . S
C1892 C1891 1.387 . S
C1892 C1895 1.387 . S
H1893 C1889 0.950 . S
H1894 C1891 0.950 . S
C1895 C1886 1.390 . S
C1895 H1888 0.950 . S
C1895 C1892 1.387 . S
C1896 C1897 1.387 . S
C1896 H1900 0.950 . S
C1896 C1905 1.390 . S
C1897 C1896 1.387 . S
C1897 C1899 1.387 . S
H1898 C1905 0.950 . S
C1899 C1897 1.387 . S
C1899 C1901 1.390 . S
C1899 H1903 0.950 . S
H1900 C1896 0.950 . S
C1901 C1899 1.390 . S
C1901 C1902 1.387 . S
C1901 H1904 0.950 . S
C1902 C1901 1.387 . S
C1902 C1905 1.387 . S
H1903 C1899 0.950 . S
H1904 C1901 0.950 . S
C1905 C1896 1.390 . S
C1905 H1898 0.950 . S
C1905 C1902 1.387 . S
C1906 C1907 1.387 . S
C1906 H1910 0.950 . S
C1906 C1915 1.390 . S
C1907 C1906 1.387 . S
C1907 C1909 1.387 . S
H1908 C1915 0.950 . S
C1909 C1907 1.387 . S
C1909 C1911 1.390 . S
C1909 H1913 0.950 . S
H1910 C1906 0.950 . S
C1911 C1909 1.390 . S
C1911 C1912 1.387 . S
C1911 H1914 0.950 . S
C1912 C1911 1.387 . S
C1912 C1915 1.387 . S
H1913 C1909 0.950 . S
H1914 C1911 0.950 . S
C1915 C1906 1.390 . S
C1915 H1908 0.950 . S
C1915 C1912 1.387 . S
C1916 C1917 1.387 . S
C1916 H1920 0.950 . S
C1916 C1925 1.390 . S
C1917 C1916 1.387 . S
C1917 C1919 1.387 . S
H1918 C1925 0.950 . S
C1919 C1917 1.387 . S
C1919 C1921 1.390 . S
C1919 H1923 0.950 . S
H1920 C1916 0.950 . S
C1921 C1919 1.390 . S
C1921 C1922 1.387 . S
C1921 H1924 0.950 . S
C1922 C1921 1.387 . S
C1922 C1925 1.387 . S
H1923 C1919 0.950 . S
H1924 C1921 0.950 . S
C1925 C1916 1.390 . S
C1925 H1918 0.950 . S
C1925 C1922 1.387 . S
C1926 C1927 1.387 . S
C1926 H1930 0.950 . S
C1926 C1935 1.390 . S
C1927 C1926 1.387 . S
C1927 C1929 1.387 . S
H1928 C1935 0.950 . S
C1929 C1927 1.387 . S
C1929 C1931 1.390 . S
C1929 H1933 0.950 . S
H1930 C1926 0.950 . S
C1931 C1929 1.390 . S
C1931 C1932 1.387 . S
C1931 H1934 0.950 . S
C1932 C1931 1.387 . S
C1932 C1935 1.387 . S
H1933 C1929 0.950 . S
H1934 C1931 0.950 . S
C1935 C1926 1.390 . S
C1935 H1928 0.950 . S
C1935 C1932 1.387 . S
C977 C109 2.388 . S
C982 C346 2.284 . S
C987 C65 2.052 . S
C992 C394 2.040 . S
C997 C75 1.516 . S
C1002 C426 1.504 . S
C1012 C471 1.667 . S
C1007 C84 1.722 . S
C1017 C25 0.938 . S
C1022 C511 0.933 . S
C1032 C546 1.177 . S
C1027 C28 1.171 . S
C1042 C585 1.356 . S
C1037 C47 1.326 . S
C1047 C9 1.375 . S
C1052 C622 1.369 . S
C1062 C354 2.278 . S
C1057 C233 2.234 1_545 S
C1067 C249 0.890 . S
C1072 C391 0.867 . S
C1082 C434 2.375 . S
C1077 C275 2.395 . S
C1092 C466 1.195 . S
C1087 C173 1.210 1_556 S
C1097 C224 1.502 . S
C1102 C506 1.478 . S
C1112 C554 0.707 . S
C1107 C243 0.745 . S
C1122 C595 2.151 . S
C1117 C266 2.206 . S
C1132 C625 2.039 . S
C1127 C179 2.021 . S
C1142 C351 2.048 . S
C1137 C163 2.059 1_554 S
C1147 C289 2.151 . S
C1152 C674 2.128 . S
C1162 C711 1.260 . S
C1157 C333 1.259 . S
C1172 C742 1.114 . S
C1167 C308 1.146 . S
C1177 C123 2.737 . S
C1182 C635 2.698 . S
C1187 C126 1.492 . S
C1192 C431 1.473 . S
C1197 C327 1.782 . S
C1202 C794 1.861 . S
C1212 C826 2.004 . S
C1207 C299 1.999 . S
C1222 C355 2.277 . S
C1217 C67 2.387 . S
C1232 C825 2.074 . S
C1227 C98 2.036 . S
C1237 C89 1.536 . S
C1242 C435 1.527 . S
C1247 C79 1.796 . S
C1252 C782 1.701 . S
C1262 C502 0.946 1_655 S
C1257 C11 0.952 . S
C1267 C51 1.184 . S
C1272 C715 1.222 . S
C1282 C594 1.342 . S
C1277 C33 1.316 . S
C1292 C871 1.358 . S
C1287 C14 1.381 . S
C1302 C345 2.248 1_556 S
C1297 C140 2.235 . S
C1312 C822 0.864 . S
C1307 C319 0.904 . S
C1317 C112 2.360 . S
C1322 C425 2.383 . S
C1327 C285 1.230 . S
C1332 C795 1.220 . S
C1337 C149 1.525 . S
C1342 C515 1.517 . S
C1352 C705 0.696 . S
C1347 C313 0.721 . S
C1357 C121 2.326 . S
C1362 C586 2.219 . S
C1367 C291 2.037 1_556 S
C1372 C874 2.042 . S
C1377 C182 2.036 . S
C1382 C342 1.977 . S
C1387 C168 2.139 . S
C1392 C665 2.151 . S
C1397 C263 1.271 . S
C1402 C542 1.260 . S
C1407 C247 1.173 . S
C1412 C751 1.101 . S
C1422 C866 2.694 . S
C1417 C277 2.738 . S
C1427 C219 1.545 . S
C1432 C422 1.496 . S
C1442 C465 1.893 . S
C1437 C257 1.822 . S
C1452 C395 1.999 . S
C1447 C201 1.988 . S
C1457 C81 2.389 . S
C1462 C906 2.285 . S
C1472 C834 2.039 . S
C1467 C93 2.052 . S
C1477 C103 1.517 . S
C1482 C946 1.505 . S
C1487 C56 1.725 1_655 S
C1492 C791 1.669 . S
C1497 C53 0.938 . S
C1502 C671 0.930 . S
C1512 C706 1.177 . S
C1507 C0 1.171 . S
C1522 C745 1.355 . S
C1517 C19 1.326 . S
C1532 C862 1.369 . S
C1527 C37 1.375 . S
C1542 C914 2.278 . S
C1537 C261 2.241 . S
C1547 C193 0.882 . S
C1552 C831 0.859 . S
C1562 C954 2.376 . S
C1557 C205 2.395 . S
C1572 C786 1.195 . S
C1567 C215 1.210 . S
C1582 C666 1.478 1_556 S
C1577 C252 1.503 . S
C1587 C187 0.734 . S
C1592 C714 0.695 . S
C1602 C755 2.151 . S
C1597 C196 2.207 . S
C1607 C221 2.021 . S
C1612 C865 2.040 . S
C1622 C911 2.046 . S
C1617 C317 2.059 . S
C1627 C135 2.151 . S
C1632 C514 2.127 . S
C1642 C551 1.259 . S
C1637 C151 1.258 1_565 S
C1652 C582 1.114 . S
C1647 C154 1.146 . S
C1662 C875 2.698 . S
C1657 C305 2.736 . S
C1667 C280 1.491 . S
C1672 C951 1.473 . S
C1682 C474 1.862 . S
C1677 C145 1.783 . S
C1692 C386 2.004 . S
C1687 C117 1.999 . S
C1697 C95 2.388 . S
C1702 C915 2.279 . S
C1712 C385 2.074 . S
C1707 C70 2.038 . S
C1717 C61 1.536 . S
C1722 C955 1.529 . S
C1727 C107 1.796 . S
C1732 C462 1.701 . S
C1737 C39 0.953 . S
C1742 C662 0.946 . S
C1752 C555 1.221 . S
C1747 C23 1.184 . S
C1757 C5 1.317 . S
C1762 C754 1.342 . S
C1767 C42 1.379 . S
C1772 C631 1.355 . S
C1782 C905 2.249 . S
C1777 C322 2.234 . S
C1787 C165 0.903 . S
C1792 C382 0.860 . S
C1802 C945 2.384 1_656 S
C1797 C294 2.360 . S
C1807 C131 1.230 . S
C1812 C475 1.219 . S
C1817 C331 1.525 . S
C1822 C675 1.517 . S
C1832 C545 0.706 . S
C1827 C159 0.734 . S
C1837 C303 2.326 . S
C1842 C746 2.219 1_655 S
C1852 C634 2.042 . S
C1847 C137 2.036 . S
C1862 C902 1.980 . S
C1857 C238 2.038 . S
C1872 C505 2.152 1_565 S
C1867 C210 2.140 . S
C1877 C235 1.271 . S
C1882 C702 1.262 . S
C1892 C591 1.101 . S
C1887 C191 1.174 . S
C1897 C207 2.738 . S
C1902 C626 2.694 . S
C1907 C177 1.545 . S
C1912 C942 1.496 . S
C1922 C785 1.894 . S
C1917 C229 1.821 . S
C1932 C835 2.000 . S
C1927 C271 1.988 . S
