# Generated by pormake.
# Topology pyr, (3,6)-cn, num edge types: 1
# Building blocks:
#     Node 0, Type 0, BuildingBlock: OLANEW_clean_sbu_2, # of connection points: 3
#     Node 1, Type 0, BuildingBlock: OLANEW_clean_sbu_2, # of connection points: 3
#     Node 2, Type 0, BuildingBlock: OLANEW_clean_sbu_2, # of connection points: 3
#     Node 3, Type 0, BuildingBlock: OLANEW_clean_sbu_2, # of connection points: 3
#     Node 4, Type 0, BuildingBlock: OLANEW_clean_sbu_2, # of connection points: 3
#     Node 5, Type 0, BuildingBlock: OLANEW_clean_sbu_2, # of connection points: 3
#     Node 6, Type 0, BuildingBlock: OLANEW_clean_sbu_2, # of connection points: 3
#     Node 7, Type 0, BuildingBlock: OLANEW_clean_sbu_2, # of connection points: 3
#     Node 8, Type 1, BuildingBlock: BETFEN_clean_sbu_0, # of connection points: 6
#     Node 9, Type 1, BuildingBlock: BETFEN_clean_sbu_0, # of connection points: 6
#     Node 10, Type 1, BuildingBlock: BETFEN_clean_sbu_0, # of connection points: 6
#     Node 11, Type 1, BuildingBlock: BETFEN_clean_sbu_0, # of connection points: 6
#     Edge 12, Type (0, 1), BuildingBlock: KIFKEQ_clean_linker_1, # of connection points: 2
#     Edge 13, Type (0, 1), BuildingBlock: KIFKEQ_clean_linker_1, # of connection points: 2
#     Edge 14, Type (0, 1), BuildingBlock: KIFKEQ_clean_linker_1, # of connection points: 2
#     Edge 15, Type (0, 1), BuildingBlock: KIFKEQ_clean_linker_1, # of connection points: 2
#     Edge 16, Type (0, 1), BuildingBlock: KIFKEQ_clean_linker_1, # of connection points: 2
#     Edge 17, Type (0, 1), BuildingBlock: KIFKEQ_clean_linker_1, # of connection points: 2
#     Edge 18, Type (0, 1), BuildingBlock: KIFKEQ_clean_linker_1, # of connection points: 2
#     Edge 19, Type (0, 1), BuildingBlock: KIFKEQ_clean_linker_1, # of connection points: 2
#     Edge 20, Type (0, 1), BuildingBlock: KIFKEQ_clean_linker_1, # of connection points: 2
#     Edge 21, Type (0, 1), BuildingBlock: KIFKEQ_clean_linker_1, # of connection points: 2
#     Edge 22, Type (0, 1), BuildingBlock: KIFKEQ_clean_linker_1, # of connection points: 2
#     Edge 23, Type (0, 1), BuildingBlock: KIFKEQ_clean_linker_1, # of connection points: 2
#     Edge 24, Type (0, 1), BuildingBlock: KIFKEQ_clean_linker_1, # of connection points: 2
#     Edge 25, Type (0, 1), BuildingBlock: KIFKEQ_clean_linker_1, # of connection points: 2
#     Edge 26, Type (0, 1), BuildingBlock: KIFKEQ_clean_linker_1, # of connection points: 2
#     Edge 27, Type (0, 1), BuildingBlock: KIFKEQ_clean_linker_1, # of connection points: 2
#     Edge 28, Type (0, 1), BuildingBlock: KIFKEQ_clean_linker_1, # of connection points: 2
#     Edge 29, Type (0, 1), BuildingBlock: KIFKEQ_clean_linker_1, # of connection points: 2
#     Edge 30, Type (0, 1), BuildingBlock: KIFKEQ_clean_linker_1, # of connection points: 2
#     Edge 31, Type (0, 1), BuildingBlock: KIFKEQ_clean_linker_1, # of connection points: 2
#     Edge 32, Type (0, 1), BuildingBlock: KIFKEQ_clean_linker_1, # of connection points: 2
#     Edge 33, Type (0, 1), BuildingBlock: KIFKEQ_clean_linker_1, # of connection points: 2
#     Edge 34, Type (0, 1), BuildingBlock: KIFKEQ_clean_linker_1, # of connection points: 2
#     Edge 35, Type (0, 1), BuildingBlock: KIFKEQ_clean_linker_1, # of connection points: 2
# Relax obj value: 0.164
# Max RMSD: 0.289
# Mean RMSD: 0.144
data_MOF--net-pyr--node1-OLANEW_clean_sbu_2--node2-BETFEN_clean_sbu_0--edge1-KIFKEQ_clean_linker_1
_symmetry_space_group_name_H-M    P1
_symmetry_Int_Tables_number       1
_symmetry_cell_setting            triclinic
loop_
_symmetry_equiv_pos_as_xyz
'x, y, z'
_cell_length_a     40.202807
_cell_length_b     45.021886
_cell_length_c     41.504684
_cell_angle_alpha  94.550051
_cell_angle_beta   100.5693
_cell_angle_gamma 113.65551
loop_
_atom_site_label
_atom_site_type_symbol
_atom_site_fract_x
_atom_site_fract_y
_atom_site_fract_z
_atom_type_partial_charge
O0 O 0.40249 0.34177 0.27219 0.0
Cd1 Cd 0.36526 0.36886 0.29005 0.0
O2 O 0.34501 0.30517 0.2535 0.0
Cd3 Cd 0.30289 0.25545 0.23439 0.0
O4 O 0.26455 0.23188 0.26453 0.0
C5 C 0.27912 0.23797 0.29556 0.0
O6 O 0.31547 0.25491 0.30618 0.0
C7 C 0.37963 0.31328 0.25683 0.0
C8 C 0.31477 0.37269 0.23616 0.0
O9 O 0.30743 0.34589 0.24786 0.0
O10 O 0.34559 0.39758 0.24991 0.0
O11 O 0.2692 0.79026 0.79482 0.0
Cd12 Cd 0.23954 0.74387 0.74853 0.0
O13 O 0.24006 0.82265 0.78619 0.0
Cd14 Cd 0.19854 0.79967 0.73908 0.0
O15 O 0.16424 0.8177 0.70607 0.0
C16 C 0.16064 0.84203 0.72018 0.0
O17 O 0.17565 0.85241 0.75218 0.0
C18 C 0.26481 0.81594 0.80368 0.0
C19 C 0.29202 0.7237 0.72981 0.0
O20 O 0.28005 0.74166 0.71316 0.0
O21 O 0.27934 0.71514 0.75538 0.0
O22 O 0.71327 0.35943 0.79649 0.0
Cd23 Cd 0.65172 0.33704 0.75783 0.0
O24 O 0.70177 0.31085 0.80996 0.0
Cd25 Cd 0.7019 0.27173 0.83837 0.0
O26 O 0.67228 0.23019 0.86251 0.0
C27 C 0.66299 0.23799 0.88847 0.0
O28 O 0.67275 0.2693 0.899 0.0
C29 C 0.72328 0.34141 0.81433 0.0
C30 C 0.64124 0.3818 0.71881 0.0
O31 O 0.63897 0.38392 0.74922 0.0
O32 O 0.64865 0.35868 0.70679 0.0
O33 O 0.90862 0.74404 0.30848 0.0
Cd34 Cd 0.88006 0.69502 0.26066 0.0
O35 O 0.86816 0.72239 0.33921 0.0
Cd36 Cd 0.83194 0.67153 0.31624 0.0
O37 O 0.78908 0.64495 0.34236 0.0
C38 C 0.77877 0.66355 0.35863 0.0
O39 O 0.79253 0.69498 0.35644 0.0
C40 C 0.89577 0.74663 0.33417 0.0
C41 C 0.91154 0.66435 0.21924 0.0
O42 O 0.91551 0.69398 0.21824 0.0
O43 O 0.89505 0.64986 0.24098 0.0
O44 O 0.69869 0.71297 0.76106 0.0
Cd45 Cd 0.66476 0.67247 0.79263 0.0
O46 O 0.7252 0.74055 0.81139 0.0
Cd47 Cd 0.7556 0.78491 0.84811 0.0
O48 O 0.71737 0.80189 0.8649 0.0
C49 C 0.68998 0.79958 0.84228 0.0
O50 O 0.68844 0.78983 0.81114 0.0
C51 C 0.72287 0.73902 0.78038 0.0
C52 C 0.72034 0.6676 0.83935 0.0
O53 O 0.70427 0.64674 0.81228 0.0
O54 O 0.70866 0.68955 0.8454 0.0
O55 O 0.80477 0.21425 0.31383 0.0
Cd56 Cd 0.84756 0.23526 0.36964 0.0
O57 O 0.78159 0.25152 0.31124 0.0
Cd58 Cd 0.80569 0.28955 0.35559 0.0
O59 O 0.78523 0.32332 0.37728 0.0
C60 C 0.77076 0.33792 0.35808 0.0
O61 O 0.77115 0.33425 0.32644 0.0
C62 C 0.78291 0.22543 0.29853 0.0
C63 C 0.87562 0.19191 0.39673 0.0
O64 O 0.84238 0.18842 0.39668 0.0
O65 O 0.89558 0.21538 0.38337 0.0
O66 O 0.45176 0.80287 0.26571 0.0
Cd67 Cd 0.42657 0.75876 0.30164 0.0
O68 O 0.39824 0.80724 0.25618 0.0
Cd69 Cd 0.36591 0.76535 0.27737 0.0
O70 O 0.31487 0.72445 0.24854 0.0
C71 C 0.31773 0.71609 0.21956 0.0
O72 O 0.3501 0.73079 0.21189 0.0
C73 C 0.43139 0.81656 0.25234 0.0
C74 C 0.45692 0.72221 0.34189 0.0
O75 O 0.44401 0.71302 0.31032 0.0
O76 O 0.45828 0.74984 0.35432 0.0
O77 O 0.22989 0.43209 0.8051 0.0
Cd78 Cd 0.25538 0.40524 0.76655 0.0
O79 O 0.19127 0.38328 0.81256 0.0
Cd80 Cd 0.20078 0.34988 0.77696 0.0
O81 O 0.18588 0.30312 0.74357 0.0
C82 C 0.16609 0.27659 0.75269 0.0
O83 O 0.15727 0.27862 0.78149 0.0
C84 C 0.2047 0.41461 0.81923 0.0
C85 C 0.30636 0.43638 0.72721 0.0
O86 O 0.27124 0.42834 0.71744 0.0
O87 O 0.31804 0.43174 0.75645 0.0
Pr88 Pr 0.97954 0.99373 0.5648 0.0
Pr89 Pr 0.0423 0.0183 0.5303 0.0
C90 C 0.91803 0.95501 0.58346 0.0
C91 C 0.91069 0.93674 0.6114 0.0
C92 C 0.90075 0.94931 0.63835 0.0
C93 C 0.89041 0.93072 0.66323 0.0
C94 C 0.88958 0.89913 0.66148 0.0
C95 C 0.9021 0.88761 0.63581 0.0
C96 C 0.91235 0.90611 0.61095 0.0
C97 C 0.03121 0.05397 0.60401 0.0
C98 C 0.04851 0.97303 0.58896 0.0
C99 C 0.10449 0.04661 0.50828 0.0
C100 C 0.11665 0.0731 0.48866 0.0
C101 C 0.1252 0.06654 0.45845 0.0
C102 C 0.13454 0.09051 0.43833 0.0
C103 C 0.13577 0.12159 0.44818 0.0
C104 C 0.12732 0.1283 0.47848 0.0
C105 C 0.11748 0.1041 0.49849 0.0
C106 C 0.98135 0.96206 0.49317 0.0
C107 C 0.97917 0.04628 0.51392 0.0
O108 O 0.93178 0.9442 0.5614 0.0
O109 O 0.93255 0.9871 0.59049 0.0
O110 O 0.03523 0.04125 0.57764 0.0
O111 O 1.00115 0.03468 0.61196 0.0
O112 O 0.06313 0.98747 0.56524 0.0
O113 O 0.01746 0.97297 0.59491 0.0
O114 O 0.10251 0.05492 0.53853 0.0
O115 O 0.07634 0.01937 0.49237 0.0
O116 O 0.99507 0.96628 0.52417 0.0
O117 O 0.99716 0.98882 0.4814 0.0
O118 O 0.95749 0.02025 0.52488 0.0
O119 O 0.01507 0.05408 0.51774 0.0
H120 H 0.8996 0.97299 0.63957 0.0
H121 H 0.88081 0.94027 0.68261 0.0
H122 H 0.90244 0.8636 0.63415 0.0
H123 H 0.92043 0.89586 0.59085 0.0
H124 H 0.12441 0.04274 0.4503 0.0
H125 H 0.14159 0.08493 0.41532 0.0
H126 H 0.1281 0.15211 0.48653 0.0
H127 H 0.11035 0.10961 0.52147 0.0
Pr128 Pr 0.48433 0.03704 0.0681 0.0
Pr129 Pr 0.54061 0.01398 0.04676 0.0
C130 C 0.44078 0.04961 0.10381 0.0
C131 C 0.43952 0.07903 0.12101 0.0
C132 C 0.43204 0.10184 0.10319 0.0
C133 C 0.42987 0.12893 0.11991 0.0
C134 C 0.43562 0.13391 0.15466 0.0
C135 C 0.44419 0.11179 0.1726 0.0
C136 C 0.44585 0.08441 0.15586 0.0
C137 C 0.51814 0.07826 0.02461 0.0
C138 C 0.57517 0.07765 0.10405 0.0
C139 C 0.58183 0.99261 0.01569 0.0
C140 C 0.57489 0.96487 0.99007 0.0
C141 C 0.5827 0.93872 0.99957 0.0
C142 C 0.57769 0.9128 0.97573 0.0
C143 C 0.56502 0.91259 0.94179 0.0
C144 C 0.5563 0.93836 0.93226 0.0
C145 C 0.56115 0.96429 0.9562 0.0
C146 C 0.51323 0.98684 0.10014 0.0
C147 C 0.45153 0.97775 1.00348 0.0
O148 O 0.46857 0.0428 0.11695 0.0
O149 O 0.43262 0.04452 0.07118 0.0
O150 O 0.52447 0.05475 0.03384 0.0
O151 O 0.4932 0.08164 0.03849 0.0
O152 O 0.58234 0.06439 0.07833 0.0
O153 O 0.54073 0.06767 0.10817 0.0
O154 O 0.57146 0.01524 1.0062 0.0
O155 O 0.57528 0.98535 0.04444 0.0
O156 O 0.49327 0.98958 0.07402 0.0
O157 O 0.54832 0.99958 0.0995 0.0
O158 O 0.4424 0.9945 0.02507 0.0
O159 O 0.48625 0.98154 1.00604 0.0
H160 H 0.42739 0.09861 0.07636 0.0
H161 H 0.42326 0.14584 0.10569 0.0
H162 H 0.44835 0.1151 0.19941 0.0
H163 H 0.45167 0.0672 0.17014 0.0
H164 H 0.5935 0.93863 0.02547 0.0
H165 H 0.58548 0.89371 0.98384 0.0
H166 H 0.54651 0.9388 0.90626 0.0
H167 H 0.55476 0.98408 0.94808 0.0
Pr168 Pr 0.55643 0.58479 0.56531 0.0
Pr169 Pr 0.52639 0.51503 0.51458 0.0
C170 C 0.55626 0.63639 0.6026 0.0
C171 C 0.52903 0.64171 0.61928 0.0
C172 C 0.53987 0.6562 0.653 0.0
C173 C 0.51465 0.66278 0.66838 0.0
C174 C 0.4784 0.65529 0.6501 0.0
C175 C 0.46719 0.63969 0.6168 0.0
C176 C 0.49209 0.63271 0.60161 0.0
C177 C 0.58529 0.54083 0.58543 0.0
C178 C 0.47722 0.51764 0.56923 0.0
C179 C 0.53394 0.46187 0.48822 0.0
C180 C 0.56048 0.45473 0.47145 0.0
C181 C 0.55244 0.44574 0.43663 0.0
C182 C 0.57629 0.43649 0.42156 0.0
C183 C 0.6083 0.43563 0.44107 0.0
C184 C 0.61688 0.44547 0.47562 0.0
C185 C 0.59344 0.455 0.4906 0.0
C186 C 0.50455 0.55979 0.48253 0.0
C187 C 0.60473 0.58107 0.51161 0.0
O188 O 0.54778 0.63132 0.57 0.0
O189 O 0.57138 0.61768 0.61509 0.0
O190 O 0.55208 0.5337 0.5704 0.0
O191 O 0.6054 0.57266 0.5918 0.0
O192 O 0.4798 0.49818 0.54491 0.0
O193 O 0.50034 0.54938 0.57823 0.0
O194 O 0.54679 0.47542 0.51959 0.0
O195 O 0.51146 0.47305 0.47192 0.0
O196 O 0.52297 0.56433 0.51204 0.0
O197 O 0.49401 0.52934 0.46892 0.0
O198 O 0.59774 0.6018 0.53068 0.0
O199 O 0.58575 0.54877 0.50762 0.0
H200 H 0.56805 0.66303 0.66724 0.0
H201 H 0.5239 0.67487 0.6941 0.0
H202 H 0.43924 0.63341 0.60232 0.0
H203 H 0.48257 0.62088 0.5758 0.0
H204 H 0.52728 0.44508 0.42112 0.0
H205 H 0.56895 0.42878 0.39485 0.0
H206 H 0.64147 0.44514 0.49119 0.0
H207 H 0.60078 0.46174 0.51743 0.0
Pr208 Pr 0.03036 0.54543 0.9854 0.0
Pr209 Pr 0.03366 0.49939 0.02992 0.0
C210 C 0.01245 0.58452 0.94663 0.0
C211 C 0.98792 0.60156 0.94567 0.0
C212 C 1.00137 0.63463 0.94153 0.0
C213 C 0.97797 0.65083 0.93973 0.0
C214 C 0.94067 0.6341 0.94192 0.0
C215 C 0.92773 0.60121 0.94703 0.0
C216 C 0.95116 0.58518 0.94909 0.0
C217 C 0.09706 0.56968 0.03405 0.0
C218 C 0.99719 0.54731 0.05362 0.0
C219 C 0.05127 0.45983 0.06805 0.0
C220 C 0.07318 0.44031 0.06828 0.0
C221 C 0.05818 0.40841 0.0756 0.0
C222 C 0.08059 0.39154 0.08163 0.0
C223 C 0.11851 0.40652 0.08079 0.0
C224 C 0.1324 0.4371 0.07007 0.0
C225 C 0.10987 0.4539 0.06382 0.0
C226 C 0.96534 0.47529 0.98367 0.0
C227 C 0.07379 0.50243 0.96497 0.0
O228 O 0.99615 0.55236 0.93951 0.0
O229 O 0.04168 0.5957 0.97157 0.0
O230 O 0.06492 0.55525 0.03893 0.0
O231 O 0.09595 0.57203 1.00295 0.0
O232 O 0.01679 0.53137 0.06522 0.0
O233 O 0.99277 0.55103 0.02198 0.0
O234 O 0.06995 0.49184 0.07375 0.0
O235 O 0.02026 0.4493 0.04513 0.0
O236 O 0.99684 0.48911 0.97674 0.0
O237 O 0.96855 0.47477 0.0153 0.0
O238 O 0.05577 0.51938 0.95273 0.0
O239 O 0.07299 0.49516 0.99516 0.0
H240 H 0.02986 0.64781 0.93933 0.0
H241 H 0.98893 0.67627 0.9362 0.0
H242 H 0.89903 0.58731 0.94823 0.0
H243 H 0.94022 0.55976 0.95275 0.0
H244 H 0.02971 0.39724 0.07846 0.0
H245 H 0.06897 0.36769 0.08916 0.0
H246 H 0.16147 0.44926 0.06913 0.0
H247 H 0.12182 0.47824 0.0574 0.0
H248 H 0.20406 0.21926 0.28451 0.0
H249 H 0.30102 0.23466 0.36085 0.0
H250 H 0.16456 0.20088 0.32355 0.0
H251 H 0.26145 0.21497 0.39948 0.0
H252 H 0.18903 0.18469 0.46821 0.0
H253 H 0.22071 0.22146 0.43234 0.0
H254 H 0.14348 0.15163 0.34577 0.0
H255 H 0.11132 0.1159 0.38157 0.0
C256 C 0.21689 0.21862 0.30963 0.0
C257 C 0.25547 0.22778 0.31949 0.0
C258 C 0.1943 0.20822 0.33202 0.0
C259 C 0.20975 0.20622 0.36457 0.0
C260 C 0.24863 0.21667 0.37478 0.0
C261 C 0.27129 0.22753 0.3525 0.0
C262 C 0.17812 0.17792 0.44151 0.0
C263 C 0.14839 0.14722 0.42749 0.0
C264 C 0.19645 0.19876 0.42099 0.0
C265 C 0.18524 0.18909 0.38621 0.0
C266 C 0.15295 0.15994 0.3724 0.0
C267 C 0.13467 0.13924 0.39288 0.0
H268 H 0.27547 0.87929 0.82303 0.0
H269 H 0.30997 0.80459 0.85414 0.0
H270 H 0.31895 0.91813 0.87221 0.0
H271 H 0.35257 0.84308 0.9037 0.0
H272 H 0.45746 0.93054 0.9628 0.0
H273 H 0.41078 0.8916 0.91576 0.0
H274 H 0.3324 0.93095 0.93287 0.0
H275 H 0.3797 0.97064 0.98002 0.0
C276 C 0.292 0.87103 0.84056 0.0
C277 C 0.28954 0.83893 0.8345 0.0
C278 C 0.31679 0.89326 0.86884 0.0
C279 C 0.33947 0.88381 0.89178 0.0
C280 C 0.33608 0.85138 0.88618 0.0
C281 C 0.31155 0.82926 0.85782 0.0
C282 C 0.43029 0.93096 0.95667 0.0
C283 C 0.42228 0.95364 0.97534 0.0
C284 C 0.40337 0.90839 0.92978 0.0
C285 C 0.36771 0.90791 0.9207 0.0
C286 C 0.35967 0.93074 0.93917 0.0
C287 C 0.38665 0.95331 0.96633 0.0
H288 H 0.61215 0.37034 0.65199 0.0
H289 H 0.65625 0.44587 0.73906 0.0
H290 H 0.60037 0.40867 0.61793 0.0
H291 H 0.64521 0.48442 0.70493 0.0
H292 H 0.65264 0.55217 0.62603 0.0
H293 H 0.66794 0.51361 0.65745 0.0
H294 H 0.55718 0.43749 0.61438 0.0
H295 H 0.54172 0.47592 0.58353 0.0
C296 C 0.61965 0.39524 0.66374 0.0
C297 C 0.63511 0.40519 0.69811 0.0
C298 C 0.61277 0.41711 0.64431 0.0
C299 C 0.62204 0.44958 0.65875 0.0
C300 C 0.63812 0.45965 0.69306 0.0
C301 C 0.64419 0.43756 0.71262 0.0
C302 C 0.63174 0.52712 0.62305 0.0
C303 C 0.5961 0.51704 0.6021 0.0
C304 C 0.64042 0.50512 0.64115 0.0
C305 C 0.61374 0.47255 0.63835 0.0
C306 C 0.57846 0.4623 0.61674 0.0
C307 C 0.56966 0.48434 0.59901 0.0
H308 H 0.96888 0.69095 0.18801 0.0
H309 H 0.88188 0.59816 0.1949 0.0
H310 H 0.98861 0.66237 0.14783 0.0
H311 H 0.90073 0.56978 0.15369 0.0
H312 H 0.92632 0.54404 0.04838 0.0
H313 H 0.90472 0.57134 0.08842 0.0
H314 H 0.01622 0.61677 0.15128 0.0
H315 H 0.03723 0.58838 0.1122 0.0
C316 C 0.9539 0.66448 0.18092 0.0
C317 C 0.92404 0.6469 0.19506 0.0
C318 C 0.96521 0.64808 0.15787 0.0
C319 C 0.94624 0.61375 0.14743 0.0
C320 C 0.91589 0.59622 0.16105 0.0
C321 C 0.90528 0.61249 0.18488 0.0
C322 C 0.9461 0.55977 0.07082 0.0
C323 C 0.98346 0.56395 0.07718 0.0
C324 C 0.93374 0.57532 0.0938 0.0
C325 C 0.95877 0.59637 0.12309 0.0
C326 C 0.99623 0.60087 0.12902 0.0
C327 C 1.00823 0.5845 0.10667 0.0
H328 H 0.35651 0.28112 0.1941 0.0
H329 H 0.43021 0.29241 0.28842 0.0
H330 H 0.37295 0.2393 0.17036 0.0
H331 H 0.44511 0.24854 0.26546 0.0
H332 H 0.4857 0.18605 0.20237 0.0
H333 H 0.47504 0.23139 0.22821 0.0
H334 H 0.35977 0.18464 0.17236 0.0
H335 H 0.37139 0.14099 0.14552 0.0
C336 C 0.37622 0.27439 0.20972 0.0
C337 C 0.39217 0.28975 0.24291 0.0
C338 C 0.38537 0.25017 0.19632 0.0
C339 C 0.4098 0.23993 0.21613 0.0
C340 C 0.42643 0.25594 0.24938 0.0
C341 C 0.41791 0.28094 0.26259 0.0
C342 C 0.45824 0.18582 0.19575 0.0
C343 C 0.42945 0.16057 0.17169 0.0
C344 C 0.452 0.21157 0.21062 0.0
C345 C 0.41668 0.21206 0.20198 0.0
C346 C 0.38767 0.18582 0.17884 0.0
C347 C 0.39413 0.16063 0.16359 0.0
H348 H 0.15456 0.89763 0.74313 0.0
H349 H 0.12597 0.82774 0.6537 0.0
H350 H 0.12836 0.92964 0.71155 0.0
H351 H 0.0991 0.85972 0.62209 0.0
H352 H 0.09478 0.94667 0.57183 0.0
H353 H 0.12087 0.91416 0.60338 0.0
H354 H 0.06777 0.92589 0.68196 0.0
H355 H 0.04184 0.95832 0.65055 0.0
C356 C 0.14239 0.8889 0.71675 0.0
C357 C 0.14251 0.86014 0.70093 0.0
C358 C 0.12725 0.90725 0.69867 0.0
C359 C 0.11178 0.89732 0.66428 0.0
C360 C 0.11135 0.86829 0.64847 0.0
C361 C 0.12651 0.84986 0.66661 0.0
C362 C 0.08898 0.94252 0.59597 0.0
C363 C 0.06629 0.95506 0.60872 0.0
C364 C 0.10359 0.92362 0.61387 0.0
C365 C 0.09625 0.91731 0.64511 0.0
C366 C 0.07413 0.93043 0.65807 0.0
C367 C 0.05915 0.94891 0.64 0.0
H368 H 0.74261 0.39586 0.85877 0.0
H369 H 0.78135 0.32349 0.82999 0.0
H370 H 0.80137 0.42656 0.90016 0.0
H371 H 0.84125 0.35504 0.8711 0.0
H372 H 0.95561 0.45228 0.91773 0.0
H373 H 0.89653 0.41621 0.87794 0.0
H374 H 0.83657 0.4161 0.95419 0.0
H375 H 0.89532 0.45148 0.99392 0.0
C376 C 0.76371 0.38641 0.86158 0.0
C377 C 0.75745 0.35724 0.84145 0.0
C378 C 0.7973 0.40398 0.88523 0.0
C379 C 0.82589 0.39326 0.88876 0.0
C380 C 0.81966 0.36388 0.86877 0.0
C381 C 0.78541 0.34572 0.84555 0.0
C382 C 0.92976 0.44455 0.92589 0.0
C383 C 0.92998 0.45483 0.95885 0.0
C384 C 0.89608 0.42367 0.90326 0.0
C385 C 0.86203 0.41328 0.91307 0.0
C386 C 0.86239 0.42375 0.94597 0.0
C387 C 0.89599 0.44406 0.96866 0.0
H388 H 0.75128 0.69753 0.39492 0.0
H389 H 0.75001 0.60147 0.37422 0.0
H390 H 0.71145 0.67802 0.4333 0.0
H391 H 0.71116 0.58215 0.41362 0.0
H392 H 0.60776 0.54823 0.45547 0.0
H393 H 0.65006 0.56806 0.41954 0.0
H394 H 0.7085 0.66156 0.48603 0.0
H395 H 0.66447 0.64191 0.52159 0.0
C396 C 0.7426 0.67222 0.39865 0.0
C397 C 0.75373 0.65101 0.38135 0.0
C398 C 0.72004 0.66112 0.42101 0.0
C399 C 0.7081 0.62852 0.4268 0.0
C400 C 0.71935 0.60731 0.40952 0.0
C401 C 0.74176 0.61838 0.38697 0.0
C402 C 0.62982 0.57297 0.46274 0.0
C403 C 0.63279 0.5935 0.49152 0.0
C404 C 0.65431 0.58431 0.44208 0.0
C405 C 0.68294 0.6164 0.4498 0.0
C406 C 0.68642 0.63685 0.47899 0.0
C407 C 0.66139 0.62559 0.49952 0.0
H408 H 0.26837 0.32549 0.18261 0.0
H409 H 0.30009 0.42563 0.22792 0.0
H410 H 0.22062 0.32943 0.13876 0.0
H411 H 0.25187 0.42905 0.18483 0.0
H412 H 0.11987 0.38513 0.13982 0.0
H413 H 0.16876 0.37396 0.17284 0.0
H414 H 0.22698 0.38952 0.09386 0.0
H415 H 0.17758 0.4009 0.06014 0.0
C416 C 0.26527 0.34833 0.18301 0.0
C417 C 0.28776 0.37529 0.20856 0.0
C418 C 0.23828 0.3506 0.15791 0.0
C419 C 0.23311 0.37961 0.15855 0.0
C420 C 0.25595 0.40665 0.18373 0.0
C421 C 0.28336 0.40465 0.20832 0.0
C422 C 0.14231 0.3851 0.12885 0.0
C423 C 0.14477 0.39375 0.09728 0.0
C424 C 0.17037 0.37891 0.1479 0.0
C425 C 0.20129 0.38092 0.13572 0.0
C426 C 0.2031 0.38775 0.10352 0.0
C427 C 0.17502 0.3943 0.0844 0.0
H428 H 0.62151 0.17121 0.86687 0.0
H429 H 0.65517 0.24789 0.95139 0.0
H430 H 0.58404 0.13096 0.89742 0.0
H431 H 0.6188 0.20802 0.98185 0.0
H432 H 0.52085 0.13838 0.01619 0.0
H433 H 0.55381 0.17513 0.98107 0.0
H434 H 0.59091 0.10333 0.94646 0.0
H435 H 0.55767 0.06644 0.98179 0.0
C436 C 0.6212 0.17941 0.89202 0.0
C437 C 0.64128 0.21279 0.9067 0.0
C438 C 0.59978 0.15637 0.90953 0.0
C439 C 0.59813 0.16628 0.94205 0.0
C440 C 0.61869 0.19958 0.95665 0.0
C441 C 0.63979 0.22247 0.93921 0.0
C442 C 0.53589 0.13037 1.00098 0.0
C443 C 0.53707 0.09971 1.00207 0.0
C444 C 0.55496 0.15149 0.98094 0.0
C445 C 0.57544 0.1424 0.96118 0.0
C446 C 0.57544 0.11114 0.96133 0.0
C447 C 0.55669 0.09012 0.98177 0.0
H448 H 0.93957 0.81036 0.32673 0.0
H449 H 0.88448 0.75467 0.39652 0.0
H450 H 0.95802 0.86145 0.3653 0.0
H451 H 0.90199 0.80521 0.43437 0.0
H452 H 0.97087 0.90139 0.5098 0.0
H453 H 0.95172 0.84985 0.47205 0.0
H454 H 0.93389 0.89705 0.38808 0.0
H455 H 0.95392 0.94863 0.42584 0.0
C456 C 0.93174 0.80892 0.35036 0.0
C457 C 0.9107 0.77818 0.35836 0.0
C458 C 0.94188 0.83829 0.37241 0.0
C459 C 0.93149 0.83778 0.4032 0.0
C460 C 0.91104 0.80692 0.4113 0.0
C461 C 0.90081 0.77775 0.38932 0.0
C462 C 0.96237 0.90063 0.48331 0.0
C463 C 0.96415 0.9293 0.47093 0.0
C464 C 0.95137 0.871 0.46152 0.0
C465 C 0.94169 0.86909 0.42668 0.0
C466 C 0.94203 0.89753 0.41453 0.0
C467 C 0.95312 0.92712 0.43629 0.0
H468 H 0.30101 0.71347 0.66727 0.0
H469 H 0.34451 0.70942 0.76903 0.0
H470 H 0.34541 0.69583 0.64956 0.0
H471 H 0.3912 0.69398 0.75184 0.0
H472 H 0.45059 0.63887 0.70516 0.0
H473 H 0.4052 0.65435 0.72539 0.0
H474 H 0.40662 0.71372 0.64812 0.0
H475 H 0.44963 0.6964 0.62712 0.0
C476 C 0.32054 0.70923 0.68594 0.0
C477 C 0.31941 0.71298 0.71951 0.0
C478 C 0.34638 0.69936 0.67587 0.0
C479 C 0.37269 0.69392 0.69923 0.0
C480 C 0.37131 0.69751 0.73295 0.0
C481 C 0.34469 0.70659 0.74291 0.0
C482 C 0.44096 0.65519 0.69268 0.0
C483 C 0.4531 0.66614 0.66436 0.0
C484 C 0.41511 0.66427 0.70431 0.0
C485 C 0.40145 0.68498 0.68816 0.0
C486 C 0.41514 0.69685 0.66064 0.0
C487 C 0.44018 0.68722 0.64869 0.0
H488 H 0.70653 0.75797 0.72133 0.0
H489 H 0.79501 0.78199 0.80914 0.0
H490 H 0.74948 0.79928 0.69603 0.0
H491 H 0.83838 0.82303 0.78356 0.0
H492 H 0.89418 0.91202 0.72872 0.0
H493 H 0.85415 0.87603 0.76084 0.0
H494 H 0.80199 0.79926 0.67445 0.0
H495 H 0.84048 0.83504 0.64244 0.0
C496 C 0.73511 0.77231 0.73528 0.0
C497 C 0.74752 0.76677 0.76704 0.0
C498 C 0.75975 0.79584 0.72081 0.0
C499 C 0.79748 0.81387 0.73756 0.0
C500 C 0.80946 0.80956 0.77011 0.0
C501 C 0.78461 0.78616 0.78475 0.0
C502 C 0.87425 0.88736 0.71678 0.0
C503 C 0.87035 0.87645 0.68298 0.0
C504 C 0.8515 0.86678 0.73516 0.0
C505 C 0.82433 0.83515 0.71986 0.0
C506 C 0.82198 0.82381 0.68667 0.0
C507 C 0.84458 0.84418 0.66846 0.0
H508 H 0.78038 0.17288 0.25748 0.0
H509 H 0.7232 0.23525 0.26774 0.0
H510 H 0.73125 0.13939 0.20812 0.0
H511 H 0.67469 0.20203 0.21887 0.0
H512 H 0.57219 0.10805 0.16245 0.0
H513 H 0.6244 0.14552 0.20716 0.0
H514 H 0.70196 0.14106 0.14953 0.0
H515 H 0.64973 0.10327 0.10473 0.0
C516 C 0.75763 0.17963 0.2491 0.0
C517 C 0.75567 0.20662 0.26677 0.0
C518 C 0.72961 0.16057 0.22077 0.0
C519 C 0.69892 0.16792 0.20987 0.0
C520 C 0.69767 0.19547 0.22693 0.0
C521 C 0.72572 0.21465 0.25487 0.0
C522 C 0.60032 0.11522 0.15912 0.0
C523 C 0.60673 0.10247 0.13007 0.0
C524 C 0.63026 0.1368 0.18473 0.0
C525 C 0.66731 0.14611 0.1819 0.0
C526 C 0.67374 0.13396 0.15258 0.0
C527 C 0.64377 0.11245 0.12687 0.0
H528 H 0.4778 0.73119 0.41047 0.0
H529 H 0.45903 0.6633 0.32255 0.0
H530 H 0.48913 0.69336 0.44533 0.0
H531 H 0.4716 0.62607 0.3571 0.0
H532 H 0.45687 0.54871 0.4227 0.0
H533 H 0.44663 0.5882 0.39033 0.0
H534 H 0.52725 0.66789 0.46752 0.0
H535 H 0.53634 0.62771 0.50052 0.0
C536 C 0.4766 0.7084 0.39849 0.0
C537 C 0.46739 0.70048 0.36349 0.0
C538 C 0.48326 0.68659 0.41861 0.0
C539 C 0.48102 0.65608 0.40443 0.0
C540 C 0.47278 0.64872 0.36936 0.0
C541 C 0.46592 0.67039 0.34932 0.0
C542 C 0.47223 0.57466 0.43297 0.0
C543 C 0.49727 0.58489 0.46439 0.0
C544 C 0.46668 0.59754 0.41411 0.0
C545 C 0.48638 0.63172 0.42571 0.0
C546 C 0.51115 0.64197 0.45755 0.0
C547 C 0.51647 0.61889 0.47662 0.0
H548 H 0.16109 0.38456 0.86089 0.0
H549 H 0.21301 0.47905 0.83116 0.0
H550 H 0.13194 0.40693 0.89636 0.0
H551 H 0.18377 0.50173 0.86722 0.0
H552 H 0.0878 0.51734 0.90422 0.0
H553 H 0.12198 0.49829 0.87097 0.0
H554 H 0.14368 0.44376 0.9468 0.0
H555 H 0.10935 0.46254 0.97985 0.0
C556 C 0.16658 0.41026 0.86204 0.0
C557 C 0.18943 0.42986 0.84282 0.0
C558 C 0.14991 0.42321 0.8827 0.0
C559 C 0.15523 0.45623 0.88482 0.0
C560 C 0.17858 0.47609 0.86602 0.0
C561 C 0.19563 0.46314 0.84548 0.0
C562 C 0.09992 0.50135 0.91389 0.0
C563 C 0.0955 0.49145 0.94481 0.0
C564 C 0.11983 0.49057 0.89486 0.0
C565 C 0.13572 0.46933 0.90597 0.0
C566 C 0.13156 0.45973 0.93706 0.0
C567 C 0.11192 0.47068 0.95618 0.0
H568 H 0.64047 0.81544 0.80137 0.0
H569 H 0.67201 0.80123 0.90224 0.0
H570 H 0.59527 0.83396 0.81713 0.0
H571 H 0.62691 0.81946 0.91784 0.0
H572 H 0.54105 0.84638 0.94135 0.0
H573 H 0.55951 0.80982 0.90977 0.0
H574 H 0.6099 0.88665 0.85457 0.0
H575 H 0.59199 0.92313 0.88619 0.0
C576 C 0.63731 0.81579 0.82675 0.0
C577 C 0.66028 0.80766 0.85081 0.0
C578 C 0.61139 0.82624 0.83567 0.0
C579 C 0.60764 0.82816 0.86865 0.0
C580 C 0.62889 0.8179 0.89213 0.0
C581 C 0.65513 0.80795 0.88334 0.0
C582 C 0.55519 0.85508 0.92184 0.0
C583 C 0.56586 0.8878 0.91673 0.0
C584 C 0.56563 0.83417 0.90375 0.0
C585 C 0.58668 0.84566 0.8802 0.0
C586 C 0.59351 0.87707 0.87246 0.0
C587 C 0.58324 0.89802 0.89062 0.0
H588 H 0.94847 0.20611 0.42472 0.0
H589 H 0.83695 0.12868 0.40532 0.0
H590 H 0.97299 0.17178 0.45407 0.0
H591 H 0.86142 0.09323 0.43259 0.0
H592 H 0.90994 0.04613 0.50971 0.0
H593 H 0.88542 0.08148 0.48218 0.0
H594 H 0.98798 0.12797 0.44994 0.0
H595 H 0.01291 0.09402 0.4789 0.0
C596 C 0.92926 0.18146 0.42625 0.0
C597 C 0.89077 0.17013 0.41274 0.0
C598 C 0.94332 0.16155 0.44297 0.0
C599 C 0.91938 0.12937 0.44592 0.0
C600 C 0.88085 0.11797 0.43172 0.0
C601 C 0.86674 0.1382 0.41571 0.0
C602 C 0.92721 0.06397 0.49677 0.0
C603 C 0.9634 0.06714 0.49658 0.0
C604 C 0.91305 0.08419 0.48068 0.0
C605 C 0.9345 0.10786 0.46352 0.0
C606 C 0.97065 0.11072 0.46328 0.0
C607 C 0.98495 0.0909 0.47975 0.0
H608 H 0.3177 0.68871 0.15882 0.0
H609 H 0.24382 0.69024 0.22188 0.0
H610 H 0.26434 0.65311 0.11449 0.0
H611 H 0.19008 0.65355 0.17766 0.0
H612 H 0.10201 0.6189 0.07899 0.0
H613 H 0.15521 0.65345 0.12474 0.0
H614 H 0.21648 0.59938 0.09697 0.0
H615 H 0.1638 0.56635 0.05004 0.0
C616 C 0.29001 0.68112 0.16336 0.0
C617 C 0.28501 0.6923 0.19388 0.0
C618 C 0.25934 0.66045 0.13795 0.0
C619 C 0.2228 0.65033 0.1424 0.0
C620 C 0.21779 0.66114 0.17319 0.0
C621 C 0.24859 0.6819 0.19868 0.0
C622 C 0.12709 0.61473 0.08273 0.0
C623 C 0.12935 0.59045 0.06108 0.0
C624 C 0.15739 0.63421 0.10908 0.0
C625 C 0.19022 0.62922 0.11468 0.0
C626 C 0.19199 0.6044 0.09305 0.0
C627 C 0.16193 0.58541 0.06626 0.0
H628 H 0.29085 0.45317 0.66598 0.0
H629 H 0.38003 0.44672 0.73652 0.0
H630 H 0.33149 0.47036 0.62749 0.0
H631 H 0.42053 0.4634 0.69776 0.0
H632 H 0.49374 0.53164 0.63623 0.0
H633 H 0.4534 0.51117 0.67413 0.0
H634 H 0.36245 0.45043 0.59075 0.0
H635 H 0.40352 0.47102 0.55257 0.0
C636 C 0.31914 0.45541 0.67333 0.0
C637 C 0.33208 0.44868 0.70454 0.0
C638 C 0.34239 0.46498 0.65105 0.0
C639 C 0.37934 0.46813 0.65924 0.0
C640 C 0.3924 0.46159 0.69059 0.0
C641 C 0.36912 0.45201 0.71291 0.0
C642 C 0.46507 0.51394 0.62591 0.0
C643 C 0.45166 0.50333 0.59131 0.0
C644 C 0.44198 0.50192 0.64775 0.0
C645 C 0.40443 0.47925 0.63568 0.0
C646 C 0.39108 0.46818 0.60098 0.0
C647 C 0.41458 0.4798 0.57906 0.0
H648 H 0.72916 0.61521 0.86034 0.0
H649 H 0.78595 0.72046 0.8669 0.0
H650 H 0.78626 0.61489 0.89295 0.0
H651 H 0.84375 0.71999 0.89851 0.0
H652 H 0.93606 0.67408 0.89649 0.0
H653 H 0.88426 0.68876 0.87833 0.0
H654 H 0.83214 0.64205 0.954 0.0
H655 H 0.88462 0.62848 0.9733 0.0
C656 C 0.7538 0.63826 0.86918 0.0
C657 C 0.75333 0.66785 0.86159 0.0
C658 C 0.78631 0.63814 0.88787 0.0
C659 C 0.81911 0.66748 0.89837 0.0
C660 C 0.81862 0.69718 0.89091 0.0
C661 C 0.78569 0.69743 0.87305 0.0
C662 C 0.91436 0.66804 0.91016 0.0
C663 C 0.91405 0.64942 0.93588 0.0
C664 C 0.88468 0.6764 0.89967 0.0
C665 C 0.85414 0.66601 0.91452 0.0
C666 C 0.85527 0.6499 0.94197 0.0
C667 C 0.88515 0.64197 0.95279 0.0
H668 H 0.39034 0.84432 0.21717 0.0
H669 H 0.50074 0.84675 0.23723 0.0
H670 H 0.40865 0.88504 0.18133 0.0
H671 H 0.51905 0.88745 0.20042 0.0
H672 H 0.55257 0.98345 0.15917 0.0
H673 H 0.53321 0.94304 0.19554 0.0
H674 H 0.42318 0.89583 0.12958 0.0
H675 H 0.44258 0.93724 0.09364 0.0
C676 C 0.41871 0.85353 0.21404 0.0
C677 C 0.44414 0.84219 0.23064 0.0
C678 C 0.42911 0.87686 0.193 0.0
C679 C 0.46544 0.88992 0.1877 0.0
C680 C 0.49094 0.87851 0.20415 0.0
C681 C 0.48044 0.85497 0.22525 0.0
C682 C 0.5241 0.96459 0.15254 0.0
C683 C 0.49917 0.96366 0.12344 0.0
C684 C 0.51306 0.94108 0.1733 0.0
C685 C 0.47669 0.91557 0.16559 0.0
C686 C 0.45136 0.9151 0.13673 0.0
C687 C 0.46242 0.93889 0.11601 0.0
H688 H 0.17988 0.26144 0.69209 0.0
H689 H 0.11756 0.21765 0.76349 0.0
H690 H 0.15275 0.20771 0.65609 0.0
H691 H 0.08918 0.16491 0.72734 0.0
H692 H 0.05757 0.06675 0.6707 0.0
H693 H 0.09557 0.11987 0.70629 0.0
H694 H 0.09945 0.16737 0.61952 0.0
H695 H 0.06382 0.11337 0.58392 0.0
C696 C 0.16039 0.24038 0.70011 0.0
C697 C 0.15099 0.24397 0.73077 0.0
C698 C 0.14454 0.20951 0.67932 0.0
C699 C 0.11864 0.18146 0.68855 0.0
C700 C 0.10958 0.18534 0.71938 0.0
C701 C 0.12569 0.21594 0.74018 0.0
C702 C 0.06718 0.08857 0.65931 0.0
C703 C 0.05779 0.08604 0.62466 0.0
C704 C 0.08863 0.11922 0.67971 0.0
C705 C 0.10009 0.14847 0.66614 0.0
C706 C 0.09162 0.14566 0.63115 0.0
C707 C 0.07106 0.11471 0.61063 0.0
H708 H 0.75948 0.34602 0.42061 0.0
H709 H 0.73495 0.3701 0.323 0.0
H710 H 0.7214 0.37108 0.43933 0.0
H711 H 0.69568 0.39429 0.34139 0.0
H712 H 0.64965 0.45854 0.395 0.0
H713 H 0.69119 0.43749 0.37491 0.0
H714 H 0.65826 0.35966 0.43326 0.0
H715 H 0.61861 0.3817 0.45419 0.0
C716 C 0.74605 0.35676 0.40313 0.0
C717 C 0.75012 0.35577 0.37024 0.0
C718 C 0.72379 0.37089 0.41377 0.0
C719 C 0.7047 0.3843 0.39178 0.0
C720 C 0.7099 0.38436 0.35914 0.0
C721 C 0.73234 0.3703 0.34852 0.0
C722 C 0.65138 0.43687 0.4033 0.0
C723 C 0.63123 0.42186 0.42634 0.0
C724 C 0.67507 0.42471 0.39178 0.0
C725 C 0.67871 0.39707 0.40281 0.0
C726 C 0.65729 0.38155 0.42495 0.0
C727 C 0.63421 0.39396 0.43675 0.0
loop_
_geom_bond_atom_site_label_1
_geom_bond_atom_site_label_2
_geom_bond_distance
_geom_bond_site_symmetry_2
_ccdc_geom_bond_type
O0 Cd1 2.300 . S
O0 C7 1.275 . S
Cd1 O0 2.300 . S
Cd1 O9 2.381 . S
Cd1 O10 2.378 . S
O2 Cd3 2.385 . S
O2 C7 1.255 . S
Cd3 O2 2.385 . S
Cd3 O4 2.317 . S
O4 Cd3 2.317 . S
O4 C5 1.232 . S
C5 O4 1.232 . S
C5 O6 1.218 . S
O6 C5 1.218 . S
C7 O0 1.275 . S
C7 O2 1.255 . S
C8 O9 1.258 . S
C8 O10 1.256 . S
O9 Cd1 2.381 . S
O9 C8 1.258 . S
O10 Cd1 2.378 . S
O10 C8 1.256 . S
O11 Cd12 2.300 . S
O11 C18 1.275 . S
Cd12 O11 2.300 . S
Cd12 O20 2.381 . S
Cd12 O21 2.378 . S
O13 Cd14 2.385 . S
O13 C18 1.255 . S
Cd14 O13 2.385 . S
Cd14 O15 2.317 . S
O15 Cd14 2.317 . S
O15 C16 1.232 . S
C16 O15 1.232 . S
C16 O17 1.218 . S
O17 C16 1.218 . S
C18 O11 1.275 . S
C18 O13 1.255 . S
C19 O20 1.258 . S
C19 O21 1.256 . S
O20 Cd12 2.381 . S
O20 C19 1.258 . S
O21 Cd12 2.378 . S
O21 C19 1.256 . S
O22 Cd23 2.300 . S
O22 C29 1.275 . S
Cd23 O22 2.300 . S
Cd23 O31 2.381 . S
Cd23 O32 2.378 . S
O24 Cd25 2.385 . S
O24 C29 1.255 . S
Cd25 O24 2.385 . S
Cd25 O26 2.317 . S
O26 Cd25 2.317 . S
O26 C27 1.232 . S
C27 O26 1.232 . S
C27 O28 1.218 . S
O28 C27 1.218 . S
C29 O22 1.275 . S
C29 O24 1.255 . S
C30 O31 1.258 . S
C30 O32 1.256 . S
O31 Cd23 2.381 . S
O31 C30 1.258 . S
O32 Cd23 2.378 . S
O32 C30 1.256 . S
O33 Cd34 2.300 . S
O33 C40 1.275 . S
Cd34 O33 2.300 . S
Cd34 O42 2.381 . S
Cd34 O43 2.378 . S
O35 Cd36 2.385 . S
O35 C40 1.255 . S
Cd36 O35 2.385 . S
Cd36 O37 2.317 . S
O37 Cd36 2.317 . S
O37 C38 1.232 . S
C38 O37 1.232 . S
C38 O39 1.218 . S
O39 C38 1.218 . S
C40 O33 1.275 . S
C40 O35 1.255 . S
C41 O42 1.258 . S
C41 O43 1.256 . S
O42 Cd34 2.381 . S
O42 C41 1.258 . S
O43 Cd34 2.378 . S
O43 C41 1.256 . S
O44 Cd45 2.300 . S
O44 C51 1.275 . S
Cd45 O44 2.300 . S
Cd45 O53 2.381 . S
Cd45 O54 2.378 . S
O46 Cd47 2.385 . S
O46 C51 1.255 . S
Cd47 O46 2.385 . S
Cd47 O48 2.317 . S
O48 Cd47 2.317 . S
O48 C49 1.232 . S
C49 O48 1.232 . S
C49 O50 1.218 . S
O50 C49 1.218 . S
C51 O44 1.275 . S
C51 O46 1.255 . S
C52 O53 1.258 . S
C52 O54 1.256 . S
O53 Cd45 2.381 . S
O53 C52 1.258 . S
O54 Cd45 2.378 . S
O54 C52 1.256 . S
O55 Cd56 2.300 . S
O55 C62 1.275 . S
Cd56 O55 2.300 . S
Cd56 O64 2.381 . S
Cd56 O65 2.378 . S
O57 Cd58 2.385 . S
O57 C62 1.255 . S
Cd58 O57 2.385 . S
Cd58 O59 2.317 . S
O59 Cd58 2.317 . S
O59 C60 1.232 . S
C60 O59 1.232 . S
C60 O61 1.218 . S
O61 C60 1.218 . S
C62 O55 1.275 . S
C62 O57 1.255 . S
C63 O64 1.258 . S
C63 O65 1.256 . S
O64 Cd56 2.381 . S
O64 C63 1.258 . S
O65 Cd56 2.378 . S
O65 C63 1.256 . S
O66 Cd67 2.300 . S
O66 C73 1.275 . S
Cd67 O66 2.300 . S
Cd67 O75 2.381 . S
Cd67 O76 2.378 . S
O68 Cd69 2.385 . S
O68 C73 1.255 . S
Cd69 O68 2.385 . S
Cd69 O70 2.317 . S
O70 Cd69 2.317 . S
O70 C71 1.232 . S
C71 O70 1.232 . S
C71 O72 1.218 . S
O72 C71 1.218 . S
C73 O66 1.275 . S
C73 O68 1.255 . S
C74 O75 1.258 . S
C74 O76 1.256 . S
O75 Cd67 2.381 . S
O75 C74 1.258 . S
O76 Cd67 2.378 . S
O76 C74 1.256 . S
O77 Cd78 2.300 . S
O77 C84 1.275 . S
Cd78 O77 2.300 . S
Cd78 O86 2.381 . S
Cd78 O87 2.378 . S
O79 Cd80 2.385 . S
O79 C84 1.255 . S
Cd80 O79 2.385 . S
Cd80 O81 2.317 . S
O81 Cd80 2.317 . S
O81 C82 1.232 . S
C82 O81 1.232 . S
C82 O83 1.218 . S
O83 C82 1.218 . S
C84 O77 1.275 . S
C84 O79 1.255 . S
C85 O86 1.258 . S
C85 O87 1.256 . S
O86 Cd78 2.381 . S
O86 C85 1.258 . S
O87 Cd78 2.378 . S
O87 C85 1.256 . S
Pr88 C90 2.880 . S
Pr88 O108 2.562 . S
Pr88 O109 2.490 . S
Pr88 O110 2.695 1_665 S
Pr88 O111 2.512 1_665 S
Pr88 O113 2.437 1_655 S
Pr88 O116 2.436 . S
Pr88 O118 2.438 1_565 S
Pr89 C99 2.880 . S
Pr89 O110 2.436 . S
Pr89 O112 2.438 1_545 S
Pr89 O114 2.562 . S
Pr89 O115 2.490 . S
Pr89 O116 2.695 1_445 S
Pr89 O117 2.512 1_545 S
Pr89 O119 2.437 1_455 S
C90 Pr88 2.880 . S
C90 C91 1.491 . S
C90 O108 1.254 . S
C90 O109 1.225 . S
C91 C90 1.491 . S
C91 C92 1.392 . S
C91 C96 1.356 . S
C92 C91 1.392 . S
C92 C93 1.368 . S
C92 H120 0.929 . S
C93 C92 1.368 . S
C93 C94 1.386 . S
C93 H121 0.929 . S
C94 C93 1.386 . S
C94 C95 1.373 . S
C95 C94 1.373 . S
C95 C96 1.409 . S
C95 H122 0.931 . S
C96 C91 1.356 . S
C96 C95 1.409 . S
C96 H123 0.930 . S
C97 O110 1.270 . S
C97 O111 1.248 . S
C98 O112 1.267 . S
C98 O113 1.278 . S
C99 Pr89 2.880 . S
C99 C100 1.491 . S
C99 O114 1.254 . S
C99 O115 1.225 . S
C100 C99 1.491 . S
C100 C101 1.392 . S
C100 C105 1.356 . S
C101 C100 1.392 . S
C101 C102 1.368 . S
C101 H124 0.929 . S
C102 C101 1.368 . S
C102 C103 1.386 . S
C102 H125 0.929 . S
C103 C102 1.386 . S
C103 C104 1.373 . S
C104 C103 1.373 . S
C104 C105 1.409 . S
C104 H126 0.931 . S
C105 C100 1.356 . S
C105 C104 1.409 . S
C105 H127 0.930 . S
C106 O116 1.270 . S
C106 O117 1.248 1_655 S
C107 O118 1.267 . S
C107 O119 1.278 . S
O108 Pr88 2.562 . S
O108 C90 1.254 . S
O109 Pr88 2.490 . S
O109 C90 1.225 . S
O110 Pr88 2.695 1_445 S
O110 Pr89 2.436 . S
O110 C97 1.270 . S
O111 Pr88 2.512 1_445 S
O111 C97 1.248 . S
O112 Pr89 2.438 1_565 S
O112 C98 1.267 . S
O113 Pr88 2.437 1_455 S
O113 C98 1.278 . S
O114 Pr89 2.562 . S
O114 C99 1.254 . S
O115 Pr89 2.490 . S
O115 C99 1.225 . S
O116 Pr88 2.436 . S
O116 Pr89 2.695 1_665 S
O116 C106 1.270 . S
O117 Pr89 2.512 1_565 S
O117 C106 1.248 1_455 S
O118 Pr88 2.438 1_545 S
O118 C107 1.267 . S
O119 Pr89 2.437 1_655 S
O119 C107 1.278 . S
H120 C92 0.929 . S
H121 C93 0.929 . S
H122 C95 0.931 . S
H123 C96 0.930 . S
H124 C101 0.929 . S
H125 C102 0.929 . S
H126 C104 0.931 . S
H127 C105 0.930 . S
Pr128 C130 2.880 . S
Pr128 O148 2.562 . S
Pr128 O149 2.490 . S
Pr128 O150 2.695 . S
Pr128 O151 2.512 . S
Pr128 O153 2.437 . S
Pr128 O156 2.436 . S
Pr128 O158 2.438 1_544 S
Pr129 C139 2.880 1_544 S
Pr129 O150 2.436 . S
Pr129 O152 2.438 . S
Pr129 O154 2.562 1_544 S
Pr129 O155 2.490 1_545 S
Pr129 O156 2.695 . S
Pr129 O157 2.512 1_545 S
Pr129 O159 2.437 1_545 S
C130 Pr128 2.880 . S
C130 C131 1.491 . S
C130 O148 1.254 . S
C130 O149 1.225 . S
C131 C130 1.491 . S
C131 C132 1.392 . S
C131 C136 1.356 . S
C132 C131 1.392 . S
C132 C133 1.368 . S
C132 H160 0.929 . S
C133 C132 1.368 . S
C133 C134 1.386 . S
C133 H161 0.929 . S
C134 C133 1.386 . S
C134 C135 1.373 . S
C135 C134 1.373 . S
C135 C136 1.409 . S
C135 H162 0.931 . S
C136 C131 1.356 . S
C136 C135 1.409 . S
C136 H163 0.930 . S
C137 O150 1.270 . S
C137 O151 1.248 . S
C138 O152 1.267 . S
C138 O153 1.278 . S
C139 Pr129 2.880 1_566 S
C139 C140 1.491 . S
C139 O154 1.254 . S
C139 O155 1.225 1_556 S
C140 C139 1.491 . S
C140 C141 1.392 . S
C140 C145 1.356 . S
C141 C140 1.392 . S
C141 C142 1.368 . S
C141 H164 0.929 . S
C142 C141 1.368 . S
C142 C143 1.386 . S
C142 H165 0.929 . S
C143 C142 1.386 . S
C143 C144 1.373 . S
C144 C143 1.373 . S
C144 C145 1.409 . S
C144 H166 0.931 . S
C145 C140 1.356 . S
C145 C144 1.409 . S
C145 H167 0.930 . S
C146 O156 1.270 1_565 S
C146 O157 1.248 . S
C147 O158 1.267 . S
C147 O159 1.278 1_556 S
O148 Pr128 2.562 . S
O148 C130 1.254 . S
O149 Pr128 2.490 . S
O149 C130 1.225 . S
O150 Pr128 2.695 . S
O150 Pr129 2.436 . S
O150 C137 1.270 . S
O151 Pr128 2.512 . S
O151 C137 1.248 . S
O152 Pr129 2.438 . S
O152 C138 1.267 . S
O153 Pr128 2.437 . S
O153 C138 1.278 . S
O154 Pr129 2.562 1_566 S
O154 C139 1.254 . S
O155 Pr129 2.490 1_565 S
O155 C139 1.225 1_554 S
O156 Pr128 2.436 . S
O156 Pr129 2.695 . S
O156 C146 1.270 1_545 S
O157 Pr129 2.512 1_565 S
O157 C146 1.248 . S
O158 Pr128 2.438 1_566 S
O158 C147 1.267 . S
O159 Pr129 2.437 1_565 S
O159 C147 1.278 1_554 S
H160 C132 0.929 . S
H161 C133 0.929 . S
H162 C135 0.931 . S
H163 C136 0.930 . S
H164 C141 0.929 . S
H165 C142 0.929 . S
H166 C144 0.931 . S
H167 C145 0.930 . S
Pr168 C170 2.880 . S
Pr168 O188 2.562 . S
Pr168 O189 2.490 . S
Pr168 O190 2.695 . S
Pr168 O191 2.512 . S
Pr168 O193 2.437 . S
Pr168 O196 2.436 . S
Pr168 O198 2.438 . S
Pr169 C179 2.880 . S
Pr169 O190 2.436 . S
Pr169 O192 2.438 . S
Pr169 O194 2.562 . S
Pr169 O195 2.490 . S
Pr169 O196 2.695 . S
Pr169 O197 2.512 . S
Pr169 O199 2.437 . S
C170 Pr168 2.880 . S
C170 C171 1.491 . S
C170 O188 1.254 . S
C170 O189 1.225 . S
C171 C170 1.491 . S
C171 C172 1.392 . S
C171 C176 1.356 . S
C172 C171 1.392 . S
C172 C173 1.368 . S
C172 H200 0.929 . S
C173 C172 1.368 . S
C173 C174 1.386 . S
C173 H201 0.929 . S
C174 C173 1.386 . S
C174 C175 1.373 . S
C175 C174 1.373 . S
C175 C176 1.409 . S
C175 H202 0.931 . S
C176 C171 1.356 . S
C176 C175 1.409 . S
C176 H203 0.930 . S
C177 O190 1.270 . S
C177 O191 1.248 . S
C178 O192 1.267 . S
C178 O193 1.278 . S
C179 Pr169 2.880 . S
C179 C180 1.491 . S
C179 O194 1.254 . S
C179 O195 1.225 . S
C180 C179 1.491 . S
C180 C181 1.392 . S
C180 C185 1.356 . S
C181 C180 1.392 . S
C181 C182 1.368 . S
C181 H204 0.929 . S
C182 C181 1.368 . S
C182 C183 1.386 . S
C182 H205 0.929 . S
C183 C182 1.386 . S
C183 C184 1.373 . S
C184 C183 1.373 . S
C184 C185 1.409 . S
C184 H206 0.931 . S
C185 C180 1.356 . S
C185 C184 1.409 . S
C185 H207 0.930 . S
C186 O196 1.270 . S
C186 O197 1.248 . S
C187 O198 1.267 . S
C187 O199 1.278 . S
O188 Pr168 2.562 . S
O188 C170 1.254 . S
O189 Pr168 2.490 . S
O189 C170 1.225 . S
O190 Pr168 2.695 . S
O190 Pr169 2.436 . S
O190 C177 1.270 . S
O191 Pr168 2.512 . S
O191 C177 1.248 . S
O192 Pr169 2.438 . S
O192 C178 1.267 . S
O193 Pr168 2.437 . S
O193 C178 1.278 . S
O194 Pr169 2.562 . S
O194 C179 1.254 . S
O195 Pr169 2.490 . S
O195 C179 1.225 . S
O196 Pr168 2.436 . S
O196 Pr169 2.695 . S
O196 C186 1.270 . S
O197 Pr169 2.512 . S
O197 C186 1.248 . S
O198 Pr168 2.438 . S
O198 C187 1.267 . S
O199 Pr169 2.437 . S
O199 C187 1.278 . S
H200 C172 0.929 . S
H201 C173 0.929 . S
H202 C175 0.931 . S
H203 C176 0.930 . S
H204 C181 0.929 . S
H205 C182 0.929 . S
H206 C184 0.931 . S
H207 C185 0.930 . S
Pr208 C210 2.880 1_455 S
Pr208 O228 2.562 1_455 S
Pr208 O229 2.490 . S
Pr208 O230 2.695 1_556 S
Pr208 O231 2.512 1_556 S
Pr208 O233 2.437 1_556 S
Pr208 O236 2.436 1_455 S
Pr208 O238 2.438 . S
Pr209 C219 2.880 . S
Pr209 O230 2.436 . S
Pr209 O232 2.438 1_455 S
Pr209 O234 2.562 . S
Pr209 O235 2.490 . S
Pr209 O236 2.695 1_454 S
Pr209 O237 2.512 1_454 S
Pr209 O239 2.437 1_554 S
C210 Pr208 2.880 1_655 S
C210 C211 1.491 . S
C210 O228 1.254 . S
C210 O229 1.225 1_655 S
C211 C210 1.491 . S
C211 C212 1.392 . S
C211 C216 1.356 . S
C212 C211 1.392 . S
C212 C213 1.368 . S
C212 H240 0.929 1_655 S
C213 C212 1.368 . S
C213 C214 1.386 . S
C213 H241 0.929 . S
C214 C213 1.386 . S
C214 C215 1.373 . S
C215 C214 1.373 . S
C215 C216 1.409 . S
C215 H242 0.931 . S
C216 C211 1.356 . S
C216 C215 1.409 . S
C216 H243 0.930 . S
C217 O230 1.270 . S
C217 O231 1.248 . S
C218 O232 1.267 . S
C218 O233 1.278 1_655 S
C219 Pr209 2.880 . S
C219 C220 1.491 . S
C219 O234 1.254 . S
C219 O235 1.225 . S
C220 C219 1.491 . S
C220 C221 1.392 . S
C220 C225 1.356 . S
C221 C220 1.392 . S
C221 C222 1.368 . S
C221 H244 0.929 . S
C222 C221 1.368 . S
C222 C223 1.386 . S
C222 H245 0.929 . S
C223 C222 1.386 . S
C223 C224 1.373 . S
C224 C223 1.373 . S
C224 C225 1.409 . S
C224 H246 0.931 . S
C225 C220 1.356 . S
C225 C224 1.409 . S
C225 H247 0.930 . S
C226 O236 1.270 . S
C226 O237 1.248 . S
C227 O238 1.267 . S
C227 O239 1.278 . S
O228 Pr208 2.562 1_655 S
O228 C210 1.254 . S
O229 Pr208 2.490 . S
O229 C210 1.225 1_455 S
O230 Pr208 2.695 1_554 S
O230 Pr209 2.436 . S
O230 C217 1.270 . S
O231 Pr208 2.512 1_554 S
O231 C217 1.248 . S
O232 Pr209 2.438 1_655 S
O232 C218 1.267 . S
O233 Pr208 2.437 1_554 S
O233 C218 1.278 1_455 S
O234 Pr209 2.562 . S
O234 C219 1.254 . S
O235 Pr209 2.490 . S
O235 C219 1.225 . S
O236 Pr208 2.436 1_655 S
O236 Pr209 2.695 1_656 S
O236 C226 1.270 . S
O237 Pr209 2.512 1_656 S
O237 C226 1.248 . S
O238 Pr208 2.438 . S
O238 C227 1.267 . S
O239 Pr209 2.437 1_556 S
O239 C227 1.278 . S
H240 C212 0.929 1_455 S
H241 C213 0.929 . S
H242 C215 0.931 . S
H243 C216 0.930 . S
H244 C221 0.929 . S
H245 C222 0.929 . S
H246 C224 0.931 . S
H247 C225 0.930 . S
H248 C256 0.950 . S
H249 C261 0.950 . S
H250 C258 0.950 . S
H251 C260 0.950 . S
H252 C262 0.950 . S
H253 C264 0.950 . S
H254 C266 0.950 . S
H255 C267 0.950 . S
C256 H248 0.950 . S
C256 C257 1.386 . S
C256 C258 1.391 . S
C257 C256 1.386 . S
C257 C261 1.393 . S
C258 H250 0.950 . S
C258 C256 1.391 . S
C258 C259 1.400 . S
C259 C258 1.400 . S
C259 C260 1.398 . S
C259 C265 1.491 . S
C260 H251 0.950 . S
C260 C259 1.398 . S
C260 C261 1.391 . S
C261 H249 0.950 . S
C261 C257 1.393 . S
C261 C260 1.391 . S
C262 H252 0.950 . S
C262 C263 1.386 . S
C262 C264 1.391 . S
C263 C262 1.386 . S
C263 C267 1.393 . S
C264 H253 0.950 . S
C264 C262 1.391 . S
C264 C265 1.400 . S
C265 C259 1.491 . S
C265 C264 1.400 . S
C265 C266 1.398 . S
C266 H254 0.950 . S
C266 C265 1.398 . S
C266 C267 1.391 . S
C267 H255 0.950 . S
C267 C263 1.393 . S
C267 C266 1.391 . S
H268 C276 0.950 . S
H269 C281 0.950 . S
H270 C278 0.950 . S
H271 C280 0.950 . S
H272 C282 0.950 . S
H273 C284 0.950 . S
H274 C286 0.950 . S
H275 C287 0.950 . S
C276 H268 0.950 . S
C276 C277 1.386 . S
C276 C278 1.391 . S
C277 C276 1.386 . S
C277 C281 1.393 . S
C278 H270 0.950 . S
C278 C276 1.391 . S
C278 C279 1.400 . S
C279 C278 1.400 . S
C279 C280 1.398 . S
C279 C285 1.491 . S
C280 H271 0.950 . S
C280 C279 1.398 . S
C280 C281 1.391 . S
C281 H269 0.950 . S
C281 C277 1.393 . S
C281 C280 1.391 . S
C282 H272 0.950 . S
C282 C283 1.386 . S
C282 C284 1.391 . S
C283 C282 1.386 . S
C283 C287 1.393 . S
C284 H273 0.950 . S
C284 C282 1.391 . S
C284 C285 1.400 . S
C285 C279 1.491 . S
C285 C284 1.400 . S
C285 C286 1.398 . S
C286 H274 0.950 . S
C286 C285 1.398 . S
C286 C287 1.391 . S
C287 H275 0.950 . S
C287 C283 1.393 . S
C287 C286 1.391 . S
H288 C296 0.950 . S
H289 C301 0.950 . S
H290 C298 0.950 . S
H291 C300 0.950 . S
H292 C302 0.950 . S
H293 C304 0.950 . S
H294 C306 0.950 . S
H295 C307 0.950 . S
C296 H288 0.950 . S
C296 C297 1.386 . S
C296 C298 1.391 . S
C297 C296 1.386 . S
C297 C301 1.393 . S
C298 H290 0.950 . S
C298 C296 1.391 . S
C298 C299 1.400 . S
C299 C298 1.400 . S
C299 C300 1.398 . S
C299 C305 1.491 . S
C300 H291 0.950 . S
C300 C299 1.398 . S
C300 C301 1.391 . S
C301 H289 0.950 . S
C301 C297 1.393 . S
C301 C300 1.391 . S
C302 H292 0.950 . S
C302 C303 1.386 . S
C302 C304 1.391 . S
C303 C302 1.386 . S
C303 C307 1.393 . S
C304 H293 0.950 . S
C304 C302 1.391 . S
C304 C305 1.400 . S
C305 C299 1.491 . S
C305 C304 1.400 . S
C305 C306 1.398 . S
C306 H294 0.950 . S
C306 C305 1.398 . S
C306 C307 1.391 . S
C307 H295 0.950 . S
C307 C303 1.393 . S
C307 C306 1.391 . S
H308 C316 0.950 . S
H309 C321 0.950 . S
H310 C318 0.950 . S
H311 C320 0.950 . S
H312 C322 0.950 . S
H313 C324 0.950 . S
H314 C326 0.950 . S
H315 C327 0.950 1_455 S
C316 H308 0.950 . S
C316 C317 1.386 . S
C316 C318 1.391 . S
C317 C316 1.386 . S
C317 C321 1.393 . S
C318 H310 0.950 . S
C318 C316 1.391 . S
C318 C319 1.400 . S
C319 C318 1.400 . S
C319 C320 1.398 . S
C319 C325 1.491 . S
C320 H311 0.950 . S
C320 C319 1.398 . S
C320 C321 1.391 . S
C321 H309 0.950 . S
C321 C317 1.393 . S
C321 C320 1.391 . S
C322 H312 0.950 . S
C322 C323 1.386 . S
C322 C324 1.391 . S
C323 C322 1.386 . S
C323 C327 1.393 . S
C324 H313 0.950 . S
C324 C322 1.391 . S
C324 C325 1.400 . S
C325 C319 1.491 . S
C325 C324 1.400 . S
C325 C326 1.398 . S
C326 H314 0.950 . S
C326 C325 1.398 . S
C326 C327 1.391 . S
C327 H315 0.950 1_655 S
C327 C323 1.393 . S
C327 C326 1.391 . S
H328 C336 0.950 . S
H329 C341 0.950 . S
H330 C338 0.950 . S
H331 C340 0.950 . S
H332 C342 0.950 . S
H333 C344 0.950 . S
H334 C346 0.950 . S
H335 C347 0.950 . S
C336 H328 0.950 . S
C336 C337 1.386 . S
C336 C338 1.391 . S
C337 C336 1.386 . S
C337 C341 1.393 . S
C338 H330 0.950 . S
C338 C336 1.391 . S
C338 C339 1.400 . S
C339 C338 1.400 . S
C339 C340 1.398 . S
C339 C345 1.491 . S
C340 H331 0.950 . S
C340 C339 1.398 . S
C340 C341 1.391 . S
C341 H329 0.950 . S
C341 C337 1.393 . S
C341 C340 1.391 . S
C342 H332 0.950 . S
C342 C343 1.386 . S
C342 C344 1.391 . S
C343 C342 1.386 . S
C343 C347 1.393 . S
C344 H333 0.950 . S
C344 C342 1.391 . S
C344 C345 1.400 . S
C345 C339 1.491 . S
C345 C344 1.400 . S
C345 C346 1.398 . S
C346 H334 0.950 . S
C346 C345 1.398 . S
C346 C347 1.391 . S
C347 H335 0.950 . S
C347 C343 1.393 . S
C347 C346 1.391 . S
H348 C356 0.950 . S
H349 C361 0.950 . S
H350 C358 0.950 . S
H351 C360 0.950 . S
H352 C362 0.950 . S
H353 C364 0.950 . S
H354 C366 0.950 . S
H355 C367 0.950 . S
C356 H348 0.950 . S
C356 C357 1.386 . S
C356 C358 1.391 . S
C357 C356 1.386 . S
C357 C361 1.393 . S
C358 H350 0.950 . S
C358 C356 1.391 . S
C358 C359 1.400 . S
C359 C358 1.400 . S
C359 C360 1.398 . S
C359 C365 1.491 . S
C360 H351 0.950 . S
C360 C359 1.398 . S
C360 C361 1.391 . S
C361 H349 0.950 . S
C361 C357 1.393 . S
C361 C360 1.391 . S
C362 H352 0.950 . S
C362 C363 1.386 . S
C362 C364 1.391 . S
C363 C362 1.386 . S
C363 C367 1.393 . S
C364 H353 0.950 . S
C364 C362 1.391 . S
C364 C365 1.400 . S
C365 C359 1.491 . S
C365 C364 1.400 . S
C365 C366 1.398 . S
C366 H354 0.950 . S
C366 C365 1.398 . S
C366 C367 1.391 . S
C367 H355 0.950 . S
C367 C363 1.393 . S
C367 C366 1.391 . S
H368 C376 0.950 . S
H369 C381 0.950 . S
H370 C378 0.950 . S
H371 C380 0.950 . S
H372 C382 0.950 . S
H373 C384 0.950 . S
H374 C386 0.950 . S
H375 C387 0.950 . S
C376 H368 0.950 . S
C376 C377 1.386 . S
C376 C378 1.391 . S
C377 C376 1.386 . S
C377 C381 1.393 . S
C378 H370 0.950 . S
C378 C376 1.391 . S
C378 C379 1.400 . S
C379 C378 1.400 . S
C379 C380 1.398 . S
C379 C385 1.491 . S
C380 H371 0.950 . S
C380 C379 1.398 . S
C380 C381 1.391 . S
C381 H369 0.950 . S
C381 C377 1.393 . S
C381 C380 1.391 . S
C382 H372 0.950 . S
C382 C383 1.386 . S
C382 C384 1.391 . S
C383 C382 1.386 . S
C383 C387 1.393 . S
C384 H373 0.950 . S
C384 C382 1.391 . S
C384 C385 1.400 . S
C385 C379 1.491 . S
C385 C384 1.400 . S
C385 C386 1.398 . S
C386 H374 0.950 . S
C386 C385 1.398 . S
C386 C387 1.391 . S
C387 H375 0.950 . S
C387 C383 1.393 . S
C387 C386 1.391 . S
H388 C396 0.950 . S
H389 C401 0.950 . S
H390 C398 0.950 . S
H391 C400 0.950 . S
H392 C402 0.950 . S
H393 C404 0.950 . S
H394 C406 0.950 . S
H395 C407 0.950 . S
C396 H388 0.950 . S
C396 C397 1.386 . S
C396 C398 1.391 . S
C397 C396 1.386 . S
C397 C401 1.393 . S
C398 H390 0.950 . S
C398 C396 1.391 . S
C398 C399 1.400 . S
C399 C398 1.400 . S
C399 C400 1.398 . S
C399 C405 1.491 . S
C400 H391 0.950 . S
C400 C399 1.398 . S
C400 C401 1.391 . S
C401 H389 0.950 . S
C401 C397 1.393 . S
C401 C400 1.391 . S
C402 H392 0.950 . S
C402 C403 1.386 . S
C402 C404 1.391 . S
C403 C402 1.386 . S
C403 C407 1.393 . S
C404 H393 0.950 . S
C404 C402 1.391 . S
C404 C405 1.400 . S
C405 C399 1.491 . S
C405 C404 1.400 . S
C405 C406 1.398 . S
C406 H394 0.950 . S
C406 C405 1.398 . S
C406 C407 1.391 . S
C407 H395 0.950 . S
C407 C403 1.393 . S
C407 C406 1.391 . S
H408 C416 0.950 . S
H409 C421 0.950 . S
H410 C418 0.950 . S
H411 C420 0.950 . S
H412 C422 0.950 . S
H413 C424 0.950 . S
H414 C426 0.950 . S
H415 C427 0.950 . S
C416 H408 0.950 . S
C416 C417 1.386 . S
C416 C418 1.391 . S
C417 C416 1.386 . S
C417 C421 1.393 . S
C418 H410 0.950 . S
C418 C416 1.391 . S
C418 C419 1.400 . S
C419 C418 1.400 . S
C419 C420 1.398 . S
C419 C425 1.491 . S
C420 H411 0.950 . S
C420 C419 1.398 . S
C420 C421 1.391 . S
C421 H409 0.950 . S
C421 C417 1.393 . S
C421 C420 1.391 . S
C422 H412 0.950 . S
C422 C423 1.386 . S
C422 C424 1.391 . S
C423 C422 1.386 . S
C423 C427 1.393 . S
C424 H413 0.950 . S
C424 C422 1.391 . S
C424 C425 1.400 . S
C425 C419 1.491 . S
C425 C424 1.400 . S
C425 C426 1.398 . S
C426 H414 0.950 . S
C426 C425 1.398 . S
C426 C427 1.391 . S
C427 H415 0.950 . S
C427 C423 1.393 . S
C427 C426 1.391 . S
H428 C436 0.950 . S
H429 C441 0.950 . S
H430 C438 0.950 . S
H431 C440 0.950 . S
H432 C442 0.950 1_554 S
H433 C444 0.950 . S
H434 C446 0.950 . S
H435 C447 0.950 . S
C436 H428 0.950 . S
C436 C437 1.386 . S
C436 C438 1.391 . S
C437 C436 1.386 . S
C437 C441 1.393 . S
C438 H430 0.950 . S
C438 C436 1.391 . S
C438 C439 1.400 . S
C439 C438 1.400 . S
C439 C440 1.398 . S
C439 C445 1.491 . S
C440 H431 0.950 . S
C440 C439 1.398 . S
C440 C441 1.391 . S
C441 H429 0.950 . S
C441 C437 1.393 . S
C441 C440 1.391 . S
C442 H432 0.950 1_556 S
C442 C443 1.386 . S
C442 C444 1.391 . S
C443 C442 1.386 . S
C443 C447 1.393 . S
C444 H433 0.950 . S
C444 C442 1.391 . S
C444 C445 1.400 . S
C445 C439 1.491 . S
C445 C444 1.400 . S
C445 C446 1.398 . S
C446 H434 0.950 . S
C446 C445 1.398 . S
C446 C447 1.391 . S
C447 H435 0.950 . S
C447 C443 1.393 . S
C447 C446 1.391 . S
H448 C456 0.950 . S
H449 C461 0.950 . S
H450 C458 0.950 . S
H451 C460 0.950 . S
H452 C462 0.950 . S
H453 C464 0.950 . S
H454 C466 0.950 . S
H455 C467 0.950 . S
C456 H448 0.950 . S
C456 C457 1.386 . S
C456 C458 1.391 . S
C457 C456 1.386 . S
C457 C461 1.393 . S
C458 H450 0.950 . S
C458 C456 1.391 . S
C458 C459 1.400 . S
C459 C458 1.400 . S
C459 C460 1.398 . S
C459 C465 1.491 . S
C460 H451 0.950 . S
C460 C459 1.398 . S
C460 C461 1.391 . S
C461 H449 0.950 . S
C461 C457 1.393 . S
C461 C460 1.391 . S
C462 H452 0.950 . S
C462 C463 1.386 . S
C462 C464 1.391 . S
C463 C462 1.386 . S
C463 C467 1.393 . S
C464 H453 0.950 . S
C464 C462 1.391 . S
C464 C465 1.400 . S
C465 C459 1.491 . S
C465 C464 1.400 . S
C465 C466 1.398 . S
C466 H454 0.950 . S
C466 C465 1.398 . S
C466 C467 1.391 . S
C467 H455 0.950 . S
C467 C463 1.393 . S
C467 C466 1.391 . S
H468 C476 0.950 . S
H469 C481 0.950 . S
H470 C478 0.950 . S
H471 C480 0.950 . S
H472 C482 0.950 . S
H473 C484 0.950 . S
H474 C486 0.950 . S
H475 C487 0.950 . S
C476 H468 0.950 . S
C476 C477 1.386 . S
C476 C478 1.391 . S
C477 C476 1.386 . S
C477 C481 1.393 . S
C478 H470 0.950 . S
C478 C476 1.391 . S
C478 C479 1.400 . S
C479 C478 1.400 . S
C479 C480 1.398 . S
C479 C485 1.491 . S
C480 H471 0.950 . S
C480 C479 1.398 . S
C480 C481 1.391 . S
C481 H469 0.950 . S
C481 C477 1.393 . S
C481 C480 1.391 . S
C482 H472 0.950 . S
C482 C483 1.386 . S
C482 C484 1.391 . S
C483 C482 1.386 . S
C483 C487 1.393 . S
C484 H473 0.950 . S
C484 C482 1.391 . S
C484 C485 1.400 . S
C485 C479 1.491 . S
C485 C484 1.400 . S
C485 C486 1.398 . S
C486 H474 0.950 . S
C486 C485 1.398 . S
C486 C487 1.391 . S
C487 H475 0.950 . S
C487 C483 1.393 . S
C487 C486 1.391 . S
H488 C496 0.950 . S
H489 C501 0.950 . S
H490 C498 0.950 . S
H491 C500 0.950 . S
H492 C502 0.950 . S
H493 C504 0.950 . S
H494 C506 0.950 . S
H495 C507 0.950 . S
C496 H488 0.950 . S
C496 C497 1.386 . S
C496 C498 1.391 . S
C497 C496 1.386 . S
C497 C501 1.393 . S
C498 H490 0.950 . S
C498 C496 1.391 . S
C498 C499 1.400 . S
C499 C498 1.400 . S
C499 C500 1.398 . S
C499 C505 1.491 . S
C500 H491 0.950 . S
C500 C499 1.398 . S
C500 C501 1.391 . S
C501 H489 0.950 . S
C501 C497 1.393 . S
C501 C500 1.391 . S
C502 H492 0.950 . S
C502 C503 1.386 . S
C502 C504 1.391 . S
C503 C502 1.386 . S
C503 C507 1.393 . S
C504 H493 0.950 . S
C504 C502 1.391 . S
C504 C505 1.400 . S
C505 C499 1.491 . S
C505 C504 1.400 . S
C505 C506 1.398 . S
C506 H494 0.950 . S
C506 C505 1.398 . S
C506 C507 1.391 . S
C507 H495 0.950 . S
C507 C503 1.393 . S
C507 C506 1.391 . S
H508 C516 0.950 . S
H509 C521 0.950 . S
H510 C518 0.950 . S
H511 C520 0.950 . S
H512 C522 0.950 . S
H513 C524 0.950 . S
H514 C526 0.950 . S
H515 C527 0.950 . S
C516 H508 0.950 . S
C516 C517 1.386 . S
C516 C518 1.391 . S
C517 C516 1.386 . S
C517 C521 1.393 . S
C518 H510 0.950 . S
C518 C516 1.391 . S
C518 C519 1.400 . S
C519 C518 1.400 . S
C519 C520 1.398 . S
C519 C525 1.491 . S
C520 H511 0.950 . S
C520 C519 1.398 . S
C520 C521 1.391 . S
C521 H509 0.950 . S
C521 C517 1.393 . S
C521 C520 1.391 . S
C522 H512 0.950 . S
C522 C523 1.386 . S
C522 C524 1.391 . S
C523 C522 1.386 . S
C523 C527 1.393 . S
C524 H513 0.950 . S
C524 C522 1.391 . S
C524 C525 1.400 . S
C525 C519 1.491 . S
C525 C524 1.400 . S
C525 C526 1.398 . S
C526 H514 0.950 . S
C526 C525 1.398 . S
C526 C527 1.391 . S
C527 H515 0.950 . S
C527 C523 1.393 . S
C527 C526 1.391 . S
H528 C536 0.950 . S
H529 C541 0.950 . S
H530 C538 0.950 . S
H531 C540 0.950 . S
H532 C542 0.950 . S
H533 C544 0.950 . S
H534 C546 0.950 . S
H535 C547 0.950 . S
C536 H528 0.950 . S
C536 C537 1.386 . S
C536 C538 1.391 . S
C537 C536 1.386 . S
C537 C541 1.393 . S
C538 H530 0.950 . S
C538 C536 1.391 . S
C538 C539 1.400 . S
C539 C538 1.400 . S
C539 C540 1.398 . S
C539 C545 1.491 . S
C540 H531 0.950 . S
C540 C539 1.398 . S
C540 C541 1.391 . S
C541 H529 0.950 . S
C541 C537 1.393 . S
C541 C540 1.391 . S
C542 H532 0.950 . S
C542 C543 1.386 . S
C542 C544 1.391 . S
C543 C542 1.386 . S
C543 C547 1.393 . S
C544 H533 0.950 . S
C544 C542 1.391 . S
C544 C545 1.400 . S
C545 C539 1.491 . S
C545 C544 1.400 . S
C545 C546 1.398 . S
C546 H534 0.950 . S
C546 C545 1.398 . S
C546 C547 1.391 . S
C547 H535 0.950 . S
C547 C543 1.393 . S
C547 C546 1.391 . S
H548 C556 0.950 . S
H549 C561 0.950 . S
H550 C558 0.950 . S
H551 C560 0.950 . S
H552 C562 0.950 . S
H553 C564 0.950 . S
H554 C566 0.950 . S
H555 C567 0.950 . S
C556 H548 0.950 . S
C556 C557 1.386 . S
C556 C558 1.391 . S
C557 C556 1.386 . S
C557 C561 1.393 . S
C558 H550 0.950 . S
C558 C556 1.391 . S
C558 C559 1.400 . S
C559 C558 1.400 . S
C559 C560 1.398 . S
C559 C565 1.491 . S
C560 H551 0.950 . S
C560 C559 1.398 . S
C560 C561 1.391 . S
C561 H549 0.950 . S
C561 C557 1.393 . S
C561 C560 1.391 . S
C562 H552 0.950 . S
C562 C563 1.386 . S
C562 C564 1.391 . S
C563 C562 1.386 . S
C563 C567 1.393 . S
C564 H553 0.950 . S
C564 C562 1.391 . S
C564 C565 1.400 . S
C565 C559 1.491 . S
C565 C564 1.400 . S
C565 C566 1.398 . S
C566 H554 0.950 . S
C566 C565 1.398 . S
C566 C567 1.391 . S
C567 H555 0.950 . S
C567 C563 1.393 . S
C567 C566 1.391 . S
H568 C576 0.950 . S
H569 C581 0.950 . S
H570 C578 0.950 . S
H571 C580 0.950 . S
H572 C582 0.950 . S
H573 C584 0.950 . S
H574 C586 0.950 . S
H575 C587 0.950 . S
C576 H568 0.950 . S
C576 C577 1.386 . S
C576 C578 1.391 . S
C577 C576 1.386 . S
C577 C581 1.393 . S
C578 H570 0.950 . S
C578 C576 1.391 . S
C578 C579 1.400 . S
C579 C578 1.400 . S
C579 C580 1.398 . S
C579 C585 1.491 . S
C580 H571 0.950 . S
C580 C579 1.398 . S
C580 C581 1.391 . S
C581 H569 0.950 . S
C581 C577 1.393 . S
C581 C580 1.391 . S
C582 H572 0.950 . S
C582 C583 1.386 . S
C582 C584 1.391 . S
C583 C582 1.386 . S
C583 C587 1.393 . S
C584 H573 0.950 . S
C584 C582 1.391 . S
C584 C585 1.400 . S
C585 C579 1.491 . S
C585 C584 1.400 . S
C585 C586 1.398 . S
C586 H574 0.950 . S
C586 C585 1.398 . S
C586 C587 1.391 . S
C587 H575 0.950 . S
C587 C583 1.393 . S
C587 C586 1.391 . S
H588 C596 0.950 . S
H589 C601 0.950 . S
H590 C598 0.950 . S
H591 C600 0.950 . S
H592 C602 0.950 . S
H593 C604 0.950 . S
H594 C606 0.950 . S
H595 C607 0.950 1_455 S
C596 H588 0.950 . S
C596 C597 1.386 . S
C596 C598 1.391 . S
C597 C596 1.386 . S
C597 C601 1.393 . S
C598 H590 0.950 . S
C598 C596 1.391 . S
C598 C599 1.400 . S
C599 C598 1.400 . S
C599 C600 1.398 . S
C599 C605 1.491 . S
C600 H591 0.950 . S
C600 C599 1.398 . S
C600 C601 1.391 . S
C601 H589 0.950 . S
C601 C597 1.393 . S
C601 C600 1.391 . S
C602 H592 0.950 . S
C602 C603 1.386 . S
C602 C604 1.391 . S
C603 C602 1.386 . S
C603 C607 1.393 . S
C604 H593 0.950 . S
C604 C602 1.391 . S
C604 C605 1.400 . S
C605 C599 1.491 . S
C605 C604 1.400 . S
C605 C606 1.398 . S
C606 H594 0.950 . S
C606 C605 1.398 . S
C606 C607 1.391 . S
C607 H595 0.950 1_655 S
C607 C603 1.393 . S
C607 C606 1.391 . S
H608 C616 0.950 . S
H609 C621 0.950 . S
H610 C618 0.950 . S
H611 C620 0.950 . S
H612 C622 0.950 . S
H613 C624 0.950 . S
H614 C626 0.950 . S
H615 C627 0.950 . S
C616 H608 0.950 . S
C616 C617 1.386 . S
C616 C618 1.391 . S
C617 C616 1.386 . S
C617 C621 1.393 . S
C618 H610 0.950 . S
C618 C616 1.391 . S
C618 C619 1.400 . S
C619 C618 1.400 . S
C619 C620 1.398 . S
C619 C625 1.491 . S
C620 H611 0.950 . S
C620 C619 1.398 . S
C620 C621 1.391 . S
C621 H609 0.950 . S
C621 C617 1.393 . S
C621 C620 1.391 . S
C622 H612 0.950 . S
C622 C623 1.386 . S
C622 C624 1.391 . S
C623 C622 1.386 . S
C623 C627 1.393 . S
C624 H613 0.950 . S
C624 C622 1.391 . S
C624 C625 1.400 . S
C625 C619 1.491 . S
C625 C624 1.400 . S
C625 C626 1.398 . S
C626 H614 0.950 . S
C626 C625 1.398 . S
C626 C627 1.391 . S
C627 H615 0.950 . S
C627 C623 1.393 . S
C627 C626 1.391 . S
H628 C636 0.950 . S
H629 C641 0.950 . S
H630 C638 0.950 . S
H631 C640 0.950 . S
H632 C642 0.950 . S
H633 C644 0.950 . S
H634 C646 0.950 . S
H635 C647 0.950 . S
C636 H628 0.950 . S
C636 C637 1.386 . S
C636 C638 1.391 . S
C637 C636 1.386 . S
C637 C641 1.393 . S
C638 H630 0.950 . S
C638 C636 1.391 . S
C638 C639 1.400 . S
C639 C638 1.400 . S
C639 C640 1.398 . S
C639 C645 1.491 . S
C640 H631 0.950 . S
C640 C639 1.398 . S
C640 C641 1.391 . S
C641 H629 0.950 . S
C641 C637 1.393 . S
C641 C640 1.391 . S
C642 H632 0.950 . S
C642 C643 1.386 . S
C642 C644 1.391 . S
C643 C642 1.386 . S
C643 C647 1.393 . S
C644 H633 0.950 . S
C644 C642 1.391 . S
C644 C645 1.400 . S
C645 C639 1.491 . S
C645 C644 1.400 . S
C645 C646 1.398 . S
C646 H634 0.950 . S
C646 C645 1.398 . S
C646 C647 1.391 . S
C647 H635 0.950 . S
C647 C643 1.393 . S
C647 C646 1.391 . S
H648 C656 0.950 . S
H649 C661 0.950 . S
H650 C658 0.950 . S
H651 C660 0.950 . S
H652 C662 0.950 . S
H653 C664 0.950 . S
H654 C666 0.950 . S
H655 C667 0.950 . S
C656 H648 0.950 . S
C656 C657 1.386 . S
C656 C658 1.391 . S
C657 C656 1.386 . S
C657 C661 1.393 . S
C658 H650 0.950 . S
C658 C656 1.391 . S
C658 C659 1.400 . S
C659 C658 1.400 . S
C659 C660 1.398 . S
C659 C665 1.491 . S
C660 H651 0.950 . S
C660 C659 1.398 . S
C660 C661 1.391 . S
C661 H649 0.950 . S
C661 C657 1.393 . S
C661 C660 1.391 . S
C662 H652 0.950 . S
C662 C663 1.386 . S
C662 C664 1.391 . S
C663 C662 1.386 . S
C663 C667 1.393 . S
C664 H653 0.950 . S
C664 C662 1.391 . S
C664 C665 1.400 . S
C665 C659 1.491 . S
C665 C664 1.400 . S
C665 C666 1.398 . S
C666 H654 0.950 . S
C666 C665 1.398 . S
C666 C667 1.391 . S
C667 H655 0.950 . S
C667 C663 1.393 . S
C667 C666 1.391 . S
H668 C676 0.950 . S
H669 C681 0.950 . S
H670 C678 0.950 . S
H671 C680 0.950 . S
H672 C682 0.950 . S
H673 C684 0.950 . S
H674 C686 0.950 . S
H675 C687 0.950 . S
C676 H668 0.950 . S
C676 C677 1.386 . S
C676 C678 1.391 . S
C677 C676 1.386 . S
C677 C681 1.393 . S
C678 H670 0.950 . S
C678 C676 1.391 . S
C678 C679 1.400 . S
C679 C678 1.400 . S
C679 C680 1.398 . S
C679 C685 1.491 . S
C680 H671 0.950 . S
C680 C679 1.398 . S
C680 C681 1.391 . S
C681 H669 0.950 . S
C681 C677 1.393 . S
C681 C680 1.391 . S
C682 H672 0.950 . S
C682 C683 1.386 . S
C682 C684 1.391 . S
C683 C682 1.386 . S
C683 C687 1.393 . S
C684 H673 0.950 . S
C684 C682 1.391 . S
C684 C685 1.400 . S
C685 C679 1.491 . S
C685 C684 1.400 . S
C685 C686 1.398 . S
C686 H674 0.950 . S
C686 C685 1.398 . S
C686 C687 1.391 . S
C687 H675 0.950 . S
C687 C683 1.393 . S
C687 C686 1.391 . S
H688 C696 0.950 . S
H689 C701 0.950 . S
H690 C698 0.950 . S
H691 C700 0.950 . S
H692 C702 0.950 . S
H693 C704 0.950 . S
H694 C706 0.950 . S
H695 C707 0.950 . S
C696 H688 0.950 . S
C696 C697 1.386 . S
C696 C698 1.391 . S
C697 C696 1.386 . S
C697 C701 1.393 . S
C698 H690 0.950 . S
C698 C696 1.391 . S
C698 C699 1.400 . S
C699 C698 1.400 . S
C699 C700 1.398 . S
C699 C705 1.491 . S
C700 H691 0.950 . S
C700 C699 1.398 . S
C700 C701 1.391 . S
C701 H689 0.950 . S
C701 C697 1.393 . S
C701 C700 1.391 . S
C702 H692 0.950 . S
C702 C703 1.386 . S
C702 C704 1.391 . S
C703 C702 1.386 . S
C703 C707 1.393 . S
C704 H693 0.950 . S
C704 C702 1.391 . S
C704 C705 1.400 . S
C705 C699 1.491 . S
C705 C704 1.400 . S
C705 C706 1.398 . S
C706 H694 0.950 . S
C706 C705 1.398 . S
C706 C707 1.391 . S
C707 H695 0.950 . S
C707 C703 1.393 . S
C707 C706 1.391 . S
H708 C716 0.950 . S
H709 C721 0.950 . S
H710 C718 0.950 . S
H711 C720 0.950 . S
H712 C722 0.950 . S
H713 C724 0.950 . S
H714 C726 0.950 . S
H715 C727 0.950 . S
C716 H708 0.950 . S
C716 C717 1.386 . S
C716 C718 1.391 . S
C717 C716 1.386 . S
C717 C721 1.393 . S
C718 H710 0.950 . S
C718 C716 1.391 . S
C718 C719 1.400 . S
C719 C718 1.400 . S
C719 C720 1.398 . S
C719 C725 1.491 . S
C720 H711 0.950 . S
C720 C719 1.398 . S
C720 C721 1.391 . S
C721 H709 0.950 . S
C721 C717 1.393 . S
C721 C720 1.391 . S
C722 H712 0.950 . S
C722 C723 1.386 . S
C722 C724 1.391 . S
C723 C722 1.386 . S
C723 C727 1.393 . S
C724 H713 0.950 . S
C724 C722 1.391 . S
C724 C725 1.400 . S
C725 C719 1.491 . S
C725 C724 1.400 . S
C725 C726 1.398 . S
C726 H714 0.950 . S
C726 C725 1.398 . S
C726 C727 1.391 . S
C727 H715 0.950 . S
C727 C723 1.393 . S
C727 C726 1.391 . S
C257 C5 0.870 . S
C263 C103 1.080 . S
C277 C18 1.516 . S
C283 C147 1.533 . S
C303 C177 2.072 . S
C297 C30 2.059 . S
C317 C41 2.429 . S
C323 C218 2.423 . S
C343 C134 0.978 . S
C337 C7 0.949 . S
C363 C98 2.600 . S
C357 C16 2.494 . S
C383 C226 1.204 . S
C377 C29 1.198 . S
C403 C187 1.812 . S
C397 C38 1.496 . S
C417 C8 1.028 . S
C423 C223 1.086 . S
C443 C137 2.186 1_556 S
C437 C27 2.052 . S
C457 C40 2.133 . S
C463 C106 2.094 . S
C477 C19 1.886 . S
C483 C174 1.856 . S
C503 C94 1.073 . S
C497 C51 0.969 . S
C517 C62 1.710 . S
C523 C138 1.691 . S
C537 C74 2.218 . S
C543 C186 2.242 . S
C557 C84 2.362 . S
C563 C227 2.386 . S
C577 C49 0.965 . S
C583 C143 1.134 . S
C603 C107 2.516 . S
C597 C63 2.505 . S
C623 C217 1.078 . S
C617 C71 1.023 . S
C643 C178 1.955 . S
C637 C85 2.029 . S
C657 C52 0.974 . S
C663 C214 1.031 . S
C683 C146 2.202 . S
C677 C73 2.303 . S
C703 C97 1.776 . S
C697 C82 1.702 . S
C717 C60 1.819 . S
C723 C183 1.947 . S
