# Generated by pormake.
# Topology gar, (4,6)-cn, num edge types: 1
# Building blocks:
#     Node 0, Type 0, BuildingBlock: QUQFOY_clean_sbu_1, # of connection points: 4
#     Node 1, Type 0, BuildingBlock: QUQFOY_clean_sbu_1, # of connection points: 4
#     Node 2, Type 0, BuildingBlock: QUQFOY_clean_sbu_1, # of connection points: 4
#     Node 3, Type 0, BuildingBlock: QUQFOY_clean_sbu_1, # of connection points: 4
#     Node 4, Type 0, BuildingBlock: QUQFOY_clean_sbu_1, # of connection points: 4
#     Node 5, Type 0, BuildingBlock: QUQFOY_clean_sbu_1, # of connection points: 4
#     Node 6, Type 0, BuildingBlock: QUQFOY_clean_sbu_1, # of connection points: 4
#     Node 7, Type 0, BuildingBlock: QUQFOY_clean_sbu_1, # of connection points: 4
#     Node 8, Type 0, BuildingBlock: QUQFOY_clean_sbu_1, # of connection points: 4
#     Node 9, Type 0, BuildingBlock: QUQFOY_clean_sbu_1, # of connection points: 4
#     Node 10, Type 0, BuildingBlock: QUQFOY_clean_sbu_1, # of connection points: 4
#     Node 11, Type 0, BuildingBlock: QUQFOY_clean_sbu_1, # of connection points: 4
#     Node 12, Type 0, BuildingBlock: QUQFOY_clean_sbu_1, # of connection points: 4
#     Node 13, Type 0, BuildingBlock: QUQFOY_clean_sbu_1, # of connection points: 4
#     Node 14, Type 0, BuildingBlock: QUQFOY_clean_sbu_1, # of connection points: 4
#     Node 15, Type 0, BuildingBlock: QUQFOY_clean_sbu_1, # of connection points: 4
#     Node 16, Type 0, BuildingBlock: QUQFOY_clean_sbu_1, # of connection points: 4
#     Node 17, Type 0, BuildingBlock: QUQFOY_clean_sbu_1, # of connection points: 4
#     Node 18, Type 0, BuildingBlock: QUQFOY_clean_sbu_1, # of connection points: 4
#     Node 19, Type 0, BuildingBlock: QUQFOY_clean_sbu_1, # of connection points: 4
#     Node 20, Type 0, BuildingBlock: QUQFOY_clean_sbu_1, # of connection points: 4
#     Node 21, Type 0, BuildingBlock: QUQFOY_clean_sbu_1, # of connection points: 4
#     Node 22, Type 0, BuildingBlock: QUQFOY_clean_sbu_1, # of connection points: 4
#     Node 23, Type 0, BuildingBlock: QUQFOY_clean_sbu_1, # of connection points: 4
#     Node 24, Type 1, BuildingBlock: PAMTOO_clean_sbu_0, # of connection points: 6
#     Node 25, Type 1, BuildingBlock: PAMTOO_clean_sbu_0, # of connection points: 6
#     Node 26, Type 1, BuildingBlock: PAMTOO_clean_sbu_0, # of connection points: 6
#     Node 27, Type 1, BuildingBlock: PAMTOO_clean_sbu_0, # of connection points: 6
#     Node 28, Type 1, BuildingBlock: PAMTOO_clean_sbu_0, # of connection points: 6
#     Node 29, Type 1, BuildingBlock: PAMTOO_clean_sbu_0, # of connection points: 6
#     Node 30, Type 1, BuildingBlock: PAMTOO_clean_sbu_0, # of connection points: 6
#     Node 31, Type 1, BuildingBlock: PAMTOO_clean_sbu_0, # of connection points: 6
#     Node 32, Type 1, BuildingBlock: PAMTOO_clean_sbu_0, # of connection points: 6
#     Node 33, Type 1, BuildingBlock: PAMTOO_clean_sbu_0, # of connection points: 6
#     Node 34, Type 1, BuildingBlock: PAMTOO_clean_sbu_0, # of connection points: 6
#     Node 35, Type 1, BuildingBlock: PAMTOO_clean_sbu_0, # of connection points: 6
#     Node 36, Type 1, BuildingBlock: PAMTOO_clean_sbu_0, # of connection points: 6
#     Node 37, Type 1, BuildingBlock: PAMTOO_clean_sbu_0, # of connection points: 6
#     Node 38, Type 1, BuildingBlock: PAMTOO_clean_sbu_0, # of connection points: 6
#     Node 39, Type 1, BuildingBlock: PAMTOO_clean_sbu_0, # of connection points: 6
#     Edge 40, Type (0, 1), None
#     Edge 41, Type (0, 1), None
#     Edge 42, Type (0, 1), None
#     Edge 43, Type (0, 1), None
#     Edge 44, Type (0, 1), None
#     Edge 45, Type (0, 1), None
#     Edge 46, Type (0, 1), None
#     Edge 47, Type (0, 1), None
#     Edge 48, Type (0, 1), None
#     Edge 49, Type (0, 1), None
#     Edge 50, Type (0, 1), None
#     Edge 51, Type (0, 1), None
#     Edge 52, Type (0, 1), None
#     Edge 53, Type (0, 1), None
#     Edge 54, Type (0, 1), None
#     Edge 55, Type (0, 1), None
#     Edge 56, Type (0, 1), None
#     Edge 57, Type (0, 1), None
#     Edge 58, Type (0, 1), None
#     Edge 59, Type (0, 1), None
#     Edge 60, Type (0, 1), None
#     Edge 61, Type (0, 1), None
#     Edge 62, Type (0, 1), None
#     Edge 63, Type (0, 1), None
#     Edge 64, Type (0, 1), None
#     Edge 65, Type (0, 1), None
#     Edge 66, Type (0, 1), None
#     Edge 67, Type (0, 1), None
#     Edge 68, Type (0, 1), None
#     Edge 69, Type (0, 1), None
#     Edge 70, Type (0, 1), None
#     Edge 71, Type (0, 1), None
#     Edge 72, Type (0, 1), None
#     Edge 73, Type (0, 1), None
#     Edge 74, Type (0, 1), None
#     Edge 75, Type (0, 1), None
#     Edge 76, Type (0, 1), None
#     Edge 77, Type (0, 1), None
#     Edge 78, Type (0, 1), None
#     Edge 79, Type (0, 1), None
#     Edge 80, Type (0, 1), None
#     Edge 81, Type (0, 1), None
#     Edge 82, Type (0, 1), None
#     Edge 83, Type (0, 1), None
#     Edge 84, Type (0, 1), None
#     Edge 85, Type (0, 1), None
#     Edge 86, Type (0, 1), None
#     Edge 87, Type (0, 1), None
#     Edge 88, Type (0, 1), None
#     Edge 89, Type (0, 1), None
#     Edge 90, Type (0, 1), None
#     Edge 91, Type (0, 1), None
#     Edge 92, Type (0, 1), None
#     Edge 93, Type (0, 1), None
#     Edge 94, Type (0, 1), None
#     Edge 95, Type (0, 1), None
#     Edge 96, Type (0, 1), None
#     Edge 97, Type (0, 1), None
#     Edge 98, Type (0, 1), None
#     Edge 99, Type (0, 1), None
#     Edge 100, Type (0, 1), None
#     Edge 101, Type (0, 1), None
#     Edge 102, Type (0, 1), None
#     Edge 103, Type (0, 1), None
#     Edge 104, Type (0, 1), None
#     Edge 105, Type (0, 1), None
#     Edge 106, Type (0, 1), None
#     Edge 107, Type (0, 1), None
#     Edge 108, Type (0, 1), None
#     Edge 109, Type (0, 1), None
#     Edge 110, Type (0, 1), None
#     Edge 111, Type (0, 1), None
#     Edge 112, Type (0, 1), None
#     Edge 113, Type (0, 1), None
#     Edge 114, Type (0, 1), None
#     Edge 115, Type (0, 1), None
#     Edge 116, Type (0, 1), None
#     Edge 117, Type (0, 1), None
#     Edge 118, Type (0, 1), None
#     Edge 119, Type (0, 1), None
#     Edge 120, Type (0, 1), None
#     Edge 121, Type (0, 1), None
#     Edge 122, Type (0, 1), None
#     Edge 123, Type (0, 1), None
#     Edge 124, Type (0, 1), None
#     Edge 125, Type (0, 1), None
#     Edge 126, Type (0, 1), None
#     Edge 127, Type (0, 1), None
#     Edge 128, Type (0, 1), None
#     Edge 129, Type (0, 1), None
#     Edge 130, Type (0, 1), None
#     Edge 131, Type (0, 1), None
#     Edge 132, Type (0, 1), None
#     Edge 133, Type (0, 1), None
#     Edge 134, Type (0, 1), None
#     Edge 135, Type (0, 1), None
# Relax obj value: 0.346
# Max RMSD: 0.327
# Mean RMSD: 0.205
data_MOF--net-gar--node1-QUQFOY_clean_sbu_1--node2-PAMTOO_clean_sbu_0--edge1-none
_symmetry_space_group_name_H-M    P1
_symmetry_Int_Tables_number       1
_symmetry_cell_setting            triclinic
loop_
_symmetry_equiv_pos_as_xyz
'x, y, z'
_cell_length_a     29.645098
_cell_length_b     29.533613
_cell_length_c     27.612786
_cell_angle_alpha  98.07629
_cell_angle_beta   97.664454
_cell_angle_gamma 108.73745
loop_
_atom_site_label
_atom_site_type_symbol
_atom_site_fract_x
_atom_site_fract_y
_atom_site_fract_z
_atom_type_partial_charge
O0 O 0.16593 0.37527 0.43566 0.0
Cd1 Cd 0.16661 0.39059 0.36541 0.0
Cd2 Cd 0.12388 0.47344 0.44718 0.0
O3 O 0.14982 0.43089 0.48761 0.0
O4 O 0.20758 0.34769 0.33323 0.0
O5 O 0.24272 0.42497 0.35834 0.0
C6 C 0.24821 0.38421 0.34136 0.0
C7 C 0.11924 0.54319 0.50258 0.0
C8 C 0.15993 0.39219 0.47847 0.0
C9 C 1.04925 0.39338 0.35721 0.0
O10 O 1.06199 0.42946 0.39397 0.0
O11 O 0.08232 0.37706 0.34037 0.0
O12 O 0.09352 0.49895 0.5022 0.0
O13 O 0.14691 0.54947 0.47008 0.0
O14 O 0.08945 0.76792 0.75806 0.0
Cd15 Cd 0.10723 0.82648 0.82238 0.0
Cd16 Cd 0.16809 0.85627 0.74934 0.0
O17 O 0.10418 0.81573 0.70439 0.0
O18 O 1.04108 0.81457 0.85624 0.0
O19 O 1.06342 0.87512 0.81982 0.0
C20 C 1.03024 0.85046 0.84184 0.0
C21 C 0.21149 0.9184 0.71446 0.0
C22 C 0.08933 0.77316 0.71273 0.0
C23 C 0.22436 0.83364 0.82907 0.0
O24 O 0.21125 0.82378 0.78233 0.0
O25 O 0.19257 0.84294 0.85497 0.0
O26 O 0.20573 0.87383 0.6973 0.0
O27 O 0.19315 0.92799 0.75285 0.0
O28 O 0.77426 0.95019 0.94039 0.0
Cd29 Cd 0.72853 0.96299 0.98711 0.0
Cd30 Cd 0.64098 0.9286 0.90419 0.0
O31 O 0.71172 0.90955 0.87855 0.0
O32 O 0.72958 0.93093 0.0465 0.0
O33 O 0.66838 0.90667 0.98236 0.0
C34 C 0.68627 0.90196 0.02563 0.0
C35 C 0.54715 0.89257 0.87862 0.0
C36 C 0.7592 0.92295 0.89726 0.0
C37 C 0.67551 1.02754 0.99522 0.0
O38 O 0.64598 0.99248 0.96083 0.0
O39 O 0.71881 1.02879 1.00719 0.0
O40 O 0.57483 0.92305 0.85627 0.0
O41 O 0.57158 0.87629 0.91 0.0
O42 O 0.59582 0.23052 0.24137 0.0
Cd43 Cd 0.60947 0.29973 0.29554 0.0
Cd44 Cd 0.65799 0.31861 0.21987 0.0
O45 O 0.59787 0.26658 0.17814 0.0
O46 O 0.54739 0.29624 0.33503 0.0
O47 O 0.56266 0.3458 0.28532 0.0
C48 C 0.53382 0.32818 0.31495 0.0
C49 C 0.69104 0.38706 0.18898 0.0
C50 C 0.59251 0.22756 0.19398 0.0
C51 C 0.72682 0.31539 0.30068 0.0
O52 O 0.71112 0.29859 0.25469 0.0
O53 O 0.69559 0.32581 0.3264 0.0
O54 O 0.69173 0.34551 0.16845 0.0
O55 O 0.66958 0.38933 0.22656 0.0
O56 O 0.20106 0.81639 0.14041 0.0
Cd57 Cd 0.1671 0.85691 0.17585 0.0
Cd58 Cd 0.18999 0.91793 0.09942 0.0
O59 O 0.17377 0.83188 0.06883 0.0
O60 O 0.15268 0.82062 0.2294 0.0
O61 O 0.09637 0.82876 0.17328 0.0
C62 C 0.10769 0.81237 0.21242 0.0
C63 C 0.16392 0.99391 0.08025 0.0
C64 C 0.18696 0.80154 0.09401 0.0
C65 C 0.24645 0.93832 0.20706 0.0
O66 O 0.2503 0.93741 0.1613 0.0
O67 O 0.20455 0.92389 0.21684 0.0
O68 O 0.19904 0.98295 0.06408 0.0
O69 O 0.14111 0.96133 0.10401 0.0
O70 O 0.63737 0.85122 0.48318 0.0
Cd71 Cd 0.62103 0.85095 0.5535 0.0
Cd72 Cd 0.5432 0.89755 0.46605 0.0
O73 O 0.58318 0.86508 0.4278 0.0
O74 O 0.66308 0.81037 0.58741 0.0
O75 O 0.58631 0.77501 0.56157 0.0
C76 C 0.6266 0.7697 0.57958 0.0
C77 C 0.47797 0.90922 0.41172 0.0
C78 C 0.62174 0.8555 0.4393 0.0
C79 C 0.61973 0.96867 0.56072 0.0
O80 O 0.58699 0.95678 0.52145 0.0
O81 O 0.63385 0.93513 0.57919 0.0
O82 O 0.5228 0.93022 0.41023 0.0
O83 O 0.46915 0.88218 0.44455 0.0
O84 O 0.71342 0.30687 0.66404 0.0
Cd85 Cd 0.68934 0.3571 0.69834 0.0
Cd86 Cd 0.7106 0.40908 0.62585 0.0
O87 O 0.68552 0.32289 0.59337 0.0
O88 O 0.66003 0.3191 0.74584 0.0
O89 O 0.61832 0.34377 0.68889 0.0
C90 C 0.61914 0.32008 0.72473 0.0
C91 C 0.68357 0.48488 0.6054 0.0
C92 C 0.69651 0.29142 0.61816 0.0
C93 C 0.77858 0.42443 0.72997 0.0
O94 O 0.77725 0.42383 0.68301 0.0
O95 O 0.73889 0.41512 0.74496 0.0
O96 O 0.71661 0.47176 0.58701 0.0
O97 O 0.66398 0.45534 0.63358 0.0
O98 O 1.06526 0.25024 0.97956 0.0
Cd99 Cd 1.05779 0.29944 0.93414 0.0
Cd100 Cd 0.08298 0.38176 0.01852 0.0
O101 O 0.10201 0.31118 0.04402 0.0
O102 O 0.0939 0.29855 0.87851 0.0
O103 O 0.11533 0.35907 0.94393 0.0
C104 C 0.12202 0.34181 0.90111 0.0
C105 C 0.12105 0.4759 0.04351 0.0
C106 C 0.08992 0.26397 0.02388 0.0
C107 C 0.98977 0.35109 0.92379 0.0
O108 O 1.01787 0.3774 0.96472 0.0
O109 O 0.9958 0.31198 0.90553 0.0
O110 O 0.0917 0.44892 0.06737 0.0
O111 O 0.13515 0.45052 1.01052 0.0
O112 O 0.53141 0.08979 0.34327 0.0
Cd113 Cd 0.46624 0.10149 0.33859 0.0
Cd114 Cd 0.48197 0.04618 0.42884 0.0
O115 O 0.50951 1.01968 0.36881 0.0
O116 O 0.41974 0.07567 0.27388 0.0
O117 O 0.46332 0.15404 0.30321 0.0
C118 C 0.43042 0.12066 0.2694 0.0
C119 C 0.54181 0.09224 0.49019 0.0
C120 C 0.53712 0.04938 0.34676 0.0
C121 C 0.40013 0.0573 0.40016 0.0
O122 O 0.41177 1.03954 0.43659 0.0
O123 O 0.43122 0.09742 0.39711 0.0
O124 O 0.52099 0.04648 0.49013 0.0
O125 O 0.52631 0.11261 0.45639 0.0
O126 O 0.3643 0.29018 0.66328 0.0
Cd127 Cd 0.36991 0.24937 0.60046 0.0
Cd128 Cd 0.3493 0.32394 0.56076 0.0
O129 O 0.37345 0.36068 0.64053 0.0
O130 O 0.3848 0.19867 0.63389 0.0
O131 O 0.43626 0.24614 0.59601 0.0
C132 C 0.42734 0.21342 0.62331 0.0
C133 C 0.37411 0.3396 0.47974 0.0
C134 C 0.37002 0.33487 0.67497 0.0
C135 C 0.27089 0.22614 0.55107 0.0
O136 O 0.28001 0.27194 0.55569 0.0
O137 O 0.30518 0.20911 0.55454 0.0
O138 O 0.35213 0.36439 0.50357 0.0
O139 O 0.38507 0.30803 0.50256 0.0
O140 O 0.22006 0.15313 0.74601 0.0
Cd141 Cd 0.25363 0.15125 0.81467 0.0
Cd142 Cd 0.17789 0.17356 0.84133 0.0
O143 O 0.14756 0.14566 0.7622 0.0
O144 O 0.30931 0.13832 0.79129 0.0
O145 O 0.258 0.08733 0.82668 0.0
C146 C 0.29489 0.09707 0.80483 0.0
C147 C 0.15391 0.1451 0.91738 0.0
C148 C 0.17598 0.1468 0.73057 0.0
C149 C 0.27636 0.25119 0.8579 0.0
O150 O 0.23096 0.24346 0.84734 0.0
O151 O 0.29091 0.21579 0.8616 0.0
O152 O 0.13122 0.16789 0.89244 0.0
O153 O 0.18893 0.13662 0.89881 0.0
O154 O 0.48492 0.16321 0.10574 0.0
Cd155 Cd 0.49284 0.19726 0.04648 0.0
Cd156 Cd 0.43832 0.05162 0.99842 0.0
O157 O 0.43177 0.10741 0.047 0.0
O158 O 0.4769 0.26012 0.05824 0.0
O159 O 0.42361 0.18878 0.02171 0.0
C160 C 0.43228 0.23344 0.04069 0.0
C161 C 0.39519 0.9739 0.96821 0.0
C162 C 0.45407 0.12035 0.09194 0.0
C163 C 0.51927 0.11738 0.98521 0.0
O164 O 0.4947 0.07458 0.96253 0.0
O165 O 0.49773 0.14863 0.98646 0.0
O166 O 0.42845 0.98476 1.00779 0.0
O167 O 0.38193 1.00773 0.95202 0.0
O168 O 0.4017 0.45602 0.18761 0.0
Cd169 Cd 0.41552 0.49755 0.13143 0.0
Cd170 Cd 0.43811 0.42258 0.08538 0.0
O171 O 0.41367 0.39095 0.14966 0.0
O172 O 0.38939 0.55241 0.13832 0.0
O173 O 0.36486 0.49226 0.07275 0.0
C174 C 0.36519 0.53433 0.09343 0.0
C175 C 0.40912 0.39965 0.99616 0.0
C176 C 0.40268 0.41304 0.1877 0.0
C177 C 0.51765 0.51882 0.10876 0.0
O178 O 0.50896 0.47328 0.09661 0.0
O179 O 0.48536 0.53411 0.12322 0.0
O180 O 0.43358 0.3777 0.02002 0.0
O181 O 0.3956 0.43039 0.02306 0.0
O182 O 0.90002 0.19347 0.26129 0.0
Cd183 Cd 0.8511 0.1341 0.21153 0.0
Cd184 Cd 0.85575 0.23681 0.15908 0.0
O185 O 0.91192 0.22521 0.19652 0.0
O186 O 0.86633 0.07301 0.19769 0.0
O187 O 0.86834 0.12477 0.14576 0.0
C188 C 0.87299 0.08467 0.15509 0.0
C189 C 0.85834 0.28397 0.10062 0.0
C190 C 0.91204 0.23137 0.24262 0.0
C191 C 0.76257 0.16059 0.18329 0.0
O192 O 0.78822 0.19799 0.16899 0.0
O193 O 0.77985 0.13027 0.20001 0.0
O194 O 0.86016 0.30214 0.14659 0.0
O195 O 0.8585 0.23999 0.08918 0.0
O196 O 0.30828 0.66519 0.18508 0.0
Cd197 Cd 0.36206 0.69304 0.24803 0.0
Cd198 Cd 0.28269 0.68381 0.28487 0.0
O199 O 0.25022 0.63047 0.22408 0.0
O200 O 0.41545 0.66563 0.25428 0.0
O201 O 0.36008 0.65547 0.30256 0.0
C202 C 0.39808 0.64758 0.29079 0.0
C203 C 0.24826 0.68657 0.35513 0.0
C204 C 0.26451 0.63945 0.1841 0.0
C205 C 0.34535 0.78175 0.26945 0.0
O206 O 0.30401 0.75248 0.2711 0.0
O207 O 0.38104 0.76712 0.2675 0.0
O208 O 0.2263 0.68942 0.31296 0.0
O209 O 0.28787 0.677 0.35659 0.0
O210 O 0.91106 0.973 0.70607 0.0
Cd211 Cd 0.92243 1.00717 0.64427 0.0
Cd212 Cd 0.94149 0.92837 0.60256 0.0
O213 O 0.91386 0.90262 0.66986 0.0
O214 O 0.89685 0.0618 0.6461 0.0
O215 O 0.86764 0.99462 0.58776 0.0
C216 C 0.8697 1.03858 0.60353 0.0
C217 C 0.91436 0.90238 0.51321 0.0
C218 C 0.90643 0.92874 0.70781 0.0
C219 C 1.02007 1.02323 0.61177 0.0
O220 O 1.01253 0.97793 0.60868 0.0
O221 O 0.98893 1.04055 0.62574 0.0
O222 O 0.93732 0.88047 0.53903 0.0
O223 O 0.90032 0.9339 0.53826 0.0
O224 O 1.04185 0.11029 0.21943 0.0
Cd225 Cd 1.00927 0.09755 0.28247 0.0
Cd226 Cd 0.08772 0.07697 0.31998 0.0
O227 O 0.11223 0.10675 0.25298 0.0
O228 O 0.95479 0.12285 0.28494 0.0
O229 O 1.02368 0.15274 0.34 0.0
C230 C 0.97945 0.1502 0.32699 0.0
C231 C 0.11305 0.10325 0.40961 0.0
C232 C 0.08577 0.11515 0.21628 0.0
C233 C 0.9939 0.99795 0.31174 0.0
O234 O 1.03873 1.00522 0.31265 0.0
O235 O 0.97668 1.02999 0.30027 0.0
O236 O 0.13561 0.0812 0.38333 0.0
O237 O 0.08121 0.11677 0.38499 0.0
O238 O 0.35609 0.71092 0.73681 0.0
Cd239 Cd 0.32558 0.6572 0.67375 0.0
Cd240 Cd 0.33032 0.74001 0.63665 0.0
O241 O 0.38542 0.76987 0.69658 0.0
O242 O 0.35264 0.60385 0.66595 0.0
O243 O 0.3589 0.65751 0.61584 0.0
C244 C 0.36781 0.61987 0.62761 0.0
C245 C 0.32906 0.78762 0.57488 0.0
C246 C 0.38032 0.7551 0.73711 0.0
C247 C 0.23569 0.67006 0.65992 0.0
O248 O 0.26243 0.71117 0.65346 0.0
O249 O 0.25178 0.63528 0.6614 0.0
O250 O 0.32264 0.80091 0.61893 0.0
O251 O 0.33839 0.74784 0.56588 0.0
O252 O 0.55456 0.6165 0.73553 0.0
Cd253 Cd 0.51569 0.60144 0.79287 0.0
Cd254 Cd 0.59176 0.58108 0.8376 0.0
O255 O 0.62113 0.60778 0.77313 0.0
O256 O 0.46017 0.62615 0.7889 0.0
O257 O 0.522 0.6518 0.85242 0.0
C258 C 0.47937 0.65063 0.83359 0.0
C259 C 0.61594 0.60957 0.92686 0.0
C260 C 0.59796 0.6177 0.73531 0.0
C261 C 0.49807 0.49901 0.81425 0.0
O262 O 0.54354 0.50872 0.82607 0.0
O263 O 0.48188 0.53103 0.8007 0.0
O264 O 0.63829 0.58647 0.90152 0.0
O265 O 0.58378 0.62208 0.90144 0.0
O266 O 0.81466 0.12846 0.67601 0.0
Cd267 Cd 0.87049 0.17262 0.73143 0.0
Cd268 Cd 0.77746 0.17487 0.76957 0.0
O269 O 0.77288 0.10914 0.73334 0.0
O270 O 0.93077 0.15716 0.7441 0.0
O271 O 0.87556 0.14784 0.79309 0.0
C272 C 0.91669 0.14559 0.78451 0.0
C273 C 0.76164 0.18979 0.84684 0.0
C274 C 0.77378 0.11008 0.68794 0.0
C275 C 0.842 0.26104 0.74536 0.0
O276 O 0.79806 0.2333 0.73634 0.0
O277 O 0.87629 0.244 0.74951 0.0
O278 O 0.72736 0.17859 0.80821 0.0
O279 O 0.80434 0.19006 0.84111 0.0
O280 O 0.86187 0.79216 0.17677 0.0
Cd281 Cd 0.86561 0.75928 0.10834 0.0
Cd282 Cd 0.84724 0.83475 0.0812 0.0
O283 O 0.87602 0.86566 0.16035 0.0
O284 O 0.8801 0.70454 0.13158 0.0
O285 O 0.9306 0.75849 0.09795 0.0
C286 C 0.92188 0.72155 0.11982 0.0
C287 C 0.87574 0.85733 1.00465 0.0
C288 C 0.87199 0.83724 0.19218 0.0
C289 C 0.76818 0.73694 0.06407 0.0
O290 O 0.77694 0.78273 0.07551 0.0
O291 O 0.80283 0.72152 0.05982 0.0
O292 O 0.85407 0.88128 0.03002 0.0
O293 O 0.88318 0.82181 0.02306 0.0
O294 O 0.86143 0.55348 0.81747 0.0
Cd295 Cd 0.83681 0.54646 0.88221 0.0
Cd296 Cd 0.98331 0.60733 0.91641 0.0
O297 O 0.92321 0.60812 0.86953 0.0
O298 O 0.76867 0.54832 0.87735 0.0
O299 O 0.83523 0.61261 0.90448 0.0
C300 C 0.78892 0.59506 0.89011 0.0
C301 C 1.05594 0.65217 0.95653 0.0
C302 C 0.90498 0.58247 0.82584 0.0
C303 C 0.92283 0.52318 0.92596 0.0
O304 O 0.96719 0.54506 0.94381 0.0
O305 O 0.89325 0.54523 0.93512 0.0
O306 O 1.05167 0.63021 0.91123 0.0
O307 O 1.0187 0.65892 0.97221 0.0
O308 O 0.933 0.50902 0.54469 0.0
Cd309 Cd 0.93353 0.57533 0.52703 0.0
Cd310 Cd 0.99812 0.53592 0.46454 0.0
O311 O 1.00548 0.51125 0.53077 0.0
O312 O 0.95048 0.62727 0.58697 0.0
O313 O 0.87821 0.59522 0.53566 0.0
C314 C 0.90712 0.62716 0.57337 0.0
C315 C 0.94139 0.47624 0.4099 0.0
C316 C 0.96904 0.49436 0.55114 0.0
C317 C 1.00693 0.62576 0.47806 0.0
O318 O 1.03051 0.6058 0.45322 0.0
O319 O 0.96202 0.60211 0.47026 0.0
O320 O 0.98685 0.48317 0.4103 0.0
O321 O 0.92823 0.50752 0.43638 0.0
O322 O 0.72875 0.64508 0.25708 0.0
Cd323 Cd 0.77188 0.64042 0.31817 0.0
Cd324 Cd 0.6976 0.66333 0.36231 0.0
O325 O 0.66041 0.64105 0.28272 0.0
O326 O 0.82086 0.62405 0.28219 0.0
O327 O 0.7751 0.57353 0.32208 0.0
C328 C 0.80645 0.58154 0.29319 0.0
C329 C 0.67943 0.64003 0.44345 0.0
C330 C 0.68493 0.64228 0.24716 0.0
C331 C 0.7958 0.74125 0.36927 0.0
O332 O 0.75051 0.73221 0.36785 0.0
O333 O 0.81268 0.70684 0.36232 0.0
O334 O 0.65624 0.66254 0.41868 0.0
O335 O 0.71088 0.62765 0.42155 0.0
Dy336 Dy 0.17801 0.16402 0.09101 0.0
Dy337 Dy 1.07197 0.0996 0.04576 0.0
C338 C 0.14394 0.13487 0.96826 0.0
O339 O 0.14419 0.22531 0.07575 0.0
O340 O 1.07133 0.17523 0.03009 0.0
O341 O 0.2328 0.23642 0.11512 0.0
O342 O 0.25203 0.17305 0.12134 0.0
O343 O 1.06839 0.11846 0.12751 0.0
O344 O 0.14825 0.1424 0.16158 0.0
O345 O 0.10526 1.04005 0.06303 0.0
O346 O 0.18532 0.086 0.07964 0.0
O347 O 1.01598 1.02776 0.02558 0.0
O348 O 0.99823 0.09216 0.01852 0.0
C349 C 0.10215 0.22079 0.04701 0.0
O350 O 0.17869 0.15635 1.00775 0.0
O351 O 0.10017 0.1086 0.97355 0.0
C352 C 0.30864 0.23686 0.09655 0.0
C353 C 0.3913 0.24758 0.05343 0.0
C354 C 0.34478 0.22138 0.02496 0.0
C355 C 0.30381 0.21589 0.04645 0.0
C356 C 0.3543 0.26838 0.12279 0.0
C357 C 0.39556 0.2739 0.10136 0.0
C358 C 0.26814 0.21977 0.12298 0.0
C359 C 0.10229 0.12607 0.1668 0.0
C360 C 0.15111 1.04197 0.07348 0.0
C361 C 0.94386 1.03371 0.04976 0.0
C362 C 0.88967 0.05578 0.11883 0.0
C363 C 0.87345 0.05218 0.06787 0.0
C364 C 0.90018 1.0406 0.03335 0.0
C365 C 0.9564 1.03068 0.09984 0.0
C366 C 0.929 1.04129 0.13432 0.0
C367 C 0.98153 0.04603 0.01971 0.0
H368 H 0.34043 0.20071 0.98791 0.0
H369 H 0.26904 0.19169 0.02522 0.0
H370 H 0.35862 0.28548 0.16108 0.0
H371 H 0.43095 0.29406 0.12437 0.0
H372 H 0.84275 0.06274 0.0553 0.0
H373 H 0.89002 1.04321 0.99494 0.0
H374 H 0.99015 1.02563 0.11332 0.0
H375 H 0.94192 0.04382 0.17356 0.0
Dy376 Dy 0.39983 0.94324 0.27421 0.0
Dy377 Dy 0.32477 0.91037 0.34883 0.0
C378 C 0.38074 1.01973 0.35557 0.0
O379 O 0.44698 0.92409 0.33229 0.0
O380 O 0.39699 0.91191 0.38978 0.0
O381 O 0.46167 0.99662 0.26075 0.0
O382 O 0.41912 0.93564 0.20118 0.0
O383 O 0.31609 0.84524 0.29268 0.0
O384 O 0.39085 0.86542 0.2712 0.0
O385 O 0.27677 0.92537 0.28772 0.0
O386 O 0.32911 0.94304 0.23271 0.0
O387 O 0.26715 0.85582 0.37101 0.0
O388 O 0.30578 0.92568 0.42056 0.0
C389 C 0.43871 0.91533 0.37626 0.0
O390 O 0.41264 1.00613 0.33501 0.0
O391 O 0.33741 0.98881 0.35261 0.0
C392 C 0.45262 1.01404 0.18158 0.0
C393 C 0.45246 0.08421 0.12338 0.0
C394 C 0.48409 0.09722 0.16943 0.0
C395 C 0.48429 0.06242 0.19819 0.0
C396 C 0.41955 1.00136 0.13639 0.0
C397 C 0.41907 1.03651 0.10782 0.0
C398 C 0.45324 0.97856 0.21341 0.0
C399 C 0.35112 0.83305 0.277 0.0
C400 C 0.2867 0.93748 0.24504 0.0
C401 C 0.29104 0.85657 0.4566 0.0
C402 C 0.32048 0.81446 0.53519 0.0
C403 C 0.33057 0.8028 0.48767 0.0
C404 C 0.31634 0.82402 0.44879 0.0
C405 C 0.28233 0.86935 0.50428 0.0
C406 C 0.2973 0.84891 0.54333 0.0
C407 C 0.27759 0.88066 0.4166 0.0
H408 H 0.50874 0.13421 0.18335 0.0
H409 H 0.5094 0.07345 0.23348 0.0
H410 H 0.39386 0.96463 0.12331 0.0
H411 H 0.39254 1.02636 0.07362 0.0
H412 H 0.34842 0.77651 0.48024 0.0
H413 H 0.32461 0.81451 0.41249 0.0
H414 H 0.2637 0.89498 0.5112 0.0
H415 H 0.28889 0.85865 0.57946 0.0
Dy416 Dy 0.63071 0.12757 0.6349 0.0
Dy417 Dy 0.69727 0.13449 0.55243 0.0
C418 C 0.58777 0.11692 0.52195 0.0
O419 O 0.61419 0.04602 0.6042 0.0
O420 O 0.6766 0.05297 0.56196 0.0
O421 O 0.56178 0.09568 0.65608 0.0
O422 O 0.61669 0.15909 0.70456 0.0
O423 O 0.744 0.14579 0.62527 0.0
O424 O 0.69061 0.10565 0.66995 0.0
O425 O 0.68734 0.2107 0.56054 0.0
O426 O 0.67274 0.20923 0.63905 0.0
O427 O 0.76392 0.17327 0.52984 0.0
O428 O 0.71627 0.10415 0.48527 0.0
C429 C 0.64087 1.0249 0.58101 0.0
O430 O 0.589 0.13757 0.56708 0.0
O431 O 0.62376 0.10547 0.50897 0.0
C432 C 0.53701 0.15976 0.68361 0.0
C433 C 0.46511 0.1951 0.64422 0.0
C434 C 0.51215 0.21287 0.63442 0.0
C435 C 0.54773 0.19548 0.65404 0.0
C436 C 0.49055 0.14306 0.69492 0.0
C437 C 0.4549 0.16084 0.67565 0.0
C438 C 0.57044 0.13292 0.69189 0.0
C439 C 0.73389 0.11917 0.65888 0.0
C440 C 0.68234 0.23451 0.60296 0.0
C441 C 0.79749 0.11166 0.51377 0.0
C442 C 0.84565 0.06339 0.57154 0.0
C443 C 0.86127 0.11451 0.58066 0.0
C444 C 0.83785 0.13842 0.55174 0.0
C445 C 0.78519 0.06068 0.50145 0.0
C446 C 0.80908 1.03677 0.5301 0.0
C447 C 0.76099 0.13415 0.49904 0.0
H448 H 0.52143 0.23977 0.61107 0.0
H449 H 0.58311 0.20843 0.64411 0.0
H450 H 0.48126 0.1148 0.71673 0.0
H451 H 0.41905 0.14685 0.68442 0.0
H452 H 0.89077 0.13613 0.61111 0.0
H453 H 0.84885 0.17773 0.56197 0.0
H454 H 0.75459 1.03885 0.47218 0.0
H455 H 0.79743 0.99735 0.52115 0.0
Dy456 Dy 0.42188 0.34227 0.83894 0.0
Dy457 Dy 0.35066 0.40298 0.82884 0.0
C458 C 0.46212 0.45453 0.82337 0.0
O459 O 0.43038 0.37387 0.91897 0.0
O460 O 0.36808 0.40455 0.91338 0.0
O461 O 0.4882 0.32958 0.86215 0.0
O462 O 0.42529 0.27061 0.81752 0.0
O463 O 0.30253 0.32606 0.82624 0.0
O464 O 0.35853 0.3032 0.87094 0.0
O465 O 0.36879 0.39244 0.7506 0.0
O466 O 0.38276 0.32291 0.75932 0.0
O467 O 0.29047 0.41278 0.78427 0.0
O468 O 0.3231 0.45889 0.85694 0.0
C469 C 0.40175 0.39265 0.94024 0.0
O470 O 0.46939 0.41249 0.82027 0.0
O471 O 0.42191 0.45957 0.83365 0.0
C472 C 0.50117 0.27868 0.79849 0.0
C473 C 0.57563 0.29848 0.74463 0.0
C474 C 0.53274 0.30646 0.72755 0.0
C475 C 0.49553 0.29646 0.75439 0.0
C476 C 0.5414 0.26537 0.81239 0.0
C477 C 0.57852 0.27491 0.78522 0.0
C478 C 0.47183 0.2857 0.83486 0.0
C479 C 0.31324 0.29743 0.85447 0.0
C480 C 0.37575 0.35276 0.73044 0.0
C481 C 0.23774 0.42404 0.83728 0.0
C482 C 0.16025 0.37144 0.87836 0.0
C483 C 0.16184 0.35695 0.82826 0.0
C484 C 0.20001 0.38328 0.80771 0.0
C485 C 0.23382 0.44081 0.88613 0.0
C486 C 0.19537 0.41472 0.90654 0.0
C487 C 0.28476 0.4418 0.8213 0.0
H488 H 0.52927 0.32366 0.69576 0.0
H489 H 0.46444 0.30689 0.74323 0.0
H490 H 0.54601 0.25164 0.84642 0.0
H491 H 0.61095 0.26736 0.7984 0.0
H492 H 0.13441 0.32447 0.80529 0.0
H493 H 0.2015 0.36972 0.76963 0.0
H494 H 0.26217 0.47215 0.90964 0.0
H495 H 0.19449 0.42729 0.94507 0.0
Dy496 Dy 0.17016 0.0876 0.56708 0.0
Dy497 Dy 0.11647 0.1655 0.57728 0.0
C498 C 1.06212 0.05645 0.59511 0.0
O499 O 0.13852 0.07961 0.48644 0.0
O500 O 0.11068 0.14414 0.4929 0.0
O501 O 0.17942 1.01789 0.55118 0.0
O502 O 0.24161 0.08369 0.58313 0.0
O503 O 0.1962 0.20537 0.58246 0.0
O504 O 0.21112 0.14714 0.53208 0.0
O505 O 0.12313 0.14902 0.6549 0.0
O506 O 0.19003 0.12962 0.64672 0.0
O507 O 0.11979 0.23435 0.61857 0.0
O508 O 1.06475 0.19859 0.55185 0.0
C509 C 0.12106 0.10948 0.4656 0.0
O510 O 0.10086 0.04464 0.59029 0.0
O511 O 1.05874 0.09805 0.586 0.0
C512 C 0.23736 1.01385 0.61428 0.0
C513 C 0.2311 0.95554 0.68564 0.0
C514 C 0.22593 1.00106 0.69696 0.0
C515 C 0.22925 1.0302 0.66145 0.0
C516 C 0.24836 0.97131 0.60503 0.0
C517 C 0.24573 0.94231 0.64091 0.0
C518 C 0.22511 1.03616 0.57318 0.0
C519 C 0.22212 0.19282 0.55176 0.0
C520 C 0.16071 0.13958 0.67515 0.0
C521 C 0.10999 0.28126 0.56064 0.0
C522 C 0.1511 0.35892 0.51397 0.0
C523 C 0.16273 0.31643 0.50555 0.0
C524 C 0.14216 0.27792 0.5285 0.0
C525 C 0.1009 0.32472 0.57221 0.0
C526 C 0.12143 0.36351 0.549 0.0
C527 C 0.08899 0.23952 0.58334 0.0
H528 H 0.2149 1.01221 0.73119 0.0
H529 H 0.22115 0.06332 0.66939 0.0
H530 H 0.25504 0.9587 0.56886 0.0
H531 H 0.25059 0.90753 0.63165 0.0
H532 H 0.18546 0.31174 0.47899 0.0
H533 H 0.15033 0.24484 0.51996 0.0
H534 H 1.07704 0.32813 0.59791 0.0
H535 H 0.1115 0.39573 0.55613 0.0
Dy536 Dy 0.39091 0.89693 0.82136 0.0
Dy537 Dy 0.37908 0.82302 0.89453 0.0
C538 C 0.3836 0.92827 0.93382 0.0
O539 O 0.47129 0.90989 0.85088 0.0
O540 O 0.46106 0.84334 0.88705 0.0
O541 O 0.42407 0.96994 0.81023 0.0
O542 O 0.36907 0.91575 0.75139 0.0
O543 O 0.36553 0.77947 0.81778 0.0
O544 O 0.40779 0.8373 0.77888 0.0
O545 O 0.30178 0.83161 0.88514 0.0
O546 O 0.30806 0.85782 0.81184 0.0
O547 O 0.33861 0.75377 0.91163 0.0
O548 O 0.40846 0.79748 0.95705 0.0
C549 C 0.4906 0.88078 0.87144 0.0
O550 O 0.36827 0.92847 0.88749 0.0
O551 O 0.39929 0.89414 0.94593 0.0
C552 C 0.36435 0.99364 0.77084 0.0
C553 C 0.31887 0.06154 0.79334 0.0
C554 C 0.30307 1.01633 0.8078 0.0
C555 C 0.32557 0.98261 0.79649 0.0
C556 C 0.37962 1.03822 0.75529 0.0
C557 C 0.35682 0.07199 0.76626 0.0
C558 C 0.39333 0.96212 0.76879 0.0
C559 C 0.38849 0.79174 0.78174 0.0
C560 C 0.28056 0.84326 0.84523 0.0
C561 C 0.39866 0.71711 0.92043 0.0
C562 C 0.45167 0.67304 0.86389 0.0
C563 C 0.40232 0.66388 0.84625 0.0
C564 C 0.37602 0.68527 0.87433 0.0
C565 C 0.44706 0.72317 0.93977 0.0
C566 C 0.47331 0.70137 0.91178 0.0
C567 C 0.37739 0.75343 0.94002 0.0
H568 H 0.27365 1.00712 0.82819 0.0
H569 H 0.31375 0.94853 0.80938 0.0
H570 H 0.41004 0.04748 0.73624 0.0
H571 H 0.36943 0.10651 0.75421 0.0
H572 H 0.38413 0.64104 0.81014 0.0
H573 H 0.33879 0.67942 0.85807 0.0
H574 H 0.46564 0.74752 0.97501 0.0
H575 H 0.511 0.70808 0.92702 0.0
Dy576 Dy 0.66744 0.17309 0.07749 0.0
Dy577 Dy 0.60559 0.08128 0.11584 0.0
C578 C 0.65835 0.06343 0.02599 0.0
O579 O 0.6022 0.14454 0.0191 0.0
O580 O 0.55032 0.09519 0.06044 0.0
O581 O 0.67713 0.23332 0.03914 0.0
O582 O 0.73969 0.21942 0.07521 0.0
O583 O 0.60115 0.14575 0.17053 0.0
O584 O 0.61962 0.20193 0.12026 0.0
O585 O 0.68487 0.10403 0.14673 0.0
O586 O 0.69581 0.18278 0.15753 0.0
O587 O 0.61511 1.01939 0.14386 0.0
O588 O 0.54729 1.03173 0.142 0.0
C589 C 0.55859 0.12149 0.02533 0.0
O590 O 0.68817 0.10839 0.04491 0.0
O591 O 0.61657 0.04801 0.04089 0.0
C592 C 0.73704 0.23137 0.99239 0.0
C593 C 0.75273 0.20356 0.89655 0.0
C594 C 0.77598 0.19107 0.93738 0.0
C595 C 0.76738 0.20392 0.98476 0.0
C596 C 0.71468 0.24478 0.9514 0.0
C597 C 0.72192 0.23032 0.90366 0.0
C598 C 0.72298 0.23951 0.04108 0.0
C599 C 0.60251 0.1885 0.15976 0.0
C600 C 0.71054 0.14836 0.16955 0.0
C601 C 0.58133 1.01394 0.21536 0.0
C602 C 0.56631 1.03374 0.31263 0.0
C603 C 0.59871 0.07008 0.29375 0.0
C604 C 0.60592 0.06025 0.24521 0.0
C605 C 0.55797 0.97527 0.23767 0.0
C606 C 0.55154 0.98505 0.28711 0.0
C607 C 0.57499 1.00957 0.16096 0.0
H608 H 0.7998 0.17029 0.93248 0.0
H609 H 0.78412 0.19171 1.01516 0.0
H610 H 0.69064 0.26533 0.95613 0.0
H611 H 0.70401 0.24065 0.87243 0.0
H612 H 0.61287 0.10761 0.31363 0.0
H613 H 0.62631 0.09014 0.22937 0.0
H614 H 0.54035 0.9388 0.21562 0.0
H615 H 0.52844 0.95584 0.30175 0.0
Dy616 Dy 0.36582 0.31065 0.30416 0.0
Dy617 Dy 0.42181 0.41783 0.3511 0.0
C618 C 0.38503 0.34686 0.42794 0.0
O619 O 0.30035 0.33611 0.31306 0.0
O620 O 0.34138 0.41515 0.35141 0.0
O621 O 0.33735 0.23356 0.30256 0.0
O622 O 0.31946 0.26177 0.23724 0.0
O623 O 0.3896 0.42035 0.27349 0.0
O624 O 0.39568 0.34932 0.24148 0.0
O625 O 0.4844 0.38596 0.3338 0.0
O626 O 0.44275 0.30444 0.315 0.0
O627 O 0.47837 0.48262 0.34328 0.0
O628 O 0.44062 0.48524 0.40457 0.0
C629 C 0.29889 0.37871 0.33437 0.0
O630 O 0.36258 0.31215 0.38776 0.0
O631 O 0.41409 0.38952 0.42284 0.0
C632 C 0.33844 0.18992 0.22689 0.0
C633 C 0.39854 0.13515 0.23436 0.0
C634 C 0.34822 0.1122 0.22957 0.0
C635 C 0.31809 0.14 0.22653 0.0
C636 C 0.38615 0.20904 0.21892 0.0
C637 C 0.41638 0.18159 0.22284 0.0
C638 C 0.31944 0.2231 0.25492 0.0
C639 C 0.39414 0.39224 0.23489 0.0
C640 C 0.48523 0.34033 0.32204 0.0
C641 C 0.45549 0.55161 0.36178 0.0
C642 C 0.42 0.61727 0.31743 0.0
C643 C 0.45978 0.6066 0.30309 0.0
C644 C 0.47743 0.57425 0.32516 0.0
C645 C 0.41756 0.56457 0.37818 0.0
C646 C 0.4 0.59699 0.3562 0.0
C647 C 0.46818 0.5106 0.37776 0.0
H648 H 0.33349 0.07588 0.23728 0.0
H649 H 0.28113 0.12454 0.23201 0.0
H650 H 0.40239 0.24744 0.21846 0.0
H651 H 0.45498 0.19946 0.22512 0.0
H652 H 0.47636 0.622 0.27371 0.0
H653 H 0.50694 0.56531 0.31197 0.0
H654 H 0.40002 0.54821 0.4066 0.0
H655 H 0.3697 0.60492 0.36859 0.0
Dy656 Dy 0.67355 0.59155 0.08115 0.0
Dy657 Dy 0.6176 0.66769 0.09652 0.0
C658 C 0.56227 0.55552 0.10074 0.0
O659 O 0.64293 0.58674 1.00203 0.0
O660 O 0.61247 0.64933 1.01124 0.0
O661 O 0.68174 0.52322 0.05435 0.0
O662 O 0.74314 0.58348 0.09955 0.0
O663 O 0.6951 0.71238 0.09826 0.0
O664 O 0.71439 0.65509 0.05031 0.0
O665 O 0.62854 0.64846 0.17399 0.0
O666 O 0.69428 0.62818 0.1619 0.0
O667 O 0.61298 0.7304 0.14299 0.0
O668 O 0.56577 0.70071 0.07071 0.0
C669 C 0.62389 0.61601 0.98271 0.0
O670 O 0.60235 0.5455 0.09856 0.0
O671 O 0.55918 0.598 0.09544 0.0
C672 C 0.7314 0.50534 0.11466 0.0
C673 C 0.71132 0.42991 0.16747 0.0
C674 C 0.70697 0.47435 0.18707 0.0
C675 C 0.71703 0.51197 0.16076 0.0
C676 C 0.74059 0.463 0.09751 0.0
C677 C 0.7309 0.42539 0.12408 0.0
C678 C 0.72563 0.53694 0.08043 0.0
C679 C 0.72189 0.7008 0.0681 0.0
C680 C 0.66633 0.63767 0.19215 0.0
C681 C 0.60611 0.78604 0.09166 0.0
C682 C 0.65765 0.86411 0.04992 0.0
C683 C 0.6766 0.85864 0.09714 0.0
C684 C 0.65102 0.82009 0.11793 0.0
C685 C 0.58562 0.79371 0.04609 0.0
C686 C 0.61118 0.83233 0.02538 0.0
C687 C 0.58548 0.73877 0.10689 0.0
H688 H 0.6929 0.47904 0.22096 0.0
H689 H 0.7097 0.5446 0.17441 0.0
H690 H 0.75155 0.45754 0.06187 0.0
H691 H 0.73551 0.39167 0.10875 0.0
H692 H 0.71193 0.88307 0.11731 0.0
H693 H 0.66783 0.81561 0.15338 0.0
H694 H 0.55111 0.76826 0.0251 0.0
H695 H 0.5952 0.83606 0.98923 0.0
Dy696 Dy 0.88937 0.37646 0.28105 0.0
Dy697 Dy 0.88373 0.31751 0.36994 0.0
C698 C 0.90744 0.42837 0.39013 0.0
O699 O 0.97108 0.39492 0.31141 0.0
O700 O 0.96514 0.33709 0.35975 0.0
O701 O 0.92105 0.44404 0.25684 0.0
O702 O 0.85682 0.3883 0.21099 0.0
O703 O 0.87412 0.26466 0.3012 0.0
O704 O 0.9107 0.31362 0.25043 0.0
O705 O 0.8079 0.32808 0.3595 0.0
O706 O 0.80833 0.33419 0.27851 0.0
O707 O 0.84641 0.25334 0.39755 0.0
O708 O 0.91313 0.30576 0.44146 0.0
C709 C 0.99279 0.37091 0.338 0.0
O710 O 0.87886 0.42008 0.34761 0.0
O711 O 0.9189 0.39361 0.40603 0.0
C712 C 0.85718 0.46925 0.23027 0.0
C713 C 0.82361 0.54284 0.27114 0.0
C714 C 0.80335 0.49491 0.27829 0.0
C715 C 0.81982 0.45853 0.25795 0.0
C716 C 0.87628 0.51667 0.22143 0.0
C717 C 0.85937 0.55309 0.24136 0.0
C718 C 0.8832 0.43473 0.22203 0.0
C719 C 0.89886 0.27195 0.26564 0.0
C720 C 0.7835 0.32843 0.31547 0.0
C721 C 0.90969 0.2242 0.41988 0.0
C722 C 0.95624 0.17421 0.36128 0.0
C723 C 0.90592 0.15468 0.35871 0.0
C724 C 0.88293 0.17904 0.38824 0.0
C725 C 0.96077 0.24036 0.4269 0.0
C726 C 0.98385 0.2155 0.39782 0.0
C727 C 0.88515 0.26003 0.43033 0.0
H728 H 0.7752 0.48554 0.30023 0.0
H729 H 0.80493 0.42247 0.26609 0.0
H730 H 0.90584 0.52609 0.20123 0.0
H731 H 0.87537 0.5896 0.23465 0.0
H732 H 0.88399 0.12157 0.33236 0.0
H733 H 0.84366 0.16504 0.38246 0.0
H734 H 0.98276 0.27462 0.45145 0.0
H735 H 1.02296 0.23026 0.40184 0.0
Dy736 Dy 0.13666 0.70187 0.5809 0.0
Dy737 Dy 1.07516 0.61903 0.63353 0.0
C738 C 0.1167 0.58373 0.53999 0.0
O739 O 1.06438 0.688 0.53868 0.0
O740 O 1.03204 0.61324 0.55821 0.0
O741 O 0.15205 0.75473 0.53303 0.0
O742 O 0.2107 0.74014 0.57636 0.0
O743 O 0.08071 0.6893 0.68233 0.0
O744 O 0.1076 0.74567 0.63357 0.0
O745 O 0.15159 0.62105 0.65064 0.0
O746 O 0.17176 0.70098 0.6562 0.0
O747 O 1.06523 0.57606 0.69114 0.0
O748 O 1.00421 0.57261 0.63575 0.0
C749 C 1.03146 0.64502 0.52952 0.0
O750 O 0.1334 0.62963 0.53442 0.0
O751 O 0.09579 0.57149 0.57755 0.0
C752 C 0.21061 0.7384 0.4908 0.0
C753 C 0.23205 0.70082 0.40093 0.0
C754 C 0.24569 0.68596 0.44481 0.0
C755 C 0.23425 0.70386 0.4892 0.0
C756 C 0.19626 0.75253 0.44663 0.0
C757 C 0.20652 0.73358 0.40196 0.0
C758 C 0.19682 0.75596 0.53723 0.0
C759 C 0.08998 0.7335 0.67326 0.0
C760 C 0.18516 0.66393 0.66141 0.0
C761 C 0.98956 0.56678 0.71593 0.0
C762 C 0.9346 0.57776 0.7886 0.0
C763 C 0.91442 0.57085 0.73816 0.0
C764 C 0.94153 0.56495 0.70199 0.0
C765 C 1.00943 0.5731 0.76637 0.0
C766 C 0.98159 0.57741 0.80226 0.0
C767 C 1.01802 0.56111 0.67762 0.0
H768 H 0.26535 0.66073 0.44484 0.0
H769 H 0.24439 0.69087 0.5223 0.0
H770 H 0.17727 0.77835 0.44669 0.0
H771 H 0.19605 0.74607 0.36859 0.0
H772 H 0.87768 0.56999 0.72671 0.0
H773 H 0.92488 0.55916 0.66318 0.0
H774 H 1.04573 0.5729 0.77799 0.0
H775 H 0.99592 0.57774 0.84003 0.0
Dy776 Dy 0.93327 0.84666 0.3562 0.0
Dy777 Dy 0.8531 0.89754 0.34548 0.0
C778 C 0.96128 0.95492 0.32787 0.0
O779 O 0.93957 0.87893 0.4365 0.0
O780 O 0.87288 0.90302 0.42983 0.0
O781 O 1.00414 0.84113 0.37382 0.0
O782 O 0.94095 0.77636 0.34177 0.0
O783 O 0.81504 0.81712 0.34001 0.0
O784 O 0.87385 0.80271 0.3894 0.0
O785 O 0.87006 0.89071 0.26792 0.0
O786 O 0.89246 0.82521 0.27615 0.0
O787 O 0.78435 0.89225 0.30359 0.0
O788 O 0.81822 0.94814 0.37033 0.0
C789 C 0.90833 0.89438 0.45722 0.0
O790 O 0.97397 0.91647 0.33205 0.0
O791 O 0.91958 0.95724 0.33763 0.0
C792 C 1.01212 0.78348 0.31245 0.0
C793 C 1.07147 0.79198 0.24187 0.0
C794 C 1.02476 0.79358 0.22951 0.0
C795 C 0.99508 0.78901 0.26454 0.0
C796 C 1.05641 0.77631 0.32314 0.0
C797 C 0.08594 0.78 0.2876 0.0
C798 C 0.98819 0.79499 0.35259 0.0
C799 C 0.82834 0.79083 0.36961 0.0
C800 C 0.8807 0.8536 0.24766 0.0
C801 C 0.73562 0.90252 0.35979 0.0
C802 C 0.65627 0.86313 0.40489 0.0
C803 C 0.69829 0.85129 0.41515 0.0
C804 C 0.73761 0.87088 0.39282 0.0
C805 C 0.69272 0.91171 0.34648 0.0
C806 C 0.65309 0.892 0.36881 0.0
C807 C 0.77815 0.92332 0.33817 0.0
H808 H 1.0127 0.80275 0.19461 0.0
H809 H 0.96071 0.79427 0.25556 0.0
H810 H 1.06978 0.77184 0.36001 0.0
H811 H 0.12173 0.77799 0.29775 0.0
H812 H 0.70187 0.82912 0.44255 0.0
H813 H 0.77024 0.86247 0.40252 0.0
H814 H 0.69035 0.93514 0.32008 0.0
H815 H 0.6213 0.90208 0.36022 0.0
Dy816 Dy 0.92839 0.41409 0.79582 0.0
Dy817 Dy 0.85131 0.3825 0.86713 0.0
C818 C 0.91142 0.48607 0.88111 0.0
O819 O 0.95759 0.36979 0.84519 0.0
O820 O 0.92312 0.38472 0.91166 0.0
O821 O 0.97875 0.4696 0.76758 0.0
O822 O 0.97435 0.39465 0.74811 0.0
O823 O 0.85035 0.31484 0.81996 0.0
O824 O 0.87244 0.34639 0.75218 0.0
O825 O 0.80613 0.3938 0.80037 0.0
O826 O 0.8646 0.43214 0.7575 0.0
O827 O 0.7908 0.33404 0.89152 0.0
O828 O 0.83148 0.4064 0.93577 0.0
C829 C 0.95528 0.36937 0.89261 0.0
O830 O 0.94492 0.47011 0.86632 0.0
O831 O 0.86661 0.45948 0.86512 0.0
C832 C 0.98353 0.44119 0.68547 0.0
C833 C 0.97207 0.46618 0.59114 0.0
C834 C 0.93181 0.44956 0.61408 0.0
C835 C 0.93755 0.43722 0.66081 0.0
C836 C 1.02266 0.45195 0.66035 0.0
C837 C 1.01687 0.46396 0.61305 0.0
C838 C 0.99074 0.4383 0.73849 0.0
C839 C 0.85264 0.30961 0.77253 0.0
C840 C 0.81903 0.41741 0.76407 0.0
C841 C 0.81567 0.3428 0.97795 0.0
C842 C 0.84971 0.30989 0.06085 0.0
C843 C 0.8626 0.29835 1.01493 0.0
C844 C 0.84584 0.31483 0.97383 0.0
C845 C 0.80485 0.35666 0.02439 0.0
C846 C 0.82195 0.34039 0.06581 0.0
C847 C 0.80176 0.36282 0.93527 0.0
H848 H 0.89654 0.4497 0.59782 0.0
H849 H 0.90663 0.42769 0.67908 0.0
H850 H 1.05826 0.4543 0.67856 0.0
H851 H 1.04845 0.4759 0.59606 0.0
H852 H 0.88407 0.27503 1.01033 0.0
H853 H 0.85598 0.30514 0.93858 0.0
H854 H 0.78299 0.37965 0.02846 0.0
H855 H 0.81137 0.34954 0.10093 0.0
Dy856 Dy 0.85942 0.83375 0.83088 0.0
Dy857 Dy 0.923 0.94051 0.87802 0.0
C858 C 0.88668 0.86724 0.95394 0.0
O859 O 0.79805 0.86554 0.85042 0.0
O860 O 0.8464 0.94295 0.88661 0.0
O861 O 0.7885 0.78097 0.79481 0.0
O862 O 0.85001 0.75785 0.80945 0.0
O863 O 0.90397 0.94502 0.79686 0.0
O864 O 0.88127 0.86506 0.76134 0.0
O865 O 0.98371 0.90758 0.86502 0.0
O866 O 0.93757 0.82767 0.83675 0.0
O867 O 0.99218 0.99923 0.88797 0.0
O868 O 0.9333 1.0115 0.91877 0.0
C869 C 0.80168 0.90985 0.87381 0.0
O870 O 0.86589 0.83248 0.91406 0.0
O871 O 0.913 0.91126 0.94928 0.0
C872 C 0.77668 0.7059 0.82221 0.0
C873 C 0.76527 0.62795 0.87227 0.0
C874 C 0.77991 0.67575 0.89952 0.0
C875 C 0.78512 0.71457 0.87452 0.0
C876 C 0.75377 0.65793 0.79574 0.0
C877 C 0.74715 0.61896 0.82082 0.0
C878 C 0.80306 0.744 0.79676 0.0
C879 C 0.89655 0.91142 0.75698 0.0
C880 C 0.98175 0.8622 0.84868 0.0
C881 C 0.97709 0.07241 0.88121 0.0
C882 C 0.94511 0.12746 0.81929 0.0
C883 C 0.94118 0.1339 0.86963 0.0
C884 C 0.95762 0.10694 0.90059 0.0
C885 C 0.98634 0.07033 0.83242 0.0
C886 C 0.97067 0.09811 0.80163 0.0
C887 C 0.97506 1.0317 0.90684 0.0
H888 H 0.79379 0.68362 0.93927 0.0
H889 H 0.80141 0.75127 0.89588 0.0
H890 H 0.74611 0.6503 0.75553 0.0
H891 H 0.73555 0.58238 0.79886 0.0
H892 H 0.92234 0.15719 0.88415 0.0
H893 H 0.9502 0.10927 0.93805 0.0
H894 H 1.00149 0.04415 0.81652 0.0
H895 H 0.97441 0.09306 0.76293 0.0
Dy896 Dy 0.70049 0.65283 0.61882 0.0
Dy897 Dy 0.59446 0.59626 0.56997 0.0
C898 C 0.67005 0.62988 0.49501 0.0
O899 O 0.67342 0.71766 0.61062 0.0
O900 O 0.59593 0.67632 0.56956 0.0
O901 O 0.76022 0.72174 0.63967 0.0
O902 O 0.76469 0.66005 0.67038 0.0
O903 O 0.58822 0.62521 0.64785 0.0
O904 O 0.66279 0.63036 0.68389 0.0
O905 O 0.62622 0.53428 0.58834 0.0
O906 O 0.70719 0.5759 0.60254 0.0
O907 O 0.52949 0.53782 0.57387 0.0
O908 O 0.52931 0.57728 0.514 0.0
C909 C 0.63172 0.71901 0.58758 0.0
O910 O 0.70523 0.64746 0.53524 0.0
O911 O 0.62522 0.60695 0.49975 0.0
C912 C 0.83344 0.70647 0.64643 0.0
C913 C 0.89031 0.66273 0.59979 0.0
C914 C 0.86145 0.68292 0.57212 0.0
C915 C 0.83352 0.70539 0.59546 0.0
C916 C 0.86806 0.6932 0.67532 0.0
C917 C 0.89678 0.67132 0.65187 0.0
C918 C 0.78851 0.70338 0.6639 0.0
C919 C 0.61794 0.62606 0.68787 0.0
C920 C 0.67163 0.53341 0.59779 0.0
C921 C 0.46112 0.56058 0.55387 0.0
C922 C 0.39651 0.59697 0.59928 0.0
C923 C 0.40568 0.55592 0.61208 0.0
C924 C 0.43747 0.53778 0.58944 0.0
C925 C 0.44921 0.59946 0.53848 0.0
C926 C 0.41722 0.61744 0.56097 0.0
C927 C 0.5028 0.54854 0.53903 0.0
H928 H 0.85728 0.67759 0.53189 0.0
H929 H 0.8075 0.71585 0.57238 0.0
H930 H 0.86838 0.69383 0.71471 0.0
H931 H 0.91971 0.65642 0.67363 0.0
H932 H 0.38975 0.53883 0.64094 0.0
H933 H 0.44553 0.50749 0.60174 0.0
H934 H 0.46635 0.61763 0.51081 0.0
H935 H 0.41036 0.6487 0.54975 0.0
Dy936 Dy 0.12384 0.63422 0.10546 0.0
Dy937 Dy 0.19757 0.64581 0.03132 0.0
C938 C 0.09531 0.65199 0.99357 0.0
O939 O 0.10865 0.55321 0.07684 0.0
O940 O 0.16968 0.56163 0.03269 0.0
O941 O 1.05395 0.60091 0.12336 0.0
O942 O 0.10983 0.65981 0.17719 0.0
O943 O 0.23919 0.66206 0.10852 0.0
O944 O 0.18266 0.61305 0.14286 0.0
O945 O 0.19144 0.72407 0.04061 0.0
O946 O 0.16018 0.71765 0.11144 0.0
O947 O 0.26927 0.68297 1.01793 0.0
O948 O 0.22395 0.61428 0.97026 0.0
C949 C 0.13432 0.53284 0.05158 0.0
O950 O 0.08576 0.64912 0.03819 0.0
O951 O 0.13355 0.64516 0.97973 0.0
C952 C 1.03103 0.66188 0.16136 0.0
C953 C 0.95927 0.7008 0.13382 0.0
C954 C 1.00426 0.71811 0.11949 0.0
C955 C 1.0399 0.69889 0.13334 0.0
C956 C 0.98667 0.6453 0.17694 0.0
C957 C 0.95095 0.6649 0.16346 0.0
C958 C 1.06353 0.63409 0.16352 0.0
C959 C 0.22792 0.63432 0.14096 0.0
C960 C 0.1764 0.74491 0.07837 0.0
C961 C 0.30154 0.61919 1.01002 0.0
C962 C 0.34281 0.5631 0.06479 0.0
C963 C 0.35235 0.61256 0.08398 0.0
C964 C 0.33233 0.64031 0.05686 0.0
C965 C 0.29421 0.57039 0.98966 0.0
C966 C 0.31468 0.54267 1.01669 0.0
C967 C 0.26837 0.6433 0.98944 0.0
H968 H 1.01181 0.74606 0.09715 0.0
H969 H 1.0736 0.71142 0.12007 0.0
H970 H 0.97894 0.61591 0.19752 0.0
H971 H 0.91661 0.6513 0.1755 0.0
H972 H 0.37486 0.62984 0.12037 0.0
H973 H 0.33891 0.67771 0.07408 0.0
H974 H 0.2704 0.5529 0.954 0.0
H975 H 0.30749 0.50489 1.00039 0.0
loop_
_geom_bond_atom_site_label_1
_geom_bond_atom_site_label_2
_geom_bond_distance
_geom_bond_site_symmetry_2
_ccdc_geom_bond_type
O0 Cd1 2.223 . S
O0 C8 1.315 . S
Cd1 O0 2.223 . S
Cd1 O4 2.297 . S
Cd1 O5 2.439 . S
Cd1 O11 2.240 . S
Cd2 O3 2.240 . S
Cd2 O10 2.223 1_455 S
Cd2 O12 2.297 . S
Cd2 O13 2.439 . S
O3 Cd2 2.240 . S
O3 C8 1.279 . S
O4 Cd1 2.297 . S
O4 C6 1.247 . S
O5 Cd1 2.439 . S
O5 C6 1.208 . S
C6 O4 1.247 . S
C6 O5 1.208 . S
C7 O12 1.247 . S
C7 O13 1.208 . S
C8 O0 1.315 . S
C8 O3 1.279 . S
C9 O10 1.315 . S
C9 O11 1.279 1_655 S
O10 Cd2 2.223 1_655 S
O10 C9 1.315 . S
O11 Cd1 2.240 . S
O11 C9 1.279 1_455 S
O12 Cd2 2.297 . S
O12 C7 1.247 . S
O13 Cd2 2.439 . S
O13 C7 1.208 . S
O14 Cd15 2.223 . S
O14 C22 1.315 . S
Cd15 O14 2.223 . S
Cd15 O18 2.297 1_455 S
Cd15 O19 2.439 1_455 S
Cd15 O25 2.240 . S
Cd16 O17 2.240 . S
Cd16 O24 2.223 . S
Cd16 O26 2.297 . S
Cd16 O27 2.439 . S
O17 Cd16 2.240 . S
O17 C22 1.279 . S
O18 Cd15 2.297 1_655 S
O18 C20 1.247 . S
O19 Cd15 2.439 1_655 S
O19 C20 1.208 . S
C20 O18 1.247 . S
C20 O19 1.208 . S
C21 O26 1.247 . S
C21 O27 1.208 . S
C22 O14 1.315 . S
C22 O17 1.279 . S
C23 O24 1.315 . S
C23 O25 1.279 . S
O24 Cd16 2.223 . S
O24 C23 1.315 . S
O25 Cd15 2.240 . S
O25 C23 1.279 . S
O26 Cd16 2.297 . S
O26 C21 1.247 . S
O27 Cd16 2.439 . S
O27 C21 1.208 . S
O28 Cd29 2.223 . S
O28 C36 1.315 . S
Cd29 O28 2.223 . S
Cd29 O32 2.297 . S
Cd29 O33 2.439 . S
Cd29 O39 2.240 . S
Cd30 O31 2.240 . S
Cd30 O38 2.223 . S
Cd30 O40 2.297 . S
Cd30 O41 2.439 . S
O31 Cd30 2.240 . S
O31 C36 1.279 . S
O32 Cd29 2.297 . S
O32 C34 1.247 . S
O33 Cd29 2.439 . S
O33 C34 1.208 . S
C34 O32 1.247 . S
C34 O33 1.208 . S
C35 O40 1.247 . S
C35 O41 1.208 . S
C36 O28 1.315 . S
C36 O31 1.279 . S
C37 O38 1.315 . S
C37 O39 1.279 . S
O38 Cd30 2.223 . S
O38 C37 1.315 . S
O39 Cd29 2.240 . S
O39 C37 1.279 . S
O40 Cd30 2.297 . S
O40 C35 1.247 . S
O41 Cd30 2.439 . S
O41 C35 1.208 . S
O42 Cd43 2.223 . S
O42 C50 1.315 . S
Cd43 O42 2.223 . S
Cd43 O46 2.297 . S
Cd43 O47 2.439 . S
Cd43 O53 2.240 . S
Cd44 O45 2.240 . S
Cd44 O52 2.223 . S
Cd44 O54 2.297 . S
Cd44 O55 2.439 . S
O45 Cd44 2.240 . S
O45 C50 1.279 . S
O46 Cd43 2.297 . S
O46 C48 1.247 . S
O47 Cd43 2.439 . S
O47 C48 1.208 . S
C48 O46 1.247 . S
C48 O47 1.208 . S
C49 O54 1.247 . S
C49 O55 1.208 . S
C50 O42 1.315 . S
C50 O45 1.279 . S
C51 O52 1.315 . S
C51 O53 1.279 . S
O52 Cd44 2.223 . S
O52 C51 1.315 . S
O53 Cd43 2.240 . S
O53 C51 1.279 . S
O54 Cd44 2.297 . S
O54 C49 1.247 . S
O55 Cd44 2.439 . S
O55 C49 1.208 . S
O56 Cd57 2.223 . S
O56 C64 1.315 . S
Cd57 O56 2.223 . S
Cd57 O60 2.297 . S
Cd57 O61 2.439 . S
Cd57 O67 2.240 . S
Cd58 O59 2.240 . S
Cd58 O66 2.223 . S
Cd58 O68 2.297 . S
Cd58 O69 2.439 . S
O59 Cd58 2.240 . S
O59 C64 1.279 . S
O60 Cd57 2.297 . S
O60 C62 1.247 . S
O61 Cd57 2.439 . S
O61 C62 1.208 . S
C62 O60 1.247 . S
C62 O61 1.208 . S
C63 O68 1.247 . S
C63 O69 1.208 . S
C64 O56 1.315 . S
C64 O59 1.279 . S
C65 O66 1.315 . S
C65 O67 1.279 . S
O66 Cd58 2.223 . S
O66 C65 1.315 . S
O67 Cd57 2.240 . S
O67 C65 1.279 . S
O68 Cd58 2.297 . S
O68 C63 1.247 . S
O69 Cd58 2.439 . S
O69 C63 1.208 . S
O70 Cd71 2.223 . S
O70 C78 1.315 . S
Cd71 O70 2.223 . S
Cd71 O74 2.297 . S
Cd71 O75 2.439 . S
Cd71 O81 2.240 . S
Cd72 O73 2.240 . S
Cd72 O80 2.223 . S
Cd72 O82 2.297 . S
Cd72 O83 2.439 . S
O73 Cd72 2.240 . S
O73 C78 1.279 . S
O74 Cd71 2.297 . S
O74 C76 1.247 . S
O75 Cd71 2.439 . S
O75 C76 1.208 . S
C76 O74 1.247 . S
C76 O75 1.208 . S
C77 O82 1.247 . S
C77 O83 1.208 . S
C78 O70 1.315 . S
C78 O73 1.279 . S
C79 O80 1.315 . S
C79 O81 1.279 . S
O80 Cd72 2.223 . S
O80 C79 1.315 . S
O81 Cd71 2.240 . S
O81 C79 1.279 . S
O82 Cd72 2.297 . S
O82 C77 1.247 . S
O83 Cd72 2.439 . S
O83 C77 1.208 . S
O84 Cd85 2.223 . S
O84 C92 1.315 . S
Cd85 O84 2.223 . S
Cd85 O88 2.297 . S
Cd85 O89 2.439 . S
Cd85 O95 2.240 . S
Cd86 O87 2.240 . S
Cd86 O94 2.223 . S
Cd86 O96 2.297 . S
Cd86 O97 2.439 . S
O87 Cd86 2.240 . S
O87 C92 1.279 . S
O88 Cd85 2.297 . S
O88 C90 1.247 . S
O89 Cd85 2.439 . S
O89 C90 1.208 . S
C90 O88 1.247 . S
C90 O89 1.208 . S
C91 O96 1.247 . S
C91 O97 1.208 . S
C92 O84 1.315 . S
C92 O87 1.279 . S
C93 O94 1.315 . S
C93 O95 1.279 . S
O94 Cd86 2.223 . S
O94 C93 1.315 . S
O95 Cd85 2.240 . S
O95 C93 1.279 . S
O96 Cd86 2.297 . S
O96 C91 1.247 . S
O97 Cd86 2.439 . S
O97 C91 1.208 . S
O98 Cd99 2.223 . S
O98 C106 1.315 1_556 S
Cd99 O98 2.223 . S
Cd99 O102 2.297 1_655 S
Cd99 O103 2.439 1_655 S
Cd99 O109 2.240 . S
Cd100 O101 2.240 1_655 S
Cd100 O108 2.223 . S
Cd100 O110 2.297 . S
Cd100 O111 2.439 1_655 S
O101 Cd100 2.240 1_455 S
O101 C106 1.279 1_455 S
O102 Cd99 2.297 1_455 S
O102 C104 1.247 . S
O103 Cd99 2.439 1_455 S
O103 C104 1.208 . S
C104 O102 1.247 . S
C104 O103 1.208 . S
C105 O110 1.247 1_455 S
C105 O111 1.208 . S
C106 O98 1.315 1_554 S
C106 O101 1.279 1_655 S
C107 O108 1.315 1_556 S
C107 O109 1.279 . S
O108 Cd100 2.223 . S
O108 C107 1.315 1_554 S
O109 Cd99 2.240 . S
O109 C107 1.279 . S
O110 Cd100 2.297 . S
O110 C105 1.247 1_655 S
O111 Cd100 2.439 1_455 S
O111 C105 1.208 . S
O112 Cd113 2.223 . S
O112 C120 1.315 . S
Cd113 O112 2.223 . S
Cd113 O116 2.297 1_565 S
Cd113 O117 2.439 1_565 S
Cd113 O123 2.240 . S
Cd114 O115 2.240 1_565 S
Cd114 O122 2.223 . S
Cd114 O124 2.297 . S
Cd114 O125 2.439 1_565 S
O115 Cd114 2.240 1_545 S
O115 C120 1.279 1_545 S
O116 Cd113 2.297 1_545 S
O116 C118 1.247 . S
O117 Cd113 2.439 1_545 S
O117 C118 1.208 . S
C118 O116 1.247 . S
C118 O117 1.208 . S
C119 O124 1.247 1_545 S
C119 O125 1.208 . S
C120 O112 1.315 . S
C120 O115 1.279 1_565 S
C121 O122 1.315 . S
C121 O123 1.279 . S
O122 Cd114 2.223 . S
O122 C121 1.315 . S
O123 Cd113 2.240 . S
O123 C121 1.279 . S
O124 Cd114 2.297 . S
O124 C119 1.247 1_565 S
O125 Cd114 2.439 1_545 S
O125 C119 1.208 . S
O126 Cd127 2.223 . S
O126 C134 1.315 . S
Cd127 O126 2.223 . S
Cd127 O130 2.297 . S
Cd127 O131 2.439 . S
Cd127 O137 2.240 . S
Cd128 O129 2.240 . S
Cd128 O136 2.223 . S
Cd128 O138 2.297 . S
Cd128 O139 2.439 . S
O129 Cd128 2.240 . S
O129 C134 1.279 . S
O130 Cd127 2.297 . S
O130 C132 1.247 . S
O131 Cd127 2.439 . S
O131 C132 1.208 . S
C132 O130 1.247 . S
C132 O131 1.208 . S
C133 O138 1.247 . S
C133 O139 1.208 . S
C134 O126 1.315 . S
C134 O129 1.279 . S
C135 O136 1.315 . S
C135 O137 1.279 . S
O136 Cd128 2.223 . S
O136 C135 1.315 . S
O137 Cd127 2.240 . S
O137 C135 1.279 . S
O138 Cd128 2.297 . S
O138 C133 1.247 . S
O139 Cd128 2.439 . S
O139 C133 1.208 . S
O140 Cd141 2.223 . S
O140 C148 1.315 . S
Cd141 O140 2.223 . S
Cd141 O144 2.297 . S
Cd141 O145 2.439 . S
Cd141 O151 2.240 . S
Cd142 O143 2.240 . S
Cd142 O150 2.223 . S
Cd142 O152 2.297 . S
Cd142 O153 2.439 . S
O143 Cd142 2.240 . S
O143 C148 1.279 . S
O144 Cd141 2.297 . S
O144 C146 1.247 . S
O145 Cd141 2.439 . S
O145 C146 1.208 . S
C146 O144 1.247 . S
C146 O145 1.208 . S
C147 O152 1.247 . S
C147 O153 1.208 . S
C148 O140 1.315 . S
C148 O143 1.279 . S
C149 O150 1.315 . S
C149 O151 1.279 . S
O150 Cd142 2.223 . S
O150 C149 1.315 . S
O151 Cd141 2.240 . S
O151 C149 1.279 . S
O152 Cd142 2.297 . S
O152 C147 1.247 . S
O153 Cd142 2.439 . S
O153 C147 1.208 . S
O154 Cd155 2.223 . S
O154 C162 1.315 1_545 S
Cd155 O154 2.223 . S
Cd155 O158 2.297 . S
Cd155 O159 2.439 1_554 S
Cd155 O165 2.240 . S
Cd156 O157 2.240 1_556 S
Cd156 O164 2.223 1_556 S
Cd156 O166 2.297 . S
Cd156 O167 2.439 . S
O157 Cd156 2.240 1_554 S
O157 C162 1.279 . S
O158 Cd155 2.297 . S
O158 C160 1.247 . S
O159 Cd155 2.439 1_556 S
O159 C160 1.208 1_556 S
C160 O158 1.247 . S
C160 O159 1.208 1_554 S
C161 O166 1.247 . S
C161 O167 1.208 . S
C162 O154 1.315 1_565 S
C162 O157 1.279 . S
C163 O164 1.315 1_545 S
C163 O165 1.279 . S
O164 Cd156 2.223 1_554 S
O164 C163 1.315 1_565 S
O165 Cd155 2.240 . S
O165 C163 1.279 . S
O166 Cd156 2.297 . S
O166 C161 1.247 . S
O167 Cd156 2.439 . S
O167 C161 1.208 . S
O168 Cd169 2.223 . S
O168 C176 1.315 . S
Cd169 O168 2.223 . S
Cd169 O172 2.297 . S
Cd169 O173 2.439 . S
Cd169 O179 2.240 . S
Cd170 O171 2.240 . S
Cd170 O178 2.223 . S
Cd170 O180 2.297 1_554 S
Cd170 O181 2.439 1_554 S
O171 Cd170 2.240 . S
O171 C176 1.279 . S
O172 Cd169 2.297 . S
O172 C174 1.247 . S
O173 Cd169 2.439 . S
O173 C174 1.208 . S
C174 O172 1.247 . S
C174 O173 1.208 . S
C175 O180 1.247 . S
C175 O181 1.208 . S
C176 O168 1.315 . S
C176 O171 1.279 . S
C177 O178 1.315 . S
C177 O179 1.279 . S
O178 Cd170 2.223 . S
O178 C177 1.315 . S
O179 Cd169 2.240 . S
O179 C177 1.279 . S
O180 Cd170 2.297 1_556 S
O180 C175 1.247 . S
O181 Cd170 2.439 1_556 S
O181 C175 1.208 . S
O182 Cd183 2.223 . S
O182 C190 1.315 . S
Cd183 O182 2.223 . S
Cd183 O186 2.297 . S
Cd183 O187 2.439 . S
Cd183 O193 2.240 . S
Cd184 O185 2.240 . S
Cd184 O192 2.223 . S
Cd184 O194 2.297 . S
Cd184 O195 2.439 . S
O185 Cd184 2.240 . S
O185 C190 1.279 . S
O186 Cd183 2.297 . S
O186 C188 1.247 . S
O187 Cd183 2.439 . S
O187 C188 1.208 . S
C188 O186 1.247 . S
C188 O187 1.208 . S
C189 O194 1.247 . S
C189 O195 1.208 . S
C190 O182 1.315 . S
C190 O185 1.279 . S
C191 O192 1.315 . S
C191 O193 1.279 . S
O192 Cd184 2.223 . S
O192 C191 1.315 . S
O193 Cd183 2.240 . S
O193 C191 1.279 . S
O194 Cd184 2.297 . S
O194 C189 1.247 . S
O195 Cd184 2.439 . S
O195 C189 1.208 . S
O196 Cd197 2.223 . S
O196 C204 1.315 . S
Cd197 O196 2.223 . S
Cd197 O200 2.297 . S
Cd197 O201 2.439 . S
Cd197 O207 2.240 . S
Cd198 O199 2.240 . S
Cd198 O206 2.223 . S
Cd198 O208 2.297 . S
Cd198 O209 2.439 . S
O199 Cd198 2.240 . S
O199 C204 1.279 . S
O200 Cd197 2.297 . S
O200 C202 1.247 . S
O201 Cd197 2.439 . S
O201 C202 1.208 . S
C202 O200 1.247 . S
C202 O201 1.208 . S
C203 O208 1.247 . S
C203 O209 1.208 . S
C204 O196 1.315 . S
C204 O199 1.279 . S
C205 O206 1.315 . S
C205 O207 1.279 . S
O206 Cd198 2.223 . S
O206 C205 1.315 . S
O207 Cd197 2.240 . S
O207 C205 1.279 . S
O208 Cd198 2.297 . S
O208 C203 1.247 . S
O209 Cd198 2.439 . S
O209 C203 1.208 . S
O210 Cd211 2.223 . S
O210 C218 1.315 . S
Cd211 O210 2.223 . S
Cd211 O214 2.297 . S
Cd211 O215 2.439 . S
Cd211 O221 2.240 . S
Cd212 O213 2.240 . S
Cd212 O220 2.223 . S
Cd212 O222 2.297 . S
Cd212 O223 2.439 . S
O213 Cd212 2.240 . S
O213 C218 1.279 . S
O214 Cd211 2.297 . S
O214 C216 1.247 . S
O215 Cd211 2.439 . S
O215 C216 1.208 . S
C216 O214 1.247 . S
C216 O215 1.208 . S
C217 O222 1.247 . S
C217 O223 1.208 . S
C218 O210 1.315 . S
C218 O213 1.279 . S
C219 O220 1.315 . S
C219 O221 1.279 . S
O220 Cd212 2.223 . S
O220 C219 1.315 . S
O221 Cd211 2.240 . S
O221 C219 1.279 . S
O222 Cd212 2.297 . S
O222 C217 1.247 . S
O223 Cd212 2.439 . S
O223 C217 1.208 . S
O224 Cd225 2.223 . S
O224 C232 1.315 . S
Cd225 O224 2.223 . S
Cd225 O228 2.297 . S
Cd225 O229 2.439 . S
Cd225 O235 2.240 1_545 S
Cd226 O227 2.240 . S
Cd226 O234 2.223 1_445 S
Cd226 O236 2.297 . S
Cd226 O237 2.439 . S
O227 Cd226 2.240 . S
O227 C232 1.279 1_455 S
O228 Cd225 2.297 . S
O228 C230 1.247 . S
O229 Cd225 2.439 . S
O229 C230 1.208 . S
C230 O228 1.247 . S
C230 O229 1.208 . S
C231 O236 1.247 . S
C231 O237 1.208 . S
C232 O224 1.315 . S
C232 O227 1.279 1_655 S
C233 O234 1.315 . S
C233 O235 1.279 . S
O234 Cd226 2.223 1_665 S
O234 C233 1.315 . S
O235 Cd225 2.240 1_565 S
O235 C233 1.279 . S
O236 Cd226 2.297 . S
O236 C231 1.247 . S
O237 Cd226 2.439 . S
O237 C231 1.208 . S
O238 Cd239 2.223 . S
O238 C246 1.315 . S
Cd239 O238 2.223 . S
Cd239 O242 2.297 . S
Cd239 O243 2.439 . S
Cd239 O249 2.240 . S
Cd240 O241 2.240 . S
Cd240 O248 2.223 . S
Cd240 O250 2.297 . S
Cd240 O251 2.439 . S
O241 Cd240 2.240 . S
O241 C246 1.279 . S
O242 Cd239 2.297 . S
O242 C244 1.247 . S
O243 Cd239 2.439 . S
O243 C244 1.208 . S
C244 O242 1.247 . S
C244 O243 1.208 . S
C245 O250 1.247 . S
C245 O251 1.208 . S
C246 O238 1.315 . S
C246 O241 1.279 . S
C247 O248 1.315 . S
C247 O249 1.279 . S
O248 Cd240 2.223 . S
O248 C247 1.315 . S
O249 Cd239 2.240 . S
O249 C247 1.279 . S
O250 Cd240 2.297 . S
O250 C245 1.247 . S
O251 Cd240 2.439 . S
O251 C245 1.208 . S
O252 Cd253 2.223 . S
O252 C260 1.315 . S
Cd253 O252 2.223 . S
Cd253 O256 2.297 . S
Cd253 O257 2.439 . S
Cd253 O263 2.240 . S
Cd254 O255 2.240 . S
Cd254 O262 2.223 . S
Cd254 O264 2.297 . S
Cd254 O265 2.439 . S
O255 Cd254 2.240 . S
O255 C260 1.279 . S
O256 Cd253 2.297 . S
O256 C258 1.247 . S
O257 Cd253 2.439 . S
O257 C258 1.208 . S
C258 O256 1.247 . S
C258 O257 1.208 . S
C259 O264 1.247 . S
C259 O265 1.208 . S
C260 O252 1.315 . S
C260 O255 1.279 . S
C261 O262 1.315 . S
C261 O263 1.279 . S
O262 Cd254 2.223 . S
O262 C261 1.315 . S
O263 Cd253 2.240 . S
O263 C261 1.279 . S
O264 Cd254 2.297 . S
O264 C259 1.247 . S
O265 Cd254 2.439 . S
O265 C259 1.208 . S
O266 Cd267 2.223 . S
O266 C274 1.315 . S
Cd267 O266 2.223 . S
Cd267 O270 2.297 . S
Cd267 O271 2.439 . S
Cd267 O277 2.240 . S
Cd268 O269 2.240 . S
Cd268 O276 2.223 . S
Cd268 O278 2.297 . S
Cd268 O279 2.439 . S
O269 Cd268 2.240 . S
O269 C274 1.279 . S
O270 Cd267 2.297 . S
O270 C272 1.247 . S
O271 Cd267 2.439 . S
O271 C272 1.208 . S
C272 O270 1.247 . S
C272 O271 1.208 . S
C273 O278 1.247 . S
C273 O279 1.208 . S
C274 O266 1.315 . S
C274 O269 1.279 . S
C275 O276 1.315 . S
C275 O277 1.279 . S
O276 Cd268 2.223 . S
O276 C275 1.315 . S
O277 Cd267 2.240 . S
O277 C275 1.279 . S
O278 Cd268 2.297 . S
O278 C273 1.247 . S
O279 Cd268 2.439 . S
O279 C273 1.208 . S
O280 Cd281 2.223 . S
O280 C288 1.315 . S
Cd281 O280 2.223 . S
Cd281 O284 2.297 . S
Cd281 O285 2.439 . S
Cd281 O291 2.240 . S
Cd282 O283 2.240 . S
Cd282 O290 2.223 . S
Cd282 O292 2.297 1_554 S
Cd282 O293 2.439 1_554 S
O283 Cd282 2.240 . S
O283 C288 1.279 . S
O284 Cd281 2.297 . S
O284 C286 1.247 . S
O285 Cd281 2.439 . S
O285 C286 1.208 . S
C286 O284 1.247 . S
C286 O285 1.208 . S
C287 O292 1.247 . S
C287 O293 1.208 . S
C288 O280 1.315 . S
C288 O283 1.279 . S
C289 O290 1.315 . S
C289 O291 1.279 . S
O290 Cd282 2.223 . S
O290 C289 1.315 . S
O291 Cd281 2.240 . S
O291 C289 1.279 . S
O292 Cd282 2.297 1_556 S
O292 C287 1.247 . S
O293 Cd282 2.439 1_556 S
O293 C287 1.208 . S
O294 Cd295 2.223 . S
O294 C302 1.315 . S
Cd295 O294 2.223 . S
Cd295 O298 2.297 . S
Cd295 O299 2.439 . S
Cd295 O305 2.240 . S
Cd296 O297 2.240 . S
Cd296 O304 2.223 . S
Cd296 O306 2.297 . S
Cd296 O307 2.439 . S
O297 Cd296 2.240 . S
O297 C302 1.279 . S
O298 Cd295 2.297 . S
O298 C300 1.247 . S
O299 Cd295 2.439 . S
O299 C300 1.208 . S
C300 O298 1.247 . S
C300 O299 1.208 . S
C301 O306 1.247 . S
C301 O307 1.208 . S
C302 O294 1.315 . S
C302 O297 1.279 . S
C303 O304 1.315 . S
C303 O305 1.279 . S
O304 Cd296 2.223 . S
O304 C303 1.315 . S
O305 Cd295 2.240 . S
O305 C303 1.279 . S
O306 Cd296 2.297 . S
O306 C301 1.247 . S
O307 Cd296 2.439 . S
O307 C301 1.208 . S
O308 Cd309 2.223 . S
O308 C316 1.315 . S
Cd309 O308 2.223 . S
Cd309 O312 2.297 . S
Cd309 O313 2.439 . S
Cd309 O319 2.240 . S
Cd310 O311 2.240 . S
Cd310 O318 2.223 . S
Cd310 O320 2.297 . S
Cd310 O321 2.439 . S
O311 Cd310 2.240 . S
O311 C316 1.279 . S
O312 Cd309 2.297 . S
O312 C314 1.247 . S
O313 Cd309 2.439 . S
O313 C314 1.208 . S
C314 O312 1.247 . S
C314 O313 1.208 . S
C315 O320 1.247 . S
C315 O321 1.208 . S
C316 O308 1.315 . S
C316 O311 1.279 . S
C317 O318 1.315 . S
C317 O319 1.279 . S
O318 Cd310 2.223 . S
O318 C317 1.315 . S
O319 Cd309 2.240 . S
O319 C317 1.279 . S
O320 Cd310 2.297 . S
O320 C315 1.247 . S
O321 Cd310 2.439 . S
O321 C315 1.208 . S
O322 Cd323 2.223 . S
O322 C330 1.315 . S
Cd323 O322 2.223 . S
Cd323 O326 2.297 . S
Cd323 O327 2.439 . S
Cd323 O333 2.240 . S
Cd324 O325 2.240 . S
Cd324 O332 2.223 . S
Cd324 O334 2.297 . S
Cd324 O335 2.439 . S
O325 Cd324 2.240 . S
O325 C330 1.279 . S
O326 Cd323 2.297 . S
O326 C328 1.247 . S
O327 Cd323 2.439 . S
O327 C328 1.208 . S
C328 O326 1.247 . S
C328 O327 1.208 . S
C329 O334 1.247 . S
C329 O335 1.208 . S
C330 O322 1.315 . S
C330 O325 1.279 . S
C331 O332 1.315 . S
C331 O333 1.279 . S
O332 Cd324 2.223 . S
O332 C331 1.315 . S
O333 Cd323 2.240 . S
O333 C331 1.279 . S
O334 Cd324 2.297 . S
O334 C329 1.247 . S
O335 Cd324 2.439 . S
O335 C329 1.208 . S
Dy336 O339 2.307 . S
Dy336 O341 2.395 . S
Dy336 O342 2.379 . S
Dy336 O344 2.339 . S
Dy336 O346 2.298 . S
Dy336 O350 2.275 . S
Dy336 C358 2.738 . S
Dy337 O340 2.298 1_655 S
Dy337 O343 2.275 1_655 S
Dy337 O345 2.307 1_655 S
Dy337 O347 2.395 . S
Dy337 O348 2.379 . S
Dy337 O351 2.339 1_654 S
Dy337 C367 2.738 . S
C338 O350 1.254 1_556 S
C338 O351 1.257 . S
O339 Dy336 2.307 . S
O339 C349 1.266 . S
O340 Dy337 2.298 1_455 S
O340 C349 1.236 . S
O341 Dy336 2.395 . S
O341 C358 1.255 . S
O342 Dy336 2.379 . S
O342 C358 1.249 . S
O343 Dy337 2.275 1_455 S
O343 C359 1.254 . S
O344 Dy336 2.339 . S
O344 C359 1.257 . S
O345 Dy337 2.307 1_455 S
O345 C360 1.266 . S
O346 Dy336 2.298 . S
O346 C360 1.236 . S
O347 Dy337 2.395 . S
O347 C367 1.255 . S
O348 Dy337 2.379 . S
O348 C367 1.249 . S
C349 O339 1.266 . S
C349 O340 1.236 . S
O350 Dy336 2.275 . S
O350 C338 1.254 1_554 S
O351 Dy337 2.339 1_456 S
O351 C338 1.257 . S
C352 C355 1.344 . S
C352 C356 1.328 . S
C352 C358 1.516 . S
C353 C354 1.304 . S
C353 C357 1.323 . S
C354 C353 1.304 . S
C354 C355 1.371 . S
C354 H368 0.930 . S
C355 C352 1.344 . S
C355 C354 1.371 . S
C355 H369 0.931 . S
C356 C352 1.328 . S
C356 C357 1.433 . S
C356 H370 0.931 . S
C357 C353 1.323 . S
C357 C356 1.433 . S
C357 H371 0.933 . S
C358 Dy336 2.738 . S
C358 O341 1.255 . S
C358 O342 1.249 . S
C358 C352 1.516 . S
C359 O343 1.254 . S
C359 O344 1.257 . S
C360 O345 1.266 . S
C360 O346 1.236 . S
C361 C364 1.344 . S
C361 C365 1.328 1_554 S
C361 C367 1.516 . S
C362 C363 1.304 . S
C362 C366 1.323 1_554 S
C363 C362 1.304 . S
C363 C364 1.371 . S
C363 H372 0.930 . S
C364 C361 1.344 . S
C364 C363 1.371 . S
C364 H373 0.931 . S
C365 C361 1.328 1_556 S
C365 C366 1.433 . S
C365 H374 0.931 . S
C366 C362 1.323 1_556 S
C366 C365 1.433 . S
C366 H375 0.933 . S
C367 Dy337 2.738 . S
C367 O347 1.255 . S
C367 O348 1.249 . S
C367 C361 1.516 . S
H368 C354 0.930 . S
H369 C355 0.931 . S
H370 C356 0.931 . S
H371 C357 0.933 . S
H372 C363 0.930 . S
H373 C364 0.931 . S
H374 C365 0.931 . S
H375 C366 0.933 . S
Dy376 O379 2.307 . S
Dy376 O381 2.395 . S
Dy376 O382 2.379 . S
Dy376 O384 2.339 . S
Dy376 O386 2.298 . S
Dy376 O390 2.275 . S
Dy376 C398 2.738 . S
Dy377 O380 2.298 . S
Dy377 O383 2.275 . S
Dy377 O385 2.307 . S
Dy377 O387 2.395 . S
Dy377 O388 2.379 . S
Dy377 O391 2.339 . S
Dy377 C407 2.738 . S
C378 O390 1.254 . S
C378 O391 1.257 . S
O379 Dy376 2.307 . S
O379 C389 1.266 . S
O380 Dy377 2.298 . S
O380 C389 1.236 . S
O381 Dy376 2.395 . S
O381 C398 1.255 . S
O382 Dy376 2.379 . S
O382 C398 1.249 . S
O383 Dy377 2.275 . S
O383 C399 1.254 . S
O384 Dy376 2.339 . S
O384 C399 1.257 . S
O385 Dy377 2.307 . S
O385 C400 1.266 . S
O386 Dy376 2.298 . S
O386 C400 1.236 . S
O387 Dy377 2.395 . S
O387 C407 1.255 . S
O388 Dy377 2.379 . S
O388 C407 1.249 . S
C389 O379 1.266 . S
C389 O380 1.236 . S
O390 Dy376 2.275 . S
O390 C378 1.254 . S
O391 Dy377 2.339 . S
O391 C378 1.257 . S
C392 C395 1.344 . S
C392 C396 1.328 . S
C392 C398 1.516 . S
C393 C394 1.304 . S
C393 C397 1.323 . S
C394 C393 1.304 . S
C394 C395 1.371 . S
C394 H408 0.930 . S
C395 C392 1.344 . S
C395 C394 1.371 . S
C395 H409 0.931 . S
C396 C392 1.328 . S
C396 C397 1.433 . S
C396 H410 0.931 . S
C397 C393 1.323 . S
C397 C396 1.433 . S
C397 H411 0.933 . S
C398 Dy376 2.738 . S
C398 O381 1.255 . S
C398 O382 1.249 . S
C398 C392 1.516 . S
C399 O383 1.254 . S
C399 O384 1.257 . S
C400 O385 1.266 . S
C400 O386 1.236 . S
C401 C404 1.344 . S
C401 C405 1.328 . S
C401 C407 1.516 . S
C402 C403 1.304 . S
C402 C406 1.323 . S
C403 C402 1.304 . S
C403 C404 1.371 . S
C403 H412 0.930 . S
C404 C401 1.344 . S
C404 C403 1.371 . S
C404 H413 0.931 . S
C405 C401 1.328 . S
C405 C406 1.433 . S
C405 H414 0.931 . S
C406 C402 1.323 . S
C406 C405 1.433 . S
C406 H415 0.933 . S
C407 Dy377 2.738 . S
C407 O387 1.255 . S
C407 O388 1.249 . S
C407 C401 1.516 . S
H408 C394 0.930 . S
H409 C395 0.931 . S
H410 C396 0.931 . S
H411 C397 0.933 . S
H412 C403 0.930 . S
H413 C404 0.931 . S
H414 C405 0.931 . S
H415 C406 0.933 . S
Dy416 O419 2.307 . S
Dy416 O421 2.395 . S
Dy416 O422 2.379 . S
Dy416 O424 2.339 . S
Dy416 O426 2.298 . S
Dy416 O430 2.275 . S
Dy416 C438 2.738 . S
Dy417 O420 2.298 . S
Dy417 O423 2.275 . S
Dy417 O425 2.307 . S
Dy417 O427 2.395 . S
Dy417 O428 2.379 . S
Dy417 O431 2.339 . S
Dy417 C447 2.738 . S
C418 O430 1.254 . S
C418 O431 1.257 . S
O419 Dy416 2.307 . S
O419 C429 1.266 . S
O420 Dy417 2.298 . S
O420 C429 1.236 . S
O421 Dy416 2.395 . S
O421 C438 1.255 . S
O422 Dy416 2.379 . S
O422 C438 1.249 . S
O423 Dy417 2.275 . S
O423 C439 1.254 . S
O424 Dy416 2.339 . S
O424 C439 1.257 . S
O425 Dy417 2.307 . S
O425 C440 1.266 . S
O426 Dy416 2.298 . S
O426 C440 1.236 . S
O427 Dy417 2.395 . S
O427 C447 1.255 . S
O428 Dy417 2.379 . S
O428 C447 1.249 . S
C429 O419 1.266 . S
C429 O420 1.236 . S
O430 Dy416 2.275 . S
O430 C418 1.254 . S
O431 Dy417 2.339 . S
O431 C418 1.257 . S
C432 C435 1.344 . S
C432 C436 1.328 . S
C432 C438 1.516 . S
C433 C434 1.304 . S
C433 C437 1.323 . S
C434 C433 1.304 . S
C434 C435 1.371 . S
C434 H448 0.930 . S
C435 C432 1.344 . S
C435 C434 1.371 . S
C435 H449 0.931 . S
C436 C432 1.328 . S
C436 C437 1.433 . S
C436 H450 0.931 . S
C437 C433 1.323 . S
C437 C436 1.433 . S
C437 H451 0.933 . S
C438 Dy416 2.738 . S
C438 O421 1.255 . S
C438 O422 1.249 . S
C438 C432 1.516 . S
C439 O423 1.254 . S
C439 O424 1.257 . S
C440 O425 1.266 . S
C440 O426 1.236 . S
C441 C444 1.344 . S
C441 C445 1.328 . S
C441 C447 1.516 . S
C442 C443 1.307 . S
C442 C446 1.323 . S
C443 C442 1.307 . S
C443 C444 1.362 1_565 S
C443 H452 0.938 . S
C444 C441 1.344 . S
C444 C443 1.362 1_545 S
C444 H453 0.931 . S
C445 C441 1.328 . S
C445 C446 1.433 1_545 S
C445 H454 0.931 . S
C446 C442 1.323 . S
C446 C445 1.433 1_565 S
C446 H455 0.933 . S
C447 Dy417 2.738 . S
C447 O427 1.255 . S
C447 O428 1.249 . S
C447 C441 1.516 . S
H448 C434 0.930 . S
H449 C435 0.931 . S
H450 C436 0.931 . S
H451 C437 0.933 . S
H452 C443 0.938 . S
H453 C444 0.931 . S
H454 C445 0.931 . S
H455 C446 0.933 . S
Dy456 O459 2.307 . S
Dy456 O461 2.395 . S
Dy456 O462 2.379 . S
Dy456 O464 2.339 . S
Dy456 O466 2.298 . S
Dy456 O470 2.275 . S
Dy456 C478 2.738 . S
Dy457 O460 2.298 . S
Dy457 O463 2.275 . S
Dy457 O465 2.307 . S
Dy457 O467 2.395 . S
Dy457 O468 2.379 . S
Dy457 O471 2.339 . S
Dy457 C487 2.738 . S
C458 O470 1.254 . S
C458 O471 1.257 . S
O459 Dy456 2.307 . S
O459 C469 1.266 . S
O460 Dy457 2.298 . S
O460 C469 1.236 . S
O461 Dy456 2.395 . S
O461 C478 1.255 . S
O462 Dy456 2.379 . S
O462 C478 1.249 . S
O463 Dy457 2.275 . S
O463 C479 1.254 . S
O464 Dy456 2.339 . S
O464 C479 1.257 . S
O465 Dy457 2.307 . S
O465 C480 1.266 . S
O466 Dy456 2.298 . S
O466 C480 1.236 . S
O467 Dy457 2.395 . S
O467 C487 1.255 . S
O468 Dy457 2.379 . S
O468 C487 1.249 . S
C469 O459 1.266 . S
C469 O460 1.236 . S
O470 Dy456 2.275 . S
O470 C458 1.254 . S
O471 Dy457 2.339 . S
O471 C458 1.257 . S
C472 C475 1.344 . S
C472 C476 1.328 . S
C472 C478 1.516 . S
C473 C474 1.304 . S
C473 C477 1.323 . S
C474 C473 1.304 . S
C474 C475 1.371 . S
C474 H488 0.930 . S
C475 C472 1.344 . S
C475 C474 1.371 . S
C475 H489 0.931 . S
C476 C472 1.328 . S
C476 C477 1.433 . S
C476 H490 0.931 . S
C477 C473 1.323 . S
C477 C476 1.433 . S
C477 H491 0.933 . S
C478 Dy456 2.738 . S
C478 O461 1.255 . S
C478 O462 1.249 . S
C478 C472 1.516 . S
C479 O463 1.254 . S
C479 O464 1.257 . S
C480 O465 1.266 . S
C480 O466 1.236 . S
C481 C484 1.344 . S
C481 C485 1.328 . S
C481 C487 1.516 . S
C482 C483 1.304 . S
C482 C486 1.323 . S
C483 C482 1.304 . S
C483 C484 1.371 . S
C483 H492 0.930 . S
C484 C481 1.344 . S
C484 C483 1.371 . S
C484 H493 0.931 . S
C485 C481 1.328 . S
C485 C486 1.433 . S
C485 H494 0.931 . S
C486 C482 1.323 . S
C486 C485 1.433 . S
C486 H495 0.933 . S
C487 Dy457 2.738 . S
C487 O467 1.255 . S
C487 O468 1.249 . S
C487 C481 1.516 . S
H488 C474 0.930 . S
H489 C475 0.931 . S
H490 C476 0.931 . S
H491 C477 0.933 . S
H492 C483 0.930 . S
H493 C484 0.931 . S
H494 C485 0.931 . S
H495 C486 0.933 . S
Dy496 O499 2.307 . S
Dy496 O501 2.395 1_545 S
Dy496 O502 2.379 . S
Dy496 O504 2.339 . S
Dy496 O506 2.298 . S
Dy496 O510 2.275 . S
Dy496 C518 2.738 1_545 S
Dy497 O500 2.298 . S
Dy497 O503 2.275 . S
Dy497 O505 2.307 . S
Dy497 O507 2.395 . S
Dy497 O508 2.379 . S
Dy497 O511 2.339 1_455 S
Dy497 C527 2.738 . S
C498 O510 1.254 1_655 S
C498 O511 1.257 . S
O499 Dy496 2.307 . S
O499 C509 1.266 . S
O500 Dy497 2.298 . S
O500 C509 1.236 . S
O501 Dy496 2.395 1_565 S
O501 C518 1.255 . S
O502 Dy496 2.379 . S
O502 C518 1.249 1_545 S
O503 Dy497 2.275 . S
O503 C519 1.254 . S
O504 Dy496 2.339 . S
O504 C519 1.257 . S
O505 Dy497 2.307 . S
O505 C520 1.266 . S
O506 Dy496 2.298 . S
O506 C520 1.236 . S
O507 Dy497 2.395 . S
O507 C527 1.255 . S
O508 Dy497 2.379 . S
O508 C527 1.249 . S
C509 O499 1.266 . S
C509 O500 1.236 . S
O510 Dy496 2.275 . S
O510 C498 1.254 1_455 S
O511 Dy497 2.339 1_655 S
O511 C498 1.257 . S
C512 C515 1.344 . S
C512 C516 1.328 . S
C512 C518 1.516 . S
C513 C514 1.304 . S
C513 C517 1.323 . S
C514 C513 1.304 . S
C514 C515 1.371 . S
C514 H528 0.930 . S
C515 C512 1.344 . S
C515 C514 1.371 . S
C515 H529 0.931 . S
C516 C512 1.328 . S
C516 C517 1.433 . S
C516 H530 0.931 . S
C517 C513 1.323 . S
C517 C516 1.433 . S
C517 H531 0.933 . S
C518 Dy496 2.738 1_565 S
C518 O501 1.255 . S
C518 O502 1.249 1_565 S
C518 C512 1.516 . S
C519 O503 1.254 . S
C519 O504 1.257 . S
C520 O505 1.266 . S
C520 O506 1.236 . S
C521 C524 1.344 . S
C521 C525 1.328 1_455 S
C521 C527 1.516 . S
C522 C523 1.304 . S
C522 C526 1.323 1_455 S
C523 C522 1.304 . S
C523 C524 1.371 . S
C523 H532 0.930 . S
C524 C521 1.344 . S
C524 C523 1.371 . S
C524 H533 0.931 . S
C525 C521 1.328 1_655 S
C525 C526 1.433 . S
C525 H534 0.931 . S
C526 C522 1.323 1_655 S
C526 C525 1.433 . S
C526 H535 0.933 . S
C527 Dy497 2.738 . S
C527 O507 1.255 . S
C527 O508 1.249 . S
C527 C521 1.516 . S
H528 C514 0.930 . S
H529 C515 0.931 . S
H530 C516 0.931 . S
H531 C517 0.933 . S
H532 C523 0.930 . S
H533 C524 0.931 . S
H534 C525 0.931 . S
H535 C526 0.933 . S
Dy536 O539 2.307 . S
Dy536 O541 2.395 . S
Dy536 O542 2.379 . S
Dy536 O544 2.339 . S
Dy536 O546 2.298 . S
Dy536 O550 2.275 . S
Dy536 C558 2.738 . S
Dy537 O540 2.298 . S
Dy537 O543 2.275 . S
Dy537 O545 2.307 . S
Dy537 O547 2.395 . S
Dy537 O548 2.379 . S
Dy537 O551 2.339 . S
Dy537 C567 2.738 . S
C538 O550 1.254 . S
C538 O551 1.257 . S
O539 Dy536 2.307 . S
O539 C549 1.266 . S
O540 Dy537 2.298 . S
O540 C549 1.236 . S
O541 Dy536 2.395 . S
O541 C558 1.255 . S
O542 Dy536 2.379 . S
O542 C558 1.249 . S
O543 Dy537 2.275 . S
O543 C559 1.254 . S
O544 Dy536 2.339 . S
O544 C559 1.257 . S
O545 Dy537 2.307 . S
O545 C560 1.266 . S
O546 Dy536 2.298 . S
O546 C560 1.236 . S
O547 Dy537 2.395 . S
O547 C567 1.255 . S
O548 Dy537 2.379 . S
O548 C567 1.249 . S
C549 O539 1.266 . S
C549 O540 1.236 . S
O550 Dy536 2.275 . S
O550 C538 1.254 . S
O551 Dy537 2.339 . S
O551 C538 1.257 . S
C552 C555 1.344 . S
C552 C556 1.328 . S
C552 C558 1.516 . S
C553 C554 1.304 . S
C553 C557 1.323 . S
C554 C553 1.304 . S
C554 C555 1.371 1_545 S
C554 H568 0.930 . S
C555 C552 1.344 . S
C555 C554 1.371 1_565 S
C555 H569 0.931 . S
C556 C552 1.328 . S
C556 C557 1.433 1_565 S
C556 H570 0.931 . S
C557 C553 1.323 . S
C557 C556 1.433 1_545 S
C557 H571 0.933 . S
C558 Dy536 2.738 . S
C558 O541 1.255 . S
C558 O542 1.249 . S
C558 C552 1.516 . S
C559 O543 1.254 . S
C559 O544 1.257 . S
C560 O545 1.266 . S
C560 O546 1.236 . S
C561 C564 1.344 . S
C561 C565 1.328 . S
C561 C567 1.516 . S
C562 C563 1.304 . S
C562 C566 1.323 . S
C563 C562 1.304 . S
C563 C564 1.371 . S
C563 H572 0.930 . S
C564 C561 1.344 . S
C564 C563 1.371 . S
C564 H573 0.931 . S
C565 C561 1.328 . S
C565 C566 1.433 . S
C565 H574 0.931 . S
C566 C562 1.323 . S
C566 C565 1.433 . S
C566 H575 0.933 . S
C567 Dy537 2.738 . S
C567 O547 1.255 . S
C567 O548 1.249 . S
C567 C561 1.516 . S
H568 C554 0.930 . S
H569 C555 0.931 . S
H570 C556 0.931 . S
H571 C557 0.933 . S
H572 C563 0.930 . S
H573 C564 0.931 . S
H574 C565 0.931 . S
H575 C566 0.933 . S
Dy576 O579 2.307 . S
Dy576 O581 2.395 1_554 S
Dy576 O582 2.379 1_554 S
Dy576 O584 2.339 . S
Dy576 O586 2.298 . S
Dy576 O590 2.275 . S
Dy576 C598 2.738 1_554 S
Dy577 O580 2.298 . S
Dy577 O583 2.275 . S
Dy577 O585 2.307 . S
Dy577 O587 2.395 . S
Dy577 O588 2.379 1_545 S
Dy577 O591 2.339 . S
Dy577 C607 2.738 . S
C578 O590 1.254 . S
C578 O591 1.257 . S
O579 Dy576 2.307 . S
O579 C589 1.266 . S
O580 Dy577 2.298 . S
O580 C589 1.236 . S
O581 Dy576 2.395 1_556 S
O581 C598 1.255 . S
O582 Dy576 2.379 1_556 S
O582 C598 1.249 . S
O583 Dy577 2.275 . S
O583 C599 1.254 . S
O584 Dy576 2.339 . S
O584 C599 1.257 . S
O585 Dy577 2.307 . S
O585 C600 1.266 . S
O586 Dy576 2.298 . S
O586 C600 1.236 . S
O587 Dy577 2.395 . S
O587 C607 1.255 . S
O588 Dy577 2.379 1_565 S
O588 C607 1.249 1_565 S
C589 O579 1.266 . S
C589 O580 1.236 . S
O590 Dy576 2.275 . S
O590 C578 1.254 . S
O591 Dy577 2.339 . S
O591 C578 1.257 . S
C592 C595 1.344 . S
C592 C596 1.328 . S
C592 C598 1.516 . S
C593 C594 1.304 . S
C593 C597 1.323 . S
C594 C593 1.304 . S
C594 C595 1.371 . S
C594 H608 0.930 . S
C595 C592 1.344 . S
C595 C594 1.371 . S
C595 H609 0.931 . S
C596 C592 1.328 . S
C596 C597 1.433 . S
C596 H610 0.931 . S
C597 C593 1.323 . S
C597 C596 1.433 . S
C597 H611 0.933 . S
C598 Dy576 2.738 1_556 S
C598 O581 1.255 . S
C598 O582 1.249 . S
C598 C592 1.516 . S
C599 O583 1.254 . S
C599 O584 1.257 . S
C600 O585 1.266 . S
C600 O586 1.236 . S
C601 C604 1.345 . S
C601 C605 1.325 1_545 S
C601 C607 1.516 . S
C602 C603 1.304 1_565 S
C602 C606 1.323 . S
C603 C602 1.304 1_545 S
C603 C604 1.371 . S
C603 H612 0.930 . S
C604 C601 1.345 . S
C604 C603 1.371 . S
C604 H613 0.931 . S
C605 C601 1.325 1_565 S
C605 C606 1.433 . S
C605 H614 0.931 . S
C606 C602 1.323 . S
C606 C605 1.433 . S
C606 H615 0.933 . S
C607 Dy577 2.738 . S
C607 O587 1.255 . S
C607 O588 1.249 1_545 S
C607 C601 1.516 . S
H608 C594 0.930 . S
H609 C595 0.931 . S
H610 C596 0.931 . S
H611 C597 0.933 . S
H612 C603 0.930 . S
H613 C604 0.931 . S
H614 C605 0.931 . S
H615 C606 0.933 . S
Dy616 O619 2.307 . S
Dy616 O621 2.395 . S
Dy616 O622 2.379 . S
Dy616 O624 2.339 . S
Dy616 O626 2.298 . S
Dy616 O630 2.275 . S
Dy616 C638 2.738 . S
Dy617 O620 2.298 . S
Dy617 O623 2.275 . S
Dy617 O625 2.307 . S
Dy617 O627 2.395 . S
Dy617 O628 2.379 . S
Dy617 O631 2.339 . S
Dy617 C647 2.738 . S
C618 O630 1.254 . S
C618 O631 1.257 . S
O619 Dy616 2.307 . S
O619 C629 1.266 . S
O620 Dy617 2.298 . S
O620 C629 1.236 . S
O621 Dy616 2.395 . S
O621 C638 1.255 . S
O622 Dy616 2.379 . S
O622 C638 1.249 . S
O623 Dy617 2.275 . S
O623 C639 1.254 . S
O624 Dy616 2.339 . S
O624 C639 1.257 . S
O625 Dy617 2.307 . S
O625 C640 1.266 . S
O626 Dy616 2.298 . S
O626 C640 1.236 . S
O627 Dy617 2.395 . S
O627 C647 1.255 . S
O628 Dy617 2.379 . S
O628 C647 1.249 . S
C629 O619 1.266 . S
C629 O620 1.236 . S
O630 Dy616 2.275 . S
O630 C618 1.254 . S
O631 Dy617 2.339 . S
O631 C618 1.257 . S
C632 C635 1.344 . S
C632 C636 1.328 . S
C632 C638 1.516 . S
C633 C634 1.304 . S
C633 C637 1.323 . S
C634 C633 1.304 . S
C634 C635 1.371 . S
C634 H648 0.930 . S
C635 C632 1.344 . S
C635 C634 1.371 . S
C635 H649 0.931 . S
C636 C632 1.328 . S
C636 C637 1.433 . S
C636 H650 0.931 . S
C637 C633 1.323 . S
C637 C636 1.433 . S
C637 H651 0.933 . S
C638 Dy616 2.738 . S
C638 O621 1.255 . S
C638 O622 1.249 . S
C638 C632 1.516 . S
C639 O623 1.254 . S
C639 O624 1.257 . S
C640 O625 1.266 . S
C640 O626 1.236 . S
C641 C644 1.344 . S
C641 C645 1.328 . S
C641 C647 1.516 . S
C642 C643 1.304 . S
C642 C646 1.323 . S
C643 C642 1.304 . S
C643 C644 1.371 . S
C643 H652 0.930 . S
C644 C641 1.344 . S
C644 C643 1.371 . S
C644 H653 0.931 . S
C645 C641 1.328 . S
C645 C646 1.433 . S
C645 H654 0.931 . S
C646 C642 1.323 . S
C646 C645 1.433 . S
C646 H655 0.933 . S
C647 Dy617 2.738 . S
C647 O627 1.255 . S
C647 O628 1.249 . S
C647 C641 1.516 . S
H648 C634 0.930 . S
H649 C635 0.931 . S
H650 C636 0.931 . S
H651 C637 0.933 . S
H652 C643 0.930 . S
H653 C644 0.931 . S
H654 C645 0.931 . S
H655 C646 0.933 . S
Dy656 O659 2.307 1_554 S
Dy656 O661 2.395 . S
Dy656 O662 2.379 . S
Dy656 O664 2.339 . S
Dy656 O666 2.298 . S
Dy656 O670 2.275 . S
Dy656 C678 2.738 . S
Dy657 O660 2.298 . S
Dy657 O663 2.275 . S
Dy657 O665 2.307 . S
Dy657 O667 2.395 . S
Dy657 O668 2.379 . S
Dy657 O671 2.339 . S
Dy657 C687 2.738 . S
C658 O670 1.254 . S
C658 O671 1.257 . S
O659 Dy656 2.307 1_556 S
O659 C669 1.266 . S
O660 Dy657 2.298 . S
O660 C669 1.236 1_554 S
O661 Dy656 2.395 . S
O661 C678 1.255 . S
O662 Dy656 2.379 . S
O662 C678 1.249 . S
O663 Dy657 2.275 . S
O663 C679 1.254 . S
O664 Dy656 2.339 . S
O664 C679 1.257 . S
O665 Dy657 2.307 . S
O665 C680 1.266 . S
O666 Dy656 2.298 . S
O666 C680 1.236 . S
O667 Dy657 2.395 . S
O667 C687 1.255 . S
O668 Dy657 2.379 . S
O668 C687 1.249 . S
C669 O659 1.266 . S
C669 O660 1.236 1_556 S
O670 Dy656 2.275 . S
O670 C658 1.254 . S
O671 Dy657 2.339 . S
O671 C658 1.257 . S
C672 C675 1.344 . S
C672 C676 1.328 . S
C672 C678 1.516 . S
C673 C674 1.304 . S
C673 C677 1.323 . S
C674 C673 1.304 . S
C674 C675 1.371 . S
C674 H688 0.930 . S
C675 C672 1.344 . S
C675 C674 1.371 . S
C675 H689 0.931 . S
C676 C672 1.328 . S
C676 C677 1.433 . S
C676 H690 0.931 . S
C677 C673 1.323 . S
C677 C676 1.433 . S
C677 H691 0.933 . S
C678 Dy656 2.738 . S
C678 O661 1.255 . S
C678 O662 1.249 . S
C678 C672 1.516 . S
C679 O663 1.254 . S
C679 O664 1.257 . S
C680 O665 1.266 . S
C680 O666 1.236 . S
C681 C684 1.344 1_554 S
C681 C685 1.328 . S
C681 C687 1.516 . S
C682 C683 1.304 . S
C682 C686 1.323 . S
C683 C682 1.304 . S
C683 C684 1.371 . S
C683 H692 0.930 . S
C684 C681 1.344 1_556 S
C684 C683 1.371 . S
C684 H693 0.931 . S
C685 C681 1.328 . S
C685 C686 1.433 1_554 S
C685 H694 0.931 . S
C686 C682 1.323 . S
C686 C685 1.433 1_556 S
C686 H695 0.933 . S
C687 Dy657 2.738 . S
C687 O667 1.255 . S
C687 O668 1.249 . S
C687 C681 1.516 . S
H688 C674 0.930 . S
H689 C675 0.931 . S
H690 C676 0.931 . S
H691 C677 0.933 . S
H692 C683 0.930 . S
H693 C684 0.931 . S
H694 C685 0.931 . S
H695 C686 0.933 . S
Dy696 O699 2.307 . S
Dy696 O701 2.395 . S
Dy696 O702 2.379 . S
Dy696 O704 2.339 . S
Dy696 O706 2.298 . S
Dy696 O710 2.275 . S
Dy696 C718 2.738 . S
Dy697 O700 2.298 . S
Dy697 O703 2.275 . S
Dy697 O705 2.307 . S
Dy697 O707 2.395 . S
Dy697 O708 2.379 . S
Dy697 O711 2.339 . S
Dy697 C727 2.738 . S
C698 O710 1.254 . S
C698 O711 1.257 . S
O699 Dy696 2.307 . S
O699 C709 1.266 . S
O700 Dy697 2.298 . S
O700 C709 1.236 . S
O701 Dy696 2.395 . S
O701 C718 1.255 . S
O702 Dy696 2.379 . S
O702 C718 1.249 . S
O703 Dy697 2.275 . S
O703 C719 1.254 . S
O704 Dy696 2.339 . S
O704 C719 1.257 . S
O705 Dy697 2.307 . S
O705 C720 1.266 . S
O706 Dy696 2.298 . S
O706 C720 1.236 . S
O707 Dy697 2.395 . S
O707 C727 1.255 . S
O708 Dy697 2.379 . S
O708 C727 1.249 . S
C709 O699 1.266 . S
C709 O700 1.236 . S
O710 Dy696 2.275 . S
O710 C698 1.254 . S
O711 Dy697 2.339 . S
O711 C698 1.257 . S
C712 C715 1.344 . S
C712 C716 1.328 . S
C712 C718 1.516 . S
C713 C714 1.304 . S
C713 C717 1.323 . S
C714 C713 1.304 . S
C714 C715 1.371 . S
C714 H728 0.930 . S
C715 C712 1.344 . S
C715 C714 1.371 . S
C715 H729 0.931 . S
C716 C712 1.328 . S
C716 C717 1.433 . S
C716 H730 0.931 . S
C717 C713 1.323 . S
C717 C716 1.433 . S
C717 H731 0.933 . S
C718 Dy696 2.738 . S
C718 O701 1.255 . S
C718 O702 1.249 . S
C718 C712 1.516 . S
C719 O703 1.254 . S
C719 O704 1.257 . S
C720 O705 1.266 . S
C720 O706 1.236 . S
C721 C724 1.344 . S
C721 C725 1.328 . S
C721 C727 1.516 . S
C722 C723 1.304 . S
C722 C726 1.323 . S
C723 C722 1.304 . S
C723 C724 1.371 . S
C723 H732 0.930 . S
C724 C721 1.344 . S
C724 C723 1.371 . S
C724 H733 0.931 . S
C725 C721 1.328 . S
C725 C726 1.433 . S
C725 H734 0.931 . S
C726 C722 1.323 . S
C726 C725 1.433 . S
C726 H735 0.933 . S
C727 Dy697 2.738 . S
C727 O707 1.255 . S
C727 O708 1.249 . S
C727 C721 1.516 . S
H728 C714 0.930 . S
H729 C715 0.931 . S
H730 C716 0.931 . S
H731 C717 0.933 . S
H732 C723 0.930 . S
H733 C724 0.931 . S
H734 C725 0.931 . S
H735 C726 0.933 . S
Dy736 O739 2.307 1_455 S
Dy736 O741 2.395 . S
Dy736 O742 2.379 . S
Dy736 O744 2.339 . S
Dy736 O746 2.298 . S
Dy736 O750 2.275 . S
Dy736 C758 2.738 . S
Dy737 O740 2.298 1_455 S
Dy737 O743 2.275 . S
Dy737 O745 2.307 . S
Dy737 O747 2.395 . S
Dy737 O748 2.379 . S
Dy737 O751 2.339 . S
Dy737 C767 2.738 1_455 S
C738 O750 1.254 . S
C738 O751 1.257 . S
O739 Dy736 2.307 1_655 S
O739 C749 1.266 . S
O740 Dy737 2.298 1_655 S
O740 C749 1.236 . S
O741 Dy736 2.395 . S
O741 C758 1.255 . S
O742 Dy736 2.379 . S
O742 C758 1.249 . S
O743 Dy737 2.275 . S
O743 C759 1.254 . S
O744 Dy736 2.339 . S
O744 C759 1.257 . S
O745 Dy737 2.307 . S
O745 C760 1.266 . S
O746 Dy736 2.298 . S
O746 C760 1.236 . S
O747 Dy737 2.395 . S
O747 C767 1.255 1_455 S
O748 Dy737 2.379 . S
O748 C767 1.249 1_455 S
C749 O739 1.266 . S
C749 O740 1.236 . S
O750 Dy736 2.275 . S
O750 C738 1.254 . S
O751 Dy737 2.339 . S
O751 C738 1.257 . S
C752 C755 1.344 . S
C752 C756 1.328 . S
C752 C758 1.516 . S
C753 C754 1.304 . S
C753 C757 1.323 . S
C754 C753 1.304 . S
C754 C755 1.371 . S
C754 H768 0.930 . S
C755 C752 1.344 . S
C755 C754 1.371 . S
C755 H769 0.931 . S
C756 C752 1.328 . S
C756 C757 1.433 . S
C756 H770 0.931 . S
C757 C753 1.323 . S
C757 C756 1.433 . S
C757 H771 0.933 . S
C758 Dy736 2.738 . S
C758 O741 1.255 . S
C758 O742 1.249 . S
C758 C752 1.516 . S
C759 O743 1.254 . S
C759 O744 1.257 . S
C760 O745 1.266 . S
C760 O746 1.236 . S
C761 C764 1.344 . S
C761 C765 1.328 . S
C761 C767 1.516 . S
C762 C763 1.304 . S
C762 C766 1.323 . S
C763 C762 1.304 . S
C763 C764 1.371 . S
C763 H772 0.930 . S
C764 C761 1.344 . S
C764 C763 1.371 . S
C764 H773 0.931 . S
C765 C761 1.328 . S
C765 C766 1.433 . S
C765 H774 0.931 . S
C766 C762 1.323 . S
C766 C765 1.433 . S
C766 H775 0.933 . S
C767 Dy737 2.738 1_655 S
C767 O747 1.255 1_655 S
C767 O748 1.249 1_655 S
C767 C761 1.516 . S
H768 C754 0.930 . S
H769 C755 0.931 . S
H770 C756 0.931 . S
H771 C757 0.933 . S
H772 C763 0.930 . S
H773 C764 0.931 . S
H774 C765 0.931 . S
H775 C766 0.933 . S
Dy776 O779 2.307 . S
Dy776 O781 2.395 . S
Dy776 O782 2.379 . S
Dy776 O784 2.339 . S
Dy776 O786 2.298 . S
Dy776 O790 2.275 . S
Dy776 C798 2.738 . S
Dy777 O780 2.298 . S
Dy777 O783 2.275 . S
Dy777 O785 2.307 . S
Dy777 O787 2.395 . S
Dy777 O788 2.379 . S
Dy777 O791 2.339 . S
Dy777 C807 2.738 . S
C778 O790 1.254 . S
C778 O791 1.257 . S
O779 Dy776 2.307 . S
O779 C789 1.266 . S
O780 Dy777 2.298 . S
O780 C789 1.236 . S
O781 Dy776 2.395 . S
O781 C798 1.255 . S
O782 Dy776 2.379 . S
O782 C798 1.249 . S
O783 Dy777 2.275 . S
O783 C799 1.254 . S
O784 Dy776 2.339 . S
O784 C799 1.257 . S
O785 Dy777 2.307 . S
O785 C800 1.266 . S
O786 Dy776 2.298 . S
O786 C800 1.236 . S
O787 Dy777 2.395 . S
O787 C807 1.255 . S
O788 Dy777 2.379 . S
O788 C807 1.249 . S
C789 O779 1.266 . S
C789 O780 1.236 . S
O790 Dy776 2.275 . S
O790 C778 1.254 . S
O791 Dy777 2.339 . S
O791 C778 1.257 . S
C792 C795 1.344 . S
C792 C796 1.328 . S
C792 C798 1.516 . S
C793 C794 1.304 1_455 S
C793 C797 1.323 1_455 S
C794 C793 1.304 1_655 S
C794 C795 1.371 . S
C794 H808 0.930 1_655 S
C795 C792 1.344 . S
C795 C794 1.371 . S
C795 H809 0.931 . S
C796 C792 1.328 . S
C796 C797 1.433 . S
C796 H810 0.931 . S
C797 C793 1.323 1_655 S
C797 C796 1.433 . S
C797 H811 0.933 . S
C798 Dy776 2.738 . S
C798 O781 1.255 . S
C798 O782 1.249 . S
C798 C792 1.516 . S
C799 O783 1.254 . S
C799 O784 1.257 . S
C800 O785 1.266 . S
C800 O786 1.236 . S
C801 C804 1.344 . S
C801 C805 1.328 . S
C801 C807 1.516 . S
C802 C803 1.304 . S
C802 C806 1.323 . S
C803 C802 1.304 . S
C803 C804 1.371 . S
C803 H812 0.930 . S
C804 C801 1.344 . S
C804 C803 1.371 . S
C804 H813 0.931 . S
C805 C801 1.328 . S
C805 C806 1.433 . S
C805 H814 0.931 . S
C806 C802 1.323 . S
C806 C805 1.433 . S
C806 H815 0.933 . S
C807 Dy777 2.738 . S
C807 O787 1.255 . S
C807 O788 1.249 . S
C807 C801 1.516 . S
H808 C794 0.930 1_455 S
H809 C795 0.931 . S
H810 C796 0.931 . S
H811 C797 0.933 . S
H812 C803 0.930 . S
H813 C804 0.931 . S
H814 C805 0.931 . S
H815 C806 0.933 . S
Dy816 O819 2.307 . S
Dy816 O821 2.395 . S
Dy816 O822 2.379 . S
Dy816 O824 2.339 . S
Dy816 O826 2.298 . S
Dy816 O830 2.275 . S
Dy816 C838 2.738 . S
Dy817 O820 2.298 . S
Dy817 O823 2.275 . S
Dy817 O825 2.307 . S
Dy817 O827 2.395 . S
Dy817 O828 2.379 . S
Dy817 O831 2.339 . S
Dy817 C847 2.738 . S
C818 O830 1.254 . S
C818 O831 1.257 . S
O819 Dy816 2.307 . S
O819 C829 1.266 . S
O820 Dy817 2.298 . S
O820 C829 1.236 . S
O821 Dy816 2.395 . S
O821 C838 1.255 . S
O822 Dy816 2.379 . S
O822 C838 1.249 . S
O823 Dy817 2.275 . S
O823 C839 1.254 . S
O824 Dy816 2.339 . S
O824 C839 1.257 . S
O825 Dy817 2.307 . S
O825 C840 1.266 . S
O826 Dy816 2.298 . S
O826 C840 1.236 . S
O827 Dy817 2.395 . S
O827 C847 1.255 . S
O828 Dy817 2.379 . S
O828 C847 1.249 . S
C829 O819 1.266 . S
C829 O820 1.236 . S
O830 Dy816 2.275 . S
O830 C818 1.254 . S
O831 Dy817 2.339 . S
O831 C818 1.257 . S
C832 C835 1.344 . S
C832 C836 1.328 . S
C832 C838 1.516 . S
C833 C834 1.304 . S
C833 C837 1.323 . S
C834 C833 1.304 . S
C834 C835 1.371 . S
C834 H848 0.930 . S
C835 C832 1.344 . S
C835 C834 1.371 . S
C835 H849 0.931 . S
C836 C832 1.328 . S
C836 C837 1.433 . S
C836 H850 0.931 . S
C837 C833 1.323 . S
C837 C836 1.433 . S
C837 H851 0.933 . S
C838 Dy816 2.738 . S
C838 O821 1.255 . S
C838 O822 1.249 . S
C838 C832 1.516 . S
C839 O823 1.254 . S
C839 O824 1.257 . S
C840 O825 1.266 . S
C840 O826 1.236 . S
C841 C844 1.344 . S
C841 C845 1.328 1_556 S
C841 C847 1.516 . S
C842 C843 1.304 . S
C842 C846 1.323 . S
C843 C842 1.304 . S
C843 C844 1.371 1_554 S
C843 H852 0.930 . S
C844 C841 1.344 . S
C844 C843 1.371 1_556 S
C844 H853 0.931 . S
C845 C841 1.328 1_554 S
C845 C846 1.433 . S
C845 H854 0.931 . S
C846 C842 1.323 . S
C846 C845 1.433 . S
C846 H855 0.933 . S
C847 Dy817 2.738 . S
C847 O827 1.255 . S
C847 O828 1.249 . S
C847 C841 1.516 . S
H848 C834 0.930 . S
H849 C835 0.931 . S
H850 C836 0.931 . S
H851 C837 0.933 . S
H852 C843 0.930 . S
H853 C844 0.931 . S
H854 C845 0.931 . S
H855 C846 0.933 . S
Dy856 O859 2.307 . S
Dy856 O861 2.395 . S
Dy856 O862 2.379 . S
Dy856 O864 2.339 . S
Dy856 O866 2.298 . S
Dy856 O870 2.275 . S
Dy856 C878 2.738 . S
Dy857 O860 2.298 . S
Dy857 O863 2.275 . S
Dy857 O865 2.307 . S
Dy857 O867 2.395 . S
Dy857 O868 2.379 . S
Dy857 O871 2.339 . S
Dy857 C887 2.738 . S
C858 O870 1.254 . S
C858 O871 1.257 . S
O859 Dy856 2.307 . S
O859 C869 1.266 . S
O860 Dy857 2.298 . S
O860 C869 1.236 . S
O861 Dy856 2.395 . S
O861 C878 1.255 . S
O862 Dy856 2.379 . S
O862 C878 1.249 . S
O863 Dy857 2.275 . S
O863 C879 1.254 . S
O864 Dy856 2.339 . S
O864 C879 1.257 . S
O865 Dy857 2.307 . S
O865 C880 1.266 . S
O866 Dy856 2.298 . S
O866 C880 1.236 . S
O867 Dy857 2.395 . S
O867 C887 1.255 . S
O868 Dy857 2.379 . S
O868 C887 1.249 . S
C869 O859 1.266 . S
C869 O860 1.236 . S
O870 Dy856 2.275 . S
O870 C858 1.254 . S
O871 Dy857 2.339 . S
O871 C858 1.257 . S
C872 C875 1.344 . S
C872 C876 1.328 . S
C872 C878 1.516 . S
C873 C874 1.304 . S
C873 C877 1.323 . S
C874 C873 1.304 . S
C874 C875 1.371 . S
C874 H888 0.930 . S
C875 C872 1.344 . S
C875 C874 1.371 . S
C875 H889 0.931 . S
C876 C872 1.328 . S
C876 C877 1.433 . S
C876 H890 0.931 . S
C877 C873 1.323 . S
C877 C876 1.433 . S
C877 H891 0.933 . S
C878 Dy856 2.738 . S
C878 O861 1.255 . S
C878 O862 1.249 . S
C878 C872 1.516 . S
C879 O863 1.254 . S
C879 O864 1.257 . S
C880 O865 1.266 . S
C880 O866 1.236 . S
C881 C884 1.344 . S
C881 C885 1.328 . S
C881 C887 1.516 1_545 S
C882 C883 1.304 . S
C882 C886 1.323 . S
C883 C882 1.304 . S
C883 C884 1.371 . S
C883 H892 0.930 . S
C884 C881 1.344 . S
C884 C883 1.371 . S
C884 H893 0.931 . S
C885 C881 1.328 . S
C885 C886 1.433 . S
C885 H894 0.931 . S
C886 C882 1.323 . S
C886 C885 1.433 . S
C886 H895 0.933 . S
C887 Dy857 2.738 . S
C887 O867 1.255 . S
C887 O868 1.249 . S
C887 C881 1.516 1_565 S
H888 C874 0.930 . S
H889 C875 0.931 . S
H890 C876 0.931 . S
H891 C877 0.933 . S
H892 C883 0.930 . S
H893 C884 0.931 . S
H894 C885 0.931 . S
H895 C886 0.933 . S
Dy896 O899 2.307 . S
Dy896 O901 2.395 . S
Dy896 O902 2.379 . S
Dy896 O904 2.339 . S
Dy896 O906 2.298 . S
Dy896 O910 2.275 . S
Dy896 C918 2.738 . S
Dy897 O900 2.298 . S
Dy897 O903 2.275 . S
Dy897 O905 2.307 . S
Dy897 O907 2.395 . S
Dy897 O908 2.379 . S
Dy897 O911 2.339 . S
Dy897 C927 2.738 . S
C898 O910 1.254 . S
C898 O911 1.257 . S
O899 Dy896 2.307 . S
O899 C909 1.266 . S
O900 Dy897 2.298 . S
O900 C909 1.236 . S
O901 Dy896 2.395 . S
O901 C918 1.255 . S
O902 Dy896 2.379 . S
O902 C918 1.249 . S
O903 Dy897 2.275 . S
O903 C919 1.254 . S
O904 Dy896 2.339 . S
O904 C919 1.257 . S
O905 Dy897 2.307 . S
O905 C920 1.266 . S
O906 Dy896 2.298 . S
O906 C920 1.236 . S
O907 Dy897 2.395 . S
O907 C927 1.255 . S
O908 Dy897 2.379 . S
O908 C927 1.249 . S
C909 O899 1.266 . S
C909 O900 1.236 . S
O910 Dy896 2.275 . S
O910 C898 1.254 . S
O911 Dy897 2.339 . S
O911 C898 1.257 . S
C912 C915 1.344 . S
C912 C916 1.328 . S
C912 C918 1.516 . S
C913 C914 1.304 . S
C913 C917 1.323 . S
C914 C913 1.304 . S
C914 C915 1.371 . S
C914 H928 0.930 . S
C915 C912 1.344 . S
C915 C914 1.371 . S
C915 H929 0.931 . S
C916 C912 1.328 . S
C916 C917 1.433 . S
C916 H930 0.931 . S
C917 C913 1.323 . S
C917 C916 1.433 . S
C917 H931 0.933 . S
C918 Dy896 2.738 . S
C918 O901 1.255 . S
C918 O902 1.249 . S
C918 C912 1.516 . S
C919 O903 1.254 . S
C919 O904 1.257 . S
C920 O905 1.266 . S
C920 O906 1.236 . S
C921 C924 1.344 . S
C921 C925 1.328 . S
C921 C927 1.516 . S
C922 C923 1.304 . S
C922 C926 1.323 . S
C923 C922 1.304 . S
C923 C924 1.371 . S
C923 H932 0.930 . S
C924 C921 1.344 . S
C924 C923 1.371 . S
C924 H933 0.931 . S
C925 C921 1.328 . S
C925 C926 1.433 . S
C925 H934 0.931 . S
C926 C922 1.323 . S
C926 C925 1.433 . S
C926 H935 0.933 . S
C927 Dy897 2.738 . S
C927 O907 1.255 . S
C927 O908 1.249 . S
C927 C921 1.516 . S
H928 C914 0.930 . S
H929 C915 0.931 . S
H930 C916 0.931 . S
H931 C917 0.933 . S
H932 C923 0.930 . S
H933 C924 0.931 . S
H934 C925 0.931 . S
H935 C926 0.933 . S
Dy936 O939 2.307 . S
Dy936 O941 2.395 1_455 S
Dy936 O942 2.379 1_455 S
Dy936 O944 2.339 . S
Dy936 O946 2.298 . S
Dy936 O950 2.275 . S
Dy936 C958 2.738 1_455 S
Dy937 O940 2.298 . S
Dy937 O943 2.275 . S
Dy937 O945 2.307 . S
Dy937 O947 2.395 . S
Dy937 O948 2.379 . S
Dy937 O951 2.329 1_554 S
Dy937 C967 2.738 . S
C938 O950 1.254 . S
C938 O951 1.250 1_554 S
O939 Dy936 2.307 . S
O939 C949 1.266 . S
O940 Dy937 2.298 . S
O940 C949 1.236 . S
O941 Dy936 2.395 1_655 S
O941 C958 1.255 . S
O942 Dy936 2.379 1_655 S
O942 C958 1.249 . S
O943 Dy937 2.275 . S
O943 C959 1.254 . S
O944 Dy936 2.339 . S
O944 C959 1.257 . S
O945 Dy937 2.307 . S
O945 C960 1.266 . S
O946 Dy936 2.298 . S
O946 C960 1.236 . S
O947 Dy937 2.395 . S
O947 C967 1.255 . S
O948 Dy937 2.379 . S
O948 C967 1.249 . S
C949 O939 1.266 . S
C949 O940 1.236 . S
O950 Dy936 2.275 . S
O950 C938 1.254 . S
O951 Dy937 2.329 1_556 S
O951 C938 1.250 1_556 S
C952 C955 1.344 . S
C952 C956 1.328 . S
C952 C958 1.516 . S
C953 C954 1.304 . S
C953 C957 1.323 . S
C954 C953 1.304 . S
C954 C955 1.371 . S
C954 H968 0.930 . S
C955 C952 1.344 . S
C955 C954 1.371 . S
C955 H969 0.931 . S
C956 C952 1.328 . S
C956 C957 1.433 . S
C956 H970 0.931 . S
C957 C953 1.323 . S
C957 C956 1.433 . S
C957 H971 0.933 . S
C958 Dy936 2.738 1_655 S
C958 O941 1.255 . S
C958 O942 1.249 . S
C958 C952 1.516 . S
C959 O943 1.254 . S
C959 O944 1.257 . S
C960 O945 1.266 . S
C960 O946 1.236 . S
C961 C964 1.344 . S
C961 C965 1.328 . S
C961 C967 1.516 . S
C962 C963 1.304 . S
C962 C966 1.323 1_554 S
C963 C962 1.304 . S
C963 C964 1.371 . S
C963 H972 0.930 . S
C964 C961 1.344 . S
C964 C963 1.371 . S
C964 H973 0.931 . S
C965 C961 1.328 . S
C965 C966 1.433 1_554 S
C965 H974 0.931 1_554 S
C966 C962 1.323 1_556 S
C966 C965 1.433 1_556 S
C966 H975 0.933 . S
C967 Dy937 2.738 . S
C967 O947 1.255 . S
C967 O948 1.249 . S
C967 C961 1.516 . S
H968 C954 0.930 . S
H969 C955 0.931 . S
H970 C956 0.931 . S
H971 C957 0.933 . S
H972 C963 0.930 . S
H973 C964 0.931 . S
H974 C965 0.931 1_556 S
H975 C966 0.933 . S
C106 C349 4.661 1_655 S
C65 C400 3.333 . S
C79 C429 2.855 1_565 S
C473 C90 1.705 . S
C21 C513 1.516 . S
C549 C35 2.227 . S
C599 C50 3.494 . S
C6 C629 3.771 . S
C359 C232 3.839 1_455 S
C245 C402 1.383 . S
C439 C274 2.845 . S
C469 C175 1.727 . S
C231 C509 1.633 . S
C559 C246 2.571 . S
C593 C273 0.748 . S
C639 C176 3.653 . S
C353 C160 3.147 . S
C289 C679 3.126 . S
C713 C328 2.456 . S
C749 C317 1.546 . S
C118 C633 3.243 . S
C132 C433 2.516 . S
C331 C799 2.842 . S
C818 C303 0.909 . S
C360 C63 4.192 1_545 S
C829 C107 3.909 . S
C92 C440 2.686 . S
C78 C802 2.190 . S
C522 C8 1.963 . S
C51 C720 2.635 . S
C578 C37 4.118 1_544 S
C880 C20 4.242 . S
C338 C147 3.340 . S
C833 C316 1.310 . S
C119 C418 2.264 . S
C288 C800 1.928 . S
C148 C520 2.019 . S
C698 C315 1.704 . S
C120 C602 1.234 . S
C287 C858 3.288 . S
C188 C362 3.513 . S
C177 C658 3.179 . S
C258 C562 2.427 . S
C247 C760 0.621 . S
C882 C272 3.345 . S
C216 C442 2.646 . S
C458 C261 3.095 . S
C399 C205 0.399 . S
C76 C909 3.641 . S
C840 C93 3.363 . S
C105 C949 2.386 . S
C62 C793 1.642 . S
C49 C673 1.531 . S
C709 C9 2.917 . S
C759 C22 3.423 . S
C869 C36 4.682 . S
C919 C260 3.727 . S
C189 C842 1.245 . S
C959 C204 2.995 . S
C789 C217 1.595 . S
C669 C259 1.757 . S
C190 C719 2.390 . S
C753 C203 0.996 . S
C218 C879 3.756 . S
C913 C314 3.433 . S
C135 C519 2.938 . S
C553 C146 2.568 . S
C589 C163 1.032 . S
C873 C300 3.142 . S
C286 C953 2.701 . S
C479 C149 3.065 . S
C378 C121 1.385 . S
C91 C920 4.234 . S
C389 C77 2.966 . S
C64 C960 2.737 . S
C104 C482 2.134 . S
C34 C682 2.011 . S
C560 C23 2.675 . S
C7 C738 3.005 . S
C48 C640 4.278 . S
C898 C329 3.151 . S
C162 C393 1.607 . S
C938 C301 2.078 1_454 S
C134 C480 1.890 . S
C330 C680 2.002 . S
C538 C161 1.608 . S
C302 C762 1.126 . S
C618 C133 3.100 . S
C922 C244 3.334 . S
C498 C219 3.334 1_545 S
C230 C722 2.522 . S
C600 C191 0.813 . S
C202 C642 3.261 . S
C174 C962 2.554 . S
C778 C233 3.273 . S
C839 C275 0.531 . S
