# Generated by pormake.
# Topology gar, (4,6)-cn, num edge types: 1
# Building blocks:
#     Node 0, Type 0, BuildingBlock: GALJAG_clean_sbu_0, # of connection points: 4
#     Node 1, Type 0, BuildingBlock: GALJAG_clean_sbu_0, # of connection points: 4
#     Node 2, Type 0, BuildingBlock: GALJAG_clean_sbu_0, # of connection points: 4
#     Node 3, Type 0, BuildingBlock: GALJAG_clean_sbu_0, # of connection points: 4
#     Node 4, Type 0, BuildingBlock: GALJAG_clean_sbu_0, # of connection points: 4
#     Node 5, Type 0, BuildingBlock: GALJAG_clean_sbu_0, # of connection points: 4
#     Node 6, Type 0, BuildingBlock: GALJAG_clean_sbu_0, # of connection points: 4
#     Node 7, Type 0, BuildingBlock: GALJAG_clean_sbu_0, # of connection points: 4
#     Node 8, Type 0, BuildingBlock: GALJAG_clean_sbu_0, # of connection points: 4
#     Node 9, Type 0, BuildingBlock: GALJAG_clean_sbu_0, # of connection points: 4
#     Node 10, Type 0, BuildingBlock: GALJAG_clean_sbu_0, # of connection points: 4
#     Node 11, Type 0, BuildingBlock: GALJAG_clean_sbu_0, # of connection points: 4
#     Node 12, Type 0, BuildingBlock: GALJAG_clean_sbu_0, # of connection points: 4
#     Node 13, Type 0, BuildingBlock: GALJAG_clean_sbu_0, # of connection points: 4
#     Node 14, Type 0, BuildingBlock: GALJAG_clean_sbu_0, # of connection points: 4
#     Node 15, Type 0, BuildingBlock: GALJAG_clean_sbu_0, # of connection points: 4
#     Node 16, Type 0, BuildingBlock: GALJAG_clean_sbu_0, # of connection points: 4
#     Node 17, Type 0, BuildingBlock: GALJAG_clean_sbu_0, # of connection points: 4
#     Node 18, Type 0, BuildingBlock: GALJAG_clean_sbu_0, # of connection points: 4
#     Node 19, Type 0, BuildingBlock: GALJAG_clean_sbu_0, # of connection points: 4
#     Node 20, Type 0, BuildingBlock: GALJAG_clean_sbu_0, # of connection points: 4
#     Node 21, Type 0, BuildingBlock: GALJAG_clean_sbu_0, # of connection points: 4
#     Node 22, Type 0, BuildingBlock: GALJAG_clean_sbu_0, # of connection points: 4
#     Node 23, Type 0, BuildingBlock: GALJAG_clean_sbu_0, # of connection points: 4
#     Node 24, Type 1, BuildingBlock: BETDEL_clean_sbu_0, # of connection points: 6
#     Node 25, Type 1, BuildingBlock: BETDEL_clean_sbu_0, # of connection points: 6
#     Node 26, Type 1, BuildingBlock: BETDEL_clean_sbu_0, # of connection points: 6
#     Node 27, Type 1, BuildingBlock: BETDEL_clean_sbu_0, # of connection points: 6
#     Node 28, Type 1, BuildingBlock: BETDEL_clean_sbu_0, # of connection points: 6
#     Node 29, Type 1, BuildingBlock: BETDEL_clean_sbu_0, # of connection points: 6
#     Node 30, Type 1, BuildingBlock: BETDEL_clean_sbu_0, # of connection points: 6
#     Node 31, Type 1, BuildingBlock: BETDEL_clean_sbu_0, # of connection points: 6
#     Node 32, Type 1, BuildingBlock: BETDEL_clean_sbu_0, # of connection points: 6
#     Node 33, Type 1, BuildingBlock: BETDEL_clean_sbu_0, # of connection points: 6
#     Node 34, Type 1, BuildingBlock: BETDEL_clean_sbu_0, # of connection points: 6
#     Node 35, Type 1, BuildingBlock: BETDEL_clean_sbu_0, # of connection points: 6
#     Node 36, Type 1, BuildingBlock: BETDEL_clean_sbu_0, # of connection points: 6
#     Node 37, Type 1, BuildingBlock: BETDEL_clean_sbu_0, # of connection points: 6
#     Node 38, Type 1, BuildingBlock: BETDEL_clean_sbu_0, # of connection points: 6
#     Node 39, Type 1, BuildingBlock: BETDEL_clean_sbu_0, # of connection points: 6
#     Edge 40, Type (0, 1), BuildingBlock: AJUNOK_clean_linker_0, # of connection points: 2
#     Edge 41, Type (0, 1), BuildingBlock: AJUNOK_clean_linker_0, # of connection points: 2
#     Edge 42, Type (0, 1), BuildingBlock: AJUNOK_clean_linker_0, # of connection points: 2
#     Edge 43, Type (0, 1), BuildingBlock: AJUNOK_clean_linker_0, # of connection points: 2
#     Edge 44, Type (0, 1), BuildingBlock: AJUNOK_clean_linker_0, # of connection points: 2
#     Edge 45, Type (0, 1), BuildingBlock: AJUNOK_clean_linker_0, # of connection points: 2
#     Edge 46, Type (0, 1), BuildingBlock: AJUNOK_clean_linker_0, # of connection points: 2
#     Edge 47, Type (0, 1), BuildingBlock: AJUNOK_clean_linker_0, # of connection points: 2
#     Edge 48, Type (0, 1), BuildingBlock: AJUNOK_clean_linker_0, # of connection points: 2
#     Edge 49, Type (0, 1), BuildingBlock: AJUNOK_clean_linker_0, # of connection points: 2
#     Edge 50, Type (0, 1), BuildingBlock: AJUNOK_clean_linker_0, # of connection points: 2
#     Edge 51, Type (0, 1), BuildingBlock: AJUNOK_clean_linker_0, # of connection points: 2
#     Edge 52, Type (0, 1), BuildingBlock: AJUNOK_clean_linker_0, # of connection points: 2
#     Edge 53, Type (0, 1), BuildingBlock: AJUNOK_clean_linker_0, # of connection points: 2
#     Edge 54, Type (0, 1), BuildingBlock: AJUNOK_clean_linker_0, # of connection points: 2
#     Edge 55, Type (0, 1), BuildingBlock: AJUNOK_clean_linker_0, # of connection points: 2
#     Edge 56, Type (0, 1), BuildingBlock: AJUNOK_clean_linker_0, # of connection points: 2
#     Edge 57, Type (0, 1), BuildingBlock: AJUNOK_clean_linker_0, # of connection points: 2
#     Edge 58, Type (0, 1), BuildingBlock: AJUNOK_clean_linker_0, # of connection points: 2
#     Edge 59, Type (0, 1), BuildingBlock: AJUNOK_clean_linker_0, # of connection points: 2
#     Edge 60, Type (0, 1), BuildingBlock: AJUNOK_clean_linker_0, # of connection points: 2
#     Edge 61, Type (0, 1), BuildingBlock: AJUNOK_clean_linker_0, # of connection points: 2
#     Edge 62, Type (0, 1), BuildingBlock: AJUNOK_clean_linker_0, # of connection points: 2
#     Edge 63, Type (0, 1), BuildingBlock: AJUNOK_clean_linker_0, # of connection points: 2
#     Edge 64, Type (0, 1), BuildingBlock: AJUNOK_clean_linker_0, # of connection points: 2
#     Edge 65, Type (0, 1), BuildingBlock: AJUNOK_clean_linker_0, # of connection points: 2
#     Edge 66, Type (0, 1), BuildingBlock: AJUNOK_clean_linker_0, # of connection points: 2
#     Edge 67, Type (0, 1), BuildingBlock: AJUNOK_clean_linker_0, # of connection points: 2
#     Edge 68, Type (0, 1), BuildingBlock: AJUNOK_clean_linker_0, # of connection points: 2
#     Edge 69, Type (0, 1), BuildingBlock: AJUNOK_clean_linker_0, # of connection points: 2
#     Edge 70, Type (0, 1), BuildingBlock: AJUNOK_clean_linker_0, # of connection points: 2
#     Edge 71, Type (0, 1), BuildingBlock: AJUNOK_clean_linker_0, # of connection points: 2
#     Edge 72, Type (0, 1), BuildingBlock: AJUNOK_clean_linker_0, # of connection points: 2
#     Edge 73, Type (0, 1), BuildingBlock: AJUNOK_clean_linker_0, # of connection points: 2
#     Edge 74, Type (0, 1), BuildingBlock: AJUNOK_clean_linker_0, # of connection points: 2
#     Edge 75, Type (0, 1), BuildingBlock: AJUNOK_clean_linker_0, # of connection points: 2
#     Edge 76, Type (0, 1), BuildingBlock: AJUNOK_clean_linker_0, # of connection points: 2
#     Edge 77, Type (0, 1), BuildingBlock: AJUNOK_clean_linker_0, # of connection points: 2
#     Edge 78, Type (0, 1), BuildingBlock: AJUNOK_clean_linker_0, # of connection points: 2
#     Edge 79, Type (0, 1), BuildingBlock: AJUNOK_clean_linker_0, # of connection points: 2
#     Edge 80, Type (0, 1), BuildingBlock: AJUNOK_clean_linker_0, # of connection points: 2
#     Edge 81, Type (0, 1), BuildingBlock: AJUNOK_clean_linker_0, # of connection points: 2
#     Edge 82, Type (0, 1), BuildingBlock: AJUNOK_clean_linker_0, # of connection points: 2
#     Edge 83, Type (0, 1), BuildingBlock: AJUNOK_clean_linker_0, # of connection points: 2
#     Edge 84, Type (0, 1), BuildingBlock: AJUNOK_clean_linker_0, # of connection points: 2
#     Edge 85, Type (0, 1), BuildingBlock: AJUNOK_clean_linker_0, # of connection points: 2
#     Edge 86, Type (0, 1), BuildingBlock: AJUNOK_clean_linker_0, # of connection points: 2
#     Edge 87, Type (0, 1), BuildingBlock: AJUNOK_clean_linker_0, # of connection points: 2
#     Edge 88, Type (0, 1), BuildingBlock: AJUNOK_clean_linker_0, # of connection points: 2
#     Edge 89, Type (0, 1), BuildingBlock: AJUNOK_clean_linker_0, # of connection points: 2
#     Edge 90, Type (0, 1), BuildingBlock: AJUNOK_clean_linker_0, # of connection points: 2
#     Edge 91, Type (0, 1), BuildingBlock: AJUNOK_clean_linker_0, # of connection points: 2
#     Edge 92, Type (0, 1), BuildingBlock: AJUNOK_clean_linker_0, # of connection points: 2
#     Edge 93, Type (0, 1), BuildingBlock: AJUNOK_clean_linker_0, # of connection points: 2
#     Edge 94, Type (0, 1), BuildingBlock: AJUNOK_clean_linker_0, # of connection points: 2
#     Edge 95, Type (0, 1), BuildingBlock: AJUNOK_clean_linker_0, # of connection points: 2
#     Edge 96, Type (0, 1), BuildingBlock: AJUNOK_clean_linker_0, # of connection points: 2
#     Edge 97, Type (0, 1), BuildingBlock: AJUNOK_clean_linker_0, # of connection points: 2
#     Edge 98, Type (0, 1), BuildingBlock: AJUNOK_clean_linker_0, # of connection points: 2
#     Edge 99, Type (0, 1), BuildingBlock: AJUNOK_clean_linker_0, # of connection points: 2
#     Edge 100, Type (0, 1), BuildingBlock: AJUNOK_clean_linker_0, # of connection points: 2
#     Edge 101, Type (0, 1), BuildingBlock: AJUNOK_clean_linker_0, # of connection points: 2
#     Edge 102, Type (0, 1), BuildingBlock: AJUNOK_clean_linker_0, # of connection points: 2
#     Edge 103, Type (0, 1), BuildingBlock: AJUNOK_clean_linker_0, # of connection points: 2
#     Edge 104, Type (0, 1), BuildingBlock: AJUNOK_clean_linker_0, # of connection points: 2
#     Edge 105, Type (0, 1), BuildingBlock: AJUNOK_clean_linker_0, # of connection points: 2
#     Edge 106, Type (0, 1), BuildingBlock: AJUNOK_clean_linker_0, # of connection points: 2
#     Edge 107, Type (0, 1), BuildingBlock: AJUNOK_clean_linker_0, # of connection points: 2
#     Edge 108, Type (0, 1), BuildingBlock: AJUNOK_clean_linker_0, # of connection points: 2
#     Edge 109, Type (0, 1), BuildingBlock: AJUNOK_clean_linker_0, # of connection points: 2
#     Edge 110, Type (0, 1), BuildingBlock: AJUNOK_clean_linker_0, # of connection points: 2
#     Edge 111, Type (0, 1), BuildingBlock: AJUNOK_clean_linker_0, # of connection points: 2
#     Edge 112, Type (0, 1), BuildingBlock: AJUNOK_clean_linker_0, # of connection points: 2
#     Edge 113, Type (0, 1), BuildingBlock: AJUNOK_clean_linker_0, # of connection points: 2
#     Edge 114, Type (0, 1), BuildingBlock: AJUNOK_clean_linker_0, # of connection points: 2
#     Edge 115, Type (0, 1), BuildingBlock: AJUNOK_clean_linker_0, # of connection points: 2
#     Edge 116, Type (0, 1), BuildingBlock: AJUNOK_clean_linker_0, # of connection points: 2
#     Edge 117, Type (0, 1), BuildingBlock: AJUNOK_clean_linker_0, # of connection points: 2
#     Edge 118, Type (0, 1), BuildingBlock: AJUNOK_clean_linker_0, # of connection points: 2
#     Edge 119, Type (0, 1), BuildingBlock: AJUNOK_clean_linker_0, # of connection points: 2
#     Edge 120, Type (0, 1), BuildingBlock: AJUNOK_clean_linker_0, # of connection points: 2
#     Edge 121, Type (0, 1), BuildingBlock: AJUNOK_clean_linker_0, # of connection points: 2
#     Edge 122, Type (0, 1), BuildingBlock: AJUNOK_clean_linker_0, # of connection points: 2
#     Edge 123, Type (0, 1), BuildingBlock: AJUNOK_clean_linker_0, # of connection points: 2
#     Edge 124, Type (0, 1), BuildingBlock: AJUNOK_clean_linker_0, # of connection points: 2
#     Edge 125, Type (0, 1), BuildingBlock: AJUNOK_clean_linker_0, # of connection points: 2
#     Edge 126, Type (0, 1), BuildingBlock: AJUNOK_clean_linker_0, # of connection points: 2
#     Edge 127, Type (0, 1), BuildingBlock: AJUNOK_clean_linker_0, # of connection points: 2
#     Edge 128, Type (0, 1), BuildingBlock: AJUNOK_clean_linker_0, # of connection points: 2
#     Edge 129, Type (0, 1), BuildingBlock: AJUNOK_clean_linker_0, # of connection points: 2
#     Edge 130, Type (0, 1), BuildingBlock: AJUNOK_clean_linker_0, # of connection points: 2
#     Edge 131, Type (0, 1), BuildingBlock: AJUNOK_clean_linker_0, # of connection points: 2
#     Edge 132, Type (0, 1), BuildingBlock: AJUNOK_clean_linker_0, # of connection points: 2
#     Edge 133, Type (0, 1), BuildingBlock: AJUNOK_clean_linker_0, # of connection points: 2
#     Edge 134, Type (0, 1), BuildingBlock: AJUNOK_clean_linker_0, # of connection points: 2
#     Edge 135, Type (0, 1), BuildingBlock: AJUNOK_clean_linker_0, # of connection points: 2
# Relax obj value: 0.170
# Max RMSD: 0.278
# Mean RMSD: 0.168
data_MOF--net-gar--node1-GALJAG_clean_sbu_0--node2-BETDEL_clean_sbu_0--edge1-AJUNOK_clean_linker_0
_symmetry_space_group_name_H-M    P1
_symmetry_Int_Tables_number       1
_symmetry_cell_setting            triclinic
loop_
_symmetry_equiv_pos_as_xyz
'x, y, z'
_cell_length_a     41.783289
_cell_length_b     39.149702
_cell_length_c     40.546664
_cell_angle_alpha  95.232672
_cell_angle_beta   91.87661
_cell_angle_gamma 100.14666
loop_
_atom_site_label
_atom_site_type_symbol
_atom_site_fract_x
_atom_site_fract_y
_atom_site_fract_z
_atom_type_partial_charge
In0 In 0.04928 0.28 0.40619 0.0
O1 O 0.07436 0.25252 0.3642 0.0
O2 O 0.09934 0.30088 0.3872 0.0
C3 C 0.99118 0.284 0.37661 0.0
C4 C 0.04243 0.22494 0.44347 0.0
C5 C 0.0561 0.34322 0.4408 0.0
O6 O 0.01627 0.28172 0.36059 0.0
O7 O 0.99502 0.2824 0.40739 0.0
O8 O 0.06253 0.31699 0.45392 0.0
O9 O 0.04803 0.33772 0.41034 0.0
C10 C 0.09937 0.27598 0.36522 0.0
O11 O 0.06454 0.25144 0.44976 0.0
O12 O 0.02436 0.22608 0.41821 0.0
In13 In 0.00876 0.77462 0.63736 0.0
O14 O 0.03335 0.83021 0.63117 0.0
O15 O 0.99471 0.80713 0.59652 0.0
C16 C 1.00066 0.71503 0.59663 0.0
C17 C 0.06452 0.76381 0.66723 0.0
C18 C 0.95805 0.78068 0.67599 0.0
O19 O 0.00886 0.74474 0.58659 0.0
O20 O 0.99521 0.71546 0.62701 0.0
O21 O 0.98577 0.79945 0.68219 0.0
O22 O 0.95594 0.75965 0.65021 0.0
C23 C 0.01646 0.83337 0.6056 0.0
O24 O 0.0635 0.77643 0.63982 0.0
O25 O 0.03751 0.7581 0.68058 0.0
In26 In 0.5528 0.78132 0.91043 0.0
O27 O 0.57489 0.7794 0.85941 0.0
O28 O 0.60316 0.76803 0.89991 0.0
C29 C 0.49808 0.79055 0.8777 0.0
C30 C 0.54158 0.72373 0.94364 0.0
C31 C 0.56045 0.84029 0.95242 0.0
O32 O 0.52467 0.81148 0.87746 0.0
O33 O 0.49946 0.76442 0.89339 0.0
O34 O 0.53948 0.81361 0.95554 0.0
O35 O 0.57908 0.83672 0.92902 0.0
C36 C 0.60123 0.7715 0.86936 0.0
O37 O 0.56094 0.75115 0.95503 0.0
O38 O 0.52891 0.72514 0.91516 0.0
In39 In 0.50711 0.27066 0.1297 0.0
O40 O 0.50277 0.23936 0.07921 0.0
O41 O 0.49507 0.21118 0.12136 0.0
C42 C 0.51521 0.32894 0.09729 0.0
C43 C 0.45556 0.27742 0.1675 0.0
C44 C 0.5645 0.25992 0.15615 0.0
O45 O 0.49574 0.30137 0.08684 0.0
O46 O 0.53004 0.32743 0.12464 0.0
O47 O 0.53844 0.25462 0.17131 0.0
O48 O 0.56169 0.27214 0.12874 0.0
C49 C 0.497 0.20995 0.09031 0.0
O50 O 0.4841 0.29292 0.1763 0.0
O51 O 0.45345 0.25924 0.13998 0.0
In52 In 0.05406 0.79741 0.15442 0.0
O53 O 0.06791 0.75934 0.11292 0.0
O54 O 0.03222 0.73936 0.1453 0.0
C55 C 0.05086 0.85164 0.11799 0.0
C56 C 1.00131 0.79943 0.19114 0.0
C57 C 0.1116 0.80573 0.18998 0.0
O58 O 0.03804 0.82063 0.10799 0.0
O59 O 0.06634 0.85498 0.14574 0.0
O60 O 0.08566 0.81059 0.20319 0.0
O61 O 0.10862 0.7986 0.15899 0.0
C62 C 0.04902 0.73301 0.121 0.0
O63 O 0.02471 0.7855 0.20043 0.0
O64 O 1.00434 0.8112 0.1633 0.0
In65 In 0.49998 0.75291 0.38759 0.0
O66 O 0.53261 0.73086 0.34992 0.0
O67 O 0.54266 0.78521 0.36463 0.0
C68 C 0.44395 0.73908 0.3497 0.0
C69 C 0.50898 0.703 0.42749 0.0
C70 C 0.49832 0.81431 0.42389 0.0
O71 O 0.4713 0.73751 0.33796 0.0
O72 O 0.44471 0.74564 0.38083 0.0
O73 O 0.51126 0.79061 0.43491 0.0
O74 O 0.48668 0.80729 0.39454 0.0
C75 C 0.55068 0.75984 0.34742 0.0
O76 O 0.4816 0.70386 0.41375 0.0
O77 O 0.53125 0.72735 0.42137 0.0
In78 In 0.55548 0.2845 0.65188 0.0
O79 O 0.53159 0.23899 0.61501 0.0
O80 O 0.58295 0.24722 0.62206 0.0
C81 C 0.55075 0.3358 0.6124 0.0
C82 C 0.50527 0.28441 0.69301 0.0
C83 C 0.60848 0.28537 0.69239 0.0
O84 O 0.53229 0.30648 0.6087 0.0
O85 O 0.57202 0.33926 0.63591 0.0
O86 O 0.58164 0.26524 0.69463 0.0
O87 O 0.60833 0.30608 0.67025 0.0
C88 C 0.55774 0.22922 0.6073 0.0
O89 O 0.52454 0.31189 0.68804 0.0
O90 O 0.51192 0.25709 0.67798 0.0
In91 In 1.00331 0.25936 0.87889 0.0
O92 O 0.98474 0.21042 0.90497 0.0
O93 O 0.03091 0.24039 0.92095 0.0
C94 C 1.00294 0.31869 0.91901 0.0
C95 C 0.0525 0.25251 0.83811 0.0
C96 C 0.95179 0.2543 0.83484 0.0
O97 O 0.02843 0.3104 0.90748 0.0
O98 O 0.97736 0.29694 0.9105 0.0
O99 O 0.97762 0.27642 0.8345 0.0
O100 O 0.952 0.23386 0.85721 0.0
C101 C 0.00969 0.21396 0.92437 0.0
O102 O 0.03525 0.22673 0.84929 0.0
O103 O 0.04434 0.28142 0.84668 0.0
In104 In 0.42087 0.04491 0.29591 0.0
O105 O 0.4519 0.07404 0.25898 0.0
O106 O 0.45147 0.0196 0.25945 0.0
C107 C 0.46005 0.06483 0.35051 0.0
C108 C 0.37431 0.08361 0.29088 0.0
C109 C 0.38664 0.9799 0.2954 0.0
O110 O 0.46896 0.07134 0.32204 0.0
O111 O 0.43076 0.04999 0.35154 0.0
O112 O 0.37805 1.00252 0.27863 0.0
O113 O 0.41329 0.98967 0.31191 0.0
C114 C 0.46258 0.04752 0.24716 0.0
O115 O 0.38465 0.06801 0.26601 0.0
O116 O 0.38889 0.08135 0.31812 0.0
In117 In 0.27541 0.15781 0.50077 0.0
O118 O 0.26209 0.20066 0.53853 0.0
O119 O 0.28858 0.16407 0.55634 0.0
C120 C 0.28407 0.19583 0.44659 0.0
C121 C 0.32715 0.12409 0.50321 0.0
C122 C 0.21591 0.11578 0.50094 0.0
O123 O 0.29937 0.20518 0.47411 0.0
O124 O 0.26411 0.16768 0.4464 0.0
O125 O 0.24089 0.10462 0.49118 0.0
O126 O 0.22086 0.14805 0.50999 0.0
C127 C 0.27555 0.19036 0.56324 0.0
O128 O 0.2999 0.10964 0.48957 0.0
O129 O 0.32835 0.15545 0.51439 0.0
In130 In 0.16406 0.01884 0.8051 0.0
O131 O 0.12142 0.02677 0.77107 0.0
O132 O 0.16533 0.01964 0.74887 0.0
C133 C 0.12637 0.01216 0.85911 0.0
C134 C 0.19484 0.96261 0.79651 0.0
C135 C 0.19928 0.08439 0.80854 0.0
O136 O 0.11865 0.99393 0.83181 0.0
O137 O 0.15338 0.03246 0.85946 0.0
O138 O 0.212 0.05879 0.81565 0.0
O139 O 0.16914 0.07701 0.80155 0.0
C140 C 0.13687 0.02571 0.74482 0.0
O141 O 0.20755 0.99054 0.81372 0.0
O142 O 0.16653 0.96282 0.78485 0.0
In143 In 0.27048 0.9171 0.00555 0.0
O144 O 0.26615 0.86527 0.02792 0.0
O145 O 0.27884 0.91214 0.06004 0.0
C146 C 0.2562 0.88036 0.94626 0.0
C147 C 0.227 0.96015 0.01516 0.0
C148 C 0.33442 0.94363 0.00756 0.0
O149 O 0.24135 0.87171 0.97167 0.0
O150 O 0.27586 0.90897 0.95034 0.0
O151 O 0.31389 0.96102 0.0191 0.0
O152 O 0.32259 0.91325 0.99504 0.0
C153 C 0.27358 0.87927 0.05703 0.0
O154 O 0.25043 0.96655 0.99649 0.0
O155 O 0.22474 0.93142 0.02735 0.0
In156 In 0.28296 0.39391 0.03733 0.0
O157 O 0.26989 0.34207 0.06234 0.0
O158 O 0.29024 0.38756 0.09304 0.0
C159 C 0.28395 0.36106 0.97433 0.0
C160 C 0.23385 0.43204 0.03474 0.0
C161 C 0.34245 0.43557 0.04565 0.0
O162 O 0.25839 0.35882 0.99035 0.0
O163 O 0.30857 0.37849 0.99041 0.0
O164 O 0.3164 0.44725 0.05023 0.0
O165 O 0.33835 0.40297 0.03827 0.0
C166 C 0.27908 0.35535 0.09141 0.0
O167 O 0.26077 0.4406 0.02184 0.0
O168 O 0.23172 0.40439 0.04885 0.0
In169 In 0.79955 0.16707 0.04023 0.0
O170 O 0.81804 0.11814 0.05432 0.0
O171 O 0.83823 0.14253 0.01331 0.0
C172 C 0.73974 0.12785 0.03738 0.0
C173 C 0.80964 0.21603 0.09316 0.0
C174 C 0.80205 0.20698 0.98971 0.0
O175 O 0.75441 0.14057 0.06465 0.0
O176 O 0.75585 0.13384 0.01219 0.0
O177 O 0.8277 0.20166 1.00428 0.0
O178 O 0.77585 0.19211 1.00063 0.0
C179 C 0.83708 0.11741 0.03086 0.0
O180 O 0.78759 0.21414 0.07095 0.0
O181 O 0.8273 0.19309 0.08878 0.0
In182 In 0.13984 0.50084 0.24052 0.0
O183 O 0.18201 0.47352 0.22853 0.0
O184 O 0.16242 0.46885 0.27586 0.0
C185 C 0.17588 0.56455 0.23898 0.0
C186 C 0.10496 0.4777 0.18361 0.0
C187 C 0.09804 0.51016 0.28728 0.0
O188 O 0.18067 0.54425 0.26023 0.0
O189 O 0.15192 0.55319 0.21884 0.0
O190 O 0.11342 0.535 0.27311 0.0
O191 O 0.10337 0.4802 0.27725 0.0
C192 C 0.18446 0.46307 0.25678 0.0
O193 O 0.09214 0.47758 0.21125 0.0
O194 O 0.13549 0.48618 0.18527 0.0
In195 In 0.78752 0.89027 0.54416 0.0
O196 O 0.79575 0.84391 0.57359 0.0
O197 O 0.77308 0.88228 0.59812 0.0
C198 C 0.78447 0.85872 0.4806 0.0
C199 C 0.73598 0.92395 0.53852 0.0
C200 C 0.84841 0.92951 0.55114 0.0
O201 O 0.77159 0.84315 0.50422 0.0
O202 O 0.79823 0.8897 0.48906 0.0
O203 O 0.82436 0.93935 0.56473 0.0
O204 O 0.84205 0.89947 0.53577 0.0
C205 C 0.78316 0.85399 0.59981 0.0
O206 O 0.76514 0.9397 0.5403 0.0
O207 O 0.7329 0.89139 0.53933 0.0
In208 In 0.89547 0.03432 0.24258 0.0
O209 O 0.94615 0.04711 0.22108 0.0
O210 O 0.90541 0.04275 0.18771 0.0
C211 C 0.92776 0.02598 0.29988 0.0
C212 C 0.8622 0.08857 0.24814 0.0
C213 C 0.85347 0.97228 0.24013 0.0
O214 O 0.92907 0.00726 0.27313 0.0
O215 O 0.91114 0.04971 0.29746 0.0
O216 O 0.8501 0.99928 0.25801 0.0
O217 O 0.87757 0.97666 0.22204 0.0
C218 C 0.93602 0.04835 0.19168 0.0
O219 O 0.85192 0.06051 0.23004 0.0
O220 O 0.88969 0.08964 0.26261 0.0
In221 In 0.29522 0.64644 0.54073 0.0
O222 O 0.31426 0.59932 0.55828 0.0
O223 O 0.34235 0.62975 0.52526 0.0
C224 C 0.23537 0.6072 0.53626 0.0
C225 C 0.2987 0.69425 0.59328 0.0
C226 C 0.29661 0.67935 0.48547 0.0
O227 O 0.25349 0.61119 0.56232 0.0
O228 O 0.24786 0.62224 0.5124 0.0
O229 O 0.2973 0.69567 0.5139 0.0
O230 O 0.29585 0.64701 0.48537 0.0
C231 C 0.33876 0.60305 0.54082 0.0
O232 O 0.32424 0.68725 0.58042 0.0
O233 O 0.27248 0.67781 0.57928 0.0
In234 In 0.39507 0.53461 0.74036 0.0
O235 O 0.35355 0.56508 0.73141 0.0
O236 O 0.39202 0.58896 0.76569 0.0
C237 C 0.35631 0.47036 0.73063 0.0
C238 C 0.43535 0.54306 0.68799 0.0
C239 C 0.422 0.52915 0.80121 0.0
O240 O 0.34532 0.4984 0.73213 0.0
O241 O 0.38692 0.47471 0.73178 0.0
O242 O 0.4381 0.54397 0.779 0.0
O243 O 0.39224 0.51875 0.79321 0.0
C244 C 0.3649 0.59095 0.75194 0.0
O245 O 0.44141 0.52817 0.71307 0.0
O246 O 0.40863 0.55382 0.68885 0.0
In247 In 0.63309 0.9954 0.73912 0.0
O248 O 0.68073 0.9771 0.72901 0.0
O249 O 0.65251 0.95556 0.76725 0.0
C250 C 0.66689 0.06076 0.74212 0.0
C251 C 0.59882 0.9744 0.6814 0.0
C252 C 0.59326 0.9995 0.78878 0.0
O253 O 0.67147 0.03967 0.76269 0.0
O254 O 0.64451 0.04913 0.72022 0.0
O255 O 0.60016 0.97069 0.77726 0.0
O256 O 0.6059 0.02558 0.77453 0.0
C257 C 0.67874 0.95794 0.75243 0.0
O258 O 0.58532 0.97865 0.70834 0.0
O259 O 0.62933 0.97797 0.68414 0.0
In260 In 0.77273 0.65823 0.00585 0.0
O261 O 0.79221 0.60804 0.01387 0.0
O262 O 0.82518 0.65018 0.99801 0.0
C263 C 0.71241 0.61775 1.00078 0.0
C264 C 0.77541 0.69016 0.06934 0.0
C265 C 0.78137 0.69769 0.95266 0.0
O266 O 0.73679 0.60774 0.98813 0.0
O267 O 0.71833 0.6484 0.01495 0.0
O268 O 0.79325 0.70848 0.98153 0.0
O269 O 0.76469 0.66737 0.9507 0.0
C270 C 0.82088 0.61937 0.00615 0.0
O271 O 0.75709 0.69704 0.04643 0.0
O272 O 0.79302 0.6685 0.05987 0.0
In273 In 0.92031 0.5429 0.79169 0.0
O274 O 0.88145 0.57236 0.81074 0.0
O275 O 0.88721 0.56734 0.7589 0.0
C276 C 0.88952 0.47628 0.78194 0.0
C277 C 0.96899 0.54716 0.75036 0.0
C278 C 0.94943 0.5592 0.85215 0.0
O279 O 0.90832 0.48769 0.80697 0.0
O280 O 0.88688 0.49831 0.76175 0.0
O281 O 0.96192 0.57242 0.82724 0.0
O282 O 0.92183 0.54021 0.84632 0.0
C283 C 0.87113 0.57742 0.78241 0.0
O284 O 0.95636 0.57337 0.75937 0.0
O285 O 0.95756 0.51965 0.7631 0.0
In286 In 0.76791 0.4032 0.50274 0.0
O287 O 0.73773 0.36197 0.53106 0.0
O288 O 0.78937 0.37093 0.53802 0.0
C289 C 0.75749 0.36012 0.44609 0.0
C290 C 0.73103 0.45178 0.5197 0.0
C291 C 0.82697 0.44361 0.50326 0.0
O292 O 0.78251 0.36336 0.46503 0.0
O293 O 0.7372 0.37892 0.45562 0.0
O294 O 0.80968 0.43342 0.47697 0.0
O295 O 0.81403 0.43418 0.52936 0.0
C296 C 0.76238 0.35399 0.54526 0.0
O297 O 0.74116 0.44741 0.4909 0.0
O298 O 0.7388 0.43113 0.53932 0.0
In299 In 0.66221 0.51893 0.30239 0.0
O300 O 0.70076 0.48575 0.31511 0.0
O301 O 0.66365 0.46315 0.27907 0.0
C302 C 0.70187 0.58293 0.30918 0.0
C303 C 0.63448 0.52765 0.24267 0.0
C304 C 0.62269 0.50926 0.35478 0.0
O305 O 0.71219 0.55462 0.30456 0.0
O306 O 0.67154 0.57909 0.312 0.0
O307 O 0.6122 0.50581 0.32496 0.0
O308 O 0.65329 0.51727 0.3585 0.0
C309 C 0.68931 0.45978 0.2948 0.0
O310 O 0.6191 0.52656 0.26893 0.0
O311 O 0.6635 0.52308 0.2463 0.0
Dy312 Dy 0.99324 0.02185 0.01349 0.0
C313 C 0.13013 0.04674 0.03491 0.0
C314 C 0.928 0.02341 0.01062 0.0
Dy315 Dy 0.06558 0.05019 0.03652 0.0
O316 O 0.94516 0.02028 0.03707 0.0
O317 O 0.94625 0.02303 0.98526 0.0
O318 O 0.00939 0.99143 0.96865 0.0
O319 O 0.03785 0.03842 0.98948 0.0
C320 C 0.03702 0.01302 0.9678 0.0
C321 C 0.02211 0.06144 0.08146 0.0
O322 O 0.05637 0.09754 0.01391 0.0
O323 O 1.00011 0.08013 0.01007 0.0
O324 O 0.11576 0.05658 0.06127 0.0
O325 O 0.1094 0.04032 0.00979 0.0
O326 O 0.05089 0.08111 0.08147 0.0
O327 O 0.02068 0.03515 0.06063 0.0
O328 O 1.00219 0.974 0.03617 0.0
O329 O 0.0581 0.99351 0.04551 0.0
C330 C 0.02675 0.10363 0.00694 0.0
C331 C 0.03155 0.96942 0.04635 0.0
Dy332 Dy 0.28616 0.7773 0.23116 0.0
C333 C 0.27993 0.74185 0.36362 0.0
C334 C 0.28287 0.80583 0.17306 0.0
Dy335 Dy 0.27363 0.76922 0.30523 0.0
O336 O 0.2932 0.77672 0.17617 0.0
O337 O 0.27435 0.81866 0.2013 0.0
O338 O 0.33049 0.75152 0.23371 0.0
O339 O 0.31603 0.7784 0.27582 0.0
C340 C 0.33466 0.75824 0.26577 0.0
C341 C 0.22478 0.78768 0.26996 0.0
O342 O 0.30528 0.82175 0.31057 0.0
O343 O 0.29795 0.83224 0.25563 0.0
O344 O 0.28898 0.72983 0.33532 0.0
O345 O 0.2669 0.76935 0.36031 0.0
O346 O 0.22911 0.79506 0.30201 0.0
O347 O 0.24372 0.76768 0.2604 0.0
O348 O 0.25579 0.72392 0.22558 0.0
O349 O 0.26116 0.71434 0.28103 0.0
C350 C 0.30752 0.84306 0.28688 0.0
C351 C 0.25273 0.70296 0.24959 0.0
Dy352 Dy 0.5702 0.02227 0.51154 0.0
C353 C 0.43714 0.05172 0.51781 0.0
C354 C 0.62493 0.99468 0.52376 0.0
Dy355 Dy 0.49481 0.0269 0.51771 0.0
O356 O 0.62464 0.02302 0.50915 0.0
O357 O 0.59573 0.98247 0.53203 0.0
O358 O 0.57358 0.04824 0.46392 0.0
O359 O 0.52875 0.02212 0.47866 0.0
C360 C 0.54199 0.04264 0.45892 0.0
C361 C 0.52561 0.00712 0.56969 0.0
O362 O 0.48885 0.97285 0.49217 0.0
O363 O 0.54353 0.96732 0.49811 0.0
O364 O 0.46227 0.06285 0.53801 0.0
O365 O 0.44295 0.0257 0.49791 0.0
O366 O 0.49441 0.99741 0.56337 0.0
O367 O 0.53694 0.02888 0.55042 0.0
O368 O 0.57289 0.07593 0.5374 0.0
O369 O 0.5218 0.08174 0.51693 0.0
C370 C 0.51243 0.95404 0.49011 0.0
C371 C 0.55061 0.0954 0.53171 0.0
Dy372 Dy 0.24097 0.2757 0.76594 0.0
C373 C 0.38225 0.27925 0.75731 0.0
C374 C 0.17674 0.25709 0.77825 0.0
Dy375 Dy 0.31787 0.2749 0.77067 0.0
O376 O 0.18775 0.27571 0.75462 0.0
O377 O 0.2008 0.24836 0.79465 0.0
O378 O 0.24442 0.33144 0.75319 0.0
O379 O 0.28582 0.31083 0.76147 0.0
C380 C 0.2761 0.33789 0.7539 0.0
C381 C 0.27778 0.21911 0.78941 0.0
O382 O 0.31265 0.30393 0.81997 0.0
O383 O 0.25584 0.29116 0.82015 0.0
O384 O 0.36068 0.25077 0.75504 0.0
O385 O 0.36879 0.30546 0.76792 0.0
O386 O 0.30726 0.22986 0.80218 0.0
O387 O 0.27268 0.23714 0.76627 0.0
O388 O 0.24727 0.25079 0.7148 0.0
O389 O 0.30418 0.26485 0.71595 0.0
C390 C 0.28488 0.30386 0.83518 0.0
C391 C 0.27551 0.25226 0.70012 0.0
Dy392 Dy 0.02026 0.0134 0.48743 0.0
C393 C 0.08157 0.05477 0.61881 0.0
C394 C 0.98562 0.00509 0.42777 0.0
Dy395 Dy 0.04211 0.04483 0.56254 0.0
O396 O 0.01239 0.99322 0.43307 0.0
O397 O 0.97735 0.01991 0.45534 0.0
O398 O 0.07263 0.00946 0.47804 0.0
O399 O 0.06209 0.04715 0.51356 0.0
C400 C 0.08489 0.03377 0.50144 0.0
C401 C 0.97789 0.01565 0.55613 0.0
O402 O 0.04093 0.09537 0.54044 0.0
O403 O 0.01781 0.07069 0.48826 0.0
O404 O 0.05484 0.06738 0.61556 0.0
O405 O 0.08741 0.03882 0.59071 0.0
O406 O 0.99191 0.03199 0.58368 0.0
O407 O 0.99906 0.018 0.53477 0.0
O408 O 0.01564 0.96408 0.51258 0.0
O409 O 0.04933 0.98915 0.55847 0.0
C410 C 0.02841 0.09813 0.51027 0.0
C411 C 0.03275 0.96147 0.54017 0.0
Dy412 Dy 0.31647 0.79761 0.78355 0.0
C413 C 0.18706 0.74277 0.72571 0.0
C414 C 0.3743 0.80864 0.81933 0.0
Dy415 Dy 0.24286 0.75649 0.76455 0.0
O416 O 0.36901 0.82433 0.79316 0.0
O417 O 0.34778 0.78856 0.82628 0.0
O418 O 0.32439 0.80441 0.72924 0.0
O419 O 0.29021 0.76378 0.74317 0.0
C420 C 0.30094 0.77865 0.71866 0.0
C421 C 0.25092 0.78302 0.82873 0.0
O422 O 0.26821 0.7098 0.76556 0.0
O423 O 0.31982 0.74061 0.78464 0.0
O424 O 0.19218 0.72632 0.75149 0.0
O425 O 0.21299 0.76495 0.72051 0.0
O426 O 0.22376 0.76399 0.81619 0.0
O427 O 0.27114 0.78357 0.80653 0.0
O428 O 0.2893 0.8425 0.78856 0.0
O429 O 0.24269 0.81318 0.75817 0.0
C430 C 0.29919 0.71083 0.77582 0.0
C431 C 0.2603 0.84209 0.77379 0.0
Dy432 Dy 0.53829 0.02794 0.0634 0.0
C433 C 0.545 0.01695 0.91884 0.0
C434 C 0.53522 0.0417 0.13 0.0
Dy435 Dy 0.53776 0.02819 0.98462 0.0
O436 O 0.53615 0.06468 0.10874 0.0
O437 O 0.53702 0.01152 0.1148 0.0
O438 O 0.53474 0.97001 0.05721 0.0
O439 O 0.55836 1.0003 0.02193 0.0
C440 C 0.54847 0.96961 0.02893 0.0
C441 C 0.51424 0.08294 0.01387 0.0
O442 O 0.49035 0.99449 0.99227 0.0
O443 O 0.48534 0.01463 0.04752 0.0
O444 O 0.53278 0.99266 0.93715 0.0
O445 O 0.55348 0.04664 0.93661 0.0
O446 O 0.51693 0.07798 0.98208 0.0
O447 O 0.52388 0.05827 0.02635 0.0
O448 O 0.58863 0.0571 0.05757 0.0
O449 O 0.59 0.0484 0.99982 0.0
C450 C 0.47296 0.9975 0.01882 0.0
C451 C 0.60391 0.06056 0.02949 0.0
Dy452 Dy 0.2889 0.31788 0.28412 0.0
C453 C 0.28463 0.17531 0.27508 0.0
C454 C 0.28232 0.38611 0.29099 0.0
Dy455 Dy 0.27125 0.23727 0.26053 0.0
O456 O 0.27733 0.36494 0.31388 0.0
O457 O 0.29309 0.37028 0.26538 0.0
O458 O 0.31628 0.3057 0.32929 0.0
O459 O 0.27607 0.27037 0.30735 0.0
C460 C 0.29832 0.2749 0.33 0.0
C461 C 0.26844 0.27494 0.20795 0.0
O462 O 0.22291 0.24331 0.27937 0.0
O463 O 0.23379 0.30427 0.28572 0.0
O464 O 0.26406 0.17856 0.25098 0.0
O465 O 0.29726 0.20542 0.29026 0.0
O466 O 0.26036 0.24089 0.2056 0.0
O467 O 0.27534 0.28539 0.23825 0.0
O468 O 0.33533 0.31221 0.25979 0.0
O469 O 0.32417 0.25149 0.25053 0.0
C470 C 0.21378 0.2738 0.28691 0.0
C471 C 0.34322 0.28205 0.24854 0.0
Dy472 Dy 0.51722 0.5134 0.98591 0.0
C473 C 0.57303 0.55134 0.11737 0.0
C474 C 0.48406 0.50387 0.92537 0.0
Dy475 Dy 0.53713 0.54185 0.05834 0.0
O476 O 0.5152 0.50519 0.93002 0.0
O477 O 0.47091 0.50596 0.9539 0.0
O478 O 0.56948 0.50968 0.97663 0.0
O479 O 0.55872 0.54874 0.01089 0.0
C480 C 0.58151 0.53528 0.99885 0.0
C481 C 0.47271 0.51955 0.04581 0.0
O482 O 0.53812 0.59315 0.03706 0.0
O483 O 0.50719 0.56827 0.98965 0.0
O484 O 0.5431 0.55618 0.11382 0.0
O485 O 0.58352 0.54301 0.08848 0.0
O486 O 0.48475 0.54478 0.06842 0.0
O487 O 0.49566 0.50657 0.0335 0.0
O488 O 0.5168 0.46183 0.00585 0.0
O489 O 0.5447 0.48582 0.0554 0.0
C490 C 0.52116 0.59612 0.00945 0.0
C491 C 0.53198 0.45835 0.03433 0.0
Dy492 Dy 0.80779 0.29214 0.28633 0.0
C493 C 0.68686 0.23544 0.21235 0.0
C494 C 0.86861 0.30564 0.31715 0.0
Dy495 Dy 0.7396 0.25417 0.25534 0.0
O496 O 0.86212 0.30096 0.28546 0.0
O497 O 0.84156 0.30462 0.3324 0.0
O498 O 0.81712 0.31542 0.2378 0.0
O499 O 0.78829 0.26672 0.23849 0.0
C500 C 0.799 0.28948 0.21986 0.0
C501 C 0.74116 0.27388 0.32045 0.0
O502 O 0.76421 0.2072 0.25414 0.0
O503 O 0.81199 0.23525 0.28382 0.0
O504 O 0.68999 0.22245 0.2406 0.0
O505 O 0.71348 0.25655 0.20701 0.0
O506 O 0.71506 0.26992 0.30129 0.0
O507 O 0.76357 0.26343 0.30452 0.0
O508 O 0.77938 0.33567 0.29441 0.0
O509 O 0.74066 0.31165 0.25262 0.0
C510 C 0.7935 0.20682 0.26814 0.0
C511 C 0.75387 0.33789 0.27474 0.0
Dy512 Dy 0.02959 0.52572 0.55823 0.0
C513 C 0.04063 0.5299 0.41229 0.0
C514 C 0.02437 0.53562 0.62448 0.0
Dy515 Dy 0.0313 0.53523 0.47804 0.0
O516 O 0.01348 0.5067 0.60605 0.0
O517 O 0.03782 0.55969 0.60659 0.0
O518 O 0.0434 0.47164 0.55333 0.0
O519 O 0.03778 0.49807 0.51246 0.0
C520 C 0.04393 0.46995 0.52116 0.0
C521 C 0.01628 0.59071 0.51474 0.0
O522 O 0.98007 0.50901 0.48255 0.0
O523 O 0.97702 0.51551 0.54058 0.0
O524 O 0.05308 0.55647 0.4331 0.0
O525 O 0.02309 0.50587 0.42745 0.0
O526 O 0.019 0.58967 0.48286 0.0
O527 O 0.02185 0.56247 0.52369 0.0
O528 O 0.08073 0.55138 0.55344 0.0
O529 O 0.08371 0.54173 0.49579 0.0
C530 C 0.96356 0.50676 0.50999 0.0
C531 C 0.09737 0.55112 0.52616 0.0
Dy532 Dy 0.7391 0.77654 0.2727 0.0
C533 C 0.88166 0.79668 0.26024 0.0
C534 C 0.67525 0.77074 0.28683 0.0
Dy535 Dy 0.8186 0.77794 0.27658 0.0
O536 O 0.69786 0.79763 0.29507 0.0
O537 O 0.68746 0.74612 0.27043 0.0
O538 O 0.74304 0.83064 0.25504 0.0
O539 O 0.78392 0.81032 0.26516 0.0
C540 C 0.77464 0.83693 0.2561 0.0
C541 C 0.78327 0.71686 0.29187 0.0
O542 O 0.81125 0.80653 0.3256 0.0
O543 O 0.75536 0.78485 0.32712 0.0
O544 O 0.87246 0.77764 0.28416 0.0
O545 O 0.85656 0.80598 0.24643 0.0
O546 O 0.81496 0.72279 0.29141 0.0
O547 O 0.77378 0.74402 0.28431 0.0
O548 O 0.74504 0.75002 0.22199 0.0
O549 O 0.80232 0.75659 0.22406 0.0
C550 C 0.78373 0.80116 0.34169 0.0
C551 C 0.77316 0.7465 0.20835 0.0
Dy552 Dy 0.78119 0.26821 0.72188 0.0
C553 C 0.79515 0.26225 0.86353 0.0
C554 C 0.76611 0.27468 0.6571 0.0
Dy555 Dy 0.78181 0.26544 0.79779 0.0
O556 O 0.74723 0.27844 0.68141 0.0
O557 O 0.79295 0.26635 0.66816 0.0
O558 O 0.83555 0.27221 0.72394 0.0
O559 O 0.80778 0.24402 0.75788 0.0
C560 C 0.83638 0.25553 0.75013 0.0
C561 C 0.72661 0.27746 0.76961 0.0
O562 O 0.81381 0.31711 0.79302 0.0
O563 O 0.79775 0.32402 0.73911 0.0
O564 O 0.77103 0.27475 0.85136 0.0
O565 O 0.81235 0.25205 0.83973 0.0
O566 O 0.72752 0.2606 0.79565 0.0
O567 O 0.75514 0.28946 0.76194 0.0
O568 O 0.74974 0.21651 0.72556 0.0
O569 O 0.76249 0.20962 0.78066 0.0
C570 C 0.81391 0.33613 0.76754 0.0
C571 C 0.74765 0.19787 0.75132 0.0
Dy572 Dy 0.78633 0.81429 0.78501 0.0
C573 C 0.77791 0.66449 0.77141 0.0
C574 C 0.77775 0.88145 0.78607 0.0
Dy575 Dy 0.77458 0.73196 0.76529 0.0
O576 O 0.78806 0.86395 0.76098 0.0
O577 O 0.77488 0.8628 0.81097 0.0
O578 O 0.8031 0.81251 0.83919 0.0
O579 O 0.79064 0.76817 0.80736 0.0
C580 C 0.79837 0.7786 0.83722 0.0
C581 C 0.77306 0.77134 0.71442 0.0
O582 O 0.72679 0.73648 0.78684 0.0
O583 O 0.73254 0.79727 0.78981 0.0
O584 O 0.76422 0.67518 0.74584 0.0
O585 O 0.78851 0.69052 0.79336 0.0
O586 O 0.78057 0.74035 0.71167 0.0
O587 O 0.76309 0.77777 0.74323 0.0
O588 O 0.83295 0.80957 0.76102 0.0
O589 O 0.82829 0.74912 0.7609 0.0
C590 C 0.71553 0.76591 0.79343 0.0
C591 C 0.84459 0.78025 0.75531 0.0
Dy592 Dy 0.49388 0.50796 0.51374 0.0
C593 C 0.63455 0.53784 0.54358 0.0
C594 C 0.42935 0.50911 0.52008 0.0
Dy595 Dy 0.56932 0.53756 0.53659 0.0
O596 O 0.44327 0.50501 0.49211 0.0
O597 O 0.45046 0.5098 0.54442 0.0
O598 O 0.5027 0.49058 0.46 0.0
O599 O 0.54066 0.51296 0.49346 0.0
C600 C 0.53421 0.50091 0.46371 0.0
C601 C 0.52393 0.55131 0.5791 0.0
O602 O 0.55887 0.58028 0.50741 0.0
O603 O 0.50234 0.56544 0.50794 0.0
O604 O 0.61405 0.53353 0.56692 0.0
O605 O 0.61952 0.54454 0.51696 0.0
O606 O 0.55266 0.571 0.57912 0.0
O607 O 0.52343 0.52448 0.55938 0.0
O608 O 0.50518 0.45963 0.53283 0.0
O609 O 0.56147 0.47977 0.54174 0.0
C610 C 0.52924 0.58692 0.50146 0.0
C611 C 0.53498 0.45513 0.54184 0.0
Dy612 Dy 0.06474 0.52696 0.01715 0.0
C613 C 0.93089 0.54656 0.01608 0.0
C614 C 0.12246 0.50354 0.02579 0.0
Dy615 Dy 0.98791 0.52261 0.02599 0.0
O616 O 0.1189 0.5301 0.00956 0.0
O617 O 0.09484 0.49079 0.03748 0.0
O618 O 0.06128 0.55396 0.97025 0.0
O619 O 0.02108 0.52099 0.98629 0.0
C620 C 0.02994 0.54264 0.96602 0.0
C621 C 0.02237 0.50591 0.07665 0.0
O622 O 0.9865 0.46959 0.9991 0.0
O623 O 0.0426 0.47048 1.00193 0.0
O624 O 0.93373 0.5199 0.03247 0.0
O625 O 0.95883 0.55913 1.00492 0.0
O626 O 0.99098 0.49483 0.0724 0.0
O627 O 0.03142 0.52793 0.05675 0.0
O628 O 0.06589 0.58 0.04499 0.0
O629 O 0.00959 0.57844 0.04305 0.0
C630 C 0.01209 0.45398 0.99479 0.0
C631 C 0.03995 0.59489 0.0505 0.0
C632 C 0.98768 0.16409 0.95655 0.0
C633 C 0.01437 0.18839 0.94821 0.0
C634 C 0.99176 0.13818 0.97724 0.0
C635 C 0.02282 0.13512 0.99015 0.0
H636 H 0.96342 0.16468 0.94659 0.0
H637 H 0.97036 0.11963 0.98205 0.0
S638 S 0.10057 0.19367 0.97698 0.0
N639 N 0.07281 0.20895 0.95565 0.0
N640 N 0.08061 0.16013 0.99416 0.0
C641 C 0.04961 0.16013 0.98291 0.0
C642 C 0.04536 0.18673 0.96203 0.0
C643 C 0.14568 0.81581 0.24354 0.0
C644 C 0.14198 0.80426 0.20944 0.0
C645 C 0.17297 0.81131 0.26288 0.0
C646 C 0.19724 0.7946 0.24894 0.0
H647 H 0.12713 0.82792 0.25549 0.0
H648 H 0.17462 0.82023 0.28907 0.0
S649 S 0.19909 0.75972 0.16071 0.0
N650 N 0.16544 0.77621 0.16248 0.0
N651 N 0.21567 0.76671 0.19874 0.0
C652 C 0.19394 0.78338 0.21477 0.0
C653 C 0.1666 0.78851 0.19507 0.0
C654 C 0.52333 0.86087 0.46785 0.0
C655 C 0.49881 0.84846 0.44296 0.0
C656 C 0.52662 0.89462 0.48388 0.0
C657 C 0.50518 0.91708 0.47605 0.0
H658 H 0.54096 0.84495 0.4741 0.0
H659 H 0.54666 0.90342 0.50206 0.0
S660 S 0.43422 0.89526 0.41584 0.0
N661 N 0.45095 0.85995 0.4132 0.0
N662 N 0.45683 0.9233 0.44384 0.0
C663 C 0.47935 0.90423 0.45264 0.0
C664 C 0.4763 0.86997 0.43589 0.0
C665 C 0.45529 0.25214 0.71621 0.0
C666 C 0.47584 0.28409 0.71276 0.0
C667 C 0.42572 0.2509 0.73183 0.0
C668 C 0.41542 0.28152 0.74473 0.0
H669 H 0.46163 0.22781 0.70599 0.0
H670 H 0.4104 0.22568 0.73296 0.0
S671 S 0.46089 0.37182 0.74392 0.0
N672 N 0.48434 0.34716 0.72499 0.0
N673 N 0.42872 0.34471 0.75435 0.0
C674 C 0.43617 0.31361 0.74256 0.0
C675 C 0.46637 0.3149 0.72659 0.0
C676 C 1.00009 0.86952 0.56182 0.0
C677 C 0.02214 0.86511 0.58747 0.0
C678 C 1.00447 0.89999 0.5453 0.0
C679 C 0.03117 0.92716 0.55374 0.0
H680 H 0.97881 0.84966 0.55495 0.0
H681 H 0.98613 0.90279 0.52672 0.0
S682 S 0.09785 0.92692 0.61674 0.0
N683 N 0.07292 0.88955 0.6188 0.0
N684 N 0.08142 0.94626 0.58773 0.0
C685 C 0.05415 0.92232 0.57835 0.0
C686 C 0.04958 0.8915 0.59523 0.0
C687 C 0.43769 0.77759 0.87156 0.0
C688 C 0.46719 0.79695 0.86271 0.0
C689 C 0.40788 0.78293 0.85837 0.0
C690 C 0.40628 0.80746 0.83536 0.0
H691 H 0.43751 0.75807 0.88889 0.0
H692 H 0.38591 0.76694 0.86574 0.0
S693 S 0.47641 0.86574 0.80469 0.0
N694 N 0.49305 0.84265 0.83037 0.0
N695 N 0.43668 0.85203 0.80485 0.0
C696 C 0.43549 0.82746 0.82659 0.0
C697 C 0.46603 0.82234 0.84043 0.0
C698 C 0.4938 0.14527 0.08377 0.0
C699 C 0.49663 0.17693 0.06925 0.0
C700 C 0.49814 0.1145 0.06531 0.0
C701 C 0.50579 0.11437 0.03186 0.0
H702 H 0.4891 0.14439 0.10982 0.0
H703 H 0.4958 0.09076 0.07738 0.0
S704 S 0.51184 0.18918 0.98101 0.0
N705 N 0.50429 0.20534 0.0184 0.0
N706 N 0.51285 0.14761 0.98399 0.0
C707 C 0.50669 0.14526 0.01649 0.0
C708 C 0.5021 0.17655 0.03517 0.0
C709 C 0.14972 0.30534 0.34041 0.0
C710 C 0.12657 0.27494 0.34258 0.0
C711 C 0.17665 0.3051 0.32069 0.0
C712 C 0.18195 0.27429 0.30251 0.0
H713 H 0.14734 0.32957 0.35449 0.0
H714 H 0.19412 0.32911 0.3209 0.0
S715 S 0.12709 0.18806 0.29777 0.0
N716 N 0.1095 0.21361 0.32322 0.0
N717 N 0.16031 0.21288 0.2865 0.0
C718 C 0.15827 0.24393 0.30348 0.0
C719 C 0.13058 0.24431 0.32339 0.0
C720 C 0.98857 0.04273 0.16519 0.0
C721 C 0.95834 0.05398 0.16398 0.0
C722 C 0.00945 0.04598 0.13867 0.0
C723 C 1.00112 0.06111 0.11019 0.0
H724 H 0.99578 0.03043 0.18643 0.0
H725 H 0.032 0.03602 0.14019 0.0
S726 S 0.92727 0.09908 0.09643 0.0
N727 N 0.92256 0.08341 0.1328 0.0
N728 N 0.96215 0.09001 0.08336 0.0
C729 C 0.97168 0.07361 0.1091 0.0
C730 C 0.9502 0.06994 0.13589 0.0
C731 C 0.28531 0.729 0.455 0.0
C732 C 0.29425 0.69594 0.45452 0.0
C733 C 0.28039 0.74382 0.42544 0.0
C734 C 0.28461 0.72615 0.39461 0.0
H735 H 0.28142 0.74322 0.47829 0.0
H736 H 0.27331 0.76921 0.42675 0.0
S737 S 0.30885 0.6394 0.37999 0.0
N738 N 0.30777 0.64637 0.42064 0.0
N739 N 0.29873 0.67417 0.3653 0.0
C740 C 0.29404 0.69335 0.39386 0.0
C741 C 0.29883 0.67824 0.42379 0.0
C742 C 0.54892 0.96235 0.64365 0.0
C743 C 0.58194 0.97732 0.64982 0.0
C744 C 0.53088 0.97121 0.61691 0.0
C745 C 0.54515 0.99613 0.59636 0.0
H746 H 0.5368 0.9445 0.66012 0.0
H747 H 0.50543 0.95937 0.613 0.0
S748 S 0.63044 0.04457 0.60401 0.0
N749 N 0.62815 0.01814 0.63358 0.0
N750 N 0.59398 0.0366 0.58511 0.0
C751 C 0.57821 0.01119 0.60247 0.0
C752 C 0.59673 1.00126 0.62875 0.0
C753 C 0.25763 0.32417 0.92301 0.0
C754 C 0.28509 0.34603 0.93918 0.0
C755 C 0.25795 0.31064 0.88964 0.0
C756 C 0.28572 0.31829 0.87083 0.0
H757 H 0.23562 0.3175 0.93618 0.0
H758 H 0.23608 0.29391 0.87858 0.0
S759 S 0.36371 0.37555 0.90108 0.0
N760 N 0.34074 0.3754 0.93344 0.0
N761 N 0.34126 0.35015 0.87107 0.0
C762 C 0.31337 0.3402 0.88673 0.0
C763 C 0.31303 0.35398 0.92072 0.0
C764 C 0.93379 0.03564 0.3618 0.0
C765 C 0.94284 0.01954 0.33196 0.0
C766 C 0.94698 0.02971 0.39257 0.0
C767 C 0.97009 0.00775 0.39486 0.0
H768 H 0.91624 0.05296 0.36147 0.0
H769 H 0.93942 0.0431 0.41474 0.0
S770 S 1.00181 0.95882 0.3243 0.0
N771 N 0.97599 0.97997 0.30673 0.0
N772 N 1.00122 0.96943 0.36463 0.0
C773 C 0.97925 0.99123 0.36531 0.0
C774 C 0.96552 0.99697 0.33388 0.0
C775 C 0.32242 0.74721 0.63199 0.0
C776 C 0.29865 0.71707 0.62421 0.0
C777 C 0.32206 0.76844 0.66189 0.0
C778 C 0.29837 0.75963 0.68512 0.0
H779 H 0.34131 0.75438 0.61493 0.0
H780 H 0.34107 0.79113 0.66731 0.0
S781 S 0.2318 0.68217 0.67654 0.0
N782 N 0.25108 0.67935 0.64186 0.0
N783 N 0.25116 0.71798 0.69814 0.0
C784 C 0.27457 0.72947 0.67729 0.0
C785 C 0.27455 0.70847 0.64682 0.0
C786 C 0.56562 0.97431 0.83704 0.0
C787 C 0.5753 1.00328 0.81917 0.0
C788 C 0.5538 0.97848 0.86882 0.0
C789 C 0.55159 0.01176 0.88362 0.0
H790 H 0.56861 0.94847 0.82712 0.0
H791 H 0.54806 0.95584 0.88249 0.0
S792 S 0.56919 0.09521 0.84543 0.0
N793 N 0.57822 0.06577 0.8172 0.0
N794 N 0.55638 0.07354 0.87694 0.0
C795 C 0.55903 0.04053 0.86517 0.0
C796 C 0.57078 0.03631 0.83285 0.0
C797 C 0.25603 0.3025 0.12066 0.0
C798 C 0.27671 0.33519 0.1213 0.0
C799 C 0.25325 0.28359 0.14884 0.0
C800 C 0.27096 0.29649 0.17898 0.0
H801 H 0.24165 0.29147 0.09827 0.0
H802 H 0.23697 0.25862 0.14699 0.0
S803 S 0.33189 0.37846 0.19233 0.0
N804 N 0.31707 0.37828 0.15408 0.0
N805 N 0.31241 0.34256 0.20616 0.0
C806 C 0.29234 0.32867 0.17956 0.0
C807 C 0.29505 0.34801 0.15102 0.0
C808 C 0.20339 0.01265 1.0037 0.0
C809 C 0.20446 0.98466 0.02294 0.0
C810 C 0.18063 0.03472 0.00933 0.0
C811 C 0.15907 0.03029 0.03509 0.0
H812 H 0.21926 0.01666 0.98328 0.0
H813 H 0.17902 0.05451 0.99263 0.0
S814 S 0.15234 0.96166 0.09295 0.0
N815 N 0.18214 0.95419 0.06913 0.0
N816 N 0.14016 0.99631 0.08009 0.0
C817 C 0.16078 1.00342 0.05536 0.0
C818 C 0.18331 0.98043 0.04918 0.0
C819 C 0.65495 0.60746 0.01826 0.0
C820 C 0.67966 0.59538 1.00028 0.0
C821 C 0.62373 0.5873 0.01845 0.0
C822 C 0.61571 0.55422 1.00041 0.0
H823 H 0.65965 0.63287 0.03234 0.0
H824 H 0.60559 0.59812 0.03241 0.0
S825 S 0.67182 0.50966 0.95038 0.0
N826 N 0.69425 0.54744 0.96489 0.0
N827 N 0.63538 0.50968 0.96498 0.0
C828 C 0.64027 0.54144 0.98282 0.0
C829 C 0.67226 0.56194 0.98276 0.0
C830 C 0.73303 0.42557 0.30891 0.0
C831 C 0.70545 0.42861 0.28913 0.0
C832 C 0.7489 0.3967 0.30377 0.0
C833 C 0.73807 0.36958 0.27842 0.0
H834 H 0.74242 0.44561 0.32878 0.0
H835 H 0.76962 0.39553 0.32011 0.0
S836 S 0.66712 0.36524 0.21909 0.0
N837 N 0.66823 0.40199 0.24288 0.0
N838 N 0.69781 0.34826 0.23291 0.0
C839 C 0.71061 0.37254 0.25823 0.0
C840 C 0.6944 0.40181 0.26363 0.0
C841 C 0.87671 0.47773 0.53362 0.0
C842 C 0.86073 0.46257 0.50342 0.0
C843 C 0.90967 0.49283 0.53523 0.0
C844 C 0.92808 0.49313 0.50674 0.0
H845 H 0.86381 0.47742 0.55636 0.0
H846 H 0.92084 0.50373 0.55927 0.0
S847 S 0.89704 0.45765 0.4212 0.0
N848 N 0.86515 0.44969 0.4441 0.0
N849 N 0.92727 0.47777 0.447 0.0
C850 C 0.91206 0.47889 0.47609 0.0
C851 C 0.87835 0.4637 0.4745 0.0
C852 C 0.33149 0.10355 0.25689 0.0
C853 C 0.34699 0.10259 0.28813 0.0
C854 C 0.30774 0.12429 0.25305 0.0
C855 C 0.29898 0.14465 0.28036 0.0
H856 H 0.33877 0.08948 0.23497 0.0
H857 H 0.2983 0.1266 0.2283 0.0
S858 S 0.32824 0.14721 0.36801 0.0
N859 N 0.34871 0.12052 0.34737 0.0
N860 N 0.30434 0.1596 0.33996 0.0
C861 C 0.31223 0.14166 0.312 0.0
C862 C 0.33628 0.12063 0.31597 0.0
C863 C 0.35625 0.07401 0.48811 0.0
C864 C 0.35502 0.10554 0.50739 0.0
C865 C 0.38261 0.05638 0.49182 0.0
C866 C 0.40846 0.06934 0.51532 0.0
H867 H 0.33693 0.06309 0.46968 0.0
H868 H 0.38283 0.03259 0.47601 0.0
S869 S 0.41609 0.14991 0.57323 0.0
N870 N 0.38166 0.14834 0.55154 0.0
N871 N 0.43056 0.11517 0.55887 0.0
C872 C 0.40717 0.10047 0.53517 0.0
C873 C 0.38064 0.11858 0.53112 0.0
C874 C 0.70936 0.64757 0.30465 0.0
C875 C 0.72311 0.61756 0.3079 0.0
C876 C 0.72889 0.67979 0.29995 0.0
C877 C 0.76286 0.68325 0.2984 0.0
H878 H 0.68323 0.64603 0.3049 0.0
H879 H 0.71727 0.70202 0.29724 0.0
S880 S 0.81119 0.61336 0.3079 0.0
N881 N 0.77312 0.59404 0.31094 0.0
N882 N 0.80957 0.65424 0.30223 0.0
C883 C 0.77697 0.65374 0.3027 0.0
C884 C 0.75717 0.621 0.30739 0.0
C885 C 0.86862 0.41969 0.80402 0.0
C886 C 0.871 0.44042 0.77738 0.0
C887 C 0.84992 0.38609 0.80072 0.0
C888 C 0.83301 0.37198 0.77057 0.0
H889 H 0.88094 0.42962 0.8278 0.0
H890 H 0.84874 0.3712 0.82201 0.0
S891 S 0.83296 0.41542 0.69266 0.0
N892 N 0.85599 0.44431 0.71959 0.0
N893 N 0.82094 0.38125 0.71308 0.0
C894 C 0.83565 0.39241 0.74355 0.0
C895 C 0.85462 0.42661 0.74699 0.0
C896 C 0.02802 0.87656 0.0691 0.0
C897 C 0.04615 0.88181 0.09974 0.0
C898 C 0.02247 0.90487 0.05196 0.0
C899 C 0.0352 0.93929 0.06474 0.0
H900 H 0.01799 0.85039 0.05826 0.0
H901 H 0.00876 0.89978 0.02835 0.0
S902 S 0.0813 0.96755 0.14529 0.0
N903 N 0.07476 0.92456 0.14294 0.0
N904 N 0.06458 0.97731 0.11076 0.0
C905 C 0.05269 0.94491 0.09558 0.0
C906 C 0.05814 0.9163 0.11307 0.0
C907 C 0.89378 0.23044 0.81494 0.0
C908 C 0.92312 0.25371 0.81184 0.0
C909 C 0.86596 0.23076 0.79455 0.0
C910 C 0.86636 0.25438 0.77035 0.0
H911 H 0.89213 0.21209 0.83352 0.0
H912 H 0.84393 0.21243 0.79787 0.0
S913 S 0.93699 0.32038 0.7517 0.0
N914 N 0.95082 0.30068 0.78202 0.0
N915 N 0.89865 0.30131 0.7441 0.0
C916 C 0.89562 0.27738 0.7666 0.0
C917 C 0.92391 0.27707 0.78729 0.0
C918 C 0.58268 0.17767 0.5886 0.0
C919 C 0.55842 0.19786 0.58438 0.0
C920 C 0.58116 0.14532 0.57 0.0
C921 C 0.55553 0.13228 0.54625 0.0
H922 H 0.60204 0.18604 0.60759 0.0
H923 H 0.59936 0.12978 0.57546 0.0
S924 S 0.48945 0.17878 0.52171 0.0
N925 N 0.5104 0.20488 0.55222 0.0
N926 N 0.50785 0.14481 0.51651 0.0
C927 C 0.53258 0.15373 0.54008 0.0
C928 C 0.53391 0.18631 0.55937 0.0
C929 C 0.5911 0.73343 0.31364 0.0
C930 C 0.58044 0.76332 0.32815 0.0
C931 C 0.62121 0.73593 0.2987 0.0
C932 C 0.64164 0.7684 0.29788 0.0
H933 H 0.57664 0.70777 0.31484 0.0
H934 H 0.62909 0.71222 0.28903 0.0
S935 S 0.62348 0.85484 0.32881 0.0
N936 N 0.59163 0.82662 0.33805 0.0
N937 N 0.64794 0.8313 0.31016 0.0
C938 C 0.63051 0.79857 0.31073 0.0
C939 C 0.59997 0.79606 0.32582 0.0
C940 C 0.01216 0.16654 0.45475 0.0
C941 C 0.03795 0.19458 0.46353 0.0
C942 C 0.00827 0.13639 0.47143 0.0
C943 C 0.02986 0.1329 0.49781 0.0
H944 H 0.99517 0.16742 0.43422 0.0
H945 H 0.98861 0.11515 0.46287 0.0
S946 S 0.10052 0.19942 0.53183 0.0
N947 N 0.0847 0.21757 0.50147 0.0
N948 N 0.07733 0.16077 0.53283 0.0
C949 C 0.05498 0.16129 0.50786 0.0
C950 C 0.05907 0.19209 0.49069 0.0
C951 C 0.59666 0.23408 0.19766 0.0
C952 C 0.59558 0.2513 0.16873 0.0
C953 C 0.62603 0.22655 0.21043 0.0
C954 C 0.65539 0.23608 0.19479 0.0
H955 H 0.57477 0.22691 0.21093 0.0
H956 H 0.62593 0.21465 0.23354 0.0
S957 S 0.66537 0.2788 0.11685 0.0
N958 N 0.62627 0.27548 0.12364 0.0
N959 N 0.68122 0.26141 0.14767 0.0
C960 C 0.65439 0.25185 0.16509 0.0
C961 C 0.62457 0.25949 0.15207 0.0
C962 C 0.5413 0.87388 1.00053 0.0
C963 C 0.56046 0.87368 0.97267 0.0
C964 C 0.53792 0.9051 0.01855 0.0
C965 C 0.5534 0.93744 0.00936 0.0
H966 H 0.52834 0.84969 0.00829 0.0
H967 H 0.52261 0.90383 0.03961 0.0
S968 S 0.60707 0.95148 0.93891 0.0
N969 N 0.59572 0.90871 0.93702 0.0
N970 N 0.58946 0.96756 0.9712 0.0
C971 C 0.57312 0.93777 0.98192 0.0
C972 C 0.57669 0.90584 0.96352 0.0
C973 C 0.90587 0.75187 0.69693 0.0
C974 C 0.93041 0.78155 0.69776 0.0
C975 C 0.87906 0.75148 0.71673 0.0
C976 C 0.87527 0.78099 0.7378 0.0
H977 H 0.90734 0.7286 0.68082 0.0
H978 H 0.86061 0.72806 0.71459 0.0
S979 S 0.93296 0.86529 0.74944 0.0
N980 N 0.9498 0.84104 0.72197 0.0
N981 N 0.89871 0.84068 0.75865 0.0
C982 C 0.89974 0.81086 0.73908 0.0
C983 C 0.9275 0.81102 0.71927 0.0
C984 C 0.07962 0.98324 0.89083 0.0
C985 C 0.10448 0.01198 0.88749 0.0
C986 C 0.05813 0.98351 0.91699 0.0
C987 C 0.06024 0.01277 0.94047 0.0
H988 H 0.07683 0.96029 0.87319 0.0
H989 H 0.03961 0.96068 0.9187 0.0
S990 S 0.11913 0.09605 0.94077 0.0
N991 N 0.12916 0.07092 0.90932 0.0
N992 N 0.08789 0.07235 0.9567 0.0
C993 C 0.08449 0.042 0.93672 0.0
C994 C 0.10683 0.04135 0.91077 0.0
C995 C 0.78851 0.31544 0.57872 0.0
C996 C 0.7604 0.32841 0.57002 0.0
C997 C 0.78923 0.29535 0.60543 0.0
C998 C 0.76198 0.28791 0.62466 0.0
H999 H 0.8106 0.32196 0.5656 0.0
H1000 H 0.81196 0.28748 0.61223 0.0
S1001 S 0.68109 0.31189 0.60969 0.0
N1002 N 0.70352 0.32928 0.58057 0.0
N1003 N 0.70506 0.29186 0.63127 0.0
C1004 C 0.733 0.29862 0.6149 0.0
C1005 C 0.73216 0.31882 0.58741 0.0
C1006 C 0.47088 0.06332 0.41065 0.0
C1007 C 0.48315 0.06804 0.37928 0.0
C1008 C 0.49098 0.05739 0.43683 0.0
C1009 C 0.52383 0.05569 0.43266 0.0
H1010 H 0.44523 0.06238 0.4146 0.0
H1011 H 0.48051 0.05291 0.46026 0.0
S1012 S 0.56914 0.07186 0.35703 0.0
N1013 N 0.53134 0.07511 0.3465 0.0
N1014 N 0.56899 0.06357 0.39625 0.0
C1015 C 0.53722 0.06351 0.40242 0.0
C1016 C 0.5168 0.06976 0.37554 0.0
C1017 C 0.75016 0.72223 0.1158 0.0
C1018 C 0.77513 0.70462 0.10475 0.0
C1019 C 0.74896 0.73484 0.14942 0.0
C1020 C 0.77295 0.73078 0.17327 0.0
H1021 H 0.73122 0.72612 0.0984 0.0
H1022 H 0.7295 0.74851 0.15661 0.0
S1023 S 0.84294 0.6856 0.15753 0.0
N1024 N 0.82393 0.68311 0.12084 0.0
N1025 N 0.82188 0.70678 0.1834 0.0
C1026 C 0.79786 0.71295 0.16252 0.0
C1027 C 0.7989 0.69991 0.1285 0.0
C1028 C 0.09599 0.04959 0.71109 0.0
C1029 C 0.12371 0.03373 0.71246 0.0
C1030 C 0.08347 0.05808 0.68089 0.0
C1031 C 0.09802 0.05079 0.65087 0.0
H1032 H 0.0838 0.05548 0.73352 0.0
H1033 H 0.06165 0.06947 0.68099 0.0
S1034 S 0.17153 0.01033 0.64093 0.0
N1035 N 0.16579 0.01193 0.68108 0.0
N1036 N 0.14214 0.02754 0.62451 0.0
C1037 C 0.12608 0.03554 0.65197 0.0
C1038 C 0.13893 0.02708 0.68269 0.0
C1039 C 0.72803 0.33879 0.39144 0.0
C1040 C 0.75303 0.33677 0.41484 0.0
C1041 C 0.72416 0.31787 0.36116 0.0
C1042 C 0.74518 0.29428 0.35315 0.0
H1043 H 0.71163 0.35702 0.3963 0.0
H1044 H 0.70493 0.32077 0.3436 0.0
S1045 S 0.81262 0.27668 0.40681 0.0
N1046 N 0.79806 0.30773 0.42858 0.0
N1047 N 0.79038 0.26834 0.37163 0.0
C1048 C 0.76976 0.29136 0.3765 0.0
C1049 C 0.77377 0.31263 0.40737 0.0
C1050 C 0.49621 0.01772 0.20861 0.0
C1051 C 0.48565 0.04855 0.22039 0.0
C1052 C 0.51488 0.01658 0.18075 0.0
C1053 C 0.52352 0.04618 0.16361 0.0
H1054 H 0.48892 0.99384 0.22014 0.0
H1055 H 0.52091 0.99176 0.17151 0.0
S1056 S 0.50669 0.13476 0.18753 0.0
N1057 N 0.48873 0.11057 0.21531 0.0
N1058 N 0.52378 0.10824 0.16259 0.0
C1059 C 0.51541 0.07787 0.17659 0.0
C1060 C 0.4964 0.07909 0.20508 0.0
C1061 C 0.77046 0.70581 0.89244 0.0
C1062 C 0.78676 0.71847 0.92335 0.0
C1063 C 0.77478 0.72493 0.86457 0.0
C1064 C 0.79597 0.75734 0.86616 0.0
H1065 H 0.75371 0.68112 0.88982 0.0
H1066 H 0.76047 0.71476 0.84199 0.0
S1067 S 0.84473 0.80231 0.94079 0.0
N1068 N 0.8251 0.76585 0.95354 0.0
N1069 N 0.83333 0.80132 0.90128 0.0
C1070 C 0.81246 0.77028 0.8968 0.0
C1071 C 0.80795 0.75095 0.92525 0.0
C1072 C 0.87538 0.08967 0.99581 0.0
C1073 C 0.85656 0.08952 0.024 0.0
C1074 C 0.8962 0.06564 0.98987 0.0
C1075 C 0.89934 0.04075 0.01209 0.0
H1076 H 0.87489 0.10928 0.97868 0.0
H1077 H 0.91156 0.06821 0.96889 0.0
S1078 S 0.85252 0.02611 0.08716 0.0
N1079 N 0.8398 0.05961 0.07238 0.0
N1080 N 0.87973 0.01502 0.06154 0.0
C1081 C 0.8792 0.03874 0.03916 0.0
C1082 C 0.85763 0.06301 0.04506 0.0
C1083 C 0.40083 0.44467 0.03117 0.0
C1084 C 0.37514 0.45811 0.04616 0.0
C1085 C 0.43185 0.46513 0.03033 0.0
C1086 C 0.43879 0.49982 0.04494 0.0
H1087 H 0.39695 0.41807 0.01968 0.0
H1088 H 0.45068 0.45333 0.01859 0.0
S1089 S 0.38009 0.54785 0.08689 0.0
N1090 N 0.35858 0.50874 0.07531 0.0
N1091 N 0.41721 0.54698 0.07439 0.0
C1092 C 0.41335 0.51375 0.05984 0.0
C1093 C 0.38149 0.493 0.0603 0.0
C1094 C 0.31772 0.62211 0.74268 0.0
C1095 C 0.34741 0.62074 0.75974 0.0
C1096 C 0.30121 0.65032 0.74917 0.0
C1097 C 0.3137 0.6784 0.773 0.0
H1098 H 0.30738 0.6015 0.72368 0.0
H1099 H 0.27918 0.65072 0.73448 0.0
S1100 S 0.38912 0.68619 0.82659 0.0
N1101 N 0.38746 0.64923 0.80297 0.0
N1102 N 0.35665 0.70173 0.81526 0.0
C1103 C 0.34277 0.67669 0.79102 0.0
C1104 C 0.35955 0.64808 0.78439 0.0
C1105 C 0.1839 0.58288 0.50349 0.0
C1106 C 0.20121 0.58927 0.53438 0.0
C1107 C 0.15054 0.56962 0.50108 0.0
C1108 C 0.13311 0.56245 0.52949 0.0
H1109 H 0.19604 0.58892 0.48098 0.0
H1110 H 0.13827 0.56598 0.47672 0.0
S1111 S 0.16785 0.57234 0.61618 0.0
N1112 N 0.19911 0.58574 0.59387 0.0
N1113 N 0.13627 0.5607 0.58949 0.0
C1114 C 0.15042 0.56751 0.56052 0.0
C1115 C 0.18452 0.5809 0.56289 0.0
C1116 C 0.73234 0.94022 0.74274 0.0
C1117 C 0.70604 0.94187 0.76323 0.0
C1118 C 0.75774 0.92344 0.75185 0.0
C1119 C 0.75774 0.90821 0.78188 0.0
H1120 H 0.73265 0.9506 0.71886 0.0
H1121 H 0.77636 0.9205 0.73436 0.0
S1122 S 0.69719 0.91076 0.84676 0.0
N1123 N 0.68342 0.93059 0.81654 0.0
N1124 N 0.73142 0.89977 0.83404 0.0
C1125 C 0.73303 0.91243 0.80387 0.0
C1126 C 0.70695 0.92892 0.79435 0.0
C1127 C 0.71164 0.97597 0.5254 0.0
C1128 C 0.70766 0.94211 0.53573 0.0
C1129 C 0.68492 0.99307 0.52171 0.0
C1130 C 0.65332 0.97715 0.52874 0.0
H1131 H 0.73549 0.98918 0.51956 0.0
H1132 H 0.68904 0.01885 0.51322 0.0
S1133 S 0.63006 0.8895 0.55833 0.0
N1134 N 0.66964 0.89384 0.55386 0.0
N1135 N 0.61984 0.92595 0.54761 0.0
C1136 C 0.64918 0.94363 0.53981 0.0
C1137 C 0.67621 0.92612 0.54311 0.0
C1138 C 0.34954 0.40683 0.73935 0.0
C1139 C 0.33538 0.43576 0.73264 0.0
C1140 C 0.33029 0.37511 0.74578 0.0
C1141 C 0.2962 0.371 0.74569 0.0
H1142 H 0.37576 0.40896 0.74067 0.0
H1143 H 0.34223 0.35389 0.75133 0.0
S1144 S 0.2469 0.4378 0.72716 0.0
N1145 N 0.28493 0.45747 0.72458 0.0
N1146 N 0.24895 0.39807 0.73654 0.0
C1147 C 0.28169 0.39931 0.7379 0.0
C1148 C 0.30122 0.43159 0.7314 0.0
C1149 C 0.22243 0.60922 0.2626 0.0
C1150 C 0.19667 0.59902 0.23858 0.0
C1151 C 0.24147 0.64242 0.26472 0.0
C1152 C 0.23565 0.66668 0.24282 0.0
H1153 H 0.22754 0.59175 0.28052 0.0
H1154 H 0.26043 0.6494 0.2843 0.0
S1155 S 0.17259 0.65217 0.17393 0.0
N1156 N 0.16737 0.61507 0.19115 0.0
N1157 N 0.2034 0.67787 0.19522 0.0
C1158 C 0.21095 0.65642 0.21765 0.0
C1159 C 0.19134 0.62248 0.21558 0.0
C1160 C 0.48855 0.651 0.45747 0.0
C1161 C 0.51489 0.67514 0.4482 0.0
C1162 C 0.49352 0.62343 0.47564 0.0
C1163 C 0.5251 0.61858 0.48513 0.0
H1164 H 0.46382 0.65313 0.45035 0.0
H1165 H 0.47223 0.60535 0.48157 0.0
S1166 S 0.60245 0.67563 0.46799 0.0
N1167 N 0.57379 0.69329 0.45079 0.0
N1168 N 0.58317 0.64138 0.48465 0.0
C1169 C 0.55169 0.6431 0.47664 0.0
C1170 C 0.54658 0.67135 0.45827 0.0
C1171 C 0.66732 0.30714 0.70996 0.0
C1172 C 0.63817 0.28347 0.71285 0.0
C1173 C 0.69592 0.3051 0.72834 0.0
C1174 C 0.6964 0.27938 0.75029 0.0
H1175 H 0.66812 0.32735 0.69331 0.0
H1176 H 0.71775 0.32391 0.72545 0.0
S1177 S 0.62735 0.20989 0.7656 0.0
N1178 N 0.61213 0.23266 0.73866 0.0
N1179 N 0.66571 0.22897 0.77301 0.0
C1180 C 0.66758 0.25542 0.75325 0.0
C1181 C 0.63853 0.25743 0.73455 0.0
C1182 C 0.03298 0.36931 0.9558 0.0
C1183 C 1.0034 0.35161 0.94028 0.0
C1184 C 0.03503 0.40158 0.9744 0.0
C1185 C 0.00766 0.41788 0.97802 0.0
H1186 H 0.05493 0.35833 0.95331 0.0
H1187 H 0.05865 0.41409 0.9854 0.0
S1188 S 0.92403 0.38166 0.94288 0.0
N1189 N 0.94575 0.35192 0.93048 0.0
N1190 N 0.94957 0.41297 0.96509 0.0
C1191 C 0.97761 0.39997 0.96331 0.0
C1192 C 0.97551 0.36678 0.94453 0.0
C1193 C 0.96591 0.78151 0.2378 0.0
C1194 C 0.97233 0.80159 0.21087 0.0
C1195 C 0.93722 0.78135 0.25504 0.0
C1196 C 0.91412 0.80141 0.246 0.0
H1197 H 0.98261 0.76491 0.24493 0.0
H1198 H 0.93255 0.76439 0.27466 0.0
S1199 S 0.92129 0.86182 0.18009 0.0
N1200 N 0.95447 0.84442 0.17801 0.0
N1201 N 0.90096 0.84425 0.2104 0.0
C1202 C 0.92111 0.82298 0.22031 0.0
C1203 C 0.9501 0.82302 0.20272 0.0
C1204 C 0.54469 0.38913 0.09065 0.0
C1205 C 0.52056 0.36045 0.07889 0.0
C1206 C 0.54941 0.41986 0.07482 0.0
C1207 C 0.5302 0.42336 0.04651 0.0
H1208 H 0.55976 0.38815 0.11267 0.0
H1209 H 0.56777 0.44145 0.08554 0.0
S1210 S 0.46474 0.3551 1.00464 0.0
N1211 N 0.47814 0.33681 0.0362 0.0
N1212 N 0.4869 0.39461 0.00654 0.0
C1213 C 0.50679 0.39435 0.03367 0.0
C1214 C 0.50197 0.36297 0.04988 0.0
C1215 C 0.93336 0.29296 0.38051 0.0
C1216 C 0.96043 0.29058 0.36113 0.0
C1217 C 0.90408 0.29949 0.36651 0.0
C1218 C 0.90082 0.30395 0.33264 0.0
H1219 H 0.93462 0.2894 0.40667 0.0
H1220 H 0.88366 0.30013 0.38217 0.0
S1221 S 0.96501 0.30264 0.27153 0.0
N1222 N 0.98242 0.29496 0.30655 0.0
N1223 N 0.92765 0.3073 0.28038 0.0
C1224 C 0.92798 0.3027 0.31322 0.0
C1225 C 0.9577 0.29595 0.3274 0.0
C1226 C 0.01615 0.68458 0.54471 0.0
C1227 C 1.00146 0.68253 0.57533 0.0
C1228 C 0.02047 0.65452 0.52532 0.0
C1229 C 0.01051 0.62132 0.53591 0.0
H1230 H 0.02517 0.70965 0.53593 0.0
H1231 H 0.0324 0.6574 0.50214 0.0
S1232 S 0.96608 0.60119 0.61132 0.0
N1233 N 0.97382 0.64424 0.6137 0.0
N1234 N 0.98208 0.58762 0.57689 0.0
C1235 C 0.99463 0.61862 0.56574 0.0
C1236 C 0.99003 0.6493 0.58554 0.0
C1237 C 0.64822 0.7435 0.85228 0.0
C1238 C 0.62827 0.76818 0.84738 0.0
C1239 C 0.67525 0.74137 0.83302 0.0
C1240 C 0.68378 0.76452 0.80885 0.0
H1241 H 0.6431 0.72596 0.8714 0.0
H1242 H 0.69049 0.72263 0.83831 0.0
S1243 S 0.6393 0.83381 0.78631 0.0
N1244 N 0.61827 0.81555 0.81593 0.0
N1245 N 0.66978 0.8125 0.78067 0.0
C1246 C 0.66372 0.78898 0.80338 0.0
C1247 C 0.63575 0.79054 0.8224 0.0
C1248 C 0.48371 0.52797 0.65861 0.0
C1249 C 0.45785 0.54678 0.66005 0.0
C1250 C 0.50523 0.53018 0.63264 0.0
C1251 C 0.50215 0.55166 0.60723 0.0
H1252 H 0.48718 0.51093 0.67751 0.0
H1253 H 0.52434 0.5147 0.63229 0.0
S1254 S 0.43931 0.60671 0.59899 0.0
N1255 N 0.43085 0.58804 0.6334 0.0
N1256 N 0.47147 0.59205 0.58473 0.0
C1257 C 0.47674 0.57084 0.60827 0.0
C1258 C 0.45457 0.56845 0.63464 0.0
C1259 C 0.82885 0.22975 0.94 0.0
C1260 C 0.8021 0.22658 0.96035 0.0
C1261 C 0.82705 0.24307 0.90917 0.0
C1262 C 0.79869 0.25419 0.89809 0.0
H1263 H 0.85062 0.22015 0.94706 0.0
H1264 H 0.84754 0.24346 0.89342 0.0
S1265 S 0.72343 0.2551 0.944 0.0
N1266 N 0.74749 0.23829 0.96859 0.0
N1267 N 0.74436 0.26388 0.91102 0.0
C1268 C 0.77264 0.25333 0.91921 0.0
C1269 C 0.77428 0.23933 0.95029 0.0
C1270 C 0.05345 0.4624 0.14811 0.0
C1271 C 0.08582 0.48011 0.15318 0.0
C1272 C 0.03305 0.47019 0.12268 0.0
C1273 C 0.0442 0.49663 0.10237 0.0
H1274 H 0.04365 0.44312 0.1644 0.0
H1275 H 0.00822 0.4561 0.1195 0.0
S1276 S 0.12638 0.55247 0.10773 0.0
N1277 N 0.12798 0.5253 0.1362 0.0
N1278 N 0.08926 0.54168 0.09052 0.0
C1279 C 0.07651 0.51458 0.10755 0.0
C1280 C 0.09748 0.50579 0.13238 0.0
C1281 C 0.80714 0.85734 0.42393 0.0
C1282 C 0.78426 0.84246 0.44577 0.0
C1283 C 0.80736 0.84331 0.39072 0.0
C1284 C 0.78429 0.81416 0.37762 0.0
H1285 H 0.82517 0.88011 0.43256 0.0
H1286 H 0.82531 0.856 0.375 0.0
S1287 S 0.71946 0.76492 0.42446 0.0
N1288 N 0.7384 0.79629 0.45197 0.0
N1289 N 0.73826 0.77035 0.38962 0.0
C1290 C 0.76139 0.79885 0.39927 0.0
C1291 C 0.76153 0.81282 0.43326 0.0
C1292 C 0.47121 0.52659 0.83739 0.0
C1293 C 0.43712 0.52233 0.83312 0.0
C1294 C 0.48611 0.51912 0.8668 0.0
C1295 C 0.46754 0.50753 0.89328 0.0
H1296 H 0.48659 0.53561 0.8178 0.0
H1297 H 0.51246 0.52333 0.86907 0.0
S1298 S 0.37745 0.49129 0.89464 0.0
N1299 N 0.38517 0.50481 0.85783 0.0
N1300 N 0.41327 0.4915 0.91318 0.0
C1301 C 0.43347 0.50288 0.88932 0.0
C1302 C 0.41825 0.5101 0.85924 0.0
C1303 C 0.83037 0.23513 0.15155 0.0
C1304 C 0.81171 0.24041 0.12362 0.0
C1305 C 0.828 0.25353 0.18238 0.0
C1306 C 0.8072 0.27807 0.18624 0.0
H1307 H 0.84543 0.21522 0.15011 0.0
H1308 H 0.84112 0.24707 0.20379 0.0
S1309 S 0.75661 0.30507 0.12039 0.0
N1310 N 0.77429 0.2748 0.10126 0.0
N1311 N 0.76991 0.30904 0.15962 0.0
C1312 C 0.79016 0.2854 0.15831 0.0
C1313 C 0.79246 0.26667 0.12683 0.0
C1314 C 0.06176 0.48745 0.33091 0.0
C1315 C 0.07825 0.51608 0.31592 0.0
C1316 C 0.04747 0.49225 0.36131 0.0
C1317 C 0.04957 0.52578 0.37772 0.0
H1318 H 0.06111 0.46106 0.31986 0.0
H1319 H 0.03644 0.46946 0.37289 0.0
S1320 S 0.08575 0.60955 0.34683 0.0
N1321 N 0.09244 0.57938 0.31802 0.0
N1322 N 0.06595 0.58819 0.37542 0.0
C1323 C 0.06392 0.55471 0.36199 0.0
C1324 C 0.07818 0.54992 0.33094 0.0
C1325 C 0.7985 0.80736 0.633 0.0
C1326 C 0.78051 0.83423 0.62998 0.0
C1327 C 0.79619 0.78792 0.66066 0.0
C1328 C 0.77579 0.79431 0.6867 0.0
H1329 H 0.81457 0.80119 0.61378 0.0
H1330 H 0.81057 0.76751 0.66155 0.0
S1331 S 0.72165 0.85994 0.69012 0.0
N1332 N 0.74051 0.8653 0.65526 0.0
N1333 N 0.73615 0.82856 0.70694 0.0
C1334 C 0.75759 0.82102 0.68411 0.0
C1335 C 0.75994 0.84095 0.65588 0.0
C1336 C 0.70613 0.50343 0.50807 0.0
C1337 C 0.71062 0.47806 0.52938 0.0
C1338 C 0.6837 0.52566 0.51472 0.0
C1339 C 0.66478 0.52306 0.54273 0.0
H1340 H 0.71894 0.50512 0.48531 0.0
H1341 H 0.67949 0.54324 0.49654 0.0
S1342 S 0.67082 0.46458 0.6089 0.0
N1343 N 0.69711 0.45458 0.58176 0.0
N1344 N 0.65492 0.4961 0.59407 0.0
C1345 C 0.67112 0.49996 0.56572 0.0
C1346 C 0.69397 0.47738 0.559 0.0
C1347 C 0.15844 0.10643 0.51883 0.0
C1348 C 0.18335 0.09322 0.50211 0.0
C1349 C 0.12717 0.0864 0.51967 0.0
C1350 C 0.11925 0.05243 0.5034 0.0
H1351 H 0.16299 0.13265 0.53125 0.0
H1352 H 0.10883 0.09809 0.53246 0.0
S1353 S 0.17596 0.00478 0.45757 0.0
N1354 N 0.19829 0.04319 0.47023 0.0
N1355 N 0.13933 0.00585 0.47131 0.0
C1356 C 0.14408 0.03853 0.48729 0.0
C1357 C 0.17613 0.0588 0.48673 0.0
C1358 C 0.24164 0.93109 0.80657 0.0
C1359 C 0.21196 0.93241 0.78956 0.0
C1360 C 0.25775 0.9025 0.80058 0.0
C1361 C 0.24502 0.87408 0.77711 0.0
H1362 H 0.25228 0.95205 0.82511 0.0
H1363 H 0.27994 0.90235 0.8151 0.0
S1364 S 0.16905 0.86593 0.72412 0.0
N1365 N 0.17129 0.90335 0.74713 0.0
N1366 N 0.20143 0.85031 0.73552 0.0
C1367 C 0.21578 0.87566 0.75927 0.0
C1368 C 0.19932 0.90456 0.76557 0.0
C1369 C 0.38275 0.98547 0.03271 0.0
C1370 C 0.36967 0.95718 0.00951 0.0
C1371 C 0.41632 0.99794 0.03594 0.0
C1372 C 0.43787 0.98291 0.01571 0.0
H1373 H 0.36702 0.9978 0.04881 0.0
H1374 H 0.42534 0.01988 0.0541 0.0
S1375 S 0.4157 0.90839 0.9508 0.0
N1376 N 0.38068 0.91447 0.96587 0.0
N1377 N 0.44378 0.93816 0.97169 0.0
C1378 C 0.42506 0.95472 0.99222 0.0
C1379 C 0.39093 0.94178 0.98921 0.0
C1380 C 0.82522 0.60307 0.80512 0.0
C1381 C 0.84225 0.59352 0.77744 0.0
C1382 C 0.80045 0.62241 0.80205 0.0
C1383 C 0.79184 0.63276 0.77123 0.0
H1384 H 0.83222 0.59727 0.82967 0.0
H1385 H 0.78992 0.63191 0.8244 0.0
S1386 S 0.82493 0.60928 0.69029 0.0
N1387 N 0.84567 0.59164 0.71745 0.0
N1388 N 0.79899 0.62838 0.71186 0.0
C1389 C 0.8062 0.62035 0.74283 0.0
C1390 C 0.83164 0.60074 0.74593 0.0
C1391 C 0.87816 0.61221 0.99565 0.0
C1392 C 0.84769 0.59888 0.00755 0.0
C1393 C 0.90444 0.5945 0.99787 0.0
C1394 C 0.90156 0.56282 0.01237 0.0
H1395 H 0.88193 0.63676 0.98473 0.0
H1396 H 0.92744 0.60621 0.98863 0.0
S1397 S 0.82679 0.51581 0.04617 0.0
N1398 N 0.81586 0.55114 0.03337 0.0
N1399 N 0.86551 0.51818 0.03784 0.0
C1400 C 0.87114 0.54876 0.02384 0.0
C1401 C 0.84417 0.5667 0.02135 0.0
C1402 C 0.24793 0.13195 0.82319 0.0
C1403 C 0.2183 0.11949 0.80497 0.0
C1404 C 0.26661 0.16467 0.81872 0.0
C1405 C 0.25667 0.18571 0.79534 0.0
H1406 H 0.25672 0.11633 0.84102 0.0
H1407 H 0.28928 0.17323 0.83327 0.0
S1408 S 0.18193 0.16371 0.73981 0.0
N1409 N 0.18017 0.13042 0.76228 0.0
N1410 N 0.21583 0.19071 0.75275 0.0
C1411 C 0.22723 0.17325 0.77675 0.0
C1412 C 0.20791 0.14046 0.78186 0.0
C1413 C 0.33437 0.93901 0.28186 0.0
C1414 C 0.36637 0.94516 0.29589 0.0
C1415 C 0.31478 0.90605 0.28042 0.0
C1416 C 0.32635 0.87834 0.29346 0.0
H1417 H 0.32449 0.95965 0.27134 0.0
H1418 H 0.29065 0.902 0.26844 0.0
S1419 S 0.40859 0.87992 0.33104 0.0
N1420 N 0.40899 0.92034 0.32219 0.0
N1421 N 0.37172 0.85828 0.31974 0.0
C1422 C 0.35796 0.88407 0.30807 0.0
C1423 C 0.37813 0.91758 0.30924 0.0
C1424 C 0.5717 0.39386 0.59298 0.0
C1425 C 0.547 0.36431 0.59174 0.0
C1426 C 0.56804 0.42224 0.57548 0.0
C1427 C 0.53932 0.42256 0.55628 0.0
H1428 H 0.59392 0.39536 0.608 0.0
H1429 H 0.58763 0.44462 0.5781 0.0
S1430 S 0.46811 0.35038 0.5431 0.0
N1431 N 0.4935 0.33604 0.56828 0.0
N1432 N 0.48643 0.38967 0.5357 0.0
C1433 C 0.5148 0.39265 0.55398 0.0
C1434 C 0.5187 0.36349 0.57159 0.0
C1435 C 0.38927 0.75497 0.34145 0.0
C1436 C 0.41446 0.73914 0.32843 0.0
C1437 C 0.36342 0.7605 0.32097 0.0
C1438 C 0.3613 0.74978 0.28676 0.0
H1439 H 0.39022 0.76467 0.36742 0.0
H1440 H 0.3454 0.77412 0.33201 0.0
S1441 S 0.41957 0.70452 0.24083 0.0
N1442 N 0.43491 0.71125 0.27942 0.0
N1443 N 0.38567 0.72076 0.24107 0.0
C1444 C 0.38553 0.73255 0.27363 0.0
C1445 C 0.41224 0.7274 0.29443 0.0
C1446 C 0.07022 0.69059 0.08059 0.0
C1447 C 0.04709 0.69751 0.10374 0.0
C1448 C 0.06865 0.65707 0.06401 0.0
C1449 C 0.04358 0.62955 0.06963 0.0
H1450 H 0.08968 0.71122 0.07521 0.0
H1451 H 0.08661 0.65293 0.0461 0.0
S1452 S 0.9783 0.63327 0.12925 0.0
N1453 N 0.99936 0.67334 0.13242 0.0
N1454 N 0.99627 0.61086 0.10133 0.0
C1455 C 0.02078 0.63599 0.09321 0.0
C1456 C 0.02255 0.66982 0.11023 0.0
C1457 C 0.09352 0.27612 0.79858 0.0
C1458 C 0.08176 0.24992 0.81899 0.0
C1459 C 0.12338 0.27688 0.78352 0.0
C1460 C 0.14293 0.25199 0.78904 0.0
H1461 H 0.07993 0.29673 0.79489 0.0
H1462 H 0.132 0.29821 0.76896 0.0
S1463 S 0.12237 0.17659 0.83839 0.0
N1464 N 0.09105 0.197 0.84193 0.0
N1465 N 0.14766 0.1992 0.81455 0.0
C1466 C 0.13094 0.22489 0.80829 0.0
C1467 C 0.1002 0.22364 0.82302 0.0
C1468 C 0.55352 0.68898 0.99037 0.0
C1469 C 0.53409 0.69246 0.96224 0.0
C1470 C 0.54797 0.65862 0.00703 0.0
C1471 C 0.52262 0.63065 0.99629 0.0
H1472 H 0.57387 0.70938 0.99899 0.0
H1473 H 0.56462 0.65648 0.02746 0.0
S1474 S 0.46207 0.62869 0.92651 0.0
N1475 N 0.48668 0.66657 0.92625 0.0
N1476 N 0.47589 0.61008 0.95761 0.0
C1477 C 0.50188 0.63475 0.96934 0.0
C1478 C 0.50771 0.66544 0.95227 0.0
C1479 C 0.12475 0.76853 0.66811 0.0
C1480 C 0.095 0.75581 0.68175 0.0
C1481 C 0.15421 0.76236 0.68152 0.0
C1482 C 0.15517 0.74301 0.70899 0.0
H1483 H 0.12545 0.78412 0.64732 0.0
H1484 H 0.17654 0.7738 0.67081 0.0
S1485 S 0.08394 0.7013 0.75222 0.0
N1486 N 0.06808 0.72102 0.72306 0.0
N1487 N 0.12371 0.70936 0.74825 0.0
C1488 C 0.12557 0.72883 0.72208 0.0
C1489 C 0.09543 0.73533 0.70852 0.0
C1490 C 0.07272 0.38684 0.49019 0.0
C1491 C 0.05453 0.37672 0.46001 0.0
C1492 C 0.06971 0.41762 0.50956 0.0
C1493 C 0.0484 0.43914 0.49936 0.0
H1494 H 0.08919 0.37077 0.49899 0.0
H1495 H 0.08396 0.4245 0.53278 0.0
S1496 S 0.99182 0.42147 0.42505 0.0
N1497 N 0.01267 0.38933 0.42218 0.0
N1498 N 1.00633 0.44622 0.45927 0.0
C1499 C 0.02962 0.42892 0.46969 0.0
C1500 C 0.03288 0.39791 0.4498 0.0
C1501 C 0.42896 0.30275 0.21684 0.0
C1502 C 0.42684 0.27933 0.18791 0.0
C1503 C 0.40185 0.30418 0.23645 0.0
C1504 C 0.37199 0.28169 0.22812 0.0
H1505 H 0.45169 0.32012 0.22438 0.0
H1506 H 0.40444 0.32248 0.25849 0.0
S1507 S 0.35287 0.21742 0.1538 0.0
N1508 N 0.39161 0.2345 0.15127 0.0
N1509 N 0.3413 0.23697 0.18795 0.0
C1510 C 0.36946 0.25869 0.19899 0.0
C1511 C 0.39671 0.25753 0.17895 0.0
C1512 C 0.56886 0.5132 0.37914 0.0
C1513 C 0.60057 0.50599 0.38289 0.0
C1514 C 0.54761 0.51123 0.40538 0.0
C1515 C 0.5572 0.50208 0.43648 0.0
H1516 H 0.56051 0.52096 0.35586 0.0
H1517 H 0.52362 0.51749 0.40144 0.0
S1518 S 0.63493 0.47403 0.45718 0.0
N1519 N 0.63894 0.48527 0.41904 0.0
N1520 N 0.59886 0.48143 0.46821 0.0
C1521 C 0.58831 0.49357 0.44027 0.0
C1522 C 0.61001 0.49556 0.41352 0.0
C1523 C 0.27561 0.87617 0.11767 0.0
C1524 C 0.27587 0.85922 0.08568 0.0
C1525 C 0.27792 0.85838 0.14562 0.0
C1526 C 0.28108 0.82312 0.14266 0.0
H1527 H 0.27332 0.90338 0.12123 0.0
H1528 H 0.27743 0.87254 0.16979 0.0
S1529 S 0.28326 0.76677 0.06459 0.0
N1530 N 0.27943 0.80508 0.05247 0.0
N1531 N 0.28435 0.77166 0.10554 0.0
C1532 C 0.28162 0.80576 0.11094 0.0
C1533 C 0.2788 0.82382 0.08227 0.0
C1534 C 0.99991 0.57849 0.88911 0.0
C1535 C 0.96789 0.55963 0.88387 0.0
C1536 C 0.01977 0.5737 0.91633 0.0
C1537 C 0.00837 0.54955 0.93876 0.0
H1538 H 0.01006 0.59612 0.87149 0.0
H1539 H 0.04446 0.58822 0.91925 0.0
S1540 S 0.92603 0.49425 0.9363 0.0
N1541 N 0.92517 0.51744 0.9045 0.0
N1542 N 0.96288 0.50676 0.95376 0.0
C1543 C 0.97615 0.53119 0.93406 0.0
C1544 C 0.95577 0.53679 0.90713 0.0
C1545 C 0.25054 0.22382 0.60867 0.0
C1546 C 0.27615 0.20728 0.59769 0.0
C1547 C 0.25017 0.2381 0.64187 0.0
C1548 C 0.27584 0.2372 0.66501 0.0
H1549 H 0.23029 0.22503 0.59171 0.0
H1550 H 0.22979 0.25017 0.64937 0.0
S1551 S 0.34901 0.19757 0.64835 0.0
N1552 N 0.32786 0.19109 0.61254 0.0
N1553 N 0.32769 0.21844 0.67423 0.0
C1554 C 0.30181 0.22119 0.65404 0.0
C1555 C 0.30183 0.20611 0.6206 0.0
C1556 C 0.58803 0.54216 0.20894 0.0
C1557 C 0.61987 0.53486 0.21057 0.0
C1558 C 0.57352 0.5489 0.179 0.0
C1559 C 0.59021 0.54852 0.14943 0.0
H1560 H 0.574 0.54239 0.23093 0.0
H1561 H 0.54873 0.55357 0.1789 0.0
S1562 S 0.67458 0.53242 0.14035 0.0
N1563 N 0.66802 0.52895 0.17994 0.0
N1564 N 0.64076 0.54142 0.12385 0.0
C1565 C 0.62229 0.54202 0.15081 0.0
C1566 C 0.63709 0.53523 0.18129 0.0
C1567 C 0.22756 0.83002 0.90767 0.0
C1568 C 0.25492 0.85627 0.91593 0.0
C1569 C 0.22696 0.80573 0.8799 0.0
C1570 C 0.25393 0.80641 0.85988 0.0
H1571 H 0.20639 0.82845 0.92256 0.0
H1572 H 0.20502 0.78655 0.87387 0.0
S1573 S 0.33277 0.86784 0.8733 0.0
N1574 N 0.31031 0.8804 0.90318 0.0
N1575 N 0.30952 0.83415 0.85191 0.0
C1576 C 0.28182 0.8318 0.8687 0.0
C1577 C 0.28219 0.85694 0.89647 0.0
C1578 C 0.99447 0.51377 0.70724 0.0
C1579 C 0.99077 0.5464 0.72263 0.0
C1580 C 0.00767 0.51091 0.67624 0.0
C1581 C 0.0182 0.54058 0.65983 0.0
H1582 H 0.98496 0.48992 0.71798 0.0
H1583 H 0.00796 0.48505 0.6643 0.0
S1584 S 0.02109 0.63255 0.69295 0.0
N1585 N 1.00341 0.60942 0.72165 0.0
N1586 N 0.02962 0.60396 0.6635 0.0
C1587 C 0.01823 0.57364 0.67651 0.0
C1588 C 1.00409 0.57657 0.70795 0.0
C1589 C 0.26659 0.20777 0.38938 0.0
C1590 C 0.28889 0.21604 0.41698 0.0
C1591 C 0.27022 0.2265 0.3613 0.0
C1592 C 0.29647 0.25422 0.35936 0.0
H1593 H 0.24589 0.1868 0.38952 0.0
H1594 H 0.25203 0.21931 0.34104 0.0
S1595 S 0.36238 0.28572 0.42431 0.0
N1596 N 0.33866 0.25359 0.44018 0.0
N1597 N 0.34558 0.28845 0.38742 0.0
C1598 C 0.31921 0.26248 0.38656 0.0
C1599 C 0.3154 0.24353 0.4153 0.0
C1600 C 0.37456 0.57299 0.50535 0.0
C1601 C 0.35949 0.5764 0.53565 0.0
C1602 C 0.39478 0.54846 0.49934 0.0
C1603 C 0.40133 0.52701 0.52375 0.0
H1604 H 0.37097 0.58965 0.48614 0.0
H1605 H 0.4069 0.54788 0.47613 0.0
S1606 S 0.3662 0.52399 0.60643 0.0
N1607 N 0.35046 0.55451 0.58944 0.0
N1608 N 0.38996 0.50937 0.57872 0.0
C1609 C 0.38556 0.52923 0.55374 0.0
C1610 C 0.36424 0.55371 0.55956 0.0
C1611 C 0.89199 0.97731 0.57808 0.0
C1612 C 0.88101 0.95202 0.55138 0.0
C1613 C 0.9231 0.99823 0.5789 0.0
C1614 C 0.94411 0.99533 0.55268 0.0
H1615 H 0.87677 0.98039 0.59888 0.0
H1616 H 0.93086 0.01662 0.60049 0.0
S1617 S 0.92545 0.93537 0.47547 0.0
N1618 N 0.89284 0.92643 0.49725 0.0
N1619 N 0.95053 0.96658 0.49825 0.0
C1620 C 0.93282 0.97109 0.52524 0.0
C1621 C 0.90149 0.94921 0.52475 0.0
C1622 C 0.85459 0.14591 0.2769 0.0
C1623 C 0.84324 0.11751 0.25313 0.0
C1624 C 0.83762 0.17369 0.28229 0.0
C1625 C 0.80841 0.17462 0.26415 0.0
H1626 H 0.87697 0.14687 0.29149 0.0
H1627 H 0.84797 0.19494 0.30067 0.0
S1628 S 0.76789 0.10638 0.19901 0.0
N1629 N 0.8005 0.09168 0.2115 0.0
N1630 N 0.76878 0.14399 0.22139 0.0
C1631 C 0.79643 0.14606 0.2406 0.0
C1632 C 0.81378 0.1176 0.23514 0.0
C1633 C 0.68993 0.09878 0.06319 0.0
C1634 C 0.70555 0.10973 0.0348 0.0
C1635 C 0.65703 0.08292 0.06135 0.0
C1636 C 0.63858 0.07756 0.03104 0.0
H1637 H 0.70318 0.10252 0.08705 0.0
H1638 H 0.6461 0.07471 0.08385 0.0
S1639 S 0.66783 0.1036 0.94975 0.0
N1640 N 0.69996 0.11523 0.97569 0.0
N1641 N 0.63827 0.08588 0.97216 0.0
C1642 C 0.65396 0.08874 1.0025 0.0
C1643 C 0.68741 0.10469 1.00437 0.0
C1644 C 0.21145 0.43212 0.29752 0.0
C1645 C 0.21225 0.4477 0.2676 0.0
C1646 C 0.23666 0.41548 0.30732 0.0
C1647 C 0.26342 0.41389 0.28745 0.0
H1648 H 0.19057 0.43141 0.31277 0.0
H1649 H 0.23387 0.40153 0.32923 0.0
S1650 S 0.28023 0.45671 0.21047 0.0
N1651 N 0.2443 0.46507 0.22081 0.0
N1652 N 0.29169 0.43369 0.23939 0.0
C1653 C 0.26596 0.43218 0.2592 0.0
C1654 C 0.24025 0.44897 0.2491 0.0
C1655 C 0.17689 0.43953 0.0469 0.0
C1656 C 0.20662 0.45208 0.03305 0.0
C1657 C 0.15032 0.45689 0.04492 0.0
C1658 C 0.15214 0.48759 0.02892 0.0
H1659 H 0.17388 0.41579 0.05915 0.0
H1660 H 0.12793 0.44574 0.05569 0.0
S1661 S 0.22484 0.53263 0.99005 0.0
N1662 N 0.23666 0.49819 1.00384 0.0
N1663 N 0.18658 0.53063 1.00003 0.0
C1664 C 0.18186 0.50095 0.01553 0.0
C1665 C 0.20908 0.48325 0.0176 0.0
C1666 C 0.84156 0.90677 0.22906 0.0
C1667 C 0.83233 0.93789 0.24253 0.0
C1668 C 0.82302 0.87395 0.23352 0.0
C1669 C 0.79469 0.87114 0.25155 0.0
H1670 H 0.86345 0.90773 0.21532 0.0
H1671 H 0.83044 0.85078 0.22206 0.0
S1672 S 0.75895 0.94429 0.2904 0.0
N1673 N 0.79204 0.96342 0.27363 0.0
N1674 N 0.75754 0.90201 0.28181 0.0
C1675 C 0.78477 0.90195 0.26434 0.0
C1676 C 0.80355 0.93523 0.25999 0.0
C1677 C 0.71316 0.10533 0.76707 0.0
C1678 C 0.68685 0.0959 0.74353 0.0
C1679 C 0.7329 0.13824 0.76912 0.0
C1680 C 0.72721 0.1629 0.74761 0.0
H1681 H 0.71866 0.08715 0.7841 0.0
H1682 H 0.75286 0.1443 0.78768 0.0
S1683 S 0.66052 0.15174 0.68251 0.0
N1684 N 0.65557 0.11412 0.69876 0.0
N1685 N 0.69268 0.17623 0.7027 0.0
C1686 C 0.70089 0.15394 0.72397 0.0
C1687 C 0.68071 0.12036 0.72195 0.0
loop_
_geom_bond_atom_site_label_1
_geom_bond_atom_site_label_2
_geom_bond_distance
_geom_bond_site_symmetry_2
_ccdc_geom_bond_type
In0 O1 2.294 . S
In0 O2 2.326 . S
In0 O6 2.243 1_455 S
In0 O7 2.326 1_455 S
In0 O8 2.266 . S
In0 O9 2.326 . S
In0 O11 2.294 . S
In0 O12 2.326 . S
O1 In0 2.294 . S
O1 C10 1.240 . S
O2 In0 2.326 . S
O2 C10 1.252 . S
C3 O6 1.282 . S
C3 O7 1.260 . S
C4 O11 1.240 . S
C4 O12 1.252 . S
C5 O8 1.252 . S
C5 O9 1.260 . S
O6 In0 2.243 1_655 S
O6 C3 1.282 . S
O7 In0 2.326 1_655 S
O7 C3 1.260 . S
O8 In0 2.266 . S
O8 C5 1.252 . S
O9 In0 2.326 . S
O9 C5 1.260 . S
C10 O1 1.240 . S
C10 O2 1.252 . S
O11 In0 2.294 . S
O11 C4 1.240 . S
O12 In0 2.326 . S
O12 C4 1.252 . S
In13 O14 2.294 . S
In13 O15 2.326 . S
In13 O19 2.265 1_455 S
In13 O20 2.326 . S
In13 O21 2.266 1_455 S
In13 O22 2.326 1_455 S
In13 O24 2.294 . S
In13 O25 2.326 . S
O14 In13 2.294 . S
O14 C23 1.240 . S
O15 In13 2.326 . S
O15 C23 1.252 . S
C16 O19 1.250 . S
C16 O20 1.260 1_655 S
C17 O24 1.240 . S
C17 O25 1.252 . S
C18 O21 1.252 . S
C18 O22 1.260 . S
O19 In13 2.265 1_655 S
O19 C16 1.250 . S
O20 In13 2.326 . S
O20 C16 1.260 1_455 S
O21 In13 2.266 1_655 S
O21 C18 1.252 . S
O22 In13 2.326 1_655 S
O22 C18 1.260 . S
C23 O14 1.240 . S
C23 O15 1.252 . S
O24 In13 2.294 . S
O24 C17 1.240 . S
O25 In13 2.326 . S
O25 C17 1.252 . S
In26 O27 2.294 . S
In26 O28 2.326 . S
In26 O32 2.266 . S
In26 O33 2.326 . S
In26 O34 2.266 . S
In26 O35 2.326 . S
In26 O37 2.294 . S
In26 O38 2.326 . S
O27 In26 2.294 . S
O27 C36 1.240 . S
O28 In26 2.326 . S
O28 C36 1.252 . S
C29 O32 1.252 . S
C29 O33 1.260 . S
C30 O37 1.240 . S
C30 O38 1.252 . S
C31 O34 1.252 . S
C31 O35 1.260 . S
O32 In26 2.266 . S
O32 C29 1.252 . S
O33 In26 2.326 . S
O33 C29 1.260 . S
O34 In26 2.266 . S
O34 C31 1.252 . S
O35 In26 2.326 . S
O35 C31 1.260 . S
C36 O27 1.240 . S
C36 O28 1.252 . S
O37 In26 2.294 . S
O37 C30 1.240 . S
O38 In26 2.326 . S
O38 C30 1.252 . S
In39 O40 2.294 . S
In39 O41 2.326 . S
In39 O45 2.266 . S
In39 O46 2.326 . S
In39 O47 2.266 . S
In39 O48 2.326 . S
In39 O50 2.294 . S
In39 O51 2.326 . S
O40 In39 2.294 . S
O40 C49 1.240 . S
O41 In39 2.326 . S
O41 C49 1.252 . S
C42 O45 1.252 . S
C42 O46 1.260 . S
C43 O50 1.240 . S
C43 O51 1.252 . S
C44 O47 1.252 . S
C44 O48 1.260 . S
O45 In39 2.266 . S
O45 C42 1.252 . S
O46 In39 2.326 . S
O46 C42 1.260 . S
O47 In39 2.266 . S
O47 C44 1.252 . S
O48 In39 2.326 . S
O48 C44 1.260 . S
C49 O40 1.240 . S
C49 O41 1.252 . S
O50 In39 2.294 . S
O50 C43 1.240 . S
O51 In39 2.326 . S
O51 C43 1.252 . S
In52 O53 2.294 . S
In52 O54 2.326 . S
In52 O58 2.266 . S
In52 O59 2.326 . S
In52 O60 2.266 . S
In52 O61 2.326 . S
In52 O63 2.294 . S
In52 O64 2.326 1_455 S
O53 In52 2.294 . S
O53 C62 1.240 . S
O54 In52 2.326 . S
O54 C62 1.252 . S
C55 O58 1.252 . S
C55 O59 1.260 . S
C56 O63 1.240 1_655 S
C56 O64 1.252 . S
C57 O60 1.252 . S
C57 O61 1.260 . S
O58 In52 2.266 . S
O58 C55 1.252 . S
O59 In52 2.326 . S
O59 C55 1.260 . S
O60 In52 2.266 . S
O60 C57 1.252 . S
O61 In52 2.326 . S
O61 C57 1.260 . S
C62 O53 1.240 . S
C62 O54 1.252 . S
O63 In52 2.294 . S
O63 C56 1.240 1_455 S
O64 In52 2.326 1_655 S
O64 C56 1.252 . S
In65 O66 2.294 . S
In65 O67 2.326 . S
In65 O71 2.266 . S
In65 O72 2.326 . S
In65 O73 2.266 . S
In65 O74 2.326 . S
In65 O76 2.294 . S
In65 O77 2.326 . S
O66 In65 2.294 . S
O66 C75 1.240 . S
O67 In65 2.326 . S
O67 C75 1.252 . S
C68 O71 1.252 . S
C68 O72 1.260 . S
C69 O76 1.240 . S
C69 O77 1.252 . S
C70 O73 1.252 . S
C70 O74 1.260 . S
O71 In65 2.266 . S
O71 C68 1.252 . S
O72 In65 2.326 . S
O72 C68 1.260 . S
O73 In65 2.266 . S
O73 C70 1.252 . S
O74 In65 2.326 . S
O74 C70 1.260 . S
C75 O66 1.240 . S
C75 O67 1.252 . S
O76 In65 2.294 . S
O76 C69 1.240 . S
O77 In65 2.326 . S
O77 C69 1.252 . S
In78 O79 2.294 . S
In78 O80 2.326 . S
In78 O84 2.266 . S
In78 O85 2.326 . S
In78 O86 2.266 . S
In78 O87 2.326 . S
In78 O89 2.294 . S
In78 O90 2.326 . S
O79 In78 2.294 . S
O79 C88 1.240 . S
O80 In78 2.326 . S
O80 C88 1.252 . S
C81 O84 1.252 . S
C81 O85 1.260 . S
C82 O89 1.240 . S
C82 O90 1.252 . S
C83 O86 1.252 . S
C83 O87 1.260 . S
O84 In78 2.266 . S
O84 C81 1.252 . S
O85 In78 2.326 . S
O85 C81 1.260 . S
O86 In78 2.266 . S
O86 C83 1.252 . S
O87 In78 2.326 . S
O87 C83 1.260 . S
C88 O79 1.240 . S
C88 O80 1.252 . S
O89 In78 2.294 . S
O89 C82 1.240 . S
O90 In78 2.326 . S
O90 C82 1.252 . S
In91 O92 2.294 . S
In91 O93 2.326 . S
In91 O97 2.266 . S
In91 O98 2.326 . S
In91 O99 2.266 1_455 S
In91 O100 2.326 1_455 S
In91 O102 2.294 . S
In91 O103 2.326 . S
O92 In91 2.294 . S
O92 C101 1.240 . S
O93 In91 2.326 . S
O93 C101 1.252 . S
C94 O97 1.252 . S
C94 O98 1.260 . S
C95 O102 1.240 . S
C95 O103 1.252 . S
C96 O99 1.252 . S
C96 O100 1.260 . S
O97 In91 2.266 . S
O97 C94 1.252 . S
O98 In91 2.326 . S
O98 C94 1.260 . S
O99 In91 2.266 1_655 S
O99 C96 1.252 . S
O100 In91 2.326 1_655 S
O100 C96 1.260 . S
C101 O92 1.240 . S
C101 O93 1.252 . S
O102 In91 2.294 . S
O102 C95 1.240 . S
O103 In91 2.326 . S
O103 C95 1.252 . S
In104 O105 2.294 . S
In104 O106 2.326 . S
In104 O110 2.266 . S
In104 O111 2.326 . S
In104 O112 2.266 1_545 S
In104 O113 2.326 1_545 S
In104 O115 2.294 . S
In104 O116 2.326 . S
O105 In104 2.294 . S
O105 C114 1.240 . S
O106 In104 2.326 . S
O106 C114 1.252 . S
C107 O110 1.252 . S
C107 O111 1.260 . S
C108 O115 1.240 . S
C108 O116 1.252 . S
C109 O112 1.252 . S
C109 O113 1.260 . S
O110 In104 2.266 . S
O110 C107 1.252 . S
O111 In104 2.326 . S
O111 C107 1.260 . S
O112 In104 2.266 1_565 S
O112 C109 1.252 . S
O113 In104 2.326 1_565 S
O113 C109 1.260 . S
C114 O105 1.240 . S
C114 O106 1.252 . S
O115 In104 2.294 . S
O115 C108 1.240 . S
O116 In104 2.326 . S
O116 C108 1.252 . S
In117 O118 2.294 . S
In117 O119 2.326 . S
In117 O123 2.266 . S
In117 O124 2.326 . S
In117 O125 2.266 . S
In117 O126 2.326 . S
In117 O128 2.294 . S
In117 O129 2.326 . S
O118 In117 2.294 . S
O118 C127 1.240 . S
O119 In117 2.326 . S
O119 C127 1.252 . S
C120 O123 1.252 . S
C120 O124 1.260 . S
C121 O128 1.240 . S
C121 O129 1.252 . S
C122 O125 1.252 . S
C122 O126 1.260 . S
O123 In117 2.266 . S
O123 C120 1.252 . S
O124 In117 2.326 . S
O124 C120 1.260 . S
O125 In117 2.266 . S
O125 C122 1.252 . S
O126 In117 2.326 . S
O126 C122 1.260 . S
C127 O118 1.240 . S
C127 O119 1.252 . S
O128 In117 2.294 . S
O128 C121 1.240 . S
O129 In117 2.326 . S
O129 C121 1.252 . S
In130 O131 2.293 1_545 S
In130 O132 2.325 1_545 S
In130 O136 2.271 . S
In130 O137 2.326 . S
In130 O138 2.285 . S
In130 O139 2.356 . S
In130 O141 2.273 1_545 S
In130 O142 2.296 1_545 S
O131 In130 2.293 1_565 S
O131 C140 1.240 . S
O132 In130 2.325 1_565 S
O132 C140 1.252 . S
C133 O136 1.252 . S
C133 O137 1.260 . S
C134 O141 1.240 . S
C134 O142 1.252 . S
C135 O138 1.252 . S
C135 O139 1.260 . S
O136 In130 2.271 . S
O136 C133 1.252 . S
O137 In130 2.326 . S
O137 C133 1.260 . S
O138 In130 2.285 . S
O138 C135 1.252 . S
O139 In130 2.356 . S
O139 C135 1.260 . S
C140 O131 1.240 . S
C140 O132 1.252 . S
O141 In130 2.273 1_565 S
O141 C134 1.240 . S
O142 In130 2.296 1_565 S
O142 C134 1.252 . S
In143 O144 2.294 . S
In143 O145 2.326 . S
In143 O149 2.266 1_554 S
In143 O150 2.326 1_554 S
In143 O151 2.266 . S
In143 O152 2.326 . S
In143 O154 2.294 . S
In143 O155 2.326 . S
O144 In143 2.294 . S
O144 C153 1.240 . S
O145 In143 2.326 . S
O145 C153 1.252 . S
C146 O149 1.252 . S
C146 O150 1.260 . S
C147 O154 1.240 . S
C147 O155 1.252 . S
C148 O151 1.252 . S
C148 O152 1.260 . S
O149 In143 2.266 1_556 S
O149 C146 1.252 . S
O150 In143 2.326 1_556 S
O150 C146 1.260 . S
O151 In143 2.266 . S
O151 C148 1.252 . S
O152 In143 2.326 . S
O152 C148 1.260 . S
C153 O144 1.240 . S
C153 O145 1.252 . S
O154 In143 2.294 . S
O154 C147 1.240 . S
O155 In143 2.326 . S
O155 C147 1.252 . S
In156 O157 2.294 . S
In156 O158 2.326 . S
In156 O162 2.266 1_554 S
In156 O163 2.326 1_554 S
In156 O164 2.266 . S
In156 O165 2.326 . S
In156 O167 2.294 . S
In156 O168 2.326 . S
O157 In156 2.294 . S
O157 C166 1.240 . S
O158 In156 2.326 . S
O158 C166 1.252 . S
C159 O162 1.252 . S
C159 O163 1.260 . S
C160 O167 1.240 . S
C160 O168 1.252 . S
C161 O164 1.252 . S
C161 O165 1.260 . S
O162 In156 2.266 1_556 S
O162 C159 1.252 . S
O163 In156 2.326 1_556 S
O163 C159 1.260 . S
O164 In156 2.266 . S
O164 C161 1.252 . S
O165 In156 2.326 . S
O165 C161 1.260 . S
C166 O157 1.240 . S
C166 O158 1.252 . S
O167 In156 2.294 . S
O167 C160 1.240 . S
O168 In156 2.326 . S
O168 C160 1.252 . S
In169 O170 2.294 . S
In169 O171 2.326 . S
In169 O175 2.266 1_554 S
In169 O176 2.326 . S
In169 O177 2.266 1_554 S
In169 O178 2.326 1_554 S
In169 O180 2.294 . S
In169 O181 2.326 . S
O170 In169 2.294 . S
O170 C179 1.240 . S
O171 In169 2.326 . S
O171 C179 1.252 . S
C172 O175 1.252 1_554 S
C172 O176 1.261 . S
C173 O180 1.240 . S
C173 O181 1.252 . S
C174 O177 1.252 . S
C174 O178 1.260 . S
O175 In169 2.266 1_556 S
O175 C172 1.252 1_556 S
O176 In169 2.326 . S
O176 C172 1.261 . S
O177 In169 2.266 1_556 S
O177 C174 1.252 . S
O178 In169 2.326 1_556 S
O178 C174 1.260 . S
C179 O170 1.240 . S
C179 O171 1.252 . S
O180 In169 2.294 . S
O180 C173 1.240 . S
O181 In169 2.326 . S
O181 C173 1.252 . S
In182 O183 2.294 . S
In182 O184 2.326 . S
In182 O188 2.266 . S
In182 O189 2.326 . S
In182 O190 2.266 . S
In182 O191 2.326 . S
In182 O193 2.294 . S
In182 O194 2.326 . S
O183 In182 2.294 . S
O183 C192 1.240 . S
O184 In182 2.326 . S
O184 C192 1.252 . S
C185 O188 1.252 . S
C185 O189 1.260 . S
C186 O193 1.240 . S
C186 O194 1.252 . S
C187 O190 1.252 . S
C187 O191 1.260 . S
O188 In182 2.266 . S
O188 C185 1.252 . S
O189 In182 2.326 . S
O189 C185 1.260 . S
O190 In182 2.266 . S
O190 C187 1.252 . S
O191 In182 2.326 . S
O191 C187 1.260 . S
C192 O183 1.240 . S
C192 O184 1.252 . S
O193 In182 2.294 . S
O193 C186 1.240 . S
O194 In182 2.326 . S
O194 C186 1.252 . S
In195 O196 2.294 . S
In195 O197 2.326 . S
In195 O201 2.266 . S
In195 O202 2.326 . S
In195 O203 2.266 . S
In195 O204 2.326 . S
In195 O206 2.294 . S
In195 O207 2.326 . S
O196 In195 2.294 . S
O196 C205 1.240 . S
O197 In195 2.326 . S
O197 C205 1.252 . S
C198 O201 1.252 . S
C198 O202 1.260 . S
C199 O206 1.240 . S
C199 O207 1.252 . S
C200 O203 1.252 . S
C200 O204 1.260 . S
O201 In195 2.266 . S
O201 C198 1.252 . S
O202 In195 2.326 . S
O202 C198 1.260 . S
O203 In195 2.266 . S
O203 C200 1.252 . S
O204 In195 2.326 . S
O204 C200 1.260 . S
C205 O196 1.240 . S
C205 O197 1.252 . S
O206 In195 2.294 . S
O206 C199 1.240 . S
O207 In195 2.326 . S
O207 C199 1.252 . S
In208 O209 2.294 . S
In208 O210 2.326 . S
In208 O214 2.266 . S
In208 O215 2.326 . S
In208 O216 2.266 . S
In208 O217 2.326 1_545 S
In208 O219 2.294 . S
In208 O220 2.326 . S
O209 In208 2.294 . S
O209 C218 1.240 . S
O210 In208 2.326 . S
O210 C218 1.252 . S
C211 O214 1.252 . S
C211 O215 1.260 . S
C212 O219 1.240 . S
C212 O220 1.252 . S
C213 O216 1.252 1_565 S
C213 O217 1.260 . S
O214 In208 2.266 . S
O214 C211 1.252 . S
O215 In208 2.326 . S
O215 C211 1.260 . S
O216 In208 2.266 . S
O216 C213 1.252 1_545 S
O217 In208 2.326 1_565 S
O217 C213 1.260 . S
C218 O209 1.240 . S
C218 O210 1.252 . S
O219 In208 2.294 . S
O219 C212 1.240 . S
O220 In208 2.326 . S
O220 C212 1.252 . S
In221 O222 2.294 . S
In221 O223 2.326 . S
In221 O227 2.266 . S
In221 O228 2.326 . S
In221 O229 2.266 . S
In221 O230 2.326 . S
In221 O232 2.294 . S
In221 O233 2.326 . S
O222 In221 2.294 . S
O222 C231 1.240 . S
O223 In221 2.326 . S
O223 C231 1.252 . S
C224 O227 1.252 . S
C224 O228 1.260 . S
C225 O232 1.240 . S
C225 O233 1.252 . S
C226 O229 1.252 . S
C226 O230 1.260 . S
O227 In221 2.266 . S
O227 C224 1.252 . S
O228 In221 2.326 . S
O228 C224 1.260 . S
O229 In221 2.266 . S
O229 C226 1.252 . S
O230 In221 2.326 . S
O230 C226 1.260 . S
C231 O222 1.240 . S
C231 O223 1.252 . S
O232 In221 2.294 . S
O232 C225 1.240 . S
O233 In221 2.326 . S
O233 C225 1.252 . S
In234 O235 2.294 . S
In234 O236 2.326 . S
In234 O240 2.266 . S
In234 O241 2.326 . S
In234 O242 2.266 . S
In234 O243 2.326 . S
In234 O245 2.294 . S
In234 O246 2.326 . S
O235 In234 2.294 . S
O235 C244 1.240 . S
O236 In234 2.326 . S
O236 C244 1.252 . S
C237 O240 1.252 . S
C237 O241 1.260 . S
C238 O245 1.240 . S
C238 O246 1.252 . S
C239 O242 1.252 . S
C239 O243 1.260 . S
O240 In234 2.266 . S
O240 C237 1.252 . S
O241 In234 2.326 . S
O241 C237 1.260 . S
O242 In234 2.266 . S
O242 C239 1.252 . S
O243 In234 2.326 . S
O243 C239 1.260 . S
C244 O235 1.240 . S
C244 O236 1.252 . S
O245 In234 2.294 . S
O245 C238 1.240 . S
O246 In234 2.326 . S
O246 C238 1.252 . S
In247 O248 2.294 1_545 S
In247 O249 2.326 1_545 S
In247 O253 2.266 . S
In247 O254 2.326 . S
In247 O255 2.266 . S
In247 O256 2.326 . S
In247 O258 2.294 . S
In247 O259 2.326 . S
O248 In247 2.294 1_565 S
O248 C257 1.240 . S
O249 In247 2.326 1_565 S
O249 C257 1.252 . S
C250 O253 1.252 . S
C250 O254 1.260 . S
C251 O258 1.240 . S
C251 O259 1.252 . S
C252 O255 1.252 . S
C252 O256 1.260 . S
O253 In247 2.266 . S
O253 C250 1.252 . S
O254 In247 2.326 . S
O254 C250 1.260 . S
O255 In247 2.266 . S
O255 C252 1.252 . S
O256 In247 2.326 . S
O256 C252 1.260 . S
C257 O248 1.240 . S
C257 O249 1.252 . S
O258 In247 2.294 . S
O258 C251 1.240 . S
O259 In247 2.326 . S
O259 C251 1.252 . S
In260 O261 2.294 . S
In260 O262 2.326 . S
In260 O266 2.266 1_554 S
In260 O267 2.326 . S
In260 O268 2.266 1_554 S
In260 O269 2.326 1_554 S
In260 O271 2.294 . S
In260 O272 2.326 . S
O261 In260 2.294 . S
O261 C270 1.240 . S
O262 In260 2.326 . S
O262 C270 1.252 . S
C263 O266 1.252 1_554 S
C263 O267 1.260 . S
C264 O271 1.240 . S
C264 O272 1.252 . S
C265 O268 1.252 . S
C265 O269 1.260 . S
O266 In260 2.266 1_556 S
O266 C263 1.252 1_556 S
O267 In260 2.326 . S
O267 C263 1.260 . S
O268 In260 2.266 1_556 S
O268 C265 1.252 . S
O269 In260 2.326 1_556 S
O269 C265 1.260 . S
C270 O261 1.240 . S
C270 O262 1.252 . S
O271 In260 2.294 . S
O271 C264 1.240 . S
O272 In260 2.326 . S
O272 C264 1.252 . S
In273 O274 2.294 . S
In273 O275 2.326 . S
In273 O279 2.266 . S
In273 O280 2.326 . S
In273 O281 2.266 . S
In273 O282 2.326 . S
In273 O284 2.294 . S
In273 O285 2.326 . S
O274 In273 2.294 . S
O274 C283 1.240 . S
O275 In273 2.326 . S
O275 C283 1.252 . S
C276 O279 1.252 . S
C276 O280 1.260 . S
C277 O284 1.240 . S
C277 O285 1.252 . S
C278 O281 1.252 . S
C278 O282 1.260 . S
O279 In273 2.266 . S
O279 C276 1.252 . S
O280 In273 2.326 . S
O280 C276 1.260 . S
O281 In273 2.266 . S
O281 C278 1.252 . S
O282 In273 2.326 . S
O282 C278 1.260 . S
C283 O274 1.240 . S
C283 O275 1.252 . S
O284 In273 2.294 . S
O284 C277 1.240 . S
O285 In273 2.326 . S
O285 C277 1.252 . S
In286 O287 2.294 . S
In286 O288 2.326 . S
In286 O292 2.266 . S
In286 O293 2.326 . S
In286 O294 2.266 . S
In286 O295 2.326 . S
In286 O297 2.294 . S
In286 O298 2.326 . S
O287 In286 2.294 . S
O287 C296 1.240 . S
O288 In286 2.326 . S
O288 C296 1.252 . S
C289 O292 1.252 . S
C289 O293 1.260 . S
C290 O297 1.240 . S
C290 O298 1.252 . S
C291 O294 1.252 . S
C291 O295 1.260 . S
O292 In286 2.266 . S
O292 C289 1.252 . S
O293 In286 2.326 . S
O293 C289 1.260 . S
O294 In286 2.266 . S
O294 C291 1.252 . S
O295 In286 2.326 . S
O295 C291 1.260 . S
C296 O287 1.240 . S
C296 O288 1.252 . S
O297 In286 2.294 . S
O297 C290 1.240 . S
O298 In286 2.326 . S
O298 C290 1.252 . S
In299 O300 2.294 . S
In299 O301 2.326 . S
In299 O305 2.266 . S
In299 O306 2.326 . S
In299 O307 2.266 . S
In299 O308 2.326 . S
In299 O310 2.294 . S
In299 O311 2.326 . S
O300 In299 2.294 . S
O300 C309 1.240 . S
O301 In299 2.326 . S
O301 C309 1.252 . S
C302 O305 1.252 . S
C302 O306 1.260 . S
C303 O310 1.240 . S
C303 O311 1.252 . S
C304 O307 1.252 . S
C304 O308 1.260 . S
O305 In299 2.266 . S
O305 C302 1.252 . S
O306 In299 2.326 . S
O306 C302 1.260 . S
O307 In299 2.266 . S
O307 C304 1.252 . S
O308 In299 2.326 . S
O308 C304 1.260 . S
C309 O300 1.240 . S
C309 O301 1.252 . S
O310 In299 2.294 . S
O310 C303 1.240 . S
O311 In299 2.326 . S
O311 C303 1.252 . S
Dy312 O316 2.398 1_554 S
Dy312 O317 2.491 . S
Dy312 O318 2.403 1_654 S
Dy312 O319 2.664 1_654 S
Dy312 O323 2.326 1_654 S
Dy312 O327 2.310 1_655 S
Dy312 O328 2.351 1_645 S
C313 O324 1.185 . S
C313 O325 1.355 . S
C314 O316 1.185 . S
C314 O317 1.355 1_556 S
Dy315 O319 2.310 1_554 S
Dy315 O322 2.351 . S
Dy315 O324 2.398 . S
Dy315 O325 2.491 . S
Dy315 O326 2.403 . S
Dy315 O327 2.664 . S
Dy315 O329 2.326 1_545 S
O316 Dy312 2.398 1_556 S
O316 C314 1.185 . S
O317 Dy312 2.491 . S
O317 C314 1.355 1_554 S
O318 Dy312 2.403 1_456 S
O318 C320 1.254 . S
O319 Dy312 2.664 1_456 S
O319 Dy315 2.310 1_556 S
O319 C320 1.268 . S
C320 O318 1.254 . S
C320 O319 1.268 . S
C321 O326 1.254 . S
C321 O327 1.268 . S
O322 Dy315 2.351 . S
O322 C330 1.249 . S
O323 Dy312 2.326 1_456 S
O323 C330 1.267 1_556 S
O324 C313 1.185 . S
O324 Dy315 2.398 . S
O325 C313 1.355 . S
O325 Dy315 2.491 . S
O326 Dy315 2.403 . S
O326 C321 1.254 . S
O327 Dy312 2.310 1_455 S
O327 Dy315 2.664 . S
O327 C321 1.268 . S
O328 Dy312 2.351 1_465 S
O328 C331 1.249 . S
O329 Dy315 2.326 1_565 S
O329 C331 1.267 . S
C330 O322 1.249 . S
C330 O323 1.267 1_554 S
C331 O328 1.249 . S
C331 O329 1.267 . S
Dy332 O336 2.398 . S
Dy332 O337 2.491 . S
Dy332 O338 2.403 . S
Dy332 O339 2.664 . S
Dy332 O343 2.326 . S
Dy332 O347 2.310 . S
Dy332 O348 2.351 . S
C333 O344 1.185 . S
C333 O345 1.355 . S
C334 O336 1.185 . S
C334 O337 1.355 . S
Dy335 O339 2.310 . S
Dy335 O342 2.351 . S
Dy335 O344 2.398 . S
Dy335 O345 2.491 . S
Dy335 O346 2.403 . S
Dy335 O347 2.664 . S
Dy335 O349 2.326 . S
O336 Dy332 2.398 . S
O336 C334 1.185 . S
O337 Dy332 2.491 . S
O337 C334 1.355 . S
O338 Dy332 2.403 . S
O338 C340 1.254 . S
O339 Dy332 2.664 . S
O339 Dy335 2.310 . S
O339 C340 1.268 . S
C340 O338 1.254 . S
C340 O339 1.268 . S
C341 O346 1.254 . S
C341 O347 1.268 . S
O342 Dy335 2.351 . S
O342 C350 1.249 . S
O343 Dy332 2.326 . S
O343 C350 1.267 . S
O344 C333 1.185 . S
O344 Dy335 2.398 . S
O345 C333 1.355 . S
O345 Dy335 2.491 . S
O346 Dy335 2.403 . S
O346 C341 1.254 . S
O347 Dy332 2.310 . S
O347 Dy335 2.664 . S
O347 C341 1.268 . S
O348 Dy332 2.351 . S
O348 C351 1.249 . S
O349 Dy335 2.326 . S
O349 C351 1.267 . S
C350 O342 1.249 . S
C350 O343 1.267 . S
C351 O348 1.249 . S
C351 O349 1.267 . S
Dy352 O356 2.398 1_545 S
Dy352 O357 2.491 1_545 S
Dy352 O358 2.403 . S
Dy352 O359 2.664 . S
Dy352 O363 2.326 1_545 S
Dy352 O367 2.310 . S
Dy352 O368 2.351 . S
C353 O364 1.185 . S
C353 O365 1.355 . S
C354 O356 1.185 . S
C354 O357 1.355 . S
Dy355 O359 2.310 . S
Dy355 O362 2.351 1_545 S
Dy355 O364 2.398 . S
Dy355 O365 2.491 . S
Dy355 O366 2.403 . S
Dy355 O367 2.664 . S
Dy355 O369 2.326 . S
O356 Dy352 2.398 1_565 S
O356 C354 1.185 . S
O357 Dy352 2.491 1_565 S
O357 C354 1.355 . S
O358 Dy352 2.403 . S
O358 C360 1.254 . S
O359 Dy352 2.664 . S
O359 Dy355 2.310 . S
O359 C360 1.268 . S
C360 O358 1.254 . S
C360 O359 1.268 . S
C361 O366 1.260 . S
C361 O367 1.270 . S
O362 Dy355 2.351 1_565 S
O362 C370 1.249 . S
O363 Dy352 2.326 1_565 S
O363 C370 1.267 . S
O364 C353 1.185 . S
O364 Dy355 2.398 . S
O365 C353 1.355 . S
O365 Dy355 2.491 . S
O366 Dy355 2.403 . S
O366 C361 1.260 . S
O367 Dy352 2.310 . S
O367 Dy355 2.664 . S
O367 C361 1.270 . S
O368 Dy352 2.351 . S
O368 C371 1.249 . S
O369 Dy355 2.326 . S
O369 C371 1.267 . S
C370 O362 1.249 . S
C370 O363 1.267 . S
C371 O368 1.249 . S
C371 O369 1.267 . S
Dy372 O376 2.398 . S
Dy372 O377 2.491 . S
Dy372 O378 2.403 . S
Dy372 O379 2.664 . S
Dy372 O383 2.326 . S
Dy372 O387 2.310 . S
Dy372 O388 2.351 . S
C373 O384 1.185 . S
C373 O385 1.355 . S
C374 O376 1.185 . S
C374 O377 1.355 . S
Dy375 O379 2.310 . S
Dy375 O382 2.351 . S
Dy375 O384 2.398 . S
Dy375 O385 2.491 . S
Dy375 O386 2.403 . S
Dy375 O387 2.664 . S
Dy375 O389 2.326 . S
O376 Dy372 2.398 . S
O376 C374 1.185 . S
O377 Dy372 2.491 . S
O377 C374 1.355 . S
O378 Dy372 2.403 . S
O378 C380 1.254 . S
O379 Dy372 2.664 . S
O379 Dy375 2.310 . S
O379 C380 1.268 . S
C380 O378 1.254 . S
C380 O379 1.268 . S
C381 O386 1.254 . S
C381 O387 1.268 . S
O382 Dy375 2.351 . S
O382 C390 1.249 . S
O383 Dy372 2.326 . S
O383 C390 1.267 . S
O384 C373 1.185 . S
O384 Dy375 2.398 . S
O385 C373 1.355 . S
O385 Dy375 2.491 . S
O386 Dy375 2.403 . S
O386 C381 1.254 . S
O387 Dy372 2.310 . S
O387 Dy375 2.664 . S
O387 C381 1.268 . S
O388 Dy372 2.351 . S
O388 C391 1.249 . S
O389 Dy375 2.326 . S
O389 C391 1.267 . S
C390 O382 1.249 . S
C390 O383 1.267 . S
C391 O388 1.249 . S
C391 O389 1.267 . S
Dy392 O396 2.398 1_565 S
Dy392 O397 2.491 1_465 S
Dy392 O398 2.403 1_565 S
Dy392 O399 2.664 1_565 S
Dy392 O403 2.326 1_565 S
Dy392 O407 2.310 1_465 S
Dy392 O408 2.351 . S
C393 O404 1.185 . S
C393 O405 1.355 . S
C394 O396 1.185 . S
C394 O397 1.355 1_455 S
Dy395 O399 2.310 . S
Dy395 O402 2.351 . S
Dy395 O404 2.398 . S
Dy395 O405 2.491 . S
Dy395 O406 2.403 1_455 S
Dy395 O407 2.664 1_455 S
Dy395 O409 2.326 1_545 S
O396 Dy392 2.398 1_545 S
O396 C394 1.185 . S
O397 Dy392 2.491 1_645 S
O397 C394 1.355 1_655 S
O398 Dy392 2.403 1_545 S
O398 C400 1.254 . S
O399 Dy392 2.664 1_545 S
O399 Dy395 2.310 . S
O399 C400 1.268 . S
C400 O398 1.254 . S
C400 O399 1.268 . S
C401 O406 1.254 1_565 S
C401 O407 1.268 1_565 S
O402 Dy395 2.351 . S
O402 C410 1.249 . S
O403 Dy392 2.326 1_545 S
O403 C410 1.267 . S
O404 C393 1.185 . S
O404 Dy395 2.398 . S
O405 C393 1.355 . S
O405 Dy395 2.491 . S
O406 Dy395 2.403 1_655 S
O406 C401 1.254 1_545 S
O407 Dy392 2.310 1_645 S
O407 Dy395 2.664 1_655 S
O407 C401 1.268 1_545 S
O408 Dy392 2.351 . S
O408 C411 1.249 . S
O409 Dy395 2.326 1_565 S
O409 C411 1.267 . S
C410 O402 1.249 . S
C410 O403 1.267 . S
C411 O408 1.249 . S
C411 O409 1.267 . S
Dy412 O416 2.398 . S
Dy412 O417 2.491 . S
Dy412 O418 2.403 . S
Dy412 O419 2.664 . S
Dy412 O423 2.326 . S
Dy412 O427 2.310 . S
Dy412 O428 2.351 . S
C413 O424 1.185 . S
C413 O425 1.355 . S
C414 O416 1.185 . S
C414 O417 1.355 . S
Dy415 O419 2.310 . S
Dy415 O422 2.351 . S
Dy415 O424 2.398 . S
Dy415 O425 2.491 . S
Dy415 O426 2.403 . S
Dy415 O427 2.664 . S
Dy415 O429 2.326 . S
O416 Dy412 2.398 . S
O416 C414 1.185 . S
O417 Dy412 2.491 . S
O417 C414 1.355 . S
O418 Dy412 2.403 . S
O418 C420 1.254 . S
O419 Dy412 2.664 . S
O419 Dy415 2.310 . S
O419 C420 1.268 . S
C420 O418 1.254 . S
C420 O419 1.268 . S
C421 O426 1.254 . S
C421 O427 1.268 . S
O422 Dy415 2.351 . S
O422 C430 1.249 . S
O423 Dy412 2.326 . S
O423 C430 1.267 . S
O424 C413 1.185 . S
O424 Dy415 2.398 . S
O425 C413 1.355 . S
O425 Dy415 2.491 . S
O426 Dy415 2.403 . S
O426 C421 1.254 . S
O427 Dy412 2.310 . S
O427 Dy415 2.664 . S
O427 C421 1.268 . S
O428 Dy412 2.351 . S
O428 C431 1.249 . S
O429 Dy415 2.326 . S
O429 C431 1.267 . S
C430 O422 1.249 . S
C430 O423 1.267 . S
C431 O428 1.249 . S
C431 O429 1.267 . S
Dy432 O436 2.398 1_545 S
Dy432 O437 2.491 . S
Dy432 O438 2.403 1_545 S
Dy432 O439 2.658 1_544 S
Dy432 O443 2.326 1_545 S
Dy432 O447 2.310 . S
Dy432 O448 2.351 . S
C433 O444 1.185 . S
C433 O445 1.355 . S
C434 O436 1.185 1_545 S
C434 O437 1.355 . S
Dy435 O439 2.284 1_545 S
Dy435 O442 2.351 . S
Dy435 O444 2.398 . S
Dy435 O445 2.491 . S
Dy435 O446 2.403 . S
Dy435 O447 2.664 1_556 S
Dy435 O449 2.326 . S
O436 Dy432 2.398 1_565 S
O436 C434 1.185 1_565 S
O437 Dy432 2.491 . S
O437 C434 1.355 . S
O438 Dy432 2.403 1_565 S
O438 C440 1.254 1_554 S
O439 Dy432 2.658 1_566 S
O439 Dy435 2.284 1_565 S
O439 C440 1.297 . S
C440 O438 1.254 1_556 S
C440 O439 1.297 . S
C441 O446 1.254 1_554 S
C441 O447 1.268 . S
O442 Dy435 2.351 . S
O442 C450 1.249 1_556 S
O443 Dy432 2.326 1_565 S
O443 C450 1.267 1_565 S
O444 C433 1.185 . S
O444 Dy435 2.398 . S
O445 C433 1.355 . S
O445 Dy435 2.491 . S
O446 Dy435 2.403 . S
O446 C441 1.254 1_556 S
O447 Dy432 2.310 . S
O447 Dy435 2.664 1_554 S
O447 C441 1.268 . S
O448 Dy432 2.351 . S
O448 C451 1.249 . S
O449 Dy435 2.326 . S
O449 C451 1.267 1_556 S
C450 O442 1.249 1_554 S
C450 O443 1.267 1_545 S
C451 O448 1.249 . S
C451 O449 1.267 1_554 S
Dy452 O456 2.398 . S
Dy452 O457 2.491 . S
Dy452 O458 2.403 . S
Dy452 O459 2.664 . S
Dy452 O463 2.326 . S
Dy452 O467 2.310 . S
Dy452 O468 2.351 . S
C453 O464 1.185 . S
C453 O465 1.355 . S
C454 O456 1.185 . S
C454 O457 1.355 . S
Dy455 O459 2.310 . S
Dy455 O462 2.351 . S
Dy455 O464 2.398 . S
Dy455 O465 2.491 . S
Dy455 O466 2.403 . S
Dy455 O467 2.664 . S
Dy455 O469 2.326 . S
O456 Dy452 2.398 . S
O456 C454 1.185 . S
O457 Dy452 2.491 . S
O457 C454 1.355 . S
O458 Dy452 2.403 . S
O458 C460 1.254 . S
O459 Dy452 2.664 . S
O459 Dy455 2.310 . S
O459 C460 1.268 . S
C460 O458 1.254 . S
C460 O459 1.268 . S
C461 O466 1.254 . S
C461 O467 1.268 . S
O462 Dy455 2.351 . S
O462 C470 1.249 . S
O463 Dy452 2.326 . S
O463 C470 1.267 . S
O464 C453 1.185 . S
O464 Dy455 2.398 . S
O465 C453 1.355 . S
O465 Dy455 2.491 . S
O466 Dy455 2.403 . S
O466 C461 1.254 . S
O467 Dy452 2.310 . S
O467 Dy455 2.664 . S
O467 C461 1.268 . S
O468 Dy452 2.351 . S
O468 C471 1.249 . S
O469 Dy455 2.326 . S
O469 C471 1.267 . S
C470 O462 1.249 . S
C470 O463 1.267 . S
C471 O468 1.249 . S
C471 O469 1.267 . S
Dy472 O476 2.398 . S
Dy472 O477 2.491 . S
Dy472 O478 2.403 . S
Dy472 O479 2.664 1_556 S
Dy472 O483 2.326 . S
Dy472 O487 2.310 . S
Dy472 O488 2.351 . S
C473 O484 1.185 . S
C473 O485 1.355 . S
C474 O476 1.185 . S
C474 O477 1.355 . S
Dy475 O479 2.310 . S
Dy475 O482 2.351 . S
Dy475 O484 2.398 . S
Dy475 O485 2.491 . S
Dy475 O486 2.403 . S
Dy475 O487 2.664 1_554 S
Dy475 O489 2.326 . S
O476 Dy472 2.398 . S
O476 C474 1.185 . S
O477 Dy472 2.491 . S
O477 C474 1.355 . S
O478 Dy472 2.403 . S
O478 C480 1.254 . S
O479 Dy472 2.664 1_554 S
O479 Dy475 2.310 . S
O479 C480 1.268 1_554 S
C480 O478 1.254 . S
C480 O479 1.268 1_556 S
C481 O486 1.254 . S
C481 O487 1.268 1_554 S
O482 Dy475 2.351 . S
O482 C490 1.249 1_554 S
O483 Dy472 2.326 . S
O483 C490 1.267 . S
O484 C473 1.185 . S
O484 Dy475 2.398 . S
O485 C473 1.355 . S
O485 Dy475 2.491 . S
O486 Dy475 2.403 . S
O486 C481 1.254 . S
O487 Dy472 2.310 . S
O487 Dy475 2.664 1_556 S
O487 C481 1.268 1_556 S
O488 Dy472 2.351 . S
O488 C491 1.249 1_556 S
O489 Dy475 2.326 . S
O489 C491 1.267 . S
C490 O482 1.249 1_556 S
C490 O483 1.267 . S
C491 O488 1.249 1_554 S
C491 O489 1.267 . S
Dy492 O496 2.398 . S
Dy492 O497 2.491 . S
Dy492 O498 2.403 . S
Dy492 O499 2.664 . S
Dy492 O503 2.326 . S
Dy492 O507 2.310 . S
Dy492 O508 2.351 . S
C493 O504 1.185 . S
C493 O505 1.355 . S
C494 O496 1.185 . S
C494 O497 1.355 . S
Dy495 O499 2.310 . S
Dy495 O502 2.351 . S
Dy495 O504 2.398 . S
Dy495 O505 2.491 . S
Dy495 O506 2.403 . S
Dy495 O507 2.664 . S
Dy495 O509 2.326 . S
O496 Dy492 2.398 . S
O496 C494 1.185 . S
O497 Dy492 2.491 . S
O497 C494 1.355 . S
O498 Dy492 2.403 . S
O498 C500 1.254 . S
O499 Dy492 2.664 . S
O499 Dy495 2.310 . S
O499 C500 1.268 . S
C500 O498 1.254 . S
C500 O499 1.268 . S
C501 O506 1.254 . S
C501 O507 1.268 . S
O502 Dy495 2.351 . S
O502 C510 1.249 . S
O503 Dy492 2.326 . S
O503 C510 1.267 . S
O504 C493 1.185 . S
O504 Dy495 2.398 . S
O505 C493 1.355 . S
O505 Dy495 2.491 . S
O506 Dy495 2.403 . S
O506 C501 1.254 . S
O507 Dy492 2.310 . S
O507 Dy495 2.664 . S
O507 C501 1.268 . S
O508 Dy492 2.351 . S
O508 C511 1.249 . S
O509 Dy495 2.326 . S
O509 C511 1.267 . S
C510 O502 1.249 . S
C510 O503 1.267 . S
C511 O508 1.249 . S
C511 O509 1.267 . S
Dy512 O516 2.398 1_455 S
Dy512 O517 2.491 1_455 S
Dy512 O518 2.403 . S
Dy512 O519 2.664 . S
Dy512 O523 2.326 1_455 S
Dy512 O527 2.310 . S
Dy512 O528 2.351 . S
C513 O524 1.185 . S
C513 O525 1.355 . S
C514 O516 1.185 . S
C514 O517 1.355 . S
Dy515 O519 2.310 . S
Dy515 O522 2.351 1_455 S
Dy515 O524 2.398 . S
Dy515 O525 2.491 . S
Dy515 O526 2.403 . S
Dy515 O527 2.664 . S
Dy515 O529 2.326 . S
O516 Dy512 2.398 1_655 S
O516 C514 1.185 . S
O517 Dy512 2.491 1_655 S
O517 C514 1.355 . S
O518 Dy512 2.403 . S
O518 C520 1.254 . S
O519 Dy512 2.664 . S
O519 Dy515 2.310 . S
O519 C520 1.268 . S
C520 O518 1.254 . S
C520 O519 1.268 . S
C521 O526 1.254 . S
C521 O527 1.268 . S
O522 Dy515 2.351 1_655 S
O522 C530 1.249 . S
O523 Dy512 2.326 1_655 S
O523 C530 1.267 . S
O524 C513 1.185 . S
O524 Dy515 2.398 . S
O525 C513 1.355 . S
O525 Dy515 2.491 . S
O526 Dy515 2.403 . S
O526 C521 1.254 . S
O527 Dy512 2.310 . S
O527 Dy515 2.664 . S
O527 C521 1.268 . S
O528 Dy512 2.351 . S
O528 C531 1.249 . S
O529 Dy515 2.326 . S
O529 C531 1.267 . S
C530 O522 1.249 . S
C530 O523 1.267 . S
C531 O528 1.249 . S
C531 O529 1.267 . S
Dy532 O536 2.398 . S
Dy532 O537 2.491 . S
Dy532 O538 2.403 . S
Dy532 O539 2.664 . S
Dy532 O543 2.326 . S
Dy532 O547 2.310 . S
Dy532 O548 2.351 . S
C533 O544 1.185 . S
C533 O545 1.355 . S
C534 O536 1.185 . S
C534 O537 1.355 . S
Dy535 O539 2.310 . S
Dy535 O542 2.351 . S
Dy535 O544 2.398 . S
Dy535 O545 2.491 . S
Dy535 O546 2.403 . S
Dy535 O547 2.664 . S
Dy535 O549 2.326 . S
O536 Dy532 2.398 . S
O536 C534 1.185 . S
O537 Dy532 2.491 . S
O537 C534 1.355 . S
O538 Dy532 2.403 . S
O538 C540 1.254 . S
O539 Dy532 2.664 . S
O539 Dy535 2.310 . S
O539 C540 1.268 . S
C540 O538 1.254 . S
C540 O539 1.268 . S
C541 O546 1.254 . S
C541 O547 1.268 . S
O542 Dy535 2.351 . S
O542 C550 1.249 . S
O543 Dy532 2.326 . S
O543 C550 1.267 . S
O544 C533 1.185 . S
O544 Dy535 2.398 . S
O545 C533 1.355 . S
O545 Dy535 2.491 . S
O546 Dy535 2.403 . S
O546 C541 1.254 . S
O547 Dy532 2.310 . S
O547 Dy535 2.664 . S
O547 C541 1.268 . S
O548 Dy532 2.351 . S
O548 C551 1.249 . S
O549 Dy535 2.326 . S
O549 C551 1.267 . S
C550 O542 1.249 . S
C550 O543 1.267 . S
C551 O548 1.249 . S
C551 O549 1.267 . S
Dy552 O556 2.398 . S
Dy552 O557 2.491 . S
Dy552 O558 2.403 . S
Dy552 O559 2.664 . S
Dy552 O563 2.326 . S
Dy552 O567 2.310 . S
Dy552 O568 2.351 . S
C553 O564 1.185 . S
C553 O565 1.355 . S
C554 O556 1.185 . S
C554 O557 1.355 . S
Dy555 O559 2.310 . S
Dy555 O562 2.351 . S
Dy555 O564 2.398 . S
Dy555 O565 2.491 . S
Dy555 O566 2.403 . S
Dy555 O567 2.664 . S
Dy555 O569 2.326 . S
O556 Dy552 2.398 . S
O556 C554 1.185 . S
O557 Dy552 2.491 . S
O557 C554 1.355 . S
O558 Dy552 2.403 . S
O558 C560 1.254 . S
O559 Dy552 2.664 . S
O559 Dy555 2.310 . S
O559 C560 1.268 . S
C560 O558 1.254 . S
C560 O559 1.268 . S
C561 O566 1.254 . S
C561 O567 1.268 . S
O562 Dy555 2.351 . S
O562 C570 1.249 . S
O563 Dy552 2.326 . S
O563 C570 1.267 . S
O564 C553 1.185 . S
O564 Dy555 2.398 . S
O565 C553 1.355 . S
O565 Dy555 2.491 . S
O566 Dy555 2.403 . S
O566 C561 1.254 . S
O567 Dy552 2.310 . S
O567 Dy555 2.664 . S
O567 C561 1.268 . S
O568 Dy552 2.351 . S
O568 C571 1.249 . S
O569 Dy555 2.326 . S
O569 C571 1.267 . S
C570 O562 1.249 . S
C570 O563 1.267 . S
C571 O568 1.249 . S
C571 O569 1.267 . S
Dy572 O576 2.398 . S
Dy572 O577 2.491 . S
Dy572 O578 2.403 . S
Dy572 O579 2.664 . S
Dy572 O583 2.326 . S
Dy572 O587 2.310 . S
Dy572 O588 2.351 . S
C573 O584 1.185 . S
C573 O585 1.355 . S
C574 O576 1.185 . S
C574 O577 1.355 . S
Dy575 O579 2.310 . S
Dy575 O582 2.351 . S
Dy575 O584 2.398 . S
Dy575 O585 2.491 . S
Dy575 O586 2.403 . S
Dy575 O587 2.664 . S
Dy575 O589 2.326 . S
O576 Dy572 2.398 . S
O576 C574 1.185 . S
O577 Dy572 2.491 . S
O577 C574 1.355 . S
O578 Dy572 2.403 . S
O578 C580 1.254 . S
O579 Dy572 2.664 . S
O579 Dy575 2.310 . S
O579 C580 1.268 . S
C580 O578 1.254 . S
C580 O579 1.268 . S
C581 O586 1.254 . S
C581 O587 1.268 . S
O582 Dy575 2.351 . S
O582 C590 1.249 . S
O583 Dy572 2.326 . S
O583 C590 1.267 . S
O584 C573 1.185 . S
O584 Dy575 2.398 . S
O585 C573 1.355 . S
O585 Dy575 2.491 . S
O586 Dy575 2.403 . S
O586 C581 1.254 . S
O587 Dy572 2.310 . S
O587 Dy575 2.664 . S
O587 C581 1.268 . S
O588 Dy572 2.351 . S
O588 C591 1.249 . S
O589 Dy575 2.326 . S
O589 C591 1.267 . S
C590 O582 1.249 . S
C590 O583 1.267 . S
C591 O588 1.249 . S
C591 O589 1.267 . S
Dy592 O596 2.398 . S
Dy592 O597 2.491 . S
Dy592 O598 2.403 . S
Dy592 O599 2.664 . S
Dy592 O603 2.326 . S
Dy592 O607 2.310 . S
Dy592 O608 2.351 . S
C593 O604 1.185 . S
C593 O605 1.355 . S
C594 O596 1.185 . S
C594 O597 1.355 . S
Dy595 O599 2.310 . S
Dy595 O602 2.351 . S
Dy595 O604 2.398 . S
Dy595 O605 2.491 . S
Dy595 O606 2.403 . S
Dy595 O607 2.664 . S
Dy595 O609 2.326 . S
O596 Dy592 2.398 . S
O596 C594 1.185 . S
O597 Dy592 2.491 . S
O597 C594 1.355 . S
O598 Dy592 2.403 . S
O598 C600 1.254 . S
O599 Dy592 2.664 . S
O599 Dy595 2.310 . S
O599 C600 1.268 . S
C600 O598 1.254 . S
C600 O599 1.268 . S
C601 O606 1.254 . S
C601 O607 1.268 . S
O602 Dy595 2.351 . S
O602 C610 1.249 . S
O603 Dy592 2.326 . S
O603 C610 1.267 . S
O604 C593 1.185 . S
O604 Dy595 2.398 . S
O605 C593 1.355 . S
O605 Dy595 2.491 . S
O606 Dy595 2.403 . S
O606 C601 1.254 . S
O607 Dy592 2.310 . S
O607 Dy595 2.664 . S
O607 C601 1.268 . S
O608 Dy592 2.351 . S
O608 C611 1.249 . S
O609 Dy595 2.326 . S
O609 C611 1.267 . S
C610 O602 1.249 . S
C610 O603 1.267 . S
C611 O608 1.249 . S
C611 O609 1.267 . S
Dy612 O616 2.398 1_554 S
Dy612 O617 2.491 . S
Dy612 O618 2.403 1_554 S
Dy612 O619 2.664 1_454 S
Dy612 O623 2.326 1_554 S
Dy612 O627 2.310 . S
Dy612 O628 2.351 . S
C613 O624 1.185 . S
C613 O625 1.355 . S
C614 O616 1.170 1_554 S
C614 O617 1.374 . S
Dy615 O619 2.310 1_554 S
Dy615 O622 2.351 . S
Dy615 O624 2.398 . S
Dy615 O625 2.491 . S
Dy615 O626 2.403 . S
Dy615 O627 2.664 1_655 S
Dy615 O629 2.326 . S
O616 Dy612 2.398 1_556 S
O616 C614 1.170 1_556 S
O617 Dy612 2.491 . S
O617 C614 1.374 . S
O618 Dy612 2.403 1_556 S
O618 C620 1.254 . S
O619 Dy612 2.664 1_656 S
O619 Dy615 2.310 1_556 S
O619 C620 1.268 1_655 S
C620 O618 1.254 . S
C620 O619 1.268 1_455 S
C621 O626 1.254 1_455 S
C621 O627 1.268 . S
O622 Dy615 2.351 . S
O622 C630 1.249 1_655 S
O623 Dy612 2.326 1_556 S
O623 C630 1.267 1_556 S
O624 C613 1.185 . S
O624 Dy615 2.398 . S
O625 C613 1.355 . S
O625 Dy615 2.491 . S
O626 Dy615 2.403 . S
O626 C621 1.254 1_655 S
O627 Dy612 2.310 . S
O627 Dy615 2.664 1_455 S
O627 C621 1.268 . S
O628 Dy612 2.351 . S
O628 C631 1.249 . S
O629 Dy615 2.326 . S
O629 C631 1.267 1_655 S
C630 O622 1.249 1_455 S
C630 O623 1.267 1_554 S
C631 O628 1.249 . S
C631 O629 1.267 1_455 S
C632 C633 1.369 1_655 S
C632 C634 1.419 1_656 S
C632 H636 0.930 . S
C633 C632 1.369 1_455 S
C633 C642 1.429 . S
C634 C632 1.419 1_454 S
C634 C635 1.363 1_554 S
C634 H637 0.929 1_455 S
C635 C634 1.363 1_556 S
C635 C641 1.428 . S
H636 C632 0.930 . S
H637 C634 0.929 1_655 S
S638 N639 1.613 . S
S638 N640 1.610 . S
N639 S638 1.613 . S
N639 C642 1.350 . S
N640 S638 1.610 . S
N640 C641 1.351 . S
C641 C635 1.428 . S
C641 N640 1.351 . S
C641 C642 1.434 . S
C642 C633 1.429 . S
C642 N639 1.350 . S
C642 C641 1.434 . S
C643 C644 1.369 . S
C643 C645 1.419 . S
C643 H647 0.930 . S
C644 C643 1.369 . S
C644 C653 1.429 . S
C645 C643 1.419 . S
C645 C646 1.363 . S
C645 H648 0.929 . S
C646 C645 1.363 . S
C646 C652 1.428 . S
H647 C643 0.930 . S
H648 C645 0.929 . S
S649 N650 1.613 . S
S649 N651 1.610 . S
N650 S649 1.613 . S
N650 C653 1.350 . S
N651 S649 1.610 . S
N651 C652 1.351 . S
C652 C646 1.428 . S
C652 N651 1.351 . S
C652 C653 1.434 . S
C653 C644 1.429 . S
C653 N650 1.350 . S
C653 C652 1.434 . S
C654 C655 1.369 . S
C654 C656 1.419 . S
C654 H658 0.930 . S
C655 C654 1.369 . S
C655 C664 1.429 . S
C656 C654 1.419 . S
C656 C657 1.363 . S
C656 H659 0.929 . S
C657 C656 1.363 . S
C657 C663 1.428 . S
H658 C654 0.930 . S
H659 C656 0.929 . S
S660 N661 1.613 . S
S660 N662 1.610 . S
N661 S660 1.613 . S
N661 C664 1.350 . S
N662 S660 1.610 . S
N662 C663 1.351 . S
C663 C657 1.428 . S
C663 N662 1.351 . S
C663 C664 1.434 . S
C664 C655 1.429 . S
C664 N661 1.350 . S
C664 C663 1.434 . S
C665 C666 1.369 . S
C665 C667 1.419 . S
C665 H669 0.930 . S
C666 C665 1.369 . S
C666 C675 1.429 . S
C667 C665 1.419 . S
C667 C668 1.363 . S
C667 H670 0.929 . S
C668 C667 1.363 . S
C668 C674 1.428 . S
H669 C665 0.930 . S
H670 C667 0.929 . S
S671 N672 1.613 . S
S671 N673 1.610 . S
N672 S671 1.613 . S
N672 C675 1.350 . S
N673 S671 1.610 . S
N673 C674 1.351 . S
C674 C668 1.428 . S
C674 N673 1.351 . S
C674 C675 1.434 . S
C675 C666 1.429 . S
C675 N672 1.350 . S
C675 C674 1.434 . S
C676 C677 1.369 . S
C676 C678 1.419 . S
C676 H680 0.930 1_455 S
C677 C676 1.369 . S
C677 C686 1.429 . S
C678 C676 1.419 . S
C678 C679 1.363 . S
C678 H681 0.929 . S
C679 C678 1.363 . S
C679 C685 1.428 . S
H680 C676 0.930 1_655 S
H681 C678 0.929 . S
S682 N683 1.613 . S
S682 N684 1.610 . S
N683 S682 1.613 . S
N683 C686 1.350 . S
N684 S682 1.610 . S
N684 C685 1.351 . S
C685 C679 1.428 . S
C685 N684 1.351 . S
C685 C686 1.434 . S
C686 C677 1.429 . S
C686 N683 1.350 . S
C686 C685 1.434 . S
C687 C688 1.369 . S
C687 C689 1.419 . S
C687 H691 0.930 . S
C688 C687 1.369 . S
C688 C697 1.429 . S
C689 C687 1.419 . S
C689 C690 1.363 . S
C689 H692 0.929 . S
C690 C689 1.363 . S
C690 C696 1.428 . S
H691 C687 0.930 . S
H692 C689 0.929 . S
S693 N694 1.613 . S
S693 N695 1.610 . S
N694 S693 1.613 . S
N694 C697 1.350 . S
N695 S693 1.610 . S
N695 C696 1.351 . S
C696 C690 1.428 . S
C696 N695 1.351 . S
C696 C697 1.434 . S
C697 C688 1.429 . S
C697 N694 1.350 . S
C697 C696 1.434 . S
C698 C699 1.369 . S
C698 C700 1.419 . S
C698 H702 0.930 . S
C699 C698 1.369 . S
C699 C708 1.429 . S
C700 C698 1.419 . S
C700 C701 1.363 . S
C700 H703 0.929 . S
C701 C700 1.363 . S
C701 C707 1.428 . S
H702 C698 0.930 . S
H703 C700 0.929 . S
S704 N705 1.613 . S
S704 N706 1.610 . S
N705 S704 1.613 . S
N705 C708 1.350 . S
N706 S704 1.610 . S
N706 C707 1.351 . S
C707 C701 1.428 . S
C707 N706 1.351 . S
C707 C708 1.434 . S
C708 C699 1.429 . S
C708 N705 1.350 . S
C708 C707 1.434 . S
C709 C710 1.369 . S
C709 C711 1.419 . S
C709 H713 0.930 . S
C710 C709 1.369 . S
C710 C719 1.429 . S
C711 C709 1.419 . S
C711 C712 1.363 . S
C711 H714 0.929 . S
C712 C711 1.363 . S
C712 C718 1.428 . S
H713 C709 0.930 . S
H714 C711 0.929 . S
S715 N716 1.613 . S
S715 N717 1.610 . S
N716 S715 1.613 . S
N716 C719 1.350 . S
N717 S715 1.610 . S
N717 C718 1.351 . S
C718 C712 1.428 . S
C718 N717 1.351 . S
C718 C719 1.434 . S
C719 C710 1.429 . S
C719 N716 1.350 . S
C719 C718 1.434 . S
C720 C721 1.369 . S
C720 C722 1.419 1_655 S
C720 H724 0.930 . S
C721 C720 1.369 . S
C721 C730 1.429 . S
C722 C720 1.419 1_455 S
C722 C723 1.363 1_455 S
C722 H725 0.929 . S
C723 C722 1.363 1_655 S
C723 C729 1.426 . S
H724 C720 0.930 . S
H725 C722 0.929 . S
S726 N727 1.613 . S
S726 N728 1.610 . S
N727 S726 1.613 . S
N727 C730 1.350 . S
N728 S726 1.610 . S
N728 C729 1.351 . S
C729 C723 1.426 . S
C729 N728 1.351 . S
C729 C730 1.434 . S
C730 C721 1.429 . S
C730 N727 1.350 . S
C730 C729 1.434 . S
C731 C732 1.369 . S
C731 C733 1.419 . S
C731 H735 0.930 . S
C732 C731 1.369 . S
C732 C741 1.429 . S
C733 C731 1.419 . S
C733 C734 1.363 . S
C733 H736 0.929 . S
C734 C733 1.363 . S
C734 C740 1.428 . S
H735 C731 0.930 . S
H736 C733 0.929 . S
S737 N738 1.613 . S
S737 N739 1.610 . S
N738 S737 1.613 . S
N738 C741 1.350 . S
N739 S737 1.610 . S
N739 C740 1.351 . S
C740 C734 1.428 . S
C740 N739 1.351 . S
C740 C741 1.434 . S
C741 C732 1.429 . S
C741 N738 1.350 . S
C741 C740 1.434 . S
C742 C743 1.369 1_565 S
C742 C744 1.419 . S
C742 H746 0.930 . S
C743 C742 1.369 1_545 S
C743 C752 1.429 . S
C744 C742 1.419 . S
C744 C745 1.363 1_565 S
C744 H747 0.929 . S
C745 C744 1.363 1_545 S
C745 C751 1.428 . S
H746 C742 0.930 . S
H747 C744 0.929 . S
S748 N749 1.613 . S
S748 N750 1.610 . S
N749 S748 1.613 . S
N749 C752 1.350 . S
N750 S748 1.610 . S
N750 C751 1.351 . S
C751 C745 1.428 . S
C751 N750 1.351 . S
C751 C752 1.434 . S
C752 C743 1.429 . S
C752 N749 1.350 . S
C752 C751 1.434 . S
C753 C754 1.369 . S
C753 C755 1.419 . S
C753 H757 0.930 . S
C754 C753 1.369 . S
C754 C763 1.429 . S
C755 C753 1.419 . S
C755 C756 1.363 . S
C755 H758 0.929 . S
C756 C755 1.363 . S
C756 C762 1.428 . S
H757 C753 0.930 . S
H758 C755 0.929 . S
S759 N760 1.613 . S
S759 N761 1.610 . S
N760 S759 1.613 . S
N760 C763 1.350 . S
N761 S759 1.610 . S
N761 C762 1.351 . S
C762 C756 1.428 . S
C762 N761 1.351 . S
C762 C763 1.434 . S
C763 C754 1.429 . S
C763 N760 1.350 . S
C763 C762 1.434 . S
C764 C765 1.369 . S
C764 C766 1.419 . S
C764 H768 0.930 . S
C765 C764 1.369 . S
C765 C774 1.429 . S
C766 C764 1.419 . S
C766 C767 1.363 . S
C766 H769 0.929 . S
C767 C766 1.363 . S
C767 C773 1.428 1_545 S
H768 C764 0.930 . S
H769 C766 0.929 . S
S770 N771 1.613 . S
S770 N772 1.610 . S
N771 S770 1.613 . S
N771 C774 1.350 1_565 S
N772 S770 1.610 . S
N772 C773 1.351 . S
C773 C767 1.428 1_565 S
C773 N772 1.351 . S
C773 C774 1.434 1_565 S
C774 C765 1.429 . S
C774 N771 1.350 1_545 S
C774 C773 1.434 1_545 S
C775 C776 1.369 . S
C775 C777 1.419 . S
C775 H779 0.930 . S
C776 C775 1.369 . S
C776 C785 1.429 . S
C777 C775 1.419 . S
C777 C778 1.363 . S
C777 H780 0.929 . S
C778 C777 1.363 . S
C778 C784 1.428 . S
H779 C775 0.930 . S
H780 C777 0.929 . S
S781 N782 1.613 . S
S781 N783 1.610 . S
N782 S781 1.613 . S
N782 C785 1.350 . S
N783 S781 1.610 . S
N783 C784 1.351 . S
C784 C778 1.428 . S
C784 N783 1.351 . S
C784 C785 1.434 . S
C785 C776 1.429 . S
C785 N782 1.350 . S
C785 C784 1.434 . S
C786 C787 1.369 . S
C786 C788 1.419 . S
C786 H790 0.930 . S
C787 C786 1.369 . S
C787 C796 1.429 . S
C788 C786 1.419 . S
C788 C789 1.363 . S
C788 H791 0.929 . S
C789 C788 1.363 . S
C789 C795 1.428 . S
H790 C786 0.930 . S
H791 C788 0.929 . S
S792 N793 1.613 . S
S792 N794 1.610 . S
N793 S792 1.613 . S
N793 C796 1.350 . S
N794 S792 1.610 . S
N794 C795 1.351 . S
C795 C789 1.428 . S
C795 N794 1.351 . S
C795 C796 1.434 . S
C796 C787 1.429 . S
C796 N793 1.350 . S
C796 C795 1.434 . S
C797 C798 1.369 . S
C797 C799 1.419 . S
C797 H801 0.930 . S
C798 C797 1.369 . S
C798 C807 1.429 . S
C799 C797 1.419 . S
C799 C800 1.363 . S
C799 H802 0.929 . S
C800 C799 1.363 . S
C800 C806 1.428 . S
H801 C797 0.930 . S
H802 C799 0.929 . S
S803 N804 1.613 . S
S803 N805 1.610 . S
N804 S803 1.613 . S
N804 C807 1.350 . S
N805 S803 1.610 . S
N805 C806 1.351 . S
C806 C800 1.428 . S
C806 N805 1.351 . S
C806 C807 1.434 . S
C807 C798 1.429 . S
C807 N804 1.350 . S
C807 C806 1.434 . S
C808 C809 1.369 . S
C808 C810 1.419 1_565 S
C808 H812 0.930 . S
C809 C808 1.369 . S
C809 C818 1.429 . S
C810 C808 1.419 1_545 S
C810 C811 1.363 1_545 S
C810 H813 0.929 . S
C811 C810 1.363 1_565 S
C811 C817 1.428 . S
H812 C808 0.930 . S
H813 C810 0.929 . S
S814 N815 1.613 . S
S814 N816 1.610 . S
N815 S814 1.613 . S
N815 C818 1.350 . S
N816 S814 1.610 . S
N816 C817 1.351 . S
C817 C811 1.428 . S
C817 N816 1.351 . S
C817 C818 1.434 . S
C818 C809 1.429 . S
C818 N815 1.350 . S
C818 C817 1.434 . S
C819 C820 1.369 1_554 S
C819 C821 1.419 . S
C819 H823 0.930 . S
C820 C819 1.369 1_556 S
C820 C829 1.429 . S
C821 C819 1.419 . S
C821 C822 1.363 1_554 S
C821 H824 0.929 . S
C822 C821 1.363 1_556 S
C822 C828 1.428 . S
H823 C819 0.930 . S
H824 C821 0.929 . S
S825 N826 1.613 . S
S825 N827 1.610 . S
N826 S825 1.613 . S
N826 C829 1.350 . S
N827 S825 1.610 . S
N827 C828 1.351 . S
C828 C822 1.428 . S
C828 N827 1.351 . S
C828 C829 1.434 . S
C829 C820 1.429 . S
C829 N826 1.350 . S
C829 C828 1.434 . S
C830 C831 1.369 . S
C830 C832 1.419 . S
C830 H834 0.930 . S
C831 C830 1.369 . S
C831 C840 1.429 . S
C832 C830 1.419 . S
C832 C833 1.363 . S
C832 H835 0.929 . S
C833 C832 1.363 . S
C833 C839 1.428 . S
H834 C830 0.930 . S
H835 C832 0.929 . S
S836 N837 1.613 . S
S836 N838 1.610 . S
N837 S836 1.613 . S
N837 C840 1.350 . S
N838 S836 1.610 . S
N838 C839 1.351 . S
C839 C833 1.428 . S
C839 N838 1.351 . S
C839 C840 1.434 . S
C840 C831 1.429 . S
C840 N837 1.350 . S
C840 C839 1.434 . S
C841 C842 1.369 . S
C841 C843 1.419 . S
C841 H845 0.930 . S
C842 C841 1.369 . S
C842 C851 1.429 . S
C843 C841 1.419 . S
C843 C844 1.363 . S
C843 H846 0.929 . S
C844 C843 1.363 . S
C844 C850 1.428 . S
H845 C841 0.930 . S
H846 C843 0.929 . S
S847 N848 1.613 . S
S847 N849 1.610 . S
N848 S847 1.613 . S
N848 C851 1.350 . S
N849 S847 1.610 . S
N849 C850 1.351 . S
C850 C844 1.428 . S
C850 N849 1.351 . S
C850 C851 1.434 . S
C851 C842 1.429 . S
C851 N848 1.350 . S
C851 C850 1.434 . S
C852 C853 1.369 . S
C852 C854 1.419 . S
C852 H856 0.930 . S
C853 C852 1.369 . S
C853 C862 1.429 . S
C854 C852 1.419 . S
C854 C855 1.363 . S
C854 H857 0.929 . S
C855 C854 1.363 . S
C855 C861 1.428 . S
H856 C852 0.930 . S
H857 C854 0.929 . S
S858 N859 1.613 . S
S858 N860 1.610 . S
N859 S858 1.613 . S
N859 C862 1.350 . S
N860 S858 1.610 . S
N860 C861 1.351 . S
C861 C855 1.428 . S
C861 N860 1.351 . S
C861 C862 1.434 . S
C862 C853 1.429 . S
C862 N859 1.350 . S
C862 C861 1.434 . S
C863 C864 1.369 . S
C863 C865 1.419 . S
C863 H867 0.930 . S
C864 C863 1.369 . S
C864 C873 1.429 . S
C865 C863 1.419 . S
C865 C866 1.363 . S
C865 H868 0.929 . S
C866 C865 1.363 . S
C866 C872 1.428 . S
H867 C863 0.930 . S
H868 C865 0.929 . S
S869 N870 1.613 . S
S869 N871 1.610 . S
N870 S869 1.613 . S
N870 C873 1.350 . S
N871 S869 1.610 . S
N871 C872 1.351 . S
C872 C866 1.428 . S
C872 N871 1.351 . S
C872 C873 1.434 . S
C873 C864 1.429 . S
C873 N870 1.350 . S
C873 C872 1.434 . S
C874 C875 1.369 . S
C874 C876 1.419 . S
C874 H878 0.930 . S
C875 C874 1.369 . S
C875 C884 1.429 . S
C876 C874 1.419 . S
C876 C877 1.363 . S
C876 H879 0.929 . S
C877 C876 1.363 . S
C877 C883 1.428 . S
H878 C874 0.930 . S
H879 C876 0.929 . S
S880 N881 1.613 . S
S880 N882 1.610 . S
N881 S880 1.613 . S
N881 C884 1.350 . S
N882 S880 1.610 . S
N882 C883 1.351 . S
C883 C877 1.428 . S
C883 N882 1.351 . S
C883 C884 1.434 . S
C884 C875 1.429 . S
C884 N881 1.350 . S
C884 C883 1.434 . S
C885 C886 1.369 . S
C885 C887 1.419 . S
C885 H889 0.930 . S
C886 C885 1.369 . S
C886 C895 1.429 . S
C887 C885 1.419 . S
C887 C888 1.363 . S
C887 H890 0.929 . S
C888 C887 1.363 . S
C888 C894 1.428 . S
H889 C885 0.930 . S
H890 C887 0.929 . S
S891 N892 1.613 . S
S891 N893 1.610 . S
N892 S891 1.613 . S
N892 C895 1.350 . S
N893 S891 1.610 . S
N893 C894 1.351 . S
C894 C888 1.428 . S
C894 N893 1.351 . S
C894 C895 1.434 . S
C895 C886 1.429 . S
C895 N892 1.350 . S
C895 C894 1.434 . S
C896 C897 1.369 . S
C896 C898 1.419 . S
C896 H900 0.930 . S
C897 C896 1.369 . S
C897 C906 1.429 . S
C898 C896 1.419 . S
C898 C899 1.363 . S
C898 H901 0.929 . S
C899 C898 1.363 . S
C899 C905 1.428 . S
H900 C896 0.930 . S
H901 C898 0.929 . S
S902 N903 1.613 . S
S902 N904 1.610 . S
N903 S902 1.613 . S
N903 C906 1.350 . S
N904 S902 1.610 . S
N904 C905 1.351 . S
C905 C899 1.428 . S
C905 N904 1.351 . S
C905 C906 1.434 . S
C906 C897 1.429 . S
C906 N903 1.350 . S
C906 C905 1.434 . S
C907 C908 1.369 . S
C907 C909 1.419 . S
C907 H911 0.930 . S
C908 C907 1.369 . S
C908 C917 1.429 . S
C909 C907 1.419 . S
C909 C910 1.363 . S
C909 H912 0.929 . S
C910 C909 1.363 . S
C910 C916 1.428 . S
H911 C907 0.930 . S
H912 C909 0.929 . S
S913 N914 1.613 . S
S913 N915 1.610 . S
N914 S913 1.613 . S
N914 C917 1.350 . S
N915 S913 1.610 . S
N915 C916 1.351 . S
C916 C910 1.428 . S
C916 N915 1.351 . S
C916 C917 1.434 . S
C917 C908 1.429 . S
C917 N914 1.350 . S
C917 C916 1.434 . S
C918 C919 1.369 . S
C918 C920 1.419 . S
C918 H922 0.930 . S
C919 C918 1.369 . S
C919 C928 1.429 . S
C920 C918 1.419 . S
C920 C921 1.363 . S
C920 H923 0.929 . S
C921 C920 1.363 . S
C921 C927 1.428 . S
H922 C918 0.930 . S
H923 C920 0.929 . S
S924 N925 1.613 . S
S924 N926 1.610 . S
N925 S924 1.613 . S
N925 C928 1.350 . S
N926 S924 1.610 . S
N926 C927 1.351 . S
C927 C921 1.428 . S
C927 N926 1.351 . S
C927 C928 1.434 . S
C928 C919 1.429 . S
C928 N925 1.350 . S
C928 C927 1.434 . S
C929 C930 1.369 . S
C929 C931 1.419 . S
C929 H933 0.930 . S
C930 C929 1.369 . S
C930 C939 1.429 . S
C931 C929 1.419 . S
C931 C932 1.363 . S
C931 H934 0.929 . S
C932 C931 1.363 . S
C932 C938 1.428 . S
H933 C929 0.930 . S
H934 C931 0.929 . S
S935 N936 1.613 . S
S935 N937 1.610 . S
N936 S935 1.613 . S
N936 C939 1.350 . S
N937 S935 1.610 . S
N937 C938 1.351 . S
C938 C932 1.428 . S
C938 N937 1.351 . S
C938 C939 1.434 . S
C939 C930 1.429 . S
C939 N936 1.350 . S
C939 C938 1.434 . S
C940 C941 1.369 . S
C940 C942 1.419 . S
C940 H944 0.930 . S
C941 C940 1.369 . S
C941 C950 1.429 . S
C942 C940 1.419 . S
C942 C943 1.363 . S
C942 H945 0.929 . S
C943 C942 1.363 . S
C943 C949 1.428 . S
H944 C940 0.930 . S
H945 C942 0.929 . S
S946 N947 1.611 . S
S946 N948 1.610 . S
N947 S946 1.611 . S
N947 C950 1.352 1_655 S
N948 S946 1.610 . S
N948 C949 1.351 1_655 S
C949 C943 1.428 . S
C949 N948 1.351 1_455 S
C949 C950 1.434 . S
C950 C941 1.429 . S
C950 N947 1.352 1_455 S
C950 C949 1.434 . S
C951 C952 1.369 . S
C951 C953 1.419 . S
C951 H955 0.930 . S
C952 C951 1.369 . S
C952 C961 1.429 . S
C953 C951 1.419 . S
C953 C954 1.363 . S
C953 H956 0.929 . S
C954 C953 1.363 . S
C954 C960 1.428 . S
H955 C951 0.930 . S
H956 C953 0.929 . S
S957 N958 1.613 . S
S957 N959 1.610 . S
N958 S957 1.613 . S
N958 C961 1.350 . S
N959 S957 1.610 . S
N959 C960 1.351 . S
C960 C954 1.428 . S
C960 N959 1.351 . S
C960 C961 1.434 . S
C961 C952 1.429 . S
C961 N958 1.350 . S
C961 C960 1.434 . S
C962 C963 1.369 . S
C962 C964 1.419 . S
C962 H966 0.930 . S
C963 C962 1.369 . S
C963 C972 1.429 . S
C964 C962 1.419 . S
C964 C965 1.363 . S
C964 H967 0.929 1_556 S
C965 C964 1.363 . S
C965 C971 1.428 . S
H966 C962 0.930 . S
H967 C964 0.929 1_554 S
S968 N969 1.613 . S
S968 N970 1.610 . S
N969 S968 1.613 . S
N969 C972 1.350 . S
N970 S968 1.610 . S
N970 C971 1.351 . S
C971 C965 1.428 . S
C971 N970 1.351 . S
C971 C972 1.434 . S
C972 C963 1.429 . S
C972 N969 1.350 . S
C972 C971 1.434 . S
C973 C974 1.369 . S
C973 C975 1.419 . S
C973 H977 0.930 . S
C974 C973 1.369 . S
C974 C983 1.429 . S
C975 C973 1.419 . S
C975 C976 1.363 . S
C975 H978 0.929 . S
C976 C975 1.363 . S
C976 C982 1.428 . S
H977 C973 0.930 . S
H978 C975 0.929 . S
S979 N980 1.613 . S
S979 N981 1.610 . S
N980 S979 1.613 . S
N980 C983 1.350 . S
N981 S979 1.610 . S
N981 C982 1.351 . S
C982 C976 1.428 . S
C982 N981 1.351 . S
C982 C983 1.434 . S
C983 C974 1.429 . S
C983 N980 1.350 . S
C983 C982 1.434 . S
C984 C985 1.371 . S
C984 C986 1.420 . S
C984 H988 0.927 1_545 S
C985 C984 1.371 . S
C985 C994 1.429 . S
C986 C984 1.420 . S
C986 C987 1.363 . S
C986 H989 0.929 1_545 S
C987 C986 1.363 . S
C987 C993 1.428 . S
H988 C984 0.927 1_565 S
H989 C986 0.929 1_565 S
S990 N991 1.613 . S
S990 N992 1.610 . S
N991 S990 1.613 . S
N991 C994 1.350 . S
N992 S990 1.610 . S
N992 C993 1.351 . S
C993 C987 1.428 . S
C993 N992 1.351 . S
C993 C994 1.434 . S
C994 C985 1.429 . S
C994 N991 1.350 . S
C994 C993 1.434 . S
C995 C996 1.369 . S
C995 C997 1.419 . S
C995 H999 0.930 . S
C996 C995 1.369 . S
C996 C1005 1.429 . S
C997 C995 1.419 . S
C997 C998 1.363 . S
C997 H1000 0.929 . S
C998 C997 1.363 . S
C998 C1004 1.428 . S
H999 C995 0.930 . S
H1000 C997 0.929 . S
S1001 N1002 1.613 . S
S1001 N1003 1.610 . S
N1002 S1001 1.613 . S
N1002 C1005 1.350 . S
N1003 S1001 1.610 . S
N1003 C1004 1.351 . S
C1004 C998 1.428 . S
C1004 N1003 1.351 . S
C1004 C1005 1.434 . S
C1005 C996 1.429 . S
C1005 N1002 1.350 . S
C1005 C1004 1.434 . S
C1006 C1007 1.369 . S
C1006 C1008 1.419 . S
C1006 H1010 0.930 . S
C1007 C1006 1.369 . S
C1007 C1016 1.429 1_545 S
C1008 C1006 1.419 . S
C1008 C1009 1.363 . S
C1008 H1011 0.929 . S
C1009 C1008 1.363 . S
C1009 C1015 1.428 1_545 S
H1010 C1006 0.930 . S
H1011 C1008 0.929 . S
S1012 N1013 1.613 . S
S1012 N1014 1.610 . S
N1013 S1012 1.613 . S
N1013 C1016 1.350 . S
N1014 S1012 1.610 . S
N1014 C1015 1.351 . S
C1015 C1009 1.428 1_565 S
C1015 N1014 1.351 . S
C1015 C1016 1.434 . S
C1016 C1007 1.429 1_565 S
C1016 N1013 1.350 . S
C1016 C1015 1.434 . S
C1017 C1018 1.369 . S
C1017 C1019 1.419 . S
C1017 H1021 0.930 . S
C1018 C1017 1.369 . S
C1018 C1027 1.429 . S
C1019 C1017 1.419 . S
C1019 C1020 1.363 . S
C1019 H1022 0.929 . S
C1020 C1019 1.363 . S
C1020 C1026 1.428 . S
H1021 C1017 0.930 . S
H1022 C1019 0.929 . S
S1023 N1024 1.613 . S
S1023 N1025 1.610 . S
N1024 S1023 1.613 . S
N1024 C1027 1.350 . S
N1025 S1023 1.610 . S
N1025 C1026 1.351 . S
C1026 C1020 1.428 . S
C1026 N1025 1.351 . S
C1026 C1027 1.434 . S
C1027 C1018 1.429 . S
C1027 N1024 1.350 . S
C1027 C1026 1.434 . S
C1028 C1029 1.369 1_545 S
C1028 C1030 1.419 . S
C1028 H1032 0.930 . S
C1029 C1028 1.369 1_565 S
C1029 C1038 1.429 . S
C1030 C1028 1.419 . S
C1030 C1031 1.363 . S
C1030 H1033 0.929 . S
C1031 C1030 1.363 . S
C1031 C1037 1.428 1_545 S
H1032 C1028 0.930 . S
H1033 C1030 0.929 . S
S1034 N1035 1.613 . S
S1034 N1036 1.610 . S
N1035 S1034 1.613 . S
N1035 C1038 1.350 . S
N1036 S1034 1.610 . S
N1036 C1037 1.351 . S
C1037 C1031 1.428 1_565 S
C1037 N1036 1.351 . S
C1037 C1038 1.434 . S
C1038 C1029 1.429 . S
C1038 N1035 1.350 . S
C1038 C1037 1.434 . S
C1039 C1040 1.369 . S
C1039 C1041 1.419 . S
C1039 H1043 0.930 . S
C1040 C1039 1.369 . S
C1040 C1049 1.429 . S
C1041 C1039 1.419 . S
C1041 C1042 1.363 . S
C1041 H1044 0.929 . S
C1042 C1041 1.363 . S
C1042 C1048 1.428 . S
H1043 C1039 0.930 . S
H1044 C1041 0.929 . S
S1045 N1046 1.613 . S
S1045 N1047 1.610 . S
N1046 S1045 1.613 . S
N1046 C1049 1.350 . S
N1047 S1045 1.610 . S
N1047 C1048 1.351 . S
C1048 C1042 1.428 . S
C1048 N1047 1.351 . S
C1048 C1049 1.434 . S
C1049 C1040 1.429 . S
C1049 N1046 1.350 . S
C1049 C1048 1.434 . S
C1050 C1051 1.369 . S
C1050 C1052 1.419 . S
C1050 H1054 0.930 . S
C1051 C1050 1.369 . S
C1051 C1060 1.429 . S
C1052 C1050 1.419 . S
C1052 C1053 1.363 . S
C1052 H1055 0.929 . S
C1053 C1052 1.363 . S
C1053 C1059 1.428 . S
H1054 C1050 0.930 . S
H1055 C1052 0.929 . S
S1056 N1057 1.613 1_565 S
S1056 N1058 1.610 . S
N1057 S1056 1.613 1_545 S
N1057 C1060 1.350 . S
N1058 S1056 1.610 . S
N1058 C1059 1.351 1_565 S
C1059 C1053 1.428 . S
C1059 N1058 1.351 1_545 S
C1059 C1060 1.434 . S
C1060 C1051 1.429 . S
C1060 N1057 1.350 . S
C1060 C1059 1.434 . S
C1061 C1062 1.369 . S
C1061 C1063 1.419 . S
C1061 H1065 0.930 . S
C1062 C1061 1.369 . S
C1062 C1071 1.429 . S
C1063 C1061 1.419 . S
C1063 C1064 1.363 . S
C1063 H1066 0.929 . S
C1064 C1063 1.363 . S
C1064 C1070 1.428 . S
H1065 C1061 0.930 . S
H1066 C1063 0.929 . S
S1067 N1068 1.613 . S
S1067 N1069 1.610 . S
N1068 S1067 1.613 . S
N1068 C1071 1.350 . S
N1069 S1067 1.610 . S
N1069 C1070 1.351 . S
C1070 C1064 1.428 . S
C1070 N1069 1.351 . S
C1070 C1071 1.434 . S
C1071 C1062 1.429 . S
C1071 N1068 1.350 . S
C1071 C1070 1.434 . S
C1072 C1073 1.369 1_556 S
C1072 C1074 1.419 . S
C1072 H1076 0.930 . S
C1073 C1072 1.369 1_554 S
C1073 C1082 1.429 . S
C1074 C1072 1.419 . S
C1074 C1075 1.363 . S
C1074 H1077 0.929 . S
C1075 C1074 1.363 . S
C1075 C1081 1.428 1_556 S
H1076 C1072 0.930 . S
H1077 C1074 0.929 . S
S1078 N1079 1.613 . S
S1078 N1080 1.610 . S
N1079 S1078 1.613 . S
N1079 C1082 1.350 . S
N1080 S1078 1.610 . S
N1080 C1081 1.351 . S
C1081 C1075 1.428 1_554 S
C1081 N1080 1.351 . S
C1081 C1082 1.434 . S
C1082 C1073 1.429 . S
C1082 N1079 1.350 . S
C1082 C1081 1.434 . S
C1083 C1084 1.369 . S
C1083 C1085 1.419 . S
C1083 H1087 0.933 . S
C1084 C1083 1.369 . S
C1084 C1093 1.429 . S
C1085 C1083 1.419 . S
C1085 C1086 1.363 . S
C1085 H1088 0.929 1_554 S
C1086 C1085 1.363 . S
C1086 C1092 1.428 . S
H1087 C1083 0.933 . S
H1088 C1085 0.929 1_556 S
S1089 N1090 1.613 . S
S1089 N1091 1.610 . S
N1090 S1089 1.613 . S
N1090 C1093 1.350 . S
N1091 S1089 1.610 . S
N1091 C1092 1.351 . S
C1092 C1086 1.428 . S
C1092 N1091 1.351 . S
C1092 C1093 1.434 . S
C1093 C1084 1.429 . S
C1093 N1090 1.350 . S
C1093 C1092 1.434 . S
C1094 C1095 1.369 . S
C1094 C1096 1.419 . S
C1094 H1098 0.930 . S
C1095 C1094 1.369 . S
C1095 C1104 1.429 . S
C1096 C1094 1.419 . S
C1096 C1097 1.363 . S
C1096 H1099 0.929 . S
C1097 C1096 1.363 . S
C1097 C1103 1.428 . S
H1098 C1094 0.930 . S
H1099 C1096 0.929 . S
S1100 N1101 1.613 . S
S1100 N1102 1.610 . S
N1101 S1100 1.613 . S
N1101 C1104 1.350 . S
N1102 S1100 1.610 . S
N1102 C1103 1.351 . S
C1103 C1097 1.428 . S
C1103 N1102 1.351 . S
C1103 C1104 1.434 . S
C1104 C1095 1.429 . S
C1104 N1101 1.350 . S
C1104 C1103 1.434 . S
C1105 C1106 1.369 . S
C1105 C1107 1.419 . S
C1105 H1109 0.930 . S
C1106 C1105 1.369 . S
C1106 C1115 1.429 . S
C1107 C1105 1.419 . S
C1107 C1108 1.363 . S
C1107 H1110 0.929 . S
C1108 C1107 1.363 . S
C1108 C1114 1.428 . S
H1109 C1105 0.930 . S
H1110 C1107 0.929 . S
S1111 N1112 1.613 . S
S1111 N1113 1.610 . S
N1112 S1111 1.613 . S
N1112 C1115 1.350 . S
N1113 S1111 1.610 . S
N1113 C1114 1.351 . S
C1114 C1108 1.428 . S
C1114 N1113 1.351 . S
C1114 C1115 1.434 . S
C1115 C1106 1.429 . S
C1115 N1112 1.350 . S
C1115 C1114 1.434 . S
C1116 C1117 1.369 . S
C1116 C1118 1.419 . S
C1116 H1120 0.930 . S
C1117 C1116 1.369 . S
C1117 C1126 1.429 . S
C1118 C1116 1.419 . S
C1118 C1119 1.363 . S
C1118 H1121 0.929 . S
C1119 C1118 1.363 . S
C1119 C1125 1.428 . S
H1120 C1116 0.930 . S
H1121 C1118 0.929 . S
S1122 N1123 1.613 . S
S1122 N1124 1.610 . S
N1123 S1122 1.613 . S
N1123 C1126 1.350 . S
N1124 S1122 1.610 . S
N1124 C1125 1.351 . S
C1125 C1119 1.428 . S
C1125 N1124 1.351 . S
C1125 C1126 1.434 . S
C1126 C1117 1.429 . S
C1126 N1123 1.350 . S
C1126 C1125 1.434 . S
C1127 C1128 1.369 . S
C1127 C1129 1.419 . S
C1127 H1131 0.930 . S
C1128 C1127 1.369 . S
C1128 C1137 1.429 . S
C1129 C1127 1.419 . S
C1129 C1130 1.363 . S
C1129 H1132 0.929 . S
C1130 C1129 1.363 . S
C1130 C1136 1.428 . S
H1131 C1127 0.930 . S
H1132 C1129 0.929 . S
S1133 N1134 1.613 . S
S1133 N1135 1.610 . S
N1134 S1133 1.613 . S
N1134 C1137 1.350 . S
N1135 S1133 1.610 . S
N1135 C1136 1.351 . S
C1136 C1130 1.428 . S
C1136 N1135 1.351 . S
C1136 C1137 1.434 . S
C1137 C1128 1.429 . S
C1137 N1134 1.350 . S
C1137 C1136 1.434 . S
C1138 C1139 1.369 . S
C1138 C1140 1.419 . S
C1138 H1142 0.930 . S
C1139 C1138 1.369 . S
C1139 C1148 1.429 . S
C1140 C1138 1.419 . S
C1140 C1141 1.363 . S
C1140 H1143 0.929 . S
C1141 C1140 1.363 . S
C1141 C1147 1.428 . S
H1142 C1138 0.930 . S
H1143 C1140 0.929 . S
S1144 N1145 1.613 . S
S1144 N1146 1.610 . S
N1145 S1144 1.613 . S
N1145 C1148 1.350 . S
N1146 S1144 1.610 . S
N1146 C1147 1.351 . S
C1147 C1141 1.428 . S
C1147 N1146 1.351 . S
C1147 C1148 1.434 . S
C1148 C1139 1.429 . S
C1148 N1145 1.350 . S
C1148 C1147 1.434 . S
C1149 C1150 1.369 . S
C1149 C1151 1.419 . S
C1149 H1153 0.930 . S
C1150 C1149 1.369 . S
C1150 C1159 1.429 . S
C1151 C1149 1.419 . S
C1151 C1152 1.363 . S
C1151 H1154 0.929 . S
C1152 C1151 1.363 . S
C1152 C1158 1.428 . S
H1153 C1149 0.930 . S
H1154 C1151 0.929 . S
S1155 N1156 1.613 . S
S1155 N1157 1.610 . S
N1156 S1155 1.613 . S
N1156 C1159 1.350 . S
N1157 S1155 1.610 . S
N1157 C1158 1.351 . S
C1158 C1152 1.428 . S
C1158 N1157 1.351 . S
C1158 C1159 1.434 . S
C1159 C1150 1.429 . S
C1159 N1156 1.350 . S
C1159 C1158 1.434 . S
C1160 C1161 1.369 . S
C1160 C1162 1.419 . S
C1160 H1164 0.930 . S
C1161 C1160 1.369 . S
C1161 C1170 1.429 . S
C1162 C1160 1.419 . S
C1162 C1163 1.363 . S
C1162 H1165 0.929 . S
C1163 C1162 1.363 . S
C1163 C1169 1.428 . S
H1164 C1160 0.930 . S
H1165 C1162 0.929 . S
S1166 N1167 1.613 . S
S1166 N1168 1.610 . S
N1167 S1166 1.613 . S
N1167 C1170 1.350 . S
N1168 S1166 1.610 . S
N1168 C1169 1.351 . S
C1169 C1163 1.428 . S
C1169 N1168 1.351 . S
C1169 C1170 1.434 . S
C1170 C1161 1.429 . S
C1170 N1167 1.350 . S
C1170 C1169 1.434 . S
C1171 C1172 1.369 . S
C1171 C1173 1.419 . S
C1171 H1175 0.930 . S
C1172 C1171 1.369 . S
C1172 C1181 1.429 . S
C1173 C1171 1.419 . S
C1173 C1174 1.363 . S
C1173 H1176 0.929 . S
C1174 C1173 1.363 . S
C1174 C1180 1.428 . S
H1175 C1171 0.930 . S
H1176 C1173 0.929 . S
S1177 N1178 1.613 . S
S1177 N1179 1.610 . S
N1178 S1177 1.613 . S
N1178 C1181 1.350 . S
N1179 S1177 1.610 . S
N1179 C1180 1.351 . S
C1180 C1174 1.428 . S
C1180 N1179 1.351 . S
C1180 C1181 1.434 . S
C1181 C1172 1.429 . S
C1181 N1178 1.350 . S
C1181 C1180 1.434 . S
C1182 C1183 1.369 . S
C1182 C1184 1.419 1_556 S
C1182 H1186 0.930 . S
C1183 C1182 1.369 . S
C1183 C1192 1.429 1_455 S
C1184 C1182 1.419 1_554 S
C1184 C1185 1.362 1_554 S
C1184 H1187 0.929 . S
C1185 C1184 1.362 1_556 S
C1185 C1191 1.435 1_455 S
H1186 C1182 0.930 . S
H1187 C1184 0.929 . S
S1188 N1189 1.613 . S
S1188 N1190 1.610 . S
N1189 S1188 1.613 . S
N1189 C1192 1.350 . S
N1190 S1188 1.610 . S
N1190 C1191 1.351 . S
C1191 C1185 1.435 1_655 S
C1191 N1190 1.351 . S
C1191 C1192 1.434 . S
C1192 C1183 1.429 1_655 S
C1192 N1189 1.350 . S
C1192 C1191 1.434 . S
C1193 C1194 1.369 . S
C1193 C1195 1.419 . S
C1193 H1197 0.930 . S
C1194 C1193 1.369 . S
C1194 C1203 1.429 . S
C1195 C1193 1.419 . S
C1195 C1196 1.363 . S
C1195 H1198 0.929 . S
C1196 C1195 1.363 . S
C1196 C1202 1.428 . S
H1197 C1193 0.930 . S
H1198 C1195 0.929 . S
S1199 N1200 1.613 . S
S1199 N1201 1.610 . S
N1200 S1199 1.613 . S
N1200 C1203 1.350 . S
N1201 S1199 1.610 . S
N1201 C1202 1.351 . S
C1202 C1196 1.428 . S
C1202 N1201 1.351 . S
C1202 C1203 1.434 . S
C1203 C1194 1.429 . S
C1203 N1200 1.350 . S
C1203 C1202 1.434 . S
C1204 C1205 1.369 . S
C1204 C1206 1.419 . S
C1204 H1208 0.930 . S
C1205 C1204 1.369 . S
C1205 C1214 1.429 . S
C1206 C1204 1.419 . S
C1206 C1207 1.363 . S
C1206 H1209 0.929 . S
C1207 C1206 1.363 . S
C1207 C1213 1.428 . S
H1208 C1204 0.930 . S
H1209 C1206 0.929 . S
S1210 N1211 1.613 . S
S1210 N1212 1.610 . S
N1211 S1210 1.613 . S
N1211 C1214 1.350 . S
N1212 S1210 1.610 . S
N1212 C1213 1.351 . S
C1213 C1207 1.428 . S
C1213 N1212 1.351 . S
C1213 C1214 1.434 . S
C1214 C1205 1.429 . S
C1214 N1211 1.350 . S
C1214 C1213 1.434 . S
C1215 C1216 1.369 . S
C1215 C1217 1.419 . S
C1215 H1219 0.930 . S
C1216 C1215 1.369 . S
C1216 C1225 1.429 . S
C1217 C1215 1.419 . S
C1217 C1218 1.363 . S
C1217 H1220 0.929 . S
C1218 C1217 1.363 . S
C1218 C1224 1.428 . S
H1219 C1215 0.930 . S
H1220 C1217 0.929 . S
S1221 N1222 1.613 . S
S1221 N1223 1.610 . S
N1222 S1221 1.613 . S
N1222 C1225 1.350 . S
N1223 S1221 1.610 . S
N1223 C1224 1.351 . S
C1224 C1218 1.428 . S
C1224 N1223 1.351 . S
C1224 C1225 1.434 . S
C1225 C1216 1.429 . S
C1225 N1222 1.350 . S
C1225 C1224 1.434 . S
C1226 C1227 1.369 1_455 S
C1226 C1228 1.419 . S
C1226 H1230 0.930 . S
C1227 C1226 1.369 1_655 S
C1227 C1236 1.429 . S
C1228 C1226 1.419 . S
C1228 C1229 1.363 . S
C1228 H1231 0.929 . S
C1229 C1228 1.363 . S
C1229 C1235 1.428 1_455 S
H1230 C1226 0.930 . S
H1231 C1228 0.929 . S
S1232 N1233 1.613 . S
S1232 N1234 1.610 . S
N1233 S1232 1.613 . S
N1233 C1236 1.350 . S
N1234 S1232 1.610 . S
N1234 C1235 1.351 . S
C1235 C1229 1.428 1_655 S
C1235 N1234 1.351 . S
C1235 C1236 1.434 . S
C1236 C1227 1.429 . S
C1236 N1233 1.350 . S
C1236 C1235 1.434 . S
C1237 C1238 1.369 . S
C1237 C1239 1.419 . S
C1237 H1241 0.930 . S
C1238 C1237 1.369 . S
C1238 C1247 1.429 . S
C1239 C1237 1.419 . S
C1239 C1240 1.363 . S
C1239 H1242 0.929 . S
C1240 C1239 1.363 . S
C1240 C1246 1.428 . S
H1241 C1237 0.930 . S
H1242 C1239 0.929 . S
S1243 N1244 1.613 . S
S1243 N1245 1.610 . S
N1244 S1243 1.613 . S
N1244 C1247 1.350 . S
N1245 S1243 1.610 . S
N1245 C1246 1.351 . S
C1246 C1240 1.428 . S
C1246 N1245 1.351 . S
C1246 C1247 1.434 . S
C1247 C1238 1.429 . S
C1247 N1244 1.350 . S
C1247 C1246 1.434 . S
C1248 C1249 1.369 . S
C1248 C1250 1.419 . S
C1248 H1252 0.930 . S
C1249 C1248 1.369 . S
C1249 C1258 1.429 . S
C1250 C1248 1.419 . S
C1250 C1251 1.363 . S
C1250 H1253 0.929 . S
C1251 C1250 1.363 . S
C1251 C1257 1.428 . S
H1252 C1248 0.930 . S
H1253 C1250 0.929 . S
S1254 N1255 1.613 . S
S1254 N1256 1.610 . S
N1255 S1254 1.613 . S
N1255 C1258 1.350 . S
N1256 S1254 1.610 . S
N1256 C1257 1.351 . S
C1257 C1251 1.428 . S
C1257 N1256 1.351 . S
C1257 C1258 1.434 . S
C1258 C1249 1.429 . S
C1258 N1255 1.350 . S
C1258 C1257 1.434 . S
C1259 C1260 1.369 . S
C1259 C1261 1.419 . S
C1259 H1263 0.930 . S
C1260 C1259 1.369 . S
C1260 C1269 1.429 . S
C1261 C1259 1.419 . S
C1261 C1262 1.363 . S
C1261 H1264 0.929 . S
C1262 C1261 1.363 . S
C1262 C1268 1.428 . S
H1263 C1259 0.930 . S
H1264 C1261 0.929 . S
S1265 N1266 1.613 . S
S1265 N1267 1.610 . S
N1266 S1265 1.613 . S
N1266 C1269 1.350 . S
N1267 S1265 1.610 . S
N1267 C1268 1.351 . S
C1268 C1262 1.428 . S
C1268 N1267 1.351 . S
C1268 C1269 1.434 . S
C1269 C1260 1.429 . S
C1269 N1266 1.350 . S
C1269 C1268 1.434 . S
C1270 C1271 1.369 . S
C1270 C1272 1.419 . S
C1270 H1274 0.930 . S
C1271 C1270 1.369 . S
C1271 C1280 1.429 . S
C1272 C1270 1.419 . S
C1272 C1273 1.363 . S
C1272 H1275 0.929 . S
C1273 C1272 1.363 . S
C1273 C1279 1.428 . S
H1274 C1270 0.930 . S
H1275 C1272 0.929 . S
S1276 N1277 1.613 . S
S1276 N1278 1.610 . S
N1277 S1276 1.613 . S
N1277 C1280 1.350 . S
N1278 S1276 1.610 . S
N1278 C1279 1.351 . S
C1279 C1273 1.428 . S
C1279 N1278 1.351 . S
C1279 C1280 1.434 . S
C1280 C1271 1.429 . S
C1280 N1277 1.350 . S
C1280 C1279 1.434 . S
C1281 C1282 1.369 . S
C1281 C1283 1.419 . S
C1281 H1285 0.930 . S
C1282 C1281 1.369 . S
C1282 C1291 1.429 . S
C1283 C1281 1.419 . S
C1283 C1284 1.363 . S
C1283 H1286 0.929 . S
C1284 C1283 1.363 . S
C1284 C1290 1.428 . S
H1285 C1281 0.930 . S
H1286 C1283 0.929 . S
S1287 N1288 1.613 . S
S1287 N1289 1.610 . S
N1288 S1287 1.613 . S
N1288 C1291 1.350 . S
N1289 S1287 1.610 . S
N1289 C1290 1.351 . S
C1290 C1284 1.428 . S
C1290 N1289 1.351 . S
C1290 C1291 1.434 . S
C1291 C1282 1.429 . S
C1291 N1288 1.350 . S
C1291 C1290 1.434 . S
C1292 C1293 1.369 . S
C1292 C1294 1.419 . S
C1292 H1296 0.930 . S
C1293 C1292 1.369 . S
C1293 C1302 1.429 . S
C1294 C1292 1.419 . S
C1294 C1295 1.363 . S
C1294 H1297 0.929 . S
C1295 C1294 1.363 . S
C1295 C1301 1.428 . S
H1296 C1292 0.930 . S
H1297 C1294 0.929 . S
S1298 N1299 1.613 . S
S1298 N1300 1.610 . S
N1299 S1298 1.613 . S
N1299 C1302 1.350 . S
N1300 S1298 1.610 . S
N1300 C1301 1.351 . S
C1301 C1295 1.428 . S
C1301 N1300 1.351 . S
C1301 C1302 1.434 . S
C1302 C1293 1.429 . S
C1302 N1299 1.350 . S
C1302 C1301 1.434 . S
C1303 C1304 1.369 . S
C1303 C1305 1.419 . S
C1303 H1307 0.930 . S
C1304 C1303 1.369 . S
C1304 C1313 1.429 . S
C1305 C1303 1.419 . S
C1305 C1306 1.363 . S
C1305 H1308 0.929 . S
C1306 C1305 1.363 . S
C1306 C1312 1.428 . S
H1307 C1303 0.930 . S
H1308 C1305 0.929 . S
S1309 N1310 1.613 . S
S1309 N1311 1.610 . S
N1310 S1309 1.613 . S
N1310 C1313 1.350 . S
N1311 S1309 1.610 . S
N1311 C1312 1.351 . S
C1312 C1306 1.428 . S
C1312 N1311 1.351 . S
C1312 C1313 1.434 . S
C1313 C1304 1.429 . S
C1313 N1310 1.350 . S
C1313 C1312 1.434 . S
C1314 C1315 1.369 . S
C1314 C1316 1.419 . S
C1314 H1318 0.930 . S
C1315 C1314 1.369 . S
C1315 C1324 1.429 . S
C1316 C1314 1.419 . S
C1316 C1317 1.363 . S
C1316 H1319 0.929 . S
C1317 C1316 1.363 . S
C1317 C1323 1.428 . S
H1318 C1314 0.930 . S
H1319 C1316 0.929 . S
S1320 N1321 1.613 . S
S1320 N1322 1.610 . S
N1321 S1320 1.613 . S
N1321 C1324 1.350 . S
N1322 S1320 1.610 . S
N1322 C1323 1.351 . S
C1323 C1317 1.428 . S
C1323 N1322 1.351 . S
C1323 C1324 1.434 . S
C1324 C1315 1.429 . S
C1324 N1321 1.350 . S
C1324 C1323 1.434 . S
C1325 C1326 1.369 . S
C1325 C1327 1.419 . S
C1325 H1329 0.930 . S
C1326 C1325 1.369 . S
C1326 C1335 1.429 . S
C1327 C1325 1.419 . S
C1327 C1328 1.363 . S
C1327 H1330 0.929 . S
C1328 C1327 1.363 . S
C1328 C1334 1.428 . S
H1329 C1325 0.930 . S
H1330 C1327 0.929 . S
S1331 N1332 1.613 . S
S1331 N1333 1.610 . S
N1332 S1331 1.613 . S
N1332 C1335 1.350 . S
N1333 S1331 1.610 . S
N1333 C1334 1.351 . S
C1334 C1328 1.428 . S
C1334 N1333 1.351 . S
C1334 C1335 1.434 . S
C1335 C1326 1.429 . S
C1335 N1332 1.350 . S
C1335 C1334 1.434 . S
C1336 C1337 1.369 . S
C1336 C1338 1.419 . S
C1336 H1340 0.930 . S
C1337 C1336 1.369 . S
C1337 C1346 1.429 . S
C1338 C1336 1.419 . S
C1338 C1339 1.363 . S
C1338 H1341 0.929 . S
C1339 C1338 1.363 . S
C1339 C1345 1.428 . S
H1340 C1336 0.930 . S
H1341 C1338 0.929 . S
S1342 N1343 1.613 . S
S1342 N1344 1.610 . S
N1343 S1342 1.613 . S
N1343 C1346 1.350 . S
N1344 S1342 1.610 . S
N1344 C1345 1.351 . S
C1345 C1339 1.428 . S
C1345 N1344 1.351 . S
C1345 C1346 1.434 . S
C1346 C1337 1.429 . S
C1346 N1343 1.350 . S
C1346 C1345 1.434 . S
C1347 C1348 1.369 . S
C1347 C1349 1.419 . S
C1347 H1351 0.930 . S
C1348 C1347 1.369 . S
C1348 C1357 1.429 . S
C1349 C1347 1.419 . S
C1349 C1350 1.363 . S
C1349 H1352 0.929 . S
C1350 C1349 1.363 . S
C1350 C1356 1.428 . S
H1351 C1347 0.930 . S
H1352 C1349 0.929 . S
S1353 N1354 1.613 . S
S1353 N1355 1.610 . S
N1354 S1353 1.613 . S
N1354 C1357 1.350 . S
N1355 S1353 1.610 . S
N1355 C1356 1.351 . S
C1356 C1350 1.428 . S
C1356 N1355 1.351 . S
C1356 C1357 1.434 . S
C1357 C1348 1.429 . S
C1357 N1354 1.350 . S
C1357 C1356 1.434 . S
C1358 C1359 1.369 . S
C1358 C1360 1.419 . S
C1358 H1362 0.930 . S
C1359 C1358 1.369 . S
C1359 C1368 1.429 . S
C1360 C1358 1.419 . S
C1360 C1361 1.363 . S
C1360 H1363 0.929 . S
C1361 C1360 1.363 . S
C1361 C1367 1.428 . S
H1362 C1358 0.930 . S
H1363 C1360 0.929 . S
S1364 N1365 1.613 . S
S1364 N1366 1.610 . S
N1365 S1364 1.613 . S
N1365 C1368 1.350 . S
N1366 S1364 1.610 . S
N1366 C1367 1.351 . S
C1367 C1361 1.428 . S
C1367 N1366 1.351 . S
C1367 C1368 1.434 . S
C1368 C1359 1.429 . S
C1368 N1365 1.350 . S
C1368 C1367 1.434 . S
C1369 C1370 1.369 . S
C1369 C1371 1.419 1_565 S
C1369 H1373 0.930 . S
C1370 C1369 1.369 . S
C1370 C1379 1.429 1_554 S
C1371 C1369 1.419 1_545 S
C1371 C1372 1.363 1_545 S
C1371 H1374 0.929 . S
C1372 C1371 1.363 1_565 S
C1372 C1378 1.426 1_554 S
H1373 C1369 0.930 . S
H1374 C1371 0.929 . S
S1375 N1376 1.613 . S
S1375 N1377 1.610 . S
N1376 S1375 1.613 . S
N1376 C1379 1.350 . S
N1377 S1375 1.610 . S
N1377 C1378 1.351 . S
C1378 C1372 1.426 1_556 S
C1378 N1377 1.351 . S
C1378 C1379 1.434 . S
C1379 C1370 1.429 1_556 S
C1379 N1376 1.350 . S
C1379 C1378 1.434 . S
C1380 C1381 1.369 . S
C1380 C1382 1.419 . S
C1380 H1384 0.930 . S
C1381 C1380 1.369 . S
C1381 C1390 1.429 . S
C1382 C1380 1.419 . S
C1382 C1383 1.363 . S
C1382 H1385 0.929 . S
C1383 C1382 1.363 . S
C1383 C1389 1.428 . S
H1384 C1380 0.930 . S
H1385 C1382 0.929 . S
S1386 N1387 1.613 . S
S1386 N1388 1.610 . S
N1387 S1386 1.613 . S
N1387 C1390 1.350 . S
N1388 S1386 1.610 . S
N1388 C1389 1.351 . S
C1389 C1383 1.428 . S
C1389 N1388 1.351 . S
C1389 C1390 1.434 . S
C1390 C1381 1.429 . S
C1390 N1387 1.350 . S
C1390 C1389 1.434 . S
C1391 C1392 1.369 . S
C1391 C1393 1.419 . S
C1391 H1395 0.930 1_554 S
C1392 C1391 1.369 . S
C1392 C1401 1.429 . S
C1393 C1391 1.419 . S
C1393 C1394 1.363 . S
C1393 H1396 0.929 . S
C1394 C1393 1.363 . S
C1394 C1400 1.428 . S
H1395 C1391 0.930 1_556 S
H1396 C1393 0.929 . S
S1397 N1398 1.613 . S
S1397 N1399 1.610 . S
N1398 S1397 1.613 . S
N1398 C1401 1.350 . S
N1399 S1397 1.610 . S
N1399 C1400 1.351 . S
C1400 C1394 1.428 . S
C1400 N1399 1.351 . S
C1400 C1401 1.434 . S
C1401 C1392 1.429 . S
C1401 N1398 1.350 . S
C1401 C1400 1.434 . S
C1402 C1403 1.369 . S
C1402 C1404 1.419 . S
C1402 H1406 0.930 . S
C1403 C1402 1.369 . S
C1403 C1412 1.429 . S
C1404 C1402 1.419 . S
C1404 C1405 1.363 . S
C1404 H1407 0.929 . S
C1405 C1404 1.363 . S
C1405 C1411 1.428 . S
H1406 C1402 0.930 . S
H1407 C1404 0.929 . S
S1408 N1409 1.613 . S
S1408 N1410 1.610 . S
N1409 S1408 1.613 . S
N1409 C1412 1.350 . S
N1410 S1408 1.610 . S
N1410 C1411 1.351 . S
C1411 C1405 1.428 . S
C1411 N1410 1.351 . S
C1411 C1412 1.434 . S
C1412 C1403 1.429 . S
C1412 N1409 1.350 . S
C1412 C1411 1.434 . S
C1413 C1414 1.369 . S
C1413 C1415 1.419 . S
C1413 H1417 0.930 . S
C1414 C1413 1.369 . S
C1414 C1423 1.429 . S
C1415 C1413 1.419 . S
C1415 C1416 1.363 . S
C1415 H1418 0.929 . S
C1416 C1415 1.363 . S
C1416 C1422 1.428 . S
H1417 C1413 0.930 . S
H1418 C1415 0.929 . S
S1419 N1420 1.613 . S
S1419 N1421 1.610 . S
N1420 S1419 1.613 . S
N1420 C1423 1.350 . S
N1421 S1419 1.610 . S
N1421 C1422 1.351 . S
C1422 C1416 1.428 . S
C1422 N1421 1.351 . S
C1422 C1423 1.434 . S
C1423 C1414 1.429 . S
C1423 N1420 1.350 . S
C1423 C1422 1.434 . S
C1424 C1425 1.369 . S
C1424 C1426 1.419 . S
C1424 H1428 0.930 . S
C1425 C1424 1.369 . S
C1425 C1434 1.429 . S
C1426 C1424 1.419 . S
C1426 C1427 1.363 . S
C1426 H1429 0.929 . S
C1427 C1426 1.363 . S
C1427 C1433 1.428 . S
H1428 C1424 0.930 . S
H1429 C1426 0.929 . S
S1430 N1431 1.613 . S
S1430 N1432 1.610 . S
N1431 S1430 1.613 . S
N1431 C1434 1.350 . S
N1432 S1430 1.610 . S
N1432 C1433 1.351 . S
C1433 C1427 1.428 . S
C1433 N1432 1.351 . S
C1433 C1434 1.434 . S
C1434 C1425 1.429 . S
C1434 N1431 1.350 . S
C1434 C1433 1.434 . S
C1435 C1436 1.369 . S
C1435 C1437 1.419 . S
C1435 H1439 0.930 . S
C1436 C1435 1.369 . S
C1436 C1445 1.429 . S
C1437 C1435 1.419 . S
C1437 C1438 1.363 . S
C1437 H1440 0.929 . S
C1438 C1437 1.363 . S
C1438 C1444 1.428 . S
H1439 C1435 0.930 . S
H1440 C1437 0.929 . S
S1441 N1442 1.613 . S
S1441 N1443 1.610 . S
N1442 S1441 1.613 . S
N1442 C1445 1.350 . S
N1443 S1441 1.610 . S
N1443 C1444 1.351 . S
C1444 C1438 1.428 . S
C1444 N1443 1.351 . S
C1444 C1445 1.434 . S
C1445 C1436 1.429 . S
C1445 N1442 1.350 . S
C1445 C1444 1.434 . S
C1446 C1447 1.369 . S
C1446 C1448 1.419 . S
C1446 H1450 0.930 . S
C1447 C1446 1.369 . S
C1447 C1456 1.429 . S
C1448 C1446 1.419 . S
C1448 C1449 1.363 . S
C1448 H1451 0.929 . S
C1449 C1448 1.363 . S
C1449 C1455 1.427 . S
H1450 C1446 0.930 . S
H1451 C1448 0.929 . S
S1452 N1453 1.613 . S
S1452 N1454 1.610 . S
N1453 S1452 1.613 . S
N1453 C1456 1.350 1_655 S
N1454 S1452 1.610 . S
N1454 C1455 1.352 1_655 S
C1455 C1449 1.427 . S
C1455 N1454 1.352 1_455 S
C1455 C1456 1.434 . S
C1456 C1447 1.429 . S
C1456 N1453 1.350 1_455 S
C1456 C1455 1.434 . S
C1457 C1458 1.369 . S
C1457 C1459 1.419 . S
C1457 H1461 0.930 . S
C1458 C1457 1.369 . S
C1458 C1467 1.429 . S
C1459 C1457 1.419 . S
C1459 C1460 1.363 . S
C1459 H1462 0.929 . S
C1460 C1459 1.363 . S
C1460 C1466 1.428 . S
H1461 C1457 0.930 . S
H1462 C1459 0.929 . S
S1463 N1464 1.613 . S
S1463 N1465 1.610 . S
N1464 S1463 1.613 . S
N1464 C1467 1.350 . S
N1465 S1463 1.610 . S
N1465 C1466 1.351 . S
C1466 C1460 1.428 . S
C1466 N1465 1.351 . S
C1466 C1467 1.434 . S
C1467 C1458 1.429 . S
C1467 N1464 1.350 . S
C1467 C1466 1.434 . S
C1468 C1469 1.369 . S
C1468 C1470 1.419 . S
C1468 H1472 0.930 . S
C1469 C1468 1.369 . S
C1469 C1478 1.429 . S
C1470 C1468 1.419 . S
C1470 C1471 1.363 . S
C1470 H1473 0.919 1_556 S
C1471 C1470 1.363 . S
C1471 C1477 1.428 . S
H1472 C1468 0.930 . S
H1473 C1470 0.919 1_554 S
S1474 N1475 1.613 . S
S1474 N1476 1.610 . S
N1475 S1474 1.613 . S
N1475 C1478 1.350 . S
N1476 S1474 1.610 . S
N1476 C1477 1.351 . S
C1477 C1471 1.428 . S
C1477 N1476 1.351 . S
C1477 C1478 1.434 . S
C1478 C1469 1.429 . S
C1478 N1475 1.350 . S
C1478 C1477 1.434 . S
C1479 C1480 1.369 . S
C1479 C1481 1.419 . S
C1479 H1483 0.930 . S
C1480 C1479 1.369 . S
C1480 C1489 1.429 . S
C1481 C1479 1.419 . S
C1481 C1482 1.363 . S
C1481 H1484 0.929 . S
C1482 C1481 1.363 . S
C1482 C1488 1.428 . S
H1483 C1479 0.930 . S
H1484 C1481 0.929 . S
S1485 N1486 1.613 . S
S1485 N1487 1.610 . S
N1486 S1485 1.613 . S
N1486 C1489 1.350 . S
N1487 S1485 1.610 . S
N1487 C1488 1.351 . S
C1488 C1482 1.428 . S
C1488 N1487 1.351 . S
C1488 C1489 1.434 . S
C1489 C1480 1.429 . S
C1489 N1486 1.350 . S
C1489 C1488 1.434 . S
C1490 C1491 1.369 . S
C1490 C1492 1.419 . S
C1490 H1494 0.930 . S
C1491 C1490 1.369 . S
C1491 C1500 1.429 . S
C1492 C1490 1.419 . S
C1492 C1493 1.363 . S
C1492 H1495 0.929 . S
C1493 C1492 1.363 . S
C1493 C1499 1.428 . S
H1494 C1490 0.930 . S
H1495 C1492 0.929 . S
S1496 N1497 1.592 1_655 S
S1496 N1498 1.610 . S
N1497 S1496 1.592 1_455 S
N1497 C1500 1.364 . S
N1498 S1496 1.610 . S
N1498 C1499 1.351 1_655 S
C1499 C1493 1.428 . S
C1499 N1498 1.351 1_455 S
C1499 C1500 1.434 . S
C1500 C1491 1.429 . S
C1500 N1497 1.364 . S
C1500 C1499 1.434 . S
C1501 C1502 1.369 . S
C1501 C1503 1.419 . S
C1501 H1505 0.930 . S
C1502 C1501 1.369 . S
C1502 C1511 1.429 . S
C1503 C1501 1.419 . S
C1503 C1504 1.363 . S
C1503 H1506 0.929 . S
C1504 C1503 1.363 . S
C1504 C1510 1.428 . S
H1505 C1501 0.930 . S
H1506 C1503 0.929 . S
S1507 N1508 1.613 . S
S1507 N1509 1.610 . S
N1508 S1507 1.613 . S
N1508 C1511 1.350 . S
N1509 S1507 1.610 . S
N1509 C1510 1.351 . S
C1510 C1504 1.428 . S
C1510 N1509 1.351 . S
C1510 C1511 1.434 . S
C1511 C1502 1.429 . S
C1511 N1508 1.350 . S
C1511 C1510 1.434 . S
C1512 C1513 1.369 . S
C1512 C1514 1.419 . S
C1512 H1516 0.930 . S
C1513 C1512 1.369 . S
C1513 C1522 1.429 . S
C1514 C1512 1.419 . S
C1514 C1515 1.363 . S
C1514 H1517 0.929 . S
C1515 C1514 1.363 . S
C1515 C1521 1.428 . S
H1516 C1512 0.930 . S
H1517 C1514 0.929 . S
S1518 N1519 1.613 . S
S1518 N1520 1.610 . S
N1519 S1518 1.613 . S
N1519 C1522 1.350 . S
N1520 S1518 1.610 . S
N1520 C1521 1.351 . S
C1521 C1515 1.428 . S
C1521 N1520 1.351 . S
C1521 C1522 1.434 . S
C1522 C1513 1.429 . S
C1522 N1519 1.350 . S
C1522 C1521 1.434 . S
C1523 C1524 1.369 . S
C1523 C1525 1.419 . S
C1523 H1527 0.930 . S
C1524 C1523 1.369 . S
C1524 C1533 1.429 . S
C1525 C1523 1.419 . S
C1525 C1526 1.363 . S
C1525 H1528 0.929 . S
C1526 C1525 1.363 . S
C1526 C1532 1.428 . S
H1527 C1523 0.930 . S
H1528 C1525 0.929 . S
S1529 N1530 1.613 . S
S1529 N1531 1.610 . S
N1530 S1529 1.613 . S
N1530 C1533 1.350 . S
N1531 S1529 1.610 . S
N1531 C1532 1.351 . S
C1532 C1526 1.428 . S
C1532 N1531 1.351 . S
C1532 C1533 1.434 . S
C1533 C1524 1.429 . S
C1533 N1530 1.350 . S
C1533 C1532 1.434 . S
C1534 C1535 1.369 . S
C1534 C1536 1.419 . S
C1534 H1538 0.930 . S
C1535 C1534 1.369 . S
C1535 C1544 1.429 . S
C1536 C1534 1.419 . S
C1536 C1537 1.363 . S
C1536 H1539 0.929 1_655 S
C1537 C1536 1.363 . S
C1537 C1543 1.428 . S
H1538 C1534 0.930 . S
H1539 C1536 0.929 1_455 S
S1540 N1541 1.613 . S
S1540 N1542 1.610 . S
N1541 S1540 1.613 . S
N1541 C1544 1.350 . S
N1542 S1540 1.610 . S
N1542 C1543 1.351 . S
C1543 C1537 1.428 . S
C1543 N1542 1.351 . S
C1543 C1544 1.434 . S
C1544 C1535 1.429 . S
C1544 N1541 1.350 . S
C1544 C1543 1.434 . S
C1545 C1546 1.369 . S
C1545 C1547 1.419 . S
C1545 H1549 0.930 . S
C1546 C1545 1.369 . S
C1546 C1555 1.429 . S
C1547 C1545 1.419 . S
C1547 C1548 1.363 . S
C1547 H1550 0.929 . S
C1548 C1547 1.363 . S
C1548 C1554 1.428 . S
H1549 C1545 0.930 . S
H1550 C1547 0.929 . S
S1551 N1552 1.613 . S
S1551 N1553 1.610 . S
N1552 S1551 1.613 . S
N1552 C1555 1.350 . S
N1553 S1551 1.610 . S
N1553 C1554 1.351 . S
C1554 C1548 1.428 . S
C1554 N1553 1.351 . S
C1554 C1555 1.434 . S
C1555 C1546 1.429 . S
C1555 N1552 1.350 . S
C1555 C1554 1.434 . S
C1556 C1557 1.369 . S
C1556 C1558 1.419 . S
C1556 H1560 0.930 . S
C1557 C1556 1.369 . S
C1557 C1566 1.429 . S
C1558 C1556 1.419 . S
C1558 C1559 1.363 . S
C1558 H1561 0.929 . S
C1559 C1558 1.363 . S
C1559 C1565 1.428 . S
H1560 C1556 0.930 . S
H1561 C1558 0.929 . S
S1562 N1563 1.613 . S
S1562 N1564 1.610 . S
N1563 S1562 1.613 . S
N1563 C1566 1.350 . S
N1564 S1562 1.610 . S
N1564 C1565 1.351 . S
C1565 C1559 1.428 . S
C1565 N1564 1.351 . S
C1565 C1566 1.434 . S
C1566 C1557 1.429 . S
C1566 N1563 1.350 . S
C1566 C1565 1.434 . S
C1567 C1568 1.369 . S
C1567 C1569 1.419 . S
C1567 H1571 0.930 . S
C1568 C1567 1.369 . S
C1568 C1577 1.429 . S
C1569 C1567 1.419 . S
C1569 C1570 1.363 . S
C1569 H1572 0.929 . S
C1570 C1569 1.363 . S
C1570 C1576 1.428 . S
H1571 C1567 0.930 . S
H1572 C1569 0.929 . S
S1573 N1574 1.613 . S
S1573 N1575 1.610 . S
N1574 S1573 1.613 . S
N1574 C1577 1.350 . S
N1575 S1573 1.610 . S
N1575 C1576 1.351 . S
C1576 C1570 1.428 . S
C1576 N1575 1.351 . S
C1576 C1577 1.434 . S
C1577 C1568 1.429 . S
C1577 N1574 1.350 . S
C1577 C1576 1.434 . S
C1578 C1579 1.369 . S
C1578 C1580 1.419 . S
C1578 H1582 0.930 . S
C1579 C1578 1.369 . S
C1579 C1588 1.429 . S
C1580 C1578 1.419 . S
C1580 C1581 1.363 . S
C1580 H1583 0.929 . S
C1581 C1580 1.363 . S
C1581 C1587 1.428 . S
H1582 C1578 0.930 . S
H1583 C1580 0.929 . S
S1584 N1585 1.613 . S
S1584 N1586 1.610 . S
N1585 S1584 1.613 . S
N1585 C1588 1.350 . S
N1586 S1584 1.610 . S
N1586 C1587 1.351 . S
C1587 C1581 1.428 . S
C1587 N1586 1.351 . S
C1587 C1588 1.434 . S
C1588 C1579 1.429 . S
C1588 N1585 1.350 . S
C1588 C1587 1.434 . S
C1589 C1590 1.369 . S
C1589 C1591 1.419 . S
C1589 H1593 0.930 . S
C1590 C1589 1.369 . S
C1590 C1599 1.429 . S
C1591 C1589 1.419 . S
C1591 C1592 1.363 . S
C1591 H1594 0.929 . S
C1592 C1591 1.363 . S
C1592 C1598 1.428 . S
H1593 C1589 0.930 . S
H1594 C1591 0.929 . S
S1595 N1596 1.613 . S
S1595 N1597 1.610 . S
N1596 S1595 1.613 . S
N1596 C1599 1.350 . S
N1597 S1595 1.610 . S
N1597 C1598 1.351 . S
C1598 C1592 1.428 . S
C1598 N1597 1.351 . S
C1598 C1599 1.434 . S
C1599 C1590 1.429 . S
C1599 N1596 1.350 . S
C1599 C1598 1.434 . S
C1600 C1601 1.369 . S
C1600 C1602 1.419 . S
C1600 H1604 0.930 . S
C1601 C1600 1.369 . S
C1601 C1610 1.429 . S
C1602 C1600 1.419 . S
C1602 C1603 1.363 . S
C1602 H1605 0.929 . S
C1603 C1602 1.363 . S
C1603 C1609 1.428 . S
H1604 C1600 0.930 . S
H1605 C1602 0.929 . S
S1606 N1607 1.613 . S
S1606 N1608 1.610 . S
N1607 S1606 1.613 . S
N1607 C1610 1.350 . S
N1608 S1606 1.610 . S
N1608 C1609 1.351 . S
C1609 C1603 1.428 . S
C1609 N1608 1.351 . S
C1609 C1610 1.434 . S
C1610 C1601 1.429 . S
C1610 N1607 1.350 . S
C1610 C1609 1.434 . S
C1611 C1612 1.369 . S
C1611 C1613 1.419 . S
C1611 H1615 0.930 . S
C1612 C1611 1.369 . S
C1612 C1621 1.429 . S
C1613 C1611 1.419 . S
C1613 C1614 1.363 . S
C1613 H1616 0.929 1_565 S
C1614 C1613 1.363 . S
C1614 C1620 1.428 . S
H1615 C1611 0.930 . S
H1616 C1613 0.929 1_545 S
S1617 N1618 1.613 . S
S1617 N1619 1.610 . S
N1618 S1617 1.613 . S
N1618 C1621 1.350 . S
N1619 S1617 1.610 . S
N1619 C1620 1.351 . S
C1620 C1614 1.428 . S
C1620 N1619 1.351 . S
C1620 C1621 1.434 . S
C1621 C1612 1.429 . S
C1621 N1618 1.350 . S
C1621 C1620 1.434 . S
C1622 C1623 1.369 . S
C1622 C1624 1.419 . S
C1622 H1626 0.930 . S
C1623 C1622 1.369 . S
C1623 C1632 1.429 . S
C1624 C1622 1.419 . S
C1624 C1625 1.363 . S
C1624 H1627 0.929 . S
C1625 C1624 1.363 . S
C1625 C1631 1.428 . S
H1626 C1622 0.930 . S
H1627 C1624 0.929 . S
S1628 N1629 1.613 . S
S1628 N1630 1.610 . S
N1629 S1628 1.613 . S
N1629 C1632 1.350 . S
N1630 S1628 1.610 . S
N1630 C1631 1.351 . S
C1631 C1625 1.428 . S
C1631 N1630 1.351 . S
C1631 C1632 1.434 . S
C1632 C1623 1.429 . S
C1632 N1629 1.350 . S
C1632 C1631 1.434 . S
C1633 C1634 1.369 1_554 S
C1633 C1635 1.419 . S
C1633 H1637 0.930 . S
C1634 C1633 1.369 1_556 S
C1634 C1643 1.429 . S
C1635 C1633 1.419 . S
C1635 C1636 1.363 . S
C1635 H1638 0.929 . S
C1636 C1635 1.363 . S
C1636 C1642 1.428 1_554 S
H1637 C1633 0.930 . S
H1638 C1635 0.929 . S
S1639 N1640 1.613 . S
S1639 N1641 1.610 . S
N1640 S1639 1.613 . S
N1640 C1643 1.350 . S
N1641 S1639 1.610 . S
N1641 C1642 1.351 . S
C1642 C1636 1.428 1_556 S
C1642 N1641 1.351 . S
C1642 C1643 1.434 . S
C1643 C1634 1.429 . S
C1643 N1640 1.350 . S
C1643 C1642 1.434 . S
C1644 C1645 1.369 . S
C1644 C1646 1.419 . S
C1644 H1648 0.930 . S
C1645 C1644 1.369 . S
C1645 C1654 1.429 . S
C1646 C1644 1.419 . S
C1646 C1647 1.363 . S
C1646 H1649 0.929 . S
C1647 C1646 1.363 . S
C1647 C1653 1.428 . S
H1648 C1644 0.930 . S
H1649 C1646 0.929 . S
S1650 N1651 1.613 . S
S1650 N1652 1.610 . S
N1651 S1650 1.613 . S
N1651 C1654 1.350 . S
N1652 S1650 1.610 . S
N1652 C1653 1.351 . S
C1653 C1647 1.428 . S
C1653 N1652 1.351 . S
C1653 C1654 1.434 . S
C1654 C1645 1.429 . S
C1654 N1651 1.350 . S
C1654 C1653 1.434 . S
C1655 C1656 1.369 . S
C1655 C1657 1.419 . S
C1655 H1659 0.930 . S
C1656 C1655 1.369 . S
C1656 C1665 1.429 . S
C1657 C1655 1.419 . S
C1657 C1658 1.363 . S
C1657 H1660 0.929 1_554 S
C1658 C1657 1.363 . S
C1658 C1664 1.428 . S
H1659 C1655 0.930 . S
H1660 C1657 0.929 1_556 S
S1661 N1662 1.613 . S
S1661 N1663 1.610 . S
N1662 S1661 1.613 . S
N1662 C1665 1.350 . S
N1663 S1661 1.610 . S
N1663 C1664 1.351 . S
C1664 C1658 1.428 . S
C1664 N1663 1.351 . S
C1664 C1665 1.434 . S
C1665 C1656 1.429 . S
C1665 N1662 1.350 . S
C1665 C1664 1.434 . S
C1666 C1667 1.369 . S
C1666 C1668 1.419 . S
C1666 H1670 0.930 . S
C1667 C1666 1.369 . S
C1667 C1676 1.429 . S
C1668 C1666 1.419 . S
C1668 C1669 1.363 . S
C1668 H1671 0.929 . S
C1669 C1668 1.363 . S
C1669 C1675 1.428 . S
H1670 C1666 0.930 . S
H1671 C1668 0.929 . S
S1672 N1673 1.613 . S
S1672 N1674 1.610 . S
N1673 S1672 1.613 . S
N1673 C1676 1.350 . S
N1674 S1672 1.610 . S
N1674 C1675 1.351 . S
C1675 C1669 1.428 . S
C1675 N1674 1.351 . S
C1675 C1676 1.434 . S
C1676 C1667 1.429 . S
C1676 N1673 1.350 . S
C1676 C1675 1.434 . S
C1677 C1678 1.369 . S
C1677 C1679 1.419 . S
C1677 H1681 0.930 . S
C1678 C1677 1.369 . S
C1678 C1687 1.429 . S
C1679 C1677 1.419 . S
C1679 C1680 1.363 . S
C1679 H1682 0.929 . S
C1680 C1679 1.363 . S
C1680 C1686 1.428 . S
H1681 C1677 0.930 . S
H1682 C1679 0.929 . S
S1683 N1684 1.613 . S
S1683 N1685 1.610 . S
N1684 S1683 1.613 . S
N1684 C1687 1.350 . S
N1685 S1683 1.610 . S
N1685 C1686 1.351 . S
C1686 C1680 1.428 . S
C1686 N1685 1.351 . S
C1686 C1687 1.434 . S
C1687 C1678 1.429 . S
C1687 N1684 1.350 . S
C1687 C1686 1.434 . S
C633 C101 1.637 . S
C635 C330 1.554 1_556 S
C644 C57 1.697 . S
C646 C341 1.744 . S
C655 C70 1.170 . S
C657 C370 1.093 . S
C668 C373 1.473 . S
C666 C82 1.468 . S
C677 C23 1.675 . S
C679 C411 1.601 . S
C690 C414 1.226 . S
C688 C29 1.215 . S
C701 C441 1.548 . S
C699 C49 1.509 . S
C710 C10 1.752 . S
C712 C470 1.633 . S
C723 C321 1.685 1_655 S
C721 C218 1.647 . S
C732 C226 1.172 . S
C734 C333 1.144 . S
C745 C361 1.590 . S
C743 C251 1.570 . S
C756 C390 1.168 . S
C754 C159 1.209 . S
C765 C211 1.225 . S
C767 C394 1.247 1_655 S
C778 C420 1.639 . S
C776 C225 1.651 . S
C789 C433 0.948 . S
C787 C252 0.961 . S
C800 C461 1.653 . S
C798 C166 1.654 . S
C811 C313 1.584 1_565 S
C809 C147 1.611 . S
C820 C263 1.748 1_556 S
C822 C480 1.734 . S
C833 C511 1.640 . S
C831 C309 1.735 . S
C844 C530 0.990 . S
C842 C291 1.033 . S
C853 C108 1.516 . S
C855 C453 1.519 . S
C864 C121 1.612 . S
C866 C353 1.622 . S
C875 C302 1.566 . S
C877 C541 1.589 . S
C888 C570 1.055 . S
C886 C276 1.123 . S
C899 C331 1.707 . S
C897 C55 1.748 . S
C910 C560 1.790 . S
C908 C96 1.784 . S
C919 C88 1.338 . S
C921 C371 1.297 . S
C930 C75 1.583 . S
C932 C534 1.569 . S
C943 C410 1.712 . S
C941 C4 1.786 . S
C952 C44 1.281 . S
C954 C493 1.294 . S
C965 C440 1.674 . S
C963 C31 1.680 . S
C976 C591 1.737 . S
C974 C18 1.813 . S
C987 C320 1.734 . S
C985 C133 1.731 . S
C998 C554 1.177 . S
C996 C296 1.213 . S
C1007 C107 1.675 . S
C1009 C360 1.663 . S
C1018 C264 1.463 . S
C1020 C551 1.450 . S
C1029 C140 1.311 . S
C1031 C393 1.333 . S
C1042 C501 1.690 . S
C1040 C289 1.712 . S
C1051 C114 1.090 . S
C1053 C434 1.063 . S
C1062 C265 1.792 . S
C1064 C580 1.774 . S
C1073 C179 1.639 . S
C1075 C314 1.601 . S
C1084 C161 1.826 . S
C1086 C481 1.800 . S
C1095 C244 1.799 . S
C1097 C430 1.723 . S
C1106 C224 1.261 . S
C1108 C531 1.243 . S
C1119 C574 1.514 . S
C1117 C257 1.522 . S
C1128 C199 1.657 . S
C1130 C354 1.649 . S
C1141 C380 1.702 . S
C1139 C237 1.717 . S
C1152 C351 1.174 . S
C1150 C185 1.219 . S
C1161 C69 1.639 . S
C1163 C610 1.554 . S
C1174 C561 1.745 . S
C1172 C83 1.694 . S
C1183 C94 1.172 . S
C1185 C630 1.089 1_556 S
C1194 C56 1.472 . S
C1196 C533 1.472 . S
C1205 C42 1.687 . S
C1207 C491 1.608 . S
C1218 C494 1.225 . S
C1216 C3 1.224 . S
C1229 C521 1.556 . S
C1227 C16 1.523 . S
C1240 C590 1.638 . S
C1238 C36 1.750 . S
C1251 C601 1.682 . S
C1249 C238 1.646 . S
C1260 C174 1.170 . S
C1262 C553 1.146 . S
C1273 C621 1.592 . S
C1271 C186 1.572 . S
C1284 C550 1.176 . S
C1282 C198 1.207 . S
C1295 C474 1.244 . S
C1293 C239 1.237 . S
C1304 C173 1.648 . S
C1306 C500 1.642 . S
C1317 C513 0.955 . S
C1315 C187 0.953 . S
C1326 C205 1.655 . S
C1328 C581 1.654 . S
C1339 C593 1.581 . S
C1337 C290 1.611 . S
C1348 C122 1.747 . S
C1350 C400 1.735 . S
C1361 C431 1.643 . S
C1359 C134 1.737 . S
C1372 C450 0.988 1_565 S
C1370 C148 1.034 . S
C1383 C573 1.521 . S
C1381 C283 1.514 . S
C1392 C270 1.606 . S
C1394 C613 1.622 . S
C1405 C381 1.590 . S
C1403 C135 1.567 . S
C1416 C350 1.046 . S
C1414 C109 1.130 . S
C1425 C81 1.747 . S
C1427 C611 1.712 . S
C1438 C340 1.789 . S
C1436 C68 1.783 . S
C1447 C62 1.340 . S
C1449 C631 1.291 . S
C1458 C95 1.585 . S
C1460 C374 1.566 . S
C1469 C30 1.788 . S
C1471 C490 1.711 . S
C1482 C413 1.288 . S
C1480 C17 1.271 . S
C1491 C5 1.680 . S
C1493 C520 1.675 . S
C1502 C43 1.809 . S
C1504 C471 1.725 . S
C1515 C600 1.734 . S
C1513 C304 1.731 . S
C1524 C153 1.210 . S
C1526 C334 1.177 . S
C1537 C620 1.666 1_655 S
C1535 C278 1.676 . S
C1546 C127 1.462 . S
C1548 C391 1.449 . S
C1557 C303 1.307 . S
C1559 C473 1.328 . S
C1570 C421 1.688 . S
C1568 C146 1.712 . S
C1579 C277 1.088 . S
C1581 C514 1.060 . S
C1592 C460 1.772 . S
C1590 C120 1.791 . S
C1603 C594 1.601 . S
C1601 C231 1.640 . S
C1614 C401 1.798 . S
C1612 C200 1.828 . S
C1623 C212 1.802 . S
C1625 C510 1.718 . S
C1636 C451 1.239 . S
C1634 C172 1.262 1_556 S
C1645 C192 1.526 . S
C1647 C454 1.507 . S
C1656 C160 1.656 . S
C1658 C614 1.647 . S
C1669 C540 1.704 . S
C1667 C213 1.717 . S
C1680 C571 1.176 . S
C1678 C250 1.219 . S
