# Generated by pormake.
# Topology apo, (3,6)-cn, num edge types: 1
# Building blocks:
#     Node 0, Type 0, BuildingBlock: WUSLED_clean_sbu_0, # of connection points: 3
#     Node 1, Type 0, BuildingBlock: WUSLED_clean_sbu_0, # of connection points: 3
#     Node 2, Type 0, BuildingBlock: WUSLED_clean_sbu_0, # of connection points: 3
#     Node 3, Type 0, BuildingBlock: WUSLED_clean_sbu_0, # of connection points: 3
#     Node 4, Type 0, BuildingBlock: WUSLED_clean_sbu_0, # of connection points: 3
#     Node 5, Type 0, BuildingBlock: WUSLED_clean_sbu_0, # of connection points: 3
#     Node 6, Type 0, BuildingBlock: WUSLED_clean_sbu_0, # of connection points: 3
#     Node 7, Type 0, BuildingBlock: WUSLED_clean_sbu_0, # of connection points: 3
#     Node 8, Type 1, BuildingBlock: KUMBOL_clean_sbu_1, # of connection points: 6
#     Node 9, Type 1, BuildingBlock: KUMBOL_clean_sbu_1, # of connection points: 6
#     Node 10, Type 1, BuildingBlock: KUMBOL_clean_sbu_1, # of connection points: 6
#     Node 11, Type 1, BuildingBlock: KUMBOL_clean_sbu_1, # of connection points: 6
#     Edge 12, Type (0, 1), BuildingBlock: AJUNOK_clean_linker_0, # of connection points: 2
#     Edge 13, Type (0, 1), BuildingBlock: AJUNOK_clean_linker_0, # of connection points: 2
#     Edge 14, Type (0, 1), BuildingBlock: AJUNOK_clean_linker_0, # of connection points: 2
#     Edge 15, Type (0, 1), BuildingBlock: AJUNOK_clean_linker_0, # of connection points: 2
#     Edge 16, Type (0, 1), BuildingBlock: AJUNOK_clean_linker_0, # of connection points: 2
#     Edge 17, Type (0, 1), BuildingBlock: AJUNOK_clean_linker_0, # of connection points: 2
#     Edge 18, Type (0, 1), BuildingBlock: AJUNOK_clean_linker_0, # of connection points: 2
#     Edge 19, Type (0, 1), BuildingBlock: AJUNOK_clean_linker_0, # of connection points: 2
#     Edge 20, Type (0, 1), BuildingBlock: AJUNOK_clean_linker_0, # of connection points: 2
#     Edge 21, Type (0, 1), BuildingBlock: AJUNOK_clean_linker_0, # of connection points: 2
#     Edge 22, Type (0, 1), BuildingBlock: AJUNOK_clean_linker_0, # of connection points: 2
#     Edge 23, Type (0, 1), BuildingBlock: AJUNOK_clean_linker_0, # of connection points: 2
#     Edge 24, Type (0, 1), BuildingBlock: AJUNOK_clean_linker_0, # of connection points: 2
#     Edge 25, Type (0, 1), BuildingBlock: AJUNOK_clean_linker_0, # of connection points: 2
#     Edge 26, Type (0, 1), BuildingBlock: AJUNOK_clean_linker_0, # of connection points: 2
#     Edge 27, Type (0, 1), BuildingBlock: AJUNOK_clean_linker_0, # of connection points: 2
#     Edge 28, Type (0, 1), BuildingBlock: AJUNOK_clean_linker_0, # of connection points: 2
#     Edge 29, Type (0, 1), BuildingBlock: AJUNOK_clean_linker_0, # of connection points: 2
#     Edge 30, Type (0, 1), BuildingBlock: AJUNOK_clean_linker_0, # of connection points: 2
#     Edge 31, Type (0, 1), BuildingBlock: AJUNOK_clean_linker_0, # of connection points: 2
#     Edge 32, Type (0, 1), BuildingBlock: AJUNOK_clean_linker_0, # of connection points: 2
#     Edge 33, Type (0, 1), BuildingBlock: AJUNOK_clean_linker_0, # of connection points: 2
#     Edge 34, Type (0, 1), BuildingBlock: AJUNOK_clean_linker_0, # of connection points: 2
#     Edge 35, Type (0, 1), BuildingBlock: AJUNOK_clean_linker_0, # of connection points: 2
# Relax obj value: 0.009
# Max RMSD: 0.111
# Mean RMSD: 0.083
data_MOF--net-apo--node1-WUSLED_clean_sbu_0--node2-KUMBOL_clean_sbu_1--edge1-AJUNOK_clean_linker_0
_symmetry_space_group_name_H-M    P1
_symmetry_Int_Tables_number       1
_symmetry_cell_setting            triclinic
loop_
_symmetry_equiv_pos_as_xyz
'x, y, z'
_cell_length_a     25.379972
_cell_length_b     43.305547
_cell_length_c     53.503133
_cell_angle_alpha  90.518662
_cell_angle_beta   89.784802
_cell_angle_gamma 90.550186
loop_
_atom_site_label
_atom_site_type_symbol
_atom_site_fract_x
_atom_site_fract_y
_atom_site_fract_z
_atom_type_partial_charge
C0 C 0.32362 0.45052 0.37905 0.0
C1 C 0.3643 0.46606 0.39187 0.0
C2 C 0.37091 0.50397 0.35847 0.0
C3 C 0.38777 0.49257 0.38164 0.0
C4 C 0.3294 0.48865 0.34603 0.0
C5 C 0.30613 0.46216 0.3562 0.0
U6 U 0.28738 0.39328 0.43153 0.0
O7 O 0.21421 0.3663 0.43647 0.0
O8 O 0.28904 0.3424 0.43049 0.0
C9 C 0.23756 0.33974 0.43239 0.0
C10 C 0.29972 0.42177 0.38865 0.0
C11 C 0.21196 0.31893 0.41401 0.0
C12 C 0.1732 0.30904 0.37309 0.0
C13 C 0.19824 0.32917 0.39008 0.0
C14 C 0.17609 0.26814 0.4036 0.0
C15 C 0.16157 0.27833 0.37974 0.0
C16 C 0.2009 0.28827 0.42057 0.0
C17 C 0.32841 0.41333 0.50035 0.0
C18 C 0.29857 0.42562 0.5427 0.0
C19 C 0.38111 0.39915 0.53653 0.0
C20 C 0.37334 0.39952 0.5106 0.0
C21 C 0.34427 0.41271 0.55288 0.0
C22 C 0.29076 0.42597 0.51679 0.0
C23 C 0.32456 0.41849 0.47292 0.0
O24 O 0.33258 0.40098 0.39696 0.0
O25 O 0.25782 0.425 0.4029 0.0
O26 O 0.27773 0.42458 0.46385 0.0
O27 O 0.35258 0.4006 0.45809 0.0
H28 H 0.37813 0.45758 0.40964 0.0
H29 H 0.41897 0.50422 0.3919 0.0
H30 H 0.31564 0.49681 0.32814 0.0
H31 H 0.27477 0.45051 0.34603 0.0
H32 H 0.16339 0.3174 0.35468 0.0
H33 H 0.20684 0.3527 0.38456 0.0
H34 H 0.16756 0.24466 0.40928 0.0
H35 H 0.21126 0.2799 0.43892 0.0
H36 H 0.26948 0.43628 0.55478 0.0
H37 H 0.41731 0.38964 0.54368 0.0
H38 H 0.40372 0.39012 0.49856 0.0
H39 H 0.25609 0.43724 0.50964 0.0
C40 C 0.21722 0.16007 1.0011 0.0
C41 C 0.18062 0.1363 1.00585 0.0
C42 C 0.1838 0.14778 0.05059 0.0
C43 C 0.16393 0.13031 1.03035 0.0
C44 C 0.22058 0.17152 0.04572 0.0
C45 C 0.23711 0.17758 1.0212 0.0
U46 U 0.22641 0.13823 0.93192 0.0
O47 O 0.21671 0.16628 0.89815 0.0
O48 O 0.2917 0.14306 0.90494 0.0
C49 C 0.26524 0.16163 0.89041 0.0
C50 C 0.23465 0.16686 0.97534 0.0
C51 C 0.29412 0.18875 0.88076 0.0
C52 C 0.33504 0.23947 0.88596 0.0
C53 C 0.30781 0.21406 0.89607 0.0
C54 C 0.33519 0.2144 0.84532 0.0
C55 C 0.34888 0.23992 0.86043 0.0
C56 C 0.30807 0.18914 0.85539 0.0
C57 C 0.16407 0.06086 0.91078 0.0
C58 C 0.14388 0.04583 0.8679 0.0
C59 C 0.13902 1.00784 0.9008 0.0
C60 C 0.15416 0.03041 0.91828 0.0
C61 C 0.13358 1.0153 0.87543 0.0
C62 C 0.15928 0.06841 0.88541 0.0
C63 C 0.17789 0.08434 0.92986 0.0
O64 O 0.27134 0.1487 0.96621 0.0
O65 O 0.19683 0.17222 0.95926 0.0
O66 O 0.15337 0.11085 0.92832 0.0
O67 O 0.2283 0.0875 0.93485 0.0
H68 H 0.16489 0.12244 0.99061 0.0
H69 H 0.13575 0.11179 0.0335 0.0
H70 H 0.23595 0.18572 0.06083 0.0
H71 H 0.26527 0.19607 1.01791 0.0
H72 H 0.34579 0.25858 0.89817 0.0
H73 H 0.29753 0.21412 0.91574 0.0
H74 H 0.34496 0.21413 0.82559 0.0
H75 H 0.29779 0.16983 0.84327 0.0
H76 H 0.13993 0.0522 0.84847 0.0
H77 H 0.13026 0.98472 0.90725 0.0
H78 H 0.15741 0.02417 0.93778 0.0
H79 H 0.16688 0.09179 0.87922 0.0
C80 C 0.82421 0.09189 0.69673 0.0
C81 C 0.86442 0.07587 0.68424 0.0
C82 C 0.86391 0.03677 0.7168 0.0
C83 C 0.88425 0.04857 0.69425 0.0
C84 C 0.82352 0.05292 0.72913 0.0
C85 C 0.80384 0.0802 0.71915 0.0
U86 U 0.80144 0.15174 0.64493 0.0
O87 O 0.73027 0.17908 0.63798 0.0
O88 O 0.80468 0.2024 0.64768 0.0
C89 C 0.7537 0.20523 0.64416 0.0
C90 C 0.80355 0.12111 0.68711 0.0
C91 C 0.72538 0.22452 0.66257 0.0
C92 C 0.71155 0.24331 0.7051 0.0
C93 C 0.73852 0.22439 0.68806 0.0
C94 C 0.65732 0.26217 0.67147 0.0
C95 C 0.6706 0.26243 0.69699 0.0
C96 C 0.68447 0.24343 0.65446 0.0
C97 C 0.85311 0.1386 0.5779 0.0
C98 C 0.87247 0.17739 0.5464 0.0
C99 C 0.86075 0.12386 0.53403 0.0
C100 C 0.85174 0.11594 0.559 0.0
C101 C 0.87141 0.15465 0.52745 0.0
C102 C 0.8631 0.16949 0.57138 0.0
C103 C 0.84555 0.12928 0.6042 0.0
O104 O 0.83889 0.14213 0.68098 0.0
O105 O 0.76489 0.11861 0.67093 0.0
O106 O 0.79692 0.12262 0.61094 0.0
O107 O 0.87142 0.14551 0.62114 0.0
H108 H 0.88076 0.08462 0.66693 0.0
H109 H 0.91607 0.03697 0.68458 0.0
H110 H 0.80695 0.04434 0.74645 0.0
H111 H 0.77279 0.09228 0.72904 0.0
H112 H 0.7234 0.24338 0.72452 0.0
H113 H 0.7699 0.20987 0.69476 0.0
H114 H 0.62572 0.27644 0.66466 0.0
H115 H 0.67355 0.24374 0.6349 0.0
H116 H 0.88041 0.20132 0.54186 0.0
H117 H 0.86052 0.10577 0.51991 0.0
H118 H 0.84432 0.09197 0.56361 0.0
H119 H 0.86414 0.18745 0.5856 0.0
C120 C 0.68324 0.34838 0.07643 0.0
C121 C 0.69104 0.37417 0.06097 0.0
C122 C 0.64577 0.34777 1.02661 0.0
C123 C 0.67268 0.37378 0.03625 0.0
C124 C 0.63789 0.32213 0.04217 0.0
C125 C 0.65642 0.32245 0.06676 0.0
U126 U 0.70359 0.38088 0.14334 0.0
O127 O 0.7003 0.35682 0.17931 0.0
O128 O 0.77384 0.37953 0.16744 0.0
C129 C 0.75045 0.36191 0.18409 0.0
C130 C 0.70428 0.34719 0.10221 0.0
C131 C 0.78118 0.33563 0.19354 0.0
C132 C 0.79039 0.28107 0.20312 0.0
C133 C 0.76236 0.30502 0.19202 0.0
C134 C 0.85685 0.31778 0.217 0.0
C135 C 0.83789 0.28721 0.2158 0.0
C136 C 0.82876 0.3417 0.20601 0.0
C137 C 0.64575 0.45885 0.16378 0.0
C138 C 0.59671 0.4794 0.19943 0.0
C139 C 0.66191 0.5114 0.17874 0.0
C140 C 0.67294 0.48719 0.16209 0.0
C141 C 0.6229 0.50798 0.19726 0.0
C142 C 0.60785 0.45512 0.18284 0.0
C143 C 0.65526 0.4342 0.14485 0.0
O144 O 0.74196 0.36701 0.10809 0.0
O145 O 0.66927 0.34353 0.12014 0.0
O146 O 0.63104 0.4076 0.14836 0.0
O147 O 0.70415 0.4311 0.13705 0.0
H148 H 0.71162 0.39453 0.06788 0.0
H149 H 0.67934 0.39386 1.02469 0.0
H150 H 0.6183 0.3015 0.03515 0.0
H151 H 0.65036 0.30218 0.07819 0.0
H152 H 0.77422 0.25785 0.20228 0.0
H153 H 0.72556 0.29963 0.1827 0.0
H154 H 0.89343 0.32322 0.22651 0.0
H155 H 0.84387 0.36513 0.20761 0.0
H156 H 0.5663 0.47614 0.21345 0.0
H157 H 0.68344 0.53298 0.1769 0.0
H158 H 0.70223 0.49084 0.14761 0.0
H159 H 0.58593 0.43369 0.18468 0.0
C160 C 0.67257 0.58593 0.68746 0.0
C161 C 0.6983 0.55731 0.68587 0.0
C162 C 0.62789 0.53254 0.70976 0.0
C163 C 0.6762 0.53095 0.69688 0.0
C164 C 0.60196 0.56105 0.71116 0.0
C165 C 0.62407 0.58742 0.70019 0.0
U166 U 0.71353 0.64381 0.63569 0.0
O167 O 0.71513 0.69473 0.63718 0.0
O168 O 0.78838 0.66919 0.63109 0.0
C169 C 0.76683 0.69618 0.63564 0.0
C170 C 0.698 0.61469 0.67808 0.0
C171 C 0.79383 0.71679 0.65398 0.0
C172 C 0.86484 0.72775 0.68349 0.0
C173 C 0.838 0.70711 0.66759 0.0
C174 C 0.80335 0.7679 0.67298 0.0
C175 C 0.84831 0.75852 0.68609 0.0
C176 C 0.77669 0.74735 0.65701 0.0
C177 C 0.67517 0.62579 0.56691 0.0
C178 C 0.68515 0.65997 0.53125 0.0
C179 C 0.66373 0.60592 0.5246 0.0
C180 C 0.66396 0.60129 0.55042 0.0
C181 C 0.6748 0.63522 0.51462 0.0
C182 C 0.68549 0.65527 0.55719 0.0
C183 C 0.67614 0.61963 0.59399 0.0
O184 O 0.74071 0.61157 0.66433 0.0
O185 O 0.66656 0.63631 0.66988 0.0
O186 O 0.64912 0.63844 0.60847 0.0
O187 O 0.72221 0.61246 0.60331 0.0
H188 H 0.73617 0.55534 0.67664 0.0
H189 H 0.69779 0.50952 0.69597 0.0
H190 H 0.56468 0.56301 0.72095 0.0
H191 H 0.60361 0.60915 0.70212 0.0
H192 H 0.89931 0.71981 0.69334 0.0
H193 H 0.85237 0.68374 0.66572 0.0
H194 H 0.78877 0.79121 0.67503 0.0
H195 H 0.74284 0.75547 0.64678 0.0
H196 H 0.69301 0.68292 0.5242 0.0
H197 H 0.6561 0.58632 0.51237 0.0
H198 H 0.6559 0.57837 0.55754 0.0
H199 H 0.69405 0.67455 0.56962 0.0
C200 C 0.80343 0.87028 0.06869 0.0
C201 C 0.82936 0.89826 0.06339 0.0
C202 C 0.83703 0.88342 1.01945 0.0
C203 C 0.84605 0.90475 0.03901 0.0
C204 C 0.81143 0.85529 1.02493 0.0
C205 C 0.79471 0.84883 0.04934 0.0
U206 U 0.79617 0.89219 0.13746 0.0
O207 O 0.73105 0.88932 0.16466 0.0
O208 O 0.80429 0.86425 0.17141 0.0
C209 C 0.75611 0.87 0.17911 0.0
C210 C 0.78565 0.86336 0.09432 0.0
C211 C 0.72527 0.8434 0.18833 0.0
C212 C 0.67575 0.79559 0.18178 0.0
C213 C 0.7056 0.82031 0.1722 0.0
C214 C 0.68519 0.81689 0.22355 0.0
C215 C 0.66523 0.79365 0.2076 0.0
C216 C 0.71492 0.84144 0.21401 0.0
C217 C 0.86453 0.96847 0.15703 0.0
C218 C 0.86661 0.98882 0.19954 0.0
C219 C 0.91057 1.01665 0.16623 0.0
C220 C 0.89451 0.99391 0.14911 0.0
C221 C 0.89707 1.01431 0.19166 0.0
C222 C 0.85052 0.96602 0.18234 0.0
C223 C 0.8486 0.94486 0.13854 0.0
O224 O 0.82334 0.85728 0.11027 0.0
O225 O 0.74999 0.88213 0.10356 0.0
O226 O 0.79787 0.94279 0.13392 0.0
O227 O 0.87117 0.91783 0.14064 0.0
H228 H 0.83656 0.91509 0.07813 0.0
H229 H 0.86554 0.92663 0.03539 0.0
H230 H 0.8049 0.83811 1.01041 0.0
H231 H 0.77508 0.82703 0.05311 0.0
H232 H 0.66023 0.7783 0.16897 0.0
H233 H 0.71303 0.82151 0.15228 0.0
H234 H 0.67805 0.81597 0.24351 0.0
H235 H 0.72979 0.85903 0.22676 0.0
H236 H 0.85483 0.98667 0.21892 0.0
H237 H 0.93416 0.03591 0.15962 0.0
H238 H 0.90568 0.99616 0.12964 0.0
H239 H 0.82715 0.94656 0.18875 0.0
C240 C 0.19452 0.94283 0.37524 0.0
C241 C 0.14661 0.95568 0.38318 0.0
C242 C 0.15584 0.99665 0.3524 0.0
C243 C 0.12746 0.98235 0.37185 0.0
C244 C 0.20447 0.98414 0.34502 0.0
C245 C 0.22345 0.95744 0.35627 0.0
U246 U 0.21546 0.88451 0.42852 0.0
O247 O 0.20935 0.83385 0.42715 0.0
O248 O 0.28512 0.85606 0.43604 0.0
C249 C 0.2601 0.83012 0.43074 0.0
C250 C 0.21424 0.91368 0.38564 0.0
C251 C 0.28694 0.80934 0.4129 0.0
C252 C 0.30175 0.79003 0.37061 0.0
C253 C 0.27618 0.8102 0.38718 0.0
C254 C 0.34979 0.76829 0.40519 0.0
C255 C 0.33862 0.76868 0.37945 0.0
C256 C 0.32403 0.78835 0.42174 0.0
C257 C 0.16357 0.90142 0.49493 0.0
C258 C 0.17857 0.86847 0.53077 0.0
C259 C 0.11941 0.91184 0.53448 0.0
C260 C 0.12928 0.91934 0.50951 0.0
C261 C 0.14387 0.88632 0.54542 0.0
C262 C 0.18832 0.87595 0.50571 0.0
C263 C 0.1721 0.90949 0.4685 0.0
O264 O 0.25323 0.9162 0.40165 0.0
O265 O 0.17843 0.89314 0.39222 0.0
O266 O 0.14565 0.89276 0.45212 0.0
O267 O 0.2212 0.91472 0.46173 0.0
H268 H 0.12367 0.9449 0.39788 0.0
H269 H 0.08991 0.99145 0.37797 0.0
H270 H 0.22795 0.99504 0.33058 0.0
H271 H 0.26064 0.948 0.34997 0.0
H272 H 0.2924 0.79095 0.3509 0.0
H273 H 0.24793 0.82641 0.37993 0.0
H274 H 0.37904 0.75278 0.41252 0.0
H275 H 0.33325 0.78754 0.44148 0.0
H276 H 0.1972 0.84832 0.53852 0.0
H277 H 0.09257 0.92602 0.54528 0.0
H278 H 0.10979 0.93907 0.50151 0.0
H279 H 0.21468 0.86172 0.49469 0.0
C280 C 0.31889 0.68614 0.996 0.0
C281 C 0.35844 0.66547 1.00295 0.0
C282 C 0.35684 0.68588 0.04564 0.0
C283 C 0.37728 0.66535 1.02757 0.0
C284 C 0.31645 0.70603 0.03864 0.0
C285 C 0.2978 0.70619 1.01406 0.0
U286 U 0.30616 0.65333 0.92929 0.0
O287 O 0.23768 0.65231 0.90401 0.0
O288 O 0.3102 0.67686 0.89311 0.0
C289 C 0.26114 0.66992 0.88738 0.0
C290 C 0.29962 0.68752 0.97005 0.0
C291 C 0.22941 0.69485 0.87665 0.0
C292 C 0.20698 0.74906 0.87241 0.0
C293 C 0.23494 0.72576 0.88448 0.0
C294 C 0.16685 0.71073 0.84508 0.0
C295 C 0.17334 0.74181 0.85229 0.0
C296 C 0.19474 0.68753 0.8571 0.0
C297 C 0.36965 0.57697 0.91099 0.0
C298 C 0.35392 0.55206 0.87069 0.0
C299 C 0.41767 0.53084 0.89925 0.0
C300 C 0.40701 0.55446 0.91645 0.0
C301 C 0.39113 0.52926 0.87622 0.0
C302 C 0.34334 0.57579 0.88793 0.0
C303 C 0.3583 0.60127 0.92959 0.0
O304 O 0.33583 0.69167 0.95273 0.0
O305 O 0.26395 0.6667 0.96375 0.0
O306 O 0.30872 0.60347 0.9365 0.0
O307 O 0.38081 0.6282 0.92544 0.0
H308 H 0.37495 0.64961 0.98931 0.0
H309 H 0.40774 0.64918 0.03249 0.0
H310 H 0.30006 0.72217 0.05209 0.0
H311 H 0.26719 0.72227 1.00908 0.0
H312 H 0.21256 0.77282 0.87842 0.0
H313 H 0.26144 0.73192 0.89959 0.0
H314 H 0.14023 0.70434 0.83009 0.0
H315 H 0.18978 0.66381 0.85085 0.0
H316 H 0.33227 0.55121 0.85329 0.0
H317 H 0.44684 0.51376 0.90396 0.0
H318 H 0.42782 0.55508 0.9341 0.0
H319 H 0.31431 0.59303 0.88341 0.0
C320 C 0.84617 0.12487 0.28878 0.0
C321 C 0.8393 0.06915 0.29214 0.0
C322 C 0.86692 0.09706 0.29634 0.0
C323 C 0.79165 0.06948 0.27888 0.0
C324 C 0.79678 0.12553 0.27683 0.0
C325 C 0.77044 0.09763 0.27121 0.0
N326 N 0.87225 0.15138 0.29496 0.0
C327 C 0.84808 0.17922 0.29245 0.0
C328 C 0.77434 0.15422 0.27188 0.0
C329 C 0.7996 0.18117 0.28023 0.0
Gd330 Gd 0.0716 0.15694 0.26002 0.0
Gd331 Gd 0.95665 0.1454 0.31252 0.0
N332 N 0.91331 0.09752 0.30885 0.0
C333 C 0.85964 0.04194 0.3021 0.0
C334 C 0.93165 0.07154 0.32003 0.0
C335 C 0.90541 0.04327 0.31657 0.0
H336 H 0.96745 0.07262 0.33091 0.0
H337 H 0.92076 0.0225 0.32483 0.0
H338 H 0.0231 0.21637 0.22639 0.0
H339 H 0.86604 0.20005 0.29986 0.0
H340 H 0.03388 0.27286 0.22467 0.0
H341 H 0.83957 0.01999 0.29931 0.0
H342 H 0.77011 0.04822 0.27515 0.0
H343 H 0.17857 0.12999 0.28754 0.0
H344 H 0.7365 0.15575 0.26269 0.0
H345 H 0.78146 0.20341 0.27756 0.0
H346 H 0.18449 0.29386 0.27631 0.0
H347 H 0.73278 0.09764 0.26174 0.0
H348 H 0.27631 0.20694 0.30932 0.0
H349 H 0.25969 0.15051 0.30769 0.0
N350 N 0.15031 0.17439 0.27821 0.0
C351 C 0.15997 0.20526 0.27772 0.0
C352 C 0.18609 0.1546 0.28804 0.0
C353 C 0.24108 0.19804 0.3003 0.0
C354 C 0.23182 0.16616 0.29945 0.0
C355 C 0.20516 0.21803 0.28918 0.0
H356 H 0.2472 0.2605 0.29806 0.0
N357 N 0.08249 0.21053 0.2539 0.0
C358 C 0.12439 0.22396 0.26562 0.0
C359 C 0.09919 0.27397 0.25029 0.0
C360 C 0.13346 0.2561 0.26445 0.0
C361 C 0.05218 0.22746 0.23816 0.0
C362 C 0.05905 0.25947 0.23665 0.0
O363 O 0.9717 0.10808 0.28328 0.0
O364 O 0.99349 0.13595 0.24866 0.0
O365 O 0.10491 0.16524 0.22301 0.0
O366 O 0.11445 0.12096 0.24034 0.0
O367 O 0.0345 0.12195 0.32016 0.0
O368 O 0.07709 0.11256 0.28212 0.0
O369 O 0.08318 0.16978 0.30096 0.0
O370 O 1.00385 0.18974 0.31218 0.0
O371 O 0.97704 0.14012 0.35166 0.0
O372 O 0.89938 0.15526 0.34179 0.0
O373 O 0.9896 0.17423 0.25142 0.0
O374 O 0.95754 0.18963 0.28986 0.0
C375 C 0.97284 0.11129 0.25894 0.0
C376 C 0.06704 0.10593 0.3058 0.0
C377 C 0.10282 0.12143 0.19636 0.0
C378 C 0.10661 0.11701 0.15063 0.0
C379 C 0.04895 0.0831 0.17467 0.0
C380 C 0.06561 0.0972 0.19683 0.0
C381 C 0.06917 0.09288 0.15175 0.0
C382 C 0.12319 0.13129 0.17316 0.0
C383 C 0.11963 0.13681 0.21989 0.0
C384 C 0.17726 0.26917 0.27674 0.0
C385 C 0.21308 0.25017 0.28906 0.0
H386 H 0.10474 0.29873 0.24892 0.0
C387 C 0.05542 0.1905 0.31308 0.0
C388 C 0.95868 0.19169 0.2653 0.0
C389 C 0.93418 0.17334 0.38006 0.0
C390 C 0.92258 0.187 0.42421 0.0
C391 C 0.95257 0.22561 0.39437 0.0
C392 C 0.95009 0.20376 0.37505 0.0
C393 C 0.93891 0.21737 0.41877 0.0
C394 C 0.92072 0.165 0.40463 0.0
C395 C 0.93198 0.15004 0.3599 0.0
H396 H 0.02032 0.06443 0.17527 0.0
H397 H 0.04937 0.0891 0.21434 0.0
H398 H 0.05592 0.08129 0.13485 0.0
H399 H 0.15127 0.1503 0.17266 0.0
H400 H 0.96497 0.24905 0.39039 0.0
H401 H 0.96055 0.21055 0.35625 0.0
H402 H 0.94062 0.23484 0.43337 0.0
H403 H 0.9095 0.1413 0.40849 0.0
C404 C 0.66987 0.40805 0.79147 0.0
C405 C 0.67822 0.46296 0.80023 0.0
C406 C 0.6498 0.43494 0.80175 0.0
C407 C 0.72609 0.46384 0.78699 0.0
C408 C 0.7193 0.40848 0.77935 0.0
C409 C 0.74656 0.43665 0.77653 0.0
N410 N 0.64286 0.38118 0.79494 0.0
C411 C 0.66588 0.35361 0.78921 0.0
C412 C 0.74073 0.38042 0.77131 0.0
C413 C 0.71436 0.35281 0.77672 0.0
Gd414 Gd 0.44136 0.38199 0.76189 0.0
Gd415 Gd 0.55887 0.38561 0.81357 0.0
N416 N 0.60306 0.4334 0.81408 0.0
C417 C 0.65826 0.48901 0.81263 0.0
C418 C 0.58495 0.45811 0.82752 0.0
C419 C 0.6119 0.48642 0.82671 0.0
H420 H 0.54884 0.45605 0.8382 0.0
H421 H 0.59675 0.50624 0.83678 0.0
H422 H 0.4867 0.32449 0.72396 0.0
H423 H 0.64704 0.33208 0.79428 0.0
H424 H 0.47295 0.26852 0.71859 0.0
H425 H 0.67894 0.51099 0.81193 0.0
H426 H 0.74824 0.48524 0.7853 0.0
H427 H 0.33672 0.40843 0.79228 0.0
H428 H 0.77856 0.37973 0.76187 0.0
H429 H 0.73164 0.3309 0.77155 0.0
H430 H 0.32118 0.24621 0.76933 0.0
H431 H 0.78429 0.43749 0.767 0.0
H432 H 0.23407 0.33186 0.80856 0.0
H433 H 0.25419 0.38787 0.81109 0.0
N434 N 0.36194 0.3645 0.77934 0.0
C435 C 0.35033 0.334 0.77654 0.0
C436 C 0.32758 0.38404 0.79091 0.0
C437 C 0.26979 0.34082 0.80003 0.0
C438 C 0.28104 0.37247 0.80153 0.0
C439 C 0.30453 0.32115 0.78736 0.0
H440 H 0.26032 0.27884 0.79359 0.0
N441 N 0.42756 0.32926 0.75204 0.0
C442 C 0.38482 0.3157 0.76295 0.0
C443 C 0.40745 0.26659 0.74427 0.0
C444 C 0.37407 0.28392 0.75969 0.0
C445 C 0.45702 0.31307 0.7351 0.0
C446 C 0.44843 0.28139 0.7315 0.0
O447 O 0.54534 0.42627 0.78776 0.0
O448 O 0.51949 0.40342 0.7511 0.0
O449 O 0.40769 0.37765 0.72456 0.0
O450 O 0.39819 0.41986 0.74566 0.0
O451 O 0.48063 0.40675 0.82413 0.0
O452 O 0.43994 0.42389 0.7879 0.0
O453 O 0.43019 0.36371 0.80132 0.0
O454 O 0.50978 0.34213 0.80964 0.0
O455 O 0.54155 0.38947 0.85325 0.0
O456 O 0.61453 0.36918 0.84122 0.0
O457 O 0.52233 0.36487 0.75062 0.0
O458 O 0.55562 0.34445 0.7869 0.0
C459 C 0.54296 0.42604 0.76326 0.0
C460 C 0.45071 0.42634 0.81204 0.0
C461 C 0.41003 0.42413 0.70178 0.0
C462 C 0.4069 0.43345 0.65667 0.0
C463 C 0.46277 0.46534 0.68352 0.0
C464 C 0.44636 0.44865 0.70435 0.0
C465 C 0.44322 0.45788 0.65988 0.0
C466 C 0.39051 0.41651 0.67781 0.0
C467 C 0.39304 0.4063 0.72395 0.0
C468 C 0.32965 0.27067 0.77133 0.0
C469 C 0.29489 0.28926 0.78509 0.0
H470 H 0.40064 0.24209 0.74131 0.0
C471 C 0.45829 0.34191 0.81153 0.0
C472 C 0.55325 0.34553 0.76233 0.0
C473 C 0.57684 0.35122 0.87891 0.0
C474 C 0.58157 0.33437 0.92236 0.0
C475 C 0.54571 0.30008 0.89019 0.0
C476 C 0.55436 0.32266 0.87214 0.0
C477 C 0.55925 0.30581 0.9151 0.0
C478 C 0.59065 0.35697 0.904 0.0
C479 C 0.58414 0.37555 0.86015 0.0
H480 H 0.49083 0.48415 0.68571 0.0
H481 H 0.46212 0.45499 0.72247 0.0
H482 H 0.45681 0.47112 0.64398 0.0
H483 H 0.3622 0.39778 0.67569 0.0
H484 H 0.52843 0.27805 0.88484 0.0
H485 H 0.54342 0.31786 0.85296 0.0
H486 H 0.55274 0.28776 0.92869 0.0
H487 H 0.60754 0.37916 0.90928 0.0
C488 C 0.83558 0.85544 0.78274 0.0
C489 C 0.82813 0.79995 0.78807 0.0
C490 C 0.85623 0.82794 0.79114 0.0
C491 C 0.77996 0.7998 0.77525 0.0
C492 C 0.78608 0.85558 0.77084 0.0
C493 C 0.75906 0.82755 0.76657 0.0
N494 N 0.86232 0.88218 0.78759 0.0
C495 C 0.839 0.90996 0.78335 0.0
C496 C 0.76433 0.88397 0.76442 0.0
C497 C 0.79048 0.91129 0.77113 0.0
Gd498 Gd 0.06319 0.88791 0.7553 0.0
Gd499 Gd 0.9458 0.87677 0.80631 0.0
N500 N 0.90351 0.8287 0.80289 0.0
C501 C 0.84902 0.77305 0.79832 0.0
C502 C 0.92304 0.80295 0.81393 0.0
C503 C 0.89635 0.77465 0.8116 0.0
H504 H 0.95968 0.80428 0.82414 0.0
H505 H 0.91235 0.75411 0.81994 0.0
H506 H 0.02382 0.94896 0.72117 0.0
H507 H 0.85707 0.93126 0.78968 0.0
H508 H 0.04193 1.00487 0.71918 0.0
H509 H 0.82857 0.75109 0.79641 0.0
H510 H 0.75809 0.77847 0.77238 0.0
H511 H 0.16588 0.85638 0.7833 0.0
H512 H 0.72643 0.88509 0.75523 0.0
H513 H 0.77287 0.93341 0.76728 0.0
H514 H 0.1934 1.01951 0.77161 0.0
H515 H 0.72125 0.8272 0.75724 0.0
H516 H 0.27289 0.92882 0.80525 0.0
H517 H 0.24907 0.87325 0.80359 0.0
N518 N 0.14333 0.90192 0.774 0.0
C519 C 0.15701 0.93228 0.77348 0.0
C520 C 0.17634 0.88061 0.78391 0.0
C521 C 0.23668 0.92151 0.79621 0.0
C522 C 0.22335 0.8901 0.79533 0.0
C523 C 0.20353 0.94304 0.78505 0.0
H524 H 0.25096 0.98355 0.79385 0.0
N525 N 0.08137 0.9408 0.74906 0.0
C526 C 0.12443 0.95244 0.76105 0.0
C527 C 0.10643 1.00329 0.7452 0.0
C528 C 0.13778 0.98406 0.75972 0.0
C529 C 0.05382 0.95888 0.73306 0.0
C530 C 0.0649 0.9905 0.7314 0.0
O531 O 0.95962 0.84061 0.77586 0.0
O532 O 0.98366 0.87028 0.74275 0.0
O533 O 0.09756 0.89478 0.71831 0.0
O534 O 0.10303 0.85046 0.73607 0.0
O535 O 0.02368 0.85439 0.81518 0.0
O536 O 0.06393 0.84325 0.77712 0.0
O537 O 0.07462 0.90164 0.7961 0.0
O538 O 0.99425 0.92065 0.80727 0.0
O539 O 0.9613 0.86827 0.84551 0.0
O540 O 0.88811 0.88909 0.83484 0.0
O541 O 0.98363 0.90884 0.74656 0.0
O542 O 0.94901 0.92213 0.78512 0.0
C543 C 0.96005 0.84572 0.75171 0.0
C544 C 0.05656 0.8382 0.80121 0.0
C545 C 0.09016 0.85065 0.69218 0.0
C546 C 0.08706 0.84795 0.64645 0.0
C547 C 0.03469 0.81229 0.67139 0.0
C548 C 0.05413 0.8258 0.69328 0.0
C549 C 0.05078 0.82332 0.64814 0.0
C550 C 0.10669 0.86156 0.66864 0.0
C551 C 0.10921 0.8658 0.71542 0.0
C552 C 0.18285 0.99522 0.77218 0.0
C553 C 0.21571 0.97474 0.78479 0.0
H554 H 0.11529 0.02773 0.7437 0.0
C555 C 0.04579 0.92168 0.80842 0.0
C556 C 0.95413 0.92665 0.76087 0.0
C557 C 0.92286 0.90253 0.87442 0.0
C558 C 0.91023 0.91424 0.91885 0.0
C559 C 0.95404 0.95135 0.89164 0.0
C560 C 0.94765 0.93131 0.87126 0.0
C561 C 0.93557 0.94292 0.91528 0.0
C562 C 0.90426 0.89405 0.89821 0.0
C563 C 0.91777 0.88072 0.8533 0.0
H564 H 0.00677 0.79329 0.67245 0.0
H565 H 0.04056 0.81692 0.71105 0.0
H566 H 0.03514 0.8124 0.63141 0.0
H567 H 0.13392 0.88095 0.66763 0.0
H568 H 0.97341 0.97349 0.88909 0.0
H569 H 0.96226 0.93819 0.8531 0.0
H570 H 0.94065 0.95895 0.93076 0.0
H571 H 0.88601 0.87155 0.90071 0.0
C572 C 0.66092 0.70293 0.28556 0.0
C573 C 0.64052 0.75465 0.30017 0.0
C574 C 0.6283 0.72281 0.29895 0.0
C575 C 0.68439 0.76626 0.28706 0.0
C576 C 0.70566 0.7144 0.27285 0.0
C577 C 0.71684 0.7462 0.27343 0.0
N578 N 0.64814 0.67241 0.28446 0.0
C579 C 0.6796 0.65181 0.27223 0.0
C580 C 0.73765 0.69353 0.25979 0.0
C581 C 0.72476 0.66207 0.25963 0.0
Gd582 Gd 0.44326 0.65739 0.2598 0.0
Gd583 Gd 0.57269 0.65722 0.3064 0.0
N584 N 0.58555 0.71098 0.31121 0.0
C585 C 0.60889 0.77383 0.31494 0.0
C586 C 0.55799 0.72917 0.32753 0.0
C587 C 0.56811 0.76092 0.32907 0.0
H588 H 0.52938 0.71935 0.34012 0.0
H589 H 0.54518 0.77529 0.34159 0.0
H590 H 0.4337 0.58283 0.24406 0.0
H591 H 0.66939 0.62751 0.27202 0.0
H592 H 0.36899 0.53986 0.24798 0.0
H593 H 0.6169 0.79841 0.31634 0.0
H594 H 0.69398 0.79069 0.28762 0.0
H595 H 0.37796 0.72218 0.2733 0.0
H596 H 0.77235 0.70146 0.24978 0.0
H597 H 0.74937 0.64578 0.24967 0.0
H598 H 0.21828 0.58715 0.28666 0.0
H599 H 0.75067 0.75551 0.26353 0.0
H600 H 0.22454 0.69682 0.30038 0.0
H601 H 0.2916 0.73706 0.29113 0.0
N602 N 0.36091 0.67411 0.27419 0.0
C603 C 0.32395 0.6518 0.27813 0.0
C604 C 0.34928 0.70449 0.27787 0.0
C605 C 0.26257 0.69018 0.29293 0.0
C606 C 0.30031 0.71297 0.28771 0.0
C607 C 0.27377 0.65918 0.28769 0.0
H608 H 0.1975 0.64072 0.29867 0.0
N609 N 0.38411 0.61557 0.26199 0.0
C610 C 0.3356 0.62166 0.27146 0.0
C611 C 0.31015 0.56816 0.26585 0.0
C612 C 0.29748 0.59802 0.27401 0.0
C613 C 0.39569 0.58698 0.25257 0.0
C614 C 0.35924 0.56271 0.25479 0.0
O615 O 0.57444 0.67193 0.26555 0.0
O616 O 0.49801 0.69825 0.26252 0.0
O617 O 0.46403 0.6501 0.22084 0.0
O618 O 0.39424 0.6759 0.23025 0.0
O619 O 0.49395 0.67194 0.32236 0.0
O620 O 0.46015 0.69509 0.28793 0.0
O621 O 0.44036 0.62073 0.28973 0.0
O622 O 0.5125 0.62113 0.31698 0.0
O623 O 0.60215 0.66496 0.34456 0.0
O624 O 0.63328 0.62758 0.32127 0.0
O625 O 0.50986 0.62517 0.2498 0.0
O626 O 0.56814 0.61408 0.28248 0.0
C627 C 0.54768 0.6951 0.25661 0.0
C628 C 0.4584 0.6895 0.31195 0.0
C629 C 0.43719 0.68754 0.19206 0.0
C630 C 0.43447 0.70048 0.14768 0.0
C631 C 0.48119 0.73384 0.1772 0.0
C632 C 0.46711 0.7143 0.19677 0.0
C633 C 0.46508 0.72702 0.1528 0.0
C634 C 0.4205 0.68082 0.16752 0.0
C635 C 0.42468 0.66591 0.21234 0.0
C636 C 0.24797 0.60504 0.2843 0.0
C637 C 0.23617 0.63555 0.29117 0.0
H638 H 0.28201 0.54932 0.26757 0.0
C639 C 0.46685 0.6102 0.30899 0.0
C640 C 0.54801 0.60906 0.26004 0.0
C641 C 0.67183 0.63324 0.36256 0.0
C642 C 0.69856 0.63222 0.40652 0.0
C643 C 0.75463 0.60982 0.37429 0.0
C644 C 0.71842 0.61787 0.35601 0.0
C645 C 0.74486 0.61689 0.39934 0.0
C646 C 0.66183 0.6403 0.38797 0.0
C647 C 0.63503 0.64223 0.34257 0.0
H648 H 0.5045 0.75442 0.18097 0.0
H649 H 0.47947 0.72004 0.21555 0.0
H650 H 0.4758 0.74277 0.13797 0.0
H651 H 0.39729 0.66014 0.16382 0.0
H652 H 0.79041 0.59797 0.36903 0.0
H653 H 0.72716 0.61232 0.33666 0.0
H654 H 0.77324 0.6099 0.41322 0.0
H655 H 0.62591 0.65202 0.39329 0.0
C656 C 0.11459 0.04907 0.35441 0.0
C657 C 0.13473 0.02457 0.33994 0.0
C658 C 0.09372 0.07539 0.34319 0.0
C659 C 0.09218 0.07843 0.317 0.0
H660 H 0.11517 0.04797 0.37463 0.0
H661 H 0.07861 0.09351 0.35525 0.0
S662 S 0.1375 0.02005 0.27061 0.0
N663 N 0.14997 1.00446 0.29798 0.0
N664 N 0.11165 0.05409 0.27688 0.0
C665 C 0.11235 0.05411 0.30228 0.0
C666 C 0.13335 0.02719 0.31374 0.0
C667 C 0.40321 0.47287 0.86771 0.0
C668 C 0.40162 0.50321 0.85858 0.0
C669 C 0.41699 0.44802 0.85218 0.0
C670 C 0.42927 0.45241 0.82681 0.0
H671 H 0.39445 0.46832 0.88718 0.0
H672 H 0.41889 0.4252 0.86026 0.0
S673 S 0.43144 0.5271 0.79354 0.0
N674 N 0.41372 0.53622 0.8224 0.0
N675 N 0.43878 0.48924 0.79309 0.0
C676 C 0.42635 0.4824 0.81715 0.0
C677 C 0.41272 0.50786 0.83306 0.0
C678 C 0.58855 0.50755 0.74774 0.0
C679 C 0.60576 0.50498 0.72276 0.0
C680 C 0.56841 0.48193 0.76062 0.0
C681 C 0.56471 0.45266 0.74912 0.0
H682 H 0.59113 0.52951 0.75753 0.0
H683 H 0.55496 0.48526 0.77965 0.0
S684 S 0.60207 0.43379 0.68364 0.0
N685 N 0.61575 0.47099 0.68668 0.0
N686 N 0.57882 0.42275 0.71104 0.0
C687 C 0.58123 0.44979 0.72407 0.0
C688 C 0.60169 0.47592 0.71091 0.0
C689 C 0.90885 0.07002 0.20392 0.0
C690 C 0.91488 0.03858 0.2097 0.0
C691 C 0.92734 0.09338 0.22006 0.0
C692 C 0.95234 0.08621 0.24265 0.0
H693 H 0.88968 0.07663 0.18675 0.0
H694 H 0.92194 0.11724 0.21482 0.0
S695 S 0.98195 1.00774 0.26556 0.0
N696 N 0.95014 1.00166 0.23907 0.0
N697 N 0.98487 0.0456 0.26934 0.0
C698 C 0.95889 0.05496 0.24863 0.0
C699 C 0.94015 0.03115 0.23219 0.0
C700 C 0.89923 1.00733 0.75322 0.0
C701 C 0.88526 1.00804 0.72778 0.0
C702 C 0.9204 0.98072 0.7639 0.0
C703 C 0.92848 0.95379 0.74955 0.0
H704 H 0.89473 0.02773 0.76487 0.0
H705 H 0.93163 0.98151 0.78341 0.0
S706 S 0.89392 0.94269 0.68272 0.0
N707 N 0.87778 0.97879 0.68897 0.0
N708 N 0.91773 0.92888 0.70897 0.0
C709 C 0.91339 0.95393 0.72427 0.0
C710 C 0.89188 0.98102 0.7134 0.0
C711 C 0.60236 0.53128 0.23946 0.0
C712 C 0.60726 0.5346 0.21336 0.0
C713 C 0.58488 0.55578 0.25472 0.0
C714 C 0.5708 0.58422 0.24432 0.0
H715 H 0.61186 0.50953 0.24813 0.0
H716 H 0.58081 0.55212 0.27464 0.0
S717 S 0.57829 0.60521 0.17727 0.0
N718 N 0.59764 0.56895 0.17799 0.0
N719 N 0.56542 0.61484 0.20655 0.0
C720 C 0.5766 0.58802 0.21836 0.0
C721 C 0.59468 0.56327 0.20291 0.0
C722 C 0.36555 0.5555 0.33747 0.0
C723 C 0.39656 0.53153 0.34697 0.0
C724 C 0.38863 0.58109 0.32561 0.0
C725 C 0.44357 0.58363 0.32258 0.0
H726 H 0.32304 0.55455 0.3393 0.0
H727 H 0.36324 0.59917 0.31901 0.0
S728 S 0.5423 0.5267 0.34322 0.0
N729 N 0.48517 0.51176 0.35206 0.0
N730 N 0.52843 0.55979 0.32977 0.0
C731 C 0.4751 0.55999 0.33216 0.0
C732 C 0.45163 0.53395 0.34429 0.0
C733 C 0.07087 0.99792 0.84193 0.0
C734 C 0.11447 0.99162 0.85717 0.0
C735 C 0.04933 0.97521 0.82602 0.0
C736 C 0.07102 0.94548 0.82449 0.0
H737 H 0.05227 0.02032 0.84285 0.0
H738 H 0.01523 0.98092 0.81491 0.0
S739 S 0.18593 0.91738 0.85993 0.0
N740 N 0.17943 0.95365 0.86916 0.0
N741 N 0.13853 0.91093 0.83942 0.0
C742 C 0.11521 0.93903 0.83919 0.0
C743 C 0.13697 0.96208 0.85552 0.0
C744 C 0.11112 0.13837 0.08168 0.0
C745 C 0.16536 0.14143 0.0766 0.0
C746 C 0.09261 0.13133 0.10574 0.0
C747 C 0.12752 0.12693 0.12579 0.0
H748 H 0.08264 0.14145 0.0669 0.0
H749 H 0.05048 0.12915 0.10864 0.0
S750 S 0.27345 0.13123 0.12223 0.0
N751 N 0.2539 0.13901 0.09358 0.0
N752 N 0.21915 0.1256 0.13875 0.0
C753 C 0.18187 0.13021 0.12104 0.0
C754 C 0.20074 0.13747 0.0965 0.0
C755 C 0.35155 0.44557 0.59156 0.0
C756 C 0.35597 0.4163 0.5801 0.0
C757 C 0.36659 0.45056 0.61648 0.0
C758 C 0.38629 0.42647 0.63115 0.0
H759 H 0.33801 0.4651 0.58092 0.0
H760 H 0.36356 0.47367 0.62425 0.0
S761 S 0.40285 0.34508 0.61065 0.0
N762 N 0.37921 0.36249 0.58579 0.0
N763 N 0.40773 0.37196 0.63265 0.0
C764 C 0.38933 0.39685 0.62025 0.0
C765 C 0.37431 0.39178 0.59473 0.0
C766 C 0.66205 0.35416 0.9805 0.0
C767 C 0.62728 0.34677 1.00019 0.0
C768 C 0.64661 0.35092 0.95538 0.0
C769 C 0.59582 0.34018 0.94901 0.0
H770 H 0.70206 0.36154 0.98452 0.0
H771 H 0.67519 0.35592 0.94085 0.0
S772 S 0.48771 0.3219 0.99352 0.0
N773 N 0.53822 0.33114 1.01155 0.0
N774 N 0.50927 0.3251 0.96449 0.0
C775 C 0.56003 0.33402 0.96853 0.0
C776 C 0.57572 0.3373 0.99405 0.0
C777 C 0.92852 0.18025 0.49516 0.0
C778 C 0.88305 0.1629 0.50101 0.0
C779 C 0.94101 0.1878 0.47035 0.0
C780 C 0.90842 0.17841 0.45037 0.0
H781 H 0.95516 0.18767 0.50986 0.0
H782 H 0.97689 0.2008 0.46678 0.0
S783 S 0.78238 0.13476 0.45594 0.0
N784 N 0.80393 0.13784 0.48495 0.0
N785 N 0.82697 0.1523 0.43839 0.0
C786 C 0.86236 0.16144 0.45602 0.0
C787 C 0.84979 0.15365 0.48129 0.0
C788 C 0.90625 0.90197 0.98927 0.0
C789 C 0.85492 0.8905 0.99352 0.0
C790 C 0.92385 0.9093 0.96511 0.0
C791 C 0.89088 0.90547 0.94418 0.0
H792 H 0.93324 0.90511 1.00474 0.0
H793 H 0.96379 0.91788 0.96279 0.0
S794 S 0.75189 0.87816 0.94531 0.0
N795 N 0.7706 0.87689 0.9748 0.0
N796 N 0.80371 0.89062 0.92945 0.0
C797 C 0.83941 0.89414 0.94815 0.0
C798 C 0.82145 0.88668 0.97277 0.0
C799 C 0.63835 0.62598 0.47143 0.0
C800 C 0.67765 0.63908 0.48693 0.0
C801 C 0.64361 0.62566 0.44525 0.0
C802 C 0.68861 0.63816 0.43358 0.0
H803 H 0.6039 0.61509 0.47966 0.0
H804 H 0.61357 0.61411 0.43417 0.0
S805 S 0.80075 0.67747 0.46525 0.0
N806 N 0.76163 0.66654 0.48833 0.0
N807 N 0.77113 0.66617 0.43926 0.0
C808 C 0.72684 0.65272 0.44873 0.0
C809 C 0.72144 0.65317 0.47533 0.0
C810 C 0.34327 0.68679 0.09225 0.0
C811 C 0.37797 0.68701 0.07162 0.0
C812 C 0.36198 0.69001 0.11684 0.0
C813 C 0.41606 0.69401 0.12174 0.0
H814 H 0.30121 0.68441 0.08933 0.0
H815 H 0.33376 0.69036 0.13208 0.0
S816 S 0.52354 0.695 0.07458 0.0
N817 N 0.46926 0.69062 0.05794 0.0
N818 N 0.50428 0.69658 0.10408 0.0
C819 C 0.45126 0.69353 0.10137 0.0
C820 C 0.43229 0.69001 0.07637 0.0
C821 C 0.07793 0.8752 0.57923 0.0
C822 C 0.13096 0.87764 0.57165 0.0
C823 C 0.06428 0.86613 0.60353 0.0
C824 C 0.10309 0.85942 0.62136 0.0
H825 H 0.0466 0.87973 0.56611 0.0
H826 H 0.0229 0.86421 0.60839 0.0
S827 S 0.24767 0.86339 0.61133 0.0
N828 N 0.22257 0.87354 0.58421 0.0
N829 N 0.19685 0.85632 0.62987 0.0
C830 C 0.15628 0.86235 0.61422 0.0
C831 C 0.17022 0.87138 0.58937 0.0
C832 C 0.15511 0.22712 0.35747 0.0
C833 C 0.13453 0.25675 0.36198 0.0
C834 C 0.12955 0.20596 0.34148 0.0
C835 C 0.08222 0.2135 0.32948 0.0
H836 H 0.19139 0.22024 0.36635 0.0
H837 H 0.14663 0.18335 0.33879 0.0
S838 S 0.01191 0.28795 0.33483 0.0
N839 N 0.06378 0.29243 0.3531 0.0
N840 N 0.0162 0.2528 0.32284 0.0
C841 C 0.06134 0.24305 0.33369 0.0
C842 C 0.08745 0.26466 0.3499 0.0
C843 C 0.42247 0.26158 0.83415 0.0
C844 C 0.37773 0.26665 0.84927 0.0
C845 C 0.44909 0.28615 0.82251 0.0
C846 C 0.4315 0.31666 0.82521 0.0
H847 H 0.43701 0.23838 0.83126 0.0
H848 H 0.4829 0.28111 0.8108 0.0
S849 S 0.31794 0.34271 0.86346 0.0
N850 N 0.31796 0.30481 0.86671 0.0
N851 N 0.36828 0.35092 0.84494 0.0
C852 C 0.38748 0.32219 0.84055 0.0
C853 C 0.36058 0.29723 0.85258 0.0
C854 C 0.63357 0.31422 0.7081 0.0
C855 C 0.64248 0.28333 0.71474 0.0
C856 C 0.60544 0.33421 0.72384 0.0
C857 C 0.58547 0.32423 0.74697 0.0
H858 H 0.64841 0.32307 0.69053 0.0
H859 H 0.59924 0.3577 0.71781 0.0
S860 S 0.59594 0.24547 0.77287 0.0
N861 N 0.62756 0.24354 0.74587 0.0
N862 N 0.57548 0.28143 0.77564 0.0
C863 C 0.59448 0.29359 0.75406 0.0
C864 C 0.62281 0.27308 0.73791 0.0
C865 C 0.88528 0.2661 0.25298 0.0
C866 C 0.86728 0.26207 0.22827 0.0
C867 C 0.91395 0.24304 0.26501 0.0
C868 C 0.926 0.21512 0.25275 0.0
H869 H 0.87701 0.28726 0.26314 0.0
H870 H 0.92751 0.24735 0.28391 0.0
S871 S 0.88799 0.19294 0.18806 0.0
N872 N 0.86386 0.22794 0.19197 0.0
N873 N 0.91694 0.18447 0.21467 0.0
C874 C 0.90786 0.21066 0.22814 0.0
C875 C 0.87864 0.23411 0.21591 0.0
C876 C 0.89327 0.7726 0.72654 0.0
C877 C 0.87806 0.78084 0.70225 0.0
C878 C 0.92047 0.7935 0.74217 0.0
C879 C 0.93297 0.82366 0.73435 0.0
H880 H 0.8836 0.7499 0.73367 0.0
H881 H 0.93202 0.78583 0.7605 0.0
S882 S 0.9074 0.85545 0.67132 0.0
N883 N 0.88197 0.82025 0.67024 0.0
N884 N 0.93135 0.85978 0.69978 0.0
C885 C 0.91938 0.83185 0.70979 0.0
C886 C 0.89217 0.81047 0.69379 0.0
C887 C 0.59184 0.77444 0.23507 0.0
C888 C 0.63311 0.76789 0.21821 0.0
C889 C 0.56316 0.75073 0.24674 0.0
C890 C 0.57526 0.71955 0.24233 0.0
H891 H 0.58195 0.79815 0.23949 0.0
H892 H 0.53255 0.75688 0.26 0.0
S893 S 0.67681 0.68977 0.19866 0.0
N894 N 0.68273 0.72771 0.19686 0.0
N895 N 0.62863 0.68319 0.21881 0.0
C896 C 0.61517 0.71258 0.22498 0.0
C897 C 0.64411 0.73672 0.21291 0.0
C898 C 0.38895 0.75924 0.33963 0.0
C899 C 0.36656 0.74758 0.36179 0.0
C900 C 0.41767 0.74019 0.32329 0.0
C901 C 0.42509 0.70876 0.3285 0.0
H902 H 0.38544 0.78348 0.33518 0.0
H903 H 0.4354 0.75035 0.30681 0.0
S904 S 0.37054 0.66603 0.38254 0.0
N905 N 0.35067 0.70189 0.38699 0.0
N906 N 0.40541 0.66634 0.35642 0.0
C907 C 0.40202 0.69661 0.3502 0.0
C908 C 0.37254 0.71592 0.36679 0.0
C909 C 0.11609 0.78874 0.85225 0.0
C910 C 0.14497 0.76654 0.83881 0.0
C911 C 0.08771 0.81166 0.83992 0.0
C912 C 0.08732 0.81354 0.8136 0.0
H913 H 0.11469 0.78809 0.87248 0.0
H914 H 0.06598 0.82808 0.85123 0.0
S915 S 0.15902 0.76157 0.76983 0.0
N916 N 0.1733 0.74844 0.79784 0.0
N917 N 0.11974 0.79121 0.77459 0.0
C918 C 0.11676 0.79165 0.79996 0.0
C919 C 0.14553 0.76825 0.81256 0.0
loop_
_geom_bond_atom_site_label_1
_geom_bond_atom_site_label_2
_geom_bond_distance
_geom_bond_site_symmetry_2
_ccdc_geom_bond_type
C0 C1 1.264 . S
C0 C5 1.479 . S
C0 C10 1.465 . S
C1 C0 1.264 . S
C1 C3 1.339 . S
C1 H28 0.931 . S
C2 C3 1.395 . S
C2 C4 1.320 . S
C3 C1 1.339 . S
C3 C2 1.395 . S
C3 H29 0.929 . S
C4 C2 1.320 . S
C4 C5 1.405 . S
C4 H30 0.930 . S
C5 C0 1.479 . S
C5 C4 1.405 . S
C5 H31 0.931 . S
U6 O7 2.454 . S
U6 O8 2.458 . S
U6 C9 2.984 . S
U6 C10 2.847 . S
U6 C23 2.882 . S
U6 O24 2.441 . S
U6 O25 2.420 . S
U6 O26 2.455 . S
U6 O27 2.449 . S
O7 U6 2.454 . S
O7 C9 1.353 . S
O8 U6 2.458 . S
O8 C9 1.286 . S
C9 U6 2.984 . S
C9 O7 1.353 . S
C9 O8 1.286 . S
C9 C11 1.363 . S
C10 C0 1.465 . S
C10 U6 2.847 . S
C10 O24 1.249 . S
C10 O25 1.202 . S
C11 C9 1.363 . S
C11 C13 1.408 . S
C11 C16 1.342 . S
C12 C13 1.310 . S
C12 C15 1.461 . S
C12 H32 0.932 . S
C13 C11 1.408 . S
C13 C12 1.310 . S
C13 H33 0.930 . S
C14 C15 1.474 . S
C14 C16 1.285 . S
C14 H34 0.929 . S
C15 C12 1.461 . S
C15 C14 1.474 . S
C16 C11 1.342 . S
C16 C14 1.285 . S
C16 H35 0.930 . S
C17 C20 1.424 . S
C17 C22 1.245 . S
C17 C23 1.428 . S
C18 C21 1.260 . S
C18 C22 1.477 . S
C18 H36 0.932 . S
C19 C20 1.384 . S
C19 C21 1.479 . S
C19 H37 0.929 . S
C20 C17 1.424 . S
C20 C19 1.384 . S
C20 H38 0.928 . S
C21 C18 1.260 . S
C21 C19 1.479 . S
C22 C17 1.245 . S
C22 C18 1.477 . S
C22 H39 0.932 . S
C23 U6 2.882 . S
C23 C17 1.428 . S
C23 O26 1.301 . S
C23 O27 1.282 . S
O24 U6 2.441 . S
O24 C10 1.249 . S
O25 U6 2.420 . S
O25 C10 1.202 . S
O26 U6 2.455 . S
O26 C23 1.301 . S
O27 U6 2.449 . S
O27 C23 1.282 . S
H28 C1 0.931 . S
H29 C3 0.929 . S
H30 C4 0.930 . S
H31 C5 0.931 . S
H32 C12 0.932 . S
H33 C13 0.930 . S
H34 C14 0.929 . S
H35 C16 0.930 . S
H36 C18 0.932 . S
H37 C19 0.929 . S
H38 C20 0.928 . S
H39 C22 0.932 . S
C40 C41 1.264 . S
C40 C45 1.479 . S
C40 C50 1.465 . S
C41 C40 1.264 . S
C41 C43 1.339 1_556 S
C41 H68 0.931 . S
C42 C43 1.395 . S
C42 C44 1.320 . S
C43 C41 1.339 1_554 S
C43 C42 1.395 . S
C43 H69 0.929 . S
C44 C42 1.320 . S
C44 C45 1.405 1_554 S
C44 H70 0.930 . S
C45 C40 1.479 . S
C45 C44 1.405 1_556 S
C45 H71 0.931 . S
U46 O47 2.454 . S
U46 O48 2.458 . S
U46 C49 2.984 . S
U46 C50 2.847 . S
U46 C63 2.882 . S
U46 O64 2.441 . S
U46 O65 2.420 . S
U46 O66 2.455 . S
U46 O67 2.449 . S
O47 U46 2.454 . S
O47 C49 1.353 . S
O48 U46 2.458 . S
O48 C49 1.286 . S
C49 U46 2.984 . S
C49 O47 1.353 . S
C49 O48 1.286 . S
C49 C51 1.363 . S
C50 C40 1.465 . S
C50 U46 2.847 . S
C50 O64 1.249 . S
C50 O65 1.202 . S
C51 C49 1.363 . S
C51 C53 1.408 . S
C51 C56 1.342 . S
C52 C53 1.310 . S
C52 C55 1.461 . S
C52 H72 0.932 . S
C53 C51 1.408 . S
C53 C52 1.310 . S
C53 H73 0.930 . S
C54 C55 1.474 . S
C54 C56 1.285 . S
C54 H74 0.929 . S
C55 C52 1.461 . S
C55 C54 1.474 . S
C56 C51 1.342 . S
C56 C54 1.285 . S
C56 H75 0.930 . S
C57 C60 1.424 . S
C57 C62 1.245 . S
C57 C63 1.428 . S
C58 C61 1.260 1_545 S
C58 C62 1.477 . S
C58 H76 0.932 . S
C59 C60 1.386 . S
C59 C61 1.478 1_545 S
C59 H77 0.927 1_545 S
C60 C57 1.424 . S
C60 C59 1.386 . S
C60 H78 0.928 . S
C61 C58 1.260 1_565 S
C61 C59 1.478 1_565 S
C62 C57 1.245 . S
C62 C58 1.477 . S
C62 H79 0.932 . S
C63 U46 2.882 . S
C63 C57 1.428 . S
C63 O66 1.301 . S
C63 O67 1.282 . S
O64 U46 2.441 . S
O64 C50 1.249 . S
O65 U46 2.420 . S
O65 C50 1.202 . S
O66 U46 2.455 . S
O66 C63 1.301 . S
O67 U46 2.449 . S
O67 C63 1.282 . S
H68 C41 0.931 . S
H69 C43 0.929 . S
H70 C44 0.930 . S
H71 C45 0.931 . S
H72 C52 0.932 . S
H73 C53 0.930 . S
H74 C54 0.929 . S
H75 C56 0.930 . S
H76 C58 0.932 . S
H77 C59 0.927 1_565 S
H78 C60 0.928 . S
H79 C62 0.932 . S
C80 C81 1.264 . S
C80 C85 1.479 . S
C80 C90 1.465 . S
C81 C80 1.264 . S
C81 C83 1.339 1_545 S
C81 H108 0.931 . S
C82 C83 1.395 . S
C82 C84 1.320 1_565 S
C83 C81 1.339 1_565 S
C83 C82 1.395 . S
C83 H109 0.929 . S
C84 C82 1.320 1_545 S
C84 C85 1.405 . S
C84 H110 0.930 . S
C85 C80 1.479 . S
C85 C84 1.405 . S
C85 H111 0.931 . S
U86 O87 2.454 . S
U86 O88 2.458 . S
U86 C89 2.984 . S
U86 C90 2.847 . S
U86 C103 2.882 . S
U86 O104 2.441 . S
U86 O105 2.420 . S
U86 O106 2.455 . S
U86 O107 2.449 . S
O87 U86 2.454 . S
O87 C89 1.353 . S
O88 U86 2.458 . S
O88 C89 1.286 . S
C89 U86 2.984 . S
C89 O87 1.353 . S
C89 O88 1.286 . S
C89 C91 1.363 . S
C90 C80 1.465 . S
C90 U86 2.847 . S
C90 O104 1.249 . S
C90 O105 1.202 . S
C91 C89 1.363 . S
C91 C93 1.408 . S
C91 C96 1.342 . S
C92 C93 1.310 . S
C92 C95 1.461 . S
C92 H112 0.932 . S
C93 C91 1.408 . S
C93 C92 1.310 . S
C93 H113 0.930 . S
C94 C95 1.474 . S
C94 C96 1.285 . S
C94 H114 0.929 . S
C95 C92 1.461 . S
C95 C94 1.474 . S
C96 C91 1.342 . S
C96 C94 1.285 . S
C96 H115 0.930 . S
C97 C100 1.424 . S
C97 C102 1.245 . S
C97 C103 1.428 . S
C98 C101 1.260 . S
C98 C102 1.477 . S
C98 H116 0.932 . S
C99 C100 1.384 . S
C99 C101 1.479 . S
C99 H117 0.929 . S
C100 C97 1.424 . S
C100 C99 1.384 . S
C100 H118 0.928 . S
C101 C98 1.260 . S
C101 C99 1.479 . S
C102 C97 1.245 . S
C102 C98 1.477 . S
C102 H119 0.932 . S
C103 U86 2.882 . S
C103 C97 1.428 . S
C103 O106 1.301 . S
C103 O107 1.282 . S
O104 U86 2.441 . S
O104 C90 1.249 . S
O105 U86 2.420 . S
O105 C90 1.202 . S
O106 U86 2.455 . S
O106 C103 1.301 . S
O107 U86 2.449 . S
O107 C103 1.282 . S
H108 C81 0.931 . S
H109 C83 0.929 . S
H110 C84 0.930 . S
H111 C85 0.931 . S
H112 C92 0.932 . S
H113 C93 0.930 . S
H114 C94 0.929 . S
H115 C96 0.930 . S
H116 C98 0.932 . S
H117 C99 0.929 . S
H118 C100 0.928 . S
H119 C102 0.932 . S
C120 C121 1.264 . S
C120 C125 1.479 . S
C120 C130 1.465 . S
C121 C120 1.264 . S
C121 C123 1.339 1_554 S
C121 H148 0.931 . S
C122 C123 1.395 . S
C122 C124 1.320 . S
C123 C121 1.339 1_556 S
C123 C122 1.395 . S
C123 H149 0.929 . S
C124 C122 1.320 . S
C124 C125 1.405 1_556 S
C124 H150 0.930 . S
C125 C120 1.479 . S
C125 C124 1.405 1_554 S
C125 H151 0.931 . S
U126 O127 2.454 . S
U126 O128 2.458 . S
U126 C129 2.984 . S
U126 C130 2.847 . S
U126 C143 2.882 . S
U126 O144 2.441 . S
U126 O145 2.420 . S
U126 O146 2.455 . S
U126 O147 2.449 . S
O127 U126 2.454 . S
O127 C129 1.353 . S
O128 U126 2.458 . S
O128 C129 1.286 . S
C129 U126 2.984 . S
C129 O127 1.353 . S
C129 O128 1.286 . S
C129 C131 1.363 . S
C130 C120 1.465 . S
C130 U126 2.847 . S
C130 O144 1.249 . S
C130 O145 1.202 . S
C131 C129 1.363 . S
C131 C133 1.408 . S
C131 C136 1.342 . S
C132 C133 1.310 . S
C132 C135 1.461 . S
C132 H152 0.932 . S
C133 C131 1.408 . S
C133 C132 1.310 . S
C133 H153 0.930 . S
C134 C135 1.474 . S
C134 C136 1.285 . S
C134 H154 0.929 . S
C135 C132 1.461 . S
C135 C134 1.474 . S
C136 C131 1.342 . S
C136 C134 1.285 . S
C136 H155 0.930 . S
C137 C140 1.424 . S
C137 C142 1.245 . S
C137 C143 1.428 . S
C138 C141 1.260 . S
C138 C142 1.477 . S
C138 H156 0.932 . S
C139 C140 1.384 . S
C139 C141 1.479 . S
C139 H157 0.929 . S
C140 C137 1.424 . S
C140 C139 1.384 . S
C140 H158 0.928 . S
C141 C138 1.260 . S
C141 C139 1.479 . S
C142 C137 1.245 . S
C142 C138 1.477 . S
C142 H159 0.932 . S
C143 U126 2.882 . S
C143 C137 1.428 . S
C143 O146 1.301 . S
C143 O147 1.282 . S
O144 U126 2.441 . S
O144 C130 1.249 . S
O145 U126 2.420 . S
O145 C130 1.202 . S
O146 U126 2.455 . S
O146 C143 1.301 . S
O147 U126 2.449 . S
O147 C143 1.282 . S
H148 C121 0.931 . S
H149 C123 0.929 . S
H150 C124 0.930 . S
H151 C125 0.931 . S
H152 C132 0.932 . S
H153 C133 0.930 . S
H154 C134 0.929 . S
H155 C136 0.930 . S
H156 C138 0.932 . S
H157 C139 0.929 . S
H158 C140 0.928 . S
H159 C142 0.932 . S
C160 C161 1.264 . S
C160 C165 1.479 . S
C160 C170 1.465 . S
C161 C160 1.264 . S
C161 C163 1.339 . S
C161 H188 0.931 . S
C162 C163 1.395 . S
C162 C164 1.320 . S
C163 C161 1.339 . S
C163 C162 1.395 . S
C163 H189 0.929 . S
C164 C162 1.320 . S
C164 C165 1.405 . S
C164 H190 0.930 . S
C165 C160 1.479 . S
C165 C164 1.405 . S
C165 H191 0.931 . S
U166 O167 2.454 . S
U166 O168 2.458 . S
U166 C169 2.984 . S
U166 C170 2.847 . S
U166 C183 2.882 . S
U166 O184 2.441 . S
U166 O185 2.420 . S
U166 O186 2.455 . S
U166 O187 2.449 . S
O167 U166 2.454 . S
O167 C169 1.353 . S
O168 U166 2.458 . S
O168 C169 1.286 . S
C169 U166 2.984 . S
C169 O167 1.353 . S
C169 O168 1.286 . S
C169 C171 1.363 . S
C170 C160 1.465 . S
C170 U166 2.847 . S
C170 O184 1.249 . S
C170 O185 1.202 . S
C171 C169 1.363 . S
C171 C173 1.408 . S
C171 C176 1.342 . S
C172 C173 1.310 . S
C172 C175 1.461 . S
C172 H192 0.932 . S
C173 C171 1.408 . S
C173 C172 1.310 . S
C173 H193 0.930 . S
C174 C175 1.474 . S
C174 C176 1.285 . S
C174 H194 0.929 . S
C175 C172 1.461 . S
C175 C174 1.474 . S
C176 C171 1.342 . S
C176 C174 1.285 . S
C176 H195 0.930 . S
C177 C180 1.424 . S
C177 C182 1.245 . S
C177 C183 1.428 . S
C178 C181 1.260 . S
C178 C182 1.477 . S
C178 H196 0.932 . S
C179 C180 1.384 . S
C179 C181 1.479 . S
C179 H197 0.929 . S
C180 C177 1.424 . S
C180 C179 1.384 . S
C180 H198 0.928 . S
C181 C178 1.260 . S
C181 C179 1.479 . S
C182 C177 1.245 . S
C182 C178 1.477 . S
C182 H199 0.932 . S
C183 U166 2.882 . S
C183 C177 1.428 . S
C183 O186 1.301 . S
C183 O187 1.282 . S
O184 U166 2.441 . S
O184 C170 1.249 . S
O185 U166 2.420 . S
O185 C170 1.202 . S
O186 U166 2.455 . S
O186 C183 1.301 . S
O187 U166 2.449 . S
O187 C183 1.282 . S
H188 C161 0.931 . S
H189 C163 0.929 . S
H190 C164 0.930 . S
H191 C165 0.931 . S
H192 C172 0.932 . S
H193 C173 0.930 . S
H194 C174 0.929 . S
H195 C176 0.930 . S
H196 C178 0.932 . S
H197 C179 0.929 . S
H198 C180 0.928 . S
H199 C182 0.932 . S
C200 C201 1.264 . S
C200 C205 1.479 . S
C200 C210 1.465 . S
C201 C200 1.264 . S
C201 C203 1.339 1_554 S
C201 H228 0.931 . S
C202 C203 1.395 . S
C202 C204 1.320 . S
C203 C201 1.339 1_556 S
C203 C202 1.395 . S
C203 H229 0.929 . S
C204 C202 1.320 . S
C204 C205 1.405 1_556 S
C204 H230 0.930 . S
C205 C200 1.479 . S
C205 C204 1.405 1_554 S
C205 H231 0.931 . S
U206 O207 2.454 . S
U206 O208 2.458 . S
U206 C209 2.984 . S
U206 C210 2.847 . S
U206 C223 2.882 . S
U206 O224 2.441 . S
U206 O225 2.420 . S
U206 O226 2.455 . S
U206 O227 2.449 . S
O207 U206 2.454 . S
O207 C209 1.353 . S
O208 U206 2.458 . S
O208 C209 1.286 . S
C209 U206 2.984 . S
C209 O207 1.353 . S
C209 O208 1.286 . S
C209 C211 1.363 . S
C210 C200 1.465 . S
C210 U206 2.847 . S
C210 O224 1.249 . S
C210 O225 1.202 . S
C211 C209 1.363 . S
C211 C213 1.408 . S
C211 C216 1.342 . S
C212 C213 1.310 . S
C212 C215 1.461 . S
C212 H232 0.932 . S
C213 C211 1.408 . S
C213 C212 1.310 . S
C213 H233 0.930 . S
C214 C215 1.474 . S
C214 C216 1.285 . S
C214 H234 0.929 . S
C215 C212 1.461 . S
C215 C214 1.474 . S
C216 C211 1.342 . S
C216 C214 1.285 . S
C216 H235 0.930 . S
C217 C220 1.424 . S
C217 C222 1.245 . S
C217 C223 1.428 . S
C218 C221 1.260 1_565 S
C218 C222 1.477 . S
C218 H236 0.932 . S
C219 C220 1.384 1_545 S
C219 C221 1.479 . S
C219 H237 0.929 . S
C220 C217 1.424 . S
C220 C219 1.384 1_565 S
C220 H238 0.928 . S
C221 C218 1.260 1_545 S
C221 C219 1.479 . S
C222 C217 1.245 . S
C222 C218 1.477 . S
C222 H239 0.932 . S
C223 U206 2.882 . S
C223 C217 1.428 . S
C223 O226 1.301 . S
C223 O227 1.282 . S
O224 U206 2.441 . S
O224 C210 1.249 . S
O225 U206 2.420 . S
O225 C210 1.202 . S
O226 U206 2.455 . S
O226 C223 1.301 . S
O227 U206 2.449 . S
O227 C223 1.282 . S
H228 C201 0.931 . S
H229 C203 0.929 . S
H230 C204 0.930 . S
H231 C205 0.931 . S
H232 C212 0.932 . S
H233 C213 0.930 . S
H234 C214 0.929 . S
H235 C216 0.930 . S
H236 C218 0.932 . S
H237 C219 0.929 . S
H238 C220 0.928 . S
H239 C222 0.932 . S
C240 C241 1.264 . S
C240 C245 1.479 . S
C240 C250 1.465 . S
C241 C240 1.264 . S
C241 C243 1.339 . S
C241 H268 0.931 . S
C242 C243 1.395 1_545 S
C242 C244 1.320 1_545 S
C243 C241 1.339 . S
C243 C242 1.395 1_565 S
C243 H269 0.929 1_565 S
C244 C242 1.320 1_565 S
C244 C245 1.405 . S
C244 H270 0.930 . S
C245 C240 1.479 . S
C245 C244 1.405 . S
C245 H271 0.931 . S
U246 O247 2.454 . S
U246 O248 2.458 . S
U246 C249 2.984 . S
U246 C250 2.847 . S
U246 C263 2.882 . S
U246 O264 2.441 . S
U246 O265 2.420 . S
U246 O266 2.455 . S
U246 O267 2.449 . S
O247 U246 2.454 . S
O247 C249 1.353 . S
O248 U246 2.458 . S
O248 C249 1.286 . S
C249 U246 2.984 . S
C249 O247 1.353 . S
C249 O248 1.286 . S
C249 C251 1.363 . S
C250 C240 1.465 . S
C250 U246 2.847 . S
C250 O264 1.249 . S
C250 O265 1.202 . S
C251 C249 1.363 . S
C251 C253 1.408 . S
C251 C256 1.342 . S
C252 C253 1.310 . S
C252 C255 1.461 . S
C252 H272 0.932 . S
C253 C251 1.408 . S
C253 C252 1.310 . S
C253 H273 0.930 . S
C254 C255 1.474 . S
C254 C256 1.285 . S
C254 H274 0.929 . S
C255 C252 1.461 . S
C255 C254 1.474 . S
C256 C251 1.342 . S
C256 C254 1.285 . S
C256 H275 0.930 . S
C257 C260 1.424 . S
C257 C262 1.245 . S
C257 C263 1.428 . S
C258 C261 1.260 . S
C258 C262 1.477 . S
C258 H276 0.932 . S
C259 C260 1.384 . S
C259 C261 1.479 . S
C259 H277 0.929 . S
C260 C257 1.424 . S
C260 C259 1.384 . S
C260 H278 0.928 . S
C261 C258 1.260 . S
C261 C259 1.479 . S
C262 C257 1.245 . S
C262 C258 1.477 . S
C262 H279 0.932 . S
C263 U246 2.882 . S
C263 C257 1.428 . S
C263 O266 1.301 . S
C263 O267 1.282 . S
O264 U246 2.441 . S
O264 C250 1.249 . S
O265 U246 2.420 . S
O265 C250 1.202 . S
O266 U246 2.455 . S
O266 C263 1.301 . S
O267 U246 2.449 . S
O267 C263 1.282 . S
H268 C241 0.931 . S
H269 C243 0.929 1_545 S
H270 C244 0.930 . S
H271 C245 0.931 . S
H272 C252 0.932 . S
H273 C253 0.930 . S
H274 C254 0.929 . S
H275 C256 0.930 . S
H276 C258 0.932 . S
H277 C259 0.929 . S
H278 C260 0.928 . S
H279 C262 0.932 . S
C280 C281 1.264 . S
C280 C285 1.479 . S
C280 C290 1.465 . S
C281 C280 1.264 . S
C281 C283 1.339 1_556 S
C281 H308 0.931 . S
C282 C283 1.395 . S
C282 C284 1.320 . S
C283 C281 1.339 1_554 S
C283 C282 1.395 . S
C283 H309 0.929 . S
C284 C282 1.320 . S
C284 C285 1.405 1_554 S
C284 H310 0.930 . S
C285 C280 1.479 . S
C285 C284 1.405 1_556 S
C285 H311 0.931 . S
U286 O287 2.454 . S
U286 O288 2.458 . S
U286 C289 2.984 . S
U286 C290 2.847 . S
U286 C303 2.882 . S
U286 O304 2.441 . S
U286 O305 2.420 . S
U286 O306 2.455 . S
U286 O307 2.449 . S
O287 U286 2.454 . S
O287 C289 1.353 . S
O288 U286 2.458 . S
O288 C289 1.286 . S
C289 U286 2.984 . S
C289 O287 1.353 . S
C289 O288 1.286 . S
C289 C291 1.363 . S
C290 C280 1.465 . S
C290 U286 2.847 . S
C290 O304 1.249 . S
C290 O305 1.202 . S
C291 C289 1.363 . S
C291 C293 1.408 . S
C291 C296 1.342 . S
C292 C293 1.310 . S
C292 C295 1.461 . S
C292 H312 0.932 . S
C293 C291 1.408 . S
C293 C292 1.310 . S
C293 H313 0.930 . S
C294 C295 1.474 . S
C294 C296 1.285 . S
C294 H314 0.929 . S
C295 C292 1.461 . S
C295 C294 1.474 . S
C296 C291 1.342 . S
C296 C294 1.285 . S
C296 H315 0.930 . S
C297 C300 1.424 . S
C297 C302 1.245 . S
C297 C303 1.428 . S
C298 C301 1.260 . S
C298 C302 1.477 . S
C298 H316 0.932 . S
C299 C300 1.384 . S
C299 C301 1.479 . S
C299 H317 0.929 . S
C300 C297 1.424 . S
C300 C299 1.384 . S
C300 H318 0.928 . S
C301 C298 1.260 . S
C301 C299 1.479 . S
C302 C297 1.245 . S
C302 C298 1.477 . S
C302 H319 0.932 . S
C303 U286 2.882 . S
C303 C297 1.428 . S
C303 O306 1.301 . S
C303 O307 1.282 . S
O304 U286 2.441 . S
O304 C290 1.249 . S
O305 U286 2.420 . S
O305 C290 1.202 . S
O306 U286 2.455 . S
O306 C303 1.301 . S
O307 U286 2.449 . S
O307 C303 1.282 . S
H308 C281 0.931 . S
H309 C283 0.929 . S
H310 C284 0.930 . S
H311 C285 0.931 . S
H312 C292 0.932 . S
H313 C293 0.930 . S
H314 C294 0.929 . S
H315 C296 0.930 . S
H316 C298 0.932 . S
H317 C299 0.929 . S
H318 C300 0.928 . S
H319 C302 0.932 . S
C320 C322 1.422 . S
C320 C324 1.415 . S
C320 N326 1.369 . S
C321 C322 1.421 . S
C321 C323 1.417 . S
C321 C333 1.422 . S
C322 C320 1.422 . S
C322 C321 1.421 . S
C322 N332 1.359 . S
C323 C321 1.417 . S
C323 C325 1.329 . S
C323 H342 0.930 . S
C324 C320 1.415 . S
C324 C325 1.437 . S
C324 C328 1.413 . S
C325 C323 1.329 . S
C325 C324 1.437 . S
C325 H347 0.929 . S
N326 C320 1.369 . S
N326 C327 1.338 . S
N326 Gd331 2.622 . S
C327 N326 1.338 . S
C327 C329 1.378 . S
C327 H339 0.929 . S
C328 C324 1.413 . S
C328 C329 1.348 . S
C328 H344 0.931 . S
C329 C327 1.378 . S
C329 C328 1.348 . S
C329 H345 0.930 . S
Gd330 N350 2.622 . S
Gd330 N357 2.570 . S
Gd330 O364 2.353 . S
Gd330 O365 2.468 . S
Gd330 O366 2.427 . S
Gd330 O368 2.388 . S
Gd330 O369 2.386 . S
Gd330 O373 2.289 1_455 S
Gd330 C383 2.805 . S
Gd331 N326 2.622 . S
Gd331 N332 2.570 . S
Gd331 O363 2.386 . S
Gd331 O367 2.307 1_655 S
Gd331 O370 2.346 1_655 S
Gd331 O371 2.468 . S
Gd331 O372 2.427 . S
Gd331 O374 2.388 . S
Gd331 C395 2.805 . S
N332 C322 1.359 . S
N332 Gd331 2.570 . S
N332 C334 1.343 . S
C333 C321 1.422 . S
C333 C335 1.321 . S
C333 H341 0.931 . S
C334 N332 1.343 . S
C334 C335 1.390 . S
C334 H336 0.931 . S
C335 C333 1.321 . S
C335 C334 1.390 . S
C335 H337 0.930 . S
H336 C334 0.931 . S
H337 C335 0.930 . S
H338 C361 0.931 . S
H339 C327 0.929 . S
H340 C362 0.930 . S
H341 C333 0.931 . S
H342 C323 0.930 . S
H343 C352 0.929 . S
H344 C328 0.931 . S
H345 C329 0.930 . S
H346 C384 0.930 . S
H347 C325 0.929 . S
H348 C353 0.931 . S
H349 C354 0.930 . S
N350 Gd330 2.622 . S
N350 C351 1.369 . S
N350 C352 1.338 . S
C351 N350 1.369 . S
C351 C355 1.415 . S
C351 C358 1.422 . S
C352 H343 0.929 . S
C352 N350 1.338 . S
C352 C354 1.378 . S
C353 H348 0.931 . S
C353 C354 1.348 . S
C353 C355 1.413 . S
C354 H349 0.930 . S
C354 C352 1.378 . S
C354 C353 1.348 . S
C355 C351 1.415 . S
C355 C353 1.413 . S
C355 C385 1.437 . S
H356 C385 0.929 . S
N357 Gd330 2.570 . S
N357 C358 1.359 . S
N357 C361 1.343 . S
C358 C351 1.422 . S
C358 N357 1.359 . S
C358 C360 1.421 . S
C359 C360 1.422 . S
C359 C362 1.321 . S
C359 H386 0.931 . S
C360 C358 1.421 . S
C360 C359 1.422 . S
C360 C384 1.417 . S
C361 H338 0.931 . S
C361 N357 1.343 . S
C361 C362 1.390 . S
C362 H340 0.930 . S
C362 C359 1.321 . S
C362 C361 1.390 . S
O363 Gd331 2.386 . S
O363 C375 1.265 . S
O364 Gd330 2.353 . S
O364 C375 1.242 1_455 S
O365 Gd330 2.468 . S
O365 C383 1.263 . S
O366 Gd330 2.427 . S
O366 C383 1.252 . S
O367 Gd331 2.307 1_455 S
O367 C376 1.261 . S
O368 Gd330 2.388 . S
O368 C376 1.252 . S
O369 Gd330 2.386 . S
O369 C387 1.265 . S
O370 Gd331 2.346 1_455 S
O370 C387 1.250 . S
O371 Gd331 2.468 . S
O371 C395 1.263 . S
O372 Gd331 2.427 . S
O372 C395 1.252 . S
O373 Gd330 2.289 1_655 S
O373 C388 1.282 . S
O374 Gd331 2.388 . S
O374 C388 1.252 . S
C375 O363 1.265 . S
C375 O364 1.242 1_655 S
C376 O367 1.261 . S
C376 O368 1.252 . S
C377 C380 1.394 . S
C377 C382 1.370 . S
C377 C383 1.500 . S
C378 C381 1.383 . S
C378 C382 1.395 . S
C379 C380 1.396 . S
C379 C381 1.365 . S
C379 H396 0.929 . S
C380 C377 1.394 . S
C380 C379 1.396 . S
C380 H397 0.930 . S
C381 C378 1.383 . S
C381 C379 1.365 . S
C381 H398 0.931 . S
C382 C377 1.370 . S
C382 C378 1.395 . S
C382 H399 0.930 . S
C383 Gd330 2.805 . S
C383 O365 1.263 . S
C383 O366 1.252 . S
C383 C377 1.500 . S
C384 H346 0.930 . S
C384 C360 1.417 . S
C384 C385 1.329 . S
C385 C355 1.437 . S
C385 H356 0.929 . S
C385 C384 1.329 . S
H386 C359 0.931 . S
C387 O369 1.265 . S
C387 O370 1.250 . S
C388 O373 1.282 . S
C388 O374 1.252 . S
C389 C392 1.394 . S
C389 C394 1.370 . S
C389 C395 1.500 . S
C390 C393 1.383 . S
C390 C394 1.395 . S
C391 C392 1.396 . S
C391 C393 1.365 . S
C391 H400 0.929 . S
C392 C389 1.394 . S
C392 C391 1.396 . S
C392 H401 0.930 . S
C393 C390 1.383 . S
C393 C391 1.365 . S
C393 H402 0.931 . S
C394 C389 1.370 . S
C394 C390 1.395 . S
C394 H403 0.930 . S
C395 Gd331 2.805 . S
C395 O371 1.263 . S
C395 O372 1.252 . S
C395 C389 1.500 . S
H396 C379 0.929 . S
H397 C380 0.930 . S
H398 C381 0.931 . S
H399 C382 0.930 . S
H400 C391 0.929 . S
H401 C392 0.930 . S
H402 C393 0.931 . S
H403 C394 0.930 . S
C404 C406 1.422 . S
C404 C408 1.415 . S
C404 N410 1.369 . S
C405 C406 1.421 . S
C405 C407 1.417 . S
C405 C417 1.422 . S
C406 C404 1.422 . S
C406 C405 1.421 . S
C406 N416 1.359 . S
C407 C405 1.417 . S
C407 C409 1.329 . S
C407 H426 0.930 . S
C408 C404 1.415 . S
C408 C409 1.437 . S
C408 C412 1.413 . S
C409 C407 1.329 . S
C409 C408 1.437 . S
C409 H431 0.929 . S
N410 C404 1.369 . S
N410 C411 1.338 . S
N410 Gd415 2.622 . S
C411 N410 1.338 . S
C411 C413 1.378 . S
C411 H423 0.929 . S
C412 C408 1.413 . S
C412 C413 1.348 . S
C412 H428 0.931 . S
C413 C411 1.378 . S
C413 C412 1.348 . S
C413 H429 0.930 . S
Gd414 N434 2.622 . S
Gd414 N441 2.570 . S
Gd414 O448 2.353 . S
Gd414 O449 2.468 . S
Gd414 O450 2.427 . S
Gd414 O452 2.388 . S
Gd414 O453 2.386 . S
Gd414 O457 2.307 . S
Gd414 C467 2.805 . S
Gd415 N410 2.622 . S
Gd415 N416 2.570 . S
Gd415 O447 2.386 . S
Gd415 O451 2.307 . S
Gd415 O454 2.353 . S
Gd415 O455 2.468 . S
Gd415 O456 2.427 . S
Gd415 O458 2.388 . S
Gd415 C479 2.805 . S
N416 C406 1.359 . S
N416 Gd415 2.570 . S
N416 C418 1.343 . S
C417 C405 1.422 . S
C417 C419 1.321 . S
C417 H425 0.931 . S
C418 N416 1.343 . S
C418 C419 1.390 . S
C418 H420 0.931 . S
C419 C417 1.321 . S
C419 C418 1.390 . S
C419 H421 0.930 . S
H420 C418 0.931 . S
H421 C419 0.930 . S
H422 C445 0.931 . S
H423 C411 0.929 . S
H424 C446 0.930 . S
H425 C417 0.931 . S
H426 C407 0.930 . S
H427 C436 0.929 . S
H428 C412 0.931 . S
H429 C413 0.930 . S
H430 C468 0.930 . S
H431 C409 0.929 . S
H432 C437 0.931 . S
H433 C438 0.930 . S
N434 Gd414 2.622 . S
N434 C435 1.369 . S
N434 C436 1.338 . S
C435 N434 1.369 . S
C435 C439 1.415 . S
C435 C442 1.422 . S
C436 H427 0.929 . S
C436 N434 1.338 . S
C436 C438 1.378 . S
C437 H432 0.931 . S
C437 C438 1.348 . S
C437 C439 1.413 . S
C438 H433 0.930 . S
C438 C436 1.378 . S
C438 C437 1.348 . S
C439 C435 1.415 . S
C439 C437 1.413 . S
C439 C469 1.437 . S
H440 C469 0.929 . S
N441 Gd414 2.570 . S
N441 C442 1.359 . S
N441 C445 1.343 . S
C442 C435 1.422 . S
C442 N441 1.359 . S
C442 C444 1.421 . S
C443 C444 1.422 . S
C443 C446 1.321 . S
C443 H470 0.931 . S
C444 C442 1.421 . S
C444 C443 1.422 . S
C444 C468 1.417 . S
C445 H422 0.931 . S
C445 N441 1.343 . S
C445 C446 1.390 . S
C446 H424 0.930 . S
C446 C443 1.321 . S
C446 C445 1.390 . S
O447 Gd415 2.386 . S
O447 C459 1.265 . S
O448 Gd414 2.353 . S
O448 C459 1.242 . S
O449 Gd414 2.468 . S
O449 C467 1.263 . S
O450 Gd414 2.427 . S
O450 C467 1.252 . S
O451 Gd415 2.307 . S
O451 C460 1.261 . S
O452 Gd414 2.388 . S
O452 C460 1.252 . S
O453 Gd414 2.386 . S
O453 C471 1.265 . S
O454 Gd415 2.353 . S
O454 C471 1.242 . S
O455 Gd415 2.468 . S
O455 C479 1.263 . S
O456 Gd415 2.427 . S
O456 C479 1.252 . S
O457 Gd414 2.307 . S
O457 C472 1.261 . S
O458 Gd415 2.388 . S
O458 C472 1.252 . S
C459 O447 1.265 . S
C459 O448 1.242 . S
C460 O451 1.261 . S
C460 O452 1.252 . S
C461 C464 1.394 . S
C461 C466 1.370 . S
C461 C467 1.500 . S
C462 C465 1.383 . S
C462 C466 1.395 . S
C463 C464 1.396 . S
C463 C465 1.365 . S
C463 H480 0.929 . S
C464 C461 1.394 . S
C464 C463 1.396 . S
C464 H481 0.930 . S
C465 C462 1.383 . S
C465 C463 1.365 . S
C465 H482 0.931 . S
C466 C461 1.370 . S
C466 C462 1.395 . S
C466 H483 0.930 . S
C467 Gd414 2.805 . S
C467 O449 1.263 . S
C467 O450 1.252 . S
C467 C461 1.500 . S
C468 H430 0.930 . S
C468 C444 1.417 . S
C468 C469 1.329 . S
C469 C439 1.437 . S
C469 H440 0.929 . S
C469 C468 1.329 . S
H470 C443 0.931 . S
C471 O453 1.265 . S
C471 O454 1.242 . S
C472 O457 1.261 . S
C472 O458 1.252 . S
C473 C476 1.394 . S
C473 C478 1.370 . S
C473 C479 1.500 . S
C474 C477 1.383 . S
C474 C478 1.395 . S
C475 C476 1.396 . S
C475 C477 1.365 . S
C475 H484 0.929 . S
C476 C473 1.394 . S
C476 C475 1.396 . S
C476 H485 0.930 . S
C477 C474 1.383 . S
C477 C475 1.365 . S
C477 H486 0.931 . S
C478 C473 1.370 . S
C478 C474 1.395 . S
C478 H487 0.930 . S
C479 Gd415 2.805 . S
C479 O455 1.263 . S
C479 O456 1.252 . S
C479 C473 1.500 . S
H480 C463 0.929 . S
H481 C464 0.930 . S
H482 C465 0.931 . S
H483 C466 0.930 . S
H484 C475 0.929 . S
H485 C476 0.930 . S
H486 C477 0.931 . S
H487 C478 0.930 . S
C488 C490 1.422 . S
C488 C492 1.415 . S
C488 N494 1.369 . S
C489 C490 1.421 . S
C489 C491 1.417 . S
C489 C501 1.422 . S
C490 C488 1.422 . S
C490 C489 1.421 . S
C490 N500 1.359 . S
C491 C489 1.417 . S
C491 C493 1.329 . S
C491 H510 0.930 . S
C492 C488 1.415 . S
C492 C493 1.437 . S
C492 C496 1.413 . S
C493 C491 1.329 . S
C493 C492 1.437 . S
C493 H515 0.929 . S
N494 C488 1.369 . S
N494 C495 1.338 . S
N494 Gd499 2.622 . S
C495 N494 1.338 . S
C495 C497 1.378 . S
C495 H507 0.929 . S
C496 C492 1.413 . S
C496 C497 1.348 . S
C496 H512 0.931 . S
C497 C495 1.378 . S
C497 C496 1.348 . S
C497 H513 0.930 . S
Gd498 N518 2.622 . S
Gd498 N525 2.570 . S
Gd498 O532 2.353 . S
Gd498 O533 2.468 . S
Gd498 O534 2.427 . S
Gd498 O536 2.388 . S
Gd498 O537 2.386 . S
Gd498 O541 2.307 . S
Gd498 C551 2.805 . S
Gd499 N494 2.622 . S
Gd499 N500 2.570 . S
Gd499 O531 2.386 . S
Gd499 O535 2.307 1_655 S
Gd499 O538 2.353 1_655 S
Gd499 O539 2.468 . S
Gd499 O540 2.427 . S
Gd499 O542 2.388 . S
Gd499 C563 2.805 . S
N500 C490 1.359 . S
N500 Gd499 2.570 . S
N500 C502 1.343 . S
C501 C489 1.422 . S
C501 C503 1.321 . S
C501 H509 0.931 . S
C502 N500 1.343 . S
C502 C503 1.390 . S
C502 H504 0.931 . S
C503 C501 1.321 . S
C503 C502 1.390 . S
C503 H505 0.930 . S
H504 C502 0.931 . S
H505 C503 0.930 . S
H506 C529 0.931 . S
H507 C495 0.929 . S
H508 C530 0.930 . S
H509 C501 0.931 . S
H510 C491 0.930 . S
H511 C520 0.929 . S
H512 C496 0.931 . S
H513 C497 0.930 . S
H514 C552 0.930 . S
H515 C493 0.929 . S
H516 C521 0.931 . S
H517 C522 0.930 . S
N518 Gd498 2.622 . S
N518 C519 1.369 . S
N518 C520 1.338 . S
C519 N518 1.369 . S
C519 C523 1.415 . S
C519 C526 1.422 . S
C520 H511 0.929 . S
C520 N518 1.338 . S
C520 C522 1.378 . S
C521 H516 0.931 . S
C521 C522 1.348 . S
C521 C523 1.413 . S
C522 H517 0.930 . S
C522 C520 1.378 . S
C522 C521 1.348 . S
C523 C519 1.415 . S
C523 C521 1.413 . S
C523 C553 1.437 . S
H524 C553 0.929 . S
N525 Gd498 2.570 . S
N525 C526 1.359 . S
N525 C529 1.343 . S
C526 C519 1.422 . S
C526 N525 1.359 . S
C526 C528 1.421 . S
C527 C528 1.422 . S
C527 C530 1.321 . S
C527 H554 0.931 . S
C528 C526 1.421 . S
C528 C527 1.422 . S
C528 C552 1.417 . S
C529 H506 0.931 . S
C529 N525 1.343 . S
C529 C530 1.390 . S
C530 H508 0.930 . S
C530 C527 1.321 . S
C530 C529 1.390 . S
O531 Gd499 2.386 . S
O531 C543 1.265 . S
O532 Gd498 2.353 . S
O532 C543 1.242 1_455 S
O533 Gd498 2.468 . S
O533 C551 1.263 . S
O534 Gd498 2.427 . S
O534 C551 1.252 . S
O535 Gd499 2.307 1_455 S
O535 C544 1.261 . S
O536 Gd498 2.388 . S
O536 C544 1.252 . S
O537 Gd498 2.386 . S
O537 C555 1.265 . S
O538 Gd499 2.353 1_455 S
O538 C555 1.242 . S
O539 Gd499 2.468 . S
O539 C563 1.263 . S
O540 Gd499 2.427 . S
O540 C563 1.252 . S
O541 Gd498 2.307 . S
O541 C556 1.261 1_455 S
O542 Gd499 2.388 . S
O542 C556 1.252 . S
C543 O531 1.265 . S
C543 O532 1.242 1_655 S
C544 O535 1.261 . S
C544 O536 1.252 . S
C545 C548 1.394 . S
C545 C550 1.370 . S
C545 C551 1.500 . S
C546 C549 1.383 . S
C546 C550 1.395 . S
C547 C548 1.396 . S
C547 C549 1.365 . S
C547 H564 0.929 . S
C548 C545 1.394 . S
C548 C547 1.396 . S
C548 H565 0.930 . S
C549 C546 1.383 . S
C549 C547 1.365 . S
C549 H566 0.931 . S
C550 C545 1.370 . S
C550 C546 1.395 . S
C550 H567 0.930 . S
C551 Gd498 2.805 . S
C551 O533 1.263 . S
C551 O534 1.252 . S
C551 C545 1.500 . S
C552 H514 0.930 . S
C552 C528 1.417 . S
C552 C553 1.329 . S
C553 C523 1.437 . S
C553 H524 0.929 . S
C553 C552 1.329 . S
H554 C527 0.931 . S
C555 O537 1.265 . S
C555 O538 1.242 . S
C556 O541 1.261 1_655 S
C556 O542 1.252 . S
C557 C560 1.394 . S
C557 C562 1.370 . S
C557 C563 1.500 . S
C558 C561 1.383 . S
C558 C562 1.395 . S
C559 C560 1.396 . S
C559 C561 1.365 . S
C559 H568 0.929 . S
C560 C557 1.394 . S
C560 C559 1.396 . S
C560 H569 0.930 . S
C561 C558 1.383 . S
C561 C559 1.365 . S
C561 H570 0.931 . S
C562 C557 1.370 . S
C562 C558 1.395 . S
C562 H571 0.930 . S
C563 Gd499 2.805 . S
C563 O539 1.263 . S
C563 O540 1.252 . S
C563 C557 1.500 . S
H564 C547 0.929 . S
H565 C548 0.930 . S
H566 C549 0.931 . S
H567 C550 0.930 . S
H568 C559 0.929 . S
H569 C560 0.930 . S
H570 C561 0.931 . S
H571 C562 0.930 . S
C572 C574 1.422 . S
C572 C576 1.415 . S
C572 N578 1.369 . S
C573 C574 1.421 . S
C573 C575 1.417 . S
C573 C585 1.422 . S
C574 C572 1.422 . S
C574 C573 1.421 . S
C574 N584 1.359 . S
C575 C573 1.417 . S
C575 C577 1.329 . S
C575 H594 0.930 . S
C576 C572 1.415 . S
C576 C577 1.437 . S
C576 C580 1.413 . S
C577 C575 1.329 . S
C577 C576 1.437 . S
C577 H599 0.929 . S
N578 C572 1.369 . S
N578 C579 1.338 . S
N578 Gd583 2.622 . S
C579 N578 1.338 . S
C579 C581 1.378 . S
C579 H591 0.929 . S
C580 C576 1.413 . S
C580 C581 1.348 . S
C580 H596 0.931 . S
C581 C579 1.378 . S
C581 C580 1.348 . S
C581 H597 0.930 . S
Gd582 N602 2.622 . S
Gd582 N609 2.570 . S
Gd582 O616 2.353 . S
Gd582 O617 2.468 . S
Gd582 O618 2.427 . S
Gd582 O620 2.388 . S
Gd582 O621 2.386 . S
Gd582 O625 2.307 . S
Gd582 C635 2.805 . S
Gd583 N578 2.622 . S
Gd583 N584 2.570 . S
Gd583 O615 2.386 . S
Gd583 O619 2.307 . S
Gd583 O622 2.353 . S
Gd583 O623 2.468 . S
Gd583 O624 2.427 . S
Gd583 O626 2.388 . S
Gd583 C647 2.805 . S
N584 C574 1.359 . S
N584 Gd583 2.570 . S
N584 C586 1.343 . S
C585 C573 1.422 . S
C585 C587 1.321 . S
C585 H593 0.931 . S
C586 N584 1.343 . S
C586 C587 1.390 . S
C586 H588 0.931 . S
C587 C585 1.321 . S
C587 C586 1.390 . S
C587 H589 0.930 . S
H588 C586 0.931 . S
H589 C587 0.930 . S
H590 C613 0.931 . S
H591 C579 0.929 . S
H592 C614 0.930 . S
H593 C585 0.931 . S
H594 C575 0.930 . S
H595 C604 0.929 . S
H596 C580 0.931 . S
H597 C581 0.930 . S
H598 C636 0.930 . S
H599 C577 0.929 . S
H600 C605 0.931 . S
H601 C606 0.930 . S
N602 Gd582 2.622 . S
N602 C603 1.369 . S
N602 C604 1.338 . S
C603 N602 1.369 . S
C603 C607 1.415 . S
C603 C610 1.422 . S
C604 H595 0.929 . S
C604 N602 1.338 . S
C604 C606 1.378 . S
C605 H600 0.931 . S
C605 C606 1.348 . S
C605 C607 1.413 . S
C606 H601 0.930 . S
C606 C604 1.378 . S
C606 C605 1.348 . S
C607 C603 1.415 . S
C607 C605 1.413 . S
C607 C637 1.437 . S
H608 C637 0.929 . S
N609 Gd582 2.570 . S
N609 C610 1.359 . S
N609 C613 1.343 . S
C610 C603 1.422 . S
C610 N609 1.359 . S
C610 C612 1.421 . S
C611 C612 1.422 . S
C611 C614 1.321 . S
C611 H638 0.931 . S
C612 C610 1.421 . S
C612 C611 1.422 . S
C612 C636 1.417 . S
C613 H590 0.931 . S
C613 N609 1.343 . S
C613 C614 1.390 . S
C614 H592 0.930 . S
C614 C611 1.321 . S
C614 C613 1.390 . S
O615 Gd583 2.386 . S
O615 C627 1.265 . S
O616 Gd582 2.353 . S
O616 C627 1.242 . S
O617 Gd582 2.468 . S
O617 C635 1.263 . S
O618 Gd582 2.427 . S
O618 C635 1.252 . S
O619 Gd583 2.307 . S
O619 C628 1.261 . S
O620 Gd582 2.388 . S
O620 C628 1.252 . S
O621 Gd582 2.386 . S
O621 C639 1.265 . S
O622 Gd583 2.353 . S
O622 C639 1.242 . S
O623 Gd583 2.468 . S
O623 C647 1.263 . S
O624 Gd583 2.427 . S
O624 C647 1.252 . S
O625 Gd582 2.307 . S
O625 C640 1.261 . S
O626 Gd583 2.388 . S
O626 C640 1.252 . S
C627 O615 1.265 . S
C627 O616 1.242 . S
C628 O619 1.261 . S
C628 O620 1.252 . S
C629 C632 1.394 . S
C629 C634 1.370 . S
C629 C635 1.500 . S
C630 C633 1.383 . S
C630 C634 1.395 . S
C631 C632 1.396 . S
C631 C633 1.365 . S
C631 H648 0.929 . S
C632 C629 1.394 . S
C632 C631 1.396 . S
C632 H649 0.930 . S
C633 C630 1.383 . S
C633 C631 1.365 . S
C633 H650 0.931 . S
C634 C629 1.370 . S
C634 C630 1.395 . S
C634 H651 0.930 . S
C635 Gd582 2.805 . S
C635 O617 1.263 . S
C635 O618 1.252 . S
C635 C629 1.500 . S
C636 H598 0.930 . S
C636 C612 1.417 . S
C636 C637 1.329 . S
C637 C607 1.437 . S
C637 H608 0.929 . S
C637 C636 1.329 . S
H638 C611 0.931 . S
C639 O621 1.265 . S
C639 O622 1.242 . S
C640 O625 1.261 . S
C640 O626 1.252 . S
C641 C644 1.394 . S
C641 C646 1.370 . S
C641 C647 1.500 . S
C642 C645 1.383 . S
C642 C646 1.395 . S
C643 C644 1.396 . S
C643 C645 1.365 . S
C643 H652 0.929 . S
C644 C641 1.394 . S
C644 C643 1.396 . S
C644 H653 0.930 . S
C645 C642 1.383 . S
C645 C643 1.365 . S
C645 H654 0.931 . S
C646 C641 1.370 . S
C646 C642 1.395 . S
C646 H655 0.930 . S
C647 Gd583 2.805 . S
C647 O623 1.263 . S
C647 O624 1.252 . S
C647 C641 1.500 . S
H648 C631 0.929 . S
H649 C632 0.930 . S
H650 C633 0.931 . S
H651 C634 0.930 . S
H652 C643 0.929 . S
H653 C644 0.930 . S
H654 C645 0.931 . S
H655 C646 0.930 . S
C656 C657 1.369 . S
C656 C658 1.419 . S
C656 H660 0.930 . S
C657 C656 1.369 . S
C657 C666 1.429 . S
C658 C656 1.419 . S
C658 C659 1.363 . S
C658 H661 0.929 . S
C659 C658 1.363 . S
C659 C665 1.428 . S
H660 C656 0.930 . S
H661 C658 0.929 . S
S662 N663 1.613 . S
S662 N664 1.610 1_565 S
N663 S662 1.613 . S
N663 C666 1.350 1_565 S
N664 S662 1.610 1_545 S
N664 C665 1.351 . S
C665 C659 1.428 . S
C665 N664 1.351 . S
C665 C666 1.434 . S
C666 C657 1.429 . S
C666 N663 1.350 1_545 S
C666 C665 1.434 . S
C667 C668 1.369 . S
C667 C669 1.419 . S
C667 H671 0.930 . S
C668 C667 1.369 . S
C668 C677 1.429 . S
C669 C667 1.419 . S
C669 C670 1.363 . S
C669 H672 0.929 . S
C670 C669 1.363 . S
C670 C676 1.428 . S
H671 C667 0.930 . S
H672 C669 0.929 . S
S673 N674 1.613 . S
S673 N675 1.610 . S
N674 S673 1.613 . S
N674 C677 1.350 . S
N675 S673 1.610 . S
N675 C676 1.351 . S
C676 C670 1.428 . S
C676 N675 1.351 . S
C676 C677 1.434 . S
C677 C668 1.429 . S
C677 N674 1.350 . S
C677 C676 1.434 . S
C678 C679 1.369 . S
C678 C680 1.419 . S
C678 H682 0.930 . S
C679 C678 1.369 . S
C679 C688 1.429 . S
C680 C678 1.419 . S
C680 C681 1.363 . S
C680 H683 0.929 . S
C681 C680 1.363 . S
C681 C687 1.428 . S
H682 C678 0.930 . S
H683 C680 0.929 . S
S684 N685 1.613 . S
S684 N686 1.610 . S
N685 S684 1.613 . S
N685 C688 1.350 . S
N686 S684 1.610 . S
N686 C687 1.351 . S
C687 C681 1.428 . S
C687 N686 1.351 . S
C687 C688 1.434 . S
C688 C679 1.429 . S
C688 N685 1.350 . S
C688 C687 1.434 . S
C689 C690 1.369 . S
C689 C691 1.419 . S
C689 H693 0.930 . S
C690 C689 1.369 . S
C690 C699 1.429 . S
C691 C689 1.419 . S
C691 C692 1.363 . S
C691 H694 0.929 . S
C692 C691 1.363 . S
C692 C698 1.428 . S
H693 C689 0.930 . S
H694 C691 0.929 . S
S695 N696 1.613 . S
S695 N697 1.610 . S
N696 S695 1.613 . S
N696 C699 1.350 . S
N697 S695 1.610 . S
N697 C698 1.351 . S
C698 C692 1.428 . S
C698 N697 1.351 . S
C698 C699 1.434 . S
C699 C690 1.429 . S
C699 N696 1.350 . S
C699 C698 1.434 . S
C700 C701 1.369 . S
C700 C702 1.419 . S
C700 H704 0.930 . S
C701 C700 1.369 . S
C701 C710 1.429 . S
C702 C700 1.419 . S
C702 C703 1.363 . S
C702 H705 0.929 . S
C703 C702 1.363 . S
C703 C709 1.428 . S
H704 C700 0.930 . S
H705 C702 0.929 . S
S706 N707 1.613 . S
S706 N708 1.610 . S
N707 S706 1.613 . S
N707 C710 1.350 . S
N708 S706 1.610 . S
N708 C709 1.351 . S
C709 C703 1.428 . S
C709 N708 1.351 . S
C709 C710 1.434 . S
C710 C701 1.429 . S
C710 N707 1.350 . S
C710 C709 1.434 . S
C711 C712 1.369 . S
C711 C713 1.419 . S
C711 H715 0.930 . S
C712 C711 1.369 . S
C712 C721 1.429 . S
C713 C711 1.419 . S
C713 C714 1.363 . S
C713 H716 0.929 . S
C714 C713 1.363 . S
C714 C720 1.428 . S
H715 C711 0.930 . S
H716 C713 0.929 . S
S717 N718 1.613 . S
S717 N719 1.610 . S
N718 S717 1.613 . S
N718 C721 1.350 . S
N719 S717 1.610 . S
N719 C720 1.351 . S
C720 C714 1.428 . S
C720 N719 1.351 . S
C720 C721 1.434 . S
C721 C712 1.429 . S
C721 N718 1.350 . S
C721 C720 1.434 . S
C722 C723 1.369 . S
C722 C724 1.419 . S
C722 H726 0.930 . S
C723 C722 1.369 . S
C723 C732 1.429 . S
C724 C722 1.419 . S
C724 C725 1.363 . S
C724 H727 0.929 . S
C725 C724 1.363 . S
C725 C731 1.428 . S
H726 C722 0.930 . S
H727 C724 0.929 . S
S728 N729 1.613 . S
S728 N730 1.610 . S
N729 S728 1.613 . S
N729 C732 1.350 . S
N730 S728 1.610 . S
N730 C731 1.351 . S
C731 C725 1.428 . S
C731 N730 1.351 . S
C731 C732 1.434 . S
C732 C723 1.429 . S
C732 N729 1.350 . S
C732 C731 1.434 . S
C733 C734 1.369 . S
C733 C735 1.419 . S
C733 H737 0.930 . S
C734 C733 1.369 . S
C734 C743 1.429 . S
C735 C733 1.419 . S
C735 C736 1.363 . S
C735 H738 0.929 . S
C736 C735 1.363 . S
C736 C742 1.428 . S
H737 C733 0.930 . S
H738 C735 0.929 . S
S739 N740 1.613 . S
S739 N741 1.610 . S
N740 S739 1.613 . S
N740 C743 1.350 . S
N741 S739 1.610 . S
N741 C742 1.351 . S
C742 C736 1.428 . S
C742 N741 1.351 . S
C742 C743 1.434 . S
C743 C734 1.429 . S
C743 N740 1.350 . S
C743 C742 1.434 . S
C744 C745 1.369 . S
C744 C746 1.419 . S
C744 H748 0.930 . S
C745 C744 1.369 . S
C745 C754 1.429 . S
C746 C744 1.419 . S
C746 C747 1.363 . S
C746 H749 0.929 . S
C747 C746 1.363 . S
C747 C753 1.428 . S
H748 C744 0.930 . S
H749 C746 0.929 . S
S750 N751 1.613 . S
S750 N752 1.610 . S
N751 S750 1.613 . S
N751 C754 1.350 . S
N752 S750 1.610 . S
N752 C753 1.351 . S
C753 C747 1.428 . S
C753 N752 1.351 . S
C753 C754 1.434 . S
C754 C745 1.429 . S
C754 N751 1.350 . S
C754 C753 1.434 . S
C755 C756 1.369 . S
C755 C757 1.419 . S
C755 H759 0.930 . S
C756 C755 1.369 . S
C756 C765 1.429 . S
C757 C755 1.419 . S
C757 C758 1.363 . S
C757 H760 0.929 . S
C758 C757 1.363 . S
C758 C764 1.428 . S
H759 C755 0.930 . S
H760 C757 0.929 . S
S761 N762 1.613 . S
S761 N763 1.610 . S
N762 S761 1.613 . S
N762 C765 1.350 . S
N763 S761 1.610 . S
N763 C764 1.351 . S
C764 C758 1.428 . S
C764 N763 1.351 . S
C764 C765 1.434 . S
C765 C756 1.429 . S
C765 N762 1.350 . S
C765 C764 1.434 . S
C766 C767 1.369 . S
C766 C768 1.419 . S
C766 H770 0.930 . S
C767 C766 1.369 . S
C767 C776 1.429 . S
C768 C766 1.419 . S
C768 C769 1.363 . S
C768 H771 0.929 . S
C769 C768 1.363 . S
C769 C775 1.428 . S
H770 C766 0.930 . S
H771 C768 0.929 . S
S772 N773 1.613 . S
S772 N774 1.610 . S
N773 S772 1.613 . S
N773 C776 1.350 . S
N774 S772 1.610 . S
N774 C775 1.351 . S
C775 C769 1.428 . S
C775 N774 1.351 . S
C775 C776 1.434 . S
C776 C767 1.429 . S
C776 N773 1.350 . S
C776 C775 1.434 . S
C777 C778 1.369 . S
C777 C779 1.419 . S
C777 H781 0.930 . S
C778 C777 1.369 . S
C778 C787 1.429 . S
C779 C777 1.419 . S
C779 C780 1.363 . S
C779 H782 0.929 . S
C780 C779 1.363 . S
C780 C786 1.428 . S
H781 C777 0.930 . S
H782 C779 0.929 . S
S783 N784 1.613 . S
S783 N785 1.610 . S
N784 S783 1.613 . S
N784 C787 1.350 . S
N785 S783 1.610 . S
N785 C786 1.351 . S
C786 C780 1.428 . S
C786 N785 1.351 . S
C786 C787 1.434 . S
C787 C778 1.429 . S
C787 N784 1.350 . S
C787 C786 1.434 . S
C788 C789 1.369 . S
C788 C790 1.419 . S
C788 H792 0.930 . S
C789 C788 1.369 . S
C789 C798 1.429 . S
C790 C788 1.419 . S
C790 C791 1.363 . S
C790 H793 0.929 . S
C791 C790 1.363 . S
C791 C797 1.428 . S
H792 C788 0.930 . S
H793 C790 0.929 . S
S794 N795 1.613 . S
S794 N796 1.610 . S
N795 S794 1.613 . S
N795 C798 1.350 . S
N796 S794 1.610 . S
N796 C797 1.351 . S
C797 C791 1.428 . S
C797 N796 1.351 . S
C797 C798 1.434 . S
C798 C789 1.429 . S
C798 N795 1.350 . S
C798 C797 1.434 . S
C799 C800 1.369 . S
C799 C801 1.419 . S
C799 H803 0.930 . S
C800 C799 1.369 . S
C800 C809 1.429 . S
C801 C799 1.419 . S
C801 C802 1.363 . S
C801 H804 0.929 . S
C802 C801 1.363 . S
C802 C808 1.428 . S
H803 C799 0.930 . S
H804 C801 0.929 . S
S805 N806 1.613 . S
S805 N807 1.610 . S
N806 S805 1.613 . S
N806 C809 1.350 . S
N807 S805 1.610 . S
N807 C808 1.351 . S
C808 C802 1.428 . S
C808 N807 1.351 . S
C808 C809 1.434 . S
C809 C800 1.429 . S
C809 N806 1.350 . S
C809 C808 1.434 . S
C810 C811 1.369 . S
C810 C812 1.419 . S
C810 H814 0.930 . S
C811 C810 1.369 . S
C811 C820 1.429 . S
C812 C810 1.419 . S
C812 C813 1.363 . S
C812 H815 0.929 . S
C813 C812 1.363 . S
C813 C819 1.428 . S
H814 C810 0.930 . S
H815 C812 0.929 . S
S816 N817 1.613 . S
S816 N818 1.610 . S
N817 S816 1.613 . S
N817 C820 1.350 . S
N818 S816 1.610 . S
N818 C819 1.351 . S
C819 C813 1.428 . S
C819 N818 1.351 . S
C819 C820 1.434 . S
C820 C811 1.429 . S
C820 N817 1.350 . S
C820 C819 1.434 . S
C821 C822 1.369 . S
C821 C823 1.419 . S
C821 H825 0.930 . S
C822 C821 1.369 . S
C822 C831 1.429 . S
C823 C821 1.419 . S
C823 C824 1.363 . S
C823 H826 0.929 . S
C824 C823 1.363 . S
C824 C830 1.428 . S
H825 C821 0.930 . S
H826 C823 0.929 . S
S827 N828 1.613 . S
S827 N829 1.610 . S
N828 S827 1.613 . S
N828 C831 1.350 . S
N829 S827 1.610 . S
N829 C830 1.351 . S
C830 C824 1.428 . S
C830 N829 1.351 . S
C830 C831 1.434 . S
C831 C822 1.429 . S
C831 N828 1.350 . S
C831 C830 1.434 . S
C832 C833 1.369 . S
C832 C834 1.419 . S
C832 H836 0.930 . S
C833 C832 1.369 . S
C833 C842 1.429 . S
C834 C832 1.419 . S
C834 C835 1.363 . S
C834 H837 0.929 . S
C835 C834 1.363 . S
C835 C841 1.428 . S
H836 C832 0.930 . S
H837 C834 0.929 . S
S838 N839 1.613 . S
S838 N840 1.610 . S
N839 S838 1.613 . S
N839 C842 1.350 . S
N840 S838 1.610 . S
N840 C841 1.351 . S
C841 C835 1.428 . S
C841 N840 1.351 . S
C841 C842 1.434 . S
C842 C833 1.429 . S
C842 N839 1.350 . S
C842 C841 1.434 . S
C843 C844 1.369 . S
C843 C845 1.419 . S
C843 H847 0.930 . S
C844 C843 1.369 . S
C844 C853 1.429 . S
C845 C843 1.419 . S
C845 C846 1.363 . S
C845 H848 0.929 . S
C846 C845 1.363 . S
C846 C852 1.428 . S
H847 C843 0.930 . S
H848 C845 0.929 . S
S849 N850 1.613 . S
S849 N851 1.610 . S
N850 S849 1.613 . S
N850 C853 1.350 . S
N851 S849 1.610 . S
N851 C852 1.351 . S
C852 C846 1.428 . S
C852 N851 1.351 . S
C852 C853 1.434 . S
C853 C844 1.429 . S
C853 N850 1.350 . S
C853 C852 1.434 . S
C854 C855 1.369 . S
C854 C856 1.419 . S
C854 H858 0.930 . S
C855 C854 1.369 . S
C855 C864 1.429 . S
C856 C854 1.419 . S
C856 C857 1.363 . S
C856 H859 0.929 . S
C857 C856 1.363 . S
C857 C863 1.428 . S
H858 C854 0.930 . S
H859 C856 0.929 . S
S860 N861 1.613 . S
S860 N862 1.610 . S
N861 S860 1.613 . S
N861 C864 1.350 . S
N862 S860 1.610 . S
N862 C863 1.351 . S
C863 C857 1.428 . S
C863 N862 1.351 . S
C863 C864 1.434 . S
C864 C855 1.429 . S
C864 N861 1.350 . S
C864 C863 1.434 . S
C865 C866 1.369 . S
C865 C867 1.419 . S
C865 H869 0.930 . S
C866 C865 1.369 . S
C866 C875 1.429 . S
C867 C865 1.419 . S
C867 C868 1.363 . S
C867 H870 0.929 . S
C868 C867 1.363 . S
C868 C874 1.428 . S
H869 C865 0.930 . S
H870 C867 0.929 . S
S871 N872 1.613 1_455 S
S871 N873 1.610 . S
N872 S871 1.613 1_655 S
N872 C875 1.350 . S
N873 S871 1.610 . S
N873 C874 1.351 1_455 S
C874 C868 1.428 . S
C874 N873 1.351 1_655 S
C874 C875 1.434 . S
C875 C866 1.429 . S
C875 N872 1.350 . S
C875 C874 1.434 . S
C876 C877 1.369 . S
C876 C878 1.419 . S
C876 H880 0.930 . S
C877 C876 1.369 . S
C877 C886 1.429 . S
C878 C876 1.419 . S
C878 C879 1.363 . S
C878 H881 0.929 . S
C879 C878 1.363 . S
C879 C885 1.428 . S
H880 C876 0.930 . S
H881 C878 0.929 . S
S882 N883 1.613 . S
S882 N884 1.610 . S
N883 S882 1.613 . S
N883 C886 1.350 . S
N884 S882 1.610 . S
N884 C885 1.351 . S
C885 C879 1.428 . S
C885 N884 1.351 . S
C885 C886 1.434 . S
C886 C877 1.429 . S
C886 N883 1.350 . S
C886 C885 1.434 . S
C887 C888 1.369 . S
C887 C889 1.419 . S
C887 H891 0.930 . S
C888 C887 1.369 . S
C888 C897 1.429 . S
C889 C887 1.419 . S
C889 C890 1.363 . S
C889 H892 0.929 . S
C890 C889 1.363 . S
C890 C896 1.428 . S
H891 C887 0.930 . S
H892 C889 0.929 . S
S893 N894 1.613 . S
S893 N895 1.610 . S
N894 S893 1.613 . S
N894 C897 1.350 . S
N895 S893 1.610 . S
N895 C896 1.351 . S
C896 C890 1.428 . S
C896 N895 1.351 . S
C896 C897 1.434 . S
C897 C888 1.429 . S
C897 N894 1.350 . S
C897 C896 1.434 . S
C898 C899 1.369 . S
C898 C900 1.419 . S
C898 H902 0.930 . S
C899 C898 1.369 . S
C899 C908 1.429 . S
C900 C898 1.419 . S
C900 C901 1.363 . S
C900 H903 0.929 . S
C901 C900 1.363 . S
C901 C907 1.428 . S
H902 C898 0.930 . S
H903 C900 0.929 . S
S904 N905 1.613 . S
S904 N906 1.610 . S
N905 S904 1.613 . S
N905 C908 1.350 . S
N906 S904 1.610 . S
N906 C907 1.351 . S
C907 C901 1.428 . S
C907 N906 1.351 . S
C907 C908 1.434 . S
C908 C899 1.429 . S
C908 N905 1.350 . S
C908 C907 1.434 . S
C909 C910 1.369 . S
C909 C911 1.419 . S
C909 H913 0.930 . S
C910 C909 1.369 . S
C910 C919 1.429 . S
C911 C909 1.419 . S
C911 C912 1.363 . S
C911 H914 0.929 . S
C912 C911 1.363 . S
C912 C918 1.428 . S
H913 C909 0.930 . S
H914 C911 0.929 . S
S915 N916 1.613 . S
S915 N917 1.610 . S
N916 S915 1.613 . S
N916 C919 1.350 . S
N917 S915 1.610 . S
N917 C918 1.351 . S
C918 C912 1.428 . S
C918 N917 1.351 . S
C918 C919 1.434 . S
C919 C910 1.429 . S
C919 N916 1.350 . S
C919 C918 1.434 . S
C657 C242 1.463 . S
C659 C376 1.496 . S
C670 C460 1.489 . S
C668 C301 1.505 . S
C681 C459 1.503 . S
C679 C162 1.462 . S
C690 C221 1.506 . S
C692 C375 1.497 . S
C703 C556 1.498 . S
C701 C82 1.504 . S
C714 C640 1.492 . S
C712 C141 1.472 . S
C723 C2 1.508 . S
C725 C639 1.504 . S
C734 C61 1.470 . S
C736 C555 1.495 . S
C747 C378 1.315 . S
C745 C42 1.501 . S
C758 C462 1.327 . S
C756 C21 1.547 . S
C769 C474 1.396 . S
C767 C122 1.512 . S
C780 C390 1.405 . S
C778 C101 1.557 . S
C791 C558 1.323 . S
C789 C202 1.539 . S
C800 C181 1.495 . S
C802 C642 1.323 . S
C813 C630 1.403 . S
C811 C282 1.550 . S
C822 C261 1.516 . S
C824 C546 1.394 . S
C835 C387 1.620 . S
C833 C15 1.604 . S
C846 C471 1.602 . S
C844 C55 1.585 . S
C855 C95 1.588 . S
C857 C472 1.600 . S
C868 C388 1.584 . S
C866 C135 1.575 . S
C879 C543 1.617 . S
C877 C175 1.603 . S
C888 C215 1.593 . S
C890 C627 1.600 . S
C899 C255 1.584 . S
C901 C628 1.602 . S
C910 C295 1.574 . S
C912 C544 1.583 . S
