# Generated by pormake.
# Topology ctn, (3,4)-cn, num edge types: 1
# Building blocks:
#     Node 0, Type 0, BuildingBlock: OLANEW_clean_sbu_2, # of connection points: 3
#     Node 1, Type 0, BuildingBlock: OLANEW_clean_sbu_2, # of connection points: 3
#     Node 2, Type 0, BuildingBlock: OLANEW_clean_sbu_2, # of connection points: 3
#     Node 3, Type 0, BuildingBlock: OLANEW_clean_sbu_2, # of connection points: 3
#     Node 4, Type 0, BuildingBlock: OLANEW_clean_sbu_2, # of connection points: 3
#     Node 5, Type 0, BuildingBlock: OLANEW_clean_sbu_2, # of connection points: 3
#     Node 6, Type 0, BuildingBlock: OLANEW_clean_sbu_2, # of connection points: 3
#     Node 7, Type 0, BuildingBlock: OLANEW_clean_sbu_2, # of connection points: 3
#     Node 8, Type 0, BuildingBlock: OLANEW_clean_sbu_2, # of connection points: 3
#     Node 9, Type 0, BuildingBlock: OLANEW_clean_sbu_2, # of connection points: 3
#     Node 10, Type 0, BuildingBlock: OLANEW_clean_sbu_2, # of connection points: 3
#     Node 11, Type 0, BuildingBlock: OLANEW_clean_sbu_2, # of connection points: 3
#     Node 12, Type 0, BuildingBlock: OLANEW_clean_sbu_2, # of connection points: 3
#     Node 13, Type 0, BuildingBlock: OLANEW_clean_sbu_2, # of connection points: 3
#     Node 14, Type 0, BuildingBlock: OLANEW_clean_sbu_2, # of connection points: 3
#     Node 15, Type 0, BuildingBlock: OLANEW_clean_sbu_2, # of connection points: 3
#     Node 16, Type 1, BuildingBlock: NAHDIM_clean_sbu_0, # of connection points: 4
#     Node 17, Type 1, BuildingBlock: NAHDIM_clean_sbu_0, # of connection points: 4
#     Node 18, Type 1, BuildingBlock: NAHDIM_clean_sbu_0, # of connection points: 4
#     Node 19, Type 1, BuildingBlock: NAHDIM_clean_sbu_0, # of connection points: 4
#     Node 20, Type 1, BuildingBlock: NAHDIM_clean_sbu_0, # of connection points: 4
#     Node 21, Type 1, BuildingBlock: NAHDIM_clean_sbu_0, # of connection points: 4
#     Node 22, Type 1, BuildingBlock: NAHDIM_clean_sbu_0, # of connection points: 4
#     Node 23, Type 1, BuildingBlock: NAHDIM_clean_sbu_0, # of connection points: 4
#     Node 24, Type 1, BuildingBlock: NAHDIM_clean_sbu_0, # of connection points: 4
#     Node 25, Type 1, BuildingBlock: NAHDIM_clean_sbu_0, # of connection points: 4
#     Node 26, Type 1, BuildingBlock: NAHDIM_clean_sbu_0, # of connection points: 4
#     Node 27, Type 1, BuildingBlock: NAHDIM_clean_sbu_0, # of connection points: 4
#     Edge 28, Type (0, 1), BuildingBlock: UVAHIK_clean_linker_0, # of connection points: 2
#     Edge 29, Type (0, 1), BuildingBlock: UVAHIK_clean_linker_0, # of connection points: 2
#     Edge 30, Type (0, 1), BuildingBlock: UVAHIK_clean_linker_0, # of connection points: 2
#     Edge 31, Type (0, 1), BuildingBlock: UVAHIK_clean_linker_0, # of connection points: 2
#     Edge 32, Type (0, 1), BuildingBlock: UVAHIK_clean_linker_0, # of connection points: 2
#     Edge 33, Type (0, 1), BuildingBlock: UVAHIK_clean_linker_0, # of connection points: 2
#     Edge 34, Type (0, 1), BuildingBlock: UVAHIK_clean_linker_0, # of connection points: 2
#     Edge 35, Type (0, 1), BuildingBlock: UVAHIK_clean_linker_0, # of connection points: 2
#     Edge 36, Type (0, 1), BuildingBlock: UVAHIK_clean_linker_0, # of connection points: 2
#     Edge 37, Type (0, 1), BuildingBlock: UVAHIK_clean_linker_0, # of connection points: 2
#     Edge 38, Type (0, 1), BuildingBlock: UVAHIK_clean_linker_0, # of connection points: 2
#     Edge 39, Type (0, 1), BuildingBlock: UVAHIK_clean_linker_0, # of connection points: 2
#     Edge 40, Type (0, 1), BuildingBlock: UVAHIK_clean_linker_0, # of connection points: 2
#     Edge 41, Type (0, 1), BuildingBlock: UVAHIK_clean_linker_0, # of connection points: 2
#     Edge 42, Type (0, 1), BuildingBlock: UVAHIK_clean_linker_0, # of connection points: 2
#     Edge 43, Type (0, 1), BuildingBlock: UVAHIK_clean_linker_0, # of connection points: 2
#     Edge 44, Type (0, 1), BuildingBlock: UVAHIK_clean_linker_0, # of connection points: 2
#     Edge 45, Type (0, 1), BuildingBlock: UVAHIK_clean_linker_0, # of connection points: 2
#     Edge 46, Type (0, 1), BuildingBlock: UVAHIK_clean_linker_0, # of connection points: 2
#     Edge 47, Type (0, 1), BuildingBlock: UVAHIK_clean_linker_0, # of connection points: 2
#     Edge 48, Type (0, 1), BuildingBlock: UVAHIK_clean_linker_0, # of connection points: 2
#     Edge 49, Type (0, 1), BuildingBlock: UVAHIK_clean_linker_0, # of connection points: 2
#     Edge 50, Type (0, 1), BuildingBlock: UVAHIK_clean_linker_0, # of connection points: 2
#     Edge 51, Type (0, 1), BuildingBlock: UVAHIK_clean_linker_0, # of connection points: 2
#     Edge 52, Type (0, 1), BuildingBlock: UVAHIK_clean_linker_0, # of connection points: 2
#     Edge 53, Type (0, 1), BuildingBlock: UVAHIK_clean_linker_0, # of connection points: 2
#     Edge 54, Type (0, 1), BuildingBlock: UVAHIK_clean_linker_0, # of connection points: 2
#     Edge 55, Type (0, 1), BuildingBlock: UVAHIK_clean_linker_0, # of connection points: 2
#     Edge 56, Type (0, 1), BuildingBlock: UVAHIK_clean_linker_0, # of connection points: 2
#     Edge 57, Type (0, 1), BuildingBlock: UVAHIK_clean_linker_0, # of connection points: 2
#     Edge 58, Type (0, 1), BuildingBlock: UVAHIK_clean_linker_0, # of connection points: 2
#     Edge 59, Type (0, 1), BuildingBlock: UVAHIK_clean_linker_0, # of connection points: 2
#     Edge 60, Type (0, 1), BuildingBlock: UVAHIK_clean_linker_0, # of connection points: 2
#     Edge 61, Type (0, 1), BuildingBlock: UVAHIK_clean_linker_0, # of connection points: 2
#     Edge 62, Type (0, 1), BuildingBlock: UVAHIK_clean_linker_0, # of connection points: 2
#     Edge 63, Type (0, 1), BuildingBlock: UVAHIK_clean_linker_0, # of connection points: 2
#     Edge 64, Type (0, 1), BuildingBlock: UVAHIK_clean_linker_0, # of connection points: 2
#     Edge 65, Type (0, 1), BuildingBlock: UVAHIK_clean_linker_0, # of connection points: 2
#     Edge 66, Type (0, 1), BuildingBlock: UVAHIK_clean_linker_0, # of connection points: 2
#     Edge 67, Type (0, 1), BuildingBlock: UVAHIK_clean_linker_0, # of connection points: 2
#     Edge 68, Type (0, 1), BuildingBlock: UVAHIK_clean_linker_0, # of connection points: 2
#     Edge 69, Type (0, 1), BuildingBlock: UVAHIK_clean_linker_0, # of connection points: 2
#     Edge 70, Type (0, 1), BuildingBlock: UVAHIK_clean_linker_0, # of connection points: 2
#     Edge 71, Type (0, 1), BuildingBlock: UVAHIK_clean_linker_0, # of connection points: 2
#     Edge 72, Type (0, 1), BuildingBlock: UVAHIK_clean_linker_0, # of connection points: 2
#     Edge 73, Type (0, 1), BuildingBlock: UVAHIK_clean_linker_0, # of connection points: 2
#     Edge 74, Type (0, 1), BuildingBlock: UVAHIK_clean_linker_0, # of connection points: 2
#     Edge 75, Type (0, 1), BuildingBlock: UVAHIK_clean_linker_0, # of connection points: 2
# Relax obj value: 0.048
# Max RMSD: 0.166
# Mean RMSD: 0.097
data_MOF--net-ctn--node1-OLANEW_clean_sbu_2--node2-NAHDIM_clean_sbu_0--edge1-UVAHIK_clean_linker_0
_symmetry_space_group_name_H-M    P1
_symmetry_Int_Tables_number       1
_symmetry_cell_setting            triclinic
loop_
_symmetry_equiv_pos_as_xyz
'x, y, z'
_cell_length_a     73.857992
_cell_length_b     76.107104
_cell_length_c     71.575581
_cell_angle_alpha  92.160063
_cell_angle_beta   94.048313
_cell_angle_gamma 97.318358
loop_
_atom_site_label
_atom_site_type_symbol
_atom_site_fract_x
_atom_site_fract_y
_atom_site_fract_z
_atom_type_partial_charge
O0 O 0.01422 0.03312 0.97668 0.0
Cd1 Cd 0.01359 0.00131 0.98071 0.0
O2 O 0.00643 0.03608 0.00543 0.0
Cd3 Cd 0.99671 0.04863 0.03017 0.0
O4 O 0.98404 0.05181 0.05658 0.0
C5 C 0.96986 0.04105 0.05903 0.0
O6 O 0.96349 0.0292 0.04555 0.0
C7 C 0.01021 0.04303 0.99006 0.0
C8 C 0.04827 0.99053 0.98497 0.0
O9 O 0.04011 0.9913 0.96867 0.0
O10 O 0.04009 0.99504 0.99927 0.0
O11 O 0.30397 0.77278 0.27249 0.0
Cd12 Cd 0.27332 0.7732 0.25733 0.0
O13 O 0.29432 0.7451 0.27709 0.0
Cd14 Cd 0.29335 0.71872 0.28834 0.0
O15 O 0.28213 0.69193 0.2948 0.0
C16 C 0.27502 0.68913 0.31025 0.0
O17 O 0.27549 0.70242 0.32262 0.0
C18 C 0.30701 0.75813 0.27922 0.0
C19 C 0.27256 0.78898 0.22285 0.0
O20 O 0.27186 0.79812 0.23814 0.0
O21 O 0.27393 0.77242 0.22392 0.0
O22 O 0.97723 0.47625 0.11188 0.0
Cd23 Cd 0.95918 0.46831 0.08221 0.0
O24 O 0.00113 0.48853 0.09824 0.0
Cd25 Cd 0.99078 0.47686 0.07065 0.0
O26 O 0.99248 0.45578 0.04957 0.0
C27 C 0.98147 0.44146 0.04884 0.0
O28 O 0.96804 0.43997 0.06 0.0
C29 C 0.99317 0.48499 0.11308 0.0
C30 C 0.93713 0.49439 0.07338 0.0
O31 O 0.93139 0.48126 0.08306 0.0
O32 O 0.95328 0.49509 0.06772 0.0
O33 O 0.69264 0.84243 0.17605 0.0
Cd34 Cd 0.67054 0.81807 0.16217 0.0
O35 O 0.68441 0.83445 0.20349 0.0
Cd36 Cd 0.68326 0.83287 0.23385 0.0
O37 O 0.67166 0.82533 0.26006 0.0
C38 C 0.66495 0.83655 0.27021 0.0
O39 O 0.66601 0.85308 0.26525 0.0
C40 C 0.69445 0.84481 0.19378 0.0
C41 C 0.68813 0.7937 0.1426 0.0
O42 O 0.68181 0.80654 0.13432 0.0
O43 O 0.68601 0.79233 0.16013 0.0
O44 O 0.07203 0.98318 0.47864 0.0
Cd45 Cd 0.04352 0.96444 0.46789 0.0
O46 O 0.05839 0.00151 0.49563 0.0
Cd47 Cd 0.03133 0.99047 0.48326 0.0
O48 O 0.0079 0.98645 0.46252 0.0
C49 C 0.01141 0.98575 0.4454 0.0
O50 O 0.02858 0.98686 0.44133 0.0
C51 C 0.073 0.99645 0.49019 0.0
C52 C 0.03349 0.93976 0.49438 0.0
O53 O 0.04344 0.93599 0.4812 0.0
O54 O 0.02819 0.95514 0.49493 0.0
O55 O 0.27292 0.76251 0.81704 0.0
Cd56 Cd 0.27389 0.74549 0.78761 0.0
O57 O 0.24322 0.75928 0.81115 0.0
Cd58 Cd 0.21501 0.76443 0.81357 0.0
O59 O 0.18655 0.76735 0.80541 0.0
C60 C 0.18307 0.78124 0.7973 0.0
O61 O 0.19661 0.79375 0.795 0.0
C62 C 0.25731 0.76563 0.82168 0.0
C63 C 0.28643 0.71278 0.79186 0.0
O64 O 0.2694 0.71434 0.79245 0.0
O65 O 0.29754 0.72676 0.78954 0.0
O66 O 0.99189 0.53718 0.48972 0.0
Cd67 Cd 0.97407 0.55135 0.51198 0.0
O68 O 0.01044 0.5283 0.51178 0.0
Cd69 Cd 3e-05 0.54419 0.53365 0.0
O70 O 0.9992 0.56821 0.55107 0.0
C71 C 0.98457 0.57412 0.5552 0.0
O72 O 0.96867 0.5651 0.5494 0.0
C73 C 0.0051 0.52868 0.49453 0.0
C74 C 0.94329 0.52838 0.51979 0.0
O75 O 0.94247 0.53929 0.50664 0.0
O76 O 0.95865 0.52842 0.52933 0.0
O77 O 0.79215 0.78035 0.8448 0.0
Cd78 Cd 0.79256 0.80677 0.82645 0.0
O79 O 0.76591 0.76745 0.83126 0.0
Cd80 Cd 0.76053 0.79123 0.8168 0.0
O81 O 0.75009 0.81585 0.80931 0.0
C82 C 0.75526 0.82988 0.8195 0.0
O83 O 0.76716 0.82928 0.83393 0.0
C84 C 0.77983 0.767 0.84267 0.0
C85 C 0.81716 0.80552 0.79883 0.0
O86 O 0.82234 0.81257 0.8152 0.0
O87 O 0.80024 0.79929 0.79544 0.0
O88 O 0.29121 0.27072 0.34196 0.0
Cd89 Cd 0.29064 0.29692 0.32335 0.0
O90 O 0.26684 0.25568 0.32674 0.0
Cd91 Cd 0.26022 0.27894 0.31208 0.0
O92 O 0.24917 0.30365 0.30637 0.0
C93 C 0.25202 0.31603 0.31906 0.0
O94 O 0.26173 0.31356 0.33461 0.0
C95 C 0.28018 0.25645 0.33912 0.0
C96 C 0.31756 0.29786 0.29793 0.0
O97 O 0.32104 0.30518 0.31444 0.0
O98 O 0.30124 0.29033 0.29336 0.0
O99 O 0.46467 0.95674 0.60087 0.0
Cd100 Cd 0.44518 0.94766 0.57227 0.0
O101 O 0.48468 0.97404 0.58626 0.0
Cd102 Cd 0.47406 0.9614 0.55925 0.0
O103 O 0.47531 0.93795 0.54121 0.0
C104 C 0.4894 0.93033 0.54493 0.0
O105 O 0.50152 0.93735 0.55835 0.0
C106 C 0.47884 0.96822 0.60145 0.0
C107 C 0.42357 0.97423 0.56388 0.0
O108 O 0.41807 0.96162 0.57432 0.0
O109 O 0.43916 0.97409 0.55711 0.0
O110 O 0.19741 0.33919 0.67808 0.0
Cd111 Cd 0.17514 0.31483 0.66448 0.0
O112 O 0.18935 0.33142 0.70567 0.0
Cd113 Cd 0.1888 0.33056 0.73614 0.0
O114 O 0.17795 0.32568 0.76331 0.0
C115 C 0.16892 0.33699 0.77054 0.0
O116 O 0.16731 0.35172 0.76191 0.0
C117 C 0.1993 0.3417 0.6958 0.0
C118 C 0.19241 0.29031 0.64479 0.0
O119 O 0.18614 0.30318 0.63655 0.0
O120 O 0.1904 0.28898 0.66234 0.0
O121 O 0.8133 0.24892 0.77823 0.0
Cd122 Cd 0.78229 0.24198 0.76314 0.0
O123 O 0.82434 0.22712 0.76365 0.0
Cd124 Cd 0.79756 0.21614 0.75063 0.0
O125 O 0.77239 0.19761 0.74874 0.0
C126 C 0.76403 0.19581 0.76361 0.0
O127 O 0.77039 0.20578 0.77862 0.0
C128 C 0.82671 0.24054 0.7751 0.0
C129 C 0.77717 0.26037 0.73061 0.0
O130 O 0.77506 0.26736 0.74676 0.0
O131 O 0.78177 0.24469 0.72984 0.0
O132 O 0.52529 0.52953 0.48335 0.0
Cd133 Cd 0.52339 0.49772 0.48806 0.0
O134 O 0.51165 0.53229 0.50922 0.0
Cd135 Cd 0.49988 0.54493 0.53265 0.0
O136 O 0.48658 0.54868 0.55857 0.0
C137 C 0.47261 0.53774 0.56123 0.0
O138 O 0.46671 0.52532 0.54818 0.0
C139 C 0.51853 0.53934 0.49505 0.0
C140 C 0.55731 0.48593 0.49527 0.0
O141 O 0.55046 0.4869 0.47843 0.0
O142 O 0.54819 0.49075 0.50873 0.0
O143 O 0.57647 0.48323 0.97923 0.0
Cd144 Cd 0.54857 0.46377 0.96807 0.0
O145 O 0.56257 0.49983 0.99794 0.0
Cd146 Cd 0.53563 0.48819 0.98573 0.0
O147 O 0.51228 0.48422 0.96489 0.0
C148 C 0.51594 0.48514 0.94784 0.0
O149 O 0.53317 0.48781 0.94395 0.0
C150 C 0.57724 0.4958 0.99161 0.0
C151 C 0.54082 0.43682 0.99279 0.0
O152 O 0.55097 0.43482 0.97926 0.0
O153 O 0.53422 0.45152 0.99453 0.0
O154 O 0.78434 0.26693 0.32965 0.0
Cd155 Cd 0.78914 0.25568 0.29823 0.0
O156 O 0.75614 0.26863 0.31925 0.0
Cd157 Cd 0.72736 0.27298 0.31859 0.0
O158 O 0.69954 0.27602 0.30786 0.0
C159 C 0.6969 0.27643 0.29015 0.0
O160 O 0.71076 0.27515 0.27986 0.0
C161 C 0.76861 0.271 0.33265 0.0
C162 C 0.79726 0.22091 0.29749 0.0
O163 O 0.81001 0.23408 0.29972 0.0
O164 O 0.78065 0.2242 0.29575 0.0
O165 O 0.49853 0.04232 0.98382 0.0
Cd166 Cd 0.48074 0.05396 0.00788 0.0
O167 O 0.52341 0.04328 0.00284 0.0
Cd168 Cd 0.51139 0.05604 0.02586 0.0
O169 O 0.504 0.07566 0.04597 0.0
C170 C 0.49701 0.08891 0.03976 0.0
O171 O 0.49388 0.08994 0.02156 0.0
C172 C 0.51509 0.0395 0.98674 0.0
C173 C 0.44853 0.03158 0.01213 0.0
O174 O 0.4488 0.0442 0.00074 0.0
O175 O 0.4635 0.02958 0.02152 0.0
C176 C 0.21732 0.91475 0.00239 0.0
O177 O 0.22624 0.91236 0.98745 0.0
O178 O 0.2448 0.87976 0.99688 0.0
Zn179 Zn 0.24566 0.89675 0.01953 0.0
O180 O 0.2681 0.91501 0.02017 0.0
C181 C 0.25035 0.86781 0.04413 0.0
O182 O 0.25365 0.85943 0.02861 0.0
O183 O 0.22315 0.90918 0.01793 0.0
C184 C 0.28337 0.9117 0.0276 0.0
O185 O 0.28431 0.89634 0.03515 0.0
C186 C 0.25619 0.88232 0.98442 0.0
O187 O 0.26875 0.89625 0.9863 0.0
O188 O 0.24643 0.88358 0.04347 0.0
C189 C 0.16085 0.47188 0.32097 0.0
O190 O 0.16847 0.48587 0.33131 0.0
O191 O 0.11651 0.494 0.33501 0.0
Zn192 Zn 0.13293 0.49436 0.31368 0.0
O193 O 0.15198 0.5158 0.31714 0.0
C194 C 0.10098 0.48938 0.28771 0.0
O195 O 0.09385 0.48081 0.3016 0.0
O196 O 0.14534 0.47229 0.3122 0.0
C197 C 0.1474 0.53119 0.3152 0.0
O198 O 0.13009 0.53284 0.3111 0.0
C199 C 0.12014 0.48784 0.3509 0.0
O200 O 0.13553 0.48114 0.3541 0.0
O201 O 0.11768 0.49616 0.28957 0.0
C202 C 0.81593 0.62259 0.02696 0.0
O203 O 0.81989 0.63493 0.01501 0.0
O204 O 0.78502 0.64303 0.99718 0.0
Zn205 Zn 0.77926 0.63262 0.02196 0.0
O206 O 0.75624 0.61509 0.01865 0.0
C207 C 0.76555 0.66412 0.03312 0.0
O208 O 0.7597 0.66262 0.0153 0.0
O209 O 0.79974 0.61976 0.03211 0.0
C210 C 0.74487 0.6136 0.03122 0.0
O211 O 0.74822 0.62367 0.0467 0.0
C212 C 0.77603 0.6377 0.98177 0.0
O213 O 0.76297 0.62423 0.98158 0.0
O214 O 0.77496 0.6526 0.03976 0.0
C215 C 0.83819 0.04213 0.27101 0.0
O216 O 0.82501 0.02871 0.26953 0.0
O217 O 0.87905 0.00859 0.28126 0.0
Zn218 Zn 0.86138 0.01544 0.261 0.0
O219 O 0.83901 0.99712 0.25715 0.0
C220 C 0.88743 0.02894 0.23542 0.0
O221 O 0.89361 0.03951 0.25005 0.0
O222 O 0.85442 0.03943 0.26811 0.0
C223 C 0.83938 0.981 0.26105 0.0
O224 O 0.85475 0.97604 0.26804 0.0
C225 C 0.8747 0.00767 0.29809 0.0
O226 O 0.85836 0.01104 0.3021 0.0
O227 O 0.87369 0.01731 0.23682 0.0
C228 C 0.31378 0.11389 0.52579 0.0
O229 O 0.31818 0.12523 0.51295 0.0
O230 O 0.28511 0.13797 0.49775 0.0
Zn231 Zn 0.27871 0.12751 0.5223 0.0
O232 O 0.25488 0.11119 0.51846 0.0
C233 C 0.26674 0.15965 0.534 0.0
O234 O 0.261 0.1586 0.51615 0.0
O235 O 0.29805 0.11311 0.5321 0.0
C236 C 0.24321 0.11023 0.53073 0.0
O237 O 0.24668 0.12018 0.54629 0.0
C238 C 0.27797 0.13132 0.48197 0.0
O239 O 0.26653 0.11657 0.48135 0.0
O240 O 0.27547 0.14757 0.54049 0.0
C241 C 0.34207 0.53897 0.77669 0.0
O242 O 0.33045 0.52482 0.77913 0.0
O243 O 0.38275 0.50692 0.78406 0.0
Zn244 Zn 0.36499 0.51334 0.76364 0.0
O245 O 0.34287 0.49476 0.75967 0.0
C246 C 0.39062 0.52735 0.73782 0.0
O247 O 0.39637 0.5384 0.75218 0.0
O248 O 0.35742 0.53712 0.7704 0.0
C249 C 0.34341 0.47865 0.76346 0.0
O250 O 0.35884 0.47383 0.7705 0.0
C251 C 0.3782 0.50512 0.80074 0.0
O252 O 0.36147 0.50727 0.80461 0.0
O253 O 0.37735 0.51527 0.73951 0.0
C254 C 0.72177 0.40398 0.52276 0.0
O255 O 0.73183 0.40257 0.50849 0.0
O256 O 0.7475 0.36872 0.5156 0.0
Zn257 Zn 0.74883 0.3847 0.5389 0.0
O258 O 0.77097 0.40309 0.53836 0.0
C259 C 0.74652 0.35409 0.5623 0.0
O260 O 0.74045 0.3453 0.54648 0.0
O261 O 0.72634 0.39717 0.53805 0.0
C262 C 0.78609 0.402 0.54763 0.0
O263 O 0.78747 0.3885 0.55832 0.0
C264 C 0.76039 0.35987 0.51192 0.0
O265 O 0.77482 0.3607 0.52392 0.0
O266 O 0.7506 0.37084 0.56239 0.0
C267 C 0.66109 0.98343 0.80283 0.0
O268 O 0.66842 0.99903 0.81014 0.0
O269 O 0.61538 0.00331 0.81645 0.0
Zn270 Zn 0.6302 0.00219 0.79403 0.0
O271 O 0.64678 0.02508 0.7926 0.0
C272 C 0.59718 0.9905 0.77058 0.0
O273 O 0.59209 0.98268 0.78577 0.0
O274 O 0.64485 0.98162 0.79521 0.0
C275 C 0.63971 0.03913 0.78935 0.0
O276 O 0.62179 0.03834 0.78758 0.0
C277 C 0.62257 0.00566 0.83316 0.0
O278 O 0.64047 0.0074 0.83614 0.0
O279 O 0.61303 0.99928 0.77081 0.0
C280 C 0.00695 0.22463 0.94356 0.0
O281 O 0.99188 0.23215 0.94348 0.0
O282 O 0.99638 0.25352 0.9066 0.0
Zn283 Zn 0.0185 0.25622 0.92532 0.0
O284 O 0.01504 0.27444 0.94551 0.0
C285 C 0.04099 0.27983 0.90435 0.0
O286 O 0.02747 0.28913 0.90684 0.0
O287 O 0.02085 0.23265 0.93654 0.0
C288 C 0.02789 0.28579 0.95292 0.0
O289 O 0.04471 0.2851 0.94836 0.0
C290 C 0.98551 0.26521 0.90581 0.0
O291 O 0.98857 0.27908 0.91761 0.0
O292 O 0.04055 0.2647 0.91138 0.0
C293 C 0.50074 0.71487 0.43482 0.0
O294 O 0.48721 0.72312 0.44003 0.0
O295 O 0.48398 0.74201 0.39426 0.0
Zn296 Zn 0.5068 0.74511 0.412 0.0
O297 O 0.50293 0.76267 0.43257 0.0
C298 C 0.53322 0.77144 0.39736 0.0
O299 O 0.52383 0.78239 0.40598 0.0
O300 O 0.51104 0.7218 0.42284 0.0
C301 C 0.51494 0.76862 0.44561 0.0
O302 O 0.53083 0.76252 0.44661 0.0
C303 C 0.47686 0.75594 0.39045 0.0
O304 O 0.48481 0.77129 0.39786 0.0
O305 O 0.52854 0.75481 0.39805 0.0
C306 C 0.98981 0.8157 0.63692 0.0
O307 O 0.98323 0.82094 0.65247 0.0
O308 O 0.96599 0.78709 0.66818 0.0
Zn309 Zn 0.98847 0.78255 0.65532 0.0
O310 O 0.98524 0.75764 0.6439 0.0
C311 C 0.01273 0.77425 0.68617 0.0
O312 O 0.00074 0.75993 0.68612 0.0
O313 O 0.99301 0.79975 0.63495 0.0
C314 C 0.99914 0.75097 0.63882 0.0
O315 O 0.01529 0.76058 0.64099 0.0
C316 C 0.95633 0.77465 0.6757 0.0
O317 O 0.96094 0.75855 0.67468 0.0
O318 O 0.01028 0.78587 0.67428 0.0
C319 C 0.51009 0.30258 0.12795 0.0
O320 O 0.51883 0.28859 0.12749 0.0
O321 O 0.47476 0.28946 0.17483 0.0
Zn322 Zn 0.49626 0.28566 0.15991 0.0
O323 O 0.4918 0.2616 0.14626 0.0
C324 C 0.52097 0.28836 0.19431 0.0
O325 O 0.50609 0.28905 0.2032 0.0
O326 O 0.49935 0.30434 0.14082 0.0
C327 C 0.49786 0.24822 0.15335 0.0
O328 O 0.50682 0.25009 0.16998 0.0
C329 C 0.46644 0.27691 0.18343 0.0
O330 O 0.47213 0.26126 0.18275 0.0
O331 O 0.51977 0.28723 0.17648 0.0
C332 C 0.27036 0.79065 0.84408 0.0
C333 C 0.25592 0.77727 0.83836 0.0
C334 C 0.26921 0.80188 0.8597 0.0
C335 C 0.24691 0.80513 0.9036 0.0
H336 H 0.26181 0.85559 0.90034 0.0
C337 C 0.24075 0.85605 0.96446 0.0
C338 C 0.25524 0.86994 0.96782 0.0
C339 C 0.23984 0.84461 0.94855 0.0
C340 C 0.2578 0.84151 0.90157 0.0
H341 H 0.22936 0.76457 0.84507 0.0
H342 H 0.22727 0.78436 0.87236 0.0
H343 H 0.26208 0.83581 0.87284 0.0
H344 H 0.2803 0.8825 0.95729 0.0
H345 H 0.27892 0.86242 0.92988 0.0
H346 H 0.24298 0.81078 0.93246 0.0
C347 C 0.23938 0.78625 0.86459 0.0
C348 C 0.2579 0.8302 0.88579 0.0
C349 C 0.24046 0.77509 0.84882 0.0
C350 C 0.26887 0.87203 0.95506 0.0
C351 C 0.26801 0.86057 0.93924 0.0
C352 C 0.24692 0.81645 0.91947 0.0
C353 C 0.2537 0.79984 0.8701 0.0
C354 C 0.25265 0.81187 0.88667 0.0
C355 C 0.25344 0.84678 0.93571 0.0
C356 C 0.25256 0.83477 0.91869 0.0
H357 H 0.28249 0.79258 0.83634 0.0
H358 H 0.28059 0.81206 0.86378 0.0
H359 H 0.24294 0.79104 0.90473 0.0
H360 H 0.23 0.85412 0.974 0.0
H361 H 0.22833 0.83425 0.94616 0.0
C362 C 0.01029 0.52206 0.4609 0.0
C363 C 0.01499 0.52026 0.48005 0.0
C364 C 0.0207 0.5156 0.44726 0.0
C365 C 0.06722 0.50499 0.44147 0.0
H366 H 0.04588 0.48511 0.39299 0.0
C367 C 0.11169 0.48315 0.38385 0.0
C368 C 0.1073 0.48872 0.36578 0.0
C369 C 0.09984 0.48467 0.39805 0.0
C370 C 0.05204 0.49072 0.40644 0.0
H371 H 0.03384 0.50952 0.49982 0.0
H372 H 0.05186 0.49806 0.476 0.0
H373 H 0.02593 0.49156 0.41745 0.0
H374 H 0.08679 0.49986 0.34833 0.0
H375 H 0.06624 0.50263 0.3731 0.0
H376 H 0.0933 0.50443 0.43038 0.0
C377 C 0.04031 0.50477 0.47156 0.0
C378 C 0.04062 0.49441 0.42045 0.0
C379 C 0.02992 0.51125 0.4852 0.0
C380 C 0.09062 0.49548 0.36211 0.0
C381 C 0.07876 0.49694 0.37627 0.0
C382 C 0.07863 0.50126 0.42748 0.0
C383 C 0.03603 0.50716 0.45245 0.0
C384 C 0.04808 0.50182 0.43804 0.0
C385 C 0.0833 0.49171 0.39445 0.0
C386 C 0.07117 0.49432 0.40972 0.0
H387 H 0.99888 0.52893 0.45642 0.0
H388 H 0.01713 0.51784 0.43269 0.0
H389 H 0.07343 0.51095 0.45475 0.0
H390 H 0.1244 0.47782 0.38712 0.0
H391 H 0.10362 0.48034 0.41186 0.0
C392 C 0.79526 0.75165 0.86848 0.0
C393 C 0.7813 0.75129 0.85401 0.0
C394 C 0.7959 0.73733 0.88006 0.0
C395 C 0.76583 0.69966 0.89672 0.0
H396 H 0.8116 0.68579 0.91735 0.0
C397 C 0.76715 0.64364 0.94839 0.0
C398 C 0.77886 0.64782 0.96473 0.0
C399 C 0.76857 0.65435 0.93299 0.0
C400 C 0.79872 0.68955 0.91172 0.0
H401 H 0.75752 0.73526 0.83986 0.0
H402 H 0.75884 0.71017 0.85985 0.0
H403 H 0.81197 0.70801 0.89359 0.0
H404 H 0.80181 0.66608 0.97737 0.0
H405 H 0.80423 0.68476 0.95052 0.0
H406 H 0.7526 0.6814 0.915 0.0
C407 C 0.76906 0.72168 0.86251 0.0
C408 C 0.79892 0.7023 0.89815 0.0
C409 C 0.76836 0.73604 0.85099 0.0
C410 C 0.79254 0.6625 0.96502 0.0
C411 C 0.794 0.67316 0.94958 0.0
C412 C 0.76563 0.68687 0.91021 0.0
C413 C 0.78266 0.72227 0.87738 0.0
C414 C 0.78249 0.7077 0.89068 0.0
C415 C 0.78179 0.66941 0.93355 0.0
C416 C 0.78207 0.68185 0.91806 0.0
H417 H 0.80544 0.76319 0.87122 0.0
H418 H 0.80643 0.73835 0.89152 0.0
H419 H 0.75294 0.70369 0.89153 0.0
H420 H 0.75652 0.63238 0.94766 0.0
H421 H 0.75913 0.65099 0.92073 0.0
C422 C 0.97847 0.98631 0.43435 0.0
C423 C 0.99661 0.98509 0.43022 0.0
C424 C 0.96484 0.98707 0.41991 0.0
C425 C 0.95949 0.99943 0.37073 0.0
H426 H 0.90986 0.976 0.37233 0.0
C427 C 0.90564 -3e-05 0.30872 0.0
C428 C 0.88808 0.0033 0.31303 0.0
C429 C 0.91852 0.99651 0.32288 0.0
C430 C 0.92363 0.98274 0.37178 0.0
H431 H 0.01451 0.98296 0.40769 0.0
H432 H 0.99074 0.98404 0.38258 0.0
H433 H 0.93301 0.97188 0.39734 0.0
H434 H 0.87018 0.00527 0.33558 0.0
H435 H 0.89276 0.99938 0.36032 0.0
H436 H 0.95017 0.01039 0.3453 0.0
C437 C 0.9871 0.98478 0.39696 0.0
C438 C 0.93688 0.98038 0.38609 0.0
C439 C 0.00071 0.98406 0.41137 0.0
C440 C 0.88359 0.00277 0.33178 0.0
C441 C 0.89649 0.99928 0.34595 0.0
C442 C 0.94628 0.00177 0.35645 0.0
C443 C 0.96907 0.9866 0.40106 0.0
C444 C 0.95497 0.98871 0.38573 0.0
C445 C 0.91416 0.99629 0.34168 0.0
C446 C 0.92819 0.99347 0.3568 0.0
H447 H 0.97487 0.98714 0.44873 0.0
H448 H 0.95113 0.98861 0.42355 0.0
H449 H 0.97319 0.00633 0.37021 0.0
H450 H 0.90952 0.00018 0.29441 0.0
H451 H 0.93193 0.99398 0.31909 0.0
C452 C 0.20974 0.26407 0.64371 0.0
C453 C 0.20173 0.27739 0.63434 0.0
C454 C 0.21853 0.25188 0.63381 0.0
C455 C 0.23899 0.24474 0.5887 0.0
H456 H 0.23128 0.19518 0.60062 0.0
C457 C 0.25408 0.18827 0.5387 0.0
C458 C 0.26204 0.1741 0.54642 0.0
C459 C 0.24859 0.20145 0.5503 0.0
C460 C 0.23378 0.20901 0.5973 0.0
H461 H 0.19663 0.28833 0.6072 0.0
H462 H 0.21163 0.26689 0.58989 0.0
H463 H 0.21785 0.217 0.61917 0.0
H464 H 0.27081 0.16282 0.5724 0.0
H465 H 0.26113 0.1859 0.59271 0.0
H466 H 0.25457 0.23663 0.56655 0.0
C467 C 0.21144 0.26605 0.60495 0.0
C468 C 0.22609 0.22153 0.60794 0.0
C469 C 0.20272 0.27827 0.61486 0.0
C470 C 0.26471 0.17357 0.56602 0.0
C471 C 0.25908 0.18672 0.57765 0.0
C472 C 0.2466 0.23221 0.57803 0.0
C473 C 0.21945 0.2527 0.61429 0.0
C474 C 0.22843 0.23952 0.60363 0.0
C475 C 0.25084 0.20072 0.5699 0.0
C476 C 0.24391 0.21419 0.58208 0.0
H477 H 0.20929 0.26309 0.65873 0.0
H478 H 0.22475 0.2419 0.64147 0.0
H479 H 0.24137 0.25853 0.58524 0.0
H480 H 0.25184 0.18909 0.52366 0.0
H481 H 0.2421 0.21195 0.5439 0.0
C482 C 0.44833 0.52599 0.58187 0.0
C483 C 0.46364 0.53832 0.57907 0.0
C484 C 0.44026 0.52595 0.59894 0.0
C485 C 0.4502 0.53975 0.64888 0.0
H486 H 0.39742 0.53091 0.65006 0.0
C487 C 0.41385 0.54252 0.71783 0.0
C488 C 0.39918 0.52917 0.71978 0.0
C489 C 0.42173 0.5444 0.70069 0.0
C490 C 0.41219 0.53323 0.64997 0.0
H491 H 0.48231 0.56048 0.59195 0.0
H492 H 0.46811 0.56049 0.62174 0.0
H493 H 0.41095 0.53321 0.62001 0.0
H494 H 0.38137 0.50726 0.70527 0.0
H495 H 0.3952 0.51045 0.67548 0.0
H496 H 0.45142 0.53965 0.67886 0.0
C497 C 0.46249 0.55071 0.61077 0.0
C498 C 0.41994 0.53456 0.63275 0.0
C499 C 0.47056 0.55078 0.59366 0.0
C500 C 0.39262 0.51771 0.70424 0.0
C501 C 0.40046 0.51961 0.68712 0.0
C502 C 0.44244 0.53843 0.66612 0.0
C503 C 0.44731 0.53823 0.61364 0.0
C504 C 0.43904 0.53768 0.63199 0.0
C505 C 0.41508 0.533 0.68512 0.0
C506 C 0.42334 0.535 0.66685 0.0
H507 H 0.44267 0.51618 0.57095 0.0
H508 H 0.42874 0.516 0.60075 0.0
H509 H 0.46497 0.54192 0.64879 0.0
H510 H 0.41922 0.55159 0.72951 0.0
H511 H 0.43286 0.55495 0.69956 0.0
C512 C 0.77217 0.28818 0.71446 0.0
C513 C 0.77422 0.27008 0.71336 0.0
C514 C 0.76927 0.29733 0.69817 0.0
C515 C 0.77339 0.29445 0.64667 0.0
H516 H 0.74067 0.33047 0.64647 0.0
C517 C 0.74823 0.32593 0.57897 0.0
C518 C 0.74918 0.34451 0.5797 0.0
C519 C 0.75126 0.31689 0.59531 0.0
C520 C 0.74994 0.32054 0.64638 0.0
H521 H 0.77468 0.24734 0.6943 0.0
H522 H 0.7691 0.26313 0.66593 0.0
H523 H 0.74591 0.31449 0.67483 0.0
H524 H 0.75382 0.36816 0.59819 0.0
H525 H 0.75887 0.3523 0.62676 0.0
H526 H 0.77707 0.30032 0.61804 0.0
C527 C 0.77018 0.27042 0.67933 0.0
C528 C 0.75302 0.31141 0.66264 0.0
C529 C 0.77327 0.26131 0.69562 0.0
C530 C 0.753 0.35384 0.59716 0.0
C531 C 0.75581 0.34477 0.61353 0.0
C532 C 0.77015 0.30346 0.63036 0.0
C533 C 0.76815 0.28856 0.68039 0.0
C534 C 0.76482 0.29826 0.66303 0.0
C535 C 0.75508 0.32621 0.61275 0.0
C536 C 0.75843 0.31661 0.63005 0.0
H537 H 0.77295 0.29535 0.72792 0.0
H538 H 0.7681 0.31135 0.69955 0.0
H539 H 0.78282 0.28467 0.64651 0.0
H540 H 0.74535 0.31835 0.56575 0.0
H541 H 0.75045 0.30257 0.59433 0.0
C542 C 0.50562 0.98555 0.62016 0.0
C543 C 0.48932 0.97371 0.61956 0.0
C544 C 0.51656 0.98923 0.63691 0.0
C545 C 0.51713 0.9858 0.68842 0.0
H546 H 0.56898 0.98384 0.68475 0.0
C547 C 0.56705 0.97958 0.753 0.0
C548 C 0.5845 0.98949 0.75353 0.0
C549 C 0.55507 0.97876 0.73689 0.0
C550 C 0.55458 0.98468 0.68601 0.0
H551 H 0.47132 0.95709 0.63629 0.0
H552 H 0.49051 0.96342 0.66547 0.0
H553 H 0.54846 0.98121 0.65637 0.0
H554 H 0.60299 0.00649 0.73762 0.0
H555 H 0.58204 0.00517 0.70963 0.0
H556 H 0.52328 0.98909 0.71813 0.0
C557 C 0.49476 0.96994 0.65301 0.0
C558 C 0.54282 0.98319 0.66973 0.0
C559 C 0.48381 0.96624 0.63625 0.0
C560 C 0.58968 0.99863 0.73765 0.0
C561 C 0.57771 0.99783 0.72156 0.0
C562 C 0.52891 0.98731 0.70472 0.0
C563 C 0.51145 0.98117 0.65343 0.0
C564 C 0.52395 0.98366 0.67075 0.0
C565 C 0.56029 0.98785 0.72098 0.0
C566 C 0.54776 0.98667 0.7037 0.0
H567 H 0.5102 0.99163 0.60759 0.0
H568 H 0.52919 0.99819 0.63687 0.0
H569 H 0.50268 0.9864 0.68963 0.0
H570 H 0.56265 0.97238 0.765 0.0
H571 H 0.54183 0.97077 0.73679 0.0
C572 C 0.84737 0.26024 0.79867 0.0
C573 C 0.8446 0.24546 0.78594 0.0
C574 C 0.86346 0.26372 0.81043 0.0
C575 C 0.9108 0.25234 0.81809 0.0
H576 H 0.90461 0.26511 0.87 0.0
C577 C 0.96703 0.24934 0.878 0.0
C578 C 0.9698 0.26347 0.89155 0.0
C579 C 0.95225 0.24789 0.86446 0.0
C580 C 0.90662 0.26175 0.85552 0.0
H581 H 0.85692 0.22315 0.77506 0.0
H582 H 0.88483 0.22908 0.79572 0.0
H583 H 0.87829 0.26183 0.84711 0.0
H584 H 0.95921 0.28717 0.90147 0.0
H585 H 0.93348 0.28462 0.87788 0.0
H586 H 0.93914 0.25199 0.82666 0.0
C587 C 0.87466 0.23811 0.7965 0.0
C588 C 0.89153 0.25992 0.84237 0.0
C589 C 0.8586 0.23466 0.7847 0.0
C590 C 0.95746 0.27609 0.89128 0.0
C591 C 0.94266 0.2746 0.8778 0.0
C592 C 0.9259 0.25412 0.83128 0.0
C593 C 0.87713 0.25247 0.80977 0.0
C594 C 0.89342 0.25515 0.8235 0.0
C595 C 0.93987 0.26048 0.86426 0.0
C596 C 0.92395 0.2588 0.85014 0.0
H597 H 0.83692 0.26891 0.7999 0.0
H598 H 0.86508 0.2751 0.82023 0.0
H599 H 0.91278 0.24886 0.80363 0.0
H600 H 0.97629 0.23939 0.87782 0.0
H601 H 0.95034 0.23675 0.85433 0.0
C602 C 0.508 0.90579 0.53881 0.0
C603 C 0.49196 0.91357 0.53492 0.0
C604 C 0.51037 0.88973 0.52984 0.0
C605 C 0.48478 0.84992 0.50515 0.0
H606 H 0.53176 0.84384 0.48654 0.0
C607 C 0.49514 0.79095 0.45583 0.0
C608 C 0.5117 0.7837 0.45804 0.0
C609 C 0.49256 0.80613 0.46634 0.0
C610 C 0.51864 0.84522 0.49191 0.0
H611 H 0.46587 0.91064 0.51845 0.0
H612 H 0.47007 0.88258 0.50266 0.0
H613 H 0.52761 0.87192 0.50211 0.0
H614 H 0.53832 0.78639 0.47349 0.0
H615 H 0.53371 0.81281 0.49205 0.0
H616 H 0.4758 0.82322 0.49493 0.0
C617 C 0.48073 0.88886 0.51282 0.0
C618 C 0.51625 0.86133 0.50078 0.0
C619 C 0.47837 0.90498 0.52176 0.0
C620 C 0.52543 0.79167 0.47141 0.0
C621 C 0.52284 0.80689 0.48194 0.0
C622 C 0.48718 0.83378 0.49632 0.0
C623 C 0.49675 0.88105 0.51679 0.0
C624 C 0.49927 0.86389 0.50743 0.0
C625 C 0.50647 0.81443 0.47933 0.0
C626 C 0.50412 0.83127 0.48952 0.0
H627 H 0.51873 0.91203 0.54891 0.0
H628 H 0.52278 0.88397 0.53336 0.0
H629 H 0.47163 0.85139 0.5104 0.0
H630 H 0.48427 0.78516 0.44564 0.0
H631 H 0.47987 0.81169 0.46381 0.0
C632 C 0.15904 0.31636 0.7955 0.0
C633 C 0.15873 0.33281 0.78725 0.0
C634 C 0.14795 0.31172 0.81006 0.0
C635 C 0.10504 0.3216 0.82848 0.0
H636 H 0.12017 0.29522 0.87087 0.0
C637 C 0.05705 0.30406 0.88663 0.0
C638 C 0.05614 0.28678 0.89309 0.0
C639 C 0.07073 0.31044 0.8752 0.0
C640 C 0.11571 0.30245 0.85902 0.0
H641 H 0.1472 0.35763 0.78845 0.0
H642 H 0.128 0.34958 0.81392 0.0
H643 H 0.14233 0.30526 0.84846 0.0
H644 H 0.06916 0.2628 0.89297 0.0
H645 H 0.09291 0.27387 0.87272 0.0
H646 H 0.07841 0.31858 0.83872 0.0
C647 C 0.13658 0.34015 0.80891 0.0
C648 C 0.1284 0.30823 0.84621 0.0
C649 C 0.14767 0.3448 0.79438 0.0
C650 C 0.06949 0.27617 0.88822 0.0
C651 C 0.08316 0.28255 0.8767 0.0
C652 C 0.09238 0.31581 0.84122 0.0
C653 C 0.13631 0.32342 0.81666 0.0
C654 C 0.12318 0.31784 0.83077 0.0
C655 C 0.08379 0.29969 0.86986 0.0
C656 C 0.09753 0.30614 0.85663 0.0
H657 H 0.16743 0.30683 0.79036 0.0
H658 H 0.14797 0.29869 0.81563 0.0
H659 H 0.10047 0.32865 0.81653 0.0
H660 H 0.04709 0.31265 0.89027 0.0
H661 H 0.07102 0.32383 0.87048 0.0
C662 C 0.5046 0.56767 0.4979 0.0
C663 C 0.51849 0.5584 0.4917 0.0
C664 C 0.50381 0.58525 0.49318 0.0
C665 C 0.51825 0.6163 0.45721 0.0
H666 H 0.50483 0.65201 0.49183 0.0
C667 C 0.51851 0.68899 0.43735 0.0
C668 C 0.50376 0.6976 0.44255 0.0
C669 C 0.52111 0.6725 0.44429 0.0
C670 C 0.50844 0.64214 0.48195 0.0
H671 H 0.54262 0.56035 0.47594 0.0
H672 H 0.54136 0.59103 0.46785 0.0
H673 H 0.50811 0.6224 0.50255 0.0
H674 H 0.4803 0.69572 0.45932 0.0
H675 H 0.4847 0.66685 0.47122 0.0
H676 H 0.51837 0.63586 0.43655 0.0
C677 C 0.53096 0.58469 0.47621 0.0
C678 C 0.51033 0.62518 0.4881 0.0
C679 C 0.53173 0.56715 0.48092 0.0
C680 C 0.49181 0.68945 0.45504 0.0
C681 C 0.4944 0.67294 0.46196 0.0
C682 C 0.51634 0.6332 0.45106 0.0
C683 C 0.51684 0.59388 0.48205 0.0
C684 C 0.51524 0.61206 0.47579 0.0
C685 C 0.50901 0.66421 0.45657 0.0
C686 C 0.51138 0.64633 0.46333 0.0
H687 H 0.49382 0.56115 0.50563 0.0
H688 H 0.49258 0.59184 0.49763 0.0
H689 H 0.5217 0.60641 0.44726 0.0
H690 H 0.52804 0.69494 0.42785 0.0
H691 H 0.53267 0.66628 0.44007 0.0
C692 C 0.82462 0.79685 0.7664 0.0
C693 C 0.83046 0.80414 0.78448 0.0
C694 C 0.83732 0.79476 0.75316 0.0
C695 C 0.88529 0.80928 0.74258 0.0
H696 H 0.87911 0.76523 0.71241 0.0
C697 C 0.93525 0.79548 0.68691 0.0
C698 C 0.9406 0.7784 0.68621 0.0
C699 C 0.92086 0.79915 0.69748 0.0
C700 C 0.88108 0.77757 0.72079 0.0
H701 H 0.85417 0.8152 0.80277 0.0
H702 H 0.87631 0.81129 0.77984 0.0
H703 H 0.85608 0.77093 0.73379 0.0
H704 H 0.93486 0.75174 0.6959 0.0
H705 H 0.91001 0.7582 0.71455 0.0
H706 H 0.91065 0.8156 0.73012 0.0
C707 C 0.86191 0.80744 0.77574 0.0
C708 C 0.86775 0.78095 0.73287 0.0
C709 C 0.84921 0.80958 0.78894 0.0
C710 C 0.93106 0.76502 0.69608 0.0
C711 C 0.91672 0.76871 0.70669 0.0
C712 C 0.89865 0.80588 0.73052 0.0
C713 C 0.85614 0.79986 0.75774 0.0
C714 C 0.86979 0.79676 0.74407 0.0
C715 C 0.91152 0.78585 0.70763 0.0
C716 C 0.8968 0.7899 0.71963 0.0
H717 H 0.81025 0.79261 0.76249 0.0
H718 H 0.83239 0.78912 0.73934 0.0
H719 H 0.88718 0.82169 0.75081 0.0
H720 H 0.94226 0.80607 0.67938 0.0
H721 H 0.91704 0.81243 0.69768 0.0
C722 C 0.01865 0.93159 0.52381 0.0
C723 C 0.02843 0.92682 0.50867 0.0
C724 C 0.01417 0.9195 0.53751 0.0
C725 C 0.00813 0.87174 0.54606 0.0
H726 H 0.01487 0.88779 0.59845 0.0
C727 C 0.00217 0.82313 0.60604 0.0
C728 C 0.99372 0.82829 0.62199 0.0
C729 C 0.00614 0.83509 0.59209 0.0
C730 C 0.01267 0.88313 0.58388 0.0
H731 H 0.04106 0.90557 0.49596 0.0
H732 H 0.03323 0.88448 0.51989 0.0
H733 H 0.02218 0.90874 0.57431 0.0
H734 H 0.98261 0.85002 0.63568 0.0
H735 H 0.98925 0.87079 0.61122 0.0
H736 H 0.99853 0.84615 0.5556 0.0
C737 C 0.02893 0.89753 0.52109 0.0
C738 C 0.01689 0.89514 0.57005 0.0
C739 C 0.0335 0.90965 0.50744 0.0
C740 C 0.98921 0.84564 0.62361 0.0
C741 C 0.99312 0.85759 0.60963 0.0
C742 C 0.00384 0.85973 0.55989 0.0
C743 C 0.01928 0.90235 0.53632 0.0
C744 C 0.01469 0.88958 0.55099 0.0
C745 C 0.00169 0.85248 0.59373 0.0
C746 C 0.00609 0.86528 0.57898 0.0
H747 H 0.01452 0.9447 0.52516 0.0
H748 H 0.00654 0.92353 0.54895 0.0
H749 H 0.00605 0.8671 0.53148 0.0
H750 H 0.0059 0.80988 0.60438 0.0
H751 H 0.01297 0.83078 0.58017 0.0
C752 C 0.15023 0.76844 0.78982 0.0
C753 C 0.1644 0.78252 0.78891 0.0
C754 C 0.13309 0.76899 0.78041 0.0
C755 C 0.11186 0.7895 0.74018 0.0
H756 H 0.06631 0.77096 0.76041 0.0
C757 C 0.04203 0.79189 0.69968 0.0
C758 C 0.02924 0.77652 0.69947 0.0
C759 C 0.05792 0.79374 0.71177 0.0
C760 C 0.07893 0.77606 0.75452 0.0
H761 H 0.17141 0.80856 0.77807 0.0
H762 H 0.14146 0.80957 0.76183 0.0
H763 H 0.09508 0.7724 0.77979 0.0
H764 H 0.023 0.75115 0.71201 0.0
H765 H 0.05084 0.75428 0.73291 0.0
H766 H 0.09584 0.7929 0.71484 0.0
C767 C 0.1437 0.79798 0.76955 0.0
C768 C 0.0954 0.7769 0.76563 0.0
C769 C 0.16084 0.79743 0.77896 0.0
C770 C 0.03256 0.76317 0.71183 0.0
C771 C 0.04847 0.76502 0.72391 0.0
C772 C 0.09542 0.78864 0.72909 0.0
C773 C 0.12973 0.78363 0.76989 0.0
C774 C 0.11207 0.78353 0.75854 0.0
C775 C 0.06142 0.78026 0.72391 0.0
C776 C 0.07877 0.78181 0.73607 0.0
H777 H 0.15251 0.75676 0.79737 0.0
H778 H 0.12267 0.75765 0.78083 0.0
H779 H 0.12448 0.79437 0.73417 0.0
H780 H 0.03984 0.80247 0.69041 0.0
H781 H 0.06749 0.80575 0.71161 0.0
C782 C 0.96956 0.59871 0.56938 0.0
C783 C 0.98557 0.59159 0.56531 0.0
C784 C 0.97062 0.61568 0.57796 0.0
C785 C 0.00134 0.65784 0.58436 0.0
H786 H 0.97084 0.66826 0.62421 0.0
C787 C 0.01274 0.72491 0.62616 0.0
C788 C 0.9972 0.73258 0.63072 0.0
C789 C 0.01098 0.70759 0.61846 0.0
C790 C 0.9793 0.66561 0.61294 0.0
H791 H 0.01527 0.59655 0.56753 0.0
H792 H 0.01707 0.62601 0.58252 0.0
H793 H 0.96829 0.6381 0.61046 0.0
H794 H 0.9676 0.72804 0.63081 0.0
H795 H 0.96452 0.69788 0.6171 0.0
H796 H 0.01227 0.68529 0.58667 0.0
C797 C 0.0037 0.61859 0.57886 0.0
C798 C 0.97784 0.64833 0.60509 0.0
C799 C 0.00265 0.60165 0.57036 0.0
C800 C 0.97986 0.72251 0.62747 0.0
C801 C 0.97809 0.70518 0.61972 0.0
C802 C 0.00275 0.67509 0.59215 0.0
C803 C 0.98771 0.62589 0.58256 0.0
C804 C 0.98894 0.64424 0.59079 0.0
C805 C 0.99364 0.69753 0.61508 0.0
C806 C 0.99183 0.67918 0.60661 0.0
H807 H 0.95619 0.59131 0.56567 0.0
H808 H 0.95805 0.62099 0.58053 0.0
H809 H 0.00983 0.65519 0.57311 0.0
H810 H 0.02631 0.73226 0.62859 0.0
H811 H 0.02327 0.70201 0.61534 0.0
C812 C 0.72297 0.86589 0.19217 0.0
C813 C 0.70834 0.85909 0.20246 0.0
C814 C 0.73605 0.87958 0.19981 0.0
C815 C 0.75667 0.90134 0.24421 0.0
H816 H 0.77308 0.93941 0.21237 0.0
C817 C 0.82323 0.94996 0.26104 0.0
C818 C 0.82292 0.96781 0.25679 0.0
C819 C 0.80806 0.93731 0.256 0.0
C820 C 0.76852 0.92899 0.22152 0.0
H821 H 0.69566 0.86196 0.22862 0.0
H822 H 0.71884 0.88562 0.24219 0.0
H823 H 0.74871 0.91626 0.20043 0.0
H824 H 0.80618 0.98646 0.24446 0.0
H825 H 0.77974 0.96438 0.23569 0.0
H826 H 0.77663 0.91408 0.26528 0.0
C827 C 0.72026 0.88007 0.22829 0.0
C828 C 0.7547 0.91563 0.21461 0.0
C829 C 0.70706 0.86639 0.22058 0.0
C830 C 0.80693 0.97281 0.24784 0.0
C831 C 0.79179 0.96015 0.24274 0.0
C832 C 0.77062 0.91468 0.2511 0.0
C833 C 0.73484 0.88686 0.21793 0.0
C834 C 0.74876 0.90155 0.22579 0.0
C835 C 0.79228 0.94222 0.24654 0.0
C836 C 0.77679 0.92857 0.23976 0.0
H837 H 0.72439 0.86056 0.17818 0.0
H838 H 0.74726 0.88437 0.19157 0.0
H839 H 0.75243 0.89061 0.25312 0.0
H840 H 0.83532 0.94567 0.26796 0.0
H841 H 0.80892 0.92358 0.25896 0.0
C842 C 0.78755 0.18807 0.29462 0.0
C843 C 0.80162 0.20246 0.29656 0.0
C844 C 0.79168 0.17068 0.2931 0.0
C845 C 0.82794 0.14508 0.2792 0.0
H846 H 0.80145 0.10718 0.30502 0.0
C847 C 0.84839 0.07454 0.27778 0.0
C848 C 0.83417 0.06032 0.27545 0.0
C849 C 0.84459 0.09181 0.28137 0.0
C850 C 0.80884 0.11758 0.29756 0.0
H851 H 0.83108 0.20984 0.29873 0.0
H852 H 0.83827 0.17949 0.29611 0.0
H853 H 0.79447 0.13749 0.30948 0.0
H854 H 0.80478 0.05307 0.27529 0.0
H855 H 0.79811 0.08324 0.28126 0.0
H856 H 0.84215 0.12523 0.26708 0.0
C857 C 0.82404 0.18168 0.29559 0.0
C858 C 0.80486 0.13494 0.30014 0.0
C859 C 0.81991 0.19906 0.29719 0.0
C860 C 0.81606 0.06372 0.27704 0.0
C861 C 0.81225 0.08101 0.28058 0.0
C862 C 0.83188 0.12774 0.27658 0.0
C863 C 0.80997 0.1673 0.2934 0.0
C864 C 0.81436 0.14888 0.29097 0.0
C865 C 0.82646 0.09528 0.28265 0.0
C866 C 0.82238 0.11377 0.28571 0.0
H867 H 0.77331 0.19024 0.29409 0.0
H868 H 0.78053 0.1599 0.29125 0.0
H869 H 0.83528 0.15548 0.27169 0.0
H870 H 0.86251 0.07238 0.27677 0.0
H871 H 0.85588 0.10244 0.2832 0.0
C872 C 0.43157 0.00507 0.02583 0.0
C873 C 0.43144 0.01962 0.01431 0.0
C874 C 0.41549 0.99366 0.02772 0.0
C875 C 0.3652 0.99098 0.02235 0.0
H876 H 0.36671 0.94021 0.02015 0.0
C877 C 0.29967 0.9401 0.01699 0.0
C878 C 0.30007 0.92461 0.02702 0.0
C879 C 0.31562 0.95195 0.01591 0.0
C880 C 0.36608 0.95435 0.02106 0.0
H881 H 0.41429 0.03366 0.99585 0.0
H882 H 0.38623 0.01371 0.99916 0.0
H883 H 0.39469 0.96038 0.01745 0.0
H884 H 0.31747 0.9096 0.04409 0.0
H885 H 0.34518 0.93039 0.04248 0.0
H886 H 0.33661 0.98497 0.02604 0.0
C887 C 0.39875 0.01121 0.00681 0.0
C888 C 0.38212 0.96591 0.01948 0.0
C889 C 0.41486 0.02258 0.00484 0.0
C890 C 0.3167 0.92136 0.03616 0.0
C891 C 0.33263 0.93323 0.03514 0.0
C892 C 0.34916 0.97942 0.024 0.0
C893 C 0.3989 0.99659 0.01822 0.0
C894 C 0.38186 0.98435 0.02008 0.0
C895 C 0.33232 0.94861 0.02489 0.0
C896 C 0.3494 0.96096 0.02335 0.0
H897 H 0.44412 0.00244 0.03335 0.0
H898 H 0.416 0.98262 0.03678 0.0
H899 H 0.36461 0.00513 0.02311 0.0
H900 H 0.28709 0.94297 0.00972 0.0
H901 H 0.31493 0.96355 0.0077 0.0
C902 C 0.23024 0.33401 0.30238 0.0
C903 C 0.24374 0.33261 0.31691 0.0
C904 C 0.22168 0.34933 0.30115 0.0
C905 C 0.2269 0.39662 0.31621 0.0
H906 H 0.17384 0.39097 0.31052 0.0
C907 C 0.18631 0.45471 0.33087 0.0
C908 C 0.17033 0.45597 0.31941 0.0
C909 C 0.19541 0.43978 0.32936 0.0
C910 C 0.18867 0.39282 0.31181 0.0
H911 H 0.25921 0.34639 0.34122 0.0
H912 H 0.24437 0.37313 0.33896 0.0
H913 H 0.1898 0.36485 0.30941 0.0
H914 H 0.15144 0.44259 0.29724 0.0
H915 H 0.16752 0.41668 0.29432 0.0
H916 H 0.22585 0.42455 0.31855 0.0
C917 C 0.24041 0.36239 0.32853 0.0
C918 C 0.1978 0.37784 0.31119 0.0
C919 C 0.24883 0.34703 0.32988 0.0
C920 C 0.16366 0.44198 0.30636 0.0
C921 C 0.17284 0.42709 0.30474 0.0
C922 C 0.21779 0.4116 0.31668 0.0
C923 C 0.2266 0.36363 0.31429 0.0
C924 C 0.21699 0.37958 0.31363 0.0
C925 C 0.18884 0.4258 0.31623 0.0
C926 C 0.19855 0.40989 0.31474 0.0
H927 H 0.22602 0.32313 0.29216 0.0
H928 H 0.21118 0.35 0.28993 0.0
H929 H 0.24172 0.39836 0.31786 0.0
H930 H 0.19175 0.46521 0.34115 0.0
H931 H 0.20748 0.43911 0.33868 0.0
C932 C 0.10673 0.00372 0.48748 0.0
C933 C 0.09099 0.00657 0.4965 0.0
C934 C 0.12344 0.01423 0.49244 0.0
C935 C 0.14232 0.0578 0.51532 0.0
H936 H 0.18851 0.03877 0.51399 0.0
C937 C 0.21187 0.09877 0.5397 0.0
C938 C 0.22595 0.09796 0.5276 0.0
C939 C 0.19552 0.08724 0.5367 0.0
C940 C 0.1757 0.04427 0.51431 0.0
H941 H 0.0806 0.02222 0.51831 0.0
H942 H 0.10983 0.04019 0.52732 0.0
H943 H 0.15983 0.01895 0.508 0.0
H944 H 0.234 0.08433 0.50295 0.0
H945 H 0.20548 0.06412 0.49782 0.0
H946 H 0.15827 0.08309 0.5218 0.0
C947 C 0.10919 0.03017 0.51606 0.0
C948 C 0.15927 0.03294 0.51084 0.0
C949 C 0.09244 0.01978 0.51098 0.0
C950 C 0.2234 0.0853 0.51251 0.0
C951 C 0.20713 0.07366 0.50964 0.0
C952 C 0.15875 0.06908 0.51896 0.0
C953 C 0.12483 0.02772 0.50665 0.0
C954 C 0.14236 0.03959 0.51116 0.0
C955 C 0.19301 0.07456 0.52166 0.0
C956 C 0.1756 0.06246 0.51835 0.0
H957 H 0.10607 0.99371 0.47621 0.0
H958 H 0.13511 0.0121 0.48471 0.0
H959 H 0.1296 0.06347 0.51533 0.0
H960 H 0.2134 0.10838 0.55144 0.0
H961 H 0.18491 0.08814 0.54626 0.0
C962 C 0.74297 0.16957 0.74927 0.0
C963 C 0.74866 0.18146 0.76469 0.0
C964 C 0.7297 0.155 0.75094 0.0
C965 C 0.6935 0.13639 0.78068 0.0
H966 H 0.70413 0.09127 0.76013 0.0
C967 C 0.64366 0.07136 0.78238 0.0
C968 C 0.65147 0.05596 0.78671 0.0
C969 C 0.65476 0.08709 0.77921 0.0
C970 C 0.70101 0.10376 0.76603 0.0
H971 H 0.74434 0.18777 0.79372 0.0
H972 H 0.72134 0.16232 0.79666 0.0
H973 H 0.72436 0.11827 0.75515 0.0
H974 H 0.6771 0.04509 0.79142 0.0
H975 H 0.69644 0.07257 0.78609 0.0
H976 H 0.67042 0.12175 0.79202 0.0
C977 C 0.72702 0.1643 0.78324 0.0
C978 C 0.71247 0.11927 0.76296 0.0
C979 C 0.74029 0.17885 0.78158 0.0
C980 C 0.67063 0.0567 0.78803 0.0
C981 C 0.68172 0.07241 0.78485 0.0
C982 C 0.68201 0.12086 0.78373 0.0
C983 C 0.72181 0.15204 0.76804 0.0
C984 C 0.70894 0.13575 0.77038 0.0
C985 C 0.67391 0.08776 0.78029 0.0
C986 C 0.68574 0.10435 0.77659 0.0
H987 H 0.74908 0.17125 0.73602 0.0
H988 H 0.72576 0.14594 0.73889 0.0
H989 H 0.69032 0.1489 0.78644 0.0
H990 H 0.62894 0.07123 0.78121 0.0
H991 H 0.64832 0.09864 0.77556 0.0
C992 C 0.39579 0.98922 0.56836 0.0
C993 C 0.41243 0.98872 0.56008 0.0
C994 C 0.3855 0.00314 0.56518 0.0
C995 C 0.38919 0.04924 0.54983 0.0
H996 H 0.33635 0.03917 0.54195 0.0
C997 C 0.34309 0.10079 0.52362 0.0
C998 C 0.32624 0.10097 0.53157 0.0
C999 C 0.35414 0.08767 0.52794 0.0
C1000 C 0.35108 0.04224 0.54436 0.0
H1001 H 0.43123 0.0024 0.54184 0.0
H1002 H 0.41312 0.02656 0.53607 0.0
H1003 H 0.3544 0.01496 0.54741 0.0
H1004 H 0.3081 0.08787 0.55082 0.0
H1005 H 0.32744 0.06511 0.55845 0.0
H1006 H 0.38582 0.07653 0.54661 0.0
C1007 C 0.40817 0.01632 0.54526 0.0
C1008 C 0.36142 0.02836 0.54749 0.0
C1009 C 0.41849 0.00241 0.54846 0.0
C1010 C 0.32095 0.08806 0.54436 0.0
C1011 C 0.33197 0.07494 0.54865 0.0
C1012 C 0.37883 0.06313 0.54666 0.0
C1013 C 0.39157 0.01687 0.55361 0.0
C1014 C 0.38061 0.03168 0.55026 0.0
C1015 C 0.34856 0.07443 0.54028 0.0
C1016 C 0.35965 0.05978 0.54391 0.0
H1017 H 0.39078 0.97893 0.57746 0.0
H1018 H 0.3729 0.00327 0.57202 0.0
H1019 H 0.40392 0.05229 0.55219 0.0
H1020 H 0.34757 0.11054 0.51371 0.0
H1021 H 0.36679 0.08756 0.52116 0.0
C1022 C 0.58558 0.47521 0.48419 0.0
C1023 C 0.57501 0.47905 0.49904 0.0
C1024 C 0.60199 0.46816 0.48765 0.0
C1025 C 0.62586 0.44256 0.52165 0.0
H1026 H 0.66873 0.45947 0.49593 0.0
C1027 C 0.69536 0.41625 0.53647 0.0
C1028 C 0.70536 0.41329 0.52092 0.0
C1029 C 0.67986 0.42505 0.53459 0.0
C1030 C 0.65683 0.45445 0.50308 0.0
H1031 H 0.57348 0.47865 0.52918 0.0
H1032 H 0.60215 0.46628 0.53518 0.0
H1033 H 0.64099 0.47351 0.49115 0.0
H1034 H 0.70685 0.41716 0.49116 0.0
H1035 H 0.67971 0.43214 0.48781 0.0
H1036 H 0.64153 0.42327 0.5333 0.0
C1037 C 0.59766 0.46866 0.52087 0.0
C1038 C 0.64095 0.46254 0.50037 0.0
C1039 C 0.5813 0.47583 0.51743 0.0
C1040 C 0.69953 0.4193 0.50346 0.0
C1041 C 0.68401 0.42801 0.50156 0.0
C1042 C 0.64171 0.4344 0.52429 0.0
C1043 C 0.60815 0.46469 0.506 0.0
C1044 C 0.62526 0.4566 0.50952 0.0
C1045 C 0.67398 0.43102 0.51709 0.0
C1046 C 0.65735 0.44015 0.51492 0.0
H1047 H 0.58112 0.47752 0.46986 0.0
H1048 H 0.60967 0.46507 0.47588 0.0
H1049 H 0.6139 0.43755 0.52873 0.0
H1050 H 0.69954 0.41185 0.55014 0.0
H1051 H 0.6726 0.42733 0.5469 0.0
C1052 C 0.77662 0.27512 0.36714 0.0
C1053 C 0.76531 0.27837 0.35136 0.0
C1054 C 0.77443 0.28279 0.38474 0.0
C1055 C 0.75565 0.32053 0.40684 0.0
H1056 H 0.76347 0.29543 0.45228 0.0
C1057 C 0.74526 0.35033 0.48009 0.0
C1058 C 0.75936 0.34919 0.49408 0.0
C1059 C 0.7447 0.34084 0.46292 0.0
C1060 C 0.76134 0.30262 0.4397 0.0
H1061 H 0.74319 0.29274 0.34169 0.0
H1062 H 0.73877 0.30545 0.37247 0.0
H1063 H 0.76435 0.28019 0.4218 0.0
H1064 H 0.78371 0.33687 0.50115 0.0
H1065 H 0.78268 0.32024 0.47118 0.0
H1066 H 0.75262 0.34294 0.42479 0.0
C1067 C 0.74942 0.29702 0.37124 0.0
C1068 C 0.76187 0.29392 0.42224 0.0
C1069 C 0.75169 0.28942 0.3536 0.0
C1070 C 0.77268 0.33806 0.49066 0.0
C1071 C 0.77203 0.32845 0.47354 0.0
C1072 C 0.75498 0.32917 0.42429 0.0
C1073 C 0.76087 0.29393 0.387 0.0
C1074 C 0.75923 0.30282 0.40558 0.0
C1075 C 0.75814 0.32988 0.45942 0.0
C1076 C 0.758 0.32037 0.44091 0.0
H1077 H 0.78734 0.26677 0.36587 0.0
H1078 H 0.78372 0.28034 0.39646 0.0
H1079 H 0.75387 0.32791 0.39435 0.0
H1080 H 0.73476 0.35877 0.48228 0.0
H1081 H 0.73373 0.34205 0.45237 0.0
C1082 C 0.51603 0.02873 0.95331 0.0
C1083 C 0.52497 0.03276 0.97124 0.0
C1084 C 0.52574 0.02368 0.93836 0.0
C1085 C 0.56926 0.0077 0.9268 0.0
H1086 H 0.55993 0.02962 0.87965 0.0
C1087 C 0.61862 0.00944 0.86752 0.0
C1088 C 0.61084 0.00683 0.84897 0.0
C1089 C 0.60753 0.01103 0.88237 0.0
C1090 C 0.56254 0.02319 0.89263 0.0
H1091 H 0.55103 0.03413 0.98762 0.0
H1092 H 0.56796 0.02556 0.96154 0.0
H1093 H 0.54148 0.03483 0.90567 0.0
H1094 H 0.58527 0.0035 0.83151 0.0
H1095 H 0.56597 0.0062 0.85743 0.0
H1096 H 0.59056 0.99632 0.91378 0.0
C1097 C 0.55341 0.02609 0.95905 0.0
C1098 C 0.55194 0.02615 0.90755 0.0
C1099 C 0.5437 0.03111 0.974 0.0
C1100 C 0.59172 0.00559 0.84563 0.0
C1101 C 0.58065 0.00722 0.86047 0.0
C1102 C 0.5799 0.00477 0.91187 0.0
C1103 C 0.5446 0.02256 0.941 0.0
C1104 C 0.55525 0.01855 0.92486 0.0
C1105 C 0.58844 0.01008 0.87899 0.0
C1106 C 0.57673 0.01258 0.89466 0.0
H1107 H 0.50159 0.02976 0.95071 0.0
H1108 H 0.51848 0.02077 0.92469 0.0
H1109 H 0.57199 0.00144 0.93986 0.0
H1110 H 0.6333 0.01045 0.87057 0.0
H1111 H 0.61396 0.01341 0.89647 0.0
C1112 C 0.27088 0.22496 0.34722 0.0
C1113 C 0.28236 0.24111 0.35083 0.0
C1114 C 0.27207 0.21093 0.35911 0.0
C1115 C 0.30137 0.19473 0.39757 0.0
H1116 H 0.25518 0.17048 0.4114 0.0
C1117 C 0.29346 0.15679 0.46541 0.0
C1118 C 0.28108 0.1411 0.46475 0.0
C1119 C 0.29512 0.16697 0.44963 0.0
C1120 C 0.26821 0.17689 0.40746 0.0
H1121 H 0.30448 0.25498 0.36947 0.0
H1122 H 0.30628 0.23071 0.39037 0.0
H1123 H 0.25527 0.19202 0.38715 0.0
H1124 H 0.26127 0.12342 0.44678 0.0
H1125 H 0.26417 0.14124 0.41924 0.0
H1126 H 0.31422 0.17996 0.41843 0.0
C1127 C 0.29655 0.22874 0.37819 0.0
C1128 C 0.26828 0.18924 0.39352 0.0
C1129 C 0.29543 0.24272 0.36626 0.0
C1130 C 0.27088 0.13548 0.44778 0.0
C1131 C 0.27247 0.14572 0.43203 0.0
C1132 C 0.30129 0.18243 0.41159 0.0
C1133 C 0.2847 0.21276 0.37493 0.0
C1134 C 0.28484 0.19851 0.38859 0.0
C1135 C 0.28437 0.16173 0.43289 0.0
C1136 C 0.28469 0.17356 0.41686 0.0
H1137 H 0.26076 0.22322 0.33536 0.0
H1138 H 0.26295 0.19871 0.356 0.0
H1139 H 0.31438 0.2014 0.39389 0.0
H1140 H 0.30156 0.16149 0.47825 0.0
H1141 H 0.30428 0.17933 0.45079 0.0
C1142 C 0.4828 0.48422 0.93673 0.0
C1143 C 0.50117 0.48452 0.93264 0.0
C1144 C 0.46911 0.48495 0.92235 0.0
C1145 C 0.46317 0.49976 0.8741 0.0
H1146 H 0.41488 0.47288 0.87384 0.0
C1147 C 0.40977 0.49928 0.81155 0.0
C1148 C 0.39176 0.50111 0.81568 0.0
C1149 C 0.42279 0.49616 0.82572 0.0
C1150 C 0.42826 0.48058 0.87382 0.0
H1151 H 0.51947 0.48509 0.91018 0.0
H1152 H 0.49561 0.4861 0.88516 0.0
H1153 H 0.43823 0.46911 0.89879 0.0
H1154 H 0.37323 0.50075 0.8379 0.0
H1155 H 0.39604 0.49543 0.86269 0.0
H1156 H 0.45325 0.51128 0.84924 0.0
C1157 C 0.49181 0.48569 0.89949 0.0
C1158 C 0.44163 0.47843 0.8881 0.0
C1159 C 0.50547 0.485 0.91384 0.0
C1160 C 0.38698 0.49942 0.83425 0.0
C1161 C 0.40003 0.49627 0.84844 0.0
C1162 C 0.44985 0.50188 0.85984 0.0
C1163 C 0.47351 0.48597 0.90359 0.0
C1164 C 0.45925 0.48799 0.88838 0.0
C1165 C 0.41812 0.49478 0.84436 0.0
C1166 C 0.43225 0.49231 0.85951 0.0
H1167 H 0.47903 0.48385 0.95108 0.0
H1168 H 0.45517 0.48528 0.926 0.0
H1169 H 0.47647 0.50761 0.8741 0.0
H1170 H 0.41389 0.50041 0.79737 0.0
H1171 H 0.43655 0.49481 0.82207 0.0
C1172 C 0.69855 0.78166 0.11273 0.0
C1173 C 0.69763 0.78088 0.13222 0.0
C1174 C 0.70746 0.76953 0.10289 0.0
C1175 C 0.72307 0.7254 0.10628 0.0
H1176 H 0.75105 0.74066 0.06459 0.0
C1177 C 0.76309 0.67823 0.06496 0.0
C1178 C 0.7603 0.67845 0.04534 0.0
C1179 C 0.75704 0.69127 0.0764 0.0
C1180 C 0.74323 0.7362 0.07616 0.0
H1181 H 0.70552 0.76688 0.15673 0.0
H1182 H 0.72132 0.74589 0.13961 0.0
H1183 H 0.73741 0.76238 0.08308 0.0
H1184 H 0.74944 0.69275 0.02235 0.0
H1185 H 0.73899 0.71545 0.04228 0.0
H1186 H 0.72889 0.6992 0.09927 0.0
C1187 C 0.71489 0.75569 0.13186 0.0
C1188 C 0.73535 0.74862 0.08672 0.0
C1189 C 0.7059 0.76777 0.14169 0.0
C1190 C 0.75177 0.69218 0.03741 0.0
C1191 C 0.74588 0.70527 0.04883 0.0
C1192 C 0.73104 0.713 0.09577 0.0
C1193 C 0.71575 0.7564 0.11233 0.0
C1194 C 0.72497 0.74334 0.10175 0.0
C1195 C 0.74827 0.70485 0.06844 0.0
C1196 C 0.741 0.71823 0.08045 0.0
H1197 H 0.69226 0.79155 0.105 0.0
H1198 H 0.70758 0.77029 0.08782 0.0
H1199 H 0.71497 0.72083 0.1176 0.0
H1200 H 0.76962 0.66781 0.07149 0.0
H1201 H 0.75921 0.69071 0.09149 0.0
C1202 C 0.96837 0.05313 0.09196 0.0
C1203 C 0.96105 0.04127 0.07699 0.0
C1204 C 0.96034 0.05278 0.10911 0.0
C1205 C 0.91737 0.03728 0.13064 0.0
H1206 H 0.94869 0.04027 0.17678 0.0
C1207 C 0.88916 0.01984 0.20163 0.0
C1208 C 0.8961 0.0308 0.21743 0.0
C1209 C 0.89713 0.02179 0.18457 0.0
C1210 C 0.93975 0.03963 0.16404 0.0
H1211 H 0.93945 0.01988 0.06823 0.0
H1212 H 0.92559 0.0192 0.09808 0.0
H1213 H 0.96238 0.04283 0.14679 0.0
H1214 H 0.91693 0.05237 0.2277 0.0
H1215 H 0.93077 0.05582 0.19788 0.0
H1216 H 0.89475 0.03396 0.14785 0.0
C1217 C 0.9374 0.02891 0.09655 0.0
C1218 C 0.9476 0.04112 0.14685 0.0
C1219 C 0.94542 0.02923 0.07945 0.0
C1220 C 0.91126 0.04368 0.21581 0.0
C1221 C 0.91926 0.04561 0.19874 0.0
C1222 C 0.90953 0.03579 0.14781 0.0
C1223 C 0.94481 0.04061 0.11162 0.0
C1224 C 0.93649 0.03982 0.12994 0.0
C1225 C 0.91225 0.03473 0.18291 0.0
C1226 C 0.92063 0.03682 0.1647 0.0
H1227 H 0.98038 0.0626 0.09052 0.0
H1228 H 0.96626 0.06211 0.12037 0.0
H1229 H 0.90842 0.03653 0.1179 0.0
H1230 H 0.87753 0.00975 0.2024 0.0
H1231 H 0.89157 0.01301 0.17272 0.0
C1232 C 0.26829 0.81503 0.20338 0.0
C1233 C 0.27126 0.7972 0.20447 0.0
C1234 C 0.26621 0.82257 0.18599 0.0
C1235 C 0.27562 0.81722 0.13633 0.0
H1236 H 0.23678 0.84649 0.12798 0.0
C1237 C 0.25601 0.84179 0.06317 0.0
C1238 C 0.25207 0.85935 0.06235 0.0
C1239 C 0.25817 0.834 0.08043 0.0
C1240 C 0.24782 0.83852 0.13014 0.0
H1241 H 0.27466 0.7734 0.18814 0.0
H1242 H 0.27102 0.7866 0.15779 0.0
H1243 H 0.24138 0.83354 0.1583 0.0
H1244 H 0.24726 0.88247 0.07903 0.0
H1245 H 0.25126 0.86897 0.10909 0.0
H1246 H 0.28215 0.82229 0.10821 0.0
C1247 C 0.27041 0.79475 0.1704 0.0
C1248 C 0.25046 0.8311 0.14752 0.0
C1249 C 0.27241 0.78718 0.18779 0.0
C1250 C 0.2502 0.86889 0.07915 0.0
C1251 C 0.25241 0.86112 0.0964 0.0
C1252 C 0.27303 0.82469 0.11895 0.0
C1253 C 0.26713 0.81249 0.1693 0.0
C1254 C 0.2644 0.82039 0.15082 0.0
C1255 C 0.25648 0.8436 0.09726 0.0
C1256 C 0.25911 0.83545 0.11566 0.0
H1257 H 0.26737 0.82313 0.21596 0.0
H1258 H 0.26396 0.83635 0.18562 0.0
H1259 H 0.28663 0.8092 0.13852 0.0
H1260 H 0.25747 0.83405 0.05049 0.0
H1261 H 0.26103 0.8204 0.08057 0.0
C1262 C 0.99552 0.48357 0.14808 0.0
C1263 C 0.00307 0.48969 0.13167 0.0
C1264 C 0.00578 0.48615 0.16536 0.0
C1265 C 0.05373 0.49285 0.18459 0.0
H1266 H 0.03267 0.5015 0.23166 0.0
C1267 C 0.09727 0.50029 0.25524 0.0
C1268 C 0.08967 0.49121 0.27016 0.0
C1269 C 0.08662 0.50188 0.23862 0.0
C1270 C 0.03871 0.49897 0.21862 0.0
H1271 H 0.02693 0.50423 0.1207 0.0
H1272 H 0.04469 0.50895 0.15087 0.0
H1273 H 0.01399 0.50185 0.20216 0.0
H1274 H 0.06485 0.47684 0.27941 0.0
H1275 H 0.04633 0.47947 0.25034 0.0
H1276 H 0.07834 0.48972 0.20101 0.0
C1277 C 0.03099 0.50181 0.15032 0.0
C1278 C 0.02802 0.49918 0.20174 0.0
C1279 C 0.02076 0.4992 0.13305 0.0
C1280 C 0.07114 0.48391 0.26818 0.0
C1281 C 0.06048 0.48553 0.25157 0.0
C1282 C 0.06441 0.49266 0.20145 0.0
C1283 C 0.02378 0.49496 0.1666 0.0
C1284 C 0.03537 0.49596 0.18453 0.0
C1285 C 0.06812 0.49446 0.23657 0.0
C1286 C 0.05697 0.49555 0.21867 0.0
H1287 H 0.98193 0.4762 0.14752 0.0
H1288 H -0.00014 0.48057 0.17759 0.0
H1289 H 0.05973 0.48998 0.17162 0.0
H1290 H 0.11148 0.50616 0.25635 0.0
H1291 H 0.09285 0.50902 0.2274 0.0
C1292 C 0.33458 0.77211 0.29908 0.0
C1293 C 0.32454 0.75683 0.2901 0.0
C1294 C 0.35092 0.77108 0.30979 0.0
C1295 C 0.388 0.74327 0.31756 0.0
H1296 H 0.39719 0.77096 0.36465 0.0
C1297 C 0.45068 0.7388 0.37037 0.0
C1298 C 0.45959 0.75504 0.37842 0.0
C1299 C 0.43408 0.73814 0.35946 0.0
C1300 C 0.3949 0.76326 0.35147 0.0
H1301 H 0.32445 0.72865 0.28434 0.0
H1302 H 0.35272 0.72671 0.30352 0.0
H1303 H 0.36849 0.77141 0.34586 0.0
H1304 H 0.45817 0.78333 0.38107 0.0
H1305 H 0.42943 0.78217 0.36206 0.0
H1306 H 0.41453 0.73517 0.32325 0.0
C1307 C 0.34787 0.7395 0.30236 0.0
C1308 C 0.37846 0.76353 0.34068 0.0
C1309 C 0.33148 0.74055 0.29163 0.0
C1310 C 0.45166 0.77058 0.37517 0.0
C1311 C 0.4351 0.76992 0.36435 0.0
C1312 C 0.40449 0.74297 0.3284 0.0
C1313 C 0.35768 0.75474 0.31171 0.0
C1314 C 0.37489 0.75372 0.32349 0.0
C1315 C 0.42604 0.75369 0.35648 0.0
C1316 C 0.4082 0.75315 0.34536 0.0
H1317 H 0.32968 0.78489 0.29804 0.0
H1318 H 0.35832 0.78314 0.31648 0.0
H1319 H 0.38575 0.73568 0.30431 0.0
H1320 H 0.45644 0.72659 0.37262 0.0
H1321 H 0.42736 0.72543 0.35366 0.0
C1322 C 0.97264 0.41028 0.03579 0.0
C1323 C 0.98512 0.42593 0.0373 0.0
C1324 C 0.9769 0.39507 0.02638 0.0
C1325 C 0.01629 0.37371 0.01388 0.0
H1326 H 0.98143 0.34468 0.97882 0.0
C1327 C 0.03654 0.31588 0.96875 0.0
C1328 C 0.02351 0.30087 0.96465 0.0
C1329 C 0.03182 0.33085 0.97819 0.0
C1330 C 0.99124 0.35247 0.98881 0.0
H1331 H 0.01161 0.43804 0.02961 0.0
H1332 H 0.01903 0.41148 0.01329 0.0
H1333 H 0.9729 0.3716 0.99345 0.0
H1334 H 0.99551 0.28949 0.96791 0.0
H1335 H 0.98744 0.31537 0.98488 0.0
H1336 H 0.03454 0.35452 0.00957 0.0
C1337 C 0.00602 0.41096 0.0195 0.0
C1338 C 0.98636 0.36793 0.9971 0.0
C1339 C 0.00171 0.4262 0.02874 0.0
C1340 C 0.00584 0.3009 0.97076 0.0
C1341 C 0.00117 0.31581 0.98035 0.0
C1342 C 0.02112 0.35816 0.00574 0.0
C1343 C 0.99378 0.39518 0.01845 0.0
C1344 C 0.99887 0.37875 0.00964 0.0
C1345 C 0.014 0.33109 0.9839 0.0
C1346 C 0.00869 0.34738 0.99303 0.0
H1347 H 0.95974 0.40964 0.04221 0.0
H1348 H 0.96723 0.38307 0.02585 0.0
H1349 H 0.0261 0.38166 0.02374 0.0
H1350 H 0.05023 0.31632 0.96413 0.0
H1351 H 0.042 0.34244 0.98047 0.0
C1352 C 0.65143 0.81261 0.29013 0.0
C1353 C 0.65442 0.83067 0.28622 0.0
C1354 C 0.64003 0.80682 0.30406 0.0
C1355 C 0.6016 0.82006 0.32894 0.0
H1356 H 0.61075 0.78137 0.36054 0.0
C1357 C 0.5534 0.7969 0.38551 0.0
C1358 C 0.54867 0.7785 0.38652 0.0
C1359 C 0.56748 0.80367 0.37471 0.0
C1360 C 0.60796 0.79211 0.35171 0.0
H1361 H 0.64846 0.85692 0.29449 0.0
H1362 H 0.6288 0.84685 0.31897 0.0
H1363 H 0.63368 0.79275 0.33951 0.0
H1364 H 0.55531 0.75276 0.37729 0.0
H1365 H 0.57982 0.7646 0.35831 0.0
H1366 H 0.57583 0.81933 0.34095 0.0
C1367 C 0.63497 0.83711 0.311 0.0
C1368 C 0.62109 0.79863 0.33968 0.0
C1369 C 0.64633 0.84289 0.29704 0.0
C1370 C 0.5586 0.76701 0.37679 0.0
C1371 C 0.57272 0.77379 0.36601 0.0
C1372 C 0.58851 0.81357 0.34098 0.0
C1373 C 0.63141 0.81896 0.31443 0.0
C1374 C 0.618 0.81261 0.32805 0.0
C1375 C 0.57719 0.79221 0.36469 0.0
C1376 C 0.59148 0.79945 0.35242 0.0
H1377 H 0.65745 0.80283 0.28206 0.0
H1378 H 0.63746 0.79274 0.3062 0.0
H1379 H 0.5986 0.83061 0.31992 0.0
H1380 H 0.54612 0.80614 0.39291 0.0
H1381 H 0.57076 0.81792 0.37421 0.0
C1382 C 0.01316 0.07482 0.00205 0.0
C1383 C 0.00924 0.06202 0.98716 0.0
C1384 C 0.0126 0.0928 0.9989 0.0
C1385 C 0.99303 0.1225 0.96578 0.0
H1386 H 0.0328 0.15778 0.9861 0.0
C1387 C 0.99137 0.19723 0.95685 0.0
C1388 C 0.00736 0.20674 0.95093 0.0
C1389 C 0.99144 0.17999 0.96291 0.0
C1390 C 0.02161 0.14807 0.98032 0.0
H1391 H 0.0018 0.05799 0.95732 0.0
H1392 H 0.00074 0.08927 0.95185 0.0
H1393 H 0.033 0.12666 0.99345 0.0
H1394 H 0.03613 0.20578 0.94722 0.0
H1395 H 0.03623 0.17566 0.95779 0.0
H1396 H 0.98179 0.14376 0.95236 0.0
C1397 C 0.00407 0.08544 0.96598 0.0
C1398 C 0.02164 0.13029 0.98467 0.0
C1399 C 0.00481 0.06754 0.96909 0.0
C1400 C 0.02356 0.1988 0.95165 0.0
C1401 C 0.02365 0.18158 0.95782 0.0
C1402 C 0.99293 0.14026 0.96155 0.0
C1403 C 0.00798 0.09827 0.98083 0.0
C1404 C 0.00745 0.1173 0.97725 0.0
C1405 C 0.00753 0.17191 0.96329 0.0
C1406 C 0.0073 0.15321 0.96862 0.0
H1407 H 0.01711 0.07102 0.01602 0.0
H1408 H 0.01569 0.10241 0.01061 0.0
H1409 H 0.98183 0.11281 0.95999 0.0
H1410 H 0.97867 0.20297 0.95655 0.0
H1411 H 0.97886 0.17296 0.96725 0.0
C1412 C 0.32812 0.28986 0.26658 0.0
C1413 C 0.33212 0.29759 0.28478 0.0
C1414 C 0.34206 0.28874 0.25453 0.0
C1415 C 0.39006 0.3067 0.24729 0.0
H1416 H 0.38933 0.26247 0.21836 0.0
C1417 C 0.44394 0.29637 0.19441 0.0
C1418 C 0.45064 0.27989 0.19421 0.0
C1419 C 0.429 0.2991 0.20462 0.0
C1420 C 0.38979 0.27487 0.22642 0.0
H1421 H 0.35385 0.31052 0.30449 0.0
H1422 H 0.37818 0.30833 0.2836 0.0
H1423 H 0.36428 0.26647 0.23779 0.0
H1424 H 0.44695 0.25337 0.20466 0.0
H1425 H 0.42113 0.25821 0.22265 0.0
H1426 H 0.41589 0.31485 0.23639 0.0
C1427 C 0.36424 0.30335 0.27851 0.0
C1428 C 0.37531 0.27726 0.23738 0.0
C1429 C 0.3503 0.30451 0.29054 0.0
C1430 C 0.44209 0.26621 0.20444 0.0
C1431 C 0.4272 0.26895 0.21467 0.0
C1432 C 0.40457 0.30429 0.23634 0.0
C1433 C 0.36033 0.29529 0.26043 0.0
C1434 C 0.37533 0.29315 0.24806 0.0
C1435 C 0.42045 0.28541 0.21487 0.0
C1436 C 0.40469 0.28829 0.22591 0.0
H1437 H 0.31424 0.28448 0.26168 0.0
H1438 H 0.33853 0.2827 0.24059 0.0
H1439 H 0.3904 0.31917 0.25518 0.0
H1440 H 0.45019 0.30717 0.18662 0.0
H1441 H 0.42402 0.31187 0.2043 0.0
C1442 C 0.54501 0.40691 0.00461 0.0
C1443 C 0.53705 0.42267 0.00616 0.0
C1444 C 0.54177 0.39372 0.01748 0.0
C1445 C 0.50976 0.3774 0.05222 0.0
H1446 H 0.55047 0.35441 0.07202 0.0
C1447 C 0.50408 0.33149 0.11462 0.0
C1448 C 0.51281 0.31613 0.11375 0.0
C1449 C 0.50681 0.34433 0.10128 0.0
C1450 C 0.5389 0.36053 0.06647 0.0
H1451 H 0.51934 0.43688 0.02237 0.0
H1452 H 0.51377 0.41389 0.04487 0.0
H1453 H 0.55555 0.37699 0.04903 0.0
H1454 H 0.53111 0.30216 0.09806 0.0
H1455 H 0.53568 0.32444 0.0747 0.0
H1456 H 0.4931 0.36093 0.06964 0.0
C1457 C 0.52238 0.41167 0.0336 0.0
C1458 C 0.54182 0.37348 0.05329 0.0
C1459 C 0.52565 0.42488 0.02076 0.0
C1460 C 0.52424 0.31387 0.0992 0.0
C1461 C 0.52695 0.3267 0.08585 0.0
C1462 C 0.50682 0.36442 0.06538 0.0
C1463 C 0.53047 0.39597 0.03216 0.0
C1464 C 0.52729 0.38208 0.04603 0.0
C1465 C 0.5183 0.3421 0.08676 0.0
C1466 C 0.52137 0.35584 0.07268 0.0
H1467 H 0.55382 0.40477 0.9935 0.0
H1468 H 0.54802 0.38168 0.01585 0.0
H1469 H 0.49823 0.3836 0.0467 0.0
H1470 H 0.49522 0.33366 0.12568 0.0
H1471 H 0.50013 0.35614 0.10253 0.0
C1472 C 0.67591 0.27815 0.26149 0.0
C1473 C 0.67855 0.27802 0.28112 0.0
C1474 C 0.65863 0.27935 0.25279 0.0
C1475 C 0.61366 0.29314 0.26103 0.0
H1476 H 0.5978 0.26381 0.21591 0.0
C1477 C 0.54034 0.28832 0.22458 0.0
C1478 C 0.53888 0.28799 0.20487 0.0
C1479 C 0.55718 0.28726 0.23444 0.0
C1480 C 0.60209 0.27223 0.22838 0.0
H1481 H 0.66508 0.2792 0.30703 0.0
H1482 H 0.63479 0.2812 0.29176 0.0
H1483 H 0.62743 0.26153 0.23217 0.0
H1484 H 0.55407 0.28661 0.18009 0.0
H1485 H 0.58338 0.28496 0.19727 0.0
H1486 H 0.58827 0.30387 0.25715 0.0
C1487 C 0.64618 0.28051 0.28314 0.0
C1488 C 0.61908 0.27092 0.23771 0.0
C1489 C 0.66351 0.27928 0.29187 0.0
C1490 C 0.55468 0.28682 0.19527 0.0
C1491 C 0.57147 0.28576 0.20511 0.0
C1492 C 0.59663 0.29446 0.25167 0.0
C1493 C 0.64353 0.28046 0.26348 0.0
C1494 C 0.62514 0.28146 0.25404 0.0
C1495 C 0.57291 0.28581 0.2248 0.0
C1496 C 0.59073 0.28413 0.23514 0.0
H1497 H 0.6872 0.27728 0.25278 0.0
H1498 H 0.65712 0.27957 0.23764 0.0
H1499 H 0.61801 0.30157 0.27347 0.0
H1500 H 0.52843 0.28918 0.2324 0.0
H1501 H 0.55779 0.28719 0.2496 0.0
C1502 C 0.49892 0.10348 0.07197 0.0
C1503 C 0.49387 0.10368 0.05268 0.0
C1504 C 0.49735 0.11808 0.0839 0.0
C1505 C 0.47561 0.15918 0.08769 0.0
H1506 H 0.51781 0.17533 0.12221 0.0
C1507 C 0.48745 0.22913 0.1243 0.0
C1508 C 0.49529 0.23085 0.14286 0.0
C1509 C 0.4858 0.21287 0.11416 0.0
C1510 C 0.50578 0.17087 0.11289 0.0
H1511 H 0.48259 0.11913 0.03091 0.0
H1512 H 0.47997 0.14463 0.0517 0.0
H1513 H 0.5172 0.14807 0.10318 0.0
H1514 H 0.50704 0.21672 0.1655 0.0
H1515 H 0.50392 0.18834 0.14792 0.0
H1516 H 0.46428 0.18213 0.09729 0.0
C1517 C 0.48503 0.13314 0.05763 0.0
C1518 C 0.50544 0.15523 0.10197 0.0
C1519 C 0.48663 0.11855 0.0457 0.0
C1520 C 0.50107 0.21588 0.15119 0.0
C1521 C 0.49936 0.19962 0.14108 0.0
C1522 C 0.47593 0.17483 0.09866 0.0
C1523 C 0.49066 0.13318 0.07681 0.0
C1524 C 0.49042 0.14927 0.08914 0.0
C1525 C 0.4919 0.19796 0.12238 0.0
C1526 C 0.49109 0.18093 0.11128 0.0
H1527 H 0.50445 0.09219 0.07783 0.0
H1528 H 0.50156 0.11762 0.09866 0.0
H1529 H 0.46376 0.15482 0.07809 0.0
H1530 H 0.48289 0.24041 0.11746 0.0
H1531 H 0.48019 0.21211 0.09972 0.0
C1532 C 0.21163 0.36381 0.72217 0.0
C1533 C 0.21318 0.35605 0.70432 0.0
C1534 C 0.22484 0.37751 0.7298 0.0
C1535 C 0.25986 0.41241 0.71606 0.0
H1536 H 0.28081 0.41163 0.76722 0.0
C1537 C 0.31122 0.47012 0.74965 0.0
C1538 C 0.32712 0.4653 0.75898 0.0
C1539 C 0.29626 0.45733 0.74434 0.0
C1540 C 0.27507 0.412 0.75291 0.0
H1541 H 0.22966 0.35676 0.68038 0.0
H1542 H 0.25256 0.38066 0.69361 0.0
H1543 H 0.25673 0.38806 0.75501 0.0
H1544 H 0.33952 0.44336 0.77062 0.0
H1545 H 0.31338 0.42104 0.7613 0.0
H1546 H 0.27837 0.4361 0.71377 0.0
C1547 C 0.24115 0.37618 0.70172 0.0
C1548 C 0.2612 0.39861 0.74598 0.0
C1549 C 0.22805 0.36245 0.69417 0.0
C1550 C 0.3275 0.44751 0.7634 0.0
C1551 C 0.31249 0.43473 0.75817 0.0
C1552 C 0.2736 0.42583 0.72301 0.0
C1553 C 0.23969 0.38387 0.7196 0.0
C1554 C 0.25363 0.39857 0.7274 0.0
C1555 C 0.29682 0.43947 0.74834 0.0
C1556 C 0.2815 0.42569 0.74144 0.0
H1557 H 0.19999 0.35973 0.73005 0.0
H1558 H 0.22321 0.3834 0.74349 0.0
H1559 H 0.25415 0.41282 0.70175 0.0
H1560 H 0.31043 0.48373 0.74612 0.0
H1561 H 0.28428 0.46142 0.73699 0.0
C1562 C 0.31146 0.6935 0.79104 0.0
C1563 C 0.29298 0.69524 0.7931 0.0
C1564 C 0.31744 0.67681 0.79102 0.0
C1565 C 0.30524 0.63055 0.80421 0.0
H1566 H 0.33657 0.61977 0.76522 0.0
C1567 C 0.31949 0.55923 0.78551 0.0
C1568 C 0.33715 0.55693 0.78058 0.0
C1569 C 0.31466 0.57625 0.78839 0.0
C1570 C 0.32806 0.62262 0.77638 0.0
H1571 H 0.26638 0.68086 0.79728 0.0
H1572 H 0.27682 0.65171 0.79718 0.0
H1573 H 0.3273 0.64925 0.76812 0.0
H1574 H 0.36376 0.5707 0.77534 0.0
H1575 H 0.35543 0.60032 0.78064 0.0
H1576 H 0.30595 0.60386 0.81241 0.0
C1577 C 0.28671 0.66328 0.79569 0.0
C1578 C 0.32273 0.63953 0.77803 0.0
C1579 C 0.28071 0.67997 0.79565 0.0
C1580 C 0.34999 0.572 0.77898 0.0
C1581 C 0.34518 0.589 0.78192 0.0
C1582 C 0.31063 0.61363 0.8026 0.0
C1583 C 0.30509 0.66149 0.79312 0.0
C1584 C 0.31121 0.64367 0.7919 0.0
C1585 C 0.3274 0.59134 0.78646 0.0
C1586 C 0.32204 0.60944 0.78861 0.0
H1587 H 0.32129 0.70501 0.78913 0.0
H1588 H 0.33174 0.67589 0.78927 0.0
H1589 H 0.29652 0.63341 0.81518 0.0
H1590 H 0.30927 0.5479 0.78683 0.0
H1591 H 0.30079 0.57757 0.79166 0.0
C1592 C 0.92832 0.50339 0.53747 0.0
C1593 C 0.92703 0.51597 0.52372 0.0
C1594 C 0.91306 0.49142 0.54089 0.0
C1595 C 0.86257 0.48433 0.53466 0.0
H1596 H 0.86851 0.43488 0.54044 0.0
C1597 C 0.80097 0.42932 0.53354 0.0
C1598 C 0.80209 0.41554 0.54594 0.0
C1599 C 0.81619 0.44186 0.53159 0.0
C1600 C 0.86665 0.44868 0.53912 0.0
H1601 H 0.90865 0.52595 0.50288 0.0
H1602 H 0.88205 0.50503 0.5088 0.0
H1603 H 0.8951 0.45628 0.53573 0.0
H1604 H 0.82003 0.40428 0.56621 0.0
H1605 H 0.84651 0.42631 0.56298 0.0
H1606 H 0.83412 0.47675 0.53803 0.0
C1607 C 0.89483 0.50451 0.51705 0.0
C1608 C 0.88189 0.46094 0.5364 0.0
C1609 C 0.9101 0.51644 0.51359 0.0
C1610 C 0.81872 0.41468 0.55647 0.0
C1611 C 0.83394 0.42725 0.55454 0.0
C1612 C 0.84733 0.47208 0.53743 0.0
C1613 C 0.89615 0.49182 0.53068 0.0
C1614 C 0.88001 0.47888 0.53404 0.0
C1615 C 0.83288 0.44095 0.54201 0.0
C1616 C 0.84917 0.45408 0.53959 0.0
H1617 H 0.94115 0.50271 0.54555 0.0
H1618 H 0.91447 0.48194 0.55163 0.0
H1619 H 0.86072 0.49811 0.53317 0.0
H1620 H 0.78838 0.43034 0.52516 0.0
H1621 H 0.81495 0.45208 0.52162 0.0
C1622 C 0.75405 0.86219 0.82619 0.0
C1623 C 0.74711 0.84634 0.81601 0.0
C1624 C 0.74571 0.87751 0.82379 0.0
C1625 C 0.71297 0.89783 0.79209 0.0
H1626 H 0.70792 0.92669 0.83679 0.0
C1627 C 0.66466 0.95194 0.79396 0.0
C1628 C 0.67158 0.96812 0.80358 0.0
C1629 C 0.67453 0.93746 0.79479 0.0
C1630 C 0.7094 0.91888 0.82415 0.0
H1631 H 0.72617 0.83422 0.79501 0.0
H1632 H 0.71137 0.86082 0.7911 0.0
H1633 H 0.72404 0.9008 0.8393 0.0
H1634 H 0.69434 0.98178 0.82155 0.0
H1635 H 0.71149 0.95645 0.82307 0.0
H1636 H 0.69793 0.9158 0.77705 0.0
C1637 C 0.72345 0.86153 0.80073 0.0
C1638 C 0.71869 0.90405 0.82557 0.0
C1639 C 0.73188 0.84624 0.80305 0.0
C1640 C 0.6886 0.96951 0.81399 0.0
C1641 C 0.6984 0.95498 0.81494 0.0
C1642 C 0.70356 0.91261 0.79071 0.0
C1643 C 0.73014 0.87731 0.81123 0.0
C1644 C 0.72059 0.89332 0.80956 0.0
C1645 C 0.69145 0.9388 0.80538 0.0
C1646 C 0.70167 0.92327 0.80673 0.0
H1647 H 0.76586 0.86277 0.83618 0.0
H1648 H 0.75145 0.88951 0.83183 0.0
H1649 H 0.71441 0.89003 0.77944 0.0
H1650 H 0.6516 0.95044 0.78579 0.0
H1651 H 0.66876 0.9251 0.78742 0.0
C1652 C 0.59637 0.51899 0.01287 0.0
C1653 C 0.59505 0.5063 0.9979 0.0
C1654 C 0.61292 0.52972 0.01797 0.0
C1655 C 0.6629 0.53421 0.01173 0.0
H1656 H 0.66062 0.58385 0.02434 0.0
C1657 C 0.72552 0.58828 0.01315 0.0
C1658 C 0.72801 0.60075 0.02841 0.0
C1659 C 0.70956 0.57619 0.01048 0.0
C1660 C 0.66147 0.56998 0.02104 0.0
H1661 H 0.61017 0.49471 0.97674 0.0
H1662 H 0.63884 0.51366 0.98531 0.0
H1663 H 0.63236 0.5636 0.01799 0.0
H1664 H 0.71569 0.61031 0.05282 0.0
H1665 H 0.68774 0.58927 0.04803 0.0
H1666 H 0.69207 0.54081 0.01432 0.0
C1667 C 0.62723 0.51513 0.9934 0.0
C1668 C 0.64527 0.55834 0.01746 0.0
C1669 C 0.61073 0.50431 0.9884 0.0
C1670 C 0.7142 0.60087 0.04093 0.0
C1671 C 0.69816 0.58889 0.03815 0.0
C1672 C 0.67909 0.54589 0.01516 0.0
C1673 C 0.62849 0.52811 0.00811 0.0
C1674 C 0.64577 0.54031 0.01268 0.0
C1675 C 0.69568 0.57643 0.0229 0.0
C1676 C 0.67853 0.56391 0.01977 0.0
H1677 H 0.58458 0.52078 0.02057 0.0
H1678 H 0.61347 0.53934 0.02961 0.0
H1679 H 0.66381 0.52037 0.00841 0.0
H1680 H 0.73591 0.58784 0.00325 0.0
H1681 H 0.70793 0.56685 0.99849 0.0
C1682 C 0.25609 0.66871 0.33009 0.0
C1683 C 0.26469 0.67165 0.31338 0.0
C1684 C 0.2449 0.65278 0.33231 0.0
C1685 C 0.23259 0.60663 0.31247 0.0
H1686 H 0.18623 0.61063 0.33348 0.0
C1687 C 0.17988 0.54531 0.32199 0.0
C1688 C 0.16144 0.54699 0.31702 0.0
C1689 C 0.1932 0.56017 0.32322 0.0
C1690 C 0.19908 0.60929 0.32751 0.0
H1691 H 0.26881 0.6599 0.28616 0.0
H1692 H 0.24913 0.6323 0.28992 0.0
H1693 H 0.20863 0.6369 0.33248 0.0
H1694 H 0.14253 0.56563 0.30956 0.0
H1695 H 0.16578 0.59149 0.31142 0.0
H1696 H 0.22272 0.57915 0.30683 0.0
C1697 C 0.25117 0.64219 0.30141 0.0
C1698 C 0.21204 0.62431 0.32716 0.0
C1699 C 0.26239 0.65808 0.29922 0.0
C1700 C 0.1566 0.56388 0.31348 0.0
C1701 C 0.16992 0.57873 0.31467 0.0
C1702 C 0.21961 0.59161 0.31279 0.0
C1703 C 0.24205 0.63947 0.31786 0.0
C1704 C 0.22887 0.62321 0.31945 0.0
C1705 C 0.1884 0.57705 0.31947 0.0
C1706 C 0.20261 0.5928 0.32011 0.0
H1707 H 0.25767 0.67884 0.34133 0.0
H1708 H 0.23831 0.65099 0.34528 0.0
H1709 H 0.2455 0.60528 0.30662 0.0
H1710 H 0.18406 0.53249 0.32489 0.0
H1711 H 0.20727 0.55845 0.32719 0.0
C1712 C 0.90806 0.50775 0.07585 0.0
C1713 C 0.92551 0.5084 0.06904 0.0
C1714 C 0.89714 0.52106 0.07195 0.0
C1715 C 0.89029 0.55593 0.03881 0.0
H1716 H 0.8624 0.57373 0.07765 0.0
C1717 C 0.84738 0.61344 0.02682 0.0
C1718 C 0.82976 0.6112 0.03335 0.0
C1719 C 0.86002 0.60194 0.03196 0.0
C1720 C 0.87 0.5688 0.06662 0.0
H1721 H 0.94518 0.52355 0.05279 0.0
H1722 H 0.92613 0.54682 0.04604 0.0
H1723 H 0.88254 0.55148 0.08491 0.0
H1724 H 0.81175 0.59535 0.05073 0.0
H1725 H 0.83368 0.57526 0.05952 0.0
H1726 H 0.87758 0.57308 0.02045 0.0
C1727 C 0.92084 0.53593 0.05427 0.0
C1728 C 0.88152 0.55605 0.07077 0.0
C1729 C 0.93178 0.52263 0.05821 0.0
C1730 C 0.82521 0.59747 0.04546 0.0
C1731 C 0.83783 0.586 0.0506 0.0
C1732 C 0.87874 0.56867 0.03465 0.0
C1733 C 0.9034 0.53531 0.06112 0.0
C1734 C 0.89168 0.54935 0.05688 0.0
C1735 C 0.85532 0.58798 0.04376 0.0
C1736 C 0.86834 0.57515 0.04846 0.0
H1737 H 0.9028 0.49696 0.08421 0.0
H1738 H 0.88367 0.52006 0.07721 0.0
H1739 H 0.89776 0.55089 0.02774 0.0
H1740 H 0.85135 0.62392 0.01752 0.0
H1741 H 0.87347 0.60397 0.02666 0.0
C1742 C 0.07567 0.98019 0.97144 0.0
C1743 C 0.06641 0.98421 0.98723 0.0
C1744 C 0.09251 0.97366 0.97353 0.0
C1745 C 0.1202 0.95002 0.00629 0.0
H1746 H 0.15988 0.9667 0.97607 0.0
C1747 C 0.19166 0.92723 0.01724 0.0
C1748 C 0.20056 0.92357 0.00109 0.0
C1749 C 0.17571 0.93535 0.01595 0.0
C1750 C 0.14887 0.96175 0.98447 0.0
H1751 H 0.06769 0.98474 0.01763 0.0
H1752 H 0.0971 0.97335 0.02126 0.0
H1753 H 0.13132 0.97965 0.97306 0.0
H1754 H 0.19966 0.9256 0.97089 0.0
H1755 H 0.17169 0.93947 0.96859 0.0
H1756 H 0.13758 0.93193 0.0175 0.0
C1757 C 0.09125 0.97512 0.00725 0.0
C1758 C 0.13252 0.9692 0.98277 0.0
C1759 C 0.07445 0.98174 0.00517 0.0
C1760 C 0.1932 0.92829 0.98362 0.0
C1761 C 0.17721 0.93635 0.98232 0.0
C1762 C 0.13651 0.94251 0.00794 0.0
C1763 C 0.10042 0.97093 0.99145 0.0
C1764 C 0.11798 0.96337 0.99361 0.0
C1765 C 0.16824 0.93995 0.99846 0.0
C1766 C 0.15103 0.94824 0.997 0.0
H1767 H 0.06984 0.98193 0.95742 0.0
H1768 H 0.09915 0.97038 0.96108 0.0
H1769 H 0.10915 0.94506 0.01464 0.0
H1770 H 0.19703 0.92385 0.03093 0.0
H1771 H 0.16932 0.93817 0.02869 0.0
loop_
_geom_bond_atom_site_label_1
_geom_bond_atom_site_label_2
_geom_bond_distance
_geom_bond_site_symmetry_2
_ccdc_geom_bond_type
O0 Cd1 2.300 . S
O0 C7 1.275 . S
Cd1 O0 2.300 . S
Cd1 O9 2.381 . S
Cd1 O10 2.378 . S
O2 Cd3 2.385 . S
O2 C7 1.255 . S
Cd3 O2 2.385 . S
Cd3 O4 2.317 . S
O4 Cd3 2.317 . S
O4 C5 1.232 . S
C5 O4 1.232 . S
C5 O6 1.218 . S
O6 C5 1.218 . S
C7 O0 1.275 . S
C7 O2 1.255 . S
C8 O9 1.258 . S
C8 O10 1.256 . S
O9 Cd1 2.381 . S
O9 C8 1.258 . S
O10 Cd1 2.378 . S
O10 C8 1.256 . S
O11 Cd12 2.300 . S
O11 C18 1.275 . S
Cd12 O11 2.300 . S
Cd12 O20 2.381 . S
Cd12 O21 2.378 . S
O13 Cd14 2.385 . S
O13 C18 1.255 . S
Cd14 O13 2.385 . S
Cd14 O15 2.317 . S
O15 Cd14 2.317 . S
O15 C16 1.232 . S
C16 O15 1.232 . S
C16 O17 1.218 . S
O17 C16 1.218 . S
C18 O11 1.275 . S
C18 O13 1.255 . S
C19 O20 1.258 . S
C19 O21 1.256 . S
O20 Cd12 2.381 . S
O20 C19 1.258 . S
O21 Cd12 2.378 . S
O21 C19 1.256 . S
O22 Cd23 2.300 . S
O22 C29 1.275 . S
Cd23 O22 2.300 . S
Cd23 O31 2.381 . S
Cd23 O32 2.378 . S
O24 Cd25 2.385 . S
O24 C29 1.255 . S
Cd25 O24 2.385 . S
Cd25 O26 2.317 . S
O26 Cd25 2.317 . S
O26 C27 1.232 . S
C27 O26 1.232 . S
C27 O28 1.218 . S
O28 C27 1.218 . S
C29 O22 1.275 . S
C29 O24 1.255 . S
C30 O31 1.258 . S
C30 O32 1.256 . S
O31 Cd23 2.381 . S
O31 C30 1.258 . S
O32 Cd23 2.378 . S
O32 C30 1.256 . S
O33 Cd34 2.300 . S
O33 C40 1.275 . S
Cd34 O33 2.300 . S
Cd34 O42 2.381 . S
Cd34 O43 2.378 . S
O35 Cd36 2.385 . S
O35 C40 1.255 . S
Cd36 O35 2.385 . S
Cd36 O37 2.317 . S
O37 Cd36 2.317 . S
O37 C38 1.232 . S
C38 O37 1.232 . S
C38 O39 1.218 . S
O39 C38 1.218 . S
C40 O33 1.275 . S
C40 O35 1.255 . S
C41 O42 1.258 . S
C41 O43 1.256 . S
O42 Cd34 2.381 . S
O42 C41 1.258 . S
O43 Cd34 2.378 . S
O43 C41 1.256 . S
O44 Cd45 2.300 . S
O44 C51 1.275 . S
Cd45 O44 2.300 . S
Cd45 O53 2.381 . S
Cd45 O54 2.378 . S
O46 Cd47 2.385 . S
O46 C51 1.255 1_545 S
Cd47 O46 2.385 . S
Cd47 O48 2.317 1_545 S
O48 Cd47 2.317 1_565 S
O48 C49 1.232 . S
C49 O48 1.232 . S
C49 O50 1.218 1_565 S
O50 C49 1.218 1_545 S
C51 O44 1.275 . S
C51 O46 1.255 1_565 S
C52 O53 1.258 . S
C52 O54 1.256 . S
O53 Cd45 2.381 . S
O53 C52 1.258 . S
O54 Cd45 2.378 . S
O54 C52 1.256 . S
O55 Cd56 2.300 . S
O55 C62 1.275 . S
Cd56 O55 2.300 . S
Cd56 O64 2.381 . S
Cd56 O65 2.378 . S
O57 Cd58 2.385 . S
O57 C62 1.255 . S
Cd58 O57 2.385 . S
Cd58 O59 2.317 . S
O59 Cd58 2.317 . S
O59 C60 1.232 . S
C60 O59 1.232 . S
C60 O61 1.218 . S
O61 C60 1.218 . S
C62 O55 1.275 . S
C62 O57 1.255 . S
C63 O64 1.258 . S
C63 O65 1.256 . S
O64 Cd56 2.381 . S
O64 C63 1.258 . S
O65 Cd56 2.378 . S
O65 C63 1.256 . S
O66 Cd67 2.300 . S
O66 C73 1.275 . S
Cd67 O66 2.300 . S
Cd67 O75 2.381 . S
Cd67 O76 2.378 . S
O68 Cd69 2.385 1_655 S
O68 C73 1.255 . S
Cd69 O68 2.385 1_455 S
Cd69 O70 2.317 1_455 S
O70 Cd69 2.317 1_655 S
O70 C71 1.232 . S
C71 O70 1.232 . S
C71 O72 1.218 1_655 S
O72 C71 1.218 1_455 S
C73 O66 1.275 . S
C73 O68 1.255 . S
C74 O75 1.258 . S
C74 O76 1.256 . S
O75 Cd67 2.381 . S
O75 C74 1.258 . S
O76 Cd67 2.378 . S
O76 C74 1.256 . S
O77 Cd78 2.300 . S
O77 C84 1.275 . S
Cd78 O77 2.300 . S
Cd78 O86 2.381 . S
Cd78 O87 2.378 . S
O79 Cd80 2.385 . S
O79 C84 1.255 . S
Cd80 O79 2.385 . S
Cd80 O81 2.317 . S
O81 Cd80 2.317 . S
O81 C82 1.232 . S
C82 O81 1.232 . S
C82 O83 1.218 . S
O83 C82 1.218 . S
C84 O77 1.275 . S
C84 O79 1.255 . S
C85 O86 1.258 . S
C85 O87 1.256 . S
O86 Cd78 2.381 . S
O86 C85 1.258 . S
O87 Cd78 2.378 . S
O87 C85 1.256 . S
O88 Cd89 2.300 . S
O88 C95 1.275 . S
Cd89 O88 2.300 . S
Cd89 O97 2.381 . S
Cd89 O98 2.378 . S
O90 Cd91 2.385 . S
O90 C95 1.255 . S
Cd91 O90 2.385 . S
Cd91 O92 2.317 . S
O92 Cd91 2.317 . S
O92 C93 1.232 . S
C93 O92 1.232 . S
C93 O94 1.218 . S
O94 C93 1.218 . S
C95 O88 1.275 . S
C95 O90 1.255 . S
C96 O97 1.258 . S
C96 O98 1.256 . S
O97 Cd89 2.381 . S
O97 C96 1.258 . S
O98 Cd89 2.378 . S
O98 C96 1.256 . S
O99 Cd100 2.300 . S
O99 C106 1.275 . S
Cd100 O99 2.300 . S
Cd100 O108 2.381 1_565 S
Cd100 O109 2.378 1_565 S
O101 Cd102 2.385 . S
O101 C106 1.255 . S
Cd102 O101 2.385 . S
Cd102 O103 2.317 . S
O103 Cd102 2.317 . S
O103 C104 1.232 . S
C104 O103 1.232 . S
C104 O105 1.218 . S
O105 C104 1.218 . S
C106 O99 1.275 . S
C106 O101 1.255 . S
C107 O108 1.258 . S
C107 O109 1.256 . S
O108 Cd100 2.381 1_545 S
O108 C107 1.258 . S
O109 Cd100 2.378 1_545 S
O109 C107 1.256 . S
O110 Cd111 2.300 . S
O110 C117 1.275 . S
Cd111 O110 2.300 . S
Cd111 O119 2.381 . S
Cd111 O120 2.378 . S
O112 Cd113 2.385 . S
O112 C117 1.255 . S
Cd113 O112 2.385 . S
Cd113 O114 2.317 . S
O114 Cd113 2.317 . S
O114 C115 1.232 . S
C115 O114 1.232 . S
C115 O116 1.218 . S
O116 C115 1.218 . S
C117 O110 1.275 . S
C117 O112 1.255 . S
C118 O119 1.258 . S
C118 O120 1.256 . S
O119 Cd111 2.381 . S
O119 C118 1.258 . S
O120 Cd111 2.378 . S
O120 C118 1.256 . S
O121 Cd122 2.300 . S
O121 C128 1.275 . S
Cd122 O121 2.300 . S
Cd122 O130 2.381 . S
Cd122 O131 2.378 . S
O123 Cd124 2.385 . S
O123 C128 1.255 . S
Cd124 O123 2.385 . S
Cd124 O125 2.317 . S
O125 Cd124 2.317 . S
O125 C126 1.232 . S
C126 O125 1.232 . S
C126 O127 1.218 . S
O127 C126 1.218 . S
C128 O121 1.275 . S
C128 O123 1.255 . S
C129 O130 1.258 . S
C129 O131 1.256 . S
O130 Cd122 2.381 . S
O130 C129 1.258 . S
O131 Cd122 2.378 . S
O131 C129 1.256 . S
O132 Cd133 2.300 . S
O132 C139 1.275 . S
Cd133 O132 2.300 . S
Cd133 O141 2.381 . S
Cd133 O142 2.378 . S
O134 Cd135 2.385 . S
O134 C139 1.255 . S
Cd135 O134 2.385 . S
Cd135 O136 2.317 . S
O136 Cd135 2.317 . S
O136 C137 1.232 . S
C137 O136 1.232 . S
C137 O138 1.218 . S
O138 C137 1.218 . S
C139 O132 1.275 . S
C139 O134 1.255 . S
C140 O141 1.258 . S
C140 O142 1.256 . S
O141 Cd133 2.381 . S
O141 C140 1.258 . S
O142 Cd133 2.378 . S
O142 C140 1.256 . S
O143 Cd144 2.300 . S
O143 C150 1.275 . S
Cd144 O143 2.300 . S
Cd144 O152 2.381 1_556 S
Cd144 O153 2.378 1_556 S
O145 Cd146 2.385 . S
O145 C150 1.255 . S
Cd146 O145 2.385 . S
Cd146 O147 2.317 . S
O147 Cd146 2.317 . S
O147 C148 1.232 . S
C148 O147 1.232 . S
C148 O149 1.218 . S
O149 C148 1.218 . S
C150 O143 1.275 . S
C150 O145 1.255 . S
C151 O152 1.258 . S
C151 O153 1.256 . S
O152 Cd144 2.381 1_554 S
O152 C151 1.258 . S
O153 Cd144 2.378 1_554 S
O153 C151 1.256 . S
O154 Cd155 2.300 . S
O154 C161 1.275 . S
Cd155 O154 2.300 . S
Cd155 O163 2.381 . S
Cd155 O164 2.378 . S
O156 Cd157 2.385 . S
O156 C161 1.255 . S
Cd157 O156 2.385 . S
Cd157 O158 2.317 . S
O158 Cd157 2.317 . S
O158 C159 1.232 . S
C159 O158 1.232 . S
C159 O160 1.218 . S
O160 C159 1.218 . S
C161 O154 1.275 . S
C161 O156 1.255 . S
C162 O163 1.258 . S
C162 O164 1.256 . S
O163 Cd155 2.381 . S
O163 C162 1.258 . S
O164 Cd155 2.378 . S
O164 C162 1.256 . S
O165 Cd166 2.300 1_556 S
O165 C172 1.275 . S
Cd166 O165 2.300 1_554 S
Cd166 O174 2.381 1_554 S
Cd166 O175 2.378 . S
O167 Cd168 2.385 1_556 S
O167 C172 1.255 . S
Cd168 O167 2.385 1_554 S
Cd168 O169 2.317 . S
O169 Cd168 2.317 . S
O169 C170 1.232 . S
C170 O169 1.232 . S
C170 O171 1.218 . S
O171 C170 1.218 . S
C172 O165 1.275 . S
C172 O167 1.255 . S
C173 O174 1.258 1_554 S
C173 O175 1.256 . S
O174 Cd166 2.381 1_556 S
O174 C173 1.258 1_556 S
O175 Cd166 2.378 . S
O175 C173 1.256 . S
C176 O177 1.160 . S
C176 O183 1.185 . S
O177 C176 1.160 . S
O178 Zn179 1.899 . S
O178 C186 1.284 1_554 S
Zn179 O178 1.899 . S
Zn179 O180 2.032 . S
Zn179 O183 2.086 . S
Zn179 O188 1.977 . S
O180 Zn179 2.032 . S
O180 C184 1.278 . S
C181 O182 1.203 . S
C181 O188 1.267 . S
O182 C181 1.203 . S
O183 C176 1.185 . S
O183 Zn179 2.086 . S
C184 O180 1.278 . S
C184 O185 1.211 . S
O185 C184 1.211 . S
C186 O178 1.284 1_556 S
C186 O187 1.273 . S
O187 C186 1.273 . S
O188 Zn179 1.977 . S
O188 C181 1.267 . S
C189 O190 1.160 . S
C189 O196 1.185 . S
O190 C189 1.160 . S
O191 Zn192 1.899 . S
O191 C199 1.284 . S
Zn192 O191 1.899 . S
Zn192 O193 2.032 . S
Zn192 O196 2.086 . S
Zn192 O201 1.977 . S
O193 Zn192 2.032 . S
O193 C197 1.278 . S
C194 O195 1.203 . S
C194 O201 1.267 . S
O195 C194 1.203 . S
O196 C189 1.185 . S
O196 Zn192 2.086 . S
C197 O193 1.278 . S
C197 O198 1.211 . S
O198 C197 1.211 . S
C199 O191 1.284 . S
C199 O200 1.273 . S
O200 C199 1.273 . S
O201 Zn192 1.977 . S
O201 C194 1.267 . S
C202 O203 1.160 1_554 S
C202 O209 1.185 . S
O203 C202 1.160 1_556 S
O204 Zn205 1.899 1_556 S
O204 C212 1.284 . S
Zn205 O204 1.899 1_554 S
Zn205 O206 2.032 . S
Zn205 O209 2.086 . S
Zn205 O214 1.977 . S
O206 Zn205 2.032 . S
O206 C210 1.278 . S
C207 O208 1.203 . S
C207 O214 1.267 . S
O208 C207 1.203 . S
O209 C202 1.185 . S
O209 Zn205 2.086 . S
C210 O206 1.278 . S
C210 O211 1.211 . S
O211 C210 1.211 . S
C212 O204 1.284 . S
C212 O213 1.273 . S
O213 C212 1.273 . S
O214 Zn205 1.977 . S
O214 C207 1.267 . S
C215 O216 1.160 . S
C215 O222 1.185 . S
O216 C215 1.160 . S
O217 Zn218 1.899 . S
O217 C225 1.284 . S
Zn218 O217 1.899 . S
Zn218 O219 2.032 . S
Zn218 O222 2.086 . S
Zn218 O227 1.977 . S
O219 Zn218 2.032 . S
O219 C223 1.283 1_545 S
C220 O221 1.203 . S
C220 O227 1.267 . S
O221 C220 1.203 . S
O222 C215 1.185 . S
O222 Zn218 2.086 . S
C223 O219 1.283 1_565 S
C223 O224 1.209 . S
O224 C223 1.209 . S
C225 O217 1.284 . S
C225 O226 1.273 . S
O226 C225 1.273 . S
O227 Zn218 1.977 . S
O227 C220 1.267 . S
C228 O229 1.160 . S
C228 O235 1.185 . S
O229 C228 1.160 . S
O230 Zn231 1.899 . S
O230 C238 1.284 . S
Zn231 O230 1.899 . S
Zn231 O232 2.032 . S
Zn231 O235 2.086 . S
Zn231 O240 1.977 . S
O232 Zn231 2.032 . S
O232 C236 1.278 . S
C233 O234 1.203 . S
C233 O240 1.267 . S
O234 C233 1.203 . S
O235 C228 1.185 . S
O235 Zn231 2.086 . S
C236 O232 1.278 . S
C236 O237 1.211 . S
O237 C236 1.211 . S
C238 O230 1.284 . S
C238 O239 1.273 . S
O239 C238 1.273 . S
O240 Zn231 1.977 . S
O240 C233 1.267 . S
C241 O242 1.160 . S
C241 O248 1.185 . S
O242 C241 1.160 . S
O243 Zn244 1.899 . S
O243 C251 1.284 . S
Zn244 O243 1.899 . S
Zn244 O245 2.032 . S
Zn244 O248 2.086 . S
Zn244 O253 1.977 . S
O245 Zn244 2.032 . S
O245 C249 1.278 . S
C246 O247 1.203 . S
C246 O253 1.267 . S
O247 C246 1.203 . S
O248 C241 1.185 . S
O248 Zn244 2.086 . S
C249 O245 1.278 . S
C249 O250 1.211 . S
O250 C249 1.211 . S
C251 O243 1.284 . S
C251 O252 1.273 . S
O252 C251 1.273 . S
O253 Zn244 1.977 . S
O253 C246 1.267 . S
C254 O255 1.160 . S
C254 O261 1.185 . S
O255 C254 1.160 . S
O256 Zn257 1.899 . S
O256 C264 1.284 . S
Zn257 O256 1.899 . S
Zn257 O258 2.032 . S
Zn257 O261 2.086 . S
Zn257 O266 1.977 . S
O258 Zn257 2.032 . S
O258 C262 1.278 . S
C259 O260 1.203 . S
C259 O266 1.267 . S
O260 C259 1.203 . S
O261 C254 1.185 . S
O261 Zn257 2.086 . S
C262 O258 1.278 . S
C262 O263 1.211 . S
O263 C262 1.211 . S
C264 O256 1.284 . S
C264 O265 1.273 . S
O265 C264 1.273 . S
O266 Zn257 1.977 . S
O266 C259 1.267 . S
C267 O268 1.160 . S
C267 O274 1.185 . S
O268 C267 1.160 . S
O269 Zn270 1.899 . S
O269 C277 1.284 1_565 S
Zn270 O269 1.899 . S
Zn270 O271 2.032 1_565 S
Zn270 O274 2.086 . S
Zn270 O279 1.977 . S
O271 Zn270 2.032 1_545 S
O271 C275 1.278 . S
C272 O273 1.203 1_565 S
C272 O279 1.267 . S
O273 C272 1.203 1_545 S
O274 C267 1.185 . S
O274 Zn270 2.086 . S
C275 O271 1.278 . S
C275 O276 1.211 . S
O276 C275 1.211 . S
C277 O269 1.284 1_545 S
C277 O278 1.273 . S
O278 C277 1.273 . S
O279 Zn270 1.977 . S
O279 C272 1.267 . S
C280 O281 1.160 1_455 S
C280 O287 1.185 . S
O281 C280 1.160 1_655 S
O282 Zn283 1.899 1_655 S
O282 C290 1.284 . S
Zn283 O282 1.899 1_455 S
Zn283 O284 2.032 . S
Zn283 O287 2.086 . S
Zn283 O292 1.977 . S
O284 Zn283 2.032 . S
O284 C288 1.278 . S
C285 O286 1.203 . S
C285 O292 1.267 . S
O286 C285 1.203 . S
O287 C280 1.185 . S
O287 Zn283 2.086 . S
C288 O284 1.278 . S
C288 O289 1.211 . S
O289 C288 1.211 . S
C290 O282 1.284 . S
C290 O291 1.273 . S
O291 C290 1.273 . S
O292 Zn283 1.977 . S
O292 C285 1.267 . S
C293 O294 1.160 . S
C293 O300 1.185 . S
O294 C293 1.160 . S
O295 Zn296 1.899 . S
O295 C303 1.284 . S
Zn296 O295 1.899 . S
Zn296 O297 2.032 . S
Zn296 O300 2.086 . S
Zn296 O305 1.977 . S
O297 Zn296 2.032 . S
O297 C301 1.278 . S
C298 O299 1.203 . S
C298 O305 1.267 . S
O299 C298 1.203 . S
O300 C293 1.185 . S
O300 Zn296 2.086 . S
C301 O297 1.278 . S
C301 O302 1.211 . S
O302 C301 1.211 . S
C303 O295 1.284 . S
C303 O304 1.273 . S
O304 C303 1.273 . S
O305 Zn296 1.977 . S
O305 C298 1.267 . S
C306 O307 1.160 . S
C306 O313 1.185 . S
O307 C306 1.160 . S
O308 Zn309 1.899 . S
O308 C316 1.284 1_455 S
Zn309 O308 1.899 . S
Zn309 O310 2.032 . S
Zn309 O313 2.086 . S
Zn309 O318 1.977 . S
O310 Zn309 2.032 . S
O310 C314 1.278 . S
C311 O312 1.203 . S
C311 O318 1.267 . S
O312 C311 1.203 . S
O313 C306 1.185 . S
O313 Zn309 2.086 . S
C314 O310 1.278 . S
C314 O315 1.211 . S
O315 C314 1.211 . S
C316 O308 1.284 1_655 S
C316 O317 1.273 . S
O317 C316 1.273 . S
O318 Zn309 1.977 . S
O318 C311 1.267 . S
C319 O320 1.160 . S
C319 O326 1.185 . S
O320 C319 1.160 . S
O321 Zn322 1.899 . S
O321 C329 1.284 . S
Zn322 O321 1.899 . S
Zn322 O323 2.032 . S
Zn322 O326 2.086 . S
Zn322 O331 1.977 . S
O323 Zn322 2.032 . S
O323 C327 1.278 . S
C324 O325 1.203 . S
C324 O331 1.267 . S
O325 C324 1.203 . S
O326 C319 1.185 . S
O326 Zn322 2.086 . S
C327 O323 1.278 . S
C327 O328 1.211 . S
O328 C327 1.211 . S
C329 O321 1.284 . S
C329 O330 1.273 . S
O330 C329 1.273 . S
O331 Zn322 1.977 . S
O331 C324 1.267 . S
C332 C333 1.349 . S
C332 C334 1.327 . S
C332 H357 0.950 . S
C333 C332 1.349 . S
C333 C349 1.349 . S
C334 C332 1.327 . S
C334 C353 1.429 . S
C334 H358 0.950 . S
C335 C352 1.574 . S
C335 C354 1.368 . S
C335 H359 0.949 . S
H336 C340 0.949 . S
C337 C338 1.349 . S
C337 C339 1.327 . S
C337 H360 0.950 . S
C338 C337 1.349 . S
C338 C350 1.349 . S
C339 C337 1.327 . S
C339 C355 1.429 . S
C339 H361 0.950 . S
C340 H336 0.949 . S
C340 C348 1.574 . S
C340 C356 1.368 . S
H341 C349 0.950 . S
H342 C347 0.950 . S
H343 C348 0.949 . S
H344 C350 0.950 . S
H345 C351 0.950 . S
H346 C352 0.949 . S
C347 H342 0.950 . S
C347 C349 1.327 . S
C347 C353 1.429 . S
C348 C340 1.574 . S
C348 H343 0.949 . S
C348 C354 1.368 . S
C349 C333 1.349 . S
C349 H341 0.950 . S
C349 C347 1.327 . S
C350 C338 1.349 . S
C350 H344 0.950 . S
C350 C351 1.327 . S
C351 H345 0.950 . S
C351 C350 1.327 . S
C351 C355 1.429 . S
C352 C335 1.574 . S
C352 H346 0.949 . S
C352 C356 1.368 . S
C353 C334 1.429 . S
C353 C347 1.429 . S
C353 C354 1.523 . S
C354 C335 1.368 . S
C354 C348 1.368 . S
C354 C353 1.523 . S
C355 C339 1.429 . S
C355 C351 1.429 . S
C355 C356 1.523 . S
C356 C340 1.368 . S
C356 C352 1.368 . S
C356 C355 1.523 . S
H357 C332 0.950 . S
H358 C334 0.950 . S
H359 C335 0.949 . S
H360 C337 0.950 . S
H361 C339 0.950 . S
C362 C363 1.348 1_655 S
C362 C364 1.315 1_655 S
C362 H387 0.964 . S
C363 C362 1.348 1_455 S
C363 C379 1.349 . S
C364 C362 1.315 1_455 S
C364 C383 1.429 . S
C364 H388 0.950 . S
C365 C382 1.574 . S
C365 C384 1.368 . S
C365 H389 0.949 . S
H366 C370 0.949 . S
C367 C368 1.349 . S
C367 C369 1.327 . S
C367 H390 0.950 . S
C368 C367 1.349 . S
C368 C380 1.349 . S
C369 C367 1.327 . S
C369 C385 1.429 . S
C369 H391 0.950 . S
C370 H366 0.949 . S
C370 C378 1.574 . S
C370 C386 1.368 . S
H371 C379 0.950 . S
H372 C377 0.950 . S
H373 C378 0.949 . S
H374 C380 0.950 . S
H375 C381 0.950 . S
H376 C382 0.949 . S
C377 H372 0.950 . S
C377 C379 1.327 . S
C377 C383 1.429 . S
C378 C370 1.574 . S
C378 H373 0.949 . S
C378 C384 1.368 . S
C379 C363 1.349 . S
C379 H371 0.950 . S
C379 C377 1.327 . S
C380 C368 1.349 . S
C380 H374 0.950 . S
C380 C381 1.327 . S
C381 H375 0.950 . S
C381 C380 1.327 . S
C381 C385 1.429 . S
C382 C365 1.574 . S
C382 H376 0.949 . S
C382 C386 1.368 . S
C383 C364 1.429 . S
C383 C377 1.429 . S
C383 C384 1.523 . S
C384 C365 1.368 . S
C384 C378 1.368 . S
C384 C383 1.523 . S
C385 C369 1.429 . S
C385 C381 1.429 . S
C385 C386 1.523 . S
C386 C370 1.368 . S
C386 C382 1.368 . S
C386 C385 1.523 . S
H387 C362 0.964 . S
H388 C364 0.950 . S
H389 C365 0.949 . S
H390 C367 0.950 . S
H391 C369 0.950 . S
C392 C393 1.349 . S
C392 C394 1.327 . S
C392 H417 0.950 . S
C393 C392 1.349 . S
C393 C409 1.349 . S
C394 C392 1.327 . S
C394 C413 1.429 . S
C394 H418 0.950 . S
C395 C412 1.574 . S
C395 C414 1.368 . S
C395 H419 0.949 . S
H396 C400 0.949 . S
C397 C398 1.349 . S
C397 C399 1.327 . S
C397 H420 0.950 . S
C398 C397 1.349 . S
C398 C410 1.349 . S
C399 C397 1.327 . S
C399 C415 1.429 . S
C399 H421 0.950 . S
C400 H396 0.949 . S
C400 C408 1.574 . S
C400 C416 1.368 . S
H401 C409 0.950 . S
H402 C407 0.950 . S
H403 C408 0.949 . S
H404 C410 0.950 . S
H405 C411 0.950 . S
H406 C412 0.949 . S
C407 H402 0.950 . S
C407 C409 1.327 . S
C407 C413 1.429 . S
C408 C400 1.574 . S
C408 H403 0.949 . S
C408 C414 1.368 . S
C409 C393 1.349 . S
C409 H401 0.950 . S
C409 C407 1.327 . S
C410 C398 1.349 . S
C410 H404 0.950 . S
C410 C411 1.327 . S
C411 H405 0.950 . S
C411 C410 1.327 . S
C411 C415 1.429 . S
C412 C395 1.574 . S
C412 H406 0.949 . S
C412 C416 1.368 . S
C413 C394 1.429 . S
C413 C407 1.429 . S
C413 C414 1.523 . S
C414 C395 1.368 . S
C414 C408 1.368 . S
C414 C413 1.523 . S
C415 C399 1.429 . S
C415 C411 1.429 . S
C415 C416 1.523 . S
C416 C400 1.368 . S
C416 C412 1.368 . S
C416 C415 1.523 . S
H417 C392 0.950 . S
H418 C394 0.950 . S
H419 C395 0.949 . S
H420 C397 0.950 . S
H421 C399 0.950 . S
C422 C423 1.369 . S
C422 C424 1.301 1_455 S
C422 H447 0.958 . S
C423 C422 1.369 . S
C423 C439 1.349 1_565 S
C424 C422 1.301 1_655 S
C424 C443 1.429 1_565 S
C424 H448 0.950 . S
C425 C442 1.574 . S
C425 C444 1.368 . S
C425 H449 0.949 . S
H426 C430 0.949 . S
C427 C428 1.349 . S
C427 C429 1.327 . S
C427 H450 0.950 . S
C428 C427 1.349 . S
C428 C440 1.349 . S
C429 C427 1.327 . S
C429 C445 1.429 . S
C429 H451 0.950 . S
C430 H426 0.949 . S
C430 C438 1.574 . S
C430 C446 1.368 1_565 S
H431 C439 0.950 . S
H432 C437 0.950 . S
H433 C438 0.949 . S
H434 C440 0.950 1_565 S
H435 C441 0.897 1_565 S
H436 C442 0.949 . S
C437 H432 0.950 . S
C437 C439 1.327 1_655 S
C437 C443 1.429 . S
C438 C430 1.574 . S
C438 H433 0.949 . S
C438 C444 1.368 1_565 S
C439 C423 1.349 1_545 S
C439 H431 0.950 . S
C439 C437 1.327 1_455 S
C440 C428 1.349 . S
C440 H434 0.950 1_545 S
C440 C441 1.345 . S
C441 H435 0.897 1_545 S
C441 C440 1.345 . S
C441 C445 1.464 . S
C442 C425 1.574 . S
C442 H436 0.949 . S
C442 C446 1.368 . S
C443 C424 1.429 1_545 S
C443 C437 1.429 . S
C443 C444 1.523 . S
C444 C425 1.368 . S
C444 C438 1.368 1_545 S
C444 C443 1.523 . S
C445 C429 1.429 . S
C445 C441 1.464 . S
C445 C446 1.523 . S
C446 C430 1.368 1_545 S
C446 C442 1.368 . S
C446 C445 1.523 . S
H447 C422 0.958 . S
H448 C424 0.950 . S
H449 C425 0.949 . S
H450 C427 0.950 . S
H451 C429 0.950 . S
C452 C453 1.349 . S
C452 C454 1.327 . S
C452 H477 0.950 . S
C453 C452 1.349 . S
C453 C469 1.349 . S
C454 C452 1.327 . S
C454 C473 1.429 . S
C454 H478 0.950 . S
C455 C472 1.574 . S
C455 C474 1.368 . S
C455 H479 0.949 . S
H456 C460 0.949 . S
C457 C458 1.349 . S
C457 C459 1.327 . S
C457 H480 0.950 . S
C458 C457 1.349 . S
C458 C470 1.349 . S
C459 C457 1.327 . S
C459 C475 1.429 . S
C459 H481 0.950 . S
C460 H456 0.949 . S
C460 C468 1.574 . S
C460 C476 1.368 . S
H461 C469 0.950 . S
H462 C467 0.950 . S
H463 C468 0.949 . S
H464 C470 0.950 . S
H465 C471 0.950 . S
H466 C472 0.949 . S
C467 H462 0.950 . S
C467 C469 1.327 . S
C467 C473 1.429 . S
C468 C460 1.574 . S
C468 H463 0.949 . S
C468 C474 1.368 . S
C469 C453 1.349 . S
C469 H461 0.950 . S
C469 C467 1.327 . S
C470 C458 1.349 . S
C470 H464 0.950 . S
C470 C471 1.327 . S
C471 H465 0.950 . S
C471 C470 1.327 . S
C471 C475 1.429 . S
C472 C455 1.574 . S
C472 H466 0.949 . S
C472 C476 1.368 . S
C473 C454 1.429 . S
C473 C467 1.429 . S
C473 C474 1.523 . S
C474 C455 1.368 . S
C474 C468 1.368 . S
C474 C473 1.523 . S
C475 C459 1.429 . S
C475 C471 1.429 . S
C475 C476 1.523 . S
C476 C460 1.368 . S
C476 C472 1.368 . S
C476 C475 1.523 . S
H477 C452 0.950 . S
H478 C454 0.950 . S
H479 C455 0.949 . S
H480 C457 0.950 . S
H481 C459 0.950 . S
C482 C483 1.349 . S
C482 C484 1.327 . S
C482 H507 0.950 . S
C483 C482 1.349 . S
C483 C499 1.349 . S
C484 C482 1.327 . S
C484 C503 1.429 . S
C484 H508 0.950 . S
C485 C502 1.574 . S
C485 C504 1.368 . S
C485 H509 0.949 . S
H486 C490 0.949 . S
C487 C488 1.349 . S
C487 C489 1.327 . S
C487 H510 0.950 . S
C488 C487 1.349 . S
C488 C500 1.349 . S
C489 C487 1.327 . S
C489 C505 1.429 . S
C489 H511 0.950 . S
C490 H486 0.949 . S
C490 C498 1.574 . S
C490 C506 1.368 . S
H491 C499 0.950 . S
H492 C497 0.950 . S
H493 C498 0.949 . S
H494 C500 0.950 . S
H495 C501 0.950 . S
H496 C502 0.949 . S
C497 H492 0.950 . S
C497 C499 1.327 . S
C497 C503 1.429 . S
C498 C490 1.574 . S
C498 H493 0.949 . S
C498 C504 1.368 . S
C499 C483 1.349 . S
C499 H491 0.950 . S
C499 C497 1.327 . S
C500 C488 1.349 . S
C500 H494 0.950 . S
C500 C501 1.327 . S
C501 H495 0.950 . S
C501 C500 1.327 . S
C501 C505 1.429 . S
C502 C485 1.574 . S
C502 H496 0.949 . S
C502 C506 1.368 . S
C503 C484 1.429 . S
C503 C497 1.429 . S
C503 C504 1.523 . S
C504 C485 1.368 . S
C504 C498 1.368 . S
C504 C503 1.523 . S
C505 C489 1.429 . S
C505 C501 1.429 . S
C505 C506 1.523 . S
C506 C490 1.368 . S
C506 C502 1.368 . S
C506 C505 1.523 . S
H507 C482 0.950 . S
H508 C484 0.950 . S
H509 C485 0.949 . S
H510 C487 0.950 . S
H511 C489 0.950 . S
C512 C513 1.349 . S
C512 C514 1.327 . S
C512 H537 0.950 . S
C513 C512 1.349 . S
C513 C529 1.349 . S
C514 C512 1.327 . S
C514 C533 1.429 . S
C514 H538 0.950 . S
C515 C532 1.574 . S
C515 C534 1.368 . S
C515 H539 0.949 . S
H516 C520 0.949 . S
C517 C518 1.349 . S
C517 C519 1.327 . S
C517 H540 0.950 . S
C518 C517 1.349 . S
C518 C530 1.349 . S
C519 C517 1.327 . S
C519 C535 1.429 . S
C519 H541 0.950 . S
C520 H516 0.949 . S
C520 C528 1.574 . S
C520 C536 1.368 . S
H521 C529 0.950 . S
H522 C527 0.950 . S
H523 C528 0.949 . S
H524 C530 0.950 . S
H525 C531 0.950 . S
H526 C532 0.949 . S
C527 H522 0.950 . S
C527 C529 1.327 . S
C527 C533 1.429 . S
C528 C520 1.574 . S
C528 H523 0.949 . S
C528 C534 1.368 . S
C529 C513 1.349 . S
C529 H521 0.950 . S
C529 C527 1.327 . S
C530 C518 1.349 . S
C530 H524 0.950 . S
C530 C531 1.327 . S
C531 H525 0.950 . S
C531 C530 1.327 . S
C531 C535 1.429 . S
C532 C515 1.574 . S
C532 H526 0.949 . S
C532 C536 1.368 . S
C533 C514 1.429 . S
C533 C527 1.429 . S
C533 C534 1.523 . S
C534 C515 1.368 . S
C534 C528 1.368 . S
C534 C533 1.523 . S
C535 C519 1.429 . S
C535 C531 1.429 . S
C535 C536 1.523 . S
C536 C520 1.368 . S
C536 C532 1.368 . S
C536 C535 1.523 . S
H537 C512 0.950 . S
H538 C514 0.950 . S
H539 C515 0.949 . S
H540 C517 0.950 . S
H541 C519 0.950 . S
C542 C543 1.349 . S
C542 C544 1.327 . S
C542 H567 0.950 . S
C543 C542 1.349 . S
C543 C559 1.349 . S
C544 C542 1.327 . S
C544 C563 1.429 . S
C544 H568 0.950 . S
C545 C562 1.573 . S
C545 C564 1.337 1_545 S
C545 H569 0.979 . S
H546 C550 0.949 . S
C547 C548 1.349 1_545 S
C547 C549 1.327 . S
C547 H570 0.950 . S
C548 C547 1.349 1_565 S
C548 C560 1.349 . S
C549 C547 1.327 . S
C549 C565 1.429 1_545 S
C549 H571 0.950 . S
C550 H546 0.949 . S
C550 C558 1.574 . S
C550 C566 1.368 . S
H551 C559 0.950 1_545 S
H552 C557 0.950 1_545 S
H553 C558 0.949 . S
H554 C560 0.950 . S
H555 C561 0.950 . S
H556 C562 0.949 . S
C557 H552 0.950 1_565 S
C557 C559 1.327 . S
C557 C563 1.429 . S
C558 C550 1.574 . S
C558 H553 0.949 . S
C558 C564 1.368 . S
C559 C543 1.349 . S
C559 H551 0.950 1_565 S
C559 C557 1.327 . S
C560 C548 1.349 . S
C560 H554 0.950 . S
C560 C561 1.327 . S
C561 H555 0.950 . S
C561 C560 1.327 . S
C561 C565 1.429 . S
C562 C545 1.573 . S
C562 H556 0.949 . S
C562 C566 1.368 1_545 S
C563 C544 1.429 . S
C563 C557 1.429 . S
C563 C564 1.523 . S
C564 C545 1.337 1_565 S
C564 C558 1.368 . S
C564 C563 1.523 . S
C565 C549 1.429 1_565 S
C565 C561 1.429 . S
C565 C566 1.523 . S
C566 C550 1.368 . S
C566 C562 1.368 1_565 S
C566 C565 1.523 . S
H567 C542 0.950 . S
H568 C544 0.950 . S
H569 C545 0.979 . S
H570 C547 0.950 . S
H571 C549 0.950 . S
C572 C573 1.349 . S
C572 C574 1.327 . S
C572 H597 0.950 . S
C573 C572 1.349 . S
C573 C589 1.349 . S
C574 C572 1.327 . S
C574 C593 1.429 . S
C574 H598 0.950 . S
C575 C592 1.574 . S
C575 C594 1.368 . S
C575 H599 0.949 . S
H576 C580 0.949 . S
C577 C578 1.349 . S
C577 C579 1.327 . S
C577 H600 0.950 . S
C578 C577 1.349 . S
C578 C590 1.349 . S
C579 C577 1.327 . S
C579 C595 1.429 . S
C579 H601 0.950 . S
C580 H576 0.949 . S
C580 C588 1.574 . S
C580 C596 1.368 . S
H581 C589 0.950 . S
H582 C587 0.950 . S
H583 C588 0.949 . S
H584 C590 0.950 . S
H585 C591 0.950 . S
H586 C592 0.949 . S
C587 H582 0.950 . S
C587 C589 1.327 . S
C587 C593 1.429 . S
C588 C580 1.574 . S
C588 H583 0.949 . S
C588 C594 1.368 . S
C589 C573 1.349 . S
C589 H581 0.950 . S
C589 C587 1.327 . S
C590 C578 1.349 . S
C590 H584 0.950 . S
C590 C591 1.327 . S
C591 H585 0.950 . S
C591 C590 1.327 . S
C591 C595 1.429 . S
C592 C575 1.574 . S
C592 H586 0.949 . S
C592 C596 1.368 . S
C593 C574 1.429 . S
C593 C587 1.429 . S
C593 C594 1.523 . S
C594 C575 1.368 . S
C594 C588 1.368 . S
C594 C593 1.523 . S
C595 C579 1.429 . S
C595 C591 1.429 . S
C595 C596 1.523 . S
C596 C580 1.368 . S
C596 C592 1.368 . S
C596 C595 1.523 . S
H597 C572 0.950 . S
H598 C574 0.950 . S
H599 C575 0.949 . S
H600 C577 0.950 . S
H601 C579 0.950 . S
C602 C603 1.349 . S
C602 C604 1.327 . S
C602 H627 0.950 . S
C603 C602 1.349 . S
C603 C619 1.349 . S
C604 C602 1.327 . S
C604 C623 1.429 . S
C604 H628 0.950 . S
C605 C622 1.574 . S
C605 C624 1.368 . S
C605 H629 0.949 . S
H606 C610 0.949 . S
C607 C608 1.349 . S
C607 C609 1.327 . S
C607 H630 0.950 . S
C608 C607 1.349 . S
C608 C620 1.349 . S
C609 C607 1.327 . S
C609 C625 1.429 . S
C609 H631 0.950 . S
C610 H606 0.949 . S
C610 C618 1.574 . S
C610 C626 1.368 . S
H611 C619 0.950 . S
H612 C617 0.950 . S
H613 C618 0.949 . S
H614 C620 0.950 . S
H615 C621 0.950 . S
H616 C622 0.949 . S
C617 H612 0.950 . S
C617 C619 1.327 . S
C617 C623 1.429 . S
C618 C610 1.574 . S
C618 H613 0.949 . S
C618 C624 1.368 . S
C619 C603 1.349 . S
C619 H611 0.950 . S
C619 C617 1.327 . S
C620 C608 1.349 . S
C620 H614 0.950 . S
C620 C621 1.327 . S
C621 H615 0.950 . S
C621 C620 1.327 . S
C621 C625 1.429 . S
C622 C605 1.574 . S
C622 H616 0.949 . S
C622 C626 1.368 . S
C623 C604 1.429 . S
C623 C617 1.429 . S
C623 C624 1.523 . S
C624 C605 1.368 . S
C624 C618 1.368 . S
C624 C623 1.523 . S
C625 C609 1.429 . S
C625 C621 1.429 . S
C625 C626 1.523 . S
C626 C610 1.368 . S
C626 C622 1.368 . S
C626 C625 1.523 . S
H627 C602 0.950 . S
H628 C604 0.950 . S
H629 C605 0.949 . S
H630 C607 0.950 . S
H631 C609 0.950 . S
C632 C633 1.349 . S
C632 C634 1.327 . S
C632 H657 0.950 . S
C633 C632 1.349 . S
C633 C649 1.349 . S
C634 C632 1.327 . S
C634 C653 1.429 . S
C634 H658 0.950 . S
C635 C652 1.574 . S
C635 C654 1.368 . S
C635 H659 0.949 . S
H636 C640 0.949 . S
C637 C638 1.349 . S
C637 C639 1.327 . S
C637 H660 0.950 . S
C638 C637 1.349 . S
C638 C650 1.349 . S
C639 C637 1.327 . S
C639 C655 1.429 . S
C639 H661 0.950 . S
C640 H636 0.949 . S
C640 C648 1.574 . S
C640 C656 1.368 . S
H641 C649 0.950 . S
H642 C647 0.950 . S
H643 C648 0.949 . S
H644 C650 0.950 . S
H645 C651 0.950 . S
H646 C652 0.949 . S
C647 H642 0.950 . S
C647 C649 1.327 . S
C647 C653 1.429 . S
C648 C640 1.574 . S
C648 H643 0.949 . S
C648 C654 1.368 . S
C649 C633 1.349 . S
C649 H641 0.950 . S
C649 C647 1.327 . S
C650 C638 1.349 . S
C650 H644 0.950 . S
C650 C651 1.327 . S
C651 H645 0.950 . S
C651 C650 1.327 . S
C651 C655 1.429 . S
C652 C635 1.574 . S
C652 H646 0.949 . S
C652 C656 1.368 . S
C653 C634 1.429 . S
C653 C647 1.429 . S
C653 C654 1.523 . S
C654 C635 1.368 . S
C654 C648 1.368 . S
C654 C653 1.523 . S
C655 C639 1.429 . S
C655 C651 1.429 . S
C655 C656 1.523 . S
C656 C640 1.368 . S
C656 C652 1.368 . S
C656 C655 1.523 . S
H657 C632 0.950 . S
H658 C634 0.950 . S
H659 C635 0.949 . S
H660 C637 0.950 . S
H661 C639 0.950 . S
C662 C663 1.349 . S
C662 C664 1.327 . S
C662 H687 0.950 . S
C663 C662 1.349 . S
C663 C679 1.349 . S
C664 C662 1.327 . S
C664 C683 1.429 . S
C664 H688 0.950 . S
C665 C682 1.574 . S
C665 C684 1.368 . S
C665 H689 0.949 . S
H666 C670 0.949 . S
C667 C668 1.349 . S
C667 C669 1.327 . S
C667 H690 0.950 . S
C668 C667 1.349 . S
C668 C680 1.349 . S
C669 C667 1.327 . S
C669 C685 1.429 . S
C669 H691 0.950 . S
C670 H666 0.949 . S
C670 C678 1.574 . S
C670 C686 1.368 . S
H671 C679 0.950 . S
H672 C677 0.950 . S
H673 C678 0.949 . S
H674 C680 0.950 . S
H675 C681 0.950 . S
H676 C682 0.949 . S
C677 H672 0.950 . S
C677 C679 1.327 . S
C677 C683 1.429 . S
C678 C670 1.574 . S
C678 H673 0.949 . S
C678 C684 1.368 . S
C679 C663 1.349 . S
C679 H671 0.950 . S
C679 C677 1.327 . S
C680 C668 1.349 . S
C680 H674 0.950 . S
C680 C681 1.327 . S
C681 H675 0.950 . S
C681 C680 1.327 . S
C681 C685 1.429 . S
C682 C665 1.574 . S
C682 H676 0.949 . S
C682 C686 1.368 . S
C683 C664 1.429 . S
C683 C677 1.429 . S
C683 C684 1.523 . S
C684 C665 1.368 . S
C684 C678 1.368 . S
C684 C683 1.523 . S
C685 C669 1.429 . S
C685 C681 1.429 . S
C685 C686 1.523 . S
C686 C670 1.368 . S
C686 C682 1.368 . S
C686 C685 1.523 . S
H687 C662 0.950 . S
H688 C664 0.950 . S
H689 C665 0.949 . S
H690 C667 0.950 . S
H691 C669 0.950 . S
C692 C693 1.349 . S
C692 C694 1.327 . S
C692 H717 0.950 . S
C693 C692 1.349 . S
C693 C709 1.349 . S
C694 C692 1.327 . S
C694 C713 1.429 . S
C694 H718 0.950 . S
C695 C712 1.574 . S
C695 C714 1.368 . S
C695 H719 0.949 . S
H696 C700 0.949 . S
C697 C698 1.349 . S
C697 C699 1.327 . S
C697 H720 0.950 . S
C698 C697 1.349 . S
C698 C710 1.349 . S
C699 C697 1.327 . S
C699 C715 1.429 . S
C699 H721 0.950 . S
C700 H696 0.949 . S
C700 C708 1.574 . S
C700 C716 1.368 . S
H701 C709 0.950 . S
H702 C707 0.950 . S
H703 C708 0.949 . S
H704 C710 0.950 . S
H705 C711 0.950 . S
H706 C712 0.949 . S
C707 H702 0.950 . S
C707 C709 1.327 . S
C707 C713 1.429 . S
C708 C700 1.574 . S
C708 H703 0.949 . S
C708 C714 1.368 . S
C709 C693 1.349 . S
C709 H701 0.950 . S
C709 C707 1.327 . S
C710 C698 1.349 . S
C710 H704 0.950 . S
C710 C711 1.327 . S
C711 H705 0.950 . S
C711 C710 1.327 . S
C711 C715 1.429 . S
C712 C695 1.574 . S
C712 H706 0.949 . S
C712 C716 1.368 . S
C713 C694 1.429 . S
C713 C707 1.429 . S
C713 C714 1.523 . S
C714 C695 1.368 . S
C714 C708 1.368 . S
C714 C713 1.523 . S
C715 C699 1.429 . S
C715 C711 1.429 . S
C715 C716 1.523 . S
C716 C700 1.368 . S
C716 C712 1.368 . S
C716 C715 1.523 . S
H717 C692 0.950 . S
H718 C694 0.950 . S
H719 C695 0.949 . S
H720 C697 0.950 . S
H721 C699 0.950 . S
C722 C723 1.349 . S
C722 C724 1.327 . S
C722 H747 0.950 . S
C723 C722 1.349 . S
C723 C739 1.349 . S
C724 C722 1.327 . S
C724 C743 1.429 . S
C724 H748 0.950 . S
C725 C742 1.574 . S
C725 C744 1.368 . S
C725 H749 0.949 . S
H726 C730 0.949 . S
C727 C728 1.349 . S
C727 C729 1.327 . S
C727 H750 0.950 . S
C728 C727 1.349 . S
C728 C740 1.349 . S
C729 C727 1.327 . S
C729 C745 1.429 . S
C729 H751 0.950 . S
C730 H726 0.949 . S
C730 C738 1.574 . S
C730 C746 1.368 . S
H731 C739 0.950 . S
H732 C737 0.950 . S
H733 C738 0.949 . S
H734 C740 0.950 . S
H735 C741 0.950 . S
H736 C742 0.949 . S
C737 H732 0.950 . S
C737 C739 1.327 . S
C737 C743 1.429 . S
C738 C730 1.574 . S
C738 H733 0.949 . S
C738 C744 1.368 . S
C739 C723 1.349 . S
C739 H731 0.950 . S
C739 C737 1.327 . S
C740 C728 1.349 . S
C740 H734 0.950 . S
C740 C741 1.327 . S
C741 H735 0.950 . S
C741 C740 1.327 . S
C741 C745 1.429 . S
C742 C725 1.574 . S
C742 H736 0.949 . S
C742 C746 1.368 . S
C743 C724 1.429 . S
C743 C737 1.429 . S
C743 C744 1.523 . S
C744 C725 1.368 . S
C744 C738 1.368 . S
C744 C743 1.523 . S
C745 C729 1.429 . S
C745 C741 1.429 . S
C745 C746 1.523 . S
C746 C730 1.368 . S
C746 C742 1.368 . S
C746 C745 1.523 . S
H747 C722 0.950 . S
H748 C724 0.950 . S
H749 C725 0.949 . S
H750 C727 0.950 . S
H751 C729 0.950 . S
C752 C753 1.349 . S
C752 C754 1.327 . S
C752 H777 0.950 . S
C753 C752 1.349 . S
C753 C769 1.349 . S
C754 C752 1.327 . S
C754 C773 1.429 . S
C754 H778 0.950 . S
C755 C772 1.574 . S
C755 C774 1.368 . S
C755 H779 0.949 . S
H756 C760 0.949 . S
C757 C758 1.349 . S
C757 C759 1.327 . S
C757 H780 0.950 . S
C758 C757 1.349 . S
C758 C770 1.349 . S
C759 C757 1.327 . S
C759 C775 1.429 . S
C759 H781 0.950 . S
C760 H756 0.949 . S
C760 C768 1.574 . S
C760 C776 1.368 . S
H761 C769 0.950 . S
H762 C767 0.950 . S
H763 C768 0.949 . S
H764 C770 0.950 . S
H765 C771 0.950 . S
H766 C772 0.949 . S
C767 H762 0.950 . S
C767 C769 1.327 . S
C767 C773 1.429 . S
C768 C760 1.574 . S
C768 H763 0.949 . S
C768 C774 1.368 . S
C769 C753 1.349 . S
C769 H761 0.950 . S
C769 C767 1.327 . S
C770 C758 1.349 . S
C770 H764 0.950 . S
C770 C771 1.327 . S
C771 H765 0.950 . S
C771 C770 1.327 . S
C771 C775 1.429 . S
C772 C755 1.574 . S
C772 H766 0.949 . S
C772 C776 1.368 . S
C773 C754 1.429 . S
C773 C767 1.429 . S
C773 C774 1.523 . S
C774 C755 1.368 . S
C774 C768 1.368 . S
C774 C773 1.523 . S
C775 C759 1.429 . S
C775 C771 1.429 . S
C775 C776 1.523 . S
C776 C760 1.368 . S
C776 C772 1.368 . S
C776 C775 1.523 . S
H777 C752 0.950 . S
H778 C754 0.950 . S
H779 C755 0.949 . S
H780 C757 0.950 . S
H781 C759 0.950 . S
C782 C783 1.349 . S
C782 C784 1.327 . S
C782 H807 0.950 . S
C783 C782 1.349 . S
C783 C799 1.349 1_655 S
C784 C782 1.327 . S
C784 C803 1.429 . S
C784 H808 0.950 . S
C785 C802 1.574 . S
C785 C804 1.347 1_455 S
C785 H809 0.949 . S
H786 C790 0.949 . S
C787 C788 1.349 . S
C787 C789 1.327 . S
C787 H810 0.950 . S
C788 C787 1.349 . S
C788 C800 1.349 . S
C789 C787 1.327 . S
C789 C805 1.429 . S
C789 H811 0.950 . S
C790 H786 0.949 . S
C790 C798 1.574 . S
C790 C806 1.368 1_655 S
H791 C799 0.950 . S
H792 C797 0.950 . S
H793 C798 0.949 . S
H794 C800 0.950 1_655 S
H795 C801 0.950 . S
H796 C802 0.949 . S
C797 H792 0.950 . S
C797 C799 1.327 . S
C797 C803 1.429 1_455 S
C798 C790 1.574 . S
C798 H793 0.949 . S
C798 C804 1.391 . S
C799 C783 1.349 1_455 S
C799 H791 0.950 . S
C799 C797 1.327 . S
C800 C788 1.349 . S
C800 H794 0.950 1_455 S
C800 C801 1.327 1_455 S
C801 H795 0.950 . S
C801 C800 1.327 1_655 S
C801 C805 1.429 1_655 S
C802 C785 1.574 . S
C802 H796 0.949 . S
C802 C806 1.368 . S
C803 C784 1.429 . S
C803 C797 1.429 1_655 S
C803 C804 1.523 . S
C804 C785 1.347 1_655 S
C804 C798 1.391 . S
C804 C803 1.523 . S
C805 C789 1.429 . S
C805 C801 1.429 1_455 S
C805 C806 1.523 . S
C806 C790 1.368 1_455 S
C806 C802 1.368 . S
C806 C805 1.523 . S
H807 C782 0.950 . S
H808 C784 0.950 . S
H809 C785 0.949 . S
H810 C787 0.950 . S
H811 C789 0.950 . S
C812 C813 1.349 . S
C812 C814 1.327 . S
C812 H837 0.950 . S
C813 C812 1.349 . S
C813 C829 1.349 . S
C814 C812 1.327 . S
C814 C833 1.429 . S
C814 H838 0.950 . S
C815 C832 1.574 . S
C815 C834 1.368 . S
C815 H839 0.949 . S
H816 C820 0.949 . S
C817 C818 1.349 . S
C817 C819 1.327 . S
C817 H840 0.950 . S
C818 C817 1.349 . S
C818 C830 1.349 . S
C819 C817 1.327 . S
C819 C835 1.429 . S
C819 H841 0.950 . S
C820 H816 0.949 . S
C820 C828 1.574 . S
C820 C836 1.368 . S
H821 C829 0.950 . S
H822 C827 0.950 . S
H823 C828 0.949 . S
H824 C830 0.950 . S
H825 C831 0.950 . S
H826 C832 0.949 . S
C827 H822 0.950 . S
C827 C829 1.327 . S
C827 C833 1.429 . S
C828 C820 1.574 . S
C828 H823 0.949 . S
C828 C834 1.368 . S
C829 C813 1.349 . S
C829 H821 0.950 . S
C829 C827 1.327 . S
C830 C818 1.349 . S
C830 H824 0.950 . S
C830 C831 1.327 . S
C831 H825 0.950 . S
C831 C830 1.327 . S
C831 C835 1.429 . S
C832 C815 1.574 . S
C832 H826 0.949 . S
C832 C836 1.368 . S
C833 C814 1.429 . S
C833 C827 1.429 . S
C833 C834 1.523 . S
C834 C815 1.368 . S
C834 C828 1.368 . S
C834 C833 1.523 . S
C835 C819 1.429 . S
C835 C831 1.429 . S
C835 C836 1.523 . S
C836 C820 1.368 . S
C836 C832 1.368 . S
C836 C835 1.523 . S
H837 C812 0.950 . S
H838 C814 0.950 . S
H839 C815 0.949 . S
H840 C817 0.950 . S
H841 C819 0.950 . S
C842 C843 1.349 . S
C842 C844 1.327 . S
C842 H867 0.950 . S
C843 C842 1.349 . S
C843 C859 1.349 . S
C844 C842 1.327 . S
C844 C863 1.429 . S
C844 H868 0.950 . S
C845 C862 1.574 . S
C845 C864 1.368 . S
C845 H869 0.949 . S
H846 C850 0.949 . S
C847 C848 1.349 . S
C847 C849 1.327 . S
C847 H870 0.950 . S
C848 C847 1.349 . S
C848 C860 1.349 . S
C849 C847 1.327 . S
C849 C865 1.429 . S
C849 H871 0.950 . S
C850 H846 0.949 . S
C850 C858 1.574 . S
C850 C866 1.368 . S
H851 C859 0.950 . S
H852 C857 0.950 . S
H853 C858 0.949 . S
H854 C860 0.950 . S
H855 C861 0.950 . S
H856 C862 0.949 . S
C857 H852 0.950 . S
C857 C859 1.327 . S
C857 C863 1.429 . S
C858 C850 1.574 . S
C858 H853 0.949 . S
C858 C864 1.368 . S
C859 C843 1.349 . S
C859 H851 0.950 . S
C859 C857 1.327 . S
C860 C848 1.349 . S
C860 H854 0.950 . S
C860 C861 1.327 . S
C861 H855 0.950 . S
C861 C860 1.327 . S
C861 C865 1.429 . S
C862 C845 1.574 . S
C862 H856 0.949 . S
C862 C866 1.368 . S
C863 C844 1.429 . S
C863 C857 1.429 . S
C863 C864 1.523 . S
C864 C845 1.368 . S
C864 C858 1.368 . S
C864 C863 1.523 . S
C865 C849 1.429 . S
C865 C861 1.429 . S
C865 C866 1.523 . S
C866 C850 1.368 . S
C866 C862 1.368 . S
C866 C865 1.523 . S
H867 C842 0.950 . S
H868 C844 0.950 . S
H869 C845 0.949 . S
H870 C847 0.950 . S
H871 C849 0.950 . S
C872 C873 1.349 1_556 S
C872 C874 1.327 . S
C872 H897 0.950 . S
C873 C872 1.349 1_554 S
C873 C889 1.349 1_565 S
C874 C872 1.327 . S
C874 C893 1.429 1_556 S
C874 H898 0.950 . S
C875 C892 1.574 . S
C875 C894 1.368 . S
C875 H899 0.949 . S
H876 C880 0.948 1_556 S
C877 C878 1.349 . S
C877 C879 1.327 . S
C877 H900 0.950 . S
C878 C877 1.349 . S
C878 C890 1.349 . S
C879 C877 1.327 . S
C879 C895 1.429 . S
C879 H901 0.950 . S
C880 H876 0.948 1_554 S
C880 C888 1.573 1_554 S
C880 C896 1.369 . S
H881 C889 0.950 . S
H882 C887 0.950 . S
H883 C888 0.949 . S
H884 C890 0.955 . S
H885 C891 0.950 1_556 S
H886 C892 0.949 . S
C887 H882 0.950 . S
C887 C889 1.327 1_565 S
C887 C893 1.429 . S
C888 C880 1.573 1_556 S
C888 H883 0.949 . S
C888 C894 1.368 1_556 S
C889 C873 1.349 1_545 S
C889 H881 0.950 . S
C889 C887 1.327 1_545 S
C890 C878 1.349 . S
C890 H884 0.955 . S
C890 C891 1.327 . S
C891 H885 0.950 1_554 S
C891 C890 1.327 . S
C891 C895 1.429 . S
C892 C875 1.574 . S
C892 H886 0.949 . S
C892 C896 1.368 . S
C893 C874 1.429 1_554 S
C893 C887 1.429 . S
C893 C894 1.523 . S
C894 C875 1.368 . S
C894 C888 1.368 1_554 S
C894 C893 1.523 . S
C895 C879 1.429 . S
C895 C891 1.429 . S
C895 C896 1.523 . S
C896 C880 1.369 . S
C896 C892 1.368 . S
C896 C895 1.523 . S
H897 C872 0.950 . S
H898 C874 0.950 . S
H899 C875 0.949 . S
H900 C877 0.950 . S
H901 C879 0.950 . S
C902 C903 1.349 . S
C902 C904 1.327 . S
C902 H927 0.950 . S
C903 C902 1.349 . S
C903 C919 1.349 . S
C904 C902 1.327 . S
C904 C923 1.429 . S
C904 H928 0.950 . S
C905 C922 1.574 . S
C905 C924 1.368 . S
C905 H929 0.949 . S
H906 C910 0.949 . S
C907 C908 1.349 . S
C907 C909 1.327 . S
C907 H930 0.950 . S
C908 C907 1.349 . S
C908 C920 1.349 . S
C909 C907 1.327 . S
C909 C925 1.429 . S
C909 H931 0.950 . S
C910 H906 0.949 . S
C910 C918 1.574 . S
C910 C926 1.368 . S
H911 C919 0.950 . S
H912 C917 0.950 . S
H913 C918 0.949 . S
H914 C920 0.950 . S
H915 C921 0.950 . S
H916 C922 0.949 . S
C917 H912 0.950 . S
C917 C919 1.327 . S
C917 C923 1.429 . S
C918 C910 1.574 . S
C918 H913 0.949 . S
C918 C924 1.368 . S
C919 C903 1.349 . S
C919 H911 0.950 . S
C919 C917 1.327 . S
C920 C908 1.349 . S
C920 H914 0.950 . S
C920 C921 1.327 . S
C921 H915 0.950 . S
C921 C920 1.327 . S
C921 C925 1.429 . S
C922 C905 1.574 . S
C922 H916 0.949 . S
C922 C926 1.368 . S
C923 C904 1.429 . S
C923 C917 1.429 . S
C923 C924 1.523 . S
C924 C905 1.368 . S
C924 C918 1.368 . S
C924 C923 1.523 . S
C925 C909 1.429 . S
C925 C921 1.429 . S
C925 C926 1.523 . S
C926 C910 1.368 . S
C926 C922 1.368 . S
C926 C925 1.523 . S
H927 C902 0.950 . S
H928 C904 0.950 . S
H929 C905 0.949 . S
H930 C907 0.950 . S
H931 C909 0.950 . S
C932 C933 1.349 . S
C932 C934 1.327 . S
C932 H957 0.950 1_545 S
C933 C932 1.349 . S
C933 C949 1.349 . S
C934 C932 1.327 . S
C934 C953 1.429 . S
C934 H958 0.950 . S
C935 C952 1.574 . S
C935 C954 1.368 . S
C935 H959 0.949 . S
H936 C940 0.949 . S
C937 C938 1.349 . S
C937 C939 1.327 . S
C937 H960 0.950 . S
C938 C937 1.349 . S
C938 C950 1.349 . S
C939 C937 1.327 . S
C939 C955 1.429 . S
C939 H961 0.950 . S
C940 H936 0.949 . S
C940 C948 1.574 . S
C940 C956 1.368 . S
H941 C949 0.950 . S
H942 C947 0.950 . S
H943 C948 0.949 . S
H944 C950 0.950 . S
H945 C951 0.950 . S
H946 C952 0.949 . S
C947 H942 0.950 . S
C947 C949 1.327 . S
C947 C953 1.429 . S
C948 C940 1.574 . S
C948 H943 0.949 . S
C948 C954 1.368 . S
C949 C933 1.349 . S
C949 H941 0.950 . S
C949 C947 1.327 . S
C950 C938 1.349 . S
C950 H944 0.950 . S
C950 C951 1.327 . S
C951 H945 0.950 . S
C951 C950 1.327 . S
C951 C955 1.429 . S
C952 C935 1.574 . S
C952 H946 0.949 . S
C952 C956 1.368 . S
C953 C934 1.429 . S
C953 C947 1.429 . S
C953 C954 1.523 . S
C954 C935 1.368 . S
C954 C948 1.368 . S
C954 C953 1.523 . S
C955 C939 1.429 . S
C955 C951 1.429 . S
C955 C956 1.523 . S
C956 C940 1.368 . S
C956 C952 1.368 . S
C956 C955 1.523 . S
H957 C932 0.950 1_565 S
H958 C934 0.950 . S
H959 C935 0.949 . S
H960 C937 0.950 . S
H961 C939 0.950 . S
C962 C963 1.349 . S
C962 C964 1.327 . S
C962 H987 0.950 . S
C963 C962 1.349 . S
C963 C979 1.349 . S
C964 C962 1.327 . S
C964 C983 1.429 . S
C964 H988 0.950 . S
C965 C982 1.574 . S
C965 C984 1.368 . S
C965 H989 0.949 . S
H966 C970 0.949 . S
C967 C968 1.349 . S
C967 C969 1.327 . S
C967 H990 0.950 . S
C968 C967 1.349 . S
C968 C980 1.349 . S
C969 C967 1.327 . S
C969 C985 1.429 . S
C969 H991 0.950 . S
C970 H966 0.949 . S
C970 C978 1.574 . S
C970 C986 1.368 . S
H971 C979 0.950 . S
H972 C977 0.950 . S
H973 C978 0.949 . S
H974 C980 0.950 . S
H975 C981 0.950 . S
H976 C982 0.949 . S
C977 H972 0.950 . S
C977 C979 1.327 . S
C977 C983 1.429 . S
C978 C970 1.574 . S
C978 H973 0.949 . S
C978 C984 1.368 . S
C979 C963 1.349 . S
C979 H971 0.950 . S
C979 C977 1.327 . S
C980 C968 1.349 . S
C980 H974 0.950 . S
C980 C981 1.327 . S
C981 H975 0.950 . S
C981 C980 1.327 . S
C981 C985 1.429 . S
C982 C965 1.574 . S
C982 H976 0.949 . S
C982 C986 1.368 . S
C983 C964 1.429 . S
C983 C977 1.429 . S
C983 C984 1.523 . S
C984 C965 1.368 . S
C984 C978 1.368 . S
C984 C983 1.523 . S
C985 C969 1.429 . S
C985 C981 1.429 . S
C985 C986 1.523 . S
C986 C970 1.368 . S
C986 C982 1.368 . S
C986 C985 1.523 . S
H987 C962 0.950 . S
H988 C964 0.950 . S
H989 C965 0.949 . S
H990 C967 0.950 . S
H991 C969 0.950 . S
C992 C993 1.349 . S
C992 C994 1.327 . S
C992 H1017 0.950 . S
C993 C992 1.349 . S
C993 C1009 1.349 . S
C994 C992 1.327 . S
C994 C1013 1.429 . S
C994 H1018 0.950 . S
C995 C1012 1.574 . S
C995 C1014 1.368 . S
C995 H1019 0.949 . S
H996 C1000 0.949 . S
C997 C998 1.349 . S
C997 C999 1.327 . S
C997 H1020 0.950 . S
C998 C997 1.349 . S
C998 C1010 1.349 . S
C999 C997 1.327 . S
C999 C1015 1.429 . S
C999 H1021 0.950 . S
C1000 H996 0.949 . S
C1000 C1008 1.574 . S
C1000 C1016 1.368 . S
H1001 C1009 0.950 . S
H1002 C1007 0.950 . S
H1003 C1008 0.949 . S
H1004 C1010 0.950 . S
H1005 C1011 0.950 . S
H1006 C1012 0.949 . S
C1007 H1002 0.950 . S
C1007 C1009 1.327 . S
C1007 C1013 1.429 . S
C1008 C1000 1.574 . S
C1008 H1003 0.949 . S
C1008 C1014 1.368 . S
C1009 C993 1.349 . S
C1009 H1001 0.950 . S
C1009 C1007 1.327 . S
C1010 C998 1.349 . S
C1010 H1004 0.950 . S
C1010 C1011 1.327 . S
C1011 H1005 0.950 . S
C1011 C1010 1.327 . S
C1011 C1015 1.429 . S
C1012 C995 1.574 . S
C1012 H1006 0.949 . S
C1012 C1016 1.368 . S
C1013 C994 1.429 . S
C1013 C1007 1.429 . S
C1013 C1014 1.523 . S
C1014 C995 1.368 . S
C1014 C1008 1.368 . S
C1014 C1013 1.523 . S
C1015 C999 1.429 . S
C1015 C1011 1.429 . S
C1015 C1016 1.523 . S
C1016 C1000 1.368 . S
C1016 C1012 1.368 . S
C1016 C1015 1.523 . S
H1017 C992 0.950 . S
H1018 C994 0.950 . S
H1019 C995 0.949 . S
H1020 C997 0.950 . S
H1021 C999 0.950 . S
C1022 C1023 1.349 . S
C1022 C1024 1.327 . S
C1022 H1047 0.950 . S
C1023 C1022 1.349 . S
C1023 C1039 1.349 . S
C1024 C1022 1.327 . S
C1024 C1043 1.429 . S
C1024 H1048 0.950 . S
C1025 C1042 1.574 . S
C1025 C1044 1.368 . S
C1025 H1049 0.949 . S
H1026 C1030 0.949 . S
C1027 C1028 1.349 . S
C1027 C1029 1.327 . S
C1027 H1050 0.950 . S
C1028 C1027 1.349 . S
C1028 C1040 1.349 . S
C1029 C1027 1.327 . S
C1029 C1045 1.429 . S
C1029 H1051 0.950 . S
C1030 H1026 0.949 . S
C1030 C1038 1.574 . S
C1030 C1046 1.368 . S
H1031 C1039 0.950 . S
H1032 C1037 0.950 . S
H1033 C1038 0.949 . S
H1034 C1040 0.950 . S
H1035 C1041 0.950 . S
H1036 C1042 0.949 . S
C1037 H1032 0.950 . S
C1037 C1039 1.327 . S
C1037 C1043 1.429 . S
C1038 C1030 1.574 . S
C1038 H1033 0.949 . S
C1038 C1044 1.368 . S
C1039 C1023 1.349 . S
C1039 H1031 0.950 . S
C1039 C1037 1.327 . S
C1040 C1028 1.349 . S
C1040 H1034 0.950 . S
C1040 C1041 1.327 . S
C1041 H1035 0.950 . S
C1041 C1040 1.327 . S
C1041 C1045 1.429 . S
C1042 C1025 1.574 . S
C1042 H1036 0.949 . S
C1042 C1046 1.368 . S
C1043 C1024 1.429 . S
C1043 C1037 1.429 . S
C1043 C1044 1.523 . S
C1044 C1025 1.368 . S
C1044 C1038 1.368 . S
C1044 C1043 1.523 . S
C1045 C1029 1.429 . S
C1045 C1041 1.429 . S
C1045 C1046 1.523 . S
C1046 C1030 1.368 . S
C1046 C1042 1.368 . S
C1046 C1045 1.523 . S
H1047 C1022 0.950 . S
H1048 C1024 0.950 . S
H1049 C1025 0.949 . S
H1050 C1027 0.950 . S
H1051 C1029 0.950 . S
C1052 C1053 1.349 . S
C1052 C1054 1.327 . S
C1052 H1077 0.950 . S
C1053 C1052 1.349 . S
C1053 C1069 1.349 . S
C1054 C1052 1.327 . S
C1054 C1073 1.429 . S
C1054 H1078 0.950 . S
C1055 C1072 1.574 . S
C1055 C1074 1.368 . S
C1055 H1079 0.949 . S
H1056 C1060 0.949 . S
C1057 C1058 1.349 . S
C1057 C1059 1.327 . S
C1057 H1080 0.950 . S
C1058 C1057 1.349 . S
C1058 C1070 1.349 . S
C1059 C1057 1.327 . S
C1059 C1075 1.429 . S
C1059 H1081 0.950 . S
C1060 H1056 0.949 . S
C1060 C1068 1.574 . S
C1060 C1076 1.368 . S
H1061 C1069 0.950 . S
H1062 C1067 0.950 . S
H1063 C1068 0.949 . S
H1064 C1070 0.950 . S
H1065 C1071 0.950 . S
H1066 C1072 0.949 . S
C1067 H1062 0.950 . S
C1067 C1069 1.327 . S
C1067 C1073 1.429 . S
C1068 C1060 1.574 . S
C1068 H1063 0.949 . S
C1068 C1074 1.368 . S
C1069 C1053 1.349 . S
C1069 H1061 0.950 . S
C1069 C1067 1.327 . S
C1070 C1058 1.349 . S
C1070 H1064 0.950 . S
C1070 C1071 1.327 . S
C1071 H1065 0.950 . S
C1071 C1070 1.327 . S
C1071 C1075 1.429 . S
C1072 C1055 1.574 . S
C1072 H1066 0.949 . S
C1072 C1076 1.368 . S
C1073 C1054 1.429 . S
C1073 C1067 1.429 . S
C1073 C1074 1.523 . S
C1074 C1055 1.368 . S
C1074 C1068 1.368 . S
C1074 C1073 1.523 . S
C1075 C1059 1.429 . S
C1075 C1071 1.429 . S
C1075 C1076 1.523 . S
C1076 C1060 1.368 . S
C1076 C1072 1.368 . S
C1076 C1075 1.523 . S
H1077 C1052 0.950 . S
H1078 C1054 0.950 . S
H1079 C1055 0.949 . S
H1080 C1057 0.950 . S
H1081 C1059 0.950 . S
C1082 C1083 1.349 . S
C1082 C1084 1.327 . S
C1082 H1107 0.950 . S
C1083 C1082 1.349 . S
C1083 C1099 1.349 . S
C1084 C1082 1.327 . S
C1084 C1103 1.429 . S
C1084 H1108 0.950 . S
C1085 C1102 1.574 . S
C1085 C1104 1.368 . S
C1085 H1109 0.949 . S
H1086 C1090 0.949 . S
C1087 C1088 1.349 . S
C1087 C1089 1.327 . S
C1087 H1110 0.950 . S
C1088 C1087 1.349 . S
C1088 C1100 1.370 . S
C1089 C1087 1.327 . S
C1089 C1105 1.429 . S
C1089 H1111 0.950 . S
C1090 H1086 0.949 . S
C1090 C1098 1.574 . S
C1090 C1106 1.368 . S
H1091 C1099 0.950 . S
H1092 C1097 0.950 . S
H1093 C1098 0.949 . S
H1094 C1100 0.916 1_565 S
H1095 C1101 0.950 1_565 S
H1096 C1102 0.949 . S
C1097 H1092 0.950 . S
C1097 C1099 1.327 . S
C1097 C1103 1.429 . S
C1098 C1090 1.574 . S
C1098 H1093 0.949 . S
C1098 C1104 1.368 . S
C1099 C1083 1.349 . S
C1099 H1091 0.950 . S
C1099 C1097 1.327 . S
C1100 C1088 1.370 . S
C1100 H1094 0.916 1_545 S
C1100 C1101 1.343 . S
C1101 H1095 0.950 1_545 S
C1101 C1100 1.343 . S
C1101 C1105 1.429 . S
C1102 C1085 1.574 . S
C1102 H1096 0.949 . S
C1102 C1106 1.368 . S
C1103 C1084 1.429 . S
C1103 C1097 1.429 . S
C1103 C1104 1.523 . S
C1104 C1085 1.368 . S
C1104 C1098 1.368 . S
C1104 C1103 1.523 . S
C1105 C1089 1.429 . S
C1105 C1101 1.429 . S
C1105 C1106 1.523 . S
C1106 C1090 1.368 . S
C1106 C1102 1.368 . S
C1106 C1105 1.523 . S
H1107 C1082 0.950 . S
H1108 C1084 0.950 . S
H1109 C1085 0.949 . S
H1110 C1087 0.950 . S
H1111 C1089 0.950 . S
C1112 C1113 1.349 . S
C1112 C1114 1.327 . S
C1112 H1137 0.950 . S
C1113 C1112 1.349 . S
C1113 C1129 1.349 . S
C1114 C1112 1.327 . S
C1114 C1133 1.429 . S
C1114 H1138 0.950 . S
C1115 C1132 1.574 . S
C1115 C1134 1.368 . S
C1115 H1139 0.949 . S
H1116 C1120 0.949 . S
C1117 C1118 1.349 . S
C1117 C1119 1.327 . S
C1117 H1140 0.950 . S
C1118 C1117 1.349 . S
C1118 C1130 1.349 . S
C1119 C1117 1.327 . S
C1119 C1135 1.429 . S
C1119 H1141 0.950 . S
C1120 H1116 0.949 . S
C1120 C1128 1.574 . S
C1120 C1136 1.368 . S
H1121 C1129 0.950 . S
H1122 C1127 0.950 . S
H1123 C1128 0.949 . S
H1124 C1130 0.950 . S
H1125 C1131 0.950 . S
H1126 C1132 0.949 . S
C1127 H1122 0.950 . S
C1127 C1129 1.327 . S
C1127 C1133 1.429 . S
C1128 C1120 1.574 . S
C1128 H1123 0.949 . S
C1128 C1134 1.368 . S
C1129 C1113 1.349 . S
C1129 H1121 0.950 . S
C1129 C1127 1.327 . S
C1130 C1118 1.349 . S
C1130 H1124 0.950 . S
C1130 C1131 1.327 . S
C1131 H1125 0.950 . S
C1131 C1130 1.327 . S
C1131 C1135 1.429 . S
C1132 C1115 1.574 . S
C1132 H1126 0.949 . S
C1132 C1136 1.368 . S
C1133 C1114 1.429 . S
C1133 C1127 1.429 . S
C1133 C1134 1.523 . S
C1134 C1115 1.368 . S
C1134 C1128 1.368 . S
C1134 C1133 1.523 . S
C1135 C1119 1.429 . S
C1135 C1131 1.429 . S
C1135 C1136 1.523 . S
C1136 C1120 1.368 . S
C1136 C1132 1.368 . S
C1136 C1135 1.523 . S
H1137 C1112 0.950 . S
H1138 C1114 0.950 . S
H1139 C1115 0.949 . S
H1140 C1117 0.950 . S
H1141 C1119 0.950 . S
C1142 C1143 1.349 . S
C1142 C1144 1.327 . S
C1142 H1167 0.950 . S
C1143 C1142 1.349 . S
C1143 C1159 1.349 . S
C1144 C1142 1.327 . S
C1144 C1163 1.429 . S
C1144 H1168 0.950 . S
C1145 C1162 1.574 . S
C1145 C1164 1.368 . S
C1145 H1169 0.949 . S
H1146 C1150 0.949 . S
C1147 C1148 1.349 . S
C1147 C1149 1.327 . S
C1147 H1170 0.950 . S
C1148 C1147 1.349 . S
C1148 C1160 1.349 . S
C1149 C1147 1.327 . S
C1149 C1165 1.429 . S
C1149 H1171 0.950 . S
C1150 H1146 0.949 . S
C1150 C1158 1.574 . S
C1150 C1166 1.368 . S
H1151 C1159 0.950 . S
H1152 C1157 0.950 . S
H1153 C1158 0.949 . S
H1154 C1160 0.950 . S
H1155 C1161 0.950 . S
H1156 C1162 0.949 . S
C1157 H1152 0.950 . S
C1157 C1159 1.327 . S
C1157 C1163 1.429 . S
C1158 C1150 1.574 . S
C1158 H1153 0.949 . S
C1158 C1164 1.368 . S
C1159 C1143 1.349 . S
C1159 H1151 0.950 . S
C1159 C1157 1.327 . S
C1160 C1148 1.349 . S
C1160 H1154 0.950 . S
C1160 C1161 1.327 . S
C1161 H1155 0.950 . S
C1161 C1160 1.327 . S
C1161 C1165 1.429 . S
C1162 C1145 1.574 . S
C1162 H1156 0.949 . S
C1162 C1166 1.368 . S
C1163 C1144 1.429 . S
C1163 C1157 1.429 . S
C1163 C1164 1.523 . S
C1164 C1145 1.368 . S
C1164 C1158 1.368 . S
C1164 C1163 1.523 . S
C1165 C1149 1.429 . S
C1165 C1161 1.429 . S
C1165 C1166 1.523 . S
C1166 C1150 1.368 . S
C1166 C1162 1.368 . S
C1166 C1165 1.523 . S
H1167 C1142 0.950 . S
H1168 C1144 0.950 . S
H1169 C1145 0.949 . S
H1170 C1147 0.950 . S
H1171 C1149 0.950 . S
C1172 C1173 1.349 . S
C1172 C1174 1.327 . S
C1172 H1197 0.950 . S
C1173 C1172 1.349 . S
C1173 C1189 1.349 . S
C1174 C1172 1.327 . S
C1174 C1193 1.429 . S
C1174 H1198 0.950 . S
C1175 C1192 1.574 . S
C1175 C1194 1.368 . S
C1175 H1199 0.949 . S
H1176 C1180 0.949 . S
C1177 C1178 1.349 . S
C1177 C1179 1.327 . S
C1177 H1200 0.950 . S
C1178 C1177 1.349 . S
C1178 C1190 1.349 . S
C1179 C1177 1.327 . S
C1179 C1195 1.429 . S
C1179 H1201 0.950 . S
C1180 H1176 0.949 . S
C1180 C1188 1.574 . S
C1180 C1196 1.368 . S
H1181 C1189 0.950 . S
H1182 C1187 0.950 . S
H1183 C1188 0.949 . S
H1184 C1190 0.950 . S
H1185 C1191 0.950 . S
H1186 C1192 0.949 . S
C1187 H1182 0.950 . S
C1187 C1189 1.327 . S
C1187 C1193 1.429 . S
C1188 C1180 1.574 . S
C1188 H1183 0.949 . S
C1188 C1194 1.368 . S
C1189 C1173 1.349 . S
C1189 H1181 0.950 . S
C1189 C1187 1.327 . S
C1190 C1178 1.349 . S
C1190 H1184 0.950 . S
C1190 C1191 1.327 . S
C1191 H1185 0.950 . S
C1191 C1190 1.327 . S
C1191 C1195 1.429 . S
C1192 C1175 1.574 . S
C1192 H1186 0.949 . S
C1192 C1196 1.368 . S
C1193 C1174 1.429 . S
C1193 C1187 1.429 . S
C1193 C1194 1.523 . S
C1194 C1175 1.368 . S
C1194 C1188 1.368 . S
C1194 C1193 1.523 . S
C1195 C1179 1.429 . S
C1195 C1191 1.429 . S
C1195 C1196 1.523 . S
C1196 C1180 1.368 . S
C1196 C1192 1.368 . S
C1196 C1195 1.523 . S
H1197 C1172 0.950 . S
H1198 C1174 0.950 . S
H1199 C1175 0.949 . S
H1200 C1177 0.950 . S
H1201 C1179 0.950 . S
C1202 C1203 1.349 . S
C1202 C1204 1.327 . S
C1202 H1227 0.950 1_655 S
C1203 C1202 1.349 . S
C1203 C1219 1.349 . S
C1204 C1202 1.327 . S
C1204 C1223 1.429 . S
C1204 H1228 0.950 . S
C1205 C1222 1.574 . S
C1205 C1224 1.368 . S
C1205 H1229 0.949 . S
H1206 C1210 0.949 . S
C1207 C1208 1.349 . S
C1207 C1209 1.327 . S
C1207 H1230 0.950 . S
C1208 C1207 1.349 . S
C1208 C1220 1.349 . S
C1209 C1207 1.327 . S
C1209 C1225 1.429 . S
C1209 H1231 0.950 . S
C1210 H1206 0.949 . S
C1210 C1218 1.574 . S
C1210 C1226 1.368 . S
H1211 C1219 0.950 . S
H1212 C1217 0.950 . S
H1213 C1218 0.949 . S
H1214 C1220 0.950 . S
H1215 C1221 0.950 . S
H1216 C1222 0.949 . S
C1217 H1212 0.950 . S
C1217 C1219 1.327 . S
C1217 C1223 1.429 . S
C1218 C1210 1.574 . S
C1218 H1213 0.949 . S
C1218 C1224 1.368 . S
C1219 C1203 1.349 . S
C1219 H1211 0.950 . S
C1219 C1217 1.327 . S
C1220 C1208 1.349 . S
C1220 H1214 0.950 . S
C1220 C1221 1.327 . S
C1221 H1215 0.950 . S
C1221 C1220 1.327 . S
C1221 C1225 1.429 . S
C1222 C1205 1.574 . S
C1222 H1216 0.949 . S
C1222 C1226 1.368 . S
C1223 C1204 1.429 . S
C1223 C1217 1.429 . S
C1223 C1224 1.523 . S
C1224 C1205 1.368 . S
C1224 C1218 1.368 . S
C1224 C1223 1.523 . S
C1225 C1209 1.429 . S
C1225 C1221 1.429 . S
C1225 C1226 1.523 . S
C1226 C1210 1.368 . S
C1226 C1222 1.368 . S
C1226 C1225 1.523 . S
H1227 C1202 0.950 1_455 S
H1228 C1204 0.950 . S
H1229 C1205 0.949 . S
H1230 C1207 0.950 . S
H1231 C1209 0.950 . S
C1232 C1233 1.349 . S
C1232 C1234 1.327 . S
C1232 H1257 0.950 . S
C1233 C1232 1.349 . S
C1233 C1249 1.349 . S
C1234 C1232 1.327 . S
C1234 C1253 1.429 . S
C1234 H1258 0.950 . S
C1235 C1252 1.574 . S
C1235 C1254 1.368 . S
C1235 H1259 0.949 . S
H1236 C1240 0.949 . S
C1237 C1238 1.349 . S
C1237 C1239 1.327 . S
C1237 H1260 0.950 . S
C1238 C1237 1.349 . S
C1238 C1250 1.349 . S
C1239 C1237 1.327 . S
C1239 C1255 1.429 . S
C1239 H1261 0.950 . S
C1240 H1236 0.949 . S
C1240 C1248 1.574 . S
C1240 C1256 1.368 . S
H1241 C1249 0.950 . S
H1242 C1247 0.950 . S
H1243 C1248 0.949 . S
H1244 C1250 0.950 . S
H1245 C1251 0.950 . S
H1246 C1252 0.949 . S
C1247 H1242 0.950 . S
C1247 C1249 1.327 . S
C1247 C1253 1.429 . S
C1248 C1240 1.574 . S
C1248 H1243 0.949 . S
C1248 C1254 1.368 . S
C1249 C1233 1.349 . S
C1249 H1241 0.950 . S
C1249 C1247 1.327 . S
C1250 C1238 1.349 . S
C1250 H1244 0.950 . S
C1250 C1251 1.327 . S
C1251 H1245 0.950 . S
C1251 C1250 1.327 . S
C1251 C1255 1.429 . S
C1252 C1235 1.574 . S
C1252 H1246 0.949 . S
C1252 C1256 1.368 . S
C1253 C1234 1.429 . S
C1253 C1247 1.429 . S
C1253 C1254 1.523 . S
C1254 C1235 1.368 . S
C1254 C1248 1.368 . S
C1254 C1253 1.523 . S
C1255 C1239 1.429 . S
C1255 C1251 1.429 . S
C1255 C1256 1.523 . S
C1256 C1240 1.368 . S
C1256 C1252 1.368 . S
C1256 C1255 1.523 . S
H1257 C1232 0.950 . S
H1258 C1234 0.950 . S
H1259 C1235 0.949 . S
H1260 C1237 0.950 . S
H1261 C1239 0.950 . S
C1262 C1263 1.349 . S
C1262 C1264 1.327 1_655 S
C1262 H1287 0.950 . S
C1263 C1262 1.349 . S
C1263 C1279 1.349 1_655 S
C1264 C1262 1.327 1_455 S
C1264 C1283 1.429 . S
C1264 H1288 0.950 . S
C1265 C1282 1.574 . S
C1265 C1284 1.368 . S
C1265 H1289 0.949 . S
H1266 C1270 0.949 . S
C1267 C1268 1.349 . S
C1267 C1269 1.327 . S
C1267 H1290 0.950 . S
C1268 C1267 1.349 . S
C1268 C1280 1.349 . S
C1269 C1267 1.327 . S
C1269 C1285 1.429 . S
C1269 H1291 0.950 . S
C1270 H1266 0.949 . S
C1270 C1278 1.574 . S
C1270 C1286 1.368 . S
H1271 C1279 0.950 . S
H1272 C1277 0.950 . S
H1273 C1278 0.949 . S
H1274 C1280 0.950 . S
H1275 C1281 0.950 . S
H1276 C1282 0.949 . S
C1277 H1272 0.950 . S
C1277 C1279 1.327 . S
C1277 C1283 1.429 . S
C1278 C1270 1.574 . S
C1278 H1273 0.949 . S
C1278 C1284 1.368 . S
C1279 C1263 1.349 1_455 S
C1279 H1271 0.950 . S
C1279 C1277 1.327 . S
C1280 C1268 1.349 . S
C1280 H1274 0.950 . S
C1280 C1281 1.327 . S
C1281 H1275 0.950 . S
C1281 C1280 1.327 . S
C1281 C1285 1.429 . S
C1282 C1265 1.574 . S
C1282 H1276 0.949 . S
C1282 C1286 1.368 . S
C1283 C1264 1.429 . S
C1283 C1277 1.429 . S
C1283 C1284 1.523 . S
C1284 C1265 1.368 . S
C1284 C1278 1.368 . S
C1284 C1283 1.523 . S
C1285 C1269 1.429 . S
C1285 C1281 1.429 . S
C1285 C1286 1.523 . S
C1286 C1270 1.368 . S
C1286 C1282 1.368 . S
C1286 C1285 1.523 . S
H1287 C1262 0.950 . S
H1288 C1264 0.950 . S
H1289 C1265 0.949 . S
H1290 C1267 0.950 . S
H1291 C1269 0.950 . S
C1292 C1293 1.349 . S
C1292 C1294 1.327 . S
C1292 H1317 0.950 . S
C1293 C1292 1.349 . S
C1293 C1309 1.349 . S
C1294 C1292 1.327 . S
C1294 C1313 1.429 . S
C1294 H1318 0.950 . S
C1295 C1312 1.574 . S
C1295 C1314 1.368 . S
C1295 H1319 0.949 . S
H1296 C1300 0.949 . S
C1297 C1298 1.349 . S
C1297 C1299 1.327 . S
C1297 H1320 0.950 . S
C1298 C1297 1.349 . S
C1298 C1310 1.349 . S
C1299 C1297 1.327 . S
C1299 C1315 1.429 . S
C1299 H1321 0.950 . S
C1300 H1296 0.949 . S
C1300 C1308 1.574 . S
C1300 C1316 1.368 . S
H1301 C1309 0.950 . S
H1302 C1307 0.950 . S
H1303 C1308 0.949 . S
H1304 C1310 0.950 . S
H1305 C1311 0.950 . S
H1306 C1312 0.949 . S
C1307 H1302 0.950 . S
C1307 C1309 1.327 . S
C1307 C1313 1.429 . S
C1308 C1300 1.574 . S
C1308 H1303 0.949 . S
C1308 C1314 1.368 . S
C1309 C1293 1.349 . S
C1309 H1301 0.950 . S
C1309 C1307 1.327 . S
C1310 C1298 1.349 . S
C1310 H1304 0.950 . S
C1310 C1311 1.327 . S
C1311 H1305 0.950 . S
C1311 C1310 1.327 . S
C1311 C1315 1.429 . S
C1312 C1295 1.574 . S
C1312 H1306 0.949 . S
C1312 C1316 1.368 . S
C1313 C1294 1.429 . S
C1313 C1307 1.429 . S
C1313 C1314 1.523 . S
C1314 C1295 1.368 . S
C1314 C1308 1.368 . S
C1314 C1313 1.523 . S
C1315 C1299 1.429 . S
C1315 C1311 1.429 . S
C1315 C1316 1.523 . S
C1316 C1300 1.368 . S
C1316 C1312 1.368 . S
C1316 C1315 1.523 . S
H1317 C1292 0.950 . S
H1318 C1294 0.950 . S
H1319 C1295 0.949 . S
H1320 C1297 0.950 . S
H1321 C1299 0.950 . S
C1322 C1323 1.349 . S
C1322 C1324 1.327 . S
C1322 H1347 0.950 . S
C1323 C1322 1.349 . S
C1323 C1339 1.349 . S
C1324 C1322 1.327 . S
C1324 C1343 1.429 . S
C1324 H1348 0.950 . S
C1325 C1342 1.558 1_655 S
C1325 C1344 1.411 1_556 S
C1325 H1349 0.921 1_655 S
H1326 C1330 0.949 . S
C1327 C1328 1.349 . S
C1327 C1329 1.327 . S
C1327 H1350 0.950 . S
C1328 C1327 1.349 . S
C1328 C1340 1.349 1_455 S
C1329 C1327 1.327 . S
C1329 C1345 1.429 1_455 S
C1329 H1351 0.950 . S
C1330 H1326 0.949 . S
C1330 C1338 1.574 . S
C1330 C1346 1.368 1_554 S
H1331 C1339 0.950 . S
H1332 C1337 0.950 1_455 S
H1333 C1338 0.949 . S
H1334 C1340 0.950 . S
H1335 C1341 0.950 . S
H1336 C1342 0.949 . S
C1337 H1332 0.950 1_655 S
C1337 C1339 1.327 . S
C1337 C1343 1.429 . S
C1338 C1330 1.574 . S
C1338 H1333 0.949 . S
C1338 C1344 1.368 . S
C1339 C1323 1.349 . S
C1339 H1331 0.950 . S
C1339 C1337 1.327 . S
C1340 C1328 1.349 1_655 S
C1340 H1334 0.950 . S
C1340 C1341 1.327 . S
C1341 H1335 0.950 . S
C1341 C1340 1.327 . S
C1341 C1345 1.429 . S
C1342 C1325 1.558 1_455 S
C1342 H1336 0.949 . S
C1342 C1346 1.368 1_455 S
C1343 C1324 1.429 . S
C1343 C1337 1.429 . S
C1343 C1344 1.523 . S
C1344 C1325 1.411 1_554 S
C1344 C1338 1.368 . S
C1344 C1343 1.523 . S
C1345 C1329 1.429 1_655 S
C1345 C1341 1.429 . S
C1345 C1346 1.523 . S
C1346 C1330 1.368 1_556 S
C1346 C1342 1.368 1_655 S
C1346 C1345 1.523 . S
H1347 C1322 0.950 . S
H1348 C1324 0.950 . S
H1349 C1325 0.921 1_455 S
H1350 C1327 0.950 . S
H1351 C1329 0.950 . S
C1352 C1353 1.349 . S
C1352 C1354 1.327 . S
C1352 H1377 0.950 . S
C1353 C1352 1.349 . S
C1353 C1369 1.349 . S
C1354 C1352 1.327 . S
C1354 C1373 1.429 . S
C1354 H1378 0.950 . S
C1355 C1372 1.574 . S
C1355 C1374 1.368 . S
C1355 H1379 0.949 . S
H1356 C1360 0.949 . S
C1357 C1358 1.349 . S
C1357 C1359 1.327 . S
C1357 H1380 0.950 . S
C1358 C1357 1.349 . S
C1358 C1370 1.349 . S
C1359 C1357 1.327 . S
C1359 C1375 1.429 . S
C1359 H1381 0.950 . S
C1360 H1356 0.949 . S
C1360 C1368 1.574 . S
C1360 C1376 1.368 . S
H1361 C1369 0.950 . S
H1362 C1367 0.950 . S
H1363 C1368 0.949 . S
H1364 C1370 0.950 . S
H1365 C1371 0.950 . S
H1366 C1372 0.949 . S
C1367 H1362 0.950 . S
C1367 C1369 1.327 . S
C1367 C1373 1.429 . S
C1368 C1360 1.574 . S
C1368 H1363 0.949 . S
C1368 C1374 1.368 . S
C1369 C1353 1.349 . S
C1369 H1361 0.950 . S
C1369 C1367 1.327 . S
C1370 C1358 1.349 . S
C1370 H1364 0.950 . S
C1370 C1371 1.327 . S
C1371 H1365 0.950 . S
C1371 C1370 1.327 . S
C1371 C1375 1.429 . S
C1372 C1355 1.574 . S
C1372 H1366 0.949 . S
C1372 C1376 1.368 . S
C1373 C1354 1.429 . S
C1373 C1367 1.429 . S
C1373 C1374 1.523 . S
C1374 C1355 1.368 . S
C1374 C1368 1.368 . S
C1374 C1373 1.523 . S
C1375 C1359 1.429 . S
C1375 C1371 1.429 . S
C1375 C1376 1.523 . S
C1376 C1360 1.368 . S
C1376 C1372 1.368 . S
C1376 C1375 1.523 . S
H1377 C1352 0.950 . S
H1378 C1354 0.950 . S
H1379 C1355 0.949 . S
H1380 C1357 0.950 . S
H1381 C1359 0.950 . S
C1382 C1383 1.349 . S
C1382 C1384 1.327 . S
C1382 H1407 0.950 . S
C1383 C1382 1.349 . S
C1383 C1399 1.349 . S
C1384 C1382 1.327 . S
C1384 C1403 1.429 . S
C1384 H1408 0.950 . S
C1385 C1402 1.574 . S
C1385 C1404 1.368 1_556 S
C1385 H1409 0.949 . S
H1386 C1390 0.949 . S
C1387 C1388 1.349 . S
C1387 C1389 1.327 . S
C1387 H1410 0.950 1_455 S
C1388 C1387 1.349 . S
C1388 C1400 1.349 . S
C1389 C1387 1.327 . S
C1389 C1405 1.429 . S
C1389 H1411 0.950 1_455 S
C1390 H1386 0.949 . S
C1390 C1398 1.574 . S
C1390 C1406 1.368 1_554 S
H1391 C1399 0.950 . S
H1392 C1397 0.950 1_556 S
H1393 C1398 0.949 . S
H1394 C1400 0.950 . S
H1395 C1401 0.950 . S
H1396 C1402 0.916 1_655 S
C1397 H1392 0.950 1_554 S
C1397 C1399 1.327 . S
C1397 C1403 1.429 . S
C1398 C1390 1.574 . S
C1398 H1393 0.949 . S
C1398 C1404 1.368 . S
C1399 C1383 1.349 . S
C1399 H1391 0.950 . S
C1399 C1397 1.327 . S
C1400 C1388 1.349 . S
C1400 H1394 0.950 . S
C1400 C1401 1.327 . S
C1401 H1395 0.950 . S
C1401 C1400 1.327 . S
C1401 C1405 1.429 . S
C1402 C1385 1.574 . S
C1402 H1396 0.916 1_455 S
C1402 C1406 1.368 . S
C1403 C1384 1.429 . S
C1403 C1397 1.429 . S
C1403 C1404 1.523 . S
C1404 C1385 1.368 1_554 S
C1404 C1398 1.368 . S
C1404 C1403 1.523 . S
C1405 C1389 1.429 . S
C1405 C1401 1.429 . S
C1405 C1406 1.523 . S
C1406 C1390 1.368 1_556 S
C1406 C1402 1.368 . S
C1406 C1405 1.523 . S
H1407 C1382 0.950 . S
H1408 C1384 0.950 . S
H1409 C1385 0.949 . S
H1410 C1387 0.950 1_655 S
H1411 C1389 0.950 1_655 S
C1412 C1413 1.349 . S
C1412 C1414 1.327 . S
C1412 H1437 0.950 . S
C1413 C1412 1.349 . S
C1413 C1429 1.349 . S
C1414 C1412 1.327 . S
C1414 C1433 1.429 . S
C1414 H1438 0.950 . S
C1415 C1432 1.574 . S
C1415 C1434 1.368 . S
C1415 H1439 0.949 . S
H1416 C1420 0.949 . S
C1417 C1418 1.349 . S
C1417 C1419 1.327 . S
C1417 H1440 0.950 . S
C1418 C1417 1.349 . S
C1418 C1430 1.349 . S
C1419 C1417 1.327 . S
C1419 C1435 1.429 . S
C1419 H1441 0.950 . S
C1420 H1416 0.949 . S
C1420 C1428 1.574 . S
C1420 C1436 1.368 . S
H1421 C1429 0.950 . S
H1422 C1427 0.950 . S
H1423 C1428 0.949 . S
H1424 C1430 0.950 . S
H1425 C1431 0.950 . S
H1426 C1432 0.949 . S
C1427 H1422 0.950 . S
C1427 C1429 1.327 . S
C1427 C1433 1.429 . S
C1428 C1420 1.574 . S
C1428 H1423 0.949 . S
C1428 C1434 1.368 . S
C1429 C1413 1.349 . S
C1429 H1421 0.950 . S
C1429 C1427 1.327 . S
C1430 C1418 1.349 . S
C1430 H1424 0.950 . S
C1430 C1431 1.327 . S
C1431 H1425 0.950 . S
C1431 C1430 1.327 . S
C1431 C1435 1.429 . S
C1432 C1415 1.574 . S
C1432 H1426 0.949 . S
C1432 C1436 1.368 . S
C1433 C1414 1.429 . S
C1433 C1427 1.429 . S
C1433 C1434 1.523 . S
C1434 C1415 1.368 . S
C1434 C1428 1.368 . S
C1434 C1433 1.523 . S
C1435 C1419 1.429 . S
C1435 C1431 1.429 . S
C1435 C1436 1.523 . S
C1436 C1420 1.368 . S
C1436 C1432 1.368 . S
C1436 C1435 1.523 . S
H1437 C1412 0.950 . S
H1438 C1414 0.950 . S
H1439 C1415 0.949 . S
H1440 C1417 0.950 . S
H1441 C1419 0.950 . S
C1442 C1443 1.349 . S
C1442 C1444 1.327 . S
C1442 H1467 0.981 . S
C1443 C1442 1.349 . S
C1443 C1459 1.349 . S
C1444 C1442 1.327 . S
C1444 C1463 1.429 . S
C1444 H1468 0.950 . S
C1445 C1462 1.574 . S
C1445 C1464 1.368 . S
C1445 H1469 0.949 . S
H1446 C1450 0.949 . S
C1447 C1448 1.349 . S
C1447 C1449 1.327 . S
C1447 H1470 0.950 . S
C1448 C1447 1.349 . S
C1448 C1460 1.349 . S
C1449 C1447 1.327 . S
C1449 C1465 1.429 . S
C1449 H1471 0.950 . S
C1450 H1446 0.949 . S
C1450 C1458 1.574 . S
C1450 C1466 1.368 . S
H1451 C1459 0.950 . S
H1452 C1457 0.950 . S
H1453 C1458 0.949 . S
H1454 C1460 0.950 . S
H1455 C1461 0.950 . S
H1456 C1462 0.949 . S
C1457 H1452 0.950 . S
C1457 C1459 1.327 . S
C1457 C1463 1.429 . S
C1458 C1450 1.574 . S
C1458 H1453 0.949 . S
C1458 C1464 1.368 . S
C1459 C1443 1.349 . S
C1459 H1451 0.950 . S
C1459 C1457 1.327 . S
C1460 C1448 1.349 . S
C1460 H1454 0.950 . S
C1460 C1461 1.327 . S
C1461 H1455 0.950 . S
C1461 C1460 1.327 . S
C1461 C1465 1.429 . S
C1462 C1445 1.574 . S
C1462 H1456 0.949 . S
C1462 C1466 1.368 . S
C1463 C1444 1.429 . S
C1463 C1457 1.429 . S
C1463 C1464 1.523 . S
C1464 C1445 1.368 . S
C1464 C1458 1.368 . S
C1464 C1463 1.523 . S
C1465 C1449 1.429 . S
C1465 C1461 1.429 . S
C1465 C1466 1.523 . S
C1466 C1450 1.368 . S
C1466 C1462 1.368 . S
C1466 C1465 1.523 . S
H1467 C1442 0.981 . S
H1468 C1444 0.950 . S
H1469 C1445 0.949 . S
H1470 C1447 0.950 . S
H1471 C1449 0.950 . S
C1472 C1473 1.349 . S
C1472 C1474 1.327 . S
C1472 H1497 0.950 . S
C1473 C1472 1.349 . S
C1473 C1489 1.349 . S
C1474 C1472 1.327 . S
C1474 C1493 1.429 . S
C1474 H1498 0.950 . S
C1475 C1492 1.574 . S
C1475 C1494 1.368 . S
C1475 H1499 0.949 . S
H1476 C1480 0.949 . S
C1477 C1478 1.349 . S
C1477 C1479 1.327 . S
C1477 H1500 0.950 . S
C1478 C1477 1.349 . S
C1478 C1490 1.349 . S
C1479 C1477 1.327 . S
C1479 C1495 1.429 . S
C1479 H1501 0.950 . S
C1480 H1476 0.949 . S
C1480 C1488 1.574 . S
C1480 C1496 1.368 . S
H1481 C1489 0.950 . S
H1482 C1487 0.950 . S
H1483 C1488 0.949 . S
H1484 C1490 0.950 . S
H1485 C1491 0.950 . S
H1486 C1492 0.949 . S
C1487 H1482 0.950 . S
C1487 C1489 1.327 . S
C1487 C1493 1.429 . S
C1488 C1480 1.574 . S
C1488 H1483 0.949 . S
C1488 C1494 1.368 . S
C1489 C1473 1.349 . S
C1489 H1481 0.950 . S
C1489 C1487 1.327 . S
C1490 C1478 1.349 . S
C1490 H1484 0.950 . S
C1490 C1491 1.327 . S
C1491 H1485 0.950 . S
C1491 C1490 1.327 . S
C1491 C1495 1.429 . S
C1492 C1475 1.574 . S
C1492 H1486 0.949 . S
C1492 C1496 1.368 . S
C1493 C1474 1.429 . S
C1493 C1487 1.429 . S
C1493 C1494 1.523 . S
C1494 C1475 1.368 . S
C1494 C1488 1.368 . S
C1494 C1493 1.523 . S
C1495 C1479 1.429 . S
C1495 C1491 1.429 . S
C1495 C1496 1.523 . S
C1496 C1480 1.368 . S
C1496 C1492 1.368 . S
C1496 C1495 1.523 . S
H1497 C1472 0.950 . S
H1498 C1474 0.950 . S
H1499 C1475 0.949 . S
H1500 C1477 0.950 . S
H1501 C1479 0.950 . S
C1502 C1503 1.349 . S
C1502 C1504 1.327 . S
C1502 H1527 0.950 . S
C1503 C1502 1.349 . S
C1503 C1519 1.349 . S
C1504 C1502 1.327 . S
C1504 C1523 1.429 . S
C1504 H1528 0.950 . S
C1505 C1522 1.574 . S
C1505 C1524 1.368 . S
C1505 H1529 0.949 . S
H1506 C1510 0.949 . S
C1507 C1508 1.349 . S
C1507 C1509 1.327 . S
C1507 H1530 0.950 . S
C1508 C1507 1.349 . S
C1508 C1520 1.349 . S
C1509 C1507 1.327 . S
C1509 C1525 1.429 . S
C1509 H1531 0.950 . S
C1510 H1506 0.949 . S
C1510 C1518 1.574 . S
C1510 C1526 1.368 . S
H1511 C1519 0.950 . S
H1512 C1517 0.950 . S
H1513 C1518 0.949 . S
H1514 C1520 0.950 . S
H1515 C1521 0.950 . S
H1516 C1522 0.949 . S
C1517 H1512 0.950 . S
C1517 C1519 1.327 . S
C1517 C1523 1.429 . S
C1518 C1510 1.574 . S
C1518 H1513 0.949 . S
C1518 C1524 1.368 . S
C1519 C1503 1.349 . S
C1519 H1511 0.950 . S
C1519 C1517 1.327 . S
C1520 C1508 1.349 . S
C1520 H1514 0.950 . S
C1520 C1521 1.327 . S
C1521 H1515 0.950 . S
C1521 C1520 1.327 . S
C1521 C1525 1.429 . S
C1522 C1505 1.574 . S
C1522 H1516 0.949 . S
C1522 C1526 1.368 . S
C1523 C1504 1.429 . S
C1523 C1517 1.429 . S
C1523 C1524 1.523 . S
C1524 C1505 1.368 . S
C1524 C1518 1.368 . S
C1524 C1523 1.523 . S
C1525 C1509 1.429 . S
C1525 C1521 1.429 . S
C1525 C1526 1.523 . S
C1526 C1510 1.368 . S
C1526 C1522 1.368 . S
C1526 C1525 1.523 . S
H1527 C1502 0.950 . S
H1528 C1504 0.950 . S
H1529 C1505 0.949 . S
H1530 C1507 0.950 . S
H1531 C1509 0.950 . S
C1532 C1533 1.349 . S
C1532 C1534 1.327 . S
C1532 H1557 0.950 . S
C1533 C1532 1.349 . S
C1533 C1549 1.349 . S
C1534 C1532 1.327 . S
C1534 C1553 1.429 . S
C1534 H1558 0.950 . S
C1535 C1552 1.574 . S
C1535 C1554 1.368 . S
C1535 H1559 0.949 . S
H1536 C1540 0.949 . S
C1537 C1538 1.349 . S
C1537 C1539 1.327 . S
C1537 H1560 0.950 . S
C1538 C1537 1.349 . S
C1538 C1550 1.349 . S
C1539 C1537 1.327 . S
C1539 C1555 1.429 . S
C1539 H1561 0.950 . S
C1540 H1536 0.949 . S
C1540 C1548 1.574 . S
C1540 C1556 1.368 . S
H1541 C1549 0.950 . S
H1542 C1547 0.950 . S
H1543 C1548 0.949 . S
H1544 C1550 0.950 . S
H1545 C1551 0.950 . S
H1546 C1552 0.949 . S
C1547 H1542 0.950 . S
C1547 C1549 1.327 . S
C1547 C1553 1.429 . S
C1548 C1540 1.574 . S
C1548 H1543 0.949 . S
C1548 C1554 1.368 . S
C1549 C1533 1.349 . S
C1549 H1541 0.950 . S
C1549 C1547 1.327 . S
C1550 C1538 1.349 . S
C1550 H1544 0.950 . S
C1550 C1551 1.327 . S
C1551 H1545 0.950 . S
C1551 C1550 1.327 . S
C1551 C1555 1.429 . S
C1552 C1535 1.574 . S
C1552 H1546 0.949 . S
C1552 C1556 1.368 . S
C1553 C1534 1.429 . S
C1553 C1547 1.429 . S
C1553 C1554 1.523 . S
C1554 C1535 1.368 . S
C1554 C1548 1.368 . S
C1554 C1553 1.523 . S
C1555 C1539 1.429 . S
C1555 C1551 1.429 . S
C1555 C1556 1.523 . S
C1556 C1540 1.368 . S
C1556 C1552 1.368 . S
C1556 C1555 1.523 . S
H1557 C1532 0.950 . S
H1558 C1534 0.950 . S
H1559 C1535 0.949 . S
H1560 C1537 0.950 . S
H1561 C1539 0.950 . S
C1562 C1563 1.349 . S
C1562 C1564 1.327 . S
C1562 H1587 0.950 . S
C1563 C1562 1.349 . S
C1563 C1579 1.349 . S
C1564 C1562 1.327 . S
C1564 C1583 1.429 . S
C1564 H1588 0.950 . S
C1565 C1582 1.574 . S
C1565 C1584 1.368 . S
C1565 H1589 0.949 . S
H1566 C1570 0.949 . S
C1567 C1568 1.349 . S
C1567 C1569 1.327 . S
C1567 H1590 0.950 . S
C1568 C1567 1.349 . S
C1568 C1580 1.349 . S
C1569 C1567 1.327 . S
C1569 C1585 1.429 . S
C1569 H1591 0.950 . S
C1570 H1566 0.949 . S
C1570 C1578 1.574 . S
C1570 C1586 1.368 . S
H1571 C1579 0.950 . S
H1572 C1577 0.950 . S
H1573 C1578 0.949 . S
H1574 C1580 0.950 . S
H1575 C1581 0.950 . S
H1576 C1582 0.949 . S
C1577 H1572 0.950 . S
C1577 C1579 1.327 . S
C1577 C1583 1.429 . S
C1578 C1570 1.574 . S
C1578 H1573 0.949 . S
C1578 C1584 1.368 . S
C1579 C1563 1.349 . S
C1579 H1571 0.950 . S
C1579 C1577 1.327 . S
C1580 C1568 1.349 . S
C1580 H1574 0.950 . S
C1580 C1581 1.327 . S
C1581 H1575 0.950 . S
C1581 C1580 1.327 . S
C1581 C1585 1.429 . S
C1582 C1565 1.574 . S
C1582 H1576 0.949 . S
C1582 C1586 1.368 . S
C1583 C1564 1.429 . S
C1583 C1577 1.429 . S
C1583 C1584 1.523 . S
C1584 C1565 1.368 . S
C1584 C1578 1.368 . S
C1584 C1583 1.523 . S
C1585 C1569 1.429 . S
C1585 C1581 1.429 . S
C1585 C1586 1.523 . S
C1586 C1570 1.368 . S
C1586 C1582 1.368 . S
C1586 C1585 1.523 . S
H1587 C1562 0.950 . S
H1588 C1564 0.950 . S
H1589 C1565 0.949 . S
H1590 C1567 0.950 . S
H1591 C1569 0.950 . S
C1592 C1593 1.349 . S
C1592 C1594 1.327 . S
C1592 H1617 0.950 . S
C1593 C1592 1.349 . S
C1593 C1609 1.349 . S
C1594 C1592 1.327 . S
C1594 C1613 1.429 . S
C1594 H1618 0.950 . S
C1595 C1612 1.574 . S
C1595 C1614 1.368 . S
C1595 H1619 0.949 . S
H1596 C1600 0.949 . S
C1597 C1598 1.349 . S
C1597 C1599 1.327 . S
C1597 H1620 0.950 . S
C1598 C1597 1.349 . S
C1598 C1610 1.349 . S
C1599 C1597 1.327 . S
C1599 C1615 1.429 . S
C1599 H1621 0.950 . S
C1600 H1596 0.949 . S
C1600 C1608 1.574 . S
C1600 C1616 1.368 . S
H1601 C1609 0.950 . S
H1602 C1607 0.950 . S
H1603 C1608 0.949 . S
H1604 C1610 0.950 . S
H1605 C1611 0.950 . S
H1606 C1612 0.949 . S
C1607 H1602 0.950 . S
C1607 C1609 1.327 . S
C1607 C1613 1.429 . S
C1608 C1600 1.574 . S
C1608 H1603 0.949 . S
C1608 C1614 1.368 . S
C1609 C1593 1.349 . S
C1609 H1601 0.950 . S
C1609 C1607 1.327 . S
C1610 C1598 1.349 . S
C1610 H1604 0.950 . S
C1610 C1611 1.327 . S
C1611 H1605 0.950 . S
C1611 C1610 1.327 . S
C1611 C1615 1.429 . S
C1612 C1595 1.574 . S
C1612 H1606 0.949 . S
C1612 C1616 1.368 . S
C1613 C1594 1.429 . S
C1613 C1607 1.429 . S
C1613 C1614 1.523 . S
C1614 C1595 1.368 . S
C1614 C1608 1.368 . S
C1614 C1613 1.523 . S
C1615 C1599 1.429 . S
C1615 C1611 1.429 . S
C1615 C1616 1.523 . S
C1616 C1600 1.368 . S
C1616 C1612 1.368 . S
C1616 C1615 1.523 . S
H1617 C1592 0.950 . S
H1618 C1594 0.950 . S
H1619 C1595 0.949 . S
H1620 C1597 0.950 . S
H1621 C1599 0.950 . S
C1622 C1623 1.349 . S
C1622 C1624 1.327 . S
C1622 H1647 0.950 . S
C1623 C1622 1.349 . S
C1623 C1639 1.349 . S
C1624 C1622 1.327 . S
C1624 C1643 1.429 . S
C1624 H1648 0.950 . S
C1625 C1642 1.574 . S
C1625 C1644 1.368 . S
C1625 H1649 0.949 . S
H1626 C1630 0.949 . S
C1627 C1628 1.349 . S
C1627 C1629 1.327 . S
C1627 H1650 0.950 . S
C1628 C1627 1.349 . S
C1628 C1640 1.349 . S
C1629 C1627 1.327 . S
C1629 C1645 1.429 . S
C1629 H1651 0.950 . S
C1630 H1626 0.949 . S
C1630 C1638 1.574 . S
C1630 C1646 1.368 . S
H1631 C1639 0.950 . S
H1632 C1637 0.950 . S
H1633 C1638 0.949 . S
H1634 C1640 0.950 . S
H1635 C1641 0.950 . S
H1636 C1642 0.949 . S
C1637 H1632 0.950 . S
C1637 C1639 1.327 . S
C1637 C1643 1.429 . S
C1638 C1630 1.574 . S
C1638 H1633 0.949 . S
C1638 C1644 1.368 . S
C1639 C1623 1.349 . S
C1639 H1631 0.950 . S
C1639 C1637 1.327 . S
C1640 C1628 1.349 . S
C1640 H1634 0.950 . S
C1640 C1641 1.327 . S
C1641 H1635 0.950 . S
C1641 C1640 1.327 . S
C1641 C1645 1.429 . S
C1642 C1625 1.574 . S
C1642 H1636 0.949 . S
C1642 C1646 1.368 . S
C1643 C1624 1.429 . S
C1643 C1637 1.429 . S
C1643 C1644 1.523 . S
C1644 C1625 1.368 . S
C1644 C1638 1.368 . S
C1644 C1643 1.523 . S
C1645 C1629 1.429 . S
C1645 C1641 1.429 . S
C1645 C1646 1.523 . S
C1646 C1630 1.368 . S
C1646 C1642 1.368 . S
C1646 C1645 1.523 . S
H1647 C1622 0.950 . S
H1648 C1624 0.950 . S
H1649 C1625 0.949 . S
H1650 C1627 0.950 . S
H1651 C1629 0.950 . S
C1652 C1653 1.349 . S
C1652 C1654 1.327 . S
C1652 H1677 0.950 . S
C1653 C1652 1.349 . S
C1653 C1669 1.349 . S
C1654 C1652 1.327 . S
C1654 C1673 1.429 . S
C1654 H1678 0.950 . S
C1655 C1672 1.574 1_556 S
C1655 C1674 1.368 . S
C1655 H1679 0.949 1_556 S
H1656 C1660 0.949 . S
C1657 C1658 1.349 1_554 S
C1657 C1659 1.327 . S
C1657 H1680 0.950 . S
C1658 C1657 1.349 1_556 S
C1658 C1670 1.349 . S
C1659 C1657 1.327 . S
C1659 C1675 1.429 1_554 S
C1659 H1681 0.950 . S
C1660 H1656 0.949 . S
C1660 C1668 1.574 . S
C1660 C1676 1.368 . S
H1661 C1669 0.950 . S
H1662 C1667 0.950 1_554 S
H1663 C1668 0.949 . S
H1664 C1670 0.950 . S
H1665 C1671 0.950 . S
H1666 C1672 0.949 . S
C1667 H1662 0.950 1_556 S
C1667 C1669 1.327 . S
C1667 C1673 1.429 . S
C1668 C1660 1.574 . S
C1668 H1663 0.949 . S
C1668 C1674 1.368 . S
C1669 C1653 1.349 . S
C1669 H1661 0.950 . S
C1669 C1667 1.327 . S
C1670 C1658 1.349 . S
C1670 H1664 0.950 . S
C1670 C1671 1.327 . S
C1671 H1665 0.950 . S
C1671 C1670 1.327 . S
C1671 C1675 1.429 . S
C1672 C1655 1.574 1_554 S
C1672 H1666 0.949 . S
C1672 C1676 1.368 1_554 S
C1673 C1654 1.429 . S
C1673 C1667 1.429 . S
C1673 C1674 1.523 . S
C1674 C1655 1.368 . S
C1674 C1668 1.368 . S
C1674 C1673 1.523 . S
C1675 C1659 1.429 1_556 S
C1675 C1671 1.429 . S
C1675 C1676 1.523 . S
C1676 C1660 1.368 . S
C1676 C1672 1.368 1_556 S
C1676 C1675 1.523 . S
H1677 C1652 0.950 . S
H1678 C1654 0.950 . S
H1679 C1655 0.949 1_554 S
H1680 C1657 0.950 . S
H1681 C1659 0.950 . S
C1682 C1683 1.349 . S
C1682 C1684 1.327 . S
C1682 H1707 0.950 . S
C1683 C1682 1.349 . S
C1683 C1699 1.349 . S
C1684 C1682 1.327 . S
C1684 C1703 1.429 . S
C1684 H1708 0.950 . S
C1685 C1702 1.574 . S
C1685 C1704 1.368 . S
C1685 H1709 0.949 . S
H1686 C1690 0.949 . S
C1687 C1688 1.349 . S
C1687 C1689 1.327 . S
C1687 H1710 0.950 . S
C1688 C1687 1.349 . S
C1688 C1700 1.349 . S
C1689 C1687 1.327 . S
C1689 C1705 1.429 . S
C1689 H1711 0.950 . S
C1690 H1686 0.949 . S
C1690 C1698 1.574 . S
C1690 C1706 1.368 . S
H1691 C1699 0.950 . S
H1692 C1697 0.950 . S
H1693 C1698 0.949 . S
H1694 C1700 0.950 . S
H1695 C1701 0.950 . S
H1696 C1702 0.949 . S
C1697 H1692 0.950 . S
C1697 C1699 1.327 . S
C1697 C1703 1.429 . S
C1698 C1690 1.574 . S
C1698 H1693 0.949 . S
C1698 C1704 1.368 . S
C1699 C1683 1.349 . S
C1699 H1691 0.950 . S
C1699 C1697 1.327 . S
C1700 C1688 1.349 . S
C1700 H1694 0.950 . S
C1700 C1701 1.327 . S
C1701 H1695 0.950 . S
C1701 C1700 1.327 . S
C1701 C1705 1.429 . S
C1702 C1685 1.574 . S
C1702 H1696 0.949 . S
C1702 C1706 1.368 . S
C1703 C1684 1.429 . S
C1703 C1697 1.429 . S
C1703 C1704 1.523 . S
C1704 C1685 1.368 . S
C1704 C1698 1.368 . S
C1704 C1703 1.523 . S
C1705 C1689 1.429 . S
C1705 C1701 1.429 . S
C1705 C1706 1.523 . S
C1706 C1690 1.368 . S
C1706 C1702 1.368 . S
C1706 C1705 1.523 . S
H1707 C1682 0.950 . S
H1708 C1684 0.950 . S
H1709 C1685 0.949 . S
H1710 C1687 0.950 . S
H1711 C1689 0.950 . S
C1712 C1713 1.349 . S
C1712 C1714 1.327 . S
C1712 H1737 0.950 . S
C1713 C1712 1.349 . S
C1713 C1729 1.349 . S
C1714 C1712 1.327 . S
C1714 C1733 1.429 . S
C1714 H1738 0.950 . S
C1715 C1732 1.574 . S
C1715 C1734 1.368 . S
C1715 H1739 0.949 . S
H1716 C1720 0.949 . S
C1717 C1718 1.349 . S
C1717 C1719 1.327 . S
C1717 H1740 0.931 1_554 S
C1718 C1717 1.349 . S
C1718 C1730 1.349 . S
C1719 C1717 1.327 . S
C1719 C1735 1.429 . S
C1719 H1741 0.950 . S
C1720 H1716 0.949 . S
C1720 C1728 1.574 . S
C1720 C1736 1.368 . S
H1721 C1729 0.950 . S
H1722 C1727 0.950 . S
H1723 C1728 0.949 . S
H1724 C1730 0.950 . S
H1725 C1731 0.950 . S
H1726 C1732 0.949 . S
C1727 H1722 0.950 . S
C1727 C1729 1.327 . S
C1727 C1733 1.429 . S
C1728 C1720 1.574 . S
C1728 H1723 0.949 . S
C1728 C1734 1.368 . S
C1729 C1713 1.349 . S
C1729 H1721 0.950 . S
C1729 C1727 1.327 . S
C1730 C1718 1.349 . S
C1730 H1724 0.950 . S
C1730 C1731 1.327 . S
C1731 H1725 0.950 . S
C1731 C1730 1.327 . S
C1731 C1735 1.429 . S
C1732 C1715 1.574 . S
C1732 H1726 0.949 . S
C1732 C1736 1.368 . S
C1733 C1714 1.429 . S
C1733 C1727 1.429 . S
C1733 C1734 1.523 . S
C1734 C1715 1.368 . S
C1734 C1728 1.368 . S
C1734 C1733 1.523 . S
C1735 C1719 1.429 . S
C1735 C1731 1.429 . S
C1735 C1736 1.523 . S
C1736 C1720 1.368 . S
C1736 C1732 1.368 . S
C1736 C1735 1.523 . S
H1737 C1712 0.950 . S
H1738 C1714 0.950 . S
H1739 C1715 0.949 . S
H1740 C1717 0.931 1_556 S
H1741 C1719 0.950 . S
C1742 C1743 1.349 . S
C1742 C1744 1.327 1_545 S
C1742 H1767 0.950 . S
C1743 C1742 1.349 . S
C1743 C1759 1.349 1_545 S
C1744 C1742 1.327 1_565 S
C1744 C1763 1.429 . S
C1744 H1768 0.950 . S
C1745 C1762 1.574 . S
C1745 C1764 1.368 . S
C1745 H1769 0.949 . S
H1746 C1750 0.949 . S
C1747 C1748 1.349 . S
C1747 C1749 1.327 . S
C1747 H1770 0.950 . S
C1748 C1747 1.349 . S
C1748 C1760 1.349 . S
C1749 C1747 1.327 . S
C1749 C1765 1.429 . S
C1749 H1771 0.950 . S
C1750 H1746 0.949 . S
C1750 C1758 1.574 . S
C1750 C1766 1.368 . S
H1751 C1759 0.950 . S
H1752 C1757 0.950 . S
H1753 C1758 0.949 . S
H1754 C1760 0.950 . S
H1755 C1761 0.950 . S
H1756 C1762 0.949 . S
C1757 H1752 0.950 . S
C1757 C1759 1.327 . S
C1757 C1763 1.429 . S
C1758 C1750 1.574 . S
C1758 H1753 0.949 . S
C1758 C1764 1.368 . S
C1759 C1743 1.349 1_565 S
C1759 H1751 0.950 . S
C1759 C1757 1.327 . S
C1760 C1748 1.349 . S
C1760 H1754 0.950 . S
C1760 C1761 1.327 . S
C1761 H1755 0.950 . S
C1761 C1760 1.327 . S
C1761 C1765 1.429 . S
C1762 C1745 1.574 . S
C1762 H1756 0.949 . S
C1762 C1766 1.368 . S
C1763 C1744 1.429 . S
C1763 C1757 1.429 . S
C1763 C1764 1.523 . S
C1764 C1745 1.368 . S
C1764 C1758 1.368 . S
C1764 C1763 1.523 . S
C1765 C1749 1.429 . S
C1765 C1761 1.429 . S
C1765 C1766 1.523 . S
C1766 C1750 1.368 . S
C1766 C1762 1.368 . S
C1766 C1765 1.523 . S
H1767 C1742 0.950 . S
H1768 C1744 0.950 . S
H1769 C1745 0.949 . S
H1770 C1747 0.950 . S
H1771 C1749 0.950 . S
C338 C186 1.036 . S
C333 C62 1.025 . S
C368 C199 1.657 . S
C363 C73 1.613 1_455 S
C393 C84 1.457 . S
C398 C212 1.506 . S
C428 C225 1.243 . S
C423 C49 1.099 . S
C458 C233 1.346 . S
C453 C118 1.354 . S
C488 C246 1.529 . S
C483 C137 1.336 . S
C513 C129 1.569 . S
C518 C259 1.557 . S
C548 C272 1.914 . S
C543 C106 1.886 . S
C573 C128 1.776 . S
C578 C290 1.818 . S
C608 C301 1.668 . S
C603 C104 1.501 . S
C633 C115 1.584 . S
C638 C285 1.791 . S
C668 C293 1.731 . S
C663 C139 1.717 . S
C693 C85 1.586 . S
C698 C316 1.578 . S
C723 C52 1.145 . S
C728 C306 1.128 . S
C753 C60 0.877 . S
C758 C311 0.928 . S
C783 C71 1.451 . S
C788 C314 1.568 . S
C813 C40 1.663 . S
C818 C223 1.725 . S
C843 C162 0.948 . S
C848 C215 0.940 . S
C878 C184 1.102 . S
C873 C173 1.122 1_565 S
C908 C189 1.789 . S
C903 C93 1.595 . S
C933 C51 1.433 1_545 S
C938 C236 1.459 . S
C968 C275 1.501 . S
C963 C126 1.357 . S
C998 C228 1.812 . S
C993 C107 1.820 . S
C1028 C254 1.548 . S
C1023 C140 1.552 . S
C1058 C264 1.036 . S
C1053 C161 1.025 . S
C1083 C172 1.612 . S
C1088 C277 1.651 . S
C1113 C95 1.457 . S
C1118 C238 1.506 . S
C1148 C251 1.242 . S
C1143 C148 1.099 . S
C1173 C41 1.354 . S
C1178 C207 1.347 . S
C1208 C220 1.529 . S
C1203 C5 1.336 1_655 S
C1238 C181 1.557 . S
C1233 C19 1.568 . S
C1268 C194 1.915 . S
C1263 C29 1.887 . S
C1293 C18 1.776 . S
C1298 C303 1.818 . S
C1323 C27 1.502 . S
C1328 C288 1.669 . S
C1353 C38 1.584 . S
C1358 C298 1.791 . S
C1383 C7 1.717 . S
C1388 C280 1.731 . S
C1418 C329 1.579 . S
C1413 C96 1.586 . S
C1448 C319 1.127 . S
C1443 C151 1.145 . S
C1478 C324 0.928 . S
C1473 C159 0.877 . S
C1503 C170 1.451 . S
C1508 C327 1.573 . S
C1533 C117 1.663 . S
C1538 C249 1.730 . S
C1568 C241 0.940 . S
C1563 C63 0.948 . S
C1598 C262 1.103 . S
C1593 C74 1.122 . S
C1628 C267 1.790 . S
C1623 C82 1.596 . S
C1653 C150 1.432 . S
C1658 C210 1.458 1_556 S
C1688 C197 1.501 . S
C1683 C16 1.357 . S
C1713 C30 1.819 . S
C1718 C202 1.811 . S
C1748 C176 1.548 . S
C1743 C8 1.552 . S
