# Generated by pormake.
# Topology bcu-b, (8,8)-cn, num edge types: 1
# Building blocks:
#     Node 0, Type 0, BuildingBlock: VETTIZ_charged_sbu_0, # of connection points: 8
#     Node 1, Type 1, BuildingBlock: GIZVER_clean_sbu_0, # of connection points: 8
#     Edge 2, Type (0, 1), BuildingBlock: ZUJKAS_clean_linker_0, # of connection points: 2
#     Edge 3, Type (0, 1), BuildingBlock: ZUJKAS_clean_linker_0, # of connection points: 2
#     Edge 4, Type (0, 1), BuildingBlock: ZUJKAS_clean_linker_0, # of connection points: 2
#     Edge 5, Type (0, 1), BuildingBlock: ZUJKAS_clean_linker_0, # of connection points: 2
#     Edge 6, Type (0, 1), BuildingBlock: ZUJKAS_clean_linker_0, # of connection points: 2
#     Edge 7, Type (0, 1), BuildingBlock: ZUJKAS_clean_linker_0, # of connection points: 2
#     Edge 8, Type (0, 1), BuildingBlock: ZUJKAS_clean_linker_0, # of connection points: 2
#     Edge 9, Type (0, 1), BuildingBlock: ZUJKAS_clean_linker_0, # of connection points: 2
# Relax obj value: 0.082
# Max RMSD: 0.155
# Mean RMSD: 0.139
data_MOF--net-bcu-b--node1-VETTIZ_charged_sbu_0--node2-GIZVER_clean_sbu_0--edge1-ZUJKAS_clean_linker_0
_symmetry_space_group_name_H-M    P1
_symmetry_Int_Tables_number       1
_symmetry_cell_setting            triclinic
loop_
_symmetry_equiv_pos_as_xyz
'x, y, z'
_cell_length_a     25.593047
_cell_length_b     28.304952
_cell_length_c     21.007494
_cell_angle_alpha  88.965107
_cell_angle_beta   92.393967
_cell_angle_gamma 98.784416
loop_
_atom_site_label
_atom_site_type_symbol
_atom_site_fract_x
_atom_site_fract_y
_atom_site_fract_z
_atom_type_partial_charge
Fe0 Fe 1.00685 0.95896 0.0206 0.0
O1 O 0.9768 1.00841 0.06832 0.0
Fe2 Fe 0.04527 0.01852 0.87997 0.0
Fe3 Fe 0.97656 1.00956 0.16177 0.0
O4 O 0.04415 1.01515 0.97331 0.0
O5 O 0.04425 0.01987 0.97321 0.0
O6 O 0.97698 1.01319 0.06827 0.0
Fe7 Fe 0.01438 0.06941 0.02091 0.0
C8 C 0.92615 0.91025 0.11825 0.0
O9 O 0.07079 0.96178 0.08395 0.0
O10 O 0.02982 0.96214 0.1752 0.0
O11 O 0.05922 0.12195 0.96493 0.0
O12 O 0.10057 0.07882 0.89525 0.0
O13 O 0.0936 0.96705 0.89538 0.0
O14 O 0.04485 0.91448 0.96383 0.0
O15 O 0.03761 0.06581 0.17561 0.0
O16 O 0.07857 0.0753 0.08391 0.0
C17 C 0.08221 0.92553 0.92318 0.0
O18 O 0.95061 0.06715 0.95743 0.0
O19 O 0.99112 0.06511 0.86585 0.0
O20 O 0.96171 0.90635 0.07657 0.0
O21 O 0.92097 0.94956 0.14691 0.0
C22 C 0.06842 0.95328 0.14348 0.0
C23 C 0.07759 0.08229 0.14341 0.0
C24 C 0.94029 0.10322 0.11979 0.0
O25 O 0.92887 0.06159 0.14732 0.0
O26 O 0.9768 0.11391 0.07799 0.0
C27 C 0.09541 0.11803 0.92414 0.0
O28 O 0.98467 0.96189 0.86601 0.0
O29 O 0.94295 0.95296 0.95728 0.0
C30 C 0.95265 0.07442 0.89756 0.0
C31 C 0.94435 0.94575 0.89787 0.0
Co32 Co 0.57962 0.42383 0.49126 0.0
Co33 Co 0.58881 0.45595 0.60416 0.0
Co34 Co 0.51102 0.5146 0.52048 0.0
O35 O 0.57676 0.48468 0.52733 0.0
H36 H 0.60751 0.50757 0.51758 0.0
O37 O 0.44553 0.54458 0.51384 0.0
Co38 Co 0.44381 0.60729 0.54456 0.0
Co39 Co 0.43194 0.56827 0.43395 0.0
H40 H 0.41498 0.52242 0.52627 0.0
O41 O 0.65608 0.44995 0.63338 0.0
O42 O 0.59906 0.39663 0.57596 0.0
O43 O 0.53177 0.44815 0.66113 0.0
O44 O 0.47455 0.47666 0.59321 0.0
O45 O 0.54609 0.56437 0.58108 0.0
O46 O 0.43552 0.66332 0.57643 0.0
O47 O 0.37483 0.59731 0.56371 0.0
O48 O 0.51703 0.62537 0.53156 0.0
O49 O 0.54727 0.5529 0.44784 0.0
O50 O 0.48733 0.57034 0.37455 0.0
O51 O 0.42658 0.63027 0.45703 0.0
O52 O 0.36455 0.57724 0.40649 0.0
C53 C 0.63563 0.39343 0.44671 0.0
C54 C 0.47244 0.42001 0.46993 0.0
C55 C 0.48531 0.45567 0.64556 0.0
C56 C 0.64306 0.40737 0.60997 0.0
C57 C 0.3879 0.64086 0.58457 0.0
C58 C 0.55021 0.60913 0.56954 0.0
C59 C 0.53492 0.56814 0.39228 0.0
C60 C 0.38119 0.62047 0.42586 0.0
O61 O 0.58836 0.37 0.45404 0.0
O62 O 0.64826 0.43603 0.47086 0.0
O63 O 0.47571 0.46488 0.45971 0.0
O64 O 0.50699 0.4036 0.50559 0.0
H65 H 0.09509 0.09834 0.27107 0.0
H66 H 0.16311 0.15648 0.32295 0.0
H67 H 0.22776 0.19837 0.14056 0.0
H68 H 0.16022 0.13966 0.08804 0.0
H69 H 0.30507 0.18951 0.23381 0.0
H70 H 0.16208 0.30028 0.3193 0.0
H71 H 0.14777 0.2388 0.34403 0.0
H72 H 0.14402 0.25421 0.26067 0.0
C73 C 0.12388 0.11968 0.24186 0.0
C74 C 0.12187 0.11447 0.17526 0.0
C75 C 0.16255 0.15318 0.27163 0.0
C76 C 0.19974 0.18256 0.23552 0.0
C77 C 0.19915 0.17633 0.16931 0.0
H78 H 0.39708 0.44065 0.38126 0.0
H79 H 0.33182 0.38402 0.32183 0.0
C80 C 0.16057 0.14263 0.13941 0.0
C81 C 0.23909 0.21978 0.26701 0.0
H82 H 0.25041 0.31746 0.36272 0.0
C83 C 0.29316 0.21764 0.26171 0.0
C84 C 0.22354 0.25704 0.30242 0.0
C85 C 0.16622 0.26315 0.30651 0.0
C86 C 0.33204 0.25087 0.29249 0.0
C87 C 0.31638 0.28663 0.33058 0.0
C88 C 0.26237 0.28966 0.33424 0.0
C89 C 0.35541 0.32099 0.36741 0.0
C90 C 0.38955 0.24763 0.28333 0.0
C91 C 0.3895 0.30446 0.41385 0.0
C92 C 0.42687 0.33666 0.44778 0.0
C93 C 0.43066 0.3862 0.43641 0.0
C94 C 0.39539 0.40276 0.39112 0.0
C95 C 0.35808 0.37044 0.35704 0.0
H96 H 0.39486 0.22804 0.23926 0.0
H97 H 0.41357 0.28372 0.28078 0.0
H98 H 0.40504 0.22793 0.32431 0.0
H99 H 0.38725 0.26655 0.42388 0.0
H100 H 0.45305 0.3226 0.48263 0.0
H101 H 0.85552 0.09288 0.19617 0.0
H102 H 0.81417 0.15516 0.2427 0.0
H103 H 0.91756 0.26293 0.14189 0.0
H104 H 0.96024 0.20039 0.09471 0.0
H105 H 0.88194 0.24001 0.31665 0.0
H106 H 0.75179 0.28509 0.11205 0.0
H107 H 0.77101 0.22638 0.11984 0.0
H108 H 0.81915 0.27665 0.09975 0.0
C109 C 0.86958 0.12969 0.18321 0.0
C110 C 0.9117 0.14147 0.14187 0.0
C111 C 0.84577 0.16527 0.21005 0.0
C112 C 0.86305 0.21348 0.19599 0.0
C113 C 0.90377 0.22576 0.15323 0.0
H114 H 0.74003 0.42852 0.42634 0.0
H115 H 0.80164 0.39194 0.36318 0.0
C116 C 0.92795 0.18997 0.12623 0.0
C117 C 0.83891 0.25022 0.22856 0.0
H118 H 0.73827 0.31643 0.21215 0.0
C119 C 0.85136 0.25772 0.29365 0.0
C120 C 0.79882 0.27267 0.19828 0.0
C121 C 0.78401 0.26505 0.1286 0.0
C122 C 0.82305 0.28557 0.33003 0.0
C123 C 0.78142 0.30645 0.30032 0.0
C124 C 0.77044 0.30053 0.23462 0.0
C125 C 0.74496 0.32967 0.33794 0.0
C126 C 0.83564 0.29018 0.40066 0.0
C127 C 0.69287 0.30681 0.34443 0.0
C128 C 0.65787 0.32733 0.38051 0.0
C129 C 0.67407 0.37146 0.41056 0.0
C130 C 0.72637 0.39445 0.40395 0.0
C131 C 0.76159 0.37365 0.36793 0.0
H132 H 0.86534 0.26748 0.41753 0.0
H133 H 0.85151 0.32796 0.41176 0.0
H134 H 0.79912 0.28005 0.42764 0.0
H135 H 0.67936 0.27276 0.32184 0.0
H136 H 0.61789 0.30863 0.38434 0.0
H137 H 0.87209 0.89601 0.22718 0.0
H138 H 0.80837 0.82755 0.25737 0.0
H139 H 0.83155 0.75764 0.08227 0.0
H140 H 0.89681 0.82653 0.05164 0.0
H141 H 0.71518 0.79508 0.19093 0.0
H142 H 0.84252 0.65265 0.21918 0.0
H143 H 0.86964 0.71539 0.21621 0.0
H144 H 0.84452 0.68495 0.14453 0.0
C145 C 0.86399 0.86613 0.19489 0.0
C146 C 0.88939 0.86694 0.1367 0.0
C147 C 0.82754 0.82689 0.21242 0.0
C148 C 0.8153 0.7874 0.17228 0.0
C149 C 0.84101 0.78747 0.11442 0.0
H150 H 0.52642 0.59362 0.26618 0.0
H151 H 0.59454 0.63991 0.2025 0.0
C152 C 0.87811 0.82689 0.0969 0.0
C153 C 0.77355 0.74786 0.19092 0.0
H154 H 0.75267 0.63163 0.24279 0.0
C155 C 0.72313 0.75913 0.20151 0.0
C156 C 0.78427 0.70117 0.20512 0.0
C157 C 0.8382 0.68759 0.1962 0.0
C158 C 0.68374 0.72573 0.22831 0.0
C159 C 0.69451 0.67911 0.24329 0.0
C160 C 0.74441 0.66725 0.23078 0.0
C161 C 0.65589 0.64397 0.27711 0.0
C162 C 0.63198 0.74162 0.24359 0.0
C163 C 0.66862 0.62845 0.33886 0.0
C164 C 0.62997 0.60144 0.37517 0.0
C165 C 0.57773 0.58968 0.35044 0.0
C166 C 0.56604 0.60265 0.28704 0.0
C167 C 0.60488 0.62923 0.25058 0.0
H168 H 0.63467 0.78117 0.24234 0.0
H169 H 0.60092 0.72679 0.20787 0.0
H170 H 0.61926 0.72843 0.29146 0.0
H171 H 0.70781 0.63925 0.3602 0.0
H172 H 0.64048 0.59192 0.4237 0.0
H173 H 0.16263 0.93501 0.09831 0.0
H174 H 0.22414 0.8864 0.14971 0.0
H175 H 0.12515 0.86329 0.31204 0.0
H176 H 0.06492 0.91303 0.26251 0.0
H177 H 0.2264 0.87629 0.34998 0.0
H178 H 0.19401 0.74323 0.15575 0.0
H179 H 0.22055 0.8024 0.12966 0.0
H180 H 0.15521 0.79099 0.1605 0.0
C181 C 0.15427 0.91995 0.14523 0.0
C182 C 0.10853 0.92758 0.17596 0.0
C183 C 0.18928 0.89189 0.17437 0.0
C184 C 0.1786 0.87021 0.23411 0.0
C185 C 0.13415 0.87942 0.26583 0.0
H186 H 0.27855 0.61188 0.3816 0.0
H187 H 0.23136 0.67514 0.33951 0.0
C188 C 0.09962 0.90789 0.23726 0.0
C189 C 0.21208 0.83634 0.26305 0.0
H190 H 0.25522 0.73006 0.2386 0.0
C191 C 0.23287 0.84436 0.32559 0.0
C192 C 0.21981 0.7943 0.23155 0.0
C193 C 0.19584 0.78185 0.16593 0.0
C194 C 0.26049 0.81124 0.35779 0.0
C195 C 0.2689 0.76961 0.32586 0.0
C196 C 0.24888 0.76203 0.26299 0.0
C197 C 0.29659 0.73234 0.35702 0.0
C198 C 0.27856 0.82037 0.42638 0.0
C199 C 0.34872 0.74346 0.382 0.0
C200 C 0.37553 0.70734 0.40711 0.0
C201 C 0.35108 0.65934 0.40636 0.0
C202 C 0.29858 0.64846 0.38253 0.0
C203 C 0.2716 0.6846 0.35833 0.0
H204 H 0.25617 0.84591 0.44883 0.0
H205 H 0.27389 0.78667 0.45488 0.0
H206 H 0.32102 0.83616 0.42841 0.0
H207 H 0.3693 0.77981 0.3803 0.0
H208 H 0.41609 0.71683 0.42475 0.0
H209 H 0.05053 0.82819 0.92026 0.0
H210 H 0.09712 0.76845 0.87267 0.0
H211 H 0.22746 0.87883 0.83175 0.0
H212 H 0.18163 0.93824 0.87871 0.0
H213 H 0.13079 0.7743 0.74133 0.0
H214 H 0.29899 0.76998 0.91499 0.0
H215 H 0.23871 0.79121 0.93509 0.0
H216 H 0.28845 0.82938 0.89237 0.0
C217 C 0.0896 0.83945 0.90233 0.0
C218 C 0.11236 0.88795 0.90315 0.0
C219 C 0.11599 0.80537 0.87488 0.0
C220 C 0.1659 0.8192 0.84913 0.0
C221 C 0.18933 0.86725 0.85208 0.0
H222 H 0.40057 0.73342 0.62355 0.0
H223 H 0.34186 0.77123 0.68796 0.0
C224 C 0.1629 0.90123 0.87869 0.0
C225 C 0.19248 0.78479 0.81477 0.0
H226 H 0.30977 0.74178 0.81012 0.0
C227 C 0.16947 0.76628 0.75683 0.0
C228 C 0.24296 0.77462 0.83509 0.0
C229 C 0.2686 0.79195 0.8981 0.0
C230 C 0.19702 0.74018 0.71683 0.0
C231 C 0.24852 0.73179 0.73595 0.0
C232 C 0.27043 0.74849 0.79529 0.0
C233 C 0.28195 0.70866 0.69363 0.0
C234 C 0.17205 0.72404 0.65301 0.0
C235 C 0.26753 0.66095 0.67468 0.0
C236 C 0.30106 0.63915 0.63738 0.0
C237 C 0.34977 0.66462 0.61888 0.0
C238 C 0.36347 0.71266 0.63701 0.0
C239 C 0.32998 0.73435 0.67402 0.0
H240 H 0.13686 0.74139 0.64022 0.0
H241 H 0.20101 0.73202 0.61489 0.0
H242 H 0.15922 0.68479 0.65455 0.0
H243 H 0.23101 0.64021 0.69002 0.0
H244 H 0.28948 0.60203 0.62456 0.0
H245 H 0.18605 0.12188 0.85943 0.0
H246 H 0.24416 0.19223 0.82307 0.0
H247 H 0.14838 0.28329 0.91154 0.0
H248 H 0.08947 0.21244 0.94909 0.0
H249 H 0.21038 0.26341 0.7417 0.0
H250 H 0.30337 0.33736 0.97052 0.0
H251 H 0.27069 0.27631 0.96391 0.0
H252 H 0.23227 0.32422 0.96425 0.0
C253 C 0.1772 0.15672 0.87173 0.0
C254 C 0.13268 0.16137 0.90687 0.0
C255 C 0.21063 0.19696 0.85086 0.0
C256 C 0.20061 0.24291 0.8646 0.0
C257 C 0.15708 0.24806 0.901 0.0
H258 H 0.38155 0.46989 0.63554 0.0
H259 H 0.30731 0.42744 0.69368 0.0
C260 C 0.12343 0.20754 0.92226 0.0
C261 C 0.23488 0.28468 0.83746 0.0
H262 H 0.33438 0.37554 0.87594 0.0
C263 C 0.23699 0.28848 0.77092 0.0
C264 C 0.26954 0.317 0.87594 0.0
C265 C 0.2694 0.31369 0.94767 0.0
C266 C 0.2746 0.32223 0.74164 0.0
C267 C 0.31032 0.35388 0.78007 0.0
C268 C 0.30671 0.35144 0.84666 0.0
C269 C 0.35532 0.38565 0.75214 0.0
C270 C 0.27779 0.3216 0.67002 0.0
C271 C 0.40721 0.37817 0.76819 0.0
C272 C 0.44976 0.40271 0.73567 0.0
C273 C 0.44123 0.43513 0.68615 0.0
C274 C 0.38947 0.44469 0.67279 0.0
C275 C 0.34694 0.42037 0.70583 0.0
H276 H 0.25458 0.28879 0.649 0.0
H277 H 0.26168 0.35288 0.649 0.0
H278 H 0.31947 0.3239 0.65602 0.0
H279 H 0.4146 0.35163 0.80391 0.0
H280 H 0.48904 0.39459 0.74752 0.0
H281 H 0.93103 0.07918 0.76946 0.0
H282 H 0.87322 0.1286 0.71326 0.0
H283 H 0.82608 0.1764 0.89292 0.0
H284 H 0.88315 0.12625 0.94978 0.0
H285 H 0.74242 0.15956 0.80254 0.0
H286 H 0.91655 0.27308 0.70161 0.0
H287 H 0.91102 0.21078 0.68323 0.0
H288 H 0.92277 0.2298 0.76446 0.0
C289 C 0.90797 0.09981 0.79714 0.0
C290 C 0.91225 0.09923 0.86415 0.0
C291 C 0.87511 0.12819 0.76487 0.0
C292 C 0.84638 0.15707 0.79886 0.0
C293 C 0.84824 0.15462 0.86575 0.0
H294 H 0.73215 0.41633 0.68764 0.0
H295 H 0.77963 0.35309 0.72844 0.0
C296 C 0.88082 0.12588 0.89818 0.0
C297 C 0.81661 0.19162 0.76481 0.0
H298 H 0.83241 0.29042 0.66758 0.0
C299 C 0.76197 0.18808 0.7728 0.0
C300 C 0.8424 0.22913 0.72662 0.0
C301 C 0.90147 0.23637 0.71879 0.0
C302 C 0.73242 0.22118 0.74382 0.0
C303 C 0.75814 0.25831 0.70503 0.0
C304 C 0.81269 0.26161 0.69674 0.0
C305 C 0.73017 0.29642 0.6768 0.0
C306 C 0.67434 0.21711 0.75676 0.0
C307 C 0.68736 0.2858 0.63272 0.0
C308 C 0.65988 0.32204 0.60921 0.0
C309 C 0.67494 0.36954 0.62925 0.0
C310 C 0.7192 0.38018 0.67139 0.0
C311 C 0.74647 0.34402 0.69484 0.0
H312 H 0.6633 0.19309 0.79805 0.0
H313 H 0.66349 0.25277 0.76622 0.0
H314 H 0.65067 0.20224 0.71428 0.0
H315 H 0.67488 0.24946 0.617 0.0
H316 H 0.6263 0.31268 0.57635 0.0
H317 H 0.8619 0.88806 0.95294 0.0
H318 H 0.79432 0.82964 0.90004 0.0
H319 H 0.85879 0.8725 0.71783 0.0
H320 H 0.92688 0.93038 0.77012 0.0
H321 H 0.71698 0.83927 0.80675 0.0
H322 H 0.85988 0.7286 0.7206 0.0
H323 H 0.87792 0.77437 0.77964 0.0
H324 H 0.87426 0.7902 0.69642 0.0
C325 C 0.8615 0.88536 0.90154 0.0
C326 C 0.90015 0.91369 0.86583 0.0
C327 C 0.8229 0.85184 0.87142 0.0
C328 C 0.82226 0.84599 0.80515 0.0
C329 C 0.8594 0.87554 0.76919 0.0
H330 H 0.56971 0.70653 0.55668 0.0
H331 H 0.63528 0.76256 0.61583 0.0
C332 C 0.89811 0.90885 0.79919 0.0
C333 C 0.7829 0.80897 0.77344 0.0
H334 H 0.77152 0.71152 0.67736 0.0
C335 C 0.72885 0.81118 0.77873 0.0
C336 C 0.79844 0.77179 0.73787 0.0
C337 C 0.85576 0.76567 0.73373 0.0
C338 C 0.68996 0.77808 0.7478 0.0
C339 C 0.70561 0.74237 0.70963 0.0
C340 C 0.7596 0.73928 0.70594 0.0
C341 C 0.6666 0.70809 0.6728 0.0
C342 C 0.63244 0.78136 0.75686 0.0
C343 C 0.66369 0.65867 0.68348 0.0
C344 C 0.62651 0.62638 0.64924 0.0
C345 C 0.59166 0.64295 0.60346 0.0
C346 C 0.59563 0.69247 0.59186 0.0
C347 C 0.63284 0.72466 0.626 0.0
H348 H 0.62711 0.80111 0.80078 0.0
H349 H 0.61697 0.80091 0.71571 0.0
H350 H 0.60844 0.74528 0.75958 0.0
H351 H 0.6897 0.6451 0.71899 0.0
H352 H 0.62467 0.5885 0.65926 0.0
loop_
_geom_bond_atom_site_label_1
_geom_bond_atom_site_label_2
_geom_bond_distance
_geom_bond_site_symmetry_2
_ccdc_geom_bond_type
Fe0 O1 1.886 . S
Fe0 O4 1.715 1_554 S
Fe0 O9 2.077 1_655 S
Fe0 O14 1.935 1_654 S
Fe0 O20 2.077 . S
Fe0 O29 1.935 1_554 S
O1 Fe0 1.886 . S
O1 Fe3 1.715 1_655 S
Fe2 O4 1.886 1_545 S
Fe2 O5 1.715 1_655 S
Fe2 O12 1.935 1_655 S
Fe2 O13 2.077 1_645 S
Fe2 O19 1.935 . S
Fe2 O28 2.077 1_545 S
Fe3 O1 1.715 1_455 S
Fe3 O6 1.886 1_565 S
Fe3 O10 1.935 . S
Fe3 O15 2.077 1_565 S
Fe3 O21 1.935 1_455 S
Fe3 O25 2.077 1_465 S
O4 Fe0 1.715 1_556 S
O4 Fe2 1.886 1_565 S
O5 Fe2 1.715 1_455 S
O5 Fe7 1.886 . S
O6 Fe3 1.886 1_545 S
O6 Fe7 1.715 1_554 S
Fe7 O5 1.886 . S
Fe7 O6 1.715 1_556 S
Fe7 O11 2.077 . S
Fe7 O16 1.935 1_556 S
Fe7 O18 2.077 1_455 S
Fe7 O26 1.935 1_456 S
C8 O20 1.381 . S
C8 O21 1.421 . S
O9 Fe0 2.077 1_455 S
O9 C22 1.381 . S
O10 Fe3 1.935 . S
O10 C22 1.421 . S
O11 Fe7 2.077 . S
O11 C27 1.381 . S
O12 Fe2 1.935 1_455 S
O12 C27 1.421 . S
O13 Fe2 2.077 1_465 S
O13 C17 1.381 . S
O14 Fe0 1.935 1_456 S
O14 C17 1.421 . S
O15 Fe3 2.077 1_545 S
O15 C23 1.381 . S
O16 Fe7 1.935 1_554 S
O16 C23 1.421 . S
C17 O13 1.381 . S
C17 O14 1.421 . S
O18 Fe7 2.077 1_655 S
O18 C30 1.381 . S
O19 Fe2 1.935 . S
O19 C30 1.421 . S
O20 Fe0 2.077 . S
O20 C8 1.381 . S
O21 Fe3 1.935 1_655 S
O21 C8 1.421 . S
C22 O9 1.381 . S
C22 O10 1.421 . S
C23 O15 1.381 . S
C23 O16 1.421 . S
C24 O25 1.381 . S
C24 O26 1.421 . S
O25 Fe3 2.077 1_645 S
O25 C24 1.381 . S
O26 Fe7 1.935 1_654 S
O26 C24 1.421 . S
C27 O11 1.381 . S
C27 O12 1.421 . S
O28 Fe2 2.077 1_565 S
O28 C31 1.381 . S
O29 Fe0 1.935 1_556 S
O29 C31 1.421 . S
C30 O18 1.381 . S
C30 O19 1.421 . S
C31 O28 1.381 . S
C31 O29 1.421 . S
Co32 O35 2.042 . S
Co32 O42 2.264 . S
Co32 O61 2.286 . S
Co32 O62 2.069 . S
Co32 O64 2.015 . S
Co33 O35 2.122 . S
Co33 O41 2.073 . S
Co33 O42 2.327 . S
Co33 O43 1.976 . S
Co34 O35 2.087 . S
Co34 O37 2.087 . S
Co34 O44 2.111 . S
Co34 O45 2.143 . S
Co34 O49 2.111 . S
Co34 O63 2.143 . S
O35 Co32 2.042 . S
O35 Co33 2.122 . S
O35 Co34 2.087 . S
O35 H36 0.980 . S
H36 O35 0.980 . S
O37 Co34 2.087 . S
O37 Co38 2.042 . S
O37 Co39 2.122 . S
O37 H40 0.980 . S
Co38 O37 2.042 . S
Co38 O46 2.286 . S
Co38 O47 2.069 . S
Co38 O48 2.015 . S
Co38 O51 2.264 . S
Co39 O37 2.122 . S
Co39 O50 1.976 . S
Co39 O51 2.327 . S
Co39 O52 2.073 . S
H40 O37 0.980 . S
O41 Co33 2.073 . S
O41 C56 1.245 . S
O42 Co32 2.264 . S
O42 Co33 2.327 . S
O42 C56 1.257 . S
O43 Co33 1.976 . S
O43 C55 1.251 . S
O44 Co34 2.111 . S
O44 C55 1.274 . S
O45 Co34 2.143 . S
O45 C58 1.246 . S
O46 Co38 2.286 . S
O46 C57 1.259 . S
O47 Co38 2.069 . S
O47 C57 1.289 . S
O48 Co38 2.015 . S
O48 C58 1.257 . S
O49 Co34 2.111 . S
O49 C59 1.274 . S
O50 Co39 1.976 . S
O50 C59 1.251 . S
O51 Co38 2.264 . S
O51 Co39 2.327 . S
O51 C60 1.257 . S
O52 Co39 2.073 . S
O52 C60 1.245 . S
C53 O61 1.259 . S
C53 O62 1.289 . S
C54 O63 1.246 . S
C54 O64 1.257 . S
C55 O43 1.251 . S
C55 O44 1.274 . S
C56 O41 1.245 . S
C56 O42 1.257 . S
C57 O46 1.259 . S
C57 O47 1.289 . S
C58 O45 1.246 . S
C58 O48 1.257 . S
C59 O49 1.274 . S
C59 O50 1.251 . S
C60 O51 1.257 . S
C60 O52 1.245 . S
O61 Co32 2.286 . S
O61 C53 1.259 . S
O62 Co32 2.069 . S
O62 C53 1.289 . S
O63 Co34 2.143 . S
O63 C54 1.246 . S
O64 Co32 2.015 . S
O64 C54 1.257 . S
H65 C73 0.929 . S
H66 C75 0.930 . S
H67 C77 0.930 . S
H68 C80 0.929 . S
H69 C83 0.930 . S
H70 C85 0.960 . S
H71 C85 0.960 . S
H72 C85 0.960 . S
C73 H65 0.929 . S
C73 C74 1.377 . S
C73 C75 1.384 . S
C74 C73 1.377 . S
C74 C80 1.390 . S
C75 H66 0.930 . S
C75 C73 1.384 . S
C75 C76 1.372 . S
C76 C75 1.372 . S
C76 C77 1.400 . S
C76 C81 1.490 . S
C77 H67 0.930 . S
C77 C76 1.400 . S
C77 C80 1.386 . S
H78 C94 0.930 . S
H79 C95 0.931 . S
C80 H68 0.929 . S
C80 C74 1.390 . S
C80 C77 1.386 . S
C81 C76 1.490 . S
C81 C83 1.395 . S
C81 C84 1.403 . S
H82 C88 0.930 . S
C83 H69 0.930 . S
C83 C81 1.395 . S
C83 C86 1.403 . S
C84 C81 1.403 . S
C84 C85 1.524 . S
C84 C88 1.400 . S
C85 H70 0.960 . S
C85 H71 0.960 . S
C85 H72 0.960 . S
C85 C84 1.524 . S
C86 C83 1.403 . S
C86 C87 1.392 . S
C86 C90 1.495 . S
C87 C86 1.392 . S
C87 C88 1.385 . S
C87 C89 1.478 . S
C88 H82 0.930 . S
C88 C84 1.400 . S
C88 C87 1.385 . S
C89 C87 1.478 . S
C89 C91 1.381 . S
C89 C95 1.383 . S
C90 C86 1.495 . S
C90 H96 0.959 . S
C90 H97 0.961 . S
C90 H98 0.960 . S
C91 C89 1.381 . S
C91 C92 1.394 . S
C91 H99 0.930 . S
C92 C91 1.394 . S
C92 C93 1.383 . S
C92 H100 0.929 . S
C93 C92 1.383 . S
C93 C94 1.377 . S
C94 H78 0.930 . S
C94 C93 1.377 . S
C94 C95 1.379 . S
C95 H79 0.931 . S
C95 C89 1.383 . S
C95 C94 1.379 . S
H96 C90 0.959 . S
H97 C90 0.961 . S
H98 C90 0.960 . S
H99 C91 0.930 . S
H100 C92 0.929 . S
H101 C109 0.929 . S
H102 C111 0.930 . S
H103 C113 0.930 . S
H104 C116 0.929 . S
H105 C119 0.930 . S
H106 C121 0.960 . S
H107 C121 0.960 . S
H108 C121 0.960 . S
C109 H101 0.929 . S
C109 C110 1.377 . S
C109 C111 1.384 . S
C110 C109 1.377 . S
C110 C116 1.390 . S
C111 H102 0.930 . S
C111 C109 1.384 . S
C111 C112 1.372 . S
C112 C111 1.372 . S
C112 C113 1.400 . S
C112 C117 1.490 . S
C113 H103 0.930 . S
C113 C112 1.400 . S
C113 C116 1.386 . S
H114 C130 0.930 . S
H115 C131 0.931 . S
C116 H104 0.929 . S
C116 C110 1.390 . S
C116 C113 1.386 . S
C117 C112 1.490 . S
C117 C119 1.395 . S
C117 C120 1.403 . S
H118 C124 0.930 . S
C119 H105 0.930 . S
C119 C117 1.395 . S
C119 C122 1.403 . S
C120 C117 1.403 . S
C120 C121 1.524 . S
C120 C124 1.400 . S
C121 H106 0.960 . S
C121 H107 0.960 . S
C121 H108 0.960 . S
C121 C120 1.524 . S
C122 C119 1.403 . S
C122 C123 1.392 . S
C122 C126 1.495 . S
C123 C122 1.392 . S
C123 C124 1.385 . S
C123 C125 1.478 . S
C124 H118 0.930 . S
C124 C120 1.400 . S
C124 C123 1.385 . S
C125 C123 1.478 . S
C125 C127 1.381 . S
C125 C131 1.383 . S
C126 C122 1.495 . S
C126 H132 0.959 . S
C126 H133 0.961 . S
C126 H134 0.960 . S
C127 C125 1.381 . S
C127 C128 1.394 . S
C127 H135 0.930 . S
C128 C127 1.394 . S
C128 C129 1.383 . S
C128 H136 0.929 . S
C129 C128 1.383 . S
C129 C130 1.377 . S
C130 H114 0.930 . S
C130 C129 1.377 . S
C130 C131 1.379 . S
C131 H115 0.931 . S
C131 C125 1.383 . S
C131 C130 1.379 . S
H132 C126 0.959 . S
H133 C126 0.961 . S
H134 C126 0.960 . S
H135 C127 0.930 . S
H136 C128 0.929 . S
H137 C145 0.929 . S
H138 C147 0.930 . S
H139 C149 0.930 . S
H140 C152 0.929 . S
H141 C155 0.930 . S
H142 C157 0.960 . S
H143 C157 0.960 . S
H144 C157 0.960 . S
C145 H137 0.929 . S
C145 C146 1.377 . S
C145 C147 1.384 . S
C146 C145 1.377 . S
C146 C152 1.390 . S
C147 H138 0.930 . S
C147 C145 1.384 . S
C147 C148 1.372 . S
C148 C147 1.372 . S
C148 C149 1.400 . S
C148 C153 1.490 . S
C149 H139 0.930 . S
C149 C148 1.400 . S
C149 C152 1.386 . S
H150 C166 0.930 . S
H151 C167 0.931 . S
C152 H140 0.929 . S
C152 C146 1.390 . S
C152 C149 1.386 . S
C153 C148 1.490 . S
C153 C155 1.395 . S
C153 C156 1.403 . S
H154 C160 0.930 . S
C155 H141 0.930 . S
C155 C153 1.395 . S
C155 C158 1.403 . S
C156 C153 1.403 . S
C156 C157 1.524 . S
C156 C160 1.400 . S
C157 H142 0.960 . S
C157 H143 0.960 . S
C157 H144 0.960 . S
C157 C156 1.524 . S
C158 C155 1.403 . S
C158 C159 1.392 . S
C158 C162 1.495 . S
C159 C158 1.392 . S
C159 C160 1.385 . S
C159 C161 1.478 . S
C160 H154 0.930 . S
C160 C156 1.400 . S
C160 C159 1.385 . S
C161 C159 1.478 . S
C161 C163 1.381 . S
C161 C167 1.383 . S
C162 C158 1.495 . S
C162 H168 0.959 . S
C162 H169 0.961 . S
C162 H170 0.960 . S
C163 C161 1.381 . S
C163 C164 1.394 . S
C163 H171 0.930 . S
C164 C163 1.394 . S
C164 C165 1.383 . S
C164 H172 0.929 . S
C165 C164 1.383 . S
C165 C166 1.377 . S
C166 H150 0.930 . S
C166 C165 1.377 . S
C166 C167 1.379 . S
C167 H151 0.931 . S
C167 C161 1.383 . S
C167 C166 1.379 . S
H168 C162 0.959 . S
H169 C162 0.961 . S
H170 C162 0.960 . S
H171 C163 0.930 . S
H172 C164 0.929 . S
H173 C181 0.929 . S
H174 C183 0.930 . S
H175 C185 0.930 . S
H176 C188 0.929 . S
H177 C191 0.930 . S
H178 C193 0.960 . S
H179 C193 0.960 . S
H180 C193 0.960 . S
C181 H173 0.929 . S
C181 C182 1.377 . S
C181 C183 1.384 . S
C182 C181 1.377 . S
C182 C188 1.390 . S
C183 H174 0.930 . S
C183 C181 1.384 . S
C183 C184 1.372 . S
C184 C183 1.372 . S
C184 C185 1.400 . S
C184 C189 1.490 . S
C185 H175 0.930 . S
C185 C184 1.400 . S
C185 C188 1.386 . S
H186 C202 0.930 . S
H187 C203 0.931 . S
C188 H176 0.929 . S
C188 C182 1.390 . S
C188 C185 1.386 . S
C189 C184 1.490 . S
C189 C191 1.395 . S
C189 C192 1.403 . S
H190 C196 0.930 . S
C191 H177 0.930 . S
C191 C189 1.395 . S
C191 C194 1.403 . S
C192 C189 1.403 . S
C192 C193 1.524 . S
C192 C196 1.400 . S
C193 H178 0.960 . S
C193 H179 0.960 . S
C193 H180 0.960 . S
C193 C192 1.524 . S
C194 C191 1.403 . S
C194 C195 1.392 . S
C194 C198 1.495 . S
C195 C194 1.392 . S
C195 C196 1.385 . S
C195 C197 1.478 . S
C196 H190 0.930 . S
C196 C192 1.400 . S
C196 C195 1.385 . S
C197 C195 1.478 . S
C197 C199 1.381 . S
C197 C203 1.383 . S
C198 C194 1.495 . S
C198 H204 0.959 . S
C198 H205 0.961 . S
C198 H206 0.960 . S
C199 C197 1.381 . S
C199 C200 1.394 . S
C199 H207 0.930 . S
C200 C199 1.394 . S
C200 C201 1.383 . S
C200 H208 0.929 . S
C201 C200 1.383 . S
C201 C202 1.377 . S
C202 H186 0.930 . S
C202 C201 1.377 . S
C202 C203 1.379 . S
C203 H187 0.931 . S
C203 C197 1.383 . S
C203 C202 1.379 . S
H204 C198 0.959 . S
H205 C198 0.961 . S
H206 C198 0.960 . S
H207 C199 0.930 . S
H208 C200 0.929 . S
H209 C217 0.929 . S
H210 C219 0.930 . S
H211 C221 0.930 . S
H212 C224 0.929 . S
H213 C227 0.930 . S
H214 C229 0.960 . S
H215 C229 0.960 . S
H216 C229 0.960 . S
C217 H209 0.929 . S
C217 C218 1.377 . S
C217 C219 1.384 . S
C218 C217 1.377 . S
C218 C224 1.390 . S
C219 H210 0.930 . S
C219 C217 1.384 . S
C219 C220 1.372 . S
C220 C219 1.372 . S
C220 C221 1.400 . S
C220 C225 1.490 . S
C221 H211 0.930 . S
C221 C220 1.400 . S
C221 C224 1.386 . S
H222 C238 0.930 . S
H223 C239 0.931 . S
C224 H212 0.929 . S
C224 C218 1.390 . S
C224 C221 1.386 . S
C225 C220 1.490 . S
C225 C227 1.395 . S
C225 C228 1.403 . S
H226 C232 0.930 . S
C227 H213 0.930 . S
C227 C225 1.395 . S
C227 C230 1.403 . S
C228 C225 1.403 . S
C228 C229 1.524 . S
C228 C232 1.400 . S
C229 H214 0.960 . S
C229 H215 0.960 . S
C229 H216 0.960 . S
C229 C228 1.524 . S
C230 C227 1.403 . S
C230 C231 1.392 . S
C230 C234 1.495 . S
C231 C230 1.392 . S
C231 C232 1.385 . S
C231 C233 1.478 . S
C232 H226 0.930 . S
C232 C228 1.400 . S
C232 C231 1.385 . S
C233 C231 1.478 . S
C233 C235 1.381 . S
C233 C239 1.383 . S
C234 C230 1.495 . S
C234 H240 0.959 . S
C234 H241 0.961 . S
C234 H242 0.960 . S
C235 C233 1.381 . S
C235 C236 1.394 . S
C235 H243 0.930 . S
C236 C235 1.394 . S
C236 C237 1.383 . S
C236 H244 0.929 . S
C237 C236 1.383 . S
C237 C238 1.377 . S
C238 H222 0.930 . S
C238 C237 1.377 . S
C238 C239 1.379 . S
C239 H223 0.931 . S
C239 C233 1.383 . S
C239 C238 1.379 . S
H240 C234 0.959 . S
H241 C234 0.961 . S
H242 C234 0.960 . S
H243 C235 0.930 . S
H244 C236 0.929 . S
H245 C253 0.929 . S
H246 C255 0.930 . S
H247 C257 0.930 . S
H248 C260 0.929 . S
H249 C263 0.930 . S
H250 C265 0.960 . S
H251 C265 0.960 . S
H252 C265 0.960 . S
C253 H245 0.929 . S
C253 C254 1.377 . S
C253 C255 1.384 . S
C254 C253 1.377 . S
C254 C260 1.390 . S
C255 H246 0.930 . S
C255 C253 1.384 . S
C255 C256 1.372 . S
C256 C255 1.372 . S
C256 C257 1.400 . S
C256 C261 1.490 . S
C257 H247 0.930 . S
C257 C256 1.400 . S
C257 C260 1.386 . S
H258 C274 0.930 . S
H259 C275 0.931 . S
C260 H248 0.929 . S
C260 C254 1.390 . S
C260 C257 1.386 . S
C261 C256 1.490 . S
C261 C263 1.395 . S
C261 C264 1.403 . S
H262 C268 0.930 . S
C263 H249 0.930 . S
C263 C261 1.395 . S
C263 C266 1.403 . S
C264 C261 1.403 . S
C264 C265 1.524 . S
C264 C268 1.400 . S
C265 H250 0.960 . S
C265 H251 0.960 . S
C265 H252 0.960 . S
C265 C264 1.524 . S
C266 C263 1.403 . S
C266 C267 1.392 . S
C266 C270 1.495 . S
C267 C266 1.392 . S
C267 C268 1.385 . S
C267 C269 1.478 . S
C268 H262 0.930 . S
C268 C264 1.400 . S
C268 C267 1.385 . S
C269 C267 1.478 . S
C269 C271 1.381 . S
C269 C275 1.383 . S
C270 C266 1.495 . S
C270 H276 0.959 . S
C270 H277 0.961 . S
C270 H278 0.960 . S
C271 C269 1.381 . S
C271 C272 1.394 . S
C271 H279 0.930 . S
C272 C271 1.394 . S
C272 C273 1.383 . S
C272 H280 0.929 . S
C273 C272 1.383 . S
C273 C274 1.377 . S
C274 H258 0.930 . S
C274 C273 1.377 . S
C274 C275 1.379 . S
C275 H259 0.931 . S
C275 C269 1.383 . S
C275 C274 1.379 . S
H276 C270 0.959 . S
H277 C270 0.961 . S
H278 C270 0.960 . S
H279 C271 0.930 . S
H280 C272 0.929 . S
H281 C289 0.929 . S
H282 C291 0.930 . S
H283 C293 0.930 . S
H284 C296 0.929 . S
H285 C299 0.930 . S
H286 C301 0.960 . S
H287 C301 0.960 . S
H288 C301 0.960 . S
C289 H281 0.929 . S
C289 C290 1.377 . S
C289 C291 1.384 . S
C290 C289 1.377 . S
C290 C296 1.390 . S
C291 H282 0.930 . S
C291 C289 1.384 . S
C291 C292 1.372 . S
C292 C291 1.372 . S
C292 C293 1.400 . S
C292 C297 1.490 . S
C293 H283 0.930 . S
C293 C292 1.400 . S
C293 C296 1.386 . S
H294 C310 0.930 . S
H295 C311 0.931 . S
C296 H284 0.929 . S
C296 C290 1.390 . S
C296 C293 1.386 . S
C297 C292 1.490 . S
C297 C299 1.395 . S
C297 C300 1.403 . S
H298 C304 0.930 . S
C299 H285 0.930 . S
C299 C297 1.395 . S
C299 C302 1.403 . S
C300 C297 1.403 . S
C300 C301 1.524 . S
C300 C304 1.400 . S
C301 H286 0.960 . S
C301 H287 0.960 . S
C301 H288 0.960 . S
C301 C300 1.524 . S
C302 C299 1.403 . S
C302 C303 1.392 . S
C302 C306 1.495 . S
C303 C302 1.392 . S
C303 C304 1.385 . S
C303 C305 1.478 . S
C304 H298 0.930 . S
C304 C300 1.400 . S
C304 C303 1.385 . S
C305 C303 1.478 . S
C305 C307 1.381 . S
C305 C311 1.383 . S
C306 C302 1.495 . S
C306 H312 0.959 . S
C306 H313 0.961 . S
C306 H314 0.960 . S
C307 C305 1.381 . S
C307 C308 1.394 . S
C307 H315 0.930 . S
C308 C307 1.394 . S
C308 C309 1.383 . S
C308 H316 0.929 . S
C309 C308 1.383 . S
C309 C310 1.377 . S
C310 H294 0.930 . S
C310 C309 1.377 . S
C310 C311 1.379 . S
C311 H295 0.931 . S
C311 C305 1.383 . S
C311 C310 1.379 . S
H312 C306 0.959 . S
H313 C306 0.961 . S
H314 C306 0.960 . S
H315 C307 0.930 . S
H316 C308 0.929 . S
H317 C325 0.929 . S
H318 C327 0.930 . S
H319 C329 0.930 . S
H320 C332 0.929 . S
H321 C335 0.930 . S
H322 C337 0.960 . S
H323 C337 0.960 . S
H324 C337 0.960 . S
C325 H317 0.929 . S
C325 C326 1.377 . S
C325 C327 1.384 . S
C326 C325 1.377 . S
C326 C332 1.390 . S
C327 H318 0.930 . S
C327 C325 1.384 . S
C327 C328 1.372 . S
C328 C327 1.372 . S
C328 C329 1.400 . S
C328 C333 1.490 . S
C329 H319 0.930 . S
C329 C328 1.400 . S
C329 C332 1.386 . S
H330 C346 0.930 . S
H331 C347 0.931 . S
C332 H320 0.929 . S
C332 C326 1.390 . S
C332 C329 1.386 . S
C333 C328 1.490 . S
C333 C335 1.395 . S
C333 C336 1.403 . S
H334 C340 0.930 . S
C335 H321 0.930 . S
C335 C333 1.395 . S
C335 C338 1.403 . S
C336 C333 1.403 . S
C336 C337 1.524 . S
C336 C340 1.400 . S
C337 H322 0.960 . S
C337 H323 0.960 . S
C337 H324 0.960 . S
C337 C336 1.524 . S
C338 C335 1.403 . S
C338 C339 1.392 . S
C338 C342 1.495 . S
C339 C338 1.392 . S
C339 C340 1.385 . S
C339 C341 1.478 . S
C340 H334 0.930 . S
C340 C336 1.400 . S
C340 C339 1.385 . S
C341 C339 1.478 . S
C341 C343 1.381 . S
C341 C347 1.383 . S
C342 C338 1.495 . S
C342 H348 0.959 . S
C342 H349 0.961 . S
C342 H350 0.960 . S
C343 C341 1.381 . S
C343 C344 1.394 . S
C343 H351 0.930 . S
C344 C343 1.394 . S
C344 C345 1.383 . S
C344 H352 0.929 . S
C345 C344 1.383 . S
C345 C346 1.377 . S
C346 H330 0.930 . S
C346 C345 1.377 . S
C346 C347 1.379 . S
C347 H331 0.931 . S
C347 C341 1.383 . S
C347 C346 1.379 . S
H348 C342 0.959 . S
H349 C342 0.961 . S
H350 C342 0.960 . S
H351 C343 0.930 . S
H352 C344 0.929 . S
C74 C23 1.420 . S
C93 C54 1.403 . S
C110 C24 1.657 . S
C129 C53 1.697 . S
C146 C8 1.414 . S
C165 C59 1.348 . S
C182 C22 1.451 . S
C201 C60 1.406 . S
C218 C17 1.652 . S
C237 C57 1.699 . S
C273 C55 1.394 . S
C254 C27 1.423 . S
C290 C30 1.448 . S
C309 C56 1.374 . S
C345 C58 1.423 . S
C326 C31 1.422 . S
