# Generated by pormake.
# Topology pyr, (3,6)-cn, num edge types: 1
# Building blocks:
#     Node 0, Type 0, BuildingBlock: OLANEW_clean_sbu_2, # of connection points: 3
#     Node 1, Type 0, BuildingBlock: OLANEW_clean_sbu_2, # of connection points: 3
#     Node 2, Type 0, BuildingBlock: OLANEW_clean_sbu_2, # of connection points: 3
#     Node 3, Type 0, BuildingBlock: OLANEW_clean_sbu_2, # of connection points: 3
#     Node 4, Type 0, BuildingBlock: OLANEW_clean_sbu_2, # of connection points: 3
#     Node 5, Type 0, BuildingBlock: OLANEW_clean_sbu_2, # of connection points: 3
#     Node 6, Type 0, BuildingBlock: OLANEW_clean_sbu_2, # of connection points: 3
#     Node 7, Type 0, BuildingBlock: OLANEW_clean_sbu_2, # of connection points: 3
#     Node 8, Type 1, BuildingBlock: MIDCAF_clean_sbu_0, # of connection points: 6
#     Node 9, Type 1, BuildingBlock: MIDCAF_clean_sbu_0, # of connection points: 6
#     Node 10, Type 1, BuildingBlock: MIDCAF_clean_sbu_0, # of connection points: 6
#     Node 11, Type 1, BuildingBlock: MIDCAF_clean_sbu_0, # of connection points: 6
#     Edge 12, Type (0, 1), BuildingBlock: UVAHIK_clean_linker_0, # of connection points: 2
#     Edge 13, Type (0, 1), BuildingBlock: UVAHIK_clean_linker_0, # of connection points: 2
#     Edge 14, Type (0, 1), BuildingBlock: UVAHIK_clean_linker_0, # of connection points: 2
#     Edge 15, Type (0, 1), BuildingBlock: UVAHIK_clean_linker_0, # of connection points: 2
#     Edge 16, Type (0, 1), BuildingBlock: UVAHIK_clean_linker_0, # of connection points: 2
#     Edge 17, Type (0, 1), BuildingBlock: UVAHIK_clean_linker_0, # of connection points: 2
#     Edge 18, Type (0, 1), BuildingBlock: UVAHIK_clean_linker_0, # of connection points: 2
#     Edge 19, Type (0, 1), BuildingBlock: UVAHIK_clean_linker_0, # of connection points: 2
#     Edge 20, Type (0, 1), BuildingBlock: UVAHIK_clean_linker_0, # of connection points: 2
#     Edge 21, Type (0, 1), BuildingBlock: UVAHIK_clean_linker_0, # of connection points: 2
#     Edge 22, Type (0, 1), BuildingBlock: UVAHIK_clean_linker_0, # of connection points: 2
#     Edge 23, Type (0, 1), BuildingBlock: UVAHIK_clean_linker_0, # of connection points: 2
#     Edge 24, Type (0, 1), BuildingBlock: UVAHIK_clean_linker_0, # of connection points: 2
#     Edge 25, Type (0, 1), BuildingBlock: UVAHIK_clean_linker_0, # of connection points: 2
#     Edge 26, Type (0, 1), BuildingBlock: UVAHIK_clean_linker_0, # of connection points: 2
#     Edge 27, Type (0, 1), BuildingBlock: UVAHIK_clean_linker_0, # of connection points: 2
#     Edge 28, Type (0, 1), BuildingBlock: UVAHIK_clean_linker_0, # of connection points: 2
#     Edge 29, Type (0, 1), BuildingBlock: UVAHIK_clean_linker_0, # of connection points: 2
#     Edge 30, Type (0, 1), BuildingBlock: UVAHIK_clean_linker_0, # of connection points: 2
#     Edge 31, Type (0, 1), BuildingBlock: UVAHIK_clean_linker_0, # of connection points: 2
#     Edge 32, Type (0, 1), BuildingBlock: UVAHIK_clean_linker_0, # of connection points: 2
#     Edge 33, Type (0, 1), BuildingBlock: UVAHIK_clean_linker_0, # of connection points: 2
#     Edge 34, Type (0, 1), BuildingBlock: UVAHIK_clean_linker_0, # of connection points: 2
#     Edge 35, Type (0, 1), BuildingBlock: UVAHIK_clean_linker_0, # of connection points: 2
# Relax obj value: 0.071
# Max RMSD: 0.158
# Mean RMSD: 0.120
data_MOF--net-pyr--node1-OLANEW_clean_sbu_2--node2-MIDCAF_clean_sbu_0--edge1-UVAHIK_clean_linker_0
_symmetry_space_group_name_H-M    P1
_symmetry_Int_Tables_number       1
_symmetry_cell_setting            triclinic
loop_
_symmetry_equiv_pos_as_xyz
'x, y, z'
_cell_length_a     48.163647
_cell_length_b     48.219648
_cell_length_c     47.511624
_cell_angle_alpha  94.155468
_cell_angle_beta   89.12555
_cell_angle_gamma 95.250635
loop_
_atom_site_label
_atom_site_type_symbol
_atom_site_fract_x
_atom_site_fract_y
_atom_site_fract_z
_atom_type_partial_charge
O0 O 0.29008 0.24142 0.23551 0.0
Cd1 Cd 0.25144 0.26619 0.25596 0.0
O2 O 0.28605 0.20845 0.26554 0.0
Cd3 Cd 0.25039 0.22093 0.29095 0.0
O4 O 0.22131 0.20672 0.324 0.0
C5 C 0.23075 0.18906 0.33912 0.0
O6 O 0.25631 0.18232 0.33429 0.0
C7 C 0.29825 0.21934 0.24454 0.0
C8 C 0.23247 0.30419 0.22027 0.0
O9 O 0.25145 0.31199 0.23853 0.0
O10 O 0.22269 0.2785 0.21878 0.0
O11 O 0.3512 0.82827 0.78935 0.0
Cd12 Cd 0.32595 0.8213 0.74457 0.0
O13 O 0.31414 0.82479 0.81704 0.0
Cd14 Cd 0.28415 0.8216 0.78272 0.0
O15 O 0.24846 0.8303 0.75798 0.0
C16 C 0.23736 0.85283 0.76464 0.0
O17 O 0.24793 0.86957 0.78561 0.0
C18 C 0.34049 0.82817 0.814 0.0
C19 C 0.35359 0.7886 0.70404 0.0
O20 O 0.36047 0.81487 0.7082 0.0
O21 O 0.33363 0.77775 0.71898 0.0
O22 O 0.75242 0.3556 0.83359 0.0
Cd23 Cd 0.70344 0.33666 0.82973 0.0
O24 O 0.75425 0.32029 0.85944 0.0
Cd25 Cd 0.76936 0.29288 0.88956 0.0
O26 O 0.76796 0.25867 0.91745 0.0
C27 C 0.75335 0.26075 0.93987 0.0
O28 O 0.74138 0.28389 0.94596 0.0
C29 C 0.76653 0.34178 0.84906 0.0
C30 C 0.66963 0.36348 0.79528 0.0
O31 O 0.67421 0.37268 0.82093 0.0
O32 O 0.68157 0.34199 0.78571 0.0
O33 O 0.82727 0.81514 0.26778 0.0
Cd34 Cd 0.81523 0.79196 0.22146 0.0
O35 O 0.81621 0.77695 0.28929 0.0
Cd36 Cd 0.80724 0.75011 0.32427 0.0
O37 O 0.79139 0.7175 0.35171 0.0
C38 C 0.77283 0.69888 0.34213 0.0
O39 O 0.76404 0.69987 0.3162 0.0
C40 C 0.82481 0.80277 0.29054 0.0
C41 C 0.84945 0.75065 0.20239 0.0
O42 O 0.85608 0.77634 0.19801 0.0
O43 O 0.82693 0.74459 0.21626 0.0
O44 O 0.92983 0.87612 0.89867 0.0
Cd45 Cd 0.90293 0.8682 0.94218 0.0
O46 O 0.94622 0.91819 0.91506 0.0
Cd47 Cd 0.91881 0.91927 0.95203 0.0
O48 O 0.88272 0.93237 0.9762 0.0
C49 C 0.86378 0.94159 0.96206 0.0
O50 O 0.86697 0.9421 0.93458 0.0
C51 C 0.94548 0.89848 0.8957 0.0
C52 C 0.91506 0.82031 0.96768 0.0
O53 O 0.92966 0.84367 0.97281 0.0
O54 O 0.89481 0.81953 0.95036 0.0
O55 O 0.59397 0.08201 0.4339 0.0
Cd56 Cd 0.61598 0.0812 0.47982 0.0
O57 O 0.61052 0.1255 0.43061 0.0
Cd58 Cd 0.6162 0.16727 0.41482 0.0
O59 O 0.62339 0.21286 0.41568 0.0
C60 C 0.61753 0.22609 0.43882 0.0
O61 O 0.60758 0.21181 0.45985 0.0
C62 C 0.59597 0.10388 0.4203 0.0
C63 C 0.66908 0.06224 0.47772 0.0
O64 O 0.64737 0.04522 0.48079 0.0
O65 O 0.66554 0.08796 0.47512 0.0
O66 O 0.51411 0.68543 0.15766 0.0
Cd67 Cd 0.53228 0.64742 0.18055 0.0
O68 O 0.4795 0.6572 0.14012 0.0
Cd69 Cd 0.43922 0.64438 0.12047 0.0
O70 O 0.39883 0.62023 0.11436 0.0
C71 C 0.39036 0.60987 0.09032 0.0
O72 O 0.40598 0.61439 0.06791 0.0
C73 C 0.49187 0.68165 0.1433 0.0
C74 C 0.51927 0.6514 0.23801 0.0
O75 O 0.54189 0.66366 0.22858 0.0
O76 O 0.50292 0.63711 0.22025 0.0
O77 O 0.13432 0.48101 0.67357 0.0
Cd78 Cd 0.16704 0.49124 0.63528 0.0
O79 O 0.13879 0.43629 0.66637 0.0
Cd80 Cd 0.12981 0.39152 0.6703 0.0
O81 O 0.12456 0.34762 0.65461 0.0
C82 C 0.1174 0.34252 0.62897 0.0
O83 O 0.11314 0.36352 0.6139 0.0
C84 C 0.12787 0.45617 0.68017 0.0
C85 C 0.2218 0.48278 0.64821 0.0
O86 O 0.21181 0.50607 0.65522 0.0
O87 O 0.20576 0.46337 0.63538 0.0
Zn88 Zn 0.98257 0.03451 0.59176 0.0
Zn89 Zn 0.03375 0.9589 0.52572 0.0
Zn90 Zn 0.00669 0.9971 0.55746 0.0
C91 C 0.05746 0.01265 0.51418 0.0
C92 C 0.9768 0.95268 0.51062 0.0
O93 O 0.00854 0.98541 0.60181 0.0
O94 O 0.98598 0.01649 0.6275 0.0
C95 C 0.02687 0.06346 0.56555 0.0
O96 O 0.03928 0.01993 0.53281 0.0
O97 O 0.0596 0.98714 0.50714 0.0
O98 O 0.99945 0.94167 0.50634 0.0
O99 O 0.97564 0.97421 0.5282 0.0
O100 O 0.0091 0.06701 0.58492 0.0
O101 O 0.02833 0.03928 0.55243 0.0
O102 O 0.96289 0.9955 0.54374 0.0
O103 O 0.94697 0.03014 0.57071 0.0
C104 C 0.94332 0.01112 0.55106 0.0
O105 O 0.02585 0.96894 0.58522 0.0
O106 O 0.04786 0.93939 0.55701 0.0
C107 C 0.99906 0.9949 0.6258 0.0
C108 C 0.04119 0.94835 0.58157 0.0
Zn109 Zn 0.51859 0.04168 0.03587 0.0
Zn110 Zn 0.55586 0.98142 0.11621 0.0
Zn111 Zn 0.53597 0.01193 0.07722 0.0
C112 C 0.60155 0.00178 0.0851 0.0
C113 C 0.52009 0.94542 0.08166 0.0
O114 O 0.51143 0.04415 0.0982 0.0
O115 O 0.49623 0.06523 0.06228 0.0
C116 C 0.5764 0.04995 0.03628 0.0
O117 O 0.58191 0.01219 0.0723 0.0
O118 O 0.59604 0.98806 0.10646 0.0
O119 O 0.53614 0.94529 0.10238 0.0
O120 O 0.51726 0.96819 0.06981 0.0
O121 O 0.55577 0.05757 0.02374 0.0
O122 O 0.57268 0.03264 0.05575 0.0
O123 O 0.5089 0.9837 0.04815 0.0
O124 O 0.50042 0.00919 0.01278 0.0
C125 C 0.49813 0.98607 0.02386 0.0
O126 O 0.52428 0.0306 0.1192 0.0
O127 O 0.54046 0.0028 0.14905 0.0
C128 C 0.49704 0.06258 0.08854 0.0
C129 C 0.52793 0.02391 0.14456 0.0
Zn130 Zn 0.57005 0.57243 0.57838 0.0
Zn131 Zn 0.49921 0.50644 0.51007 0.0
Zn132 Zn 0.53557 0.53822 0.54342 0.0
C133 C 0.55382 0.49397 0.49427 0.0
C134 C 0.49298 0.56209 0.50087 0.0
O135 O 0.52109 0.58044 0.54607 0.0
O136 O 0.54741 0.60514 0.57837 0.0
C137 C 0.54779 0.52682 0.60812 0.0
O138 O 0.56072 0.51448 0.51248 0.0
O139 O 0.5284 0.48604 0.48999 0.0
O140 O 0.48451 0.53763 0.49152 0.0
O141 O 0.51042 0.56584 0.52141 0.0
O142 O 0.56561 0.54778 0.61037 0.0
O143 O 0.53363 0.52126 0.58529 0.0
O144 O 0.57763 0.53728 0.52493 0.0
O145 O 0.60248 0.56941 0.55201 0.0
C146 C 0.60071 0.55221 0.53057 0.0
O147 O 0.50984 0.51028 0.57023 0.0
O148 O 0.47787 0.48893 0.54126 0.0
C149 C 0.52694 0.60311 0.56178 0.0
C150 C 0.48752 0.49374 0.56589 0.0
Zn151 Zn 0.07483 0.54943 0.99276 0.0
Zn152 Zn 0.01363 0.47587 0.05569 0.0
Zn153 Zn 0.04563 0.512 0.024 0.0
C154 C 0.07085 0.47146 0.06656 0.0
C155 C 0.00258 0.46062 0.99853 0.0
O156 O 0.02931 0.55372 0.03124 0.0
O157 O 0.05438 0.58218 0.00412 0.0
C158 C 0.11198 0.52796 0.02897 0.0
O159 O 0.07464 0.49174 0.05024 0.0
O160 O 0.04656 0.46061 0.07159 0.0
O161 O 0.99498 0.45411 0.02294 0.0
O162 O 0.02133 0.48101 0.99529 0.0
O163 O 0.11075 0.54621 0.01139 0.0
O164 O 0.09 0.51244 0.03565 0.0
O165 O 0.03989 0.49738 0.97917 0.0
O166 O 0.06571 0.52869 0.9558 0.0
C167 C 0.04965 0.50647 0.95585 0.0
O168 O 0.01804 0.53598 0.05174 0.0
O169 O 0.99415 0.50561 0.07778 0.0
C170 C 0.03467 0.57796 0.02151 0.0
C171 C 1.00022 0.53051 0.07156 0.0
C172 C 0.18528 0.18073 0.3655 0.0
C173 C 0.21299 0.17462 0.36035 0.0
C174 C 0.16826 0.16546 0.38423 0.0
C175 C 0.16083 0.09662 0.41287 0.0
H176 H 0.11272 0.12956 0.46967 0.0
C177 C 0.10333 0.02911 0.49346 0.0
C178 C 0.07568 0.03394 0.50027 0.0
C179 C 0.12011 0.04808 0.47833 0.0
C180 C 0.12582 0.12003 0.4537 0.0
H181 H 0.24479 0.14835 0.37161 0.0
H182 H 0.21521 0.12189 0.40397 0.0
H183 H 0.14158 0.15971 0.43926 0.0
H184 H 0.04363 0.06193 0.49628 0.0
H185 H 0.07286 0.09529 0.4697 0.0
H186 H 0.14494 0.05704 0.42657 0.0
C187 C 0.20652 0.13823 0.39337 0.0
C188 C 0.14235 0.1373 0.43634 0.0
C189 C 0.22351 0.15352 0.37489 0.0
C190 C 0.06517 0.05826 0.492 0.0
C191 C 0.0819 0.07724 0.47665 0.0
C192 C 0.14424 0.07941 0.42997 0.0
C193 C 0.1786 0.1437 0.39793 0.0
C194 C 0.16025 0.12575 0.41595 0.0
C195 C 0.10947 0.07212 0.46921 0.0
C196 C 0.12673 0.09084 0.45085 0.0
H197 H 0.17657 0.1969 0.35469 0.0
H198 H 0.14679 0.17007 0.38727 0.0
H199 H 0.17397 0.08705 0.39694 0.0
H200 H 0.11194 0.01051 0.49969 0.0
H201 H 0.1414 0.04373 0.47356 0.0
C202 C 0.38671 0.84387 0.83617 0.0
C203 C 0.35844 0.83434 0.83917 0.0
C204 C 0.40276 0.85312 0.85986 0.0
C205 C 0.39404 0.88271 0.93284 0.0
H206 H 0.47406 0.87907 0.93485 0.0
C207 C 0.46238 0.94499 0.01899 0.0
C208 C 0.48458 0.96156 0.00759 0.0
C209 C 0.44798 0.92345 0.00216 0.0
C210 C 0.45169 0.88011 0.93466 0.0
H211 H 0.32536 0.82536 0.86959 0.0
H212 H 0.35353 0.8409 0.91091 0.0
H213 H 0.44669 0.85133 0.89825 0.0
H214 H 0.50975 0.96859 0.97023 0.0
H215 H 0.48486 0.93104 0.94085 0.0
H216 H 0.3992 0.91201 0.96885 0.0
C217 C 0.36312 0.84192 0.8902 0.0
C218 C 0.43602 0.86434 0.91363 0.0
C219 C 0.347 0.83285 0.86649 0.0
C220 C 0.49273 0.95591 0.97946 0.0
C221 C 0.47863 0.93429 0.96276 0.0
C222 C 0.4097 0.8983 0.95399 0.0
C223 C 0.39101 0.85286 0.88715 0.0
C224 C 0.4071 0.86611 0.91191 0.0
C225 C 0.45578 0.91814 0.97374 0.0
C226 C 0.43879 0.89783 0.95459 0.0
H227 H 0.39619 0.84534 0.81545 0.0
H228 H 0.42404 0.86171 0.85659 0.0
H229 H 0.3719 0.88492 0.93205 0.0
H230 H 0.45538 0.94955 0.04044 0.0
H231 H 0.43041 0.91136 0.01115 0.0
C232 C 0.64236 0.40355 0.78569 0.0
C233 C 0.65074 0.37701 0.77737 0.0
C234 C 0.62468 0.41641 0.76867 0.0
C235 C 0.60045 0.41418 0.69477 0.0
H236 H 0.54931 0.46561 0.72725 0.0
C237 C 0.5401 0.47832 0.62395 0.0
C238 C 0.54614 0.50709 0.6306 0.0
C239 C 0.54539 0.45914 0.64351 0.0
C240 C 0.56334 0.45112 0.71791 0.0
H241 H 0.64646 0.34276 0.74511 0.0
H242 H 0.615 0.36477 0.71582 0.0
H243 H 0.57392 0.43787 0.75808 0.0
H244 H 0.55973 0.53847 0.6637 0.0
H245 H 0.56848 0.5051 0.69792 0.0
H246 H 0.59008 0.42772 0.65467 0.0
C247 C 0.62265 0.37607 0.73509 0.0
C248 C 0.57765 0.4354 0.73555 0.0
C249 C 0.64064 0.36338 0.75194 0.0
C250 C 0.55504 0.5164 0.65797 0.0
C251 C 0.55993 0.49728 0.67761 0.0
C252 C 0.58589 0.42963 0.67716 0.0
C253 C 0.61463 0.40289 0.74309 0.0
C254 C 0.59698 0.41727 0.72426 0.0
C255 C 0.55635 0.46847 0.67015 0.0
C256 C 0.56773 0.44877 0.68858 0.0
H257 H 0.64985 0.41462 0.80515 0.0
H258 H 0.61946 0.43726 0.77532 0.0
H259 H 0.6154 0.40081 0.68524 0.0
H260 H 0.53332 0.47052 0.60299 0.0
H261 H 0.54221 0.43702 0.63734 0.0
C262 C 0.89288 0.73541 0.17843 0.0
C263 C 0.86679 0.72852 0.191 0.0
C264 C 0.90874 0.71447 0.16675 0.0
C265 C 0.91536 0.63809 0.16643 0.0
H266 H 0.95617 0.64949 0.09657 0.0
C267 C 0.95908 0.54843 0.09725 0.0
C268 C 0.98641 0.55331 0.08688 0.0
C269 C 0.94563 0.57018 0.1109 0.0
C270 C 0.94507 0.64614 0.11622 0.0
H271 H 0.83689 0.69422 0.20116 0.0
H272 H 0.86408 0.65781 0.18026 0.0
H273 H 0.93045 0.68683 0.11852 0.0
H274 H 0.02178 0.58421 0.08439 0.0
H275 H 0.9979 0.62256 0.10732 0.0
H276 H 0.92944 0.5971 0.16361 0.0
C277 C 0.8727 0.67933 0.17994 0.0
C278 C 0.9304 0.66755 0.12889 0.0
C279 C 0.85699 0.70024 0.19181 0.0
C280 C 1.00035 0.58013 0.09124 0.0
C281 C 0.98677 0.602 0.10451 0.0
C282 C 0.92977 0.61662 0.15361 0.0
C283 C 0.89877 0.68614 0.16718 0.0
C284 C 0.91521 0.66375 0.1541 0.0
C285 C 0.95924 0.59724 0.1144 0.0
C286 C 0.94465 0.62038 0.12833 0.0
H287 H 0.90108 0.75701 0.17757 0.0
H288 H 0.92889 0.72051 0.15753 0.0
H289 H 0.90443 0.63457 0.18612 0.0
H290 H 0.9479 0.5279 0.09434 0.0
H291 H 0.92436 0.56595 0.11823 0.0
C292 C 0.33508 0.21644 0.20653 0.0
C293 C 0.32159 0.2056 0.23034 0.0
C294 C 0.35628 0.20265 0.19264 0.0
C295 C 0.40582 0.14908 0.20121 0.0
H296 H 0.40485 0.14216 0.11945 0.0
C297 C 0.46932 0.07165 0.13301 0.0
C298 C 0.48089 0.08082 0.10763 0.0
C299 C 0.45199 0.08826 0.14951 0.0
C300 C 0.4057 0.1442 0.14228 0.0
H301 H 0.32025 0.17193 0.25846 0.0
H302 H 0.35683 0.14786 0.23411 0.0
H303 H 0.37096 0.1689 0.14513 0.0
H304 H 0.48409 0.11487 0.08002 0.0
H305 H 0.45417 0.14384 0.10875 0.0
H306 H 0.44043 0.12399 0.19823 0.0
C307 C 0.35132 0.16718 0.22633 0.0
C308 C 0.38625 0.15959 0.15702 0.0
C309 C 0.33016 0.18094 0.2402 0.0
C310 C 0.47533 0.10715 0.09941 0.0
C311 C 0.45808 0.1237 0.11581 0.0
C312 C 0.42531 0.13364 0.18643 0.0
C313 C 0.36449 0.17771 0.20224 0.0
C314 C 0.38599 0.16218 0.18667 0.0
C315 C 0.44576 0.11428 0.14079 0.0
C316 C 0.42546 0.131 0.15677 0.0
H317 H 0.32911 0.23544 0.19843 0.0
H318 H 0.36626 0.21154 0.17436 0.0
H319 H 0.40642 0.15093 0.22405 0.0
H320 H 0.47257 0.05114 0.13945 0.0
H321 H 0.44258 0.08022 0.16846 0.0
C322 C 0.20267 0.88649 0.75469 0.0
C323 C 0.21318 0.86039 0.74888 0.0
C324 C 0.1804 0.89406 0.73928 0.0
C325 C 0.1455 0.87759 0.67084 0.0
H326 H 0.08863 0.9218 0.70457 0.0
C327 C 0.05748 0.90755 0.60351 0.0
C328 C 0.05285 0.93594 0.60576 0.0
C329 C 0.07287 0.89644 0.6239 0.0
C330 C 0.10443 0.90953 0.69488 0.0
H331 H 0.20796 0.82144 0.72288 0.0
H332 H 0.16887 0.83446 0.69628 0.0
H333 H 0.12397 0.90573 0.73448 0.0
H334 H 0.0599 0.97483 0.63145 0.0
H335 H 0.08677 0.95538 0.66736 0.0
H336 H 0.12639 0.88163 0.63129 0.0
C337 C 0.17818 0.84932 0.7124 0.0
C338 C 0.1247 0.90037 0.71197 0.0
C339 C 0.20053 0.8418 0.72773 0.0
C340 C 0.06269 0.95274 0.62954 0.0
C341 C 0.07816 0.94161 0.65001 0.0
C342 C 0.12528 0.88664 0.65385 0.0
C343 C 0.16804 0.87567 0.71776 0.0
C344 C 0.14559 0.88442 0.70009 0.0
C345 C 0.08423 0.91355 0.64685 0.0
C346 C 0.10457 0.90281 0.6656 0.0
H347 H 0.21194 0.90132 0.77085 0.0
H348 H 0.17339 0.91464 0.74374 0.0
H349 H 0.16158 0.86589 0.66086 0.0
H350 H 0.05001 0.89412 0.58541 0.0
H351 H 0.07671 0.87462 0.62116 0.0
C352 C 0.81422 0.33308 0.8649 0.0
C353 C 0.79575 0.35166 0.8563 0.0
C354 C 0.8408 0.34295 0.87457 0.0
C355 C 0.89492 0.40235 0.87694 0.0
H356 H 0.90957 0.3786 0.95104 0.0
C357 C 0.97713 0.46072 0.95316 0.0
C358 C 0.98797 0.4458 0.97408 0.0
C359 C 0.95782 0.44728 0.93377 0.0
C360 C 0.9064 0.38501 0.93005 0.0
H361 H 0.79149 0.39492 0.84889 0.0
H362 H 0.83813 0.41216 0.8656 0.0
H363 H 0.86827 0.35872 0.92595 0.0
H364 H 0.98958 0.40493 0.98965 0.0
H365 H 0.95743 0.38108 0.95489 0.0
H366 H 0.93316 0.42871 0.88108 0.0
C367 C 0.83188 0.38997 0.86512 0.0
C368 C 0.8825 0.37366 0.91572 0.0
C369 C 0.80516 0.3801 0.85566 0.0
C370 C 0.9812 0.4169 0.97384 0.0
C371 C 0.96251 0.40335 0.95411 0.0
C372 C 0.91918 0.41349 0.89115 0.0
C373 C 0.84966 0.37157 0.8754 0.0
C374 C 0.8763 0.3824 0.8892 0.0
C375 C 0.94939 0.41857 0.93476 0.0
C376 C 0.92509 0.40519 0.91808 0.0
H377 H 0.8082 0.31091 0.86428 0.0
H378 H 0.85433 0.32822 0.8818 0.0
H379 H 0.89068 0.40935 0.85641 0.0
H380 H 0.9819 0.48311 0.95312 0.0
H381 H 0.94821 0.45981 0.91932 0.0
C382 C 0.7707 0.67482 0.38734 0.0
C383 C 0.76034 0.67713 0.3602 0.0
C384 C 0.75788 0.6553 0.4049 0.0
C385 C 0.70646 0.59249 0.4061 0.0
H386 H 0.6954 0.62083 0.48347 0.0
C387 C 0.61928 0.54945 0.48105 0.0
C388 C 0.62423 0.55285 0.51021 0.0
C389 C 0.64009 0.55827 0.46189 0.0
C390 C 0.69876 0.61223 0.46213 0.0
H391 H 0.72886 0.66011 0.32993 0.0
H392 H 0.70613 0.62659 0.36076 0.0
H393 H 0.72364 0.64908 0.45184 0.0
H394 H 0.65566 0.56476 0.54204 0.0
H395 H 0.69214 0.57918 0.50871 0.0
H396 H 0.68055 0.55594 0.41643 0.0
C397 C 0.72445 0.6395 0.36836 0.0
C398 C 0.715 0.62852 0.44391 0.0
C399 C 0.73737 0.65892 0.35074 0.0
C400 C 0.65116 0.56227 0.51967 0.0
C401 C 0.67198 0.57075 0.50059 0.0
C402 C 0.69007 0.57614 0.4244 0.0
C403 C 0.73427 0.63773 0.39583 0.0
C404 C 0.71882 0.61907 0.41556 0.0
C405 C 0.66622 0.57038 0.47164 0.0
C406 C 0.6858 0.58596 0.45258 0.0
H407 H 0.78854 0.68833 0.39518 0.0
H408 H 0.76631 0.65418 0.42575 0.0
H409 H 0.70926 0.58441 0.38448 0.0
H410 H 0.59868 0.54234 0.47315 0.0
H411 H 0.63493 0.55763 0.43974 0.0
C412 C 0.20223 0.3149 0.18074 0.0
C413 C 0.22179 0.32425 0.20176 0.0
C414 C 0.19145 0.33376 0.16376 0.0
C415 C 0.17835 0.4076 0.16239 0.0
H416 H 0.16272 0.38609 0.08361 0.0
C417 C 0.11664 0.47435 0.09205 0.0
C418 C 0.09456 0.45852 0.0778 0.0
C419 C 0.13739 0.46096 0.10479 0.0
C420 C 0.16702 0.39246 0.10556 0.0
H421 H 0.24559 0.36085 0.22119 0.0
H422 H 0.22667 0.39384 0.19148 0.0
H423 H 0.18916 0.3567 0.11079 0.0
H424 H 0.07693 0.41663 0.06517 0.0
H425 H 0.11283 0.3934 0.08706 0.0
H426 H 0.15537 0.44294 0.15727 0.0
C427 C 0.2196 0.37187 0.18827 0.0
C428 C 0.18208 0.37557 0.12116 0.0
C429 C 0.23053 0.35294 0.20521 0.0
C430 C 0.09385 0.4293 0.07593 0.0
C431 C 0.11455 0.41601 0.0883 0.0
C432 C 0.16324 0.42454 0.14673 0.0
C433 C 0.19987 0.3625 0.16738 0.0
C434 C 0.1872 0.38246 0.14999 0.0
C435 C 0.1364 0.43159 0.10319 0.0
C436 C 0.15665 0.41667 0.11837 0.0
H437 H 0.19499 0.29298 0.17752 0.0
H438 H 0.17595 0.32584 0.1482 0.0
H439 H 0.18182 0.41346 0.18458 0.0
H440 H 0.11733 0.49691 0.09413 0.0
H441 H 0.154 0.47352 0.11611 0.0
C442 C 0.72644 0.23721 0.97824 0.0
C443 C 0.74665 0.23625 0.95665 0.0
C444 C 0.71699 0.2131 0.9914 0.0
C445 C 0.7091 0.13713 0.97563 0.0
H446 H 0.67555 0.13941 0.05034 0.0
C447 C 0.62476 0.06951 0.04996 0.0
C448 C 0.60449 0.06245 0.02908 0.0
C449 C 0.64969 0.08523 0.04361 0.0
C450 C 0.6853 0.13805 0.02966 0.0
H451 H 0.77438 0.20966 0.93346 0.0
H452 H 0.75829 0.16764 0.95687 0.0
H453 H 0.70701 0.17864 0.03671 0.0
H454 H 0.59477 0.0651 0.98507 0.0
H455 H 0.63765 0.09278 0.97409 0.0
H456 H 0.68715 0.09668 0.96848 0.0
C457 C 0.74921 0.1869 0.96313 0.0
C458 C 0.70306 0.16077 0.02168 0.0
C459 C 0.75854 0.21103 0.9498 0.0
C460 C 0.61008 0.07024 0.00155 0.0
C461 C 0.63485 0.08589 0.99522 0.0
C462 C 0.69157 0.11432 0.9837 0.0
C463 C 0.72769 0.18745 0.98349 0.0
C464 C 0.71413 0.16115 0.99412 0.0
C465 C 0.65466 0.09426 0.01631 0.0
C466 C 0.67838 0.11507 0.01031 0.0
H467 H 0.71688 0.25629 0.98411 0.0
H468 H 0.70015 0.21438 0.00666 0.0
H469 H 0.71715 0.13656 0.95422 0.0
H470 H 0.6208 0.06405 0.07146 0.0
H471 H 0.66462 0.09113 0.06029 0.0
C472 C 0.84303 0.80621 0.34009 0.0
C473 C 0.83177 0.81879 0.31765 0.0
C474 C 0.85207 0.82233 0.36451 0.0
C475 C 0.8767 0.89516 0.38775 0.0
H476 H 0.87462 0.86607 0.46177 0.0
C477 C 0.93392 0.95608 0.4821 0.0
C478 C 0.95193 0.93986 0.49528 0.0
C479 C 0.91301 0.94321 0.46407 0.0
C480 C 0.87523 0.87454 0.44124 0.0
H481 H 0.82012 0.85785 0.30358 0.0
H482 H 0.83522 0.88581 0.34628 0.0
H483 H 0.84965 0.83944 0.42279 0.0
H484 H 0.96156 0.89769 0.50122 0.0
H485 H 0.92526 0.87529 0.47006 0.0
H486 H 0.90284 0.92989 0.40603 0.0
C487 C 0.83768 0.86365 0.34492 0.0
C488 C 0.86106 0.85921 0.41887 0.0
C489 C 0.8289 0.8476 0.32048 0.0
C490 C 0.94788 0.91065 0.49129 0.0
C491 C 0.92694 0.89782 0.47361 0.0
C492 C 0.89073 0.91053 0.41014 0.0
C493 C 0.84993 0.85136 0.36703 0.0
C494 C 0.8622 0.86899 0.39165 0.0
C495 C 0.90973 0.91393 0.45918 0.0
C496 C 0.89078 0.90005 0.43696 0.0
H497 H 0.84616 0.78422 0.33828 0.0
H498 H 0.86184 0.81219 0.38086 0.0
H499 H 0.87841 0.90324 0.36706 0.0
H500 H 0.93695 0.97865 0.48449 0.0
H501 H 0.89997 0.95616 0.45331 0.0
C502 C 0.39518 0.78069 0.67317 0.0
C503 C 0.36857 0.77122 0.68296 0.0
C504 C 0.40993 0.76372 0.65433 0.0
C505 C 0.41206 0.68918 0.62844 0.0
H506 H 0.46666 0.72055 0.57594 0.0
C507 C 0.47903 0.61879 0.55885 0.0
C508 C 0.50767 0.62539 0.56369 0.0
C509 C 0.45991 0.63805 0.56713 0.0
C510 C 0.45135 0.71153 0.59039 0.0
H511 H 0.33604 0.73704 0.67977 0.0
H512 H 0.36115 0.7079 0.64604 0.0
H513 H 0.43653 0.75113 0.60279 0.0
H514 H 0.53894 0.65811 0.57864 0.0
H515 H 0.5056 0.69193 0.5925 0.0
H516 H 0.4269 0.6496 0.61589 0.0
C517 C 0.37119 0.728 0.65361 0.0
C518 C 0.43422 0.72904 0.606 0.0
C519 C 0.35666 0.74478 0.67286 0.0
C520 C 0.51698 0.65242 0.57473 0.0
C521 C 0.49791 0.67181 0.58258 0.0
C522 C 0.42883 0.67168 0.6125 0.0
C523 C 0.39825 0.73702 0.64441 0.0
C524 C 0.41473 0.71819 0.62572 0.0
C525 C 0.46913 0.6644 0.57994 0.0
C526 C 0.449 0.68272 0.59373 0.0
H527 H 0.40497 0.80094 0.68068 0.0
H528 H 0.43085 0.77132 0.64826 0.0
H529 H 0.3978 0.67996 0.6437 0.0
H530 H 0.47115 0.59809 0.5506 0.0
H531 H 0.43783 0.63191 0.56467 0.0
C532 C 0.95541 0.88462 0.84469 0.0
C533 C 0.96064 0.90302 0.86877 0.0
C534 C 0.96615 0.89159 0.81827 0.0
C535 C 0.98423 0.95453 0.78186 0.0
H536 H 0.01332 0.90597 0.72204 0.0
C537 C 0.01221 0.99793 0.67618 0.0
C538 C 0.0036 0.98134 0.65191 0.0
C539 C 0.01293 0.98631 0.70213 0.0
C540 C 0.00504 0.91972 0.73848 0.0
H541 H 0.98323 0.942 0.88434 0.0
H542 H 0.0019 0.95399 0.83849 0.0
H543 H 0.00368 0.88861 0.76884 0.0
H544 H 0.99035 0.93939 0.63513 0.0
H545 H 0.99032 0.91901 0.68096 0.0
H546 H 0.98419 0.98519 0.75184 0.0
C547 C 0.98911 0.93444 0.83991 0.0
C548 C 0.99962 0.90979 0.76526 0.0
C549 C 0.97844 0.92751 0.8662 0.0
C550 C 0.99703 0.95256 0.65368 0.0
C551 C 0.99717 0.94093 0.6799 0.0
C552 C 0.98932 0.96429 0.75523 0.0
C553 C 0.98226 0.91708 0.8155 0.0
C554 C 0.98924 0.9272 0.78723 0.0
C555 C 0.00419 0.95793 0.70462 0.0
C556 C 0.9999 0.94714 0.73315 0.0
H557 H 0.94187 0.86553 0.84594 0.0
H558 H 0.96047 0.87784 0.79982 0.0
H559 H 0.97555 0.96824 0.7981 0.0
H560 H 0.01778 0.02013 0.67518 0.0
H561 H 0.0194 0.99987 0.72047 0.0
C562 C 0.59173 0.11948 0.37125 0.0
C563 C 0.58105 0.10362 0.3933 0.0
C564 C 0.57897 0.11632 0.34473 0.0
C565 C 0.53729 0.06241 0.30151 0.0
H566 H 0.53144 0.12043 0.25009 0.0
C567 C 0.50297 0.03007 0.1901 0.0
C568 C 0.52023 0.04176 0.16924 0.0
C569 C 0.50266 0.04293 0.21735 0.0
C570 C 0.53294 0.104 0.26421 0.0
H571 H 0.5478 0.07332 0.40545 0.0
H572 H 0.5254 0.06815 0.35957 0.0
H573 H 0.54679 0.13305 0.29868 0.0
H574 H 0.54898 0.0769 0.15944 0.0
H575 H 0.54947 0.09896 0.2074 0.0
H576 H 0.52488 0.03324 0.26732 0.0
C577 C 0.54389 0.0826 0.36245 0.0
C578 C 0.54176 0.11124 0.29201 0.0
C579 C 0.55669 0.0856 0.38876 0.0
C580 C 0.53529 0.06774 0.17525 0.0
C581 C 0.53554 0.08032 0.20277 0.0
C582 C 0.52868 0.05521 0.2739 0.0
C583 C 0.55532 0.09726 0.33986 0.0
C584 C 0.54422 0.09044 0.31089 0.0
C585 C 0.52044 0.06717 0.22451 0.0
C586 C 0.52657 0.07581 0.25473 0.0
H587 H 0.61075 0.13314 0.37395 0.0
H588 H 0.58848 0.12769 0.32769 0.0
H589 H 0.53959 0.04578 0.31522 0.0
H590 H 0.49119 0.01001 0.1858 0.0
H591 H 0.49002 0.03272 0.23331 0.0
C592 C 0.48864 0.63805 0.27882 0.0
C593 C 0.51254 0.65315 0.26855 0.0
C594 C 0.48319 0.63823 0.3078 0.0
C595 C 0.52039 0.64744 0.37494 0.0
H596 H 0.4456 0.63918 0.40648 0.0
C597 C 0.50505 0.61011 0.48495 0.0
C598 C 0.48661 0.58574 0.48462 0.0
C599 C 0.50434 0.62833 0.46342 0.0
C600 C 0.46663 0.64168 0.39806 0.0
H601 H 0.54877 0.68136 0.28058 0.0
H602 H 0.53914 0.68185 0.33116 0.0
H603 H 0.45253 0.65191 0.35785 0.0
H604 H 0.4507 0.56334 0.46372 0.0
H605 H 0.44961 0.59478 0.42622 0.0
H606 H 0.53447 0.63592 0.41445 0.0
C607 C 0.52483 0.66952 0.31682 0.0
C608 C 0.4706 0.64886 0.37018 0.0
C609 C 0.53032 0.66927 0.28783 0.0
C610 C 0.4654 0.58178 0.46436 0.0
C611 C 0.46468 0.59997 0.44289 0.0
C612 C 0.51643 0.64029 0.40275 0.0
C613 C 0.50146 0.6536 0.32719 0.0
C614 C 0.49745 0.65085 0.358 0.0
C615 C 0.48518 0.62252 0.44125 0.0
C616 C 0.48943 0.63635 0.41434 0.0
H617 H 0.47448 0.62545 0.26454 0.0
H618 H 0.46523 0.62539 0.31502 0.0
H619 H 0.54133 0.64848 0.36622 0.0
H620 H 0.52163 0.61386 0.50025 0.0
H621 H 0.52005 0.64588 0.46305 0.0
C622 C 0.08707 0.469 0.70922 0.0
C623 C 0.10842 0.45134 0.70398 0.0
C624 C 0.07184 0.46854 0.7344 0.0
C625 C 0.05908 0.43257 0.80107 0.0
H626 H 0.05544 0.50862 0.83247 0.0
C627 C 0.05443 0.4664 0.92063 0.0
C628 C 0.04263 0.49133 0.92863 0.0
C629 C 0.05452 0.45629 0.89222 0.0
C630 C 0.05553 0.48717 0.82397 0.0
H631 H 0.12961 0.41818 0.72013 0.0
H632 H 0.10353 0.4179 0.76475 0.0
H633 H 0.07034 0.50028 0.7842 0.0
H634 H 0.01925 0.52378 0.91445 0.0
H635 H 0.01797 0.50549 0.8652 0.0
H636 H 0.04516 0.41974 0.8417 0.0
C637 C 0.0981 0.4317 0.74913 0.0
C638 C 0.06418 0.48236 0.79611 0.0
C639 C 0.11307 0.43185 0.72358 0.0
C640 C 0.02856 0.50454 0.90858 0.0
C641 C 0.02811 0.49418 0.88039 0.0
C642 C 0.05034 0.43742 0.82918 0.0
C643 C 0.07807 0.45086 0.75527 0.0
C644 C 0.06635 0.45507 0.78429 0.0
C645 C 0.04256 0.47093 0.87157 0.0
C646 C 0.04872 0.46486 0.84103 0.0
H647 H 0.08285 0.484 0.69427 0.0
H648 H 0.05604 0.48302 0.73808 0.0
H649 H 0.0604 0.41128 0.79257 0.0
H650 H 0.06557 0.45606 0.93588 0.0
H651 H 0.06586 0.43837 0.88624 0.0
C652 C 0.81687 0.95976 0.9599 0.0
C653 C 0.83856 0.9517 0.97609 0.0
C654 C 0.79288 0.96903 0.97292 0.0
C655 C 0.75225 0.96551 0.03923 0.0
H656 H 0.71396 0.02409 0.00906 0.0
C657 C 0.65283 0.0022 0.09208 0.0
C658 C 0.63039 0.00369 0.07389 0.0
C659 C 0.67974 1.00012 0.08128 0.0
C660 C 0.72439 0.00765 0.01765 0.0
H661 H 0.85227 0.94758 0.01873 0.0
H662 H 0.81053 0.96414 0.04151 0.0
H663 H 0.7584 0.01207 0.98828 0.0
H664 H 0.61854 0.00444 0.03016 0.0
H665 H 0.66565 1.00119 0.01126 0.0
H666 H 0.71819 0.96088 0.06839 0.0
C667 C 0.81188 0.96285 0.01868 0.0
C668 C 0.74981 1.0007 0.00573 0.0
C669 C 0.83586 0.95345 0.00564 0.0
C670 C 0.63553 0.00398 0.04473 0.0
C671 C 0.66251 0.00203 0.03391 0.0
C672 C 0.72696 0.97254 0.05121 0.0
C673 C 0.79001 0.9706 0.00247 0.0
C674 C 0.76388 0.97931 0.01617 0.0
C675 C 0.68477 0.99935 0.05204 0.0
C676 C 0.7126 0.99349 0.04039 0.0
H677 H 0.81824 0.95862 0.93708 0.0
H678 H 0.7763 0.97438 0.95974 0.0
H679 H 0.76222 0.94862 0.04752 0.0
H680 H 0.64946 0.00195 0.11466 0.0
H681 H 0.69654 0.99849 0.09581 0.0
C682 C 0.70166 0.02571 0.48553 0.0
C683 C 0.69749 0.0529 0.47863 0.0
C684 C 0.72866 0.01797 0.48912 0.0
C685 C 0.79825 0.05058 0.50833 0.0
H686 H 0.82439 0.9788 0.4842 0.0
C687 C 0.91185 0.03391 0.52168 0.0
C688 C 0.91759 0.00995 0.5347 0.0
C689 C 0.88558 0.03599 0.51068 0.0
C690 C 0.81725 0.99884 0.49119 0.0
H691 H 0.71841 0.09275 0.46849 0.0
H692 H 0.76528 0.07922 0.47437 0.0
H693 H 0.77686 0.98862 0.47264 0.0
H694 H 0.90127 0.96867 0.54524 0.0
H695 H 0.85455 0.9724 0.52622 0.0
H696 H 0.83811 0.06089 0.52713 0.0
C697 C 0.74774 0.06402 0.47763 0.0
C698 C 0.7901 0.00447 0.4846 0.0
C699 C 0.72086 0.07175 0.47412 0.0
C700 C 0.89717 0.98729 0.53513 0.0
C701 C 0.87056 0.98945 0.52424 0.0
C702 C 0.82516 0.045 0.51487 0.0
C703 C 0.75196 0.0373 0.48587 0.0
C704 C 0.78047 0.03057 0.49285 0.0
C705 C 0.86424 0.01433 0.51293 0.0
C706 C 0.83517 0.01926 0.5061 0.0
H707 H 0.68407 0.01067 0.48908 0.0
H708 H 0.73121 0.99728 0.49557 0.0
H709 H 0.79126 0.07057 0.51575 0.0
H710 H 0.92743 0.05157 0.52107 0.0
H711 H 0.8816 0.05513 0.50147 0.0
C712 C 0.3509 0.58625 0.06113 0.0
C713 C 0.36302 0.59319 0.08771 0.0
C714 C 0.32443 0.57176 0.05886 0.0
C715 C 0.26009 0.55912 0.1008 0.0
H716 H 0.23711 0.51126 0.03458 0.0
C717 C 0.15056 0.55214 0.05712 0.0
C718 C 0.13844 0.52725 0.0437 0.0
C719 C 0.17746 0.55366 0.06772 0.0
C720 C 0.24324 0.52407 0.05352 0.0
H721 H 0.35747 0.58911 0.13267 0.0
H722 H 0.31163 0.56335 0.12868 0.0
H723 H 0.28654 0.5253 0.04227 0.0
H724 H 0.14425 0.48411 0.03126 0.0
H725 H 0.19198 0.48668 0.04985 0.0
H726 H 0.21682 0.55822 0.11183 0.0
C727 C 0.32221 0.5697 0.10961 0.0
C728 C 0.27155 0.53249 0.05772 0.0
C729 C 0.34855 0.58442 0.11189 0.0
C730 C 0.15325 0.50345 0.04179 0.0
C731 C 0.1805 0.50501 0.05225 0.0
C732 C 0.23188 0.5506 0.09668 0.0
C733 C 0.30957 0.56362 0.08311 0.0
C734 C 0.28022 0.55095 0.08088 0.0
C735 C 0.19304 0.53035 0.06485 0.0
C736 C 0.22303 0.5339 0.07243 0.0
H737 H 0.36151 0.59269 0.0421 0.0
H738 H 0.31524 0.56788 0.03814 0.0
H739 H 0.26585 0.57342 0.11881 0.0
H740 H 0.13949 0.57079 0.05857 0.0
H741 H 0.18657 0.57362 0.0768 0.0
C742 C 0.2637 0.45599 0.64035 0.0
C743 C 0.25141 0.47901 0.65332 0.0
C744 C 0.29236 0.45407 0.64239 0.0
C745 C 0.35687 0.5004 0.65278 0.0
H746 H 0.39073 0.4303 0.64452 0.0
C747 C 0.46904 0.50048 0.61512 0.0
C748 C 0.47021 0.4838 0.5897 0.0
C749 C 0.4466 0.49607 0.63383 0.0
C750 C 0.38164 0.45007 0.64717 0.0
H751 H 0.2592 0.51708 0.68032 0.0
H752 H 0.30911 0.51343 0.68446 0.0
H753 H 0.34139 0.43041 0.65723 0.0
H754 H 0.45105 0.44733 0.56568 0.0
H755 H 0.41217 0.43953 0.59818 0.0
H756 H 0.39666 0.51995 0.64157 0.0
C757 C 0.29676 0.4972 0.67205 0.0
C758 C 0.35333 0.45014 0.65426 0.0
C759 C 0.26812 0.49925 0.66976 0.0
C760 C 0.45052 0.46065 0.58501 0.0
C761 C 0.42828 0.4561 0.60377 0.0
C762 C 0.38514 0.50033 0.6459 0.0
C763 C 0.3094 0.47501 0.6577 0.0
C764 C 0.34034 0.47521 0.65598 0.0
C765 C 0.42518 0.47477 0.6275 0.0
C766 C 0.39758 0.47508 0.64187 0.0
H767 H 0.2514 0.44002 0.62755 0.0
H768 H 0.3013 0.43688 0.63071 0.0
H769 H 0.34766 0.5201 0.65357 0.0
H770 H 0.48389 0.51851 0.61931 0.0
H771 H 0.44495 0.51055 0.65217 0.0
C772 C 0.9034 0.77041 0.97856 0.0
C773 C 0.92168 0.7949 0.98103 0.0
C774 C 0.9102 0.74611 0.99023 0.0
C775 C 0.96026 0.71916 0.03893 0.0
H776 H 0.94626 0.65075 0.99122 0.0
C777 C 0.02926 0.62828 0.033 0.0
C778 C 0.01695 0.60081 0.02877 0.0
C779 C 0.01279 0.6507 0.03511 0.0
C780 C 0.94979 0.66951 0.00516 0.0
H781 H 0.96118 0.81322 0.99818 0.0
H782 H 0.97349 0.77077 0.01766 0.0
H783 H 0.92664 0.69284 0.97877 0.0
H784 H 0.97785 0.57495 0.0246 0.0
H785 H 0.94884 0.61441 0.02773 0.0
H786 H 0.98492 0.6959 0.06429 0.0
C787 C 0.95355 0.77037 0.00736 0.0
C788 C 0.93853 0.69373 0.99802 0.0
C789 C 0.94662 0.79472 0.99594 0.0
C790 C 0.98776 0.59599 0.02801 0.0
C791 C 0.97124 0.6185 0.0297 0.0
C792 C 0.97175 0.69496 0.0459 0.0
C793 C 0.93559 0.74563 0.00441 0.0
C794 C 0.94428 0.7191 0.01434 0.0
C795 C 0.98369 0.64611 0.03245 0.0
C796 C 0.96726 0.6701 0.02862 0.0
H797 H 0.88387 0.76994 0.96746 0.0
H798 H 0.89563 0.72764 0.98792 0.0
H799 H 0.96457 0.73812 0.0524 0.0
H800 H 0.05174 0.63247 0.0336 0.0
H801 H 0.023 0.67171 0.03694 0.0
C802 C 0.46786 0.70377 0.10513 0.0
C803 C 0.48069 0.70588 0.13167 0.0
C804 C 0.46083 0.72786 0.09302 0.0
C805 C 0.45161 0.80294 0.10977 0.0
H806 H 0.48729 0.81464 0.03738 0.0
C807 C 0.47638 0.91373 0.07825 0.0
C808 C 0.50479 0.91886 0.07181 0.0
C809 C 0.46367 0.88636 0.07647 0.0
C810 C 0.47687 0.81164 0.05744 0.0
H811 H 0.49493 0.73437 0.16693 0.0
H812 H 0.48241 0.77603 0.14621 0.0
H813 H 0.48202 0.76783 0.05444 0.0
H814 H 0.54195 0.9002 0.05711 0.0
H815 H 0.52016 0.85256 0.05423 0.0
H816 H 0.4485 0.84687 0.11407 0.0
C817 C 0.47769 0.756 0.13463 0.0
C818 C 0.47362 0.78476 0.06709 0.0
C819 C 0.4851 0.73215 0.14643 0.0
C820 C 0.51986 0.89666 0.06172 0.0
C821 C 0.50725 0.86936 0.05998 0.0
C822 C 0.45487 0.82974 0.10019 0.0
C823 C 0.46602 0.75427 0.10757 0.0
C824 C 0.46229 0.78046 0.09402 0.0
C825 C 0.47936 0.86372 0.06867 0.0
C826 C 0.46886 0.83467 0.07457 0.0
H827 H 0.46455 0.68377 0.09319 0.0
H828 H 0.45194 0.72596 0.07209 0.0
H829 H 0.44243 0.80014 0.13045 0.0
H830 H 0.46456 0.93057 0.08665 0.0
H831 H 0.44207 0.8828 0.08301 0.0
C832 C 0.10211 0.30787 0.58917 0.0
C833 C 0.11367 0.3135 0.6162 0.0
C834 C 0.09775 0.28045 0.57734 0.0
C835 C 0.11778 0.20886 0.58216 0.0
H836 H 0.04323 0.18647 0.55446 0.0
C837 C 0.06818 0.09586 0.57813 0.0
C838 C 0.04632 0.08749 0.55942 0.0
C839 C 0.08172 0.12275 0.57816 0.0
C840 C 0.06442 0.19233 0.56133 0.0
H841 H 0.13048 0.29479 0.65168 0.0
H842 H 0.12287 0.24687 0.63096 0.0
H843 H 0.05652 0.23522 0.56832 0.0
H844 H 0.02206 0.09973 0.52526 0.0
H845 H 0.0467 0.14626 0.52404 0.0
H846 H 0.12558 0.16586 0.57555 0.0
C847 C 0.11729 0.26373 0.61891 0.0
C848 C 0.07196 0.22037 0.56947 0.0
C849 C 0.12142 0.29115 0.63086 0.0
C850 C 0.03934 0.10562 0.53945 0.0
C851 C 0.05315 0.1324 0.53914 0.0
C852 C 0.11034 0.18079 0.57372 0.0
C853 C 0.1051 0.25808 0.59216 0.0
C854 C 0.09846 0.22884 0.58062 0.0
C855 C 0.07354 0.1418 0.55945 0.0
C856 C 0.08329 0.17203 0.56389 0.0
H857 H 0.096 0.32461 0.57725 0.0
H858 H 0.08848 0.27673 0.55662 0.0
H859 H 0.13851 0.2149 0.5903 0.0
H860 H 0.07339 0.08233 0.59414 0.0
H861 H 0.09702 0.12919 0.59435 0.0
C862 C 0.6347 0.27268 0.42123 0.0
C863 C 0.62127 0.257 0.44214 0.0
C864 C 0.6375 0.30193 0.42445 0.0
C865 C 0.62266 0.36217 0.4278 0.0
H866 H 0.62559 0.40001 0.50265 0.0
C867 C 0.56735 0.45929 0.45651 0.0
C868 C 0.57486 0.47681 0.48061 0.0
C869 C 0.58294 0.4372 0.44785 0.0
C870 C 0.62546 0.39012 0.48145 0.0
H871 H 0.60048 0.25977 0.48294 0.0
H872 H 0.60448 0.31032 0.48813 0.0
H873 H 0.63456 0.35126 0.49649 0.0
H874 H 0.60644 0.48694 0.51263 0.0
H875 H 0.63424 0.44857 0.4971 0.0
H876 H 0.61361 0.40109 0.41277 0.0
C877 C 0.61362 0.30028 0.46956 0.0
C878 C 0.63011 0.36188 0.47798 0.0
C879 C 0.61104 0.27116 0.46645 0.0
C880 C 0.60005 0.4737 0.49405 0.0
C881 C 0.61578 0.45148 0.48533 0.0
C882 C 0.61837 0.39053 0.43122 0.0
C883 C 0.62677 0.31612 0.44858 0.0
C884 C 0.62742 0.3472 0.45133 0.0
C885 C 0.60657 0.43209 0.46302 0.0
C886 C 0.61835 0.40454 0.45827 0.0
H887 H 0.64299 0.26238 0.40233 0.0
H888 H 0.64799 0.31338 0.40799 0.0
H889 H 0.62051 0.35169 0.40691 0.0
H890 H 0.54818 0.46135 0.44551 0.0
H891 H 0.57495 0.42282 0.4307 0.0
loop_
_geom_bond_atom_site_label_1
_geom_bond_atom_site_label_2
_geom_bond_distance
_geom_bond_site_symmetry_2
_ccdc_geom_bond_type
O0 Cd1 2.300 . S
O0 C7 1.275 . S
Cd1 O0 2.300 . S
Cd1 O9 2.381 . S
Cd1 O10 2.378 . S
O2 Cd3 2.385 . S
O2 C7 1.255 . S
Cd3 O2 2.385 . S
Cd3 O4 2.317 . S
O4 Cd3 2.317 . S
O4 C5 1.232 . S
C5 O4 1.232 . S
C5 O6 1.218 . S
O6 C5 1.218 . S
C7 O0 1.275 . S
C7 O2 1.255 . S
C8 O9 1.258 . S
C8 O10 1.256 . S
O9 Cd1 2.381 . S
O9 C8 1.258 . S
O10 Cd1 2.378 . S
O10 C8 1.256 . S
O11 Cd12 2.300 . S
O11 C18 1.275 . S
Cd12 O11 2.300 . S
Cd12 O20 2.381 . S
Cd12 O21 2.378 . S
O13 Cd14 2.385 . S
O13 C18 1.255 . S
Cd14 O13 2.385 . S
Cd14 O15 2.317 . S
O15 Cd14 2.317 . S
O15 C16 1.232 . S
C16 O15 1.232 . S
C16 O17 1.218 . S
O17 C16 1.218 . S
C18 O11 1.275 . S
C18 O13 1.255 . S
C19 O20 1.258 . S
C19 O21 1.256 . S
O20 Cd12 2.381 . S
O20 C19 1.258 . S
O21 Cd12 2.378 . S
O21 C19 1.256 . S
O22 Cd23 2.300 . S
O22 C29 1.275 . S
Cd23 O22 2.300 . S
Cd23 O31 2.381 . S
Cd23 O32 2.378 . S
O24 Cd25 2.385 . S
O24 C29 1.255 . S
Cd25 O24 2.385 . S
Cd25 O26 2.317 . S
O26 Cd25 2.317 . S
O26 C27 1.232 . S
C27 O26 1.232 . S
C27 O28 1.218 . S
O28 C27 1.218 . S
C29 O22 1.275 . S
C29 O24 1.255 . S
C30 O31 1.258 . S
C30 O32 1.256 . S
O31 Cd23 2.381 . S
O31 C30 1.258 . S
O32 Cd23 2.378 . S
O32 C30 1.256 . S
O33 Cd34 2.300 . S
O33 C40 1.275 . S
Cd34 O33 2.300 . S
Cd34 O42 2.381 . S
Cd34 O43 2.378 . S
O35 Cd36 2.385 . S
O35 C40 1.255 . S
Cd36 O35 2.385 . S
Cd36 O37 2.317 . S
O37 Cd36 2.317 . S
O37 C38 1.232 . S
C38 O37 1.232 . S
C38 O39 1.218 . S
O39 C38 1.218 . S
C40 O33 1.275 . S
C40 O35 1.255 . S
C41 O42 1.258 . S
C41 O43 1.256 . S
O42 Cd34 2.381 . S
O42 C41 1.258 . S
O43 Cd34 2.378 . S
O43 C41 1.256 . S
O44 Cd45 2.300 . S
O44 C51 1.275 . S
Cd45 O44 2.300 . S
Cd45 O53 2.381 . S
Cd45 O54 2.378 1_556 S
O46 Cd47 2.385 1_556 S
O46 C51 1.255 . S
Cd47 O46 2.385 1_554 S
Cd47 O48 2.317 . S
O48 Cd47 2.317 . S
O48 C49 1.230 . S
C49 O48 1.230 . S
C49 O50 1.220 1_564 S
O50 C49 1.220 1_546 S
C51 O44 1.275 . S
C51 O46 1.255 . S
C52 O53 1.258 . S
C52 O54 1.256 1_556 S
O53 Cd45 2.381 . S
O53 C52 1.258 . S
O54 Cd45 2.378 1_554 S
O54 C52 1.256 1_554 S
O55 Cd56 2.300 . S
O55 C62 1.275 . S
Cd56 O55 2.300 . S
Cd56 O64 2.381 . S
Cd56 O65 2.378 . S
O57 Cd58 2.385 . S
O57 C62 1.255 . S
Cd58 O57 2.385 . S
Cd58 O59 2.317 . S
O59 Cd58 2.317 . S
O59 C60 1.232 . S
C60 O59 1.232 . S
C60 O61 1.218 . S
O61 C60 1.218 . S
C62 O55 1.275 . S
C62 O57 1.255 . S
C63 O64 1.258 . S
C63 O65 1.256 . S
O64 Cd56 2.381 . S
O64 C63 1.258 . S
O65 Cd56 2.378 . S
O65 C63 1.256 . S
O66 Cd67 2.300 . S
O66 C73 1.275 . S
Cd67 O66 2.300 . S
Cd67 O75 2.381 . S
Cd67 O76 2.378 . S
O68 Cd69 2.385 . S
O68 C73 1.255 . S
Cd69 O68 2.385 . S
Cd69 O70 2.317 . S
O70 Cd69 2.317 . S
O70 C71 1.232 . S
C71 O70 1.232 . S
C71 O72 1.218 . S
O72 C71 1.218 . S
C73 O66 1.275 . S
C73 O68 1.255 . S
C74 O75 1.258 . S
C74 O76 1.256 . S
O75 Cd67 2.381 . S
O75 C74 1.258 . S
O76 Cd67 2.378 . S
O76 C74 1.256 . S
O77 Cd78 2.300 . S
O77 C84 1.275 . S
Cd78 O77 2.300 . S
Cd78 O86 2.381 . S
Cd78 O87 2.378 . S
O79 Cd80 2.385 . S
O79 C84 1.255 . S
Cd80 O79 2.385 . S
Cd80 O81 2.317 . S
O81 Cd80 2.317 . S
O81 C82 1.232 . S
C82 O81 1.232 . S
C82 O83 1.218 . S
O83 C82 1.218 . S
C84 O77 1.275 . S
C84 O79 1.255 . S
C85 O86 1.258 . S
C85 O87 1.256 . S
O86 Cd78 2.381 . S
O86 C85 1.258 . S
O87 Cd78 2.378 . S
O87 C85 1.256 . S
Zn88 O94 1.920 . S
Zn88 O100 1.898 . S
Zn88 O103 1.905 . S
Zn89 O97 1.905 1_565 S
Zn89 O98 1.898 . S
Zn89 O106 1.920 . S
Zn90 O93 2.080 1_455 S
Zn90 O96 2.114 . S
Zn90 O99 2.120 1_445 S
Zn90 O101 2.120 . S
Zn90 O102 2.114 1_455 S
Zn90 O105 2.080 . S
C91 O96 1.166 . S
C91 O97 1.182 . S
C92 O98 1.167 1_655 S
C92 O99 1.299 . S
O93 Zn90 2.080 1_655 S
O93 C107 1.305 . S
O94 Zn88 1.920 . S
O94 C107 1.234 . S
C95 O100 1.167 1_455 S
C95 O101 1.299 . S
O96 Zn90 2.114 . S
O96 C91 1.166 . S
O97 Zn89 1.905 1_545 S
O97 C91 1.182 . S
O98 Zn89 1.898 . S
O98 C92 1.167 1_455 S
O99 Zn90 2.120 1_665 S
O99 C92 1.299 . S
O100 Zn88 1.898 . S
O100 C95 1.167 1_655 S
O101 Zn90 2.120 . S
O101 C95 1.299 . S
O102 Zn90 2.114 1_655 S
O102 C104 1.166 . S
O103 Zn88 1.905 . S
O103 C104 1.182 . S
C104 O102 1.166 . S
C104 O103 1.182 . S
O105 Zn90 2.080 . S
O105 C108 1.305 1_545 S
O106 Zn89 1.920 . S
O106 C108 1.234 . S
C107 O93 1.305 . S
C107 O94 1.234 . S
C108 O105 1.305 1_565 S
C108 O106 1.234 . S
Zn109 O115 1.920 . S
Zn109 O121 1.898 . S
Zn109 O124 1.905 . S
Zn110 O118 1.905 . S
Zn110 O119 1.898 . S
Zn110 O127 1.920 1_565 S
Zn111 O114 2.080 . S
Zn111 O117 2.114 . S
Zn111 O120 2.120 1_545 S
Zn111 O122 2.120 . S
Zn111 O123 2.114 . S
Zn111 O126 2.080 . S
C112 O117 1.166 . S
C112 O118 1.182 1_545 S
C113 O119 1.167 . S
C113 O120 1.299 . S
O114 Zn111 2.080 . S
O114 C128 1.305 . S
O115 Zn109 1.920 . S
O115 C128 1.234 . S
C116 O121 1.167 . S
C116 O122 1.299 . S
O117 Zn111 2.114 . S
O117 C112 1.166 . S
O118 Zn110 1.905 . S
O118 C112 1.182 1_565 S
O119 Zn110 1.898 . S
O119 C113 1.167 . S
O120 Zn111 2.120 1_565 S
O120 C113 1.299 . S
O121 Zn109 1.898 . S
O121 C116 1.167 . S
O122 Zn111 2.120 . S
O122 C116 1.299 . S
O123 Zn111 2.114 . S
O123 C125 1.166 . S
O124 Zn109 1.905 . S
O124 C125 1.182 . S
C125 O123 1.166 . S
C125 O124 1.182 . S
O126 Zn111 2.080 . S
O126 C129 1.305 . S
O127 Zn110 1.920 1_545 S
O127 C129 1.234 . S
C128 O114 1.305 . S
C128 O115 1.234 . S
C129 O126 1.305 . S
C129 O127 1.234 . S
Zn130 O136 1.920 . S
Zn130 O142 1.898 . S
Zn130 O145 1.905 . S
Zn131 O139 1.905 . S
Zn131 O140 1.898 . S
Zn131 O148 1.920 . S
Zn132 O135 2.080 . S
Zn132 O138 2.114 . S
Zn132 O141 2.120 . S
Zn132 O143 2.120 . S
Zn132 O144 2.114 . S
Zn132 O147 2.080 . S
C133 O138 1.166 . S
C133 O139 1.182 . S
C134 O140 1.167 . S
C134 O141 1.299 . S
O135 Zn132 2.080 . S
O135 C149 1.305 . S
O136 Zn130 1.920 . S
O136 C149 1.234 . S
C137 O142 1.167 . S
C137 O143 1.299 . S
O138 Zn132 2.114 . S
O138 C133 1.166 . S
O139 Zn131 1.905 . S
O139 C133 1.182 . S
O140 Zn131 1.898 . S
O140 C134 1.167 . S
O141 Zn132 2.120 . S
O141 C134 1.299 . S
O142 Zn130 1.898 . S
O142 C137 1.167 . S
O143 Zn132 2.120 . S
O143 C137 1.299 . S
O144 Zn132 2.114 . S
O144 C146 1.166 . S
O145 Zn130 1.905 . S
O145 C146 1.182 . S
C146 O144 1.166 . S
C146 O145 1.182 . S
O147 Zn132 2.080 . S
O147 C150 1.305 . S
O148 Zn131 1.920 . S
O148 C150 1.234 . S
C149 O135 1.305 . S
C149 O136 1.234 . S
C150 O147 1.305 . S
C150 O148 1.234 . S
Zn151 O157 1.920 . S
Zn151 O163 1.898 . S
Zn151 O166 1.905 . S
Zn152 O160 1.905 . S
Zn152 O161 1.898 1_455 S
Zn152 O169 1.914 1_455 S
Zn153 O156 2.080 1_554 S
Zn153 O159 2.114 . S
Zn153 O162 2.120 1_554 S
Zn153 O164 2.120 . S
Zn153 O165 2.114 1_554 S
Zn153 O168 2.080 . S
C154 O159 1.166 . S
C154 O160 1.182 . S
C155 O161 1.167 1_556 S
C155 O162 1.299 1_655 S
O156 Zn153 2.080 1_556 S
O156 C170 1.305 . S
O157 Zn151 1.920 . S
O157 C170 1.234 . S
C158 O163 1.167 1_554 S
C158 O164 1.299 . S
O159 Zn153 2.114 . S
O159 C154 1.166 . S
O160 Zn152 1.905 . S
O160 C154 1.182 . S
O161 Zn152 1.898 1_655 S
O161 C155 1.167 1_554 S
O162 Zn153 2.120 1_556 S
O162 C155 1.299 1_455 S
O163 Zn151 1.898 . S
O163 C158 1.167 1_556 S
O164 Zn153 2.120 . S
O164 C158 1.299 . S
O165 Zn153 2.114 1_556 S
O165 C167 1.166 . S
O166 Zn151 1.905 . S
O166 C167 1.182 . S
C167 O165 1.166 . S
C167 O166 1.182 . S
O168 Zn153 2.080 . S
O168 C171 1.305 . S
O169 Zn152 1.914 1_655 S
O169 C171 1.221 1_655 S
C170 O156 1.305 . S
C170 O157 1.234 . S
C171 O168 1.305 . S
C171 O169 1.221 1_455 S
C172 C173 1.349 . S
C172 C174 1.327 . S
C172 H197 0.950 . S
C173 C172 1.349 . S
C173 C189 1.349 . S
C174 C172 1.327 . S
C174 C193 1.429 . S
C174 H198 0.950 . S
C175 C192 1.574 . S
C175 C194 1.368 . S
C175 H199 0.949 . S
H176 C180 0.949 . S
C177 C178 1.349 . S
C177 C179 1.327 . S
C177 H200 0.950 . S
C178 C177 1.349 . S
C178 C190 1.349 . S
C179 C177 1.327 . S
C179 C195 1.429 . S
C179 H201 0.950 . S
C180 H176 0.949 . S
C180 C188 1.574 . S
C180 C196 1.368 . S
H181 C189 0.950 . S
H182 C187 0.950 . S
H183 C188 0.949 . S
H184 C190 0.950 . S
H185 C191 0.950 . S
H186 C192 0.949 . S
C187 H182 0.950 . S
C187 C189 1.327 . S
C187 C193 1.429 . S
C188 C180 1.574 . S
C188 H183 0.949 . S
C188 C194 1.368 . S
C189 C173 1.349 . S
C189 H181 0.950 . S
C189 C187 1.327 . S
C190 C178 1.349 . S
C190 H184 0.950 . S
C190 C191 1.327 . S
C191 H185 0.950 . S
C191 C190 1.327 . S
C191 C195 1.429 . S
C192 C175 1.574 . S
C192 H186 0.949 . S
C192 C196 1.368 . S
C193 C174 1.429 . S
C193 C187 1.429 . S
C193 C194 1.523 . S
C194 C175 1.368 . S
C194 C188 1.368 . S
C194 C193 1.523 . S
C195 C179 1.429 . S
C195 C191 1.429 . S
C195 C196 1.523 . S
C196 C180 1.368 . S
C196 C192 1.368 . S
C196 C195 1.523 . S
H197 C172 0.950 . S
H198 C174 0.950 . S
H199 C175 0.949 . S
H200 C177 0.950 . S
H201 C179 0.950 . S
C202 C203 1.349 . S
C202 C204 1.327 . S
C202 H227 0.950 . S
C203 C202 1.349 . S
C203 C219 1.349 . S
C204 C202 1.327 . S
C204 C223 1.429 . S
C204 H228 0.950 . S
C205 C222 1.574 . S
C205 C224 1.368 . S
C205 H229 0.949 . S
H206 C210 0.949 . S
C207 C208 1.349 . S
C207 C209 1.327 . S
C207 H230 0.950 1_565 S
C208 C207 1.349 . S
C208 C220 1.349 . S
C209 C207 1.327 . S
C209 C225 1.429 . S
C209 H231 0.950 . S
C210 H206 0.949 . S
C210 C218 1.574 . S
C210 C226 1.368 . S
H211 C219 0.950 . S
H212 C217 0.950 . S
H213 C218 0.949 . S
H214 C220 0.950 . S
H215 C221 0.950 . S
H216 C222 0.949 . S
C217 H212 0.950 . S
C217 C219 1.327 . S
C217 C223 1.429 . S
C218 C210 1.574 . S
C218 H213 0.949 . S
C218 C224 1.368 . S
C219 C203 1.349 . S
C219 H211 0.950 . S
C219 C217 1.327 . S
C220 C208 1.349 . S
C220 H214 0.950 . S
C220 C221 1.327 . S
C221 H215 0.950 . S
C221 C220 1.327 . S
C221 C225 1.429 . S
C222 C205 1.574 . S
C222 H216 0.949 . S
C222 C226 1.368 . S
C223 C204 1.429 . S
C223 C217 1.429 . S
C223 C224 1.523 . S
C224 C205 1.368 . S
C224 C218 1.368 . S
C224 C223 1.523 . S
C225 C209 1.429 . S
C225 C221 1.429 . S
C225 C226 1.523 . S
C226 C210 1.368 . S
C226 C222 1.368 . S
C226 C225 1.523 . S
H227 C202 0.950 . S
H228 C204 0.950 . S
H229 C205 0.949 . S
H230 C207 0.950 1_545 S
H231 C209 0.950 . S
C232 C233 1.349 . S
C232 C234 1.327 . S
C232 H257 0.950 . S
C233 C232 1.349 . S
C233 C249 1.349 . S
C234 C232 1.327 . S
C234 C253 1.429 . S
C234 H258 0.950 . S
C235 C252 1.574 . S
C235 C254 1.368 . S
C235 H259 0.949 . S
H236 C240 0.949 . S
C237 C238 1.349 . S
C237 C239 1.327 . S
C237 H260 0.950 . S
C238 C237 1.349 . S
C238 C250 1.349 . S
C239 C237 1.327 . S
C239 C255 1.429 . S
C239 H261 0.950 . S
C240 H236 0.949 . S
C240 C248 1.574 . S
C240 C256 1.368 . S
H241 C249 0.950 . S
H242 C247 0.950 . S
H243 C248 0.949 . S
H244 C250 0.950 . S
H245 C251 0.950 . S
H246 C252 0.949 . S
C247 H242 0.950 . S
C247 C249 1.327 . S
C247 C253 1.429 . S
C248 C240 1.574 . S
C248 H243 0.949 . S
C248 C254 1.368 . S
C249 C233 1.349 . S
C249 H241 0.950 . S
C249 C247 1.327 . S
C250 C238 1.349 . S
C250 H244 0.950 . S
C250 C251 1.327 . S
C251 H245 0.950 . S
C251 C250 1.327 . S
C251 C255 1.429 . S
C252 C235 1.574 . S
C252 H246 0.949 . S
C252 C256 1.368 . S
C253 C234 1.429 . S
C253 C247 1.429 . S
C253 C254 1.523 . S
C254 C235 1.368 . S
C254 C248 1.368 . S
C254 C253 1.523 . S
C255 C239 1.429 . S
C255 C251 1.429 . S
C255 C256 1.523 . S
C256 C240 1.368 . S
C256 C252 1.368 . S
C256 C255 1.523 . S
H257 C232 0.950 . S
H258 C234 0.950 . S
H259 C235 0.949 . S
H260 C237 0.950 . S
H261 C239 0.950 . S
C262 C263 1.349 . S
C262 C264 1.327 . S
C262 H287 0.950 . S
C263 C262 1.349 . S
C263 C279 1.349 . S
C264 C262 1.327 . S
C264 C283 1.429 . S
C264 H288 0.950 . S
C265 C282 1.574 . S
C265 C284 1.368 . S
C265 H289 0.949 . S
H266 C270 0.949 1_455 S
C267 C268 1.349 1_655 S
C267 C269 1.327 . S
C267 H290 0.950 . S
C268 C267 1.349 1_455 S
C268 C280 1.349 . S
C269 C267 1.327 . S
C269 C285 1.429 . S
C269 H291 0.950 . S
C270 H266 0.949 1_655 S
C270 C278 1.574 . S
C270 C286 1.368 . S
H271 C279 0.950 . S
H272 C277 0.950 . S
H273 C278 0.949 . S
H274 C280 0.950 . S
H275 C281 0.950 . S
H276 C282 0.949 . S
C277 H272 0.950 . S
C277 C279 1.327 . S
C277 C283 1.429 . S
C278 C270 1.574 . S
C278 H273 0.949 . S
C278 C284 1.368 . S
C279 C263 1.349 . S
C279 H271 0.950 . S
C279 C277 1.327 . S
C280 C268 1.349 . S
C280 H274 0.950 . S
C280 C281 1.327 . S
C281 H275 0.950 . S
C281 C280 1.327 . S
C281 C285 1.429 1_455 S
C282 C265 1.574 . S
C282 H276 0.949 . S
C282 C286 1.368 . S
C283 C264 1.429 . S
C283 C277 1.429 . S
C283 C284 1.523 . S
C284 C265 1.368 . S
C284 C278 1.368 . S
C284 C283 1.523 . S
C285 C269 1.429 . S
C285 C281 1.429 1_655 S
C285 C286 1.523 . S
C286 C270 1.368 . S
C286 C282 1.368 . S
C286 C285 1.523 . S
H287 C262 0.950 . S
H288 C264 0.950 . S
H289 C265 0.949 . S
H290 C267 0.950 . S
H291 C269 0.950 . S
C292 C293 1.349 . S
C292 C294 1.327 . S
C292 H317 0.950 . S
C293 C292 1.349 . S
C293 C309 1.349 . S
C294 C292 1.327 . S
C294 C313 1.429 . S
C294 H318 0.950 . S
C295 C312 1.574 . S
C295 C314 1.368 . S
C295 H319 0.949 . S
H296 C300 0.949 . S
C297 C298 1.349 . S
C297 C299 1.327 . S
C297 H320 0.950 . S
C298 C297 1.349 . S
C298 C310 1.349 . S
C299 C297 1.327 . S
C299 C315 1.429 . S
C299 H321 0.950 . S
C300 H296 0.949 . S
C300 C308 1.574 . S
C300 C316 1.368 . S
H301 C309 0.950 . S
H302 C307 0.950 . S
H303 C308 0.949 . S
H304 C310 0.950 . S
H305 C311 0.950 . S
H306 C312 0.949 . S
C307 H302 0.950 . S
C307 C309 1.327 . S
C307 C313 1.429 . S
C308 C300 1.574 . S
C308 H303 0.949 . S
C308 C314 1.368 . S
C309 C293 1.349 . S
C309 H301 0.950 . S
C309 C307 1.327 . S
C310 C298 1.349 . S
C310 H304 0.950 . S
C310 C311 1.327 . S
C311 H305 0.950 . S
C311 C310 1.327 . S
C311 C315 1.429 . S
C312 C295 1.574 . S
C312 H306 0.949 . S
C312 C316 1.368 . S
C313 C294 1.429 . S
C313 C307 1.429 . S
C313 C314 1.523 . S
C314 C295 1.368 . S
C314 C308 1.368 . S
C314 C313 1.523 . S
C315 C299 1.429 . S
C315 C311 1.429 . S
C315 C316 1.523 . S
C316 C300 1.368 . S
C316 C312 1.368 . S
C316 C315 1.523 . S
H317 C292 0.950 . S
H318 C294 0.950 . S
H319 C295 0.949 . S
H320 C297 0.950 . S
H321 C299 0.950 . S
C322 C323 1.349 . S
C322 C324 1.327 . S
C322 H347 0.950 . S
C323 C322 1.349 . S
C323 C339 1.349 . S
C324 C322 1.327 . S
C324 C343 1.429 . S
C324 H348 0.950 . S
C325 C342 1.574 . S
C325 C344 1.368 . S
C325 H349 0.949 . S
H326 C330 0.949 . S
C327 C328 1.349 . S
C327 C329 1.327 . S
C327 H350 0.950 . S
C328 C327 1.349 . S
C328 C340 1.349 . S
C329 C327 1.327 . S
C329 C345 1.429 . S
C329 H351 0.950 . S
C330 H326 0.949 . S
C330 C338 1.574 . S
C330 C346 1.368 . S
H331 C339 0.950 . S
H332 C337 0.950 . S
H333 C338 0.949 . S
H334 C340 0.950 1_545 S
H335 C341 0.950 . S
H336 C342 0.949 . S
C337 H332 0.950 . S
C337 C339 1.327 . S
C337 C343 1.429 . S
C338 C330 1.574 . S
C338 H333 0.949 . S
C338 C344 1.368 . S
C339 C323 1.349 . S
C339 H331 0.950 . S
C339 C337 1.327 . S
C340 C328 1.349 . S
C340 H334 0.950 1_565 S
C340 C341 1.327 . S
C341 H335 0.950 . S
C341 C340 1.327 . S
C341 C345 1.429 . S
C342 C325 1.574 . S
C342 H336 0.949 . S
C342 C346 1.368 . S
C343 C324 1.429 . S
C343 C337 1.429 . S
C343 C344 1.523 . S
C344 C325 1.368 . S
C344 C338 1.368 . S
C344 C343 1.523 . S
C345 C329 1.429 . S
C345 C341 1.429 . S
C345 C346 1.523 . S
C346 C330 1.368 . S
C346 C342 1.368 . S
C346 C345 1.523 . S
H347 C322 0.950 . S
H348 C324 0.950 . S
H349 C325 0.949 . S
H350 C327 0.950 . S
H351 C329 0.950 . S
C352 C353 1.349 . S
C352 C354 1.327 . S
C352 H377 0.950 . S
C353 C352 1.349 . S
C353 C369 1.349 . S
C354 C352 1.327 . S
C354 C373 1.429 . S
C354 H378 0.950 . S
C355 C372 1.574 . S
C355 C374 1.368 . S
C355 H379 0.949 . S
H356 C360 0.949 . S
C357 C358 1.349 . S
C357 C359 1.327 . S
C357 H380 0.950 . S
C358 C357 1.349 . S
C358 C370 1.349 . S
C359 C357 1.327 . S
C359 C375 1.429 . S
C359 H381 0.950 . S
C360 H356 0.949 . S
C360 C368 1.574 . S
C360 C376 1.368 . S
H361 C369 0.950 . S
H362 C367 0.950 . S
H363 C368 0.949 . S
H364 C370 0.950 . S
H365 C371 0.950 . S
H366 C372 0.949 . S
C367 H362 0.950 . S
C367 C369 1.327 . S
C367 C373 1.429 . S
C368 C360 1.574 . S
C368 H363 0.949 . S
C368 C374 1.368 . S
C369 C353 1.349 . S
C369 H361 0.950 . S
C369 C367 1.327 . S
C370 C358 1.349 . S
C370 H364 0.950 . S
C370 C371 1.327 . S
C371 H365 0.950 . S
C371 C370 1.327 . S
C371 C375 1.429 . S
C372 C355 1.574 . S
C372 H366 0.949 . S
C372 C376 1.368 . S
C373 C354 1.429 . S
C373 C367 1.429 . S
C373 C374 1.523 . S
C374 C355 1.368 . S
C374 C368 1.368 . S
C374 C373 1.523 . S
C375 C359 1.429 . S
C375 C371 1.429 . S
C375 C376 1.523 . S
C376 C360 1.368 . S
C376 C372 1.368 . S
C376 C375 1.523 . S
H377 C352 0.950 . S
H378 C354 0.950 . S
H379 C355 0.949 . S
H380 C357 0.950 . S
H381 C359 0.950 . S
C382 C383 1.349 . S
C382 C384 1.327 . S
C382 H407 0.950 . S
C383 C382 1.349 . S
C383 C399 1.349 . S
C384 C382 1.327 . S
C384 C403 1.429 . S
C384 H408 0.950 . S
C385 C402 1.574 . S
C385 C404 1.368 . S
C385 H409 0.949 . S
H386 C390 0.949 . S
C387 C388 1.349 . S
C387 C389 1.327 . S
C387 H410 0.950 . S
C388 C387 1.349 . S
C388 C400 1.349 . S
C389 C387 1.327 . S
C389 C405 1.429 . S
C389 H411 0.950 . S
C390 H386 0.949 . S
C390 C398 1.574 . S
C390 C406 1.368 . S
H391 C399 0.950 . S
H392 C397 0.950 . S
H393 C398 0.949 . S
H394 C400 0.950 . S
H395 C401 0.950 . S
H396 C402 0.949 . S
C397 H392 0.950 . S
C397 C399 1.327 . S
C397 C403 1.429 . S
C398 C390 1.574 . S
C398 H393 0.949 . S
C398 C404 1.368 . S
C399 C383 1.349 . S
C399 H391 0.950 . S
C399 C397 1.327 . S
C400 C388 1.349 . S
C400 H394 0.950 . S
C400 C401 1.327 . S
C401 H395 0.950 . S
C401 C400 1.327 . S
C401 C405 1.429 . S
C402 C385 1.574 . S
C402 H396 0.949 . S
C402 C406 1.368 . S
C403 C384 1.429 . S
C403 C397 1.429 . S
C403 C404 1.523 . S
C404 C385 1.368 . S
C404 C398 1.368 . S
C404 C403 1.523 . S
C405 C389 1.429 . S
C405 C401 1.429 . S
C405 C406 1.523 . S
C406 C390 1.368 . S
C406 C402 1.368 . S
C406 C405 1.523 . S
H407 C382 0.950 . S
H408 C384 0.950 . S
H409 C385 0.949 . S
H410 C387 0.950 . S
H411 C389 0.950 . S
C412 C413 1.349 . S
C412 C414 1.327 . S
C412 H437 0.950 . S
C413 C412 1.349 . S
C413 C429 1.349 . S
C414 C412 1.327 . S
C414 C433 1.429 . S
C414 H438 0.950 . S
C415 C432 1.574 . S
C415 C434 1.368 . S
C415 H439 0.949 . S
H416 C420 0.949 . S
C417 C418 1.349 . S
C417 C419 1.327 . S
C417 H440 0.950 . S
C418 C417 1.349 . S
C418 C430 1.349 . S
C419 C417 1.327 . S
C419 C435 1.429 . S
C419 H441 0.950 . S
C420 H416 0.949 . S
C420 C428 1.574 . S
C420 C436 1.368 . S
H421 C429 0.950 . S
H422 C427 0.950 . S
H423 C428 0.949 . S
H424 C430 0.950 . S
H425 C431 0.950 . S
H426 C432 0.949 . S
C427 H422 0.950 . S
C427 C429 1.327 . S
C427 C433 1.429 . S
C428 C420 1.574 . S
C428 H423 0.949 . S
C428 C434 1.368 . S
C429 C413 1.349 . S
C429 H421 0.950 . S
C429 C427 1.327 . S
C430 C418 1.349 . S
C430 H424 0.950 . S
C430 C431 1.327 . S
C431 H425 0.950 . S
C431 C430 1.327 . S
C431 C435 1.429 . S
C432 C415 1.574 . S
C432 H426 0.949 . S
C432 C436 1.368 . S
C433 C414 1.429 . S
C433 C427 1.429 . S
C433 C434 1.523 . S
C434 C415 1.368 . S
C434 C428 1.368 . S
C434 C433 1.523 . S
C435 C419 1.429 . S
C435 C431 1.429 . S
C435 C436 1.523 . S
C436 C420 1.368 . S
C436 C432 1.368 . S
C436 C435 1.523 . S
H437 C412 0.950 . S
H438 C414 0.950 . S
H439 C415 0.949 . S
H440 C417 0.950 . S
H441 C419 0.950 . S
C442 C443 1.349 . S
C442 C444 1.327 . S
C442 H467 0.950 . S
C443 C442 1.349 . S
C443 C459 1.349 . S
C444 C442 1.327 . S
C444 C463 1.429 . S
C444 H468 0.950 . S
C445 C462 1.574 . S
C445 C464 1.368 . S
C445 H469 0.949 . S
H446 C450 0.949 . S
C447 C448 1.349 . S
C447 C449 1.327 . S
C447 H470 0.950 . S
C448 C447 1.349 . S
C448 C460 1.349 . S
C449 C447 1.327 . S
C449 C465 1.429 1_554 S
C449 H471 0.950 1_554 S
C450 H446 0.949 . S
C450 C458 1.574 . S
C450 C466 1.368 . S
H451 C459 0.950 . S
H452 C457 0.950 . S
H453 C458 0.949 . S
H454 C460 0.950 . S
H455 C461 0.950 . S
H456 C462 0.949 . S
C457 H452 0.950 . S
C457 C459 1.327 . S
C457 C463 1.429 . S
C458 C450 1.574 . S
C458 H453 0.949 . S
C458 C464 1.368 . S
C459 C443 1.349 . S
C459 H451 0.950 . S
C459 C457 1.327 . S
C460 C448 1.349 . S
C460 H454 0.950 . S
C460 C461 1.327 . S
C461 H455 0.950 . S
C461 C460 1.327 . S
C461 C465 1.429 1_554 S
C462 C445 1.574 . S
C462 H456 0.949 . S
C462 C466 1.368 . S
C463 C444 1.429 . S
C463 C457 1.429 . S
C463 C464 1.523 . S
C464 C445 1.368 . S
C464 C458 1.368 . S
C464 C463 1.523 . S
C465 C449 1.429 1_556 S
C465 C461 1.429 1_556 S
C465 C466 1.522 . S
C466 C450 1.368 . S
C466 C462 1.368 . S
C466 C465 1.522 . S
H467 C442 0.950 . S
H468 C444 0.950 . S
H469 C445 0.949 . S
H470 C447 0.950 . S
H471 C449 0.950 1_556 S
C472 C473 1.349 . S
C472 C474 1.327 . S
C472 H497 0.950 . S
C473 C472 1.349 . S
C473 C489 1.349 . S
C474 C472 1.327 . S
C474 C493 1.429 . S
C474 H498 0.950 . S
C475 C492 1.574 . S
C475 C494 1.368 . S
C475 H499 0.949 . S
H476 C480 0.949 . S
C477 C478 1.349 . S
C477 C479 1.327 . S
C477 H500 0.950 . S
C478 C477 1.349 . S
C478 C490 1.349 . S
C479 C477 1.327 . S
C479 C495 1.429 . S
C479 H501 0.950 . S
C480 H476 0.949 . S
C480 C488 1.574 . S
C480 C496 1.368 . S
H481 C489 0.950 . S
H482 C487 0.950 . S
H483 C488 0.949 . S
H484 C490 0.950 . S
H485 C491 0.950 . S
H486 C492 0.949 . S
C487 H482 0.950 . S
C487 C489 1.327 . S
C487 C493 1.429 . S
C488 C480 1.574 . S
C488 H483 0.949 . S
C488 C494 1.368 . S
C489 C473 1.349 . S
C489 H481 0.950 . S
C489 C487 1.327 . S
C490 C478 1.349 . S
C490 H484 0.950 . S
C490 C491 1.327 . S
C491 H485 0.950 . S
C491 C490 1.327 . S
C491 C495 1.429 . S
C492 C475 1.574 . S
C492 H486 0.949 . S
C492 C496 1.368 . S
C493 C474 1.429 . S
C493 C487 1.429 . S
C493 C494 1.523 . S
C494 C475 1.368 . S
C494 C488 1.368 . S
C494 C493 1.523 . S
C495 C479 1.429 . S
C495 C491 1.429 . S
C495 C496 1.523 . S
C496 C480 1.368 . S
C496 C492 1.368 . S
C496 C495 1.523 . S
H497 C472 0.950 . S
H498 C474 0.950 . S
H499 C475 0.949 . S
H500 C477 0.950 . S
H501 C479 0.950 . S
C502 C503 1.349 . S
C502 C504 1.327 . S
C502 H527 0.950 . S
C503 C502 1.349 . S
C503 C519 1.349 . S
C504 C502 1.327 . S
C504 C523 1.429 . S
C504 H528 0.950 . S
C505 C522 1.574 . S
C505 C524 1.368 . S
C505 H529 0.949 . S
H506 C510 0.949 . S
C507 C508 1.349 . S
C507 C509 1.327 . S
C507 H530 0.950 . S
C508 C507 1.349 . S
C508 C520 1.349 . S
C509 C507 1.327 . S
C509 C525 1.429 . S
C509 H531 0.950 . S
C510 H506 0.949 . S
C510 C518 1.574 . S
C510 C526 1.368 . S
H511 C519 0.950 . S
H512 C517 0.950 . S
H513 C518 0.949 . S
H514 C520 0.950 . S
H515 C521 0.950 . S
H516 C522 0.949 . S
C517 H512 0.950 . S
C517 C519 1.327 . S
C517 C523 1.429 . S
C518 C510 1.574 . S
C518 H513 0.949 . S
C518 C524 1.368 . S
C519 C503 1.349 . S
C519 H511 0.950 . S
C519 C517 1.327 . S
C520 C508 1.349 . S
C520 H514 0.950 . S
C520 C521 1.327 . S
C521 H515 0.950 . S
C521 C520 1.327 . S
C521 C525 1.429 . S
C522 C505 1.574 . S
C522 H516 0.949 . S
C522 C526 1.368 . S
C523 C504 1.429 . S
C523 C517 1.429 . S
C523 C524 1.523 . S
C524 C505 1.368 . S
C524 C518 1.368 . S
C524 C523 1.523 . S
C525 C509 1.429 . S
C525 C521 1.429 . S
C525 C526 1.523 . S
C526 C510 1.368 . S
C526 C522 1.368 . S
C526 C525 1.523 . S
H527 C502 0.950 . S
H528 C504 0.950 . S
H529 C505 0.949 . S
H530 C507 0.950 . S
H531 C509 0.950 . S
C532 C533 1.349 . S
C532 C534 1.327 . S
C532 H557 0.950 . S
C533 C532 1.349 . S
C533 C549 1.349 . S
C534 C532 1.327 . S
C534 C553 1.429 . S
C534 H558 0.950 . S
C535 C552 1.574 . S
C535 C554 1.368 1_545 S
C535 H559 0.949 . S
H536 C540 0.949 . S
C537 C538 1.349 1_455 S
C537 C539 1.327 . S
C537 H560 0.950 . S
C538 C537 1.349 1_655 S
C538 C550 1.349 1_545 S
C539 C537 1.327 . S
C539 C555 1.429 1_445 S
C539 H561 0.950 . S
C540 H536 0.949 . S
C540 C548 1.574 . S
C540 C556 1.368 . S
H541 C549 0.940 1_545 S
H542 C547 0.950 1_545 S
H543 C548 0.949 . S
H544 C550 0.950 . S
H545 C551 0.950 . S
H546 C552 0.949 1_455 S
C547 H542 0.950 1_565 S
C547 C549 1.327 . S
C547 C553 1.429 . S
C548 C540 1.574 . S
C548 H543 0.949 . S
C548 C554 1.368 . S
C549 C533 1.349 . S
C549 H541 0.940 1_565 S
C549 C547 1.327 . S
C550 C538 1.349 1_565 S
C550 H544 0.950 . S
C550 C551 1.327 . S
C551 H545 0.950 . S
C551 C550 1.327 . S
C551 C555 1.429 . S
C552 C535 1.574 . S
C552 H546 0.949 1_655 S
C552 C556 1.368 1_545 S
C553 C534 1.429 . S
C553 C547 1.429 . S
C553 C554 1.523 . S
C554 C535 1.368 1_565 S
C554 C548 1.368 . S
C554 C553 1.523 . S
C555 C539 1.429 1_665 S
C555 C551 1.429 . S
C555 C556 1.523 . S
C556 C540 1.368 . S
C556 C552 1.368 1_565 S
C556 C555 1.523 . S
H557 C532 0.950 . S
H558 C534 0.950 . S
H559 C535 0.949 . S
H560 C537 0.950 . S
H561 C539 0.950 . S
C562 C563 1.349 . S
C562 C564 1.327 . S
C562 H587 0.950 . S
C563 C562 1.349 . S
C563 C579 1.349 . S
C564 C562 1.327 . S
C564 C583 1.429 . S
C564 H588 0.950 . S
C565 C582 1.574 . S
C565 C584 1.368 . S
C565 H589 0.949 . S
H566 C570 0.949 . S
C567 C568 1.349 . S
C567 C569 1.327 . S
C567 H590 0.950 . S
C568 C567 1.349 . S
C568 C580 1.349 . S
C569 C567 1.327 . S
C569 C585 1.429 . S
C569 H591 0.950 . S
C570 H566 0.949 . S
C570 C578 1.574 . S
C570 C586 1.368 . S
H571 C579 0.950 . S
H572 C577 0.950 . S
H573 C578 0.949 . S
H574 C580 0.950 . S
H575 C581 0.950 . S
H576 C582 0.949 . S
C577 H572 0.950 . S
C577 C579 1.327 . S
C577 C583 1.429 . S
C578 C570 1.574 . S
C578 H573 0.949 . S
C578 C584 1.368 . S
C579 C563 1.349 . S
C579 H571 0.950 . S
C579 C577 1.327 . S
C580 C568 1.349 . S
C580 H574 0.950 . S
C580 C581 1.327 . S
C581 H575 0.950 . S
C581 C580 1.327 . S
C581 C585 1.429 . S
C582 C565 1.574 . S
C582 H576 0.949 . S
C582 C586 1.368 . S
C583 C564 1.429 . S
C583 C577 1.429 . S
C583 C584 1.523 . S
C584 C565 1.368 . S
C584 C578 1.368 . S
C584 C583 1.523 . S
C585 C569 1.429 . S
C585 C581 1.429 . S
C585 C586 1.523 . S
C586 C570 1.368 . S
C586 C582 1.368 . S
C586 C585 1.523 . S
H587 C562 0.950 . S
H588 C564 0.950 . S
H589 C565 0.949 . S
H590 C567 0.950 . S
H591 C569 0.950 . S
C592 C593 1.349 . S
C592 C594 1.327 . S
C592 H617 0.950 . S
C593 C592 1.349 . S
C593 C609 1.349 . S
C594 C592 1.327 . S
C594 C613 1.429 . S
C594 H618 0.950 . S
C595 C612 1.574 . S
C595 C614 1.368 . S
C595 H619 0.949 . S
H596 C600 0.949 . S
C597 C598 1.349 . S
C597 C599 1.327 . S
C597 H620 0.950 . S
C598 C597 1.349 . S
C598 C610 1.349 . S
C599 C597 1.327 . S
C599 C615 1.429 . S
C599 H621 0.950 . S
C600 H596 0.949 . S
C600 C608 1.574 . S
C600 C616 1.368 . S
H601 C609 0.950 . S
H602 C607 0.950 . S
H603 C608 0.949 . S
H604 C610 0.950 . S
H605 C611 0.950 . S
H606 C612 0.949 . S
C607 H602 0.950 . S
C607 C609 1.327 . S
C607 C613 1.429 . S
C608 C600 1.574 . S
C608 H603 0.949 . S
C608 C614 1.368 . S
C609 C593 1.349 . S
C609 H601 0.950 . S
C609 C607 1.327 . S
C610 C598 1.349 . S
C610 H604 0.950 . S
C610 C611 1.327 . S
C611 H605 0.950 . S
C611 C610 1.327 . S
C611 C615 1.429 . S
C612 C595 1.574 . S
C612 H606 0.949 . S
C612 C616 1.368 . S
C613 C594 1.429 . S
C613 C607 1.429 . S
C613 C614 1.523 . S
C614 C595 1.368 . S
C614 C608 1.368 . S
C614 C613 1.523 . S
C615 C599 1.429 . S
C615 C611 1.429 . S
C615 C616 1.523 . S
C616 C600 1.368 . S
C616 C612 1.368 . S
C616 C615 1.523 . S
H617 C592 0.950 . S
H618 C594 0.950 . S
H619 C595 0.949 . S
H620 C597 0.950 . S
H621 C599 0.950 . S
C622 C623 1.349 . S
C622 C624 1.327 . S
C622 H647 0.950 . S
C623 C622 1.349 . S
C623 C639 1.349 . S
C624 C622 1.327 . S
C624 C643 1.429 . S
C624 H648 0.950 . S
C625 C642 1.574 . S
C625 C644 1.368 . S
C625 H649 0.949 . S
H626 C630 0.949 . S
C627 C628 1.349 . S
C627 C629 1.327 . S
C627 H650 0.950 . S
C628 C627 1.349 . S
C628 C640 1.349 . S
C629 C627 1.327 . S
C629 C645 1.429 . S
C629 H651 0.950 . S
C630 H626 0.949 . S
C630 C638 1.574 . S
C630 C646 1.368 . S
H631 C639 0.950 . S
H632 C637 0.950 . S
H633 C638 0.949 . S
H634 C640 0.950 . S
H635 C641 0.950 . S
H636 C642 0.949 . S
C637 H632 0.950 . S
C637 C639 1.327 . S
C637 C643 1.429 . S
C638 C630 1.574 . S
C638 H633 0.949 . S
C638 C644 1.368 . S
C639 C623 1.349 . S
C639 H631 0.950 . S
C639 C637 1.327 . S
C640 C628 1.349 . S
C640 H634 0.950 . S
C640 C641 1.327 . S
C641 H635 0.950 . S
C641 C640 1.327 . S
C641 C645 1.429 . S
C642 C625 1.574 . S
C642 H636 0.949 . S
C642 C646 1.368 . S
C643 C624 1.429 . S
C643 C637 1.429 . S
C643 C644 1.523 . S
C644 C625 1.368 . S
C644 C638 1.368 . S
C644 C643 1.523 . S
C645 C629 1.429 . S
C645 C641 1.429 . S
C645 C646 1.523 . S
C646 C630 1.368 . S
C646 C642 1.368 . S
C646 C645 1.523 . S
H647 C622 0.950 . S
H648 C624 0.950 . S
H649 C625 0.949 . S
H650 C627 0.950 . S
H651 C629 0.950 . S
C652 C653 1.349 1_556 S
C652 C654 1.327 . S
C652 H677 0.950 . S
C653 C652 1.349 1_554 S
C653 C669 1.349 . S
C654 C652 1.327 . S
C654 C673 1.429 1_556 S
C654 H678 0.950 . S
C655 C672 1.574 . S
C655 C674 1.368 . S
C655 H679 0.949 . S
H656 C660 0.949 1_546 S
C657 C658 1.349 1_565 S
C657 C659 1.327 . S
C657 H680 0.950 . S
C658 C657 1.349 1_545 S
C658 C670 1.349 . S
C659 C657 1.327 . S
C659 C675 1.429 . S
C659 H681 0.950 . S
C660 H656 0.949 1_564 S
C660 C668 1.574 1_554 S
C660 C676 1.368 . S
H661 C669 0.950 . S
H662 C667 0.950 . S
H663 C668 0.949 . S
H664 C670 0.950 . S
H665 C671 0.950 . S
H666 C672 0.949 . S
C667 H662 0.950 . S
C667 C669 1.327 . S
C667 C673 1.429 . S
C668 C660 1.574 1_556 S
C668 H663 0.949 . S
C668 C674 1.369 1_556 S
C669 C653 1.349 . S
C669 H661 0.950 . S
C669 C667 1.327 . S
C670 C658 1.349 . S
C670 H664 0.950 . S
C670 C671 1.327 . S
C671 H665 0.950 . S
C671 C670 1.327 . S
C671 C675 1.429 1_545 S
C672 C655 1.574 . S
C672 H666 0.949 . S
C672 C676 1.368 . S
C673 C654 1.429 1_554 S
C673 C667 1.429 . S
C673 C674 1.523 . S
C674 C655 1.368 . S
C674 C668 1.369 1_554 S
C674 C673 1.523 . S
C675 C659 1.429 . S
C675 C671 1.429 1_565 S
C675 C676 1.523 . S
C676 C660 1.368 . S
C676 C672 1.368 . S
C676 C675 1.523 . S
H677 C652 0.950 . S
H678 C654 0.950 . S
H679 C655 0.949 . S
H680 C657 0.950 . S
H681 C659 0.950 . S
C682 C683 1.349 . S
C682 C684 1.327 . S
C682 H707 0.950 . S
C683 C682 1.349 . S
C683 C699 1.349 . S
C684 C682 1.327 . S
C684 C703 1.429 . S
C684 H708 0.950 . S
C685 C702 1.574 . S
C685 C704 1.368 . S
C685 H709 0.949 . S
H686 C690 0.949 . S
C687 C688 1.349 . S
C687 C689 1.327 . S
C687 H710 0.950 . S
C688 C687 1.349 . S
C688 C700 1.349 . S
C689 C687 1.327 . S
C689 C705 1.429 . S
C689 H711 0.950 . S
C690 H686 0.949 . S
C690 C698 1.574 . S
C690 C706 1.368 . S
H691 C699 0.950 . S
H692 C697 0.950 . S
H693 C698 0.949 . S
H694 C700 0.950 1_565 S
H695 C701 0.960 . S
H696 C702 0.949 . S
C697 H692 0.950 . S
C697 C699 1.327 . S
C697 C703 1.429 . S
C698 C690 1.574 . S
C698 H693 0.949 . S
C698 C704 1.368 . S
C699 C683 1.349 . S
C699 H691 0.950 . S
C699 C697 1.327 . S
C700 C688 1.349 . S
C700 H694 0.950 1_545 S
C700 C701 1.327 . S
C701 H695 0.960 . S
C701 C700 1.327 . S
C701 C705 1.429 . S
C702 C685 1.574 . S
C702 H696 0.949 . S
C702 C706 1.368 . S
C703 C684 1.429 . S
C703 C697 1.429 . S
C703 C704 1.523 . S
C704 C685 1.368 . S
C704 C698 1.368 . S
C704 C703 1.523 . S
C705 C689 1.429 . S
C705 C701 1.429 . S
C705 C706 1.523 . S
C706 C690 1.368 . S
C706 C702 1.368 . S
C706 C705 1.523 . S
H707 C682 0.950 . S
H708 C684 0.950 . S
H709 C685 0.949 . S
H710 C687 0.950 . S
H711 C689 0.950 . S
C712 C713 1.349 . S
C712 C714 1.327 . S
C712 H737 0.950 . S
C713 C712 1.349 . S
C713 C729 1.349 . S
C714 C712 1.327 . S
C714 C733 1.429 . S
C714 H738 0.950 . S
C715 C732 1.574 . S
C715 C734 1.368 . S
C715 H739 0.949 . S
H716 C720 0.949 . S
C717 C718 1.349 . S
C717 C719 1.327 . S
C717 H740 0.950 . S
C718 C717 1.349 . S
C718 C730 1.349 . S
C719 C717 1.327 . S
C719 C735 1.429 . S
C719 H741 0.950 . S
C720 H716 0.949 . S
C720 C728 1.574 . S
C720 C736 1.368 . S
H721 C729 0.950 . S
H722 C727 0.950 . S
H723 C728 0.949 . S
H724 C730 0.950 1_556 S
H725 C731 0.950 1_556 S
H726 C732 0.949 . S
C727 H722 0.950 . S
C727 C729 1.327 . S
C727 C733 1.429 . S
C728 C720 1.574 . S
C728 H723 0.949 . S
C728 C734 1.368 . S
C729 C713 1.349 . S
C729 H721 0.950 . S
C729 C727 1.327 . S
C730 C718 1.349 . S
C730 H724 0.950 1_554 S
C730 C731 1.327 . S
C731 H725 0.950 1_554 S
C731 C730 1.327 . S
C731 C735 1.429 . S
C732 C715 1.574 . S
C732 H726 0.949 . S
C732 C736 1.368 . S
C733 C714 1.429 . S
C733 C727 1.429 . S
C733 C734 1.523 . S
C734 C715 1.368 . S
C734 C728 1.368 . S
C734 C733 1.523 . S
C735 C719 1.429 . S
C735 C731 1.429 . S
C735 C736 1.523 . S
C736 C720 1.368 . S
C736 C732 1.368 . S
C736 C735 1.523 . S
H737 C712 0.950 . S
H738 C714 0.950 . S
H739 C715 0.949 . S
H740 C717 0.950 . S
H741 C719 0.950 . S
C742 C743 1.349 . S
C742 C744 1.327 . S
C742 H767 0.950 . S
C743 C742 1.349 . S
C743 C759 1.349 . S
C744 C742 1.327 . S
C744 C763 1.429 . S
C744 H768 0.950 . S
C745 C762 1.574 . S
C745 C764 1.368 . S
C745 H769 0.949 . S
H746 C750 0.949 . S
C747 C748 1.349 . S
C747 C749 1.327 . S
C747 H770 0.950 . S
C748 C747 1.349 . S
C748 C760 1.349 . S
C749 C747 1.327 . S
C749 C765 1.429 . S
C749 H771 0.950 . S
C750 H746 0.949 . S
C750 C758 1.574 . S
C750 C766 1.368 . S
H751 C759 0.950 . S
H752 C757 0.950 . S
H753 C758 0.949 . S
H754 C760 0.950 . S
H755 C761 0.950 . S
H756 C762 0.949 . S
C757 H752 0.950 . S
C757 C759 1.327 . S
C757 C763 1.429 . S
C758 C750 1.574 . S
C758 H753 0.949 . S
C758 C764 1.368 . S
C759 C743 1.349 . S
C759 H751 0.950 . S
C759 C757 1.327 . S
C760 C748 1.349 . S
C760 H754 0.950 . S
C760 C761 1.327 . S
C761 H755 0.950 . S
C761 C760 1.327 . S
C761 C765 1.429 . S
C762 C745 1.574 . S
C762 H756 0.949 . S
C762 C766 1.368 . S
C763 C744 1.429 . S
C763 C757 1.429 . S
C763 C764 1.523 . S
C764 C745 1.368 . S
C764 C758 1.368 . S
C764 C763 1.523 . S
C765 C749 1.429 . S
C765 C761 1.429 . S
C765 C766 1.523 . S
C766 C750 1.368 . S
C766 C762 1.368 . S
C766 C765 1.523 . S
H767 C742 0.950 . S
H768 C744 0.950 . S
H769 C745 0.949 . S
H770 C747 0.950 . S
H771 C749 0.950 . S
C772 C773 1.349 1_554 S
C772 C774 1.327 . S
C772 H797 0.950 . S
C773 C772 1.349 1_556 S
C773 C789 1.349 1_655 S
C774 C772 1.327 . S
C774 C793 1.429 1_654 S
C774 H798 0.950 . S
C775 C792 1.574 . S
C775 C794 1.368 . S
C775 H799 0.949 . S
H776 C780 0.949 1_655 S
C777 C778 1.344 1_556 S
C777 C779 1.327 . S
C777 H800 0.950 . S
C778 C777 1.344 1_554 S
C778 C790 1.353 . S
C779 C777 1.327 . S
C779 C795 1.438 . S
C779 H801 0.950 . S
C780 H776 0.949 1_455 S
C780 C788 1.574 1_455 S
C780 C796 1.346 1_554 S
H781 C789 0.950 . S
H782 C787 0.950 . S
H783 C788 0.949 . S
H784 C790 0.950 . S
H785 C791 0.950 . S
H786 C792 0.949 . S
C787 H782 0.950 . S
C787 C789 1.327 . S
C787 C793 1.429 . S
C788 C780 1.574 1_655 S
C788 H783 0.949 . S
C788 C794 1.368 1_654 S
C789 C773 1.349 1_455 S
C789 H781 0.950 . S
C789 C787 1.327 . S
C790 C778 1.353 . S
C790 H784 0.950 . S
C790 C791 1.327 . S
C791 H785 0.950 . S
C791 C790 1.327 . S
C791 C795 1.418 1_554 S
C792 C775 1.574 . S
C792 H786 0.949 . S
C792 C796 1.393 . S
C793 C774 1.429 1_456 S
C793 C787 1.429 . S
C793 C794 1.523 . S
C794 C775 1.368 . S
C794 C788 1.368 1_456 S
C794 C793 1.523 . S
C795 C779 1.438 . S
C795 C791 1.418 1_556 S
C795 C796 1.522 . S
C796 C780 1.346 1_556 S
C796 C792 1.393 . S
C796 C795 1.522 . S
H797 C772 0.950 . S
H798 C774 0.950 . S
H799 C775 0.949 . S
H800 C777 0.950 . S
H801 C779 0.950 . S
C802 C803 1.349 . S
C802 C804 1.327 . S
C802 H827 0.950 . S
C803 C802 1.349 . S
C803 C819 1.349 . S
C804 C802 1.327 . S
C804 C823 1.429 . S
C804 H828 0.950 . S
C805 C822 1.574 . S
C805 C824 1.368 . S
C805 H829 0.949 . S
H806 C810 0.949 . S
C807 C808 1.349 . S
C807 C809 1.327 . S
C807 H830 0.950 . S
C808 C807 1.349 . S
C808 C820 1.349 . S
C809 C807 1.327 . S
C809 C825 1.429 . S
C809 H831 0.950 . S
C810 H806 0.949 . S
C810 C818 1.574 . S
C810 C826 1.368 . S
H811 C819 0.950 . S
H812 C817 0.950 . S
H813 C818 0.949 . S
H814 C820 0.950 . S
H815 C821 0.950 . S
H816 C822 0.949 . S
C817 H812 0.950 . S
C817 C819 1.327 . S
C817 C823 1.429 . S
C818 C810 1.574 . S
C818 H813 0.949 . S
C818 C824 1.368 . S
C819 C803 1.349 . S
C819 H811 0.950 . S
C819 C817 1.327 . S
C820 C808 1.349 . S
C820 H814 0.950 . S
C820 C821 1.327 . S
C821 H815 0.950 . S
C821 C820 1.327 . S
C821 C825 1.429 . S
C822 C805 1.574 . S
C822 H816 0.949 . S
C822 C826 1.368 . S
C823 C804 1.429 . S
C823 C817 1.429 . S
C823 C824 1.523 . S
C824 C805 1.368 . S
C824 C818 1.368 . S
C824 C823 1.523 . S
C825 C809 1.429 . S
C825 C821 1.429 . S
C825 C826 1.523 . S
C826 C810 1.368 . S
C826 C822 1.368 . S
C826 C825 1.523 . S
H827 C802 0.950 . S
H828 C804 0.950 . S
H829 C805 0.949 . S
H830 C807 0.950 . S
H831 C809 0.950 . S
C832 C833 1.349 . S
C832 C834 1.327 . S
C832 H857 0.950 . S
C833 C832 1.349 . S
C833 C849 1.349 . S
C834 C832 1.327 . S
C834 C853 1.429 . S
C834 H858 0.950 . S
C835 C852 1.574 . S
C835 C854 1.368 . S
C835 H859 0.949 . S
H836 C840 0.949 . S
C837 C838 1.349 . S
C837 C839 1.327 . S
C837 H860 0.950 . S
C838 C837 1.349 . S
C838 C850 1.349 . S
C839 C837 1.327 . S
C839 C855 1.429 . S
C839 H861 0.950 . S
C840 H836 0.949 . S
C840 C848 1.574 . S
C840 C856 1.368 . S
H841 C849 0.950 . S
H842 C847 0.950 . S
H843 C848 0.949 . S
H844 C850 0.950 . S
H845 C851 0.950 . S
H846 C852 0.949 . S
C847 H842 0.950 . S
C847 C849 1.327 . S
C847 C853 1.429 . S
C848 C840 1.574 . S
C848 H843 0.949 . S
C848 C854 1.368 . S
C849 C833 1.349 . S
C849 H841 0.950 . S
C849 C847 1.327 . S
C850 C838 1.349 . S
C850 H844 0.950 . S
C850 C851 1.327 . S
C851 H845 0.950 . S
C851 C850 1.327 . S
C851 C855 1.429 . S
C852 C835 1.574 . S
C852 H846 0.949 . S
C852 C856 1.368 . S
C853 C834 1.429 . S
C853 C847 1.429 . S
C853 C854 1.523 . S
C854 C835 1.368 . S
C854 C848 1.368 . S
C854 C853 1.523 . S
C855 C839 1.429 . S
C855 C851 1.429 . S
C855 C856 1.523 . S
C856 C840 1.368 . S
C856 C852 1.368 . S
C856 C855 1.523 . S
H857 C832 0.950 . S
H858 C834 0.950 . S
H859 C835 0.949 . S
H860 C837 0.950 . S
H861 C839 0.950 . S
C862 C863 1.349 . S
C862 C864 1.327 . S
C862 H887 0.950 . S
C863 C862 1.349 . S
C863 C879 1.349 . S
C864 C862 1.327 . S
C864 C883 1.429 . S
C864 H888 0.950 . S
C865 C882 1.574 . S
C865 C884 1.368 . S
C865 H889 0.949 . S
H866 C870 0.949 . S
C867 C868 1.349 . S
C867 C869 1.327 . S
C867 H890 0.950 . S
C868 C867 1.349 . S
C868 C880 1.349 . S
C869 C867 1.327 . S
C869 C885 1.429 . S
C869 H891 0.950 . S
C870 H866 0.949 . S
C870 C878 1.574 . S
C870 C886 1.368 . S
H871 C879 0.950 . S
H872 C877 0.950 . S
H873 C878 0.949 . S
H874 C880 0.950 . S
H875 C881 0.950 . S
H876 C882 0.949 . S
C877 H872 0.950 . S
C877 C879 1.327 . S
C877 C883 1.429 . S
C878 C870 1.574 . S
C878 H873 0.949 . S
C878 C884 1.368 . S
C879 C863 1.349 . S
C879 H871 0.950 . S
C879 C877 1.327 . S
C880 C868 1.349 . S
C880 H874 0.950 . S
C880 C881 1.327 . S
C881 H875 0.950 . S
C881 C880 1.327 . S
C881 C885 1.429 . S
C882 C865 1.574 . S
C882 H876 0.949 . S
C882 C886 1.368 . S
C883 C864 1.429 . S
C883 C877 1.429 . S
C883 C884 1.523 . S
C884 C865 1.368 . S
C884 C878 1.368 . S
C884 C883 1.523 . S
C885 C869 1.429 . S
C885 C881 1.429 . S
C885 C886 1.523 . S
C886 C870 1.368 . S
C886 C882 1.368 . S
C886 C885 1.523 . S
H887 C862 0.950 . S
H888 C864 0.950 . S
H889 C865 0.949 . S
H890 C867 0.950 . S
H891 C869 0.950 . S
C173 C5 1.713 . S
C178 C91 1.789 . S
C203 C18 1.578 . S
C208 C125 1.519 1_566 S
C238 C137 1.196 . S
C233 C30 1.263 . S
C263 C41 1.182 . S
C268 C171 1.120 . S
C298 C128 1.710 . S
C293 C7 1.772 . S
C328 C108 1.665 . S
C323 C16 1.583 . S
C358 C155 1.399 . S
C353 C29 1.474 . S
C388 C146 0.986 . S
C383 C38 0.939 . S
C413 C8 1.705 . S
C418 C154 1.589 . S
C448 C116 1.581 . S
C443 C27 1.515 . S
C473 C40 1.482 . S
C478 C92 1.381 . S
C503 C19 1.198 . S
C508 C149 1.139 . S
C538 C107 1.584 . S
C533 C51 1.676 . S
C563 C62 1.675 . S
C568 C129 1.658 . S
C593 C74 1.459 . S
C598 C134 1.415 . S
C623 C84 1.347 . S
C628 C167 1.371 . S
C653 C49 1.973 . S
C658 C112 1.916 . S
C688 C104 1.520 . S
C683 C63 1.571 . S
C718 C158 1.396 . S
C713 C71 1.177 . S
C748 C150 1.164 . S
C743 C85 1.199 . S
C773 C52 1.725 . S
C778 C170 1.629 1_554 S
C808 C113 1.829 . S
C803 C73 1.836 . S
C838 C95 1.362 . S
C833 C82 1.125 . S
C863 C60 1.393 . S
C868 C133 1.653 . S
