# Generated by pormake.
# Topology zzz, (3,6)-cn, num edge types: 1
# Building blocks:
#     Node 0, Type 0, BuildingBlock: WUSLED_clean_sbu_0, # of connection points: 3
#     Node 1, Type 0, BuildingBlock: WUSLED_clean_sbu_0, # of connection points: 3
#     Node 2, Type 0, BuildingBlock: WUSLED_clean_sbu_0, # of connection points: 3
#     Node 3, Type 0, BuildingBlock: WUSLED_clean_sbu_0, # of connection points: 3
#     Node 4, Type 0, BuildingBlock: WUSLED_clean_sbu_0, # of connection points: 3
#     Node 5, Type 0, BuildingBlock: WUSLED_clean_sbu_0, # of connection points: 3
#     Node 6, Type 0, BuildingBlock: WUSLED_clean_sbu_0, # of connection points: 3
#     Node 7, Type 0, BuildingBlock: WUSLED_clean_sbu_0, # of connection points: 3
#     Node 8, Type 1, BuildingBlock: BETGAK_clean_sbu_0, # of connection points: 6
#     Node 9, Type 1, BuildingBlock: BETGAK_clean_sbu_0, # of connection points: 6
#     Node 10, Type 1, BuildingBlock: BETGAK_clean_sbu_0, # of connection points: 6
#     Node 11, Type 1, BuildingBlock: BETGAK_clean_sbu_0, # of connection points: 6
#     Edge 12, Type (0, 1), BuildingBlock: OJICUG_clean_linker_0, # of connection points: 2
#     Edge 13, Type (0, 1), BuildingBlock: OJICUG_clean_linker_0, # of connection points: 2
#     Edge 14, Type (0, 1), BuildingBlock: OJICUG_clean_linker_0, # of connection points: 2
#     Edge 15, Type (0, 1), BuildingBlock: OJICUG_clean_linker_0, # of connection points: 2
#     Edge 16, Type (0, 1), BuildingBlock: OJICUG_clean_linker_0, # of connection points: 2
#     Edge 17, Type (0, 1), BuildingBlock: OJICUG_clean_linker_0, # of connection points: 2
#     Edge 18, Type (0, 1), BuildingBlock: OJICUG_clean_linker_0, # of connection points: 2
#     Edge 19, Type (0, 1), BuildingBlock: OJICUG_clean_linker_0, # of connection points: 2
#     Edge 20, Type (0, 1), BuildingBlock: OJICUG_clean_linker_0, # of connection points: 2
#     Edge 21, Type (0, 1), BuildingBlock: OJICUG_clean_linker_0, # of connection points: 2
#     Edge 22, Type (0, 1), BuildingBlock: OJICUG_clean_linker_0, # of connection points: 2
#     Edge 23, Type (0, 1), BuildingBlock: OJICUG_clean_linker_0, # of connection points: 2
#     Edge 24, Type (0, 1), BuildingBlock: OJICUG_clean_linker_0, # of connection points: 2
#     Edge 25, Type (0, 1), BuildingBlock: OJICUG_clean_linker_0, # of connection points: 2
#     Edge 26, Type (0, 1), BuildingBlock: OJICUG_clean_linker_0, # of connection points: 2
#     Edge 27, Type (0, 1), BuildingBlock: OJICUG_clean_linker_0, # of connection points: 2
#     Edge 28, Type (0, 1), BuildingBlock: OJICUG_clean_linker_0, # of connection points: 2
#     Edge 29, Type (0, 1), BuildingBlock: OJICUG_clean_linker_0, # of connection points: 2
#     Edge 30, Type (0, 1), BuildingBlock: OJICUG_clean_linker_0, # of connection points: 2
#     Edge 31, Type (0, 1), BuildingBlock: OJICUG_clean_linker_0, # of connection points: 2
#     Edge 32, Type (0, 1), BuildingBlock: OJICUG_clean_linker_0, # of connection points: 2
#     Edge 33, Type (0, 1), BuildingBlock: OJICUG_clean_linker_0, # of connection points: 2
#     Edge 34, Type (0, 1), BuildingBlock: OJICUG_clean_linker_0, # of connection points: 2
#     Edge 35, Type (0, 1), BuildingBlock: OJICUG_clean_linker_0, # of connection points: 2
# Relax obj value: 0.466
# Max RMSD: 0.259
# Mean RMSD: 0.249
data_MOF--net-zzz--node1-WUSLED_clean_sbu_0--node2-BETGAK_clean_sbu_0--edge1-OJICUG_clean_linker_0
_symmetry_space_group_name_H-M    P1
_symmetry_Int_Tables_number       1
_symmetry_cell_setting            triclinic
loop_
_symmetry_equiv_pos_as_xyz
'x, y, z'
_cell_length_a     50.682847
_cell_length_b     50.604575
_cell_length_c     15.675357
_cell_angle_alpha  90.161069
_cell_angle_beta   90.177602
_cell_angle_gamma 90.119303
loop_
_atom_site_label
_atom_site_type_symbol
_atom_site_fract_x
_atom_site_fract_y
_atom_site_fract_z
_atom_type_partial_charge
C0 C 0.8104 0.53419 0.43998 0.0
C1 C 0.81568 0.51357 0.49783 0.0
C2 C 0.86239 0.52659 0.50805 0.0
C3 C 0.84129 0.50982 0.53125 0.0
C4 C 0.85696 0.547 0.44953 0.0
C5 C 0.83147 0.55072 0.41631 0.0
U6 U 0.7443 0.52053 0.31526 0.0
O7 O 0.72344 0.54972 0.23609 0.0
O8 O 0.70267 0.53068 0.34179 0.0
C9 C 0.70075 0.54612 0.27453 0.0
C10 C 0.78311 0.54048 0.4088 0.0
C11 C 0.67767 0.54241 0.2166 0.0
C12 C 0.64634 0.51471 0.13758 0.0
C13 C 0.66716 0.51735 0.19691 0.0
C14 C 0.64614 0.56204 0.11733 0.0
C15 C 0.63579 0.53703 0.0959 0.0
C16 C 0.66672 0.56466 0.17676 0.0
C17 C 0.77644 0.4571 0.25016 0.0
C18 C 0.80746 0.43273 0.16347 0.0
C19 C 0.82189 0.4528 0.29631 0.0
C20 C 0.79625 0.46158 0.31125 0.0
C21 C 0.82806 0.43985 0.21943 0.0
C22 C 0.78178 0.44137 0.17879 0.0
C23 C 0.75293 0.47379 0.24939 0.0
O24 O 0.7804 0.54481 0.32662 0.0
O25 O 0.76305 0.52735 0.44115 0.0
O26 O 0.75643 0.4959 0.20727 0.0
O27 O 0.74096 0.47716 0.32295 0.0
H28 H 0.8 0.50049 0.51813 0.0
H29 H 0.84454 0.49368 0.57519 0.0
H30 H 0.87229 0.56072 0.43081 0.0
H31 H 0.8281 0.56705 0.37307 0.0
H32 H 0.63908 0.49511 0.12235 0.0
H33 H 0.67533 0.49979 0.22614 0.0
H34 H 0.63838 0.57973 0.08779 0.0
H35 H 0.67442 0.5842 0.19069 0.0
H36 H 0.81152 0.42292 0.10345 0.0
H37 H 0.83728 0.45817 0.34126 0.0
H38 H 0.79247 0.47384 0.36661 0.0
H39 H 0.76672 0.43794 0.13076 0.0
C40 C 0.02813 0.80279 0.45849 0.0
C41 C 0.03687 0.82519 0.41332 0.0
C42 C 0.02239 0.85512 0.52774 0.0
C43 C 0.03406 0.85082 0.44724 0.0
C44 C 1.01349 0.83269 0.5727 0.0
C45 C 1.01637 0.80701 0.53878 0.0
U46 U 1.01057 0.74196 0.31616 0.0
O47 O 1.01218 0.69855 0.33582 0.0
O48 O 0.03736 0.71722 0.24006 0.0
C49 C 0.0288 0.69487 0.27249 0.0
C50 C 0.03293 0.77523 0.4252 0.0
C51 C 0.02271 0.67327 0.21 0.0
C52 C 0.02474 0.6264 0.17047 0.0
C53 C 0.02823 0.64682 0.23081 0.0
C54 C 1.00998 0.65842 0.06693 0.0
C55 C 1.01571 0.63181 0.08697 0.0
C56 C 1.01333 0.67876 0.12743 0.0
C57 C 0.95831 0.78863 0.25378 0.0
C58 C 0.94715 0.82925 0.18102 0.0
C59 C 0.9648 0.83085 0.32481 0.0
C60 C 0.96534 0.8033 0.32667 0.0
C61 C 0.95731 0.84405 0.2499 0.0
C62 C 0.94778 0.80167 0.18285 0.0
C63 C 0.9686 0.76174 0.24368 0.0
O64 O 1.01635 0.75653 0.44838 0.0
O65 O 0.04004 0.77292 0.34492 0.0
O66 O 0.96734 0.74656 0.31156 0.0
O67 O 0.99179 0.76124 0.20653 0.0
H68 H 0.04635 0.82298 0.35191 0.0
H69 H 0.04165 0.86727 0.41071 0.0
H70 H 1.00412 0.83491 0.63426 0.0
H71 H 1.00959 0.79036 0.57611 0.0
H72 H 0.02911 0.60635 0.18969 0.0
H73 H 0.03565 0.64193 0.2937 0.0
H74 H 1.00354 0.66383 1.00348 0.0
H75 H 1.00909 0.69892 0.10888 0.0
H76 H 0.94142 0.83886 0.12215 0.0
H77 H 0.97252 0.84177 0.37902 0.0
H78 H 0.97367 0.79362 0.38207 0.0
H79 H 0.94255 0.79069 0.12579 0.0
C80 C 0.72025 0.98652 0.41901 0.0
C81 C 0.7179 1.00156 0.49436 0.0
C82 C 0.66996 0.9949 0.49629 0.0
C83 C 0.69313 1.00581 0.53207 0.0
C84 C 0.67243 0.97983 0.42099 0.0
C85 C 0.69715 0.9757 0.38312 0.0
U86 U 0.7809 1.00751 0.28639 0.0
O87 O 0.80082 0.9846 0.18648 0.0
O88 O 0.82371 0.99883 0.29633 0.0
C89 C 0.82432 0.98704 0.22138 0.0
C90 C 0.74646 0.98108 0.37889 0.0
C91 C 0.84648 0.99364 0.16265 0.0
C92 C 0.89309 0.98889 0.12537 0.0
C93 C 0.87239 0.98627 0.18431 0.0
C94 C 0.86253 1.00693 0.02231 0.0
C95 C 0.88834 0.99872 0.04277 0.0
C96 C 0.8419 1.00448 0.08138 0.0
C97 C 0.74138 0.06892 0.28151 0.0
C98 C 0.70291 0.09392 0.23788 0.0
C99 C 0.70043 0.06521 0.36103 0.0
C100 C 0.72704 0.05887 0.35081 0.0
C101 C 0.68777 0.08181 0.30213 0.0
C102 C 0.7295 0.08738 0.22735 0.0
C103 C 0.76615 0.05607 0.2561 0.0
O104 O 0.74688 0.98044 0.29508 0.0
O105 O 0.76731 0.99297 0.41159 0.0
O106 O 0.78234 0.0499 0.3187 0.0
O107 O 0.76272 0.03671 0.20109 0.0
H108 H 0.73519 1.01015 0.52433 0.0
H109 H 0.6922 1.01786 0.58915 0.0
H110 H 0.65532 0.9706 0.39199 0.0
H111 H 0.69819 0.96369 0.32592 0.0
H112 H 0.91261 0.98222 0.14341 0.0
H113 H 0.87649 0.97764 0.2461 0.0
H114 H 0.85816 1.01502 0.95998 0.0
H115 H 0.82222 1.01041 0.06243 0.0
H116 H 0.69366 0.10653 0.19078 0.0
H117 H 0.68931 0.05567 0.41125 0.0
H118 H 0.73588 0.04456 0.39326 0.0
H119 H 0.74016 0.09514 0.17305 0.0
C120 C 0.53074 0.72539 0.47456 0.0
C121 C 0.51216 0.72149 0.54019 0.0
C122 C 0.52317 0.67425 0.54906 0.0
C123 C 0.50843 0.69629 0.57686 0.0
C124 C 0.54167 0.67836 0.48337 0.0
C125 C 0.54539 0.70341 0.44705 0.0
U126 U 0.51607 0.78896 0.33954 0.0
O127 O 0.54424 0.8077 0.25234 0.0
O128 O 0.52655 0.83138 0.3542 0.0
C129 C 0.54082 0.83149 0.28412 0.0
C130 C 0.53695 0.75214 0.43828 0.0
C131 C 0.53549 0.85265 0.22021 0.0
C132 C 0.54342 0.89752 0.16818 0.0
C133 C 0.54579 0.87822 0.23225 0.0
C134 C 0.51992 0.86622 0.07925 0.0
C135 C 0.53092 0.89163 0.08992 0.0
C136 C 0.52207 0.84706 0.14351 0.0
C137 C 0.45195 0.75529 0.29169 0.0
C138 C 0.42808 0.72133 0.21463 0.0
C139 C 0.4489 0.7111 0.34995 0.0
C140 C 0.45702 0.73735 0.3578 0.0
C141 C 0.43612 0.70246 0.27511 0.0
C142 C 0.43601 0.74762 0.22293 0.0
C143 C 0.46851 0.77881 0.28276 0.0
O144 O 0.54046 0.75326 0.35533 0.0
O145 O 0.52434 0.77291 0.46825 0.0
O146 O 0.48996 0.77432 0.23828 0.0
O147 O 0.47293 0.79258 0.35265 0.0
H148 H 0.50062 0.73793 0.56382 0.0
H149 H 0.49384 0.69406 0.62664 0.0
H150 H 0.55388 0.66227 0.46091 0.0
H151 H 0.56021 0.70566 0.39794 0.0
H152 H 0.55223 0.91677 0.17875 0.0
H153 H 0.55633 0.88307 0.29046 0.0
H154 H 0.50975 0.86103 0.02066 0.0
H155 H 0.51376 0.82761 0.13225 0.0
H156 H 0.41831 0.71539 0.15608 0.0
H157 H 0.45493 0.6971 0.39837 0.0
H158 H 0.46942 0.74292 0.41136 0.0
H159 H 0.43207 0.76123 0.17118 0.0
C160 C 0.22716 0.49525 0.01784 0.0
C161 C 0.20432 0.49857 0.06765 0.0
C162 C 0.17666 0.50175 0.93969 0.0
C163 C 0.1795 0.50179 0.02918 0.0
C164 C 0.1996 0.49893 0.88993 0.0
C165 C 0.22447 0.49565 0.92851 0.0
U166 U 0.28442 0.51503 0.16789 0.0
O167 O 0.32795 0.51118 0.15916 0.0
O168 O 0.30605 0.48967 0.25744 0.0
C169 C 0.32937 0.49605 0.22723 0.0
C170 C 0.25354 0.49034 0.05774 0.0
C171 C 0.35058 0.50171 0.29119 0.0
C172 C 0.39756 0.50125 0.32811 0.0
C173 C 0.37722 0.4998 0.267 0.0
C174 C 0.36512 0.50726 0.43908 0.0
C175 C 0.3918 0.50442 0.41543 0.0
C176 C 0.34483 0.50594 0.37795 0.0
C177 C 0.2392 0.57184 0.19998 0.0
C178 C 0.2003 0.59532 0.24796 0.0
C179 C 0.19813 0.56831 0.12022 0.0
C180 C 0.22492 0.56246 0.12912 0.0
C181 C 0.18537 0.58392 0.1815 0.0
C182 C 0.22704 0.58913 0.25752 0.0
C183 C 0.26478 0.55987 0.22129 0.0
O184 O 0.27302 0.50593 0.03443 0.0
O185 O 0.25375 0.48538 0.14001 0.0
O186 O 0.26272 0.53775 0.26447 0.0
O187 O 0.28179 0.55837 0.15829 0.0
H188 H 0.20553 0.49864 0.13664 0.0
H189 H 0.16249 0.50442 0.06992 0.0
H190 H 0.19829 0.49851 0.82098 0.0
H191 H 0.24162 0.49301 0.88833 0.0
H192 H 0.41775 0.49883 0.3072 0.0
H193 H 0.38231 0.49626 0.20087 0.0
H194 H 0.35985 0.51023 0.50529 0.0
H195 H 0.32458 0.50753 0.39917 0.0
H196 H 0.19079 0.60713 0.2967 0.0
H197 H 0.18701 0.55932 0.0686 0.0
H198 H 0.23404 0.54914 0.08387 0.0
H199 H 0.23769 0.59638 0.31288 0.0
C200 C 0.01737 0.23044 0.96245 0.0
C201 C 0.04167 0.2179 0.9463 0.0
C202 C 0.01922 0.17768 0.8966 0.0
C203 C 0.04257 0.19174 0.91541 0.0
C204 C 0.99497 0.19046 0.91065 0.0
C205 C 0.99408 0.21633 0.9437 0.0
U206 U 0.03222 0.28723 0.12558 0.0
O207 O 1.00441 0.31701 0.17543 0.0
O208 O 0.04 0.32989 0.1085 0.0
C209 C 0.01934 0.33712 0.15353 0.0
C210 C 1.01554 0.25832 0.99497 0.0
C211 C 0.0233 0.35798 0.21999 0.0
C212 C 0.04947 0.3798 0.33127 0.0
C213 C 0.04657 0.35993 0.26873 0.0
C214 C 1.00595 0.39619 0.29761 0.0
C215 C 0.02913 0.39825 0.34723 0.0
C216 C 1.00313 0.37641 0.23506 0.0
C217 C 0.0694 0.23381 0.23682 0.0
C218 C 0.07129 0.19282 0.31575 0.0
C219 C 0.07193 0.19193 0.16115 0.0
C220 C 0.07125 0.2195 0.16026 0.0
C221 C 0.07092 0.1783 0.23893 0.0
C222 C 0.07042 0.22039 0.31461 0.0
C223 C 0.06154 0.26169 0.23534 0.0
O224 O 1.00181 0.26193 0.06502 0.0
O225 O 0.03694 0.27309 0.99284 0.0
O226 O 0.07152 0.276 0.17332 0.0
O227 O 0.03608 0.26527 0.24558 0.0
H228 H 0.06005 0.22833 0.95684 0.0
H229 H 0.0616 0.18266 0.9045 0.0
H230 H 0.9766 0.18028 0.89721 0.0
H231 H 0.97503 0.22544 0.95409 0.0
H232 H 0.0678 0.38076 0.36673 0.0
H233 H 0.06252 0.34606 0.25865 0.0
H234 H 0.98958 0.4095 0.30818 0.0
H235 H 0.98495 0.3754 0.19861 0.0
H236 H 0.07009 0.18292 0.37679 0.0
H237 H 0.07179 0.18129 0.10108 0.0
H238 H 0.07055 0.22963 0.09979 0.0
H239 H 0.06872 0.2311 0.3743 0.0
C240 C 0.31354 0.01843 0.04862 0.0
C241 C 0.32531 0.04261 0.02571 0.0
C242 C 0.36509 0.01988 0.97681 0.0
C243 C 0.35096 0.04336 0.99153 0.0
C244 C 0.3532 0.99573 0.99906 0.0
C245 C 0.32788 0.99505 0.03509 0.0
U246 U 0.25677 0.03888 0.2024 0.0
O247 O 0.22938 1.0121 0.268 0.0
O248 O 0.21359 0.04236 0.18221 0.0
C249 C 0.20815 0.02375 0.238 0.0
C250 C 0.28616 1.01667 0.08325 0.0
C251 C 0.18658 0.02891 0.30024 0.0
C252 C 0.13932 0.02961 0.3307 0.0
C253 C 0.16023 0.02809 0.2723 0.0
C254 C 0.17066 0.03358 0.44655 0.0
C255 C 0.14417 0.03189 0.41902 0.0
C256 C 0.19157 0.0321 0.388 0.0
C257 C 0.30837 0.08484 0.28588 0.0
C258 C 0.35128 0.08463 0.3545 0.0
C259 C 0.34829 0.08682 0.20046 0.0
C260 C 0.32079 0.08753 0.20632 0.0
C261 C 0.36371 0.08383 0.27433 0.0
C262 C 0.3238 0.08502 0.36015 0.0
C263 C 0.28078 0.07574 0.29084 0.0
O264 O 0.28386 1.00724 0.16089 0.0
O265 O 0.27009 0.03656 0.06856 0.0
O266 O 0.26563 0.08101 0.22472 0.0
O267 O 0.27842 0.05124 0.31739 0.0
H268 H 0.31458 0.0609 0.03269 0.0
H269 H 0.35943 0.06226 0.97417 0.0
H270 H 0.36355 0.9773 0.98872 0.0
H271 H 0.31931 0.9761 0.05133 0.0
H272 H 0.1193 0.02873 0.30649 0.0
H273 H 0.15577 0.02557 0.20511 0.0
H274 H 0.17536 0.03507 0.51382 0.0
H275 H 0.21166 0.03269 0.41175 0.0
H276 H 0.36258 0.08218 0.4127 0.0
H277 H 0.35738 0.08658 0.13801 0.0
H278 H 0.30925 0.08805 0.14827 0.0
H279 H 0.31464 0.08296 0.42216 0.0
C280 C 0.50436 0.30384 0.031 0.0
C281 C 0.48534 0.3236 0.04418 0.0
C282 C 0.51003 0.35528 0.95696 0.0
C283 C 0.4881 0.34879 1.00802 0.0
C284 C 0.52914 0.33544 0.94337 0.0
C285 C 0.52636 0.31007 0.9799 0.0
U286 U 0.51916 0.24128 0.17224 0.0
O287 O 0.5122 0.19832 0.15242 0.0
O288 O 0.48942 0.22015 0.24761 0.0
C289 C 0.49567 0.19682 0.2169 0.0
C290 C 0.49934 0.27673 0.06615 0.0
C291 C 0.50007 0.17548 0.28144 0.0
C292 C 0.5001 0.12851 0.31912 0.0
C293 C 0.49834 0.14869 0.25762 0.0
C294 C 0.50559 0.16142 0.42972 0.0
C295 C 0.50334 0.13461 0.40635 0.0
C296 C 0.50409 0.18152 0.36832 0.0
C297 C 0.58042 0.27718 0.24834 0.0
C298 C 0.61535 0.302 0.31776 0.0
C299 C 0.58339 0.32448 0.22851 0.0
C300 C 0.57143 0.30036 0.20941 0.0
C301 C 0.60463 0.32576 0.28664 0.0
C302 C 0.60314 0.27786 0.29929 0.0
C303 C 0.56379 0.25355 0.2475 0.0
O304 O 0.51454 0.25709 0.0414 0.0
O305 O 0.49317 0.27536 0.14741 0.0
O306 O 0.56266 0.24045 0.17507 0.0
O307 O 0.54057 0.25711 0.28263 0.0
H308 H 0.46792 0.31942 0.08176 0.0
H309 H 0.4726 0.36308 0.01898 0.0
H310 H 0.54641 0.33955 0.90514 0.0
H311 H 0.54135 0.29534 0.96764 0.0
H312 H 0.49816 0.10814 0.29861 0.0
H313 H 0.49507 0.14336 0.19144 0.0
H314 H 0.50854 0.16694 0.49587 0.0
H315 H 0.50566 0.20186 0.38939 0.0
H316 H 0.63203 0.30221 0.36111 0.0
H317 H 0.57435 0.34224 0.20367 0.0
H318 H 0.55386 0.30008 0.16977 0.0
H319 H 0.61037 0.26002 0.32932 0.0
La320 La 0.03 1.00794 0.80011 0.0
La321 La 0.99938 0.02188 0.65078 0.0
C322 C 0.04347 0.9891 0.9425 0.0
C323 C 0.02988 0.9706 0.99907 0.0
C324 C 0.03727 0.96863 0.08495 0.0
C325 C 0.02307 0.95224 0.14005 0.0
C326 C 1.00128 0.9376 0.1098 0.0
C327 C 0.99375 0.94018 0.02375 0.0
C328 C 1.0078 0.95665 0.96918 0.0
C329 C 0.06032 0.02539 0.67325 0.0
C330 C 1.01538 0.96345 0.66501 0.0
C331 C 0.98166 0.04006 0.51207 0.0
C332 C 0.995 0.05068 0.43682 0.0
C333 C 0.98303 0.07089 0.39013 0.0
C334 C 0.99781 0.08556 0.33205 0.0
C335 C 0.02485 0.08028 0.32043 0.0
C336 C 0.03607 0.05835 0.36159 0.0
C337 C 0.02123 0.04371 0.41959 0.0
C338 C 0.96968 1.00467 0.78042 0.0
C339 C 0.01928 0.06794 0.7753 0.0
O340 O 0.0516 0.97965 0.8694 0.0
O341 O 0.0312 1.01148 0.93311 0.0
O342 O 0.06552 0.02816 0.75368 0.0
O343 O 0.04 1.01113 0.66652 0.0
O344 O 0.01744 0.96892 0.74762 0.0
O345 O 1.01316 0.9831 0.61051 0.0
O346 O 0.98479 0.05412 0.58122 0.0
O347 O 0.98496 1.01495 0.5268 0.0
O348 O 0.96438 1.00131 0.70065 0.0
O349 O 0.98973 0.01921 0.78436 0.0
O350 O 1.01217 0.0614 0.69651 0.0
O351 O 0.02495 0.0495 0.83151 0.0
H352 H 0.05388 0.97985 0.10944 0.0
H353 H 0.02921 0.95097 0.20614 0.0
H354 H 0.97743 0.92891 0.99756 0.0
H355 H 1.00138 0.95848 0.90356 0.0
H356 H 0.96282 0.07657 0.403 0.0
H357 H 0.9886 0.10249 0.30222 0.0
H358 H 0.05675 0.05364 0.35333 0.0
H359 H 0.03067 0.02806 0.45503 0.0
La360 La 0.52927 0.02746 0.80575 0.0
La361 La 0.50745 0.99435 0.67415 0.0
C362 C 0.55788 0.04708 0.92158 0.0
C363 C 0.56143 0.05951 1.00597 0.0
C364 C 0.57501 0.08361 1.00944 0.0
C365 C 0.58739 0.09173 0.08459 0.0
C366 C 0.58638 0.07587 0.15827 0.0
C367 C 0.56945 0.05372 0.15774 0.0
C368 C 0.55734 0.04538 0.08182 0.0
C369 C 0.50972 0.05479 0.67489 0.0
C370 C 0.56666 1.0061 0.65858 0.0
C371 C 0.48101 0.9769 0.54921 0.0
C372 C 0.4747 0.98882 0.46655 0.0
C373 C 0.45174 0.98097 0.42373 0.0
C374 C 0.44063 0.99733 0.36178 0.0
C375 C 0.45219 0.02197 0.34282 0.0
C376 C 0.47675 0.02835 0.37935 0.0
C377 C 0.48796 1.01179 0.4407 0.0
C378 C 0.52531 0.96658 0.80703 0.0
C379 C 0.46928 0.01843 0.81846 0.0
O380 O 0.5516 0.02204 0.91714 0.0
O381 O 0.54772 0.06093 0.85957 0.0
O382 O 0.50759 0.0614 0.75447 0.0
O383 O 0.52287 0.03367 0.67067 0.0
O384 O 0.56471 1.01186 0.74056 0.0
O385 O 0.54496 1.00334 0.61301 0.0
O386 O 0.47086 0.98957 0.61372 0.0
O387 O 0.50564 0.97072 0.56323 0.0
O388 O 0.52572 0.95883 0.72848 0.0
O389 O 0.51325 0.98828 0.80911 0.0
O390 O 0.47173 1.00929 0.73942 0.0
O391 O 0.49039 0.02479 0.86378 0.0
H392 H 0.57845 0.09487 0.95179 0.0
H393 H 0.60009 0.1089 0.08127 0.0
H394 H 0.56738 0.0415 0.21393 0.0
H395 H 0.54665 0.02682 0.08119 0.0
H396 H 0.44115 0.9634 0.4434 0.0
H397 H 0.42158 0.9919 0.33552 0.0
H398 H 0.48619 0.04707 0.36545 0.0
H399 H 0.50579 1.01795 0.47316 0.0
La400 La 0.49774 0.52199 0.82055 0.0
La401 La 0.53274 0.50834 0.68413 0.0
C402 C 0.47368 0.53799 0.95152 0.0
C403 C 0.46619 0.56159 0.99968 0.0
C404 C 0.44204 0.56161 0.04309 0.0
C405 C 0.4352 0.58285 0.09543 0.0
C406 C 0.45261 0.60421 0.10557 0.0
C407 C 0.47657 0.60439 0.06042 0.0
C408 C 0.4833 0.58325 1.00759 0.0
C409 C 0.47287 0.50435 0.68166 0.0
C410 C 0.51578 0.56728 0.69312 0.0
C411 C 0.55566 0.49106 0.55273 0.0
C412 C 0.57127 0.46827 0.52516 0.0
C413 C 0.58989 0.47152 0.46013 0.0
C414 C 0.60307 0.44964 0.42657 0.0
C415 C 0.59767 0.42414 0.45745 0.0
C416 C 0.57989 0.42125 0.52578 0.0
C417 C 0.56688 0.44314 0.55952 0.0
C418 C 0.55776 0.52603 0.82255 0.0
C419 C 0.51469 0.46252 0.81303 0.0
O420 O 0.46235 0.53445 0.87751 0.0
O421 O 0.49875 0.53193 0.95019 0.0
O422 O 0.46708 0.49798 0.7592 0.0
O423 O 0.49228 0.51998 0.68396 0.0
O424 O 0.50891 0.56198 0.77303 0.0
O425 O 0.52174 0.54766 0.64108 0.0
O426 O 0.56681 0.50679 0.60823 0.0
O427 O 0.5308 0.48662 0.57031 0.0
O428 O 0.56404 0.53166 0.74487 0.0
O429 O 0.53834 0.51039 0.82061 0.0
O430 O 0.52556 0.46825 0.73825 0.0
O431 O 0.50438 0.48143 0.86023 0.0
H432 H 0.42868 0.54493 0.03774 0.0
H433 H 0.41664 0.5823 0.12951 0.0
H434 H 0.4901 0.62092 0.06593 0.0
H435 H 0.50198 0.58363 0.97417 0.0
H436 H 0.59364 0.4909 0.43346 0.0
H437 H 0.61685 0.45258 0.37477 0.0
H438 H 0.57487 0.40191 0.55032 0.0
H439 H 0.55266 0.44027 0.61009 0.0
La440 La 1.01226 0.49372 0.77454 0.0
La441 La 0.02744 0.53408 0.66331 0.0
C442 C 0.99309 0.46284 0.88475 0.0
C443 C 0.96909 0.45764 0.93319 0.0
C444 C 0.9667 0.43359 0.97662 0.0
C445 C 0.94502 0.42892 0.02919 0.0
C446 C 0.92561 0.4484 0.03931 0.0
C447 C 0.92784 0.47229 0.99408 0.0
C448 C 0.94944 0.47687 0.94121 0.0
C449 C 0.03238 0.47454 0.62943 0.0
C450 C 0.96934 0.51772 0.65176 0.0
C451 C 0.04981 0.56406 0.55731 0.0
C452 C 0.05492 0.57141 0.46845 0.0
C453 C 0.06677 0.59595 0.45416 0.0
C454 C 0.08036 0.60071 0.37863 0.0
C455 C 0.08221 0.58095 0.31532 0.0
C456 C 0.06675 0.55789 0.32501 0.0
C457 C 0.05358 0.55292 0.40183 0.0
C458 C 1.00928 0.55362 0.8107 0.0
C459 C 0.07132 0.50875 0.78669 0.0
O460 O 0.9922 0.45834 0.80281 0.0
O461 O 1.00533 0.48488 0.90281 0.0
O462 O 0.0375 0.46607 0.70529 0.0
O463 O 1.01673 0.49384 0.63643 0.0
O464 O 0.97371 0.50946 0.73071 0.0
O465 O 0.98976 0.52408 0.60388 0.0
O466 O 0.05942 0.54153 0.58321 0.0
O467 O 0.02691 0.56932 0.59102 0.0
O468 O 1.00437 0.56287 0.73585 0.0
O469 O 0.02414 0.53382 0.80117 0.0
O470 O 0.0664 0.52336 0.71858 0.0
O471 O 0.05197 0.49628 0.82493 0.0
H472 H 0.98187 0.41863 0.97118 0.0
H473 H 0.94377 0.41041 0.06348 0.0
H474 H 0.91286 0.48743 0.99965 0.0
H475 H 0.95105 0.49553 0.90785 0.0
H476 H 0.06786 0.61052 0.50491 0.0
H477 H 0.09166 0.61881 0.375 0.0
H478 H 0.06657 0.54266 0.27641 0.0
H479 H 0.04419 0.53391 0.4115 0.0
C480 C 0.09971 1.01493 0.46912 0.0
C481 C 0.12185 0.03142 0.48215 0.0
H482 H 0.0633 0.99979 0.51911 0.0
C483 C 0.12281 0.04666 0.55753 0.0
H484 H 0.09831 1.00252 0.41292 0.0
C485 C 0.10258 0.04508 0.61844 0.0
C486 C 0.08077 0.0283 0.60572 0.0
H487 H 0.13923 0.05987 0.5697 0.0
H488 H 0.10414 0.05687 0.67603 0.0
C489 C 0.07953 1.01335 0.53013 0.0
C490 C 0.49062 0.11661 0.5511 0.0
C491 C 0.50405 0.11334 0.47319 0.0
H492 H 0.48156 0.10069 0.67449 0.0
C493 C 0.5186 0.08993 0.46105 0.0
H494 H 0.47896 0.13416 0.56259 0.0
C495 C 0.5202 0.07075 0.52576 0.0
C496 C 0.5069 0.0742 0.60374 0.0
H497 H 0.52944 0.08678 0.40248 0.0
H498 H 0.53248 0.05357 0.51554 0.0
C499 C 0.492 0.09733 0.61525 0.0
C500 C 0.40924 0.49051 0.55979 0.0
C501 C 0.41325 0.50376 0.48197 0.0
H502 H 0.42485 0.47994 0.68227 0.0
C503 C 0.43787 0.51614 0.46879 0.0
H504 H 0.39086 0.48027 0.57194 0.0
C505 C 0.45754 0.51586 0.53247 0.0
C506 C 0.45317 0.50302 0.61073 0.0
H507 H 0.44173 0.52663 0.41 0.0
H508 H 0.47598 0.52608 0.521 0.0
C509 C 0.42889 0.4901 0.62299 0.0
C510 C 0.01972 0.44404 0.40921 0.0
C511 C 0.03163 0.4189 0.41681 0.0
H512 H 1.01079 0.48134 0.46903 0.0
C513 C 0.04523 0.41335 0.49326 0.0
H514 H 1.00947 0.44947 0.35119 0.0
C515 C 0.04626 0.43183 0.56024 0.0
C516 C 0.03363 0.4565 0.5536 0.0
H517 H 0.0544 0.39429 0.50293 0.0
H518 H 0.05638 0.42641 0.61856 0.0
C519 C 0.02068 0.46253 0.4766 0.0
C520 C 0.93565 1.00773 0.99739 0.0
C521 C 0.9098 0.99945 0.97692 0.0
H522 H 0.97481 1.01603 0.95162 0.0
C523 C 0.90446 0.99177 0.8922 0.0
H524 H 0.94055 1.01379 0.06184 0.0
C525 C 0.9241 0.99284 0.82954 0.0
C526 C 0.94965 1.00187 0.84931 0.0
H527 H 0.88501 0.98476 0.87419 0.0
H528 H 0.91909 0.98695 0.76499 0.0
C529 C 0.9553 1.00908 0.93421 0.0
C530 C 0.53503 0.90326 0.93387 0.0
C531 C 0.53015 0.91136 0.01838 0.0
H532 H 0.53779 0.9142 0.80218 0.0
C533 C 0.52459 0.93829 0.03316 0.0
H534 H 0.53983 0.88286 0.91988 0.0
C535 C 0.52331 0.95638 0.96506 0.0
C536 C 0.52788 0.94805 0.88062 0.0
H537 H 0.52066 0.94529 0.09721 0.0
H538 H 0.51849 0.97681 0.97843 0.0
C539 C 0.53404 0.92132 0.86623 0.0
C540 C 0.59353 0.51682 0.03576 0.0
C541 C 0.615 0.53441 0.02766 0.0
H542 H 0.55825 0.50069 0.97853 0.0
C543 C 0.61668 0.54962 0.95274 0.0
H544 H 0.59142 0.50493 0.09268 0.0
C545 C 0.5978 0.54714 0.88769 0.0
C546 C 0.57648 0.5295 0.89542 0.0
H547 H 0.63302 0.56312 0.94332 0.0
H548 H 0.60008 0.55891 0.83055 0.0
C549 C 0.57439 0.51453 0.97066 0.0
C550 C 0.02961 0.58792 0.01902 0.0
C551 C 1.01274 0.61016 0.02055 0.0
H552 H 0.04163 0.55251 0.95313 0.0
C553 C 0.99342 0.61193 0.95578 0.0
H554 H 0.04495 0.58569 0.06663 0.0
C555 C 0.99183 0.59303 0.89013 0.0
C556 C 1.00919 0.57141 0.88724 0.0
H557 H 0.97949 0.62811 0.95503 0.0
H558 H 0.97718 0.59563 0.84039 0.0
C559 C 0.02777 0.56878 0.95359 0.0
C560 C 0.07605 0.13359 0.30444 0.0
C561 C 0.0649 0.14966 0.24109 0.0
H562 H 0.07215 0.0986 0.37878 0.0
C563 C 0.04427 0.13948 0.19043 0.0
H564 H 0.09226 0.14077 0.34339 0.0
C565 C 0.03283 0.11514 0.21011 0.0
C566 C 0.04185 0.10064 0.28066 0.0
H567 H 0.03527 0.15135 0.14085 0.0
H568 H 1.01559 0.10871 0.17459 0.0
C569 C 0.06464 0.10927 0.32407 0.0
C570 C 0.39653 0.05171 0.21795 0.0
C571 C 0.39119 0.074 0.26883 0.0
H572 H 0.42095 1.01767 0.20022 0.0
C573 C 0.41027 0.08252 0.32796 0.0
H574 H 0.38221 0.04463 0.17174 0.0
C575 C 0.43246 0.06701 0.34432 0.0
C576 C 0.43574 0.04264 0.30219 0.0
H577 H 0.40679 0.09982 0.36719 0.0
H578 H 0.44532 0.07269 0.3966 0.0
C579 C 0.41865 0.03612 0.2346 0.0
C580 C 0.60954 0.37512 0.28028 0.0
C581 C 0.61157 0.3515 0.3268 0.0
H582 H 0.60319 0.41677 0.28524 0.0
C583 C 0.61505 0.35299 0.4158 0.0
H584 H 0.60753 0.37475 0.21148 0.0
C585 C 0.61325 0.3772 0.45803 0.0
C586 C 0.60758 0.40034 0.41237 0.0
H587 H 0.61673 0.33531 0.45415 0.0
H588 H 0.61432 0.37747 0.52706 0.0
C589 C 0.60735 0.39931 0.32268 0.0
C590 C 0.14206 0.60714 0.19953 0.0
C591 C 0.15628 0.58369 0.18772 0.0
H592 H 0.10608 0.62477 0.24133 0.0
C593 C 0.14335 0.5594 0.19803 0.0
H594 H 0.15156 0.62612 0.19059 0.0
C595 C 0.1178 0.55849 0.23071 0.0
C596 C 0.10442 0.58195 0.25256 0.0
H597 H 0.15393 0.541 0.18938 0.0
H598 H 0.10993 0.53926 0.24671 0.0
C599 C 0.1161 0.60626 0.22961 0.0
C600 C 0.94997 0.88922 0.18881 0.0
C601 C 0.96583 0.87167 0.23536 0.0
H602 H 0.94854 0.92471 0.11512 0.0
C603 C 0.99209 0.87876 0.25355 0.0
H604 H 0.92958 0.88438 0.17481 0.0
C605 C 1.00309 0.90147 0.21825 0.0
C606 C 0.988 0.91767 0.16434 0.0
H607 H 1.00493 0.8655 0.28829 0.0
H608 H 0.02399 0.90496 0.22741 0.0
C609 C 0.96092 0.91215 0.15414 0.0
C610 C 0.64498 0.10515 0.27327 0.0
C611 C 0.65857 0.08199 0.29528 0.0
H612 H 0.61014 0.12173 0.21808 0.0
C613 C 0.64493 0.0578 0.29344 0.0
H614 H 0.65483 0.12415 0.27602 0.0
C615 C 0.61967 0.05625 0.2582 0.0
C616 C 0.60738 0.07894 0.22474 0.0
H617 H 0.65479 0.03955 0.31027 0.0
H618 H 0.61129 0.03677 0.24886 0.0
C619 C 0.61942 0.10368 0.23957 0.0
C620 C 0.46079 0.6602 0.26174 0.0
C621 C 0.43713 0.67424 0.24987 0.0
H622 H 0.48409 0.62691 0.22534 0.0
C623 C 0.41701 0.66287 0.19974 0.0
H624 H 0.47687 0.66841 0.29908 0.0
C625 C 0.42141 0.63912 0.15638 0.0
C626 C 0.44599 0.6265 0.16242 0.0
H627 H 0.3985 0.67312 0.19006 0.0
H628 H 0.40623 0.63156 0.11398 0.0
C629 C 0.46516 0.63661 0.21835 0.0
C630 C 0.86474 0.41806 0.13803 0.0
C631 C 0.85565 0.43912 0.18863 0.0
H632 H 0.8942 0.40454 0.05043 0.0
C633 C 0.8715 0.46181 0.19761 0.0
H634 H 0.85303 0.40028 0.13043 0.0
C635 C 0.89489 0.46422 0.15202 0.0
C636 C 0.90296 0.44402 0.09661 0.0
H637 H 0.865 0.47856 0.23514 0.0
H638 H 0.90616 0.48237 0.15755 0.0
C639 C 0.88828 0.42047 0.09248 0.0
C640 C 1.00526 0.14222 0.79061 0.0
C641 C 0.02006 0.14981 0.86298 0.0
H642 H 0.99387 0.11086 0.7049 0.0
C643 C 0.03529 0.13038 0.90408 0.0
H644 H 0.99341 0.15667 0.75711 0.0
C645 C 0.0352 0.10404 0.87504 0.0
C646 C 0.02036 0.09638 0.80279 0.0
H647 H 0.04679 0.13543 0.96021 0.0
H648 H 0.04677 0.0896 0.90958 0.0
C649 C 1.00565 0.11596 0.76033 0.0
C650 C 0.3967 1.00446 0.86354 0.0
C651 C 0.39169 0.02031 0.9355 0.0
H652 H 0.42467 0.99187 0.76956 0.0
C653 C 0.41232 0.03616 0.96773 0.0
H654 H 0.38122 0.99215 0.83682 0.0
C655 C 0.4375 0.03565 0.93005 0.0
C656 C 0.44247 0.0198 0.85782 0.0
H657 H 0.40911 0.04855 0.02318 0.0
H658 H 0.45305 0.04774 0.95731 0.0
C659 C 0.42161 1.00443 0.8247 0.0
C660 C 0.52273 0.38712 0.83673 0.0
C661 C 0.51263 0.38269 0.91946 0.0
H662 H 0.53124 0.41539 0.73763 0.0
C663 C 0.50417 0.40489 0.96623 0.0
H664 H 0.52933 0.37065 0.79817 0.0
C665 C 0.50508 0.43036 0.93141 0.0
C666 C 0.51462 0.43486 0.8483 0.0
H667 H 0.49685 0.40268 0.03064 0.0
H668 H 0.49817 0.44662 0.97038 0.0
C669 C 0.52369 0.41284 0.80162 0.0
C670 C 0.14556 0.51815 0.82341 0.0
C671 C 0.1498 0.50371 0.8991 0.0
H672 H 0.11772 0.53126 0.72866 0.0
C673 C 0.128 0.49083 0.93595 0.0
H674 H 0.16174 0.52852 0.79335 0.0
C675 C 0.10286 0.49242 0.89899 0.0
C676 C 0.09852 0.50697 0.82378 0.0
H677 H 0.13038 0.47912 0.99316 0.0
H678 H 0.08675 0.48217 0.92989 0.0
C679 C 0.12025 0.51982 0.78638 0.0
C680 C 0.02248 0.88783 0.65271 0.0
C681 C 0.01982 0.88276 0.56433 0.0
H682 H 0.02327 0.91678 0.75384 0.0
C683 C 1.01506 0.90459 0.51074 0.0
H684 H 0.02645 0.87181 0.69649 0.0
C685 C 1.01346 0.9304 0.54373 0.0
C686 C 1.01644 0.93552 0.63173 0.0
H687 H 1.01233 0.90179 0.44277 0.0
H688 H 1.0099 0.94645 0.49962 0.0
C689 C 0.02081 0.91377 0.68584 0.0
C690 C 0.62024 1.00071 0.4888 0.0
C691 C 0.64349 0.99863 0.538 0.0
H692 H 0.57808 1.00457 0.4876 0.0
C693 C 0.64106 0.99958 0.62758 0.0
H694 H 0.62113 1.00066 0.4198 0.0
C695 C 0.61627 1.00227 0.66652 0.0
C696 C 0.59309 1.00384 0.61721 0.0
H697 H 0.65828 0.99767 0.66812 0.0
H698 H 0.61527 1.00267 0.73552 0.0
C699 C 0.59544 1.00312 0.52779 0.0
C700 C 0.51502 0.64321 0.67536 0.0
C701 C 0.51961 0.64706 0.58731 0.0
H702 H 0.51027 0.61536 0.77833 0.0
C703 C 0.52167 0.62438 0.53552 0.0
H704 H 0.51343 0.66004 0.71778 0.0
C705 C 0.52009 0.59893 0.57025 0.0
C706 C 0.5162 0.59496 0.6583 0.0
H707 H 0.52452 0.62621 0.46736 0.0
H708 H 0.52206 0.58224 0.52733 0.0
C709 C 0.51333 0.61752 0.71036 0.0
C710 C 0.89384 0.51558 0.63056 0.0
C711 C 0.88979 0.5233 0.545 0.0
H712 H 0.92169 0.50788 0.73144 0.0
C713 C 0.91234 0.52858 0.49531 0.0
H714 H 0.87716 0.51158 0.67154 0.0
C715 C 0.93786 0.52668 0.52998 0.0
C716 C 0.94189 0.51933 0.61563 0.0
H717 H 0.91035 0.53407 0.4289 0.0
H718 H 0.95451 0.53102 0.48916 0.0
C719 C 0.91947 0.51363 0.66531 0.0
loop_
_geom_bond_atom_site_label_1
_geom_bond_atom_site_label_2
_geom_bond_distance
_geom_bond_site_symmetry_2
_ccdc_geom_bond_type
C0 C1 1.264 . S
C0 C5 1.479 . S
C0 C10 1.465 . S
C1 C0 1.264 . S
C1 C3 1.339 . S
C1 H28 0.931 . S
C2 C3 1.395 . S
C2 C4 1.320 . S
C3 C1 1.339 . S
C3 C2 1.395 . S
C3 H29 0.929 . S
C4 C2 1.320 . S
C4 C5 1.405 . S
C4 H30 0.930 . S
C5 C0 1.479 . S
C5 C4 1.405 . S
C5 H31 0.931 . S
U6 O7 2.454 . S
U6 O8 2.458 . S
U6 C9 2.984 . S
U6 C10 2.847 . S
U6 C23 2.882 . S
U6 O24 2.441 . S
U6 O25 2.420 . S
U6 O26 2.455 . S
U6 O27 2.449 . S
O7 U6 2.454 . S
O7 C9 1.353 . S
O8 U6 2.458 . S
O8 C9 1.286 . S
C9 U6 2.984 . S
C9 O7 1.353 . S
C9 O8 1.286 . S
C9 C11 1.363 . S
C10 C0 1.465 . S
C10 U6 2.847 . S
C10 O24 1.249 . S
C10 O25 1.202 . S
C11 C9 1.363 . S
C11 C13 1.408 . S
C11 C16 1.342 . S
C12 C13 1.310 . S
C12 C15 1.461 . S
C12 H32 0.932 . S
C13 C11 1.408 . S
C13 C12 1.310 . S
C13 H33 0.930 . S
C14 C15 1.474 . S
C14 C16 1.285 . S
C14 H34 0.929 . S
C15 C12 1.461 . S
C15 C14 1.474 . S
C16 C11 1.342 . S
C16 C14 1.285 . S
C16 H35 0.930 . S
C17 C20 1.424 . S
C17 C22 1.245 . S
C17 C23 1.428 . S
C18 C21 1.260 . S
C18 C22 1.477 . S
C18 H36 0.932 . S
C19 C20 1.384 . S
C19 C21 1.479 . S
C19 H37 0.929 . S
C20 C17 1.424 . S
C20 C19 1.384 . S
C20 H38 0.928 . S
C21 C18 1.260 . S
C21 C19 1.479 . S
C22 C17 1.245 . S
C22 C18 1.477 . S
C22 H39 0.932 . S
C23 U6 2.882 . S
C23 C17 1.428 . S
C23 O26 1.301 . S
C23 O27 1.282 . S
O24 U6 2.441 . S
O24 C10 1.249 . S
O25 U6 2.420 . S
O25 C10 1.202 . S
O26 U6 2.455 . S
O26 C23 1.301 . S
O27 U6 2.449 . S
O27 C23 1.282 . S
H28 C1 0.931 . S
H29 C3 0.929 . S
H30 C4 0.930 . S
H31 C5 0.931 . S
H32 C12 0.932 . S
H33 C13 0.930 . S
H34 C14 0.929 . S
H35 C16 0.930 . S
H36 C18 0.932 . S
H37 C19 0.929 . S
H38 C20 0.928 . S
H39 C22 0.932 . S
C40 C41 1.264 . S
C40 C45 1.479 . S
C40 C50 1.465 . S
C41 C40 1.264 . S
C41 C43 1.339 . S
C41 H68 0.931 . S
C42 C43 1.395 . S
C42 C44 1.320 . S
C43 C41 1.339 . S
C43 C42 1.395 . S
C43 H69 0.929 . S
C44 C42 1.320 . S
C44 C45 1.405 . S
C44 H70 0.921 1_455 S
C45 C40 1.479 . S
C45 C44 1.405 . S
C45 H71 0.931 . S
U46 O47 2.454 . S
U46 O48 2.458 . S
U46 C49 2.984 . S
U46 C50 2.847 . S
U46 C63 2.882 . S
U46 O64 2.441 . S
U46 O65 2.420 . S
U46 O66 2.455 . S
U46 O67 2.449 . S
O47 U46 2.454 . S
O47 C49 1.353 . S
O48 U46 2.458 . S
O48 C49 1.286 . S
C49 U46 2.984 . S
C49 O47 1.353 . S
C49 O48 1.286 . S
C49 C51 1.363 . S
C50 C40 1.465 . S
C50 U46 2.847 . S
C50 O64 1.249 . S
C50 O65 1.202 . S
C51 C49 1.363 . S
C51 C53 1.408 . S
C51 C56 1.342 . S
C52 C53 1.310 . S
C52 C55 1.461 . S
C52 H72 0.932 . S
C53 C51 1.408 . S
C53 C52 1.310 . S
C53 H73 0.930 . S
C54 C55 1.474 1_655 S
C54 C56 1.285 1_655 S
C54 H74 0.930 . S
C55 C52 1.461 . S
C55 C54 1.474 1_455 S
C56 C51 1.342 . S
C56 C54 1.285 1_455 S
C56 H75 0.933 . S
C57 C60 1.424 . S
C57 C62 1.245 . S
C57 C63 1.428 . S
C58 C61 1.260 . S
C58 C62 1.477 . S
C58 H76 0.932 . S
C59 C60 1.384 . S
C59 C61 1.479 . S
C59 H77 0.929 . S
C60 C57 1.424 . S
C60 C59 1.384 . S
C60 H78 0.928 . S
C61 C58 1.260 . S
C61 C59 1.479 . S
C62 C57 1.245 . S
C62 C58 1.477 . S
C62 H79 0.932 . S
C63 U46 2.882 . S
C63 C57 1.428 . S
C63 O66 1.301 . S
C63 O67 1.282 . S
O64 U46 2.441 . S
O64 C50 1.249 . S
O65 U46 2.420 . S
O65 C50 1.202 . S
O66 U46 2.455 . S
O66 C63 1.301 . S
O67 U46 2.449 . S
O67 C63 1.282 . S
H68 C41 0.931 . S
H69 C43 0.929 . S
H70 C44 0.921 1_655 S
H71 C45 0.931 . S
H72 C52 0.932 . S
H73 C53 0.930 . S
H74 C54 0.930 . S
H75 C56 0.933 . S
H76 C58 0.932 . S
H77 C59 0.929 . S
H78 C60 0.928 . S
H79 C62 0.932 . S
C80 C81 1.264 . S
C80 C85 1.479 . S
C80 C90 1.465 . S
C81 C80 1.264 . S
C81 C83 1.339 . S
C81 H108 0.931 . S
C82 C83 1.395 . S
C82 C84 1.320 . S
C83 C81 1.339 . S
C83 C82 1.395 . S
C83 H109 0.929 . S
C84 C82 1.320 . S
C84 C85 1.405 . S
C84 H110 0.921 1_545 S
C85 C80 1.479 . S
C85 C84 1.405 . S
C85 H111 0.931 . S
U86 O87 2.454 . S
U86 O88 2.458 . S
U86 C89 2.984 . S
U86 C90 2.847 . S
U86 C103 2.882 . S
U86 O104 2.441 . S
U86 O105 2.420 . S
U86 O106 2.455 . S
U86 O107 2.449 . S
O87 U86 2.454 . S
O87 C89 1.353 . S
O88 U86 2.458 . S
O88 C89 1.286 . S
C89 U86 2.984 . S
C89 O87 1.353 . S
C89 O88 1.286 . S
C89 C91 1.363 . S
C90 C80 1.465 . S
C90 U86 2.847 . S
C90 O104 1.249 . S
C90 O105 1.202 . S
C91 C89 1.363 . S
C91 C93 1.408 . S
C91 C96 1.342 . S
C92 C93 1.310 . S
C92 C95 1.461 . S
C92 H112 0.932 . S
C93 C91 1.408 . S
C93 C92 1.310 . S
C93 H113 0.930 . S
C94 C95 1.474 1_565 S
C94 C96 1.285 1_565 S
C94 H114 0.931 . S
C95 C92 1.461 . S
C95 C94 1.474 1_545 S
C96 C91 1.342 . S
C96 C94 1.285 1_545 S
C96 H115 0.933 . S
C97 C100 1.424 . S
C97 C102 1.245 . S
C97 C103 1.428 . S
C98 C101 1.260 . S
C98 C102 1.477 . S
C98 H116 0.932 . S
C99 C100 1.384 . S
C99 C101 1.479 . S
C99 H117 0.929 . S
C100 C97 1.424 . S
C100 C99 1.384 . S
C100 H118 0.928 . S
C101 C98 1.260 . S
C101 C99 1.479 . S
C102 C97 1.245 . S
C102 C98 1.477 . S
C102 H119 0.932 . S
C103 U86 2.882 . S
C103 C97 1.428 . S
C103 O106 1.301 . S
C103 O107 1.282 . S
O104 U86 2.441 . S
O104 C90 1.249 . S
O105 U86 2.420 . S
O105 C90 1.202 . S
O106 U86 2.455 . S
O106 C103 1.301 . S
O107 U86 2.449 . S
O107 C103 1.282 . S
H108 C81 0.931 . S
H109 C83 0.929 . S
H110 C84 0.921 1_565 S
H111 C85 0.931 . S
H112 C92 0.932 . S
H113 C93 0.930 . S
H114 C94 0.931 . S
H115 C96 0.933 . S
H116 C98 0.932 . S
H117 C99 0.929 . S
H118 C100 0.928 . S
H119 C102 0.932 . S
C120 C121 1.264 . S
C120 C125 1.479 . S
C120 C130 1.465 . S
C121 C120 1.264 . S
C121 C123 1.339 . S
C121 H148 0.931 . S
C122 C123 1.395 . S
C122 C124 1.320 . S
C123 C121 1.339 . S
C123 C122 1.395 . S
C123 H149 0.929 . S
C124 C122 1.320 . S
C124 C125 1.405 . S
C124 H150 0.930 . S
C125 C120 1.479 . S
C125 C124 1.405 . S
C125 H151 0.931 . S
U126 O127 2.454 . S
U126 O128 2.458 . S
U126 C129 2.984 . S
U126 C130 2.847 . S
U126 C143 2.882 . S
U126 O144 2.441 . S
U126 O145 2.420 . S
U126 O146 2.455 . S
U126 O147 2.449 . S
O127 U126 2.454 . S
O127 C129 1.353 . S
O128 U126 2.458 . S
O128 C129 1.286 . S
C129 U126 2.984 . S
C129 O127 1.353 . S
C129 O128 1.286 . S
C129 C131 1.363 . S
C130 C120 1.465 . S
C130 U126 2.847 . S
C130 O144 1.249 . S
C130 O145 1.202 . S
C131 C129 1.363 . S
C131 C133 1.408 . S
C131 C136 1.342 . S
C132 C133 1.310 . S
C132 C135 1.461 . S
C132 H152 0.932 . S
C133 C131 1.408 . S
C133 C132 1.310 . S
C133 H153 0.930 . S
C134 C135 1.474 . S
C134 C136 1.285 . S
C134 H154 0.929 . S
C135 C132 1.461 . S
C135 C134 1.474 . S
C136 C131 1.342 . S
C136 C134 1.285 . S
C136 H155 0.930 . S
C137 C140 1.424 . S
C137 C142 1.245 . S
C137 C143 1.428 . S
C138 C141 1.260 . S
C138 C142 1.477 . S
C138 H156 0.932 . S
C139 C140 1.384 . S
C139 C141 1.479 . S
C139 H157 0.929 . S
C140 C137 1.424 . S
C140 C139 1.384 . S
C140 H158 0.928 . S
C141 C138 1.260 . S
C141 C139 1.479 . S
C142 C137 1.245 . S
C142 C138 1.477 . S
C142 H159 0.932 . S
C143 U126 2.882 . S
C143 C137 1.428 . S
C143 O146 1.301 . S
C143 O147 1.282 . S
O144 U126 2.441 . S
O144 C130 1.249 . S
O145 U126 2.420 . S
O145 C130 1.202 . S
O146 U126 2.455 . S
O146 C143 1.301 . S
O147 U126 2.449 . S
O147 C143 1.282 . S
H148 C121 0.931 . S
H149 C123 0.929 . S
H150 C124 0.930 . S
H151 C125 0.931 . S
H152 C132 0.932 . S
H153 C133 0.930 . S
H154 C134 0.929 . S
H155 C136 0.930 . S
H156 C138 0.932 . S
H157 C139 0.929 . S
H158 C140 0.928 . S
H159 C142 0.932 . S
C160 C161 1.264 . S
C160 C165 1.479 . S
C160 C170 1.465 . S
C161 C160 1.264 . S
C161 C163 1.339 . S
C161 H188 0.931 . S
C162 C163 1.395 . S
C162 C164 1.320 . S
C163 C161 1.339 . S
C163 C162 1.395 . S
C163 H189 0.929 . S
C164 C162 1.320 . S
C164 C165 1.405 . S
C164 H190 0.930 . S
C165 C160 1.479 . S
C165 C164 1.405 . S
C165 H191 0.931 . S
U166 O167 2.454 . S
U166 O168 2.458 . S
U166 C169 2.984 . S
U166 C170 2.847 1_554 S
U166 C183 2.882 . S
U166 O184 2.441 1_554 S
U166 O185 2.420 1_554 S
U166 O186 2.455 . S
U166 O187 2.449 . S
O167 U166 2.454 . S
O167 C169 1.353 . S
O168 U166 2.458 . S
O168 C169 1.286 . S
C169 U166 2.984 . S
C169 O167 1.353 . S
C169 O168 1.286 . S
C169 C171 1.363 . S
C170 C160 1.465 . S
C170 U166 2.847 1_556 S
C170 O184 1.249 . S
C170 O185 1.202 . S
C171 C169 1.363 . S
C171 C173 1.408 . S
C171 C176 1.342 . S
C172 C173 1.310 . S
C172 C175 1.461 . S
C172 H192 0.932 . S
C173 C171 1.408 . S
C173 C172 1.310 . S
C173 H193 0.930 1_554 S
C174 C175 1.474 . S
C174 C176 1.285 . S
C174 H194 0.929 . S
C175 C172 1.461 . S
C175 C174 1.474 . S
C176 C171 1.342 . S
C176 C174 1.285 . S
C176 H195 0.930 . S
C177 C180 1.424 . S
C177 C182 1.245 . S
C177 C183 1.428 . S
C178 C181 1.260 . S
C178 C182 1.477 . S
C178 H196 0.932 . S
C179 C180 1.384 . S
C179 C181 1.479 . S
C179 H197 0.929 . S
C180 C177 1.424 . S
C180 C179 1.384 . S
C180 H198 0.928 . S
C181 C178 1.260 . S
C181 C179 1.479 . S
C182 C177 1.245 . S
C182 C178 1.477 . S
C182 H199 0.932 . S
C183 U166 2.882 . S
C183 C177 1.428 . S
C183 O186 1.301 . S
C183 O187 1.282 . S
O184 U166 2.441 1_556 S
O184 C170 1.249 . S
O185 U166 2.420 1_556 S
O185 C170 1.202 . S
O186 U166 2.455 . S
O186 C183 1.301 . S
O187 U166 2.449 . S
O187 C183 1.282 . S
H188 C161 0.931 . S
H189 C163 0.929 . S
H190 C164 0.930 . S
H191 C165 0.931 . S
H192 C172 0.932 . S
H193 C173 0.930 1_556 S
H194 C174 0.929 . S
H195 C176 0.930 . S
H196 C178 0.932 . S
H197 C179 0.929 . S
H198 C180 0.928 . S
H199 C182 0.932 . S
C200 C201 1.264 . S
C200 C205 1.479 . S
C200 C210 1.465 . S
C201 C200 1.264 . S
C201 C203 1.339 . S
C201 H228 0.931 . S
C202 C203 1.395 . S
C202 C204 1.320 . S
C203 C201 1.339 . S
C203 C202 1.395 . S
C203 H229 0.929 . S
C204 C202 1.320 . S
C204 C205 1.405 . S
C204 H230 0.923 1_455 S
C205 C200 1.479 . S
C205 C204 1.405 . S
C205 H231 0.931 . S
U206 O207 2.454 . S
U206 O208 2.458 . S
U206 C209 2.984 . S
U206 C210 2.847 1_554 S
U206 C223 2.882 . S
U206 O224 2.441 1_554 S
U206 O225 2.420 1_554 S
U206 O226 2.455 . S
U206 O227 2.449 . S
O207 U206 2.454 . S
O207 C209 1.353 . S
O208 U206 2.458 . S
O208 C209 1.286 . S
C209 U206 2.984 . S
C209 O207 1.353 . S
C209 O208 1.286 . S
C209 C211 1.363 . S
C210 C200 1.465 . S
C210 U206 2.847 1_556 S
C210 O224 1.249 . S
C210 O225 1.202 . S
C211 C209 1.363 . S
C211 C213 1.408 . S
C211 C216 1.342 . S
C212 C213 1.310 . S
C212 C215 1.462 . S
C212 H232 0.932 . S
C213 C211 1.408 . S
C213 C212 1.310 . S
C213 H233 0.930 1_554 S
C214 C215 1.474 1_655 S
C214 C216 1.286 1_655 S
C214 H234 0.929 . S
C215 C212 1.462 . S
C215 C214 1.474 1_455 S
C216 C211 1.342 . S
C216 C214 1.286 1_455 S
C216 H235 0.930 . S
C217 C220 1.424 . S
C217 C222 1.245 . S
C217 C223 1.428 . S
C218 C221 1.260 . S
C218 C222 1.477 . S
C218 H236 0.932 . S
C219 C220 1.384 . S
C219 C221 1.479 . S
C219 H237 0.929 . S
C220 C217 1.424 . S
C220 C219 1.384 . S
C220 H238 0.928 . S
C221 C218 1.260 . S
C221 C219 1.479 . S
C222 C217 1.245 . S
C222 C218 1.477 . S
C222 H239 0.932 . S
C223 U206 2.882 . S
C223 C217 1.428 . S
C223 O226 1.301 . S
C223 O227 1.282 . S
O224 U206 2.441 1_556 S
O224 C210 1.249 . S
O225 U206 2.420 1_556 S
O225 C210 1.202 . S
O226 U206 2.455 . S
O226 C223 1.301 . S
O227 U206 2.449 . S
O227 C223 1.282 . S
H228 C201 0.931 . S
H229 C203 0.929 . S
H230 C204 0.923 1_655 S
H231 C205 0.931 . S
H232 C212 0.932 . S
H233 C213 0.930 1_556 S
H234 C214 0.929 . S
H235 C216 0.930 . S
H236 C218 0.932 . S
H237 C219 0.929 . S
H238 C220 0.928 . S
H239 C222 0.932 . S
C240 C241 1.264 . S
C240 C245 1.479 . S
C240 C250 1.465 . S
C241 C240 1.264 . S
C241 C243 1.339 . S
C241 H268 0.931 . S
C242 C243 1.395 . S
C242 C244 1.320 . S
C243 C241 1.339 . S
C243 C242 1.395 . S
C243 H269 0.929 . S
C244 C242 1.320 . S
C244 C245 1.405 . S
C244 H270 0.923 1_545 S
C245 C240 1.479 . S
C245 C244 1.405 . S
C245 H271 0.931 . S
U246 O247 2.454 . S
U246 O248 2.458 . S
U246 C249 2.984 . S
U246 C250 2.847 1_554 S
U246 C263 2.882 . S
U246 O264 2.441 1_554 S
U246 O265 2.420 1_554 S
U246 O266 2.455 . S
U246 O267 2.449 . S
O247 U246 2.454 . S
O247 C249 1.353 . S
O248 U246 2.458 . S
O248 C249 1.286 . S
C249 U246 2.984 . S
C249 O247 1.353 . S
C249 O248 1.286 . S
C249 C251 1.363 . S
C250 C240 1.465 . S
C250 U246 2.847 1_556 S
C250 O264 1.249 . S
C250 O265 1.202 . S
C251 C249 1.363 . S
C251 C253 1.408 . S
C251 C256 1.342 . S
C252 C253 1.310 . S
C252 C255 1.462 . S
C252 H272 0.932 . S
C253 C251 1.408 . S
C253 C252 1.310 . S
C253 H273 0.930 1_554 S
C254 C255 1.474 1_565 S
C254 C256 1.286 1_565 S
C254 H274 0.929 . S
C255 C252 1.462 . S
C255 C254 1.474 1_545 S
C256 C251 1.342 . S
C256 C254 1.286 1_545 S
C256 H275 0.930 . S
C257 C260 1.424 . S
C257 C262 1.245 . S
C257 C263 1.428 . S
C258 C261 1.260 . S
C258 C262 1.477 . S
C258 H276 0.932 . S
C259 C260 1.384 . S
C259 C261 1.479 . S
C259 H277 0.929 . S
C260 C257 1.424 . S
C260 C259 1.384 . S
C260 H278 0.928 . S
C261 C258 1.260 . S
C261 C259 1.479 . S
C262 C257 1.245 . S
C262 C258 1.477 . S
C262 H279 0.932 . S
C263 U246 2.882 . S
C263 C257 1.428 . S
C263 O266 1.301 . S
C263 O267 1.282 . S
O264 U246 2.441 1_556 S
O264 C250 1.249 . S
O265 U246 2.420 1_556 S
O265 C250 1.202 . S
O266 U246 2.455 . S
O266 C263 1.301 . S
O267 U246 2.449 . S
O267 C263 1.282 . S
H268 C241 0.931 . S
H269 C243 0.929 . S
H270 C244 0.923 1_565 S
H271 C245 0.931 . S
H272 C252 0.932 . S
H273 C253 0.930 1_556 S
H274 C254 0.929 . S
H275 C256 0.930 . S
H276 C258 0.932 . S
H277 C259 0.929 . S
H278 C260 0.928 . S
H279 C262 0.932 . S
C280 C281 1.264 . S
C280 C285 1.479 . S
C280 C290 1.465 . S
C281 C280 1.264 . S
C281 C283 1.339 . S
C281 H308 0.931 . S
C282 C283 1.395 . S
C282 C284 1.320 . S
C283 C281 1.339 . S
C283 C282 1.395 . S
C283 H309 0.929 . S
C284 C282 1.320 . S
C284 C285 1.405 . S
C284 H310 0.930 . S
C285 C280 1.479 . S
C285 C284 1.405 . S
C285 H311 0.931 . S
U286 O287 2.454 . S
U286 O288 2.458 . S
U286 C289 2.984 . S
U286 C290 2.847 1_554 S
U286 C303 2.882 . S
U286 O304 2.441 1_554 S
U286 O305 2.420 1_554 S
U286 O306 2.455 . S
U286 O307 2.449 . S
O287 U286 2.454 . S
O287 C289 1.353 . S
O288 U286 2.458 . S
O288 C289 1.286 . S
C289 U286 2.984 . S
C289 O287 1.353 . S
C289 O288 1.286 . S
C289 C291 1.363 . S
C290 C280 1.465 . S
C290 U286 2.847 1_556 S
C290 O304 1.249 . S
C290 O305 1.202 . S
C291 C289 1.363 . S
C291 C293 1.408 . S
C291 C296 1.342 . S
C292 C293 1.310 . S
C292 C295 1.461 . S
C292 H312 0.932 . S
C293 C291 1.408 . S
C293 C292 1.310 . S
C293 H313 0.930 1_554 S
C294 C295 1.474 . S
C294 C296 1.285 . S
C294 H314 0.929 . S
C295 C292 1.461 . S
C295 C294 1.474 . S
C296 C291 1.342 . S
C296 C294 1.285 . S
C296 H315 0.930 . S
C297 C300 1.424 . S
C297 C302 1.245 . S
C297 C303 1.428 . S
C298 C301 1.260 . S
C298 C302 1.477 . S
C298 H316 0.932 . S
C299 C300 1.384 . S
C299 C301 1.479 . S
C299 H317 0.929 . S
C300 C297 1.424 . S
C300 C299 1.384 . S
C300 H318 0.928 . S
C301 C298 1.260 . S
C301 C299 1.479 . S
C302 C297 1.245 . S
C302 C298 1.477 . S
C302 H319 0.932 . S
C303 U286 2.882 . S
C303 C297 1.428 . S
C303 O306 1.301 . S
C303 O307 1.282 . S
O304 U286 2.441 1_556 S
O304 C290 1.249 . S
O305 U286 2.420 1_556 S
O305 C290 1.202 . S
O306 U286 2.455 . S
O306 C303 1.301 . S
O307 U286 2.449 . S
O307 C303 1.282 . S
H308 C281 0.931 . S
H309 C283 0.929 . S
H310 C284 0.930 . S
H311 C285 0.931 . S
H312 C292 0.932 . S
H313 C293 0.930 1_556 S
H314 C294 0.929 . S
H315 C296 0.930 . S
H316 C298 0.932 . S
H317 C299 0.929 . S
H318 C300 0.928 . S
H319 C302 0.932 . S
La320 C322 2.928 . S
La320 O340 2.521 . S
La320 O341 2.628 . S
La320 O342 2.554 . S
La320 O343 2.757 1_565 S
La320 O344 2.470 . S
La320 O349 2.482 1_455 S
La320 O351 2.503 1_565 S
La321 C331 2.928 . S
La321 O343 2.482 1_655 S
La321 O345 2.503 1_545 S
La321 O346 2.521 . S
La321 O347 2.628 . S
La321 O348 2.554 . S
La321 O349 2.757 1_545 S
La321 O350 2.470 . S
C322 La320 2.928 . S
C322 C323 1.503 . S
C322 O340 1.261 . S
C322 O341 1.243 . S
C323 C322 1.503 . S
C323 C324 1.394 . S
C323 C328 1.373 . S
C324 C323 1.394 . S
C324 C325 1.380 . S
C324 H352 0.930 . S
C325 C324 1.380 . S
C325 C326 1.376 1_556 S
C325 H353 0.930 . S
C326 C325 1.376 1_554 S
C326 C327 1.370 . S
C327 C326 1.370 . S
C327 C328 1.396 1_554 S
C327 H354 0.929 . S
C328 C323 1.373 . S
C328 C327 1.396 1_556 S
C328 H355 0.929 1_455 S
C329 O342 1.240 . S
C329 O343 1.289 1_565 S
C330 O344 1.258 1_655 S
C330 O345 1.256 . S
C331 La321 2.928 . S
C331 C332 1.503 . S
C331 O346 1.261 . S
C331 O347 1.243 . S
C332 C331 1.503 . S
C332 C333 1.394 . S
C332 C337 1.373 . S
C333 C332 1.394 . S
C333 C334 1.380 . S
C333 H356 0.930 . S
C334 C333 1.380 . S
C334 C335 1.376 . S
C334 H357 0.930 . S
C335 C334 1.376 . S
C335 C336 1.370 . S
C336 C335 1.370 . S
C336 C337 1.396 . S
C336 H358 0.929 . S
C337 C332 1.373 . S
C337 C336 1.396 . S
C337 H359 0.929 1_655 S
C338 O348 1.240 . S
C338 O349 1.289 1_545 S
C339 O350 1.258 1_455 S
C339 O351 1.256 . S
O340 La320 2.521 . S
O340 C322 1.261 . S
O341 La320 2.628 . S
O341 C322 1.243 . S
O342 La320 2.554 . S
O342 C329 1.240 . S
O343 La320 2.757 1_545 S
O343 La321 2.482 1_455 S
O343 C329 1.289 1_545 S
O344 La320 2.470 . S
O344 C330 1.258 1_455 S
O345 La321 2.503 1_565 S
O345 C330 1.256 . S
O346 La321 2.521 . S
O346 C331 1.261 . S
O347 La321 2.628 . S
O347 C331 1.243 . S
O348 La321 2.554 . S
O348 C338 1.240 . S
O349 La320 2.482 1_655 S
O349 La321 2.757 1_565 S
O349 C338 1.289 1_565 S
O350 La321 2.470 . S
O350 C339 1.258 1_655 S
O351 La320 2.503 1_545 S
O351 C339 1.256 . S
H352 C324 0.930 . S
H353 C325 0.930 . S
H354 C327 0.929 . S
H355 C328 0.929 1_655 S
H356 C333 0.930 . S
H357 C334 0.930 . S
H358 C336 0.929 . S
H359 C337 0.929 1_455 S
La360 C362 2.928 . S
La360 O380 2.521 . S
La360 O381 2.628 . S
La360 O382 2.554 . S
La360 O383 2.757 . S
La360 O384 2.470 . S
La360 O389 2.482 1_545 S
La360 O391 2.503 . S
La361 C371 2.928 . S
La361 O383 2.482 1_565 S
La361 O385 2.503 . S
La361 O386 2.521 . S
La361 O387 2.628 . S
La361 O388 2.554 . S
La361 O389 2.757 . S
La361 O390 2.470 . S
C362 La360 2.928 . S
C362 C363 1.503 . S
C362 O380 1.261 . S
C362 O381 1.243 . S
C363 C362 1.503 . S
C363 C364 1.394 . S
C363 C368 1.373 . S
C364 C363 1.394 . S
C364 C365 1.380 . S
C364 H392 0.930 . S
C365 C364 1.380 . S
C365 C366 1.376 1_556 S
C365 H393 0.930 . S
C366 C365 1.376 1_554 S
C366 C367 1.370 . S
C367 C366 1.370 . S
C367 C368 1.396 1_554 S
C367 H394 0.929 . S
C368 C363 1.373 . S
C368 C367 1.396 1_556 S
C368 H395 0.929 1_545 S
C369 O382 1.240 . S
C369 O383 1.289 . S
C370 O384 1.258 1_565 S
C370 O385 1.256 . S
C371 La361 2.928 . S
C371 C372 1.503 . S
C371 O386 1.261 . S
C371 O387 1.243 . S
C372 C371 1.503 . S
C372 C373 1.394 . S
C372 C377 1.373 . S
C373 C372 1.394 . S
C373 C374 1.380 . S
C373 H396 0.930 . S
C374 C373 1.380 . S
C374 C375 1.376 . S
C374 H397 0.930 . S
C375 C374 1.376 . S
C375 C376 1.370 . S
C376 C375 1.370 . S
C376 C377 1.396 . S
C376 H398 0.960 . S
C377 C372 1.373 . S
C377 C376 1.396 . S
C377 H399 0.929 1_565 S
C378 O388 1.240 . S
C378 O389 1.289 . S
C379 O390 1.258 1_545 S
C379 O391 1.256 . S
O380 La360 2.521 . S
O380 C362 1.261 . S
O381 La360 2.628 . S
O381 C362 1.243 . S
O382 La360 2.554 . S
O382 C369 1.240 . S
O383 La360 2.757 . S
O383 La361 2.482 1_545 S
O383 C369 1.289 . S
O384 La360 2.470 . S
O384 C370 1.258 1_545 S
O385 La361 2.503 . S
O385 C370 1.256 . S
O386 La361 2.521 . S
O386 C371 1.261 . S
O387 La361 2.628 . S
O387 C371 1.243 . S
O388 La361 2.554 . S
O388 C378 1.240 . S
O389 La360 2.482 1_565 S
O389 La361 2.757 . S
O389 C378 1.289 . S
O390 La361 2.470 . S
O390 C379 1.258 1_565 S
O391 La360 2.503 . S
O391 C379 1.256 . S
H392 C364 0.930 . S
H393 C365 0.930 . S
H394 C367 0.929 . S
H395 C368 0.929 1_565 S
H396 C373 0.930 . S
H397 C374 0.930 . S
H398 C376 0.960 . S
H399 C377 0.929 1_545 S
La400 C402 2.928 . S
La400 O420 2.521 . S
La400 O421 2.628 . S
La400 O422 2.554 . S
La400 O423 2.757 . S
La400 O424 2.470 . S
La400 O429 2.482 . S
La400 O431 2.503 . S
La401 C411 2.928 . S
La401 O423 2.482 . S
La401 O425 2.503 . S
La401 O426 2.521 . S
La401 O427 2.628 . S
La401 O428 2.554 . S
La401 O429 2.757 . S
La401 O430 2.470 . S
C402 La400 2.928 . S
C402 C403 1.503 . S
C402 O420 1.261 . S
C402 O421 1.243 . S
C403 C402 1.503 . S
C403 C404 1.394 . S
C403 C408 1.373 . S
C404 C403 1.394 . S
C404 C405 1.380 . S
C404 H432 0.930 . S
C405 C404 1.380 . S
C405 C406 1.376 1_556 S
C405 H433 0.930 . S
C406 C405 1.376 1_554 S
C406 C407 1.370 . S
C407 C406 1.370 . S
C407 C408 1.396 1_554 S
C407 H434 0.929 . S
C408 C403 1.373 . S
C408 C407 1.396 1_556 S
C408 H435 0.929 . S
C409 O422 1.240 . S
C409 O423 1.289 . S
C410 O424 1.258 . S
C410 O425 1.256 . S
C411 La401 2.928 . S
C411 C412 1.503 . S
C411 O426 1.261 . S
C411 O427 1.243 . S
C412 C411 1.503 . S
C412 C413 1.394 . S
C412 C417 1.373 . S
C413 C412 1.394 . S
C413 C414 1.380 . S
C413 H436 0.930 . S
C414 C413 1.380 . S
C414 C415 1.376 . S
C414 H437 0.930 . S
C415 C414 1.376 . S
C415 C416 1.370 . S
C416 C415 1.370 . S
C416 C417 1.396 . S
C416 H438 0.929 . S
C417 C412 1.373 . S
C417 C416 1.396 . S
C417 H439 0.929 . S
C418 O428 1.240 . S
C418 O429 1.289 . S
C419 O430 1.258 . S
C419 O431 1.256 . S
O420 La400 2.521 . S
O420 C402 1.261 . S
O421 La400 2.628 . S
O421 C402 1.243 . S
O422 La400 2.554 . S
O422 C409 1.240 . S
O423 La400 2.757 . S
O423 La401 2.482 . S
O423 C409 1.289 . S
O424 La400 2.470 . S
O424 C410 1.258 . S
O425 La401 2.503 . S
O425 C410 1.256 . S
O426 La401 2.521 . S
O426 C411 1.261 . S
O427 La401 2.628 . S
O427 C411 1.243 . S
O428 La401 2.554 . S
O428 C418 1.240 . S
O429 La400 2.482 . S
O429 La401 2.757 . S
O429 C418 1.289 . S
O430 La401 2.470 . S
O430 C419 1.258 . S
O431 La400 2.503 . S
O431 C419 1.256 . S
H432 C404 0.930 . S
H433 C405 0.930 . S
H434 C407 0.929 . S
H435 C408 0.929 . S
H436 C413 0.930 . S
H437 C414 0.930 . S
H438 C416 0.929 . S
H439 C417 0.929 . S
La440 C442 2.928 . S
La440 O460 2.521 . S
La440 O461 2.628 . S
La440 O462 2.554 . S
La440 O463 2.757 1_655 S
La440 O464 2.470 . S
La440 O469 2.482 . S
La440 O471 2.503 1_655 S
La441 C451 2.928 . S
La441 O463 2.482 . S
La441 O465 2.503 1_455 S
La441 O466 2.521 . S
La441 O467 2.628 . S
La441 O468 2.554 . S
La441 O469 2.757 1_455 S
La441 O470 2.470 . S
C442 La440 2.928 . S
C442 C443 1.503 . S
C442 O460 1.261 . S
C442 O461 1.243 . S
C443 C442 1.503 . S
C443 C444 1.394 . S
C443 C448 1.373 . S
C444 C443 1.394 . S
C444 C445 1.380 . S
C444 H472 0.930 . S
C445 C444 1.380 . S
C445 C446 1.376 1_556 S
C445 H473 0.930 . S
C446 C445 1.376 1_554 S
C446 C447 1.370 . S
C447 C446 1.370 . S
C447 C448 1.396 1_554 S
C447 H474 0.929 . S
C448 C443 1.373 . S
C448 C447 1.396 1_556 S
C448 H475 0.929 . S
C449 O462 1.251 . S
C449 O463 1.283 1_655 S
C450 O464 1.258 . S
C450 O465 1.256 . S
C451 La441 2.928 . S
C451 C452 1.503 . S
C451 O466 1.261 . S
C451 O467 1.243 . S
C452 C451 1.503 . S
C452 C453 1.394 . S
C452 C457 1.373 . S
C453 C452 1.394 . S
C453 C454 1.380 . S
C453 H476 0.930 . S
C454 C453 1.380 . S
C454 C455 1.376 . S
C454 H477 0.930 . S
C455 C454 1.376 . S
C455 C456 1.370 . S
C456 C455 1.370 . S
C456 C457 1.396 . S
C456 H478 0.929 . S
C457 C452 1.373 . S
C457 C456 1.396 . S
C457 H479 0.929 . S
C458 O468 1.256 . S
C458 O469 1.280 1_455 S
C459 O470 1.258 . S
C459 O471 1.256 . S
O460 La440 2.521 . S
O460 C442 1.261 . S
O461 La440 2.628 . S
O461 C442 1.243 . S
O462 La440 2.554 . S
O462 C449 1.251 . S
O463 La440 2.757 1_455 S
O463 La441 2.482 . S
O463 C449 1.283 1_455 S
O464 La440 2.470 . S
O464 C450 1.258 . S
O465 La441 2.503 1_655 S
O465 C450 1.256 . S
O466 La441 2.521 . S
O466 C451 1.261 . S
O467 La441 2.628 . S
O467 C451 1.243 . S
O468 La441 2.554 . S
O468 C458 1.256 . S
O469 La440 2.482 . S
O469 La441 2.757 1_655 S
O469 C458 1.280 1_655 S
O470 La441 2.470 . S
O470 C459 1.258 . S
O471 La440 2.503 1_455 S
O471 C459 1.256 . S
H472 C444 0.930 . S
H473 C445 0.930 . S
H474 C447 0.929 . S
H475 C448 0.929 . S
H476 C453 0.930 . S
H477 C454 0.930 . S
H478 C456 0.929 . S
H479 C457 0.929 . S
C480 C481 1.369 1_565 S
C480 H484 0.950 . S
C480 C489 1.390 . S
C481 C480 1.369 1_545 S
C481 C483 1.406 . S
H482 C489 0.950 . S
C483 C481 1.406 . S
C483 C485 1.390 . S
C483 H487 0.950 . S
H484 C480 0.950 . S
C485 C483 1.390 . S
C485 C486 1.425 . S
C485 H488 0.950 . S
C486 C485 1.425 . S
C486 C489 1.350 1_545 S
H487 C483 0.950 . S
H488 C485 0.950 . S
C489 C480 1.390 . S
C489 H482 0.950 . S
C489 C486 1.350 1_565 S
C490 C491 1.387 . S
C490 H494 0.950 . S
C490 C499 1.390 . S
C491 C490 1.387 . S
C491 C493 1.387 . S
H492 C499 0.950 . S
C493 C491 1.387 . S
C493 C495 1.390 . S
C493 H497 0.950 . S
H494 C490 0.950 . S
C495 C493 1.390 . S
C495 C496 1.387 . S
C495 H498 0.950 . S
C496 C495 1.387 . S
C496 C499 1.387 . S
H497 C493 0.950 . S
H498 C495 0.950 . S
C499 C490 1.390 . S
C499 H492 0.950 . S
C499 C496 1.387 . S
C500 C501 1.387 . S
C500 H504 0.950 . S
C500 C509 1.390 . S
C501 C500 1.387 . S
C501 C503 1.387 . S
H502 C509 0.950 . S
C503 C501 1.387 . S
C503 C505 1.390 . S
C503 H507 0.950 . S
H504 C500 0.950 . S
C505 C503 1.390 . S
C505 C506 1.387 . S
C505 H508 0.950 . S
C506 C505 1.387 . S
C506 C509 1.387 . S
H507 C503 0.950 . S
H508 C505 0.950 . S
C509 C500 1.390 . S
C509 H502 0.950 . S
C509 C506 1.387 . S
C510 C511 1.359 1_655 S
C510 H514 0.950 . S
C510 C519 1.390 . S
C511 C510 1.359 1_455 S
C511 C513 1.417 . S
H512 C519 0.950 . S
C513 C511 1.417 . S
C513 C515 1.390 . S
C513 H517 0.950 . S
H514 C510 0.950 . S
C515 C513 1.390 . S
C515 C516 1.387 . S
C515 H518 0.950 . S
C516 C515 1.387 . S
C516 C519 1.387 1_455 S
H517 C513 0.950 . S
H518 C515 0.950 . S
C519 C510 1.390 . S
C519 H512 0.950 . S
C519 C516 1.387 1_655 S
C520 C521 1.379 1_545 S
C520 H524 0.950 . S
C520 C529 1.390 . S
C521 C520 1.379 1_565 S
C521 C523 1.396 . S
H522 C529 0.950 1_556 S
C523 C521 1.396 . S
C523 C525 1.390 . S
C523 H527 0.950 . S
H524 C520 0.950 . S
C525 C523 1.390 . S
C525 C526 1.417 1_554 S
C525 H528 0.950 1_554 S
C526 C525 1.417 1_556 S
C526 C529 1.358 1_566 S
H527 C523 0.950 . S
H528 C525 0.950 1_556 S
C529 C520 1.390 . S
C529 H522 0.950 1_554 S
C529 C526 1.358 1_544 S
C530 C531 1.387 . S
C530 H534 0.950 . S
C530 C539 1.390 . S
C531 C530 1.387 . S
C531 C533 1.387 . S
H532 C539 0.950 1_556 S
C533 C531 1.387 . S
C533 C535 1.390 . S
C533 H537 0.950 . S
H534 C530 0.950 . S
C535 C533 1.390 . S
C535 C536 1.387 1_554 S
C535 H538 0.951 . S
C536 C535 1.387 1_556 S
C536 C539 1.387 1_556 S
H537 C533 0.950 . S
H538 C535 0.951 . S
C539 C530 1.390 . S
C539 H532 0.950 1_554 S
C539 C536 1.387 1_554 S
C540 C541 1.387 . S
C540 H544 0.950 . S
C540 C549 1.390 . S
C541 C540 1.387 . S
C541 C543 1.387 . S
H542 C549 0.950 . S
C543 C541 1.387 . S
C543 C545 1.390 . S
C543 H547 0.950 . S
H544 C540 0.950 . S
C545 C543 1.390 . S
C545 C546 1.387 1_554 S
C545 H548 0.950 1_554 S
C546 C545 1.387 1_556 S
C546 C549 1.387 1_556 S
H547 C543 0.950 . S
H548 C545 0.950 1_556 S
C549 C540 1.390 . S
C549 H542 0.950 . S
C549 C546 1.387 1_554 S
C550 C551 1.357 1_455 S
C550 H554 0.950 . S
C550 C559 1.390 . S
C551 C550 1.357 1_655 S
C551 C553 1.419 . S
H552 C559 0.950 1_556 S
C553 C551 1.419 . S
C553 C555 1.390 . S
C553 H557 0.950 . S
H554 C550 0.950 . S
C555 C553 1.390 . S
C555 C556 1.387 1_554 S
C555 H558 0.950 1_554 S
C556 C555 1.387 1_556 S
C556 C559 1.387 1_656 S
H557 C553 0.950 . S
H558 C555 0.950 1_556 S
C559 C550 1.390 . S
C559 H552 0.950 1_554 S
C559 C556 1.387 1_454 S
C560 C561 1.387 . S
C560 H564 0.950 . S
C560 C569 1.390 . S
C561 C560 1.387 . S
C561 C563 1.387 . S
H562 C569 0.950 . S
C563 C561 1.387 . S
C563 C565 1.390 . S
C563 H567 0.950 . S
H564 C560 0.950 . S
C565 C563 1.390 . S
C565 C566 1.387 . S
C565 H568 0.950 . S
C566 C565 1.387 . S
C566 C569 1.387 . S
H567 C563 0.950 . S
H568 C565 0.950 . S
C569 C560 1.390 . S
C569 H562 0.950 . S
C569 C566 1.387 . S
C570 C571 1.387 . S
C570 H574 0.950 . S
C570 C579 1.390 . S
C571 C570 1.387 . S
C571 C573 1.387 . S
H572 C579 0.950 . S
C573 C571 1.387 . S
C573 C575 1.390 . S
C573 H577 0.950 1_565 S
H574 C570 0.950 . S
C575 C573 1.390 . S
C575 C576 1.387 . S
C575 H578 0.950 . S
C576 C575 1.387 . S
C576 C579 1.387 . S
H577 C573 0.950 1_545 S
H578 C575 0.950 . S
C579 C570 1.390 . S
C579 H572 0.950 . S
C579 C576 1.387 . S
C580 C581 1.387 . S
C580 H584 0.950 . S
C580 C589 1.390 . S
C581 C580 1.387 . S
C581 C583 1.387 . S
H582 C589 0.950 . S
C583 C581 1.387 . S
C583 C585 1.390 . S
C583 H587 0.950 . S
H584 C580 0.950 . S
C585 C583 1.390 . S
C585 C586 1.387 . S
C585 H588 0.950 . S
C586 C585 1.387 . S
C586 C589 1.387 . S
H587 C583 0.950 . S
H588 C585 0.950 . S
C589 C580 1.390 . S
C589 H582 0.950 . S
C589 C586 1.387 . S
C590 C591 1.387 . S
C590 H594 0.950 . S
C590 C599 1.390 . S
C591 C590 1.387 . S
C591 C593 1.387 . S
H592 C599 0.950 . S
C593 C591 1.387 . S
C593 C595 1.390 . S
C593 H597 0.950 . S
H594 C590 0.950 . S
C595 C593 1.390 . S
C595 C596 1.387 . S
C595 H598 0.950 . S
C596 C595 1.387 . S
C596 C599 1.387 . S
H597 C593 0.950 . S
H598 C595 0.950 . S
C599 C590 1.390 . S
C599 H592 0.950 . S
C599 C596 1.387 . S
C600 C601 1.387 . S
C600 H604 0.950 . S
C600 C609 1.390 . S
C601 C600 1.387 . S
C601 C603 1.387 1_554 S
H602 C609 0.950 . S
C603 C601 1.387 1_556 S
C603 C605 1.390 . S
C603 H607 0.950 . S
H604 C600 0.950 . S
C605 C603 1.390 . S
C605 C606 1.387 1_556 S
C605 H608 0.950 . S
C606 C605 1.387 1_554 S
C606 C609 1.387 . S
H607 C603 0.950 . S
H608 C605 0.950 . S
C609 C600 1.390 . S
C609 H602 0.950 . S
C609 C606 1.387 . S
C610 C611 1.387 . S
C610 H614 0.950 . S
C610 C619 1.390 . S
C611 C610 1.387 . S
C611 C613 1.387 1_554 S
H612 C619 0.950 . S
C613 C611 1.387 1_556 S
C613 C615 1.390 . S
C613 H617 0.950 1_545 S
H614 C610 0.950 . S
C615 C613 1.390 . S
C615 C616 1.387 1_556 S
C615 H618 0.950 . S
C616 C615 1.387 1_554 S
C616 C619 1.387 . S
H617 C613 0.950 1_565 S
H618 C615 0.950 . S
C619 C610 1.390 . S
C619 H612 0.950 . S
C619 C616 1.387 . S
C620 C621 1.387 . S
C620 H624 0.950 . S
C620 C629 1.390 . S
C621 C620 1.387 . S
C621 C623 1.387 1_554 S
H622 C629 0.950 . S
C623 C621 1.387 1_556 S
C623 C625 1.390 . S
C623 H627 0.950 . S
H624 C620 0.950 . S
C625 C623 1.390 . S
C625 C626 1.387 1_556 S
C625 H628 0.950 . S
C626 C625 1.387 1_554 S
C626 C629 1.387 . S
H627 C623 0.950 . S
H628 C625 0.950 . S
C629 C620 1.390 . S
C629 H622 0.950 . S
C629 C626 1.387 . S
C630 C631 1.387 1_556 S
C630 H634 0.950 . S
C630 C639 1.390 . S
C631 C630 1.387 1_554 S
C631 C633 1.387 . S
H632 C639 0.950 . S
C633 C631 1.387 . S
C633 C635 1.390 . S
C633 H637 0.950 . S
H634 C630 0.950 . S
C635 C633 1.390 . S
C635 C636 1.387 . S
C635 H638 0.950 . S
C636 C635 1.387 . S
C636 C639 1.387 1_554 S
H637 C633 0.950 . S
H638 C635 0.950 . S
C639 C630 1.390 . S
C639 H632 0.950 . S
C639 C636 1.387 1_556 S
C640 C641 1.387 1_655 S
C640 H644 0.950 . S
C640 C649 1.390 . S
C641 C640 1.387 1_455 S
C641 C643 1.387 . S
H642 C649 0.950 . S
C643 C641 1.387 . S
C643 C645 1.390 . S
C643 H647 0.950 . S
H644 C640 0.950 . S
C645 C643 1.390 . S
C645 C646 1.387 . S
C645 H648 0.950 . S
C646 C645 1.387 . S
C646 C649 1.387 1_455 S
H647 C643 0.950 . S
H648 C645 0.950 . S
C649 C640 1.390 . S
C649 H642 0.950 . S
C649 C646 1.387 1_655 S
C650 C651 1.387 1_565 S
C650 H654 0.950 . S
C650 C659 1.390 . S
C651 C650 1.387 1_545 S
C651 C653 1.387 . S
H652 C659 0.950 . S
C653 C651 1.387 . S
C653 C655 1.390 . S
C653 H657 0.950 . S
H654 C650 0.950 . S
C655 C653 1.390 . S
C655 C656 1.387 . S
C655 H658 0.950 . S
C656 C655 1.387 . S
C656 C659 1.387 1_545 S
H657 C653 0.950 . S
H658 C655 0.950 . S
C659 C650 1.390 . S
C659 H652 0.950 . S
C659 C656 1.387 1_565 S
C660 C661 1.387 . S
C660 H664 0.950 . S
C660 C669 1.390 . S
C661 C660 1.387 . S
C661 C663 1.387 . S
H662 C669 0.950 . S
C663 C661 1.387 . S
C663 C665 1.390 . S
C663 H667 0.950 . S
H664 C660 0.950 . S
C665 C663 1.390 . S
C665 C666 1.387 . S
C665 H668 0.950 . S
C666 C665 1.387 . S
C666 C669 1.387 . S
H667 C663 0.950 . S
H668 C665 0.950 . S
C669 C660 1.390 . S
C669 H662 0.950 . S
C669 C666 1.387 . S
C670 C671 1.387 . S
C670 H674 0.950 . S
C670 C679 1.390 . S
C671 C670 1.387 . S
C671 C673 1.387 . S
H672 C679 0.950 . S
C673 C671 1.387 . S
C673 C675 1.390 . S
C673 H677 0.950 . S
H674 C670 0.950 . S
C675 C673 1.390 . S
C675 C676 1.387 . S
C675 H678 0.950 . S
C676 C675 1.387 . S
C676 C679 1.387 . S
H677 C673 0.950 . S
H678 C675 0.950 . S
C679 C670 1.390 . S
C679 H672 0.950 . S
C679 C676 1.387 . S
C680 C681 1.387 . S
C680 H684 0.950 . S
C680 C689 1.390 . S
C681 C680 1.387 . S
C681 C683 1.387 1_655 S
H682 C689 0.950 . S
C683 C681 1.387 1_455 S
C683 C685 1.390 . S
C683 H687 0.950 . S
H684 C680 0.950 . S
C685 C683 1.390 . S
C685 C686 1.387 1_455 S
C685 H688 0.950 . S
C686 C685 1.387 1_655 S
C686 C689 1.387 . S
H687 C683 0.950 . S
H688 C685 0.950 . S
C689 C680 1.390 . S
C689 H682 0.950 . S
C689 C686 1.387 . S
C690 C691 1.387 . S
C690 H694 0.950 . S
C690 C699 1.390 . S
C691 C690 1.387 . S
C691 C693 1.387 1_565 S
H692 C699 0.950 . S
C693 C691 1.387 1_545 S
C693 C695 1.390 . S
C693 H697 0.950 . S
H694 C690 0.950 . S
C695 C693 1.390 . S
C695 C696 1.387 1_545 S
C695 H698 0.950 . S
C696 C695 1.387 1_565 S
C696 C699 1.387 . S
H697 C693 0.950 . S
H698 C695 0.950 . S
C699 C690 1.390 . S
C699 H692 0.950 . S
C699 C696 1.387 . S
C700 C701 1.387 . S
C700 H704 0.950 . S
C700 C709 1.390 . S
C701 C700 1.387 . S
C701 C703 1.387 . S
H702 C709 0.950 . S
C703 C701 1.387 . S
C703 C705 1.390 . S
C703 H707 0.950 . S
H704 C700 0.950 . S
C705 C703 1.390 . S
C705 C706 1.387 . S
C705 H708 0.950 . S
C706 C705 1.387 . S
C706 C709 1.387 . S
H707 C703 0.950 . S
H708 C705 0.950 . S
C709 C700 1.390 . S
C709 H702 0.950 . S
C709 C706 1.387 . S
C710 C711 1.387 . S
C710 H714 0.950 . S
C710 C719 1.390 . S
C711 C710 1.387 . S
C711 C713 1.387 . S
H712 C719 0.950 . S
C713 C711 1.387 . S
C713 C715 1.390 . S
C713 H717 0.950 . S
H714 C710 0.950 . S
C715 C713 1.390 . S
C715 C716 1.387 . S
C715 H718 0.950 . S
C716 C715 1.387 . S
C716 C719 1.387 . S
H717 C713 0.950 . S
H718 C715 0.950 . S
C719 C710 1.390 . S
C719 H712 0.950 . S
C719 C716 1.387 . S
C481 C255 2.657 . S
C486 C329 3.008 1_545 S
C496 C369 3.023 . S
C491 C295 2.668 . S
C506 C409 3.025 . S
C501 C175 2.674 . S
C516 C449 3.012 1_455 S
C511 C215 2.661 . S
C526 C338 3.008 1_565 S
C521 C95 2.656 1_565 S
C531 C135 2.674 . S
C536 C378 3.024 . S
C541 C15 2.678 . S
C546 C418 3.026 . S
C551 C55 2.657 1_655 S
C556 C458 3.009 1_655 S
C566 C335 0.818 . S
C561 C221 0.835 1_655 S
C576 C375 0.807 . S
C571 C261 0.831 1_565 S
C586 C415 0.782 . S
C581 C301 0.796 . S
C591 C181 0.801 . S
C596 C455 0.780 . S
C601 C61 0.799 . S
C606 C326 0.821 . S
C616 C366 0.815 . S
C611 C101 0.795 . S
C626 C406 0.790 . S
C621 C141 0.781 . S
C631 C21 0.773 . S
C636 C446 0.787 . S
C641 C202 3.623 . S
C646 C339 4.099 . S
C651 C242 3.600 . S
C656 C379 4.082 . S
C666 C419 4.078 . S
C661 C282 3.591 . S
C676 C459 4.099 . S
C671 C162 3.608 . S
C681 C42 3.649 1_655 S
C686 C330 4.108 . S
C696 C370 4.082 . S
C691 C82 3.626 1_565 S
C706 C410 4.078 . S
C701 C122 3.630 . S
C711 C2 3.652 . S
C716 C450 4.104 . S
