# Generated by pormake.
# Topology iac, (4,6)-cn, num edge types: 1
# Building blocks:
#     Node 0, Type 0, BuildingBlock: GALJAG_clean_sbu_0, # of connection points: 4
#     Node 1, Type 0, BuildingBlock: GALJAG_clean_sbu_0, # of connection points: 4
#     Node 2, Type 0, BuildingBlock: GALJAG_clean_sbu_0, # of connection points: 4
#     Node 3, Type 0, BuildingBlock: GALJAG_clean_sbu_0, # of connection points: 4
#     Node 4, Type 0, BuildingBlock: GALJAG_clean_sbu_0, # of connection points: 4
#     Node 5, Type 0, BuildingBlock: GALJAG_clean_sbu_0, # of connection points: 4
#     Node 6, Type 0, BuildingBlock: GALJAG_clean_sbu_0, # of connection points: 4
#     Node 7, Type 0, BuildingBlock: GALJAG_clean_sbu_0, # of connection points: 4
#     Node 8, Type 0, BuildingBlock: GALJAG_clean_sbu_0, # of connection points: 4
#     Node 9, Type 0, BuildingBlock: GALJAG_clean_sbu_0, # of connection points: 4
#     Node 10, Type 0, BuildingBlock: GALJAG_clean_sbu_0, # of connection points: 4
#     Node 11, Type 0, BuildingBlock: GALJAG_clean_sbu_0, # of connection points: 4
#     Node 12, Type 0, BuildingBlock: GALJAG_clean_sbu_0, # of connection points: 4
#     Node 13, Type 0, BuildingBlock: GALJAG_clean_sbu_0, # of connection points: 4
#     Node 14, Type 0, BuildingBlock: GALJAG_clean_sbu_0, # of connection points: 4
#     Node 15, Type 0, BuildingBlock: GALJAG_clean_sbu_0, # of connection points: 4
#     Node 16, Type 0, BuildingBlock: GALJAG_clean_sbu_0, # of connection points: 4
#     Node 17, Type 0, BuildingBlock: GALJAG_clean_sbu_0, # of connection points: 4
#     Node 18, Type 0, BuildingBlock: GALJAG_clean_sbu_0, # of connection points: 4
#     Node 19, Type 0, BuildingBlock: GALJAG_clean_sbu_0, # of connection points: 4
#     Node 20, Type 0, BuildingBlock: GALJAG_clean_sbu_0, # of connection points: 4
#     Node 21, Type 0, BuildingBlock: GALJAG_clean_sbu_0, # of connection points: 4
#     Node 22, Type 0, BuildingBlock: GALJAG_clean_sbu_0, # of connection points: 4
#     Node 23, Type 0, BuildingBlock: GALJAG_clean_sbu_0, # of connection points: 4
#     Node 24, Type 1, BuildingBlock: JUFBIX_clean_sbu_0, # of connection points: 6
#     Node 25, Type 1, BuildingBlock: JUFBIX_clean_sbu_0, # of connection points: 6
#     Node 26, Type 1, BuildingBlock: JUFBIX_clean_sbu_0, # of connection points: 6
#     Node 27, Type 1, BuildingBlock: JUFBIX_clean_sbu_0, # of connection points: 6
#     Node 28, Type 1, BuildingBlock: JUFBIX_clean_sbu_0, # of connection points: 6
#     Node 29, Type 1, BuildingBlock: JUFBIX_clean_sbu_0, # of connection points: 6
#     Node 30, Type 1, BuildingBlock: JUFBIX_clean_sbu_0, # of connection points: 6
#     Node 31, Type 1, BuildingBlock: JUFBIX_clean_sbu_0, # of connection points: 6
#     Node 32, Type 1, BuildingBlock: JUFBIX_clean_sbu_0, # of connection points: 6
#     Node 33, Type 1, BuildingBlock: JUFBIX_clean_sbu_0, # of connection points: 6
#     Node 34, Type 1, BuildingBlock: JUFBIX_clean_sbu_0, # of connection points: 6
#     Node 35, Type 1, BuildingBlock: JUFBIX_clean_sbu_0, # of connection points: 6
#     Node 36, Type 1, BuildingBlock: JUFBIX_clean_sbu_0, # of connection points: 6
#     Node 37, Type 1, BuildingBlock: JUFBIX_clean_sbu_0, # of connection points: 6
#     Node 38, Type 1, BuildingBlock: JUFBIX_clean_sbu_0, # of connection points: 6
#     Node 39, Type 1, BuildingBlock: JUFBIX_clean_sbu_0, # of connection points: 6
#     Edge 40, Type (0, 1), BuildingBlock: UVAHIK_clean_linker_0, # of connection points: 2
#     Edge 41, Type (0, 1), BuildingBlock: UVAHIK_clean_linker_0, # of connection points: 2
#     Edge 42, Type (0, 1), BuildingBlock: UVAHIK_clean_linker_0, # of connection points: 2
#     Edge 43, Type (0, 1), BuildingBlock: UVAHIK_clean_linker_0, # of connection points: 2
#     Edge 44, Type (0, 1), BuildingBlock: UVAHIK_clean_linker_0, # of connection points: 2
#     Edge 45, Type (0, 1), BuildingBlock: UVAHIK_clean_linker_0, # of connection points: 2
#     Edge 46, Type (0, 1), BuildingBlock: UVAHIK_clean_linker_0, # of connection points: 2
#     Edge 47, Type (0, 1), BuildingBlock: UVAHIK_clean_linker_0, # of connection points: 2
#     Edge 48, Type (0, 1), BuildingBlock: UVAHIK_clean_linker_0, # of connection points: 2
#     Edge 49, Type (0, 1), BuildingBlock: UVAHIK_clean_linker_0, # of connection points: 2
#     Edge 50, Type (0, 1), BuildingBlock: UVAHIK_clean_linker_0, # of connection points: 2
#     Edge 51, Type (0, 1), BuildingBlock: UVAHIK_clean_linker_0, # of connection points: 2
#     Edge 52, Type (0, 1), BuildingBlock: UVAHIK_clean_linker_0, # of connection points: 2
#     Edge 53, Type (0, 1), BuildingBlock: UVAHIK_clean_linker_0, # of connection points: 2
#     Edge 54, Type (0, 1), BuildingBlock: UVAHIK_clean_linker_0, # of connection points: 2
#     Edge 55, Type (0, 1), BuildingBlock: UVAHIK_clean_linker_0, # of connection points: 2
#     Edge 56, Type (0, 1), BuildingBlock: UVAHIK_clean_linker_0, # of connection points: 2
#     Edge 57, Type (0, 1), BuildingBlock: UVAHIK_clean_linker_0, # of connection points: 2
#     Edge 58, Type (0, 1), BuildingBlock: UVAHIK_clean_linker_0, # of connection points: 2
#     Edge 59, Type (0, 1), BuildingBlock: UVAHIK_clean_linker_0, # of connection points: 2
#     Edge 60, Type (0, 1), BuildingBlock: UVAHIK_clean_linker_0, # of connection points: 2
#     Edge 61, Type (0, 1), BuildingBlock: UVAHIK_clean_linker_0, # of connection points: 2
#     Edge 62, Type (0, 1), BuildingBlock: UVAHIK_clean_linker_0, # of connection points: 2
#     Edge 63, Type (0, 1), BuildingBlock: UVAHIK_clean_linker_0, # of connection points: 2
#     Edge 64, Type (0, 1), BuildingBlock: UVAHIK_clean_linker_0, # of connection points: 2
#     Edge 65, Type (0, 1), BuildingBlock: UVAHIK_clean_linker_0, # of connection points: 2
#     Edge 66, Type (0, 1), BuildingBlock: UVAHIK_clean_linker_0, # of connection points: 2
#     Edge 67, Type (0, 1), BuildingBlock: UVAHIK_clean_linker_0, # of connection points: 2
#     Edge 68, Type (0, 1), BuildingBlock: UVAHIK_clean_linker_0, # of connection points: 2
#     Edge 69, Type (0, 1), BuildingBlock: UVAHIK_clean_linker_0, # of connection points: 2
#     Edge 70, Type (0, 1), BuildingBlock: UVAHIK_clean_linker_0, # of connection points: 2
#     Edge 71, Type (0, 1), BuildingBlock: UVAHIK_clean_linker_0, # of connection points: 2
#     Edge 72, Type (0, 1), BuildingBlock: UVAHIK_clean_linker_0, # of connection points: 2
#     Edge 73, Type (0, 1), BuildingBlock: UVAHIK_clean_linker_0, # of connection points: 2
#     Edge 74, Type (0, 1), BuildingBlock: UVAHIK_clean_linker_0, # of connection points: 2
#     Edge 75, Type (0, 1), BuildingBlock: UVAHIK_clean_linker_0, # of connection points: 2
#     Edge 76, Type (0, 1), BuildingBlock: UVAHIK_clean_linker_0, # of connection points: 2
#     Edge 77, Type (0, 1), BuildingBlock: UVAHIK_clean_linker_0, # of connection points: 2
#     Edge 78, Type (0, 1), BuildingBlock: UVAHIK_clean_linker_0, # of connection points: 2
#     Edge 79, Type (0, 1), BuildingBlock: UVAHIK_clean_linker_0, # of connection points: 2
#     Edge 80, Type (0, 1), BuildingBlock: UVAHIK_clean_linker_0, # of connection points: 2
#     Edge 81, Type (0, 1), BuildingBlock: UVAHIK_clean_linker_0, # of connection points: 2
#     Edge 82, Type (0, 1), BuildingBlock: UVAHIK_clean_linker_0, # of connection points: 2
#     Edge 83, Type (0, 1), BuildingBlock: UVAHIK_clean_linker_0, # of connection points: 2
#     Edge 84, Type (0, 1), BuildingBlock: UVAHIK_clean_linker_0, # of connection points: 2
#     Edge 85, Type (0, 1), BuildingBlock: UVAHIK_clean_linker_0, # of connection points: 2
#     Edge 86, Type (0, 1), BuildingBlock: UVAHIK_clean_linker_0, # of connection points: 2
#     Edge 87, Type (0, 1), BuildingBlock: UVAHIK_clean_linker_0, # of connection points: 2
#     Edge 88, Type (0, 1), BuildingBlock: UVAHIK_clean_linker_0, # of connection points: 2
#     Edge 89, Type (0, 1), BuildingBlock: UVAHIK_clean_linker_0, # of connection points: 2
#     Edge 90, Type (0, 1), BuildingBlock: UVAHIK_clean_linker_0, # of connection points: 2
#     Edge 91, Type (0, 1), BuildingBlock: UVAHIK_clean_linker_0, # of connection points: 2
#     Edge 92, Type (0, 1), BuildingBlock: UVAHIK_clean_linker_0, # of connection points: 2
#     Edge 93, Type (0, 1), BuildingBlock: UVAHIK_clean_linker_0, # of connection points: 2
#     Edge 94, Type (0, 1), BuildingBlock: UVAHIK_clean_linker_0, # of connection points: 2
#     Edge 95, Type (0, 1), BuildingBlock: UVAHIK_clean_linker_0, # of connection points: 2
#     Edge 96, Type (0, 1), BuildingBlock: UVAHIK_clean_linker_0, # of connection points: 2
#     Edge 97, Type (0, 1), BuildingBlock: UVAHIK_clean_linker_0, # of connection points: 2
#     Edge 98, Type (0, 1), BuildingBlock: UVAHIK_clean_linker_0, # of connection points: 2
#     Edge 99, Type (0, 1), BuildingBlock: UVAHIK_clean_linker_0, # of connection points: 2
#     Edge 100, Type (0, 1), BuildingBlock: UVAHIK_clean_linker_0, # of connection points: 2
#     Edge 101, Type (0, 1), BuildingBlock: UVAHIK_clean_linker_0, # of connection points: 2
#     Edge 102, Type (0, 1), BuildingBlock: UVAHIK_clean_linker_0, # of connection points: 2
#     Edge 103, Type (0, 1), BuildingBlock: UVAHIK_clean_linker_0, # of connection points: 2
#     Edge 104, Type (0, 1), BuildingBlock: UVAHIK_clean_linker_0, # of connection points: 2
#     Edge 105, Type (0, 1), BuildingBlock: UVAHIK_clean_linker_0, # of connection points: 2
#     Edge 106, Type (0, 1), BuildingBlock: UVAHIK_clean_linker_0, # of connection points: 2
#     Edge 107, Type (0, 1), BuildingBlock: UVAHIK_clean_linker_0, # of connection points: 2
#     Edge 108, Type (0, 1), BuildingBlock: UVAHIK_clean_linker_0, # of connection points: 2
#     Edge 109, Type (0, 1), BuildingBlock: UVAHIK_clean_linker_0, # of connection points: 2
#     Edge 110, Type (0, 1), BuildingBlock: UVAHIK_clean_linker_0, # of connection points: 2
#     Edge 111, Type (0, 1), BuildingBlock: UVAHIK_clean_linker_0, # of connection points: 2
#     Edge 112, Type (0, 1), BuildingBlock: UVAHIK_clean_linker_0, # of connection points: 2
#     Edge 113, Type (0, 1), BuildingBlock: UVAHIK_clean_linker_0, # of connection points: 2
#     Edge 114, Type (0, 1), BuildingBlock: UVAHIK_clean_linker_0, # of connection points: 2
#     Edge 115, Type (0, 1), BuildingBlock: UVAHIK_clean_linker_0, # of connection points: 2
#     Edge 116, Type (0, 1), BuildingBlock: UVAHIK_clean_linker_0, # of connection points: 2
#     Edge 117, Type (0, 1), BuildingBlock: UVAHIK_clean_linker_0, # of connection points: 2
#     Edge 118, Type (0, 1), BuildingBlock: UVAHIK_clean_linker_0, # of connection points: 2
#     Edge 119, Type (0, 1), BuildingBlock: UVAHIK_clean_linker_0, # of connection points: 2
#     Edge 120, Type (0, 1), BuildingBlock: UVAHIK_clean_linker_0, # of connection points: 2
#     Edge 121, Type (0, 1), BuildingBlock: UVAHIK_clean_linker_0, # of connection points: 2
#     Edge 122, Type (0, 1), BuildingBlock: UVAHIK_clean_linker_0, # of connection points: 2
#     Edge 123, Type (0, 1), BuildingBlock: UVAHIK_clean_linker_0, # of connection points: 2
#     Edge 124, Type (0, 1), BuildingBlock: UVAHIK_clean_linker_0, # of connection points: 2
#     Edge 125, Type (0, 1), BuildingBlock: UVAHIK_clean_linker_0, # of connection points: 2
#     Edge 126, Type (0, 1), BuildingBlock: UVAHIK_clean_linker_0, # of connection points: 2
#     Edge 127, Type (0, 1), BuildingBlock: UVAHIK_clean_linker_0, # of connection points: 2
#     Edge 128, Type (0, 1), BuildingBlock: UVAHIK_clean_linker_0, # of connection points: 2
#     Edge 129, Type (0, 1), BuildingBlock: UVAHIK_clean_linker_0, # of connection points: 2
#     Edge 130, Type (0, 1), BuildingBlock: UVAHIK_clean_linker_0, # of connection points: 2
#     Edge 131, Type (0, 1), BuildingBlock: UVAHIK_clean_linker_0, # of connection points: 2
#     Edge 132, Type (0, 1), BuildingBlock: UVAHIK_clean_linker_0, # of connection points: 2
#     Edge 133, Type (0, 1), BuildingBlock: UVAHIK_clean_linker_0, # of connection points: 2
#     Edge 134, Type (0, 1), BuildingBlock: UVAHIK_clean_linker_0, # of connection points: 2
#     Edge 135, Type (0, 1), BuildingBlock: UVAHIK_clean_linker_0, # of connection points: 2
# Relax obj value: 0.248
# Max RMSD: 0.231
# Mean RMSD: 0.154
data_MOF--net-iac--node1-GALJAG_clean_sbu_0--node2-JUFBIX_clean_sbu_0--edge1-UVAHIK_clean_linker_0
_symmetry_space_group_name_H-M    P1
_symmetry_Int_Tables_number       1
_symmetry_cell_setting            triclinic
loop_
_symmetry_equiv_pos_as_xyz
'x, y, z'
_cell_length_a     69.967313
_cell_length_b     71.062093
_cell_length_c     70.483442
_cell_angle_alpha  89.450157
_cell_angle_beta   88.634574
_cell_angle_gamma 89.143664
loop_
_atom_site_label
_atom_site_type_symbol
_atom_site_fract_x
_atom_site_fract_y
_atom_site_fract_z
_atom_type_partial_charge
In0 In 0.02258 0.26924 0.14176 0.0
O1 O 0.02625 0.2495 0.11597 0.0
O2 O 0.01729 0.23742 0.14218 0.0
C3 C 0.02431 0.30211 0.12143 0.0
C4 C 0.9887 0.27263 0.16135 0.0
C5 C 0.05549 0.26904 0.16158 0.0
O6 O 0.01616 0.28767 0.11545 0.0
O7 O 0.03188 0.29986 0.13736 0.0
O8 O 0.03967 0.27496 0.1683 0.0
O9 O 0.05483 0.2632 0.14473 0.0
C10 C 0.02138 0.23478 0.12489 0.0
O11 O 0.00363 0.26588 0.1686 0.0
O12 O 0.99079 0.27761 0.14423 0.0
In13 In 0.04354 0.76512 0.41373 0.0
O14 O 0.0619 0.77573 0.3889 0.0
O15 O 0.07543 0.77107 0.41519 0.0
C16 C 0.01484 0.76972 0.3894 0.0
C17 C 0.05128 0.72906 0.42306 0.0
C18 C 0.02914 0.78525 0.44314 0.0
O19 O 0.02609 0.78283 0.39317 0.0
O20 O 0.01823 0.75426 0.39775 0.0
O21 O 0.02102 0.77096 0.43692 0.0
O22 O 0.04462 0.78932 0.43465 0.0
C23 C 0.07712 0.77614 0.39807 0.0
O24 O 0.05144 0.74224 0.43489 0.0
O25 O 0.0472 0.73403 0.4064 0.0
In26 In 0.51925 0.77622 0.6402 0.0
O27 O 0.52216 0.79423 0.61279 0.0
O28 O 0.51713 0.8084 0.63875 0.0
C29 C 0.51806 0.74141 0.62417 0.0
C30 C 0.55271 0.77729 0.6593 0.0
C31 C 0.48431 0.77689 0.65791 0.0
O32 O 0.51815 0.75645 0.61447 0.0
O33 O 0.51875 0.74392 0.64182 0.0
O34 O 0.49958 0.77346 0.66653 0.0
O35 O 0.4866 0.77977 0.64032 0.0
C36 C 0.51948 0.8098 0.62101 0.0
O37 O 0.53665 0.78136 0.66677 0.0
O38 O 0.55203 0.77279 0.64205 0.0
In39 In 0.53497 0.26105 0.91281 0.0
O40 O 0.55379 0.27415 0.8898 0.0
O41 O 0.56694 0.26594 0.91551 0.0
C42 C 0.50463 0.25944 0.89032 0.0
C43 C 0.54255 0.22526 0.9232 0.0
C44 C 0.52212 0.28819 0.93645 0.0
O45 O 0.52149 0.26107 0.8838 0.0
O46 O 0.50319 0.25792 0.90815 0.0
O47 O 0.52178 0.27101 0.9411 0.0
O48 O 0.52942 0.29154 0.92029 0.0
C49 C 0.56889 0.27312 0.89917 0.0
O50 O 0.54426 0.23893 0.93429 0.0
O51 O 0.53691 0.22962 0.90686 0.0
In52 In 0.15054 0.99636 0.28984 0.0
O53 O 0.17788 0.98547 0.27576 0.0
O54 O 0.17116 0.97512 0.30346 0.0
C55 C 0.16308 0.03084 0.29823 0.0
C56 C 0.13581 0.98987 0.25564 0.0
C57 C 0.12042 0.99239 0.314 0.0
O58 O 0.16812 0.01634 0.30741 0.0
O59 O 0.15164 0.02791 0.28509 0.0
O60 O 0.12313 0.00689 0.30393 0.0
O61 O 0.13306 0.97963 0.31202 0.0
C62 C 0.18275 0.97508 0.28945 0.0
O63 O 0.13224 0.97943 0.26984 0.0
O64 O 0.14692 0.00323 0.25871 0.0
In65 In 0.24274 0.88533 0.52676 0.0
O66 O 0.22299 0.91083 0.52467 0.0
O67 O 0.2113 0.88411 0.51902 0.0
C68 C 0.27024 0.91124 0.52699 0.0
C69 C 0.23484 0.86729 0.5596 0.0
C70 C 0.25812 0.86265 0.50005 0.0
O71 O 0.25948 0.90908 0.51309 0.0
O72 O 0.2671 0.9003 0.54092 0.0
O73 O 0.26547 0.86452 0.51607 0.0
O74 O 0.24286 0.87199 0.49765 0.0
C75 C 0.20849 0.90161 0.52046 0.0
O76 O 0.23606 0.8589 0.54393 0.0
O77 O 0.23801 0.8847 0.55874 0.0
In78 In 0.4151 0.03579 0.75927 0.0
O79 O 0.38837 0.05369 0.75577 0.0
O80 O 0.40975 0.06397 0.77377 0.0
C81 C 0.39448 0.00589 0.77019 0.0
C82 C 0.42627 0.04263 0.72313 0.0
C83 C 0.44671 0.02834 0.77878 0.0
O84 O 0.39487 0.02071 0.7799 0.0
O85 O 0.40433 0.00627 0.75495 0.0
O86 O 0.43877 0.01609 0.76896 0.0
O87 O 0.43868 0.04438 0.77879 0.0
C88 C 0.39376 0.06676 0.76625 0.0
O89 O 0.43691 0.04527 0.73694 0.0
O90 O 0.41014 0.03599 0.72744 0.0
In91 In 0.26059 0.14983 0.01981 0.0
O92 O 0.28078 0.12769 0.00591 0.0
O93 O 0.29027 0.14172 0.03022 0.0
C94 C 0.2291 0.12786 0.02092 0.0
C95 C 0.25972 0.16719 0.0541 0.0
C96 C 0.26014 0.17259 0.98827 0.0
O97 O 0.24555 0.1216 0.01636 0.0
O98 O 0.22856 0.14512 0.02503 0.0
O99 O 0.27397 0.17188 -0.0006 0.0
O100 O 0.24641 0.16228 0.99327 0.0
C101 C 0.29398 0.12975 0.01756 0.0
O102 O 0.26049 0.17625 0.03858 0.0
O103 O 0.25895 0.14958 0.05224 0.0
In104 In 0.75014 0.38214 0.02705 0.0
O105 O 0.73924 0.36117 0.04916 0.0
O106 O 0.74877 0.38754 0.05887 0.0
C107 C 0.76266 0.35313 0.00561 0.0
C108 C 0.71719 0.4 0.0187 0.0
C109 C 0.77985 0.40506 0.02102 0.0
O110 O 0.7705 0.35754 0.02082 0.0
O111 O 0.74845 0.36328 0.00127 0.0
O112 O 0.76712 0.40288 0.00885 0.0
O113 O 0.77753 0.39568 0.03618 0.0
C114 C 0.74182 0.37175 0.06308 0.0
O115 O 0.73217 0.40862 0.02265 0.0
O116 O 0.71888 0.38231 0.01864 0.0
In117 In 0.88882 0.53892 0.25145 0.0
O118 O 0.9156 0.54198 0.23316 0.0
O119 O 0.89057 0.53237 0.21997 0.0
C120 C 0.91116 0.52877 0.28026 0.0
C121 C 0.87771 0.57492 0.24711 0.0
C122 C 0.85925 0.51621 0.25832 0.0
O123 O 0.91042 0.51924 0.26528 0.0
O124 O 0.90043 0.5432 0.28073 0.0
O125 O 0.86185 0.53078 0.26798 0.0
O126 O 0.87163 0.51312 0.24536 0.0
C127 C 0.9078 0.53712 0.21808 0.0
O128 O 0.8671 0.56139 0.24321 0.0
O129 O 0.89358 0.57029 0.25395 0.0
In130 In 0.76455 0.64915 0.52104 0.0
O131 O 0.78283 0.62229 0.52472 0.0
O132 O 0.79649 0.6464 0.51334 0.0
C133 C 0.73098 0.63037 0.52075 0.0
C134 C 0.76524 0.66585 0.55576 0.0
C135 C 0.76454 0.6693 0.4879 0.0
O136 O 0.7467 0.62326 0.51505 0.0
O137 O 0.73209 0.64707 0.52656 0.0
O138 O 0.77198 0.67525 0.50279 0.0
O139 O 0.75676 0.65348 0.48984 0.0
C140 C 0.7981 0.62938 0.51829 0.0
O141 O 0.76115 0.67479 0.54079 0.0
O142 O 0.76883 0.64862 0.55323 0.0
In143 In 0.65009 0.49567 0.78952 0.0
O144 O 0.67882 0.48472 0.77858 0.0
O145 O 0.669 0.47449 0.80544 0.0
C146 C 0.66181 0.53067 0.79691 0.0
C147 C 0.63763 0.48758 0.75471 0.0
C148 C 0.61876 0.49311 0.81232 0.0
O149 O 0.66647 0.51668 0.80704 0.0
O150 O 0.65116 0.52698 0.78332 0.0
O151 O 0.62218 0.50715 0.80179 0.0
O152 O 0.63125 0.48009 0.81143 0.0
C153 C 0.68209 0.4744 0.7928 0.0
O154 O 0.63255 0.47824 0.76924 0.0
O155 O 0.64916 0.50058 0.75778 0.0
In156 In 0.01279 0.77195 0.8967 0.0
O157 O 0.03285 0.76638 0.8711 0.0
O158 O 0.04467 0.77877 0.89538 0.0
C159 C 0.97983 0.77174 0.87684 0.0
C160 C 0.01462 0.73763 0.91436 0.0
C161 C 0.01158 0.8057 0.91492 0.0
O162 O 0.99541 0.77774 0.86995 0.0
O163 O 0.98081 0.76583 0.89373 0.0
O164 O 0.01524 0.79036 0.92342 0.0
O165 O 0.00817 0.80389 0.89755 0.0
C166 C 0.04751 0.77274 0.87876 0.0
O167 O 0.00727 0.75196 0.92235 0.0
O168 O 0.02093 0.7407 0.89774 0.0
In169 In 0.00497 0.2745 0.62554 0.0
O170 O 0.99306 0.29548 0.60413 0.0
O171 O 0.00297 0.30615 0.63011 0.0
C172 C 0.01654 0.24695 0.60181 0.0
C173 C 0.03661 0.27531 0.64624 0.0
C174 C 0.97189 0.26449 0.64257 0.0
O175 O 0.01717 0.26409 0.59703 0.0
O176 O 0.0098 0.24386 0.61825 0.0
O177 O 0.98642 0.26896 0.65165 0.0
O178 O 0.97399 0.2651 0.62475 0.0
C179 C 0.99552 0.30967 0.61434 0.0
O180 O 0.021 0.26881 0.6525 0.0
O181 O 0.03621 0.28182 0.62951 0.0
In182 In 0.51524 0.27889 0.39545 0.0
O183 O 0.53522 0.27784 0.36923 0.0
O184 O 0.54786 0.28004 0.39622 0.0
C185 C 0.48345 0.27726 0.37396 0.0
C186 C 0.51504 0.24442 0.41277 0.0
C187 C 0.51401 0.31267 0.4139 0.0
O188 O 0.49921 0.28335 0.3676 0.0
O189 O 0.4837 0.27199 0.39109 0.0
O190 O 0.51774 0.29732 0.42226 0.0
O191 O 0.51055 0.3109 0.39658 0.0
C192 C 0.55041 0.27891 0.37847 0.0
O193 O 0.50509 0.25816 0.41891 0.0
O194 O 0.525 0.2481 0.39809 0.0
In195 In 0.51232 0.77504 0.13099 0.0
O196 O 0.51713 0.76536 0.10054 0.0
O197 O 0.52653 0.74719 0.12262 0.0
C198 C 0.50442 0.81096 0.1212 0.0
C199 C 0.47898 0.75939 0.14167 0.0
C200 C 0.53976 0.77991 0.15655 0.0
O201 O 0.51679 0.80097 0.11256 0.0
O202 O 0.49616 0.80293 0.13507 0.0
O203 O 0.52288 0.77566 0.16129 0.0
O204 O 0.54274 0.78192 0.13895 0.0
C205 C 0.52513 0.75001 0.10502 0.0
O206 O 0.49356 0.75877 0.15185 0.0
O207 O 0.48133 0.7676 0.12585 0.0
In208 In 0.87929 0.0558 0.74757 0.0
O209 O 0.9087 0.04966 0.73441 0.0
O210 O 0.89162 0.0706 0.72109 0.0
C211 C 0.89838 0.0567 0.78017 0.0
C212 C 0.84983 0.08074 0.74751 0.0
C213 C 0.86207 0.02238 0.74402 0.0
O214 O 0.89124 0.0419 0.77381 0.0
O215 O 0.89596 0.07125 0.77 0.0
O216 O 0.85968 0.03264 0.75837 0.0
O217 O 0.87299 0.02905 0.73125 0.0
C218 C 0.90717 0.06139 0.72101 0.0
O219 O 0.85419 0.07077 0.73332 0.0
O220 O 0.86054 0.07842 0.76149 0.0
In221 In 0.76974 0.17586 0.52326 0.0
O222 O 0.78293 0.14662 0.52047 0.0
O223 O 0.80016 0.16814 0.53153 0.0
C224 C 0.73717 0.15796 0.53203 0.0
C225 C 0.76436 0.20526 0.54654 0.0
C226 C 0.77833 0.18789 0.4878 0.0
O227 O 0.75181 0.15655 0.54212 0.0
O228 O 0.73901 0.16841 0.51752 0.0
O229 O 0.78466 0.19559 0.50234 0.0
O230 O 0.76723 0.17438 0.49112 0.0
C231 C 0.79899 0.15119 0.52657 0.0
O232 O 0.75475 0.20315 0.53182 0.0
O233 O 0.7768 0.19257 0.54947 0.0
In234 In 0.64775 0.00485 0.27905 0.0
O235 O 0.674 0.98932 0.28988 0.0
O236 O 0.65191 0.97327 0.27805 0.0
C237 C 0.66101 0.03986 0.28061 0.0
C238 C 0.63961 0.00249 0.24224 0.0
C239 C 0.62212 0.00292 0.30784 0.0
O240 O 0.67155 0.0255 0.28297 0.0
O241 O 0.64366 0.03658 0.27765 0.0
O242 O 0.61712 0.00377 0.29079 0.0
O243 O 0.63984 0.00395 0.31025 0.0
C244 C 0.66771 0.97326 0.28622 0.0
O245 O 0.62805 0.99772 0.25536 0.0
O246 O 0.65559 0.00814 0.24765 0.0
In247 In 0.76632 0.89898 0.01824 0.0
O248 O 0.74596 0.92395 0.02489 0.0
O249 O 0.73378 0.89874 0.01541 0.0
C250 C 0.79958 0.9182 0.01596 0.0
C251 C 0.76762 0.88146 0.0528 0.0
C252 C 0.76759 0.8819 0.98373 0.0
O253 O 0.78361 0.92563 0.01208 0.0
O254 O 0.79882 0.90104 0.0207 0.0
O255 O 0.76819 0.87272 -0.00083 0.0
O256 O 0.76672 0.8995 0.98575 0.0
C257 C 0.73096 0.91544 0.02074 0.0
O258 O 0.76449 0.87266 0.03772 0.0
O259 O 0.77006 0.89887 0.0504 0.0
In260 In 0.27633 0.67358 0.00959 0.0
O261 O 0.26583 0.69983 0.0252 0.0
O262 O 0.26834 0.67426 0.04093 0.0
C263 C 0.28895 0.6907 0.97762 0.0
C264 C 0.30786 0.65433 0.01993 0.0
C265 C 0.2442 0.65587 0.00051 0.0
O266 O 0.28824 0.69886 0.99343 0.0
O267 O 0.28292 0.67407 0.9779 0.0
O268 O 0.26011 0.64748 0.002 0.0
O269 O 0.24461 0.67343 0.00291 0.0
C270 C 0.2637 0.69147 0.04095 0.0
O271 O 0.29206 0.64656 0.01745 0.0
O272 O 0.30768 0.67195 0.01763 0.0
In273 In 0.14159 0.50713 0.78153 0.0
O274 O 0.16487 0.49014 0.76607 0.0
O275 O 0.13785 0.4775 0.77056 0.0
C276 C 0.16361 0.53653 0.78956 0.0
C277 C 0.11642 0.52026 0.75629 0.0
C278 C 0.13144 0.49459 0.8163 0.0
O279 O 0.17032 0.52117 0.78334 0.0
O280 O 0.14566 0.53708 0.7919 0.0
O281 O 0.11995 0.50301 0.80552 0.0
O282 O 0.14831 0.493 0.80981 0.0
C283 C 0.15474 0.47579 0.7642 0.0
O284 O 0.11147 0.51109 0.77093 0.0
O285 O 0.13415 0.52293 0.75435 0.0
In286 In 0.2695 0.39705 0.51725 0.0
O287 O 0.26586 0.36985 0.53507 0.0
O288 O 0.2745 0.3944 0.54915 0.0
C289 C 0.27145 0.38031 0.48262 0.0
C290 C 0.23439 0.41399 0.5205 0.0
C291 C 0.30228 0.41711 0.51543 0.0
O292 O 0.27277 0.37112 0.49798 0.0
O293 O 0.26956 0.39784 0.48474 0.0
O294 O 0.28621 0.42408 0.5112 0.0
O295 O 0.30189 0.39996 0.52026 0.0
C296 C 0.27046 0.3772 0.55052 0.0
O297 O 0.24935 0.42143 0.52638 0.0
O298 O 0.2371 0.39807 0.51315 0.0
In299 In 0.38567 0.55201 0.24517 0.0
O300 O 0.40521 0.53825 0.22307 0.0
O301 O 0.40808 0.56764 0.22702 0.0
C302 C 0.40518 0.55511 0.27754 0.0
C303 C 0.35596 0.5764 0.24201 0.0
C304 C 0.36673 0.5196 0.24316 0.0
O305 O 0.40512 0.54032 0.26787 0.0
O306 O 0.39554 0.56861 0.2708 0.0
O307 O 0.37276 0.52596 0.25853 0.0
O308 O 0.37015 0.52971 0.22865 0.0
C309 C 0.41382 0.55307 0.21838 0.0
O310 O 0.35655 0.56366 0.25453 0.0
O311 O 0.37046 0.57701 0.23105 0.0
Co312 Co 0.01356 0.02785 0.00518 0.0
C313 C 0.01062 0.05167 0.03682 0.0
Co314 Co 0.01804 0.0136 0.03256 0.0
C315 C -0.00108 0.03733 0.96826 0.0
C316 C 0.01929 0.05713 0.97773 0.0
N317 N 0.01051 0.04101 0.98274 0.0
N318 N 6e-05 0.0506 0.95442 0.0
C319 C 0.01293 0.06304 0.96036 0.0
H320 H 0.98951 0.02539 0.96813 0.0
H321 H 0.02954 0.06424 0.98628 0.0
C322 C 0.02104 0.9898 0.00092 0.0
N323 N 0.02118 0.00045 0.05496 0.0
C324 C 0.03235 0.00466 0.06959 0.0
C325 C 0.01334 0.98379 0.05969 0.0
N326 N 0.0319 0.99122 0.08327 0.0
C327 C 0.01988 0.97808 0.07708 0.0
C328 C 0.98014 0.01334 0.02073 0.0
O329 O 0.0174 0.0048 0.99159 0.0
O330 O 0.02251 0.99077 0.01884 0.0
O331 O 0.99147 0.00828 0.03371 0.0
O332 O 0.98666 0.02294 0.00675 0.0
O333 O 0.01358 0.03656 0.04621 0.0
H334 H 0.0038 0.97608 0.05086 0.0
H335 H 0.04071 0.01733 0.07008 0.0
O336 O 0.00972 0.05079 0.01885 0.0
O337 O 0.04042 0.03261 0.00376 0.0
O338 O 0.04468 0.019 0.03133 0.0
C339 C 0.05149 0.02799 0.01711 0.0
H340 H 0.01754 0.0755 0.95268 0.0
H341 H 0.0165 0.96499 0.08427 0.0
Co342 Co 0.29094 0.7788 0.28428 0.0
C343 C 0.2731 0.74703 0.27119 0.0
Co344 Co 0.27255 0.78434 0.25986 0.0
C345 C 0.3092 0.78464 0.31948 0.0
C346 C 0.31728 0.75795 0.30776 0.0
N347 N 0.30679 0.77367 0.30429 0.0
N348 N 0.32059 0.77639 0.33234 0.0
C349 C 0.32559 0.75949 0.32521 0.0
H350 H 0.30188 0.79802 0.32158 0.0
H351 H 0.3183 0.7459 0.29851 0.0
C352 C 0.29043 0.81603 0.27288 0.0
N353 N 0.25663 0.78943 0.23992 0.0
C354 C 0.25276 0.77766 0.22573 0.0
C355 C 0.24632 0.80522 0.23623 0.0
N356 N 0.24048 0.78538 0.21337 0.0
C357 C 0.23649 0.80282 0.21972 0.0
C358 C 0.25393 0.78813 0.29481 0.0
O359 O 0.29707 0.80478 0.28525 0.0
O360 O 0.2797 0.80983 0.26018 0.0
O361 O 0.25221 0.78961 0.27697 0.0
O362 O 0.26997 0.78315 0.30148 0.0
O363 O 0.26559 0.75856 0.25961 0.0
H364 H 0.24602 0.81767 0.24495 0.0
H365 H 0.2592 0.76379 0.2242 0.0
O366 O 0.28461 0.75309 0.28327 0.0
O367 O 0.31169 0.77431 0.26691 0.0
O368 O 0.29291 0.77901 0.24277 0.0
C369 C 0.30926 0.77472 0.24908 0.0
H370 H 0.33419 0.74891 0.33232 0.0
H371 H 0.22711 0.81298 0.21298 0.0
Co372 Co 0.49608 0.02124 0.50313 0.0
C373 C 0.51266 0.05529 0.49135 0.0
Co374 Co 0.52556 0.02478 0.51247 0.0
C375 C 0.45627 0.01212 0.50482 0.0
C376 C 0.46449 0.02468 0.47821 0.0
N377 N 0.47139 0.0191 0.49506 0.0
N378 N 0.44009 0.01312 0.49476 0.0
C379 C 0.44526 0.02105 0.47798 0.0
H380 H 0.45727 0.00624 0.51898 0.0
H381 H 0.47288 0.03106 0.46685 0.0
C382 C 0.50916 0.99084 0.52456 0.0
N383 N 0.55033 0.02689 0.52046 0.0
C384 C 0.5593 0.04259 0.52575 0.0
C385 C 0.56345 0.01292 0.52221 0.0
N386 N 0.57748 0.03896 0.53074 0.0
C387 C 0.58015 0.02029 0.52859 0.0
C388 C 0.49836 0.03908 0.53748 0.0
O389 O 0.4948 0.9968 0.51538 0.0
O390 O 0.52381 0.00113 0.5252 0.0
O391 O 0.51629 0.03704 0.53477 0.0
O392 O 0.48702 0.03276 0.52539 0.0
O393 O 0.52722 0.04858 0.49963 0.0
H394 H 0.5611 0.99833 0.51882 0.0
H395 H 0.5526 0.05642 0.52593 0.0
O396 O 0.49753 0.0456 0.49119 0.0
O397 O 0.50513 0.00975 0.48078 0.0
O398 O 0.53458 0.01251 0.49018 0.0
C399 C 0.5229 0.00698 0.47796 0.0
H400 H 0.43586 0.02423 0.46638 0.0
H401 H 0.59339 0.01263 0.53089 0.0
Co402 Co 0.28442 0.27975 0.77131 0.0
C403 C 0.27513 0.28268 0.73322 0.0
Co404 Co 0.25922 0.26336 0.76428 0.0
C405 C 0.32116 0.28596 0.78617 0.0
C406 C 0.31044 0.31088 0.77261 0.0
N407 N 0.3059 0.29297 0.77708 0.0
N408 N 0.33519 0.29863 0.78741 0.0
C409 C 0.32848 0.31443 0.77903 0.0
H410 H 0.32196 0.27173 0.79176 0.0
H411 H 0.30137 0.32058 0.76487 0.0
C412 C 0.26841 0.26068 0.80245 0.0
N413 N 0.23785 0.25008 0.75844 0.0
C414 C 0.22387 0.25601 0.74695 0.0
C415 C 0.23238 0.23295 0.76473 0.0
N416 N 0.20985 0.24334 0.74577 0.0
C417 C 0.21505 0.22879 0.757 0.0
C418 C 0.29259 0.24285 0.76096 0.0
O419 O 0.28187 0.27154 0.79722 0.0
O420 O 0.25654 0.25553 0.79022 0.0
O421 O 0.27463 0.24197 0.7592 0.0
O422 O 0.29988 0.25825 0.76587 0.0
O423 O 0.26202 0.27135 0.73829 0.0
H424 H 0.24041 0.22414 0.77439 0.0
H425 H 0.22378 0.26964 0.73994 0.0
O426 O 0.28685 0.28798 0.74552 0.0
O427 O 0.26891 0.30106 0.77656 0.0
O428 O 0.24375 0.28486 0.7693 0.0
C429 C 0.251 0.30027 0.77424 0.0
H430 H 0.33625 0.32741 0.7772 0.0
H431 H 0.20698 0.21607 0.75937 0.0
Co432 Co 0.98816 0.00258 0.51172 0.0
C433 C 0.99394 0.02359 0.54425 0.0
Co434 Co 0.00474 0.02836 0.50683 0.0
C435 C 0.98015 0.9634 0.5133 0.0
C436 C 0.95728 0.97943 0.52611 0.0
N437 N 0.97426 0.98116 0.51681 0.0
N438 N 0.96778 0.95059 0.52028 0.0
C439 C 0.95321 0.96058 0.5282 0.0
H440 H 0.99347 0.95991 0.50594 0.0
H441 H 0.94875 0.99109 0.53157 0.0
C442 C -0.00108 0.00735 0.47438 0.0
N443 N 0.01896 0.04959 0.50173 0.0
C444 C 0.01833 0.06601 0.51112 0.0
C445 C 0.03288 0.05172 0.48831 0.0
N446 N 0.03134 0.07825 0.50417 0.0
C447 C 0.04045 0.0694 0.48971 0.0
C448 C 0.02716 0.99718 0.5148 0.0
O449 O 0.9906 0.99589 0.48565 0.0
O450 O 0.00555 0.02248 0.48078 0.0
O451 O 0.02758 0.0145 0.51035 0.0
O452 O 0.01116 0.98912 0.5166 0.0
O453 O 0.00362 0.03407 0.53308 0.0
H454 H 0.03753 0.04096 0.4784 0.0
H455 H 0.00859 0.06892 0.52292 0.0
O456 O 0.98594 0.00918 0.53769 0.0
O457 O 0.96531 0.01641 0.50685 0.0
O458 O 0.98194 0.04222 0.50344 0.0
C459 C 0.96589 0.03409 0.50401 0.0
H460 H 0.94091 0.95468 0.53558 0.0
H461 H 0.05217 0.07505 0.48124 0.0
Co462 Co 0.26738 0.79261 0.77342 0.0
C463 C 0.23418 0.7749 0.78683 0.0
Co464 Co 0.26511 0.76312 0.76471 0.0
C465 C 0.28397 0.82729 0.78505 0.0
C466 C 0.25354 0.82955 0.78309 0.0
N467 N 0.26838 0.81735 0.78091 0.0
N468 N 0.27947 0.84521 0.78968 0.0
C469 C 0.26032 0.84669 0.78853 0.0
H470 H 0.29836 0.82149 0.78457 0.0
H471 H 0.23878 0.82629 0.78052 0.0
C472 C 0.29836 0.78063 0.75132 0.0
N473 N 0.264 0.73848 0.75712 0.0
C474 C 0.25784 0.72355 0.76734 0.0
C475 C 0.26904 0.73154 0.73996 0.0
N476 N 0.25874 0.70752 0.75722 0.0
C477 C 0.26582 0.71251 0.73996 0.0
C478 C 0.24887 0.78814 0.73958 0.0
O479 O 0.29122 0.79499 0.75965 0.0
O480 O 0.2892 0.76534 0.75196 0.0
O481 O 0.25257 0.77084 0.74251 0.0
O482 O 0.25408 0.80019 0.75152 0.0
O483 O 0.24089 0.76097 0.77753 0.0
H484 H 0.27459 0.73982 0.72816 0.0
H485 H 0.25236 0.72455 0.78179 0.0
O486 O 0.24369 0.78998 0.78713 0.0
O487 O 0.28067 0.78498 0.79525 0.0
O488 O 0.27769 0.7555 0.78702 0.0
C489 C 0.28365 0.7676 0.79855 0.0
H490 H 0.2519 0.85942 0.79074 0.0
H491 H 0.26851 0.70311 0.72818 0.0
Co492 Co 0.50691 0.00931 0.00762 0.0
C493 C 0.5421 0.00065 0.02385 0.0
Co494 Co 0.51202 0.02445 0.03403 0.0
C495 C 0.50364 0.00285 0.96781 0.0
C496 C 0.50463 0.97703 0.98359 0.0
N497 N 0.50368 0.9959 0.98564 0.0
N498 N 0.50507 0.98918 0.95472 0.0
C499 C 0.5054 0.97285 0.96455 0.0
H500 H 0.50338 0.01774 0.96445 0.0
H501 H 0.50597 0.96699 0.99513 0.0
C502 C 0.47695 0.03317 0.01761 0.0
N503 N 0.5159 0.03756 0.05589 0.0
C504 C 0.52404 0.03051 0.07155 0.0
C505 C 0.51417 0.05625 0.0589 0.0
N506 N 0.5279 0.04402 0.08408 0.0
C507 C 0.52177 0.0603 0.07623 0.0
C508 C 0.52521 0.04325 0.00204 0.0
O509 O 0.48271 0.02166 0.0049 0.0
O510 O 0.48757 0.03625 0.03163 0.0
O511 O 0.52334 0.04404 0.01993 0.0
O512 O 0.51899 0.02907 0.99346 0.0
O513 O 0.5366 0.01262 0.03616 0.0
H514 H 0.5088 0.06636 0.04869 0.0
H515 H 0.52845 0.01591 0.07309 0.0
O516 O 0.5311 0.99698 0.01034 0.0
O517 O 0.49492 0.98998 0.02196 0.0
O518 O 0.50077 0.00467 0.04834 0.0
C519 C 0.49391 0.99067 0.03994 0.0
H520 H 0.50729 0.959 0.95846 0.0
H521 H 0.52345 0.07414 0.08219 0.0
Co522 Co 0.2667 0.25923 0.27602 0.0
C523 C 0.30473 0.27134 0.27636 0.0
Co524 Co 0.27173 0.286 0.26105 0.0
C525 C 0.25314 0.22218 0.28624 0.0
C526 C 0.27112 0.23386 0.30712 0.0
N527 N 0.26351 0.23746 0.29004 0.0
N528 N 0.25397 0.20916 0.30031 0.0
C529 C 0.26529 0.21651 0.31346 0.0
H530 H 0.24522 0.22066 0.27335 0.0
H531 H 0.28015 0.24337 0.31461 0.0
C532 C 0.23371 0.2738 0.26067 0.0
N533 N 0.27494 0.30786 0.2472 0.0
C534 C 0.28467 0.32331 0.25182 0.0
C535 C 0.26757 0.31183 0.23009 0.0
N536 N 0.28366 0.33682 0.23826 0.0
C537 C 0.27292 0.32961 0.22455 0.0
C538 C 0.27502 0.254 0.23798 0.0
O539 O 0.2401 0.26004 0.27042 0.0
O540 O 0.24506 0.28686 0.25571 0.0
O541 O 0.27629 0.27181 0.2385 0.0
O542 O 0.27138 0.24505 0.25333 0.0
O543 O 0.29847 0.28506 0.26647 0.0
H544 H 0.25873 0.30244 0.22224 0.0
H545 H 0.29244 0.32451 0.26483 0.0
O546 O 0.29324 0.25847 0.28147 0.0
O547 O 0.26197 0.27347 0.29856 0.0
O548 O 0.26716 0.30016 0.28375 0.0
C549 C 0.26333 0.29127 0.29908 0.0
H550 H 0.26879 0.21004 0.32693 0.0
H551 H 0.26885 0.33679 0.21162 0.0
Co552 Co 0.50023 0.50859 0.01476 0.0
C553 C 0.51004 0.52832 0.04704 0.0
Co554 Co 0.51692 0.53414 0.00898 0.0
C555 C 0.48695 0.47091 0.01183 0.0
C556 C 0.47234 0.48559 0.03435 0.0
N557 N 0.48584 0.48768 0.02051 0.0
N558 N 0.47474 0.4584 0.01966 0.0
C559 C 0.46556 0.46749 0.03394 0.0
H560 H 0.49686 0.4678 0.0002 0.0
H561 H 0.46779 0.49648 0.04415 0.0
C562 C 0.50721 0.51456 0.97671 0.0
N563 N 0.53132 0.555 0.00321 0.0
C564 C 0.5285 0.57255 0.00983 0.0
C565 C 0.54668 0.55617 0.99135 0.0
N566 N 0.54145 0.58468 0.00258 0.0
C567 C 0.55301 0.57443 0.99099 0.0
C568 C 0.539 0.50178 0.01364 0.0
O569 O 0.49919 0.50329 0.98837 0.0
O570 O 0.51552 0.52895 0.98284 0.0
O571 O 0.53949 0.51937 0.01042 0.0
O572 O 0.52296 0.4939 0.01619 0.0
O573 O 0.51815 0.53943 0.03527 0.0
H574 H 0.55284 0.54451 0.98343 0.0
H575 H 0.51729 0.57625 0.02002 0.0
O576 O 0.5016 0.51396 0.04095 0.0
O577 O 0.47748 0.52345 0.01336 0.0
O578 O 0.49434 0.54872 0.00768 0.0
C579 C 0.47821 0.54108 0.01032 0.0
H580 H 0.45465 0.46153 0.04324 0.0
H581 H 0.56501 0.57977 0.98271 0.0
Co582 Co 0.77459 0.29219 0.28157 0.0
C583 C 0.73897 0.27671 0.29106 0.0
Co584 Co 0.76924 0.26506 0.26812 0.0
C585 C 0.78107 0.33161 0.28644 0.0
C586 C 0.7768 0.31731 0.313 0.0
N587 N 0.77828 0.31443 0.29413 0.0
N588 N 0.78121 0.34518 0.2997 0.0
C589 C 0.77865 0.33619 0.31647 0.0
H590 H 0.78217 0.33415 0.2713 0.0
H591 H 0.77398 0.30647 0.32353 0.0
C592 C 0.80481 0.28054 0.25854 0.0
N593 N 0.76524 0.24296 0.25567 0.0
C594 C 0.7581 0.22698 0.26311 0.0
C595 C 0.7674 0.2397 0.23689 0.0
N596 N 0.75547 0.21396 0.24972 0.0
C597 C 0.76121 0.22186 0.23316 0.0
C598 C 0.75701 0.29624 0.24738 0.0
O599 O 0.79924 0.29385 0.2694 0.0
O600 O 0.7938 0.26674 0.25611 0.0
O601 O 0.75822 0.27843 0.24779 0.0
O602 O 0.76354 0.30552 0.261 0.0
O603 O 0.74466 0.26346 0.28024 0.0
H604 H 0.7726 0.24985 0.22654 0.0
H605 H 0.75405 0.22522 0.27794 0.0
O606 O 0.74992 0.29052 0.2936 0.0
O607 O 0.78563 0.27868 0.30193 0.0
O608 O 0.78012 0.25165 0.28858 0.0
C609 C 0.7866 0.26084 0.30231 0.0
H610 H 0.77794 0.34274 0.33027 0.0
H611 H 0.76066 0.21531 0.21938 0.0
Co612 Co 0.01252 0.51204 0.50491 0.0
C613 C 0.04769 0.50367 0.52171 0.0
Co614 Co 0.01713 0.52649 0.53181 0.0
C615 C 0.00365 0.50553 0.46627 0.0
C616 C 0.01218 0.48004 0.48027 0.0
N617 N 0.00932 0.49862 0.48308 0.0
N618 N 0.00276 0.49205 0.45298 0.0
C619 C 0.00815 0.47594 0.46176 0.0
H620 H 0.00048 0.52029 0.46386 0.0
H621 H 0.01686 0.47013 0.49101 0.0
C622 C 0.98193 0.53482 0.51513 0.0
N623 N 0.02011 0.54028 0.55349 0.0
C624 C 0.02443 0.53427 0.57108 0.0
C625 C 0.01798 0.55914 0.55493 0.0
N626 N 0.0252 0.54866 0.58334 0.0
C627 C 0.02126 0.56435 0.57326 0.0
C628 C 0.03005 0.54589 0.49952 0.0
O629 O 0.98796 0.52376 0.50217 0.0
O630 O 0.9925 0.53779 0.52916 0.0
O631 O 0.0283 0.54617 0.51745 0.0
O632 O 0.02396 0.53186 0.49059 0.0
O633 O 0.04181 0.51511 0.53442 0.0
H634 H 0.0142 0.56852 0.54339 0.0
H635 H 0.02722 0.51967 0.57476 0.0
O636 O 0.03703 0.50038 0.50779 0.0
O637 O 0.00108 0.49243 0.51917 0.0
O638 O 0.00603 0.50651 0.54611 0.0
C639 C -0.00034 0.4926 0.53715 0.0
H640 H 0.00886 0.46214 0.4554 0.0
H641 H 0.0206 0.5785 0.57882 0.0
Co642 Co 0.78939 0.78448 0.2744 0.0
C643 C 0.77356 0.79503 0.2398 0.0
Co644 Co 0.76291 0.76962 0.26832 0.0
C645 C 0.8277 0.78877 0.28635 0.0
C646 C 0.81541 0.81522 0.27798 0.0
N647 N 0.81171 0.7967 0.27941 0.0
N648 N 0.84129 0.80156 0.28957 0.0
C649 C 0.8336 0.81826 0.28423 0.0
H650 H 0.82918 0.77382 0.28908 0.0
H651 H 0.80538 0.82584 0.27314 0.0
C652 C 0.77839 0.75892 0.30284 0.0
N653 N 0.74058 0.75737 0.26356 0.0
C654 C 0.72401 0.7654 0.25816 0.0
C655 C 0.73689 0.73887 0.26538 0.0
N656 N 0.71002 0.7527 0.25661 0.0
C657 C 0.71809 0.73594 0.26106 0.0
C658 C 0.79524 0.7517 0.25428 0.0
O659 O 0.79122 0.77065 0.29799 0.0
O660 O 0.76474 0.75623 0.29168 0.0
O661 O 0.77718 0.75048 0.25579 0.0
O662 O 0.80347 0.76555 0.26159 0.0
O663 O 0.76112 0.78299 0.24482 0.0
H664 H 0.74715 0.72826 0.26979 0.0
H665 H 0.72233 0.78031 0.25529 0.0
O666 O 0.78724 0.79825 0.25087 0.0
O667 O 0.7754 0.80323 0.28722 0.0
O668 O 0.74875 0.78897 0.281 0.0
C669 C 0.75736 0.8024 0.28871 0.0
H670 H 0.84031 0.83181 0.28534 0.0
H671 H 0.71086 0.72257 0.26147 0.0
Co672 Co 0.78366 0.27702 0.79046 0.0
C673 C 0.76422 0.24803 0.77311 0.0
Co674 Co 0.76685 0.28581 0.76578 0.0
C675 C 0.79935 0.2766 0.82758 0.0
C676 C 0.80809 0.25221 0.81187 0.0
N677 N 0.7979 0.26844 0.81054 0.0
N678 N 0.80987 0.26609 0.83957 0.0
C679 C 0.81534 0.25065 0.82983 0.0
H680 H 0.7921 0.28965 0.83141 0.0
H681 H 0.80971 0.24197 0.80067 0.0
C682 C 0.78634 0.31474 0.78306 0.0
N683 N 0.75266 0.29444 0.74569 0.0
C684 C 0.75062 0.28598 0.72887 0.0
C685 C 0.74318 0.31104 0.7441 0.0
N686 N 0.74041 0.29669 0.71679 0.0
C687 C 0.73576 0.31254 0.72621 0.0
C688 C 0.74684 0.2877 0.80014 0.0
O689 O 0.79162 0.30207 0.79469 0.0
O690 O 0.77586 0.31043 0.76936 0.0
O691 O 0.74596 0.29081 0.78241 0.0
O692 O 0.76224 0.28115 0.80696 0.0
O693 O 0.75807 0.26094 0.76217 0.0
H694 H 0.74214 0.32157 0.75507 0.0
H695 H 0.7572 0.27255 0.72526 0.0
O696 O 0.77545 0.25221 0.78626 0.0
O697 O 0.80499 0.27284 0.77371 0.0
O698 O 0.78769 0.28075 0.74927 0.0
C699 C 0.80344 0.27496 0.75588 0.0
H700 H 0.82372 0.239 0.83538 0.0
H701 H 0.7278 0.32439 0.72049 0.0
Co702 Co 0.76227 0.76129 0.77692 0.0
C703 C 0.80059 0.77218 0.7787 0.0
Co704 Co 0.7687 0.78776 0.76194 0.0
C705 C 0.74781 0.72444 0.78679 0.0
C706 C 0.76418 0.73652 0.80874 0.0
N707 N 0.75779 0.73984 0.79111 0.0
N708 N 0.74775 0.71161 0.80107 0.0
C709 C 0.75804 0.71922 0.81491 0.0
H710 H 0.74094 0.72264 0.77335 0.0
H711 H 0.77272 0.74613 0.81667 0.0
C712 C 0.73037 0.7768 0.76014 0.0
N713 N 0.7733 0.80929 0.74793 0.0
C714 C 0.78294 0.82468 0.75291 0.0
C715 C 0.76759 0.81285 0.73009 0.0
N716 N 0.78355 0.83768 0.73884 0.0
C717 C 0.77393 0.83027 0.72443 0.0
C718 C 0.77191 0.75532 0.7393 0.0
O719 O 0.73597 0.76287 0.77015 0.0
O720 O 0.74229 0.78951 0.7556 0.0
O721 O 0.77356 0.7731 0.7397 0.0
O722 O 0.76751 0.74663 0.75463 0.0
O723 O 0.79517 0.78594 0.76837 0.0
H724 H 0.75928 0.8034 0.72175 0.0
H725 H 0.78956 0.82621 0.76653 0.0
O726 O 0.78849 0.75977 0.78354 0.0
O727 O 0.75704 0.776 0.79911 0.0
O728 O 0.76384 0.80235 0.78435 0.0
C729 C 0.75909 0.79372 0.7996 0.0
H730 H 0.7607 0.71292 0.82864 0.0
H731 H 0.77136 0.83711 0.71092 0.0
Co732 Co 0.51221 0.53366 0.50691 0.0
C733 C 0.50887 0.55689 0.53903 0.0
Co734 Co 0.51744 0.51918 0.53401 0.0
C735 C 0.49808 0.54262 0.46973 0.0
C736 C 0.51552 0.56432 0.48064 0.0
N737 N 0.50854 0.54714 0.4848 0.0
N738 N 0.49816 0.55638 0.45639 0.0
C739 C 0.50913 0.57006 0.46321 0.0
H740 H 0.49021 0.52967 0.46879 0.0
H741 H 0.52458 0.57224 0.48979 0.0
C742 C 0.52081 0.49596 0.5019 0.0
N743 N 0.52111 0.50562 0.5561 0.0
C744 C 0.53284 0.50923 0.57047 0.0
C745 C 0.51314 0.48896 0.56063 0.0
N746 N 0.53256 0.49542 0.58378 0.0
C747 C 0.52012 0.48267 0.57763 0.0
C748 C 0.47942 0.51799 0.52243 0.0
O749 O 0.51681 0.51102 0.49282 0.0
O750 O 0.52227 0.4967 0.51982 0.0
O751 O 0.49096 0.51325 0.53534 0.0
O752 O 0.48557 0.52782 0.50846 0.0
O753 O 0.51264 0.5418 0.54817 0.0
H754 H 0.50326 0.4816 0.55187 0.0
H755 H 0.54151 0.52168 0.57103 0.0
O756 O 0.5076 0.55614 0.52109 0.0
O757 O 0.53882 0.53941 0.50541 0.0
O758 O 0.54395 0.52522 0.53255 0.0
C759 C 0.55025 0.53477 0.51846 0.0
H760 H 0.51242 0.5832 0.45605 0.0
H761 H 0.51677 0.46943 0.58455 0.0
Co762 Co 0.00796 0.5143 0.00531 0.0
C763 C 0.02237 0.54944 0.99537 0.0
Co764 Co 0.03438 0.52086 0.02024 0.0
C765 C 0.96951 0.50226 0.00082 0.0
C766 C 0.98234 0.51086 0.97435 0.0
N767 N 0.98581 0.50895 0.993 0.0
N768 N 0.95592 0.49983 0.98782 0.0
C769 C 0.96398 0.50526 0.97111 0.0
H770 H 0.96767 0.49942 0.01585 0.0
H771 H 0.99255 0.51592 0.96379 0.0
C772 C 0.01946 0.48576 0.03017 0.0
N773 N 0.05704 0.52612 0.03245 0.0
C774 C 0.06712 0.54216 0.03127 0.0
C775 C 0.06846 0.51397 0.04198 0.0
N776 N 0.08439 0.5404 0.0392 0.0
C777 C 0.08526 0.52269 0.04608 0.0
C778 C 0.00197 0.53296 0.03927 0.0
O779 O 0.00706 0.49027 0.01797 0.0
O780 O 0.03252 0.49739 0.03366 0.0
O781 O 0.02011 0.53272 0.03963 0.0
O782 O 0.99361 0.52536 0.02555 0.0
O783 O 0.03554 0.54434 0.0065 0.0
H784 H 0.06542 0.49933 0.04481 0.0
H785 H 0.0626 0.55456 0.0235 0.0
O786 O 0.00873 0.53824 0.9927 0.0
O787 O 0.02264 0.50322 0.98536 0.0
O788 O 0.04872 0.50885 0.00086 0.0
C789 C 0.04068 0.50188 0.98666 0.0
H790 H 0.95726 0.50491 0.95745 0.0
H791 H 0.09752 0.51619 0.05273 0.0
C792 C 0.0222 0.21396 0.09615 0.0
C793 C 0.02028 0.21596 0.11592 0.0
C794 C 0.02074 0.19622 0.08776 0.0
C795 C 0.00337 0.14733 0.09766 0.0
H796 H 0.03427 0.13534 0.05291 0.0
C797 C 0.01018 0.07177 0.06621 0.0
C798 C 0.00979 0.07033 0.04632 0.0
C799 C 0.01082 0.08945 0.0749 0.0
C800 C 0.0254 0.1385 0.06531 0.0
H801 H 0.01558 0.20081 0.1424 0.0
H802 H 0.01359 0.16993 0.12795 0.0
H803 H 0.03705 0.16604 0.06757 0.0
H804 H 0.00952 0.08651 0.02005 0.0
H805 H 0.01069 0.11715 0.03517 0.0
H806 H 0.99205 0.11954 0.09551 0.0
C807 C 0.01574 0.18204 0.11877 0.0
C808 C 0.02694 0.1562 0.07372 0.0
C809 C 0.01703 0.19979 0.12711 0.0
C810 C 0.00977 0.08702 0.0354 0.0
C811 C 0.0106 0.10463 0.04406 0.0
C812 C 0.00198 0.12956 0.08934 0.0
C813 C 0.01748 0.17995 0.09894 0.0
C814 C 0.01591 0.16095 0.09 0.0
C815 C 0.0113 0.10611 0.06392 0.0
C816 C 0.01291 0.12494 0.073 0.0
H817 H 0.02461 0.22614 0.0871 0.0
H818 H 0.02186 0.19535 0.07245 0.0
H819 H 0.99435 0.15046 0.10995 0.0
H820 H 0.01028 0.05924 0.07507 0.0
H821 H 0.01146 0.09006 0.09022 0.0
C822 C 0.11271 0.7783 0.39882 0.0
C823 C 0.09558 0.78132 0.38918 0.0
C824 C 0.13029 0.78174 0.38972 0.0
C825 C 0.15134 0.78422 0.34156 0.0
H826 H 0.19538 0.80431 0.36646 0.0
C827 C 0.22014 0.79874 0.29966 0.0
C828 C 0.23704 0.79134 0.30734 0.0
C829 C 0.20343 0.79995 0.31072 0.0
C830 C 0.1832 0.7986 0.3594 0.0
H831 H 0.08326 0.7912 0.3629 0.0
H832 H 0.11387 0.79759 0.34716 0.0
H833 H 0.16474 0.80221 0.38384 0.0
H834 H 0.24999 0.78041 0.33292 0.0
H835 H 0.22052 0.78236 0.3523 0.0
H836 H 0.16966 0.78047 0.31721 0.0
C837 C 0.1138 0.79212 0.36156 0.0
C838 C 0.16569 0.79738 0.36932 0.0
C839 C 0.09627 0.78855 0.37059 0.0
C840 C 0.23714 0.7861 0.32661 0.0
C841 C 0.22032 0.78728 0.33771 0.0
C842 C 0.16873 0.78551 0.33167 0.0
C843 C 0.13102 0.78835 0.37086 0.0
C844 C 0.14957 0.7902 0.36046 0.0
C845 C 0.2032 0.79374 0.32969 0.0
C846 C 0.18482 0.79275 0.34044 0.0
H847 H 0.11257 0.77273 0.41318 0.0
H848 H 0.14329 0.77855 0.39722 0.0
H849 H 0.13936 0.77816 0.33446 0.0
H850 H 0.21965 0.80318 0.28493 0.0
H851 H 0.19053 0.80536 0.30428 0.0
C852 C 0.52056 0.82933 0.59093 0.0
C853 C 0.51843 0.8282 0.61079 0.0
C854 C 0.51904 0.84673 0.58143 0.0
C855 C 0.52161 0.89831 0.58963 0.0
H856 H 0.49653 0.90238 0.54126 0.0
C857 C 0.52567 0.96597 0.54394 0.0
C858 C 0.50931 0.97211 0.53428 0.0
C859 C 0.52624 0.94841 0.55305 0.0
C860 C 0.50344 0.90155 0.55483 0.0
H861 H 0.51292 0.84452 0.63622 0.0
H862 H 0.51014 0.87468 0.61977 0.0
H863 H 0.49851 0.8719 0.5575 0.0
H864 H 0.48067 0.96437 0.52664 0.0
H865 H 0.48159 0.93366 0.54276 0.0
H866 H 0.52626 0.92793 0.58719 0.0
C867 C 0.51326 0.86223 0.61146 0.0
C868 C 0.5048 0.88398 0.56405 0.0
C869 C 0.51477 0.84487 0.62092 0.0
C870 C 0.4935 0.96011 0.53394 0.0
C871 C 0.49408 0.94245 0.54309 0.0
C872 C 0.52027 0.91581 0.58042 0.0
C873 C 0.51538 0.86345 0.59157 0.0
C874 C 0.51392 0.88211 0.58159 0.0
C875 C 0.51046 0.93639 0.55285 0.0
C876 C 0.51125 0.9177 0.56285 0.0
H877 H 0.52337 0.81675 0.5827 0.0
H878 H 0.52099 0.84711 0.56615 0.0
H879 H 0.52892 0.89747 0.60298 0.0
H880 H 0.53819 0.97472 0.54444 0.0
H881 H 0.53923 0.94417 0.56008 0.0
C882 C 0.46932 0.26079 0.88645 0.0
C883 C 0.48779 0.26113 0.87825 0.0
C884 C 0.45341 0.26464 0.87544 0.0
C885 C 0.42486 0.2867 0.85222 0.0
H886 H 0.41927 0.26636 0.80184 0.0
C887 C 0.36335 0.31014 0.80403 0.0
C888 C 0.35363 0.29542 0.79549 0.0
C889 C 0.38074 0.30664 0.81285 0.0
C890 C 0.42065 0.27213 0.8159 0.0
H891 H 0.50412 0.26506 0.85201 0.0
H892 H 0.47627 0.27183 0.83274 0.0
H893 H 0.44727 0.25764 0.8202 0.0
H894 H 0.35496 0.26573 0.78862 0.0
H895 H 0.38504 0.25957 0.80423 0.0
H896 H 0.39806 0.30083 0.84815 0.0
C897 C 0.47409 0.26851 0.84766 0.0
C898 C 0.43672 0.26724 0.82634 0.0
C899 C 0.49003 0.26467 0.85869 0.0
C900 C 0.36193 0.27729 0.79539 0.0
C901 C 0.3793 0.27381 0.80411 0.0
C902 C 0.40883 0.29162 0.84178 0.0
C903 C 0.45566 0.2689 0.85601 0.0
C904 C 0.43887 0.27432 0.84469 0.0
C905 C 0.38877 0.28838 0.81314 0.0
C906 C 0.40647 0.28424 0.82359 0.0
H907 H 0.46717 0.25804 0.90149 0.0
H908 H 0.43933 0.2645 0.88218 0.0
H909 H 0.42629 0.29262 0.86622 0.0
H910 H 0.35725 0.32422 0.80435 0.0
H911 H 0.38784 0.31818 0.81955 0.0
C912 C 0.00129 0.79502 0.46378 0.0
C913 C 0.0206 0.79702 0.45828 0.0
C914 C 0.99262 0.80764 0.47653 0.0
C915 C 0.0023 0.84455 0.51145 0.0
H916 H 0.95913 0.87089 0.48941 0.0
C917 C 0.98907 0.92277 0.52063 0.0
C918 C 0.97051 0.93051 0.52017 0.0
C919 C 0.9921 0.90348 0.51874 0.0
C920 C 0.9708 0.86343 0.49614 0.0
H921 H 0.04628 0.81296 0.46256 0.0
H922 H 0.03121 0.83489 0.48492 0.0
H923 H 0.97049 0.84135 0.47574 0.0
H924 H 0.94046 0.92406 0.51846 0.0
H925 H 0.94574 0.89004 0.51515 0.0
H926 H 0.00313 0.86704 0.53135 0.0
C927 C 0.02276 0.8236 0.47942 0.0
C928 C 0.97733 0.8465 0.48826 0.0
C929 C 0.03135 0.81116 0.46651 0.0
C930 C 0.95491 0.91843 0.5188 0.0
C931 C 0.95795 0.89902 0.51682 0.0
C932 C 0.99567 0.86139 0.51942 0.0
C933 C 0.00321 0.82225 0.4842 0.0
C934 C 0.99368 0.83739 0.49531 0.0
C935 C 0.97664 0.89141 0.51637 0.0
C936 C 0.98045 0.87148 0.51125 0.0
H937 H 0.99268 0.7842 0.45765 0.0
H938 H 0.97753 0.8063 0.48002 0.0
H939 H 0.01475 0.83761 0.51731 0.0
H940 H 0.00134 0.93169 0.52209 0.0
H941 H 0.0067 0.89819 0.5182 0.0
C942 C 0.44896 0.78332 0.65772 0.0
C943 C 0.46533 0.77781 0.66767 0.0
C944 C 0.43107 0.78442 0.667 0.0
C945 C 0.40445 0.76633 0.70895 0.0
H946 H 0.36939 0.80783 0.6988 0.0
C947 C 0.32535 0.76487 0.73339 0.0
C948 C 0.31731 0.78131 0.74143 0.0
C949 C 0.34344 0.76509 0.72459 0.0
C950 C 0.37907 0.79622 0.70188 0.0
H951 H 0.47576 0.76918 0.69517 0.0
H952 H 0.44455 0.77102 0.71136 0.0
H953 H 0.40103 0.80709 0.68327 0.0
H954 H 0.32199 0.81096 0.74627 0.0
H955 H 0.35369 0.81133 0.73076 0.0
H956 H 0.38258 0.75547 0.72757 0.0
C957 C 0.44551 0.77439 0.69635 0.0
C958 C 0.39712 0.7957 0.69285 0.0
C959 C 0.46341 0.77341 0.68709 0.0
C960 C 0.32775 0.79806 0.7402 0.0
C961 C 0.34587 0.79829 0.73126 0.0
C962 C 0.38638 0.76679 0.71787 0.0
C963 C 0.42911 0.77992 0.68643 0.0
C964 C 0.41001 0.78071 0.69623 0.0
C965 C 0.35399 0.78175 0.72349 0.0
C966 C 0.37343 0.78168 0.71438 0.0
H967 H 0.44997 0.78682 0.64274 0.0
H968 H 0.4187 0.78852 0.65889 0.0
H969 H 0.41395 0.75451 0.71177 0.0
H970 H 0.31772 0.75172 0.734 0.0
H971 H 0.34913 0.75217 0.7185 0.0
C972 C 0.54079 0.19066 0.91772 0.0
C973 C 0.54617 0.20565 0.92918 0.0
C974 C 0.54272 0.1721 0.9242 0.0
C975 C 0.54402 0.14606 0.96917 0.0
H976 H 0.55677 0.10307 0.93755 0.0
C977 C 0.544 0.07263 0.00132 0.0
C978 C 0.53349 0.0593 0.99155 0.0
C979 C 0.54953 0.08929 0.99238 0.0
C980 C 0.55316 0.11497 0.9465 0.0
H981 H 0.55887 0.21308 0.95579 0.0
H982 H 0.56258 0.18073 0.96696 0.0
H983 H 0.55926 0.13497 0.92427 0.0
H984 H 0.52164 0.05227 0.96441 0.0
H985 H 0.53093 0.08178 0.94884 0.0
H986 H 0.53748 0.12631 0.99122 0.0
C987 C 0.55643 0.18327 0.95319 0.0
C988 C 0.55457 0.13318 0.93893 0.0
C989 C 0.55436 0.20179 0.94678 0.0
C990 C 0.52968 0.06237 0.97228 0.0
C991 C 0.53507 0.07921 0.96335 0.0
C992 C 0.54265 0.12796 0.9767 0.0
C993 C 0.55017 0.16826 0.9422 0.0
C994 C 0.54991 0.1489 0.9502 0.0
C995 C 0.54446 0.0931 0.97356 0.0
C996 C 0.54713 0.11221 0.96547 0.0
H997 H 0.53447 0.19327 0.90405 0.0
H998 H 0.53762 0.16086 0.91547 0.0
H999 H 0.53985 0.15781 0.9781 0.0
H1000 H 0.54744 0.07047 0.0161 0.0
H1001 H 0.55717 0.09954 0.00046 0.0
C1002 C 0.09051 0.26154 0.16509 0.0
C1003 C 0.07332 0.26917 0.17261 0.0
C1004 C 0.10728 0.26178 0.17558 0.0
C1005 C 0.12981 0.28647 0.21513 0.0
H1006 H 0.16432 0.24326 0.21534 0.0
C1007 C 0.2068 0.28949 0.24332 0.0
C1008 C 0.2139 0.27384 0.25347 0.0
C1009 C 0.189 0.2889 0.23471 0.0
C1010 C 0.15476 0.25539 0.21558 0.0
H1011 H 0.06029 0.28297 0.19708 0.0
H1012 H 0.08947 0.28339 0.21533 0.0
H1013 H 0.13472 0.24203 0.19772 0.0
H1014 H 0.20755 0.24541 0.26283 0.0
H1015 H 0.17642 0.24441 0.24786 0.0
H1016 H 0.14981 0.29981 0.23302 0.0
C1017 C 0.09006 0.27735 0.20128 0.0
C1018 C 0.13789 0.25477 0.20528 0.0
C1019 C 0.07329 0.27702 0.19084 0.0
C1020 C 0.20251 0.25774 0.25519 0.0
C1021 C 0.18473 0.25711 0.24645 0.0
C1022 C 0.14673 0.28713 0.22532 0.0
C1023 C 0.1073 0.26975 0.19379 0.0
C1024 C 0.12521 0.27031 0.20489 0.0
C1025 C 0.17785 0.2726 0.2359 0.0
C1026 C 0.15946 0.27163 0.22565 0.0
H1027 H 0.09101 0.25541 0.15107 0.0
H1028 H 0.12033 0.25599 0.16928 0.0
H1029 H 0.12048 0.29876 0.21502 0.0
H1030 H 0.21521 0.3021 0.24162 0.0
H1031 H 0.18427 0.30102 0.22657 0.0
C1032 C 0.13305 0.99839 0.22148 0.0
C1033 C 0.1269 0.9875 0.23712 0.0
C1034 C 0.12359 0.99758 0.20434 0.0
C1035 C 0.08932 0.96989 0.17724 0.0
H1036 H 0.08001 0.01786 0.15211 0.0
C1037 C 0.03647 0.97957 0.11604 0.0
C1038 C 0.0427 0.99051 0.10041 0.0
C1039 C 0.04712 0.97859 0.13252 0.0
C1040 C 0.08267 0.00434 0.15886 0.0
H1041 H 0.10647 0.96675 0.24699 0.0
H1042 H 0.08963 0.96557 0.21706 0.0
H1043 H 0.09822 0.01677 0.1811 0.0
H1044 H 0.06525 0.00878 0.08985 0.0
H1045 H 0.08365 0.00726 0.1187 0.0
H1046 H 0.07343 0.95756 0.15505 0.0
C1047 C 0.10193 0.97456 0.21797 0.0
C1048 C 0.09314 0.00369 0.17544 0.0
C1049 C 0.11151 0.97528 0.23512 0.0
C1050 C 0.05981 0.0005 0.1017 0.0
C1051 C 0.07041 -0.00042 0.11821 0.0
C1052 C 0.07874 0.97056 0.16068 0.0
C1053 C 0.10767 0.98597 0.20251 0.0
C1054 C 0.09665 0.98646 0.18479 0.0
C1055 C 0.06418 0.9886 0.13377 0.0
C1056 C 0.07536 0.98779 0.15132 0.0
H1057 H 0.145 0.00781 0.22257 0.0
H1058 H 0.12863 0.00623 0.19257 0.0
H1059 H 0.09195 0.95637 0.184 0.0
H1060 H 0.02323 0.97193 0.11565 0.0
H1061 H 0.04185 0.97023 0.14441 0.0
C1062 C 0.28569 0.84366 0.48697 0.0
C1063 C 0.26729 0.85148 0.4848 0.0
C1064 C 0.29506 0.83464 0.47178 0.0
C1065 C 0.29493 0.83417 0.41976 0.0
H1066 H 0.32374 0.78735 0.42417 0.0
C1067 C 0.32797 0.80224 0.35349 0.0
C1068 C 0.32356 0.78327 0.35103 0.0
C1069 C 0.32653 0.81026 0.37143 0.0
C1070 C 0.31579 0.80046 0.42275 0.0
H1071 H 0.24387 0.85522 0.46546 0.0
H1072 H 0.26003 0.83924 0.43911 0.0
H1073 H 0.30873 0.80139 0.45251 0.0
H1074 H 0.31561 0.75737 0.36523 0.0
H1075 H 0.31232 0.77145 0.39665 0.0
H1076 H 0.30098 0.833 0.39008 0.0
C1077 C 0.26743 0.84044 0.45236 0.0
C1078 C 0.30731 0.80854 0.43897 0.0
C1079 C 0.25812 0.84948 0.46748 0.0
C1080 C 0.31918 0.77202 0.36694 0.0
C1081 C 0.31736 0.78011 0.38489 0.0
C1082 C 0.30331 0.82613 0.40363 0.0
C1083 C 0.28615 0.83332 0.4542 0.0
C1084 C 0.29644 0.82526 0.43751 0.0
C1085 C 0.32014 0.79953 0.38715 0.0
C1086 C 0.31359 0.80903 0.40484 0.0
H1087 H 0.29308 0.84501 0.50021 0.0
H1088 H 0.30949 0.82931 0.47358 0.0
H1089 H 0.28696 0.84727 0.41824 0.0
H1090 H 0.33155 0.81104 0.34133 0.0
H1091 H 0.32931 0.82513 0.37278 0.0
C1092 C 0.45124 0.05146 0.69911 0.0
C1093 C 0.43207 0.04746 0.70357 0.0
C1094 C 0.45685 0.05578 0.6805 0.0
C1095 C 0.44176 0.04804 0.63185 0.0
H1096 H 0.48385 0.08119 0.61921 0.0
C1097 C 0.50198 0.05054 0.5706 0.0
C1098 C 0.49046 0.04775 0.55487 0.0
C1099 C 0.49369 0.05602 0.58794 0.0
C1100 C 0.47201 0.07199 0.62257 0.0
H1101 H 0.40355 0.04564 0.69244 0.0
H1102 H 0.41325 0.05362 0.65994 0.0
H1103 H 0.47072 0.08029 0.65168 0.0
H1104 H 0.46161 0.0503 0.54432 0.0
H1105 H 0.44724 0.05991 0.57451 0.0
H1106 H 0.44327 0.0394 0.60297 0.0
C1107 C 0.42404 0.05296 0.6707 0.0
C1108 C 0.46455 0.0714 0.64112 0.0
C1109 C 0.41848 0.0484 0.68928 0.0
C1110 C 0.4708 0.05198 0.55632 0.0
C1111 C 0.46256 0.05751 0.57357 0.0
C1112 C 0.44908 0.04876 0.61336 0.0
C1113 C 0.44334 0.0564 0.66605 0.0
C1114 C 0.44965 0.05906 0.64603 0.0
C1115 C 0.4738 0.05884 0.5897 0.0
C1116 C 0.46454 0.06041 0.60864 0.0
H1117 H 0.46198 0.05086 0.70993 0.0
H1118 H 0.47187 0.05802 0.67735 0.0
H1119 H 0.43054 0.03812 0.63518 0.0
H1120 H 0.5172 0.0475 0.56982 0.0
H1121 H 0.50266 0.05686 0.60021 0.0
C1122 C 0.24525 0.18251 0.95763 0.0
C1123 C 0.26039 0.18372 0.9703 0.0
C1124 C 0.24591 0.1921 0.94018 0.0
C1125 C 0.28008 0.214 0.90559 0.0
H1126 H 0.23391 0.23499 0.88397 0.0
C1127 C 0.28128 0.25739 0.8354 0.0
C1128 C 0.26699 0.25352 0.82234 0.0
C1129 C 0.28035 0.24991 0.85388 0.0
C1130 C 0.24692 0.22908 0.88973 0.0
H1131 H 0.28793 0.19629 0.97471 0.0
H1132 H 0.28894 0.21332 0.94444 0.0
H1133 H 0.23251 0.22041 0.91542 0.0
H1134 H 0.24037 0.23887 0.81865 0.0
H1135 H 0.23875 0.22589 0.85079 0.0
H1136 H 0.29447 0.2227 0.87987 0.0
C1137 C 0.27669 0.20468 0.9478 0.0
C1138 C 0.24612 0.22067 0.90779 0.0
C1139 C 0.27605 0.19502 0.96525 0.0
C1140 C 0.25161 0.2422 0.82832 0.0
C1141 C 0.25063 0.23482 0.84681 0.0
C1142 C 0.28089 0.22248 0.88756 0.0
C1143 C 0.26169 0.20322 0.93493 0.0
C1144 C 0.26267 0.21288 0.91595 0.0
C1145 C 0.26505 0.23845 0.85981 0.0
C1146 C 0.2643 0.23002 0.87932 0.0
H1147 H 0.23301 0.17385 0.96104 0.0
H1148 H 0.23421 0.19037 0.93059 0.0
H1149 H 0.29308 0.2079 0.9112 0.0
H1150 H 0.29334 0.26603 0.83131 0.0
H1151 H 0.2916 0.25318 0.86356 0.0
C1152 C 0.102 0.97557 0.33988 0.0
C1153 C 0.10399 0.99102 0.32742 0.0
C1154 C 0.08715 0.97531 0.35355 0.0
C1155 C 0.05815 0.00852 0.38113 0.0
H1156 H 0.02677 0.96585 0.39527 0.0
C1157 C 0.00328 0.01688 0.44072 0.0
C1158 C 0.00312 0.00255 0.4545 0.0
C1159 C 0.01174 0.01376 0.42291 0.0
C1160 C 0.03549 0.97785 0.39152 0.0
H1161 H 0.09145 0.01778 0.31879 0.0
H1162 H 0.06568 0.0173 0.34253 0.0
H1163 H 0.04974 0.96326 0.36852 0.0
H1164 H 0.01043 0.97339 0.46031 0.0
H1165 H 0.026 0.96805 0.42936 0.0
H1166 H 0.0448 0.02296 0.40429 0.0
C1167 C 0.07568 0.00552 0.34194 0.0
C1168 C 0.04861 0.97635 0.37624 0.0
C1169 C 0.09043 0.00577 0.32833 0.0
C1170 C 0.01027 0.9846 0.44978 0.0
C1171 C 0.01918 0.98157 0.43205 0.0
C1172 C 0.04526 0.00997 0.39638 0.0
C1173 C 0.07414 0.99053 0.35497 0.0
C1174 C 0.05999 0.99173 0.37089 0.0
C1175 C 0.02077 0.99641 0.41875 0.0
C1176 C 0.03368 0.99472 0.40177 0.0
H1177 H 0.11222 0.96397 0.33942 0.0
H1178 H 0.08632 0.96363 0.3635 0.0
H1179 H 0.06706 0.02046 0.37762 0.0
H1180 H 0.99771 0.03081 0.44405 0.0
H1181 H 0.01214 0.02531 0.41278 0.0
C1182 C 0.22646 0.83814 0.57778 0.0
C1183 C 0.23003 0.85754 0.57753 0.0
C1184 C 0.22255 0.82881 0.59491 0.0
C1185 C 0.20954 0.83651 0.64558 0.0
H1186 H 0.24091 0.79187 0.65376 0.0
C1187 C 0.23664 0.81348 0.71813 0.0
C1188 C 0.23955 0.79424 0.72199 0.0
C1189 C 0.22986 0.81937 0.70058 0.0
C1190 C 0.23166 0.80403 0.65163 0.0
H1191 H 0.23173 0.88253 0.59479 0.0
H1192 H 0.22528 0.8662 0.62473 0.0
H1193 H 0.23943 0.80571 0.6222 0.0
H1194 H 0.23639 0.76602 0.71107 0.0
H1195 H 0.22445 0.77638 0.68042 0.0
H1196 H 0.2025 0.83525 0.67529 0.0
C1197 C 0.22519 0.85823 0.61171 0.0
C1198 C 0.23083 0.81198 0.63352 0.0
C1199 C 0.22909 0.86755 0.5946 0.0
C1200 C 0.2345 0.78097 0.70841 0.0
C1201 C 0.22769 0.78687 0.69086 0.0
C1202 C 0.21037 0.82855 0.66372 0.0
C1203 C 0.22214 0.83873 0.61207 0.0
C1204 C 0.22027 0.82864 0.63045 0.0
C1205 C 0.22582 0.80615 0.68659 0.0
C1206 C 0.22194 0.81258 0.66702 0.0
H1207 H 0.22693 0.83013 0.56478 0.0
H1208 H 0.2201 0.8138 0.59477 0.0
H1209 H 0.20101 0.84918 0.64352 0.0
H1210 H 0.2403 0.82404 0.72836 0.0
H1211 H 0.22878 0.83433 0.69764 0.0
C1212 C 0.47425 0.0382 0.79784 0.0
C1213 C 0.46298 0.02381 0.79084 0.0
C1214 C 0.48752 0.03427 0.81184 0.0
C1215 C 0.50762 0.99523 0.84207 0.0
H1216 H 0.49934 0.03228 0.88153 0.0
C1217 C 0.50137 0.97854 0.92182 0.0
C1218 C 0.50803 0.99178 0.93465 0.0
C1219 C 0.50294 0.98194 0.9023 0.0
C1220 C 0.50223 0.02195 0.87059 0.0
H1221 H 0.45766 0.99386 0.79165 0.0
H1222 H 0.47989 0.98709 0.8168 0.0
H1223 H 0.49005 0.03971 0.84957 0.0
H1224 H 0.52318 0.01804 0.93716 0.0
H1225 H 0.52565 0.02407 0.90315 0.0
H1226 H 0.51845 0.97697 0.86386 0.0
C1227 C 0.47908 0.00133 0.81125 0.0
C1228 C 0.49698 0.02623 0.85214 0.0
C1229 C 0.46616 0.00521 0.79693 0.0
C1230 C 0.51735 0.00788 0.92762 0.0
C1231 C 0.51894 0.01125 0.90817 0.0
C1232 C 0.51267 0.99085 0.86068 0.0
C1233 C 0.4893 0.01596 0.81947 0.0
C1234 C 0.49896 0.01271 0.83776 0.0
C1235 C 0.51125 0.9986 0.89535 0.0
C1236 C 0.50944 0.00399 0.87518 0.0
H1237 H 0.47228 0.05262 0.79304 0.0
H1238 H 0.49558 0.04577 0.81744 0.0
H1239 H 0.5097 0.98462 0.83126 0.0
H1240 H 0.49419 0.96602 0.9269 0.0
H1241 H 0.49668 0.97205 0.89273 0.0
C1242 C 0.26367 0.19564 0.07456 0.0
C1243 C 0.26067 0.17622 0.07298 0.0
C1244 C 0.26554 0.20387 0.09242 0.0
C1245 C 0.27657 0.19188 0.14266 0.0
H1246 H 0.25523 0.24155 0.15257 0.0
C1247 C 0.27245 0.22488 0.21804 0.0
C1248 C 0.27594 0.24426 0.21936 0.0
C1249 C 0.27135 0.21627 0.20027 0.0
C1250 C 0.26148 0.22775 0.14999 0.0
H1251 H 0.25695 0.15026 0.08896 0.0
H1252 H 0.25981 0.1646 0.12002 0.0
H1253 H 0.2513 0.22738 0.1216 0.0
H1254 H 0.28158 0.26964 0.2029 0.0
H1255 H 0.27986 0.25465 0.17211 0.0
H1256 H 0.2866 0.19223 0.17118 0.0
C1257 C 0.26112 0.17348 0.1075 0.0
C1258 C 0.25923 0.21961 0.13218 0.0
C1259 C 0.25931 0.16527 0.08967 0.0
C1260 C 0.27883 0.25469 0.20249 0.0
C1261 C 0.27767 0.24612 0.18477 0.0
C1262 C 0.27876 0.2 0.16052 0.0
C1263 C 0.26441 0.19288 0.10916 0.0
C1264 C 0.26676 0.20156 0.12822 0.0
C1265 C 0.27362 0.22686 0.18339 0.0
C1266 C 0.27129 0.21808 0.16441 0.0
H1267 H 0.26489 0.20446 0.06198 0.0
H1268 H 0.26829 0.2188 0.09306 0.0
H1269 H 0.28286 0.17809 0.1401 0.0
H1270 H 0.27005 0.21643 0.23073 0.0
H1271 H 0.26809 0.20144 0.19976 0.0
C1272 C 0.19412 0.12332 0.02786 0.0
C1273 C 0.21177 0.11605 0.02112 0.0
C1274 C 0.17767 0.11234 0.02778 0.0
C1275 C 0.15671 0.07153 0.00439 0.0
H1276 H 0.12083 0.07271 0.04717 0.0
C1277 C 0.07916 0.04422 0.00094 0.0
C1278 C 0.07152 0.03471 0.01692 0.0
C1279 C 0.09721 0.05242 0.00145 0.0
C1280 C 0.13078 0.07207 0.03517 0.0
H1281 H 0.22599 0.09148 0.00905 0.0
H1282 H 0.19725 0.07231 0.00883 0.0
H1283 H 0.15041 0.09039 0.04842 0.0
H1284 H 0.07719 0.02594 0.04584 0.0
H1285 H 0.10869 0.04025 0.04671 0.0
H1286 H 0.13699 0.05328 0.9911 0.0
C1287 C 0.19612 0.08655 0.01411 0.0
C1288 C 0.14764 0.08238 0.03581 0.0
C1289 C 0.21261 0.0975 0.01434 0.0
C1290 C 0.08263 0.03313 0.03325 0.0
C1291 C 0.10063 0.04146 0.03381 0.0
C1292 C 0.13975 0.06134 0.00369 0.0
C1293 C 0.17843 0.09384 0.02083 0.0
C1294 C 0.16078 0.08233 0.02039 0.0
C1295 C 0.10803 0.05145 0.01801 0.0
C1296 C 0.12652 0.06155 0.01904 0.0
H1297 H 0.19298 0.13756 0.03316 0.0
H1298 H 0.16426 0.11847 0.03285 0.0
H1299 H 0.16644 0.07129 0.99221 0.0
H1300 H 0.07098 0.04576 0.98814 0.0
H1301 H 0.10238 0.06013 0.98908 0.0
C1302 C 0.68185 0.39972 0.01458 0.0
C1303 C 0.69886 0.40985 0.01566 0.0
C1304 C 0.66428 0.40921 0.01348 0.0
C1305 C 0.64202 0.45496 0.02529 0.0
H1306 H 0.6009 0.43818 0.99392 0.0
C1307 C 0.57461 0.49981 0.01286 0.0
C1308 C 0.55695 0.49067 0.01406 0.0
C1309 C 0.59165 0.48944 0.01295 0.0
C1310 C 0.61222 0.44288 0.00288 0.0
H1311 H 0.71102 0.43774 0.01558 0.0
H1312 H 0.68044 0.4543 0.01326 0.0
H1313 H 0.63149 0.42108 0.99335 0.0
H1314 H 0.54327 0.4635 0.0162 0.0
H1315 H 0.57322 0.44533 0.01637 0.0
H1316 H 0.62286 0.47683 0.0347 0.0
C1317 C 0.68058 0.43906 0.01372 0.0
C1318 C 0.6297 0.43312 0.00256 0.0
C1319 C 0.6981 0.42958 0.01492 0.0
C1320 C 0.55667 0.47093 0.01531 0.0
C1321 C 0.57378 0.46053 0.01529 0.0
C1322 C 0.62462 0.46474 0.02555 0.0
C1323 C 0.66346 0.42899 0.01338 0.0
C1324 C 0.64482 0.43915 0.01367 0.0
C1325 C 0.59141 0.46971 0.01416 0.0
C1326 C 0.60959 0.45887 0.01428 0.0
H1327 H 0.68204 0.38448 0.01516 0.0
H1328 H 0.65132 0.40107 0.01337 0.0
H1329 H 0.65324 0.4597 0.03435 0.0
H1330 H 0.5753 0.515 0.01181 0.0
H1331 H 0.60505 0.49686 0.01182 0.0
C1332 C 0.84037 0.48826 0.25002 0.0
C1333 C 0.84343 0.50326 0.26231 0.0
C1334 C 0.82668 0.47485 0.25456 0.0
C1335 C 0.80561 0.45252 0.29605 0.0
H1336 H 0.7786 0.42507 0.25794 0.0
C1337 C 0.77596 0.37813 0.31002 0.0
C1338 C 0.78272 0.36514 0.29638 0.0
C1339 C 0.77758 0.39746 0.30673 0.0
C1340 C 0.78589 0.43271 0.26878 0.0
H1341 H 0.83397 0.51665 0.28848 0.0
H1342 H 0.81002 0.49293 0.29658 0.0
H1343 H 0.79127 0.45611 0.2502 0.0
H1344 H 0.79655 0.36247 0.2686 0.0
H1345 H 0.79913 0.396 0.26284 0.0
H1346 H 0.80112 0.42868 0.31428 0.0
C1347 C 0.81827 0.49159 0.28345 0.0
C1348 C 0.79312 0.45043 0.26437 0.0
C1349 C 0.83194 0.50513 0.27882 0.0
C1350 C 0.79086 0.37196 0.27929 0.0
C1351 C 0.7923 0.39122 0.27594 0.0
C1352 C 0.79831 0.43481 0.30048 0.0
C1353 C 0.81581 0.47612 0.27154 0.0
C1354 C 0.80388 0.46007 0.27766 0.0
C1355 C 0.78579 0.40415 0.28966 0.0
C1356 C 0.78922 0.4244 0.28657 0.0
H1357 H 0.84896 0.48655 0.23714 0.0
H1358 H 0.82535 0.46293 0.24524 0.0
H1359 H 0.81394 0.45956 0.30654 0.0
H1360 H 0.76933 0.37342 0.32321 0.0
H1361 H 0.77247 0.40718 0.31752 0.0
C1362 C 0.83266 0.62698 0.50832 0.0
C1363 C 0.81641 0.61871 0.51679 0.0
C1364 C 0.85005 0.61702 0.5071 0.0
C1365 C 0.87653 0.57808 0.52976 0.0
H1366 H 0.9092 0.58085 0.4846 0.0
C1367 C 0.95562 0.55447 0.52979 0.0
C1368 C 0.96274 0.54392 0.51431 0.0
C1369 C 0.93745 0.56283 0.52941 0.0
C1370 C 0.90018 0.57982 0.49725 0.0
H1371 H 0.8056 0.59344 0.53046 0.0
H1372 H 0.83598 0.57607 0.52841 0.0
H1373 H 0.87787 0.59659 0.48495 0.0
H1374 H 0.95632 0.53409 0.48617 0.0
H1375 H 0.92448 0.54885 0.48548 0.0
H1376 H 0.8988 0.56137 0.54209 0.0
C1377 C 0.8353 0.5903 0.5228 0.0
C1378 C 0.88231 0.58898 0.49752 0.0
C1379 C 0.81788 0.60022 0.52391 0.0
C1380 C 0.95126 0.5421 0.49833 0.0
C1381 C 0.93307 0.55062 0.4979 0.0
C1382 C 0.89442 0.56905 0.52953 0.0
C1383 C 0.85162 0.5986 0.51444 0.0
C1384 C 0.87032 0.58831 0.51382 0.0
C1385 C 0.92591 0.56098 0.51351 0.0
C1386 C 0.90653 0.56992 0.51334 0.0
H1387 H 0.83199 0.64121 0.50269 0.0
H1388 H 0.86238 0.62391 0.50078 0.0
H1389 H 0.86773 0.5774 0.54259 0.0
H1390 H 0.96407 0.55622 0.54232 0.0
H1391 H 0.93249 0.57095 0.54154 0.0
C1392 C 0.18557 0.05198 0.31454 0.0
C1393 C 0.17071 0.04964 0.30177 0.0
C1394 C 0.19385 0.06959 0.31658 0.0
C1395 C 0.18639 0.12036 0.30741 0.0
H1396 H 0.24177 0.12146 0.30418 0.0
C1397 C 0.22762 0.18844 0.29143 0.0
C1398 C 0.24445 0.19135 0.30143 0.0
C1399 C 0.21825 0.17126 0.29283 0.0
C1400 C 0.22631 0.12139 0.30538 0.0
H1401 H 0.15236 0.06389 0.28165 0.0
H1402 H 0.16681 0.09459 0.2852 0.0
H1403 H 0.22564 0.09132 0.30524 0.0
H1404 H 0.26475 0.17835 0.32051 0.0
H1405 H 0.24818 0.1486 0.3233 0.0
H1406 H 0.18706 0.15044 0.30738 0.0
C1407 C 0.17201 0.08289 0.2937 0.0
C1408 C 0.21708 0.10413 0.30601 0.0
C1409 C 0.16382 0.0653 0.29159 0.0
C1410 C 0.25171 0.17668 0.3128 0.0
C1411 C 0.24233 0.15953 0.31423 0.0
C1412 C 0.19562 0.13763 0.30684 0.0
C1413 C 0.1873 0.08515 0.30598 0.0
C1414 C 0.19703 0.10345 0.30683 0.0
C1415 C 0.2255 0.15664 0.30427 0.0
C1416 C 0.21568 0.13833 0.30561 0.0
H1417 H 0.19112 0.04013 0.32259 0.0
H1418 H 0.2055 0.071 0.32629 0.0
H1419 H 0.17091 0.12022 0.30825 0.0
H1420 H 0.22152 0.1995 0.2827 0.0
H1421 H 0.20544 0.16938 0.28478 0.0
C1422 C 0.28993 0.93519 0.5099 0.0
C1423 C 0.28568 0.9251 0.52664 0.0
C1424 C 0.30519 0.94756 0.50909 0.0
C1425 C 0.35077 0.95646 0.53197 0.0
H1426 H 0.34966 0.00135 0.50024 0.0
C1427 C 0.41678 0.0032 0.51979 0.0
C1428 C 0.42141 0.00652 0.50051 0.0
C1429 C 0.39908 0.9958 0.52521 0.0
C1430 C 0.35012 0.98888 0.50918 0.0
H1431 H 0.29357 0.92049 0.5559 0.0
H1432 H 0.32011 0.94245 0.55462 0.0
H1433 H 0.32029 0.98394 0.50622 0.0
H1434 H 0.41068 0.0049 0.4719 0.0
H1435 H 0.37981 0.99236 0.48143 0.0
H1436 H 0.38069 0.96134 0.53471 0.0
C1437 C 0.31186 0.94052 0.54199 0.0
C1438 C 0.33336 0.97887 0.51256 0.0
C1439 C 0.29663 0.92801 0.54276 0.0
C1440 C 0.40764 0.0028 0.48687 0.0
C1441 C 0.3899 0.99559 0.49232 0.0
C1442 C 0.3675 0.96658 0.52873 0.0
C1443 C 0.31646 0.95025 0.52506 0.0
C1444 C 0.3336 0.96226 0.52357 0.0
C1445 C 0.38556 0.99179 0.5115 0.0
C1446 C 0.36741 0.9826 0.51692 0.0
H1447 H 0.28175 0.93318 0.49723 0.0
H1448 H 0.30853 0.95455 0.49572 0.0
H1449 H 0.35154 0.94361 0.54032 0.0
H1450 H 0.4268 0.00625 0.53076 0.0
H1451 H 0.39599 0.99314 0.54012 0.0
C1452 C 0.85408 0.59912 0.23661 0.0
C1453 C 0.87244 0.59457 0.24293 0.0
C1454 C 0.84916 0.61772 0.23233 0.0
C1455 C 0.86208 0.66553 0.24454 0.0
H1456 H 0.82569 0.67865 0.20572 0.0
C1457 C 0.82674 0.73786 0.2441 0.0
C1458 C 0.80671 0.73667 0.24514 0.0
C1459 C 0.8378 0.72255 0.23791 0.0
C1460 C 0.836 0.6752 0.21648 0.0
H1461 H 0.9003 0.60562 0.24918 0.0
H1462 H 0.89176 0.63817 0.24154 0.0
H1463 H 0.84002 0.64707 0.20642 0.0
H1464 H 0.78247 0.71919 0.23905 0.0
H1465 H 0.8018 0.69234 0.22859 0.0
H1466 H 0.85752 0.69328 0.25511 0.0
C1467 C 0.88108 0.62743 0.24016 0.0
C1468 C 0.84412 0.65716 0.21695 0.0
C1469 C 0.88595 0.60883 0.24456 0.0
C1470 C 0.79789 0.72044 0.23856 0.0
C1471 C 0.80896 0.70513 0.23238 0.0
C1472 C 0.85405 0.68354 0.24402 0.0
C1473 C 0.86258 0.63208 0.23417 0.0
C1474 C 0.85668 0.65196 0.23143 0.0
C1475 C 0.82901 0.70582 0.23267 0.0
C1476 C 0.84041 0.68832 0.23042 0.0
H1477 H 0.84342 0.58835 0.23517 0.0
H1478 H 0.83467 0.62091 0.22813 0.0
H1479 H 0.87154 0.66191 0.256 0.0
H1480 H 0.83393 0.75031 0.24882 0.0
H1481 H 0.85323 0.72349 0.23804 0.0
C1482 C 0.71372 0.46376 0.77954 0.0
C1483 C 0.69973 0.46288 0.79413 0.0
C1484 C 0.72973 0.45185 0.77983 0.0
C1485 C 0.75773 0.41842 0.80916 0.0
H1486 H 0.76235 0.39064 0.76221 0.0
C1487 C 0.78383 0.34191 0.80471 0.0
C1488 C 0.7892 0.33471 0.78689 0.0
C1489 C 0.77984 0.36113 0.80672 0.0
C1490 C 0.76188 0.3985 0.77529 0.0
H1491 H 0.692 0.44965 0.82101 0.0
H1492 H 0.71993 0.42854 0.82138 0.0
H1493 H 0.74164 0.41799 0.76388 0.0
H1494 H 0.79724 0.34182 0.75792 0.0
H1495 H 0.79179 0.37555 0.76171 0.0
H1496 H 0.77771 0.39851 0.8207 0.0
C1497 C 0.71858 0.43859 0.80982 0.0
C1498 C 0.74981 0.41422 0.77625 0.0
C1499 C 0.70251 0.45053 0.80952 0.0
C1500 C 0.79295 0.34714 0.77176 0.0
C1501 C 0.78957 0.36641 0.77392 0.0
C1502 C 0.77007 0.40274 0.80814 0.0
C1503 C 0.73208 0.43881 0.79472 0.0
C1504 C 0.74717 0.42402 0.79331 0.0
C1505 C 0.78157 0.37343 0.791 0.0
C1506 C 0.77183 0.39222 0.79134 0.0
H1507 H 0.71208 0.47331 0.7676 0.0
H1508 H 0.74001 0.45246 0.76812 0.0
H1509 H 0.7561 0.42588 0.82244 0.0
H1510 H 0.78071 0.33249 0.81653 0.0
H1511 H 0.77371 0.36589 0.82011 0.0
C1512 C 0.01681 0.82618 0.94331 0.0
C1513 C 0.0121 0.82444 0.92413 0.0
C1514 C 0.01803 0.844 0.95161 0.0
C1515 C 0.00337 0.8943 0.94484 0.0
H1516 H 0.04373 0.90374 0.9801 0.0
C1517 C 0.01815 0.96938 0.97206 0.0
C1518 C 0.02208 0.97114 0.99144 0.0
C1519 C 0.01756 0.95159 0.96364 0.0
C1520 C 0.03226 0.90133 0.97042 0.0
H1521 H 0.00492 0.84011 0.89868 0.0
H1522 H 0.0072 0.87102 0.913 0.0
H1523 H 0.04096 0.87258 0.9663 0.0
H1524 H 0.02881 0.95542 0.01703 0.0
H1525 H 0.02775 0.92456 0.00241 0.0
H1526 H 0.99468 0.92304 0.94894 0.0
C1527 C 0.0097 0.85869 0.92179 0.0
C1528 C 0.03063 0.8834 0.96252 0.0
C1529 C 0.00849 0.84091 0.91352 0.0
C1530 C 0.02583 0.95466 0.00205 0.0
C1531 C 0.02529 0.93691 0.99363 0.0
C1532 C 0.00501 0.91223 0.95272 0.0
C1533 C 0.01456 0.86053 0.94094 0.0
C1534 C 0.01616 0.87961 0.9496 0.0
C1535 C 0.02094 0.93507 0.97435 0.0
C1536 C 0.01947 0.91602 0.96563 0.0
H1537 H 0.01967 0.81378 0.9519 0.0
H1538 H 0.02156 0.8448 0.96645 0.0
H1539 H 0.99185 0.8919 0.93521 0.0
H1540 H 0.01517 0.98174 0.96345 0.0
H1541 H 0.01444 0.95078 0.9487 0.0
C1542 C 0.93686 0.25836 0.64187 0.0
C1543 C 0.9537 0.25975 0.65218 0.0
C1544 C 0.91934 0.25569 0.65134 0.0
C1545 C 0.89707 0.24216 0.69746 0.0
H1546 H 0.85864 0.27975 0.68467 0.0
C1547 C 0.8376 0.26558 0.74993 0.0
C1548 C 0.81953 0.27022 0.74286 0.0
C1549 C 0.85279 0.26115 0.7375 0.0
C1550 C 0.86901 0.26889 0.6882 0.0
H1551 H 0.96568 0.25845 0.68027 0.0
H1552 H 0.93514 0.25384 0.69678 0.0
H1553 H 0.88736 0.27651 0.66479 0.0
H1554 H 0.80301 0.27332 0.7173 0.0
H1555 H 0.82946 0.26536 0.69566 0.0
H1556 H 0.87891 0.23485 0.72116 0.0
C1557 C 0.93543 0.25473 0.68143 0.0
C1558 C 0.88546 0.26703 0.67679 0.0
C1559 C 0.95289 0.25753 0.67199 0.0
C1560 C 0.81684 0.27002 0.72317 0.0
C1561 C 0.83199 0.26548 0.71076 0.0
C1562 C 0.88056 0.24395 0.70884 0.0
C1563 C 0.91845 0.25421 0.67124 0.0
C1564 C 0.89985 0.25398 0.68159 0.0
C1565 C 0.85017 0.26116 0.71778 0.0
C1566 C 0.8666 0.25767 0.70459 0.0
H1567 H 0.93713 0.25994 0.62657 0.0
H1568 H 0.90644 0.25521 0.64317 0.0
H1569 H 0.90788 0.23183 0.70132 0.0
H1570 H 0.84009 0.26559 0.76504 0.0
H1571 H 0.86671 0.25817 0.74334 0.0
C1572 C 0.53022 0.21273 0.41827 0.0
C1573 C 0.51494 0.22542 0.42171 0.0
C1574 C 0.53008 0.19461 0.42629 0.0
C1575 C 0.49857 0.15736 0.4422 0.0
H1576 H 0.54096 0.13894 0.4719 0.0
C1577 C 0.49587 0.08452 0.47977 0.0
C1578 C 0.513 0.07447 0.48275 0.0
C1579 C 0.4961 0.10295 0.47253 0.0
C1580 C 0.52913 0.1436 0.46334 0.0
H1581 H 0.48746 0.229 0.43612 0.0
H1582 H 0.48692 0.19701 0.44962 0.0
H1583 H 0.54147 0.17083 0.45887 0.0
H1584 H 0.54384 0.07577 0.48001 0.0
H1585 H 0.54433 0.1074 0.46641 0.0
H1586 H 0.48652 0.13008 0.44572 0.0
C1587 C 0.49912 0.20126 0.44094 0.0
C1588 C 0.52939 0.16201 0.45602 0.0
C1589 C 0.49947 0.21956 0.43329 0.0
C1590 C 0.53038 0.08317 0.47798 0.0
C1591 C 0.53062 0.10147 0.47034 0.0
C1592 C 0.49848 0.13881 0.44914 0.0
C1593 C 0.51445 0.18861 0.43754 0.0
C1594 C 0.51408 0.16912 0.44546 0.0
C1595 C 0.51349 0.11178 0.46764 0.0
C1596 C 0.51372 0.1316 0.45993 0.0
H1597 H 0.54236 0.21684 0.40943 0.0
H1598 H 0.54204 0.18514 0.42337 0.0
H1599 H 0.48668 0.1624 0.43389 0.0
H1600 H 0.48222 0.07831 0.4835 0.0
H1601 H 0.48257 0.11035 0.47117 0.0
C1602 C 0.57362 0.78619 0.16431 0.0
C1603 C 0.55514 0.7811 0.17036 0.0
C1604 C 0.58864 0.78557 0.17695 0.0
C1605 C 0.61664 0.79022 0.20863 0.0
H1606 H 0.62139 0.74365 0.23741 0.0
C1607 C 0.68218 0.77424 0.25403 0.0
C1608 C 0.69067 0.75643 0.25103 0.0
C1609 C 0.66394 0.77834 0.2474 0.0
C1610 C 0.62021 0.75674 0.22951 0.0
H1611 H 0.53765 0.77212 0.19451 0.0
H1612 H 0.56401 0.77099 0.21665 0.0
H1613 H 0.59253 0.75001 0.21953 0.0
H1614 H 0.68645 0.72879 0.23923 0.0
H1615 H 0.65462 0.73592 0.22761 0.0
H1616 H 0.64466 0.79659 0.2179 0.0
C1617 C 0.56686 0.77533 0.2021 0.0
C1618 C 0.60362 0.76048 0.21944 0.0
C1619 C 0.55179 0.77605 0.18946 0.0
C1620 C 0.68025 0.74257 0.2419 0.0
C1621 C 0.66199 0.74666 0.23528 0.0
C1622 C 0.6332 0.78651 0.21874 0.0
C1623 C 0.58549 0.77977 0.19587 0.0
C1624 C 0.60188 0.77706 0.20854 0.0
C1625 C 0.6538 0.76468 0.23768 0.0
C1626 C 0.63533 0.76954 0.22892 0.0
H1627 H 0.57659 0.79016 0.14967 0.0
H1628 H 0.60289 0.78886 0.17169 0.0
H1629 H 0.61558 0.80319 0.20049 0.0
H1630 H 0.68965 0.78509 0.26141 0.0
H1631 H 0.65784 0.79225 0.24971 0.0
C1632 C 0.02442 0.21317 0.59672 0.0
C1633 C 0.02344 0.23159 0.58944 0.0
C1634 C 0.03067 0.1984 0.58523 0.0
C1635 C 0.03252 0.18361 0.53619 0.0
H1636 H 0.06225 0.14227 0.55731 0.0
C1637 C 0.04104 0.11125 0.49946 0.0
C1638 C 0.03544 0.09644 0.5116 0.0
C1639 C 0.04429 0.12912 0.50677 0.0
C1640 C 0.05408 0.15378 0.55116 0.0
H1641 H 0.02845 0.24914 0.56454 0.0
H1642 H 0.03923 0.22305 0.54421 0.0
H1643 H 0.05964 0.172 0.57428 0.0
H1644 H 0.02966 0.08834 0.54086 0.0
H1645 H 0.03531 0.11942 0.55363 0.0
H1646 H 0.02627 0.16503 0.51348 0.0
C1647 C 0.03519 0.22015 0.55886 0.0
C1648 C 0.05257 0.17075 0.56085 0.0
C1649 C 0.02904 0.23503 0.57047 0.0
C1650 C 0.0337 0.0996 0.53118 0.0
C1651 C 0.03719 0.11731 0.5385 0.0
C1652 C 0.03409 0.16661 0.52644 0.0
C1653 C 0.03602 0.20169 0.56617 0.0
C1654 C 0.04108 0.18552 0.55389 0.0
C1655 C 0.04233 0.13228 0.52636 0.0
C1656 C 0.0442 0.15131 0.53429 0.0
H1657 H 0.02023 0.2101 0.61131 0.0
H1658 H 0.03079 0.18428 0.59116 0.0
H1659 H 0.02351 0.19475 0.53053 0.0
H1660 H 0.0424 0.10913 0.4843 0.0
H1661 H 0.04822 0.14047 0.49714 0.0
C1662 C 0.58604 0.27567 0.38024 0.0
C1663 C 0.56968 0.27847 0.3693 0.0
C1664 C 0.60425 0.27496 0.37159 0.0
C1665 C 0.63135 0.2908 0.3295 0.0
H1666 H 0.66737 0.25099 0.34261 0.0
C1667 C 0.7117 0.29281 0.30833 0.0
C1668 C 0.71968 0.27638 0.30023 0.0
C1669 C 0.6933 0.29276 0.31653 0.0
C1670 C 0.65743 0.26214 0.33876 0.0
H1671 H 0.55959 0.28286 0.34074 0.0
H1672 H 0.59147 0.28199 0.32566 0.0
H1673 H 0.63529 0.25149 0.35731 0.0
H1674 H 0.71466 0.24693 0.29467 0.0
H1675 H 0.68259 0.24677 0.30936 0.0
H1676 H 0.65354 0.30159 0.31113 0.0
C1677 C 0.59017 0.28026 0.34092 0.0
C1678 C 0.63914 0.26251 0.34727 0.0
C1679 C 0.57193 0.28069 0.34954 0.0
C1680 C 0.70891 0.25982 0.30076 0.0
C1681 C 0.6906 0.2597 0.30923 0.0
C1682 C 0.64972 0.2906 0.32121 0.0
C1683 C 0.60652 0.27731 0.35184 0.0
C1684 C 0.6259 0.27683 0.34271 0.0
C1685 C 0.68254 0.27621 0.31707 0.0
C1686 C 0.66296 0.27627 0.32575 0.0
H1687 H 0.58477 0.27388 0.39549 0.0
H1688 H 0.61659 0.27283 0.38039 0.0
H1689 H 0.62149 0.30207 0.3258 0.0
H1690 H 0.71959 0.30582 0.30814 0.0
H1691 H 0.68754 0.30564 0.32262 0.0
C1692 C 0.50974 0.83839 0.0997 0.0
C1693 C 0.49945 0.83017 0.11487 0.0
C1694 C 0.50453 0.85611 0.09283 0.0
C1695 C 0.48364 0.88754 0.07331 0.0
H1696 H 0.47311 0.92941 0.10702 0.0
C1697 C 0.47543 0.96099 0.04211 0.0
C1698 C 0.48653 0.97451 0.05091 0.0
C1699 C 0.47111 0.94415 0.05147 0.0
C1700 C 0.47595 0.91784 0.09743 0.0
H1701 H 0.47585 0.83409 0.13502 0.0
H1702 H 0.4666 0.86522 0.12284 0.0
H1703 H 0.47833 0.89791 0.1203 0.0
H1704 H 0.50069 0.98171 0.07684 0.0
H1705 H 0.4939 0.95205 0.09288 0.0
H1706 H 0.48257 0.90735 0.05053 0.0
C1707 C 0.47877 0.85794 0.11638 0.0
C1708 C 0.47877 0.89978 0.10502 0.0
C1709 C 0.48404 0.84015 0.1233 0.0
C1710 C 0.49212 0.97149 0.06971 0.0
C1711 C 0.48809 0.95451 0.07895 0.0
C1712 C 0.48096 0.90551 0.06575 0.0
C1713 C 0.48883 0.86597 0.1009 0.0
C1714 C 0.48325 0.88459 0.09303 0.0
C1715 C 0.47817 0.94035 0.06965 0.0
C1716 C 0.47761 0.92099 0.07772 0.0
H1717 H 0.52177 0.83108 0.09301 0.0
H1718 H 0.51286 0.86212 0.08119 0.0
H1719 H 0.48666 0.87601 0.06369 0.0
H1720 H 0.47067 0.96312 0.02772 0.0
H1721 H 0.463 0.93374 0.0441 0.0
C1722 C 0.96053 0.78169 0.84876 0.0
C1723 C 0.96188 0.77175 0.86602 0.0
C1724 C 0.94349 0.78191 0.83869 0.0
C1725 C 0.89132 0.77177 0.84463 0.0
H1726 H 0.89252 0.77325 0.7896 0.0
C1727 C 0.82436 0.75823 0.80105 0.0
C1728 C 0.82012 0.77133 0.78659 0.0
C1729 C 0.842 0.75838 0.80995 0.0
C1730 C 0.89197 0.77298 0.80497 0.0
H1731 H 0.94652 0.75393 0.88607 0.0
H1732 H 0.9171 0.75369 0.8683 0.0
H1733 H 0.92248 0.77303 0.80671 0.0
H1734 H 0.83145 0.79451 0.76979 0.0
H1735 H 0.86255 0.79447 0.78516 0.0
H1736 H 0.86082 0.77119 0.84279 0.0
C1737 C 0.92894 0.76185 0.86271 0.0
C1738 C 0.90915 0.77292 0.81484 0.0
C1739 C 0.94589 0.76185 0.87289 0.0
C1740 C 0.83425 0.78421 0.78084 0.0
C1741 C 0.85207 0.78417 0.78961 0.0
C1742 C 0.87421 0.77156 0.83477 0.0
C1743 C 0.9274 0.77199 0.84551 0.0
C1744 C 0.9091 0.77226 0.83485 0.0
C1745 C 0.85599 0.77147 0.80451 0.0
C1746 C 0.87431 0.7721 0.81483 0.0
H1747 H 0.97258 0.78955 0.84314 0.0
H1748 H 0.94288 0.79014 0.82571 0.0
H1749 H 0.89053 0.77174 0.85999 0.0
H1750 H 0.81385 0.74812 0.8059 0.0
H1751 H 0.84466 0.74826 0.82121 0.0
C1752 C 0.91581 0.07355 0.8054 0.0
C1753 C 0.90866 0.05678 0.79818 0.0
C1754 C 0.92539 0.07344 0.82259 0.0
C1755 C 0.93153 0.04511 0.86636 0.0
H1756 H 0.97768 0.07404 0.87124 0.0
C1757 C 0.98217 0.03522 0.92915 0.0
C1758 C 0.98945 0.05159 0.93716 0.0
C1759 C 0.97196 0.03623 0.91238 0.0
C1760 C 0.96469 0.06605 0.87015 0.0
H1761 H 0.906 0.02675 0.80314 0.0
H1762 H 0.92291 0.0265 0.8329 0.0
H1763 H 0.96042 0.07534 0.84157 0.0
H1764 H 0.99131 0.08192 0.93396 0.0
H1765 H 0.97365 0.08364 0.90467 0.0
H1766 H 0.93591 0.03569 0.89487 0.0
C1767 C 0.92087 0.03979 0.82551 0.0
C1768 C 0.9548 0.06681 0.85318 0.0
C1769 C 0.91129 0.03992 0.80839 0.0
C1770 C 0.98623 0.06899 0.92803 0.0
C1771 C 0.97607 0.07 0.91124 0.0
C1772 C 0.94145 0.04431 0.8833 0.0
C1773 C 0.92798 0.05655 0.83284 0.0
C1774 C 0.93817 0.05627 0.85106 0.0
C1775 C 0.96885 0.05363 0.90323 0.0
C1776 C 0.95817 0.0547 0.88534 0.0
H1777 H 0.91392 0.08676 0.79783 0.0
H1778 H 0.93055 0.08661 0.82796 0.0
H1779 H 0.91857 0.03708 0.86529 0.0
H1780 H 0.98461 0.02157 0.93565 0.0
H1781 H 0.96678 0.02334 0.90639 0.0
C1782 C 0.74349 0.23134 0.55898 0.0
C1783 C 0.76056 0.22073 0.55989 0.0
C1784 C 0.73894 0.24467 0.57287 0.0
C1785 C 0.75867 0.27265 0.61123 0.0
H1786 H 0.71114 0.26205 0.63847 0.0
C1787 C 0.73306 0.27412 0.69198 0.0
C1788 C 0.7371 0.29257 0.69729 0.0
C1789 C 0.73211 0.26947 0.67287 0.0
C1790 C 0.72428 0.26539 0.6308 0.0
H1791 H 0.78672 0.21636 0.57529 0.0
H1792 H 0.77888 0.2398 0.59944 0.0
H1793 H 0.71814 0.24687 0.60806 0.0
H1794 H 0.74269 0.32082 0.68704 0.0
H1795 H 0.74151 0.31256 0.65334 0.0
H1796 H 0.76523 0.29045 0.63445 0.0
C1797 C 0.76902 0.23781 0.58803 0.0
C1798 C 0.72825 0.25681 0.6134 0.0
C1799 C 0.77344 0.22431 0.57432 0.0
C1800 C 0.73942 0.30652 0.68321 0.0
C1801 C 0.73883 0.3018 0.66403 0.0
C1802 C 0.7546 0.28143 0.62851 0.0
C1803 C 0.75155 0.24779 0.58767 0.0
C1804 C 0.74579 0.25982 0.60384 0.0
C1805 C 0.73549 0.28316 0.65874 0.0
C1806 C 0.7377 0.2773 0.63877 0.0
H1807 H 0.73332 0.22886 0.54796 0.0
H1808 H 0.7254 0.25222 0.57231 0.0
H1809 H 0.77225 0.27524 0.60404 0.0
H1810 H 0.73113 0.2632 0.70265 0.0
H1811 H 0.72974 0.25495 0.66915 0.0
C1812 C 0.61567 0.99689 0.34207 0.0
C1813 C 0.60869 -0.00088 0.32369 0.0
C1814 C 0.60343 0.99187 0.35703 0.0
C1815 C 0.5541 0.99524 0.37296 0.0
H1816 H 0.57238 0.96206 0.41288 0.0
C1817 C 0.51699 0.99413 0.44585 0.0
C1818 C 0.52985 0.99826 0.4602 0.0
C1819 C 0.52376 0.98797 0.42818 0.0
C1820 C 0.56699 0.97118 0.40175 0.0
H1821 H 0.5835 0.99794 0.30642 0.0
H1822 H 0.56187 0.9894 0.33287 0.0
H1823 H 0.58979 0.96354 0.38247 0.0
H1824 H 0.55971 0.9979 0.46785 0.0
H1825 H 0.57153 0.9874 0.43695 0.0
H1826 H 0.53194 0.00369 0.39255 0.0
C1827 C 0.57686 0.99146 0.33558 0.0
C1828 C 0.57693 0.97206 0.38442 0.0
C1829 C 0.58918 0.99643 0.32052 0.0
C1830 C 0.54948 0.99498 0.457 0.0
C1831 C 0.55623 0.98877 0.43936 0.0
C1832 C 0.54413 0.99434 0.39029 0.0
C1833 C 0.58395 0.989 0.35393 0.0
C1834 C 0.57108 0.98477 0.37024 0.0
C1835 C 0.54347 0.98576 0.42463 0.0
C1836 C 0.55103 0.98296 0.40513 0.0
H1837 H 0.63065 0.99886 0.34492 0.0
H1838 H 0.60918 0.99055 0.37113 0.0
H1839 H 0.54932 0.0052 0.36229 0.0
H1840 H 0.50174 0.99634 0.44798 0.0
H1841 H 0.51364 0.9856 0.41708 0.0
C1842 C 0.76126 0.85416 0.07501 0.0
C1843 C 0.76839 0.87233 0.07183 0.0
C1844 C 0.76161 0.84589 0.09316 0.0
C1845 C 0.76801 0.85788 0.14447 0.0
H1846 H 0.77425 0.80384 0.15005 0.0
C1847 C 0.7836 0.82035 0.21647 0.0
C1848 C 0.7725 0.8045 0.22092 0.0
C1849 C 0.78285 0.82886 0.19844 0.0
C1850 C 0.77239 0.81895 0.14871 0.0
H1851 H 0.78188 0.89588 0.08514 0.0
H1852 H 0.78328 0.8813 0.11643 0.0
H1853 H 0.77384 0.81794 0.1184 0.0
H1854 H 0.75192 0.78516 0.2098 0.0
H1855 H 0.75094 0.79978 0.17833 0.0
H1856 H 0.76716 0.85878 0.17491 0.0
C1857 C 0.77676 0.87356 0.10519 0.0
C1858 C 0.77204 0.82708 0.13052 0.0
C1859 C 0.77612 0.88191 0.08714 0.0
C1860 C 0.76064 0.79738 0.2069 0.0
C1861 C 0.76015 0.80567 0.18881 0.0
C1862 C 0.76867 0.84976 0.16265 0.0
C1863 C 0.76938 0.85546 0.10859 0.0
C1864 C 0.76979 0.8467 0.12807 0.0
C1865 C 0.77125 0.8215 0.18434 0.0
C1866 C 0.77079 0.83019 0.165 0.0
H1867 H 0.7551 0.84645 0.06352 0.0
H1868 H 0.75547 0.8321 0.09512 0.0
H1869 H 0.76582 0.87295 0.14335 0.0
H1870 H 0.79288 0.8262 0.22692 0.0
H1871 H 0.79165 0.84098 0.1954 0.0
C1872 C 0.91713 0.07164 0.68829 0.0
C1873 C 0.9216 0.06268 0.70549 0.0
C1874 C 0.92964 0.07024 0.6726 0.0
C1875 C 0.96645 0.03764 0.65378 0.0
H1876 H 0.96942 0.07446 0.61292 0.0
C1877 C 0.9976 0.04574 0.57141 0.0
C1878 C 0.99096 0.02862 0.56441 0.0
C1879 C 0.99319 0.05113 0.59007 0.0
C1880 C 0.96905 0.06413 0.62431 0.0
H1881 H 0.94328 0.04658 0.7203 0.0
H1882 H 0.96537 0.04459 0.6931 0.0
H1883 H 0.9549 0.08333 0.64341 0.0
H1884 H 0.97506 0.00347 0.57167 0.0
H1885 H 0.96727 0.01289 0.60397 0.0
H1886 H 0.98045 0.01841 0.6347 0.0
C1887 C 0.95197 0.05221 0.69151 0.0
C1888 C 0.96052 0.06915 0.64171 0.0
C1889 C 0.93937 0.05343 0.70712 0.0
C1890 C 0.98041 0.01674 0.57661 0.0
C1891 C 0.97605 0.02209 0.5952 0.0
C1892 C 0.97503 0.03267 0.63646 0.0
C1893 C 0.94696 0.06001 0.67387 0.0
C1894 C 0.95862 0.0558 0.65647 0.0
C1895 C 0.98216 0.03945 0.60209 0.0
C1896 C 0.97588 0.04566 0.62133 0.0
H1897 H 0.90352 0.07886 0.68665 0.0
H1898 H 0.9252 0.07628 0.65922 0.0
H1899 H 0.96511 0.02691 0.66472 0.0
H1900 H 0.00579 0.0552 0.56235 0.0
H1901 H 0.99824 0.06451 0.59502 0.0
C1902 C 0.79583 0.2095 0.46566 0.0
C1903 C 0.78382 0.19401 0.46845 0.0
C1904 C 0.80087 0.21549 0.44734 0.0
C1905 C 0.80277 0.20118 0.39715 0.0
H1906 H 0.79481 0.25445 0.38732 0.0
C1907 C 0.7883 0.23237 0.32323 0.0
C1908 C 0.79353 0.25104 0.31935 0.0
C1909 C 0.79197 0.22422 0.34089 0.0
C1910 C 0.79759 0.23961 0.38982 0.0
H1911 H 0.76808 0.17232 0.45441 0.0
H1912 H 0.77674 0.18294 0.42234 0.0
H1913 H 0.79183 0.24244 0.41955 0.0
H1914 H 0.80829 0.27521 0.33007 0.0
H1915 H 0.81524 0.26079 0.36066 0.0
H1916 H 0.80815 0.19833 0.36727 0.0
C1917 C 0.78239 0.19032 0.43431 0.0
C1918 C 0.7958 0.23272 0.40833 0.0
C1919 C 0.77728 0.18436 0.45264 0.0
C1920 C 0.80383 0.26088 0.33281 0.0
C1921 C 0.80773 0.25266 0.35036 0.0
C1922 C 0.8047 0.2081 0.37859 0.0
C1923 C 0.79406 0.20607 0.4315 0.0
C1924 C 0.79799 0.21341 0.41213 0.0
C1925 C 0.80113 0.23454 0.35489 0.0
C1926 C 0.80174 0.22735 0.37468 0.0
H1927 H 0.8012 0.21711 0.47761 0.0
H1928 H 0.81002 0.22758 0.44556 0.0
H1929 H 0.80477 0.18624 0.39976 0.0
H1930 H 0.78035 0.22445 0.31308 0.0
H1931 H 0.78657 0.21029 0.34394 0.0
C1932 C 0.61792 0.9934 0.21668 0.0
C1933 C 0.63382 0.00351 0.22239 0.0
C1934 C 0.61014 0.99681 0.19896 0.0
C1935 C 0.60239 0.03565 0.1674 0.0
H1936 H 0.58233 0.99789 0.13422 0.0
C1937 C 0.55463 0.05394 0.10353 0.0
C1938 C 0.53974 0.04146 0.10021 0.0
C1939 C 0.56816 0.04963 0.11722 0.0
C1940 C 0.58772 0.0086 0.14344 0.0
H1941 H 0.6548 0.02428 0.21386 0.0
H1942 H 0.64083 0.03058 0.18285 0.0
H1943 H 0.60415 0.98842 0.15917 0.0
H1944 H 0.52649 0.01545 0.10913 0.0
H1945 H 0.54962 0.00819 0.13357 0.0
H1946 H 0.58524 0.05571 0.15241 0.0
C1947 C 0.63454 0.01995 0.19207 0.0
C1948 C 0.60033 0.00317 0.15756 0.0
C1949 C 0.64254 0.01628 0.20971 0.0
C1950 C 0.53798 0.02516 0.11141 0.0
C1951 C 0.55134 0.02094 0.12519 0.0
C1952 C 0.58961 0.04106 0.1534 0.0
C1953 C 0.61798 0.01059 0.18681 0.0
C1954 C 0.60742 0.0166 0.1699 0.0
C1955 C 0.56688 0.03285 0.12788 0.0
C1956 C 0.58176 0.02751 0.1416 0.0
H1957 H 0.611 0.98344 0.22623 0.0
H1958 H 0.59728 0.98953 0.19527 0.0
H1959 H 0.6075 0.04622 0.17694 0.0
H1960 H 0.55638 0.06647 0.09485 0.0
H1961 H 0.58001 0.05906 0.11891 0.0
C1962 C 0.7679 0.88399 0.94814 0.0
C1963 C 0.76718 0.8729 0.96477 0.0
C1964 C 0.76678 0.87573 0.93023 0.0
C1965 C 0.74974 0.8332 0.90637 0.0
H1966 H 0.7825 0.84988 0.86457 0.0
C1967 C 0.75463 0.79343 0.83506 0.0
C1968 C 0.75768 0.80368 0.8181 0.0
C1969 C 0.75505 0.80228 0.8527 0.0
C1970 C 0.773 0.84522 0.87597 0.0
H1971 H 0.76481 0.84437 0.97557 0.0
H1972 H 0.76281 0.82992 0.94431 0.0
H1973 H 0.78514 0.8642 0.89568 0.0
H1974 H 0.76315 0.8315 0.80652 0.0
H1975 H 0.76341 0.84707 0.83728 0.0
H1976 H 0.73742 0.81437 0.8867 0.0
C1977 C 0.76415 0.84505 0.94513 0.0
C1978 C 0.77458 0.85342 0.89387 0.0
C1979 C 0.76543 0.85331 0.96305 0.0
C1980 C 0.76072 0.82315 0.81927 0.0
C1981 C 0.76106 0.83205 0.83696 0.0
C1982 C 0.74806 0.82509 0.88844 0.0
C1983 C 0.76474 0.85617 0.92847 0.0
C1984 C 0.76304 0.84745 0.90935 0.0
C1985 C 0.75845 0.8217 0.85398 0.0
C1986 C 0.75973 0.83089 0.87297 0.0
H1987 H 0.7692 0.89913 0.94894 0.0
H1988 H 0.7671 0.88476 0.91776 0.0
H1989 H 0.74038 0.82847 0.91785 0.0
H1990 H 0.75239 0.77838 0.83478 0.0
H1991 H 0.75327 0.7937 0.86539 0.0
C1992 C 0.81876 0.94657 0.00657 0.0
C1993 C 0.8176 0.92893 0.01573 0.0
C1994 C 0.83568 0.95689 0.00684 0.0
C1995 C 0.87807 0.96399 0.03501 0.0
H1996 H 0.90193 0.98322 0.98871 0.0
C1997 C 0.95478 0.99228 0.03421 0.0
C1998 C 0.96019 0.00641 0.02115 0.0
C1999 C 0.9367 0.98425 0.03368 0.0
C2000 C 0.89532 0.97832 0.00186 0.0
H2001 H 0.83324 0.90833 0.03236 0.0
H2002 H 0.86259 0.92655 0.03322 0.0
H2003 H 0.87175 0.96653 0.9873 0.0
H2004 H 0.95051 0.02357 0.99758 0.0
H2005 H 0.91857 0.01013 0.99713 0.0
H2006 H 0.90114 0.97607 0.04974 0.0
C2007 C 0.85046 0.93231 0.02572 0.0
C2008 C 0.87805 0.96863 0.00099 0.0
C2009 C 0.8337 0.92184 0.02514 0.0
C2010 C 0.94681 0.0127 0.00785 0.0
C2011 C 0.92854 0.00482 0.00748 0.0
C2012 C 0.89512 0.97394 0.03594 0.0
C2013 C 0.85164 0.94995 0.0166 0.0
C2014 C 0.86942 0.9611 0.01752 0.0
C2015 C 0.92328 0.99029 0.02026 0.0
C2016 C 0.90423 0.98098 0.01935 0.0
H2017 H 0.8066 0.95239 -0.00081 0.0
H2018 H 0.83616 0.97047 -0.00024 0.0
H2019 H 0.87156 0.95861 0.04803 0.0
H2020 H 0.96477 0.9869 0.04453 0.0
H2021 H 0.93352 0.97286 0.04351 0.0
C2022 C 0.34327 0.65236 0.02307 0.0
C2023 C 0.32551 0.64343 0.02335 0.0
C2024 C 0.36017 0.64172 0.02372 0.0
C2025 C 0.38012 0.59459 0.03466 0.0
H2026 H 0.41791 0.60743 0.99568 0.0
C2027 C 0.44272 0.54464 0.01428 0.0
C2028 C 0.46068 0.55284 0.01117 0.0
C2029 C 0.42634 0.55595 0.01641 0.0
C2030 C 0.40763 0.6038 0.0068 0.0
H2031 H 0.31136 0.61651 0.02556 0.0
H2032 H 0.34088 0.59793 0.02668 0.0
H2033 H 0.38941 0.62716 -0.00011 0.0
H2034 H 0.47556 0.5793 0.00768 0.0
H2035 H 0.44704 0.59897 0.01159 0.0
H2036 H 0.39833 0.57117 0.04151 0.0
C2037 C 0.34177 0.61313 0.02601 0.0
C2038 C 0.39133 0.61512 0.00924 0.0
C2039 C 0.32488 0.62376 0.02528 0.0
C2040 C 0.46191 0.57254 0.00994 0.0
C2041 C 0.44556 0.58382 0.01213 0.0
C2042 C 0.39648 0.58329 0.03227 0.0
C2043 C 0.35957 0.62198 0.02475 0.0
C2044 C 0.37737 0.61058 0.02311 0.0
C2045 C 0.42762 0.57567 0.01552 0.0
C2046 C 0.41034 0.58772 0.01823 0.0
H2047 H 0.34415 0.66752 0.02165 0.0
H2048 H 0.37372 0.6489 0.023 0.0
H2049 H 0.36965 0.59087 0.04556 0.0
H2050 H 0.44133 0.5295 0.01529 0.0
H2051 H 0.41266 0.54925 0.01872 0.0
C2052 C 0.16749 0.57083 0.79546 0.0
C2053 C 0.17574 0.55298 0.79234 0.0
C2054 C 0.17893 0.58676 0.79557 0.0
C2055 C 0.20708 0.6183 0.80074 0.0
H2056 H 0.24429 0.61947 0.75908 0.0
C2057 C 0.25175 0.68418 0.78259 0.0
C2058 C 0.25238 0.6892 0.76324 0.0
C2059 C 0.24473 0.66671 0.78845 0.0
C2060 C 0.23399 0.61934 0.77079 0.0
H2061 H 0.20246 0.53752 0.78826 0.0
H2062 H 0.22248 0.56527 0.78879 0.0
H2063 H 0.22734 0.59056 0.76626 0.0
H2064 H 0.24616 0.67976 0.7349 0.0
H2065 H 0.234 0.64938 0.74507 0.0
H2066 H 0.2131 0.64745 0.80459 0.0
C2067 C 0.20715 0.56705 0.7907 0.0
C2068 C 0.22444 0.60271 0.77508 0.0
C2069 C 0.1957 0.55116 0.79047 0.0
C2070 C 0.24618 0.67625 0.74987 0.0
C2071 C 0.2392 0.65881 0.75571 0.0
C2072 C 0.21664 0.63498 0.79643 0.0
C2073 C 0.19884 0.58507 0.79267 0.0
C2074 C 0.21059 0.6021 0.78984 0.0
C2075 C 0.23828 0.6539 0.77506 0.0
C2076 C 0.22986 0.63576 0.78112 0.0
H2077 H 0.15212 0.57262 0.79695 0.0
H2078 H 0.17207 0.60045 0.79694 0.0
H2079 H 0.19664 0.6182 0.81233 0.0
H2080 H 0.25671 0.69372 0.79323 0.0
H2081 H 0.24438 0.66321 0.80344 0.0
C2082 C 0.21235 0.4399 0.53206 0.0
C2083 C 0.2153 0.42328 0.52167 0.0
C2084 C 0.19432 0.44876 0.53283 0.0
C2085 C 0.14987 0.45339 0.50634 0.0
H2086 H 0.12708 0.47053 0.5539 0.0
C2087 C 0.07158 0.47931 0.51075 0.0
C2088 C 0.06677 0.49439 0.52279 0.0
C2089 C 0.0897 0.47078 0.51123 0.0
C2090 C 0.13332 0.4661 0.54044 0.0
H2091 H 0.20164 0.40287 0.504 0.0
H2092 H 0.17029 0.41842 0.50515 0.0
H2093 H 0.1588 0.45568 0.55355 0.0
H2094 H 0.07725 0.51228 0.54488 0.0
H2095 H 0.10908 0.49775 0.54537 0.0
H2096 H 0.12476 0.46405 0.49307 0.0
C2097 C 0.1819 0.42462 0.51269 0.0
C2098 C 0.1515 0.45753 0.54027 0.0
C2099 C 0.19984 0.41567 0.51212 0.0
C2100 C 0.08048 0.50064 0.53546 0.0
C2101 C 0.09872 0.49222 0.5358 0.0
C2102 C 0.13183 0.46212 0.50646 0.0
C2103 C 0.17893 0.44129 0.52301 0.0
C2104 C 0.15989 0.45092 0.52324 0.0
C2105 C 0.10363 0.47723 0.52359 0.0
C2106 C 0.12318 0.46843 0.52353 0.0
H2107 H 0.22399 0.44609 0.53959 0.0
H2108 H 0.1925 0.46164 0.54079 0.0
H2109 H 0.1561 0.44875 0.49293 0.0
H2110 H 0.06131 0.474 0.50094 0.0
H2111 H 0.0927 0.45901 0.50193 0.0
C2112 C 0.85535 0.99319 0.726 0.0
C2113 C 0.85346 0.00367 0.74275 0.0
C2114 C 0.84783 0.97512 0.72517 0.0
C2115 C 0.83454 0.93517 0.75548 0.0
H2116 H 0.80436 0.91995 0.71298 0.0
C2117 C 0.79301 0.86586 0.75623 0.0
C2118 C 0.79224 0.85585 0.7392 0.0
C2119 C 0.80089 0.88377 0.75645 0.0
C2120 C 0.813 0.92388 0.72482 0.0
H2121 H 0.84211 0.00366 0.77166 0.0
H2122 H 0.82907 0.97208 0.77021 0.0
H2123 H 0.81728 0.95163 0.71353 0.0
H2124 H 0.79962 0.85642 0.70918 0.0
H2125 H 0.81373 0.88756 0.70956 0.0
H2126 H 0.83053 0.90744 0.76671 0.0
C2127 C 0.83642 0.97779 0.75779 0.0
C2128 C 0.82033 0.94203 0.72513 0.0
C2129 C 0.84378 0.99588 0.75857 0.0
C2130 C 0.79977 0.86396 0.72244 0.0
C2131 C 0.8078 0.88181 0.72267 0.0
C2132 C 0.82735 0.91698 0.7551 0.0
C2133 C 0.83847 0.96721 0.74112 0.0
C2134 C 0.83105 0.94787 0.74053 0.0
C2135 C 0.80833 0.89198 0.73965 0.0
C2136 C 0.81639 0.91116 0.73982 0.0
H2137 H 0.86277 0.99887 0.71361 0.0
H2138 H 0.84969 0.96719 0.71219 0.0
H2139 H 0.84301 0.93926 0.76739 0.0
H2140 H 0.78707 0.86004 0.7693 0.0
H2141 H 0.80079 0.89134 0.76971 0.0
C2142 C 0.71915 0.13371 0.55071 0.0
C2143 C 0.71949 0.14766 0.53645 0.0
C2144 C 0.70276 0.12307 0.55399 0.0
C2145 C 0.65102 0.12163 0.5459 0.0
H2146 H 0.65899 0.06754 0.5447 0.0
C2147 C 0.59152 0.07047 0.52763 0.0
C2148 C 0.59162 0.05237 0.53578 0.0
C2149 C 0.60619 0.08294 0.53121 0.0
C2150 C 0.65646 0.08258 0.5455 0.0
H2151 H 0.70283 0.16195 0.51497 0.0
H2152 H 0.67418 0.14341 0.52078 0.0
H2153 H 0.68643 0.08812 0.54495 0.0
H2154 H 0.60647 0.03347 0.55489 0.0
H2155 H 0.63195 0.05537 0.56151 0.0
H2156 H 0.62104 0.11613 0.54624 0.0
C2157 C 0.68654 0.14073 0.52942 0.0
C2158 C 0.67221 0.09437 0.54559 0.0
C2159 C 0.70297 0.15124 0.526 0.0
C2160 C 0.60625 0.04724 0.54819 0.0
C2161 C 0.62083 0.05978 0.55194 0.0
C2162 C 0.63523 0.10983 0.54598 0.0
C2163 C 0.68639 0.12635 0.54323 0.0
C2164 C 0.66964 0.11399 0.54538 0.0
C2165 C 0.62119 0.07764 0.54317 0.0
C2166 C 0.63778 0.09017 0.54535 0.0
H2167 H 0.73168 0.1307 0.559 0.0
H2168 H 0.70296 0.11213 0.5648 0.0
H2169 H 0.64867 0.13673 0.54597 0.0
H2170 H 0.58054 0.07471 0.51784 0.0
H2171 H 0.60616 0.09644 0.52395 0.0
C2172 C 0.18262 0.45524 0.75554 0.0
C2173 C 0.16277 0.45757 0.758 0.0
C2174 C 0.19066 0.43727 0.75377 0.0
C2175 C 0.17992 0.3892 0.76911 0.0
H2176 H 0.22776 0.37772 0.74252 0.0
C2177 C 0.21939 0.3168 0.77184 0.0
C2178 C 0.23921 0.31761 0.77451 0.0
C2179 C 0.20873 0.33328 0.76888 0.0
C2180 C 0.21442 0.3808 0.75006 0.0
H2181 H 0.1356 0.44327 0.75868 0.0
H2182 H 0.14965 0.41185 0.75509 0.0
H2183 H 0.21104 0.40736 0.73594 0.0
H2184 H 0.26325 0.33632 0.77709 0.0
H2185 H 0.24458 0.36505 0.77195 0.0
H2186 H 0.18345 0.36263 0.78329 0.0
C2187 C 0.15902 0.42384 0.7551 0.0
C2188 C 0.20484 0.39771 0.74627 0.0
C2189 C 0.15098 0.44182 0.75701 0.0
C2190 C 0.248 0.33523 0.77507 0.0
C2191 C 0.23738 0.35166 0.77193 0.0
C2192 C 0.18943 0.37221 0.77276 0.0
C2193 C 0.17899 0.42132 0.75426 0.0
C2194 C 0.18771 0.4023 0.75608 0.0
C2195 C 0.21777 0.35078 0.76837 0.0
C2196 C 0.20697 0.36809 0.76359 0.0
H2197 H 0.19203 0.46717 0.75622 0.0
H2198 H 0.2061 0.43585 0.75328 0.0
H2199 H 0.16692 0.39242 0.77716 0.0
H2200 H 0.21223 0.30341 0.77133 0.0
H2201 H 0.1936 0.33228 0.76621 0.0
C2202 C 0.32291 0.58689 0.25138 0.0
C2203 C 0.33999 0.59011 0.24108 0.0
C2204 C 0.30852 0.60071 0.25217 0.0
C2205 C 0.29414 0.64778 0.23233 0.0
H2206 H 0.27491 0.65594 0.28367 0.0
C2207 C 0.2792 0.7141 0.28207 0.0
C2208 C 0.27063 0.72657 0.26913 0.0
C2209 C 0.28049 0.69493 0.27824 0.0
C2210 C 0.28003 0.65382 0.26921 0.0
H2211 H 0.35513 0.60982 0.2228 0.0
H2212 H 0.33047 0.63425 0.22476 0.0
H2213 H 0.2918 0.62683 0.27606 0.0
H2214 H 0.25511 0.72851 0.24287 0.0
H2215 H 0.25718 0.69485 0.23629 0.0
H2216 H 0.2839 0.67553 0.22596 0.0
C2217 C 0.32783 0.62093 0.23186 0.0
C2218 C 0.28955 0.63698 0.26476 0.0
C2219 C 0.34209 0.607 0.23086 0.0
C2220 C 0.26194 0.71926 0.25306 0.0
C2221 C 0.26323 0.7 0.24922 0.0
C2222 C 0.28483 0.66473 0.23685 0.0
C2223 C 0.31105 0.61814 0.24292 0.0
C2224 C 0.29747 0.6341 0.24646 0.0
C2225 C 0.27319 0.68774 0.26141 0.0
C2226 C 0.27846 0.66827 0.25557 0.0
H2227 H 0.32083 0.57385 0.25919 0.0
H2228 H 0.29565 0.59791 0.26049 0.0
H2229 H 0.29961 0.64583 0.21797 0.0
H2230 H 0.28592 0.71927 0.29465 0.0
H2231 H 0.28845 0.68601 0.28788 0.0
C2232 C 0.5147 0.72025 0.59603 0.0
C2233 C 0.51693 0.72238 0.61566 0.0
C2234 C 0.51334 0.7023 0.58811 0.0
C2235 C 0.5032 0.65216 0.6008 0.0
H2236 H 0.52665 0.64249 0.55142 0.0
C2237 C 0.51045 0.57704 0.5683 0.0
C2238 C 0.50757 0.57545 0.54869 0.0
C2239 C 0.51089 0.5948 0.57687 0.0
C2240 C 0.51983 0.64497 0.56514 0.0
H2241 H 0.51961 0.70724 0.64232 0.0
H2242 H 0.51763 0.676 0.62853 0.0
H2243 H 0.52911 0.67353 0.56539 0.0
H2244 H 0.50241 0.59143 0.52286 0.0
H2245 H 0.50305 0.62215 0.53776 0.0
H2246 H 0.49411 0.62345 0.60055 0.0
C2247 C 0.51656 0.68817 0.61923 0.0
C2248 C 0.52121 0.66285 0.57317 0.0
C2249 C 0.51784 0.70612 0.62715 0.0
C2250 C 0.5047 0.59204 0.53799 0.0
C2251 C 0.50523 0.60973 0.54652 0.0
C2252 C 0.50189 0.63423 0.59279 0.0
C2253 C 0.51425 0.68596 0.59958 0.0
C2254 C 0.51286 0.66676 0.5911 0.0
C2255 C 0.50858 0.6114 0.56602 0.0
C2256 C 0.51011 0.63041 0.5748 0.0
H2257 H 0.51384 0.73248 0.58678 0.0
H2258 H 0.51128 0.70127 0.57298 0.0
H2259 H 0.49632 0.65463 0.61449 0.0
H2260 H 0.51279 0.56459 0.57697 0.0
H2261 H 0.51363 0.59552 0.5919 0.0
C2262 C 0.58832 0.28888 0.87381 0.0
C2263 C 0.58745 0.27915 0.89122 0.0
C2264 C 0.60592 0.29329 0.8654 0.0
C2265 C 0.65792 0.29595 0.87367 0.0
H2266 H 0.66153 0.28454 0.82 0.0
C2267 C 0.72909 0.28439 0.83124 0.0
C2268 C 0.72979 0.291 0.81239 0.0
C2269 C 0.71215 0.28591 0.84206 0.0
C2270 C 0.66071 0.2881 0.83491 0.0
H2271 H 0.60418 0.26707 0.91392 0.0
H2272 H 0.63507 0.27438 0.89897 0.0
H2273 H 0.63102 0.28188 0.83676 0.0
H2274 H 0.7138 0.30556 0.79052 0.0
H2275 H 0.68441 0.30836 0.80945 0.0
H2276 H 0.68792 0.30169 0.87174 0.0
C2277 C 0.62214 0.27885 0.89196 0.0
C2278 C 0.6432 0.28659 0.84453 0.0
C2279 C 0.60448 0.27455 0.90046 0.0
C2280 C 0.71361 0.30005 0.80491 0.0
C2281 C 0.69677 0.30163 0.81573 0.0
C2282 C 0.67554 0.29742 0.86401 0.0
C2283 C 0.62303 0.2879 0.87414 0.0
C2284 C 0.6416 0.29045 0.86401 0.0
C2285 C 0.6957 0.29411 0.83421 0.0
C2286 C 0.67707 0.29346 0.84454 0.0
H2287 H 0.57538 0.29279 0.8665 0.0
H2288 H 0.60614 0.30061 0.85185 0.0
H2289 H 0.65708 0.29914 0.88867 0.0
H2290 H 0.74138 0.27742 0.83739 0.0
H2291 H 0.71169 0.27991 0.85625 0.0
C2292 C 0.03501 0.33554 0.11777 0.0
C2293 C 0.02433 0.32046 0.11112 0.0
C2294 C 0.03452 0.3531 0.10857 0.0
C2295 C 0.00486 0.38282 0.07719 0.0
H2296 H 0.0515 0.41087 0.06929 0.0
C2297 C 0.00674 0.4529 0.03394 0.0
C2298 C 0.01917 0.46699 0.03976 0.0
C2299 C 0.00715 0.43497 0.04243 0.0
C2300 C 0.03826 0.40341 0.07161 0.0
H2301 H 0.00477 0.31203 0.08949 0.0
H2302 H 0.00384 0.34274 0.07345 0.0
H2303 H 0.05281 0.37985 0.08423 0.0
H2304 H 0.04148 0.47332 0.05946 0.0
H2305 H 0.04187 0.44237 0.07453 0.0
H2306 H 0.99023 0.40648 0.06488 0.0
C2307 C 0.01256 0.34098 0.08585 0.0
C2308 C 0.03904 0.38553 0.08014 0.0
C2309 C 0.0132 0.32334 0.09497 0.0
C2310 C 0.03179 0.46279 0.0545 0.0
C2311 C 0.03211 0.44493 0.06307 0.0
C2312 C 0.00404 0.40078 0.06879 0.0
C2313 C 0.02319 0.35611 0.09256 0.0
C2314 C 0.02236 0.37501 0.08309 0.0
C2315 C 0.01993 0.43066 0.05706 0.0
C2316 C 0.02074 0.41139 0.0659 0.0
H2317 H 0.0437 0.33383 0.13021 0.0
H2318 H 0.04272 0.36446 0.11426 0.0
H2319 H 0.99168 0.37522 0.07947 0.0
H2320 H 0.99688 0.45561 0.02258 0.0
H2321 H 0.9977 0.42436 0.03721 0.0
C2322 C 0.99561 0.78961 0.36723 0.0
C2323 C 0.99839 0.77247 0.37695 0.0
C2324 C 0.97933 0.79259 0.35642 0.0
C2325 C 0.92996 0.77738 0.35372 0.0
H2326 H 0.93138 0.79965 0.30326 0.0
C2327 C 0.86287 0.78168 0.30884 0.0
C2328 C 0.85958 0.79816 0.29811 0.0
C2329 C 0.88032 0.77854 0.31754 0.0
C2330 C 0.93073 0.79364 0.31743 0.0
H2331 H 0.98667 0.74484 0.38261 0.0
H2332 H 0.95821 0.7501 0.36382 0.0
H2333 H 0.96121 0.79411 0.31997 0.0
H2334 H 0.87242 0.82408 0.2879 0.0
H2335 H 0.90266 0.81888 0.30367 0.0
H2336 H 0.8996 0.7772 0.35151 0.0
C2337 C 0.96855 0.76125 0.36465 0.0
C2338 C 0.9478 0.79042 0.32695 0.0
C2339 C 0.98486 0.75822 0.37532 0.0
C2340 C 0.87432 0.81134 0.29621 0.0
C2341 C 0.89177 0.80825 0.30506 0.0
C2342 C 0.91294 0.78073 0.34431 0.0
C2343 C 0.96551 0.77854 0.3553 0.0
C2344 C 0.94755 0.78213 0.34512 0.0
C2345 C 0.8949 0.79187 0.31595 0.0
C2346 C 0.91311 0.78875 0.326 0.0
H2347 H 0.00583 0.80083 0.36822 0.0
H2348 H 0.97727 0.80609 0.34943 0.0
H2349 H 0.92934 0.77131 0.36787 0.0
H2350 H 0.8519 0.77126 0.31089 0.0
H2351 H 0.88235 0.76561 0.32555 0.0
C2352 C 0.51079 0.32122 0.94023 0.0
C2353 C 0.51333 0.30319 0.94814 0.0
C2354 C 0.50155 0.33535 0.95061 0.0
C2355 C 0.49238 0.35229 0.99783 0.0
H2356 H 0.45596 0.38479 0.97218 0.0
C2357 C 0.46933 0.42491 0.02743 0.0
C2358 C 0.4725 0.43926 0.01392 0.0
C2359 C 0.46915 0.40608 0.02183 0.0
C2360 C 0.46596 0.37575 0.97961 0.0
H2361 H 0.50847 0.2858 0.97319 0.0
H2362 H 0.49262 0.31096 0.9917 0.0
H2363 H 0.46603 0.35506 0.95777 0.0
H2364 H 0.47676 0.44545 0.98401 0.0
H2365 H 0.47649 0.41275 0.9742 0.0
H2366 H 0.49323 0.37357 0.01908 0.0
C2367 C 0.49763 0.31392 0.97733 0.0
C2368 C 0.4717 0.35878 0.97139 0.0
C2369 C 0.5067 0.29962 0.96679 0.0
C2370 C 0.47452 0.4346 0.9947 0.0
C2371 C 0.47413 0.4159 0.98908 0.0
C2372 C 0.48668 0.36936 0.00605 0.0
C2373 C 0.4948 0.33184 0.96919 0.0
C2374 C 0.48559 0.34733 0.98 0.0
C2375 C 0.47181 0.40141 0.00261 0.0
C2376 C 0.47409 0.38162 0.99655 0.0
H2377 H 0.51572 0.32439 0.92588 0.0
H2378 H 0.49989 0.34916 0.94415 0.0
H2379 H 0.50314 0.34369 0.00471 0.0
H2380 H 0.46781 0.4282 0.04236 0.0
H2381 H 0.46733 0.39516 0.03252 0.0
C2382 C 0.95434 0.28314 0.16359 0.0
C2383 C 0.97025 0.27445 0.17199 0.0
C2384 C 0.93685 0.28468 0.17357 0.0
C2385 C 0.90932 0.26296 0.21305 0.0
H2386 H 0.87814 0.30845 0.21022 0.0
C2387 C 0.83042 0.26507 0.23845 0.0
C2388 C 0.82394 0.28075 0.24895 0.0
C2389 C 0.8485 0.2649 0.2296 0.0
C2390 C 0.88674 0.2957 0.21127 0.0
H2391 H 0.98034 0.26069 0.19753 0.0
H2392 H 0.94983 0.26334 0.21494 0.0
H2393 H 0.90942 0.30724 0.19401 0.0
H2394 H 0.83141 0.30866 0.25819 0.0
H2395 H 0.86307 0.30837 0.24261 0.0
H2396 H 0.8867 0.25142 0.2303 0.0
C2397 C 0.95082 0.26886 0.20058 0.0
C2398 C 0.90458 0.29494 0.20183 0.0
C2399 C 0.96833 0.26742 0.19063 0.0
C2400 C 0.83596 0.29636 0.25023 0.0
C2401 C 0.85406 0.29623 0.24123 0.0
C2402 C 0.89145 0.26368 0.22237 0.0
C2403 C 0.93484 0.27746 0.19216 0.0
C2404 C 0.91606 0.27853 0.20255 0.0
C2405 C 0.86058 0.28044 0.23091 0.0
C2406 C 0.87989 0.28002 0.22151 0.0
H2407 H 0.95536 0.2887 0.14924 0.0
H2408 H 0.92479 0.2912 0.16658 0.0
H2409 H 0.9177 0.25005 0.21378 0.0
H2410 H 0.82155 0.25282 0.23711 0.0
H2411 H 0.85295 0.25263 0.22153 0.0
C2412 C 0.06148 0.70498 0.44671 0.0
C2413 C 0.05456 0.70929 0.42865 0.0
C2414 C 0.0628 0.68634 0.45291 0.0
C2415 C 0.06092 0.63652 0.43791 0.0
H2416 H 0.04054 0.62956 0.48909 0.0
C2417 C 0.0348 0.56542 0.47003 0.0
C2418 C 0.03808 0.5623 0.48941 0.0
C2419 C 0.04014 0.58239 0.46135 0.0
C2420 C 0.04658 0.63124 0.47489 0.0
H2421 H 0.04445 0.69758 0.4025 0.0
H2422 H 0.04627 0.6649 0.41353 0.0
H2423 H 0.04389 0.6611 0.47626 0.0
H2424 H 0.05092 0.5737 0.51448 0.0
H2425 H 0.06048 0.60303 0.49929 0.0
H2426 H 0.06306 0.60639 0.43656 0.0
C2427 C 0.05095 0.67591 0.4228 0.0
C2428 C 0.04852 0.64935 0.46753 0.0
C2429 C 0.0498 0.6946 0.41653 0.0
C2430 C 0.04791 0.57584 0.4996 0.0
C2431 C 0.05335 0.59266 0.49092 0.0
C2432 C 0.05892 0.61828 0.44531 0.0
C2433 C 0.05699 0.67164 0.44125 0.0
C2434 C 0.05574 0.65223 0.44898 0.0
C2435 C 0.04891 0.5964 0.47192 0.0
C2436 C 0.05176 0.61551 0.46391 0.0
H2437 H 0.06549 0.71604 0.45625 0.0
H2438 H 0.06792 0.68347 0.46704 0.0
H2439 H 0.0666 0.63832 0.42359 0.0
H2440 H 0.02727 0.55518 0.46185 0.0
H2441 H 0.03649 0.58494 0.44669 0.0
C2442 C 0.588 0.77069 0.662 0.0
C2443 C 0.57072 0.77753 0.67007 0.0
C2444 C 0.60485 0.7706 0.67241 0.0
C2445 C 0.62745 0.79304 0.71324 0.0
H2446 H 0.66155 0.74953 0.71168 0.0
C2447 C 0.70428 0.79358 0.74249 0.0
C2448 C 0.7108 0.77748 0.75232 0.0
C2449 C 0.68665 0.79368 0.73348 0.0
C2450 C 0.65212 0.76174 0.71239 0.0
H2451 H 0.55763 0.78973 0.69537 0.0
H2452 H 0.58698 0.78969 0.71344 0.0
H2453 H 0.6321 0.74947 0.69372 0.0
H2454 H 0.70361 0.74893 0.76059 0.0
H2455 H 0.67284 0.74911 0.74483 0.0
H2456 H 0.64747 0.80531 0.73189 0.0
C2457 C 0.58756 0.78445 0.69905 0.0
C2458 C 0.63533 0.76179 0.70192 0.0
C2459 C 0.5707 0.7844 0.68872 0.0
C2460 C 0.69903 0.7616 0.75323 0.0
C2461 C 0.68145 0.76164 0.74404 0.0
C2462 C 0.64432 0.79306 0.72357 0.0
C2463 C 0.60485 0.7775 0.69107 0.0
C2464 C 0.62277 0.77744 0.7022 0.0
C2465 C 0.67513 0.77762 0.73389 0.0
C2466 C 0.65689 0.77741 0.72329 0.0
H2467 H 0.5885 0.7653 0.64768 0.0
H2468 H 0.61794 0.76531 0.66575 0.0
H2469 H 0.6182 0.80539 0.71368 0.0
H2470 H 0.71298 0.80605 0.74143 0.0
H2471 H 0.68233 0.80617 0.72567 0.0
C2472 C 0.61344 0.47356 0.73369 0.0
C2473 C 0.62954 0.48483 0.73586 0.0
C2474 C 0.60431 0.47308 0.71628 0.0
C2475 C 0.59804 0.50257 0.67371 0.0
H2476 H 0.57456 0.45819 0.65347 0.0
C2477 C 0.56164 0.50299 0.60126 0.0
C2478 C 0.54397 0.49392 0.60048 0.0
C2479 C 0.57289 0.5011 0.61727 0.0
C2480 C 0.58094 0.47072 0.65905 0.0
H2481 H 0.64947 0.50344 0.72135 0.0
H2482 H 0.63383 0.50228 0.69092 0.0
H2483 H 0.59346 0.45547 0.6821 0.0
H2484 H 0.52413 0.47603 0.61609 0.0
H2485 H 0.54379 0.47271 0.64401 0.0
H2486 H 0.58544 0.51785 0.6508 0.0
C2487 C 0.62793 0.49422 0.70273 0.0
C2488 C 0.59176 0.46915 0.67542 0.0
C2489 C 0.63696 0.49479 0.72012 0.0
C2490 C 0.53778 0.48296 0.6161 0.0
C2491 C 0.54906 0.48104 0.63209 0.0
C2492 C 0.58729 0.50411 0.65736 0.0
C2493 C 0.6112 0.48379 0.70075 0.0
C2494 C 0.60036 0.48509 0.68295 0.0
C2495 C 0.56673 0.49007 0.63283 0.0
C2496 C 0.57855 0.48823 0.64991 0.0
H2497 H 0.60741 0.46577 0.74563 0.0
H2498 H 0.59138 0.465 0.71524 0.0
H2499 H 0.60414 0.51519 0.67938 0.0
H2500 H 0.56699 0.51126 0.58936 0.0
H2501 H 0.58657 0.50804 0.61735 0.0
C2502 C 0.7593 0.33171 0.97818 0.0
C2503 C 0.77015 0.33799 0.99328 0.0
C2504 C 0.76699 0.3186 0.96543 0.0
C2505 C 0.81224 0.30547 0.94388 0.0
H2506 H 0.7823 0.26674 0.92074 0.0
C2507 C 0.81102 0.2554 0.87291 0.0
C2508 C 0.81258 0.26987 0.85927 0.0
C2509 C 0.81052 0.25966 0.89224 0.0
C2510 C 0.79107 0.27718 0.92729 0.0
H2511 H 0.79726 0.33506 0.0074 0.0
H2512 H 0.81091 0.31234 0.98474 0.0
H2513 H 0.77101 0.28097 0.95042 0.0
H2514 H 0.81637 0.29976 0.85491 0.0
H2515 H 0.81567 0.30726 0.88861 0.0
H2516 H 0.8317 0.30249 0.92013 0.0
C2517 C 0.79641 0.3175 0.9829 0.0
C2518 C 0.78452 0.28542 0.94417 0.0
C2519 C 0.7886 0.33044 0.99583 0.0
C2520 C 0.81499 0.28843 0.86522 0.0
C2521 C 0.81478 0.29266 0.88448 0.0
C2522 C 0.8187 0.29734 0.92691 0.0
C2523 C 0.78577 0.31169 0.96743 0.0
C2524 C 0.79467 0.30014 0.95219 0.0
C2525 C 0.81192 0.27841 0.89816 0.0
C2526 C 0.80778 0.28366 0.91809 0.0
H2527 H 0.74501 0.33726 0.97594 0.0
H2528 H 0.75857 0.31456 0.95347 0.0
H2529 H 0.8203 0.31685 0.94973 0.0
H2530 H 0.80905 0.24099 0.86861 0.0
H2531 H 0.80832 0.24844 0.90253 0.0
C2532 C 0.9359 0.54633 0.19804 0.0
C2533 C 0.91758 0.53861 0.19948 0.0
C2534 C 0.94465 0.54919 0.18031 0.0
C2535 C 0.93434 0.55369 0.12939 0.0
H2536 H 0.9877 0.53915 0.12289 0.0
C2537 C 0.97133 0.53648 0.0578 0.0
C2538 C 0.99085 0.54048 0.05553 0.0
C2539 C 0.96166 0.5407 0.07479 0.0
C2540 C 0.97291 0.54367 0.12454 0.0
H2541 H 0.89405 0.52761 0.18368 0.0
H2542 H 0.90958 0.53215 0.15264 0.0
H2543 H 0.97242 0.53675 0.15407 0.0
H2544 H 0.01508 0.55372 0.06835 0.0
H2545 H 0.99809 0.56127 0.09792 0.0
H2546 H 0.93479 0.56003 0.09961 0.0
C2547 C 0.917 0.53635 0.16519 0.0
C2548 C 0.96414 0.54223 0.1424 0.0
C2549 C 0.90822 0.53356 0.18294 0.0
C2550 C 0.00011 0.55017 0.06986 0.0
C2551 C 0.99042 0.55447 0.08678 0.0
C2552 C 0.94313 0.5551 0.11146 0.0
C2553 C 0.93526 0.54429 0.16372 0.0
C2554 C 0.94472 0.54697 0.14496 0.0
C2555 C 0.97135 0.54906 0.08969 0.0
C2556 C 0.96243 0.54986 0.10885 0.0
H2557 H 0.94336 0.55051 0.21058 0.0
H2558 H 0.95865 0.55549 0.17959 0.0
H2559 H 0.91941 0.55773 0.13105 0.0
H2560 H 0.96381 0.52909 0.04693 0.0
H2561 H 0.94698 0.53629 0.07668 0.0
C2562 C 0.7772 0.69538 0.46696 0.0
C2563 C 0.76562 0.67949 0.46941 0.0
C2564 C 0.77894 0.70435 0.4492 0.0
C2565 C 0.75479 0.71029 0.40335 0.0
H2566 H 0.80489 0.72436 0.38379 0.0
C2567 C 0.76567 0.73461 0.32565 0.0
C2568 C 0.77856 0.74918 0.32161 0.0
C2569 C 0.7647 0.72621 0.34368 0.0
C2570 C 0.79074 0.72078 0.3891 0.0
H2571 H 0.74661 0.66073 0.45517 0.0
H2572 H 0.74946 0.67646 0.42431 0.0
H2573 H 0.80166 0.71016 0.41537 0.0
H2574 H 0.80081 0.76612 0.33338 0.0
H2575 H 0.79888 0.75174 0.36499 0.0
H2576 H 0.74376 0.72108 0.37733 0.0
C2577 C 0.75719 0.68203 0.4361 0.0
C2578 C 0.78891 0.7126 0.40723 0.0
C2579 C 0.7556 0.67296 0.45378 0.0
C2580 C 0.79077 0.75488 0.33598 0.0
C2581 C 0.78969 0.74656 0.35411 0.0
C2582 C 0.7566 0.71859 0.38532 0.0
C2583 C 0.76897 0.69777 0.43353 0.0
C2584 C 0.77092 0.70711 0.41452 0.0
C2585 C 0.77646 0.73225 0.3583 0.0
C2586 C 0.77462 0.72381 0.37781 0.0
H2587 H 0.78514 0.70074 0.4787 0.0
H2588 H 0.78799 0.71654 0.44776 0.0
H2589 H 0.74068 0.70653 0.40864 0.0
H2590 H 0.75616 0.72973 0.3149 0.0
H2591 H 0.75467 0.71494 0.34612 0.0
C2592 C 0.58889 0.50785 0.82553 0.0
C2593 C 0.60194 0.49264 0.82533 0.0
C2594 C 0.57406 0.50864 0.83906 0.0
C2595 C 0.54626 0.48198 0.87499 0.0
H2596 H 0.54649 0.52913 0.90217 0.0
C2597 C 0.51442 0.49183 0.95079 0.0
C2598 C 0.50918 0.5101 0.95646 0.0
C2599 C 0.52132 0.48863 0.93229 0.0
C2600 C 0.54573 0.51603 0.89452 0.0
H2601 H 0.60906 0.46577 0.83837 0.0
H2602 H 0.58304 0.46722 0.86225 0.0
H2603 H 0.5669 0.52516 0.87433 0.0
H2604 H 0.50491 0.53889 0.94706 0.0
H2605 H 0.51564 0.53315 0.91448 0.0
H2606 H 0.52511 0.47282 0.89541 0.0
C2607 C 0.58431 0.47847 0.85184 0.0
C2608 C 0.5576 0.51374 0.87857 0.0
C2609 C 0.59925 0.47771 0.83828 0.0
C2610 C 0.50907 0.52471 0.94298 0.0
C2611 C 0.51544 0.52143 0.92441 0.0
C2612 C 0.53413 0.48436 0.89092 0.0
C2613 C 0.57192 0.49421 0.85266 0.0
C2614 C 0.55816 0.49666 0.86875 0.0
C2615 C 0.52271 0.50361 0.91912 0.0
C2616 C 0.53388 0.50137 0.90102 0.0
H2617 H 0.59047 0.51949 0.8156 0.0
H2618 H 0.56456 0.52082 0.83923 0.0
H2619 H 0.54639 0.46869 0.86759 0.0
H2620 H 0.51474 0.48038 0.96105 0.0
H2621 H 0.52682 0.47474 0.92882 0.0
C2622 C 0.74311 0.37697 0.09799 0.0
C2623 C 0.73765 0.36581 0.08277 0.0
C2624 C 0.74055 0.37055 0.11665 0.0
C2625 C 0.73765 0.32611 0.14283 0.0
H2626 H 0.72516 0.35787 0.18597 0.0
C2627 C 0.73866 0.2955 0.21762 0.0
C2628 C 0.74899 0.30582 0.2307 0.0
C2629 C 0.73299 0.30377 0.20064 0.0
C2630 C 0.72869 0.34887 0.17404 0.0
H2631 H 0.72422 0.33976 0.07504 0.0
H2632 H 0.71953 0.32865 0.10761 0.0
H2633 H 0.7229 0.37076 0.15375 0.0
H2634 H 0.76052 0.33319 0.23685 0.0
H2635 H 0.75104 0.34758 0.20684 0.0
H2636 H 0.74402 0.30442 0.16288 0.0
C2637 C 0.72613 0.34217 0.10514 0.0
C2638 C 0.7274 0.35622 0.15564 0.0
C2639 C 0.72878 0.34854 0.08652 0.0
C2640 C 0.75262 0.3249 0.22697 0.0
C2641 C 0.74709 0.33316 0.20985 0.0
C2642 C 0.73894 0.31879 0.16114 0.0
C2643 C 0.73242 0.3529 0.12038 0.0
C2644 C 0.73207 0.34495 0.13987 0.0
C2645 C 0.73773 0.32248 0.19628 0.0
C2646 C 0.73467 0.33011 0.17695 0.0
H2647 H 0.74993 0.39038 0.09548 0.0
H2648 H 0.74571 0.37905 0.12808 0.0
H2649 H 0.74176 0.31717 0.13101 0.0
H2650 H 0.73539 0.28083 0.22026 0.0
H2651 H 0.72542 0.29533 0.19064 0.0
C2652 C 0.92498 0.53567 0.31155 0.0
C2653 C 0.9239 0.52376 0.29588 0.0
C2654 C 0.93716 0.53121 0.32631 0.0
C2655 C 0.96069 0.49172 0.34986 0.0
H2656 H 0.98781 0.53168 0.37433 0.0
C2657 C 0.00235 0.48129 0.41964 0.0
C2658 C 0.99702 0.49451 0.43362 0.0
C2659 C 0.9967 0.48385 0.40089 0.0
C2660 C 0.98039 0.52037 0.36757 0.0
H2661 H 0.93468 0.49787 0.28324 0.0
H2662 H 0.95602 0.48999 0.30927 0.0
H2663 H 0.97194 0.53806 0.34447 0.0
H2664 H 0.98113 0.52055 0.43876 0.0
H2665 H 0.97171 0.52512 0.40621 0.0
H2666 H 0.96869 0.4742 0.37337 0.0
C2667 C 0.9474 0.50275 0.31007 0.0
C2668 C 0.9713 0.52402 0.35054 0.0
C2669 C 0.93523 0.50727 0.29521 0.0
C2670 C 0.98594 0.51031 0.42839 0.0
C2671 C 0.9805 0.51294 0.4097 0.0
C2672 C 0.96987 0.48805 0.36691 0.0
C2673 C 0.9485 0.51474 0.32572 0.0
C2674 C 0.96077 0.50992 0.34189 0.0
C2675 C 0.98583 0.49978 0.39578 0.0
C2676 C 0.97919 0.50255 0.37622 0.0
H2677 H 0.91639 0.54845 0.31245 0.0
H2678 H 0.93743 0.54052 0.33838 0.0
H2679 H 0.95262 0.48062 0.34351 0.0
H2680 H 0.01103 0.46907 0.4231 0.0
H2681 H 0.00097 0.47351 0.39036 0.0
C2682 C 0.76492 0.69444 0.57656 0.0
C2683 C 0.766 0.67478 0.57471 0.0
C2684 C 0.76603 0.7028 0.59443 0.0
C2685 C 0.78069 0.69275 0.64438 0.0
H2686 H 0.7515 0.73841 0.65489 0.0
C2687 C 0.77185 0.72565 0.71982 0.0
C2688 C 0.77339 0.74534 0.72083 0.0
C2689 C 0.77166 0.71664 0.70217 0.0
C2690 C 0.75987 0.72574 0.65214 0.0
H2691 H 0.76884 0.64848 0.59026 0.0
H2692 H 0.77016 0.66292 0.6214 0.0
H2693 H 0.7493 0.72358 0.62404 0.0
H2694 H 0.77628 0.77089 0.70393 0.0
H2695 H 0.77582 0.75524 0.67338 0.0
H2696 H 0.79089 0.69483 0.67277 0.0
C2697 C 0.76897 0.67201 0.60906 0.0
C2698 C 0.75868 0.71724 0.63437 0.0
C2699 C 0.76806 0.66368 0.59117 0.0
C2700 C 0.77508 0.75572 0.70377 0.0
C2701 C 0.77468 0.74676 0.6862 0.0
C2702 C 0.78172 0.70117 0.66225 0.0
C2703 C 0.76804 0.69172 0.61099 0.0
C2704 C 0.76915 0.70066 0.63014 0.0
C2705 C 0.77275 0.72714 0.68514 0.0
C2706 C 0.77142 0.71785 0.66631 0.0
H2707 H 0.76346 0.7034 0.56414 0.0
H2708 H 0.76559 0.71801 0.59518 0.0
H2709 H 0.78924 0.68021 0.64167 0.0
H2710 H 0.77046 0.71723 0.73265 0.0
H2711 H 0.77007 0.70151 0.70186 0.0
C2712 C 0.71227 0.60182 0.51262 0.0
C2713 C 0.71279 0.61988 0.52055 0.0
C2714 C 0.69517 0.59185 0.51238 0.0
C2715 C 0.64736 0.58879 0.53574 0.0
H2716 H 0.63431 0.56158 0.49052 0.0
C2717 C 0.58172 0.54008 0.53398 0.0
C2718 C 0.57012 0.54194 0.51802 0.0
C2719 C 0.59965 0.54859 0.53425 0.0
C2720 C 0.63771 0.56914 0.50325 0.0
H2721 H 0.69572 0.6416 0.53451 0.0
H2722 H 0.66584 0.6242 0.5341 0.0
H2723 H 0.66416 0.57891 0.49109 0.0
H2724 H 0.5686 0.55379 0.48961 0.0
H2725 H 0.59985 0.56846 0.49003 0.0
H2726 H 0.62078 0.57923 0.54779 0.0
C2727 C 0.6787 0.61769 0.52817 0.0
C2728 C 0.65491 0.57895 0.50364 0.0
C2729 C 0.6958 0.62772 0.5283 0.0
C2730 C 0.57716 0.55201 0.50212 0.0
C2731 C 0.59513 0.56039 0.50234 0.0
C2732 C 0.63022 0.57887 0.53539 0.0
C2733 C 0.67815 0.59963 0.52016 0.0
C2734 C 0.65993 0.58898 0.51985 0.0
C2735 C 0.6065 0.55904 0.5185 0.0
C2736 C 0.62512 0.56899 0.51911 0.0
H2737 H 0.72511 0.59535 0.50656 0.0
H2738 H 0.69533 0.57791 0.50629 0.0
H2739 H 0.65085 0.5962 0.54853 0.0
H2740 H 0.57674 0.53247 0.5465 0.0
H2741 H 0.60814 0.54706 0.54684 0.0
C2742 C 0.18757 0.93019 0.51942 0.0
C2743 C 0.18951 0.91053 0.51869 0.0
C2744 C 0.16951 0.9387 0.51931 0.0
C2745 C 0.11914 0.93075 0.50792 0.0
H2746 H 0.11018 0.97281 0.54185 0.0
C2747 C 0.04504 0.96669 0.5186 0.0
C2748 C 0.04512 0.98643 0.51718 0.0
C2749 C 0.06221 0.95653 0.5198 0.0
C2750 C 0.11252 0.96113 0.53226 0.0
H2751 H 0.17422 0.88432 0.51683 0.0
H2752 H 0.14253 0.89921 0.51689 0.0
H2753 H 0.14115 0.95666 0.54134 0.0
H2754 H 0.06314 0.01104 0.5163 0.0
H2755 H 0.09305 0.9933 0.5185 0.0
H2756 H 0.09042 0.9353 0.49888 0.0
C2757 C 0.15499 0.90805 0.51734 0.0
C2758 C 0.13025 0.95193 0.5319 0.0
C2759 C 0.1731 0.89953 0.51735 0.0
C2760 C 0.06262 0.99584 0.51738 0.0
C2761 C 0.07974 0.9857 0.51874 0.0
C2762 C 0.10135 0.93991 0.50835 0.0
C2763 C 0.15301 0.92772 0.5186 0.0
C2764 C 0.13385 0.93683 0.51952 0.0
C2765 C 0.0797 0.96596 0.51979 0.0
C2766 C 0.09799 0.95534 0.52034 0.0
H2767 H 0.2 0.93901 0.52033 0.0
H2768 H 0.16847 0.95391 0.51987 0.0
H2769 H 0.12154 0.91926 0.49812 0.0
H2770 H 0.03175 0.95906 0.51846 0.0
H2771 H 0.06182 0.94132 0.52074 0.0
C2772 C 0.37022 0.99026 0.79139 0.0
C2773 C 0.38362 0.98921 0.77627 0.0
C2774 C 0.35974 0.97444 0.79685 0.0
C2775 C 0.35979 0.92287 0.79439 0.0
H2776 H 0.30454 0.92799 0.79598 0.0
C2777 C 0.31055 0.86037 0.78399 0.0
C2778 C 0.29248 0.8602 0.79309 0.0
C2779 C 0.32249 0.87574 0.78583 0.0
C2780 C 0.31994 0.92633 0.79605 0.0
H2781 H 0.39691 0.97082 0.75525 0.0
H2782 H 0.37874 0.94317 0.76488 0.0
H2783 H 0.32406 0.95592 0.79215 0.0
H2784 H 0.27318 0.87544 0.8121 0.0
H2785 H 0.2942 0.90226 0.81561 0.0
H2786 H 0.35576 0.89328 0.79804 0.0
C2787 C 0.37635 0.95619 0.77253 0.0
C2788 C 0.33111 0.94234 0.79379 0.0
C2789 C 0.38663 0.97203 0.76693 0.0
C2790 C 0.28692 0.87537 0.8047 0.0
C2791 C 0.29894 0.8907 0.80668 0.0
C2792 C 0.34865 0.90687 0.79683 0.0
C2793 C 0.36273 0.95727 0.78745 0.0
C2794 C 0.3511 0.94068 0.79242 0.0
C2795 C 0.31671 0.89123 0.79695 0.0
C2796 C 0.32858 0.90836 0.79714 0.0
H2797 H 0.36765 0.00336 0.79884 0.0
H2798 H 0.34932 0.97559 0.80842 0.0
H2799 H 0.37522 0.92128 0.79365 0.0
H2800 H 0.31512 0.84901 0.77475 0.0
H2801 H 0.33591 0.87579 0.77786 0.0
C2802 C 0.3165 0.10638 0.0019 0.0
C2803 C 0.31248 0.11933 0.01646 0.0
C2804 C 0.33422 0.09691 0.00085 0.0
C2805 C 0.38402 0.10022 0.01734 0.0
H2806 H 0.38735 0.0471 0.00543 0.0
C2807 C 0.45236 0.05625 0.02997 0.0
C2808 C 0.45811 0.04292 0.01628 0.0
C2809 C 0.43466 0.06551 0.02889 0.0
C2810 C 0.3867 0.062 0.00854 0.0
H2811 H 0.32377 0.13231 0.04147 0.0
H2812 H 0.35443 0.11573 0.03979 0.0
H2813 H 0.35628 0.06328 0.00555 0.0
H2814 H 0.44963 0.02889 0.99068 0.0
H2815 H 0.41868 0.04517 0.98876 0.0
H2816 H 0.41435 0.09896 0.02049 0.0
C2817 C 0.3441 0.11306 0.02897 0.0
C2818 C 0.36888 0.07128 0.00861 0.0
C2819 C 0.32645 0.12249 0.03001 0.0
C2820 C 0.44566 0.03907 0.00147 0.0
C2821 C 0.42787 0.04832 0.00042 0.0
C2822 C 0.40179 0.09096 0.01729 0.0
C2823 C 0.34829 0.10023 0.01433 0.0
C2824 C 0.36729 0.09046 0.01324 0.0
C2825 C 0.42219 0.06171 0.0141 0.0
C2826 C 0.40334 0.07168 0.01312 0.0
H2827 H 0.30602 0.10367 0.99123 0.0
H2828 H 0.33701 0.08723 0.98931 0.0
H2829 H 0.38341 0.11509 0.02056 0.0
H2830 H 0.46154 0.05955 0.04161 0.0
H2831 H 0.43064 0.07552 0.03983 0.0
C2832 C 0.66239 0.56484 0.7888 0.0
C2833 C 0.66892 0.54976 0.80004 0.0
C2834 C 0.67004 0.58271 0.7907 0.0
C2835 C 0.71355 0.60564 0.80517 0.0
H2836 H 0.68227 0.65113 0.80354 0.0
C2837 C 0.7454 0.67916 0.81361 0.0
C2838 C 0.73864 0.69358 0.80162 0.0
C2839 C 0.73645 0.66177 0.81444 0.0
C2840 C 0.69119 0.63855 0.80382 0.0
H2841 H 0.68814 0.54155 0.82244 0.0
H2842 H 0.70157 0.57288 0.82577 0.0
H2843 H 0.66699 0.62046 0.80394 0.0
H2844 H 0.71706 0.70101 0.78115 0.0
H2845 H 0.70173 0.67044 0.78221 0.0
H2846 H 0.73776 0.62363 0.80468 0.0
C2847 C 0.69062 0.57081 0.8154 0.0
C2848 C 0.68245 0.62102 0.80412 0.0
C2849 C 0.68288 0.55294 0.81357 0.0
C2850 C 0.72275 0.69016 0.79039 0.0
C2851 C 0.71381 0.67273 0.79119 0.0
C2852 C 0.72229 0.62315 0.8048 0.0
C2853 C 0.68443 0.5858 0.80382 0.0
C2854 C 0.69356 0.6044 0.80468 0.0
C2855 C 0.72056 0.65836 0.80324 0.0
C2856 C 0.71121 0.63979 0.80401 0.0
H2857 H 0.65162 0.56278 0.77826 0.0
H2858 H 0.66513 0.59395 0.78146 0.0
H2859 H 0.72247 0.59305 0.80528 0.0
H2860 H 0.75774 0.68121 0.82228 0.0
H2861 H 0.74189 0.65105 0.82401 0.0
C2862 C 0.79797 0.42828 0.00103 0.0
C2863 C 0.79637 0.41737 0.01769 0.0
C2864 C 0.81394 0.43952 0.99771 0.0
C2865 C 0.85477 0.46082 0.02183 0.0
H2866 H 0.87859 0.46008 0.97158 0.0
C2867 C 0.9328 0.48157 0.00731 0.0
C2868 C 0.93697 0.49263 0.99112 0.0
C2869 C 0.91454 0.47442 0.01045 0.0
C2870 C 0.87194 0.46064 0.98561 0.0
H2871 H 0.81002 0.40978 0.04404 0.0
H2872 H 0.83802 0.42906 0.03811 0.0
H2873 H 0.8485 0.44388 0.9773 0.0
H2874 H 0.92494 0.50509 0.96573 0.0
H2875 H 0.89311 0.49226 0.9711 0.0
H2876 H 0.87857 0.47712 0.03023 0.0
C2877 C 0.82683 0.42924 0.02774 0.0
C2878 C 0.85469 0.4514 0.98889 0.0
C2879 C 0.81086 0.41808 0.03108 0.0
C2880 C 0.92236 0.4964 0.97819 0.0
C2881 C 0.9041 0.48912 0.98128 0.0
C2882 C 0.87206 0.46996 0.01857 0.0
C2883 C 0.82861 0.44002 0.01097 0.0
C2884 C 0.84607 0.45114 0.00711 0.0
C2885 C 0.90004 0.47805 0.99744 0.0
C2886 C 0.88095 0.46972 0.0005 0.0
H2887 H 0.78694 0.42806 0.99051 0.0
H2888 H 0.81478 0.44783 0.98476 0.0
H2889 H 0.8483 0.4612 0.03594 0.0
H2890 H 0.94372 0.47805 0.01741 0.0
H2891 H 0.9119 0.46565 0.02287 0.0
C2892 C 0.36487 0.08647 0.76 0.0
C2893 C 0.38303 0.08464 0.76791 0.0
C2894 C 0.3556 0.10394 0.7594 0.0
C2895 C 0.35541 0.15182 0.77927 0.0
H2896 H 0.32992 0.16457 0.73245 0.0
C2897 C 0.32365 0.22565 0.7649 0.0
C2898 C 0.30462 0.22578 0.75892 0.0
C2899 C 0.33434 0.20893 0.76501 0.0
C2900 C 0.33693 0.16116 0.74562 0.0
H2901 H 0.4055 0.09942 0.78197 0.0
H2902 H 0.38939 0.13009 0.78069 0.0
H2903 H 0.34595 0.13406 0.73571 0.0
H2904 H 0.28215 0.20875 0.7476 0.0
H2905 H 0.3009 0.17958 0.74768 0.0
H2906 H 0.34637 0.17901 0.7891 0.0
C2907 C 0.38222 0.11798 0.77515 0.0
C2908 C 0.34601 0.14368 0.74754 0.0
C2909 C 0.39146 0.10044 0.77586 0.0
C2910 C 0.29677 0.20907 0.7523 0.0
C2911 C 0.30752 0.1924 0.75228 0.0
C2912 C 0.3464 0.16936 0.77729 0.0
C2913 C 0.36437 0.11996 0.76656 0.0
C2914 C 0.35515 0.13873 0.76446 0.0
C2915 C 0.32626 0.19211 0.75897 0.0
C2916 C 0.33692 0.17409 0.76052 0.0
H2917 H 0.358 0.07447 0.75388 0.0
H2918 H 0.34165 0.10494 0.75309 0.0
H2919 H 0.36217 0.14835 0.79253 0.0
H2920 H 0.33009 0.23833 0.77008 0.0
H2921 H 0.34885 0.20909 0.77004 0.0
C2922 C 0.21229 0.96391 0.27236 0.0
C2923 C 0.20045 0.96356 0.28873 0.0
C2924 C 0.22828 0.95204 0.27089 0.0
C2925 C 0.26084 0.92041 0.29716 0.0
H2926 H 0.25879 0.89009 0.25188 0.0
C2927 C 0.28915 0.84454 0.29289 0.0
C2928 C 0.29207 0.83646 0.27496 0.0
C2929 C 0.28444 0.86365 0.2944 0.0
C2930 C 0.26016 0.89868 0.26436 0.0
H2931 H 0.1966 0.95131 0.31682 0.0
H2932 H 0.22457 0.93032 0.31416 0.0
H2933 H 0.23784 0.91717 0.25523 0.0
H2934 H 0.29503 0.84212 0.24484 0.0
H2935 H 0.28828 0.87574 0.24749 0.0
H2936 H 0.283 0.90162 0.30644 0.0
C2937 C 0.22151 0.9399 0.30254 0.0
C2938 C 0.24795 0.91421 0.26632 0.0
C2939 C 0.20542 0.95177 0.30399 0.0
C2940 C 0.2926 0.84808 0.2588 0.0
C2941 C 0.2885 0.86728 0.26034 0.0
C2942 C 0.27333 0.90495 0.29509 0.0
C2943 C 0.2328 0.93961 0.28577 0.0
C2944 C 0.24778 0.92492 0.28293 0.0
C2945 C 0.283 0.87503 0.278 0.0
C2946 C 0.27273 0.89353 0.27889 0.0
H2947 H 0.20893 0.97301 0.26044 0.0
H2948 H 0.23685 0.9522 0.25788 0.0
H2949 H 0.2611 0.92859 0.31004 0.0
H2950 H 0.28858 0.83578 0.30555 0.0
H2951 H 0.2803 0.86898 0.30825 0.0
C2952 C 0.51914 0.33301 0.44242 0.0
C2953 C 0.5144 0.33135 0.42324 0.0
C2954 C 0.52016 0.35077 0.45085 0.0
C2955 C 0.50478 0.40091 0.44458 0.0
H2956 H 0.5451 0.41061 0.47979 0.0
C2957 C 0.51827 0.47591 0.47274 0.0
C2958 C 0.52224 0.47747 0.49213 0.0
C2959 C 0.518 0.45822 0.46406 0.0
C2960 C 0.53363 0.40812 0.47013 0.0
H2961 H 0.50697 0.34713 0.39792 0.0
H2962 H 0.5089 0.37796 0.41248 0.0
H2963 H 0.54278 0.37955 0.46568 0.0
H2964 H 0.52939 0.46153 0.51746 0.0
H2965 H 0.52887 0.43087 0.50241 0.0
H2966 H 0.49562 0.42947 0.44904 0.0
C2967 C 0.51158 0.36559 0.42116 0.0
C2968 C 0.53227 0.39025 0.46204 0.0
C2969 C 0.51057 0.34786 0.41275 0.0
C2970 C 0.52636 0.46093 0.50248 0.0
C2971 C 0.52614 0.44328 0.49381 0.0
C2972 C 0.50615 0.41878 0.45265 0.0
C2973 C 0.51646 0.36734 0.44032 0.0
C2974 C 0.51781 0.38637 0.44914 0.0
C2975 C 0.52174 0.44163 0.47452 0.0
C2976 C 0.52058 0.42266 0.46556 0.0
H2977 H 0.52216 0.32057 0.4509 0.0
H2978 H 0.52371 0.3515 0.46569 0.0
H2979 H 0.49326 0.39843 0.43496 0.0
H2980 H 0.515 0.48832 0.46432 0.0
H2981 H 0.51482 0.45756 0.44912 0.0
C2982 C 0.44385 0.75582 0.13771 0.0
C2983 C 0.46012 0.75319 0.14877 0.0
C2984 C 0.42562 0.75316 0.14569 0.0
C2985 C 0.39937 0.73587 0.18897 0.0
H2986 H 0.36657 0.77924 0.17942 0.0
C2987 C 0.34262 0.76294 0.24267 0.0
C2988 C 0.32504 0.76951 0.2358 0.0
C2989 C 0.35738 0.75766 0.23007 0.0
C2990 C 0.37536 0.76685 0.18201 0.0
H2991 H 0.47024 0.74428 0.17632 0.0
H2992 H 0.43855 0.73999 0.19035 0.0
H2993 H 0.39539 0.77448 0.16008 0.0
H2994 H 0.30903 0.77547 0.21036 0.0
H2995 H 0.33492 0.76637 0.1884 0.0
H2996 H 0.37965 0.72881 0.21155 0.0
C2997 C 0.43974 0.74391 0.17548 0.0
C2998 C 0.39187 0.76406 0.17086 0.0
C2999 C 0.45794 0.74651 0.16748 0.0
C3000 C 0.32247 0.77058 0.2161 0.0
C3001 C 0.33726 0.76537 0.20351 0.0
C3002 C 0.38288 0.73872 0.20019 0.0
C3003 C 0.42337 0.74788 0.16489 0.0
C3004 C 0.40432 0.74882 0.17454 0.0
C3005 C 0.35488 0.75891 0.21038 0.0
C3006 C 0.371 0.75451 0.19712 0.0
H3007 H 0.44514 0.76081 0.12317 0.0
H3008 H 0.41328 0.75598 0.13707 0.0
H3009 H 0.40853 0.72383 0.19196 0.0
H3010 H 0.34501 0.76187 0.25777 0.0
H3011 H 0.37092 0.753 0.23576 0.0
C3012 C 0.0256 0.70388 0.91412 0.0
C3013 C 0.01576 0.71867 0.92344 0.0
C3014 C 0.02666 0.68589 0.92233 0.0
C3015 C 0.00262 0.6547 0.95746 0.0
H3016 H 0.04997 0.62575 0.9537 0.0
C3017 C 0.00654 0.57508 0.97617 0.0
C3018 C 0.02233 0.56857 0.9865 0.0
C3019 C 0.00596 0.59345 0.96875 0.0
C3020 C 0.03666 0.63365 0.955 0.0
H3021 H -0.00068 0.72607 0.94878 0.0
H3022 H 0.00112 0.69457 0.96316 0.0
H3023 H 0.04865 0.65778 0.94096 0.0
H3024 H 0.05004 0.57637 0.99684 0.0
H3025 H 0.04905 0.60833 0.98384 0.0
H3026 H 0.99066 0.63058 0.97158 0.0
C3027 C 0.00795 0.69691 0.94941 0.0
C3028 C 0.03585 0.65199 0.94752 0.0
C3029 C 0.007 0.715 0.94122 0.0
C3030 C 0.03766 0.58085 0.98894 0.0
C3031 C 0.03712 0.59919 0.98142 0.0
C3032 C 0.0034 0.6363 0.96483 0.0
C3033 C 0.01782 0.68211 0.94007 0.0
C3034 C 0.0188 0.66276 0.94858 0.0
C3035 C 0.02119 0.6058 0.97135 0.0
C3036 C 0.02042 0.6255 0.96365 0.0
H3037 H 0.03249 0.70619 0.90038 0.0
H3038 H 0.03416 0.67483 0.91459 0.0
H3039 H 0.98921 0.66248 0.95842 0.0
H3040 H 0.99446 0.56605 0.974 0.0
H3041 H 0.99358 0.59793 0.96086 0.0
C3042 C 0.05403 0.26509 0.67503 0.0
C3043 C 0.05421 0.27413 0.65723 0.0
C3044 C 0.07094 0.26246 0.68483 0.0
C3045 C 0.12294 0.25929 0.67665 0.0
H3046 H 0.12437 0.26341 0.73143 0.0
C3047 C 0.19273 0.2562 0.71833 0.0
C3048 C 0.19265 0.24555 0.73522 0.0
C3049 C 0.17586 0.25941 0.70863 0.0
C3050 C 0.1241 0.26202 0.71615 0.0
H3051 H 0.07199 0.28812 0.63599 0.0
H3052 H 0.10158 0.28385 0.65332 0.0
H3053 H 0.09483 0.27096 0.71512 0.0
H3054 H 0.17496 0.22968 0.75508 0.0
H3055 H 0.14533 0.23522 0.73801 0.0
H3056 H 0.15228 0.25049 0.67771 0.0
C3057 C 0.08842 0.27846 0.65951 0.0
C3058 C 0.10722 0.26636 0.70681 0.0
C3059 C 0.07149 0.28103 0.64966 0.0
C3060 C 0.17543 0.23783 0.74203 0.0
C3061 C 0.15848 0.24116 0.73239 0.0
C3062 C 0.13984 0.25504 0.68599 0.0
C3063 C 0.08836 0.2689 0.67707 0.0
C3064 C 0.10645 0.26499 0.68696 0.0
C3065 C 0.15854 0.25211 0.71568 0.0
C3066 C 0.14055 0.25632 0.70582 0.0
H3067 H 0.04091 0.25958 0.68118 0.0
H3068 H 0.07044 0.25485 0.69822 0.0
H3069 H 0.1227 0.25776 0.66138 0.0
H3070 H 0.20586 0.26211 0.71264 0.0
H3071 H 0.17629 0.26799 0.69584 0.0
C3072 C 0.53032 0.74021 0.07134 0.0
C3073 C 0.5318 0.73621 0.0908 0.0
C3074 C 0.53545 0.72662 0.0579 0.0
C3075 C 0.5601 0.68021 0.05198 0.0
H3076 H 0.52193 0.67259 0.01392 0.0
C3077 C 0.52624 0.61466 0.01219 0.0
C3078 C 0.54274 0.60434 0.00689 0.0
C3079 C 0.52756 0.63322 0.01809 0.0
C3080 C 0.53279 0.67461 0.02439 0.0
H3081 H 0.54045 0.71521 0.11152 0.0
H3082 H 0.54898 0.69135 0.08817 0.0
H3083 H 0.52019 0.70068 0.03339 0.0
H3084 H 0.5735 0.60563 0.00278 0.0
H3085 H 0.57582 0.63828 0.01299 0.0
H3086 H 0.57189 0.65348 0.04387 0.0
C3087 C 0.5442 0.70505 0.08319 0.0
C3088 C 0.53193 0.69081 0.03541 0.0
C3089 C 0.53913 0.71865 0.0966 0.0
C3090 C 0.56054 0.61326 0.00676 0.0
C3091 C 0.56188 0.63188 0.01272 0.0
C3092 C 0.56091 0.66397 0.04101 0.0
C3093 C 0.54211 0.70877 0.06371 0.0
C3094 C 0.54517 0.69345 0.04979 0.0
C3095 C 0.54543 0.64193 0.01879 0.0
C3096 C 0.54684 0.66068 0.02759 0.0
H3097 H 0.52486 0.75372 0.06648 0.0
H3098 H 0.53389 0.72997 0.04299 0.0
H3099 H 0.57071 0.68203 0.06273 0.0
H3100 H 0.5123 0.60826 0.0121 0.0
H3101 H 0.51463 0.64047 0.02289 0.0
C3102 C 0.08141 0.78354 0.87648 0.0
C3103 C 0.06658 0.77286 0.86918 0.0
C3104 C 0.09946 0.78362 0.86751 0.0
C3105 C 0.13166 0.75576 0.8369 0.0
H3106 H 0.15619 0.80326 0.82568 0.0
C3107 C 0.20238 0.75968 0.7926 0.0
C3108 C 0.21535 0.77386 0.79684 0.0
C3109 C 0.18425 0.7593 0.80145 0.0
C3110 C 0.14977 0.78982 0.82898 0.0
H3111 H 0.05906 0.75374 0.84687 0.0
H3112 H 0.09078 0.75357 0.83139 0.0
H3113 H 0.12474 0.80309 0.84122 0.0
H3114 H 0.21969 0.79842 0.81413 0.0
H3115 H 0.18855 0.79734 0.83012 0.0
H3116 H 0.15682 0.74238 0.82523 0.0
C3117 C 0.08836 0.76197 0.844 0.0
C3118 C 0.13165 0.78977 0.8378 0.0
C3119 C 0.0702 0.76214 0.85279 0.0
C3120 C 0.20996 0.7874 0.81042 0.0
C3121 C 0.19198 0.78686 0.81948 0.0
C3122 C 0.14993 0.75578 0.82833 0.0
C3123 C 0.10316 0.77276 0.85123 0.0
C3124 C 0.12239 0.77275 0.84182 0.0
C3125 C 0.17874 0.77294 0.81499 0.0
C3126 C 0.15926 0.77282 0.82421 0.0
H3127 H 0.07904 0.79194 0.88909 0.0
H3128 H 0.11064 0.79196 0.87346 0.0
H3129 H 0.12493 0.74242 0.84002 0.0
H3130 H 0.20606 0.74911 0.78211 0.0
H3131 H 0.17443 0.74852 0.79735 0.0
C3132 C 0.98109 0.33194 0.59098 0.0
C3133 C 0.99047 0.32891 0.60815 0.0
C3134 C 0.97728 0.3502 0.58455 0.0
C3135 C 0.97574 0.40039 0.59877 0.0
H3136 H 0.98995 0.40878 0.54591 0.0
C3137 C 0.99618 0.47263 0.56642 0.0
C3138 C 0.99197 0.47606 0.5473 0.0
C3139 C 0.99154 0.45541 0.57497 0.0
C3140 C 0.98551 0.40669 0.56059 0.0
H3141 H 0.00258 0.34249 0.63242 0.0
H3142 H 0.99633 0.37443 0.62097 0.0
H3143 H 0.99014 0.37703 0.55871 0.0
H3144 H 0.97807 0.46501 0.52267 0.0
H3145 H 0.96961 0.43522 0.53769 0.0
H3146 H 0.97173 0.4303 0.60066 0.0
C3147 C 0.99165 0.36272 0.61261 0.0
C3148 C 0.98563 0.38844 0.56794 0.0
C3149 C 0.99538 0.34444 0.61909 0.0
C3150 C 0.98178 0.46261 0.53734 0.0
C3151 C 0.97699 0.44553 0.54592 0.0
C3152 C 0.97562 0.41873 0.59138 0.0
C3153 C 0.98287 0.36579 0.5951 0.0
C3154 C 0.98099 0.38509 0.58715 0.0
C3155 C 0.98249 0.44145 0.56456 0.0
C3156 C 0.98073 0.42206 0.57226 0.0
H3157 H 0.97695 0.32021 0.58236 0.0
H3158 H 0.97022 0.35212 0.57114 0.0
H3159 H 0.97189 0.3982 0.61359 0.0
H3160 H 0.00401 0.48278 0.57443 0.0
H3161 H 0.99605 0.45264 0.58933 0.0
C3162 C 0.4503 0.26581 0.36864 0.0
C3163 C 0.46607 0.2764 0.36236 0.0
C3164 C 0.43388 0.26491 0.35772 0.0
C3165 C 0.40645 0.29055 0.32197 0.0
H3166 H 0.38349 0.24224 0.31302 0.0
C3167 C 0.33809 0.28433 0.27732 0.0
C3168 C 0.3246 0.27097 0.28343 0.0
C3169 C 0.3563 0.28462 0.28525 0.0
C3170 C 0.3895 0.25591 0.31556 0.0
H3171 H 0.47692 0.2945 0.33977 0.0
H3172 H 0.448 0.29326 0.32088 0.0
H3173 H 0.41299 0.24368 0.33058 0.0
H3174 H 0.3198 0.24739 0.30266 0.0
H3175 H 0.35098 0.24825 0.31676 0.0
H3176 H 0.38266 0.30292 0.30765 0.0
C3177 C 0.44844 0.28555 0.3342 0.0
C3178 C 0.4065 0.25669 0.32557 0.0
C3179 C 0.46501 0.28619 0.34497 0.0
C3180 C 0.32985 0.25779 0.29744 0.0
C3181 C 0.3479 0.25821 0.30549 0.0
C3182 C 0.38926 0.28981 0.31218 0.0
C3183 C 0.43272 0.27483 0.34042 0.0
C3184 C 0.41509 0.27402 0.32903 0.0
C3185 C 0.36141 0.27169 0.29964 0.0
C3186 C 0.3804 0.27248 0.30899 0.0
H3187 H 0.45068 0.2581 0.38196 0.0
H3188 H 0.42195 0.25667 0.36297 0.0
H3189 H 0.41267 0.30414 0.32453 0.0
H3190 H 0.33452 0.29469 0.26655 0.0
H3191 H 0.36635 0.29504 0.28011 0.0
C3192 C 0.4158 0.57305 0.3057 0.0
C3193 C 0.41512 0.5561 0.29568 0.0
C3194 C 0.42471 0.57363 0.32323 0.0
C3195 C 0.43801 0.54337 0.36331 0.0
H3196 H 0.47368 0.58272 0.37464 0.0
C3197 C 0.48522 0.53978 0.42905 0.0
C3198 C 0.48837 0.5566 0.4387 0.0
C3199 C 0.47596 0.54005 0.41172 0.0
C3200 C 0.46354 0.57178 0.37181 0.0
H3201 H 0.42334 0.52654 0.29596 0.0
H3202 H 0.4388 0.52756 0.32653 0.0
H3203 H 0.458 0.58288 0.34408 0.0
H3204 H 0.48388 0.58684 0.43804 0.0
H3205 H 0.46747 0.58734 0.40794 0.0
H3206 H 0.44333 0.53233 0.39103 0.0
C3207 C 0.43237 0.54035 0.32093 0.0
C3208 C 0.45461 0.57187 0.3543 0.0
C3209 C 0.42362 0.5398 0.30338 0.0
C3210 C 0.48192 0.57369 0.43076 0.0
C3211 C 0.47255 0.57397 0.41351 0.0
C3212 C 0.44682 0.54334 0.38086 0.0
C3213 C 0.4329 0.55723 0.33107 0.0
C3214 C 0.44189 0.55758 0.34984 0.0
C3215 C 0.46953 0.55716 0.40374 0.0
C3216 C 0.4598 0.55747 0.38526 0.0
H3217 H 0.40934 0.58582 0.30008 0.0
H3218 H 0.42485 0.58681 0.33083 0.0
H3219 H 0.42802 0.53234 0.36033 0.0
H3220 H 0.49026 0.52644 0.43471 0.0
H3221 H 0.47415 0.52688 0.40442 0.0
C3222 C 0.25135 0.6903 0.07431 0.0
C3223 C 0.25616 0.70093 0.05807 0.0
C3224 C 0.24477 0.69919 0.09079 0.0
C3225 C 0.22625 0.7444 0.11025 0.0
H3226 H 0.25032 0.72594 0.15591 0.0
C3227 C 0.23405 0.78691 0.17921 0.0
C3228 C 0.23426 0.77675 0.19636 0.0
C3229 C 0.23178 0.77751 0.16209 0.0
C3230 C 0.24312 0.73106 0.1434 0.0
H3231 H 0.25733 0.72909 0.04601 0.0
H3232 H 0.24635 0.74473 0.07508 0.0
H3233 H 0.25617 0.70968 0.12629 0.0
H3234 H 0.23022 0.74944 0.20955 0.0
H3235 H 0.22578 0.73304 0.17977 0.0
H3236 H 0.21374 0.76626 0.12752 0.0
C3237 C 0.24733 0.72951 0.07497 0.0
C3238 C 0.2465 0.72173 0.12638 0.0
C3239 C 0.25378 0.72058 0.0584 0.0
C3240 C 0.23046 0.75744 0.19639 0.0
C3241 C 0.22797 0.7481 0.17938 0.0
C3242 C 0.22288 0.75382 0.12737 0.0
C3243 C 0.24306 0.7189 0.09143 0.0
C3244 C 0.23824 0.72835 0.10959 0.0
C3245 C 0.22952 0.75787 0.16201 0.0
C3246 C 0.23141 0.74728 0.14408 0.0
H3247 H 0.25279 0.6751 0.07435 0.0
H3248 H 0.24125 0.69061 0.10314 0.0
H3249 H 0.21956 0.74973 0.09754 0.0
H3250 H 0.23701 0.80182 0.17893 0.0
H3251 H 0.23312 0.7854 0.14892 0.0
C3252 C 0.13894 0.48102 0.84815 0.0
C3253 C 0.12539 0.4869 0.83486 0.0
C3254 C 0.13297 0.47468 0.86612 0.0
C3255 C 0.1144 0.48067 0.90532 0.0
H3256 H 0.06839 0.45176 0.91412 0.0
C3257 C 0.0442 0.48758 0.95457 0.0
C3258 C 0.0523 0.49236 0.97185 0.0
C3259 C 0.05558 0.47988 0.94004 0.0
C3260 C 0.08134 0.45975 0.91193 0.0
H3261 H 0.09512 0.48981 0.82938 0.0
H3262 H 0.08473 0.4788 0.86066 0.0
H3263 H 0.0848 0.45065 0.88316 0.0
H3264 H 0.07831 0.4916 0.98805 0.0
H3265 H 0.09815 0.47794 0.96269 0.0
H3266 H 0.11021 0.49103 0.9334 0.0
C3267 C 0.09991 0.47898 0.85725 0.0
C3268 C 0.09075 0.45903 0.89428 0.0
C3269 C 0.10585 0.48553 0.83944 0.0
C3270 C 0.07175 0.48834 0.97473 0.0
C3271 C 0.0831 0.48049 0.96024 0.0
C3272 C 0.10493 0.4815 0.9229 0.0
C3273 C 0.11339 0.47385 0.87087 0.0
C3274 C 0.10679 0.47023 0.89057 0.0
C3275 C 0.07525 0.47666 0.94256 0.0
C3276 C 0.08775 0.47181 0.92604 0.0
H3277 H 0.15411 0.48185 0.84486 0.0
H3278 H 0.14361 0.47085 0.87644 0.0
H3279 H 0.12668 0.48953 0.90277 0.0
H3280 H 0.02922 0.49044 0.95199 0.0
H3281 H 0.04911 0.47739 0.9265 0.0
C3282 C 0.26323 0.34868 0.57077 0.0
C3283 C 0.27117 0.36666 0.5688 0.0
C3284 C 0.26366 0.33902 0.58821 0.0
C3285 C 0.27133 0.34692 0.63997 0.0
H3286 H 0.27675 0.29255 0.64176 0.0
C3287 C 0.2873 0.30639 0.7094 0.0
C3288 C 0.27585 0.29073 0.71366 0.0
C3289 C 0.28686 0.31503 0.69148 0.0
C3290 C 0.27511 0.30773 0.64148 0.0
H3291 H 0.28617 0.38842 0.58348 0.0
H3292 H 0.28757 0.37145 0.61354 0.0
H3293 H 0.27585 0.30881 0.6111 0.0
H3294 H 0.25528 0.27162 0.70217 0.0
H3295 H 0.25483 0.28653 0.67072 0.0
H3296 H 0.27107 0.3458 0.67036 0.0
C3297 C 0.28043 0.36492 0.6019 0.0
C3298 C 0.2745 0.31709 0.62388 0.0
C3299 C 0.27976 0.37465 0.58456 0.0
C3300 C 0.26432 0.28362 0.69936 0.0
C3301 C 0.26409 0.29213 0.68133 0.0
C3302 C 0.27219 0.33759 0.65751 0.0
C3303 C 0.27225 0.34701 0.60408 0.0
C3304 C 0.27265 0.33686 0.62284 0.0
C3305 C 0.27515 0.30811 0.67727 0.0
C3306 C 0.27413 0.31789 0.6585 0.0
H3307 H 0.25643 0.34218 0.5589 0.0
H3308 H 0.25696 0.32541 0.5893 0.0
H3309 H 0.26941 0.36206 0.6399 0.0
H3310 H 0.2963 0.31229 0.72006 0.0
H3311 H 0.29569 0.32719 0.68874 0.0
C3312 C 0.43767 0.57007 0.19762 0.0
C3313 C 0.42935 0.55317 0.20386 0.0
C3314 C 0.45189 0.56994 0.18331 0.0
C3315 C 0.48583 0.53817 0.15729 0.0
H3316 H 0.47708 0.57182 0.11465 0.0
C3317 C 0.503 0.51883 0.08055 0.0
C3318 C 0.50881 0.53273 0.06744 0.0
C3319 C 0.49899 0.52345 0.09941 0.0
C3320 C 0.48008 0.56262 0.1266 0.0
H3321 H 0.4297 0.52286 0.20044 0.0
H3322 H 0.45424 0.52263 0.1755 0.0
H3323 H 0.45889 0.57633 0.1442 0.0
H3324 H 0.51597 0.56218 0.06397 0.0
H3325 H 0.50868 0.57032 0.09707 0.0
H3326 H 0.50626 0.52385 0.13929 0.0
C3327 C 0.45004 0.53598 0.18174 0.0
C3328 C 0.46963 0.5652 0.14354 0.0
C3329 C 0.43582 0.53613 0.19591 0.0
C3330 C 0.51152 0.55117 0.07379 0.0
C3331 C 0.50728 0.55585 0.09268 0.0
C3332 C 0.49623 0.53557 0.14035 0.0
C3333 C 0.45812 0.55287 0.17514 0.0
C3334 C 0.47185 0.55253 0.15878 0.0
C3335 C 0.50053 0.54211 0.10554 0.0
C3336 C 0.49291 0.54732 0.1246 0.0
H3337 H 0.43299 0.58341 0.20358 0.0
H3338 H 0.45792 0.58317 0.17855 0.0
H3339 H 0.48814 0.52843 0.16895 0.0
H3340 H 0.50086 0.50448 0.07609 0.0
H3341 H 0.4936 0.51259 0.10891 0.0
C3342 C 0.302 0.71869 0.9603 0.0
C3343 C 0.29613 0.69989 0.96013 0.0
C3344 C 0.30779 0.72765 0.94345 0.0
C3345 C 0.32141 0.71913 0.89298 0.0
H3346 H 0.29376 0.76595 0.88413 0.0
C3347 C 0.29493 0.74224 0.82049 0.0
C3348 C 0.29307 0.76148 0.81609 0.0
C3349 C 0.30185 0.73645 0.83801 0.0
C3350 C 0.30203 0.75317 0.88644 0.0
H3351 H 0.29248 0.67542 0.9425 0.0
H3352 H 0.30225 0.6911 0.91309 0.0
H3353 H 0.29406 0.75241 0.91585 0.0
H3354 H 0.29828 0.78974 0.82601 0.0
H3355 H 0.31043 0.77955 0.85666 0.0
H3356 H 0.32854 0.71946 0.86327 0.0
C3357 C 0.30265 0.69889 0.9262 0.0
C3358 C 0.30219 0.74539 0.90465 0.0
C3359 C 0.29684 0.68997 0.94301 0.0
C3360 C 0.29933 0.7748 0.8291 0.0
C3361 C 0.30628 0.76899 0.84664 0.0
C3362 C 0.32127 0.72693 0.87474 0.0
C3363 C 0.30785 0.71792 0.92619 0.0
C3364 C 0.31123 0.72792 0.90795 0.0
C3365 C 0.30709 0.74978 0.85147 0.0
C3366 C 0.31093 0.74364 0.87116 0.0
H3367 H 0.30175 0.72661 0.97336 0.0
H3368 H 0.31186 0.74229 0.94386 0.0
H3369 H 0.32879 0.70581 0.89522 0.0
H3370 H 0.29033 0.73164 0.81072 0.0
H3371 H 0.30206 0.72155 0.84139 0.0
C3372 C 0.10786 0.53946 0.72787 0.0
C3373 C 0.10264 0.52633 0.74198 0.0
C3374 C 0.09532 0.54394 0.71335 0.0
C3375 C 0.06077 0.5219 0.68522 0.0
H3376 H 0.04818 0.57216 0.66713 0.0
C3377 C 0.02316 0.53276 0.61445 0.0
C3378 C 0.02986 0.54761 0.603 0.0
C3379 C 0.02822 0.53146 0.63345 0.0
C3380 C 0.05169 0.55803 0.67191 0.0
H3381 H 0.08011 0.50805 0.75248 0.0
H3382 H 0.05841 0.51548 0.72666 0.0
H3383 H 0.06449 0.56804 0.69719 0.0
H3384 H 0.04691 0.57274 0.60217 0.0
H3385 H 0.0566 0.57008 0.635 0.0
H3386 H 0.04938 0.51176 0.65955 0.0
C3387 C 0.07208 0.52243 0.72703 0.0
C3388 C 0.06087 0.55572 0.68916 0.0
C3389 C 0.08446 0.51822 0.74174 0.0
C3390 C 0.04146 0.56128 0.61085 0.0
C3391 C 0.04685 0.55979 0.62971 0.0
C3392 C 0.05195 0.52419 0.66782 0.0
C3393 C 0.07755 0.5351 0.7126 0.0
C3394 C 0.06574 0.53765 0.69575 0.0
C3395 C 0.04045 0.54476 0.64122 0.0
C3396 C 0.04764 0.54231 0.66075 0.0
H3397 H 0.12177 0.54596 0.72783 0.0
H3398 H 0.09987 0.55363 0.70223 0.0
H3399 H 0.06462 0.50783 0.68997 0.0
H3400 H 0.01394 0.52224 0.60869 0.0
H3401 H 0.02269 0.51992 0.64198 0.0
C3402 C 0.27077 0.35164 0.46201 0.0
C3403 C 0.27129 0.37131 0.46368 0.0
C3404 C 0.26973 0.34326 0.44414 0.0
C3405 C 0.25708 0.35396 0.39394 0.0
H3406 H 0.28343 0.30656 0.38408 0.0
C3407 C 0.26426 0.32072 0.31874 0.0
C3408 C 0.26215 0.30111 0.31763 0.0
C3409 C 0.26479 0.32961 0.33642 0.0
C3410 C 0.27582 0.31971 0.38664 0.0
H3411 H 0.27146 0.3976 0.44783 0.0
H3412 H 0.27013 0.38305 0.41672 0.0
H3413 H 0.28606 0.32131 0.41494 0.0
H3414 H 0.25853 0.27555 0.33437 0.0
H3415 H 0.2594 0.291 0.36501 0.0
H3416 H 0.24707 0.35239 0.36546 0.0
C3417 C 0.27008 0.37403 0.42919 0.0
C3418 C 0.2773 0.32818 0.4044 0.0
C3419 C 0.27101 0.38239 0.44706 0.0
C3420 C 0.26018 0.29068 0.33463 0.0
C3421 C 0.26084 0.29952 0.35225 0.0
C3422 C 0.25571 0.34553 0.37612 0.0
C3423 C 0.26929 0.35433 0.42745 0.0
C3424 C 0.26789 0.3454 0.40837 0.0
C3425 C 0.26338 0.31906 0.35341 0.0
C3426 C 0.26498 0.32825 0.37227 0.0
H3427 H 0.27085 0.3427 0.47454 0.0
H3428 H 0.26887 0.32808 0.44348 0.0
H3429 H 0.24936 0.36704 0.39648 0.0
H3430 H 0.2659 0.32919 0.30596 0.0
H3431 H 0.26688 0.34467 0.33678 0.0
C3432 C 0.33612 0.42167 0.52512 0.0
C3433 C 0.31998 0.42833 0.51549 0.0
C3434 C 0.35254 0.43261 0.526 0.0
C3435 C 0.37925 0.46996 0.50178 0.0
H3436 H 0.40168 0.47764 0.55081 0.0
C3437 C 0.44615 0.51638 0.50957 0.0
C3438 C 0.45972 0.51043 0.52283 0.0
C3439 C 0.4282 0.50786 0.50906 0.0
C3440 C 0.39584 0.47546 0.53693 0.0
H3441 H 0.30855 0.45153 0.49887 0.0
H3442 H 0.33751 0.47046 0.49997 0.0
H3443 H 0.37275 0.45923 0.54867 0.0
H3444 H 0.46494 0.49089 0.54604 0.0
H3445 H 0.43423 0.47575 0.54477 0.0
H3446 H 0.40267 0.48548 0.48986 0.0
C3447 C 0.33733 0.45683 0.50699 0.0
C3448 C 0.37916 0.46496 0.53575 0.0
C3449 C 0.32076 0.44603 0.50642 0.0
C3450 C 0.45479 0.496 0.53575 0.0
C3451 C 0.43702 0.48734 0.53508 0.0
C3452 C 0.39615 0.48021 0.5029 0.0
C3453 C 0.35333 0.45032 0.51697 0.0
C3454 C 0.37074 0.46198 0.51817 0.0
C3455 C 0.42346 0.49301 0.52165 0.0
C3456 C 0.40481 0.483 0.52049 0.0
H3457 H 0.33595 0.40812 0.5323 0.0
H3458 H 0.36471 0.42717 0.53365 0.0
H3459 H 0.37313 0.4678 0.48801 0.0
H3460 H 0.44948 0.52747 0.49942 0.0
H3461 H 0.41809 0.51291 0.49873 0.0
C3462 C 0.81306 0.11904 0.52213 0.0
C3463 C 0.81553 0.13815 0.52616 0.0
C3464 C 0.8289 0.10707 0.51968 0.0
C3465 C 0.87878 0.10809 0.50433 0.0
H3466 H 0.88296 0.059 0.52848 0.0
C3467 C 0.94888 0.06515 0.5036 0.0
C3468 C 0.94809 0.04542 0.50317 0.0
C3469 C 0.93215 0.07596 0.50507 0.0
C3470 C 0.88186 0.07252 0.52134 0.0
H3471 H 0.83637 0.15967 0.53136 0.0
H3472 H 0.86411 0.13873 0.52691 0.0
H3473 H 0.85478 0.07881 0.53486 0.0
H3474 H 0.92913 0.02155 0.50308 0.0
H3475 H 0.89979 0.04051 0.50509 0.0
H3476 H 0.90561 0.10183 0.49056 0.0
C3477 C 0.84992 0.13307 0.5256 0.0
C3478 C 0.86579 0.08388 0.52511 0.0
C3479 C 0.83407 0.14498 0.52828 0.0
C3480 C 0.93018 0.03674 0.50346 0.0
C3481 C 0.9134 0.04759 0.50477 0.0
C3482 C 0.89473 0.09667 0.50038 0.0
C3483 C 0.84746 0.11409 0.52099 0.0
C3484 C 0.86424 0.10185 0.51681 0.0
C3485 C 0.91421 0.06731 0.50596 0.0
C3486 C 0.89658 0.07884 0.50903 0.0
H3487 H 0.7989 0.11342 0.52043 0.0
H3488 H 0.82667 0.09249 0.51607 0.0
H3489 H 0.87773 0.12177 0.49748 0.0
H3490 H 0.96247 0.07228 0.5035 0.0
H3491 H 0.93335 0.09108 0.50623 0.0
C3492 C 0.68645 0.0625 0.2881 0.0
C3493 C 0.6688 0.05891 0.27992 0.0
C3494 C 0.69474 0.08013 0.28595 0.0
C3495 C 0.69954 0.11748 0.25255 0.0
H3496 H 0.7151 0.14846 0.29428 0.0
C3497 C 0.73258 0.19031 0.23989 0.0
C3498 C 0.74641 0.19621 0.2525 0.0
C3499 C 0.72261 0.17376 0.24347 0.0
C3500 C 0.71116 0.13984 0.28245 0.0
H3501 H 0.64571 0.07082 0.26346 0.0
H3502 H 0.6606 0.10161 0.2592 0.0
H3503 H 0.69809 0.1193 0.30088 0.0
H3504 H 0.76133 0.18941 0.27823 0.0
H3505 H 0.7447 0.15991 0.2841 0.0
H3506 H 0.71331 0.13727 0.23407 0.0
C3507 C 0.6678 0.09082 0.26746 0.0
C3508 C 0.70127 0.12329 0.28628 0.0
C3509 C 0.65931 0.07331 0.26996 0.0
C3510 C 0.75056 0.1851 0.26845 0.0
C3511 C 0.74091 0.16835 0.27184 0.0
C3512 C 0.70977 0.13381 0.24871 0.0
C3513 C 0.68565 0.09423 0.27528 0.0
C3514 C 0.69538 0.11206 0.27134 0.0
C3515 C 0.72659 0.16261 0.25955 0.0
C3516 C 0.71571 0.14521 0.26362 0.0
H3517 H 0.694 0.05158 0.29588 0.0
H3518 H 0.70858 0.08253 0.292 0.0
H3519 H 0.69531 0.1088 0.24086 0.0
H3520 H 0.729 0.19888 0.22766 0.0
H3521 H 0.71146 0.17 0.23387 0.0
C3522 C 0.69606 0.91538 0.01365 0.0
C3523 C 0.71165 0.92429 0.02177 0.0
C3524 C 0.67785 0.92378 0.0143 0.0
C3525 C 0.64752 0.95752 0.04071 0.0
H3526 H 0.61847 0.96006 0.99459 0.0
C3527 C 0.57532 0.99853 0.03661 0.0
C3528 C 0.56124 0.99148 0.02479 0.0
C3529 C 0.59369 0.9904 0.03667 0.0
C3530 C 0.62618 0.95922 0.00771 0.0
H3531 H 0.72033 0.94888 0.03715 0.0
H3532 H 0.68836 0.96344 0.03855 0.0
H3533 H 0.65027 0.94569 0.99399 0.0
H3534 H 0.55525 0.96997 0.00425 0.0
H3535 H 0.58689 0.9554 0.00485 0.0
H3536 H 0.62332 0.97061 0.0546 0.0
C3537 C 0.69029 0.94998 0.03163 0.0
C3538 C 0.64449 0.95105 0.00731 0.0
C3539 C 0.70859 0.94169 0.03075 0.0
C3540 C 0.56581 0.97586 0.0134 0.0
C3541 C 0.58407 0.96759 0.01364 0.0
C3542 C 0.62908 0.96549 0.04119 0.0
C3543 C 0.67475 0.94116 0.0233 0.0
C3544 C 0.65537 0.95008 0.02379 0.0
C3545 C 0.59838 0.97487 0.02508 0.0
C3546 C 0.61811 0.96644 0.02469 0.0
H3547 H 0.69796 0.90197 0.00663 0.0
H3548 H 0.66613 0.91656 0.0079 0.0
H3549 H 0.65549 0.9568 0.05369 0.0
H3550 H 0.57229 0.01061 0.0455 0.0
H3551 H 0.60432 0.9966 0.0455 0.0
C3552 C 0.35296 0.49129 0.25906 0.0
C3553 C 0.35701 0.50142 0.24228 0.0
C3554 C 0.34455 0.47366 0.25835 0.0
C3555 C 0.31707 0.44277 0.22774 0.0
H3556 H 0.33688 0.40343 0.26071 0.0
C3557 C 0.2961 0.36489 0.22144 0.0
C3558 C 0.29196 0.35522 0.23851 0.0
C3559 C 0.30393 0.38283 0.22168 0.0
C3560 C 0.33108 0.41432 0.25156 0.0
H3561 H 0.35521 0.50127 0.21162 0.0
H3562 H 0.34069 0.47026 0.21033 0.0
H3563 H 0.35054 0.43474 0.26143 0.0
H3564 H 0.29258 0.35696 0.26921 0.0
H3565 H 0.30638 0.38819 0.26959 0.0
H3566 H 0.29768 0.42224 0.21781 0.0
C3567 C 0.34382 0.47606 0.22405 0.0
C3568 C 0.33888 0.43225 0.25198 0.0
C3569 C 0.3522 0.49375 0.22478 0.0
C3570 C 0.29589 0.36386 0.25581 0.0
C3571 C 0.30377 0.38177 0.25604 0.0
C3572 C 0.3093 0.4248 0.22728 0.0
C3573 C 0.34009 0.46576 0.24083 0.0
C3574 C 0.3319 0.44669 0.24014 0.0
C3575 C 0.30784 0.39144 0.23897 0.0
C3576 C 0.31619 0.41043 0.23925 0.0
H3577 H 0.3564 0.49691 0.27277 0.0
H3578 H 0.34153 0.46622 0.27154 0.0
H3579 H 0.31125 0.45367 0.21862 0.0
H3580 H 0.29354 0.35853 0.20788 0.0
H3581 H 0.30719 0.38985 0.2083 0.0
C3582 C 0.22673 0.62585 0.99753 0.0
C3583 C 0.22625 0.64555 -0.00123 0.0
C3584 C 0.2099 0.61567 -0.00072 0.0
C3585 C 0.16249 0.61961 0.02192 0.0
H3586 H 0.1544 0.57239 0.9964 0.0
C3587 C 0.09619 0.57274 0.03513 0.0
C3588 C 0.09989 0.55329 0.03662 0.0
C3589 C 0.1108 0.58505 0.02992 0.0
C3590 C 0.15656 0.58551 0.00371 0.0
H3591 H 0.20775 0.67018 0.0015 0.0
H3592 H 0.17821 0.65234 0.00429 0.0
H3593 H 0.18069 0.59243 0.98594 0.0
H3594 H 0.12192 0.53158 0.03442 0.0
H3595 H 0.14749 0.5531 0.02562 0.0
H3596 H 0.13842 0.61253 0.03979 0.0
C3597 C 0.19165 0.64477 0.00232 0.0
C3598 C 0.17155 0.59699 0.99769 0.0
C3599 C 0.20852 0.65498 0.00057 0.0
C3600 C 0.11865 0.54649 0.03357 0.0
C3601 C 0.13322 0.55877 0.02826 0.0
C3602 C 0.14742 0.60815 0.02787 0.0
C3603 C 0.19224 0.62499 0.00227 0.0
C3604 C 0.17492 0.61399 0.00697 0.0
C3605 C 0.12935 0.5781 0.026 0.0
C3606 C 0.14457 0.59082 0.01906 0.0
H3607 H 0.2402 0.61821 0.99613 0.0
H3608 H 0.21089 0.60044 -0.00065 0.0
H3609 H 0.16487 0.63249 0.02955 0.0
H3610 H 0.08188 0.57835 0.03755 0.0
H3611 H 0.10745 0.5999 0.0283 0.0
C3612 C 0.66892 0.93839 0.28866 0.0
C3613 C 0.67703 0.95579 0.29268 0.0
C3614 C 0.67697 0.9218 0.2957 0.0
C3615 C 0.72247 0.90223 0.31004 0.0
H3616 H 0.69132 0.85934 0.32412 0.0
C3617 C 0.75628 0.82971 0.31048 0.0
C3618 C 0.74665 0.8174 0.29864 0.0
C3619 C 0.74696 0.84564 0.31768 0.0
C3620 C 0.70021 0.87124 0.32041 0.0
H3621 H 0.69969 0.96965 0.30741 0.0
H3622 H 0.71392 0.9405 0.31965 0.0
H3623 H 0.67645 0.89055 0.32134 0.0
H3624 H 0.71938 0.81106 0.2864 0.0
H3625 H 0.70326 0.83927 0.29839 0.0
H3626 H 0.746 0.88296 0.30796 0.0
C3627 C 0.70136 0.93973 0.31101 0.0
C3628 C 0.69172 0.88905 0.31879 0.0
C3629 C 0.6933 0.95637 0.30393 0.0
C3630 C 0.72715 0.82044 0.29537 0.0
C3631 C 0.71788 0.8365 0.30241 0.0
C3632 C 0.73094 0.88447 0.31165 0.0
C3633 C 0.69327 0.9223 0.30692 0.0
C3634 C 0.70266 0.90452 0.31276 0.0
C3635 C 0.72795 0.84965 0.31296 0.0
C3636 C 0.71975 0.86868 0.31604 0.0
H3637 H 0.65633 0.93756 0.28008 0.0
H3638 H 0.67069 0.90854 0.29195 0.0
H3639 H 0.73124 0.91386 0.30525 0.0
H3640 H 0.77124 0.82744 0.31357 0.0
H3641 H 0.75494 0.85534 0.32608 0.0
C3642 C 0.82776 0.1027 0.76495 0.0
C3643 C 0.83344 0.09403 0.74788 0.0
C3644 C 0.81271 0.11576 0.76536 0.0
C3645 C 0.79036 0.15086 0.73547 0.0
H3646 H 0.7562 0.15638 0.77928 0.0
C3647 C 0.75566 0.22214 0.75116 0.0
C3648 C 0.76054 0.22805 0.76937 0.0
C3649 C 0.75669 0.20304 0.74654 0.0
C3650 C 0.76548 0.15495 0.76684 0.0
H3651 H 0.8275 0.09177 0.71794 0.0
H3652 H 0.80127 0.11501 0.71861 0.0
H3653 H 0.77398 0.12689 0.77457 0.0
H3654 H 0.7683 0.2186 0.79753 0.0
H3655 H 0.77015 0.18553 0.78954 0.0
H3656 H 0.783 0.1793 0.72843 0.0
C3657 C 0.80847 0.11158 0.73166 0.0
C3658 C 0.77566 0.1381 0.76416 0.0
C3659 C 0.82346 0.09833 0.73129 0.0
C3660 C 0.76463 0.21446 0.78333 0.0
C3661 C 0.76552 0.19544 0.77877 0.0
C3662 C 0.78024 0.16774 0.73819 0.0
C3663 C 0.80307 0.12055 0.74869 0.0
C3664 C 0.78889 0.13625 0.74896 0.0
C3665 C 0.76244 0.18959 0.7601 0.0
C3666 C 0.76845 0.17029 0.75443 0.0
H3667 H 0.83513 0.09959 0.77798 0.0
H3668 H 0.80912 0.12268 0.77863 0.0
H3669 H 0.8005 0.14987 0.72366 0.0
H3670 H 0.75239 0.23234 0.74013 0.0
H3671 H 0.75403 0.19891 0.7321 0.0
loop_
_geom_bond_atom_site_label_1
_geom_bond_atom_site_label_2
_geom_bond_distance
_geom_bond_site_symmetry_2
_ccdc_geom_bond_type
In0 O1 2.294 . S
In0 O2 2.326 . S
In0 O6 2.266 . S
In0 O7 2.326 . S
In0 O8 2.266 . S
In0 O9 2.326 . S
In0 O11 2.294 1_455 S
In0 O12 2.326 1_455 S
O1 In0 2.294 . S
O1 C10 1.240 . S
O2 In0 2.326 . S
O2 C10 1.252 . S
C3 O6 1.252 . S
C3 O7 1.260 . S
C4 O11 1.240 . S
C4 O12 1.252 . S
C5 O8 1.252 . S
C5 O9 1.260 . S
O6 In0 2.266 . S
O6 C3 1.252 . S
O7 In0 2.326 . S
O7 C3 1.260 . S
O8 In0 2.266 . S
O8 C5 1.252 . S
O9 In0 2.326 . S
O9 C5 1.260 . S
C10 O1 1.240 . S
C10 O2 1.252 . S
O11 In0 2.294 1_655 S
O11 C4 1.240 . S
O12 In0 2.326 1_655 S
O12 C4 1.252 . S
In13 O14 2.294 . S
In13 O15 2.326 . S
In13 O19 2.266 . S
In13 O20 2.326 . S
In13 O21 2.266 . S
In13 O22 2.326 . S
In13 O24 2.294 . S
In13 O25 2.326 . S
O14 In13 2.294 . S
O14 C23 1.240 . S
O15 In13 2.326 . S
O15 C23 1.252 . S
C16 O19 1.252 . S
C16 O20 1.260 . S
C17 O24 1.240 . S
C17 O25 1.252 . S
C18 O21 1.252 . S
C18 O22 1.260 . S
O19 In13 2.266 . S
O19 C16 1.252 . S
O20 In13 2.326 . S
O20 C16 1.260 . S
O21 In13 2.266 . S
O21 C18 1.252 . S
O22 In13 2.326 . S
O22 C18 1.260 . S
C23 O14 1.240 . S
C23 O15 1.252 . S
O24 In13 2.294 . S
O24 C17 1.240 . S
O25 In13 2.326 . S
O25 C17 1.252 . S
In26 O27 2.294 . S
In26 O28 2.326 . S
In26 O32 2.266 . S
In26 O33 2.326 . S
In26 O34 2.266 . S
In26 O35 2.326 . S
In26 O37 2.294 . S
In26 O38 2.326 . S
O27 In26 2.294 . S
O27 C36 1.240 . S
O28 In26 2.326 . S
O28 C36 1.252 . S
C29 O32 1.252 . S
C29 O33 1.260 . S
C30 O37 1.240 . S
C30 O38 1.252 . S
C31 O34 1.252 . S
C31 O35 1.260 . S
O32 In26 2.266 . S
O32 C29 1.252 . S
O33 In26 2.326 . S
O33 C29 1.260 . S
O34 In26 2.266 . S
O34 C31 1.252 . S
O35 In26 2.326 . S
O35 C31 1.260 . S
C36 O27 1.240 . S
C36 O28 1.252 . S
O37 In26 2.294 . S
O37 C30 1.240 . S
O38 In26 2.326 . S
O38 C30 1.252 . S
In39 O40 2.294 . S
In39 O41 2.326 . S
In39 O45 2.266 . S
In39 O46 2.326 . S
In39 O47 2.266 . S
In39 O48 2.326 . S
In39 O50 2.294 . S
In39 O51 2.326 . S
O40 In39 2.294 . S
O40 C49 1.240 . S
O41 In39 2.326 . S
O41 C49 1.252 . S
C42 O45 1.252 . S
C42 O46 1.260 . S
C43 O50 1.240 . S
C43 O51 1.252 . S
C44 O47 1.252 . S
C44 O48 1.260 . S
O45 In39 2.266 . S
O45 C42 1.252 . S
O46 In39 2.326 . S
O46 C42 1.260 . S
O47 In39 2.266 . S
O47 C44 1.252 . S
O48 In39 2.326 . S
O48 C44 1.260 . S
C49 O40 1.240 . S
C49 O41 1.252 . S
O50 In39 2.294 . S
O50 C43 1.240 . S
O51 In39 2.326 . S
O51 C43 1.252 . S
In52 O53 2.294 1_545 S
In52 O54 2.326 1_545 S
In52 O58 2.266 . S
In52 O59 2.326 . S
In52 O60 2.266 . S
In52 O61 2.326 . S
In52 O63 2.294 . S
In52 O64 2.326 . S
O53 In52 2.294 1_565 S
O53 C62 1.240 . S
O54 In52 2.326 1_565 S
O54 C62 1.252 . S
C55 O58 1.252 . S
C55 O59 1.260 . S
C56 O63 1.240 . S
C56 O64 1.252 . S
C57 O60 1.252 . S
C57 O61 1.260 . S
O58 In52 2.266 . S
O58 C55 1.252 . S
O59 In52 2.326 . S
O59 C55 1.260 . S
O60 In52 2.266 . S
O60 C57 1.252 . S
O61 In52 2.326 . S
O61 C57 1.260 . S
C62 O53 1.240 . S
C62 O54 1.252 . S
O63 In52 2.294 . S
O63 C56 1.240 . S
O64 In52 2.326 . S
O64 C56 1.252 . S
In65 O66 2.294 . S
In65 O67 2.326 . S
In65 O71 2.266 . S
In65 O72 2.326 . S
In65 O73 2.266 . S
In65 O74 2.326 . S
In65 O76 2.294 . S
In65 O77 2.326 . S
O66 In65 2.294 . S
O66 C75 1.240 . S
O67 In65 2.326 . S
O67 C75 1.252 . S
C68 O71 1.252 . S
C68 O72 1.260 . S
C69 O76 1.240 . S
C69 O77 1.252 . S
C70 O73 1.252 . S
C70 O74 1.260 . S
O71 In65 2.266 . S
O71 C68 1.252 . S
O72 In65 2.326 . S
O72 C68 1.260 . S
O73 In65 2.266 . S
O73 C70 1.252 . S
O74 In65 2.326 . S
O74 C70 1.260 . S
C75 O66 1.240 . S
C75 O67 1.252 . S
O76 In65 2.294 . S
O76 C69 1.240 . S
O77 In65 2.326 . S
O77 C69 1.252 . S
In78 O79 2.294 . S
In78 O80 2.326 . S
In78 O84 2.266 . S
In78 O85 2.326 . S
In78 O86 2.266 . S
In78 O87 2.326 . S
In78 O89 2.294 . S
In78 O90 2.326 . S
O79 In78 2.294 . S
O79 C88 1.240 . S
O80 In78 2.326 . S
O80 C88 1.252 . S
C81 O84 1.252 . S
C81 O85 1.260 . S
C82 O89 1.240 . S
C82 O90 1.252 . S
C83 O86 1.252 . S
C83 O87 1.260 . S
O84 In78 2.266 . S
O84 C81 1.252 . S
O85 In78 2.326 . S
O85 C81 1.260 . S
O86 In78 2.266 . S
O86 C83 1.252 . S
O87 In78 2.326 . S
O87 C83 1.260 . S
C88 O79 1.240 . S
C88 O80 1.252 . S
O89 In78 2.294 . S
O89 C82 1.240 . S
O90 In78 2.326 . S
O90 C82 1.252 . S
In91 O92 2.294 . S
In91 O93 2.326 . S
In91 O97 2.266 . S
In91 O98 2.326 . S
In91 O99 2.266 . S
In91 O100 2.326 1_554 S
In91 O102 2.294 . S
In91 O103 2.326 . S
O92 In91 2.294 . S
O92 C101 1.240 . S
O93 In91 2.326 . S
O93 C101 1.252 . S
C94 O97 1.252 . S
C94 O98 1.260 . S
C95 O102 1.240 . S
C95 O103 1.252 . S
C96 O99 1.252 1_556 S
C96 O100 1.260 . S
O97 In91 2.266 . S
O97 C94 1.252 . S
O98 In91 2.326 . S
O98 C94 1.260 . S
O99 In91 2.266 . S
O99 C96 1.252 1_554 S
O100 In91 2.326 1_556 S
O100 C96 1.260 . S
C101 O92 1.240 . S
C101 O93 1.252 . S
O102 In91 2.294 . S
O102 C95 1.240 . S
O103 In91 2.326 . S
O103 C95 1.252 . S
In104 O105 2.294 . S
In104 O106 2.326 . S
In104 O110 2.266 . S
In104 O111 2.326 . S
In104 O112 2.266 . S
In104 O113 2.326 . S
In104 O115 2.294 . S
In104 O116 2.326 . S
O105 In104 2.294 . S
O105 C114 1.240 . S
O106 In104 2.326 . S
O106 C114 1.252 . S
C107 O110 1.252 . S
C107 O111 1.260 . S
C108 O115 1.240 . S
C108 O116 1.252 . S
C109 O112 1.252 . S
C109 O113 1.260 . S
O110 In104 2.266 . S
O110 C107 1.252 . S
O111 In104 2.326 . S
O111 C107 1.260 . S
O112 In104 2.266 . S
O112 C109 1.252 . S
O113 In104 2.326 . S
O113 C109 1.260 . S
C114 O105 1.240 . S
C114 O106 1.252 . S
O115 In104 2.294 . S
O115 C108 1.240 . S
O116 In104 2.326 . S
O116 C108 1.252 . S
In117 O118 2.294 . S
In117 O119 2.326 . S
In117 O123 2.266 . S
In117 O124 2.326 . S
In117 O125 2.266 . S
In117 O126 2.326 . S
In117 O128 2.294 . S
In117 O129 2.326 . S
O118 In117 2.294 . S
O118 C127 1.240 . S
O119 In117 2.326 . S
O119 C127 1.252 . S
C120 O123 1.252 . S
C120 O124 1.260 . S
C121 O128 1.240 . S
C121 O129 1.252 . S
C122 O125 1.252 . S
C122 O126 1.260 . S
O123 In117 2.266 . S
O123 C120 1.252 . S
O124 In117 2.326 . S
O124 C120 1.260 . S
O125 In117 2.266 . S
O125 C122 1.252 . S
O126 In117 2.326 . S
O126 C122 1.260 . S
C127 O118 1.240 . S
C127 O119 1.252 . S
O128 In117 2.294 . S
O128 C121 1.240 . S
O129 In117 2.326 . S
O129 C121 1.252 . S
In130 O131 2.294 . S
In130 O132 2.326 . S
In130 O136 2.266 . S
In130 O137 2.326 . S
In130 O138 2.266 . S
In130 O139 2.326 . S
In130 O141 2.294 . S
In130 O142 2.326 . S
O131 In130 2.294 . S
O131 C140 1.240 . S
O132 In130 2.326 . S
O132 C140 1.252 . S
C133 O136 1.252 . S
C133 O137 1.260 . S
C134 O141 1.240 . S
C134 O142 1.252 . S
C135 O138 1.252 . S
C135 O139 1.260 . S
O136 In130 2.266 . S
O136 C133 1.252 . S
O137 In130 2.326 . S
O137 C133 1.260 . S
O138 In130 2.266 . S
O138 C135 1.252 . S
O139 In130 2.326 . S
O139 C135 1.260 . S
C140 O131 1.240 . S
C140 O132 1.252 . S
O141 In130 2.294 . S
O141 C134 1.240 . S
O142 In130 2.326 . S
O142 C134 1.252 . S
In143 O144 2.294 . S
In143 O145 2.326 . S
In143 O149 2.266 . S
In143 O150 2.326 . S
In143 O151 2.266 . S
In143 O152 2.326 . S
In143 O154 2.294 . S
In143 O155 2.326 . S
O144 In143 2.294 . S
O144 C153 1.240 . S
O145 In143 2.326 . S
O145 C153 1.252 . S
C146 O149 1.252 . S
C146 O150 1.260 . S
C147 O154 1.240 . S
C147 O155 1.252 . S
C148 O151 1.252 . S
C148 O152 1.260 . S
O149 In143 2.266 . S
O149 C146 1.252 . S
O150 In143 2.326 . S
O150 C146 1.260 . S
O151 In143 2.266 . S
O151 C148 1.252 . S
O152 In143 2.326 . S
O152 C148 1.260 . S
C153 O144 1.240 . S
C153 O145 1.252 . S
O154 In143 2.294 . S
O154 C147 1.240 . S
O155 In143 2.326 . S
O155 C147 1.252 . S
In156 O157 2.294 . S
In156 O158 2.326 . S
In156 O162 2.266 1_455 S
In156 O163 2.326 1_455 S
In156 O164 2.266 . S
In156 O165 2.326 . S
In156 O167 2.294 . S
In156 O168 2.326 . S
O157 In156 2.294 . S
O157 C166 1.240 . S
O158 In156 2.326 . S
O158 C166 1.252 . S
C159 O162 1.252 . S
C159 O163 1.260 . S
C160 O167 1.240 . S
C160 O168 1.252 . S
C161 O164 1.252 . S
C161 O165 1.260 . S
O162 In156 2.266 1_655 S
O162 C159 1.252 . S
O163 In156 2.326 1_655 S
O163 C159 1.260 . S
O164 In156 2.266 . S
O164 C161 1.252 . S
O165 In156 2.326 . S
O165 C161 1.260 . S
C166 O157 1.240 . S
C166 O158 1.252 . S
O167 In156 2.294 . S
O167 C160 1.240 . S
O168 In156 2.326 . S
O168 C160 1.252 . S
In169 O170 2.294 . S
In169 O171 2.327 . S
In169 O175 2.266 1_455 S
In169 O176 2.325 1_455 S
In169 O177 2.264 1_455 S
In169 O178 2.322 1_455 S
In169 O180 2.296 . S
In169 O181 2.329 . S
O170 In169 2.294 . S
O170 C179 1.240 . S
O171 In169 2.327 . S
O171 C179 1.252 . S
C172 O175 1.252 . S
C172 O176 1.260 . S
C173 O180 1.240 . S
C173 O181 1.252 . S
C174 O177 1.252 . S
C174 O178 1.260 . S
O175 In169 2.266 1_655 S
O175 C172 1.252 . S
O176 In169 2.325 1_655 S
O176 C172 1.260 . S
O177 In169 2.264 1_655 S
O177 C174 1.252 . S
O178 In169 2.322 1_655 S
O178 C174 1.260 . S
C179 O170 1.240 . S
C179 O171 1.252 . S
O180 In169 2.296 . S
O180 C173 1.240 . S
O181 In169 2.329 . S
O181 C173 1.252 . S
In182 O183 2.294 . S
In182 O184 2.326 . S
In182 O188 2.266 . S
In182 O189 2.326 . S
In182 O190 2.266 . S
In182 O191 2.326 . S
In182 O193 2.294 . S
In182 O194 2.326 . S
O183 In182 2.294 . S
O183 C192 1.240 . S
O184 In182 2.326 . S
O184 C192 1.252 . S
C185 O188 1.252 . S
C185 O189 1.260 . S
C186 O193 1.240 . S
C186 O194 1.252 . S
C187 O190 1.252 . S
C187 O191 1.260 . S
O188 In182 2.266 . S
O188 C185 1.252 . S
O189 In182 2.326 . S
O189 C185 1.260 . S
O190 In182 2.266 . S
O190 C187 1.252 . S
O191 In182 2.326 . S
O191 C187 1.260 . S
C192 O183 1.240 . S
C192 O184 1.252 . S
O193 In182 2.294 . S
O193 C186 1.240 . S
O194 In182 2.326 . S
O194 C186 1.252 . S
In195 O196 2.294 . S
In195 O197 2.326 . S
In195 O201 2.266 . S
In195 O202 2.326 . S
In195 O203 2.266 . S
In195 O204 2.326 . S
In195 O206 2.294 . S
In195 O207 2.326 . S
O196 In195 2.294 . S
O196 C205 1.240 . S
O197 In195 2.326 . S
O197 C205 1.252 . S
C198 O201 1.252 . S
C198 O202 1.260 . S
C199 O206 1.240 . S
C199 O207 1.252 . S
C200 O203 1.252 . S
C200 O204 1.260 . S
O201 In195 2.266 . S
O201 C198 1.252 . S
O202 In195 2.326 . S
O202 C198 1.260 . S
O203 In195 2.266 . S
O203 C200 1.252 . S
O204 In195 2.326 . S
O204 C200 1.260 . S
C205 O196 1.240 . S
C205 O197 1.252 . S
O206 In195 2.294 . S
O206 C199 1.240 . S
O207 In195 2.326 . S
O207 C199 1.252 . S
In208 O209 2.294 . S
In208 O210 2.326 . S
In208 O214 2.266 . S
In208 O215 2.326 . S
In208 O216 2.266 . S
In208 O217 2.326 . S
In208 O219 2.294 . S
In208 O220 2.326 . S
O209 In208 2.294 . S
O209 C218 1.240 . S
O210 In208 2.326 . S
O210 C218 1.252 . S
C211 O214 1.252 . S
C211 O215 1.260 . S
C212 O219 1.240 . S
C212 O220 1.252 . S
C213 O216 1.252 . S
C213 O217 1.260 . S
O214 In208 2.266 . S
O214 C211 1.252 . S
O215 In208 2.326 . S
O215 C211 1.260 . S
O216 In208 2.266 . S
O216 C213 1.252 . S
O217 In208 2.326 . S
O217 C213 1.260 . S
C218 O209 1.240 . S
C218 O210 1.252 . S
O219 In208 2.294 . S
O219 C212 1.240 . S
O220 In208 2.326 . S
O220 C212 1.252 . S
In221 O222 2.294 . S
In221 O223 2.326 . S
In221 O227 2.266 . S
In221 O228 2.326 . S
In221 O229 2.266 . S
In221 O230 2.326 . S
In221 O232 2.294 . S
In221 O233 2.326 . S
O222 In221 2.294 . S
O222 C231 1.240 . S
O223 In221 2.326 . S
O223 C231 1.252 . S
C224 O227 1.252 . S
C224 O228 1.260 . S
C225 O232 1.240 . S
C225 O233 1.252 . S
C226 O229 1.252 . S
C226 O230 1.260 . S
O227 In221 2.266 . S
O227 C224 1.252 . S
O228 In221 2.326 . S
O228 C224 1.260 . S
O229 In221 2.266 . S
O229 C226 1.252 . S
O230 In221 2.326 . S
O230 C226 1.260 . S
C231 O222 1.240 . S
C231 O223 1.252 . S
O232 In221 2.294 . S
O232 C225 1.240 . S
O233 In221 2.326 . S
O233 C225 1.252 . S
In234 O235 2.294 1_545 S
In234 O236 2.326 1_545 S
In234 O240 2.266 . S
In234 O241 2.326 . S
In234 O242 2.266 . S
In234 O243 2.326 . S
In234 O245 2.294 . S
In234 O246 2.326 . S
O235 In234 2.294 1_565 S
O235 C244 1.240 . S
O236 In234 2.326 1_565 S
O236 C244 1.252 . S
C237 O240 1.252 . S
C237 O241 1.260 . S
C238 O245 1.240 . S
C238 O246 1.252 . S
C239 O242 1.252 . S
C239 O243 1.260 . S
O240 In234 2.266 . S
O240 C237 1.252 . S
O241 In234 2.326 . S
O241 C237 1.260 . S
O242 In234 2.266 . S
O242 C239 1.252 . S
O243 In234 2.326 . S
O243 C239 1.260 . S
C244 O235 1.240 . S
C244 O236 1.252 . S
O245 In234 2.294 . S
O245 C238 1.240 . S
O246 In234 2.326 . S
O246 C238 1.252 . S
In247 O248 2.294 . S
In247 O249 2.326 . S
In247 O253 2.266 . S
In247 O254 2.326 . S
In247 O255 2.266 1_554 S
In247 O256 2.326 1_554 S
In247 O258 2.294 . S
In247 O259 2.326 . S
O248 In247 2.294 . S
O248 C257 1.240 . S
O249 In247 2.326 . S
O249 C257 1.252 . S
C250 O253 1.252 . S
C250 O254 1.260 . S
C251 O258 1.240 . S
C251 O259 1.252 . S
C252 O255 1.252 . S
C252 O256 1.260 . S
O253 In247 2.266 . S
O253 C250 1.252 . S
O254 In247 2.326 . S
O254 C250 1.260 . S
O255 In247 2.266 1_556 S
O255 C252 1.252 . S
O256 In247 2.326 1_556 S
O256 C252 1.260 . S
C257 O248 1.240 . S
C257 O249 1.252 . S
O258 In247 2.294 . S
O258 C251 1.240 . S
O259 In247 2.326 . S
O259 C251 1.252 . S
In260 O261 2.296 . S
In260 O262 2.329 . S
In260 O266 2.264 1_554 S
In260 O267 2.322 1_554 S
In260 O268 2.266 1_554 S
In260 O269 2.325 1_554 S
In260 O271 2.294 . S
In260 O272 2.327 . S
O261 In260 2.296 . S
O261 C270 1.240 . S
O262 In260 2.329 . S
O262 C270 1.252 . S
C263 O266 1.252 . S
C263 O267 1.260 . S
C264 O271 1.240 . S
C264 O272 1.252 . S
C265 O268 1.252 . S
C265 O269 1.260 . S
O266 In260 2.264 1_556 S
O266 C263 1.252 . S
O267 In260 2.322 1_556 S
O267 C263 1.260 . S
O268 In260 2.266 1_556 S
O268 C265 1.252 . S
O269 In260 2.325 1_556 S
O269 C265 1.260 . S
C270 O261 1.240 . S
C270 O262 1.252 . S
O271 In260 2.294 . S
O271 C264 1.240 . S
O272 In260 2.327 . S
O272 C264 1.252 . S
In273 O274 2.294 . S
In273 O275 2.326 . S
In273 O279 2.266 . S
In273 O280 2.326 . S
In273 O281 2.266 . S
In273 O282 2.326 . S
In273 O284 2.294 . S
In273 O285 2.326 . S
O274 In273 2.294 . S
O274 C283 1.240 . S
O275 In273 2.326 . S
O275 C283 1.252 . S
C276 O279 1.252 . S
C276 O280 1.260 . S
C277 O284 1.240 . S
C277 O285 1.252 . S
C278 O281 1.252 . S
C278 O282 1.260 . S
O279 In273 2.266 . S
O279 C276 1.252 . S
O280 In273 2.326 . S
O280 C276 1.260 . S
O281 In273 2.266 . S
O281 C278 1.252 . S
O282 In273 2.326 . S
O282 C278 1.260 . S
C283 O274 1.240 . S
C283 O275 1.252 . S
O284 In273 2.294 . S
O284 C277 1.240 . S
O285 In273 2.326 . S
O285 C277 1.252 . S
In286 O287 2.294 . S
In286 O288 2.326 . S
In286 O292 2.266 . S
In286 O293 2.326 . S
In286 O294 2.266 . S
In286 O295 2.326 . S
In286 O297 2.294 . S
In286 O298 2.326 . S
O287 In286 2.294 . S
O287 C296 1.240 . S
O288 In286 2.326 . S
O288 C296 1.252 . S
C289 O292 1.252 . S
C289 O293 1.260 . S
C290 O297 1.240 . S
C290 O298 1.252 . S
C291 O294 1.252 . S
C291 O295 1.260 . S
O292 In286 2.266 . S
O292 C289 1.252 . S
O293 In286 2.326 . S
O293 C289 1.260 . S
O294 In286 2.266 . S
O294 C291 1.252 . S
O295 In286 2.326 . S
O295 C291 1.260 . S
C296 O287 1.240 . S
C296 O288 1.252 . S
O297 In286 2.294 . S
O297 C290 1.240 . S
O298 In286 2.326 . S
O298 C290 1.252 . S
In299 O300 2.294 . S
In299 O301 2.326 . S
In299 O305 2.266 . S
In299 O306 2.326 . S
In299 O307 2.266 . S
In299 O308 2.326 . S
In299 O310 2.294 . S
In299 O311 2.326 . S
O300 In299 2.294 . S
O300 C309 1.240 . S
O301 In299 2.326 . S
O301 C309 1.252 . S
C302 O305 1.252 . S
C302 O306 1.260 . S
C303 O310 1.240 . S
C303 O311 1.252 . S
C304 O307 1.252 . S
C304 O308 1.260 . S
O305 In299 2.266 . S
O305 C302 1.252 . S
O306 In299 2.326 . S
O306 C302 1.260 . S
O307 In299 2.266 . S
O307 C304 1.252 . S
O308 In299 2.326 . S
O308 C304 1.260 . S
C309 O300 1.240 . S
C309 O301 1.252 . S
O310 In299 2.294 . S
O310 C303 1.240 . S
O311 In299 2.326 . S
O311 C303 1.252 . S
Co312 N317 2.062 . S
Co312 O329 2.021 1_545 S
Co312 O332 2.062 1_456 S
Co312 O336 2.117 1_556 S
Co312 O337 2.020 . S
C313 O333 1.259 . S
C313 O336 1.258 . S
Co314 N323 2.057 . S
Co314 O330 2.117 1_545 S
Co314 O331 2.020 1_455 S
Co314 O333 2.021 . S
Co314 O338 2.062 . S
C315 N317 1.313 1_655 S
C315 N318 1.347 . S
C315 H320 0.931 . S
C316 N317 1.371 1_655 S
C316 C319 1.350 . S
C316 H321 0.930 . S
N317 Co312 2.062 . S
N317 C315 1.313 1_455 S
N317 C316 1.371 1_455 S
N318 C315 1.347 . S
N318 C319 1.373 . S
C319 C316 1.350 . S
C319 N318 1.373 . S
C319 H340 0.931 . S
H320 C315 0.931 . S
H321 C316 0.930 . S
C322 O329 1.259 1_554 S
C322 O330 1.258 . S
N323 Co314 2.057 . S
N323 C324 1.316 . S
N323 C325 1.375 1_545 S
C324 N323 1.316 . S
C324 N326 1.347 1_545 S
C324 H335 0.931 . S
C325 N323 1.375 1_565 S
C325 C327 1.350 . S
C325 H334 0.930 . S
N326 C324 1.347 1_565 S
N326 C327 1.373 . S
C327 C325 1.350 . S
C327 N326 1.373 . S
C327 H341 0.931 . S
C328 O331 1.256 . S
C328 O332 1.255 . S
O329 Co312 2.021 1_565 S
O329 C322 1.259 1_556 S
O330 Co314 2.117 1_565 S
O330 C322 1.258 . S
O331 Co314 2.020 1_655 S
O331 C328 1.256 . S
O332 Co312 2.062 1_654 S
O332 C328 1.255 . S
O333 C313 1.259 . S
O333 Co314 2.021 . S
H334 C325 0.930 . S
H335 C324 0.931 . S
O336 Co312 2.117 1_554 S
O336 C313 1.258 . S
O337 Co312 2.020 . S
O337 C339 1.256 1_556 S
O338 Co314 2.062 . S
O338 C339 1.255 . S
C339 O337 1.256 1_554 S
C339 O338 1.255 . S
H340 C319 0.931 . S
H341 C327 0.931 . S
Co342 N347 2.057 . S
Co342 O359 2.021 . S
Co342 O362 2.062 . S
Co342 O366 2.117 . S
Co342 O367 2.020 . S
C343 O363 1.259 . S
C343 O366 1.258 . S
Co344 N353 2.057 . S
Co344 O360 2.117 . S
Co344 O361 2.020 . S
Co344 O363 2.021 . S
Co344 O368 2.062 . S
C345 N347 1.316 . S
C345 N348 1.347 . S
C345 H350 0.931 . S
C346 N347 1.375 . S
C346 C349 1.350 . S
C346 H351 0.930 . S
N347 Co342 2.057 . S
N347 C345 1.316 . S
N347 C346 1.375 . S
N348 C345 1.347 . S
N348 C349 1.373 . S
C349 C346 1.350 . S
C349 N348 1.373 . S
C349 H370 0.931 . S
H350 C345 0.931 . S
H351 C346 0.930 . S
C352 O359 1.259 . S
C352 O360 1.258 . S
N353 Co344 2.057 . S
N353 C354 1.316 . S
N353 C355 1.375 . S
C354 N353 1.316 . S
C354 N356 1.347 . S
C354 H365 0.931 . S
C355 N353 1.375 . S
C355 C357 1.350 . S
C355 H364 0.930 . S
N356 C354 1.347 . S
N356 C357 1.373 . S
C357 C355 1.350 . S
C357 N356 1.373 . S
C357 H371 0.931 . S
C358 O361 1.256 . S
C358 O362 1.255 . S
O359 Co342 2.021 . S
O359 C352 1.259 . S
O360 Co344 2.117 . S
O360 C352 1.258 . S
O361 Co344 2.020 . S
O361 C358 1.256 . S
O362 Co342 2.062 . S
O362 C358 1.255 . S
O363 C343 1.259 . S
O363 Co344 2.021 . S
H364 C355 0.930 . S
H365 C354 0.931 . S
O366 Co342 2.117 . S
O366 C343 1.258 . S
O367 Co342 2.020 . S
O367 C369 1.256 . S
O368 Co344 2.062 . S
O368 C369 1.255 . S
C369 O367 1.256 . S
C369 O368 1.255 . S
H370 C349 0.931 . S
H371 C357 0.931 . S
Co372 N377 2.057 . S
Co372 O389 2.021 1_545 S
Co372 O392 2.062 . S
Co372 O396 2.117 . S
Co372 O397 2.020 . S
C373 O393 1.259 . S
C373 O396 1.258 . S
Co374 N383 2.057 . S
Co374 O390 2.117 . S
Co374 O391 2.020 . S
Co374 O393 2.021 . S
Co374 O398 2.062 . S
C375 N377 1.316 . S
C375 N378 1.347 . S
C375 H380 0.931 1_545 S
C376 N377 1.375 . S
C376 C379 1.350 . S
C376 H381 0.930 . S
N377 Co372 2.057 . S
N377 C375 1.316 . S
N377 C376 1.375 . S
N378 C375 1.347 . S
N378 C379 1.373 . S
C379 C376 1.350 . S
C379 N378 1.373 . S
C379 H400 0.931 . S
H380 C375 0.931 1_565 S
H381 C376 0.930 . S
C382 O389 1.259 . S
C382 O390 1.258 1_565 S
N383 Co374 2.057 . S
N383 C384 1.316 . S
N383 C385 1.375 . S
C384 N383 1.316 . S
C384 N386 1.347 . S
C384 H395 0.931 . S
C385 N383 1.375 . S
C385 C387 1.350 . S
C385 H394 0.930 . S
N386 C384 1.347 . S
N386 C387 1.373 . S
C387 C385 1.350 . S
C387 N386 1.373 . S
C387 H401 0.931 . S
C388 O391 1.256 . S
C388 O392 1.255 . S
O389 Co372 2.021 1_565 S
O389 C382 1.259 . S
O390 Co374 2.117 . S
O390 C382 1.258 1_545 S
O391 Co374 2.020 . S
O391 C388 1.256 . S
O392 Co372 2.062 . S
O392 C388 1.255 . S
O393 C373 1.259 . S
O393 Co374 2.021 . S
H394 C385 0.930 . S
H395 C384 0.931 . S
O396 Co372 2.117 . S
O396 C373 1.258 . S
O397 Co372 2.020 . S
O397 C399 1.256 . S
O398 Co374 2.062 . S
O398 C399 1.255 . S
C399 O397 1.256 . S
C399 O398 1.255 . S
H400 C379 0.931 . S
H401 C387 0.931 . S
Co402 N407 2.057 . S
Co402 O419 2.021 . S
Co402 O422 2.062 . S
Co402 O426 2.117 . S
Co402 O427 2.020 . S
C403 O423 1.259 . S
C403 O426 1.258 . S
Co404 N413 2.057 . S
Co404 O420 2.117 . S
Co404 O421 2.020 . S
Co404 O423 2.021 . S
Co404 O428 2.062 . S
C405 N407 1.316 . S
C405 N408 1.347 . S
C405 H410 0.931 . S
C406 N407 1.375 . S
C406 C409 1.350 . S
C406 H411 0.930 . S
N407 Co402 2.057 . S
N407 C405 1.316 . S
N407 C406 1.375 . S
N408 C405 1.347 . S
N408 C409 1.373 . S
C409 C406 1.350 . S
C409 N408 1.373 . S
C409 H430 0.931 . S
H410 C405 0.931 . S
H411 C406 0.930 . S
C412 O419 1.259 . S
C412 O420 1.258 . S
N413 Co404 2.057 . S
N413 C414 1.316 . S
N413 C415 1.375 . S
C414 N413 1.316 . S
C414 N416 1.347 . S
C414 H425 0.931 . S
C415 N413 1.375 . S
C415 C417 1.350 . S
C415 H424 0.930 . S
N416 C414 1.347 . S
N416 C417 1.373 . S
C417 C415 1.350 . S
C417 N416 1.373 . S
C417 H431 0.931 . S
C418 O421 1.256 . S
C418 O422 1.255 . S
O419 Co402 2.021 . S
O419 C412 1.259 . S
O420 Co404 2.117 . S
O420 C412 1.258 . S
O421 Co404 2.020 . S
O421 C418 1.256 . S
O422 Co402 2.062 . S
O422 C418 1.255 . S
O423 C403 1.259 . S
O423 Co404 2.021 . S
H424 C415 0.930 . S
H425 C414 0.931 . S
O426 Co402 2.117 . S
O426 C403 1.258 . S
O427 Co402 2.020 . S
O427 C429 1.256 . S
O428 Co404 2.062 . S
O428 C429 1.255 . S
C429 O427 1.256 . S
C429 O428 1.255 . S
H430 C409 0.931 . S
H431 C417 0.931 . S
Co432 N437 2.057 1_445 S
Co432 O449 2.021 . S
Co432 O452 2.062 . S
Co432 O456 2.117 1_455 S
Co432 O457 2.020 1_455 S
C433 O453 1.259 1_655 S
C433 O456 1.258 . S
Co434 N443 2.057 . S
Co434 O450 2.117 . S
Co434 O451 2.020 . S
Co434 O453 2.021 . S
Co434 O458 2.062 1_455 S
C435 N437 1.316 1_455 S
C435 N438 1.347 1_455 S
C435 H440 0.931 . S
C436 N437 1.375 . S
C436 C439 1.350 . S
C436 H441 0.930 . S
N437 Co432 2.057 1_665 S
N437 C435 1.316 1_655 S
N437 C436 1.375 . S
N438 C435 1.347 1_655 S
N438 C439 1.373 . S
C439 C436 1.350 . S
C439 N438 1.373 . S
C439 H460 0.931 . S
H440 C435 0.931 . S
H441 C436 0.930 . S
C442 O449 1.259 . S
C442 O450 1.258 . S
N443 Co434 2.057 . S
N443 C444 1.316 . S
N443 C445 1.375 . S
C444 N443 1.316 . S
C444 N446 1.347 . S
C444 H455 0.931 . S
C445 N443 1.375 . S
C445 C447 1.350 . S
C445 H454 0.930 . S
N446 C444 1.347 . S
N446 C447 1.373 . S
C447 C445 1.350 . S
C447 N446 1.373 . S
C447 H461 0.931 . S
C448 O451 1.256 . S
C448 O452 1.255 . S
O449 Co432 2.021 . S
O449 C442 1.259 . S
O450 Co434 2.117 . S
O450 C442 1.258 . S
O451 Co434 2.020 . S
O451 C448 1.256 . S
O452 Co432 2.062 . S
O452 C448 1.255 . S
O453 C433 1.259 1_455 S
O453 Co434 2.021 . S
H454 C445 0.930 . S
H455 C444 0.931 . S
O456 Co432 2.117 1_655 S
O456 C433 1.258 . S
O457 Co432 2.020 1_655 S
O457 C459 1.256 . S
O458 Co434 2.062 1_655 S
O458 C459 1.255 . S
C459 O457 1.256 . S
C459 O458 1.255 . S
H460 C439 0.931 . S
H461 C447 0.931 . S
Co462 N467 2.057 . S
Co462 O479 2.021 . S
Co462 O482 2.062 . S
Co462 O486 2.117 . S
Co462 O487 2.020 . S
C463 O483 1.259 . S
C463 O486 1.258 . S
Co464 N473 2.057 . S
Co464 O480 2.117 . S
Co464 O481 2.020 . S
Co464 O483 2.021 . S
Co464 O488 2.062 . S
C465 N467 1.316 . S
C465 N468 1.347 . S
C465 H470 0.931 . S
C466 N467 1.375 . S
C466 C469 1.350 . S
C466 H471 0.930 . S
N467 Co462 2.057 . S
N467 C465 1.316 . S
N467 C466 1.375 . S
N468 C465 1.347 . S
N468 C469 1.373 . S
C469 C466 1.350 . S
C469 N468 1.373 . S
C469 H490 0.931 . S
H470 C465 0.931 . S
H471 C466 0.930 . S
C472 O479 1.259 . S
C472 O480 1.258 . S
N473 Co464 2.057 . S
N473 C474 1.316 . S
N473 C475 1.375 . S
C474 N473 1.316 . S
C474 N476 1.347 . S
C474 H485 0.931 . S
C475 N473 1.375 . S
C475 C477 1.350 . S
C475 H484 0.930 . S
N476 C474 1.347 . S
N476 C477 1.373 . S
C477 C475 1.350 . S
C477 N476 1.373 . S
C477 H491 0.931 . S
C478 O481 1.256 . S
C478 O482 1.255 . S
O479 Co462 2.021 . S
O479 C472 1.259 . S
O480 Co464 2.117 . S
O480 C472 1.258 . S
O481 Co464 2.020 . S
O481 C478 1.256 . S
O482 Co462 2.062 . S
O482 C478 1.255 . S
O483 C463 1.259 . S
O483 Co464 2.021 . S
H484 C475 0.930 . S
H485 C474 0.931 . S
O486 Co462 2.117 . S
O486 C463 1.258 . S
O487 Co462 2.020 . S
O487 C489 1.256 . S
O488 Co464 2.062 . S
O488 C489 1.255 . S
C489 O487 1.256 . S
C489 O488 1.255 . S
H490 C469 0.931 . S
H491 C477 0.931 . S
Co492 N497 2.057 1_554 S
Co492 O509 2.021 . S
Co492 O512 2.062 1_554 S
Co492 O516 2.117 . S
Co492 O517 2.020 1_545 S
C493 O513 1.259 . S
C493 O516 1.258 . S
Co494 N503 2.057 . S
Co494 O510 2.117 . S
Co494 O511 2.020 . S
Co494 O513 2.021 . S
Co494 O518 2.062 1_545 S
C495 N497 1.316 . S
C495 N498 1.347 . S
C495 H500 0.931 . S
C496 N497 1.375 1_565 S
C496 C499 1.350 . S
C496 H501 0.930 . S
N497 Co492 2.057 1_556 S
N497 C495 1.316 . S
N497 C496 1.375 1_545 S
N498 C495 1.347 . S
N498 C499 1.373 1_545 S
C499 C496 1.350 . S
C499 N498 1.373 1_565 S
C499 H520 0.931 . S
H500 C495 0.931 . S
H501 C496 0.930 . S
C502 O509 1.259 . S
C502 O510 1.258 . S
N503 Co494 2.057 . S
N503 C504 1.316 . S
N503 C505 1.375 . S
C504 N503 1.316 . S
C504 N506 1.347 . S
C504 H515 0.931 . S
C505 N503 1.375 . S
C505 C507 1.350 . S
C505 H514 0.930 . S
N506 C504 1.347 . S
N506 C507 1.373 . S
C507 C505 1.350 . S
C507 N506 1.373 . S
C507 H521 0.931 . S
C508 O511 1.256 . S
C508 O512 1.255 1_554 S
O509 Co492 2.021 . S
O509 C502 1.259 . S
O510 Co494 2.117 . S
O510 C502 1.258 . S
O511 Co494 2.020 . S
O511 C508 1.256 . S
O512 Co492 2.062 1_556 S
O512 C508 1.255 1_556 S
O513 C493 1.259 . S
O513 Co494 2.021 . S
H514 C505 0.930 . S
H515 C504 0.931 . S
O516 Co492 2.117 . S
O516 C493 1.258 . S
O517 Co492 2.020 1_565 S
O517 C519 1.256 . S
O518 Co494 2.062 1_565 S
O518 C519 1.255 . S
C519 O517 1.256 . S
C519 O518 1.255 . S
H520 C499 0.931 . S
H521 C507 0.931 . S
Co522 N527 2.057 . S
Co522 O539 2.021 . S
Co522 O542 2.062 . S
Co522 O546 2.117 . S
Co522 O547 2.020 . S
C523 O543 1.259 . S
C523 O546 1.258 . S
Co524 N533 2.057 . S
Co524 O540 2.117 . S
Co524 O541 2.020 . S
Co524 O543 2.021 . S
Co524 O548 2.062 . S
C525 N527 1.316 . S
C525 N528 1.347 . S
C525 H530 0.931 . S
C526 N527 1.375 . S
C526 C529 1.350 . S
C526 H531 0.930 . S
N527 Co522 2.057 . S
N527 C525 1.316 . S
N527 C526 1.375 . S
N528 C525 1.347 . S
N528 C529 1.373 . S
C529 C526 1.350 . S
C529 N528 1.373 . S
C529 H550 0.931 . S
H530 C525 0.931 . S
H531 C526 0.930 . S
C532 O539 1.259 . S
C532 O540 1.258 . S
N533 Co524 2.057 . S
N533 C534 1.316 . S
N533 C535 1.375 . S
C534 N533 1.316 . S
C534 N536 1.347 . S
C534 H545 0.931 . S
C535 N533 1.375 . S
C535 C537 1.350 . S
C535 H544 0.930 . S
N536 C534 1.347 . S
N536 C537 1.373 . S
C537 C535 1.350 . S
C537 N536 1.373 . S
C537 H551 0.931 . S
C538 O541 1.256 . S
C538 O542 1.255 . S
O539 Co522 2.021 . S
O539 C532 1.259 . S
O540 Co524 2.117 . S
O540 C532 1.258 . S
O541 Co524 2.020 . S
O541 C538 1.256 . S
O542 Co522 2.062 . S
O542 C538 1.255 . S
O543 C523 1.259 . S
O543 Co524 2.021 . S
H544 C535 0.930 . S
H545 C534 0.931 . S
O546 Co522 2.117 . S
O546 C523 1.258 . S
O547 Co522 2.020 . S
O547 C549 1.256 . S
O548 Co524 2.062 . S
O548 C549 1.255 . S
C549 O547 1.256 . S
C549 O548 1.255 . S
H550 C529 0.931 . S
H551 C537 0.931 . S
Co552 N557 2.057 . S
Co552 O569 2.021 1_554 S
Co552 O572 2.062 . S
Co552 O576 2.117 . S
Co552 O577 2.020 . S
C553 O573 1.259 . S
C553 O576 1.258 . S
Co554 N563 2.057 . S
Co554 O570 2.117 . S
Co554 O571 2.020 . S
Co554 O573 2.021 . S
Co554 O578 2.062 . S
C555 N557 1.283 1_556 S
C555 N558 1.339 1_556 S
C555 H560 0.969 . S
C556 N557 1.375 . S
C556 C559 1.350 . S
C556 H561 0.930 . S
N557 Co552 2.057 . S
N557 C555 1.283 1_554 S
N557 C556 1.375 . S
N558 C555 1.339 1_554 S
N558 C559 1.373 . S
C559 C556 1.350 . S
C559 N558 1.373 . S
C559 H580 0.931 . S
H560 C555 0.969 . S
H561 C556 0.930 . S
C562 O569 1.259 . S
C562 O570 1.258 1_556 S
N563 Co554 2.057 . S
N563 C564 1.316 . S
N563 C565 1.375 . S
C564 N563 1.316 . S
C564 N566 1.347 . S
C564 H575 0.931 . S
C565 N563 1.375 . S
C565 C567 1.350 . S
C565 H574 0.930 . S
N566 C564 1.347 . S
N566 C567 1.373 . S
C567 C565 1.350 . S
C567 N566 1.373 . S
C567 H581 0.931 . S
C568 O571 1.256 . S
C568 O572 1.255 . S
O569 Co552 2.021 1_556 S
O569 C562 1.259 . S
O570 Co554 2.117 . S
O570 C562 1.258 1_554 S
O571 Co554 2.020 . S
O571 C568 1.256 . S
O572 Co552 2.062 . S
O572 C568 1.255 . S
O573 C553 1.259 . S
O573 Co554 2.021 . S
H574 C565 0.930 . S
H575 C564 0.931 . S
O576 Co552 2.117 . S
O576 C553 1.258 . S
O577 Co552 2.020 . S
O577 C579 1.256 . S
O578 Co554 2.062 . S
O578 C579 1.255 . S
C579 O577 1.256 . S
C579 O578 1.255 . S
H580 C559 0.931 . S
H581 C567 0.931 . S
Co582 N587 2.057 . S
Co582 O599 2.021 . S
Co582 O602 2.062 . S
Co582 O606 2.117 . S
Co582 O607 2.020 . S
C583 O603 1.259 . S
C583 O606 1.258 . S
Co584 N593 2.057 . S
Co584 O600 2.117 . S
Co584 O601 2.020 . S
Co584 O603 2.021 . S
Co584 O608 2.062 . S
C585 N587 1.316 . S
C585 N588 1.347 . S
C585 H590 0.931 . S
C586 N587 1.375 . S
C586 C589 1.350 . S
C586 H591 0.930 . S
N587 Co582 2.057 . S
N587 C585 1.316 . S
N587 C586 1.375 . S
N588 C585 1.347 . S
N588 C589 1.373 . S
C589 C586 1.350 . S
C589 N588 1.373 . S
C589 H610 0.931 . S
H590 C585 0.931 . S
H591 C586 0.930 . S
C592 O599 1.259 . S
C592 O600 1.258 . S
N593 Co584 2.057 . S
N593 C594 1.316 . S
N593 C595 1.375 . S
C594 N593 1.316 . S
C594 N596 1.347 . S
C594 H605 0.931 . S
C595 N593 1.375 . S
C595 C597 1.350 . S
C595 H604 0.930 . S
N596 C594 1.347 . S
N596 C597 1.373 . S
C597 C595 1.350 . S
C597 N596 1.373 . S
C597 H611 0.931 . S
C598 O601 1.256 . S
C598 O602 1.255 . S
O599 Co582 2.021 . S
O599 C592 1.259 . S
O600 Co584 2.117 . S
O600 C592 1.258 . S
O601 Co584 2.020 . S
O601 C598 1.256 . S
O602 Co582 2.062 . S
O602 C598 1.255 . S
O603 C583 1.259 . S
O603 Co584 2.021 . S
H604 C595 0.930 . S
H605 C594 0.931 . S
O606 Co582 2.117 . S
O606 C583 1.258 . S
O607 Co582 2.020 . S
O607 C609 1.256 . S
O608 Co584 2.062 . S
O608 C609 1.255 . S
C609 O607 1.256 . S
C609 O608 1.255 . S
H610 C589 0.931 . S
H611 C597 0.931 . S
Co612 N617 2.057 . S
Co612 O629 2.021 1_455 S
Co612 O632 2.062 . S
Co612 O636 2.117 . S
Co612 O637 2.020 . S
C613 O633 1.259 . S
C613 O636 1.258 . S
Co614 N623 2.057 . S
Co614 O630 2.117 . S
Co614 O631 2.020 . S
Co614 O633 2.021 . S
Co614 O638 2.062 . S
C615 N617 1.316 1_655 S
C615 N618 1.346 . S
C615 H620 0.931 . S
C616 N617 1.375 . S
C616 C619 1.350 . S
C616 H621 0.930 . S
N617 Co612 2.057 . S
N617 C615 1.316 1_455 S
N617 C616 1.375 . S
N618 C615 1.346 . S
N618 C619 1.379 1_655 S
C619 C616 1.350 . S
C619 N618 1.379 1_455 S
C619 H640 0.931 . S
H620 C615 0.931 . S
H621 C616 0.930 . S
C622 O629 1.259 . S
C622 O630 1.258 1_655 S
N623 Co614 2.057 . S
N623 C624 1.316 . S
N623 C625 1.375 . S
C624 N623 1.316 . S
C624 N626 1.347 . S
C624 H635 0.931 . S
C625 N623 1.375 . S
C625 C627 1.350 . S
C625 H634 0.930 . S
N626 C624 1.347 . S
N626 C627 1.373 . S
C627 C625 1.350 . S
C627 N626 1.373 . S
C627 H641 0.931 . S
C628 O631 1.256 . S
C628 O632 1.255 . S
O629 Co612 2.021 1_655 S
O629 C622 1.259 . S
O630 Co614 2.117 . S
O630 C622 1.258 1_455 S
O631 Co614 2.020 . S
O631 C628 1.256 . S
O632 Co612 2.062 . S
O632 C628 1.255 . S
O633 C613 1.259 . S
O633 Co614 2.021 . S
H634 C625 0.930 . S
H635 C624 0.931 . S
O636 Co612 2.117 . S
O636 C613 1.258 . S
O637 Co612 2.020 . S
O637 C639 1.256 . S
O638 Co614 2.062 . S
O638 C639 1.255 . S
C639 O637 1.256 . S
C639 O638 1.255 . S
H640 C619 0.931 . S
H641 C627 0.931 . S
Co642 N647 2.057 . S
Co642 O659 2.021 . S
Co642 O662 2.062 . S
Co642 O666 2.117 . S
Co642 O667 2.020 . S
C643 O663 1.259 . S
C643 O666 1.258 . S
Co644 N653 2.057 . S
Co644 O660 2.117 . S
Co644 O661 2.020 . S
Co644 O663 2.021 . S
Co644 O668 2.062 . S
C645 N647 1.316 . S
C645 N648 1.347 . S
C645 H650 0.931 . S
C646 N647 1.375 . S
C646 C649 1.350 . S
C646 H651 0.930 . S
N647 Co642 2.057 . S
N647 C645 1.316 . S
N647 C646 1.375 . S
N648 C645 1.347 . S
N648 C649 1.373 . S
C649 C646 1.350 . S
C649 N648 1.373 . S
C649 H670 0.931 . S
H650 C645 0.931 . S
H651 C646 0.930 . S
C652 O659 1.259 . S
C652 O660 1.258 . S
N653 Co644 2.057 . S
N653 C654 1.316 . S
N653 C655 1.375 . S
C654 N653 1.316 . S
C654 N656 1.347 . S
C654 H665 0.931 . S
C655 N653 1.375 . S
C655 C657 1.350 . S
C655 H664 0.930 . S
N656 C654 1.347 . S
N656 C657 1.373 . S
C657 C655 1.350 . S
C657 N656 1.373 . S
C657 H671 0.931 . S
C658 O661 1.256 . S
C658 O662 1.255 . S
O659 Co642 2.021 . S
O659 C652 1.259 . S
O660 Co644 2.117 . S
O660 C652 1.258 . S
O661 Co644 2.020 . S
O661 C658 1.256 . S
O662 Co642 2.062 . S
O662 C658 1.255 . S
O663 C643 1.259 . S
O663 Co644 2.021 . S
H664 C655 0.930 . S
H665 C654 0.931 . S
O666 Co642 2.117 . S
O666 C643 1.258 . S
O667 Co642 2.020 . S
O667 C669 1.256 . S
O668 Co644 2.062 . S
O668 C669 1.255 . S
C669 O667 1.256 . S
C669 O668 1.255 . S
H670 C649 0.931 . S
H671 C657 0.931 . S
Co672 N677 2.057 . S
Co672 O689 2.021 . S
Co672 O692 2.062 . S
Co672 O696 2.117 . S
Co672 O697 2.020 . S
C673 O693 1.259 . S
C673 O696 1.258 . S
Co674 N683 2.057 . S
Co674 O690 2.117 . S
Co674 O691 2.020 . S
Co674 O693 2.021 . S
Co674 O698 2.062 . S
C675 N677 1.316 . S
C675 N678 1.347 . S
C675 H680 0.931 . S
C676 N677 1.375 . S
C676 C679 1.350 . S
C676 H681 0.930 . S
N677 Co672 2.057 . S
N677 C675 1.316 . S
N677 C676 1.375 . S
N678 C675 1.347 . S
N678 C679 1.373 . S
C679 C676 1.350 . S
C679 N678 1.373 . S
C679 H700 0.931 . S
H680 C675 0.931 . S
H681 C676 0.930 . S
C682 O689 1.259 . S
C682 O690 1.258 . S
N683 Co674 2.057 . S
N683 C684 1.316 . S
N683 C685 1.375 . S
C684 N683 1.316 . S
C684 N686 1.347 . S
C684 H695 0.931 . S
C685 N683 1.375 . S
C685 C687 1.350 . S
C685 H694 0.930 . S
N686 C684 1.347 . S
N686 C687 1.373 . S
C687 C685 1.350 . S
C687 N686 1.373 . S
C687 H701 0.931 . S
C688 O691 1.256 . S
C688 O692 1.255 . S
O689 Co672 2.021 . S
O689 C682 1.259 . S
O690 Co674 2.117 . S
O690 C682 1.258 . S
O691 Co674 2.020 . S
O691 C688 1.256 . S
O692 Co672 2.062 . S
O692 C688 1.255 . S
O693 C673 1.259 . S
O693 Co674 2.021 . S
H694 C685 0.930 . S
H695 C684 0.931 . S
O696 Co672 2.117 . S
O696 C673 1.258 . S
O697 Co672 2.020 . S
O697 C699 1.256 . S
O698 Co674 2.062 . S
O698 C699 1.255 . S
C699 O697 1.256 . S
C699 O698 1.255 . S
H700 C679 0.931 . S
H701 C687 0.931 . S
Co702 N707 2.057 . S
Co702 O719 2.021 . S
Co702 O722 2.062 . S
Co702 O726 2.117 . S
Co702 O727 2.020 . S
C703 O723 1.259 . S
C703 O726 1.258 . S
Co704 N713 2.057 . S
Co704 O720 2.117 . S
Co704 O721 2.020 . S
Co704 O723 2.021 . S
Co704 O728 2.062 . S
C705 N707 1.316 . S
C705 N708 1.347 . S
C705 H710 0.931 . S
C706 N707 1.375 . S
C706 C709 1.350 . S
C706 H711 0.930 . S
N707 Co702 2.057 . S
N707 C705 1.316 . S
N707 C706 1.375 . S
N708 C705 1.347 . S
N708 C709 1.373 . S
C709 C706 1.350 . S
C709 N708 1.373 . S
C709 H730 0.931 . S
H710 C705 0.931 . S
H711 C706 0.930 . S
C712 O719 1.259 . S
C712 O720 1.258 . S
N713 Co704 2.057 . S
N713 C714 1.316 . S
N713 C715 1.375 . S
C714 N713 1.316 . S
C714 N716 1.347 . S
C714 H725 0.931 . S
C715 N713 1.375 . S
C715 C717 1.350 . S
C715 H724 0.930 . S
N716 C714 1.347 . S
N716 C717 1.373 . S
C717 C715 1.350 . S
C717 N716 1.373 . S
C717 H731 0.931 . S
C718 O721 1.256 . S
C718 O722 1.255 . S
O719 Co702 2.021 . S
O719 C712 1.259 . S
O720 Co704 2.117 . S
O720 C712 1.258 . S
O721 Co704 2.020 . S
O721 C718 1.256 . S
O722 Co702 2.062 . S
O722 C718 1.255 . S
O723 C703 1.259 . S
O723 Co704 2.021 . S
H724 C715 0.930 . S
H725 C714 0.931 . S
O726 Co702 2.117 . S
O726 C703 1.258 . S
O727 Co702 2.020 . S
O727 C729 1.256 . S
O728 Co704 2.062 . S
O728 C729 1.255 . S
C729 O727 1.256 . S
C729 O728 1.255 . S
H730 C709 0.931 . S
H731 C717 0.931 . S
Co732 N737 2.057 . S
Co732 O749 2.021 . S
Co732 O752 2.062 . S
Co732 O756 2.117 . S
Co732 O757 2.020 . S
C733 O753 1.259 . S
C733 O756 1.258 . S
Co734 N743 2.057 . S
Co734 O750 2.117 . S
Co734 O751 2.020 . S
Co734 O753 2.021 . S
Co734 O758 2.062 . S
C735 N737 1.316 . S
C735 N738 1.347 . S
C735 H740 0.931 . S
C736 N737 1.375 . S
C736 C739 1.350 . S
C736 H741 0.930 . S
N737 Co732 2.057 . S
N737 C735 1.316 . S
N737 C736 1.375 . S
N738 C735 1.347 . S
N738 C739 1.373 . S
C739 C736 1.350 . S
C739 N738 1.373 . S
C739 H760 0.931 . S
H740 C735 0.931 . S
H741 C736 0.930 . S
C742 O749 1.259 . S
C742 O750 1.258 . S
N743 Co734 2.057 . S
N743 C744 1.316 . S
N743 C745 1.375 . S
C744 N743 1.316 . S
C744 N746 1.347 . S
C744 H755 0.931 . S
C745 N743 1.375 . S
C745 C747 1.350 . S
C745 H754 0.930 . S
N746 C744 1.347 . S
N746 C747 1.373 . S
C747 C745 1.350 . S
C747 N746 1.373 . S
C747 H761 0.931 . S
C748 O751 1.256 . S
C748 O752 1.255 . S
O749 Co732 2.021 . S
O749 C742 1.259 . S
O750 Co734 2.117 . S
O750 C742 1.258 . S
O751 Co734 2.020 . S
O751 C748 1.256 . S
O752 Co732 2.062 . S
O752 C748 1.255 . S
O753 C733 1.259 . S
O753 Co734 2.021 . S
H754 C745 0.930 . S
H755 C744 0.931 . S
O756 Co732 2.117 . S
O756 C733 1.258 . S
O757 Co732 2.020 . S
O757 C759 1.256 . S
O758 Co734 2.062 . S
O758 C759 1.255 . S
C759 O757 1.256 . S
C759 O758 1.255 . S
H760 C739 0.931 . S
H761 C747 0.931 . S
Co762 N767 2.057 1_455 S
Co762 O779 2.021 . S
Co762 O782 2.062 1_455 S
Co762 O786 2.117 . S
Co762 O787 2.020 1_554 S
C763 O783 1.259 . S
C763 O786 1.258 . S
Co764 N773 2.057 . S
Co764 O780 2.117 . S
Co764 O781 2.020 . S
Co764 O783 2.021 . S
Co764 O788 2.062 1_554 S
C765 N767 1.316 . S
C765 N768 1.357 . S
C765 H770 0.931 . S
C766 N767 1.375 1_556 S
C766 C769 1.350 . S
C766 H771 0.930 . S
N767 Co762 2.057 1_655 S
N767 C765 1.316 . S
N767 C766 1.375 1_554 S
N768 C765 1.357 . S
N768 C769 1.359 1_554 S
C769 C766 1.350 . S
C769 N768 1.359 1_556 S
C769 H790 0.931 . S
H770 C765 0.931 . S
H771 C766 0.930 . S
C772 O779 1.259 . S
C772 O780 1.258 . S
N773 Co764 2.057 . S
N773 C774 1.316 . S
N773 C775 1.375 . S
C774 N773 1.316 . S
C774 N776 1.347 . S
C774 H785 0.931 . S
C775 N773 1.375 . S
C775 C777 1.350 . S
C775 H784 0.930 . S
N776 C774 1.347 . S
N776 C777 1.373 . S
C777 C775 1.350 . S
C777 N776 1.373 . S
C777 H791 0.931 . S
C778 O781 1.256 . S
C778 O782 1.255 1_455 S
O779 Co762 2.021 . S
O779 C772 1.259 . S
O780 Co764 2.117 . S
O780 C772 1.258 . S
O781 Co764 2.020 . S
O781 C778 1.256 . S
O782 Co762 2.062 1_655 S
O782 C778 1.255 1_655 S
O783 C763 1.259 . S
O783 Co764 2.021 . S
H784 C775 0.930 . S
H785 C774 0.931 . S
O786 Co762 2.117 . S
O786 C763 1.258 . S
O787 Co762 2.020 1_556 S
O787 C789 1.256 . S
O788 Co764 2.062 1_556 S
O788 C789 1.255 . S
C789 O787 1.256 . S
C789 O788 1.255 . S
H790 C769 0.931 . S
H791 C777 0.931 . S
C792 C793 1.349 . S
C792 C794 1.327 . S
C792 H817 0.950 . S
C793 C792 1.349 . S
C793 C809 1.349 . S
C794 C792 1.327 . S
C794 C813 1.429 . S
C794 H818 0.950 . S
C795 C812 1.576 . S
C795 C814 1.350 1_655 S
C795 H819 0.964 . S
H796 C800 0.949 . S
C797 C798 1.349 1_655 S
C797 C799 1.327 . S
C797 H820 0.950 . S
C798 C797 1.349 1_455 S
C798 C810 1.349 . S
C799 C797 1.327 . S
C799 C815 1.429 1_655 S
C799 H821 0.950 . S
C800 H796 0.949 . S
C800 C808 1.574 . S
C800 C816 1.368 . S
H801 C809 0.950 1_655 S
H802 C807 0.950 1_655 S
H803 C808 0.949 . S
H804 C810 0.950 . S
H805 C811 0.950 . S
H806 C812 0.949 . S
C807 H802 0.950 1_455 S
C807 C809 1.327 . S
C807 C813 1.429 . S
C808 C800 1.574 . S
C808 H803 0.949 . S
C808 C814 1.368 . S
C809 C793 1.349 . S
C809 H801 0.950 1_455 S
C809 C807 1.327 . S
C810 C798 1.349 . S
C810 H804 0.950 . S
C810 C811 1.327 . S
C811 H805 0.950 . S
C811 C810 1.327 . S
C811 C815 1.429 . S
C812 C795 1.576 . S
C812 H806 0.949 . S
C812 C816 1.368 1_655 S
C813 C794 1.429 . S
C813 C807 1.429 . S
C813 C814 1.523 . S
C814 C795 1.350 1_455 S
C814 C808 1.368 . S
C814 C813 1.523 . S
C815 C799 1.429 1_455 S
C815 C811 1.429 . S
C815 C816 1.523 . S
C816 C800 1.368 . S
C816 C812 1.368 1_455 S
C816 C815 1.523 . S
H817 C792 0.950 . S
H818 C794 0.950 . S
H819 C795 0.964 . S
H820 C797 0.950 . S
H821 C799 0.950 . S
C822 C823 1.349 . S
C822 C824 1.327 . S
C822 H847 0.950 . S
C823 C822 1.349 . S
C823 C839 1.349 . S
C824 C822 1.327 . S
C824 C843 1.429 . S
C824 H848 0.950 . S
C825 C842 1.574 . S
C825 C844 1.368 . S
C825 H849 0.949 . S
H826 C830 0.949 . S
C827 C828 1.349 . S
C827 C829 1.327 . S
C827 H850 0.950 . S
C828 C827 1.349 . S
C828 C840 1.349 . S
C829 C827 1.327 . S
C829 C845 1.429 . S
C829 H851 0.950 . S
C830 H826 0.949 . S
C830 C838 1.574 . S
C830 C846 1.368 . S
H831 C839 0.950 . S
H832 C837 0.950 . S
H833 C838 0.949 . S
H834 C840 0.950 . S
H835 C841 0.950 . S
H836 C842 0.949 . S
C837 H832 0.950 . S
C837 C839 1.327 . S
C837 C843 1.429 . S
C838 C830 1.574 . S
C838 H833 0.949 . S
C838 C844 1.368 . S
C839 C823 1.349 . S
C839 H831 0.950 . S
C839 C837 1.327 . S
C840 C828 1.349 . S
C840 H834 0.950 . S
C840 C841 1.327 . S
C841 H835 0.950 . S
C841 C840 1.327 . S
C841 C845 1.429 . S
C842 C825 1.574 . S
C842 H836 0.949 . S
C842 C846 1.368 . S
C843 C824 1.429 . S
C843 C837 1.429 . S
C843 C844 1.523 . S
C844 C825 1.368 . S
C844 C838 1.368 . S
C844 C843 1.523 . S
C845 C829 1.429 . S
C845 C841 1.429 . S
C845 C846 1.523 . S
C846 C830 1.368 . S
C846 C842 1.368 . S
C846 C845 1.523 . S
H847 C822 0.950 . S
H848 C824 0.950 . S
H849 C825 0.949 . S
H850 C827 0.950 . S
H851 C829 0.950 . S
C852 C853 1.349 . S
C852 C854 1.327 . S
C852 H877 0.950 . S
C853 C852 1.349 . S
C853 C869 1.349 . S
C854 C852 1.327 . S
C854 C873 1.429 . S
C854 H878 0.950 . S
C855 C872 1.574 . S
C855 C874 1.368 . S
C855 H879 0.949 . S
H856 C860 0.949 . S
C857 C858 1.349 . S
C857 C859 1.327 . S
C857 H880 0.950 . S
C858 C857 1.349 . S
C858 C870 1.349 . S
C859 C857 1.327 . S
C859 C875 1.429 . S
C859 H881 0.950 . S
C860 H856 0.949 . S
C860 C868 1.574 . S
C860 C876 1.368 . S
H861 C869 0.950 . S
H862 C867 0.950 . S
H863 C868 0.949 . S
H864 C870 0.950 . S
H865 C871 0.950 . S
H866 C872 0.949 . S
C867 H862 0.950 . S
C867 C869 1.327 . S
C867 C873 1.429 . S
C868 C860 1.574 . S
C868 H863 0.949 . S
C868 C874 1.368 . S
C869 C853 1.349 . S
C869 H861 0.950 . S
C869 C867 1.327 . S
C870 C858 1.349 . S
C870 H864 0.950 . S
C870 C871 1.327 . S
C871 H865 0.950 . S
C871 C870 1.327 . S
C871 C875 1.429 . S
C872 C855 1.574 . S
C872 H866 0.949 . S
C872 C876 1.368 . S
C873 C854 1.429 . S
C873 C867 1.429 . S
C873 C874 1.523 . S
C874 C855 1.368 . S
C874 C868 1.368 . S
C874 C873 1.523 . S
C875 C859 1.429 . S
C875 C871 1.429 . S
C875 C876 1.523 . S
C876 C860 1.368 . S
C876 C872 1.368 . S
C876 C875 1.523 . S
H877 C852 0.950 . S
H878 C854 0.950 . S
H879 C855 0.949 . S
H880 C857 0.950 . S
H881 C859 0.950 . S
C882 C883 1.349 . S
C882 C884 1.327 . S
C882 H907 0.950 . S
C883 C882 1.349 . S
C883 C899 1.349 . S
C884 C882 1.327 . S
C884 C903 1.429 . S
C884 H908 0.950 . S
C885 C902 1.574 . S
C885 C904 1.368 . S
C885 H909 0.949 . S
H886 C890 0.949 . S
C887 C888 1.349 . S
C887 C889 1.327 . S
C887 H910 0.950 . S
C888 C887 1.349 . S
C888 C900 1.349 . S
C889 C887 1.327 . S
C889 C905 1.429 . S
C889 H911 0.950 . S
C890 H886 0.949 . S
C890 C898 1.574 . S
C890 C906 1.368 . S
H891 C899 0.950 . S
H892 C897 0.950 . S
H893 C898 0.949 . S
H894 C900 0.950 . S
H895 C901 0.950 . S
H896 C902 0.949 . S
C897 H892 0.950 . S
C897 C899 1.327 . S
C897 C903 1.429 . S
C898 C890 1.574 . S
C898 H893 0.949 . S
C898 C904 1.368 . S
C899 C883 1.349 . S
C899 H891 0.950 . S
C899 C897 1.327 . S
C900 C888 1.349 . S
C900 H894 0.950 . S
C900 C901 1.327 . S
C901 H895 0.950 . S
C901 C900 1.327 . S
C901 C905 1.429 . S
C902 C885 1.574 . S
C902 H896 0.949 . S
C902 C906 1.368 . S
C903 C884 1.429 . S
C903 C897 1.429 . S
C903 C904 1.523 . S
C904 C885 1.368 . S
C904 C898 1.368 . S
C904 C903 1.523 . S
C905 C889 1.429 . S
C905 C901 1.429 . S
C905 C906 1.523 . S
C906 C890 1.368 . S
C906 C902 1.368 . S
C906 C905 1.523 . S
H907 C882 0.950 . S
H908 C884 0.950 . S
H909 C885 0.949 . S
H910 C887 0.950 . S
H911 C889 0.950 . S
C912 C913 1.349 . S
C912 C914 1.327 . S
C912 H937 0.950 . S
C913 C912 1.349 . S
C913 C929 1.349 . S
C914 C912 1.327 . S
C914 C933 1.429 . S
C914 H938 0.950 1_455 S
C915 C932 1.574 . S
C915 C934 1.368 . S
C915 H939 0.949 . S
H916 C920 0.949 . S
C917 C918 1.391 . S
C917 C919 1.327 . S
C917 H940 0.950 . S
C918 C917 1.391 . S
C918 C930 1.314 1_455 S
C919 C917 1.327 . S
C919 C935 1.429 . S
C919 H941 0.950 . S
C920 H916 0.949 . S
C920 C928 1.565 1_655 S
C920 C936 1.368 1_655 S
H921 C929 0.950 . S
H922 C927 0.950 . S
H923 C928 0.907 1_655 S
H924 C930 0.950 . S
H925 C931 0.950 . S
H926 C932 0.949 . S
C927 H922 0.950 . S
C927 C929 1.327 . S
C927 C933 1.429 . S
C928 C920 1.565 1_455 S
C928 H923 0.907 1_455 S
C928 C934 1.426 . S
C929 C913 1.349 . S
C929 H921 0.950 . S
C929 C927 1.327 . S
C930 C918 1.314 1_655 S
C930 H924 0.950 . S
C930 C931 1.327 . S
C931 H925 0.950 . S
C931 C930 1.327 . S
C931 C935 1.429 1_655 S
C932 C915 1.574 . S
C932 H926 0.949 . S
C932 C936 1.368 . S
C933 C914 1.429 . S
C933 C927 1.429 . S
C933 C934 1.523 . S
C934 C915 1.368 . S
C934 C928 1.426 . S
C934 C933 1.523 . S
C935 C919 1.429 . S
C935 C931 1.429 1_455 S
C935 C936 1.523 . S
C936 C920 1.368 1_455 S
C936 C932 1.368 . S
C936 C935 1.523 . S
H937 C912 0.950 . S
H938 C914 0.950 1_655 S
H939 C915 0.949 . S
H940 C917 0.950 . S
H941 C919 0.950 . S
C942 C943 1.349 . S
C942 C944 1.327 . S
C942 H967 0.950 . S
C943 C942 1.349 . S
C943 C959 1.349 . S
C944 C942 1.327 . S
C944 C963 1.429 . S
C944 H968 0.950 . S
C945 C962 1.574 . S
C945 C964 1.368 . S
C945 H969 0.949 . S
H946 C950 0.949 . S
C947 C948 1.349 . S
C947 C949 1.327 . S
C947 H970 0.950 . S
C948 C947 1.349 . S
C948 C960 1.349 . S
C949 C947 1.327 . S
C949 C965 1.429 . S
C949 H971 0.950 . S
C950 H946 0.949 . S
C950 C958 1.574 . S
C950 C966 1.368 . S
H951 C959 0.950 . S
H952 C957 0.950 . S
H953 C958 0.949 . S
H954 C960 0.950 . S
H955 C961 0.950 . S
H956 C962 0.949 . S
C957 H952 0.950 . S
C957 C959 1.327 . S
C957 C963 1.429 . S
C958 C950 1.574 . S
C958 H953 0.949 . S
C958 C964 1.368 . S
C959 C943 1.349 . S
C959 H951 0.950 . S
C959 C957 1.327 . S
C960 C948 1.349 . S
C960 H954 0.950 . S
C960 C961 1.327 . S
C961 H955 0.950 . S
C961 C960 1.327 . S
C961 C965 1.429 . S
C962 C945 1.574 . S
C962 H956 0.949 . S
C962 C966 1.368 . S
C963 C944 1.429 . S
C963 C957 1.429 . S
C963 C964 1.523 . S
C964 C945 1.368 . S
C964 C958 1.368 . S
C964 C963 1.523 . S
C965 C949 1.429 . S
C965 C961 1.429 . S
C965 C966 1.523 . S
C966 C950 1.368 . S
C966 C962 1.368 . S
C966 C965 1.523 . S
H967 C942 0.950 . S
H968 C944 0.950 . S
H969 C945 0.949 . S
H970 C947 0.950 . S
H971 C949 0.950 . S
C972 C973 1.349 . S
C972 C974 1.327 . S
C972 H997 0.950 . S
C973 C972 1.349 . S
C973 C989 1.349 . S
C974 C972 1.327 . S
C974 C993 1.429 . S
C974 H998 0.950 . S
C975 C992 1.574 . S
C975 C994 1.368 . S
C975 H999 0.949 . S
H976 C980 0.949 . S
C977 C978 1.349 . S
C977 C979 1.327 1_554 S
C977 H1000 0.950 . S
C978 C977 1.349 . S
C978 C990 1.352 1_554 S
C979 C977 1.327 1_556 S
C979 C995 1.429 . S
C979 H1001 0.950 . S
C980 H976 0.949 . S
C980 C988 1.574 . S
C980 C996 1.368 . S
H981 C989 0.950 . S
H982 C987 0.950 . S
H983 C988 0.949 . S
H984 C990 0.950 . S
H985 C991 0.950 . S
H986 C992 0.949 . S
C987 H982 0.950 . S
C987 C989 1.327 . S
C987 C993 1.429 . S
C988 C980 1.574 . S
C988 H983 0.949 . S
C988 C994 1.368 . S
C989 C973 1.349 . S
C989 H981 0.950 . S
C989 C987 1.327 . S
C990 C978 1.352 1_556 S
C990 H984 0.950 . S
C990 C991 1.327 . S
C991 H985 0.950 . S
C991 C990 1.327 . S
C991 C995 1.429 . S
C992 C975 1.574 . S
C992 H986 0.949 . S
C992 C996 1.368 . S
C993 C974 1.429 . S
C993 C987 1.429 . S
C993 C994 1.523 . S
C994 C975 1.368 . S
C994 C988 1.368 . S
C994 C993 1.523 . S
C995 C979 1.429 . S
C995 C991 1.429 . S
C995 C996 1.523 . S
C996 C980 1.368 . S
C996 C992 1.368 . S
C996 C995 1.523 . S
H997 C972 0.950 . S
H998 C974 0.950 . S
H999 C975 0.949 . S
H1000 C977 0.950 . S
H1001 C979 0.950 . S
C1002 C1003 1.349 . S
C1002 C1004 1.327 . S
C1002 H1027 0.950 . S
C1003 C1002 1.349 . S
C1003 C1019 1.349 . S
C1004 C1002 1.327 . S
C1004 C1023 1.429 . S
C1004 H1028 0.950 . S
C1005 C1022 1.574 . S
C1005 C1024 1.368 . S
C1005 H1029 0.949 . S
H1006 C1010 0.949 . S
C1007 C1008 1.349 . S
C1007 C1009 1.327 . S
C1007 H1030 0.950 . S
C1008 C1007 1.349 . S
C1008 C1020 1.349 . S
C1009 C1007 1.327 . S
C1009 C1025 1.429 . S
C1009 H1031 0.950 . S
C1010 H1006 0.949 . S
C1010 C1018 1.574 . S
C1010 C1026 1.368 . S
H1011 C1019 0.950 . S
H1012 C1017 0.950 . S
H1013 C1018 0.949 . S
H1014 C1020 0.950 . S
H1015 C1021 0.950 . S
H1016 C1022 0.949 . S
C1017 H1012 0.950 . S
C1017 C1019 1.327 . S
C1017 C1023 1.429 . S
C1018 C1010 1.574 . S
C1018 H1013 0.949 . S
C1018 C1024 1.368 . S
C1019 C1003 1.349 . S
C1019 H1011 0.950 . S
C1019 C1017 1.327 . S
C1020 C1008 1.349 . S
C1020 H1014 0.950 . S
C1020 C1021 1.327 . S
C1021 H1015 0.950 . S
C1021 C1020 1.327 . S
C1021 C1025 1.429 . S
C1022 C1005 1.574 . S
C1022 H1016 0.949 . S
C1022 C1026 1.368 . S
C1023 C1004 1.429 . S
C1023 C1017 1.429 . S
C1023 C1024 1.523 . S
C1024 C1005 1.368 . S
C1024 C1018 1.368 . S
C1024 C1023 1.523 . S
C1025 C1009 1.429 . S
C1025 C1021 1.429 . S
C1025 C1026 1.523 . S
C1026 C1010 1.368 . S
C1026 C1022 1.368 . S
C1026 C1025 1.523 . S
H1027 C1002 0.950 . S
H1028 C1004 0.950 . S
H1029 C1005 0.949 . S
H1030 C1007 0.950 . S
H1031 C1009 0.950 . S
C1032 C1033 1.349 . S
C1032 C1034 1.327 . S
C1032 H1057 0.950 . S
C1033 C1032 1.349 . S
C1033 C1049 1.349 1_545 S
C1034 C1032 1.327 . S
C1034 C1053 1.429 . S
C1034 H1058 0.950 . S
C1035 C1052 1.574 . S
C1035 C1054 1.368 1_565 S
C1035 H1059 0.949 . S
H1036 C1040 0.949 . S
C1037 C1038 1.352 . S
C1037 C1039 1.327 . S
C1037 H1060 0.950 . S
C1038 C1037 1.352 . S
C1038 C1050 1.346 1_565 S
C1039 C1037 1.327 . S
C1039 C1055 1.410 1_565 S
C1039 H1061 0.950 . S
C1040 H1036 0.949 . S
C1040 C1048 1.574 . S
C1040 C1056 1.408 . S
H1041 C1049 0.950 . S
H1042 C1047 0.950 . S
H1043 C1048 0.949 . S
H1044 C1050 0.950 . S
H1045 C1051 0.950 . S
H1046 C1052 0.949 . S
C1047 H1042 0.950 . S
C1047 C1049 1.327 . S
C1047 C1053 1.429 1_565 S
C1048 C1040 1.574 . S
C1048 H1043 0.949 . S
C1048 C1054 1.368 . S
C1049 C1033 1.349 1_565 S
C1049 H1041 0.950 . S
C1049 C1047 1.327 . S
C1050 C1038 1.346 1_545 S
C1050 H1044 0.950 . S
C1050 C1051 1.327 . S
C1051 H1045 0.950 . S
C1051 C1050 1.327 . S
C1051 C1055 1.447 . S
C1052 C1035 1.574 . S
C1052 H1046 0.949 . S
C1052 C1056 1.331 1_565 S
C1053 C1034 1.429 . S
C1053 C1047 1.429 1_545 S
C1053 C1054 1.523 . S
C1054 C1035 1.368 1_545 S
C1054 C1048 1.368 . S
C1054 C1053 1.523 . S
C1055 C1039 1.410 1_545 S
C1055 C1051 1.447 . S
C1055 C1056 1.522 . S
C1056 C1040 1.408 . S
C1056 C1052 1.331 1_545 S
C1056 C1055 1.522 . S
H1057 C1032 0.950 . S
H1058 C1034 0.950 . S
H1059 C1035 0.949 . S
H1060 C1037 0.950 . S
H1061 C1039 0.950 . S
C1062 C1063 1.349 . S
C1062 C1064 1.327 . S
C1062 H1087 0.950 . S
C1063 C1062 1.349 . S
C1063 C1079 1.349 . S
C1064 C1062 1.327 . S
C1064 C1083 1.429 . S
C1064 H1088 0.950 . S
C1065 C1082 1.574 . S
C1065 C1084 1.368 . S
C1065 H1089 0.949 . S
H1066 C1070 0.949 . S
C1067 C1068 1.349 . S
C1067 C1069 1.327 . S
C1067 H1090 0.950 . S
C1068 C1067 1.349 . S
C1068 C1080 1.349 . S
C1069 C1067 1.327 . S
C1069 C1085 1.429 . S
C1069 H1091 0.950 . S
C1070 H1066 0.949 . S
C1070 C1078 1.574 . S
C1070 C1086 1.368 . S
H1071 C1079 0.950 . S
H1072 C1077 0.950 . S
H1073 C1078 0.949 . S
H1074 C1080 0.950 . S
H1075 C1081 0.950 . S
H1076 C1082 0.949 . S
C1077 H1072 0.950 . S
C1077 C1079 1.327 . S
C1077 C1083 1.429 . S
C1078 C1070 1.574 . S
C1078 H1073 0.949 . S
C1078 C1084 1.368 . S
C1079 C1063 1.349 . S
C1079 H1071 0.950 . S
C1079 C1077 1.327 . S
C1080 C1068 1.349 . S
C1080 H1074 0.950 . S
C1080 C1081 1.327 . S
C1081 H1075 0.950 . S
C1081 C1080 1.327 . S
C1081 C1085 1.429 . S
C1082 C1065 1.574 . S
C1082 H1076 0.949 . S
C1082 C1086 1.368 . S
C1083 C1064 1.429 . S
C1083 C1077 1.429 . S
C1083 C1084 1.523 . S
C1084 C1065 1.368 . S
C1084 C1078 1.368 . S
C1084 C1083 1.523 . S
C1085 C1069 1.429 . S
C1085 C1081 1.429 . S
C1085 C1086 1.523 . S
C1086 C1070 1.368 . S
C1086 C1082 1.368 . S
C1086 C1085 1.523 . S
H1087 C1062 0.950 . S
H1088 C1064 0.950 . S
H1089 C1065 0.949 . S
H1090 C1067 0.950 . S
H1091 C1069 0.950 . S
C1092 C1093 1.349 . S
C1092 C1094 1.327 . S
C1092 H1117 0.950 . S
C1093 C1092 1.349 . S
C1093 C1109 1.349 . S
C1094 C1092 1.327 . S
C1094 C1113 1.429 . S
C1094 H1118 0.950 . S
C1095 C1112 1.574 . S
C1095 C1114 1.368 . S
C1095 H1119 0.949 . S
H1096 C1100 0.949 . S
C1097 C1098 1.349 . S
C1097 C1099 1.327 . S
C1097 H1120 0.950 . S
C1098 C1097 1.349 . S
C1098 C1110 1.349 . S
C1099 C1097 1.327 . S
C1099 C1115 1.429 . S
C1099 H1121 0.950 . S
C1100 H1096 0.949 . S
C1100 C1108 1.574 . S
C1100 C1116 1.368 . S
H1101 C1109 0.950 . S
H1102 C1107 0.950 . S
H1103 C1108 0.949 . S
H1104 C1110 0.950 . S
H1105 C1111 0.950 . S
H1106 C1112 0.949 . S
C1107 H1102 0.950 . S
C1107 C1109 1.327 . S
C1107 C1113 1.429 . S
C1108 C1100 1.574 . S
C1108 H1103 0.949 . S
C1108 C1114 1.368 . S
C1109 C1093 1.349 . S
C1109 H1101 0.950 . S
C1109 C1107 1.327 . S
C1110 C1098 1.349 . S
C1110 H1104 0.950 . S
C1110 C1111 1.327 . S
C1111 H1105 0.950 . S
C1111 C1110 1.327 . S
C1111 C1115 1.429 . S
C1112 C1095 1.574 . S
C1112 H1106 0.949 . S
C1112 C1116 1.368 . S
C1113 C1094 1.429 . S
C1113 C1107 1.429 . S
C1113 C1114 1.523 . S
C1114 C1095 1.368 . S
C1114 C1108 1.368 . S
C1114 C1113 1.523 . S
C1115 C1099 1.429 . S
C1115 C1111 1.429 . S
C1115 C1116 1.523 . S
C1116 C1100 1.368 . S
C1116 C1112 1.368 . S
C1116 C1115 1.523 . S
H1117 C1092 0.950 . S
H1118 C1094 0.950 . S
H1119 C1095 0.949 . S
H1120 C1097 0.950 . S
H1121 C1099 0.950 . S
C1122 C1123 1.349 . S
C1122 C1124 1.327 . S
C1122 H1147 0.950 . S
C1123 C1122 1.349 . S
C1123 C1139 1.349 . S
C1124 C1122 1.327 . S
C1124 C1143 1.429 . S
C1124 H1148 0.950 . S
C1125 C1142 1.574 . S
C1125 C1144 1.368 . S
C1125 H1149 0.949 . S
H1126 C1130 0.949 . S
C1127 C1128 1.349 . S
C1127 C1129 1.327 . S
C1127 H1150 0.950 . S
C1128 C1127 1.349 . S
C1128 C1140 1.349 . S
C1129 C1127 1.327 . S
C1129 C1145 1.429 . S
C1129 H1151 0.950 . S
C1130 H1126 0.949 . S
C1130 C1138 1.574 . S
C1130 C1146 1.368 . S
H1131 C1139 0.950 . S
H1132 C1137 0.950 . S
H1133 C1138 0.949 . S
H1134 C1140 0.950 . S
H1135 C1141 0.950 . S
H1136 C1142 0.949 . S
C1137 H1132 0.950 . S
C1137 C1139 1.327 . S
C1137 C1143 1.429 . S
C1138 C1130 1.574 . S
C1138 H1133 0.949 . S
C1138 C1144 1.368 . S
C1139 C1123 1.349 . S
C1139 H1131 0.950 . S
C1139 C1137 1.327 . S
C1140 C1128 1.349 . S
C1140 H1134 0.950 . S
C1140 C1141 1.327 . S
C1141 H1135 0.950 . S
C1141 C1140 1.327 . S
C1141 C1145 1.429 . S
C1142 C1125 1.574 . S
C1142 H1136 0.949 . S
C1142 C1146 1.368 . S
C1143 C1124 1.429 . S
C1143 C1137 1.429 . S
C1143 C1144 1.523 . S
C1144 C1125 1.368 . S
C1144 C1138 1.368 . S
C1144 C1143 1.523 . S
C1145 C1129 1.429 . S
C1145 C1141 1.429 . S
C1145 C1146 1.523 . S
C1146 C1130 1.368 . S
C1146 C1142 1.368 . S
C1146 C1145 1.523 . S
H1147 C1122 0.950 . S
H1148 C1124 0.950 . S
H1149 C1125 0.949 . S
H1150 C1127 0.950 . S
H1151 C1129 0.950 . S
C1152 C1153 1.349 . S
C1152 C1154 1.327 . S
C1152 H1177 0.950 1_545 S
C1153 C1152 1.349 . S
C1153 C1169 1.349 . S
C1154 C1152 1.327 . S
C1154 C1173 1.429 . S
C1154 H1178 0.950 1_545 S
C1155 C1172 1.574 . S
C1155 C1174 1.368 . S
C1155 H1179 0.949 . S
H1156 C1160 0.949 . S
C1157 C1158 1.349 . S
C1157 C1159 1.327 . S
C1157 H1180 0.950 . S
C1158 C1157 1.349 . S
C1158 C1170 1.349 . S
C1159 C1157 1.327 . S
C1159 C1175 1.429 . S
C1159 H1181 0.950 . S
C1160 H1156 0.949 . S
C1160 C1168 1.574 . S
C1160 C1176 1.368 . S
H1161 C1169 0.950 . S
H1162 C1167 0.950 . S
H1163 C1168 0.963 . S
H1164 C1170 0.950 . S
H1165 C1171 0.950 . S
H1166 C1172 0.949 . S
C1167 H1162 0.950 . S
C1167 C1169 1.327 . S
C1167 C1173 1.429 . S
C1168 C1160 1.574 . S
C1168 H1163 0.963 . S
C1168 C1174 1.368 . S
C1169 C1153 1.349 . S
C1169 H1161 0.950 . S
C1169 C1167 1.327 . S
C1170 C1158 1.349 . S
C1170 H1164 0.950 . S
C1170 C1171 1.327 . S
C1171 H1165 0.950 . S
C1171 C1170 1.327 . S
C1171 C1175 1.429 . S
C1172 C1155 1.574 . S
C1172 H1166 0.949 . S
C1172 C1176 1.368 . S
C1173 C1154 1.429 . S
C1173 C1167 1.429 . S
C1173 C1174 1.523 . S
C1174 C1155 1.368 . S
C1174 C1168 1.368 . S
C1174 C1173 1.523 . S
C1175 C1159 1.429 . S
C1175 C1171 1.429 . S
C1175 C1176 1.523 . S
C1176 C1160 1.368 . S
C1176 C1172 1.368 . S
C1176 C1175 1.523 . S
H1177 C1152 0.950 1_565 S
H1178 C1154 0.950 1_565 S
H1179 C1155 0.949 . S
H1180 C1157 0.950 . S
H1181 C1159 0.950 . S
C1182 C1183 1.349 . S
C1182 C1184 1.327 . S
C1182 H1207 0.950 . S
C1183 C1182 1.349 . S
C1183 C1199 1.349 . S
C1184 C1182 1.327 . S
C1184 C1203 1.429 . S
C1184 H1208 0.950 . S
C1185 C1202 1.574 . S
C1185 C1204 1.368 . S
C1185 H1209 0.949 . S
H1186 C1190 0.949 . S
C1187 C1188 1.349 . S
C1187 C1189 1.327 . S
C1187 H1210 0.950 . S
C1188 C1187 1.349 . S
C1188 C1200 1.349 . S
C1189 C1187 1.327 . S
C1189 C1205 1.429 . S
C1189 H1211 0.950 . S
C1190 H1186 0.949 . S
C1190 C1198 1.574 . S
C1190 C1206 1.368 . S
H1191 C1199 0.950 . S
H1192 C1197 0.950 . S
H1193 C1198 0.949 . S
H1194 C1200 0.950 . S
H1195 C1201 0.950 . S
H1196 C1202 0.949 . S
C1197 H1192 0.950 . S
C1197 C1199 1.327 . S
C1197 C1203 1.429 . S
C1198 C1190 1.574 . S
C1198 H1193 0.949 . S
C1198 C1204 1.368 . S
C1199 C1183 1.349 . S
C1199 H1191 0.950 . S
C1199 C1197 1.327 . S
C1200 C1188 1.349 . S
C1200 H1194 0.950 . S
C1200 C1201 1.327 . S
C1201 H1195 0.950 . S
C1201 C1200 1.327 . S
C1201 C1205 1.429 . S
C1202 C1185 1.574 . S
C1202 H1196 0.949 . S
C1202 C1206 1.368 . S
C1203 C1184 1.429 . S
C1203 C1197 1.429 . S
C1203 C1204 1.523 . S
C1204 C1185 1.368 . S
C1204 C1198 1.368 . S
C1204 C1203 1.523 . S
C1205 C1189 1.429 . S
C1205 C1201 1.429 . S
C1205 C1206 1.523 . S
C1206 C1190 1.368 . S
C1206 C1202 1.368 . S
C1206 C1205 1.523 . S
H1207 C1182 0.950 . S
H1208 C1184 0.950 . S
H1209 C1185 0.949 . S
H1210 C1187 0.950 . S
H1211 C1189 0.950 . S
C1212 C1213 1.349 . S
C1212 C1214 1.327 . S
C1212 H1237 0.950 . S
C1213 C1212 1.349 . S
C1213 C1229 1.349 . S
C1214 C1212 1.327 . S
C1214 C1233 1.429 . S
C1214 H1238 0.950 . S
C1215 C1232 1.574 . S
C1215 C1234 1.368 . S
C1215 H1239 0.949 . S
H1216 C1220 0.949 . S
C1217 C1218 1.349 1_565 S
C1217 C1219 1.327 1_565 S
C1217 H1240 0.950 . S
C1218 C1217 1.349 1_545 S
C1218 C1230 1.349 . S
C1219 C1217 1.327 1_545 S
C1219 C1235 1.429 . S
C1219 H1241 0.950 1_545 S
C1220 H1216 0.949 . S
C1220 C1228 1.574 . S
C1220 C1236 1.368 . S
H1221 C1229 0.950 . S
H1222 C1227 0.950 . S
H1223 C1228 0.949 . S
H1224 C1230 0.950 . S
H1225 C1231 0.950 . S
H1226 C1232 0.951 . S
C1227 H1222 0.950 . S
C1227 C1229 1.327 . S
C1227 C1233 1.429 . S
C1228 C1220 1.574 . S
C1228 H1223 0.949 . S
C1228 C1234 1.368 . S
C1229 C1213 1.349 . S
C1229 H1221 0.950 . S
C1229 C1227 1.327 . S
C1230 C1218 1.349 . S
C1230 H1224 0.950 . S
C1230 C1231 1.327 . S
C1231 H1225 0.950 . S
C1231 C1230 1.327 . S
C1231 C1235 1.429 . S
C1232 C1215 1.574 . S
C1232 H1226 0.951 . S
C1232 C1236 1.368 . S
C1233 C1214 1.429 . S
C1233 C1227 1.429 . S
C1233 C1234 1.523 . S
C1234 C1215 1.368 . S
C1234 C1228 1.368 . S
C1234 C1233 1.523 . S
C1235 C1219 1.429 . S
C1235 C1231 1.429 . S
C1235 C1236 1.523 . S
C1236 C1220 1.368 . S
C1236 C1232 1.368 . S
C1236 C1235 1.523 . S
H1237 C1212 0.950 . S
H1238 C1214 0.950 . S
H1239 C1215 0.949 . S
H1240 C1217 0.950 . S
H1241 C1219 0.950 1_565 S
C1242 C1243 1.349 . S
C1242 C1244 1.327 . S
C1242 H1267 0.950 . S
C1243 C1242 1.349 . S
C1243 C1259 1.349 . S
C1244 C1242 1.327 . S
C1244 C1263 1.429 . S
C1244 H1268 0.950 . S
C1245 C1262 1.574 . S
C1245 C1264 1.368 . S
C1245 H1269 0.949 . S
H1246 C1250 0.949 . S
C1247 C1248 1.349 . S
C1247 C1249 1.327 . S
C1247 H1270 0.950 . S
C1248 C1247 1.349 . S
C1248 C1260 1.349 . S
C1249 C1247 1.327 . S
C1249 C1265 1.429 . S
C1249 H1271 0.950 . S
C1250 H1246 0.949 . S
C1250 C1258 1.574 . S
C1250 C1266 1.368 . S
H1251 C1259 0.950 . S
H1252 C1257 0.950 . S
H1253 C1258 0.949 . S
H1254 C1260 0.950 . S
H1255 C1261 0.950 . S
H1256 C1262 0.949 . S
C1257 H1252 0.950 . S
C1257 C1259 1.327 . S
C1257 C1263 1.429 . S
C1258 C1250 1.574 . S
C1258 H1253 0.949 . S
C1258 C1264 1.368 . S
C1259 C1243 1.349 . S
C1259 H1251 0.950 . S
C1259 C1257 1.327 . S
C1260 C1248 1.349 . S
C1260 H1254 0.950 . S
C1260 C1261 1.327 . S
C1261 H1255 0.950 . S
C1261 C1260 1.327 . S
C1261 C1265 1.429 . S
C1262 C1245 1.574 . S
C1262 H1256 0.949 . S
C1262 C1266 1.368 . S
C1263 C1244 1.429 . S
C1263 C1257 1.429 . S
C1263 C1264 1.523 . S
C1264 C1245 1.368 . S
C1264 C1258 1.368 . S
C1264 C1263 1.523 . S
C1265 C1249 1.429 . S
C1265 C1261 1.429 . S
C1265 C1266 1.523 . S
C1266 C1250 1.368 . S
C1266 C1262 1.368 . S
C1266 C1265 1.523 . S
H1267 C1242 0.950 . S
H1268 C1244 0.950 . S
H1269 C1245 0.949 . S
H1270 C1247 0.950 . S
H1271 C1249 0.950 . S
C1272 C1273 1.349 . S
C1272 C1274 1.327 . S
C1272 H1297 0.950 . S
C1273 C1272 1.349 . S
C1273 C1289 1.349 . S
C1274 C1272 1.327 . S
C1274 C1293 1.429 . S
C1274 H1298 0.950 . S
C1275 C1292 1.578 . S
C1275 C1294 1.331 1_556 S
C1275 H1299 0.980 . S
H1276 C1280 0.949 . S
C1277 C1278 1.349 1_556 S
C1277 C1279 1.327 . S
C1277 H1300 0.950 . S
C1278 C1277 1.349 1_554 S
C1278 C1290 1.349 . S
C1279 C1277 1.327 . S
C1279 C1295 1.429 1_556 S
C1279 H1301 0.950 . S
C1280 H1276 0.949 . S
C1280 C1288 1.574 . S
C1280 C1296 1.368 . S
H1281 C1289 0.950 1_556 S
H1282 C1287 0.950 1_556 S
H1283 C1288 0.949 . S
H1284 C1290 0.950 . S
H1285 C1291 0.950 . S
H1286 C1292 0.949 . S
C1287 H1282 0.950 1_554 S
C1287 C1289 1.327 . S
C1287 C1293 1.429 . S
C1288 C1280 1.574 . S
C1288 H1283 0.949 . S
C1288 C1294 1.368 . S
C1289 C1273 1.349 . S
C1289 H1281 0.950 1_554 S
C1289 C1287 1.327 . S
C1290 C1278 1.349 . S
C1290 H1284 0.950 . S
C1290 C1291 1.327 . S
C1291 H1285 0.950 . S
C1291 C1290 1.327 . S
C1291 C1295 1.429 . S
C1292 C1275 1.578 . S
C1292 H1286 0.949 . S
C1292 C1296 1.368 1_556 S
C1293 C1274 1.429 . S
C1293 C1287 1.429 . S
C1293 C1294 1.523 . S
C1294 C1275 1.331 1_554 S
C1294 C1288 1.368 . S
C1294 C1293 1.523 . S
C1295 C1279 1.429 1_554 S
C1295 C1291 1.429 . S
C1295 C1296 1.523 . S
C1296 C1280 1.368 . S
C1296 C1292 1.368 1_554 S
C1296 C1295 1.523 . S
H1297 C1272 0.950 . S
H1298 C1274 0.950 . S
H1299 C1275 0.980 . S
H1300 C1277 0.950 . S
H1301 C1279 0.950 . S
C1302 C1303 1.349 . S
C1302 C1304 1.327 . S
C1302 H1327 0.950 . S
C1303 C1302 1.349 . S
C1303 C1319 1.349 . S
C1304 C1302 1.327 . S
C1304 C1323 1.429 . S
C1304 H1328 0.950 . S
C1305 C1322 1.574 . S
C1305 C1324 1.368 . S
C1305 H1329 0.949 . S
H1306 C1310 0.949 . S
C1307 C1308 1.349 . S
C1307 C1309 1.327 . S
C1307 H1330 0.950 . S
C1308 C1307 1.349 . S
C1308 C1320 1.349 . S
C1309 C1307 1.327 . S
C1309 C1325 1.429 . S
C1309 H1331 0.950 . S
C1310 H1306 0.949 . S
C1310 C1318 1.574 . S
C1310 C1326 1.368 . S
H1311 C1319 0.950 . S
H1312 C1317 0.950 . S
H1313 C1318 0.949 . S
H1314 C1320 0.950 . S
H1315 C1321 0.950 . S
H1316 C1322 0.949 . S
C1317 H1312 0.950 . S
C1317 C1319 1.327 . S
C1317 C1323 1.429 . S
C1318 C1310 1.574 . S
C1318 H1313 0.949 . S
C1318 C1324 1.368 . S
C1319 C1303 1.349 . S
C1319 H1311 0.950 . S
C1319 C1317 1.327 . S
C1320 C1308 1.349 . S
C1320 H1314 0.950 . S
C1320 C1321 1.327 . S
C1321 H1315 0.950 . S
C1321 C1320 1.327 . S
C1321 C1325 1.429 . S
C1322 C1305 1.574 . S
C1322 H1316 0.949 . S
C1322 C1326 1.368 . S
C1323 C1304 1.429 . S
C1323 C1317 1.429 . S
C1323 C1324 1.523 . S
C1324 C1305 1.368 . S
C1324 C1318 1.368 . S
C1324 C1323 1.523 . S
C1325 C1309 1.429 . S
C1325 C1321 1.429 . S
C1325 C1326 1.523 . S
C1326 C1310 1.368 . S
C1326 C1322 1.368 . S
C1326 C1325 1.523 . S
H1327 C1302 0.950 . S
H1328 C1304 0.950 . S
H1329 C1305 0.949 . S
H1330 C1307 0.950 . S
H1331 C1309 0.950 . S
C1332 C1333 1.349 . S
C1332 C1334 1.327 . S
C1332 H1357 0.950 . S
C1333 C1332 1.349 . S
C1333 C1349 1.349 . S
C1334 C1332 1.327 . S
C1334 C1353 1.429 . S
C1334 H1358 0.950 . S
C1335 C1352 1.574 . S
C1335 C1354 1.368 . S
C1335 H1359 0.949 . S
H1336 C1340 0.949 . S
C1337 C1338 1.349 . S
C1337 C1339 1.327 . S
C1337 H1360 0.950 . S
C1338 C1337 1.349 . S
C1338 C1350 1.349 . S
C1339 C1337 1.327 . S
C1339 C1355 1.429 . S
C1339 H1361 0.950 . S
C1340 H1336 0.949 . S
C1340 C1348 1.574 . S
C1340 C1356 1.368 . S
H1341 C1349 0.950 . S
H1342 C1347 0.950 . S
H1343 C1348 0.949 . S
H1344 C1350 0.950 . S
H1345 C1351 0.950 . S
H1346 C1352 0.949 . S
C1347 H1342 0.950 . S
C1347 C1349 1.327 . S
C1347 C1353 1.429 . S
C1348 C1340 1.574 . S
C1348 H1343 0.949 . S
C1348 C1354 1.368 . S
C1349 C1333 1.349 . S
C1349 H1341 0.950 . S
C1349 C1347 1.327 . S
C1350 C1338 1.349 . S
C1350 H1344 0.950 . S
C1350 C1351 1.327 . S
C1351 H1345 0.950 . S
C1351 C1350 1.327 . S
C1351 C1355 1.429 . S
C1352 C1335 1.574 . S
C1352 H1346 0.949 . S
C1352 C1356 1.368 . S
C1353 C1334 1.429 . S
C1353 C1347 1.429 . S
C1353 C1354 1.523 . S
C1354 C1335 1.368 . S
C1354 C1348 1.368 . S
C1354 C1353 1.523 . S
C1355 C1339 1.429 . S
C1355 C1351 1.429 . S
C1355 C1356 1.523 . S
C1356 C1340 1.368 . S
C1356 C1352 1.368 . S
C1356 C1355 1.523 . S
H1357 C1332 0.950 . S
H1358 C1334 0.950 . S
H1359 C1335 0.949 . S
H1360 C1337 0.950 . S
H1361 C1339 0.950 . S
C1362 C1363 1.349 . S
C1362 C1364 1.327 . S
C1362 H1387 0.950 . S
C1363 C1362 1.349 . S
C1363 C1379 1.349 . S
C1364 C1362 1.327 . S
C1364 C1383 1.429 . S
C1364 H1388 0.950 . S
C1365 C1382 1.574 . S
C1365 C1384 1.368 . S
C1365 H1389 0.949 . S
H1366 C1370 0.949 . S
C1367 C1368 1.349 . S
C1367 C1369 1.327 . S
C1367 H1390 0.950 . S
C1368 C1367 1.349 . S
C1368 C1380 1.349 . S
C1369 C1367 1.327 . S
C1369 C1385 1.429 . S
C1369 H1391 0.950 . S
C1370 H1366 0.949 . S
C1370 C1378 1.574 . S
C1370 C1386 1.368 . S
H1371 C1379 0.950 . S
H1372 C1377 0.950 . S
H1373 C1378 0.949 . S
H1374 C1380 0.950 . S
H1375 C1381 0.950 . S
H1376 C1382 0.949 . S
C1377 H1372 0.950 . S
C1377 C1379 1.327 . S
C1377 C1383 1.429 . S
C1378 C1370 1.574 . S
C1378 H1373 0.949 . S
C1378 C1384 1.368 . S
C1379 C1363 1.349 . S
C1379 H1371 0.950 . S
C1379 C1377 1.327 . S
C1380 C1368 1.349 . S
C1380 H1374 0.950 . S
C1380 C1381 1.327 . S
C1381 H1375 0.950 . S
C1381 C1380 1.327 . S
C1381 C1385 1.429 . S
C1382 C1365 1.574 . S
C1382 H1376 0.949 . S
C1382 C1386 1.368 . S
C1383 C1364 1.429 . S
C1383 C1377 1.429 . S
C1383 C1384 1.523 . S
C1384 C1365 1.368 . S
C1384 C1378 1.368 . S
C1384 C1383 1.523 . S
C1385 C1369 1.429 . S
C1385 C1381 1.429 . S
C1385 C1386 1.523 . S
C1386 C1370 1.368 . S
C1386 C1382 1.368 . S
C1386 C1385 1.523 . S
H1387 C1362 0.950 . S
H1388 C1364 0.950 . S
H1389 C1365 0.949 . S
H1390 C1367 0.950 . S
H1391 C1369 0.950 . S
C1392 C1393 1.349 . S
C1392 C1394 1.327 . S
C1392 H1417 0.950 . S
C1393 C1392 1.349 . S
C1393 C1409 1.349 . S
C1394 C1392 1.327 . S
C1394 C1413 1.429 . S
C1394 H1418 0.950 . S
C1395 C1412 1.574 . S
C1395 C1414 1.368 . S
C1395 H1419 0.949 . S
H1396 C1400 0.949 . S
C1397 C1398 1.349 . S
C1397 C1399 1.327 . S
C1397 H1420 0.950 . S
C1398 C1397 1.349 . S
C1398 C1410 1.349 . S
C1399 C1397 1.327 . S
C1399 C1415 1.429 . S
C1399 H1421 0.950 . S
C1400 H1396 0.949 . S
C1400 C1408 1.574 . S
C1400 C1416 1.368 . S
H1401 C1409 0.950 . S
H1402 C1407 0.950 . S
H1403 C1408 0.949 . S
H1404 C1410 0.950 . S
H1405 C1411 0.950 . S
H1406 C1412 0.949 . S
C1407 H1402 0.950 . S
C1407 C1409 1.327 . S
C1407 C1413 1.429 . S
C1408 C1400 1.574 . S
C1408 H1403 0.949 . S
C1408 C1414 1.368 . S
C1409 C1393 1.349 . S
C1409 H1401 0.950 . S
C1409 C1407 1.327 . S
C1410 C1398 1.349 . S
C1410 H1404 0.950 . S
C1410 C1411 1.327 . S
C1411 H1405 0.950 . S
C1411 C1410 1.327 . S
C1411 C1415 1.429 . S
C1412 C1395 1.574 . S
C1412 H1406 0.949 . S
C1412 C1416 1.368 . S
C1413 C1394 1.429 . S
C1413 C1407 1.429 . S
C1413 C1414 1.523 . S
C1414 C1395 1.368 . S
C1414 C1408 1.368 . S
C1414 C1413 1.523 . S
C1415 C1399 1.429 . S
C1415 C1411 1.429 . S
C1415 C1416 1.523 . S
C1416 C1400 1.368 . S
C1416 C1412 1.368 . S
C1416 C1415 1.523 . S
H1417 C1392 0.950 . S
H1418 C1394 0.950 . S
H1419 C1395 0.949 . S
H1420 C1397 0.950 . S
H1421 C1399 0.950 . S
C1422 C1423 1.349 . S
C1422 C1424 1.327 . S
C1422 H1447 0.950 . S
C1423 C1422 1.349 . S
C1423 C1439 1.349 . S
C1424 C1422 1.327 . S
C1424 C1443 1.429 . S
C1424 H1448 0.950 . S
C1425 C1442 1.574 . S
C1425 C1444 1.368 . S
C1425 H1449 0.949 . S
H1426 C1430 0.949 . S
C1427 C1428 1.349 . S
C1427 C1429 1.327 . S
C1427 H1450 0.950 . S
C1428 C1427 1.349 . S
C1428 C1440 1.349 . S
C1429 C1427 1.327 . S
C1429 C1445 1.429 . S
C1429 H1451 0.950 . S
C1430 H1426 0.949 . S
C1430 C1438 1.574 . S
C1430 C1446 1.368 . S
H1431 C1439 0.950 . S
H1432 C1437 0.950 . S
H1433 C1438 0.949 . S
H1434 C1440 0.950 1_545 S
H1435 C1441 0.950 . S
H1436 C1442 0.949 . S
C1437 H1432 0.950 . S
C1437 C1439 1.327 . S
C1437 C1443 1.429 . S
C1438 C1430 1.574 . S
C1438 H1433 0.949 . S
C1438 C1444 1.368 . S
C1439 C1423 1.349 . S
C1439 H1431 0.950 . S
C1439 C1437 1.327 . S
C1440 C1428 1.349 . S
C1440 H1434 0.950 1_565 S
C1440 C1441 1.327 . S
C1441 H1435 0.950 . S
C1441 C1440 1.327 . S
C1441 C1445 1.429 . S
C1442 C1425 1.574 . S
C1442 H1436 0.949 . S
C1442 C1446 1.368 . S
C1443 C1424 1.429 . S
C1443 C1437 1.429 . S
C1443 C1444 1.523 . S
C1444 C1425 1.368 . S
C1444 C1438 1.368 . S
C1444 C1443 1.523 . S
C1445 C1429 1.429 . S
C1445 C1441 1.429 . S
C1445 C1446 1.523 . S
C1446 C1430 1.368 . S
C1446 C1442 1.368 . S
C1446 C1445 1.523 . S
H1447 C1422 0.950 . S
H1448 C1424 0.950 . S
H1449 C1425 0.949 . S
H1450 C1427 0.950 . S
H1451 C1429 0.950 . S
C1452 C1453 1.349 . S
C1452 C1454 1.327 . S
C1452 H1477 0.950 . S
C1453 C1452 1.349 . S
C1453 C1469 1.349 . S
C1454 C1452 1.327 . S
C1454 C1473 1.429 . S
C1454 H1478 0.950 . S
C1455 C1472 1.574 . S
C1455 C1474 1.368 . S
C1455 H1479 0.949 . S
H1456 C1460 0.949 . S
C1457 C1458 1.349 . S
C1457 C1459 1.327 . S
C1457 H1480 0.950 . S
C1458 C1457 1.349 . S
C1458 C1470 1.349 . S
C1459 C1457 1.327 . S
C1459 C1475 1.429 . S
C1459 H1481 0.950 . S
C1460 H1456 0.949 . S
C1460 C1468 1.574 . S
C1460 C1476 1.368 . S
H1461 C1469 0.950 . S
H1462 C1467 0.950 . S
H1463 C1468 0.949 . S
H1464 C1470 0.950 . S
H1465 C1471 0.950 . S
H1466 C1472 0.949 . S
C1467 H1462 0.950 . S
C1467 C1469 1.327 . S
C1467 C1473 1.429 . S
C1468 C1460 1.574 . S
C1468 H1463 0.949 . S
C1468 C1474 1.368 . S
C1469 C1453 1.349 . S
C1469 H1461 0.950 . S
C1469 C1467 1.327 . S
C1470 C1458 1.349 . S
C1470 H1464 0.950 . S
C1470 C1471 1.327 . S
C1471 H1465 0.950 . S
C1471 C1470 1.327 . S
C1471 C1475 1.429 . S
C1472 C1455 1.574 . S
C1472 H1466 0.949 . S
C1472 C1476 1.368 . S
C1473 C1454 1.429 . S
C1473 C1467 1.429 . S
C1473 C1474 1.523 . S
C1474 C1455 1.368 . S
C1474 C1468 1.368 . S
C1474 C1473 1.523 . S
C1475 C1459 1.429 . S
C1475 C1471 1.429 . S
C1475 C1476 1.523 . S
C1476 C1460 1.368 . S
C1476 C1472 1.368 . S
C1476 C1475 1.523 . S
H1477 C1452 0.950 . S
H1478 C1454 0.950 . S
H1479 C1455 0.949 . S
H1480 C1457 0.950 . S
H1481 C1459 0.950 . S
C1482 C1483 1.349 . S
C1482 C1484 1.327 . S
C1482 H1507 0.950 . S
C1483 C1482 1.349 . S
C1483 C1499 1.349 . S
C1484 C1482 1.327 . S
C1484 C1503 1.429 . S
C1484 H1508 0.950 . S
C1485 C1502 1.574 . S
C1485 C1504 1.368 . S
C1485 H1509 0.949 . S
H1486 C1490 0.949 . S
C1487 C1488 1.349 . S
C1487 C1489 1.327 . S
C1487 H1510 0.950 . S
C1488 C1487 1.349 . S
C1488 C1500 1.349 . S
C1489 C1487 1.327 . S
C1489 C1505 1.429 . S
C1489 H1511 0.950 . S
C1490 H1486 0.949 . S
C1490 C1498 1.574 . S
C1490 C1506 1.368 . S
H1491 C1499 0.950 . S
H1492 C1497 0.950 . S
H1493 C1498 0.949 . S
H1494 C1500 0.950 . S
H1495 C1501 0.950 . S
H1496 C1502 0.949 . S
C1497 H1492 0.950 . S
C1497 C1499 1.327 . S
C1497 C1503 1.429 . S
C1498 C1490 1.574 . S
C1498 H1493 0.949 . S
C1498 C1504 1.368 . S
C1499 C1483 1.349 . S
C1499 H1491 0.950 . S
C1499 C1497 1.327 . S
C1500 C1488 1.349 . S
C1500 H1494 0.950 . S
C1500 C1501 1.327 . S
C1501 H1495 0.950 . S
C1501 C1500 1.327 . S
C1501 C1505 1.429 . S
C1502 C1485 1.574 . S
C1502 H1496 0.949 . S
C1502 C1506 1.368 . S
C1503 C1484 1.429 . S
C1503 C1497 1.429 . S
C1503 C1504 1.523 . S
C1504 C1485 1.368 . S
C1504 C1498 1.368 . S
C1504 C1503 1.523 . S
C1505 C1489 1.429 . S
C1505 C1501 1.429 . S
C1505 C1506 1.523 . S
C1506 C1490 1.368 . S
C1506 C1502 1.368 . S
C1506 C1505 1.523 . S
H1507 C1482 0.950 . S
H1508 C1484 0.950 . S
H1509 C1485 0.949 . S
H1510 C1487 0.950 . S
H1511 C1489 0.950 . S
C1512 C1513 1.349 . S
C1512 C1514 1.327 . S
C1512 H1537 0.950 . S
C1513 C1512 1.349 . S
C1513 C1529 1.349 . S
C1514 C1512 1.327 . S
C1514 C1533 1.429 . S
C1514 H1538 0.950 . S
C1515 C1532 1.574 . S
C1515 C1534 1.368 . S
C1515 H1539 0.949 . S
H1516 C1520 0.949 . S
C1517 C1518 1.349 . S
C1517 C1519 1.327 . S
C1517 H1540 0.950 . S
C1518 C1517 1.349 . S
C1518 C1530 1.349 1_556 S
C1519 C1517 1.327 . S
C1519 C1535 1.429 . S
C1519 H1541 0.950 . S
C1520 H1516 0.949 . S
C1520 C1528 1.574 . S
C1520 C1536 1.368 . S
H1521 C1529 0.950 1_655 S
H1522 C1527 0.937 1_655 S
H1523 C1528 0.949 . S
H1524 C1530 0.950 . S
H1525 C1531 0.964 . S
H1526 C1532 0.949 . S
C1527 H1522 0.937 1_455 S
C1527 C1529 1.327 . S
C1527 C1533 1.429 . S
C1528 C1520 1.574 . S
C1528 H1523 0.949 . S
C1528 C1534 1.368 . S
C1529 C1513 1.349 . S
C1529 H1521 0.950 1_455 S
C1529 C1527 1.327 . S
C1530 C1518 1.349 1_554 S
C1530 H1524 0.950 . S
C1530 C1531 1.327 1_554 S
C1531 H1525 0.964 . S
C1531 C1530 1.327 1_556 S
C1531 C1535 1.429 . S
C1532 C1515 1.574 . S
C1532 H1526 0.949 . S
C1532 C1536 1.368 . S
C1533 C1514 1.429 . S
C1533 C1527 1.429 . S
C1533 C1534 1.523 . S
C1534 C1515 1.368 . S
C1534 C1528 1.368 . S
C1534 C1533 1.523 . S
C1535 C1519 1.429 . S
C1535 C1531 1.429 . S
C1535 C1536 1.523 . S
C1536 C1520 1.368 . S
C1536 C1532 1.368 . S
C1536 C1535 1.523 . S
H1537 C1512 0.950 . S
H1538 C1514 0.950 . S
H1539 C1515 0.949 . S
H1540 C1517 0.950 . S
H1541 C1519 0.950 . S
C1542 C1543 1.349 . S
C1542 C1544 1.327 . S
C1542 H1567 0.950 . S
C1543 C1542 1.349 . S
C1543 C1559 1.349 . S
C1544 C1542 1.327 . S
C1544 C1563 1.429 . S
C1544 H1568 0.950 . S
C1545 C1562 1.574 . S
C1545 C1564 1.368 . S
C1545 H1569 0.949 . S
H1546 C1550 0.949 . S
C1547 C1548 1.349 . S
C1547 C1549 1.327 . S
C1547 H1570 0.950 . S
C1548 C1547 1.349 . S
C1548 C1560 1.349 . S
C1549 C1547 1.327 . S
C1549 C1565 1.429 . S
C1549 H1571 0.950 . S
C1550 H1546 0.949 . S
C1550 C1558 1.574 . S
C1550 C1566 1.368 . S
H1551 C1559 0.950 . S
H1552 C1557 0.950 . S
H1553 C1558 0.949 . S
H1554 C1560 0.950 . S
H1555 C1561 0.950 . S
H1556 C1562 0.949 . S
C1557 H1552 0.950 . S
C1557 C1559 1.327 . S
C1557 C1563 1.429 . S
C1558 C1550 1.574 . S
C1558 H1553 0.949 . S
C1558 C1564 1.368 . S
C1559 C1543 1.349 . S
C1559 H1551 0.950 . S
C1559 C1557 1.327 . S
C1560 C1548 1.349 . S
C1560 H1554 0.950 . S
C1560 C1561 1.327 . S
C1561 H1555 0.950 . S
C1561 C1560 1.327 . S
C1561 C1565 1.429 . S
C1562 C1545 1.574 . S
C1562 H1556 0.949 . S
C1562 C1566 1.368 . S
C1563 C1544 1.429 . S
C1563 C1557 1.429 . S
C1563 C1564 1.523 . S
C1564 C1545 1.368 . S
C1564 C1558 1.368 . S
C1564 C1563 1.523 . S
C1565 C1549 1.429 . S
C1565 C1561 1.429 . S
C1565 C1566 1.523 . S
C1566 C1550 1.368 . S
C1566 C1562 1.368 . S
C1566 C1565 1.523 . S
H1567 C1542 0.950 . S
H1568 C1544 0.950 . S
H1569 C1545 0.949 . S
H1570 C1547 0.950 . S
H1571 C1549 0.950 . S
C1572 C1573 1.349 . S
C1572 C1574 1.327 . S
C1572 H1597 0.950 . S
C1573 C1572 1.349 . S
C1573 C1589 1.349 . S
C1574 C1572 1.327 . S
C1574 C1593 1.429 . S
C1574 H1598 0.950 . S
C1575 C1592 1.574 . S
C1575 C1594 1.368 . S
C1575 H1599 0.949 . S
H1576 C1580 0.949 . S
C1577 C1578 1.349 . S
C1577 C1579 1.327 . S
C1577 H1600 0.950 . S
C1578 C1577 1.349 . S
C1578 C1590 1.349 . S
C1579 C1577 1.327 . S
C1579 C1595 1.429 . S
C1579 H1601 0.950 . S
C1580 H1576 0.949 . S
C1580 C1588 1.574 . S
C1580 C1596 1.368 . S
H1581 C1589 0.950 . S
H1582 C1587 0.950 . S
H1583 C1588 0.949 . S
H1584 C1590 0.950 . S
H1585 C1591 0.950 . S
H1586 C1592 0.949 . S
C1587 H1582 0.950 . S
C1587 C1589 1.327 . S
C1587 C1593 1.429 . S
C1588 C1580 1.574 . S
C1588 H1583 0.949 . S
C1588 C1594 1.368 . S
C1589 C1573 1.349 . S
C1589 H1581 0.950 . S
C1589 C1587 1.327 . S
C1590 C1578 1.349 . S
C1590 H1584 0.950 . S
C1590 C1591 1.327 . S
C1591 H1585 0.950 . S
C1591 C1590 1.327 . S
C1591 C1595 1.429 . S
C1592 C1575 1.574 . S
C1592 H1586 0.949 . S
C1592 C1596 1.368 . S
C1593 C1574 1.429 . S
C1593 C1587 1.429 . S
C1593 C1594 1.523 . S
C1594 C1575 1.368 . S
C1594 C1588 1.368 . S
C1594 C1593 1.523 . S
C1595 C1579 1.429 . S
C1595 C1591 1.429 . S
C1595 C1596 1.523 . S
C1596 C1580 1.368 . S
C1596 C1592 1.368 . S
C1596 C1595 1.523 . S
H1597 C1572 0.950 . S
H1598 C1574 0.950 . S
H1599 C1575 0.949 . S
H1600 C1577 0.950 . S
H1601 C1579 0.950 . S
C1602 C1603 1.349 . S
C1602 C1604 1.327 . S
C1602 H1627 0.950 . S
C1603 C1602 1.349 . S
C1603 C1619 1.349 . S
C1604 C1602 1.327 . S
C1604 C1623 1.429 . S
C1604 H1628 0.950 . S
C1605 C1622 1.574 . S
C1605 C1624 1.368 . S
C1605 H1629 0.949 . S
H1606 C1610 0.949 . S
C1607 C1608 1.349 . S
C1607 C1609 1.327 . S
C1607 H1630 0.950 . S
C1608 C1607 1.349 . S
C1608 C1620 1.349 . S
C1609 C1607 1.327 . S
C1609 C1625 1.429 . S
C1609 H1631 0.950 . S
C1610 H1606 0.949 . S
C1610 C1618 1.574 . S
C1610 C1626 1.368 . S
H1611 C1619 0.950 . S
H1612 C1617 0.950 . S
H1613 C1618 0.949 . S
H1614 C1620 0.950 . S
H1615 C1621 0.950 . S
H1616 C1622 0.949 . S
C1617 H1612 0.950 . S
C1617 C1619 1.327 . S
C1617 C1623 1.429 . S
C1618 C1610 1.574 . S
C1618 H1613 0.949 . S
C1618 C1624 1.368 . S
C1619 C1603 1.349 . S
C1619 H1611 0.950 . S
C1619 C1617 1.327 . S
C1620 C1608 1.349 . S
C1620 H1614 0.950 . S
C1620 C1621 1.327 . S
C1621 H1615 0.950 . S
C1621 C1620 1.327 . S
C1621 C1625 1.429 . S
C1622 C1605 1.574 . S
C1622 H1616 0.949 . S
C1622 C1626 1.368 . S
C1623 C1604 1.429 . S
C1623 C1617 1.429 . S
C1623 C1624 1.523 . S
C1624 C1605 1.368 . S
C1624 C1618 1.368 . S
C1624 C1623 1.523 . S
C1625 C1609 1.429 . S
C1625 C1621 1.429 . S
C1625 C1626 1.523 . S
C1626 C1610 1.368 . S
C1626 C1622 1.368 . S
C1626 C1625 1.523 . S
H1627 C1602 0.950 . S
H1628 C1604 0.950 . S
H1629 C1605 0.949 . S
H1630 C1607 0.950 . S
H1631 C1609 0.950 . S
C1632 C1633 1.349 . S
C1632 C1634 1.327 . S
C1632 H1657 0.950 . S
C1633 C1632 1.349 . S
C1633 C1649 1.349 1_655 S
C1634 C1632 1.327 . S
C1634 C1653 1.429 1_655 S
C1634 H1658 0.950 . S
C1635 C1652 1.574 . S
C1635 C1654 1.368 . S
C1635 H1659 0.949 . S
H1636 C1640 0.949 1_655 S
C1637 C1638 1.349 . S
C1637 C1639 1.327 . S
C1637 H1660 0.950 . S
C1638 C1637 1.349 . S
C1638 C1650 1.349 . S
C1639 C1637 1.327 . S
C1639 C1655 1.429 . S
C1639 H1661 0.950 . S
C1640 H1636 0.949 1_455 S
C1640 C1648 1.574 1_455 S
C1640 C1656 1.368 . S
H1641 C1649 0.950 . S
H1642 C1647 0.950 . S
H1643 C1648 0.949 . S
H1644 C1650 0.950 . S
H1645 C1651 0.950 . S
H1646 C1652 0.949 . S
C1647 H1642 0.950 . S
C1647 C1649 1.327 . S
C1647 C1653 1.429 . S
C1648 C1640 1.574 1_655 S
C1648 H1643 0.949 . S
C1648 C1654 1.368 1_655 S
C1649 C1633 1.349 1_455 S
C1649 H1641 0.950 . S
C1649 C1647 1.327 . S
C1650 C1638 1.349 . S
C1650 H1644 0.950 . S
C1650 C1651 1.327 . S
C1651 H1645 0.950 . S
C1651 C1650 1.327 . S
C1651 C1655 1.429 . S
C1652 C1635 1.574 . S
C1652 H1646 0.949 . S
C1652 C1656 1.368 . S
C1653 C1634 1.429 1_455 S
C1653 C1647 1.429 . S
C1653 C1654 1.523 . S
C1654 C1635 1.368 . S
C1654 C1648 1.368 1_455 S
C1654 C1653 1.523 . S
C1655 C1639 1.429 . S
C1655 C1651 1.429 . S
C1655 C1656 1.523 . S
C1656 C1640 1.368 . S
C1656 C1652 1.368 . S
C1656 C1655 1.523 . S
H1657 C1632 0.950 . S
H1658 C1634 0.950 . S
H1659 C1635 0.949 . S
H1660 C1637 0.950 . S
H1661 C1639 0.950 . S
C1662 C1663 1.349 . S
C1662 C1664 1.327 . S
C1662 H1687 0.950 . S
C1663 C1662 1.349 . S
C1663 C1679 1.349 . S
C1664 C1662 1.327 . S
C1664 C1683 1.429 . S
C1664 H1688 0.950 . S
C1665 C1682 1.574 . S
C1665 C1684 1.368 . S
C1665 H1689 0.949 . S
H1666 C1670 0.949 . S
C1667 C1668 1.349 . S
C1667 C1669 1.327 . S
C1667 H1690 0.950 . S
C1668 C1667 1.349 . S
C1668 C1680 1.349 . S
C1669 C1667 1.327 . S
C1669 C1685 1.429 . S
C1669 H1691 0.950 . S
C1670 H1666 0.949 . S
C1670 C1678 1.574 . S
C1670 C1686 1.368 . S
H1671 C1679 0.950 . S
H1672 C1677 0.950 . S
H1673 C1678 0.949 . S
H1674 C1680 0.950 . S
H1675 C1681 0.950 . S
H1676 C1682 0.949 . S
C1677 H1672 0.950 . S
C1677 C1679 1.327 . S
C1677 C1683 1.429 . S
C1678 C1670 1.574 . S
C1678 H1673 0.949 . S
C1678 C1684 1.368 . S
C1679 C1663 1.349 . S
C1679 H1671 0.950 . S
C1679 C1677 1.327 . S
C1680 C1668 1.349 . S
C1680 H1674 0.950 . S
C1680 C1681 1.327 . S
C1681 H1675 0.950 . S
C1681 C1680 1.327 . S
C1681 C1685 1.429 . S
C1682 C1665 1.574 . S
C1682 H1676 0.949 . S
C1682 C1686 1.368 . S
C1683 C1664 1.429 . S
C1683 C1677 1.429 . S
C1683 C1684 1.523 . S
C1684 C1665 1.368 . S
C1684 C1678 1.368 . S
C1684 C1683 1.523 . S
C1685 C1669 1.429 . S
C1685 C1681 1.429 . S
C1685 C1686 1.523 . S
C1686 C1670 1.368 . S
C1686 C1682 1.368 . S
C1686 C1685 1.523 . S
H1687 C1662 0.950 . S
H1688 C1664 0.950 . S
H1689 C1665 0.949 . S
H1690 C1667 0.950 . S
H1691 C1669 0.950 . S
C1692 C1693 1.349 . S
C1692 C1694 1.327 . S
C1692 H1717 0.950 . S
C1693 C1692 1.349 . S
C1693 C1709 1.349 . S
C1694 C1692 1.327 . S
C1694 C1713 1.429 . S
C1694 H1718 0.950 . S
C1695 C1712 1.574 . S
C1695 C1714 1.368 . S
C1695 H1719 0.949 . S
H1696 C1700 0.949 . S
C1697 C1698 1.349 . S
C1697 C1699 1.327 . S
C1697 H1720 0.950 . S
C1698 C1697 1.349 . S
C1698 C1710 1.349 . S
C1699 C1697 1.327 . S
C1699 C1715 1.429 . S
C1699 H1721 0.950 . S
C1700 H1696 0.949 . S
C1700 C1708 1.574 . S
C1700 C1716 1.368 . S
H1701 C1709 0.950 . S
H1702 C1707 0.950 . S
H1703 C1708 0.949 . S
H1704 C1710 0.950 . S
H1705 C1711 0.950 . S
H1706 C1712 0.949 . S
C1707 H1702 0.950 . S
C1707 C1709 1.327 . S
C1707 C1713 1.429 . S
C1708 C1700 1.574 . S
C1708 H1703 0.949 . S
C1708 C1714 1.368 . S
C1709 C1693 1.349 . S
C1709 H1701 0.950 . S
C1709 C1707 1.327 . S
C1710 C1698 1.349 . S
C1710 H1704 0.950 . S
C1710 C1711 1.327 . S
C1711 H1705 0.950 . S
C1711 C1710 1.327 . S
C1711 C1715 1.429 . S
C1712 C1695 1.574 . S
C1712 H1706 0.949 . S
C1712 C1716 1.368 . S
C1713 C1694 1.429 . S
C1713 C1707 1.429 . S
C1713 C1714 1.523 . S
C1714 C1695 1.368 . S
C1714 C1708 1.368 . S
C1714 C1713 1.523 . S
C1715 C1699 1.429 . S
C1715 C1711 1.429 . S
C1715 C1716 1.523 . S
C1716 C1700 1.368 . S
C1716 C1712 1.368 . S
C1716 C1715 1.523 . S
H1717 C1692 0.950 . S
H1718 C1694 0.950 . S
H1719 C1695 0.949 . S
H1720 C1697 0.950 . S
H1721 C1699 0.950 . S
C1722 C1723 1.349 . S
C1722 C1724 1.327 . S
C1722 H1747 0.950 . S
C1723 C1722 1.349 . S
C1723 C1739 1.349 . S
C1724 C1722 1.327 . S
C1724 C1743 1.429 . S
C1724 H1748 0.950 . S
C1725 C1742 1.574 . S
C1725 C1744 1.368 . S
C1725 H1749 0.949 . S
H1726 C1730 0.949 . S
C1727 C1728 1.349 . S
C1727 C1729 1.327 . S
C1727 H1750 0.950 . S
C1728 C1727 1.349 . S
C1728 C1740 1.349 . S
C1729 C1727 1.327 . S
C1729 C1745 1.429 . S
C1729 H1751 0.950 . S
C1730 H1726 0.949 . S
C1730 C1738 1.574 . S
C1730 C1746 1.368 . S
H1731 C1739 0.950 . S
H1732 C1737 0.950 . S
H1733 C1738 0.949 . S
H1734 C1740 0.950 . S
H1735 C1741 0.950 . S
H1736 C1742 0.949 . S
C1737 H1732 0.950 . S
C1737 C1739 1.327 . S
C1737 C1743 1.429 . S
C1738 C1730 1.574 . S
C1738 H1733 0.949 . S
C1738 C1744 1.368 . S
C1739 C1723 1.349 . S
C1739 H1731 0.950 . S
C1739 C1737 1.327 . S
C1740 C1728 1.349 . S
C1740 H1734 0.950 . S
C1740 C1741 1.327 . S
C1741 H1735 0.950 . S
C1741 C1740 1.327 . S
C1741 C1745 1.429 . S
C1742 C1725 1.574 . S
C1742 H1736 0.949 . S
C1742 C1746 1.368 . S
C1743 C1724 1.429 . S
C1743 C1737 1.429 . S
C1743 C1744 1.523 . S
C1744 C1725 1.368 . S
C1744 C1738 1.368 . S
C1744 C1743 1.523 . S
C1745 C1729 1.429 . S
C1745 C1741 1.429 . S
C1745 C1746 1.523 . S
C1746 C1730 1.368 . S
C1746 C1742 1.368 . S
C1746 C1745 1.523 . S
H1747 C1722 0.950 . S
H1748 C1724 0.950 . S
H1749 C1725 0.949 . S
H1750 C1727 0.950 . S
H1751 C1729 0.950 . S
C1752 C1753 1.349 . S
C1752 C1754 1.327 . S
C1752 H1777 0.950 . S
C1753 C1752 1.349 . S
C1753 C1769 1.349 . S
C1754 C1752 1.327 . S
C1754 C1773 1.429 . S
C1754 H1778 0.950 . S
C1755 C1772 1.574 . S
C1755 C1774 1.368 . S
C1755 H1779 0.949 . S
H1756 C1760 0.949 . S
C1757 C1758 1.349 . S
C1757 C1759 1.327 . S
C1757 H1780 0.950 . S
C1758 C1757 1.349 . S
C1758 C1770 1.349 . S
C1759 C1757 1.327 . S
C1759 C1775 1.429 . S
C1759 H1781 0.950 . S
C1760 H1756 0.949 . S
C1760 C1768 1.574 . S
C1760 C1776 1.368 . S
H1761 C1769 0.950 . S
H1762 C1767 0.950 . S
H1763 C1768 0.949 . S
H1764 C1770 0.950 . S
H1765 C1771 0.950 . S
H1766 C1772 0.949 . S
C1767 H1762 0.950 . S
C1767 C1769 1.327 . S
C1767 C1773 1.429 . S
C1768 C1760 1.574 . S
C1768 H1763 0.949 . S
C1768 C1774 1.368 . S
C1769 C1753 1.349 . S
C1769 H1761 0.950 . S
C1769 C1767 1.327 . S
C1770 C1758 1.349 . S
C1770 H1764 0.950 . S
C1770 C1771 1.327 . S
C1771 H1765 0.950 . S
C1771 C1770 1.327 . S
C1771 C1775 1.429 . S
C1772 C1755 1.574 . S
C1772 H1766 0.949 . S
C1772 C1776 1.368 . S
C1773 C1754 1.429 . S
C1773 C1767 1.429 . S
C1773 C1774 1.523 . S
C1774 C1755 1.368 . S
C1774 C1768 1.368 . S
C1774 C1773 1.523 . S
C1775 C1759 1.429 . S
C1775 C1771 1.429 . S
C1775 C1776 1.523 . S
C1776 C1760 1.368 . S
C1776 C1772 1.368 . S
C1776 C1775 1.523 . S
H1777 C1752 0.950 . S
H1778 C1754 0.950 . S
H1779 C1755 0.949 . S
H1780 C1757 0.950 . S
H1781 C1759 0.950 . S
C1782 C1783 1.349 . S
C1782 C1784 1.327 . S
C1782 H1807 0.950 . S
C1783 C1782 1.349 . S
C1783 C1799 1.349 . S
C1784 C1782 1.327 . S
C1784 C1803 1.429 . S
C1784 H1808 0.950 . S
C1785 C1802 1.574 . S
C1785 C1804 1.368 . S
C1785 H1809 0.949 . S
H1786 C1790 0.949 . S
C1787 C1788 1.349 . S
C1787 C1789 1.327 . S
C1787 H1810 0.950 . S
C1788 C1787 1.349 . S
C1788 C1800 1.349 . S
C1789 C1787 1.327 . S
C1789 C1805 1.429 . S
C1789 H1811 0.950 . S
C1790 H1786 0.949 . S
C1790 C1798 1.574 . S
C1790 C1806 1.368 . S
H1791 C1799 0.950 . S
H1792 C1797 0.950 . S
H1793 C1798 0.949 . S
H1794 C1800 0.950 . S
H1795 C1801 0.950 . S
H1796 C1802 0.949 . S
C1797 H1792 0.950 . S
C1797 C1799 1.327 . S
C1797 C1803 1.429 . S
C1798 C1790 1.574 . S
C1798 H1793 0.949 . S
C1798 C1804 1.368 . S
C1799 C1783 1.349 . S
C1799 H1791 0.950 . S
C1799 C1797 1.327 . S
C1800 C1788 1.349 . S
C1800 H1794 0.950 . S
C1800 C1801 1.327 . S
C1801 H1795 0.950 . S
C1801 C1800 1.327 . S
C1801 C1805 1.429 . S
C1802 C1785 1.574 . S
C1802 H1796 0.949 . S
C1802 C1806 1.368 . S
C1803 C1784 1.429 . S
C1803 C1797 1.429 . S
C1803 C1804 1.523 . S
C1804 C1785 1.368 . S
C1804 C1798 1.368 . S
C1804 C1803 1.523 . S
C1805 C1789 1.429 . S
C1805 C1801 1.429 . S
C1805 C1806 1.523 . S
C1806 C1790 1.368 . S
C1806 C1802 1.368 . S
C1806 C1805 1.523 . S
H1807 C1782 0.950 . S
H1808 C1784 0.950 . S
H1809 C1785 0.949 . S
H1810 C1787 0.950 . S
H1811 C1789 0.950 . S
C1812 C1813 1.349 1_565 S
C1812 C1814 1.327 . S
C1812 H1837 0.950 . S
C1813 C1812 1.349 1_545 S
C1813 C1829 1.349 . S
C1814 C1812 1.327 . S
C1814 C1833 1.429 1_565 S
C1814 H1838 0.950 . S
C1815 C1832 1.574 . S
C1815 C1834 1.368 . S
C1815 H1839 0.949 . S
H1816 C1820 0.938 1_565 S
C1817 C1818 1.349 . S
C1817 C1819 1.327 . S
C1817 H1840 0.950 . S
C1818 C1817 1.349 . S
C1818 C1830 1.349 . S
C1819 C1817 1.327 . S
C1819 C1835 1.429 . S
C1819 H1841 0.950 . S
C1820 H1816 0.938 1_545 S
C1820 C1828 1.572 1_545 S
C1820 C1836 1.382 . S
H1821 C1829 0.950 . S
H1822 C1827 0.950 . S
H1823 C1828 0.975 . S
H1824 C1830 0.950 1_565 S
H1825 C1831 0.950 1_565 S
H1826 C1832 0.949 . S
C1827 H1822 0.950 . S
C1827 C1829 1.327 . S
C1827 C1833 1.429 . S
C1828 C1820 1.572 1_565 S
C1828 H1823 0.975 . S
C1828 C1834 1.342 1_565 S
C1829 C1813 1.349 . S
C1829 H1821 0.950 . S
C1829 C1827 1.327 . S
C1830 C1818 1.349 . S
C1830 H1824 0.950 1_545 S
C1830 C1831 1.327 . S
C1831 H1825 0.950 1_545 S
C1831 C1830 1.327 . S
C1831 C1835 1.429 . S
C1832 C1815 1.574 . S
C1832 H1826 0.949 . S
C1832 C1836 1.368 . S
C1833 C1814 1.429 1_545 S
C1833 C1827 1.429 . S
C1833 C1834 1.523 . S
C1834 C1815 1.368 . S
C1834 C1828 1.342 1_545 S
C1834 C1833 1.523 . S
C1835 C1819 1.429 . S
C1835 C1831 1.429 . S
C1835 C1836 1.523 . S
C1836 C1820 1.382 . S
C1836 C1832 1.368 . S
C1836 C1835 1.523 . S
H1837 C1812 0.950 . S
H1838 C1814 0.950 . S
H1839 C1815 0.949 . S
H1840 C1817 0.950 . S
H1841 C1819 0.950 . S
C1842 C1843 1.349 . S
C1842 C1844 1.327 . S
C1842 H1867 0.950 . S
C1843 C1842 1.349 . S
C1843 C1859 1.349 . S
C1844 C1842 1.327 . S
C1844 C1863 1.429 . S
C1844 H1868 0.950 . S
C1845 C1862 1.574 . S
C1845 C1864 1.368 . S
C1845 H1869 0.949 . S
H1846 C1850 0.949 . S
C1847 C1848 1.349 . S
C1847 C1849 1.327 . S
C1847 H1870 0.950 . S
C1848 C1847 1.349 . S
C1848 C1860 1.349 . S
C1849 C1847 1.327 . S
C1849 C1865 1.429 . S
C1849 H1871 0.950 . S
C1850 H1846 0.949 . S
C1850 C1858 1.574 . S
C1850 C1866 1.368 . S
H1851 C1859 0.950 . S
H1852 C1857 0.950 . S
H1853 C1858 0.949 . S
H1854 C1860 0.950 . S
H1855 C1861 0.950 . S
H1856 C1862 0.949 . S
C1857 H1852 0.950 . S
C1857 C1859 1.327 . S
C1857 C1863 1.429 . S
C1858 C1850 1.574 . S
C1858 H1853 0.949 . S
C1858 C1864 1.368 . S
C1859 C1843 1.349 . S
C1859 H1851 0.950 . S
C1859 C1857 1.327 . S
C1860 C1848 1.349 . S
C1860 H1854 0.950 . S
C1860 C1861 1.327 . S
C1861 H1855 0.950 . S
C1861 C1860 1.327 . S
C1861 C1865 1.429 . S
C1862 C1845 1.574 . S
C1862 H1856 0.949 . S
C1862 C1866 1.368 . S
C1863 C1844 1.429 . S
C1863 C1857 1.429 . S
C1863 C1864 1.523 . S
C1864 C1845 1.368 . S
C1864 C1858 1.368 . S
C1864 C1863 1.523 . S
C1865 C1849 1.429 . S
C1865 C1861 1.429 . S
C1865 C1866 1.523 . S
C1866 C1850 1.368 . S
C1866 C1862 1.368 . S
C1866 C1865 1.523 . S
H1867 C1842 0.950 . S
H1868 C1844 0.950 . S
H1869 C1845 0.949 . S
H1870 C1847 0.950 . S
H1871 C1849 0.950 . S
C1872 C1873 1.349 . S
C1872 C1874 1.327 . S
C1872 H1897 0.950 . S
C1873 C1872 1.349 . S
C1873 C1889 1.349 . S
C1874 C1872 1.327 . S
C1874 C1893 1.429 . S
C1874 H1898 0.950 . S
C1875 C1892 1.574 . S
C1875 C1894 1.368 . S
C1875 H1899 0.949 . S
H1876 C1880 0.949 . S
C1877 C1878 1.355 . S
C1877 C1879 1.333 . S
C1877 H1900 0.938 1_655 S
C1878 C1877 1.355 . S
C1878 C1890 1.349 . S
C1879 C1877 1.333 . S
C1879 C1895 1.429 . S
C1879 H1901 0.950 . S
C1880 H1876 0.949 . S
C1880 C1888 1.574 . S
C1880 C1896 1.368 . S
H1881 C1889 0.950 . S
H1882 C1887 0.950 . S
H1883 C1888 0.949 . S
H1884 C1890 0.950 . S
H1885 C1891 0.950 . S
H1886 C1892 0.949 . S
C1887 H1882 0.950 . S
C1887 C1889 1.327 . S
C1887 C1893 1.429 . S
C1888 C1880 1.574 . S
C1888 H1883 0.949 . S
C1888 C1894 1.368 . S
C1889 C1873 1.349 . S
C1889 H1881 0.950 . S
C1889 C1887 1.327 . S
C1890 C1878 1.349 . S
C1890 H1884 0.950 . S
C1890 C1891 1.327 . S
C1891 H1885 0.950 . S
C1891 C1890 1.327 . S
C1891 C1895 1.429 . S
C1892 C1875 1.574 . S
C1892 H1886 0.949 . S
C1892 C1896 1.368 . S
C1893 C1874 1.429 . S
C1893 C1887 1.429 . S
C1893 C1894 1.523 . S
C1894 C1875 1.368 . S
C1894 C1888 1.368 . S
C1894 C1893 1.523 . S
C1895 C1879 1.429 . S
C1895 C1891 1.429 . S
C1895 C1896 1.523 . S
C1896 C1880 1.368 . S
C1896 C1892 1.368 . S
C1896 C1895 1.523 . S
H1897 C1872 0.950 . S
H1898 C1874 0.950 . S
H1899 C1875 0.949 . S
H1900 C1877 0.938 1_455 S
H1901 C1879 0.950 . S
C1902 C1903 1.349 . S
C1902 C1904 1.327 . S
C1902 H1927 0.950 . S
C1903 C1902 1.349 . S
C1903 C1919 1.349 . S
C1904 C1902 1.327 . S
C1904 C1923 1.429 . S
C1904 H1928 0.950 . S
C1905 C1922 1.574 . S
C1905 C1924 1.368 . S
C1905 H1929 0.949 . S
H1906 C1910 0.949 . S
C1907 C1908 1.349 . S
C1907 C1909 1.327 . S
C1907 H1930 0.950 . S
C1908 C1907 1.349 . S
C1908 C1920 1.349 . S
C1909 C1907 1.327 . S
C1909 C1925 1.429 . S
C1909 H1931 0.950 . S
C1910 H1906 0.949 . S
C1910 C1918 1.574 . S
C1910 C1926 1.368 . S
H1911 C1919 0.950 . S
H1912 C1917 0.950 . S
H1913 C1918 0.949 . S
H1914 C1920 0.950 . S
H1915 C1921 0.950 . S
H1916 C1922 0.949 . S
C1917 H1912 0.950 . S
C1917 C1919 1.327 . S
C1917 C1923 1.429 . S
C1918 C1910 1.574 . S
C1918 H1913 0.949 . S
C1918 C1924 1.368 . S
C1919 C1903 1.349 . S
C1919 H1911 0.950 . S
C1919 C1917 1.327 . S
C1920 C1908 1.349 . S
C1920 H1914 0.950 . S
C1920 C1921 1.327 . S
C1921 H1915 0.950 . S
C1921 C1920 1.327 . S
C1921 C1925 1.429 . S
C1922 C1905 1.574 . S
C1922 H1916 0.949 . S
C1922 C1926 1.368 . S
C1923 C1904 1.429 . S
C1923 C1917 1.429 . S
C1923 C1924 1.523 . S
C1924 C1905 1.368 . S
C1924 C1918 1.368 . S
C1924 C1923 1.523 . S
C1925 C1909 1.429 . S
C1925 C1921 1.429 . S
C1925 C1926 1.523 . S
C1926 C1910 1.368 . S
C1926 C1922 1.368 . S
C1926 C1925 1.523 . S
H1927 C1902 0.950 . S
H1928 C1904 0.950 . S
H1929 C1905 0.949 . S
H1930 C1907 0.950 . S
H1931 C1909 0.950 . S
C1932 C1933 1.349 1_565 S
C1932 C1934 1.327 . S
C1932 H1957 0.950 . S
C1933 C1932 1.349 1_545 S
C1933 C1949 1.349 . S
C1934 C1932 1.327 . S
C1934 C1953 1.429 1_565 S
C1934 H1958 0.950 . S
C1935 C1952 1.574 . S
C1935 C1954 1.368 . S
C1935 H1959 0.949 . S
H1936 C1940 0.949 1_565 S
C1937 C1938 1.349 . S
C1937 C1939 1.327 . S
C1937 H1960 0.950 . S
C1938 C1937 1.349 . S
C1938 C1950 1.349 . S
C1939 C1937 1.327 . S
C1939 C1955 1.429 . S
C1939 H1961 0.950 . S
C1940 H1936 0.949 1_545 S
C1940 C1948 1.574 1_545 S
C1940 C1956 1.368 . S
H1941 C1949 0.950 . S
H1942 C1947 0.950 . S
H1943 C1948 0.949 . S
H1944 C1950 0.950 . S
H1945 C1951 0.926 1_565 S
H1946 C1952 0.949 . S
C1947 H1942 0.950 . S
C1947 C1949 1.327 . S
C1947 C1953 1.429 . S
C1948 C1940 1.574 1_565 S
C1948 H1943 0.949 . S
C1948 C1954 1.368 1_565 S
C1949 C1933 1.349 . S
C1949 H1941 0.950 . S
C1949 C1947 1.327 . S
C1950 C1938 1.349 . S
C1950 H1944 0.950 . S
C1950 C1951 1.327 . S
C1951 H1945 0.926 1_545 S
C1951 C1950 1.327 . S
C1951 C1955 1.429 . S
C1952 C1935 1.574 . S
C1952 H1946 0.949 . S
C1952 C1956 1.368 . S
C1953 C1934 1.429 1_545 S
C1953 C1947 1.429 . S
C1953 C1954 1.523 . S
C1954 C1935 1.368 . S
C1954 C1948 1.368 1_545 S
C1954 C1953 1.523 . S
C1955 C1939 1.429 . S
C1955 C1951 1.429 . S
C1955 C1956 1.523 . S
C1956 C1940 1.368 . S
C1956 C1952 1.368 . S
C1956 C1955 1.523 . S
H1957 C1932 0.950 . S
H1958 C1934 0.950 . S
H1959 C1935 0.949 . S
H1960 C1937 0.950 . S
H1961 C1939 0.950 . S
C1962 C1963 1.349 . S
C1962 C1964 1.327 . S
C1962 H1987 0.950 . S
C1963 C1962 1.349 . S
C1963 C1979 1.349 . S
C1964 C1962 1.327 . S
C1964 C1983 1.429 . S
C1964 H1988 0.950 . S
C1965 C1982 1.574 . S
C1965 C1984 1.368 . S
C1965 H1989 0.949 . S
H1966 C1970 0.949 . S
C1967 C1968 1.349 . S
C1967 C1969 1.327 . S
C1967 H1990 0.950 . S
C1968 C1967 1.349 . S
C1968 C1980 1.349 . S
C1969 C1967 1.327 . S
C1969 C1985 1.429 . S
C1969 H1991 0.950 . S
C1970 H1966 0.949 . S
C1970 C1978 1.574 . S
C1970 C1986 1.368 . S
H1971 C1979 0.950 . S
H1972 C1977 0.950 . S
H1973 C1978 0.949 . S
H1974 C1980 0.950 . S
H1975 C1981 0.950 . S
H1976 C1982 0.949 . S
C1977 H1972 0.950 . S
C1977 C1979 1.327 . S
C1977 C1983 1.429 . S
C1978 C1970 1.574 . S
C1978 H1973 0.949 . S
C1978 C1984 1.368 . S
C1979 C1963 1.349 . S
C1979 H1971 0.950 . S
C1979 C1977 1.327 . S
C1980 C1968 1.349 . S
C1980 H1974 0.950 . S
C1980 C1981 1.327 . S
C1981 H1975 0.950 . S
C1981 C1980 1.327 . S
C1981 C1985 1.429 . S
C1982 C1965 1.574 . S
C1982 H1976 0.949 . S
C1982 C1986 1.368 . S
C1983 C1964 1.429 . S
C1983 C1977 1.429 . S
C1983 C1984 1.523 . S
C1984 C1965 1.368 . S
C1984 C1978 1.368 . S
C1984 C1983 1.523 . S
C1985 C1969 1.429 . S
C1985 C1981 1.429 . S
C1985 C1986 1.523 . S
C1986 C1970 1.368 . S
C1986 C1982 1.368 . S
C1986 C1985 1.523 . S
H1987 C1962 0.950 . S
H1988 C1964 0.950 . S
H1989 C1965 0.949 . S
H1990 C1967 0.950 . S
H1991 C1969 0.950 . S
C1992 C1993 1.307 1_556 S
C1992 C1994 1.324 1_556 S
C1992 H2017 0.999 . S
C1993 C1992 1.307 1_554 S
C1993 C2009 1.349 . S
C1994 C1992 1.324 1_554 S
C1994 C2013 1.425 . S
C1994 H2018 0.953 1_554 S
C1995 C2012 1.574 . S
C1995 C2014 1.368 . S
C1995 H2019 0.949 . S
H1996 C2000 0.949 1_556 S
C1997 C1998 1.342 1_565 S
C1997 C1999 1.327 . S
C1997 H2020 0.950 . S
C1998 C1997 1.342 1_545 S
C1998 C2010 1.351 . S
C1999 C1997 1.327 . S
C1999 C2015 1.429 . S
C1999 H2021 0.950 . S
C2000 H1996 0.949 1_554 S
C2000 C2008 1.574 . S
C2000 C2016 1.368 . S
H2001 C2009 0.950 . S
H2002 C2007 0.950 . S
H2003 C2008 0.949 1_556 S
H2004 C2010 0.953 1_556 S
H2005 C2011 0.950 1_556 S
H2006 C2012 0.949 . S
C2007 H2002 0.950 . S
C2007 C2009 1.327 . S
C2007 C2013 1.429 . S
C2008 C2000 1.574 . S
C2008 H2003 0.949 1_554 S
C2008 C2014 1.368 . S
C2009 C1993 1.349 . S
C2009 H2001 0.950 . S
C2009 C2007 1.327 . S
C2010 C1998 1.351 . S
C2010 H2004 0.953 1_554 S
C2010 C2011 1.327 1_545 S
C2011 H2005 0.950 1_554 S
C2011 C2010 1.327 1_565 S
C2011 C2015 1.429 . S
C2012 C1995 1.574 . S
C2012 H2006 0.949 . S
C2012 C2016 1.368 . S
C2013 C1994 1.425 . S
C2013 C2007 1.429 . S
C2013 C2014 1.523 . S
C2014 C1995 1.368 . S
C2014 C2008 1.368 . S
C2014 C2013 1.523 . S
C2015 C1999 1.429 . S
C2015 C2011 1.429 . S
C2015 C2016 1.523 . S
C2016 C2000 1.368 . S
C2016 C2012 1.368 . S
C2016 C2015 1.523 . S
H2017 C1992 0.999 . S
H2018 C1994 0.953 1_556 S
H2019 C1995 0.949 . S
H2020 C1997 0.950 . S
H2021 C1999 0.950 . S
C2022 C2023 1.349 1_556 S
C2022 C2024 1.327 . S
C2022 H2047 0.950 . S
C2023 C2022 1.349 1_554 S
C2023 C2039 1.349 . S
C2024 C2022 1.327 . S
C2024 C2043 1.429 1_556 S
C2024 H2048 0.950 . S
C2025 C2042 1.574 . S
C2025 C2044 1.368 . S
C2025 H2049 0.949 . S
H2026 C2030 0.949 . S
C2027 C2028 1.349 . S
C2027 C2029 1.327 . S
C2027 H2050 0.950 . S
C2028 C2027 1.349 . S
C2028 C2040 1.349 1_554 S
C2029 C2027 1.327 . S
C2029 C2045 1.429 . S
C2029 H2051 0.950 . S
C2030 H2026 0.949 . S
C2030 C2038 1.574 . S
C2030 C2046 1.368 1_556 S
H2031 C2039 0.950 . S
H2032 C2037 0.950 . S
H2033 C2038 0.949 . S
H2034 C2040 0.950 . S
H2035 C2041 0.950 . S
H2036 C2042 0.949 . S
C2037 H2032 0.950 . S
C2037 C2039 1.327 . S
C2037 C2043 1.429 . S
C2038 C2030 1.574 . S
C2038 H2033 0.949 . S
C2038 C2044 1.368 1_556 S
C2039 C2023 1.349 . S
C2039 H2031 0.950 . S
C2039 C2037 1.327 . S
C2040 C2028 1.349 1_556 S
C2040 H2034 0.950 . S
C2040 C2041 1.327 . S
C2041 H2035 0.950 . S
C2041 C2040 1.327 . S
C2041 C2045 1.429 1_556 S
C2042 C2025 1.574 . S
C2042 H2036 0.949 . S
C2042 C2046 1.368 . S
C2043 C2024 1.429 1_554 S
C2043 C2037 1.429 . S
C2043 C2044 1.523 . S
C2044 C2025 1.368 . S
C2044 C2038 1.368 1_554 S
C2044 C2043 1.523 . S
C2045 C2029 1.429 . S
C2045 C2041 1.429 1_554 S
C2045 C2046 1.523 . S
C2046 C2030 1.368 1_554 S
C2046 C2042 1.368 . S
C2046 C2045 1.523 . S
H2047 C2022 0.950 . S
H2048 C2024 0.950 . S
H2049 C2025 0.949 . S
H2050 C2027 0.950 . S
H2051 C2029 0.950 . S
C2052 C2053 1.349 . S
C2052 C2054 1.327 . S
C2052 H2077 0.950 . S
C2053 C2052 1.349 . S
C2053 C2069 1.349 . S
C2054 C2052 1.327 . S
C2054 C2073 1.429 . S
C2054 H2078 0.950 . S
C2055 C2072 1.574 . S
C2055 C2074 1.368 . S
C2055 H2079 0.949 . S
H2056 C2060 0.949 . S
C2057 C2058 1.349 . S
C2057 C2059 1.327 . S
C2057 H2080 0.950 . S
C2058 C2057 1.349 . S
C2058 C2070 1.349 . S
C2059 C2057 1.327 . S
C2059 C2075 1.429 . S
C2059 H2081 0.950 . S
C2060 H2056 0.949 . S
C2060 C2068 1.574 . S
C2060 C2076 1.368 . S
H2061 C2069 0.950 . S
H2062 C2067 0.950 . S
H2063 C2068 0.949 . S
H2064 C2070 0.950 . S
H2065 C2071 0.950 . S
H2066 C2072 0.949 . S
C2067 H2062 0.950 . S
C2067 C2069 1.327 . S
C2067 C2073 1.429 . S
C2068 C2060 1.574 . S
C2068 H2063 0.949 . S
C2068 C2074 1.368 . S
C2069 C2053 1.349 . S
C2069 H2061 0.950 . S
C2069 C2067 1.327 . S
C2070 C2058 1.349 . S
C2070 H2064 0.950 . S
C2070 C2071 1.327 . S
C2071 H2065 0.950 . S
C2071 C2070 1.327 . S
C2071 C2075 1.429 . S
C2072 C2055 1.574 . S
C2072 H2066 0.949 . S
C2072 C2076 1.368 . S
C2073 C2054 1.429 . S
C2073 C2067 1.429 . S
C2073 C2074 1.523 . S
C2074 C2055 1.368 . S
C2074 C2068 1.368 . S
C2074 C2073 1.523 . S
C2075 C2059 1.429 . S
C2075 C2071 1.429 . S
C2075 C2076 1.523 . S
C2076 C2060 1.368 . S
C2076 C2072 1.368 . S
C2076 C2075 1.523 . S
H2077 C2052 0.950 . S
H2078 C2054 0.950 . S
H2079 C2055 0.949 . S
H2080 C2057 0.950 . S
H2081 C2059 0.950 . S
C2082 C2083 1.349 . S
C2082 C2084 1.327 . S
C2082 H2107 0.950 . S
C2083 C2082 1.349 . S
C2083 C2099 1.349 . S
C2084 C2082 1.327 . S
C2084 C2103 1.429 . S
C2084 H2108 0.950 . S
C2085 C2102 1.574 . S
C2085 C2104 1.368 . S
C2085 H2109 0.949 . S
H2086 C2090 0.949 . S
C2087 C2088 1.349 . S
C2087 C2089 1.327 . S
C2087 H2110 0.950 . S
C2088 C2087 1.349 . S
C2088 C2100 1.349 . S
C2089 C2087 1.327 . S
C2089 C2105 1.429 . S
C2089 H2111 0.950 . S
C2090 H2086 0.949 . S
C2090 C2098 1.574 . S
C2090 C2106 1.368 . S
H2091 C2099 0.950 . S
H2092 C2097 0.950 . S
H2093 C2098 0.949 . S
H2094 C2100 0.950 . S
H2095 C2101 0.950 . S
H2096 C2102 0.949 . S
C2097 H2092 0.950 . S
C2097 C2099 1.327 . S
C2097 C2103 1.429 . S
C2098 C2090 1.574 . S
C2098 H2093 0.949 . S
C2098 C2104 1.368 . S
C2099 C2083 1.349 . S
C2099 H2091 0.950 . S
C2099 C2097 1.327 . S
C2100 C2088 1.349 . S
C2100 H2094 0.950 . S
C2100 C2101 1.327 . S
C2101 H2095 0.950 . S
C2101 C2100 1.327 . S
C2101 C2105 1.429 . S
C2102 C2085 1.574 . S
C2102 H2096 0.949 . S
C2102 C2106 1.368 . S
C2103 C2084 1.429 . S
C2103 C2097 1.429 . S
C2103 C2104 1.523 . S
C2104 C2085 1.368 . S
C2104 C2098 1.368 . S
C2104 C2103 1.523 . S
C2105 C2089 1.429 . S
C2105 C2101 1.429 . S
C2105 C2106 1.523 . S
C2106 C2090 1.368 . S
C2106 C2102 1.368 . S
C2106 C2105 1.523 . S
H2107 C2082 0.950 . S
H2108 C2084 0.950 . S
H2109 C2085 0.949 . S
H2110 C2087 0.950 . S
H2111 C2089 0.950 . S
C2112 C2113 1.335 1_565 S
C2112 C2114 1.327 . S
C2112 H2137 0.950 . S
C2113 C2112 1.335 1_545 S
C2113 C2129 1.344 1_545 S
C2114 C2112 1.327 . S
C2114 C2133 1.429 . S
C2114 H2138 0.950 . S
C2115 C2132 1.574 . S
C2115 C2134 1.368 . S
C2115 H2139 0.949 . S
H2116 C2120 0.949 . S
C2117 C2118 1.349 . S
C2117 C2119 1.327 . S
C2117 H2140 0.950 . S
C2118 C2117 1.349 . S
C2118 C2130 1.349 . S
C2119 C2117 1.327 . S
C2119 C2135 1.429 . S
C2119 H2141 0.950 . S
C2120 H2116 0.949 . S
C2120 C2128 1.574 . S
C2120 C2136 1.368 . S
H2121 C2129 0.950 1_545 S
H2122 C2127 0.950 . S
H2123 C2128 0.949 . S
H2124 C2130 0.950 . S
H2125 C2131 0.950 . S
H2126 C2132 0.949 . S
C2127 H2122 0.950 . S
C2127 C2129 1.327 . S
C2127 C2133 1.429 . S
C2128 C2120 1.574 . S
C2128 H2123 0.949 . S
C2128 C2134 1.368 . S
C2129 C2113 1.344 1_565 S
C2129 H2121 0.950 1_565 S
C2129 C2127 1.327 . S
C2130 C2118 1.349 . S
C2130 H2124 0.950 . S
C2130 C2131 1.327 . S
C2131 H2125 0.950 . S
C2131 C2130 1.327 . S
C2131 C2135 1.429 . S
C2132 C2115 1.574 . S
C2132 H2126 0.949 . S
C2132 C2136 1.368 . S
C2133 C2114 1.429 . S
C2133 C2127 1.429 . S
C2133 C2134 1.523 . S
C2134 C2115 1.368 . S
C2134 C2128 1.368 . S
C2134 C2133 1.523 . S
C2135 C2119 1.429 . S
C2135 C2131 1.429 . S
C2135 C2136 1.523 . S
C2136 C2120 1.368 . S
C2136 C2132 1.368 . S
C2136 C2135 1.523 . S
H2137 C2112 0.950 . S
H2138 C2114 0.950 . S
H2139 C2115 0.949 . S
H2140 C2117 0.950 . S
H2141 C2119 0.950 . S
C2142 C2143 1.349 . S
C2142 C2144 1.327 . S
C2142 H2167 0.950 . S
C2143 C2142 1.349 . S
C2143 C2159 1.349 . S
C2144 C2142 1.327 . S
C2144 C2163 1.429 . S
C2144 H2168 0.950 . S
C2145 C2162 1.574 . S
C2145 C2164 1.368 . S
C2145 H2169 0.949 . S
H2146 C2150 0.949 . S
C2147 C2148 1.349 . S
C2147 C2149 1.327 . S
C2147 H2170 0.950 . S
C2148 C2147 1.349 . S
C2148 C2160 1.349 . S
C2149 C2147 1.327 . S
C2149 C2165 1.429 . S
C2149 H2171 0.950 . S
C2150 H2146 0.949 . S
C2150 C2158 1.574 . S
C2150 C2166 1.368 . S
H2151 C2159 0.950 . S
H2152 C2157 0.950 . S
H2153 C2158 0.949 . S
H2154 C2160 0.950 . S
H2155 C2161 0.950 . S
H2156 C2162 0.949 . S
C2157 H2152 0.950 . S
C2157 C2159 1.327 . S
C2157 C2163 1.429 . S
C2158 C2150 1.574 . S
C2158 H2153 0.949 . S
C2158 C2164 1.368 . S
C2159 C2143 1.349 . S
C2159 H2151 0.950 . S
C2159 C2157 1.327 . S
C2160 C2148 1.349 . S
C2160 H2154 0.950 . S
C2160 C2161 1.327 . S
C2161 H2155 0.950 . S
C2161 C2160 1.327 . S
C2161 C2165 1.429 . S
C2162 C2145 1.574 . S
C2162 H2156 0.949 . S
C2162 C2166 1.368 . S
C2163 C2144 1.429 . S
C2163 C2157 1.429 . S
C2163 C2164 1.523 . S
C2164 C2145 1.368 . S
C2164 C2158 1.368 . S
C2164 C2163 1.523 . S
C2165 C2149 1.429 . S
C2165 C2161 1.429 . S
C2165 C2166 1.523 . S
C2166 C2150 1.368 . S
C2166 C2162 1.368 . S
C2166 C2165 1.523 . S
H2167 C2142 0.950 . S
H2168 C2144 0.950 . S
H2169 C2145 0.949 . S
H2170 C2147 0.950 . S
H2171 C2149 0.950 . S
C2172 C2173 1.349 . S
C2172 C2174 1.327 . S
C2172 H2197 0.950 . S
C2173 C2172 1.349 . S
C2173 C2189 1.349 . S
C2174 C2172 1.327 . S
C2174 C2193 1.429 . S
C2174 H2198 0.950 . S
C2175 C2192 1.574 . S
C2175 C2194 1.368 . S
C2175 H2199 0.949 . S
H2176 C2180 0.949 . S
C2177 C2178 1.349 . S
C2177 C2179 1.327 . S
C2177 H2200 0.950 . S
C2178 C2177 1.349 . S
C2178 C2190 1.349 . S
C2179 C2177 1.327 . S
C2179 C2195 1.429 . S
C2179 H2201 0.950 . S
C2180 H2176 0.949 . S
C2180 C2188 1.574 . S
C2180 C2196 1.368 . S
H2181 C2189 0.950 . S
H2182 C2187 0.950 . S
H2183 C2188 0.949 . S
H2184 C2190 0.950 . S
H2185 C2191 0.950 . S
H2186 C2192 0.949 . S
C2187 H2182 0.950 . S
C2187 C2189 1.327 . S
C2187 C2193 1.429 . S
C2188 C2180 1.574 . S
C2188 H2183 0.949 . S
C2188 C2194 1.368 . S
C2189 C2173 1.349 . S
C2189 H2181 0.950 . S
C2189 C2187 1.327 . S
C2190 C2178 1.349 . S
C2190 H2184 0.950 . S
C2190 C2191 1.327 . S
C2191 H2185 0.950 . S
C2191 C2190 1.327 . S
C2191 C2195 1.429 . S
C2192 C2175 1.574 . S
C2192 H2186 0.949 . S
C2192 C2196 1.368 . S
C2193 C2174 1.429 . S
C2193 C2187 1.429 . S
C2193 C2194 1.523 . S
C2194 C2175 1.368 . S
C2194 C2188 1.368 . S
C2194 C2193 1.523 . S
C2195 C2179 1.429 . S
C2195 C2191 1.429 . S
C2195 C2196 1.523 . S
C2196 C2180 1.368 . S
C2196 C2192 1.368 . S
C2196 C2195 1.523 . S
H2197 C2172 0.950 . S
H2198 C2174 0.950 . S
H2199 C2175 0.949 . S
H2200 C2177 0.950 . S
H2201 C2179 0.950 . S
C2202 C2203 1.349 . S
C2202 C2204 1.327 . S
C2202 H2227 0.950 . S
C2203 C2202 1.349 . S
C2203 C2219 1.349 . S
C2204 C2202 1.327 . S
C2204 C2223 1.429 . S
C2204 H2228 0.950 . S
C2205 C2222 1.574 . S
C2205 C2224 1.368 . S
C2205 H2229 0.949 . S
H2206 C2210 0.949 . S
C2207 C2208 1.349 . S
C2207 C2209 1.327 . S
C2207 H2230 0.950 . S
C2208 C2207 1.349 . S
C2208 C2220 1.349 . S
C2209 C2207 1.327 . S
C2209 C2225 1.429 . S
C2209 H2231 0.950 . S
C2210 H2206 0.949 . S
C2210 C2218 1.574 . S
C2210 C2226 1.368 . S
H2211 C2219 0.950 . S
H2212 C2217 0.950 . S
H2213 C2218 0.949 . S
H2214 C2220 0.950 . S
H2215 C2221 0.950 . S
H2216 C2222 0.949 . S
C2217 H2212 0.950 . S
C2217 C2219 1.327 . S
C2217 C2223 1.429 . S
C2218 C2210 1.574 . S
C2218 H2213 0.949 . S
C2218 C2224 1.368 . S
C2219 C2203 1.349 . S
C2219 H2211 0.950 . S
C2219 C2217 1.327 . S
C2220 C2208 1.349 . S
C2220 H2214 0.950 . S
C2220 C2221 1.327 . S
C2221 H2215 0.950 . S
C2221 C2220 1.327 . S
C2221 C2225 1.429 . S
C2222 C2205 1.574 . S
C2222 H2216 0.949 . S
C2222 C2226 1.368 . S
C2223 C2204 1.429 . S
C2223 C2217 1.429 . S
C2223 C2224 1.523 . S
C2224 C2205 1.368 . S
C2224 C2218 1.368 . S
C2224 C2223 1.523 . S
C2225 C2209 1.429 . S
C2225 C2221 1.429 . S
C2225 C2226 1.523 . S
C2226 C2210 1.368 . S
C2226 C2222 1.368 . S
C2226 C2225 1.523 . S
H2227 C2202 0.950 . S
H2228 C2204 0.950 . S
H2229 C2205 0.949 . S
H2230 C2207 0.950 . S
H2231 C2209 0.950 . S
C2232 C2233 1.349 . S
C2232 C2234 1.327 . S
C2232 H2257 0.950 . S
C2233 C2232 1.349 . S
C2233 C2249 1.349 . S
C2234 C2232 1.327 . S
C2234 C2253 1.429 . S
C2234 H2258 0.950 . S
C2235 C2252 1.574 . S
C2235 C2254 1.368 . S
C2235 H2259 0.949 . S
H2236 C2240 0.949 . S
C2237 C2238 1.349 . S
C2237 C2239 1.327 . S
C2237 H2260 0.950 . S
C2238 C2237 1.349 . S
C2238 C2250 1.349 . S
C2239 C2237 1.327 . S
C2239 C2255 1.429 . S
C2239 H2261 0.950 . S
C2240 H2236 0.949 . S
C2240 C2248 1.574 . S
C2240 C2256 1.368 . S
H2241 C2249 0.950 . S
H2242 C2247 0.950 . S
H2243 C2248 0.949 . S
H2244 C2250 0.950 . S
H2245 C2251 0.950 . S
H2246 C2252 0.949 . S
C2247 H2242 0.950 . S
C2247 C2249 1.327 . S
C2247 C2253 1.429 . S
C2248 C2240 1.574 . S
C2248 H2243 0.949 . S
C2248 C2254 1.368 . S
C2249 C2233 1.349 . S
C2249 H2241 0.950 . S
C2249 C2247 1.327 . S
C2250 C2238 1.349 . S
C2250 H2244 0.950 . S
C2250 C2251 1.327 . S
C2251 H2245 0.950 . S
C2251 C2250 1.327 . S
C2251 C2255 1.429 . S
C2252 C2235 1.574 . S
C2252 H2246 0.949 . S
C2252 C2256 1.368 . S
C2253 C2234 1.429 . S
C2253 C2247 1.429 . S
C2253 C2254 1.523 . S
C2254 C2235 1.368 . S
C2254 C2248 1.368 . S
C2254 C2253 1.523 . S
C2255 C2239 1.429 . S
C2255 C2251 1.429 . S
C2255 C2256 1.523 . S
C2256 C2240 1.368 . S
C2256 C2252 1.368 . S
C2256 C2255 1.523 . S
H2257 C2232 0.950 . S
H2258 C2234 0.950 . S
H2259 C2235 0.949 . S
H2260 C2237 0.950 . S
H2261 C2239 0.950 . S
C2262 C2263 1.349 . S
C2262 C2264 1.327 . S
C2262 H2287 0.950 . S
C2263 C2262 1.349 . S
C2263 C2279 1.349 . S
C2264 C2262 1.327 . S
C2264 C2283 1.429 . S
C2264 H2288 0.950 . S
C2265 C2282 1.574 . S
C2265 C2284 1.368 . S
C2265 H2289 0.949 . S
H2266 C2270 0.949 . S
C2267 C2268 1.349 . S
C2267 C2269 1.327 . S
C2267 H2290 0.950 . S
C2268 C2267 1.349 . S
C2268 C2280 1.349 . S
C2269 C2267 1.327 . S
C2269 C2285 1.429 . S
C2269 H2291 0.950 . S
C2270 H2266 0.949 . S
C2270 C2278 1.574 . S
C2270 C2286 1.368 . S
H2271 C2279 0.950 . S
H2272 C2277 0.950 . S
H2273 C2278 0.949 . S
H2274 C2280 0.950 . S
H2275 C2281 0.950 . S
H2276 C2282 0.949 . S
C2277 H2272 0.950 . S
C2277 C2279 1.327 . S
C2277 C2283 1.429 . S
C2278 C2270 1.574 . S
C2278 H2273 0.949 . S
C2278 C2284 1.368 . S
C2279 C2263 1.349 . S
C2279 H2271 0.950 . S
C2279 C2277 1.327 . S
C2280 C2268 1.349 . S
C2280 H2274 0.950 . S
C2280 C2281 1.327 . S
C2281 H2275 0.950 . S
C2281 C2280 1.327 . S
C2281 C2285 1.429 . S
C2282 C2265 1.574 . S
C2282 H2276 0.949 . S
C2282 C2286 1.368 . S
C2283 C2264 1.429 . S
C2283 C2277 1.429 . S
C2283 C2284 1.523 . S
C2284 C2265 1.368 . S
C2284 C2278 1.368 . S
C2284 C2283 1.523 . S
C2285 C2269 1.429 . S
C2285 C2281 1.429 . S
C2285 C2286 1.523 . S
C2286 C2270 1.368 . S
C2286 C2282 1.368 . S
C2286 C2285 1.523 . S
H2287 C2262 0.950 . S
H2288 C2264 0.950 . S
H2289 C2265 0.949 . S
H2290 C2267 0.950 . S
H2291 C2269 0.950 . S
C2292 C2293 1.349 . S
C2292 C2294 1.327 . S
C2292 H2317 0.950 . S
C2293 C2292 1.349 . S
C2293 C2309 1.349 . S
C2294 C2292 1.327 . S
C2294 C2313 1.429 . S
C2294 H2318 0.950 . S
C2295 C2312 1.574 . S
C2295 C2314 1.368 . S
C2295 H2319 0.949 . S
H2296 C2300 0.949 . S
C2297 C2298 1.349 . S
C2297 C2299 1.327 . S
C2297 H2320 0.950 . S
C2298 C2297 1.349 . S
C2298 C2310 1.349 . S
C2299 C2297 1.327 . S
C2299 C2315 1.429 . S
C2299 H2321 0.950 . S
C2300 H2296 0.949 . S
C2300 C2308 1.574 . S
C2300 C2316 1.368 . S
H2301 C2309 0.950 . S
H2302 C2307 0.950 . S
H2303 C2308 0.949 . S
H2304 C2310 0.950 . S
H2305 C2311 0.950 . S
H2306 C2312 0.949 . S
C2307 H2302 0.950 . S
C2307 C2309 1.327 . S
C2307 C2313 1.429 . S
C2308 C2300 1.574 . S
C2308 H2303 0.949 . S
C2308 C2314 1.368 . S
C2309 C2293 1.349 . S
C2309 H2301 0.950 . S
C2309 C2307 1.327 . S
C2310 C2298 1.349 . S
C2310 H2304 0.950 . S
C2310 C2311 1.327 . S
C2311 H2305 0.950 . S
C2311 C2310 1.327 . S
C2311 C2315 1.429 . S
C2312 C2295 1.574 . S
C2312 H2306 0.949 . S
C2312 C2316 1.368 . S
C2313 C2294 1.429 . S
C2313 C2307 1.429 . S
C2313 C2314 1.523 . S
C2314 C2295 1.368 . S
C2314 C2308 1.368 . S
C2314 C2313 1.523 . S
C2315 C2299 1.429 . S
C2315 C2311 1.429 . S
C2315 C2316 1.523 . S
C2316 C2300 1.368 . S
C2316 C2312 1.368 . S
C2316 C2315 1.523 . S
H2317 C2292 0.950 . S
H2318 C2294 0.950 . S
H2319 C2295 0.949 . S
H2320 C2297 0.950 . S
H2321 C2299 0.950 . S
C2322 C2323 1.349 . S
C2322 C2324 1.327 . S
C2322 H2347 0.950 1_655 S
C2323 C2322 1.349 . S
C2323 C2339 1.349 . S
C2324 C2322 1.327 . S
C2324 C2343 1.429 . S
C2324 H2348 0.950 . S
C2325 C2342 1.574 . S
C2325 C2344 1.368 . S
C2325 H2349 0.949 . S
H2326 C2330 0.949 . S
C2327 C2328 1.349 . S
C2327 C2329 1.327 . S
C2327 H2350 0.950 . S
C2328 C2327 1.349 . S
C2328 C2340 1.349 . S
C2329 C2327 1.327 . S
C2329 C2345 1.429 . S
C2329 H2351 0.950 . S
C2330 H2326 0.949 . S
C2330 C2338 1.574 . S
C2330 C2346 1.368 . S
H2331 C2339 0.950 . S
H2332 C2337 0.950 . S
H2333 C2338 0.949 . S
H2334 C2340 0.950 . S
H2335 C2341 0.950 . S
H2336 C2342 0.949 . S
C2337 H2332 0.950 . S
C2337 C2339 1.327 . S
C2337 C2343 1.429 . S
C2338 C2330 1.574 . S
C2338 H2333 0.949 . S
C2338 C2344 1.368 . S
C2339 C2323 1.349 . S
C2339 H2331 0.950 . S
C2339 C2337 1.327 . S
C2340 C2328 1.349 . S
C2340 H2334 0.950 . S
C2340 C2341 1.327 . S
C2341 H2335 0.950 . S
C2341 C2340 1.327 . S
C2341 C2345 1.429 . S
C2342 C2325 1.574 . S
C2342 H2336 0.949 . S
C2342 C2346 1.368 . S
C2343 C2324 1.429 . S
C2343 C2337 1.429 . S
C2343 C2344 1.523 . S
C2344 C2325 1.368 . S
C2344 C2338 1.368 . S
C2344 C2343 1.523 . S
C2345 C2329 1.429 . S
C2345 C2341 1.429 . S
C2345 C2346 1.523 . S
C2346 C2330 1.368 . S
C2346 C2342 1.368 . S
C2346 C2345 1.523 . S
H2347 C2322 0.950 1_455 S
H2348 C2324 0.950 . S
H2349 C2325 0.949 . S
H2350 C2327 0.950 . S
H2351 C2329 0.950 . S
C2352 C2353 1.349 . S
C2352 C2354 1.327 . S
C2352 H2377 0.950 . S
C2353 C2352 1.349 . S
C2353 C2369 1.349 . S
C2354 C2352 1.327 . S
C2354 C2373 1.429 . S
C2354 H2378 0.950 . S
C2355 C2372 1.574 . S
C2355 C2374 1.368 . S
C2355 H2379 0.949 . S
H2356 C2360 0.949 . S
C2357 C2358 1.349 1_554 S
C2357 C2359 1.327 1_554 S
C2357 H2380 0.950 . S
C2358 C2357 1.349 1_556 S
C2358 C2370 1.349 . S
C2359 C2357 1.327 1_556 S
C2359 C2375 1.429 . S
C2359 H2381 0.950 . S
C2360 H2356 0.949 . S
C2360 C2368 1.574 . S
C2360 C2376 1.368 . S
H2361 C2369 0.950 . S
H2362 C2367 0.950 . S
H2363 C2368 0.949 . S
H2364 C2370 0.950 . S
H2365 C2371 0.950 . S
H2366 C2372 0.949 . S
C2367 H2362 0.950 . S
C2367 C2369 1.327 . S
C2367 C2373 1.429 . S
C2368 C2360 1.574 . S
C2368 H2363 0.949 . S
C2368 C2374 1.368 . S
C2369 C2353 1.349 . S
C2369 H2361 0.950 . S
C2369 C2367 1.327 . S
C2370 C2358 1.349 . S
C2370 H2364 0.950 . S
C2370 C2371 1.327 . S
C2371 H2365 0.950 . S
C2371 C2370 1.327 . S
C2371 C2375 1.429 . S
C2372 C2355 1.574 . S
C2372 H2366 0.949 . S
C2372 C2376 1.368 . S
C2373 C2354 1.429 . S
C2373 C2367 1.429 . S
C2373 C2374 1.523 . S
C2374 C2355 1.368 . S
C2374 C2368 1.368 . S
C2374 C2373 1.523 . S
C2375 C2359 1.429 . S
C2375 C2371 1.429 . S
C2375 C2376 1.523 . S
C2376 C2360 1.368 . S
C2376 C2372 1.368 . S
C2376 C2375 1.523 . S
H2377 C2352 0.950 . S
H2378 C2354 0.950 . S
H2379 C2355 0.949 . S
H2380 C2357 0.950 . S
H2381 C2359 0.950 . S
C2382 C2383 1.349 . S
C2382 C2384 1.327 . S
C2382 H2407 0.950 . S
C2383 C2382 1.349 . S
C2383 C2399 1.349 . S
C2384 C2382 1.327 . S
C2384 C2403 1.429 . S
C2384 H2408 0.950 . S
C2385 C2402 1.574 . S
C2385 C2404 1.368 . S
C2385 H2409 0.949 . S
H2386 C2390 0.949 . S
C2387 C2388 1.349 . S
C2387 C2389 1.327 . S
C2387 H2410 0.950 . S
C2388 C2387 1.349 . S
C2388 C2400 1.349 . S
C2389 C2387 1.327 . S
C2389 C2405 1.429 . S
C2389 H2411 0.950 . S
C2390 H2386 0.949 . S
C2390 C2398 1.574 . S
C2390 C2406 1.368 . S
H2391 C2399 0.950 . S
H2392 C2397 0.950 . S
H2393 C2398 0.949 . S
H2394 C2400 0.950 . S
H2395 C2401 0.950 . S
H2396 C2402 0.949 . S
C2397 H2392 0.950 . S
C2397 C2399 1.327 . S
C2397 C2403 1.429 . S
C2398 C2390 1.574 . S
C2398 H2393 0.949 . S
C2398 C2404 1.368 . S
C2399 C2383 1.349 . S
C2399 H2391 0.950 . S
C2399 C2397 1.327 . S
C2400 C2388 1.349 . S
C2400 H2394 0.950 . S
C2400 C2401 1.327 . S
C2401 H2395 0.950 . S
C2401 C2400 1.327 . S
C2401 C2405 1.429 . S
C2402 C2385 1.574 . S
C2402 H2396 0.949 . S
C2402 C2406 1.368 . S
C2403 C2384 1.429 . S
C2403 C2397 1.429 . S
C2403 C2404 1.523 . S
C2404 C2385 1.368 . S
C2404 C2398 1.368 . S
C2404 C2403 1.523 . S
C2405 C2389 1.429 . S
C2405 C2401 1.429 . S
C2405 C2406 1.523 . S
C2406 C2390 1.368 . S
C2406 C2402 1.368 . S
C2406 C2405 1.523 . S
H2407 C2382 0.950 . S
H2408 C2384 0.950 . S
H2409 C2385 0.949 . S
H2410 C2387 0.950 . S
H2411 C2389 0.950 . S
C2412 C2413 1.349 . S
C2412 C2414 1.327 . S
C2412 H2437 0.950 . S
C2413 C2412 1.349 . S
C2413 C2429 1.349 . S
C2414 C2412 1.327 . S
C2414 C2433 1.429 . S
C2414 H2438 0.950 . S
C2415 C2432 1.574 . S
C2415 C2434 1.368 . S
C2415 H2439 0.949 . S
H2416 C2420 0.949 . S
C2417 C2418 1.349 . S
C2417 C2419 1.327 . S
C2417 H2440 0.950 . S
C2418 C2417 1.349 . S
C2418 C2430 1.349 . S
C2419 C2417 1.327 . S
C2419 C2435 1.429 . S
C2419 H2441 0.950 . S
C2420 H2416 0.949 . S
C2420 C2428 1.574 . S
C2420 C2436 1.368 . S
H2421 C2429 0.950 . S
H2422 C2427 0.950 . S
H2423 C2428 0.949 . S
H2424 C2430 0.950 . S
H2425 C2431 0.950 . S
H2426 C2432 0.949 . S
C2427 H2422 0.950 . S
C2427 C2429 1.327 . S
C2427 C2433 1.429 . S
C2428 C2420 1.574 . S
C2428 H2423 0.949 . S
C2428 C2434 1.368 . S
C2429 C2413 1.349 . S
C2429 H2421 0.950 . S
C2429 C2427 1.327 . S
C2430 C2418 1.349 . S
C2430 H2424 0.950 . S
C2430 C2431 1.327 . S
C2431 H2425 0.950 . S
C2431 C2430 1.327 . S
C2431 C2435 1.429 . S
C2432 C2415 1.574 . S
C2432 H2426 0.949 . S
C2432 C2436 1.368 . S
C2433 C2414 1.429 . S
C2433 C2427 1.429 . S
C2433 C2434 1.523 . S
C2434 C2415 1.368 . S
C2434 C2428 1.368 . S
C2434 C2433 1.523 . S
C2435 C2419 1.429 . S
C2435 C2431 1.429 . S
C2435 C2436 1.523 . S
C2436 C2420 1.368 . S
C2436 C2432 1.368 . S
C2436 C2435 1.523 . S
H2437 C2412 0.950 . S
H2438 C2414 0.950 . S
H2439 C2415 0.949 . S
H2440 C2417 0.950 . S
H2441 C2419 0.950 . S
C2442 C2443 1.349 . S
C2442 C2444 1.327 . S
C2442 H2467 0.950 . S
C2443 C2442 1.349 . S
C2443 C2459 1.349 . S
C2444 C2442 1.327 . S
C2444 C2463 1.429 . S
C2444 H2468 0.950 . S
C2445 C2462 1.574 . S
C2445 C2464 1.368 . S
C2445 H2469 0.949 . S
H2446 C2450 0.949 . S
C2447 C2448 1.349 . S
C2447 C2449 1.327 . S
C2447 H2470 0.950 . S
C2448 C2447 1.349 . S
C2448 C2460 1.349 . S
C2449 C2447 1.327 . S
C2449 C2465 1.429 . S
C2449 H2471 0.950 . S
C2450 H2446 0.949 . S
C2450 C2458 1.574 . S
C2450 C2466 1.368 . S
H2451 C2459 0.950 . S
H2452 C2457 0.950 . S
H2453 C2458 0.949 . S
H2454 C2460 0.950 . S
H2455 C2461 0.950 . S
H2456 C2462 0.949 . S
C2457 H2452 0.950 . S
C2457 C2459 1.327 . S
C2457 C2463 1.429 . S
C2458 C2450 1.574 . S
C2458 H2453 0.949 . S
C2458 C2464 1.368 . S
C2459 C2443 1.349 . S
C2459 H2451 0.950 . S
C2459 C2457 1.327 . S
C2460 C2448 1.349 . S
C2460 H2454 0.950 . S
C2460 C2461 1.327 . S
C2461 H2455 0.950 . S
C2461 C2460 1.327 . S
C2461 C2465 1.429 . S
C2462 C2445 1.574 . S
C2462 H2456 0.949 . S
C2462 C2466 1.368 . S
C2463 C2444 1.429 . S
C2463 C2457 1.429 . S
C2463 C2464 1.523 . S
C2464 C2445 1.368 . S
C2464 C2458 1.368 . S
C2464 C2463 1.523 . S
C2465 C2449 1.429 . S
C2465 C2461 1.429 . S
C2465 C2466 1.523 . S
C2466 C2450 1.368 . S
C2466 C2462 1.368 . S
C2466 C2465 1.523 . S
H2467 C2442 0.950 . S
H2468 C2444 0.950 . S
H2469 C2445 0.949 . S
H2470 C2447 0.950 . S
H2471 C2449 0.950 . S
C2472 C2473 1.349 . S
C2472 C2474 1.327 . S
C2472 H2497 0.950 . S
C2473 C2472 1.349 . S
C2473 C2489 1.349 . S
C2474 C2472 1.327 . S
C2474 C2493 1.429 . S
C2474 H2498 0.950 . S
C2475 C2492 1.574 . S
C2475 C2494 1.368 . S
C2475 H2499 0.949 . S
H2476 C2480 0.949 . S
C2477 C2478 1.349 . S
C2477 C2479 1.327 . S
C2477 H2500 0.950 . S
C2478 C2477 1.349 . S
C2478 C2490 1.349 . S
C2479 C2477 1.327 . S
C2479 C2495 1.429 . S
C2479 H2501 0.950 . S
C2480 H2476 0.949 . S
C2480 C2488 1.574 . S
C2480 C2496 1.368 . S
H2481 C2489 0.950 . S
H2482 C2487 0.950 . S
H2483 C2488 0.949 . S
H2484 C2490 0.950 . S
H2485 C2491 0.950 . S
H2486 C2492 0.949 . S
C2487 H2482 0.950 . S
C2487 C2489 1.327 . S
C2487 C2493 1.429 . S
C2488 C2480 1.574 . S
C2488 H2483 0.949 . S
C2488 C2494 1.368 . S
C2489 C2473 1.349 . S
C2489 H2481 0.950 . S
C2489 C2487 1.327 . S
C2490 C2478 1.349 . S
C2490 H2484 0.950 . S
C2490 C2491 1.327 . S
C2491 H2485 0.950 . S
C2491 C2490 1.327 . S
C2491 C2495 1.429 . S
C2492 C2475 1.574 . S
C2492 H2486 0.949 . S
C2492 C2496 1.368 . S
C2493 C2474 1.429 . S
C2493 C2487 1.429 . S
C2493 C2494 1.523 . S
C2494 C2475 1.368 . S
C2494 C2488 1.368 . S
C2494 C2493 1.523 . S
C2495 C2479 1.429 . S
C2495 C2491 1.429 . S
C2495 C2496 1.523 . S
C2496 C2480 1.368 . S
C2496 C2492 1.368 . S
C2496 C2495 1.523 . S
H2497 C2472 0.950 . S
H2498 C2474 0.950 . S
H2499 C2475 0.949 . S
H2500 C2477 0.950 . S
H2501 C2479 0.950 . S
C2502 C2503 1.349 . S
C2502 C2504 1.327 . S
C2502 H2527 0.950 . S
C2503 C2502 1.349 . S
C2503 C2519 1.349 . S
C2504 C2502 1.327 . S
C2504 C2523 1.429 . S
C2504 H2528 0.950 . S
C2505 C2522 1.574 . S
C2505 C2524 1.368 . S
C2505 H2529 0.949 . S
H2506 C2510 0.949 . S
C2507 C2508 1.349 . S
C2507 C2509 1.327 . S
C2507 H2530 0.950 . S
C2508 C2507 1.349 . S
C2508 C2520 1.349 . S
C2509 C2507 1.327 . S
C2509 C2525 1.429 . S
C2509 H2531 0.950 . S
C2510 H2506 0.949 . S
C2510 C2518 1.574 . S
C2510 C2526 1.368 . S
H2511 C2519 0.950 1_554 S
H2512 C2517 0.950 . S
H2513 C2518 0.949 . S
H2514 C2520 0.950 . S
H2515 C2521 0.950 . S
H2516 C2522 0.949 . S
C2517 H2512 0.950 . S
C2517 C2519 1.327 . S
C2517 C2523 1.429 . S
C2518 C2510 1.574 . S
C2518 H2513 0.949 . S
C2518 C2524 1.368 . S
C2519 C2503 1.349 . S
C2519 H2511 0.950 1_556 S
C2519 C2517 1.327 . S
C2520 C2508 1.349 . S
C2520 H2514 0.950 . S
C2520 C2521 1.327 . S
C2521 H2515 0.950 . S
C2521 C2520 1.327 . S
C2521 C2525 1.429 . S
C2522 C2505 1.574 . S
C2522 H2516 0.949 . S
C2522 C2526 1.368 . S
C2523 C2504 1.429 . S
C2523 C2517 1.429 . S
C2523 C2524 1.523 . S
C2524 C2505 1.368 . S
C2524 C2518 1.368 . S
C2524 C2523 1.523 . S
C2525 C2509 1.429 . S
C2525 C2521 1.429 . S
C2525 C2526 1.523 . S
C2526 C2510 1.368 . S
C2526 C2522 1.368 . S
C2526 C2525 1.523 . S
H2527 C2502 0.950 . S
H2528 C2504 0.950 . S
H2529 C2505 0.949 . S
H2530 C2507 0.950 . S
H2531 C2509 0.950 . S
C2532 C2533 1.349 . S
C2532 C2534 1.327 . S
C2532 H2557 0.950 . S
C2533 C2532 1.349 . S
C2533 C2549 1.349 . S
C2534 C2532 1.327 . S
C2534 C2553 1.429 . S
C2534 H2558 0.950 . S
C2535 C2552 1.574 . S
C2535 C2554 1.368 . S
C2535 H2559 0.949 . S
H2536 C2540 0.949 . S
C2537 C2538 1.349 . S
C2537 C2539 1.327 . S
C2537 H2560 0.950 . S
C2538 C2537 1.349 . S
C2538 C2550 1.349 1_655 S
C2539 C2537 1.327 . S
C2539 C2555 1.429 . S
C2539 H2561 0.950 . S
C2540 H2536 0.949 . S
C2540 C2548 1.574 . S
C2540 C2556 1.368 . S
H2541 C2549 0.950 . S
H2542 C2547 0.950 . S
H2543 C2548 0.949 . S
H2544 C2550 0.950 . S
H2545 C2551 0.950 . S
H2546 C2552 0.949 . S
C2547 H2542 0.950 . S
C2547 C2549 1.327 . S
C2547 C2553 1.429 . S
C2548 C2540 1.574 . S
C2548 H2543 0.949 . S
C2548 C2554 1.368 . S
C2549 C2533 1.349 . S
C2549 H2541 0.950 . S
C2549 C2547 1.327 . S
C2550 C2538 1.349 1_455 S
C2550 H2544 0.950 . S
C2550 C2551 1.327 1_455 S
C2551 H2545 0.950 . S
C2551 C2550 1.327 1_655 S
C2551 C2555 1.429 . S
C2552 C2535 1.574 . S
C2552 H2546 0.949 . S
C2552 C2556 1.368 . S
C2553 C2534 1.429 . S
C2553 C2547 1.429 . S
C2553 C2554 1.523 . S
C2554 C2535 1.368 . S
C2554 C2548 1.368 . S
C2554 C2553 1.523 . S
C2555 C2539 1.429 . S
C2555 C2551 1.429 . S
C2555 C2556 1.523 . S
C2556 C2540 1.368 . S
C2556 C2552 1.368 . S
C2556 C2555 1.523 . S
H2557 C2532 0.950 . S
H2558 C2534 0.950 . S
H2559 C2535 0.949 . S
H2560 C2537 0.950 . S
H2561 C2539 0.950 . S
C2562 C2563 1.349 . S
C2562 C2564 1.327 . S
C2562 H2587 0.950 . S
C2563 C2562 1.349 . S
C2563 C2579 1.349 . S
C2564 C2562 1.327 . S
C2564 C2583 1.429 . S
C2564 H2588 0.950 . S
C2565 C2582 1.574 . S
C2565 C2584 1.368 . S
C2565 H2589 0.949 . S
H2566 C2570 0.949 . S
C2567 C2568 1.349 . S
C2567 C2569 1.327 . S
C2567 H2590 0.950 . S
C2568 C2567 1.349 . S
C2568 C2580 1.349 . S
C2569 C2567 1.327 . S
C2569 C2585 1.429 . S
C2569 H2591 0.950 . S
C2570 H2566 0.949 . S
C2570 C2578 1.574 . S
C2570 C2586 1.368 . S
H2571 C2579 0.950 . S
H2572 C2577 0.950 . S
H2573 C2578 0.949 . S
H2574 C2580 0.950 . S
H2575 C2581 0.950 . S
H2576 C2582 0.949 . S
C2577 H2572 0.950 . S
C2577 C2579 1.327 . S
C2577 C2583 1.429 . S
C2578 C2570 1.574 . S
C2578 H2573 0.949 . S
C2578 C2584 1.368 . S
C2579 C2563 1.349 . S
C2579 H2571 0.950 . S
C2579 C2577 1.327 . S
C2580 C2568 1.349 . S
C2580 H2574 0.950 . S
C2580 C2581 1.327 . S
C2581 H2575 0.950 . S
C2581 C2580 1.327 . S
C2581 C2585 1.429 . S
C2582 C2565 1.574 . S
C2582 H2576 0.949 . S
C2582 C2586 1.368 . S
C2583 C2564 1.429 . S
C2583 C2577 1.429 . S
C2583 C2584 1.523 . S
C2584 C2565 1.368 . S
C2584 C2578 1.368 . S
C2584 C2583 1.523 . S
C2585 C2569 1.429 . S
C2585 C2581 1.429 . S
C2585 C2586 1.523 . S
C2586 C2570 1.368 . S
C2586 C2582 1.368 . S
C2586 C2585 1.523 . S
H2587 C2562 0.950 . S
H2588 C2564 0.950 . S
H2589 C2565 0.949 . S
H2590 C2567 0.950 . S
H2591 C2569 0.950 . S
C2592 C2593 1.349 . S
C2592 C2594 1.327 . S
C2592 H2617 0.950 . S
C2593 C2592 1.349 . S
C2593 C2609 1.349 . S
C2594 C2592 1.327 . S
C2594 C2613 1.429 . S
C2594 H2618 0.950 . S
C2595 C2612 1.574 . S
C2595 C2614 1.368 . S
C2595 H2619 0.949 . S
H2596 C2600 0.949 . S
C2597 C2598 1.349 . S
C2597 C2599 1.327 . S
C2597 H2620 0.950 . S
C2598 C2597 1.349 . S
C2598 C2610 1.349 . S
C2599 C2597 1.327 . S
C2599 C2615 1.429 . S
C2599 H2621 0.950 . S
C2600 H2596 0.949 . S
C2600 C2608 1.574 . S
C2600 C2616 1.368 . S
H2601 C2609 0.950 . S
H2602 C2607 0.950 . S
H2603 C2608 0.949 . S
H2604 C2610 0.950 . S
H2605 C2611 0.950 . S
H2606 C2612 0.949 . S
C2607 H2602 0.950 . S
C2607 C2609 1.327 . S
C2607 C2613 1.429 . S
C2608 C2600 1.574 . S
C2608 H2603 0.949 . S
C2608 C2614 1.368 . S
C2609 C2593 1.349 . S
C2609 H2601 0.950 . S
C2609 C2607 1.327 . S
C2610 C2598 1.349 . S
C2610 H2604 0.950 . S
C2610 C2611 1.327 . S
C2611 H2605 0.950 . S
C2611 C2610 1.327 . S
C2611 C2615 1.429 . S
C2612 C2595 1.574 . S
C2612 H2606 0.949 . S
C2612 C2616 1.368 . S
C2613 C2594 1.429 . S
C2613 C2607 1.429 . S
C2613 C2614 1.523 . S
C2614 C2595 1.368 . S
C2614 C2608 1.368 . S
C2614 C2613 1.523 . S
C2615 C2599 1.429 . S
C2615 C2611 1.429 . S
C2615 C2616 1.523 . S
C2616 C2600 1.368 . S
C2616 C2612 1.368 . S
C2616 C2615 1.523 . S
H2617 C2592 0.950 . S
H2618 C2594 0.950 . S
H2619 C2595 0.949 . S
H2620 C2597 0.950 . S
H2621 C2599 0.950 . S
C2622 C2623 1.349 . S
C2622 C2624 1.327 . S
C2622 H2647 0.950 . S
C2623 C2622 1.349 . S
C2623 C2639 1.349 . S
C2624 C2622 1.327 . S
C2624 C2643 1.429 . S
C2624 H2648 0.950 . S
C2625 C2642 1.574 . S
C2625 C2644 1.368 . S
C2625 H2649 0.949 . S
H2626 C2630 0.949 . S
C2627 C2628 1.349 . S
C2627 C2629 1.327 . S
C2627 H2650 0.950 . S
C2628 C2627 1.349 . S
C2628 C2640 1.349 . S
C2629 C2627 1.327 . S
C2629 C2645 1.429 . S
C2629 H2651 0.950 . S
C2630 H2626 0.949 . S
C2630 C2638 1.574 . S
C2630 C2646 1.368 . S
H2631 C2639 0.950 . S
H2632 C2637 0.950 . S
H2633 C2638 0.949 . S
H2634 C2640 0.950 . S
H2635 C2641 0.950 . S
H2636 C2642 0.949 . S
C2637 H2632 0.950 . S
C2637 C2639 1.327 . S
C2637 C2643 1.429 . S
C2638 C2630 1.574 . S
C2638 H2633 0.949 . S
C2638 C2644 1.368 . S
C2639 C2623 1.349 . S
C2639 H2631 0.950 . S
C2639 C2637 1.327 . S
C2640 C2628 1.349 . S
C2640 H2634 0.950 . S
C2640 C2641 1.327 . S
C2641 H2635 0.950 . S
C2641 C2640 1.327 . S
C2641 C2645 1.429 . S
C2642 C2625 1.574 . S
C2642 H2636 0.949 . S
C2642 C2646 1.368 . S
C2643 C2624 1.429 . S
C2643 C2637 1.429 . S
C2643 C2644 1.523 . S
C2644 C2625 1.368 . S
C2644 C2638 1.368 . S
C2644 C2643 1.523 . S
C2645 C2629 1.429 . S
C2645 C2641 1.429 . S
C2645 C2646 1.523 . S
C2646 C2630 1.368 . S
C2646 C2642 1.368 . S
C2646 C2645 1.523 . S
H2647 C2622 0.950 . S
H2648 C2624 0.950 . S
H2649 C2625 0.949 . S
H2650 C2627 0.950 . S
H2651 C2629 0.950 . S
C2652 C2653 1.349 . S
C2652 C2654 1.327 . S
C2652 H2677 0.950 . S
C2653 C2652 1.349 . S
C2653 C2669 1.349 . S
C2654 C2652 1.327 . S
C2654 C2673 1.429 . S
C2654 H2678 0.950 . S
C2655 C2672 1.574 . S
C2655 C2674 1.368 . S
C2655 H2679 0.949 . S
H2656 C2660 0.949 . S
C2657 C2658 1.349 . S
C2657 C2659 1.327 . S
C2657 H2680 0.950 . S
C2658 C2657 1.349 . S
C2658 C2670 1.349 . S
C2659 C2657 1.327 . S
C2659 C2675 1.429 . S
C2659 H2681 0.950 . S
C2660 H2656 0.949 . S
C2660 C2668 1.574 . S
C2660 C2676 1.368 . S
H2661 C2669 0.950 . S
H2662 C2667 0.950 . S
H2663 C2668 0.949 . S
H2664 C2670 0.950 . S
H2665 C2671 0.950 . S
H2666 C2672 0.949 . S
C2667 H2662 0.950 . S
C2667 C2669 1.327 . S
C2667 C2673 1.429 . S
C2668 C2660 1.574 . S
C2668 H2663 0.949 . S
C2668 C2674 1.368 . S
C2669 C2653 1.349 . S
C2669 H2661 0.950 . S
C2669 C2667 1.327 . S
C2670 C2658 1.349 . S
C2670 H2664 0.950 . S
C2670 C2671 1.327 . S
C2671 H2665 0.950 . S
C2671 C2670 1.327 . S
C2671 C2675 1.429 . S
C2672 C2655 1.574 . S
C2672 H2666 0.949 . S
C2672 C2676 1.368 . S
C2673 C2654 1.429 . S
C2673 C2667 1.429 . S
C2673 C2674 1.523 . S
C2674 C2655 1.368 . S
C2674 C2668 1.368 . S
C2674 C2673 1.523 . S
C2675 C2659 1.429 . S
C2675 C2671 1.429 . S
C2675 C2676 1.523 . S
C2676 C2660 1.368 . S
C2676 C2672 1.368 . S
C2676 C2675 1.523 . S
H2677 C2652 0.950 . S
H2678 C2654 0.950 . S
H2679 C2655 0.949 . S
H2680 C2657 0.950 . S
H2681 C2659 0.950 . S
C2682 C2683 1.349 . S
C2682 C2684 1.327 . S
C2682 H2707 0.950 . S
C2683 C2682 1.349 . S
C2683 C2699 1.349 . S
C2684 C2682 1.327 . S
C2684 C2703 1.429 . S
C2684 H2708 0.950 . S
C2685 C2702 1.574 . S
C2685 C2704 1.368 . S
C2685 H2709 0.949 . S
H2686 C2690 0.949 . S
C2687 C2688 1.349 . S
C2687 C2689 1.327 . S
C2687 H2710 0.950 . S
C2688 C2687 1.349 . S
C2688 C2700 1.349 . S
C2689 C2687 1.327 . S
C2689 C2705 1.429 . S
C2689 H2711 0.950 . S
C2690 H2686 0.949 . S
C2690 C2698 1.574 . S
C2690 C2706 1.368 . S
H2691 C2699 0.950 . S
H2692 C2697 0.950 . S
H2693 C2698 0.949 . S
H2694 C2700 0.950 . S
H2695 C2701 0.950 . S
H2696 C2702 0.949 . S
C2697 H2692 0.950 . S
C2697 C2699 1.327 . S
C2697 C2703 1.429 . S
C2698 C2690 1.574 . S
C2698 H2693 0.949 . S
C2698 C2704 1.368 . S
C2699 C2683 1.349 . S
C2699 H2691 0.950 . S
C2699 C2697 1.327 . S
C2700 C2688 1.349 . S
C2700 H2694 0.950 . S
C2700 C2701 1.327 . S
C2701 H2695 0.950 . S
C2701 C2700 1.327 . S
C2701 C2705 1.429 . S
C2702 C2685 1.574 . S
C2702 H2696 0.949 . S
C2702 C2706 1.368 . S
C2703 C2684 1.429 . S
C2703 C2697 1.429 . S
C2703 C2704 1.523 . S
C2704 C2685 1.368 . S
C2704 C2698 1.368 . S
C2704 C2703 1.523 . S
C2705 C2689 1.429 . S
C2705 C2701 1.429 . S
C2705 C2706 1.523 . S
C2706 C2690 1.368 . S
C2706 C2702 1.368 . S
C2706 C2705 1.523 . S
H2707 C2682 0.950 . S
H2708 C2684 0.950 . S
H2709 C2685 0.949 . S
H2710 C2687 0.950 . S
H2711 C2689 0.950 . S
C2712 C2713 1.349 . S
C2712 C2714 1.327 . S
C2712 H2737 0.950 . S
C2713 C2712 1.349 . S
C2713 C2729 1.349 . S
C2714 C2712 1.327 . S
C2714 C2733 1.429 . S
C2714 H2738 0.950 . S
C2715 C2732 1.574 . S
C2715 C2734 1.368 . S
C2715 H2739 0.949 . S
H2716 C2720 0.949 . S
C2717 C2718 1.349 . S
C2717 C2719 1.327 . S
C2717 H2740 0.950 . S
C2718 C2717 1.349 . S
C2718 C2730 1.349 . S
C2719 C2717 1.327 . S
C2719 C2735 1.429 . S
C2719 H2741 0.950 . S
C2720 H2716 0.949 . S
C2720 C2728 1.574 . S
C2720 C2736 1.368 . S
H2721 C2729 0.950 . S
H2722 C2727 0.950 . S
H2723 C2728 0.949 . S
H2724 C2730 0.950 . S
H2725 C2731 0.950 . S
H2726 C2732 0.949 . S
C2727 H2722 0.950 . S
C2727 C2729 1.327 . S
C2727 C2733 1.429 . S
C2728 C2720 1.574 . S
C2728 H2723 0.949 . S
C2728 C2734 1.368 . S
C2729 C2713 1.349 . S
C2729 H2721 0.950 . S
C2729 C2727 1.327 . S
C2730 C2718 1.349 . S
C2730 H2724 0.950 . S
C2730 C2731 1.327 . S
C2731 H2725 0.950 . S
C2731 C2730 1.327 . S
C2731 C2735 1.429 . S
C2732 C2715 1.574 . S
C2732 H2726 0.949 . S
C2732 C2736 1.368 . S
C2733 C2714 1.429 . S
C2733 C2727 1.429 . S
C2733 C2734 1.523 . S
C2734 C2715 1.368 . S
C2734 C2728 1.368 . S
C2734 C2733 1.523 . S
C2735 C2719 1.429 . S
C2735 C2731 1.429 . S
C2735 C2736 1.523 . S
C2736 C2720 1.368 . S
C2736 C2732 1.368 . S
C2736 C2735 1.523 . S
H2737 C2712 0.950 . S
H2738 C2714 0.950 . S
H2739 C2715 0.949 . S
H2740 C2717 0.950 . S
H2741 C2719 0.950 . S
C2742 C2743 1.349 . S
C2742 C2744 1.327 . S
C2742 H2767 0.950 . S
C2743 C2742 1.349 . S
C2743 C2759 1.349 . S
C2744 C2742 1.327 . S
C2744 C2763 1.429 . S
C2744 H2768 0.950 . S
C2745 C2762 1.574 . S
C2745 C2764 1.368 . S
C2745 H2769 0.949 . S
H2746 C2750 0.949 . S
C2747 C2748 1.349 1_565 S
C2747 C2749 1.327 . S
C2747 H2770 0.950 . S
C2748 C2747 1.349 1_545 S
C2748 C2760 1.349 . S
C2749 C2747 1.327 . S
C2749 C2765 1.429 . S
C2749 H2771 0.950 . S
C2750 H2746 0.949 . S
C2750 C2758 1.574 . S
C2750 C2766 1.368 . S
H2751 C2759 0.950 . S
H2752 C2757 0.950 . S
H2753 C2758 0.949 . S
H2754 C2760 0.950 . S
H2755 C2761 0.952 . S
H2756 C2762 0.949 . S
C2757 H2752 0.950 . S
C2757 C2759 1.327 . S
C2757 C2763 1.429 . S
C2758 C2750 1.574 . S
C2758 H2753 0.949 . S
C2758 C2764 1.368 . S
C2759 C2743 1.349 . S
C2759 H2751 0.950 . S
C2759 C2757 1.327 . S
C2760 C2748 1.349 . S
C2760 H2754 0.950 . S
C2760 C2761 1.331 . S
C2761 H2755 0.952 . S
C2761 C2760 1.331 . S
C2761 C2765 1.422 1_545 S
C2762 C2745 1.574 . S
C2762 H2756 0.949 . S
C2762 C2766 1.368 . S
C2763 C2744 1.429 . S
C2763 C2757 1.429 . S
C2763 C2764 1.523 . S
C2764 C2745 1.368 . S
C2764 C2758 1.368 . S
C2764 C2763 1.523 . S
C2765 C2749 1.429 . S
C2765 C2761 1.422 1_565 S
C2765 C2766 1.523 . S
C2766 C2750 1.368 . S
C2766 C2762 1.368 . S
C2766 C2765 1.523 . S
H2767 C2742 0.950 . S
H2768 C2744 0.950 . S
H2769 C2745 0.949 . S
H2770 C2747 0.950 . S
H2771 C2749 0.950 . S
C2772 C2773 1.349 . S
C2772 C2774 1.327 . S
C2772 H2797 0.950 1_565 S
C2773 C2772 1.349 . S
C2773 C2789 1.349 . S
C2774 C2772 1.327 . S
C2774 C2793 1.429 . S
C2774 H2798 0.950 . S
C2775 C2792 1.574 . S
C2775 C2794 1.368 . S
C2775 H2799 0.949 . S
H2776 C2780 0.949 . S
C2777 C2778 1.349 . S
C2777 C2779 1.327 . S
C2777 H2800 0.950 . S
C2778 C2777 1.349 . S
C2778 C2790 1.349 . S
C2779 C2777 1.327 . S
C2779 C2795 1.429 . S
C2779 H2801 0.950 . S
C2780 H2776 0.949 . S
C2780 C2788 1.574 . S
C2780 C2796 1.368 . S
H2781 C2789 0.950 . S
H2782 C2787 0.950 . S
H2783 C2788 0.949 . S
H2784 C2790 0.950 . S
H2785 C2791 0.950 . S
H2786 C2792 0.949 . S
C2787 H2782 0.950 . S
C2787 C2789 1.327 . S
C2787 C2793 1.429 . S
C2788 C2780 1.574 . S
C2788 H2783 0.949 . S
C2788 C2794 1.368 . S
C2789 C2773 1.349 . S
C2789 H2781 0.950 . S
C2789 C2787 1.327 . S
C2790 C2778 1.349 . S
C2790 H2784 0.950 . S
C2790 C2791 1.327 . S
C2791 H2785 0.950 . S
C2791 C2790 1.327 . S
C2791 C2795 1.429 . S
C2792 C2775 1.574 . S
C2792 H2786 0.949 . S
C2792 C2796 1.368 . S
C2793 C2774 1.429 . S
C2793 C2787 1.429 . S
C2793 C2794 1.523 . S
C2794 C2775 1.368 . S
C2794 C2788 1.368 . S
C2794 C2793 1.523 . S
C2795 C2779 1.429 . S
C2795 C2791 1.429 . S
C2795 C2796 1.523 . S
C2796 C2780 1.368 . S
C2796 C2792 1.368 . S
C2796 C2795 1.523 . S
H2797 C2772 0.950 1_545 S
H2798 C2774 0.950 . S
H2799 C2775 0.949 . S
H2800 C2777 0.950 . S
H2801 C2779 0.950 . S
C2802 C2803 1.349 . S
C2802 C2804 1.327 . S
C2802 H2827 0.950 . S
C2803 C2802 1.349 . S
C2803 C2819 1.349 . S
C2804 C2802 1.327 . S
C2804 C2823 1.429 . S
C2804 H2828 0.950 . S
C2805 C2822 1.574 . S
C2805 C2824 1.368 . S
C2805 H2829 0.949 . S
H2806 C2810 0.949 . S
C2807 C2808 1.349 . S
C2807 C2809 1.327 . S
C2807 H2830 0.950 . S
C2808 C2807 1.349 . S
C2808 C2820 1.349 . S
C2809 C2807 1.327 . S
C2809 C2825 1.429 . S
C2809 H2831 0.950 . S
C2810 H2806 0.949 . S
C2810 C2818 1.574 . S
C2810 C2826 1.368 . S
H2811 C2819 0.950 . S
H2812 C2817 0.950 . S
H2813 C2818 0.949 . S
H2814 C2820 0.950 . S
H2815 C2821 0.950 . S
H2816 C2822 0.949 . S
C2817 H2812 0.950 . S
C2817 C2819 1.327 . S
C2817 C2823 1.429 . S
C2818 C2810 1.574 . S
C2818 H2813 0.949 . S
C2818 C2824 1.368 . S
C2819 C2803 1.349 . S
C2819 H2811 0.950 . S
C2819 C2817 1.327 . S
C2820 C2808 1.349 . S
C2820 H2814 0.950 . S
C2820 C2821 1.327 . S
C2821 H2815 0.950 . S
C2821 C2820 1.327 . S
C2821 C2825 1.429 . S
C2822 C2805 1.574 . S
C2822 H2816 0.949 . S
C2822 C2826 1.368 . S
C2823 C2804 1.429 . S
C2823 C2817 1.429 . S
C2823 C2824 1.523 . S
C2824 C2805 1.368 . S
C2824 C2818 1.368 . S
C2824 C2823 1.523 . S
C2825 C2809 1.429 . S
C2825 C2821 1.429 . S
C2825 C2826 1.523 . S
C2826 C2810 1.368 . S
C2826 C2822 1.368 . S
C2826 C2825 1.523 . S
H2827 C2802 0.950 . S
H2828 C2804 0.950 . S
H2829 C2805 0.949 . S
H2830 C2807 0.950 . S
H2831 C2809 0.950 . S
C2832 C2833 1.349 . S
C2832 C2834 1.327 . S
C2832 H2857 0.950 . S
C2833 C2832 1.349 . S
C2833 C2849 1.349 . S
C2834 C2832 1.327 . S
C2834 C2853 1.429 . S
C2834 H2858 0.950 . S
C2835 C2852 1.574 . S
C2835 C2854 1.368 . S
C2835 H2859 0.949 . S
H2836 C2840 0.949 . S
C2837 C2838 1.349 . S
C2837 C2839 1.327 . S
C2837 H2860 0.950 . S
C2838 C2837 1.349 . S
C2838 C2850 1.349 . S
C2839 C2837 1.327 . S
C2839 C2855 1.429 . S
C2839 H2861 0.950 . S
C2840 H2836 0.949 . S
C2840 C2848 1.574 . S
C2840 C2856 1.368 . S
H2841 C2849 0.950 . S
H2842 C2847 0.950 . S
H2843 C2848 0.949 . S
H2844 C2850 0.950 . S
H2845 C2851 0.950 . S
H2846 C2852 0.949 . S
C2847 H2842 0.950 . S
C2847 C2849 1.327 . S
C2847 C2853 1.429 . S
C2848 C2840 1.574 . S
C2848 H2843 0.949 . S
C2848 C2854 1.368 . S
C2849 C2833 1.349 . S
C2849 H2841 0.950 . S
C2849 C2847 1.327 . S
C2850 C2838 1.349 . S
C2850 H2844 0.950 . S
C2850 C2851 1.327 . S
C2851 H2845 0.950 . S
C2851 C2850 1.327 . S
C2851 C2855 1.429 . S
C2852 C2835 1.574 . S
C2852 H2846 0.949 . S
C2852 C2856 1.368 . S
C2853 C2834 1.429 . S
C2853 C2847 1.429 . S
C2853 C2854 1.523 . S
C2854 C2835 1.368 . S
C2854 C2848 1.368 . S
C2854 C2853 1.523 . S
C2855 C2839 1.429 . S
C2855 C2851 1.429 . S
C2855 C2856 1.523 . S
C2856 C2840 1.368 . S
C2856 C2852 1.368 . S
C2856 C2855 1.523 . S
H2857 C2832 0.950 . S
H2858 C2834 0.950 . S
H2859 C2835 0.949 . S
H2860 C2837 0.950 . S
H2861 C2839 0.950 . S
C2862 C2863 1.349 . S
C2862 C2864 1.327 . S
C2862 H2887 0.950 . S
C2863 C2862 1.349 . S
C2863 C2879 1.349 . S
C2864 C2862 1.327 . S
C2864 C2883 1.429 . S
C2864 H2888 0.952 1_554 S
C2865 C2882 1.574 . S
C2865 C2884 1.368 . S
C2865 H2889 0.949 . S
H2866 C2870 0.958 . S
C2867 C2868 1.349 . S
C2867 C2869 1.327 . S
C2867 H2890 0.950 . S
C2868 C2867 1.349 . S
C2868 C2880 1.349 1_554 S
C2869 C2867 1.327 . S
C2869 C2885 1.429 . S
C2869 H2891 0.950 . S
C2870 H2866 0.958 . S
C2870 C2878 1.572 1_556 S
C2870 C2886 1.360 1_556 S
H2871 C2879 0.950 . S
H2872 C2877 0.950 . S
H2873 C2878 0.949 1_556 S
H2874 C2880 0.950 . S
H2875 C2881 0.950 . S
H2876 C2882 0.949 . S
C2877 H2872 0.950 . S
C2877 C2879 1.327 . S
C2877 C2883 1.429 . S
C2878 C2870 1.572 1_554 S
C2878 H2873 0.949 1_554 S
C2878 C2884 1.368 . S
C2879 C2863 1.349 . S
C2879 H2871 0.950 . S
C2879 C2877 1.327 . S
C2880 C2868 1.349 1_556 S
C2880 H2874 0.950 . S
C2880 C2881 1.327 . S
C2881 H2875 0.950 . S
C2881 C2880 1.327 . S
C2881 C2885 1.429 1_556 S
C2882 C2865 1.574 . S
C2882 H2876 0.949 . S
C2882 C2886 1.368 . S
C2883 C2864 1.429 . S
C2883 C2877 1.429 . S
C2883 C2884 1.523 . S
C2884 C2865 1.368 . S
C2884 C2878 1.368 . S
C2884 C2883 1.523 . S
C2885 C2869 1.429 . S
C2885 C2881 1.429 1_554 S
C2885 C2886 1.523 . S
C2886 C2870 1.360 1_554 S
C2886 C2882 1.368 . S
C2886 C2885 1.523 . S
H2887 C2862 0.950 . S
H2888 C2864 0.952 1_556 S
H2889 C2865 0.949 . S
H2890 C2867 0.950 . S
H2891 C2869 0.950 . S
C2892 C2893 1.349 . S
C2892 C2894 1.327 . S
C2892 H2917 0.950 . S
C2893 C2892 1.349 . S
C2893 C2909 1.349 . S
C2894 C2892 1.327 . S
C2894 C2913 1.429 . S
C2894 H2918 0.950 . S
C2895 C2912 1.574 . S
C2895 C2914 1.368 . S
C2895 H2919 0.949 . S
H2896 C2900 0.949 . S
C2897 C2898 1.349 . S
C2897 C2899 1.327 . S
C2897 H2920 0.950 . S
C2898 C2897 1.349 . S
C2898 C2910 1.349 . S
C2899 C2897 1.327 . S
C2899 C2915 1.429 . S
C2899 H2921 0.950 . S
C2900 H2896 0.949 . S
C2900 C2908 1.574 . S
C2900 C2916 1.368 . S
H2901 C2909 0.950 . S
H2902 C2907 0.950 . S
H2903 C2908 0.949 . S
H2904 C2910 0.950 . S
H2905 C2911 0.950 . S
H2906 C2912 0.949 . S
C2907 H2902 0.950 . S
C2907 C2909 1.327 . S
C2907 C2913 1.429 . S
C2908 C2900 1.574 . S
C2908 H2903 0.949 . S
C2908 C2914 1.368 . S
C2909 C2893 1.349 . S
C2909 H2901 0.950 . S
C2909 C2907 1.327 . S
C2910 C2898 1.349 . S
C2910 H2904 0.950 . S
C2910 C2911 1.327 . S
C2911 H2905 0.950 . S
C2911 C2910 1.327 . S
C2911 C2915 1.429 . S
C2912 C2895 1.574 . S
C2912 H2906 0.949 . S
C2912 C2916 1.368 . S
C2913 C2894 1.429 . S
C2913 C2907 1.429 . S
C2913 C2914 1.523 . S
C2914 C2895 1.368 . S
C2914 C2908 1.368 . S
C2914 C2913 1.523 . S
C2915 C2899 1.429 . S
C2915 C2911 1.429 . S
C2915 C2916 1.523 . S
C2916 C2900 1.368 . S
C2916 C2912 1.368 . S
C2916 C2915 1.523 . S
H2917 C2892 0.950 . S
H2918 C2894 0.950 . S
H2919 C2895 0.949 . S
H2920 C2897 0.950 . S
H2921 C2899 0.950 . S
C2922 C2923 1.349 . S
C2922 C2924 1.327 . S
C2922 H2947 0.950 . S
C2923 C2922 1.349 . S
C2923 C2939 1.349 . S
C2924 C2922 1.327 . S
C2924 C2943 1.429 . S
C2924 H2948 0.950 . S
C2925 C2942 1.574 . S
C2925 C2944 1.368 . S
C2925 H2949 0.949 . S
H2926 C2930 0.949 . S
C2927 C2928 1.349 . S
C2927 C2929 1.327 . S
C2927 H2950 0.950 . S
C2928 C2927 1.349 . S
C2928 C2940 1.349 . S
C2929 C2927 1.327 . S
C2929 C2945 1.429 . S
C2929 H2951 0.950 . S
C2930 H2926 0.949 . S
C2930 C2938 1.574 . S
C2930 C2946 1.368 . S
H2931 C2939 0.950 . S
H2932 C2937 0.950 . S
H2933 C2938 0.949 . S
H2934 C2940 0.950 . S
H2935 C2941 0.950 . S
H2936 C2942 0.949 . S
C2937 H2932 0.950 . S
C2937 C2939 1.327 . S
C2937 C2943 1.429 . S
C2938 C2930 1.574 . S
C2938 H2933 0.949 . S
C2938 C2944 1.368 . S
C2939 C2923 1.349 . S
C2939 H2931 0.950 . S
C2939 C2937 1.327 . S
C2940 C2928 1.349 . S
C2940 H2934 0.950 . S
C2940 C2941 1.327 . S
C2941 H2935 0.950 . S
C2941 C2940 1.327 . S
C2941 C2945 1.429 . S
C2942 C2925 1.574 . S
C2942 H2936 0.949 . S
C2942 C2946 1.368 . S
C2943 C2924 1.429 . S
C2943 C2937 1.429 . S
C2943 C2944 1.523 . S
C2944 C2925 1.368 . S
C2944 C2938 1.368 . S
C2944 C2943 1.523 . S
C2945 C2929 1.429 . S
C2945 C2941 1.429 . S
C2945 C2946 1.523 . S
C2946 C2930 1.368 . S
C2946 C2942 1.368 . S
C2946 C2945 1.523 . S
H2947 C2922 0.950 . S
H2948 C2924 0.950 . S
H2949 C2925 0.949 . S
H2950 C2927 0.950 . S
H2951 C2929 0.950 . S
C2952 C2953 1.349 . S
C2952 C2954 1.327 . S
C2952 H2977 0.950 . S
C2953 C2952 1.349 . S
C2953 C2969 1.349 . S
C2954 C2952 1.327 . S
C2954 C2973 1.429 . S
C2954 H2978 0.950 . S
C2955 C2972 1.574 . S
C2955 C2974 1.368 . S
C2955 H2979 0.949 . S
H2956 C2960 0.949 . S
C2957 C2958 1.349 . S
C2957 C2959 1.327 . S
C2957 H2980 0.950 . S
C2958 C2957 1.349 . S
C2958 C2970 1.349 . S
C2959 C2957 1.327 . S
C2959 C2975 1.429 . S
C2959 H2981 0.950 . S
C2960 H2956 0.949 . S
C2960 C2968 1.574 . S
C2960 C2976 1.368 . S
H2961 C2969 0.950 . S
H2962 C2967 0.950 . S
H2963 C2968 0.949 . S
H2964 C2970 0.950 . S
H2965 C2971 0.950 . S
H2966 C2972 0.949 . S
C2967 H2962 0.950 . S
C2967 C2969 1.327 . S
C2967 C2973 1.429 . S
C2968 C2960 1.574 . S
C2968 H2963 0.949 . S
C2968 C2974 1.368 . S
C2969 C2953 1.349 . S
C2969 H2961 0.950 . S
C2969 C2967 1.327 . S
C2970 C2958 1.349 . S
C2970 H2964 0.950 . S
C2970 C2971 1.327 . S
C2971 H2965 0.950 . S
C2971 C2970 1.327 . S
C2971 C2975 1.429 . S
C2972 C2955 1.574 . S
C2972 H2966 0.949 . S
C2972 C2976 1.368 . S
C2973 C2954 1.429 . S
C2973 C2967 1.429 . S
C2973 C2974 1.523 . S
C2974 C2955 1.368 . S
C2974 C2968 1.368 . S
C2974 C2973 1.523 . S
C2975 C2959 1.429 . S
C2975 C2971 1.429 . S
C2975 C2976 1.523 . S
C2976 C2960 1.368 . S
C2976 C2972 1.368 . S
C2976 C2975 1.523 . S
H2977 C2952 0.950 . S
H2978 C2954 0.950 . S
H2979 C2955 0.949 . S
H2980 C2957 0.950 . S
H2981 C2959 0.950 . S
C2982 C2983 1.349 . S
C2982 C2984 1.327 . S
C2982 H3007 0.950 . S
C2983 C2982 1.349 . S
C2983 C2999 1.349 . S
C2984 C2982 1.327 . S
C2984 C3003 1.429 . S
C2984 H3008 0.950 . S
C2985 C3002 1.574 . S
C2985 C3004 1.368 . S
C2985 H3009 0.949 . S
H2986 C2990 0.949 . S
C2987 C2988 1.349 . S
C2987 C2989 1.327 . S
C2987 H3010 0.950 . S
C2988 C2987 1.349 . S
C2988 C3000 1.349 . S
C2989 C2987 1.327 . S
C2989 C3005 1.429 . S
C2989 H3011 0.950 . S
C2990 H2986 0.949 . S
C2990 C2998 1.574 . S
C2990 C3006 1.368 . S
H2991 C2999 0.950 . S
H2992 C2997 0.950 . S
H2993 C2998 0.949 . S
H2994 C3000 0.950 . S
H2995 C3001 0.950 . S
H2996 C3002 0.949 . S
C2997 H2992 0.950 . S
C2997 C2999 1.327 . S
C2997 C3003 1.429 . S
C2998 C2990 1.574 . S
C2998 H2993 0.949 . S
C2998 C3004 1.368 . S
C2999 C2983 1.349 . S
C2999 H2991 0.950 . S
C2999 C2997 1.327 . S
C3000 C2988 1.349 . S
C3000 H2994 0.950 . S
C3000 C3001 1.327 . S
C3001 H2995 0.950 . S
C3001 C3000 1.327 . S
C3001 C3005 1.429 . S
C3002 C2985 1.574 . S
C3002 H2996 0.949 . S
C3002 C3006 1.368 . S
C3003 C2984 1.429 . S
C3003 C2997 1.429 . S
C3003 C3004 1.523 . S
C3004 C2985 1.368 . S
C3004 C2998 1.368 . S
C3004 C3003 1.523 . S
C3005 C2989 1.429 . S
C3005 C3001 1.429 . S
C3005 C3006 1.523 . S
C3006 C2990 1.368 . S
C3006 C3002 1.368 . S
C3006 C3005 1.523 . S
H3007 C2982 0.950 . S
H3008 C2984 0.950 . S
H3009 C2985 0.949 . S
H3010 C2987 0.950 . S
H3011 C2989 0.950 . S
C3012 C3013 1.349 . S
C3012 C3014 1.327 . S
C3012 H3037 0.950 . S
C3013 C3012 1.349 . S
C3013 C3029 1.349 . S
C3014 C3012 1.327 . S
C3014 C3033 1.429 . S
C3014 H3038 0.950 . S
C3015 C3032 1.575 . S
C3015 C3034 1.354 1_655 S
C3015 H3039 0.961 . S
H3016 C3020 0.949 . S
C3017 C3018 1.349 1_655 S
C3017 C3019 1.327 . S
C3017 H3040 0.965 . S
C3018 C3017 1.349 1_455 S
C3018 C3030 1.349 . S
C3019 C3017 1.327 . S
C3019 C3035 1.429 1_655 S
C3019 H3041 0.950 . S
C3020 H3016 0.949 . S
C3020 C3028 1.574 . S
C3020 C3036 1.368 . S
H3021 C3029 0.950 1_655 S
H3022 C3027 0.950 1_655 S
H3023 C3028 0.949 . S
H3024 C3030 0.950 . S
H3025 C3031 0.950 . S
H3026 C3032 0.949 . S
C3027 H3022 0.950 1_455 S
C3027 C3029 1.327 . S
C3027 C3033 1.429 . S
C3028 C3020 1.574 . S
C3028 H3023 0.949 . S
C3028 C3034 1.368 . S
C3029 C3013 1.349 . S
C3029 H3021 0.950 1_455 S
C3029 C3027 1.327 . S
C3030 C3018 1.349 . S
C3030 H3024 0.950 . S
C3030 C3031 1.327 . S
C3031 H3025 0.950 . S
C3031 C3030 1.327 . S
C3031 C3035 1.429 . S
C3032 C3015 1.575 . S
C3032 H3026 0.949 . S
C3032 C3036 1.368 1_655 S
C3033 C3014 1.429 . S
C3033 C3027 1.429 . S
C3033 C3034 1.523 . S
C3034 C3015 1.354 1_455 S
C3034 C3028 1.368 . S
C3034 C3033 1.523 . S
C3035 C3019 1.429 1_455 S
C3035 C3031 1.429 . S
C3035 C3036 1.523 . S
C3036 C3020 1.368 . S
C3036 C3032 1.368 1_455 S
C3036 C3035 1.523 . S
H3037 C3012 0.950 . S
H3038 C3014 0.950 . S
H3039 C3015 0.961 . S
H3040 C3017 0.965 . S
H3041 C3019 0.950 . S
C3042 C3043 1.349 . S
C3042 C3044 1.327 . S
C3042 H3067 0.950 . S
C3043 C3042 1.349 . S
C3043 C3059 1.349 . S
C3044 C3042 1.327 . S
C3044 C3063 1.429 . S
C3044 H3068 0.950 . S
C3045 C3062 1.574 . S
C3045 C3064 1.368 . S
C3045 H3069 0.949 . S
H3046 C3050 0.949 . S
C3047 C3048 1.349 . S
C3047 C3049 1.327 . S
C3047 H3070 0.950 . S
C3048 C3047 1.349 . S
C3048 C3060 1.349 . S
C3049 C3047 1.327 . S
C3049 C3065 1.429 . S
C3049 H3071 0.950 . S
C3050 H3046 0.949 . S
C3050 C3058 1.574 . S
C3050 C3066 1.368 . S
H3051 C3059 0.950 . S
H3052 C3057 0.950 . S
H3053 C3058 0.949 . S
H3054 C3060 0.950 . S
H3055 C3061 0.950 . S
H3056 C3062 0.949 . S
C3057 H3052 0.950 . S
C3057 C3059 1.327 . S
C3057 C3063 1.429 . S
C3058 C3050 1.574 . S
C3058 H3053 0.949 . S
C3058 C3064 1.368 . S
C3059 C3043 1.349 . S
C3059 H3051 0.950 . S
C3059 C3057 1.327 . S
C3060 C3048 1.349 . S
C3060 H3054 0.950 . S
C3060 C3061 1.327 . S
C3061 H3055 0.950 . S
C3061 C3060 1.327 . S
C3061 C3065 1.429 . S
C3062 C3045 1.574 . S
C3062 H3056 0.949 . S
C3062 C3066 1.368 . S
C3063 C3044 1.429 . S
C3063 C3057 1.429 . S
C3063 C3064 1.523 . S
C3064 C3045 1.368 . S
C3064 C3058 1.368 . S
C3064 C3063 1.523 . S
C3065 C3049 1.429 . S
C3065 C3061 1.429 . S
C3065 C3066 1.523 . S
C3066 C3050 1.368 . S
C3066 C3062 1.368 . S
C3066 C3065 1.523 . S
H3067 C3042 0.950 . S
H3068 C3044 0.950 . S
H3069 C3045 0.949 . S
H3070 C3047 0.950 . S
H3071 C3049 0.950 . S
C3072 C3073 1.349 . S
C3072 C3074 1.327 . S
C3072 H3097 0.950 . S
C3073 C3072 1.349 . S
C3073 C3089 1.349 . S
C3074 C3072 1.327 . S
C3074 C3093 1.429 . S
C3074 H3098 0.950 . S
C3075 C3092 1.574 . S
C3075 C3094 1.368 . S
C3075 H3099 0.949 . S
H3076 C3080 0.949 . S
C3077 C3078 1.349 . S
C3077 C3079 1.327 . S
C3077 H3100 0.950 . S
C3078 C3077 1.349 . S
C3078 C3090 1.349 . S
C3079 C3077 1.327 . S
C3079 C3095 1.429 . S
C3079 H3101 0.950 . S
C3080 H3076 0.949 . S
C3080 C3088 1.574 . S
C3080 C3096 1.368 . S
H3081 C3089 0.950 . S
H3082 C3087 0.950 . S
H3083 C3088 0.949 . S
H3084 C3090 0.950 . S
H3085 C3091 0.950 . S
H3086 C3092 0.949 . S
C3087 H3082 0.950 . S
C3087 C3089 1.327 . S
C3087 C3093 1.429 . S
C3088 C3080 1.574 . S
C3088 H3083 0.949 . S
C3088 C3094 1.368 . S
C3089 C3073 1.349 . S
C3089 H3081 0.950 . S
C3089 C3087 1.327 . S
C3090 C3078 1.349 . S
C3090 H3084 0.950 . S
C3090 C3091 1.327 . S
C3091 H3085 0.950 . S
C3091 C3090 1.327 . S
C3091 C3095 1.429 . S
C3092 C3075 1.574 . S
C3092 H3086 0.949 . S
C3092 C3096 1.368 . S
C3093 C3074 1.429 . S
C3093 C3087 1.429 . S
C3093 C3094 1.523 . S
C3094 C3075 1.368 . S
C3094 C3088 1.368 . S
C3094 C3093 1.523 . S
C3095 C3079 1.429 . S
C3095 C3091 1.429 . S
C3095 C3096 1.523 . S
C3096 C3080 1.368 . S
C3096 C3092 1.368 . S
C3096 C3095 1.523 . S
H3097 C3072 0.950 . S
H3098 C3074 0.950 . S
H3099 C3075 0.949 . S
H3100 C3077 0.950 . S
H3101 C3079 0.950 . S
C3102 C3103 1.349 . S
C3102 C3104 1.327 . S
C3102 H3127 0.950 . S
C3103 C3102 1.349 . S
C3103 C3119 1.349 . S
C3104 C3102 1.327 . S
C3104 C3123 1.429 . S
C3104 H3128 0.950 . S
C3105 C3122 1.574 . S
C3105 C3124 1.368 . S
C3105 H3129 0.949 . S
H3106 C3110 0.949 . S
C3107 C3108 1.349 . S
C3107 C3109 1.327 . S
C3107 H3130 0.950 . S
C3108 C3107 1.349 . S
C3108 C3120 1.349 . S
C3109 C3107 1.327 . S
C3109 C3125 1.429 . S
C3109 H3131 0.950 . S
C3110 H3106 0.949 . S
C3110 C3118 1.574 . S
C3110 C3126 1.368 . S
H3111 C3119 0.950 . S
H3112 C3117 0.950 . S
H3113 C3118 0.949 . S
H3114 C3120 0.950 . S
H3115 C3121 0.950 . S
H3116 C3122 0.949 . S
C3117 H3112 0.950 . S
C3117 C3119 1.327 . S
C3117 C3123 1.429 . S
C3118 C3110 1.574 . S
C3118 H3113 0.949 . S
C3118 C3124 1.368 . S
C3119 C3103 1.349 . S
C3119 H3111 0.950 . S
C3119 C3117 1.327 . S
C3120 C3108 1.349 . S
C3120 H3114 0.950 . S
C3120 C3121 1.327 . S
C3121 H3115 0.950 . S
C3121 C3120 1.327 . S
C3121 C3125 1.429 . S
C3122 C3105 1.574 . S
C3122 H3116 0.949 . S
C3122 C3126 1.368 . S
C3123 C3104 1.429 . S
C3123 C3117 1.429 . S
C3123 C3124 1.523 . S
C3124 C3105 1.368 . S
C3124 C3118 1.368 . S
C3124 C3123 1.523 . S
C3125 C3109 1.429 . S
C3125 C3121 1.429 . S
C3125 C3126 1.523 . S
C3126 C3110 1.368 . S
C3126 C3122 1.368 . S
C3126 C3125 1.523 . S
H3127 C3102 0.950 . S
H3128 C3104 0.950 . S
H3129 C3105 0.949 . S
H3130 C3107 0.950 . S
H3131 C3109 0.950 . S
C3132 C3133 1.349 1_655 S
C3132 C3134 1.327 . S
C3132 H3157 0.950 . S
C3133 C3132 1.349 1_455 S
C3133 C3149 1.349 . S
C3134 C3132 1.327 . S
C3134 C3153 1.429 1_655 S
C3134 H3158 0.950 . S
C3135 C3152 1.574 . S
C3135 C3154 1.368 . S
C3135 H3159 0.949 . S
H3136 C3140 0.949 . S
C3137 C3138 1.349 . S
C3137 C3139 1.327 . S
C3137 H3160 0.950 . S
C3138 C3137 1.349 . S
C3138 C3150 1.349 . S
C3139 C3137 1.327 . S
C3139 C3155 1.429 . S
C3139 H3161 0.950 . S
C3140 H3136 0.949 . S
C3140 C3148 1.574 . S
C3140 C3156 1.368 1_655 S
H3141 C3149 0.950 . S
H3142 C3147 0.950 . S
H3143 C3148 0.949 . S
H3144 C3150 0.950 1_655 S
H3145 C3151 0.945 1_655 S
H3146 C3152 0.949 . S
C3147 H3142 0.950 . S
C3147 C3149 1.327 . S
C3147 C3153 1.429 . S
C3148 C3140 1.574 . S
C3148 H3143 0.949 . S
C3148 C3154 1.368 1_655 S
C3149 C3133 1.349 . S
C3149 H3141 0.950 . S
C3149 C3147 1.327 . S
C3150 C3138 1.349 . S
C3150 H3144 0.950 1_455 S
C3150 C3151 1.328 . S
C3151 H3145 0.945 1_455 S
C3151 C3150 1.328 . S
C3151 C3155 1.432 . S
C3152 C3135 1.574 . S
C3152 H3146 0.949 . S
C3152 C3156 1.368 . S
C3153 C3134 1.429 1_455 S
C3153 C3147 1.429 . S
C3153 C3154 1.523 . S
C3154 C3135 1.368 . S
C3154 C3148 1.368 1_455 S
C3154 C3153 1.523 . S
C3155 C3139 1.429 . S
C3155 C3151 1.432 . S
C3155 C3156 1.523 . S
C3156 C3140 1.368 1_455 S
C3156 C3152 1.368 . S
C3156 C3155 1.523 . S
H3157 C3132 0.950 . S
H3158 C3134 0.950 . S
H3159 C3135 0.949 . S
H3160 C3137 0.950 . S
H3161 C3139 0.950 . S
C3162 C3163 1.349 . S
C3162 C3164 1.327 . S
C3162 H3187 0.950 . S
C3163 C3162 1.349 . S
C3163 C3179 1.349 . S
C3164 C3162 1.327 . S
C3164 C3183 1.429 . S
C3164 H3188 0.950 . S
C3165 C3182 1.574 . S
C3165 C3184 1.368 . S
C3165 H3189 0.949 . S
H3166 C3170 0.949 . S
C3167 C3168 1.349 . S
C3167 C3169 1.327 . S
C3167 H3190 0.950 . S
C3168 C3167 1.349 . S
C3168 C3180 1.349 . S
C3169 C3167 1.327 . S
C3169 C3185 1.429 . S
C3169 H3191 0.950 . S
C3170 H3166 0.949 . S
C3170 C3178 1.574 . S
C3170 C3186 1.368 . S
H3171 C3179 0.950 . S
H3172 C3177 0.950 . S
H3173 C3178 0.949 . S
H3174 C3180 0.950 . S
H3175 C3181 0.950 . S
H3176 C3182 0.949 . S
C3177 H3172 0.950 . S
C3177 C3179 1.327 . S
C3177 C3183 1.429 . S
C3178 C3170 1.574 . S
C3178 H3173 0.949 . S
C3178 C3184 1.368 . S
C3179 C3163 1.349 . S
C3179 H3171 0.950 . S
C3179 C3177 1.327 . S
C3180 C3168 1.349 . S
C3180 H3174 0.950 . S
C3180 C3181 1.327 . S
C3181 H3175 0.950 . S
C3181 C3180 1.327 . S
C3181 C3185 1.429 . S
C3182 C3165 1.574 . S
C3182 H3176 0.949 . S
C3182 C3186 1.368 . S
C3183 C3164 1.429 . S
C3183 C3177 1.429 . S
C3183 C3184 1.523 . S
C3184 C3165 1.368 . S
C3184 C3178 1.368 . S
C3184 C3183 1.523 . S
C3185 C3169 1.429 . S
C3185 C3181 1.429 . S
C3185 C3186 1.523 . S
C3186 C3170 1.368 . S
C3186 C3182 1.368 . S
C3186 C3185 1.523 . S
H3187 C3162 0.950 . S
H3188 C3164 0.950 . S
H3189 C3165 0.949 . S
H3190 C3167 0.950 . S
H3191 C3169 0.950 . S
C3192 C3193 1.349 . S
C3192 C3194 1.327 . S
C3192 H3217 0.950 . S
C3193 C3192 1.349 . S
C3193 C3209 1.349 . S
C3194 C3192 1.327 . S
C3194 C3213 1.429 . S
C3194 H3218 0.950 . S
C3195 C3212 1.574 . S
C3195 C3214 1.368 . S
C3195 H3219 0.949 . S
H3196 C3200 0.949 . S
C3197 C3198 1.349 . S
C3197 C3199 1.327 . S
C3197 H3220 0.950 . S
C3198 C3197 1.349 . S
C3198 C3210 1.349 . S
C3199 C3197 1.327 . S
C3199 C3215 1.429 . S
C3199 H3221 0.950 . S
C3200 H3196 0.949 . S
C3200 C3208 1.574 . S
C3200 C3216 1.368 . S
H3201 C3209 0.950 . S
H3202 C3207 0.950 . S
H3203 C3208 0.949 . S
H3204 C3210 0.950 . S
H3205 C3211 0.950 . S
H3206 C3212 0.949 . S
C3207 H3202 0.950 . S
C3207 C3209 1.327 . S
C3207 C3213 1.429 . S
C3208 C3200 1.574 . S
C3208 H3203 0.949 . S
C3208 C3214 1.368 . S
C3209 C3193 1.349 . S
C3209 H3201 0.950 . S
C3209 C3207 1.327 . S
C3210 C3198 1.349 . S
C3210 H3204 0.950 . S
C3210 C3211 1.327 . S
C3211 H3205 0.950 . S
C3211 C3210 1.327 . S
C3211 C3215 1.429 . S
C3212 C3195 1.574 . S
C3212 H3206 0.949 . S
C3212 C3216 1.368 . S
C3213 C3194 1.429 . S
C3213 C3207 1.429 . S
C3213 C3214 1.523 . S
C3214 C3195 1.368 . S
C3214 C3208 1.368 . S
C3214 C3213 1.523 . S
C3215 C3199 1.429 . S
C3215 C3211 1.429 . S
C3215 C3216 1.523 . S
C3216 C3200 1.368 . S
C3216 C3212 1.368 . S
C3216 C3215 1.523 . S
H3217 C3192 0.950 . S
H3218 C3194 0.950 . S
H3219 C3195 0.949 . S
H3220 C3197 0.950 . S
H3221 C3199 0.950 . S
C3222 C3223 1.349 . S
C3222 C3224 1.327 . S
C3222 H3247 0.950 . S
C3223 C3222 1.349 . S
C3223 C3239 1.349 . S
C3224 C3222 1.327 . S
C3224 C3243 1.429 . S
C3224 H3248 0.950 . S
C3225 C3242 1.574 . S
C3225 C3244 1.368 . S
C3225 H3249 0.949 . S
H3226 C3230 0.949 . S
C3227 C3228 1.349 . S
C3227 C3229 1.327 . S
C3227 H3250 0.950 . S
C3228 C3227 1.349 . S
C3228 C3240 1.349 . S
C3229 C3227 1.327 . S
C3229 C3245 1.429 . S
C3229 H3251 0.950 . S
C3230 H3226 0.949 . S
C3230 C3238 1.574 . S
C3230 C3246 1.368 . S
H3231 C3239 0.950 . S
H3232 C3237 0.950 . S
H3233 C3238 0.949 . S
H3234 C3240 0.950 . S
H3235 C3241 0.950 . S
H3236 C3242 0.949 . S
C3237 H3232 0.950 . S
C3237 C3239 1.327 . S
C3237 C3243 1.429 . S
C3238 C3230 1.574 . S
C3238 H3233 0.949 . S
C3238 C3244 1.368 . S
C3239 C3223 1.349 . S
C3239 H3231 0.950 . S
C3239 C3237 1.327 . S
C3240 C3228 1.349 . S
C3240 H3234 0.950 . S
C3240 C3241 1.327 . S
C3241 H3235 0.950 . S
C3241 C3240 1.327 . S
C3241 C3245 1.429 . S
C3242 C3225 1.574 . S
C3242 H3236 0.949 . S
C3242 C3246 1.368 . S
C3243 C3224 1.429 . S
C3243 C3237 1.429 . S
C3243 C3244 1.523 . S
C3244 C3225 1.368 . S
C3244 C3238 1.368 . S
C3244 C3243 1.523 . S
C3245 C3229 1.429 . S
C3245 C3241 1.429 . S
C3245 C3246 1.523 . S
C3246 C3230 1.368 . S
C3246 C3242 1.368 . S
C3246 C3245 1.523 . S
H3247 C3222 0.950 . S
H3248 C3224 0.950 . S
H3249 C3225 0.949 . S
H3250 C3227 0.950 . S
H3251 C3229 0.950 . S
C3252 C3253 1.349 . S
C3252 C3254 1.327 . S
C3252 H3277 0.950 . S
C3253 C3252 1.349 . S
C3253 C3269 1.349 . S
C3254 C3252 1.327 . S
C3254 C3273 1.429 . S
C3254 H3278 0.950 . S
C3255 C3272 1.574 . S
C3255 C3274 1.368 . S
C3255 H3279 0.949 . S
H3256 C3260 0.949 . S
C3257 C3258 1.349 . S
C3257 C3259 1.327 . S
C3257 H3280 0.950 . S
C3258 C3257 1.349 . S
C3258 C3270 1.349 . S
C3259 C3257 1.327 . S
C3259 C3275 1.429 . S
C3259 H3281 0.950 . S
C3260 H3256 0.949 . S
C3260 C3268 1.574 . S
C3260 C3276 1.368 . S
H3261 C3269 0.950 . S
H3262 C3267 0.950 . S
H3263 C3268 0.949 . S
H3264 C3270 0.950 . S
H3265 C3271 0.950 . S
H3266 C3272 0.949 . S
C3267 H3262 0.950 . S
C3267 C3269 1.327 . S
C3267 C3273 1.429 . S
C3268 C3260 1.574 . S
C3268 H3263 0.949 . S
C3268 C3274 1.368 . S
C3269 C3253 1.349 . S
C3269 H3261 0.950 . S
C3269 C3267 1.327 . S
C3270 C3258 1.349 . S
C3270 H3264 0.950 . S
C3270 C3271 1.327 . S
C3271 H3265 0.950 . S
C3271 C3270 1.327 . S
C3271 C3275 1.429 . S
C3272 C3255 1.574 . S
C3272 H3266 0.949 . S
C3272 C3276 1.368 . S
C3273 C3254 1.429 . S
C3273 C3267 1.429 . S
C3273 C3274 1.523 . S
C3274 C3255 1.368 . S
C3274 C3268 1.368 . S
C3274 C3273 1.523 . S
C3275 C3259 1.429 . S
C3275 C3271 1.429 . S
C3275 C3276 1.523 . S
C3276 C3260 1.368 . S
C3276 C3272 1.368 . S
C3276 C3275 1.523 . S
H3277 C3252 0.950 . S
H3278 C3254 0.950 . S
H3279 C3255 0.949 . S
H3280 C3257 0.950 . S
H3281 C3259 0.950 . S
C3282 C3283 1.349 . S
C3282 C3284 1.327 . S
C3282 H3307 0.950 . S
C3283 C3282 1.349 . S
C3283 C3299 1.349 . S
C3284 C3282 1.327 . S
C3284 C3303 1.429 . S
C3284 H3308 0.950 . S
C3285 C3302 1.574 . S
C3285 C3304 1.368 . S
C3285 H3309 0.949 . S
H3286 C3290 0.949 . S
C3287 C3288 1.349 . S
C3287 C3289 1.327 . S
C3287 H3310 0.950 . S
C3288 C3287 1.349 . S
C3288 C3300 1.349 . S
C3289 C3287 1.327 . S
C3289 C3305 1.429 . S
C3289 H3311 0.950 . S
C3290 H3286 0.949 . S
C3290 C3298 1.574 . S
C3290 C3306 1.368 . S
H3291 C3299 0.950 . S
H3292 C3297 0.950 . S
H3293 C3298 0.949 . S
H3294 C3300 0.950 . S
H3295 C3301 0.950 . S
H3296 C3302 0.949 . S
C3297 H3292 0.950 . S
C3297 C3299 1.327 . S
C3297 C3303 1.429 . S
C3298 C3290 1.574 . S
C3298 H3293 0.949 . S
C3298 C3304 1.368 . S
C3299 C3283 1.349 . S
C3299 H3291 0.950 . S
C3299 C3297 1.327 . S
C3300 C3288 1.349 . S
C3300 H3294 0.950 . S
C3300 C3301 1.327 . S
C3301 H3295 0.950 . S
C3301 C3300 1.327 . S
C3301 C3305 1.429 . S
C3302 C3285 1.574 . S
C3302 H3296 0.949 . S
C3302 C3306 1.368 . S
C3303 C3284 1.429 . S
C3303 C3297 1.429 . S
C3303 C3304 1.523 . S
C3304 C3285 1.368 . S
C3304 C3298 1.368 . S
C3304 C3303 1.523 . S
C3305 C3289 1.429 . S
C3305 C3301 1.429 . S
C3305 C3306 1.523 . S
C3306 C3290 1.368 . S
C3306 C3302 1.368 . S
C3306 C3305 1.523 . S
H3307 C3282 0.950 . S
H3308 C3284 0.950 . S
H3309 C3285 0.949 . S
H3310 C3287 0.950 . S
H3311 C3289 0.950 . S
C3312 C3313 1.349 . S
C3312 C3314 1.327 . S
C3312 H3337 0.950 . S
C3313 C3312 1.349 . S
C3313 C3329 1.349 . S
C3314 C3312 1.327 . S
C3314 C3333 1.429 . S
C3314 H3338 0.950 . S
C3315 C3332 1.574 . S
C3315 C3334 1.368 . S
C3315 H3339 0.949 . S
H3316 C3320 0.949 . S
C3317 C3318 1.349 . S
C3317 C3319 1.327 . S
C3317 H3340 0.950 . S
C3318 C3317 1.349 . S
C3318 C3330 1.349 . S
C3319 C3317 1.327 . S
C3319 C3335 1.429 . S
C3319 H3341 0.950 . S
C3320 H3316 0.949 . S
C3320 C3328 1.574 . S
C3320 C3336 1.368 . S
H3321 C3329 0.950 . S
H3322 C3327 0.950 . S
H3323 C3328 0.949 . S
H3324 C3330 0.950 . S
H3325 C3331 0.950 . S
H3326 C3332 0.949 . S
C3327 H3322 0.950 . S
C3327 C3329 1.327 . S
C3327 C3333 1.429 . S
C3328 C3320 1.574 . S
C3328 H3323 0.949 . S
C3328 C3334 1.368 . S
C3329 C3313 1.349 . S
C3329 H3321 0.950 . S
C3329 C3327 1.327 . S
C3330 C3318 1.349 . S
C3330 H3324 0.950 . S
C3330 C3331 1.327 . S
C3331 H3325 0.950 . S
C3331 C3330 1.327 . S
C3331 C3335 1.429 . S
C3332 C3315 1.574 . S
C3332 H3326 0.949 . S
C3332 C3336 1.368 . S
C3333 C3314 1.429 . S
C3333 C3327 1.429 . S
C3333 C3334 1.523 . S
C3334 C3315 1.368 . S
C3334 C3328 1.368 . S
C3334 C3333 1.523 . S
C3335 C3319 1.429 . S
C3335 C3331 1.429 . S
C3335 C3336 1.523 . S
C3336 C3320 1.368 . S
C3336 C3332 1.368 . S
C3336 C3335 1.523 . S
H3337 C3312 0.950 . S
H3338 C3314 0.950 . S
H3339 C3315 0.949 . S
H3340 C3317 0.950 . S
H3341 C3319 0.950 . S
C3342 C3343 1.349 . S
C3342 C3344 1.327 . S
C3342 H3367 0.950 . S
C3343 C3342 1.349 . S
C3343 C3359 1.349 . S
C3344 C3342 1.327 . S
C3344 C3363 1.429 . S
C3344 H3368 0.950 . S
C3345 C3362 1.574 . S
C3345 C3364 1.368 . S
C3345 H3369 0.949 . S
H3346 C3350 0.949 . S
C3347 C3348 1.349 . S
C3347 C3349 1.327 . S
C3347 H3370 0.950 . S
C3348 C3347 1.349 . S
C3348 C3360 1.349 . S
C3349 C3347 1.327 . S
C3349 C3365 1.429 . S
C3349 H3371 0.950 . S
C3350 H3346 0.949 . S
C3350 C3358 1.574 . S
C3350 C3366 1.368 . S
H3351 C3359 0.950 . S
H3352 C3357 0.950 . S
H3353 C3358 0.949 . S
H3354 C3360 0.950 . S
H3355 C3361 0.950 . S
H3356 C3362 0.949 . S
C3357 H3352 0.950 . S
C3357 C3359 1.327 . S
C3357 C3363 1.429 . S
C3358 C3350 1.574 . S
C3358 H3353 0.949 . S
C3358 C3364 1.368 . S
C3359 C3343 1.349 . S
C3359 H3351 0.950 . S
C3359 C3357 1.327 . S
C3360 C3348 1.349 . S
C3360 H3354 0.950 . S
C3360 C3361 1.327 . S
C3361 H3355 0.950 . S
C3361 C3360 1.327 . S
C3361 C3365 1.429 . S
C3362 C3345 1.574 . S
C3362 H3356 0.949 . S
C3362 C3366 1.368 . S
C3363 C3344 1.429 . S
C3363 C3357 1.429 . S
C3363 C3364 1.523 . S
C3364 C3345 1.368 . S
C3364 C3358 1.368 . S
C3364 C3363 1.523 . S
C3365 C3349 1.429 . S
C3365 C3361 1.429 . S
C3365 C3366 1.523 . S
C3366 C3350 1.368 . S
C3366 C3362 1.368 . S
C3366 C3365 1.523 . S
H3367 C3342 0.950 . S
H3368 C3344 0.950 . S
H3369 C3345 0.949 . S
H3370 C3347 0.950 . S
H3371 C3349 0.950 . S
C3372 C3373 1.349 . S
C3372 C3374 1.327 . S
C3372 H3397 0.950 . S
C3373 C3372 1.349 . S
C3373 C3389 1.349 . S
C3374 C3372 1.327 . S
C3374 C3393 1.429 . S
C3374 H3398 0.950 . S
C3375 C3392 1.574 . S
C3375 C3394 1.368 . S
C3375 H3399 0.949 . S
H3376 C3380 0.949 . S
C3377 C3378 1.349 . S
C3377 C3379 1.327 . S
C3377 H3400 0.950 . S
C3378 C3377 1.349 . S
C3378 C3390 1.349 . S
C3379 C3377 1.327 . S
C3379 C3395 1.429 . S
C3379 H3401 0.950 . S
C3380 H3376 0.949 . S
C3380 C3388 1.574 . S
C3380 C3396 1.368 . S
H3381 C3389 0.950 . S
H3382 C3387 0.950 . S
H3383 C3388 0.949 . S
H3384 C3390 0.950 . S
H3385 C3391 0.950 . S
H3386 C3392 0.949 . S
C3387 H3382 0.950 . S
C3387 C3389 1.327 . S
C3387 C3393 1.429 . S
C3388 C3380 1.574 . S
C3388 H3383 0.949 . S
C3388 C3394 1.368 . S
C3389 C3373 1.349 . S
C3389 H3381 0.950 . S
C3389 C3387 1.327 . S
C3390 C3378 1.349 . S
C3390 H3384 0.950 . S
C3390 C3391 1.327 . S
C3391 H3385 0.950 . S
C3391 C3390 1.327 . S
C3391 C3395 1.429 . S
C3392 C3375 1.574 . S
C3392 H3386 0.949 . S
C3392 C3396 1.368 . S
C3393 C3374 1.429 . S
C3393 C3387 1.429 . S
C3393 C3394 1.523 . S
C3394 C3375 1.368 . S
C3394 C3388 1.368 . S
C3394 C3393 1.523 . S
C3395 C3379 1.429 . S
C3395 C3391 1.429 . S
C3395 C3396 1.523 . S
C3396 C3380 1.368 . S
C3396 C3392 1.368 . S
C3396 C3395 1.523 . S
H3397 C3372 0.950 . S
H3398 C3374 0.950 . S
H3399 C3375 0.949 . S
H3400 C3377 0.950 . S
H3401 C3379 0.950 . S
C3402 C3403 1.349 . S
C3402 C3404 1.327 . S
C3402 H3427 0.950 . S
C3403 C3402 1.349 . S
C3403 C3419 1.349 . S
C3404 C3402 1.327 . S
C3404 C3423 1.429 . S
C3404 H3428 0.950 . S
C3405 C3422 1.574 . S
C3405 C3424 1.368 . S
C3405 H3429 0.949 . S
H3406 C3410 0.949 . S
C3407 C3408 1.349 . S
C3407 C3409 1.327 . S
C3407 H3430 0.950 . S
C3408 C3407 1.349 . S
C3408 C3420 1.349 . S
C3409 C3407 1.327 . S
C3409 C3425 1.429 . S
C3409 H3431 0.950 . S
C3410 H3406 0.949 . S
C3410 C3418 1.574 . S
C3410 C3426 1.368 . S
H3411 C3419 0.950 . S
H3412 C3417 0.950 . S
H3413 C3418 0.949 . S
H3414 C3420 0.950 . S
H3415 C3421 0.950 . S
H3416 C3422 0.949 . S
C3417 H3412 0.950 . S
C3417 C3419 1.327 . S
C3417 C3423 1.429 . S
C3418 C3410 1.574 . S
C3418 H3413 0.949 . S
C3418 C3424 1.368 . S
C3419 C3403 1.349 . S
C3419 H3411 0.950 . S
C3419 C3417 1.327 . S
C3420 C3408 1.349 . S
C3420 H3414 0.950 . S
C3420 C3421 1.327 . S
C3421 H3415 0.950 . S
C3421 C3420 1.327 . S
C3421 C3425 1.429 . S
C3422 C3405 1.574 . S
C3422 H3416 0.949 . S
C3422 C3426 1.368 . S
C3423 C3404 1.429 . S
C3423 C3417 1.429 . S
C3423 C3424 1.523 . S
C3424 C3405 1.368 . S
C3424 C3418 1.368 . S
C3424 C3423 1.523 . S
C3425 C3409 1.429 . S
C3425 C3421 1.429 . S
C3425 C3426 1.523 . S
C3426 C3410 1.368 . S
C3426 C3422 1.368 . S
C3426 C3425 1.523 . S
H3427 C3402 0.950 . S
H3428 C3404 0.950 . S
H3429 C3405 0.949 . S
H3430 C3407 0.950 . S
H3431 C3409 0.950 . S
C3432 C3433 1.349 . S
C3432 C3434 1.327 . S
C3432 H3457 0.950 . S
C3433 C3432 1.349 . S
C3433 C3449 1.349 . S
C3434 C3432 1.327 . S
C3434 C3453 1.429 . S
C3434 H3458 0.950 . S
C3435 C3452 1.574 . S
C3435 C3454 1.368 . S
C3435 H3459 0.949 . S
H3436 C3440 0.949 . S
C3437 C3438 1.349 . S
C3437 C3439 1.327 . S
C3437 H3460 0.950 . S
C3438 C3437 1.349 . S
C3438 C3450 1.349 . S
C3439 C3437 1.327 . S
C3439 C3455 1.429 . S
C3439 H3461 0.950 . S
C3440 H3436 0.949 . S
C3440 C3448 1.574 . S
C3440 C3456 1.368 . S
H3441 C3449 0.950 . S
H3442 C3447 0.950 . S
H3443 C3448 0.949 . S
H3444 C3450 0.950 . S
H3445 C3451 0.950 . S
H3446 C3452 0.949 . S
C3447 H3442 0.950 . S
C3447 C3449 1.327 . S
C3447 C3453 1.429 . S
C3448 C3440 1.574 . S
C3448 H3443 0.949 . S
C3448 C3454 1.368 . S
C3449 C3433 1.349 . S
C3449 H3441 0.950 . S
C3449 C3447 1.327 . S
C3450 C3438 1.349 . S
C3450 H3444 0.950 . S
C3450 C3451 1.327 . S
C3451 H3445 0.950 . S
C3451 C3450 1.327 . S
C3451 C3455 1.429 . S
C3452 C3435 1.574 . S
C3452 H3446 0.949 . S
C3452 C3456 1.368 . S
C3453 C3434 1.429 . S
C3453 C3447 1.429 . S
C3453 C3454 1.523 . S
C3454 C3435 1.368 . S
C3454 C3448 1.368 . S
C3454 C3453 1.523 . S
C3455 C3439 1.429 . S
C3455 C3451 1.429 . S
C3455 C3456 1.523 . S
C3456 C3440 1.368 . S
C3456 C3452 1.368 . S
C3456 C3455 1.523 . S
H3457 C3432 0.950 . S
H3458 C3434 0.950 . S
H3459 C3435 0.949 . S
H3460 C3437 0.950 . S
H3461 C3439 0.950 . S
C3462 C3463 1.349 . S
C3462 C3464 1.327 . S
C3462 H3487 0.950 . S
C3463 C3462 1.349 . S
C3463 C3479 1.349 . S
C3464 C3462 1.327 . S
C3464 C3483 1.429 . S
C3464 H3488 0.950 . S
C3465 C3482 1.574 . S
C3465 C3484 1.368 . S
C3465 H3489 0.949 . S
H3466 C3470 0.949 . S
C3467 C3468 1.349 . S
C3467 C3469 1.327 . S
C3467 H3490 0.950 . S
C3468 C3467 1.349 . S
C3468 C3480 1.349 . S
C3469 C3467 1.327 . S
C3469 C3485 1.429 . S
C3469 H3491 0.950 . S
C3470 H3466 0.949 . S
C3470 C3478 1.574 . S
C3470 C3486 1.368 . S
H3471 C3479 0.950 . S
H3472 C3477 0.950 . S
H3473 C3478 0.949 . S
H3474 C3480 0.950 . S
H3475 C3481 0.950 . S
H3476 C3482 0.949 . S
C3477 H3472 0.950 . S
C3477 C3479 1.327 . S
C3477 C3483 1.429 . S
C3478 C3470 1.574 . S
C3478 H3473 0.949 . S
C3478 C3484 1.368 . S
C3479 C3463 1.349 . S
C3479 H3471 0.950 . S
C3479 C3477 1.327 . S
C3480 C3468 1.349 . S
C3480 H3474 0.950 . S
C3480 C3481 1.327 . S
C3481 H3475 0.950 . S
C3481 C3480 1.327 . S
C3481 C3485 1.429 . S
C3482 C3465 1.574 . S
C3482 H3476 0.949 . S
C3482 C3486 1.368 . S
C3483 C3464 1.429 . S
C3483 C3477 1.429 . S
C3483 C3484 1.523 . S
C3484 C3465 1.368 . S
C3484 C3478 1.368 . S
C3484 C3483 1.523 . S
C3485 C3469 1.429 . S
C3485 C3481 1.429 . S
C3485 C3486 1.523 . S
C3486 C3470 1.368 . S
C3486 C3482 1.368 . S
C3486 C3485 1.523 . S
H3487 C3462 0.950 . S
H3488 C3464 0.950 . S
H3489 C3465 0.949 . S
H3490 C3467 0.950 . S
H3491 C3469 0.950 . S
C3492 C3493 1.349 . S
C3492 C3494 1.327 . S
C3492 H3517 0.950 . S
C3493 C3492 1.349 . S
C3493 C3509 1.349 . S
C3494 C3492 1.327 . S
C3494 C3513 1.429 . S
C3494 H3518 0.950 . S
C3495 C3512 1.574 . S
C3495 C3514 1.368 . S
C3495 H3519 0.949 . S
H3496 C3500 0.949 . S
C3497 C3498 1.349 . S
C3497 C3499 1.327 . S
C3497 H3520 0.950 . S
C3498 C3497 1.349 . S
C3498 C3510 1.349 . S
C3499 C3497 1.327 . S
C3499 C3515 1.429 . S
C3499 H3521 0.950 . S
C3500 H3496 0.949 . S
C3500 C3508 1.574 . S
C3500 C3516 1.368 . S
H3501 C3509 0.950 . S
H3502 C3507 0.950 . S
H3503 C3508 0.949 . S
H3504 C3510 0.950 . S
H3505 C3511 0.950 . S
H3506 C3512 0.949 . S
C3507 H3502 0.950 . S
C3507 C3509 1.327 . S
C3507 C3513 1.429 . S
C3508 C3500 1.574 . S
C3508 H3503 0.949 . S
C3508 C3514 1.368 . S
C3509 C3493 1.349 . S
C3509 H3501 0.950 . S
C3509 C3507 1.327 . S
C3510 C3498 1.349 . S
C3510 H3504 0.950 . S
C3510 C3511 1.327 . S
C3511 H3505 0.950 . S
C3511 C3510 1.327 . S
C3511 C3515 1.429 . S
C3512 C3495 1.574 . S
C3512 H3506 0.949 . S
C3512 C3516 1.368 . S
C3513 C3494 1.429 . S
C3513 C3507 1.429 . S
C3513 C3514 1.523 . S
C3514 C3495 1.368 . S
C3514 C3508 1.368 . S
C3514 C3513 1.523 . S
C3515 C3499 1.429 . S
C3515 C3511 1.429 . S
C3515 C3516 1.523 . S
C3516 C3500 1.368 . S
C3516 C3512 1.368 . S
C3516 C3515 1.523 . S
H3517 C3492 0.950 . S
H3518 C3494 0.950 . S
H3519 C3495 0.949 . S
H3520 C3497 0.950 . S
H3521 C3499 0.950 . S
C3522 C3523 1.349 . S
C3522 C3524 1.327 . S
C3522 H3547 0.950 1_554 S
C3523 C3522 1.349 . S
C3523 C3539 1.349 . S
C3524 C3522 1.327 . S
C3524 C3543 1.429 . S
C3524 H3548 0.950 1_554 S
C3525 C3542 1.574 . S
C3525 C3544 1.368 . S
C3525 H3549 0.949 . S
H3526 C3530 0.919 1_556 S
C3527 C3528 1.349 1_545 S
C3527 C3529 1.327 1_545 S
C3527 H3550 0.951 . S
C3528 C3527 1.349 1_565 S
C3528 C3540 1.349 1_554 S
C3529 C3527 1.327 1_565 S
C3529 C3545 1.429 . S
C3529 H3551 0.950 . S
C3530 H3526 0.919 1_554 S
C3530 C3538 1.577 . S
C3530 C3546 1.399 . S
H3531 C3539 0.950 . S
H3532 C3537 0.950 . S
H3533 C3538 0.949 1_556 S
H3534 C3540 0.950 . S
H3535 C3541 0.993 . S
H3536 C3542 0.949 . S
C3537 H3532 0.950 . S
C3537 C3539 1.327 . S
C3537 C3543 1.429 . S
C3538 C3530 1.577 . S
C3538 H3533 0.949 1_554 S
C3538 C3544 1.368 . S
C3539 C3523 1.349 . S
C3539 H3531 0.950 . S
C3539 C3537 1.327 . S
C3540 C3528 1.349 1_556 S
C3540 H3534 0.950 . S
C3540 C3541 1.332 . S
C3541 H3535 0.993 . S
C3541 C3540 1.332 . S
C3541 C3545 1.384 1_556 S
C3542 C3525 1.574 . S
C3542 H3536 0.949 . S
C3542 C3546 1.368 . S
C3543 C3524 1.429 . S
C3543 C3537 1.429 . S
C3543 C3544 1.523 . S
C3544 C3525 1.368 . S
C3544 C3538 1.368 . S
C3544 C3543 1.523 . S
C3545 C3529 1.429 . S
C3545 C3541 1.384 1_554 S
C3545 C3546 1.523 . S
C3546 C3530 1.399 . S
C3546 C3542 1.368 . S
C3546 C3545 1.523 . S
H3547 C3522 0.950 1_556 S
H3548 C3524 0.950 1_556 S
H3549 C3525 0.949 . S
H3550 C3527 0.951 . S
H3551 C3529 0.950 . S
C3552 C3553 1.349 . S
C3552 C3554 1.327 . S
C3552 H3577 0.950 . S
C3553 C3552 1.349 . S
C3553 C3569 1.349 . S
C3554 C3552 1.327 . S
C3554 C3573 1.429 . S
C3554 H3578 0.950 . S
C3555 C3572 1.574 . S
C3555 C3574 1.368 . S
C3555 H3579 0.949 . S
H3556 C3560 0.949 . S
C3557 C3558 1.349 . S
C3557 C3559 1.327 . S
C3557 H3580 0.950 . S
C3558 C3557 1.349 . S
C3558 C3570 1.349 . S
C3559 C3557 1.327 . S
C3559 C3575 1.429 . S
C3559 H3581 0.950 . S
C3560 H3556 0.949 . S
C3560 C3568 1.574 . S
C3560 C3576 1.368 . S
H3561 C3569 0.950 . S
H3562 C3567 0.950 . S
H3563 C3568 0.949 . S
H3564 C3570 0.950 . S
H3565 C3571 0.950 . S
H3566 C3572 0.949 . S
C3567 H3562 0.950 . S
C3567 C3569 1.327 . S
C3567 C3573 1.429 . S
C3568 C3560 1.574 . S
C3568 H3563 0.949 . S
C3568 C3574 1.368 . S
C3569 C3553 1.349 . S
C3569 H3561 0.950 . S
C3569 C3567 1.327 . S
C3570 C3558 1.349 . S
C3570 H3564 0.950 . S
C3570 C3571 1.327 . S
C3571 H3565 0.950 . S
C3571 C3570 1.327 . S
C3571 C3575 1.429 . S
C3572 C3555 1.574 . S
C3572 H3566 0.949 . S
C3572 C3576 1.368 . S
C3573 C3554 1.429 . S
C3573 C3567 1.429 . S
C3573 C3574 1.523 . S
C3574 C3555 1.368 . S
C3574 C3568 1.368 . S
C3574 C3573 1.523 . S
C3575 C3559 1.429 . S
C3575 C3571 1.429 . S
C3575 C3576 1.523 . S
C3576 C3560 1.368 . S
C3576 C3572 1.368 . S
C3576 C3575 1.523 . S
H3577 C3552 0.950 . S
H3578 C3554 0.950 . S
H3579 C3555 0.949 . S
H3580 C3557 0.950 . S
H3581 C3559 0.950 . S
C3582 C3583 1.349 . S
C3582 C3584 1.327 . S
C3582 H3607 0.950 . S
C3583 C3582 1.349 . S
C3583 C3599 1.349 1_556 S
C3584 C3582 1.327 . S
C3584 C3603 1.429 1_556 S
C3584 H3608 0.950 . S
C3585 C3602 1.574 . S
C3585 C3604 1.368 . S
C3585 H3609 0.949 . S
H3586 C3590 0.949 . S
C3587 C3588 1.349 . S
C3587 C3589 1.327 . S
C3587 H3610 0.950 . S
C3588 C3587 1.349 . S
C3588 C3600 1.349 . S
C3589 C3587 1.327 . S
C3589 C3605 1.429 . S
C3589 H3611 0.950 . S
C3590 H3586 0.949 . S
C3590 C3598 1.574 . S
C3590 C3606 1.368 1_556 S
H3591 C3599 0.950 . S
H3592 C3597 0.950 . S
H3593 C3598 0.949 . S
H3594 C3600 0.950 . S
H3595 C3601 0.950 1_556 S
H3596 C3602 0.949 . S
C3597 H3592 0.950 . S
C3597 C3599 1.327 . S
C3597 C3603 1.429 . S
C3598 C3590 1.574 . S
C3598 H3593 0.949 . S
C3598 C3604 1.368 1_556 S
C3599 C3583 1.349 1_554 S
C3599 H3591 0.950 . S
C3599 C3597 1.327 . S
C3600 C3588 1.349 . S
C3600 H3594 0.950 . S
C3600 C3601 1.327 . S
C3601 H3595 0.950 1_554 S
C3601 C3600 1.327 . S
C3601 C3605 1.429 . S
C3602 C3585 1.574 . S
C3602 H3596 0.949 . S
C3602 C3606 1.368 . S
C3603 C3584 1.429 1_554 S
C3603 C3597 1.429 . S
C3603 C3604 1.523 . S
C3604 C3585 1.368 . S
C3604 C3598 1.368 1_554 S
C3604 C3603 1.523 . S
C3605 C3589 1.429 . S
C3605 C3601 1.429 . S
C3605 C3606 1.523 . S
C3606 C3590 1.368 1_554 S
C3606 C3602 1.368 . S
C3606 C3605 1.523 . S
H3607 C3582 0.950 . S
H3608 C3584 0.950 . S
H3609 C3585 0.949 . S
H3610 C3587 0.950 . S
H3611 C3589 0.950 . S
C3612 C3613 1.349 . S
C3612 C3614 1.327 . S
C3612 H3637 0.950 . S
C3613 C3612 1.349 . S
C3613 C3629 1.349 . S
C3614 C3612 1.327 . S
C3614 C3633 1.429 . S
C3614 H3638 0.950 . S
C3615 C3632 1.574 . S
C3615 C3634 1.368 . S
C3615 H3639 0.949 . S
H3616 C3620 0.949 . S
C3617 C3618 1.349 . S
C3617 C3619 1.327 . S
C3617 H3640 0.950 . S
C3618 C3617 1.349 . S
C3618 C3630 1.349 . S
C3619 C3617 1.327 . S
C3619 C3635 1.429 . S
C3619 H3641 0.950 . S
C3620 H3616 0.949 . S
C3620 C3628 1.574 . S
C3620 C3636 1.368 . S
H3621 C3629 0.950 . S
H3622 C3627 0.950 . S
H3623 C3628 0.949 . S
H3624 C3630 0.950 . S
H3625 C3631 0.950 . S
H3626 C3632 0.949 . S
C3627 H3622 0.950 . S
C3627 C3629 1.327 . S
C3627 C3633 1.429 . S
C3628 C3620 1.574 . S
C3628 H3623 0.949 . S
C3628 C3634 1.368 . S
C3629 C3613 1.349 . S
C3629 H3621 0.950 . S
C3629 C3627 1.327 . S
C3630 C3618 1.349 . S
C3630 H3624 0.950 . S
C3630 C3631 1.327 . S
C3631 H3625 0.950 . S
C3631 C3630 1.327 . S
C3631 C3635 1.429 . S
C3632 C3615 1.574 . S
C3632 H3626 0.949 . S
C3632 C3636 1.368 . S
C3633 C3614 1.429 . S
C3633 C3627 1.429 . S
C3633 C3634 1.523 . S
C3634 C3615 1.368 . S
C3634 C3628 1.368 . S
C3634 C3633 1.523 . S
C3635 C3619 1.429 . S
C3635 C3631 1.429 . S
C3635 C3636 1.523 . S
C3636 C3620 1.368 . S
C3636 C3632 1.368 . S
C3636 C3635 1.523 . S
H3637 C3612 0.950 . S
H3638 C3614 0.950 . S
H3639 C3615 0.949 . S
H3640 C3617 0.950 . S
H3641 C3619 0.950 . S
C3642 C3643 1.349 . S
C3642 C3644 1.327 . S
C3642 H3667 0.950 . S
C3643 C3642 1.349 . S
C3643 C3659 1.349 . S
C3644 C3642 1.327 . S
C3644 C3663 1.429 . S
C3644 H3668 0.950 . S
C3645 C3662 1.574 . S
C3645 C3664 1.368 . S
C3645 H3669 0.949 . S
H3646 C3650 0.949 . S
C3647 C3648 1.349 . S
C3647 C3649 1.327 . S
C3647 H3670 0.950 . S
C3648 C3647 1.349 . S
C3648 C3660 1.349 . S
C3649 C3647 1.327 . S
C3649 C3665 1.429 . S
C3649 H3671 0.950 . S
C3650 H3646 0.949 . S
C3650 C3658 1.574 . S
C3650 C3666 1.368 . S
H3651 C3659 0.950 . S
H3652 C3657 0.950 . S
H3653 C3658 0.949 . S
H3654 C3660 0.950 . S
H3655 C3661 0.950 . S
H3656 C3662 0.949 . S
C3657 H3652 0.950 . S
C3657 C3659 1.327 . S
C3657 C3663 1.429 . S
C3658 C3650 1.574 . S
C3658 H3653 0.949 . S
C3658 C3664 1.368 . S
C3659 C3643 1.349 . S
C3659 H3651 0.950 . S
C3659 C3657 1.327 . S
C3660 C3648 1.349 . S
C3660 H3654 0.950 . S
C3660 C3661 1.327 . S
C3661 H3655 0.950 . S
C3661 C3660 1.327 . S
C3661 C3665 1.429 . S
C3662 C3645 1.574 . S
C3662 H3656 0.949 . S
C3662 C3666 1.368 . S
C3663 C3644 1.429 . S
C3663 C3657 1.429 . S
C3663 C3664 1.523 . S
C3664 C3645 1.368 . S
C3664 C3658 1.368 . S
C3664 C3663 1.523 . S
C3665 C3649 1.429 . S
C3665 C3661 1.429 . S
C3665 C3666 1.523 . S
C3666 C3650 1.368 . S
C3666 C3662 1.368 . S
C3666 C3665 1.523 . S
H3667 C3642 0.950 . S
H3668 C3644 0.950 . S
H3669 C3645 0.949 . S
H3670 C3647 0.950 . S
H3671 C3649 0.950 . S
C798 C313 1.898 . S
C793 C10 1.927 . S
C823 C23 1.139 . S
C828 C358 1.136 . S
C853 C36 1.855 . S
C858 C382 1.830 . S
C888 N408 1.089 . S
C883 C42 1.088 . S
C913 C18 1.147 . S
C918 N438 1.142 1_455 S
C948 C472 1.752 . S
C943 C31 1.776 . S
C978 C508 1.285 . S
C973 C43 1.291 . S
C1003 C5 1.896 . S
C1008 C532 1.870 . S
C1033 C56 1.024 . S
C1038 N326 1.022 . S
C1063 C70 1.157 . S
C1068 N348 1.160 . S
C1098 C388 1.164 . S
C1093 C82 1.167 . S
C1128 C412 1.946 . S
C1123 C96 1.973 . S
C1153 C57 1.393 . S
C1158 C442 1.367 . S
C1188 C478 1.231 . S
C1183 C69 1.234 . S
C1218 N498 1.148 . S
C1213 C83 1.147 . S
C1248 C538 1.847 . S
C1243 C95 1.862 . S
C1278 C339 1.768 . S
C1273 C94 1.786 . S
C1308 C568 1.131 . S
C1303 C108 1.135 . S
C1333 C122 1.160 . S
C1338 N588 1.161 . S
C1368 C622 1.724 . S
C1363 C140 1.748 . S
C1393 C55 0.982 . S
C1398 N528 0.980 . S
C1428 N378 1.113 1_565 S
C1423 C68 1.111 . S
C1453 C121 1.232 . S
C1458 C658 1.228 . S
C1488 C682 1.208 . S
C1483 C153 1.229 . S
C1513 C161 1.528 . S
C1518 C322 1.506 1_556 S
C1548 C699 0.755 . S
C1543 C174 0.761 . S
C1573 C186 1.437 . S
C1578 C373 1.414 . S
C1603 C200 0.803 . S
C1608 N656 0.804 . S
C1638 N446 0.839 . S
C1633 C172 0.837 . S
C1668 C583 1.340 . S
C1663 C192 1.361 . S
C1698 C519 0.893 . S
C1693 C198 0.896 . S
C1728 C703 1.491 . S
C1723 C159 1.512 . S
C1758 N318 0.768 . S
C1753 C211 0.768 . S
C1783 C225 0.840 . S
C1788 N686 0.842 . S
C1818 C399 0.765 . S
C1813 C239 0.765 . S
C1843 C251 1.574 . S
C1848 C643 1.548 . S
C1873 C218 0.968 . S
C1878 C433 0.956 . S
C1903 C226 0.828 . S
C1908 C609 0.826 . S
C1938 N506 0.841 . S
C1933 C238 0.839 . S
C1963 C252 1.464 . S
C1968 C729 1.453 . S
C1993 C250 1.402 . S
C1998 C328 1.396 . S
C2023 C264 0.740 . S
C2028 C579 0.738 . S
C2053 C276 0.861 . S
C2058 N476 0.864 . S
C2083 C290 1.347 . S
C2088 C613 1.325 . S
C2118 N716 0.717 . S
C2113 C213 0.737 . S
C2148 N386 0.830 . S
C2143 C224 0.827 . S
C2178 C429 0.822 . S
C2173 C283 0.824 . S
C2208 C343 0.785 . S
C2203 C303 0.788 . S
C2233 C29 1.935 . S
C2238 C733 1.905 . S
C2268 C688 1.135 . S
C2263 C49 1.138 . S
C2298 C772 1.836 . S
C2293 C3 1.862 . S
C2323 C16 1.087 1_655 S
C2328 N648 1.088 . S
C2353 C44 1.147 . S
C2358 N558 1.149 1_556 S
C2388 C592 1.746 . S
C2383 C4 1.769 . S
C2418 C628 1.288 . S
C2413 C17 1.292 . S
C2448 C712 1.863 . S
C2443 C30 1.888 . S
C2478 N746 1.023 . S
C2473 C147 1.025 . S
C2503 C107 1.161 1_556 S
C2508 N678 1.163 . S
C2533 C127 1.170 . S
C2538 C778 1.167 1_655 S
C2568 C652 1.950 . S
C2563 C135 1.977 . S
C2598 C562 1.363 . S
C2593 C148 1.389 . S
C2623 C114 1.232 . S
C2628 C598 1.229 . S
C2658 N618 1.142 . S
C2653 C120 1.143 . S
C2683 C134 1.861 . S
C2688 C718 1.846 . S
C2718 C759 1.769 . S
C2713 C133 1.787 . S
C2748 C448 1.135 . S
C2743 C75 1.138 . S
C2778 N468 1.162 . S
C2773 C81 1.161 1_565 S
C2803 C101 1.751 . S
C2808 C502 1.727 . S
C2838 N708 0.980 . S
C2833 C146 0.981 . S
C2863 C109 1.113 . S
C2868 N768 1.121 . S
C2898 C418 1.225 . S
C2893 C88 1.229 . S
C2928 C352 1.205 . S
C2923 C62 1.226 . S
C2953 C187 1.528 . S
C2958 C742 1.506 . S
C2988 C369 0.743 . S
C2983 C199 0.743 . S
C3018 C763 1.414 1_556 S
C3013 C160 1.437 . S
C3043 C173 0.792 . S
C3048 N416 0.787 . S
C3073 C205 0.826 . S
C3078 N566 0.828 . S
C3103 C166 1.362 . S
C3108 C463 1.340 . S
C3133 C179 0.883 . S
C3138 C639 0.880 . S
C3163 C185 1.512 . S
C3168 C523 1.492 . S
C3198 N738 0.770 . S
C3193 C302 0.770 . S
C3223 C270 0.844 . S
C3228 N356 0.841 . S
C3258 C789 0.767 . S
C3253 C278 0.767 . S
C3283 C296 1.578 . S
C3288 C403 1.552 . S
C3313 C309 0.973 . S
C3318 C553 0.961 . S
C3348 C489 0.829 . S
C3343 C263 0.836 . S
C3373 C277 0.843 . S
C3378 N626 0.845 . S
C3408 C549 1.455 . S
C3403 C289 1.465 . S
C3438 C748 1.390 . S
C3433 C291 1.400 . S
C3468 C459 0.739 . S
C3463 C231 0.738 . S
C3493 C237 0.861 . S
C3498 N596 0.864 . S
C3528 C493 1.322 1_565 S
C3523 C257 1.344 . S
C3558 N536 0.717 . S
C3553 C304 0.716 . S
C3583 C265 0.826 . S
C3588 N776 0.827 . S
C3618 C669 0.821 . S
C3613 C244 0.822 . S
C3648 C673 0.782 . S
C3643 C212 0.785 . S
