# Generated by pormake.
# Topology gar, (4,6)-cn, num edge types: 1
# Building blocks:
#     Node 0, Type 0, BuildingBlock: NAHDIM_clean_sbu_0, # of connection points: 4
#     Node 1, Type 0, BuildingBlock: NAHDIM_clean_sbu_0, # of connection points: 4
#     Node 2, Type 0, BuildingBlock: NAHDIM_clean_sbu_0, # of connection points: 4
#     Node 3, Type 0, BuildingBlock: NAHDIM_clean_sbu_0, # of connection points: 4
#     Node 4, Type 0, BuildingBlock: NAHDIM_clean_sbu_0, # of connection points: 4
#     Node 5, Type 0, BuildingBlock: NAHDIM_clean_sbu_0, # of connection points: 4
#     Node 6, Type 0, BuildingBlock: NAHDIM_clean_sbu_0, # of connection points: 4
#     Node 7, Type 0, BuildingBlock: NAHDIM_clean_sbu_0, # of connection points: 4
#     Node 8, Type 0, BuildingBlock: NAHDIM_clean_sbu_0, # of connection points: 4
#     Node 9, Type 0, BuildingBlock: NAHDIM_clean_sbu_0, # of connection points: 4
#     Node 10, Type 0, BuildingBlock: NAHDIM_clean_sbu_0, # of connection points: 4
#     Node 11, Type 0, BuildingBlock: NAHDIM_clean_sbu_0, # of connection points: 4
#     Node 12, Type 0, BuildingBlock: NAHDIM_clean_sbu_0, # of connection points: 4
#     Node 13, Type 0, BuildingBlock: NAHDIM_clean_sbu_0, # of connection points: 4
#     Node 14, Type 0, BuildingBlock: NAHDIM_clean_sbu_0, # of connection points: 4
#     Node 15, Type 0, BuildingBlock: NAHDIM_clean_sbu_0, # of connection points: 4
#     Node 16, Type 0, BuildingBlock: NAHDIM_clean_sbu_0, # of connection points: 4
#     Node 17, Type 0, BuildingBlock: NAHDIM_clean_sbu_0, # of connection points: 4
#     Node 18, Type 0, BuildingBlock: NAHDIM_clean_sbu_0, # of connection points: 4
#     Node 19, Type 0, BuildingBlock: NAHDIM_clean_sbu_0, # of connection points: 4
#     Node 20, Type 0, BuildingBlock: NAHDIM_clean_sbu_0, # of connection points: 4
#     Node 21, Type 0, BuildingBlock: NAHDIM_clean_sbu_0, # of connection points: 4
#     Node 22, Type 0, BuildingBlock: NAHDIM_clean_sbu_0, # of connection points: 4
#     Node 23, Type 0, BuildingBlock: NAHDIM_clean_sbu_0, # of connection points: 4
#     Node 24, Type 1, BuildingBlock: MIFKUJ_clean_sbu_0, # of connection points: 6
#     Node 25, Type 1, BuildingBlock: MIFKUJ_clean_sbu_0, # of connection points: 6
#     Node 26, Type 1, BuildingBlock: MIFKUJ_clean_sbu_0, # of connection points: 6
#     Node 27, Type 1, BuildingBlock: MIFKUJ_clean_sbu_0, # of connection points: 6
#     Node 28, Type 1, BuildingBlock: MIFKUJ_clean_sbu_0, # of connection points: 6
#     Node 29, Type 1, BuildingBlock: MIFKUJ_clean_sbu_0, # of connection points: 6
#     Node 30, Type 1, BuildingBlock: MIFKUJ_clean_sbu_0, # of connection points: 6
#     Node 31, Type 1, BuildingBlock: MIFKUJ_clean_sbu_0, # of connection points: 6
#     Node 32, Type 1, BuildingBlock: MIFKUJ_clean_sbu_0, # of connection points: 6
#     Node 33, Type 1, BuildingBlock: MIFKUJ_clean_sbu_0, # of connection points: 6
#     Node 34, Type 1, BuildingBlock: MIFKUJ_clean_sbu_0, # of connection points: 6
#     Node 35, Type 1, BuildingBlock: MIFKUJ_clean_sbu_0, # of connection points: 6
#     Node 36, Type 1, BuildingBlock: MIFKUJ_clean_sbu_0, # of connection points: 6
#     Node 37, Type 1, BuildingBlock: MIFKUJ_clean_sbu_0, # of connection points: 6
#     Node 38, Type 1, BuildingBlock: MIFKUJ_clean_sbu_0, # of connection points: 6
#     Node 39, Type 1, BuildingBlock: MIFKUJ_clean_sbu_0, # of connection points: 6
#     Edge 40, Type (0, 1), None
#     Edge 41, Type (0, 1), None
#     Edge 42, Type (0, 1), None
#     Edge 43, Type (0, 1), None
#     Edge 44, Type (0, 1), None
#     Edge 45, Type (0, 1), None
#     Edge 46, Type (0, 1), None
#     Edge 47, Type (0, 1), None
#     Edge 48, Type (0, 1), None
#     Edge 49, Type (0, 1), None
#     Edge 50, Type (0, 1), None
#     Edge 51, Type (0, 1), None
#     Edge 52, Type (0, 1), None
#     Edge 53, Type (0, 1), None
#     Edge 54, Type (0, 1), None
#     Edge 55, Type (0, 1), None
#     Edge 56, Type (0, 1), None
#     Edge 57, Type (0, 1), None
#     Edge 58, Type (0, 1), None
#     Edge 59, Type (0, 1), None
#     Edge 60, Type (0, 1), None
#     Edge 61, Type (0, 1), None
#     Edge 62, Type (0, 1), None
#     Edge 63, Type (0, 1), None
#     Edge 64, Type (0, 1), None
#     Edge 65, Type (0, 1), None
#     Edge 66, Type (0, 1), None
#     Edge 67, Type (0, 1), None
#     Edge 68, Type (0, 1), None
#     Edge 69, Type (0, 1), None
#     Edge 70, Type (0, 1), None
#     Edge 71, Type (0, 1), None
#     Edge 72, Type (0, 1), None
#     Edge 73, Type (0, 1), None
#     Edge 74, Type (0, 1), None
#     Edge 75, Type (0, 1), None
#     Edge 76, Type (0, 1), None
#     Edge 77, Type (0, 1), None
#     Edge 78, Type (0, 1), None
#     Edge 79, Type (0, 1), None
#     Edge 80, Type (0, 1), None
#     Edge 81, Type (0, 1), None
#     Edge 82, Type (0, 1), None
#     Edge 83, Type (0, 1), None
#     Edge 84, Type (0, 1), None
#     Edge 85, Type (0, 1), None
#     Edge 86, Type (0, 1), None
#     Edge 87, Type (0, 1), None
#     Edge 88, Type (0, 1), None
#     Edge 89, Type (0, 1), None
#     Edge 90, Type (0, 1), None
#     Edge 91, Type (0, 1), None
#     Edge 92, Type (0, 1), None
#     Edge 93, Type (0, 1), None
#     Edge 94, Type (0, 1), None
#     Edge 95, Type (0, 1), None
#     Edge 96, Type (0, 1), None
#     Edge 97, Type (0, 1), None
#     Edge 98, Type (0, 1), None
#     Edge 99, Type (0, 1), None
#     Edge 100, Type (0, 1), None
#     Edge 101, Type (0, 1), None
#     Edge 102, Type (0, 1), None
#     Edge 103, Type (0, 1), None
#     Edge 104, Type (0, 1), None
#     Edge 105, Type (0, 1), None
#     Edge 106, Type (0, 1), None
#     Edge 107, Type (0, 1), None
#     Edge 108, Type (0, 1), None
#     Edge 109, Type (0, 1), None
#     Edge 110, Type (0, 1), None
#     Edge 111, Type (0, 1), None
#     Edge 112, Type (0, 1), None
#     Edge 113, Type (0, 1), None
#     Edge 114, Type (0, 1), None
#     Edge 115, Type (0, 1), None
#     Edge 116, Type (0, 1), None
#     Edge 117, Type (0, 1), None
#     Edge 118, Type (0, 1), None
#     Edge 119, Type (0, 1), None
#     Edge 120, Type (0, 1), None
#     Edge 121, Type (0, 1), None
#     Edge 122, Type (0, 1), None
#     Edge 123, Type (0, 1), None
#     Edge 124, Type (0, 1), None
#     Edge 125, Type (0, 1), None
#     Edge 126, Type (0, 1), None
#     Edge 127, Type (0, 1), None
#     Edge 128, Type (0, 1), None
#     Edge 129, Type (0, 1), None
#     Edge 130, Type (0, 1), None
#     Edge 131, Type (0, 1), None
#     Edge 132, Type (0, 1), None
#     Edge 133, Type (0, 1), None
#     Edge 134, Type (0, 1), None
#     Edge 135, Type (0, 1), None
# Relax obj value: 0.148
# Max RMSD: 0.374
# Mean RMSD: 0.172
data_MOF--net-gar--node1-NAHDIM_clean_sbu_0--node2-MIFKUJ_clean_sbu_0--edge1-none
_symmetry_space_group_name_H-M    P1
_symmetry_Int_Tables_number       1
_symmetry_cell_setting            triclinic
loop_
_symmetry_equiv_pos_as_xyz
'x, y, z'
_cell_length_a     27.598673
_cell_length_b     26.781151
_cell_length_c     24.730403
_cell_angle_alpha  96.42832
_cell_angle_beta   96.212156
_cell_angle_gamma 102.4204
loop_
_atom_site_label
_atom_site_type_symbol
_atom_site_fract_x
_atom_site_fract_y
_atom_site_fract_z
_atom_type_partial_charge
C0 C 0.14179 0.2945 0.35877 0.0
O1 O 0.10783 0.25989 0.32484 0.0
O2 O 0.07135 0.25853 0.49277 0.0
Zn3 Zn 0.06571 0.30381 0.43396 0.0
O4 O 0.05011 0.37112 0.46314 0.0
C5 C 0.98508 0.28199 0.34129 0.0
O6 O 0.99877 0.33061 0.33413 0.0
O7 O 0.13056 0.31605 0.40271 0.0
C8 C 0.0695 0.39726 0.50944 0.0
O9 O 0.10182 0.3806 0.5416 0.0
C10 C 0.03305 0.22642 0.50211 0.0
O11 O 0.98854 0.22705 0.47771 0.0
O12 O 0.0095 0.26437 0.37808 0.0
C13 C 0.93411 0.75762 0.737 0.0
O14 O 0.8981 0.73191 0.69849 0.0
O15 O 1.00628 0.6782 0.62941 0.0
Zn16 Zn 0.0155 0.75259 0.6622 0.0
O17 O 1.00077 0.79996 0.60751 0.0
C18 C 0.12098 0.75871 0.66721 0.0
O19 O 0.107 0.72807 0.62032 0.0
O20 O 0.97954 0.76611 0.72803 0.0
C21 C 0.03276 0.82393 0.58041 0.0
O22 O 0.07763 0.81464 0.5826 0.0
C23 C 1.00186 0.66117 0.57854 0.0
O24 O 0.9944 0.69117 0.54148 0.0
O25 O 0.08852 0.77496 0.69251 0.0
C26 C 0.64179 0.7945 0.85877 0.0
O27 O 0.60783 0.75989 0.82484 0.0
O28 O 0.57135 0.75853 -0.00723 0.0
Zn29 Zn 0.56571 0.80381 0.93396 0.0
O30 O 0.55011 0.87112 0.96314 0.0
C31 C 0.48508 0.78199 0.84129 0.0
O32 O 0.49877 0.83061 0.83413 0.0
O33 O 0.63056 0.81606 0.90271 0.0
C34 C 0.56951 0.89726 0.00944 0.0
O35 O 0.60182 0.8806 0.0416 0.0
C36 C 0.53305 0.72643 0.00211 0.0
O37 O 0.48854 0.72705 0.97771 0.0
O38 O 0.5095 0.76437 0.87808 0.0
C39 C 0.43411 0.25762 0.23699 0.0
O40 O 0.3981 0.23192 0.19849 0.0
O41 O 0.50628 0.1782 0.12941 0.0
Zn42 Zn 0.51549 0.25259 0.1622 0.0
O43 O 0.50076 0.29996 0.10751 0.0
C44 C 0.62098 0.25871 0.16721 0.0
O45 O 0.607 0.22807 0.12032 0.0
O46 O 0.47954 0.26611 0.22803 0.0
C47 C 0.53276 0.32393 0.08041 0.0
O48 O 0.57762 0.31464 0.0826 0.0
C49 C 0.50186 0.16118 0.07854 0.0
O50 O 0.4944 0.19117 0.04148 0.0
O51 O 0.58852 0.27496 0.1925 0.0
C52 C 0.96823 0.81623 0.2096 0.0
O53 O 0.97447 0.83088 0.16151 0.0
O54 O 0.03843 0.72804 0.15297 0.0
Zn55 Zn 0.06174 0.79774 0.19836 0.0
O56 O 0.07836 0.85781 0.15605 0.0
C57 C 0.15702 0.7889 0.22748 0.0
O58 O 0.14949 0.77885 0.17368 0.0
O59 O 1.00338 0.80282 0.23744 0.0
C60 C 0.06526 0.86611 0.10757 0.0
O61 O 0.03509 0.82967 0.07185 0.0
C62 C 0.0475 0.70327 0.10988 0.0
O63 O 0.08152 0.72476 0.0811 0.0
O64 O 0.12206 0.79949 0.25247 0.0
C65 C 0.60475 0.73609 0.36236 0.0
O66 O 0.60202 0.72375 0.41193 0.0
O67 O 0.49826 0.67983 0.41525 0.0
Zn68 Zn 0.51034 0.74458 0.37974 0.0
O69 O 0.53689 0.80891 0.43346 0.0
C70 C 0.41759 0.77058 0.35286 0.0
O71 O 0.43023 0.79368 0.40365 0.0
O72 O 0.56665 0.74503 0.33512 0.0
C73 C 0.53016 0.82785 0.48066 0.0
O74 O 0.49597 0.80291 0.50709 0.0
C75 C 0.51402 0.66993 0.46224 0.0
O76 O 0.54272 0.70638 0.49911 0.0
O77 O 0.44698 0.74641 0.33119 0.0
C78 C 0.46823 0.31623 0.7096 0.0
O79 O 0.47447 0.33088 0.66152 0.0
O80 O 0.53843 0.22804 0.65297 0.0
Zn81 Zn 0.56175 0.29774 0.69836 0.0
O82 O 0.57836 0.35781 0.65605 0.0
C83 C 0.65702 0.2889 0.72748 0.0
O84 O 0.64949 0.27884 0.67368 0.0
O85 O 0.50338 0.30282 0.73744 0.0
C86 C 0.56526 0.36611 0.60758 0.0
O87 O 0.5351 0.32967 0.57186 0.0
C88 C 0.5475 0.20327 0.60988 0.0
O89 O 0.58152 0.22476 0.5811 0.0
O90 O 0.62206 0.29949 0.75247 0.0
C91 C 0.10475 0.23609 0.86236 0.0
O92 O 0.10202 0.22375 0.91193 0.0
O93 O 0.99827 0.17983 0.91525 0.0
Zn94 Zn 0.01034 0.24458 0.87974 0.0
O95 O 0.03689 0.30891 0.93346 0.0
C96 C 0.9176 0.27058 0.85286 0.0
O97 O 0.93023 0.29369 0.90365 0.0
O98 O 0.06666 0.24503 0.83512 0.0
C99 C 0.03016 0.32785 0.98066 0.0
O100 O 0.99597 0.30291 0.00709 0.0
C101 C 0.01402 0.16993 0.96224 0.0
O102 O 0.04272 0.20638 -0.00089 0.0
O103 O 0.94698 0.24641 0.83119 0.0
C104 C 0.36567 0.09156 0.29647 0.0
O105 O 0.36713 0.06635 0.2482 0.0
O106 O 0.46242 0.04355 0.26828 0.0
Zn107 Zn 0.42598 0.02519 0.33073 0.0
O108 O 0.47107 0.02693 0.40079 0.0
C109 C 0.39995 0.92375 0.27603 0.0
O110 O 0.44586 0.93884 0.26513 0.0
O111 O 0.38585 0.07847 0.33973 0.0
C112 C 0.50776 0.00551 0.40698 0.0
O113 O 0.51838 0.97669 0.3655 0.0
C114 C 0.50683 0.04702 0.25804 0.0
O115 O 0.54195 0.04033 0.29473 0.0
O116 O 0.38144 0.95427 0.3063 0.0
C117 C 0.36564 0.11193 0.48254 0.0
O118 O 0.37156 0.15846 0.46846 0.0
O119 O 0.29335 0.17344 0.57155 0.0
Zn120 Zn 0.27016 0.13212 0.49556 0.0
O121 O 0.27134 0.17633 0.43112 0.0
C122 C 0.17302 0.09295 0.52985 0.0
O123 O 0.18942 0.13392 0.5668 0.0
O124 O 0.32286 0.08918 0.49259 0.0
C125 C 0.28996 0.22441 0.43099 0.0
O126 O 0.31169 0.2536 0.47713 0.0
C127 C 0.28392 0.21158 0.60056 0.0
O128 O 0.2515 0.23643 0.58048 0.0
O129 O 0.20042 0.08328 0.49357 0.0
C130 C 0.20278 0.95317 0.83718 0.0
O131 O 0.16226 0.94468 0.86129 0.0
O132 O 0.11749 0.00387 0.7485 0.0
Zn133 Zn 0.16433 0.04031 0.81557 0.0
O134 O 0.12622 0.03881 0.88386 0.0
C135 C 0.24508 0.13287 0.80571 0.0
O136 O 0.27683 0.1068 0.82469 0.0
O137 O 0.21521 0.99534 0.81782 0.0
C138 C 0.08055 0.01672 0.88631 0.0
O139 O 0.05146 0.99232 0.84141 0.0
C140 C 0.0952 0.02337 0.71159 0.0
O141 O 0.09792 0.07327 0.71738 0.0
O142 O 0.19802 0.11331 0.80075 0.0
C143 C 0.23361 0.96857 0.04016 0.0
O144 O 0.25814 0.97296 0.08965 0.0
O145 O 0.27752 0.85597 0.06822 0.0
Zn146 Zn 0.29561 0.89573 0.00691 0.0
O147 O 0.28871 0.84854 0.93475 0.0
C148 C 0.39722 0.91755 0.05873 0.0
O149 O 0.38224 0.87035 0.06949 0.0
O150 O 0.24524 0.94097 0.00031 0.0
C151 C 0.31284 0.81395 0.92395 0.0
O152 O 0.34835 0.8077 0.96053 0.0
C153 C 0.28337 0.81209 0.07847 0.0
O154 O 0.3003 0.78202 0.04331 0.0
O155 O 0.36716 0.93773 0.03036 0.0
C156 C 0.21578 0.4258 0.10841 0.0
O157 O 0.21376 0.38028 0.12412 0.0
O158 O 0.31098 0.36158 0.14105 0.0
Zn159 Zn 0.30703 0.4064 0.07846 0.0
O160 O 0.27906 0.36739 0.0024 0.0
C161 C 0.39727 0.45403 0.03496 0.0
O162 O 0.37627 0.42037 0.99176 0.0
O163 O 0.25487 0.44816 0.09019 0.0
C164 C 0.29017 0.33327 0.96909 0.0
O165 O 0.32769 0.31234 0.98329 0.0
C166 C 0.2986 0.31296 0.14236 0.0
O167 O 0.2807 0.28117 0.09678 0.0
O168 O 0.37514 0.4559 0.07746 0.0
C169 C 0.85405 0.07349 0.03335 0.0
O170 O 0.82503 0.06625 0.98612 0.0
O171 O 0.80375 0.20034 0.13919 0.0
Zn172 Zn 0.7959 0.14916 0.07 0.0
O173 O 0.80688 0.18705 0.00635 0.0
C174 C 0.69006 0.13233 0.06428 0.0
O175 O 0.70326 0.17875 0.0924 0.0
O176 O 0.84673 0.1041 0.0735 0.0
C177 C 0.78216 0.21918 0.99146 0.0
O178 O 0.74914 0.23275 0.02085 0.0
C179 C 0.81854 0.24944 0.14712 0.0
O180 O 0.83492 0.27434 0.10749 0.0
O181 O 0.72361 0.10828 0.05309 0.0
C182 C 0.2331 0.45722 0.28979 0.0
O183 O 0.24009 0.4883 0.33635 0.0
O184 O 0.11228 0.51278 0.18807 0.0
Zn185 Zn 0.15938 0.51399 0.25749 0.0
O186 O 0.12178 0.49763 0.31985 0.0
C187 C 0.18246 0.62272 0.27248 0.0
O188 O 0.13738 0.61341 0.24489 0.0
O189 O 0.20212 0.46246 0.2499 0.0
C190 C 0.09339 0.52466 0.33887 0.0
O191 O 0.08427 0.56355 0.31491 0.0
C192 C 0.06462 0.50465 0.18076 0.0
O193 O 0.03873 0.49128 0.22041 0.0
O194 O 0.20278 0.58551 0.28056 0.0
C195 C 0.71578 0.9258 0.6084 0.0
O196 O 0.71376 0.88028 0.62412 0.0
O197 O 0.81098 0.86158 0.64104 0.0
Zn198 Zn 0.80703 0.9064 0.57846 0.0
O199 O 0.77906 0.8674 0.50239 0.0
C200 C 0.89727 0.95402 0.53496 0.0
O201 O 0.87629 0.92034 0.49178 0.0
O202 O 0.75488 0.94816 0.59018 0.0
C203 C 0.79017 0.83327 0.46908 0.0
O204 O 0.82767 0.81232 0.48329 0.0
C205 C 0.7986 0.81296 0.64236 0.0
O206 O 0.7807 0.78117 0.59678 0.0
O207 O 0.87514 0.9559 0.57746 0.0
C208 C 0.88784 0.09685 0.21739 0.0
O209 O 0.93073 0.10016 0.19817 0.0
O210 O 0.95454 1.00097 0.17975 0.0
Zn211 Zn 0.91542 0.00711 0.24673 0.0
O212 O 0.96378 0.044 0.31325 0.0
C213 C 0.82845 0.91892 0.25889 0.0
O214 O 0.79814 0.94499 0.23681 0.0
O215 O 0.86957 0.05674 0.23799 0.0
C216 C 0.98087 0.02281 0.35213 0.0
O217 O 0.96987 0.97227 0.34894 0.0
C218 C 1.00046 0.02225 0.17749 0.0
O219 O 0.02845 0.04999 0.22149 0.0
O220 O 0.87587 0.93704 0.26463 0.0
C221 C 0.35405 0.57349 0.53335 0.0
O222 O 0.32503 0.56625 0.48612 0.0
O223 O 0.30375 0.70034 0.63919 0.0
Zn224 Zn 0.2959 0.64916 0.57001 0.0
O225 O 0.30688 0.68705 0.50635 0.0
C226 C 0.19006 0.63233 0.56428 0.0
O227 O 0.20326 0.67874 0.5924 0.0
O228 O 0.34672 0.6041 0.5735 0.0
C229 C 0.28215 0.71918 0.49146 0.0
O230 O 0.24913 0.73275 0.52085 0.0
C231 C 0.31854 0.74944 0.64712 0.0
O232 O 0.33491 0.77434 0.60749 0.0
O233 O 0.2236 0.60828 0.55309 0.0
C234 C 0.38784 0.59685 0.71739 0.0
O235 O 0.43073 0.60016 0.69817 0.0
O236 O 0.45455 0.50097 0.67975 0.0
Zn237 Zn 0.41542 0.50711 0.74673 0.0
O238 O 0.46378 0.544 0.81325 0.0
C239 C 0.32846 0.41892 0.75889 0.0
O240 O 0.29814 0.44499 0.73681 0.0
O241 O 0.36957 0.55674 0.73799 0.0
C242 C 0.48087 0.52281 0.85213 0.0
O243 O 0.46987 0.47227 0.84894 0.0
C244 C 0.50046 0.52225 0.67749 0.0
O245 O 0.52845 0.54999 0.72149 0.0
O246 O 0.37587 0.43704 0.76463 0.0
C247 C 0.7331 0.95723 0.78979 0.0
O248 O 0.74009 0.98831 0.83635 0.0
O249 O 0.61229 0.01279 0.68807 0.0
Zn250 Zn 0.65939 0.01399 0.75749 0.0
O251 O 0.62179 0.99763 0.81985 0.0
C252 C 0.68246 0.12272 0.77248 0.0
O253 O 0.63739 0.11341 0.74489 0.0
O254 O 0.70213 0.96246 0.7499 0.0
C255 C 0.59339 0.02466 0.83887 0.0
O256 O 0.58427 0.06355 0.81491 0.0
C257 C 0.56463 0.00466 0.68076 0.0
O258 O 0.53873 0.99128 0.72041 0.0
O259 O 0.70279 0.08551 0.78056 0.0
C260 C 0.86564 0.61193 0.98254 0.0
O261 O 0.87156 0.65846 0.96846 0.0
O262 O 0.79334 0.67345 0.07155 0.0
Zn263 Zn 0.77016 0.63212 -0.00444 0.0
O264 O 0.77134 0.67633 0.93112 0.0
C265 C 0.67302 0.59295 0.02985 0.0
O266 O 0.68942 0.63391 0.06681 0.0
O267 O 0.82286 0.58918 -0.00741 0.0
C268 C 0.78995 0.72441 0.93099 0.0
O269 O 0.81169 0.7536 0.97713 0.0
C270 C 0.78392 0.71158 0.10056 0.0
O271 O 0.75149 0.73643 0.08048 0.0
O272 O 0.70042 0.58328 -0.00643 0.0
C273 C 0.86567 0.59156 0.79647 0.0
O274 O 0.86713 0.56635 0.7482 0.0
O275 O 0.96242 0.54355 0.76829 0.0
Zn276 Zn 0.92598 0.52519 0.83073 0.0
O277 O 0.97107 0.52693 0.90079 0.0
C278 C 0.89994 0.42375 0.77602 0.0
O279 O 0.94586 0.43884 0.76512 0.0
O280 O 0.88585 0.57847 0.83973 0.0
C281 C 0.00776 0.50551 0.90698 0.0
O282 O 0.01837 0.47668 0.86551 0.0
C283 C 1.00683 0.54702 0.75804 0.0
O284 O 0.04195 0.54031 0.79473 0.0
O285 O 0.88144 0.45427 0.8063 0.0
C286 C 0.73361 0.46857 0.54016 0.0
O287 O 0.75814 0.47296 0.58965 0.0
O288 O 0.77752 0.35597 0.56822 0.0
Zn289 Zn 0.79561 0.39572 0.50691 0.0
O290 O 0.78871 0.34854 0.43475 0.0
C291 C 0.89721 0.41755 0.55873 0.0
O292 O 0.88224 0.37034 0.56949 0.0
O293 O 0.74524 0.44097 0.50031 0.0
C294 C 0.81284 0.31395 0.42394 0.0
O295 O 0.84834 0.3077 0.46053 0.0
C296 C 0.78336 0.31208 0.57847 0.0
O297 O 0.8003 0.28202 0.54331 0.0
O298 O 0.86716 0.43772 0.53036 0.0
C299 C 0.70278 0.45317 0.33718 0.0
O300 O 0.66226 0.44468 0.36129 0.0
O301 O 0.61749 0.50387 0.2485 0.0
Zn302 Zn 0.66433 0.54031 0.31557 0.0
O303 O 0.62621 0.53881 0.38386 0.0
C304 C 0.74507 0.63287 0.30571 0.0
O305 O 0.77683 0.6068 0.32469 0.0
O306 O 0.71521 0.49534 0.31782 0.0
C307 C 0.58055 0.51672 0.38631 0.0
O308 O 0.55146 0.49232 0.34141 0.0
C309 C 0.5952 0.52337 0.21159 0.0
O310 O 0.59791 0.57327 0.21738 0.0
O311 O 0.69802 0.61331 0.30075 0.0
Zn312 Zn 0.09617 0.00955 0.05557 0.0
Zn313 Zn 0.98648 0.02533 0.01043 0.0
C314 C 0.08118 0.9188 0.09511 0.0
O315 O 0.11013 0.95349 0.13359 0.0
C316 C 1.00117 0.11634 0.97256 0.0
O317 O 0.97265 0.08184 0.93359 0.0
O318 O 0.17069 0.00977 0.072 0.0
O319 O 0.09175 0.03798 0.98292 0.0
O320 O 0.01618 0.99501 0.94438 0.0
C321 C 0.18678 0.98642 0.03223 0.0
O322 O 0.15704 0.97034 0.98555 0.0
O323 O 0.06585 0.93291 0.05007 0.0
C324 C 0.90019 0.05408 0.03769 0.0
O325 O 0.93334 0.07135 0.08161 0.0
O326 O 0.91221 0.02747 -0.00281 0.0
O327 O 0.99154 0.99499 0.08185 0.0
O328 O 0.0657 0.04136 0.12003 0.0
O329 O 0.01716 0.10179 0.0171 0.0
C330 C 0.06151 0.01646 0.94018 0.0
C331 C 0.02068 0.01907 0.12433 0.0
Zn332 Zn 0.26919 0.76916 0.34123 0.0
Zn333 Zn 0.30283 0.77858 0.23547 0.0
C334 C 0.20422 0.67414 0.30208 0.0
O335 O 0.17458 0.70093 0.32344 0.0
C336 C 0.37184 0.87143 0.25429 0.0
O337 O 0.39393 0.84032 0.22632 0.0
O338 O 0.25879 0.76321 0.41851 0.0
O339 O 0.34284 0.79899 0.34681 0.0
O340 O 0.35122 0.74444 0.27722 0.0
C341 C 0.28665 0.73566 0.43803 0.0
O342 O 0.31613 0.7169 0.40715 0.0
O343 O 0.25056 0.69466 0.30479 0.0
C344 C 0.28142 0.8016 0.13448 0.0
O345 O 0.25898 0.82913 0.16639 0.0
O346 O 0.30802 0.77347 0.15544 0.0
O347 O 0.22876 0.75595 0.23211 0.0
O348 O 0.22093 0.80648 0.30516 0.0
O349 O 0.32742 0.85455 0.26392 0.0
C350 C 0.36895 0.77172 0.32348 0.0
C351 C 0.20421 0.78406 0.25668 0.0
Zn352 Zn 0.48342 0.04948 0.55129 0.0
Zn353 Zn 0.59107 0.97917 0.54666 0.0
C354 C 0.5192 0.14985 0.59425 0.0
O355 O 0.48237 0.13203 0.62148 0.0
C356 C 0.56004 0.87948 0.50265 0.0
O357 O 0.59754 0.89961 0.47741 0.0
O358 O 0.41272 0.05917 0.52775 0.0
O359 O 0.5024 0.99569 0.49878 0.0
O360 O 0.57515 0.99679 0.47051 0.0
C361 C 0.41009 0.0905 0.49286 0.0
O362 O 0.45084 0.11113 0.47305 0.0
O363 O 0.53006 0.11967 0.55649 0.0
C364 C 0.66972 0.94488 0.60263 0.0
O365 O 0.63101 0.92136 0.62396 0.0
O366 O 0.66349 0.97617 0.56875 0.0
O367 O 0.56622 0.031 0.59322 0.0
O368 O 0.49643 0.02727 0.62729 0.0
O369 O 0.548 0.90731 0.54165 0.0
C370 C 0.53106 0.0044 0.46239 0.0
C371 C 0.54053 0.01949 0.63124 0.0
Zn372 Zn 0.33347 0.27218 0.76907 0.0
Zn373 Zn 0.23744 0.28093 0.79841 0.0
C374 C 0.30748 0.22449 0.65808 0.0
O375 O 0.34076 0.19965 0.67609 0.0
C376 C 0.26392 0.32261 0.91263 0.0
O377 O 0.2274 0.34531 0.89973 0.0
O378 O 0.40492 0.27734 0.75912 0.0
O379 O 0.33704 0.34553 0.80155 0.0
O380 O 0.26319 0.34251 0.7577 0.0
C381 C 0.41914 0.31011 0.72733 0.0
O382 O 0.387 0.33377 0.70446 0.0
O383 O 0.29553 0.25817 0.69124 0.0
C384 C 0.15257 0.24219 0.8414 0.0
O385 O 0.18533 0.21799 0.86193 0.0
O386 O 0.16581 0.27579 0.81011 0.0
O387 O 0.23399 0.20729 0.76603 0.0
O388 O 0.30832 0.21082 0.80929 0.0
O389 O 0.27718 0.29366 0.87544 0.0
C390 C 0.30803 0.3675 0.77469 0.0
C391 C 0.26373 0.18543 0.79209 0.0
Zn392 Zn 0.04939 0.97456 0.53923 0.0
Zn393 Zn 0.01974 0.0702 0.52562 0.0
C394 C 0.07627 0.99133 0.65842 0.0
O395 O 0.08585 0.9454 0.65014 0.0
C396 C 1.0037 0.05503 0.40438 0.0
O397 O 0.00865 0.10525 0.40898 0.0
O398 O 0.05919 0.9022 0.54418 0.0
O399 O 0.97697 0.96347 0.50656 0.0
O400 O 0.96589 0.02773 0.56339 0.0
C401 C 0.02322 0.86966 0.55783 0.0
O402 O 0.98072 0.88275 0.56368 0.0
O403 O 0.05847 0.01051 0.61817 0.0
C404 C 0.04027 0.18144 0.52779 0.0
O405 O 0.08571 0.17938 0.54774 0.0
O406 O 1.0054 0.14056 0.51919 0.0
O407 O 0.09262 0.08271 0.55658 0.0
O408 O 0.10569 0.0169 0.50351 0.0
O409 O 0.00985 0.03371 0.44712 0.0
C410 C 0.94882 0.98333 0.53546 0.0
C411 C 0.12163 0.06245 0.52933 0.0
Zn412 Zn 0.26097 0.83612 0.76188 0.0
Zn413 Zn 0.33638 0.72525 0.78129 0.0
C414 C 0.17406 0.78008 0.68576 0.0
O415 O 0.20518 0.78524 0.64924 0.0
C416 C 0.43589 0.75062 0.81719 0.0
O417 O 0.41864 0.70766 0.83683 0.0
O418 O 0.25426 0.90939 0.78596 0.0
O419 O 0.2888 0.80741 0.82851 0.0
O420 O 0.32318 0.74632 0.85824 0.0
C421 C 0.22671 0.91002 0.82416 0.0
O422 O 0.2114 0.86719 0.84482 0.0
O423 O 0.18943 0.79743 0.73609 0.0
C424 C 0.36763 0.64332 0.72379 0.0
O425 O 0.38861 0.68316 0.70124 0.0
O426 O 0.33871 0.64974 0.75954 0.0
O427 O 0.28891 0.7513 0.73245 0.0
O428 O 0.29982 0.82312 0.69763 0.0
O429 O 0.40634 0.76799 0.78525 0.0
C430 C 0.30661 0.78698 0.86787 0.0
C431 C 0.30588 0.77723 0.6962 0.0
Zn432 Zn 0.54587 0.03953 0.9916 0.0
Zn433 Zn 0.53767 0.02343 0.10018 0.0
C434 C 0.63838 0.1135 0.0375 0.0
O435 O 0.61356 0.14655 0.01996 0.0
C436 C 0.44833 0.94592 0.08036 0.0
O437 O 0.47745 0.924 0.11072 0.0
O438 O 0.55236 0.04643 0.91379 0.0
O439 O 0.52625 0.96285 -0.00631 0.0
O440 O 0.57928 0.97605 0.06927 0.0
C441 C 0.57741 0.01712 0.89191 0.0
O442 O 0.59492 0.98481 0.92042 0.0
O443 O 0.61745 0.06578 0.03049 0.0
C444 C 0.51482 0.04861 0.20139 0.0
O445 O 0.48405 0.06694 0.169 0.0
O446 O 0.54414 0.02375 0.18069 0.0
O447 O 0.54822 0.0989 0.09541 0.0
O448 O 0.50049 0.08571 0.01631 0.0
O449 O 0.46534 0.99107 0.06971 0.0
C450 C 0.55733 0.94709 0.02538 0.0
C451 C 0.51629 0.11252 0.06293 0.0
Zn452 Zn 0.31392 0.22424 0.27136 0.0
Zn453 Zn 0.283 0.32477 0.31126 0.0
C454 C 0.42295 0.28289 0.28873 0.0
O455 O 0.45917 0.31672 0.32073 0.0
C456 C 0.19403 0.30766 0.34893 0.0
O457 O 0.22702 0.3372 0.38821 0.0
O458 O 0.33073 0.15514 0.25715 0.0
O459 O 0.27136 0.21701 0.33357 0.0
O460 O 0.31155 0.29346 0.37682 0.0
C461 C 0.34709 0.1387 0.30019 0.0
O462 O 0.35211 0.16713 0.34811 0.0
O463 O 0.37941 0.27418 0.30331 0.0
C464 C 0.25352 0.41103 0.28615 0.0
O465 O 0.23773 0.37628 0.24245 0.0
O466 O 0.2797 0.40002 0.32702 0.0
O467 O 0.31353 0.32611 0.23948 0.0
O468 O 0.28641 0.24583 0.20001 0.0
O469 O 0.20864 0.29196 0.3042 0.0
C470 C 0.29012 0.24638 0.3784 0.0
C471 C 0.30014 0.29359 0.19619 0.0
Zn472 Zn 0.54939 0.47456 0.03922 0.0
Zn473 Zn 0.51974 0.5702 0.02563 0.0
C474 C 0.57627 0.49133 0.15842 0.0
O475 O 0.58586 0.44541 0.15014 0.0
C476 C 0.5037 0.55504 0.90438 0.0
O477 O 0.50865 0.60525 0.90898 0.0
O478 O 0.55919 0.4022 0.04418 0.0
O479 O 0.47696 0.46348 0.00656 0.0
O480 O 0.46589 0.52773 0.06339 0.0
C481 C 0.52321 0.36966 0.05783 0.0
O482 O 0.48072 0.38275 0.06368 0.0
O483 O 0.55847 0.51051 0.11816 0.0
C484 C 0.54027 0.68144 0.02779 0.0
O485 O 0.58572 0.67939 0.04774 0.0
O486 O 0.5054 0.64057 0.01919 0.0
O487 O 0.59262 0.58271 0.05659 0.0
O488 O 0.60568 0.5169 0.00351 0.0
O489 O 0.50985 0.53371 0.94712 0.0
C490 C 0.44882 0.48334 0.03546 0.0
C491 C 0.62162 0.56245 0.02934 0.0
Zn492 Zn 0.76097 0.33612 0.26188 0.0
Zn493 Zn 0.83638 0.22525 0.28129 0.0
C494 C 0.67406 0.28008 0.18576 0.0
O495 O 0.70518 0.28524 0.14923 0.0
C496 C 0.93589 0.25062 0.31719 0.0
O497 O 0.91864 0.20766 0.33683 0.0
O498 O 0.75426 0.40939 0.28596 0.0
O499 O 0.78879 0.30741 0.3285 0.0
O500 O 0.82318 0.24632 0.35824 0.0
C501 C 0.72671 0.41002 0.32416 0.0
O502 O 0.7114 0.36719 0.34482 0.0
O503 O 0.68942 0.29743 0.23609 0.0
C504 C 0.86763 0.14332 0.22379 0.0
O505 O 0.88861 0.18316 0.20124 0.0
O506 O 0.83871 0.14974 0.25954 0.0
O507 O 0.78891 0.2513 0.23245 0.0
O508 O 0.79982 0.32312 0.19763 0.0
O509 O 0.90634 0.26799 0.28525 0.0
C510 C 0.80661 0.28698 0.36787 0.0
C511 C 0.80588 0.27723 0.1962 0.0
Zn512 Zn 0.04587 0.53953 0.4916 0.0
Zn513 Zn 0.03767 0.52342 0.60018 0.0
C514 C 0.13838 0.6135 0.5375 0.0
O515 O 0.11356 0.64655 0.51996 0.0
C516 C 0.94833 0.44592 0.58036 0.0
O517 O 0.97745 0.424 0.61072 0.0
O518 O 0.05236 0.54643 0.4138 0.0
O519 O 0.02625 0.46285 0.49369 0.0
O520 O 0.07928 0.47605 0.56927 0.0
C521 C 0.07741 0.51712 0.39191 0.0
O522 O 0.09492 0.4848 0.42042 0.0
O523 O 0.11745 0.56578 0.53049 0.0
C524 C 0.01482 0.54861 0.70139 0.0
O525 O 0.98405 0.56694 0.66901 0.0
O526 O 0.04414 0.52375 0.68069 0.0
O527 O 0.04822 0.5989 0.59541 0.0
O528 O 1.00049 0.58571 0.51631 0.0
O529 O 0.96534 0.49107 0.56971 0.0
C530 C 0.05733 0.44708 0.52538 0.0
C531 C 0.01629 0.61252 0.56293 0.0
Zn532 Zn 0.83347 0.77218 0.26907 0.0
Zn533 Zn 0.73744 0.78093 0.29841 0.0
C534 C 0.80748 0.72449 0.15807 0.0
O535 O 0.84076 0.69965 0.17609 0.0
C536 C 0.76392 0.82261 0.41262 0.0
O537 O 0.7274 0.84532 0.39972 0.0
O538 O 0.90492 0.77734 0.25912 0.0
O539 O 0.83704 0.84553 0.30155 0.0
O540 O 0.76319 0.84251 0.2577 0.0
C541 C 0.91914 0.81011 0.22732 0.0
O542 O 0.88699 0.83377 0.20446 0.0
O543 O 0.79553 0.75817 0.19124 0.0
C544 C 0.65257 0.74219 0.3414 0.0
O545 O 0.68533 0.71799 0.36193 0.0
O546 O 0.66581 0.77579 0.31011 0.0
O547 O 0.73399 0.70728 0.26602 0.0
O548 O 0.80832 0.71082 0.30929 0.0
O549 O 0.77717 0.79366 0.37544 0.0
C550 C 0.80802 0.8675 0.27469 0.0
C551 C 0.76373 0.68543 0.29209 0.0
Zn552 Zn 0.76919 0.26916 0.84123 0.0
Zn553 Zn 0.80284 0.27858 0.73547 0.0
C554 C 0.70422 0.17414 0.80208 0.0
O555 O 0.67458 0.20093 0.82344 0.0
C556 C 0.87184 0.37143 0.75429 0.0
O557 O 0.89393 0.34032 0.72632 0.0
O558 O 0.75879 0.26322 0.91851 0.0
O559 O 0.84284 0.29899 0.84681 0.0
O560 O 0.85122 0.24444 0.77722 0.0
C561 C 0.78665 0.23567 0.93803 0.0
O562 O 0.81614 0.21691 0.90716 0.0
O563 O 0.75057 0.19466 0.80479 0.0
C564 C 0.78142 0.30159 0.63448 0.0
O565 O 0.75898 0.32913 0.66639 0.0
O566 O 0.80802 0.27347 0.65544 0.0
O567 O 0.72876 0.25595 0.73211 0.0
O568 O 0.72093 0.30648 0.80516 0.0
O569 O 0.82741 0.35455 0.76392 0.0
C570 C 0.86896 0.27173 0.82348 0.0
C571 C 0.70422 0.28405 0.75668 0.0
Zn572 Zn 0.81393 0.72424 0.77135 0.0
Zn573 Zn 0.783 0.82477 0.81125 0.0
C574 C 0.92295 0.78289 0.78873 0.0
O575 O 0.95917 0.81672 0.82073 0.0
C576 C 0.69403 0.80766 0.84893 0.0
O577 O 0.72702 0.8372 0.88821 0.0
O578 O 0.83073 0.65514 0.75715 0.0
O579 O 0.77136 0.71701 0.83357 0.0
O580 O 0.81155 0.79346 0.87682 0.0
C581 C 0.84709 0.6387 0.80019 0.0
O582 O 0.85211 0.66713 0.84811 0.0
O583 O 0.87941 0.77418 0.80331 0.0
C584 C 0.75353 0.91103 0.78615 0.0
O585 O 0.73773 0.87628 0.74245 0.0
O586 O 0.7797 0.90002 0.82702 0.0
O587 O 0.81353 0.82611 0.73948 0.0
O588 O 0.78641 0.74583 0.70001 0.0
O589 O 0.70864 0.79196 0.8042 0.0
C590 C 0.79012 0.74638 0.8784 0.0
C591 C 0.80014 0.79359 0.69618 0.0
Zn592 Zn 0.59617 0.50955 0.55557 0.0
Zn593 Zn 0.48648 0.52533 0.51043 0.0
C594 C 0.58118 0.4188 0.59511 0.0
O595 O 0.61013 0.45349 0.63359 0.0
C596 C 0.50117 0.61634 0.47256 0.0
O597 O 0.47265 0.58185 0.43359 0.0
O598 O 0.67069 0.50977 0.572 0.0
O599 O 0.59175 0.53798 0.48292 0.0
O600 O 0.51618 0.49501 0.44438 0.0
C601 C 0.68678 0.48642 0.53222 0.0
O602 O 0.65704 0.47034 0.48555 0.0
O603 O 0.56585 0.43291 0.55007 0.0
C604 C 0.40019 0.55408 0.53769 0.0
O605 O 0.43334 0.57135 0.58161 0.0
O606 O 0.41221 0.52747 0.49719 0.0
O607 O 0.49154 0.49499 0.58185 0.0
O608 O 0.5657 0.54136 0.62002 0.0
O609 O 0.51716 0.60179 0.5171 0.0
C610 C 0.56151 0.51646 0.44018 0.0
C611 C 0.52068 0.51907 0.62433 0.0
Zn612 Zn 0.98342 0.54948 0.0513 0.0
Zn613 Zn 0.09107 0.47917 0.04667 0.0
C614 C 0.0192 0.64985 0.09425 0.0
O615 O 0.98236 0.63203 0.12148 0.0
C616 C 0.06004 0.37947 0.00265 0.0
O617 O 0.09754 0.39961 0.97742 0.0
O618 O 0.91271 0.55916 0.02775 0.0
O619 O 1.0024 0.49569 -0.00122 0.0
O620 O 0.07514 0.49678 0.97051 0.0
C621 C 0.91009 0.5905 -0.00714 0.0
O622 O 0.95084 0.61113 0.97305 0.0
O623 O 0.03006 0.61967 0.05649 0.0
C624 C 0.16972 0.44488 0.10263 0.0
O625 O 0.13101 0.42136 0.12396 0.0
O626 O 0.16348 0.47617 0.06875 0.0
O627 O 0.06621 0.531 0.09322 0.0
O628 O 0.99643 0.52727 0.1273 0.0
O629 O 0.048 0.4073 0.04166 0.0
C630 C 0.03105 0.5044 0.96239 0.0
C631 C 0.04053 0.51949 0.13124 0.0
loop_
_geom_bond_atom_site_label_1
_geom_bond_atom_site_label_2
_geom_bond_distance
_geom_bond_site_symmetry_2
_ccdc_geom_bond_type
C0 O1 1.160 . S
C0 O7 1.185 . S
O1 C0 1.160 . S
O2 Zn3 1.899 . S
O2 C10 1.284 . S
Zn3 O2 1.899 . S
Zn3 O4 2.032 . S
Zn3 O7 2.086 . S
Zn3 O12 1.977 1_455 S
O4 Zn3 2.032 . S
O4 C8 1.278 . S
C5 O6 1.203 . S
C5 O12 1.267 . S
O6 C5 1.203 . S
O7 C0 1.185 . S
O7 Zn3 2.086 . S
C8 O4 1.278 . S
C8 O9 1.211 . S
O9 C8 1.211 . S
C10 O2 1.284 . S
C10 O11 1.273 . S
O11 C10 1.273 . S
O12 Zn3 1.977 1_655 S
O12 C5 1.267 . S
C13 O14 1.160 . S
C13 O20 1.185 . S
O14 C13 1.160 . S
O15 Zn16 1.899 . S
O15 C23 1.284 . S
Zn16 O15 1.899 . S
Zn16 O17 2.032 1_455 S
Zn16 O20 2.086 1_455 S
Zn16 O25 1.977 . S
O17 Zn16 2.032 1_655 S
O17 C21 1.278 1_655 S
C18 O19 1.203 . S
C18 O25 1.267 . S
O19 C18 1.203 . S
O20 C13 1.185 . S
O20 Zn16 2.086 1_655 S
C21 O17 1.278 1_455 S
C21 O22 1.211 . S
O22 C21 1.211 . S
C23 O15 1.284 . S
C23 O24 1.273 . S
O24 C23 1.273 . S
O25 Zn16 1.977 . S
O25 C18 1.267 . S
C26 O27 1.160 . S
C26 O33 1.185 . S
O27 C26 1.160 . S
O28 Zn29 1.899 . S
O28 C36 1.284 1_556 S
Zn29 O28 1.899 . S
Zn29 O30 2.032 . S
Zn29 O33 2.086 . S
Zn29 O38 1.977 . S
O30 Zn29 2.032 . S
O30 C34 1.278 1_556 S
C31 O32 1.203 . S
C31 O38 1.267 . S
O32 C31 1.203 . S
O33 C26 1.185 . S
O33 Zn29 2.086 . S
C34 O30 1.278 1_554 S
C34 O35 1.211 . S
O35 C34 1.211 . S
C36 O28 1.284 1_554 S
C36 O37 1.273 . S
O37 C36 1.273 . S
O38 Zn29 1.977 . S
O38 C31 1.267 . S
C39 O40 1.160 . S
C39 O46 1.185 . S
O40 C39 1.160 . S
O41 Zn42 1.899 . S
O41 C49 1.284 . S
Zn42 O41 1.899 . S
Zn42 O43 2.032 . S
Zn42 O46 2.086 . S
Zn42 O51 1.977 . S
O43 Zn42 2.032 . S
O43 C47 1.278 . S
C44 O45 1.203 . S
C44 O51 1.267 . S
O45 C44 1.203 . S
O46 C39 1.185 . S
O46 Zn42 2.086 . S
C47 O43 1.278 . S
C47 O48 1.211 . S
O48 C47 1.211 . S
C49 O41 1.284 . S
C49 O50 1.273 . S
O50 C49 1.273 . S
O51 Zn42 1.977 . S
O51 C44 1.267 . S
C52 O53 1.160 . S
C52 O59 1.185 1_655 S
O53 C52 1.160 . S
O54 Zn55 1.899 . S
O54 C62 1.284 . S
Zn55 O54 1.899 . S
Zn55 O56 2.032 . S
Zn55 O59 2.086 . S
Zn55 O64 1.977 . S
O56 Zn55 2.032 . S
O56 C60 1.278 . S
C57 O58 1.203 . S
C57 O64 1.267 . S
O58 C57 1.203 . S
O59 C52 1.185 1_455 S
O59 Zn55 2.086 . S
C60 O56 1.278 . S
C60 O61 1.211 . S
O61 C60 1.211 . S
C62 O54 1.284 . S
C62 O63 1.273 . S
O63 C62 1.273 . S
O64 Zn55 1.977 . S
O64 C57 1.267 . S
C65 O66 1.160 . S
C65 O72 1.185 . S
O66 C65 1.160 . S
O67 Zn68 1.899 . S
O67 C75 1.284 . S
Zn68 O67 1.899 . S
Zn68 O69 2.032 . S
Zn68 O72 2.086 . S
Zn68 O77 1.977 . S
O69 Zn68 2.032 . S
O69 C73 1.278 . S
C70 O71 1.203 . S
C70 O77 1.267 . S
O71 C70 1.203 . S
O72 C65 1.185 . S
O72 Zn68 2.086 . S
C73 O69 1.278 . S
C73 O74 1.211 . S
O74 C73 1.211 . S
C75 O67 1.284 . S
C75 O76 1.273 . S
O76 C75 1.273 . S
O77 Zn68 1.977 . S
O77 C70 1.267 . S
C78 O79 1.160 . S
C78 O85 1.185 . S
O79 C78 1.160 . S
O80 Zn81 1.899 . S
O80 C88 1.284 . S
Zn81 O80 1.899 . S
Zn81 O82 2.032 . S
Zn81 O85 2.086 . S
Zn81 O90 1.977 . S
O82 Zn81 2.032 . S
O82 C86 1.278 . S
C83 O84 1.203 . S
C83 O90 1.267 . S
O84 C83 1.203 . S
O85 C78 1.185 . S
O85 Zn81 2.086 . S
C86 O82 1.278 . S
C86 O87 1.211 . S
O87 C86 1.211 . S
C88 O80 1.284 . S
C88 O89 1.273 . S
O89 C88 1.273 . S
O90 Zn81 1.977 . S
O90 C83 1.267 . S
C91 O92 1.160 . S
C91 O98 1.185 . S
O92 C91 1.160 . S
O93 Zn94 1.901 1_655 S
O93 C101 1.290 . S
Zn94 O93 1.901 1_455 S
Zn94 O95 2.032 . S
Zn94 O98 2.086 . S
Zn94 O103 1.977 1_455 S
O95 Zn94 2.032 . S
O95 C99 1.278 . S
C96 O97 1.203 . S
C96 O103 1.267 . S
O97 C96 1.203 . S
O98 C91 1.185 . S
O98 Zn94 2.086 . S
C99 O95 1.278 . S
C99 O100 1.211 1_455 S
O100 C99 1.211 1_655 S
C101 O93 1.290 . S
C101 O102 1.273 . S
O102 C101 1.273 . S
O103 Zn94 1.977 1_655 S
O103 C96 1.267 . S
C104 O105 1.160 . S
C104 O111 1.185 . S
O105 C104 1.160 . S
O106 Zn107 1.899 . S
O106 C114 1.284 . S
Zn107 O106 1.899 . S
Zn107 O108 2.032 . S
Zn107 O111 2.086 . S
Zn107 O116 1.977 1_545 S
O108 Zn107 2.032 . S
O108 C112 1.278 . S
C109 O110 1.203 . S
C109 O116 1.267 . S
O110 C109 1.203 . S
O111 C104 1.185 . S
O111 Zn107 2.086 . S
C112 O108 1.278 . S
C112 O113 1.211 1_545 S
O113 C112 1.211 1_565 S
C114 O106 1.284 . S
C114 O115 1.273 . S
O115 C114 1.273 . S
O116 Zn107 1.977 1_565 S
O116 C109 1.267 . S
C117 O118 1.160 . S
C117 O124 1.185 . S
O118 C117 1.160 . S
O119 Zn120 1.899 . S
O119 C127 1.284 . S
Zn120 O119 1.899 . S
Zn120 O121 2.032 . S
Zn120 O124 2.086 . S
Zn120 O129 1.977 . S
O121 Zn120 2.032 . S
O121 C125 1.278 . S
C122 O123 1.203 . S
C122 O129 1.267 . S
O123 C122 1.203 . S
O124 C117 1.185 . S
O124 Zn120 2.086 . S
C125 O121 1.278 . S
C125 O126 1.211 . S
O126 C125 1.211 . S
C127 O119 1.284 . S
C127 O128 1.273 . S
O128 C127 1.273 . S
O129 Zn120 1.977 . S
O129 C122 1.267 . S
C130 O131 1.160 . S
C130 O137 1.185 . S
O131 C130 1.160 . S
O132 Zn133 1.899 . S
O132 C140 1.284 . S
Zn133 O132 1.899 . S
Zn133 O134 2.032 . S
Zn133 O137 2.086 1_545 S
Zn133 O142 1.977 . S
O134 Zn133 2.032 . S
O134 C138 1.278 . S
C135 O136 1.203 . S
C135 O142 1.267 . S
O136 C135 1.203 . S
O137 C130 1.185 . S
O137 Zn133 2.086 1_565 S
C138 O134 1.278 . S
C138 O139 1.211 . S
O139 C138 1.211 . S
C140 O132 1.284 . S
C140 O141 1.273 . S
O141 C140 1.273 . S
O142 Zn133 1.977 . S
O142 C135 1.267 . S
C143 O144 1.160 . S
C143 O150 1.185 . S
O144 C143 1.160 . S
O145 Zn146 1.899 . S
O145 C153 1.284 . S
Zn146 O145 1.899 . S
Zn146 O147 2.032 1_554 S
Zn146 O150 2.086 . S
Zn146 O155 1.977 . S
O147 Zn146 2.032 1_556 S
O147 C151 1.278 . S
C148 O149 1.203 . S
C148 O155 1.267 . S
O149 C148 1.203 . S
O150 C143 1.185 . S
O150 Zn146 2.086 . S
C151 O147 1.278 . S
C151 O152 1.211 . S
O152 C151 1.211 . S
C153 O145 1.284 . S
C153 O154 1.273 . S
O154 C153 1.273 . S
O155 Zn146 1.977 . S
O155 C148 1.267 . S
C156 O157 1.160 . S
C156 O163 1.185 . S
O157 C156 1.160 . S
O158 Zn159 1.899 . S
O158 C166 1.284 . S
Zn159 O158 1.899 . S
Zn159 O160 2.032 . S
Zn159 O163 2.086 . S
Zn159 O168 1.977 . S
O160 Zn159 2.032 . S
O160 C164 1.278 1_554 S
C161 O162 1.203 . S
C161 O168 1.267 . S
O162 C161 1.203 . S
O163 C156 1.185 . S
O163 Zn159 2.086 . S
C164 O160 1.278 1_556 S
C164 O165 1.211 1_556 S
O165 C164 1.211 1_554 S
C166 O158 1.284 . S
C166 O167 1.273 . S
O167 C166 1.273 . S
O168 Zn159 1.977 . S
O168 C161 1.267 . S
C169 O170 1.160 . S
C169 O176 1.185 . S
O170 C169 1.160 . S
O171 Zn172 1.899 . S
O171 C179 1.284 . S
Zn172 O171 1.899 . S
Zn172 O173 2.032 . S
Zn172 O176 2.086 . S
Zn172 O181 1.977 . S
O173 Zn172 2.032 . S
O173 C177 1.278 1_554 S
C174 O175 1.203 . S
C174 O181 1.267 . S
O175 C174 1.203 . S
O176 C169 1.185 . S
O176 Zn172 2.086 . S
C177 O173 1.278 1_556 S
C177 O178 1.211 . S
O178 C177 1.211 . S
C179 O171 1.284 . S
C179 O180 1.273 . S
O180 C179 1.273 . S
O181 Zn172 1.977 . S
O181 C174 1.267 . S
C182 O183 1.160 . S
C182 O189 1.185 . S
O183 C182 1.160 . S
O184 Zn185 1.899 . S
O184 C192 1.284 . S
Zn185 O184 1.899 . S
Zn185 O186 2.032 . S
Zn185 O189 2.086 . S
Zn185 O194 1.977 . S
O186 Zn185 2.032 . S
O186 C190 1.278 . S
C187 O188 1.203 . S
C187 O194 1.267 . S
O188 C187 1.203 . S
O189 C182 1.185 . S
O189 Zn185 2.086 . S
C190 O186 1.278 . S
C190 O191 1.211 . S
O191 C190 1.211 . S
C192 O184 1.284 . S
C192 O193 1.273 . S
O193 C192 1.273 . S
O194 Zn185 1.977 . S
O194 C187 1.267 . S
C195 O196 1.160 . S
C195 O202 1.185 . S
O196 C195 1.160 . S
O197 Zn198 1.899 . S
O197 C205 1.284 . S
Zn198 O197 1.899 . S
Zn198 O199 2.032 . S
Zn198 O202 2.086 . S
Zn198 O207 1.977 . S
O199 Zn198 2.032 . S
O199 C203 1.278 . S
C200 O201 1.203 . S
C200 O207 1.267 . S
O201 C200 1.203 . S
O202 C195 1.185 . S
O202 Zn198 2.086 . S
C203 O199 1.278 . S
C203 O204 1.211 . S
O204 C203 1.211 . S
C205 O197 1.284 . S
C205 O206 1.273 . S
O206 C205 1.273 . S
O207 Zn198 1.977 . S
O207 C200 1.267 . S
C208 O209 1.160 . S
C208 O215 1.185 . S
O209 C208 1.160 . S
O210 Zn211 1.899 . S
O210 C218 1.284 1_545 S
Zn211 O210 1.899 . S
Zn211 O212 2.032 . S
Zn211 O215 2.086 . S
Zn211 O220 1.977 1_545 S
O212 Zn211 2.032 . S
O212 C216 1.278 . S
C213 O214 1.203 . S
C213 O220 1.267 . S
O214 C213 1.203 . S
O215 C208 1.185 . S
O215 Zn211 2.086 . S
C216 O212 1.278 . S
C216 O217 1.211 1_545 S
O217 C216 1.211 1_565 S
C218 O210 1.284 1_565 S
C218 O219 1.273 . S
O219 C218 1.273 . S
O220 Zn211 1.977 1_565 S
O220 C213 1.267 . S
C221 O222 1.160 . S
C221 O228 1.185 . S
O222 C221 1.160 . S
O223 Zn224 1.899 . S
O223 C231 1.284 . S
Zn224 O223 1.899 . S
Zn224 O225 2.032 . S
Zn224 O228 2.086 . S
Zn224 O233 1.977 . S
O225 Zn224 2.032 . S
O225 C229 1.278 . S
C226 O227 1.203 . S
C226 O233 1.267 . S
O227 C226 1.203 . S
O228 C221 1.185 . S
O228 Zn224 2.086 . S
C229 O225 1.278 . S
C229 O230 1.211 . S
O230 C229 1.211 . S
C231 O223 1.284 . S
C231 O232 1.273 . S
O232 C231 1.273 . S
O233 Zn224 1.977 . S
O233 C226 1.267 . S
C234 O235 1.160 . S
C234 O241 1.185 . S
O235 C234 1.160 . S
O236 Zn237 1.899 . S
O236 C244 1.284 . S
Zn237 O236 1.899 . S
Zn237 O238 2.032 . S
Zn237 O241 2.086 . S
Zn237 O246 1.977 . S
O238 Zn237 2.032 . S
O238 C242 1.278 . S
C239 O240 1.203 . S
C239 O246 1.267 . S
O240 C239 1.203 . S
O241 C234 1.185 . S
O241 Zn237 2.086 . S
C242 O238 1.278 . S
C242 O243 1.211 . S
O243 C242 1.211 . S
C244 O236 1.284 . S
C244 O245 1.273 . S
O245 C244 1.273 . S
O246 Zn237 1.977 . S
O246 C239 1.267 . S
C247 O248 1.160 . S
C247 O254 1.185 . S
O248 C247 1.160 . S
O249 Zn250 1.899 . S
O249 C257 1.284 . S
Zn250 O249 1.899 . S
Zn250 O251 2.032 . S
Zn250 O254 2.086 . S
Zn250 O259 1.977 1_565 S
O251 Zn250 2.032 . S
O251 C255 1.278 1_565 S
C252 O253 1.203 . S
C252 O259 1.267 . S
O253 C252 1.203 . S
O254 C247 1.185 . S
O254 Zn250 2.086 . S
C255 O251 1.278 1_545 S
C255 O256 1.211 . S
O256 C255 1.211 . S
C257 O249 1.284 . S
C257 O258 1.273 1_565 S
O258 C257 1.273 1_545 S
O259 Zn250 1.977 1_545 S
O259 C252 1.267 . S
C260 O261 1.160 . S
C260 O267 1.185 1_554 S
O261 C260 1.160 . S
O262 Zn263 1.899 . S
O262 C270 1.284 . S
Zn263 O262 1.899 . S
Zn263 O264 2.032 1_554 S
Zn263 O267 2.086 1_554 S
Zn263 O272 1.977 1_554 S
O264 Zn263 2.032 1_556 S
O264 C268 1.278 . S
C265 O266 1.203 1_556 S
C265 O272 1.267 . S
O266 C265 1.203 1_554 S
O267 C260 1.185 1_556 S
O267 Zn263 2.086 1_556 S
C268 O264 1.278 . S
C268 O269 1.211 . S
O269 C268 1.211 . S
C270 O262 1.284 . S
C270 O271 1.273 . S
O271 C270 1.273 . S
O272 Zn263 1.977 1_556 S
O272 C265 1.267 . S
C273 O274 1.160 . S
C273 O280 1.185 . S
O274 C273 1.160 . S
O275 Zn276 1.899 . S
O275 C283 1.284 . S
Zn276 O275 1.899 . S
Zn276 O277 2.032 . S
Zn276 O280 2.086 . S
Zn276 O285 1.977 . S
O277 Zn276 2.032 . S
O277 C281 1.278 . S
C278 O279 1.203 . S
C278 O285 1.267 . S
O279 C278 1.203 . S
O280 C273 1.185 . S
O280 Zn276 2.086 . S
C281 O277 1.278 . S
C281 O282 1.211 . S
O282 C281 1.211 . S
C283 O275 1.284 . S
C283 O284 1.273 1_655 S
O284 C283 1.273 1_455 S
O285 Zn276 1.977 . S
O285 C278 1.267 . S
C286 O287 1.160 . S
C286 O293 1.185 . S
O287 C286 1.160 . S
O288 Zn289 1.899 . S
O288 C296 1.284 . S
Zn289 O288 1.899 . S
Zn289 O290 2.032 . S
Zn289 O293 2.086 . S
Zn289 O298 1.977 . S
O290 Zn289 2.032 . S
O290 C294 1.278 . S
C291 O292 1.203 . S
C291 O298 1.267 . S
O292 C291 1.203 . S
O293 C286 1.185 . S
O293 Zn289 2.086 . S
C294 O290 1.278 . S
C294 O295 1.211 . S
O295 C294 1.211 . S
C296 O288 1.284 . S
C296 O297 1.273 . S
O297 C296 1.273 . S
O298 Zn289 1.977 . S
O298 C291 1.267 . S
C299 O300 1.160 . S
C299 O306 1.185 . S
O300 C299 1.160 . S
O301 Zn302 1.899 . S
O301 C309 1.284 . S
Zn302 O301 1.899 . S
Zn302 O303 2.032 . S
Zn302 O306 2.086 . S
Zn302 O311 1.977 . S
O303 Zn302 2.032 . S
O303 C307 1.278 . S
C304 O305 1.203 . S
C304 O311 1.267 . S
O305 C304 1.203 . S
O306 C299 1.185 . S
O306 Zn302 2.086 . S
C307 O303 1.278 . S
C307 O308 1.211 . S
O308 C307 1.211 . S
C309 O301 1.284 . S
C309 O310 1.273 . S
O310 C309 1.273 . S
O311 Zn302 1.977 . S
O311 C304 1.267 . S
Zn312 O318 1.969 . S
Zn312 O319 1.965 1_565 S
Zn312 O323 2.024 . S
Zn312 O328 1.969 . S
Zn313 O320 1.969 1_654 S
Zn313 O326 1.969 1_554 S
Zn313 O327 1.965 . S
Zn313 O329 2.024 1_655 S
C314 O315 1.229 . S
C314 O323 1.058 . S
O315 C314 1.229 . S
C316 O317 1.229 1_454 S
C316 O329 1.058 . S
O317 C316 1.229 1_656 S
O318 Zn312 1.969 . S
O318 C321 1.267 . S
O319 Zn312 1.965 1_545 S
O319 C330 1.260 1_554 S
O320 Zn313 1.969 1_456 S
O320 C330 1.258 . S
C321 O318 1.267 . S
C321 O322 1.228 . S
O322 C321 1.228 . S
O323 Zn312 2.024 . S
O323 C314 1.058 . S
C324 O325 1.228 1_556 S
C324 O326 1.267 . S
O325 C324 1.228 1_554 S
O326 Zn313 1.969 1_556 S
O326 C324 1.267 . S
O327 Zn313 1.965 . S
O327 C331 1.260 1_655 S
O328 Zn312 1.969 . S
O328 C331 1.258 1_565 S
O329 Zn313 2.024 1_455 S
O329 C316 1.058 . S
C330 O319 1.260 1_556 S
C330 O320 1.258 . S
C331 O327 1.260 1_455 S
C331 O328 1.258 1_545 S
Zn332 O338 1.969 . S
Zn332 O339 1.965 . S
Zn332 O343 2.024 . S
Zn332 O348 1.969 . S
Zn333 O340 1.969 . S
Zn333 O346 1.969 . S
Zn333 O347 1.965 . S
Zn333 O349 2.024 . S
C334 O335 1.229 . S
C334 O343 1.058 . S
O335 C334 1.229 . S
C336 O337 1.229 . S
C336 O349 1.058 . S
O337 C336 1.229 . S
O338 Zn332 1.969 . S
O338 C341 1.267 . S
O339 Zn332 1.965 . S
O339 C350 1.260 . S
O340 Zn333 1.969 . S
O340 C350 1.258 . S
C341 O338 1.267 . S
C341 O342 1.228 . S
O342 C341 1.228 . S
O343 Zn332 2.024 . S
O343 C334 1.058 . S
C344 O345 1.228 . S
C344 O346 1.267 . S
O345 C344 1.228 . S
O346 Zn333 1.969 . S
O346 C344 1.267 . S
O347 Zn333 1.965 . S
O347 C351 1.260 . S
O348 Zn332 1.969 . S
O348 C351 1.258 . S
O349 Zn333 2.024 . S
O349 C336 1.058 . S
C350 O339 1.260 . S
C350 O340 1.258 . S
C351 O347 1.260 . S
C351 O348 1.258 . S
Zn352 O358 1.969 . S
Zn352 O359 1.965 . S
Zn352 O363 2.024 . S
Zn352 O368 1.969 . S
Zn353 O360 1.969 . S
Zn353 O366 1.969 . S
Zn353 O367 1.965 1_565 S
Zn353 O369 2.024 . S
C354 O355 1.229 . S
C354 O363 1.058 . S
O355 C354 1.229 . S
C356 O357 1.229 . S
C356 O369 1.058 . S
O357 C356 1.229 . S
O358 Zn352 1.969 . S
O358 C361 1.267 . S
O359 Zn352 1.965 . S
O359 C370 1.260 . S
O360 Zn353 1.969 . S
O360 C370 1.258 1_565 S
C361 O358 1.267 . S
C361 O362 1.228 . S
O362 C361 1.228 . S
O363 Zn352 2.024 . S
O363 C354 1.058 . S
C364 O365 1.228 . S
C364 O366 1.267 . S
O365 C364 1.228 . S
O366 Zn353 1.969 . S
O366 C364 1.267 . S
O367 Zn353 1.965 1_545 S
O367 C371 1.260 . S
O368 Zn352 1.969 . S
O368 C371 1.258 . S
O369 Zn353 2.024 . S
O369 C356 1.058 . S
C370 O359 1.260 . S
C370 O360 1.258 1_545 S
C371 O367 1.260 . S
C371 O368 1.258 . S
Zn372 O378 1.969 . S
Zn372 O379 1.965 . S
Zn372 O383 2.024 . S
Zn372 O388 1.969 . S
Zn373 O380 1.969 . S
Zn373 O386 1.969 . S
Zn373 O387 1.965 . S
Zn373 O389 2.024 . S
C374 O375 1.229 . S
C374 O383 1.058 . S
O375 C374 1.229 . S
C376 O377 1.229 . S
C376 O389 1.058 . S
O377 C376 1.229 . S
O378 Zn372 1.969 . S
O378 C381 1.267 . S
O379 Zn372 1.965 . S
O379 C390 1.260 . S
O380 Zn373 1.969 . S
O380 C390 1.258 . S
C381 O378 1.267 . S
C381 O382 1.228 . S
O382 C381 1.228 . S
O383 Zn372 2.024 . S
O383 C374 1.058 . S
C384 O385 1.228 . S
C384 O386 1.267 . S
O385 C384 1.228 . S
O386 Zn373 1.969 . S
O386 C384 1.267 . S
O387 Zn373 1.965 . S
O387 C391 1.260 . S
O388 Zn372 1.969 . S
O388 C391 1.258 . S
O389 Zn373 2.024 . S
O389 C376 1.058 . S
C390 O379 1.260 . S
C390 O380 1.258 . S
C391 O387 1.260 . S
C391 O388 1.258 . S
Zn392 O398 1.969 . S
Zn392 O399 1.965 1_455 S
Zn392 O403 2.024 1_565 S
Zn392 O408 1.969 1_565 S
Zn393 O400 1.969 1_455 S
Zn393 O406 1.969 1_455 S
Zn393 O407 1.965 . S
Zn393 O409 2.024 . S
C394 O395 1.229 1_545 S
C394 O403 1.058 . S
O395 C394 1.229 1_565 S
C396 O397 1.229 . S
C396 O409 1.058 1_655 S
O397 C396 1.229 . S
O398 Zn392 1.969 . S
O398 C401 1.267 . S
O399 Zn392 1.965 1_655 S
O399 C410 1.260 . S
O400 Zn393 1.969 1_655 S
O400 C410 1.258 1_545 S
C401 O398 1.267 . S
C401 O402 1.228 . S
O402 C401 1.228 . S
O403 Zn392 2.024 1_545 S
O403 C394 1.058 . S
C404 O405 1.228 . S
C404 O406 1.267 1_455 S
O405 C404 1.228 . S
O406 Zn393 1.969 1_655 S
O406 C404 1.267 1_655 S
O407 Zn393 1.965 . S
O407 C411 1.260 . S
O408 Zn392 1.969 1_545 S
O408 C411 1.258 . S
O409 Zn393 2.024 . S
O409 C396 1.058 1_455 S
C410 O399 1.260 . S
C410 O400 1.258 1_565 S
C411 O407 1.260 . S
C411 O408 1.258 . S
Zn412 O418 1.969 . S
Zn412 O419 1.965 . S
Zn412 O423 2.024 . S
Zn412 O428 1.969 . S
Zn413 O420 1.969 . S
Zn413 O426 1.969 . S
Zn413 O427 1.965 . S
Zn413 O429 2.024 . S
C414 O415 1.229 . S
C414 O423 1.058 . S
O415 C414 1.229 . S
C416 O417 1.229 . S
C416 O429 1.058 . S
O417 C416 1.229 . S
O418 Zn412 1.969 . S
O418 C421 1.267 . S
O419 Zn412 1.965 . S
O419 C430 1.260 . S
O420 Zn413 1.969 . S
O420 C430 1.258 . S
C421 O418 1.267 . S
C421 O422 1.228 . S
O422 C421 1.228 . S
O423 Zn412 2.024 . S
O423 C414 1.058 . S
C424 O425 1.228 . S
C424 O426 1.267 . S
O425 C424 1.228 . S
O426 Zn413 1.969 . S
O426 C424 1.267 . S
O427 Zn413 1.965 . S
O427 C431 1.260 . S
O428 Zn412 1.969 . S
O428 C431 1.258 . S
O429 Zn413 2.024 . S
O429 C416 1.058 . S
C430 O419 1.260 . S
C430 O420 1.258 . S
C431 O427 1.260 . S
C431 O428 1.258 . S
Zn432 O438 1.969 . S
Zn432 O439 1.965 1_545 S
Zn432 O443 2.024 1_556 S
Zn432 O448 1.969 1_556 S
Zn433 O440 1.969 . S
Zn433 O446 1.969 . S
Zn433 O447 1.965 1_565 S
Zn433 O449 2.024 . S
C434 O435 1.229 . S
C434 O443 1.058 . S
O435 C434 1.229 . S
C436 O437 1.229 . S
C436 O449 1.058 . S
O437 C436 1.229 . S
O438 Zn432 1.969 . S
O438 C441 1.267 . S
O439 Zn432 1.965 1_565 S
O439 C450 1.260 1_556 S
O440 Zn433 1.969 . S
O440 C450 1.258 . S
C441 O438 1.267 . S
C441 O442 1.228 . S
O442 C441 1.228 . S
O443 Zn432 2.024 1_554 S
O443 C434 1.058 . S
C444 O445 1.228 . S
C444 O446 1.267 1_545 S
O445 C444 1.228 . S
O446 Zn433 1.969 . S
O446 C444 1.267 1_565 S
O447 Zn433 1.965 1_545 S
O447 C451 1.260 . S
O448 Zn432 1.969 1_554 S
O448 C451 1.258 . S
O449 Zn433 2.024 . S
O449 C436 1.058 . S
C450 O439 1.260 1_554 S
C450 O440 1.258 . S
C451 O447 1.260 . S
C451 O448 1.258 . S
Zn452 O458 1.969 . S
Zn452 O459 1.965 . S
Zn452 O463 2.024 . S
Zn452 O468 1.969 . S
Zn453 O460 1.969 . S
Zn453 O466 1.969 . S
Zn453 O467 1.965 . S
Zn453 O469 2.024 . S
C454 O455 1.229 . S
C454 O463 1.058 . S
O455 C454 1.229 . S
C456 O457 1.229 . S
C456 O469 1.058 . S
O457 C456 1.229 . S
O458 Zn452 1.969 . S
O458 C461 1.267 . S
O459 Zn452 1.965 . S
O459 C470 1.260 . S
O460 Zn453 1.969 . S
O460 C470 1.258 . S
C461 O458 1.267 . S
C461 O462 1.228 . S
O462 C461 1.228 . S
O463 Zn452 2.024 . S
O463 C454 1.058 . S
C464 O465 1.228 . S
C464 O466 1.267 . S
O465 C464 1.228 . S
O466 Zn453 1.969 . S
O466 C464 1.267 . S
O467 Zn453 1.965 . S
O467 C471 1.260 . S
O468 Zn452 1.969 . S
O468 C471 1.258 . S
O469 Zn453 2.024 . S
O469 C456 1.058 . S
C470 O459 1.260 . S
C470 O460 1.258 . S
C471 O467 1.260 . S
C471 O468 1.258 . S
Zn472 O478 1.969 . S
Zn472 O479 1.965 . S
Zn472 O483 2.024 . S
Zn472 O488 1.969 . S
Zn473 O480 1.969 1_556 S
Zn473 O486 1.969 1_556 S
Zn473 O487 1.965 1_556 S
Zn473 O489 2.024 . S
C474 O475 1.229 . S
C474 O483 1.058 . S
O475 C474 1.229 . S
C476 O477 1.229 . S
C476 O489 1.058 . S
O477 C476 1.229 . S
O478 Zn472 1.969 . S
O478 C481 1.267 . S
O479 Zn472 1.965 . S
O479 C490 1.260 . S
O480 Zn473 1.969 1_554 S
O480 C490 1.258 . S
C481 O478 1.267 . S
C481 O482 1.228 . S
O482 C481 1.228 . S
O483 Zn472 2.024 . S
O483 C474 1.058 . S
C484 O485 1.228 . S
C484 O486 1.267 1_556 S
O485 C484 1.228 . S
O486 Zn473 1.969 1_554 S
O486 C484 1.267 1_554 S
O487 Zn473 1.965 1_554 S
O487 C491 1.260 . S
O488 Zn472 1.969 . S
O488 C491 1.258 . S
O489 Zn473 2.024 . S
O489 C476 1.058 . S
C490 O479 1.260 . S
C490 O480 1.258 . S
C491 O487 1.260 . S
C491 O488 1.258 . S
Zn492 O498 1.969 . S
Zn492 O499 1.965 . S
Zn492 O503 2.024 . S
Zn492 O508 1.969 . S
Zn493 O500 1.969 . S
Zn493 O506 1.969 . S
Zn493 O507 1.965 . S
Zn493 O509 2.024 . S
C494 O495 1.229 . S
C494 O503 1.058 . S
O495 C494 1.229 . S
C496 O497 1.229 . S
C496 O509 1.058 . S
O497 C496 1.229 . S
O498 Zn492 1.969 . S
O498 C501 1.267 . S
O499 Zn492 1.965 . S
O499 C510 1.260 . S
O500 Zn493 1.969 . S
O500 C510 1.258 . S
C501 O498 1.267 . S
C501 O502 1.228 . S
O502 C501 1.228 . S
O503 Zn492 2.024 . S
O503 C494 1.058 . S
C504 O505 1.228 . S
C504 O506 1.267 . S
O505 C504 1.228 . S
O506 Zn493 1.969 . S
O506 C504 1.267 . S
O507 Zn493 1.965 . S
O507 C511 1.260 . S
O508 Zn492 1.969 . S
O508 C511 1.258 . S
O509 Zn493 2.024 . S
O509 C496 1.058 . S
C510 O499 1.260 . S
C510 O500 1.258 . S
C511 O507 1.260 . S
C511 O508 1.258 . S
Zn512 O518 1.969 . S
Zn512 O519 1.965 . S
Zn512 O523 2.024 . S
Zn512 O528 1.969 . S
Zn513 O520 1.969 1_655 S
Zn513 O526 1.969 . S
Zn513 O527 1.965 1_655 S
Zn513 O529 2.024 . S
C514 O515 1.229 . S
C514 O523 1.058 . S
O515 C514 1.229 . S
C516 O517 1.229 . S
C516 O529 1.058 . S
O517 C516 1.229 . S
O518 Zn512 1.969 . S
O518 C521 1.267 . S
O519 Zn512 1.965 . S
O519 C530 1.260 . S
O520 Zn513 1.969 1_455 S
O520 C530 1.258 . S
C521 O518 1.267 . S
C521 O522 1.228 . S
O522 C521 1.228 . S
O523 Zn512 2.024 . S
O523 C514 1.058 . S
C524 O525 1.228 . S
C524 O526 1.267 . S
O525 C524 1.228 . S
O526 Zn513 1.969 . S
O526 C524 1.267 . S
O527 Zn513 1.965 1_455 S
O527 C531 1.260 . S
O528 Zn512 1.969 . S
O528 C531 1.258 . S
O529 Zn513 2.024 . S
O529 C516 1.058 . S
C530 O519 1.260 . S
C530 O520 1.258 . S
C531 O527 1.260 . S
C531 O528 1.258 . S
Zn532 O538 1.969 . S
Zn532 O539 1.965 . S
Zn532 O543 2.024 . S
Zn532 O548 1.969 . S
Zn533 O540 1.969 . S
Zn533 O546 1.969 . S
Zn533 O547 1.965 . S
Zn533 O549 2.024 . S
C534 O535 1.229 . S
C534 O543 1.058 . S
O535 C534 1.229 . S
C536 O537 1.229 . S
C536 O549 1.058 . S
O537 C536 1.229 . S
O538 Zn532 1.969 . S
O538 C541 1.267 . S
O539 Zn532 1.965 . S
O539 C550 1.260 . S
O540 Zn533 1.969 . S
O540 C550 1.258 . S
C541 O538 1.267 . S
C541 O542 1.228 . S
O542 C541 1.228 . S
O543 Zn532 2.024 . S
O543 C534 1.058 . S
C544 O545 1.228 . S
C544 O546 1.267 . S
O545 C544 1.228 . S
O546 Zn533 1.969 . S
O546 C544 1.267 . S
O547 Zn533 1.965 . S
O547 C551 1.260 . S
O548 Zn532 1.969 . S
O548 C551 1.258 . S
O549 Zn533 2.024 . S
O549 C536 1.058 . S
C550 O539 1.260 . S
C550 O540 1.258 . S
C551 O547 1.260 . S
C551 O548 1.258 . S
Zn552 O558 1.969 . S
Zn552 O559 1.965 . S
Zn552 O563 2.024 . S
Zn552 O568 1.969 . S
Zn553 O560 1.969 . S
Zn553 O566 1.969 . S
Zn553 O567 1.965 . S
Zn553 O569 2.024 . S
C554 O555 1.229 . S
C554 O563 1.058 . S
O555 C554 1.229 . S
C556 O557 1.229 . S
C556 O569 1.058 . S
O557 C556 1.229 . S
O558 Zn552 1.969 . S
O558 C561 1.267 . S
O559 Zn552 1.965 . S
O559 C570 1.260 . S
O560 Zn553 1.969 . S
O560 C570 1.258 . S
C561 O558 1.267 . S
C561 O562 1.228 . S
O562 C561 1.228 . S
O563 Zn552 2.024 . S
O563 C554 1.058 . S
C564 O565 1.228 . S
C564 O566 1.267 . S
O565 C564 1.228 . S
O566 Zn553 1.969 . S
O566 C564 1.267 . S
O567 Zn553 1.965 . S
O567 C571 1.260 . S
O568 Zn552 1.969 . S
O568 C571 1.258 . S
O569 Zn553 2.024 . S
O569 C556 1.058 . S
C570 O559 1.260 . S
C570 O560 1.258 . S
C571 O567 1.260 . S
C571 O568 1.258 . S
Zn572 O578 1.969 . S
Zn572 O579 1.965 . S
Zn572 O583 2.024 . S
Zn572 O588 1.969 . S
Zn573 O580 1.969 . S
Zn573 O586 1.969 . S
Zn573 O587 1.965 . S
Zn573 O589 2.024 . S
C574 O575 1.229 . S
C574 O583 1.058 . S
O575 C574 1.229 . S
C576 O577 1.229 . S
C576 O589 1.058 . S
O577 C576 1.229 . S
O578 Zn572 1.969 . S
O578 C581 1.267 . S
O579 Zn572 1.965 . S
O579 C590 1.260 . S
O580 Zn573 1.969 . S
O580 C590 1.258 . S
C581 O578 1.267 . S
C581 O582 1.228 . S
O582 C581 1.228 . S
O583 Zn572 2.024 . S
O583 C574 1.058 . S
C584 O585 1.228 . S
C584 O586 1.267 . S
O585 C584 1.228 . S
O586 Zn573 1.969 . S
O586 C584 1.267 . S
O587 Zn573 1.965 . S
O587 C591 1.260 . S
O588 Zn572 1.969 . S
O588 C591 1.258 . S
O589 Zn573 2.024 . S
O589 C576 1.058 . S
C590 O579 1.260 . S
C590 O580 1.258 . S
C591 O587 1.260 . S
C591 O588 1.258 . S
Zn592 O598 1.969 . S
Zn592 O599 1.965 . S
Zn592 O603 2.024 . S
Zn592 O608 1.969 . S
Zn593 O600 1.969 . S
Zn593 O606 1.969 . S
Zn593 O607 1.965 . S
Zn593 O609 2.024 . S
C594 O595 1.229 . S
C594 O603 1.058 . S
O595 C594 1.229 . S
C596 O597 1.229 . S
C596 O609 1.058 . S
O597 C596 1.229 . S
O598 Zn592 1.969 . S
O598 C601 1.267 . S
O599 Zn592 1.965 . S
O599 C610 1.260 . S
O600 Zn593 1.969 . S
O600 C610 1.258 . S
C601 O598 1.267 . S
C601 O602 1.228 . S
O602 C601 1.228 . S
O603 Zn592 2.024 . S
O603 C594 1.058 . S
C604 O605 1.228 . S
C604 O606 1.267 . S
O605 C604 1.228 . S
O606 Zn593 1.969 . S
O606 C604 1.267 . S
O607 Zn593 1.965 . S
O607 C611 1.260 . S
O608 Zn592 1.969 . S
O608 C611 1.258 . S
O609 Zn593 2.024 . S
O609 C596 1.058 . S
C610 O599 1.260 . S
C610 O600 1.258 . S
C611 O607 1.260 . S
C611 O608 1.258 . S
Zn612 O618 1.969 . S
Zn612 O619 1.950 1_554 S
Zn612 O623 2.024 1_655 S
Zn612 O628 1.969 1_655 S
Zn613 O620 1.969 1_554 S
Zn613 O626 1.965 1_554 S
Zn613 O627 1.965 . S
Zn613 O629 2.024 . S
C614 O615 1.229 . S
C614 O623 1.058 . S
O615 C614 1.229 . S
C616 O617 1.229 . S
C616 O629 1.058 1_556 S
O617 C616 1.229 . S
O618 Zn612 1.969 . S
O618 C621 1.267 . S
O619 Zn612 1.950 1_556 S
O619 C630 1.276 1_655 S
O620 Zn613 1.969 1_556 S
O620 C630 1.258 . S
C621 O618 1.267 . S
C621 O622 1.228 . S
O622 C621 1.228 . S
O623 Zn612 2.024 1_455 S
O623 C614 1.058 . S
C624 O625 1.228 . S
C624 O626 1.261 1_554 S
O625 C624 1.228 . S
O626 Zn613 1.965 1_556 S
O626 C624 1.261 1_556 S
O627 Zn613 1.965 . S
O627 C631 1.260 . S
O628 Zn612 1.969 1_455 S
O628 C631 1.258 . S
O629 Zn613 2.024 . S
O629 C616 1.058 1_554 S
C630 O619 1.276 1_455 S
C630 O620 1.258 . S
C631 O627 1.260 . S
C631 O628 1.258 . S
C101 C316 1.565 1_656 S
C57 C351 1.715 . S
C73 C356 1.154 . S
C381 C78 1.399 . S
C21 C401 1.610 . S
C416 C31 0.925 . S
C451 C49 1.977 . S
C0 C456 1.580 . S
C331 C218 2.070 1_445 S
C229 C341 1.099 . S
C371 C257 1.535 1_545 S
C376 C164 1.238 . S
C216 C396 1.235 . S
C431 C231 1.542 . S
C441 C255 1.113 . S
C471 C166 2.028 . S
C321 C143 1.956 . S
C265 C491 2.169 1_556 S
C501 C299 1.675 . S
C516 C291 0.889 . S
C104 C461 1.940 . S
C117 C361 1.710 . S
C304 C551 2.081 . S
C556 C278 0.943 . S
C314 C60 1.956 . S
C570 C96 1.792 . S
C88 C354 1.050 . S
C65 C544 1.488 . S
C404 C10 1.769 . S
C44 C494 1.038 . S
C450 C34 1.652 . S
C574 C13 2.012 . S
C330 C138 2.251 . S
C564 C296 1.309 . S
C112 C370 1.270 . S
C270 C534 1.200 . S
C140 C394 1.208 . S
C510 C294 1.287 . S
C114 C444 1.331 . S
C268 C590 2.230 . S
C169 C324 2.460 1_554 S
C161 C490 2.294 . S
C234 C424 1.988 . S
C226 C514 1.084 . S
C584 C247 2.501 . S
C195 C364 2.015 . S
C390 C239 2.218 . S
C334 C187 1.161 . S
C75 C596 1.565 . S
C571 C83 1.714 . S
C99 C616 1.154 . S
C52 C541 1.399 . S
C47 C481 1.610 . S
C496 C5 0.926 . S
C531 C23 1.977 . S
C576 C26 1.580 . S
C611 C244 2.070 . S
C177 C561 1.099 . S
C631 C192 1.535 . S
C536 C203 1.238 . S
C476 C242 1.235 . S
C179 C511 1.542 . S
C521 C190 1.113 . S
C205 C591 2.028 . S
C601 C286 1.957 . S
C122 C411 2.169 . S
C421 C130 1.674 . S
C436 C148 0.889 . S
C581 C273 1.940 . S
C260 C621 1.709 . S
C391 C135 2.081 . S
C336 C109 0.943 . S
C86 C594 1.955 . S
C350 C70 1.792 . S
C62 C614 1.049 . S
C91 C384 1.488 . S
C36 C484 1.769 1_554 S
C414 C18 1.038 . S
C8 C530 1.652 . S
C39 C454 2.011 . S
C610 C307 2.250 . S
C153 C344 1.308 . S
C630 C281 1.270 1_455 S
C127 C374 1.201 . S
C309 C474 1.207 . S
C430 C151 1.287 . S
C283 C524 1.331 . S
C470 C125 2.229 . S
C604 C221 2.459 . S
C410 C200 2.294 . S
C208 C504 1.988 . S
C434 C174 1.085 . S
C182 C464 2.500 . S
C156 C624 2.015 . S
C550 C213 2.218 . S
C554 C252 1.161 . S
