# Generated by pormake.
# Topology gar, (4,6)-cn, num edge types: 1
# Building blocks:
#     Node 0, Type 0, BuildingBlock: GALJAG_clean_sbu_0, # of connection points: 4
#     Node 1, Type 0, BuildingBlock: GALJAG_clean_sbu_0, # of connection points: 4
#     Node 2, Type 0, BuildingBlock: GALJAG_clean_sbu_0, # of connection points: 4
#     Node 3, Type 0, BuildingBlock: GALJAG_clean_sbu_0, # of connection points: 4
#     Node 4, Type 0, BuildingBlock: GALJAG_clean_sbu_0, # of connection points: 4
#     Node 5, Type 0, BuildingBlock: GALJAG_clean_sbu_0, # of connection points: 4
#     Node 6, Type 0, BuildingBlock: GALJAG_clean_sbu_0, # of connection points: 4
#     Node 7, Type 0, BuildingBlock: GALJAG_clean_sbu_0, # of connection points: 4
#     Node 8, Type 0, BuildingBlock: GALJAG_clean_sbu_0, # of connection points: 4
#     Node 9, Type 0, BuildingBlock: GALJAG_clean_sbu_0, # of connection points: 4
#     Node 10, Type 0, BuildingBlock: GALJAG_clean_sbu_0, # of connection points: 4
#     Node 11, Type 0, BuildingBlock: GALJAG_clean_sbu_0, # of connection points: 4
#     Node 12, Type 0, BuildingBlock: GALJAG_clean_sbu_0, # of connection points: 4
#     Node 13, Type 0, BuildingBlock: GALJAG_clean_sbu_0, # of connection points: 4
#     Node 14, Type 0, BuildingBlock: GALJAG_clean_sbu_0, # of connection points: 4
#     Node 15, Type 0, BuildingBlock: GALJAG_clean_sbu_0, # of connection points: 4
#     Node 16, Type 0, BuildingBlock: GALJAG_clean_sbu_0, # of connection points: 4
#     Node 17, Type 0, BuildingBlock: GALJAG_clean_sbu_0, # of connection points: 4
#     Node 18, Type 0, BuildingBlock: GALJAG_clean_sbu_0, # of connection points: 4
#     Node 19, Type 0, BuildingBlock: GALJAG_clean_sbu_0, # of connection points: 4
#     Node 20, Type 0, BuildingBlock: GALJAG_clean_sbu_0, # of connection points: 4
#     Node 21, Type 0, BuildingBlock: GALJAG_clean_sbu_0, # of connection points: 4
#     Node 22, Type 0, BuildingBlock: GALJAG_clean_sbu_0, # of connection points: 4
#     Node 23, Type 0, BuildingBlock: GALJAG_clean_sbu_0, # of connection points: 4
#     Node 24, Type 1, BuildingBlock: PAMTOO_clean_sbu_0, # of connection points: 6
#     Node 25, Type 1, BuildingBlock: PAMTOO_clean_sbu_0, # of connection points: 6
#     Node 26, Type 1, BuildingBlock: PAMTOO_clean_sbu_0, # of connection points: 6
#     Node 27, Type 1, BuildingBlock: PAMTOO_clean_sbu_0, # of connection points: 6
#     Node 28, Type 1, BuildingBlock: PAMTOO_clean_sbu_0, # of connection points: 6
#     Node 29, Type 1, BuildingBlock: PAMTOO_clean_sbu_0, # of connection points: 6
#     Node 30, Type 1, BuildingBlock: PAMTOO_clean_sbu_0, # of connection points: 6
#     Node 31, Type 1, BuildingBlock: PAMTOO_clean_sbu_0, # of connection points: 6
#     Node 32, Type 1, BuildingBlock: PAMTOO_clean_sbu_0, # of connection points: 6
#     Node 33, Type 1, BuildingBlock: PAMTOO_clean_sbu_0, # of connection points: 6
#     Node 34, Type 1, BuildingBlock: PAMTOO_clean_sbu_0, # of connection points: 6
#     Node 35, Type 1, BuildingBlock: PAMTOO_clean_sbu_0, # of connection points: 6
#     Node 36, Type 1, BuildingBlock: PAMTOO_clean_sbu_0, # of connection points: 6
#     Node 37, Type 1, BuildingBlock: PAMTOO_clean_sbu_0, # of connection points: 6
#     Node 38, Type 1, BuildingBlock: PAMTOO_clean_sbu_0, # of connection points: 6
#     Node 39, Type 1, BuildingBlock: PAMTOO_clean_sbu_0, # of connection points: 6
#     Edge 40, Type (0, 1), BuildingBlock: MIFKUJ_clean_linker_0, # of connection points: 2
#     Edge 41, Type (0, 1), BuildingBlock: MIFKUJ_clean_linker_0, # of connection points: 2
#     Edge 42, Type (0, 1), BuildingBlock: MIFKUJ_clean_linker_0, # of connection points: 2
#     Edge 43, Type (0, 1), BuildingBlock: MIFKUJ_clean_linker_0, # of connection points: 2
#     Edge 44, Type (0, 1), BuildingBlock: MIFKUJ_clean_linker_0, # of connection points: 2
#     Edge 45, Type (0, 1), BuildingBlock: MIFKUJ_clean_linker_0, # of connection points: 2
#     Edge 46, Type (0, 1), BuildingBlock: MIFKUJ_clean_linker_0, # of connection points: 2
#     Edge 47, Type (0, 1), BuildingBlock: MIFKUJ_clean_linker_0, # of connection points: 2
#     Edge 48, Type (0, 1), BuildingBlock: MIFKUJ_clean_linker_0, # of connection points: 2
#     Edge 49, Type (0, 1), BuildingBlock: MIFKUJ_clean_linker_0, # of connection points: 2
#     Edge 50, Type (0, 1), BuildingBlock: MIFKUJ_clean_linker_0, # of connection points: 2
#     Edge 51, Type (0, 1), BuildingBlock: MIFKUJ_clean_linker_0, # of connection points: 2
#     Edge 52, Type (0, 1), BuildingBlock: MIFKUJ_clean_linker_0, # of connection points: 2
#     Edge 53, Type (0, 1), BuildingBlock: MIFKUJ_clean_linker_0, # of connection points: 2
#     Edge 54, Type (0, 1), BuildingBlock: MIFKUJ_clean_linker_0, # of connection points: 2
#     Edge 55, Type (0, 1), BuildingBlock: MIFKUJ_clean_linker_0, # of connection points: 2
#     Edge 56, Type (0, 1), BuildingBlock: MIFKUJ_clean_linker_0, # of connection points: 2
#     Edge 57, Type (0, 1), BuildingBlock: MIFKUJ_clean_linker_0, # of connection points: 2
#     Edge 58, Type (0, 1), BuildingBlock: MIFKUJ_clean_linker_0, # of connection points: 2
#     Edge 59, Type (0, 1), BuildingBlock: MIFKUJ_clean_linker_0, # of connection points: 2
#     Edge 60, Type (0, 1), BuildingBlock: MIFKUJ_clean_linker_0, # of connection points: 2
#     Edge 61, Type (0, 1), BuildingBlock: MIFKUJ_clean_linker_0, # of connection points: 2
#     Edge 62, Type (0, 1), BuildingBlock: MIFKUJ_clean_linker_0, # of connection points: 2
#     Edge 63, Type (0, 1), BuildingBlock: MIFKUJ_clean_linker_0, # of connection points: 2
#     Edge 64, Type (0, 1), BuildingBlock: MIFKUJ_clean_linker_0, # of connection points: 2
#     Edge 65, Type (0, 1), BuildingBlock: MIFKUJ_clean_linker_0, # of connection points: 2
#     Edge 66, Type (0, 1), BuildingBlock: MIFKUJ_clean_linker_0, # of connection points: 2
#     Edge 67, Type (0, 1), BuildingBlock: MIFKUJ_clean_linker_0, # of connection points: 2
#     Edge 68, Type (0, 1), BuildingBlock: MIFKUJ_clean_linker_0, # of connection points: 2
#     Edge 69, Type (0, 1), BuildingBlock: MIFKUJ_clean_linker_0, # of connection points: 2
#     Edge 70, Type (0, 1), BuildingBlock: MIFKUJ_clean_linker_0, # of connection points: 2
#     Edge 71, Type (0, 1), BuildingBlock: MIFKUJ_clean_linker_0, # of connection points: 2
#     Edge 72, Type (0, 1), BuildingBlock: MIFKUJ_clean_linker_0, # of connection points: 2
#     Edge 73, Type (0, 1), BuildingBlock: MIFKUJ_clean_linker_0, # of connection points: 2
#     Edge 74, Type (0, 1), BuildingBlock: MIFKUJ_clean_linker_0, # of connection points: 2
#     Edge 75, Type (0, 1), BuildingBlock: MIFKUJ_clean_linker_0, # of connection points: 2
#     Edge 76, Type (0, 1), BuildingBlock: MIFKUJ_clean_linker_0, # of connection points: 2
#     Edge 77, Type (0, 1), BuildingBlock: MIFKUJ_clean_linker_0, # of connection points: 2
#     Edge 78, Type (0, 1), BuildingBlock: MIFKUJ_clean_linker_0, # of connection points: 2
#     Edge 79, Type (0, 1), BuildingBlock: MIFKUJ_clean_linker_0, # of connection points: 2
#     Edge 80, Type (0, 1), BuildingBlock: MIFKUJ_clean_linker_0, # of connection points: 2
#     Edge 81, Type (0, 1), BuildingBlock: MIFKUJ_clean_linker_0, # of connection points: 2
#     Edge 82, Type (0, 1), BuildingBlock: MIFKUJ_clean_linker_0, # of connection points: 2
#     Edge 83, Type (0, 1), BuildingBlock: MIFKUJ_clean_linker_0, # of connection points: 2
#     Edge 84, Type (0, 1), BuildingBlock: MIFKUJ_clean_linker_0, # of connection points: 2
#     Edge 85, Type (0, 1), BuildingBlock: MIFKUJ_clean_linker_0, # of connection points: 2
#     Edge 86, Type (0, 1), BuildingBlock: MIFKUJ_clean_linker_0, # of connection points: 2
#     Edge 87, Type (0, 1), BuildingBlock: MIFKUJ_clean_linker_0, # of connection points: 2
#     Edge 88, Type (0, 1), BuildingBlock: MIFKUJ_clean_linker_0, # of connection points: 2
#     Edge 89, Type (0, 1), BuildingBlock: MIFKUJ_clean_linker_0, # of connection points: 2
#     Edge 90, Type (0, 1), BuildingBlock: MIFKUJ_clean_linker_0, # of connection points: 2
#     Edge 91, Type (0, 1), BuildingBlock: MIFKUJ_clean_linker_0, # of connection points: 2
#     Edge 92, Type (0, 1), BuildingBlock: MIFKUJ_clean_linker_0, # of connection points: 2
#     Edge 93, Type (0, 1), BuildingBlock: MIFKUJ_clean_linker_0, # of connection points: 2
#     Edge 94, Type (0, 1), BuildingBlock: MIFKUJ_clean_linker_0, # of connection points: 2
#     Edge 95, Type (0, 1), BuildingBlock: MIFKUJ_clean_linker_0, # of connection points: 2
#     Edge 96, Type (0, 1), BuildingBlock: MIFKUJ_clean_linker_0, # of connection points: 2
#     Edge 97, Type (0, 1), BuildingBlock: MIFKUJ_clean_linker_0, # of connection points: 2
#     Edge 98, Type (0, 1), BuildingBlock: MIFKUJ_clean_linker_0, # of connection points: 2
#     Edge 99, Type (0, 1), BuildingBlock: MIFKUJ_clean_linker_0, # of connection points: 2
#     Edge 100, Type (0, 1), BuildingBlock: MIFKUJ_clean_linker_0, # of connection points: 2
#     Edge 101, Type (0, 1), BuildingBlock: MIFKUJ_clean_linker_0, # of connection points: 2
#     Edge 102, Type (0, 1), BuildingBlock: MIFKUJ_clean_linker_0, # of connection points: 2
#     Edge 103, Type (0, 1), BuildingBlock: MIFKUJ_clean_linker_0, # of connection points: 2
#     Edge 104, Type (0, 1), BuildingBlock: MIFKUJ_clean_linker_0, # of connection points: 2
#     Edge 105, Type (0, 1), BuildingBlock: MIFKUJ_clean_linker_0, # of connection points: 2
#     Edge 106, Type (0, 1), BuildingBlock: MIFKUJ_clean_linker_0, # of connection points: 2
#     Edge 107, Type (0, 1), BuildingBlock: MIFKUJ_clean_linker_0, # of connection points: 2
#     Edge 108, Type (0, 1), BuildingBlock: MIFKUJ_clean_linker_0, # of connection points: 2
#     Edge 109, Type (0, 1), BuildingBlock: MIFKUJ_clean_linker_0, # of connection points: 2
#     Edge 110, Type (0, 1), BuildingBlock: MIFKUJ_clean_linker_0, # of connection points: 2
#     Edge 111, Type (0, 1), BuildingBlock: MIFKUJ_clean_linker_0, # of connection points: 2
#     Edge 112, Type (0, 1), BuildingBlock: MIFKUJ_clean_linker_0, # of connection points: 2
#     Edge 113, Type (0, 1), BuildingBlock: MIFKUJ_clean_linker_0, # of connection points: 2
#     Edge 114, Type (0, 1), BuildingBlock: MIFKUJ_clean_linker_0, # of connection points: 2
#     Edge 115, Type (0, 1), BuildingBlock: MIFKUJ_clean_linker_0, # of connection points: 2
#     Edge 116, Type (0, 1), BuildingBlock: MIFKUJ_clean_linker_0, # of connection points: 2
#     Edge 117, Type (0, 1), BuildingBlock: MIFKUJ_clean_linker_0, # of connection points: 2
#     Edge 118, Type (0, 1), BuildingBlock: MIFKUJ_clean_linker_0, # of connection points: 2
#     Edge 119, Type (0, 1), BuildingBlock: MIFKUJ_clean_linker_0, # of connection points: 2
#     Edge 120, Type (0, 1), BuildingBlock: MIFKUJ_clean_linker_0, # of connection points: 2
#     Edge 121, Type (0, 1), BuildingBlock: MIFKUJ_clean_linker_0, # of connection points: 2
#     Edge 122, Type (0, 1), BuildingBlock: MIFKUJ_clean_linker_0, # of connection points: 2
#     Edge 123, Type (0, 1), BuildingBlock: MIFKUJ_clean_linker_0, # of connection points: 2
#     Edge 124, Type (0, 1), BuildingBlock: MIFKUJ_clean_linker_0, # of connection points: 2
#     Edge 125, Type (0, 1), BuildingBlock: MIFKUJ_clean_linker_0, # of connection points: 2
#     Edge 126, Type (0, 1), BuildingBlock: MIFKUJ_clean_linker_0, # of connection points: 2
#     Edge 127, Type (0, 1), BuildingBlock: MIFKUJ_clean_linker_0, # of connection points: 2
#     Edge 128, Type (0, 1), BuildingBlock: MIFKUJ_clean_linker_0, # of connection points: 2
#     Edge 129, Type (0, 1), BuildingBlock: MIFKUJ_clean_linker_0, # of connection points: 2
#     Edge 130, Type (0, 1), BuildingBlock: MIFKUJ_clean_linker_0, # of connection points: 2
#     Edge 131, Type (0, 1), BuildingBlock: MIFKUJ_clean_linker_0, # of connection points: 2
#     Edge 132, Type (0, 1), BuildingBlock: MIFKUJ_clean_linker_0, # of connection points: 2
#     Edge 133, Type (0, 1), BuildingBlock: MIFKUJ_clean_linker_0, # of connection points: 2
#     Edge 134, Type (0, 1), BuildingBlock: MIFKUJ_clean_linker_0, # of connection points: 2
#     Edge 135, Type (0, 1), BuildingBlock: MIFKUJ_clean_linker_0, # of connection points: 2
# Relax obj value: 0.142
# Max RMSD: 0.260
# Mean RMSD: 0.170
data_MOF--net-gar--node1-GALJAG_clean_sbu_0--node2-PAMTOO_clean_sbu_0--edge1-MIFKUJ_clean_linker_0
_symmetry_space_group_name_H-M    P1
_symmetry_Int_Tables_number       1
_symmetry_cell_setting            triclinic
loop_
_symmetry_equiv_pos_as_xyz
'x, y, z'
_cell_length_a     75.77097
_cell_length_b     75.811545
_cell_length_c     73.527772
_cell_angle_alpha  96.108109
_cell_angle_beta   95.18747
_cell_angle_gamma 104.13971
loop_
_atom_site_label
_atom_site_type_symbol
_atom_site_fract_x
_atom_site_fract_y
_atom_site_fract_z
_atom_type_partial_charge
In0 In 0.04315 0.31219 0.3635 0.0
O1 O 0.05875 0.30276 0.33979 0.0
O2 O 0.07409 0.32304 0.36104 0.0
C3 C 0.00801 0.30697 0.34656 0.0
C4 C 0.04323 0.28311 0.38224 0.0
C5 C 0.04421 0.34464 0.38417 0.0
O6 O 0.02195 0.31428 0.33912 0.0
O7 O 0.0119 0.30198 0.36189 0.0
O8 O 0.0428 0.32974 0.3908 0.0
O9 O 0.04566 0.34338 0.36712 0.0
C10 C 0.07438 0.31284 0.34643 0.0
O11 O 0.05144 0.29942 0.38889 0.0
O12 O 0.03519 0.28145 0.36611 0.0
In13 In 0.01548 0.76106 0.68172 0.0
O14 O 0.01508 0.77422 0.65504 0.0
O15 O 0.02547 0.79203 0.67999 0.0
C16 C 0.00802 0.7272 0.66124 0.0
C17 C 0.05051 0.76508 0.69891 0.0
C18 C 0.98374 0.76194 0.69773 0.0
O19 O 0.00865 0.7418 0.65423 0.0
O20 O 0.01036 0.7295 0.67865 0.0
O21 O 0.99543 0.75415 0.70422 0.0
O22 O 0.9881 0.76912 0.68359 0.0
C23 C 0.0217 0.79052 0.6627 0.0
O24 O 0.03883 0.77173 0.70657 0.0
O25 O 0.0445 0.75656 0.68306 0.0
In26 In 0.54338 0.81149 0.86512 0.0
O27 O 0.55905 0.80305 0.84095 0.0
O28 O 0.57474 0.8208 0.86385 0.0
C29 C 0.50808 0.80682 0.84861 0.0
C30 C 0.54138 0.78254 0.88469 0.0
C31 C 0.5469 0.84508 0.88478 0.0
O32 O 0.52201 0.81333 0.8408 0.0
O33 O 0.512 0.80214 0.86409 0.0
O34 O 0.54953 0.83143 0.89201 0.0
O35 O 0.54319 0.84208 0.86745 0.0
C36 C 0.57489 0.81179 0.84845 0.0
O37 O 0.54438 0.79895 0.8921 0.0
O38 O 0.53941 0.7806 0.86728 0.0
In39 In 0.51487 0.26079 0.1817 0.0
O40 O 0.51132 0.24136 0.15476 0.0
O41 O 0.51105 0.22928 0.17943 0.0
C42 C 0.51691 0.29107 0.16408 0.0
C43 C 0.48317 0.26021 0.19798 0.0
C44 C 0.55047 0.26542 0.19745 0.0
O45 O 0.51263 0.2749 0.15581 0.0
O46 O 0.52009 0.29211 0.18138 0.0
O47 O 0.5369 0.26141 0.20647 0.0
O48 O 0.54605 0.26738 0.181 0.0
C49 C 0.51026 0.22688 0.16206 0.0
O50 O 0.49903 0.26606 0.20682 0.0
O51 O 0.48335 0.25431 0.18132 0.0
In52 In 0.06235 0.80702 0.12129 0.0
O53 O 0.05576 0.78373 0.09596 0.0
O54 O 0.0623 0.77687 0.12234 0.0
C55 C 0.06143 0.83801 0.10444 0.0
C56 C 0.0321 0.80248 0.13934 0.0
C57 C 0.0957 0.81467 0.14243 0.0
O58 O 0.0703 0.82676 0.09893 0.0
O59 O 0.0532 0.83359 0.11804 0.0
O60 O 0.08075 0.81357 0.14904 0.0
O61 O 0.09406 0.81275 0.12505 0.0
C62 C 0.05802 0.77126 0.10541 0.0
O63 O 0.0482 0.80949 0.14726 0.0
O64 O 0.03117 0.79769 0.12218 0.0
In65 In 0.50549 0.77654 0.43831 0.0
O66 O 0.51748 0.77379 0.41082 0.0
O67 O 0.5361 0.77997 0.4353 0.0
C68 C 0.47198 0.77419 0.41959 0.0
C69 C 0.50462 0.74527 0.45514 0.0
C70 C 0.51179 0.81223 0.45496 0.0
O71 O 0.48523 0.77077 0.41188 0.0
O72 O 0.47534 0.77814 0.43691 0.0
O73 O 0.50497 0.7986 0.46294 0.0
O74 O 0.51583 0.8078 0.43917 0.0
C75 C 0.53395 0.77709 0.41791 0.0
O76 O 0.51503 0.76084 0.46148 0.0
O77 O 0.49418 0.74558 0.44089 0.0
In78 In 0.56201 0.30851 0.61918 0.0
O79 O 0.56577 0.28676 0.59571 0.0
O80 O 0.54977 0.27723 0.6164 0.0
C81 C 0.562 0.33975 0.60256 0.0
C82 C 0.53281 0.30794 0.63847 0.0
C83 C 0.59507 0.31127 0.6394 0.0
O84 O 0.55469 0.32369 0.59451 0.0
O85 O 0.56979 0.34 0.61852 0.0
O86 O 0.58023 0.30988 0.64633 0.0
O87 O 0.59346 0.31179 0.62222 0.0
C88 C 0.55656 0.273 0.60207 0.0
O89 O 0.5492 0.31216 0.646 0.0
O90 O 0.53108 0.30411 0.62114 0.0
In91 In 0.00732 0.27595 0.93771 0.0
O92 O 0.01458 0.25997 0.96175 0.0
O93 O 0.99926 0.24426 0.93759 0.0
C94 C 0.01334 0.31104 0.95608 0.0
C95 C 0.03617 0.27749 0.91779 0.0
C96 C 0.97437 0.2744 0.91786 0.0
O97 O 0.02213 0.30686 0.94327 0.0
O98 O 1.0019 0.29743 0.96036 0.0
O99 O 0.98881 0.27429 0.91058 0.0
O100 O 0.9763 0.27467 0.93514 0.0
C101 C 0.00717 0.24407 0.95338 0.0
O102 O 0.01981 0.27456 0.91041 0.0
O103 O 0.03798 0.27957 0.9352 0.0
In104 In 0.41574 0.06162 0.30221 0.0
O105 O 0.43089 0.0596 0.27689 0.0
O106 O 0.40471 0.04109 0.27664 0.0
C107 C 0.44328 0.07829 0.3289 0.0
C108 C 0.39746 0.08629 0.29323 0.0
C109 C 0.40142 0.03025 0.3155 0.0
O110 O 0.44598 0.07077 0.31362 0.0
O111 O 0.42675 0.07786 0.33046 0.0
O112 O 0.39234 0.04187 0.3128 0.0
O113 O 0.41787 0.03488 0.3122 0.0
C114 C 0.41839 0.0464 0.26822 0.0
O115 O 0.39158 0.07438 0.30349 0.0
O116 O 0.41286 0.08615 0.28809 0.0
In117 In 0.27934 0.18874 0.51588 0.0
O118 O 0.29396 0.21004 0.54095 0.0
O119 O 0.26524 0.2001 0.53912 0.0
C120 C 0.28258 0.2015 0.48274 0.0
C121 C 0.30647 0.17182 0.522 0.0
C122 C 0.24599 0.16487 0.51057 0.0
O123 O 0.28229 0.21182 0.49731 0.0
O124 O 0.28144 0.18507 0.48499 0.0
O125 O 0.26025 0.16066 0.51691 0.0
O126 O 0.24856 0.18115 0.50688 0.0
C127 C 0.27961 0.2102 0.54832 0.0
O128 O 0.28973 0.16389 0.52171 0.0
O129 O 0.30963 0.18844 0.51938 0.0
In130 In 0.12756 0.04036 0.77968 0.0
O131 O 0.10194 0.04118 0.76043 0.0
O132 O 0.1248 0.03597 0.74831 0.0
C133 C 0.11132 0.03873 0.81127 0.0
C134 C 0.14469 0.01295 0.78108 0.0
C135 C 0.15016 0.07412 0.78033 0.0
O136 O 0.1049 0.02735 0.79697 0.0
O137 O 0.12546 0.05085 0.80941 0.0
O138 O 0.15563 0.05966 0.77855 0.0
O139 O 0.13326 0.07156 0.78172 0.0
C140 C 0.10888 0.03822 0.74577 0.0
O141 O 0.15144 0.02891 0.78948 0.0
O142 O 0.12909 0.01063 0.77214 0.0
In143 In 0.25888 0.90812 0.01933 0.0
O144 O 0.24314 0.88166 0.02841 0.0
O145 O 0.26789 0.89663 0.04489 0.0
C146 C 0.25301 0.89016 0.98484 0.0
C147 C 0.23768 0.92891 0.0331 0.0
C148 C 0.29317 0.92868 0.01877 0.0
O149 O 0.26034 0.88462 0.99842 0.0
O150 O 0.24854 0.90502 0.98851 0.0
O151 O 0.27943 0.93135 0.00947 0.0
O152 O 0.28959 0.91556 0.02822 0.0
C153 C 0.25445 0.88262 0.04239 0.0
O154 O 0.2549 0.93364 0.03588 0.0
O155 O 0.23101 0.91384 0.02292 0.0
In156 In 0.28139 0.38265 0.03605 0.0
O157 O 0.26959 0.35922 0.05266 0.0
O158 O 0.28993 0.38225 0.06654 0.0
C159 C 0.27849 0.36259 0.00238 0.0
C160 C 0.25454 0.40031 0.03922 0.0
C161 C 0.31501 0.40522 0.03564 0.0
O162 O 0.28585 0.35839 0.01683 0.0
O163 O 0.27223 0.37646 0.00503 0.0
O164 O 0.30039 0.40951 0.03075 0.0
O165 O 0.31271 0.38948 0.04065 0.0
C166 C 0.27922 0.36692 0.06763 0.0
O167 O 0.27132 0.40813 0.04365 0.0
O168 O 0.25119 0.38343 0.03325 0.0
In169 In 0.78287 0.14188 0.04351 0.0
O170 O 0.7947 0.11762 0.04827 0.0
O171 O 0.80582 0.13477 0.02887 0.0
C172 C 0.74945 0.11909 0.04299 0.0
C173 C 0.79254 0.16535 0.07498 0.0
C174 C 0.78102 0.16321 0.01685 0.0
O175 O 0.75864 0.1191 0.02954 0.0
O176 O 0.75726 0.1304 0.05694 0.0
O177 O 0.79519 0.16572 0.02823 0.0
O178 O 0.76799 0.14988 0.01883 0.0
C179 C 0.80589 0.12073 0.03659 0.0
O180 O 0.78027 0.16626 0.06263 0.0
O181 O 0.79993 0.15232 0.07164 0.0
In182 In 0.17178 0.54412 0.25686 0.0
O183 O 0.17816 0.52174 0.27262 0.0
O184 O 0.1921 0.52775 0.24929 0.0
C185 C 0.19431 0.57691 0.25358 0.0
C186 C 0.1476 0.53158 0.22641 0.0
C187 C 0.15352 0.54969 0.28577 0.0
O188 O 0.19796 0.56688 0.2652 0.0
O189 O 0.17952 0.57018 0.24315 0.0
O190 O 0.14666 0.53753 0.27221 0.0
O191 O 0.16968 0.55876 0.28492 0.0
C192 C 0.18968 0.51826 0.26236 0.0
O193 O 0.14602 0.54404 0.23849 0.0
O194 O 0.16155 0.52558 0.22956 0.0
In195 In 0.78137 0.88493 0.53365 0.0
O196 O 0.77239 0.86144 0.55111 0.0
O197 O 0.78763 0.88744 0.56485 0.0
C198 C 0.77808 0.8657 0.49952 0.0
C199 C 0.75379 0.90175 0.53501 0.0
C200 C 0.81576 0.90612 0.53401 0.0
O201 O 0.78283 0.85954 0.51397 0.0
O202 O 0.77453 0.88106 0.5024 0.0
O203 O 0.80162 0.91175 0.53066 0.0
O204 O 0.81263 0.88968 0.53721 0.0
C205 C 0.77955 0.87112 0.56628 0.0
O206 O 0.77051 0.91018 0.5384 0.0
O207 O 0.75079 0.88457 0.53094 0.0
In208 In 0.93077 0.0342 0.26139 0.0
O209 O 0.9554 0.03588 0.24458 0.0
O210 O 0.93 0.03688 0.23072 0.0
C211 C 0.94897 0.03362 0.29506 0.0
C212 C 0.91458 0.06216 0.26789 0.0
C213 C 0.90813 1.00026 0.25229 0.0
O214 O 0.95479 0.04572 0.28494 0.0
O215 O 0.93434 0.0221 0.28818 0.0
O216 O 0.9024 0.0146 0.25325 0.0
O217 O 0.92533 1.00307 0.25551 0.0
C218 C 0.94651 0.03705 0.22955 0.0
O219 O 0.90717 0.04583 0.26996 0.0
O220 O 0.9304 0.06456 0.2629 0.0
In221 In 0.28045 0.64792 0.54045 0.0
O222 O 0.28964 0.62328 0.54917 0.0
O223 O 0.30348 0.6376 0.5291 0.0
C224 C 0.2452 0.62796 0.53456 0.0
C225 C 0.28667 0.66858 0.57354 0.0
C226 C 0.28744 0.6721 0.51605 0.0
O227 O 0.25693 0.62526 0.52424 0.0
O228 O 0.25125 0.64063 0.5478 0.0
O229 O 0.2967 0.67445 0.53162 0.0
O230 O 0.27485 0.65744 0.51264 0.0
C231 C 0.30182 0.62439 0.53842 0.0
O232 O 0.27503 0.66997 0.56074 0.0
O233 O 0.2952 0.65653 0.56975 0.0
In234 In 0.4316 0.53907 0.76811 0.0
O235 O 0.40674 0.54924 0.77546 0.0
O236 O 0.42951 0.56889 0.7689 0.0
C237 C 0.41061 0.5044 0.75935 0.0
C238 C 0.44785 0.54209 0.73657 0.0
C239 C 0.4496 0.53952 0.80218 0.0
O240 O 0.40408 0.51823 0.7595 0.0
O241 O 0.42782 0.50807 0.76333 0.0
O242 O 0.45482 0.55188 0.79217 0.0
O243 O 0.43563 0.52721 0.795 0.0
C244 C 0.41344 0.56569 0.77328 0.0
O245 O 0.45702 0.54357 0.75213 0.0
O246 O 0.43084 0.53921 0.73705 0.0
In247 In 0.66362 0.0337 0.75258 0.0
O248 O 0.68736 0.02126 0.74763 0.0
O249 O 0.66947 0.00991 0.76647 0.0
C250 C 0.68164 0.06756 0.74675 0.0
C251 C 0.63946 0.01562 0.7234 0.0
C252 C 0.65055 0.04401 0.78371 0.0
O253 O 0.68976 0.05598 0.75193 0.0
O254 O 0.66441 0.06198 0.74421 0.0
O255 O 0.64111 0.0406 0.76812 0.0
O256 O 0.66661 0.04206 0.78366 0.0
C257 C 0.68365 0.00972 0.75876 0.0
O258 O 0.63602 0.01483 0.73978 0.0
O259 O 0.65522 0.0252 0.72176 0.0
In260 In 0.77927 0.6885 0.01267 0.0
O261 O 0.79107 0.66361 0.01164 0.0
O262 O 0.81007 0.68981 0.01603 0.0
C263 C 0.74494 0.66638 0.00941 0.0
C264 C 0.78016 0.70648 0.04701 0.0
C265 C 0.78205 0.70368 0.9807 0.0
O266 O 0.7589 0.66033 0.00782 0.0
O267 O 0.74825 0.68366 0.0125 0.0
O268 O 0.79036 0.71218 0.99597 0.0
O269 O 0.77235 0.68784 0.98166 0.0
C270 C 0.80765 0.67259 0.01423 0.0
O271 O 0.77633 0.71308 0.03254 0.0
O272 O 0.78394 0.69121 0.04412 0.0
In273 In 0.90199 0.5532 0.80021 0.0
O274 O 0.88497 0.56612 0.78129 0.0
O275 O 0.88786 0.57511 0.81003 0.0
C276 C 0.87482 0.5225 0.79798 0.0
C277 C 0.92708 0.5514 0.77693 0.0
C278 C 0.92406 0.55894 0.83208 0.0
O279 O 0.88007 0.53357 0.81265 0.0
O280 O 0.88323 0.52701 0.78445 0.0
O281 O 0.92305 0.57179 0.82276 0.0
O282 O 0.91389 0.54342 0.82536 0.0
C283 C 0.88079 0.57615 0.79412 0.0
O284 O 0.92364 0.56635 0.78263 0.0
O285 O 0.91784 0.5375 0.78291 0.0
In286 In 0.75685 0.40172 0.50955 0.0
O287 O 0.74151 0.38053 0.5262 0.0
O288 O 0.77019 0.38371 0.52602 0.0
C289 C 0.74387 0.38439 0.47521 0.0
C290 C 0.73713 0.42559 0.51911 0.0
C291 C 0.79213 0.4214 0.51292 0.0
O292 O 0.74031 0.37696 0.48943 0.0
O293 O 0.75367 0.40066 0.47831 0.0
O294 O 0.78045 0.42607 0.52225 0.0
O295 O 0.78609 0.40664 0.50208 0.0
C296 C 0.75555 0.37549 0.53168 0.0
O297 O 0.74092 0.42256 0.50292 0.0
O298 O 0.74293 0.41628 0.53038 0.0
In299 In 0.62898 0.53828 0.28521 0.0
O300 O 0.65282 0.52529 0.28946 0.0
O301 O 0.62812 0.50814 0.27494 0.0
C302 C 0.65079 0.57281 0.28908 0.0
C303 C 0.60987 0.53787 0.25189 0.0
C304 C 0.615 0.53589 0.31805 0.0
O305 O 0.65605 0.55881 0.28365 0.0
O306 O 0.63442 0.56945 0.29276 0.0
O307 O 0.60532 0.53663 0.30337 0.0
O308 O 0.63139 0.53621 0.31604 0.0
C309 C 0.64453 0.5096 0.28131 0.0
O310 O 0.60232 0.5303 0.26474 0.0
O311 O 0.62678 0.54525 0.25585 0.0
Dy312 Dy 0.05667 0.05037 0.03415 0.0
Dy313 Dy 0.01668 0.02797 0.01347 0.0
C314 C 0.05095 0.03588 0.99181 0.0
O315 O 0.04343 0.07308 0.02812 0.0
O316 O 0.01931 0.05685 0.00673 0.0
O317 O 0.08604 0.0583 0.03474 0.0
O318 O 0.07344 0.06772 0.05789 0.0
O319 O 0.01136 0.04198 0.04003 0.0
O320 O 0.03861 0.04183 0.05577 0.0
O321 O 0.02606 0.00775 0.02974 0.0
O322 O 0.05699 0.02043 0.03261 0.0
O323 O 0.99008 0.00933 0.01327 0.0
O324 O 0.99868 0.01895 0.98798 0.0
C325 C 0.0299 0.07258 0.01528 0.0
O326 O 0.05786 0.05049 0.00391 0.0
O327 O 0.0378 0.02261 0.99579 0.0
C328 C 0.10069 0.05873 0.06407 0.0
C329 C 0.12589 0.04245 0.08189 0.0
C330 C 0.108 0.03204 0.07503 0.0
C331 C 0.09551 0.04015 0.0664 0.0
C332 C 0.118 0.06952 0.07185 0.0
C333 C 0.13047 0.06149 0.08089 0.0
C334 C 0.08867 0.06601 0.05183 0.0
C335 C 0.02151 0.04268 0.05567 0.0
C336 C 0.04294 0.00657 0.03385 0.0
C337 C 0.9676 0.01424 0.99194 0.0
C338 C 0.9334 0.02236 0.9875 0.0
C339 C 0.94962 0.03657 0.99155 0.0
C340 C 0.96658 0.03254 0.9938 0.0
C341 C 0.95157 1.00002 0.98738 0.0
C342 C 0.93453 0.00404 0.9852 0.0
C343 C 0.98522 0.00997 0.99594 0.0
H344 H 0.10389 0.01734 0.07512 0.0
H345 H 0.08213 0.03164 0.0606 0.0
H346 H 0.12213 0.08395 0.07028 0.0
H347 H 0.14395 0.07004 0.08636 0.0
H348 H 0.94916 0.0508 0.99378 0.0
H349 H 0.97887 0.04367 0.99752 0.0
H350 H 0.9522 0.98582 0.98598 0.0
H351 H 0.92223 0.99286 0.98205 0.0
Dy352 Dy 0.29612 0.80218 0.26681 0.0
Dy353 Dy 0.27629 0.8102 0.30319 0.0
C354 C 0.30463 0.84167 0.28908 0.0
O355 O 0.31275 0.79328 0.28924 0.0
O356 O 0.30424 0.80841 0.31438 0.0
O357 O 0.30919 0.81094 0.24327 0.0
O358 O 0.30432 0.78252 0.24816 0.0
O359 O 0.27406 0.78016 0.29796 0.0
O360 O 0.27135 0.7794 0.26701 0.0
O361 O 0.25479 0.80895 0.27963 0.0
O362 O 0.27331 0.81407 0.25665 0.0
O363 O 0.25363 0.80338 0.31918 0.0
O364 O 0.277 0.82627 0.32944 0.0
C365 C 0.31505 0.79924 0.30699 0.0
O366 O 0.31223 0.8292 0.28189 0.0
O367 O 0.28793 0.83703 0.29361 0.0
C368 C 0.29773 0.78841 0.21803 0.0
C369 C 0.27728 0.7833 0.18322 0.0
C370 C 0.2684 0.78254 0.19916 0.0
C371 C 0.27854 0.78501 0.21643 0.0
C372 C 0.30657 0.78819 0.20215 0.0
C373 C 0.29639 0.78555 0.1848 0.0
C374 C 0.30827 0.79411 0.2363 0.0
C375 C 0.26857 0.77102 0.2815 0.0
C376 C 0.25733 0.81269 0.26282 0.0
C377 C 0.26581 0.80611 0.34995 0.0
C378 C 0.27315 0.78916 0.38088 0.0
C379 C 0.27879 0.78387 0.36395 0.0
C380 C 0.27518 0.79228 0.34866 0.0
C381 C 0.2604 0.81174 0.36687 0.0
C382 C 0.26411 0.80332 0.38234 0.0
C383 C 0.26254 0.81475 0.33353 0.0
H384 H 0.25371 0.78081 0.19832 0.0
H385 H 0.27149 0.78514 0.2286 0.0
H386 H 0.32137 0.79089 0.2032 0.0
H387 H 0.30359 0.78643 0.17272 0.0
H388 H 0.28606 0.77323 0.36256 0.0
H389 H 0.27972 0.78797 0.33576 0.0
H390 H 0.25333 0.82255 0.3681 0.0
H391 H 0.25964 0.80759 0.39529 0.0
Dy392 Dy 0.51368 0.03886 0.53218 0.0
Dy393 Dy 0.55702 0.0465 0.52528 0.0
C394 C 0.5273 0.05444 0.49595 0.0
O395 O 0.51595 0.01297 0.51537 0.0
O396 O 0.54659 0.01588 0.52306 0.0
O397 O 0.48494 0.02951 0.52192 0.0
O398 O 0.4934 0.03965 0.5509 0.0
O399 O 0.55547 0.04471 0.55517 0.0
O400 O 0.52686 0.02544 0.5531 0.0
O401 O 0.55249 0.07477 0.53014 0.0
O402 O 0.52754 0.0676 0.5461 0.0
O403 O 0.58587 0.05729 0.53505 0.0
O404 O 0.57733 0.04273 0.50752 0.0
C405 C 0.53014 0.00577 0.51631 0.0
O406 O 0.5165 0.05524 0.50878 0.0
O407 O 0.54165 0.04779 0.49834 0.0
C408 C 0.46685 0.0461 0.53716 0.0
C409 C 0.44189 0.06826 0.53622 0.0
C410 C 0.45824 0.07304 0.5281 0.0
C411 C 0.47063 0.06208 0.52862 0.0
C412 C 0.45068 0.04132 0.54536 0.0
C413 C 0.43831 0.0523 0.54493 0.0
C414 C 0.47976 0.03447 0.53771 0.0
C415 C 0.54326 0.03257 0.56195 0.0
C416 C 0.54108 0.07984 0.54087 0.0
C417 C 0.60328 0.03767 0.52367 0.0
C418 C 0.62593 0.01351 0.52786 0.0
C419 C 0.60854 0.00981 0.53408 0.0
C420 C 0.59733 0.02179 0.532 0.0
C421 C 0.62063 0.04154 0.5176 0.0
C422 C 0.6319 0.02958 0.5197 0.0
C423 C 0.59099 0.04959 0.52042 0.0
H424 H 0.46135 0.08509 0.5211 0.0
H425 H 0.48312 0.06602 0.52227 0.0
H426 H 0.44763 0.0291 0.55214 0.0
H427 H 0.42602 0.04838 0.55158 0.0
H428 H 0.60363 0.99769 0.54062 0.0
H429 H 0.58391 0.01857 0.53674 0.0
H430 H 0.62536 0.05365 0.51099 0.0
H431 H 0.64511 0.03271 0.51456 0.0
Dy432 Dy 0.30281 0.28482 0.77766 0.0
Dy433 Dy 0.26246 0.29534 0.77313 0.0
C434 C 0.29942 0.32455 0.76903 0.0
O435 O 0.2947 0.2871 0.8063 0.0
O436 O 0.27607 0.30638 0.80167 0.0
O437 O 0.3314 0.29116 0.78898 0.0
O438 O 0.31962 0.26681 0.76942 0.0
O439 O 0.25828 0.26964 0.78607 0.0
O440 O 0.28106 0.25837 0.77471 0.0
O441 O 0.26527 0.28106 0.74554 0.0
O442 O 0.29666 0.28767 0.74806 0.0
O443 O 0.23328 0.28701 0.7644 0.0
O444 O 0.24578 0.31438 0.77845 0.0
C445 C 0.28569 0.29875 0.81274 0.0
O446 O 0.30832 0.31519 0.77878 0.0
O447 O 0.28203 0.31795 0.76245 0.0
C448 C 0.35043 0.28209 0.76789 0.0
C449 C 0.38032 0.28913 0.74679 0.0
C450 C 0.36487 0.29591 0.74271 0.0
C451 C 0.35008 0.29242 0.75316 0.0
C452 C 0.36582 0.27546 0.77212 0.0
C453 C 0.38061 0.27894 0.76172 0.0
C454 C 0.33463 0.27759 0.77849 0.0
C455 C 0.26526 0.25585 0.78139 0.0
C456 C 0.28059 0.28217 0.73806 0.0
C457 C 0.21586 0.30006 0.78455 0.0
C458 C 0.18736 0.29577 0.80753 0.0
C459 C 0.20228 0.28804 0.81097 0.0
C460 C 0.21638 0.29017 0.79961 0.0
C461 C 0.20115 0.30791 0.78113 0.0
C462 C 0.18708 0.30582 0.79247 0.0
C463 C 0.23046 0.30216 0.77228 0.0
H464 H 0.36423 0.30399 0.73149 0.0
H465 H 0.33832 0.29768 0.74967 0.0
H466 H 0.36632 0.26736 0.78336 0.0
H467 H 0.39211 0.27328 0.76514 0.0
H468 H 0.20293 0.28006 0.82226 0.0
H469 H 0.22762 0.284 0.80251 0.0
H470 H 0.20054 0.31567 0.76964 0.0
H471 H 0.17605 0.31225 0.78953 0.0
Dy472 Dy 0.03591 0.01502 0.51825 0.0
Dy473 Dy 0.02542 0.05556 0.52176 0.0
C474 C 0.99717 0.01867 0.52798 0.0
O475 O 0.02118 0.01691 0.49074 0.0
O476 O 0.02817 0.04825 0.49221 0.0
O477 O 0.02673 0.98555 0.51078 0.0
O478 O 0.05466 0.99807 0.5229 0.0
O479 O 0.05553 0.06142 0.52062 0.0
O480 O 0.05892 0.03366 0.50719 0.0
O481 O 0.0292 0.04919 0.55081 0.0
O482 O 0.04811 0.03001 0.54609 0.0
O483 O 0.03113 0.08439 0.53238 0.0
O484 O 0.00672 0.07148 0.51338 0.0
C485 C 0.02244 0.03184 0.48272 0.0
O486 O 0.01117 0.01227 0.53294 0.0
O487 O 0.99932 0.03355 0.5199 0.0
C488 C 0.04068 0.96861 0.53025 0.0
C489 C 0.03798 0.94109 0.55393 0.0
C490 C 0.03396 0.9579 0.5596 0.0
C491 C 0.0353 0.97152 0.54789 0.0
C492 C 0.04464 0.95192 0.52452 0.0
C493 C 0.04331 0.93832 0.53619 0.0
C494 C 0.04212 0.98274 0.51768 0.0
C495 C 0.06508 0.05149 0.51212 0.0
C496 C 0.04121 0.04067 0.55713 0.0
C497 C 0.02096 0.10245 0.51091 0.0
C498 C 0.02675 0.13159 0.48911 0.0
C499 C 0.04146 0.12476 0.4957 0.0
C500 C 0.03859 0.11028 0.50641 0.0
C501 C 0.00632 0.10936 0.50447 0.0
C502 C 0.00916 0.12371 0.49367 0.0
C503 C 0.01734 0.0869 0.52189 0.0
H504 H 0.03002 0.96065 0.5732 0.0
H505 H 0.03219 0.98433 0.55259 0.0
H506 H 0.04872 0.94936 0.51094 0.0
H507 H 0.04622 0.9255 0.53118 0.0
H508 H 0.05515 0.13039 0.49231 0.0
H509 H 0.05013 0.10514 0.51105 0.0
H510 H 0.99262 0.10358 0.50775 0.0
H511 H 0.99756 0.12877 0.48905 0.0
Dy512 Dy 0.28369 0.81156 0.76872 0.0
Dy513 Dy 0.27618 0.77005 0.78089 0.0
C514 C 0.27097 0.8034 0.80825 0.0
O515 O 0.31192 0.80701 0.77473 0.0
O516 O 0.30475 0.78488 0.79386 0.0
O517 O 0.29667 0.84068 0.77327 0.0
O518 O 0.278 0.82877 0.7485 0.0
O519 O 0.29307 0.77083 0.75775 0.0
O520 O 0.28206 0.79178 0.74344 0.0
O521 O 0.25001 0.77155 0.76429 0.0
O522 O 0.25338 0.80251 0.7699 0.0
O523 O 0.26516 0.74105 0.7722 0.0
O524 O 0.27848 0.75068 0.80006 0.0
C525 C 0.31697 0.79724 0.78712 0.0
O526 O 0.28088 0.81492 0.79868 0.0
O527 O 0.26525 0.78569 0.80262 0.0
C528 C 0.27683 0.858 0.76187 0.0
C529 C 0.25491 0.88307 0.76636 0.0
C530 C 0.261 0.87532 0.78151 0.0
C531 C 0.27175 0.86282 0.77927 0.0
C532 C 0.27103 0.86596 0.7468 0.0
C533 C 0.26013 0.87832 0.749 0.0
C534 C 0.28705 0.84386 0.7589 0.0
C535 C 0.28997 0.77823 0.74294 0.0
C536 C 0.24295 0.78584 0.76465 0.0
C537 C 0.283 0.72311 0.7854 0.0
C538 C 0.30434 0.69739 0.78175 0.0
C539 C 0.30583 0.71129 0.77029 0.0
C540 C 0.2953 0.72404 0.77212 0.0
C541 C 0.28145 0.70932 0.79686 0.0
C542 C 0.29202 0.69659 0.79507 0.0
C543 C 0.27187 0.73651 0.78748 0.0
H544 H 0.25705 0.87858 0.79501 0.0
H545 H 0.27583 0.85671 0.7911 0.0
H546 H 0.27469 0.86237 0.73324 0.0
H547 H 0.2558 0.88421 0.73711 0.0
H548 H 0.31497 0.71221 0.75973 0.0
H549 H 0.29673 0.73459 0.76311 0.0
H550 H 0.27212 0.70844 0.80725 0.0
H551 H 0.29072 0.68628 0.80434 0.0
Dy552 Dy 0.51729 0.04353 0.00567 0.0
Dy553 Dy 0.5204 0.02067 0.04062 0.0
C554 C 0.52494 0.00348 1.0004 0.0
O555 O 0.48887 0.03578 0.01339 0.0
O556 O 0.49215 0.01036 0.02601 0.0
O557 O 0.50649 0.04548 0.97793 0.0
O558 O 0.52575 0.06888 0.99431 0.0
O559 O 0.50956 0.04436 0.05124 0.0
O560 O 0.52114 0.06387 0.03107 0.0
O561 O 0.54814 0.03939 0.04115 0.0
O562 O 0.54644 0.04242 0.01041 0.0
O563 O 0.52782 0.01923 0.06939 0.0
O564 O 0.51476 0.99444 0.05081 0.0
C565 C 0.48176 0.02019 0.01931 0.0
O566 O 0.51596 0.01462 0.99361 0.0
O567 O 0.53124 0.00584 0.01798 0.0
C568 C 0.52921 0.06361 0.96327 0.0
C569 C 0.55391 0.06867 0.93683 0.0
C570 C 0.55453 0.05586 0.94921 0.0
C571 C 0.54227 0.05336 0.96231 0.0
C572 C 0.52843 0.07633 0.95095 0.0
C573 C 0.54067 0.07881 0.93774 0.0
C574 C 0.51735 0.06177 0.97796 0.0
C575 C 0.51442 0.06101 0.04666 0.0
C576 C 0.556 0.0437 0.02649 0.0
C577 C 0.5045 0.99772 0.0796 0.0
C578 C 0.47721 0.99306 0.10329 0.0
C579 C 0.47536 1.00189 0.08768 0.0
C580 C 0.48888 0.00418 0.07592 0.0
C581 C 0.50606 0.98814 0.09468 0.0
C582 C 0.4924 0.98574 0.10648 0.0
C583 C 0.51922 1.00189 0.06793 0.0
H584 H 0.56436 0.04763 0.94865 0.0
H585 H 0.54309 0.04352 0.97181 0.0
H586 H 0.51853 0.08448 0.95169 0.0
H587 H 0.53998 0.08885 0.92844 0.0
H588 H 0.46375 0.00758 0.08492 0.0
H589 H 0.48744 0.01155 0.06426 0.0
H590 H 0.51804 0.98304 0.09763 0.0
H591 H 0.49415 0.97904 0.11857 0.0
Dy592 Dy 0.26799 0.26446 0.26348 0.0
Dy593 Dy 0.29064 0.304 0.286 0.0
C594 C 0.28352 0.26793 0.30606 0.0
O595 O 0.2469 0.27393 0.2787 0.0
O596 O 0.2609 0.30483 0.28443 0.0
O597 O 0.25259 0.23617 0.26215 0.0
O598 O 0.25808 0.24799 0.23711 0.0
O599 O 0.28802 0.30766 0.25624 0.0
O600 O 0.26155 0.28551 0.24672 0.0
O601 O 0.31221 0.28867 0.28139 0.0
O602 O 0.29674 0.26971 0.25567 0.0
O603 O 0.31187 0.3292 0.28754 0.0
O604 O 0.29585 0.32419 0.31016 0.0
C605 C 0.24637 0.29092 0.284 0.0
O606 O 0.28058 0.2577 0.28993 0.0
O607 O 0.28495 0.28559 0.3074 0.0
C608 C 0.26041 0.21788 0.23809 0.0
C609 C 0.2772 0.18905 0.23106 0.0
C610 C 0.28739 0.20739 0.23229 0.0
C611 C 0.27908 0.22164 0.23581 0.0
C612 C 0.24994 0.19965 0.23603 0.0
C613 C 0.25828 0.18529 0.23251 0.0
C614 C 0.25253 0.23296 0.24437 0.0
C615 C 0.2738 0.30018 0.24395 0.0
C616 C 0.3122 0.2777 0.26624 0.0
C617 C 0.30266 0.35423 0.30236 0.0
C618 C 0.28847 0.38491 0.29906 0.0
C619 C 0.29858 0.37915 0.28556 0.0
C620 C 0.30561 0.36394 0.28719 0.0
C621 C 0.29359 0.36076 0.31644 0.0
C622 C 0.28645 0.37589 0.31475 0.0
C623 C 0.30716 0.33637 0.30268 0.0
H624 H 0.30205 0.21081 0.23166 0.0
H625 H 0.28746 0.23563 0.23751 0.0
H626 H 0.23552 0.19653 0.23783 0.0
H627 H 0.25009 0.17127 0.23155 0.0
H628 H 0.30028 0.38583 0.27329 0.0
H629 H 0.31266 0.35937 0.27614 0.0
H630 H 0.29131 0.35368 0.32841 0.0
H631 H 0.27896 0.38027 0.3255 0.0
Dy632 Dy 0.53456 0.51915 0.02498 0.0
Dy633 Dy 0.52431 0.55958 0.03028 0.0
C634 C 0.49551 0.52222 0.03436 0.0
O635 O 0.52013 0.52209 0.99775 0.0
O636 O 0.5275 0.55349 1.0006 0.0
O637 O 0.52562 0.48989 0.01626 0.0
O638 O 0.55338 0.50215 0.02909 0.0
O639 O 0.55462 0.5652 0.03083 0.0
O640 O 0.55761 0.53859 0.0147 0.0
O641 O 0.52731 0.55195 0.05899 0.0
O642 O 0.54597 0.53267 0.05351 0.0
O643 O 0.53067 0.58848 0.04097 0.0
O644 O 0.50557 0.57581 0.02301 0.0
C645 C 0.52163 0.53743 0.99044 0.0
O646 O 0.50935 0.51548 0.03905 0.0
O647 O 0.49799 0.53765 0.0272 0.0
C648 C 0.53901 0.47254 0.03569 0.0
C649 C 0.53555 0.44473 0.05908 0.0
C650 C 0.52868 0.46018 0.06328 0.0
C651 C 0.53045 0.47396 0.05175 0.0
C652 C 0.54581 0.4572 0.03138 0.0
C653 C 0.54411 0.44345 0.04291 0.0
C654 C 0.54087 0.4869 0.02336 0.0
C655 C 0.56415 0.55606 0.0213 0.0
C656 C 0.53885 0.54273 0.06496 0.0
C657 C 0.52013 0.60638 0.0199 0.0
C658 C 0.52538 0.63488 0.9973 0.0
C659 C 0.53366 0.62023 0.9943 0.0
C660 C 0.53105 0.60613 0.00547 0.0
C661 C 0.51194 0.62095 0.02303 0.0
C662 C 0.51453 0.63504 0.01188 0.0
C663 C 0.51654 0.59117 0.03121 0.0
H664 H 0.52208 0.46177 0.07558 0.0
H665 H 0.52513 0.48574 0.05537 0.0
H666 H 0.5524 0.45581 0.01901 0.0
H667 H 0.54927 0.43166 0.03896 0.0
H668 H 0.54227 0.6197 0.98338 0.0
H669 H 0.53745 0.59497 0.00278 0.0
H670 H 0.50333 0.62132 0.03398 0.0
H671 H 0.50769 0.64588 0.01448 0.0
Dy672 Dy 0.78344 0.30811 0.26583 0.0
Dy673 Dy 0.77619 0.26623 0.27728 0.0
C674 C 0.76847 0.29837 0.3042 0.0
O675 O 0.81166 0.30406 0.27269 0.0
O676 O 0.80405 0.28185 0.29161 0.0
O677 O 0.79547 0.33738 0.27165 0.0
O678 O 0.77863 0.32573 0.24572 0.0
O679 O 0.79394 0.26791 0.25486 0.0
O680 O 0.78364 0.28921 0.24039 0.0
O681 O 0.74971 0.26722 0.26087 0.0
O682 O 0.75302 0.29831 0.26484 0.0
O683 O 0.76644 0.2372 0.26816 0.0
O684 O 0.77861 0.24687 0.29644 0.0
C685 C 0.81645 0.29433 0.28521 0.0
O686 O 0.77893 0.31037 0.29548 0.0
O687 O 0.76345 0.28076 0.29813 0.0
C688 C 0.77532 0.35405 0.25943 0.0
C689 C 0.75171 0.37754 0.26314 0.0
C690 C 0.7587 0.37089 0.27863 0.0
C691 C 0.77029 0.35916 0.27679 0.0
C692 C 0.76856 0.36091 0.24401 0.0
C693 C 0.75681 0.37247 0.24582 0.0
C694 C 0.7865 0.34068 0.25691 0.0
C695 C 0.79174 0.2758 0.24019 0.0
C696 C 0.74272 0.2815 0.26016 0.0
C697 C 0.78506 0.22019 0.2819 0.0
C698 C 0.80779 0.1957 0.27882 0.0
C699 C 0.80752 0.20833 0.26614 0.0
C700 C 0.79631 0.22047 0.26768 0.0
C701 C 0.78548 0.20786 0.29472 0.0
C702 C 0.79675 0.19579 0.29325 0.0
C703 C 0.77303 0.23279 0.28358 0.0
H704 H 0.75487 0.37443 0.29212 0.0
H705 H 0.77507 0.3539 0.28891 0.0
H706 H 0.77216 0.35709 0.23048 0.0
H707 H 0.75179 0.37755 0.23367 0.0
H708 H 0.81567 0.20864 0.25477 0.0
H709 H 0.79635 0.22996 0.25766 0.0
H710 H 0.77707 0.20758 0.30591 0.0
H711 H 0.79691 0.18662 0.30356 0.0
Dy712 Dy 0.01348 0.54415 0.50273 0.0
Dy713 Dy 0.02064 0.52266 0.53789 0.0
C714 C 0.01967 0.50367 0.49672 0.0
O715 O 0.98631 0.52563 0.50558 0.0
O716 O 0.99126 0.52297 0.53625 0.0
O717 O 1.00254 0.54374 0.47447 0.0
O718 O 0.01705 0.56946 0.49091 0.0
O719 O 0.02347 0.55203 0.54956 0.0
O720 O 0.00568 0.56019 0.52668 0.0
O721 O 0.0467 0.52881 0.52544 0.0
O722 O 0.04312 0.55448 0.51363 0.0
O723 O 0.039 0.52029 0.56108 0.0
O724 O 0.01216 0.50119 0.55478 0.0
C725 C 0.98016 0.52116 0.52103 0.0
O726 O 0.02345 0.5201 0.49146 0.0
O727 O 0.01461 0.5012 0.51312 0.0
C728 C 0.02247 0.56504 0.46013 0.0
C729 C 0.04524 0.57033 0.43198 0.0
C730 C 0.05144 0.56494 0.44859 0.0
C731 C 0.04013 0.56228 0.46252 0.0
C732 C 0.01629 0.57072 0.44376 0.0
C733 C 0.02761 0.57333 0.42974 0.0
C734 C 0.01034 0.56108 0.47442 0.0
C735 C 0.01391 0.56309 0.54366 0.0
C736 C 0.05363 0.5443 0.51935 0.0
C737 C 0.0235 0.5113 0.58584 0.0
C738 C 0.01826 0.51998 0.62269 0.0
C739 C 0.014 0.5307 0.60932 0.0
C740 C 0.01655 0.52636 0.59103 0.0
C741 C 0.02774 0.5005 0.59906 0.0
C742 C 0.02505 0.50476 0.61741 0.0
C743 C 0.0268 0.50738 0.56673 0.0
H744 H 0.06481 0.5622 0.45061 0.0
H745 H 0.04503 0.5577 0.47503 0.0
H746 H 1.00266 0.57284 0.44172 0.0
H747 H 0.02253 0.57759 0.41712 0.0
H748 H 0.00841 0.54229 0.61293 0.0
H749 H 0.01313 0.53477 0.58091 0.0
H750 H 0.03318 0.48886 0.59521 0.0
H751 H 0.02844 0.4963 0.62748 0.0
Dy752 Dy 0.79944 0.78233 0.27493 0.0
Dy753 Dy 0.75924 0.79319 0.2714 0.0
C754 C 0.79587 0.822 0.2655 0.0
O755 O 0.79235 0.78587 0.30386 0.0
O756 O 0.77429 0.80566 0.29913 0.0
O757 O 0.82816 0.78832 0.28573 0.0
O758 O 0.8157 0.76383 0.26655 0.0
O759 O 0.75577 0.76827 0.28555 0.0
O760 O 0.77743 0.75616 0.273 0.0
O761 O 0.76132 0.77855 0.24364 0.0
O762 O 0.79265 0.78468 0.24535 0.0
O763 O 0.72998 0.78467 0.26323 0.0
O764 O 0.74246 0.81205 0.27727 0.0
C765 C 0.78425 0.79836 0.31021 0.0
O766 O 0.80528 0.81262 0.27466 0.0
O767 O 0.77823 0.81557 0.2599 0.0
C768 C 0.84668 0.77832 0.26458 0.0
C769 C 0.8766 0.78423 0.24346 0.0
C770 C 0.86054 0.78951 0.23796 0.0
C771 C 0.84575 0.78661 0.24844 0.0
C772 C 0.86267 0.77318 0.27019 0.0
C773 C 0.87747 0.77611 0.25978 0.0
C774 C 0.83094 0.77443 0.27535 0.0
C775 C 0.76222 0.75416 0.28071 0.0
C776 C 0.77638 0.77933 0.23574 0.0
C777 C 0.71259 0.79758 0.28359 0.0
C778 C 0.68389 0.79298 0.30634 0.0
C779 C 0.69781 0.78372 0.30859 0.0
C780 C 0.71203 0.78603 0.29738 0.0
C781 C 0.69888 0.80695 0.28139 0.0
C782 C 0.68472 0.80471 0.29263 0.0
C783 C 0.72715 0.79976 0.27124 0.0
H784 H 0.85944 0.79599 0.22562 0.0
H785 H 0.83353 0.79072 0.24388 0.0
H786 H 0.86364 0.76669 0.28255 0.0
H787 H 0.88946 0.77163 0.26432 0.0
H788 H 0.69755 0.77441 0.31881 0.0
H789 H 0.72249 0.77867 0.29936 0.0
H790 H 0.69909 0.816 0.27091 0.0
H791 H 0.67447 0.81232 0.29065 0.0
Dy792 Dy 0.79729 0.29498 0.76307 0.0
Dy793 Dy 0.77239 0.29585 0.79711 0.0
C794 C 0.796 0.33187 0.78581 0.0
O795 O 0.81393 0.28744 0.78632 0.0
O796 O 0.80085 0.29806 0.81083 0.0
O797 O 0.81204 0.30911 0.74291 0.0
O798 O 0.81156 0.28064 0.7449 0.0
O799 O 0.77412 0.26707 0.79035 0.0
O800 O 0.77643 0.26817 0.75979 0.0
O801 O 0.75229 0.29318 0.77195 0.0
O802 O 0.77203 0.30189 0.75061 0.0
O803 O 0.74905 0.28389 0.81063 0.0
O804 O 0.76756 0.31006 0.8224 0.0
C805 C 0.81413 0.29197 0.80413 0.0
O806 O 0.80722 0.32228 0.78033 0.0
O807 O 0.77937 0.32364 0.78853 0.0
C808 C 0.80953 0.28991 0.71527 0.0
C809 C 0.79484 0.28623 0.67807 0.0
C810 C 0.81122 0.29957 0.68499 0.0
C811 C 0.81852 0.30132 0.70339 0.0
C812 C 0.79359 0.27607 0.70832 0.0
C813 C 0.78639 0.27416 0.68984 0.0
C814 C 0.81546 0.2942 0.73515 0.0
C815 C 0.77212 0.25881 0.77344 0.0
C816 C 0.75542 0.29818 0.75567 0.0
C817 C 0.7558 0.28964 0.84271 0.0
C818 C 0.75877 0.2744 0.87566 0.0
C819 C 0.77373 0.27818 0.86545 0.0
C820 C 0.77222 0.28565 0.84906 0.0
C821 C 0.74091 0.28619 0.85295 0.0
C822 C 0.74236 0.27856 0.86935 0.0
C823 C 0.75403 0.2965 0.82495 0.0
H824 H 0.81794 0.30937 0.67651 0.0
H825 H 0.83068 0.31222 0.70858 0.0
H826 H 0.78629 0.26721 0.71731 0.0
H827 H 0.77391 0.2636 0.68493 0.0
H828 H 0.78641 0.2748 0.86981 0.0
H829 H 0.78376 0.288 0.84116 0.0
H830 H 0.72812 0.28911 0.84814 0.0
H831 H 0.73065 0.27581 0.87701 0.0
Dy832 Dy 0.76792 0.76706 0.76297 0.0
Dy833 Dy 0.79118 0.807 0.78377 0.0
C834 C 0.78546 0.7721 0.80503 0.0
O835 O 0.74679 0.78288 0.76754 0.0
O836 O 0.76266 0.80333 0.79209 0.0
O837 O 0.7436 0.74468 0.76014 0.0
O838 O 0.7642 0.74402 0.74172 0.0
O839 O 0.77747 0.81318 0.75778 0.0
O840 O 0.77281 0.78492 0.74079 0.0
O841 O 0.81023 0.79642 0.76632 0.0
O842 O 0.79757 0.76567 0.76505 0.0
O843 O 0.81315 0.83142 0.78473 0.0
O844 O 0.79725 0.82774 0.80765 0.0
C845 C 0.74702 0.79455 0.78218 0.0
O846 O 0.77129 0.76396 0.79286 0.0
O847 O 0.79735 0.78695 0.80203 0.0
C848 C 0.74957 0.716 0.75128 0.0
C849 C 0.75518 0.68234 0.75992 0.0
C850 C 0.74775 0.69312 0.7723 0.0
C851 C 0.74503 0.70984 0.76806 0.0
C852 C 0.75574 0.70464 0.73839 0.0
C853 C 0.75864 0.68803 0.74269 0.0
C854 C 0.74949 0.73473 0.7477 0.0
C855 C 0.77407 0.80259 0.74183 0.0
C856 C 0.81144 0.77941 0.76304 0.0
C857 C 0.80645 0.85762 0.79991 0.0
C858 C 0.79682 0.89116 0.79988 0.0
C859 C 0.79812 0.8809 0.78321 0.0
C860 C 0.80281 0.86425 0.78321 0.0
C861 C 0.80597 0.86823 0.8166 0.0
C862 C 0.8011 0.88486 0.8166 0.0
C863 C 0.80926 0.83912 0.80003 0.0
H864 H 0.7447 0.68899 0.78556 0.0
H865 H 0.74007 0.71823 0.77826 0.0
H866 H 0.75924 0.70905 0.72533 0.0
H867 H 0.76464 0.68023 0.73292 0.0
H868 H 0.7946 0.88528 0.77011 0.0
H869 H 0.80292 0.85629 0.7701 0.0
H870 H 0.80873 0.86334 0.82962 0.0
H871 H 0.80025 0.89257 0.82963 0.0
Dy872 Dy 0.55269 0.55365 0.53836 0.0
Dy873 Dy 0.51249 0.5302 0.51777 0.0
C874 C 0.54762 0.53737 0.49584 0.0
O875 O 0.54129 0.57409 0.52434 0.0
O876 O 0.51055 0.55962 0.51929 0.0
O877 O 0.5778 0.5744 0.53807 0.0
O878 O 0.57338 0.56036 0.56204 0.0
O879 O 0.50875 0.5346 0.54758 0.0
O880 O 0.53329 0.55919 0.55805 0.0
O881 O 0.52864 0.50925 0.52194 0.0
O882 O 0.54887 0.52526 0.54652 0.0
O883 O 0.48967 0.50635 0.51582 0.0
O884 O 0.49031 0.52524 0.49567 0.0
C885 C 0.52419 0.57437 0.51967 0.0
O886 O 0.55825 0.54003 0.51157 0.0
O887 O 0.53007 0.5363 0.49541 0.0
C888 C 0.60315 0.56735 0.55372 0.0
C889 C 0.63584 0.55603 0.55498 0.0
C890 C 0.62376 0.5524 0.53858 0.0
C891 C 0.60752 0.55793 0.53798 0.0
C892 C 0.61546 0.57161 0.56993 0.0
C893 C 0.6317 0.56594 0.57058 0.0
C894 C 0.58515 0.57128 0.55375 0.0
C895 C 0.51772 0.54797 0.56042 0.0
C896 C 0.54024 0.50957 0.53651 0.0
C897 C 0.46166 0.51172 0.5044 0.0
C898 C 0.42648 0.5166 0.50783 0.0
C899 C 0.43941 0.51936 0.52349 0.0
C900 C 0.45691 0.51705 0.52178 0.0
C901 C 0.44858 0.50823 0.48886 0.0
C902 C 0.4311 0.5107 0.49054 0.0
C903 C 0.48056 0.51118 0.50214 0.0
H904 H 0.62638 0.54447 0.52645 0.0
H905 H 0.5981 0.55427 0.52538 0.0
H906 H 0.61222 0.57879 0.58222 0.0
H907 H 0.64081 0.56891 0.58338 0.0
H908 H 0.4363 0.5242 0.53693 0.0
H909 H 0.46689 0.52002 0.53394 0.0
H910 H 0.45207 0.50417 0.47535 0.0
H911 H 0.42134 0.50845 0.47828 0.0
Dy912 Dy 0.01448 0.53818 0.03333 0.0
Dy913 Dy 0.05837 0.54489 0.02676 0.0
C914 C 0.0298 0.55428 0.99812 0.0
O915 O 0.01643 0.51157 0.01744 0.0
O916 O 0.04749 0.5144 0.02227 0.0
O917 O 0.98641 0.53 0.02071 0.0
O918 O 0.99269 0.53975 0.04999 0.0
O919 O 0.05644 0.53712 0.05495 0.0
O920 O 0.0255 0.52429 0.05516 0.0
O921 O 0.05433 0.57322 0.03379 0.0
O922 O 0.02876 0.56598 0.04889 0.0
O923 O 0.08701 0.55637 0.03697 0.0
O924 O 0.07918 0.54106 0.00965 0.0
C925 C 0.03067 0.50446 0.01684 0.0
O926 O 0.01992 0.55624 0.01151 0.0
O927 O 0.04308 0.54609 0.99977 0.0
C928 C 0.96798 0.54751 0.03384 0.0
C929 C 0.9442 0.57061 0.02958 0.0
C930 C 0.96237 0.57601 0.02542 0.0
C931 C 0.97416 0.56454 0.02754 0.0
C932 C 0.94999 0.54214 0.03813 0.0
C933 C 0.93822 0.55358 0.03606 0.0
C934 C 0.9801 0.5352 0.03577 0.0
C935 C 0.04267 0.52727 0.06206 0.0
C936 C 0.04277 0.57818 0.04441 0.0
C937 C 0.10456 0.53629 0.02723 0.0
C938 C 0.12703 0.51247 0.03412 0.0
C939 C 0.10883 0.50834 0.03829 0.0
C940 C 0.09772 0.52017 0.03492 0.0
C941 C 0.1227 0.5406 0.02322 0.0
C942 C 0.13387 0.5288 0.02666 0.0
C943 C 0.09252 0.54819 0.02286 0.0
H944 H 0.96738 0.5889 0.0202 0.0
H945 H 0.98804 0.56889 0.02411 0.0
H946 H 0.94504 0.52908 0.04308 0.0
H947 H 0.92445 0.54914 0.03973 0.0
H948 H 0.10321 0.49604 0.0443 0.0
H949 H 0.08373 0.51667 0.03818 0.0
H950 H 0.12815 0.55294 0.01721 0.0
H951 H 0.14772 0.53227 0.02304 0.0
H952 H 0.99099 0.20845 0.93798 0.0
H953 H 0.99428 0.17999 0.94917 0.0
H954 H 0.02995 0.21137 0.99673 0.0
H955 H 0.02674 0.23994 0.9855 0.0
H956 H 0.0439 0.18415 0.98293 0.0
H957 H 0.98479 0.18731 0.99937 0.0
H958 H 0.95304 0.19008 0.99398 0.0
H959 H 0.93897 0.14127 0.95463 0.0
H960 H 0.97072 0.13835 0.9596 0.0
H961 H 0.04649 0.10808 0.0315 0.0
H962 H 0.04209 0.13685 0.02212 0.0
H963 H 1.00237 0.10653 0.97688 0.0
H964 H 0.00629 0.07768 0.98658 0.0
H965 H 0.99044 0.13359 0.98996 0.0
H966 H 0.049 0.1305 0.97229 0.0
H967 H 0.08072 0.12744 0.97668 0.0
H968 H 0.09587 0.17563 0.01688 0.0
H969 H 0.06416 0.17885 0.0129 0.0
C970 C 0.99943 0.20935 0.95091 0.0
C971 C 0.00849 0.22663 0.96084 0.0
C972 C 1.00128 0.19296 0.95736 0.0
C973 C 0.01225 0.19327 0.97399 0.0
C974 C 0.02137 0.21055 0.98391 0.0
C975 C 0.01944 0.22696 0.9775 0.0
C976 C 0.01446 0.17568 0.98079 0.0
C977 C 0.03218 0.17324 0.98472 0.0
C978 C 0.99928 0.16101 0.98272 0.0
C979 C 0.98018 0.16272 0.97973 0.0
C980 C 0.97497 0.17725 0.98946 0.0
C981 C 0.95696 0.17883 0.9865 0.0
C982 C 0.94401 0.16588 0.97394 0.0
C983 C 0.94903 0.1513 0.96434 0.0
C984 C 0.96702 0.14967 0.96723 0.0
C985 C 0.03677 0.10746 0.01957 0.0
C986 C 0.02684 0.09035 0.00983 0.0
C987 C 0.03434 0.12406 0.01408 0.0
C988 C 0.02212 0.12418 0.99846 0.0
C989 C 0.01194 0.10708 0.98893 0.0
C990 C 0.01424 0.09047 0.9945 0.0
C991 C 0.01991 0.142 0.99209 0.0
C992 C 1.00219 0.14449 0.98821 0.0
C993 C 0.03509 0.15666 0.99005 0.0
C994 C 0.05417 0.1548 0.99243 0.0
C995 C 0.05907 0.14037 0.98216 0.0
C996 C 0.07705 0.13862 0.98456 0.0
C997 C 0.09029 0.1513 0.99709 0.0
C998 C 0.08559 0.1658 0.0072 0.0
C999 C 0.06762 0.1676 0.00487 0.0
H1000 H 0.1042 0.14992 0.99893 0.0
H1001 H 0.93008 0.16713 0.97167 0.0
H1002 H 0.1013 0.81595 0.17983 0.0
H1003 H 0.12963 0.81701 0.19909 0.0
H1004 H 0.15855 0.81875 0.15117 0.0
H1005 H 0.12999 0.81717 0.13167 0.0
H1006 H 0.16873 0.79568 0.17206 0.0
H1007 H 0.16393 0.85739 0.18355 0.0
H1008 H 0.14902 0.88218 0.19157 0.0
H1009 H 0.1421 0.86497 0.24483 0.0
H1010 H 0.15675 0.8399 0.23704 0.0
H1011 H 0.25618 0.81658 0.22603 0.0
H1012 H 0.23004 0.81845 0.20497 0.0
H1013 H 0.19645 0.81469 0.24943 0.0
H1014 H 0.2226 0.81301 0.27066 0.0
H1015 H 0.19017 0.84025 0.22892 0.0
H1016 H 0.19264 0.77726 0.21652 0.0
H1017 H 0.20766 0.75246 0.20877 0.0
H1018 H 0.21916 0.77237 0.1575 0.0
H1019 H 0.20487 0.79777 0.16531 0.0
C1020 C 0.11371 0.81671 0.17336 0.0
C1021 C 0.11336 0.81661 0.15418 0.0
C1022 C 0.12997 0.81737 0.18444 0.0
C1023 C 0.14643 0.81819 0.1767 0.0
C1024 C 0.14611 0.81812 0.15753 0.0
C1025 C 0.12978 0.81735 0.14639 0.0
C1026 C 0.16376 0.8188 0.18864 0.0
C1027 C 0.17354 0.80564 0.18432 0.0
C1028 C 0.17006 0.83156 0.20487 0.0
C1029 C 0.16131 0.84667 0.20964 0.0
C1030 C 0.15912 0.85881 0.19692 0.0
C1031 C 0.15073 0.87292 0.20144 0.0
C1032 C 0.14458 0.87512 0.21868 0.0
C1033 C 0.14685 0.86324 0.23147 0.0
C1034 C 0.15522 0.84909 0.22702 0.0
C1035 C 0.24328 0.81626 0.23141 0.0
C1036 C 0.24158 0.81464 0.25014 0.0
C1037 C 0.22827 0.81722 0.21927 0.0
C1038 C 0.21112 0.81651 0.22549 0.0
C1039 C 0.20948 0.81525 0.24424 0.0
C1040 C 0.22448 0.81425 0.25639 0.0
C1041 C 0.19488 0.81697 0.21251 0.0
C1042 C 0.18536 0.83036 0.21661 0.0
C1043 C 0.18885 0.80445 0.1961 0.0
C1044 C 0.19763 0.78936 0.19145 0.0
C1045 C 0.19849 0.77643 0.20365 0.0
C1046 C 0.20693 0.76231 0.19928 0.0
C1047 C 0.21437 0.76087 0.18265 0.0
C1048 C 0.21342 0.77355 0.17038 0.0
C1049 C 0.20517 0.78781 0.17477 0.0
H1050 H 0.22089 0.74993 0.17927 0.0
H1051 H 0.13809 0.88606 0.22215 0.0
H1052 H 0.50305 0.82619 0.48829 0.0
H1053 H 0.50526 0.85846 0.49969 0.0
H1054 H 0.52782 0.87494 0.45053 0.0
H1055 H 0.52551 0.84291 0.43909 0.0
H1056 H 0.53282 0.88937 0.50828 0.0
H1057 H 0.5128 0.91079 0.43749 0.0
H1058 H 0.49419 0.8967 0.40786 0.0
H1059 H 0.46059 0.85598 0.43513 0.0
H1060 H 0.47881 0.86997 0.46495 0.0
H1061 H 0.55655 0.98661 0.51474 0.0
H1062 H 0.55263 0.9539 0.50532 0.0
H1063 H 0.49415 0.9462 0.4949 0.0
H1064 H 0.49802 0.97912 0.50396 0.0
H1065 H 0.50439 0.92641 0.46856 0.0
H1066 H 0.5154 0.93329 0.53429 0.0
H1067 H 0.53203 0.9468 0.56495 0.0
H1068 H 0.57942 0.92975 0.55008 0.0
H1069 H 0.56316 0.91635 0.51923 0.0
C1070 C 0.50856 0.8367 0.47997 0.0
C1071 C 0.51402 0.83185 0.46272 0.0
C1072 C 0.50986 0.8552 0.48651 0.0
C1073 C 0.51648 0.86929 0.47591 0.0
C1074 C 0.52236 0.86444 0.45891 0.0
C1075 C 0.5211 0.84604 0.4524 0.0
C1076 C 0.51702 0.88897 0.48233 0.0
C1077 C 0.5266 0.89744 0.49957 0.0
C1078 C 0.50862 0.8996 0.47124 0.0
C1079 C 0.4973 0.89134 0.45343 0.0
C1080 C 0.50138 0.89889 0.43718 0.0
C1081 C 0.49091 0.89091 0.42035 0.0
C1082 C 0.47625 0.87542 0.41961 0.0
C1083 C 0.47198 0.86794 0.43571 0.0
C1084 C 0.48238 0.87588 0.45258 0.0
C1085 C 0.54281 0.97803 0.51045 0.0
C1086 C 0.5276 0.98567 0.51022 0.0
C1087 C 0.54057 0.95918 0.50513 0.0
C1088 C 0.52304 0.94728 0.49962 0.0
C1089 C 0.50784 0.95492 0.49911 0.0
C1090 C 0.51008 0.97383 0.50436 0.0
C1091 C 0.52061 0.92699 0.49433 0.0
C1092 C 0.51064 0.91838 0.47729 0.0
C1093 C 0.52838 0.91617 0.50575 0.0
C1094 C 0.5381 0.92394 0.5244 0.0
C1095 C 0.5294 0.9325 0.53753 0.0
C1096 C 0.53876 0.94013 0.55494 0.0
C1097 C 0.55678 0.93916 0.55945 0.0
C1098 C 0.56546 0.9305 0.54657 0.0
C1099 C 0.55617 0.92286 0.52912 0.0
H1100 H 0.564 0.94509 0.57294 0.0
H1101 H 0.4682 0.86923 0.40656 0.0
H1102 H 0.53336 0.31329 0.67591 0.0
H1103 H 0.50728 0.31088 0.69368 0.0
H1104 H 0.47021 0.29812 0.64326 0.0
H1105 H 0.49632 0.30059 0.62536 0.0
H1106 H 0.46041 0.32235 0.66844 0.0
H1107 H 0.47542 0.26441 0.66799 0.0
H1108 H 0.49565 0.24383 0.67242 0.0
H1109 H 0.50757 0.26486 0.72997 0.0
H1110 H 0.48759 0.28578 0.72583 0.0
H1111 H 0.37889 0.28806 0.70917 0.0
H1112 H 0.40439 0.29212 0.69055 0.0
H1113 H 0.44266 0.30138 0.73984 0.0
H1114 H 0.41723 0.2973 0.75853 0.0
H1115 H 0.45151 0.27874 0.71459 0.0
H1116 H 0.43715 0.33701 0.7153 0.0
H1117 H 0.41687 0.35762 0.71124 0.0
H1118 H 0.40372 0.33618 0.65385 0.0
H1119 H 0.42385 0.31534 0.65758 0.0
C1120 C 0.51966 0.31002 0.66858 0.0
C1121 C 0.51694 0.30705 0.6492 0.0
C1122 C 0.50474 0.30859 0.67877 0.0
C1123 C 0.4867 0.30411 0.66985 0.0
C1124 C 0.48396 0.30156 0.65048 0.0
C1125 C 0.4989 0.30292 0.64026 0.0
C1126 C 0.47076 0.30178 0.68076 0.0
C1127 C 0.45833 0.31265 0.67836 0.0
C1128 C 0.46818 0.2894 0.69401 0.0
C1129 C 0.48015 0.27679 0.69656 0.0
C1130 C 0.48247 0.26475 0.68156 0.0
C1131 C 0.49387 0.25301 0.68402 0.0
C1132 C 0.50293 0.25307 0.70146 0.0
C1133 C 0.50056 0.26485 0.71647 0.0
C1134 C 0.48919 0.27664 0.71408 0.0
C1135 C 0.39274 0.2912 0.7161 0.0
C1136 C 0.39594 0.29234 0.73541 0.0
C1137 C 0.40735 0.2935 0.7054 0.0
C1138 C 0.42555 0.29722 0.71374 0.0
C1139 C 0.42878 0.29846 0.73302 0.0
C1140 C 0.41418 0.29608 0.74371 0.0
C1141 C 0.44121 0.29941 0.70242 0.0
C1142 C 0.45358 0.28848 0.7047 0.0
C1143 C 0.44375 0.31178 0.68913 0.0
C1144 C 0.43187 0.32449 0.68676 0.0
C1145 C 0.42986 0.33662 0.70183 0.0
C1146 C 0.41839 0.34834 0.69959 0.0
C1147 C 0.40894 0.34814 0.68233 0.0
C1148 C 0.41102 0.33629 0.66723 0.0
C1149 C 0.42249 0.32455 0.66939 0.0
H1150 H 0.40003 0.3572 0.68064 0.0
H1151 H 0.51175 0.24396 0.70334 0.0
H1152 H 0.03364 0.8271 0.67629 0.0
H1153 H 0.0363 0.85343 0.65909 0.0
H1154 H 0.01833 0.81658 0.6083 0.0
H1155 H 0.01532 0.79028 0.62544 0.0
H1156 H 0.05623 0.86611 0.63356 0.0
H1157 H 0.99358 0.83471 0.57828 0.0
H1158 H 0.96338 0.81235 0.57524 0.0
H1159 H 0.96201 0.8223 0.63362 0.0
H1160 H 0.99206 0.84488 0.63698 0.0
H1161 H 0.0607 0.91823 0.55868 0.0
H1162 H 0.05788 0.89373 0.5781 0.0
H1163 H 0.00971 0.90644 0.59724 0.0
H1164 H 0.01205 0.93059 0.57732 0.0
H1165 H 1.004 0.87058 0.59003 0.0
H1166 H 0.05144 0.9188 0.62463 0.0
H1167 H 0.08052 0.94294 0.6302 0.0
H1168 H 0.11033 0.90263 0.61769 0.0
H1169 H 0.08139 0.87827 0.61179 0.0
C1170 C 0.03029 0.82462 0.66145 0.0
C1171 C 0.02417 0.80657 0.65226 0.0
C1172 C 0.03185 0.8397 0.65161 0.0
C1173 C 0.02728 0.83709 0.63237 0.0
C1174 C 0.0216 0.81905 0.62315 0.0
C1175 C 0.01997 0.80398 0.63298 0.0
C1176 C 0.02834 0.85317 0.62196 0.0
C1177 C 0.0448 0.86705 0.62403 0.0
C1178 C 0.01334 0.85474 0.60979 0.0
C1179 C 0.99516 0.84135 0.60789 0.0
C1180 C 0.98679 0.83217 0.59045 0.0
C1181 C 0.96971 0.81945 0.58868 0.0
C1182 C 0.96081 0.81586 0.60423 0.0
C1183 C 0.96895 0.82504 0.62159 0.0
C1184 C 0.98601 0.83778 0.62344 0.0
C1185 C 0.0494 0.91577 0.5669 0.0
C1186 C 0.03659 0.92647 0.56634 0.0
C1187 C 0.04792 0.90183 0.57819 0.0
C1188 C 0.03369 0.89827 0.58935 0.0
C1189 C 0.02085 0.90889 0.58882 0.0
C1190 C 0.02232 0.92285 0.57752 0.0
C1191 C 0.03203 0.88329 0.6013 0.0
C1192 C 0.01545 0.86963 0.59953 0.0
C1193 C 0.04678 0.88213 0.61404 0.0
C1194 C 0.06422 0.89673 0.61761 0.0
C1195 C 0.06418 0.9151 0.62293 0.0
C1196 C 0.08064 0.92882 0.62617 0.0
C1197 C 0.09726 0.92433 0.62426 0.0
C1198 C 0.09745 0.9061 0.61915 0.0
C1199 C 0.08102 0.89232 0.61587 0.0
H1200 H 0.10999 0.93497 0.62677 0.0
H1201 H 0.9476 0.806 0.60283 0.0
H1202 H 0.47695 0.79515 0.86473 0.0
H1203 H 0.44542 0.79424 0.85345 0.0
H1204 H 0.46334 0.81492 0.804 0.0
H1205 H 0.49523 0.81627 0.81554 0.0
H1206 H 0.4382 0.83161 0.81656 0.0
H1207 H 0.44026 0.76814 0.80399 0.0
H1208 H 0.44774 0.74016 0.81309 0.0
H1209 H 0.41192 0.73891 0.85523 0.0
H1210 H 0.40418 0.76684 0.84634 0.0
H1211 H 0.34692 0.81346 0.77046 0.0
H1212 H 0.37927 0.81519 0.77946 0.0
H1213 H 0.3648 0.78795 0.82664 0.0
H1214 H 0.33246 0.78548 0.81723 0.0
H1215 H 0.38885 0.77438 0.81374 0.0
H1216 H 0.38671 0.8369 0.82806 0.0
H1217 H 0.38033 0.86631 0.82222 0.0
H1218 H 0.41665 0.87106 0.7804 0.0
H1219 H 0.42308 0.84155 0.78584 0.0
C1220 C 0.47425 0.79941 0.85139 0.0
C1221 C 0.48873 0.80563 0.841 0.0
C1222 C 0.45609 0.79883 0.84488 0.0
C1223 C 0.45173 0.8042 0.82765 0.0
C1224 C 0.46619 0.8106 0.81729 0.0
C1225 C 0.48445 0.81127 0.82386 0.0
C1226 C 0.43213 0.80318 0.82064 0.0
C1227 C 0.42746 0.81901 0.81564 0.0
C1228 C 0.41785 0.78694 0.81989 0.0
C1229 C 0.42173 0.76961 0.82457 0.0
C1230 C 0.43395 0.76186 0.81517 0.0
C1231 C 0.43824 0.74601 0.82028 0.0
C1232 C 0.43036 0.7378 0.83477 0.0
C1233 C 0.418 0.74528 0.84401 0.0
C1234 C 0.41359 0.76106 0.83888 0.0
C1235 C 0.35062 0.80795 0.78283 0.0
C1236 C 0.33694 0.7994 0.79312 0.0
C1237 C 0.36925 0.80902 0.78806 0.0
C1238 C 0.37483 0.80196 0.80398 0.0
C1239 C 0.36112 0.79351 0.81429 0.0
C1240 C 0.34251 0.79218 0.80892 0.0
C1241 C 0.39474 0.80291 0.80974 0.0
C1242 C 0.39952 0.78702 0.81451 0.0
C1243 C 0.40906 0.81919 0.81053 0.0
C1244 C 0.40521 0.83692 0.80722 0.0
C1245 C 0.39323 0.84415 0.81752 0.0
C1246 C 0.38962 0.86085 0.8143 0.0
C1247 C 0.39804 0.87052 0.80091 0.0
C1248 C 0.41012 0.86354 0.79075 0.0
C1249 C 0.41376 0.84683 0.7939 0.0
H1250 H 0.39523 0.88345 0.79844 0.0
H1251 H 0.43379 0.72561 0.8388 0.0
H1252 H 0.51166 0.21987 0.12511 0.0
H1253 H 0.51081 0.19076 0.10692 0.0
H1254 H 0.50502 0.16367 0.15556 0.0
H1255 H 0.5064 0.19306 0.174 0.0
H1256 H 0.52828 0.15148 0.13661 0.0
H1257 H 0.46826 0.15858 0.12079 0.0
H1258 H 0.4449 0.17425 0.11064 0.0
H1259 H 0.4662 0.17851 0.05867 0.0
H1260 H 0.48986 0.16308 0.0686 0.0
H1261 H 0.50624 0.06222 0.08251 0.0
H1262 H 0.50399 0.08902 0.10316 0.0
H1263 H 0.51594 0.12294 0.06007 0.0
H1264 H 0.51826 0.09636 0.03944 0.0
H1265 H 0.48751 0.12992 0.07766 0.0
H1266 H 0.54862 0.1241 0.09486 0.0
H1267 H 0.57144 0.1079 0.10528 0.0
H1268 H 0.54681 0.10033 0.15518 0.0
H1269 H 0.52368 0.11628 0.14493 0.0
C1270 C 0.5101 0.20772 0.13196 0.0
C1271 C 0.50899 0.20883 0.15103 0.0
C1272 C 0.50952 0.19099 0.12149 0.0
C1273 C 0.50753 0.17479 0.1297 0.0
C1274 C 0.5065 0.17588 0.1488 0.0
C1275 C 0.50721 0.19269 0.15934 0.0
C1276 C 0.50691 0.15693 0.11836 0.0
C1277 C 0.5191 0.14664 0.1239 0.0
C1278 C 0.49517 0.15055 0.10157 0.0
C1279 C 0.48093 0.1598 0.09551 0.0
C1280 C 0.46804 0.16297 0.10725 0.0
C1281 C 0.45474 0.1718 0.10152 0.0
C1282 C 0.45409 0.17741 0.08404 0.0
C1283 C 0.46673 0.17417 0.07221 0.0
C1284 C 0.48008 0.16536 0.07788 0.0
C1285 C 0.50835 0.07537 0.0774 0.0
C1286 C 0.51251 0.07707 0.05927 0.0
C1287 C 0.50712 0.09072 0.08927 0.0
C1288 C 0.50992 0.10811 0.08326 0.0
C1289 C 0.51372 0.10973 0.06508 0.0
C1290 C 0.51511 0.09447 0.05329 0.0
C1291 C 0.50901 0.12469 0.09581 0.0
C1292 C 0.49654 0.13472 0.09047 0.0
C1293 C 0.52038 0.13072 0.11283 0.0
C1294 C 0.5343 0.1212 0.11903 0.0
C1295 C 0.54798 0.11884 0.10798 0.0
C1296 C 0.56098 0.10973 0.11387 0.0
C1297 C 0.56054 0.10304 0.13085 0.0
C1298 C 0.54711 0.10549 0.14201 0.0
C1299 C 0.53406 0.11458 0.13618 0.0
H1300 H 0.57062 0.09599 0.13539 0.0
H1301 H 0.44378 0.18424 0.07963 0.0
H1302 H 0.07962 0.2881 0.31845 0.0
H1303 H 0.10862 0.28543 0.30745 0.0
H1304 H 0.13787 0.33271 0.34588 0.0
H1305 H 0.10894 0.3354 0.35693 0.0
H1306 H 0.15165 0.33388 0.31287 0.0
H1307 H 0.13803 0.28992 0.35505 0.0
H1308 H 0.11924 0.26391 0.36795 0.0
H1309 H 0.11647 0.22866 0.31747 0.0
H1310 H 0.13504 0.25453 0.30418 0.0
H1311 H 0.24135 0.32063 0.3061 0.0
H1312 H 0.21285 0.32512 0.31669 0.0
H1313 H 0.18286 0.27364 0.28496 0.0
H1314 H 0.21146 0.26866 0.27524 0.0
H1315 H 0.16951 0.27536 0.3151 0.0
H1316 H 0.18328 0.32027 0.27277 0.0
H1317 H 0.20388 0.3462 0.26137 0.0
H1318 H 0.20729 0.37985 0.313 0.0
H1319 H 0.18683 0.35407 0.32478 0.0
C1320 C 0.0922 0.29804 0.32446 0.0
C1321 C 0.09184 0.31196 0.33863 0.0
C1322 C 0.10885 0.29645 0.31822 0.0
C1323 C 0.12565 0.30876 0.3259 0.0
C1324 C 0.12523 0.323 0.33965 0.0
C1325 C 0.10861 0.3245 0.34601 0.0
C1326 C 0.14363 0.30647 0.32002 0.0
C1327 C 0.15559 0.32111 0.3135 0.0
C1328 C 0.14893 0.28982 0.3206 0.0
C1329 C 0.13776 0.27422 0.32855 0.0
C1330 C 0.13329 0.27666 0.34665 0.0
C1331 C 0.1227 0.26194 0.35404 0.0
C1332 C 0.11662 0.24466 0.34351 0.0
C1333 C 0.12116 0.24206 0.32559 0.0
C1334 C 0.13173 0.25675 0.31813 0.0
C1335 C 0.22867 0.31031 0.30128 0.0
C1336 C 0.22881 0.29431 0.2897 0.0
C1337 C 0.21224 0.31294 0.30728 0.0
C1338 C 0.19532 0.29994 0.30142 0.0
C1339 C 0.19552 0.28398 0.28979 0.0
C1340 C 0.21197 0.28116 0.28413 0.0
C1341 C 0.1775 0.30264 0.30755 0.0
C1342 C 0.16556 0.28809 0.31425 0.0
C1343 C 0.17225 0.31939 0.30714 0.0
C1344 C 0.18366 0.33519 0.2997 0.0
C1345 C 0.18841 0.33321 0.28168 0.0
C1346 C 0.20007 0.34787 0.27516 0.0
C1347 C 0.20696 0.36462 0.2865 0.0
C1348 C 0.20197 0.36685 0.30427 0.0
C1349 C 0.19031 0.35223 0.31085 0.0
H1350 H 0.21619 0.37586 0.28154 0.0
H1351 H 0.10844 0.23327 0.34926 0.0
H1352 H 0.92922 0.03925 0.19603 0.0
H1353 H 0.94187 0.04088 0.16669 0.0
H1354 H 0.99438 0.03913 0.19339 0.0
H1355 H 0.98179 0.0377 0.22298 0.0
H1356 H 0.99823 0.0646 0.16984 0.0
H1357 H 0.96607 1.00125 0.16693 0.0
H1358 H 0.93958 0.9753 0.16863 0.0
H1359 H 0.90864 0.99201 0.12481 0.0
H1360 H 0.93486 0.01822 0.12302 0.0
H1361 H 0.03867 0.04321 0.09012 0.0
H1362 H 0.02568 0.04311 0.11922 0.0
H1363 H 0.97337 0.04351 0.09101 0.0
H1364 H 0.98625 0.04329 0.06158 0.0
H1365 H 0.96904 0.01922 0.11516 0.0
H1366 H 1.00123 0.08225 0.11763 0.0
H1367 H 0.02764 0.10823 0.11584 0.0
H1368 H 0.05839 0.09232 0.16036 0.0
H1369 H 0.03224 0.06608 0.16226 0.0
C1370 C 0.94348 0.03922 0.1957 0.0
C1371 C 0.95449 0.03828 0.21185 0.0
C1372 C 0.95068 0.04007 0.17886 0.0
C1373 C 0.96903 0.03989 0.17772 0.0
C1374 C 0.98016 0.03924 0.19389 0.0
C1375 C 0.97295 0.03838 0.21079 0.0
C1376 C 0.97655 0.04041 0.15966 0.0
C1377 C 0.99199 0.05452 0.15796 0.0
C1378 C 0.96814 0.02758 0.14396 0.0
C1379 C 0.95237 0.0118 0.14497 0.0
C1380 C 0.95356 0.99947 0.15776 0.0
C1381 C 0.93861 0.98471 0.15872 0.0
C1382 C 0.92242 0.98204 0.14687 0.0
C1383 C 0.92117 0.99411 0.134 0.0
C1384 C 0.93609 0.00891 0.13299 0.0
C1385 C 0.02441 0.04337 0.09002 0.0
C1386 C 0.01354 0.04332 0.07343 0.0
C1387 C 0.01701 0.0434 0.10677 0.0
C1388 C 0.99859 0.04355 0.10743 0.0
C1389 C 0.98764 0.04345 0.09089 0.0
C1390 C 0.99505 0.04339 0.07407 0.0
C1391 C 0.99075 0.04338 0.12534 0.0
C1392 C 0.97525 0.02933 0.12702 0.0
C1393 C 0.99909 0.05628 0.14102 0.0
C1394 C 0.01482 0.0721 0.13997 0.0
C1395 C 0.01367 0.08421 0.12695 0.0
C1396 C 0.02859 0.099 0.12593 0.0
C1397 C 0.0447 0.1019 0.13795 0.0
C1398 C 0.04591 0.09004 0.15105 0.0
C1399 C 0.03103 0.07522 0.15211 0.0
H1400 H 0.05623 0.11336 0.13714 0.0
H1401 H 0.91086 0.97059 0.14764 0.0
H1402 H 0.27458 0.66727 0.47966 0.0
H1403 H 0.27778 0.69062 0.45879 0.0
H1404 H 0.30974 0.73135 0.50263 0.0
H1405 H 0.30686 0.70793 0.52357 0.0
H1406 H 0.2792 0.74093 0.48369 0.0
H1407 H 0.33178 0.72019 0.47073 0.0
H1408 H 0.34932 0.69752 0.46317 0.0
H1409 H 0.31493 0.67839 0.41166 0.0
H1410 H 0.29699 0.70075 0.41904 0.0
H1411 H 0.28835 0.804 0.41607 0.0
H1412 H 0.2956 0.78733 0.44146 0.0
H1413 H 0.27253 0.73589 0.40636 0.0
H1414 H 0.26554 0.7524 0.38108 0.0
H1415 H 0.30491 0.73627 0.42418 0.0
H1416 H 0.24919 0.75202 0.43924 0.0
H1417 H 0.23001 0.77324 0.44644 0.0
H1418 H 0.26868 0.80029 0.4934 0.0
H1419 H 0.28822 0.77935 0.48632 0.0
C1420 C 0.28246 0.68115 0.48479 0.0
C1421 C 0.29047 0.68584 0.50319 0.0
C1422 C 0.28433 0.69443 0.47286 0.0
C1423 C 0.29407 0.71262 0.47921 0.0
C1424 C 0.30225 0.71733 0.49753 0.0
C1425 C 0.30063 0.70397 0.50941 0.0
C1426 C 0.29461 0.72679 0.46684 0.0
C1427 C 0.28519 0.74023 0.47086 0.0
C1428 C 0.30218 0.72557 0.45003 0.0
C1429 C 0.31295 0.71208 0.44551 0.0
C1430 C 0.32785 0.71104 0.45786 0.0
C1431 C 0.33789 0.69827 0.45359 0.0
C1432 C 0.33323 0.6865 0.43696 0.0
C1433 C 0.31853 0.68751 0.42455 0.0
C1434 C 0.30843 0.70025 0.42876 0.0
C1435 C 0.2847 0.78913 0.41393 0.0
C1436 C 0.27645 0.77944 0.39668 0.0
C1437 C 0.28889 0.77965 0.42836 0.0
C1438 C 0.28463 0.76039 0.42574 0.0
C1439 C 0.27609 0.75076 0.40861 0.0
C1440 C 0.27207 0.76018 0.39421 0.0
C1441 C 0.28888 0.74997 0.4407 0.0
C1442 C 0.29926 0.73725 0.43719 0.0
C1443 C 0.28199 0.7517 0.45787 0.0
C1444 C 0.27028 0.76429 0.46211 0.0
C1445 C 0.25368 0.7626 0.451 0.0
C1446 C 0.24273 0.77456 0.45508 0.0
C1447 C 0.24816 0.78815 0.47033 0.0
C1448 C 0.26452 0.78978 0.48157 0.0
C1449 C 0.27553 0.77788 0.47753 0.0
H1450 H 0.23965 0.79739 0.47348 0.0
H1451 H 0.34102 0.67662 0.43368 0.0
H1452 H 0.60258 1.00299 0.72362 0.0
H1453 H 0.57903 0.99663 0.69699 0.0
H1454 H 0.62114 0.00516 0.66073 0.0
H1455 H 0.64471 0.0117 0.68723 0.0
H1456 H 0.57776 0.02403 0.67577 0.0
H1457 H 0.60382 0.98067 0.61863 0.0
H1458 H 0.61725 0.95414 0.61575 0.0
H1459 H 0.5932 0.93553 0.66322 0.0
H1460 H 0.57938 0.96179 0.66624 0.0
H1461 H 0.57187 0.04993 0.58788 0.0
H1462 H 0.58118 0.03956 0.61666 0.0
H1463 H 0.53603 0.99111 0.60472 0.0
H1464 H 0.52642 1.0015 0.5758 0.0
H1465 H 0.57151 0.98487 0.61581 0.0
H1466 H 0.53128 0.02026 0.63663 0.0
H1467 H 0.51844 0.04722 0.63913 0.0
H1468 H 0.57059 0.08127 0.6646 0.0
H1469 H 0.58382 0.05458 0.66202 0.0
C1470 C 0.60679 1.00299 0.70992 0.0
C1471 C 0.62544 0.00805 0.70745 0.0
C1472 C 0.59333 0.99935 0.69476 0.0
C1473 C 0.59836 1.00039 0.67693 0.0
C1474 C 0.61697 0.00406 0.67436 0.0
C1475 C 0.63042 0.00792 0.68951 0.0
C1476 C 0.58471 1.00081 0.66142 0.0
C1477 C 0.5761 0.01524 0.66275 0.0
C1478 C 0.58246 0.98922 0.64453 0.0
C1479 C 0.59062 0.97329 0.64271 0.0
C1480 C 0.60129 0.97087 0.62839 0.0
C1481 C 0.609 0.95588 0.62675 0.0
C1482 C 0.6061 0.94317 0.63931 0.0
C1483 C 0.59547 0.94541 0.65353 0.0
C1484 C 0.58773 0.96037 0.65523 0.0
C1485 C 0.56384 0.03712 0.59139 0.0
C1486 C 0.54838 0.02655 0.57964 0.0
C1487 C 0.56915 0.03125 0.60784 0.0
C1488 C 0.55919 0.01467 0.61279 0.0
C1489 C 0.5438 0.00399 0.6011 0.0
C1490 C 0.53831 0.00999 0.58468 0.0
C1491 C 0.56539 0.00855 0.63008 0.0
C1492 C 0.57269 0.99322 0.62901 0.0
C1493 C 0.56651 0.01932 0.64725 0.0
C1494 C 0.55855 0.0354 0.64908 0.0
C1495 C 0.54004 0.03351 0.64268 0.0
C1496 C 0.53269 0.04875 0.64412 0.0
C1497 C 0.5437 0.06594 0.65201 0.0
C1498 C 0.56207 0.06793 0.65851 0.0
C1499 C 0.5695 0.05274 0.65709 0.0
H1500 H 0.53798 0.07773 0.6531 0.0
H1501 H 0.61209 0.93158 0.63802 0.0
H1502 H 0.26203 0.36872 0.96999 0.0
H1503 H 0.2631 0.35436 0.93891 0.0
H1504 H 0.29544 0.32032 0.96115 0.0
H1505 H 0.29453 0.33481 0.99243 0.0
H1506 H 0.30986 0.33561 0.93233 0.0
H1507 H 0.25066 0.30223 0.94382 0.0
H1508 H 0.21946 0.29779 0.9528 0.0
H1509 H 0.20469 0.32656 0.90897 0.0
H1510 H 0.23588 0.3315 0.89993 0.0
H1511 H 0.30303 0.286 0.84136 0.0
H1512 H 0.30194 0.29352 0.87451 0.0
H1513 H 0.26757 0.32964 0.86279 0.0
H1514 H 0.26835 0.32212 0.82999 0.0
H1515 H 0.25425 0.30894 0.88756 0.0
H1516 H 0.31358 0.34595 0.87866 0.0
H1517 H 0.34471 0.3515 0.86933 0.0
H1518 H 0.359 0.31697 0.90782 0.0
H1519 H 0.32785 0.31102 0.9172 0.0
C1520 C 0.26923 0.35805 0.96831 0.0
C1521 C 0.27815 0.35286 0.98369 0.0
C1522 C 0.26977 0.34979 0.95051 0.0
C1523 C 0.27919 0.3361 0.94765 0.0
C1524 C 0.28804 0.3308 0.963 0.0
C1525 C 0.28744 0.33904 0.98087 0.0
C1526 C 0.28033 0.32794 0.92857 0.0
C1527 C 0.29769 0.32943 0.92264 0.0
C1528 C 0.26447 0.3202 0.91578 0.0
C1529 C 0.24569 0.31736 0.92129 0.0
C1530 C 0.24082 0.30777 0.9362 0.0
C1531 C 0.22311 0.30514 0.94129 0.0
C1532 C 0.21011 0.31193 0.93149 0.0
C1533 C 0.21477 0.32134 0.91657 0.0
C1534 C 0.23247 0.32405 0.91145 0.0
C1535 C 0.2953 0.29559 0.84587 0.0
C1536 C 0.28583 0.30346 0.83294 0.0
C1537 C 0.29472 0.29991 0.86483 0.0
C1538 C 0.28472 0.31222 0.87119 0.0
C1539 C 0.27531 0.32005 0.85828 0.0
C1540 C 0.27587 0.31577 0.83945 0.0
C1541 C 0.28376 0.31704 0.89121 0.0
C1542 C 0.26642 0.31488 0.89733 0.0
C1543 C 0.29962 0.32432 0.9041 0.0
C1544 C 0.31832 0.32785 0.89846 0.0
C1545 C 0.32331 0.33941 0.88501 0.0
C1546 C 0.34097 0.34265 0.87974 0.0
C1547 C 0.35381 0.33454 0.88793 0.0
C1548 C 0.34903 0.32321 0.90145 0.0
C1549 C 0.33138 0.3199 0.90676 0.0
H1550 H 0.36748 0.33708 0.88384 0.0
H1551 H 0.1964 0.30986 0.93544 0.0
H1552 H 0.94124 0.00584 0.31599 0.0
H1553 H 0.955 0.00466 0.34697 0.0
H1554 H 0.99067 0.0587 0.34761 0.0
H1555 H 0.97724 0.05968 0.31616 0.0
H1556 H 0.00916 0.03798 0.36316 0.0
H1557 H 0.9514 0.05094 0.37047 0.0
H1558 H 0.91793 0.04653 0.36484 0.0
H1559 H 0.90929 0.99363 0.38346 0.0
H1560 H 0.94273 0.99761 0.38896 0.0
H1561 H 0.03064 0.05881 0.46072 0.0
H1562 H 0.01953 0.05773 0.42833 0.0
H1563 H 0.98992 1.00114 0.42661 0.0
H1564 H 1.00108 1.00207 0.45922 0.0
H1565 H 0.96865 0.02259 0.41167 0.0
H1566 H 0.02746 0.01107 0.40541 0.0
H1567 H 0.06104 0.01706 0.41189 0.0
H1568 H 0.06771 0.06939 0.3923 0.0
H1569 H 0.03414 0.06383 0.38594 0.0
C1570 C 0.95206 0.01747 0.32267 0.0
C1571 C 0.95806 0.03292 0.31364 0.0
C1572 C 0.95987 0.01682 0.34048 0.0
C1573 C 0.97364 0.03174 0.34989 0.0
C1574 C 0.98 0.04703 0.34072 0.0
C1575 C 0.97231 0.0476 0.32275 0.0
C1576 C 0.98121 0.03136 0.3693 0.0
C1577 C 1.00028 0.03484 0.37379 0.0
C1578 C 0.96969 0.02694 0.38323 0.0
C1579 C 0.94957 0.0245 0.37995 0.0
C1580 C 0.94236 0.0383 0.37323 0.0
C1581 C 0.9234 0.03589 0.37008 0.0
C1582 C 0.91149 0.01979 0.37373 0.0
C1583 C 0.91853 0.00608 0.3806 0.0
C1584 C 0.93749 0.00841 0.38375 0.0
C1585 C 0.02189 0.04604 0.45346 0.0
C1586 C 0.01677 0.0305 0.46261 0.0
C1587 C 0.0156 0.04545 0.43488 0.0
C1588 C 1.00396 0.02934 0.42497 0.0
C1589 C 0.99893 0.01372 0.43397 0.0
C1590 C 0.00539 0.01424 0.45258 0.0
C1591 C 0.99652 0.02914 0.40545 0.0
C1592 C 0.97748 0.02563 0.40098 0.0
C1593 C 0.00807 0.03376 0.39164 0.0
C1594 C 0.02827 0.0371 0.39535 0.0
C1595 C 0.03608 0.02392 0.40261 0.0
C1596 C 0.05512 0.02723 0.40624 0.0
C1597 C 0.0665 0.04361 0.40255 0.0
C1598 C 0.05888 0.05671 0.39517 0.0
C1599 C 0.03984 0.05348 0.39153 0.0
H1600 H 0.08124 0.04615 0.40537 0.0
H1601 H 0.89682 0.01795 0.37129 0.0
H1602 H 0.27011 0.69538 0.58383 0.0
H1603 H 0.27591 0.7155 0.61304 0.0
H1604 H 0.31693 0.68908 0.63275 0.0
H1605 H 0.31103 0.66863 0.60343 0.0
H1606 H 0.2939 0.69376 0.65835 0.0
H1607 H 0.33041 0.73103 0.62042 0.0
H1608 H 0.33723 0.74564 0.59259 0.0
H1609 H 0.29631 0.77523 0.60055 0.0
H1610 H 0.28904 0.76059 0.62829 0.0
H1611 H 0.31493 0.75826 0.7384 0.0
H1612 H 0.32006 0.7419 0.70974 0.0
H1613 H 0.28023 0.76329 0.67948 0.0
H1614 H 0.27554 0.78027 0.70808 0.0
H1615 H 0.30795 0.76144 0.66002 0.0
H1616 H 0.26862 0.72065 0.69506 0.0
H1617 H 0.26175 0.70638 0.72311 0.0
H1618 H 0.30818 0.68356 0.72056 0.0
H1619 H 0.31546 0.69789 0.6926 0.0
C1620 C 0.28038 0.69384 0.59436 0.0
C1621 C 0.29016 0.68048 0.59136 0.0
C1622 C 0.28375 0.70542 0.611 0.0
C1623 C 0.29705 0.70396 0.62491 0.0
C1624 C 0.30669 0.69047 0.6221 0.0
C1625 C 0.30332 0.67884 0.60539 0.0
C1626 C 0.3004 0.71633 0.64252 0.0
C1627 C 0.29736 0.70857 0.6588 0.0
C1628 C 0.30467 0.73564 0.643 0.0
C1629 C 0.3091 0.74461 0.62639 0.0
C1630 C 0.32277 0.74056 0.61617 0.0
C1631 C 0.32674 0.74886 0.60042 0.0
C1632 C 0.31719 0.76133 0.59479 0.0
C1633 C 0.30369 0.76556 0.60493 0.0
C1634 C 0.29966 0.75728 0.62068 0.0
C1635 C 0.30745 0.75967 0.72559 0.0
C1636 C 0.29463 0.7703 0.72544 0.0
C1637 C 0.31039 0.7503 0.70925 0.0
C1638 C 0.3002 0.75103 0.69257 0.0
C1639 C 0.28816 0.76248 0.69224 0.0
C1640 C 0.28546 0.77213 0.70857 0.0
C1641 C 0.30097 0.73884 0.67572 0.0
C1642 C 0.30479 0.74664 0.6596 0.0
C1643 C 0.29739 0.71956 0.67538 0.0
C1644 C 0.29266 0.71045 0.69183 0.0
C1645 C 0.27738 0.71262 0.70051 0.0
C1646 C 0.27342 0.70453 0.71639 0.0
C1647 C 0.28452 0.69407 0.72361 0.0
C1648 C 0.29959 0.69165 0.71494 0.0
C1649 C 0.30363 0.69973 0.69906 0.0
H1650 H 0.28144 0.68784 0.73591 0.0
H1651 H 0.32027 0.76774 0.58258 0.0
H1652 H 0.6677 0.05081 0.819 0.0
H1653 H 0.65501 0.05945 0.84711 0.0
H1654 H 0.60438 0.0587 0.81468 0.0
H1655 H 0.61698 0.05023 0.78658 0.0
H1656 H 0.61521 0.08834 0.84158 0.0
H1657 H 0.60799 0.0226 0.83614 0.0
H1658 H 0.61887 0.99442 0.83343 0.0
H1659 H 0.65397 0.01379 0.8845 0.0
H1660 H 0.64346 0.04221 0.88738 0.0
H1661 H 0.54621 0.07142 0.90043 0.0
H1662 H 0.56678 0.07225 0.87665 0.0
H1663 H 0.61118 0.07169 0.91754 0.0
H1664 H 0.59061 0.0708 0.94142 0.0
H1665 H 0.60798 0.04603 0.88901 0.0
H1666 H 0.61162 0.10991 0.89668 0.0
H1667 H 0.60013 0.1377 0.89953 0.0
H1668 H 0.57169 0.12213 0.84475 0.0
H1669 H 0.58278 0.0941 0.84166 0.0
C1670 C 0.65389 0.05257 0.81788 0.0
C1671 C 0.64326 0.04973 0.80064 0.0
C1672 C 0.64668 0.05749 0.83393 0.0
C1673 C 0.62873 0.05958 0.83294 0.0
C1674 C 0.61828 0.05719 0.8157 0.0
C1675 C 0.62546 0.05225 0.79969 0.0
C1676 C 0.62043 0.0635 0.84986 0.0
C1677 C 0.61354 0.07908 0.85194 0.0
C1678 C 0.61878 0.05168 0.86359 0.0
C1679 C 0.62512 0.03462 0.86185 0.0
C1680 C 0.61815 0.02092 0.8467 0.0
C1681 C 0.62422 0.00489 0.84516 0.0
C1682 C 0.63715 1.00234 0.85875 0.0
C1683 C 0.64399 0.0158 0.87395 0.0
C1684 C 0.63798 0.03186 0.87555 0.0
C1685 C 0.56045 0.07188 0.90441 0.0
C1686 C 0.5668 0.07098 0.92275 0.0
C1687 C 0.5722 0.07238 0.89082 0.0
C1688 C 0.59055 0.07218 0.89535 0.0
C1689 C 0.59707 0.07184 0.91375 0.0
C1690 C 0.5853 0.07128 0.92735 0.0
C1691 C 0.60238 0.07071 0.88061 0.0
C1692 C 0.60993 0.05554 0.87889 0.0
C1693 C 0.60462 0.08292 0.86723 0.0
C1694 C 0.59795 0.09982 0.86899 0.0
C1695 C 0.6028 0.11233 0.88529 0.0
C1696 C 0.59638 0.12815 0.88694 0.0
C1697 C 0.58516 0.13166 0.87234 0.0
C1698 C 0.58038 0.11939 0.85605 0.0
C1699 C 0.58675 0.10354 0.85433 0.0
H1700 H 0.5802 0.14392 0.87365 0.0
H1701 H 0.64182 0.98992 0.85754 0.0
H1702 H 0.30121 0.37974 0.1001 0.0
H1703 H 0.29898 0.36735 0.12939 0.0
H1704 H 0.25208 0.32404 0.10453 0.0
H1705 H 0.25427 0.33641 0.07502 0.0
H1706 H 0.24701 0.34042 0.13888 0.0
H1707 H 0.29214 0.31442 0.11264 0.0
H1708 H 0.32036 0.31465 0.09831 0.0
H1709 H 0.35261 0.34942 0.14574 0.0
H1710 H 0.32454 0.34965 0.16024 0.0
H1711 H 0.24767 0.28717 0.21393 0.0
H1712 H 0.24731 0.29796 0.18371 0.0
H1713 H 0.29662 0.34056 0.20324 0.0
H1714 H 0.29718 0.32983 0.23336 0.0
H1715 H 0.29952 0.32289 0.17064 0.0
H1716 H 0.25544 0.35036 0.19654 0.0
H1717 H 0.22781 0.35093 0.21159 0.0
H1718 H 0.19419 0.31483 0.16571 0.0
H1719 H 0.22172 0.31372 0.15052 0.0
C1720 C 0.29045 0.36754 0.10082 0.0
C1721 C 0.27795 0.35901 0.08521 0.0
C1722 C 0.28922 0.36045 0.11758 0.0
C1723 C 0.27545 0.34468 0.11914 0.0
C1724 C 0.26283 0.3362 0.10363 0.0
C1725 C 0.26414 0.34323 0.08677 0.0
C1726 C 0.27429 0.33723 0.13704 0.0
C1727 C 0.25837 0.33628 0.1457 0.0
C1728 C 0.28929 0.33228 0.14616 0.0
C1729 C 0.3062 0.3322 0.13744 0.0
C1730 C 0.30523 0.32226 0.11994 0.0
C1731 C 0.32121 0.32228 0.1118 0.0
C1732 C 0.33827 0.33208 0.12109 0.0
C1733 C 0.33938 0.34185 0.13855 0.0
C1734 C 0.32344 0.34191 0.14674 0.0
C1735 C 0.25833 0.29896 0.21187 0.0
C1736 C 0.27246 0.3076 0.22611 0.0
C1737 C 0.25809 0.30513 0.19457 0.0
C1738 C 0.27192 0.32011 0.19119 0.0
C1739 C 0.28584 0.32894 0.20548 0.0
C1740 C 0.28608 0.32282 0.22275 0.0
C1741 C 0.27232 0.32625 0.17261 0.0
C1742 C 0.28811 0.32693 0.16381 0.0
C1743 C 0.25727 0.33109 0.16346 0.0
C1744 C 0.24067 0.33179 0.17249 0.0
C1745 C 0.24217 0.34241 0.18972 0.0
C1746 C 0.22652 0.34286 0.19827 0.0
C1747 C 0.20924 0.33291 0.18963 0.0
C1748 C 0.20759 0.32251 0.1724 0.0
C1749 C 0.22322 0.32196 0.16381 0.0
H1750 H 0.19714 0.3333 0.19627 0.0
H1751 H 0.35062 0.33207 0.11477 0.0
H1752 H 0.24793 0.9651 0.04671 0.0
H1753 H 0.22946 0.98318 0.06175 0.0
H1754 H 0.18386 0.93503 0.05537 0.0
H1755 H 0.20207 0.91716 0.03935 0.0
H1756 H 0.17168 0.96143 0.04707 0.0
H1757 H 0.21063 0.95488 0.09864 0.0
H1758 H 0.2396 0.95536 0.11712 0.0
H1759 H 0.25841 0.0135 0.11662 0.0
H1760 H 0.22966 0.01335 0.09791 0.0
H1761 H 0.12204 0.01132 0.09909 0.0
H1762 H 0.14236 0.9908 0.09814 0.0
H1763 H 0.18283 0.0315 0.07715 0.0
H1764 H 0.16226 0.05152 0.07659 0.0
H1765 H 0.1956 0.00583 0.10376 0.0
H1766 H 0.15779 0.00879 0.04631 0.0
H1767 H 0.12811 0.0072 0.02855 0.0
H1768 H 0.10638 0.953 0.04208 0.0
H1769 H 0.13583 0.95454 0.06037 0.0
C1770 C 0.23395 0.95841 0.04851 0.0
C1771 C 0.22636 0.93979 0.04185 0.0
C1772 C 0.22347 0.96868 0.05732 0.0
C1773 C 0.20538 0.96039 0.06014 0.0
C1774 C 0.1978 0.94173 0.05345 0.0
C1775 C 0.20817 0.93155 0.04426 0.0
C1776 C 0.19406 0.9715 0.06895 0.0
C1777 C 0.17681 0.97077 0.05972 0.0
C1778 C 0.2007 0.98386 0.08542 0.0
C1779 C 0.21801 0.98407 0.09676 0.0
C1780 C 0.22099 0.96776 0.10237 0.0
C1781 C 0.23737 0.96797 0.1129 0.0
C1782 C 0.25085 0.98445 0.11802 0.0
C1783 C 0.24796 1.00075 0.11265 0.0
C1784 C 0.23161 1.00061 0.1021 0.0
C1785 C 0.13535 0.01607 0.09449 0.0
C1786 C 0.14016 0.03288 0.08729 0.0
C1787 C 0.14703 0.0044 0.09423 0.0
C1788 C 0.16392 0.00964 0.08738 0.0
C1789 C 0.16982 0.02731 0.08254 0.0
C1790 C 0.15797 0.03879 0.0823 0.0
C1791 C 0.17363 0.99574 0.08167 0.0
C1792 C 0.19048 0.99607 0.0914 0.0
C1793 C 0.16656 0.98275 0.06586 0.0
C1794 C 0.14886 0.98191 0.05497 0.0
C1795 C 0.14658 0.99667 0.04575 0.0
C1796 C 0.12983 0.99576 0.03555 0.0
C1797 C 0.11534 0.98004 0.03425 0.0
C1798 C 0.11757 0.96521 0.04318 0.0
C1799 C 0.13427 0.96611 0.0535 0.0
H1800 H 0.10244 0.97932 0.0262 0.0
H1801 H 0.26353 0.98459 0.12617 0.0
H1802 H 0.71338 0.67606 0.01561 0.0
H1803 H 0.68294 0.65562 0.01581 0.0
H1804 H 0.70391 0.60868 1.00123 0.0
H1805 H 0.73444 0.62906 1.00096 0.0
H1806 H 0.6694 0.60594 0.98207 0.0
H1807 H 0.69868 0.61875 0.04439 0.0
H1808 H 0.71546 0.63855 0.07253 0.0
H1809 H 0.67126 0.66446 0.07669 0.0
H1810 H 0.65433 0.64499 0.0484 0.0
H1811 H 0.59145 0.54199 0.00801 0.0
H1812 H 0.62261 0.55912 0.00434 0.0
H1813 H 0.60979 0.60982 0.0235 0.0
H1814 H 0.57902 0.59295 0.02747 0.0
H1815 H 0.64149 0.60851 0.04048 0.0
H1816 H 0.61263 0.59683 0.97767 0.0
H1817 H 0.59566 0.57727 0.94949 0.0
H1818 H 0.63857 0.54952 0.94606 0.0
H1819 H 0.65568 0.56875 0.97441 0.0
C1820 C 0.71149 0.6614 0.01231 0.0
C1821 C 0.72631 0.65415 0.0084 0.0
C1822 C 0.6941 0.64974 0.01246 0.0
C1823 C 0.69123 0.63063 0.00871 0.0
C1824 C 0.70585 0.62338 0.00417 0.0
C1825 C 0.72328 0.63504 0.0041 0.0
C1826 C 0.67315 0.61826 0.0104 0.0
C1827 C 0.66336 0.60629 0.99489 0.0
C1828 C 0.66524 0.6189 0.02707 0.0
C1829 C 0.67532 0.63052 0.04418 0.0
C1830 C 0.6926 0.62876 0.05123 0.0
C1831 C 0.70213 0.63992 0.06721 0.0
C1832 C 0.69445 0.65279 0.07636 0.0
C1833 C 0.6772 0.6545 0.06957 0.0
C1834 C 0.66763 0.6434 0.05357 0.0
C1835 C 0.59527 0.55679 0.01135 0.0
C1836 C 0.58277 0.56607 0.01815 0.0
C1837 C 0.61306 0.56657 0.0092 0.0
C1838 C 0.61852 0.58578 0.01361 0.0
C1839 C 0.60594 0.59501 0.02012 0.0
C1840 C 0.58831 0.5853 0.02237 0.0
C1841 C 0.63744 0.59644 0.01203 0.0
C1842 C 0.64749 0.60806 0.02764 0.0
C1843 C 0.6455 0.5955 0.99543 0.0
C1844 C 0.63533 0.58409 0.97828 0.0
C1845 C 0.61838 0.58647 0.97098 0.0
C1846 C 0.60875 0.57545 0.95496 0.0
C1847 C 0.616 0.56212 0.94602 0.0
C1848 C 0.63295 0.55983 0.95303 0.0
C1849 C 0.64263 0.57079 0.96906 0.0
H1850 H 0.60852 0.55358 0.93363 0.0
H1851 H 0.70184 0.66141 0.08874 0.0
H1852 H 0.67699 0.50846 0.29939 0.0
H1853 H 0.69311 0.48442 0.29552 0.0
H1854 H 0.64931 0.45258 0.25462 0.0
H1855 H 0.63271 0.47653 0.25894 0.0
H1856 H 0.66125 0.43056 0.27586 0.0
H1857 H 0.68975 0.47747 0.24198 0.0
H1858 H 0.7043 0.50893 0.23637 0.0
H1859 H 0.74833 0.51251 0.27881 0.0
H1860 H 0.7339 0.48115 0.28486 0.0
H1861 H 0.71954 0.37522 0.24173 0.0
H1862 H 0.69942 0.39605 0.24432 0.0
H1863 H 0.73551 0.42828 0.29127 0.0
H1864 H 0.75565 0.40753 0.28875 0.0
H1865 H 0.72627 0.44904 0.26414 0.0
H1866 H 0.69579 0.40198 0.29862 0.0
H1867 H 0.68088 0.37026 0.30306 0.0
H1868 H 0.64057 0.36632 0.25683 0.0
H1869 H 0.65526 0.39809 0.25211 0.0
C1870 C 0.67072 0.49632 0.28961 0.0
C1871 C 0.65366 0.49445 0.27934 0.0
C1872 C 0.68001 0.4826 0.28735 0.0
C1873 C 0.67265 0.46685 0.27446 0.0
C1874 C 0.65532 0.46466 0.26456 0.0
C1875 C 0.64587 0.47835 0.267 0.0
C1876 C 0.68336 0.45299 0.27124 0.0
C1877 C 0.67537 0.43456 0.27299 0.0
C1878 C 0.70186 0.45816 0.26762 0.0
C1879 C 0.71066 0.47701 0.26397 0.0
C1880 C 0.70247 0.48501 0.2502 0.0
C1881 C 0.71071 0.50282 0.24693 0.0
C1882 C 0.72721 0.51272 0.25725 0.0
C1883 C 0.73554 0.50482 0.27084 0.0
C1884 C 0.72734 0.48702 0.27418 0.0
C1885 C 0.72316 0.38675 0.2526 0.0
C1886 C 0.73919 0.38979 0.26501 0.0
C1887 C 0.7116 0.39854 0.25414 0.0
C1888 C 0.71594 0.41365 0.26803 0.0
C1889 C 0.7319 0.41667 0.28047 0.0
C1890 C 0.74334 0.40477 0.27908 0.0
C1891 C 0.7043 0.42679 0.26919 0.0
C1892 C 0.71212 0.44506 0.26692 0.0
C1893 C 0.68563 0.42139 0.27206 0.0
C1894 C 0.67674 0.40234 0.27489 0.0
C1895 C 0.68383 0.39431 0.28931 0.0
C1896 C 0.6754 0.37633 0.2919 0.0
C1897 C 0.65986 0.36622 0.28016 0.0
C1898 C 0.65264 0.37414 0.26588 0.0
C1899 C 0.66098 0.39216 0.26328 0.0
H1900 H 0.6534 0.35229 0.28217 0.0
H1901 H 0.73357 0.52651 0.2547 0.0
H1902 H 0.81996 0.41334 0.49536 0.0
H1903 H 0.85163 0.43187 0.49777 0.0
H1904 H 0.83912 0.47298 0.5361 0.0
H1905 H 0.80739 0.45457 0.53369 0.0
H1906 H 0.85945 0.4882 0.51006 0.0
H1907 H 0.86157 0.44426 0.55211 0.0
H1908 H 0.85611 0.41327 0.56146 0.0
H1909 H 0.88949 0.39807 0.52142 0.0
H1910 H 0.89493 0.4289 0.51165 0.0
H1911 H 0.9627 0.50916 0.55006 0.0
H1912 H 0.93028 0.49414 0.54986 0.0
H1913 H 0.92028 0.49969 0.49232 0.0
H1914 H 0.95269 0.5149 0.49238 0.0
H1915 H 0.91099 0.46226 0.53016 0.0
H1916 H 0.87645 0.5044 0.48367 0.0
H1917 H 0.88186 0.53606 0.47609 0.0
H1918 H 0.91347 0.5565 0.5289 0.0
H1919 H 0.90804 0.525 0.53689 0.0
C1920 C 0.82396 0.42632 0.50431 0.0
C1921 C 0.81125 0.43248 0.51442 0.0
C1922 C 0.84205 0.43686 0.50569 0.0
C1923 C 0.84772 0.45371 0.51722 0.0
C1924 C 0.83499 0.46001 0.52713 0.0
C1925 C 0.81691 0.44944 0.5258 0.0
C1926 C 0.867 0.46465 0.51911 0.0
C1927 C 0.87074 0.48256 0.51445 0.0
C1928 C 0.88167 0.45734 0.52511 0.0
C1929 C 0.87852 0.43883 0.53104 0.0
C1930 C 0.86763 0.43426 0.54521 0.0
C1931 C 0.86456 0.41674 0.5506 0.0
C1932 C 0.87241 0.4037 0.54201 0.0
C1933 C 0.8834 0.40818 0.52804 0.0
C1934 C 0.88649 0.42568 0.52259 0.0
C1935 C 0.95361 0.50736 0.53738 0.0
C1936 C 0.96031 0.5132 0.52121 0.0
C1937 C 0.93509 0.49872 0.53729 0.0
C1938 C 0.9229 0.49586 0.5211 0.0
C1939 C 0.92944 0.50196 0.50502 0.0
C1940 C 0.94799 0.51059 0.50507 0.0
C1941 C 0.90349 0.48575 0.52087 0.0
C1942 C 0.89972 0.46795 0.52579 0.0
C1943 C 0.88882 0.49327 0.51535 0.0
C1944 C 0.89198 0.51231 0.51079 0.0
C1945 C 0.88449 0.51566 0.49369 0.0
C1946 C 0.88757 0.53358 0.48932 0.0
C1947 C 0.89805 0.54828 0.50198 0.0
C1948 C 0.90542 0.54509 0.51907 0.0
C1949 C 0.90236 0.5272 0.52352 0.0
H1950 H 0.90043 0.56214 0.49857 0.0
H1951 H 0.87002 0.39014 0.5462 0.0
H1952 H 0.36371 0.08839 0.30167 0.0
H1953 H 0.34372 0.105 0.287 0.0
H1954 H 0.38578 0.12684 0.25362 0.0
H1955 H 0.40599 0.11047 0.26847 0.0
H1956 H 0.36866 0.15248 0.26578 0.0
H1957 H 0.35119 0.09108 0.23523 0.0
H1958 H 0.34234 0.05731 0.23278 0.0
H1959 H 0.29389 0.05919 0.25823 0.0
H1960 H 0.3026 0.093 0.2611 0.0
H1961 H 0.30503 0.1848 0.21101 0.0
H1962 H 0.32586 0.16535 0.2168 0.0
H1963 H 0.29249 0.14099 0.25666 0.0
H1964 H 0.27185 0.16049 0.25123 0.0
H1965 H 0.30702 0.1161 0.2366 0.0
H1966 H 0.32686 0.17794 0.26984 0.0
H1967 H 0.33574 0.21168 0.27173 0.0
H1968 H 0.38036 0.20887 0.24041 0.0
H1969 H 0.37148 0.17503 0.23797 0.0
C1970 C 0.36879 0.09692 0.29139 0.0
C1971 C 0.38633 0.09805 0.28611 0.0
C1972 C 0.35733 0.1063 0.28294 0.0
C1973 C 0.36317 0.11681 0.26896 0.0
C1974 C 0.38101 0.11868 0.26429 0.0
C1975 C 0.39251 0.10934 0.27279 0.0
C1976 C 0.35041 0.12541 0.25895 0.0
C1977 C 0.35532 0.1445 0.25909 0.0
C1978 C 0.333 0.11496 0.2503 0.0
C1979 C 0.32763 0.0946 0.2485 0.0
C1980 C 0.33872 0.08431 0.24043 0.0
C1981 C 0.33371 0.06515 0.23895 0.0
C1982 C 0.31758 0.05611 0.24538 0.0
C1983 C 0.30639 0.06621 0.25327 0.0
C1984 C 0.31134 0.08537 0.25481 0.0
C1985 C 0.30195 0.17502 0.22073 0.0
C1986 C 0.28697 0.17436 0.23087 0.0
C1987 C 0.31382 0.16393 0.22399 0.0
C1988 C 0.31085 0.15206 0.23741 0.0
C1989 C 0.295 0.15014 0.24628 0.0
C1990 C 0.28316 0.16124 0.24308 0.0
C1991 C 0.32511 0.14316 0.24383 0.0
C1992 C 0.32049 0.12401 0.24301 0.0
C1993 C 0.34282 0.15357 0.25177 0.0
C1994 C 0.34834 0.17393 0.25349 0.0
C1995 C 0.33846 0.1845 0.26321 0.0
C1996 C 0.3435 0.20364 0.26438 0.0
C1997 C 0.35855 0.2124 0.25612 0.0
C1998 C 0.36866 0.20205 0.24674 0.0
C1999 C 0.36362 0.18288 0.24544 0.0
H2000 H 0.36238 0.22721 0.25701 0.0
H2001 H 0.31373 0.04128 0.24422 0.0
H2002 H 0.3436 0.18646 0.52636 0.0
H2003 H 0.3676 0.17012 0.53008 0.0
H2004 H 0.32622 0.11902 0.52682 0.0
H2005 H 0.30226 0.13534 0.52364 0.0
H2006 H 0.35248 0.1204 0.55295 0.0
H2007 H 0.35001 0.13177 0.48977 0.0
H2008 H 0.3509 0.15067 0.4644 0.0
H2009 H 0.40576 0.18107 0.48585 0.0
H2010 H 0.40511 0.16249 0.51151 0.0
H2011 H 0.40439 0.05679 0.53053 0.0
H2012 H 0.38251 0.07567 0.52959 0.0
H2013 H 0.42714 0.12465 0.53882 0.0
H2014 H 0.44917 0.10587 0.54014 0.0
H2015 H 0.40068 0.12576 0.51096 0.0
H2016 H 0.40318 0.11252 0.57337 0.0
H2017 H 0.40187 0.09263 0.59793 0.0
H2018 H 0.34621 0.06462 0.57686 0.0
H2019 H 0.34728 0.08417 0.55201 0.0
C2020 C 0.33965 0.17175 0.52649 0.0
C2021 C 0.32106 0.16216 0.52465 0.0
C2022 C 0.35336 0.16241 0.52853 0.0
C2023 C 0.34872 0.14328 0.52847 0.0
C2024 C 0.33015 0.13376 0.5269 0.0
C2025 C 0.31646 0.14311 0.52504 0.0
C2026 C 0.36313 0.13308 0.52997 0.0
C2027 C 0.36289 0.12144 0.54363 0.0
C2028 C 0.377 0.13472 0.51809 0.0
C2029 C 0.37743 0.14588 0.50267 0.0
C2030 C 0.36221 0.14258 0.48916 0.0
C2031 C 0.36268 0.15322 0.47471 0.0
C2032 C 0.37836 0.1671 0.47355 0.0
C2033 C 0.39362 0.17033 0.48679 0.0
C2034 C 0.39321 0.15975 0.50128 0.0
C2035 C 0.40958 0.07158 0.5326 0.0
C2036 C 0.42856 0.07979 0.53551 0.0
C2037 C 0.39705 0.08235 0.53199 0.0
C2038 C 0.4032 0.10157 0.53431 0.0
C2039 C 0.42211 0.10984 0.53698 0.0
C2040 C 0.43468 0.09907 0.53766 0.0
C2041 C 0.38985 0.11297 0.53378 0.0
C2042 C 0.39031 0.12483 0.52032 0.0
C2043 C 0.37609 0.11142 0.54573 0.0
C2044 C 0.37537 0.09971 0.56074 0.0
C2045 C 0.39071 0.10203 0.57389 0.0
C2046 C 0.39 0.09083 0.58788 0.0
C2047 C 0.37398 0.07735 0.58893 0.0
C2048 C 0.35861 0.07506 0.57602 0.0
C2049 C 0.35926 0.08621 0.56199 0.0
H2050 H 0.37345 0.06869 0.59977 0.0
H2051 H 0.3787 0.17531 0.46235 0.0
H2052 H 0.64242 0.60533 0.29921 0.0
H2053 H 0.66187 0.63638 0.29949 0.0
H2054 H 0.7053 0.61372 0.2814 0.0
H2055 H 0.68607 0.58273 0.28136 0.0
H2056 H 0.71875 0.64247 0.30763 0.0
H2057 H 0.67811 0.62943 0.25118 0.0
H2058 H 0.64822 0.62027 0.23178 0.0
H2059 H 0.6324 0.66573 0.25949 0.0
H2060 H 0.66211 0.67502 0.27925 0.0
H2061 H 0.77126 0.72137 0.27369 0.0
H2062 H 0.75278 0.69074 0.27691 0.0
H2063 H 0.71082 0.7144 0.2971 0.0
H2064 H 0.72906 0.74496 0.29388 0.0
H2065 H 0.69664 0.68536 0.27037 0.0
H2066 H 0.73816 0.69872 0.32632 0.0
H2067 H 0.76842 0.70778 0.34502 0.0
H2068 H 0.78303 0.66155 0.31734 0.0
H2069 H 0.75293 0.65235 0.29828 0.0
C2070 C 0.65615 0.60699 0.2954 0.0
C2071 C 0.66269 0.59161 0.29018 0.0
C2072 C 0.66722 0.62472 0.29549 0.0
C2073 C 0.68497 0.62737 0.29024 0.0
C2074 C 0.69166 0.61202 0.28549 0.0
C2075 C 0.68063 0.59431 0.28541 0.0
C2076 C 0.69645 0.64609 0.2893 0.0
C2077 C 0.71399 0.65178 0.29933 0.0
C2078 C 0.69013 0.65835 0.27869 0.0
C2079 C 0.67226 0.65281 0.26682 0.0
C2080 C 0.6682 0.63738 0.25324 0.0
C2081 C 0.6513 0.63218 0.24216 0.0
C2082 C 0.63841 0.64239 0.24443 0.0
C2083 C 0.64239 0.65783 0.25776 0.0
C2084 C 0.65926 0.66307 0.2689 0.0
C2085 C 0.75816 0.72007 0.27894 0.0
C2086 C 0.75167 0.73564 0.28353 0.0
C2087 C 0.74764 0.70256 0.28082 0.0
C2088 C 0.73046 0.7003 0.28733 0.0
C2089 C 0.72403 0.71582 0.29204 0.0
C2090 C 0.73454 0.73331 0.29024 0.0
C2091 C 0.71891 0.68174 0.28873 0.0
C2092 C 0.70136 0.67608 0.27873 0.0
C2093 C 0.72527 0.66948 0.29927 0.0
C2094 C 0.74336 0.67495 0.31075 0.0
C2095 C 0.74788 0.69057 0.32411 0.0
C2096 C 0.76499 0.69572 0.3348 0.0
C2097 C 0.77766 0.68528 0.33234 0.0
C2098 C 0.77322 0.66964 0.31922 0.0
C2099 C 0.75612 0.66444 0.30848 0.0
H2100 H 0.7909 0.68928 0.34063 0.0
H2101 H 0.62535 0.63836 0.23583 0.0
H2102 H 0.85705 0.5085 0.82598 0.0
H2103 H 0.83832 0.47715 0.82558 0.0
H2104 H 0.8434 0.46528 0.76787 0.0
H2105 H 0.86192 0.49658 0.7681 0.0
H2106 H 0.80946 0.44753 0.77644 0.0
H2107 H 0.87399 0.45729 0.79907 0.0
H2108 H 0.90213 0.47257 0.82005 0.0
H2109 H 0.87483 0.45588 0.86646 0.0
H2110 H 0.84643 0.44072 0.84574 0.0
H2111 H 0.8296 0.35365 0.78207 0.0
H2112 H 0.83907 0.38715 0.78601 0.0
H2113 H 0.78554 0.38927 0.80021 0.0
H2114 H 0.77585 0.35577 0.79613 0.0
H2115 H 0.84108 0.41247 0.81576 0.0
H2116 H 0.77519 0.42611 0.78201 0.0
H2117 H 0.74845 0.41042 0.75928 0.0
H2118 H 0.78098 0.37921 0.73198 0.0
H2119 H 0.80792 0.39484 0.75441 0.0
C2120 C 0.85383 0.49931 0.81312 0.0
C2121 C 0.86117 0.50482 0.79714 0.0
C2122 C 0.84312 0.48146 0.81292 0.0
C2123 C 0.83973 0.4689 0.79675 0.0
C2124 C 0.84589 0.4748 0.78047 0.0
C2125 C 0.85657 0.49264 0.78066 0.0
C2126 C 0.83195 0.44913 0.79723 0.0
C2127 C 0.81619 0.43987 0.7852 0.0
C2128 C 0.84094 0.43917 0.80848 0.0
C2129 C 0.85806 0.44806 0.8209 0.0
C2130 C 0.87396 0.45699 0.81376 0.0
C2131 C 0.88996 0.46561 0.8256 0.0
C2132 C 0.89025 0.46524 0.84458 0.0
C2133 C 0.87457 0.45619 0.85176 0.0
C2134 C 0.85853 0.44758 0.83998 0.0
C2135 C 0.81985 0.36123 0.78606 0.0
C2136 C 0.80196 0.35208 0.7887 0.0
C2137 C 0.8253 0.38035 0.78838 0.0
C2138 C 0.81295 0.39061 0.79328 0.0
C2139 C 0.79519 0.38155 0.79624 0.0
C2140 C 0.78972 0.36242 0.79393 0.0
C2141 C 0.81867 0.41082 0.79487 0.0
C2142 C 0.83406 0.42016 0.8073 0.0
C2143 C 0.8095 0.42077 0.78377 0.0
C2144 C 0.7935 0.41152 0.77 0.0
C2145 C 0.77663 0.41595 0.77111 0.0
C2146 C 0.76145 0.40706 0.75829 0.0
C2147 C 0.76301 0.3938 0.74422 0.0
C2148 C 0.77977 0.38943 0.74291 0.0
C2149 C 0.795 0.39829 0.75569 0.0
H2150 H 0.75126 0.38695 0.7343 0.0
H2151 H 0.90264 0.47193 0.85373 0.0
H2152 H 0.08375 0.856 0.08067 0.0
H2153 H 0.08222 0.88446 0.06793 0.0
H2154 H 0.03531 0.88686 0.09621 0.0
H2155 H 0.03702 0.85884 0.10921 0.0
H2156 H 0.03054 0.89284 0.059 0.0
H2157 H 0.07611 0.91479 0.11258 0.0
H2158 H 0.10518 0.91674 0.13167 0.0
H2159 H 0.13528 0.93387 0.08709 0.0
H2160 H 0.10632 0.93168 0.06763 0.0
H2161 H 0.0188 0.98075 0.04897 0.0
H2162 H 0.0232 0.95285 0.06019 0.0
H2163 H 0.07792 0.96457 0.04463 0.0
H2164 H 0.07397 0.99334 0.03445 0.0
H2165 H 0.08018 0.9504 0.07321 0.0
H2166 H 0.03745 0.92945 0.01937 0.0
H2167 H 0.00966 0.92677 0.99793 0.0
H2168 H 0.97586 0.90615 0.03873 0.0
H2169 H 1.00344 0.90893 0.06051 0.0
C2170 C 0.07311 0.86259 0.08415 0.0
C2171 C 0.06051 0.85503 0.09601 0.0
C2172 C 0.07228 0.87895 0.07691 0.0
C2173 C 0.05867 0.88801 0.08111 0.0
C2174 C 0.04596 0.88027 0.0927 0.0
C2175 C 0.04698 0.86419 0.10017 0.0
C2176 C 0.05739 0.90539 0.07341 0.0
C2177 C 0.04133 0.90548 0.06227 0.0
C2178 C 0.0717 0.92181 0.07694 0.0
C2179 C 0.08905 0.9229 0.08859 0.0
C2180 C 0.08891 0.91878 0.10679 0.0
C2181 C 0.10537 0.91996 0.11768 0.0
C2182 C 0.12206 0.92538 0.11058 0.0
C2183 C 0.12234 0.92965 0.09257 0.0
C2184 C 0.10591 0.92845 0.0816 0.0
C2185 C 0.0318 0.97742 0.04784 0.0
C2186 C 0.04593 0.98931 0.04051 0.0
C2187 C 0.03428 0.96123 0.05417 0.0
C2188 C 0.05076 0.95594 0.05281 0.0
C2189 C 0.06502 0.96802 0.04578 0.0
C2190 C 0.06271 0.98451 0.03985 0.0
C2191 C 0.0531 0.93805 0.05893 0.0
C2192 C 0.06936 0.93781 0.06977 0.0
C2193 C 0.03916 0.9213 0.05469 0.0
C2194 C 0.02252 0.91956 0.04163 0.0
C2195 C 0.02409 0.92446 0.02381 0.0
C2196 C 0.00837 0.92291 0.01159 0.0
C2197 C 0.99101 0.91634 0.01698 0.0
C2198 C 0.98932 0.91126 0.03458 0.0
C2199 C 0.00499 0.9128 0.04687 0.0
H2200 H 0.97886 0.91515 0.0075 0.0
H2201 H 0.13479 0.92631 0.11905 0.0
H2202 H 0.96711 0.27304 0.88052 0.0
H2203 H 0.93932 0.27607 0.86288 0.0
H2204 H 0.91445 0.28118 0.91301 0.0
H2205 H 0.9422 0.27777 0.93072 0.0
H2206 H 0.88932 0.26104 0.88681 0.0
H2207 H 0.93177 0.3191 0.89158 0.0
H2208 H 0.96113 0.34139 0.88994 0.0
H2209 H 0.95636 0.32502 0.8316 0.0
H2210 H 0.92705 0.30245 0.83292 0.0
H2211 H 0.8185 0.29603 0.84218 0.0
H2212 H 0.8447 0.2932 0.86279 0.0
H2213 H 0.87207 0.28146 0.81579 0.0
H2214 H 0.84604 0.28422 0.79516 0.0
H2215 H 0.89525 0.30657 0.84254 0.0
H2216 H 0.8515 0.24732 0.83992 0.0
H2217 H 0.82131 0.22742 0.84347 0.0
H2218 H 0.82779 0.24942 0.90065 0.0
H2219 H 0.85797 0.26961 0.89739 0.0
C2220 C 0.9557 0.2747 0.88781 0.0
C2221 C 0.95697 0.27522 0.90708 0.0
C2222 C 0.9398 0.27655 0.87769 0.0
C2223 C 0.92475 0.2792 0.88655 0.0
C2224 C 0.9258 0.27922 0.90576 0.0
C2225 C 0.94172 0.27729 0.91591 0.0
C2226 C 0.90817 0.28219 0.87573 0.0
C2227 C 0.89064 0.27118 0.87733 0.0
C2228 C 0.90966 0.29541 0.86329 0.0
C2229 C 0.92729 0.30895 0.86238 0.0
C2230 C 0.93705 0.32014 0.87842 0.0
C2231 C 0.95367 0.33285 0.87754 0.0
C2232 C 0.96064 0.33458 0.86068 0.0
C2233 C 0.95096 0.32364 0.84465 0.0
C2234 C 0.93433 0.3109 0.84545 0.0
C2235 C 0.83006 0.29281 0.8362 0.0
C2236 C 0.83002 0.2903 0.81691 0.0
C2237 C 0.84505 0.29114 0.84803 0.0
C2238 C 0.86041 0.28698 0.8409 0.0
C2239 C 0.86045 0.28466 0.82169 0.0
C2240 C 0.84545 0.28619 0.80987 0.0
C2241 C 0.87652 0.28514 0.8533 0.0
C2242 C 0.89396 0.29644 0.85205 0.0
C2243 C 0.87486 0.27248 0.86633 0.0
C2244 C 0.85691 0.26008 0.86837 0.0
C2245 C 0.84645 0.24798 0.85323 0.0
C2246 C 0.82935 0.23664 0.85519 0.0
C2247 C 0.82262 0.23719 0.87226 0.0
C2248 C 0.83302 0.24902 0.88743 0.0
C2249 C 0.85013 0.26039 0.88554 0.0
H2250 H 0.80936 0.22843 0.87375 0.0
H2251 H 0.97351 0.34443 0.86003 0.0
H2252 H 0.53573 0.24205 0.61303 0.0
H2253 H 0.53353 0.21 0.60185 0.0
H2254 H 0.57097 0.22712 0.5625 0.0
H2255 H 0.57293 0.25942 0.57349 0.0
H2256 H 0.54476 0.19782 0.54682 0.0
H2257 H 0.58486 0.21167 0.60317 0.0
H2258 H 0.59482 0.22312 0.63607 0.0
H2259 H 0.54946 0.18322 0.65086 0.0
H2260 H 0.53908 0.17169 0.61801 0.0
H2261 H 0.56385 0.10968 0.5292 0.0
H2262 H 0.56675 0.14233 0.53866 0.0
H2263 H 0.52614 0.12837 0.57576 0.0
H2264 H 0.52312 0.09569 0.56634 0.0
H2265 H 0.55526 0.15632 0.59215 0.0
H2266 H 0.51542 0.14276 0.53496 0.0
H2267 H 0.50659 0.13126 0.50192 0.0
H2268 H 0.55311 0.17074 0.48858 0.0
H2269 H 0.56238 0.18229 0.52159 0.0
C2270 C 0.54345 0.23906 0.60192 0.0
C2271 C 0.55457 0.25343 0.59424 0.0
C2272 C 0.54226 0.22063 0.59558 0.0
C2273 C 0.55235 0.21591 0.5815 0.0
C2274 C 0.56308 0.23023 0.57342 0.0
C2275 C 0.56422 0.24876 0.57973 0.0
C2276 C 0.55179 0.1961 0.5755 0.0
C2277 C 0.54734 0.18886 0.55674 0.0
C2278 C 0.55487 0.1841 0.58833 0.0
C2279 C 0.5611 0.19093 0.60811 0.0
C2280 C 0.57693 0.20542 0.61343 0.0
C2281 C 0.58267 0.21192 0.63207 0.0
C2282 C 0.57275 0.20393 0.64554 0.0
C2283 C 0.55711 0.18941 0.6404 0.0
C2284 C 0.55131 0.18287 0.62177 0.0
C2285 C 0.55554 0.1135 0.53941 0.0
C2286 C 0.54323 0.09988 0.54696 0.0
C2287 C 0.55715 0.13226 0.54476 0.0
C2288 C 0.54657 0.13799 0.55787 0.0
C2289 C 0.53448 0.12443 0.56563 0.0
C2290 C 0.53274 0.10567 0.56017 0.0
C2291 C 0.54807 0.15803 0.56353 0.0
C2292 C 0.55272 0.16531 0.58224 0.0
C2293 C 0.54534 0.17007 0.55063 0.0
C2294 C 0.53969 0.16327 0.53077 0.0
C2295 C 0.52384 0.1489 0.525 0.0
C2296 C 0.51875 0.14238 0.50627 0.0
C2297 C 0.52931 0.15023 0.49316 0.0
C2298 C 0.54496 0.16465 0.49875 0.0
C2299 C 0.55013 0.1712 0.51747 0.0
H2300 H 0.52534 0.14516 0.47867 0.0
H2301 H 0.57721 0.20898 0.65997 0.0
H2302 H 0.57023 0.78149 0.43007 0.0
H2303 H 0.59578 0.78337 0.41162 0.0
H2304 H 0.55848 0.777 0.36203 0.0
H2305 H 0.53283 0.77461 0.3804 0.0
H2306 H 0.58169 0.7573 0.35613 0.0
H2307 H 0.5878 0.81953 0.38205 0.0
H2308 H 0.59066 0.84512 0.40674 0.0
H2309 H 0.6406 0.83568 0.43123 0.0
H2310 H 0.6379 0.80985 0.40681 0.0
H2311 H 0.64743 0.79018 0.29601 0.0
H2312 H 0.62251 0.7868 0.31534 0.0
H2313 H 0.66032 0.78627 0.36262 0.0
H2314 H 0.68536 0.78972 0.34341 0.0
H2315 H 0.63749 0.80913 0.3701 0.0
H2316 H 0.63134 0.74721 0.34301 0.0
H2317 H 0.62833 0.72228 0.31758 0.0
H2318 H 0.57808 0.73211 0.29442 0.0
H2319 H 0.58093 0.75729 0.31959 0.0
C2320 C 0.56746 0.78046 0.41523 0.0
C2321 C 0.54948 0.77796 0.40672 0.0
C2322 C 0.58213 0.78164 0.40467 0.0
C2323 C 0.5792 0.78062 0.38537 0.0
C2324 C 0.56118 0.77786 0.37686 0.0
C2325 C 0.5465 0.77654 0.3874 0.0
C2326 C 0.59485 0.78237 0.37403 0.0
C2327 C 0.59377 0.76878 0.35908 0.0
C2328 C 0.61088 0.79711 0.378 0.0
C2329 C 0.61254 0.81263 0.39271 0.0
C2330 C 0.59931 0.82281 0.39278 0.0
C2331 C 0.60092 0.83738 0.40672 0.0
C2332 C 0.61577 0.84199 0.42058 0.0
C2333 C 0.62908 0.83207 0.4205 0.0
C2334 C 0.62753 0.81748 0.40661 0.0
C2335 C 0.65053 0.78948 0.31055 0.0
C2336 C 0.66855 0.79042 0.31812 0.0
C2337 C 0.63619 0.78739 0.32157 0.0
C2338 C 0.63948 0.78621 0.34046 0.0
C2339 C 0.65742 0.78717 0.34809 0.0
C2340 C 0.67174 0.78906 0.33703 0.0
C2341 C 0.62423 0.78413 0.35222 0.0
C2342 C 0.6254 0.79765 0.36722 0.0
C2343 C 0.60822 0.76942 0.34821 0.0
C2344 C 0.60645 0.75425 0.33309 0.0
C2345 C 0.61973 0.74416 0.33241 0.0
C2346 C 0.61804 0.72997 0.31806 0.0
C2347 C 0.60305 0.72565 0.30437 0.0
C2348 C 0.5897 0.73549 0.30502 0.0
C2349 C 0.59133 0.74971 0.31934 0.0
H2350 H 0.60176 0.71465 0.29327 0.0
H2351 H 0.617 0.85327 0.43135 0.0
H2352 H 0.06408 0.282 0.41433 0.0
H2353 H 0.06233 0.25596 0.43187 0.0
H2354 H 0.01885 0.22261 0.39161 0.0
H2355 H 0.02072 0.24847 0.37387 0.0
H2356 H 0.01137 0.22098 0.42858 0.0
H2357 H 0.05906 0.21512 0.39133 0.0
H2358 H 0.08819 0.22619 0.37865 0.0
H2359 H 0.11741 0.23689 0.43314 0.0
H2360 H 0.08838 0.22618 0.44618 0.0
H2361 H 0.00539 0.13438 0.45798 0.0
H2362 H 0.00925 0.15977 0.4396 0.0
H2363 H 0.05829 0.18884 0.47545 0.0
H2364 H 0.05462 0.16327 0.49377 0.0
H2365 H 0.0634 0.1932 0.44098 0.0
H2366 H 0.01654 0.19983 0.4786 0.0
H2367 H 0.98765 0.19012 0.4921 0.0
H2368 H 0.95724 0.17946 0.43818 0.0
H2369 H 0.98599 0.18887 0.42433 0.0
C2370 C 0.05421 0.26909 0.40917 0.0
C2371 C 0.04256 0.26728 0.39269 0.0
C2372 C 0.05325 0.25422 0.41919 0.0
C2373 C 0.04049 0.23731 0.41303 0.0
C2374 C 0.0288 0.23551 0.39663 0.0
C2375 C 0.02993 0.25029 0.38647 0.0
C2376 C 0.0391 0.22158 0.42385 0.0
C2377 C 0.02266 0.21474 0.43109 0.0
C2378 C 0.05401 0.21379 0.42757 0.0
C2379 C 0.07151 0.22003 0.41975 0.0
C2380 C 0.07167 0.21998 0.40063 0.0
C2381 C 0.08817 0.22617 0.39337 0.0
C2382 C 0.10464 0.23229 0.40509 0.0
C2383 C 0.10464 0.23218 0.42408 0.0
C2384 C 0.08817 0.22603 0.43142 0.0
C2385 C 0.01697 0.1462 0.46201 0.0
C2386 C 0.02959 0.14684 0.47749 0.0
C2387 C 0.01917 0.16075 0.45147 0.0
C2388 C 0.03388 0.17646 0.45628 0.0
C2389 C 0.04679 0.17693 0.47144 0.0
C2390 C 0.04469 0.16228 0.48191 0.0
C2391 C 0.03557 0.19245 0.44568 0.0
C2392 C 0.05209 0.19941 0.4385 0.0
C2393 C 0.02077 0.2005 0.44213 0.0
C2394 C 1.00344 0.19489 0.45042 0.0
C2395 C 1.00371 0.19529 0.46961 0.0
C2396 C 0.98735 0.18986 0.47733 0.0
C2397 C 0.97062 0.18414 0.466 0.0
C2398 C 0.97021 0.18388 0.44693 0.0
C2399 C 0.98653 0.18927 0.43914 0.0
H2400 H 0.95798 0.17994 0.472 0.0
H2401 H 0.11739 0.23708 0.39944 0.0
H2402 H 0.56488 0.26442 0.2332 0.0
H2403 H 0.597 0.2668 0.24478 0.0
H2404 H 0.61226 0.27262 0.19023 0.0
H2405 H 0.58042 0.2703 0.1787 0.0
H2406 H 0.62856 0.24942 0.20465 0.0
H2407 H 0.62235 0.30942 0.22417 0.0
H2408 H 0.60985 0.33328 0.23977 0.0
H2409 H 0.62213 0.31575 0.29201 0.0
H2410 H 0.63451 0.29161 0.27668 0.0
H2411 H 0.72506 0.30791 0.25271 0.0
H2412 H 0.69268 0.30438 0.24292 0.0
H2413 H 0.68196 0.24608 0.24473 0.0
H2414 H 0.71468 0.24949 0.25402 0.0
H2415 H 0.66305 0.29506 0.25705 0.0
H2416 H 0.64451 0.22291 0.21468 0.0
H2417 H 0.65925 0.20284 0.19611 0.0
H2418 H 0.69898 0.25007 0.18458 0.0
H2419 H 0.68434 0.27041 0.20289 0.0
C2420 C 0.5751 0.26627 0.2237 0.0
C2421 C 0.56997 0.26719 0.205 0.0
C2422 C 0.59352 0.26768 0.23035 0.0
C2423 C 0.60726 0.26996 0.21844 0.0
C2424 C 0.60207 0.27081 0.19977 0.0
C2425 C 0.58377 0.26955 0.19318 0.0
C2426 C 0.62698 0.27127 0.22519 0.0
C2427 C 0.63602 0.25934 0.21621 0.0
C2428 C 0.63705 0.28441 0.24003 0.0
C2429 C 0.6291 0.29852 0.24924 0.0
C2430 C 0.62216 0.31048 0.23895 0.0
C2431 C 0.61515 0.3241 0.24775 0.0
C2432 C 0.6151 0.32597 0.26685 0.0
C2433 C 0.6221 0.31423 0.2772 0.0
C2434 C 0.62912 0.30059 0.26847 0.0
C2435 C 0.7159 0.29427 0.25099 0.0
C2436 C 0.72268 0.27897 0.25412 0.0
C2437 C 0.69723 0.29228 0.24544 0.0
C2438 C 0.68461 0.27494 0.24285 0.0
C2439 C 0.69129 0.25962 0.24621 0.0
C2440 C 0.71008 0.26158 0.25162 0.0
C2441 C 0.66464 0.27311 0.2366 0.0
C2442 C 0.65553 0.28496 0.24566 0.0
C2443 C 0.65464 0.26024 0.2215 0.0
C2444 C 0.66345 0.24815 0.21033 0.0
C2445 C 0.65636 0.229 0.20814 0.0
C2446 C 0.6647 0.21758 0.19766 0.0
C2447 C 0.68009 0.22517 0.18923 0.0
C2448 C 0.68711 0.24421 0.19119 0.0
C2449 C 0.67881 0.25568 0.20162 0.0
H2450 H 0.68653 0.21631 0.18114 0.0
H2451 H 0.60974 0.33657 0.27365 0.0
H2452 H 0.53688 0.87483 0.87304 0.0
H2453 H 0.53421 0.90245 0.89196 0.0
H2454 H 0.55402 0.88269 0.94071 0.0
H2455 H 0.55626 0.8549 0.92191 0.0
H2456 H 0.52563 0.89464 0.9473 0.0
H2457 H 0.58046 0.91927 0.92085 0.0
H2458 H 0.59982 0.92619 0.89599 0.0
H2459 H 0.56385 0.9564 0.87353 0.0
H2460 H 0.54412 0.94944 0.89812 0.0
H2461 H 0.54075 0.97626 0.00979 0.0
H2462 H 0.54539 0.95046 0.9896 0.0
H2463 H 0.52098 0.96937 0.94265 0.0
H2464 H 0.51641 0.99538 0.96277 0.0
H2465 H 0.55139 0.95825 0.93474 0.0
H2466 H 0.49672 0.93346 0.96154 0.0
H2467 H 0.47796 0.92696 0.98693 0.0
H2468 H 0.51449 0.8972 0.00915 0.0
H2469 H 0.53362 0.90375 0.98403 0.0
C2470 C 0.54087 0.87647 0.88777 0.0
C2471 C 0.54683 0.86264 0.89594 0.0
C2472 C 0.53939 0.89233 0.89861 0.0
C2473 C 0.54404 0.89486 0.91785 0.0
C2474 C 0.55029 0.88116 0.92595 0.0
C2475 C 0.55165 0.86527 0.91515 0.0
C2476 C 0.5417 0.9113 0.92967 0.0
C2477 C 0.53153 0.90854 0.94466 0.0
C2478 C 0.54892 0.92953 0.92607 0.0
C2479 C 0.56071 0.93366 0.91122 0.0
C2480 C 0.57659 0.92725 0.91051 0.0
C2481 C 0.58765 0.93121 0.89649 0.0
C2482 C 0.58304 0.94168 0.88316 0.0
C2483 C 0.56739 0.94826 0.88385 0.0
C2484 C 0.55627 0.94432 0.89783 0.0
C2485 C 0.53637 0.97501 0.99517 0.0
C2486 C 0.52807 0.98791 0.98798 0.0
C2487 C 0.53899 0.96016 0.98362 0.0
C2488 C 0.53334 0.95777 0.96458 0.0
C2489 C 0.52542 0.97084 0.95728 0.0
C2490 C 0.52274 0.98569 0.96885 0.0
C2491 C 0.53549 0.94152 0.95239 0.0
C2492 C 0.54555 0.94433 0.93733 0.0
C2493 C 0.52825 0.92331 0.95595 0.0
C2494 C 0.5167 0.91925 0.971 0.0
C2495 C 0.50083 0.92565 0.97192 0.0
C2496 C 0.49012 0.92193 0.98625 0.0
C2497 C 0.49506 0.91171 0.99967 0.0
C2498 C 0.51069 0.90514 0.99876 0.0
C2499 C 0.52147 0.90883 0.98447 0.0
H2500 H 0.48675 0.90885 0.01075 0.0
H2501 H 0.59163 0.94475 0.87232 0.0
H2502 H 0.9661 0.74124 0.72283 0.0
H2503 H 0.93701 0.74258 0.73475 0.0
H2504 H 0.93303 0.78618 0.70277 0.0
H2505 H 0.96169 0.78463 0.69059 0.0
H2506 H 0.92585 0.79344 0.73944 0.0
H2507 H 0.90709 0.74417 0.68864 0.0
H2508 H 0.90722 0.71442 0.67154 0.0
H2509 H 0.89023 0.6872 0.71773 0.0
H2510 H 0.89028 0.71685 0.73523 0.0
H2511 H 0.83616 0.8018 0.74526 0.0
H2512 H 0.86464 0.79739 0.73504 0.0
H2513 H 0.85539 0.74551 0.75643 0.0
H2514 H 0.82607 0.74946 0.76576 0.0
H2515 H 0.87029 0.74127 0.72749 0.0
H2516 H 0.88823 0.78846 0.77861 0.0
H2517 H 0.8889 0.8175 0.79763 0.0
H2518 H 0.90882 0.84775 0.75426 0.0
H2519 H 0.90805 0.81887 0.73489 0.0
C2520 C 0.95903 0.75112 0.71836 0.0
C2521 C 0.96633 0.76282 0.7057 0.0
C2522 C 0.94232 0.75184 0.72514 0.0
C2523 C 0.93262 0.76446 0.71967 0.0
C2524 C 0.9401 0.77631 0.70728 0.0
C2525 C 0.95656 0.77538 0.70027 0.0
C2526 C 0.91478 0.76554 0.72678 0.0
C2527 C 0.91366 0.78207 0.73667 0.0
C2528 C 0.89892 0.75057 0.72384 0.0
C2529 C 0.89891 0.73276 0.71333 0.0
C2530 C 0.90356 0.73187 0.69523 0.0
C2531 C 0.90357 0.71502 0.68544 0.0
C2532 C 0.8988 0.69894 0.69357 0.0
C2533 C 0.89397 0.69967 0.71147 0.0
C2534 C 0.89397 0.71649 0.72133 0.0
C2535 C 0.84013 0.78942 0.74784 0.0
C2536 C 0.82878 0.7761 0.75657 0.0
C2537 C 0.85665 0.78695 0.74208 0.0
C2538 C 0.86283 0.77136 0.74539 0.0
C2539 C 0.85126 0.75778 0.75375 0.0
C2540 C 0.83443 0.76006 0.75915 0.0
C2541 C 0.88118 0.76934 0.74003 0.0
C2542 C 0.88245 0.75265 0.73045 0.0
C2543 C 0.89735 0.78406 0.7436 0.0
C2544 C 0.89794 0.80148 0.75524 0.0
C2545 C 0.89266 0.8013 0.77309 0.0
C2546 C 0.89306 0.81773 0.78394 0.0
C2547 C 0.89886 0.83446 0.77714 0.0
C2548 C 0.90431 0.83478 0.7595 0.0
C2549 C 0.90392 0.81839 0.74859 0.0
H2550 H 0.89916 0.84716 0.78556 0.0
H2551 H 0.8988 0.6859 0.68597 0.0
H2552 H 0.12273 0.06286 0.8427 0.0
H2553 H 0.11164 0.06072 0.87271 0.0
H2554 H 0.07175 0.01012 0.85067 0.0
H2555 H 0.0827 0.01234 0.82032 0.0
H2556 H 0.05703 0.03189 0.87324 0.0
H2557 H 0.11078 0.00949 0.87707 0.0
H2558 H 0.14307 0.01006 0.87415 0.0
H2559 H 0.16077 0.05901 0.91325 0.0
H2560 H 0.12857 0.05888 0.91621 0.0
H2561 H 0.03763 0.00901 0.96233 0.0
H2562 H 0.04721 0.00805 0.93143 0.0
H2563 H 0.08805 0.05926 0.94826 0.0
H2564 H 0.07867 0.06028 0.97923 0.0
H2565 H 0.10168 0.03487 0.92791 0.0
H2566 H 0.04785 0.0579 0.92295 0.0
H2567 H 0.01555 0.05723 0.92592 0.0
H2568 H 0.99799 0.00672 0.88903 0.0
H2569 H 0.03022 0.00696 0.88605 0.0
C2570 C 0.11153 0.05129 0.84417 0.0
C2571 C 0.10366 0.0377 0.82913 0.0
C2572 C 0.10526 0.05004 0.8614 0.0
C2573 C 0.09107 0.03509 0.86409 0.0
C2574 C 0.08278 0.02174 0.84897 0.0
C2575 C 0.08905 0.02301 0.83164 0.0
C2576 C 0.08516 0.03342 0.88277 0.0
C2577 C 0.06674 0.03222 0.88514 0.0
C2578 C 0.09785 0.03418 0.89841 0.0
C2579 C 0.11725 0.03425 0.89674 0.0
C2580 C 0.12155 0.02045 0.88495 0.0
C2581 C 0.13984 0.02068 0.8833 0.0
C2582 C 0.15396 0.03459 0.89348 0.0
C2583 C 0.14982 0.04826 0.90536 0.0
C2584 C 0.13155 0.0481 0.90704 0.0
C2585 C 0.04873 0.02004 0.95952 0.0
C2586 C 0.05735 0.03476 0.97329 0.0
C2587 C 0.05413 0.0195 0.94178 0.0
C2588 C 0.06822 0.03369 0.93742 0.0
C2589 C 0.07713 0.04817 0.95127 0.0
C2590 C 0.07171 0.04874 0.96898 0.0
C2591 C 0.07362 0.03357 0.91842 0.0
C2592 C 0.09195 0.03442 0.91599 0.0
C2593 C 0.06084 0.03245 0.90276 0.0
C2594 C 0.04145 0.03235 0.90443 0.0
C2595 C 0.03711 0.04658 0.91559 0.0
C2596 C 0.01881 0.04629 0.91725 0.0
C2597 C 0.00472 0.03192 0.90771 0.0
C2598 C 0.00891 0.01783 0.89643 0.0
C2599 C 0.02719 0.01804 0.89474 0.0
H2600 H 0.99057 0.03171 0.90902 0.0
H2601 H 0.16811 0.03474 0.89218 0.0
H2602 H 0.78405 0.36279 0.54503 0.0
H2603 H 0.78354 0.33992 0.56603 0.0
H2604 H 0.72536 0.33283 0.56689 0.0
H2605 H 0.72583 0.35603 0.54596 0.0
H2606 H 0.74296 0.33685 0.60104 0.0
H2607 H 0.74071 0.29881 0.54497 0.0
H2608 H 0.74936 0.2902 0.51438 0.0
H2609 H 0.80358 0.29228 0.53888 0.0
H2610 H 0.79537 0.30118 0.56959 0.0
H2611 H 0.75801 0.27984 0.66668 0.0
H2612 H 0.74389 0.28563 0.63756 0.0
H2613 H 0.79711 0.30021 0.61846 0.0
H2614 H 0.8111 0.29292 0.64682 0.0
H2615 H 0.77268 0.28575 0.59044 0.0
H2616 H 0.77677 0.33233 0.644 0.0
H2617 H 0.76907 0.34207 0.67476 0.0
H2618 H 0.71171 0.32444 0.6547 0.0
H2619 H 0.71908 0.31433 0.62387 0.0
C2620 C 0.77111 0.35628 0.54957 0.0
C2621 C 0.75498 0.36118 0.54387 0.0
C2622 C 0.77081 0.34311 0.56147 0.0
C2623 C 0.75434 0.33444 0.56777 0.0
C2624 C 0.73817 0.33926 0.56206 0.0
C2625 C 0.73847 0.35249 0.55013 0.0
C2626 C 0.75452 0.32129 0.58125 0.0
C2627 C 0.74901 0.32536 0.59858 0.0
C2628 C 0.76245 0.30635 0.57804 0.0
C2629 C 0.76741 0.30071 0.55961 0.0
C2630 C 0.75451 0.29752 0.54383 0.0
C2631 C 0.75934 0.29258 0.52646 0.0
C2632 C 0.77701 0.2907 0.52468 0.0
C2633 C 0.78989 0.29372 0.54028 0.0
C2634 C 0.78514 0.29868 0.55768 0.0
C2635 C 0.76666 0.28358 0.65603 0.0
C2636 C 0.7858 0.28632 0.65929 0.0
C2637 C 0.75855 0.28712 0.63944 0.0
C2638 C 0.76951 0.29397 0.62608 0.0
C2639 C 0.78837 0.29516 0.62865 0.0
C2640 C 0.79641 0.29123 0.64502 0.0
C2641 C 0.76207 0.30196 0.61047 0.0
C2642 C 0.76612 0.29688 0.59272 0.0
C2643 C 0.75288 0.31605 0.6133 0.0
C2644 C 0.74847 0.32243 0.63171 0.0
C2645 C 0.76252 0.33048 0.64618 0.0
C2646 C 0.75821 0.33603 0.66362 0.0
C2647 C 0.73991 0.3338 0.66669 0.0
C2648 C 0.72587 0.32608 0.6523 0.0
C2649 C 0.73011 0.32044 0.63485 0.0
H2650 H 0.73659 0.33809 0.6802 0.0
H2651 H 0.78073 0.2869 0.51122 0.0
H2652 H 0.43989 0.09212 0.36373 0.0
H2653 H 0.46176 0.09561 0.39108 0.0
H2654 H 0.50134 0.08185 0.35716 0.0
H2655 H 0.47929 0.07797 0.32968 0.0
H2656 H 0.49473 0.05949 0.38203 0.0
H2657 H 0.51029 0.12415 0.38395 0.0
H2658 H 0.50523 0.15494 0.38289 0.0
H2659 H 0.47695 0.14985 0.43086 0.0
H2660 H 0.48157 0.1189 0.43206 0.0
H2661 H 0.5466 0.05566 0.46615 0.0
H2662 H 0.53926 0.06654 0.43697 0.0
H2663 H 0.49182 0.08011 0.45711 0.0
H2664 H 0.49915 0.06955 0.48636 0.0
H2665 H 0.50951 0.10619 0.43753 0.0
H2666 H 0.48766 0.03976 0.43071 0.0
H2667 H 0.49122 0.00837 0.43167 0.0
H2668 H 0.53022 0.01689 0.3925 0.0
H2669 H 0.52705 0.04844 0.39151 0.0
C2670 C 0.45343 0.09035 0.36203 0.0
C2671 C 0.45781 0.08453 0.34462 0.0
C2672 C 0.46599 0.09248 0.37769 0.0
C2673 C 0.48321 0.08901 0.37617 0.0
C2674 C 0.48812 0.08458 0.35863 0.0
C2675 C 0.47552 0.08239 0.34295 0.0
C2676 C 0.49458 0.08702 0.39293 0.0
C2677 C 0.49846 0.06995 0.39398 0.0
C2678 C 0.49905 0.10047 0.40866 0.0
C2679 C 0.49622 0.11912 0.40803 0.0
C2680 C 0.50287 0.12952 0.3942 0.0
C2681 C 0.50009 0.14702 0.39359 0.0
C2682 C 0.49075 0.15434 0.40679 0.0
C2683 C 0.48419 0.14417 0.42065 0.0
C2684 C 0.48691 0.12665 0.42132 0.0
C2685 C 0.53466 0.06105 0.46442 0.0
C2686 C 0.52333 0.06152 0.4785 0.0
C2687 C 0.53053 0.0673 0.44776 0.0
C2688 C 0.51493 0.07399 0.44486 0.0
C2689 C 0.50396 0.07505 0.45911 0.0
C2690 C 0.50809 0.06885 0.47576 0.0
C2691 C 0.50912 0.07858 0.4266 0.0
C2692 C 0.50625 0.09604 0.42534 0.0
C2693 C 0.50543 0.06547 0.41066 0.0
C2694 C 0.50731 0.04651 0.41122 0.0
C2695 C 0.49711 0.03498 0.42242 0.0
C2696 C 0.49904 0.01716 0.42295 0.0
C2697 C 0.51099 0.01066 0.4122 0.0
C2698 C 0.521 0.02196 0.40086 0.0
C2699 C 0.51915 0.0398 0.40031 0.0
H2700 H 0.51246 0.99686 0.41262 0.0
H2701 H 0.48862 0.16789 0.40629 0.0
H2702 H 0.76971 0.73801 0.05708 0.0
H2703 H 0.76745 0.75159 0.08832 0.0
H2704 H 0.78684 0.70848 0.11073 0.0
H2705 H 0.78879 0.69472 0.07964 0.0
H2706 H 0.75917 0.71397 0.12754 0.0
H2707 H 0.81482 0.75246 0.11215 0.0
H2708 H 0.83386 0.77296 0.09354 0.0
H2709 H 0.8009 0.81131 0.10091 0.0
H2710 H 0.78151 0.7909 0.11937 0.0
H2711 H 0.80489 0.78092 0.21522 0.0
H2712 H 0.80379 0.76993 0.18274 0.0
H2713 H 0.74469 0.75418 0.17755 0.0
H2714 H 0.74567 0.76493 0.2104 0.0
H2715 H 0.79073 0.77872 0.15161 0.0
H2716 H 0.72936 0.71522 0.14579 0.0
H2717 H 0.7134 0.69376 0.1656 0.0
H2718 H 0.76304 0.70377 0.20259 0.0
H2719 H 0.77934 0.72508 0.18287 0.0
C2720 C 0.77357 0.73149 0.06869 0.0
C2721 C 0.7795 0.71532 0.06587 0.0
C2722 C 0.77229 0.73927 0.08655 0.0
C2723 C 0.77707 0.73114 0.10197 0.0
C2724 C 0.783 0.715 0.09912 0.0
C2725 C 0.78421 0.7072 0.08131 0.0
C2726 C 0.77596 0.73932 0.12109 0.0
C2727 C 0.76599 0.72817 0.13274 0.0
C2728 C 0.78498 0.75779 0.12806 0.0
C2729 C 0.7966 0.77006 0.11696 0.0
C2730 C 0.81155 0.76519 0.10967 0.0
C2731 C 0.82241 0.77681 0.09918 0.0
C2732 C 0.81855 0.7934 0.096 0.0
C2733 C 0.80385 0.79844 0.10335 0.0
C2734 C 0.79292 0.78686 0.11384 0.0
C2735 C 0.79159 0.7752 0.20724 0.0
C2736 C 0.77535 0.77372 0.21555 0.0
C2737 C 0.79101 0.76898 0.18856 0.0
C2738 C 0.77419 0.76105 0.17764 0.0
C2739 C 0.75787 0.76002 0.18572 0.0
C2740 C 0.75844 0.76625 0.2045 0.0
C2741 C 0.77398 0.75337 0.15805 0.0
C2742 C 0.78369 0.7646 0.14632 0.0
C2743 C 0.76507 0.73486 0.15112 0.0
C2744 C 0.75548 0.72191 0.16297 0.0
C2745 C 0.73686 0.7128 0.15812 0.0
C2746 C 0.72776 0.70066 0.16934 0.0
C2747 C 0.73718 0.69746 0.18538 0.0
C2748 C 0.75574 0.70632 0.1902 0.0
C2749 C 0.76491 0.71844 0.17902 0.0
H2750 H 0.73011 0.68808 0.19405 0.0
H2751 H 0.82699 0.80238 0.08787 0.0
H2752 H 0.12145 0.03104 0.713 0.0
H2753 H 0.10788 0.03311 0.6822 0.0
H2754 H 0.06228 0.04805 0.70504 0.0
H2755 H 0.07578 0.04576 0.73613 0.0
H2756 H 0.05095 0.02393 0.67314 0.0
H2757 H 0.09588 0.08078 0.69216 0.0
H2758 H 0.12623 0.10094 0.70467 0.0
H2759 H 0.15035 0.07785 0.66036 0.0
H2760 H 0.12016 0.05733 0.64773 0.0
H2761 H 0.02417 0.0522 0.58603 0.0
H2762 H 0.0336 0.05342 0.61913 0.0
H2763 H 0.08101 0.03468 0.60658 0.0
H2764 H 0.07169 0.03328 0.57374 0.0
H2765 H 0.0893 0.06391 0.63469 0.0
H2766 H 0.0453 0.00521 0.61759 0.0
H2767 H 0.01513 0.98483 0.60474 0.0
H2768 H 0.9894 0.01159 0.64516 0.0
H2769 H 0.01943 0.03233 0.65809 0.0
C2770 C 0.10848 0.03467 0.71152 0.0
C2771 C 0.09976 0.03835 0.72705 0.0
C2772 C 0.10076 0.03593 0.69387 0.0
C2773 C 0.08421 0.04107 0.69128 0.0
C2774 C 0.07511 0.04416 0.70669 0.0
C2775 C 0.08285 0.04287 0.72444 0.0
C2776 C 0.07677 0.04348 0.67249 0.0
C2777 C 0.05919 0.03295 0.66486 0.0
C2778 C 0.08758 0.05506 0.66154 0.0
C2779 C 0.10577 0.06742 0.66907 0.0
C2780 C 0.10768 0.0799 0.68515 0.0
C2781 C 0.12486 0.09142 0.69226 0.0
C2782 C 0.14022 0.09066 0.68332 0.0
C2783 C 0.13843 0.07841 0.66726 0.0
C2784 C 0.12129 0.06685 0.66012 0.0
C2785 C 0.03666 0.04848 0.59035 0.0
C2786 C 0.04714 0.0426 0.57722 0.0
C2787 C 0.04199 0.04909 0.60926 0.0
C2788 C 0.05797 0.04405 0.61533 0.0
C2789 C 0.06864 0.03864 0.60224 0.0
C2790 C 0.06323 0.03779 0.58344 0.0
C2791 C 0.06368 0.0441 0.63525 0.0
C2792 C 0.08095 0.05511 0.64308 0.0
C2793 C 0.0526 0.03297 0.64633 0.0
C2794 C 0.03457 0.02047 0.63866 0.0
C2795 C 0.03319 0.00686 0.62363 0.0
C2796 C 0.01612 0.99522 0.61636 0.0
C2797 C 1.00035 0.99695 0.62409 0.0
C2798 C 1.00163 0.01029 0.63916 0.0
C2799 C 0.01867 0.02199 0.64647 0.0
H2800 H 0.98714 0.98793 0.61845 0.0
H2801 H 0.15352 0.09958 0.68881 0.0
H2802 H 0.72787 0.34785 0.46561 0.0
H2803 H 0.72492 0.33018 0.43515 0.0
H2804 H 0.74586 0.38014 0.41225 0.0
H2805 H 0.74887 0.39791 0.44265 0.0
H2806 H 0.71831 0.35366 0.38794 0.0
H2807 H 0.77517 0.3588 0.42678 0.0
H2808 H 0.7934 0.35561 0.4552 0.0
H2809 H 0.76845 0.29762 0.44763 0.0
H2810 H 0.74985 0.30054 0.41928 0.0
H2811 H 0.76923 0.33372 0.31678 0.0
H2812 H 0.75829 0.34493 0.34483 0.0
H2813 H 0.74163 0.28965 0.35806 0.0
H2814 H 0.75257 0.27822 0.32992 0.0
H2815 H 0.76216 0.31452 0.38713 0.0
H2816 H 0.70926 0.30881 0.34498 0.0
H2817 H 0.69231 0.31226 0.31591 0.0
H2818 H 0.71009 0.37091 0.32888 0.0
H2819 H 0.72738 0.36783 0.35795 0.0
C2820 C 0.73142 0.35511 0.454 0.0
C2821 C 0.73886 0.37421 0.4565 0.0
C2822 C 0.72971 0.345 0.43663 0.0
C2823 C 0.73538 0.35387 0.42157 0.0
C2824 C 0.74141 0.37308 0.42374 0.0
C2825 C 0.74322 0.38318 0.44112 0.0
C2826 C 0.73747 0.34316 0.40429 0.0
C2827 C 0.72787 0.34509 0.3877 0.0
C2828 C 0.7497 0.33172 0.40412 0.0
C2829 C 0.76095 0.32992 0.42107 0.0
C2830 C 0.77346 0.3454 0.43127 0.0
C2831 C 0.78387 0.34364 0.44735 0.0
C2832 C 0.78203 0.32643 0.45325 0.0
C2833 C 0.76982 0.31094 0.44306 0.0
C2834 C 0.75934 0.31264 0.42699 0.0
C2835 C 0.76324 0.32391 0.32563 0.0
C2836 C 0.76183 0.30508 0.32118 0.0
C2837 C 0.75685 0.33033 0.34156 0.0
C2838 C 0.74898 0.31807 0.35336 0.0
C2839 C 0.74758 0.29928 0.34903 0.0
C2840 C 0.75383 0.2928 0.33297 0.0
C2841 C 0.74319 0.32517 0.3707 0.0
C2842 C 0.75222 0.32268 0.38734 0.0
C2843 C 0.73046 0.33607 0.37085 0.0
C2844 C 0.71973 0.33808 0.35361 0.0
C2845 C 0.70964 0.32245 0.3416 0.0
C2846 C 0.69996 0.32434 0.32513 0.0
C2847 C 0.70016 0.34178 0.32053 0.0
C2848 C 0.70996 0.3574 0.33246 0.0
C2849 C 0.71968 0.35559 0.34897 0.0
H2850 H 0.69271 0.34318 0.30772 0.0
H2851 H 0.79012 0.32509 0.4657 0.0
H2852 H 0.39884 0.01271 0.25173 0.0
H2853 H 0.40113 0.99755 0.22115 0.0
H2854 H 0.44245 0.04523 0.21247 0.0
H2855 H 0.44058 0.06024 0.24321 0.0
H2856 H 0.40888 0.02676 0.18182 0.0
H2857 H 0.45904 0.01557 0.2246 0.0
H2858 H 0.46836 1.00283 0.25236 0.0
H2859 H 0.43271 0.95005 0.2306 0.0
H2860 H 0.42297 0.9626 0.20285 0.0
H2861 H 0.4688 0.02317 0.119 0.0
H2862 H 0.45018 0.02556 0.14384 0.0
H2863 H 0.43848 0.96693 0.14439 0.0
H2864 H 0.4579 0.96465 0.11959 0.0
H2865 H 0.44714 0.98221 0.17732 0.0
H2866 H 0.40173 0.9882 0.13279 0.0
H2867 H 0.387 0.99741 0.10535 0.0
H2868 H 0.40651 0.05406 0.12858 0.0
H2869 H 0.42114 0.04519 0.15631 0.0
C2870 C 0.40835 0.01993 0.24324 0.0
C2871 C 0.41958 0.03758 0.24975 0.0
C2872 C 0.4096 0.0113 0.22584 0.0
C2873 C 0.42187 0.02038 0.21467 0.0
C2874 C 0.43283 0.03813 0.22097 0.0
C2875 C 0.43185 0.04662 0.23851 0.0
C2876 C 0.42408 0.0112 0.19669 0.0
C2877 C 0.4172 0.01699 0.1807 0.0
C2878 C 0.43387 0.9976 0.19534 0.0
C2879 C 0.44015 0.99005 0.21178 0.0
C2880 C 0.4531 1.00129 0.22581 0.0
C2881 C 0.45847 0.9941 0.24153 0.0
C2882 C 0.45109 0.97566 0.24327 0.0
C2883 C 0.4384 0.96434 0.22925 0.0
C2884 C 0.43295 0.97148 0.21353 0.0
C2885 C 0.46196 0.01073 0.12417 0.0
C2886 C 0.4646 0.99371 0.11734 0.0
C2887 C 0.45114 0.01207 0.13827 0.0
C2888 C 0.44246 0.99636 0.14572 0.0
C2889 C 0.44487 0.97921 0.13873 0.0
C2890 C 0.45595 0.97791 0.12465 0.0
C2891 C 0.43291 0.99861 0.16222 0.0
C2892 C 0.43831 0.99151 0.1781 0.0
C2893 C 0.42107 0.01044 0.16335 0.0
C2894 C 0.41256 0.01601 0.14663 0.0
C2895 C 0.40292 1.00263 0.13204 0.0
C2896 C 0.39449 0.00778 0.11648 0.0
C2897 C 0.39584 0.02631 0.11521 0.0
C2898 C 0.40546 0.03971 0.12959 0.0
C2899 C 0.41371 0.03462 0.1453 0.0
H2900 H 0.38945 0.03027 0.10307 0.0
H2901 H 0.45522 0.97013 0.25547 0.0
H2902 H 0.80394 0.7365 0.97425 0.0
H2903 H 0.80669 0.7485 0.94466 0.0
H2904 H 0.76636 0.70014 0.91758 0.0
H2905 H 0.76387 0.68797 0.94695 0.0
H2906 H 0.79347 0.70826 0.8974 0.0
H2907 H 0.75599 0.74209 0.92778 0.0
H2908 H 0.74821 0.76199 0.95294 0.0
H2909 H 0.79547 0.80507 0.94771 0.0
H2910 H 0.80366 0.78533 0.92267 0.0
H2911 H 0.76589 0.73972 0.81457 0.0
H2912 H 0.76763 0.7287 0.84453 0.0
H2913 H 0.81098 0.77685 0.86607 0.0
H2914 H 0.80927 0.78809 0.8361 0.0
H2915 H 0.78458 0.76977 0.88929 0.0
H2916 H 0.82096 0.73611 0.85755 0.0
H2917 H 0.82769 0.71638 0.83161 0.0
H2918 H 0.7815 0.67295 0.83873 0.0
H2919 H 0.77436 0.69251 0.86464 0.0
C2920 C 0.79564 0.72846 0.96198 0.0
C2921 C 0.78364 0.71132 0.96297 0.0
C2922 C 0.79719 0.73535 0.94507 0.0
C2923 C 0.7866 0.72532 0.92884 0.0
C2924 C 0.77471 0.70815 0.92984 0.0
C2925 C 0.77323 0.70123 0.94669 0.0
C2926 C 0.7878 0.73263 0.9108 0.0
C2927 C 0.79135 0.72164 0.89562 0.0
C2928 C 0.78545 0.75027 0.90846 0.0
C2929 C 0.78055 0.76216 0.9235 0.0
C2930 C 0.7648 0.75576 0.9321 0.0
C2931 C 0.7603 0.76701 0.94632 0.0
C2932 C 0.77137 0.78476 0.95196 0.0
C2933 C 0.78693 0.79131 0.94335 0.0
C2934 C 0.7915 0.7801 0.92914 0.0
C2935 C 0.77591 0.74795 0.82562 0.0
C2936 C 0.78746 0.76481 0.82288 0.0
C2937 C 0.77692 0.74157 0.84275 0.0
C2938 C 0.78951 0.75188 0.85755 0.0
C2939 C 0.80116 0.76866 0.85486 0.0
C2940 C 0.80023 0.77501 0.83767 0.0
C2941 C 0.7901 0.74534 0.87594 0.0
C2942 C 0.78685 0.75646 0.89115 0.0
C2943 C 0.79263 0.72779 0.87829 0.0
C2944 C 0.79705 0.71583 0.86296 0.0
C2945 C 0.81218 0.72239 0.85354 0.0
C2946 C 0.81608 0.71123 0.83885 0.0
C2947 C 0.80501 0.69344 0.83351 0.0
C2948 C 0.79006 0.68674 0.84289 0.0
C2949 C 0.7861 0.69784 0.85761 0.0
H2950 H 0.80807 0.68485 0.82214 0.0
H2951 H 0.76785 0.79346 0.96296 0.0
H2952 H 0.83064 0.12487 0.01181 0.0
H2953 H 0.84808 0.1033 1.0016 0.0
H2954 H 0.82393 0.06668 0.03889 0.0
H2955 H 0.80656 0.08837 0.04939 0.0
H2956 H 0.86048 0.07068 0.0401 0.0
H2957 H 0.80925 0.05673 0.99344 0.0
H2958 H 0.78717 0.06357 0.97022 0.0
H2959 H 0.83093 0.08542 0.93918 0.0
H2960 H 0.85333 0.07896 0.96235 0.0
H2961 H 0.90424 0.00577 0.00421 0.0
H2962 H 0.87742 0.01716 0.00973 0.0
H2963 H 0.89575 0.06088 0.97734 0.0
H2964 H 0.92233 0.04926 0.97133 0.0
H2965 H 0.85808 0.04865 0.97363 0.0
H2966 H 0.90916 0.06755 0.02234 0.0
H2967 H 0.93201 0.06194 0.04559 0.0
H2968 H 0.88881 0.03178 0.07279 0.0
H2969 H 0.8657 0.03699 0.0495 0.0
C2970 C 0.8291 0.11226 0.0179 0.0
C2971 C 0.81724 0.10825 0.03135 0.0
C2972 C 0.83895 0.0999 0.01195 0.0
C2973 C 0.83698 0.08326 0.01924 0.0
C2974 C 0.82549 0.0794 0.03301 0.0
C2975 C 0.81564 0.0918 0.03901 0.0
C2976 C 0.84736 0.07017 0.01273 0.0
C2977 C 0.85965 0.0655 0.02562 0.0
C2978 C 0.84644 0.06371 0.9938 0.0
C2979 C 0.83299 0.06745 0.97971 0.0
C2980 C 0.81419 0.0631 0.98172 0.0
C2981 C 0.80161 0.0669 0.96856 0.0
C2982 C 0.80765 0.07495 0.95325 0.0
C2983 C 0.82628 0.07918 0.95105 0.0
C2984 C 0.83891 0.07543 0.96418 0.0
C2985 C 0.90222 0.01742 0.99773 0.0
C2986 C 0.91548 0.02682 0.98756 0.0
C2987 C 0.88696 0.02396 1.00099 0.0
C2988 C 0.88486 0.04004 0.99422 0.0
C2989 C 0.89721 0.0485 0.98274 0.0
C2990 C 0.91245 0.04195 0.97945 0.0
C2991 C 0.87134 0.04944 1.00097 0.0
C2992 C 0.85855 0.05348 0.98814 0.0
C2993 C 0.87184 0.05543 0.01996 0.0
C2994 C 0.88572 0.05246 0.03406 0.0
C2995 C 0.90454 0.05961 0.0332 0.0
C2996 C 0.91754 0.05651 0.04639 0.0
C2997 C 0.91187 0.04646 0.06063 0.0
C2998 C 0.89318 0.03953 0.06173 0.0
C2999 C 0.88013 0.04254 0.04854 0.0
H3000 H 0.92195 0.04408 0.07084 0.0
H3001 H 0.79789 0.07789 0.94307 0.0
H3002 H 0.34829 0.39966 0.04717 0.0
H3003 H 0.37857 0.42072 0.04782 0.0
H3004 H 0.35348 0.46022 0.02523 0.0
H3005 H 0.32316 0.43916 0.02441 0.0
H3006 H 0.38301 0.45661 0.00832 0.0
H3007 H 0.36933 0.46632 0.0704 0.0
H3008 H 0.36024 0.45727 0.10012 0.0
H3009 H 0.40689 0.43498 0.1079 0.0
H3010 H 0.41612 0.44366 0.07809 0.0
H3011 H 0.46302 0.53066 0.02474 0.0
H3012 H 0.43201 0.51195 0.02603 0.0
H3013 H 0.45439 0.47104 0.04933 0.0
H3014 H 0.48539 0.48972 0.04836 0.0
H3015 H 0.42572 0.47642 0.06622 0.0
H3016 H 0.43878 0.46557 0.00381 0.0
H3017 H 0.44803 0.47447 0.97409 0.0
H3018 H 0.4026 0.49861 0.96685 0.0
H3019 H 0.39323 0.4901 0.99669 0.0
C3020 C 0.34923 0.41283 0.04233 0.0
C3021 C 0.33335 0.41779 0.03578 0.0
C3022 C 0.36653 0.42488 0.04278 0.0
C3023 C 0.36827 0.44213 0.03676 0.0
C3024 C 0.35245 0.447 0.02997 0.0
C3025 C 0.33514 0.43497 0.02956 0.0
C3026 C 0.38662 0.45504 0.03744 0.0
C3027 C 0.39224 0.46117 0.02103 0.0
C3028 C 0.39881 0.46068 0.05396 0.0
C3029 C 0.39332 0.45549 0.07192 0.0
C3030 C 0.37757 0.45936 0.07837 0.0
C3031 C 0.37241 0.45432 0.09525 0.0
C3032 C 0.38296 0.44551 0.10587 0.0
C3033 C 0.39872 0.44177 0.09965 0.0
C3034 C 0.40393 0.44677 0.08277 0.0
C3035 C 0.46136 0.51776 0.03029 0.0
C3036 C 0.47671 0.51165 0.03634 0.0
C3037 C 0.44362 0.50704 0.03093 0.0
C3038 C 0.44088 0.48997 0.03753 0.0
C3039 C 0.45617 0.48414 0.04415 0.0
C3040 C 0.4739 0.49484 0.04353 0.0
C3041 C 0.42214 0.47792 0.03708 0.0
C3042 C 0.41644 0.47193 0.05353 0.0
C3043 C 0.4099 0.47237 0.02058 0.0
C3044 C 0.41542 0.47737 0.00257 0.0
C3045 C 0.43084 0.4729 0.99595 0.0
C3046 C 0.4361 0.47786 0.97907 0.0
C3047 C 0.42594 0.48715 0.96861 0.0
C3048 C 0.41047 0.49145 0.97499 0.0
C3049 C 0.40518 0.48655 0.99187 0.0
H3050 H 0.43003 0.49098 0.95555 0.0
H3051 H 0.37894 0.44163 0.11893 0.0
H3052 H 0.37812 0.56115 0.78083 0.0
H3053 H 0.36013 0.5839 0.78172 0.0
H3054 H 0.4067 0.6247 0.76972 0.0
H3055 H 0.42486 0.60199 0.76897 0.0
H3056 H 0.38956 0.6386 0.79645 0.0
H3057 H 0.3719 0.60437 0.73625 0.0
H3058 H 0.3609 0.57654 0.71351 0.0
H3059 H 0.3102 0.56297 0.73698 0.0
H3060 H 0.32101 0.5906 0.76004 0.0
H3061 H 0.34027 0.70361 0.77501 0.0
H3062 H 0.35895 0.68157 0.77265 0.0
H3063 H 0.31319 0.63872 0.78276 0.0
H3064 H 0.29417 0.6605 0.78434 0.0
H3065 H 0.3305 0.62628 0.7562 0.0
H3066 H 0.34874 0.65994 0.81714 0.0
H3067 H 0.3598 0.68788 0.83975 0.0
H3068 H 0.40937 0.70255 0.81451 0.0
H3069 H 0.39854 0.6748 0.79169 0.0
C3070 C 0.38457 0.57499 0.77847 0.0
C3071 C 0.4029 0.57976 0.77477 0.0
C3072 C 0.37424 0.58796 0.77888 0.0
C3073 C 0.38198 0.60595 0.77553 0.0
C3074 C 0.40042 0.61088 0.77229 0.0
C3075 C 0.41077 0.59789 0.77184 0.0
C3076 C 0.37078 0.61957 0.77534 0.0
C3077 C 0.37677 0.63602 0.78746 0.0
C3078 C 0.35392 0.61607 0.76387 0.0
C3079 C 0.34735 0.59947 0.74998 0.0
C3080 C 0.35847 0.59538 0.73666 0.0
C3081 C 0.35225 0.57965 0.72369 0.0
C3082 C 0.33488 0.56797 0.72383 0.0
C3083 C 0.32366 0.57202 0.73691 0.0
C3084 C 0.32982 0.58772 0.74991 0.0
C3085 C 0.33407 0.68945 0.77649 0.0
C3086 C 0.3157 0.68389 0.77998 0.0
C3087 C 0.34485 0.67689 0.77534 0.0
C3088 C 0.33758 0.65852 0.77783 0.0
C3089 C 0.31915 0.65283 0.7809 0.0
C3090 C 0.30834 0.66537 0.78199 0.0
C3091 C 0.34921 0.64526 0.77741 0.0
C3092 C 0.3433 0.62887 0.76517 0.0
C3093 C 0.36615 0.64881 0.78877 0.0
C3094 C 0.37277 0.66539 0.80262 0.0
C3095 C 0.36196 0.66919 0.81637 0.0
C3096 C 0.36819 0.68498 0.82924 0.0
C3097 C 0.38526 0.69701 0.82856 0.0
C3098 C 0.39616 0.69324 0.81505 0.0
C3099 C 0.38999 0.67747 0.80216 0.0
H3100 H 0.39004 0.70921 0.83854 0.0
H3101 H 0.33009 0.5558 0.71378 0.0
H3102 H 0.21725 0.634 0.55293 0.0
H3103 H 0.18533 0.61619 0.54821 0.0
H3104 H 0.19762 0.57968 0.50481 0.0
H3105 H 0.22964 0.59782 0.50918 0.0
H3106 H 0.16594 0.58714 0.49511 0.0
H3107 H 0.19201 0.5661 0.54685 0.0
H3108 H 0.20997 0.5683 0.57707 0.0
H3109 H 0.17333 0.59521 0.60311 0.0
H3110 H 0.15529 0.59342 0.573 0.0
H3111 H 0.07934 0.52659 0.53015 0.0
H3112 H 0.11252 0.53696 0.53049 0.0
H3113 H 0.10642 0.58608 0.50871 0.0
H3114 H 0.07319 0.57569 0.50801 0.0
H3115 H 0.13617 0.56616 0.54919 0.0
H3116 H 0.13946 0.59849 0.48013 0.0
H3117 H 0.121 0.59275 0.44966 0.0
H3118 H 0.09914 0.53652 0.45708 0.0
H3119 H 0.11801 0.54164 0.48713 0.0
C3120 C 0.21317 0.62219 0.54237 0.0
C3121 C 0.22592 0.61721 0.53149 0.0
C3122 C 0.19495 0.61198 0.53974 0.0
C3123 C 0.18918 0.59643 0.52637 0.0
C3124 C 0.20181 0.59159 0.51524 0.0
C3125 C 0.22007 0.60192 0.51778 0.0
C3126 C 0.16993 0.58533 0.5242 0.0
C3127 C 0.15943 0.58246 0.50689 0.0
C3128 C 0.16161 0.57865 0.53945 0.0
C3129 C 0.17237 0.57972 0.55763 0.0
C3130 C 0.18785 0.5726 0.559 0.0
C3131 C 0.19804 0.57376 0.57611 0.0
C3132 C 0.19281 0.58192 0.59199 0.0
C3133 C 0.17736 0.5889 0.59079 0.0
C3134 C 0.16714 0.58779 0.57371 0.0
C3135 C 0.08503 0.53956 0.52533 0.0
C3136 C 0.07364 0.55036 0.51909 0.0
C3137 C 0.10399 0.54547 0.52559 0.0
C3138 C 0.11189 0.56221 0.51954 0.0
C3139 C 0.10056 0.57298 0.51322 0.0
C3140 C 0.08158 0.56707 0.51291 0.0
C3141 C 0.13203 0.56873 0.52033 0.0
C3142 C 0.1427 0.57067 0.53736 0.0
C3143 C 0.14056 0.57397 0.5047 0.0
C3144 C 0.13003 0.57054 0.48605 0.0
C3145 C 0.1309 0.58484 0.47517 0.0
C3146 C 0.12037 0.58169 0.45795 0.0
C3147 C 0.10888 0.56431 0.45149 0.0
C3148 C 0.10804 0.54998 0.46211 0.0
C3149 C 0.1187 0.55298 0.4792 0.0
H3150 H 0.10071 0.56187 0.43821 0.0
H3151 H 0.20071 0.5828 0.60523 0.0
H3152 H 0.71511 0.00792 0.74443 0.0
H3153 H 0.73612 0.98958 0.75313 0.0
H3154 H 0.70054 0.96643 0.79191 0.0
H3155 H 0.67952 0.98498 0.78344 0.0
H3156 H 0.73641 0.97725 0.8068 0.0
H3157 H 0.70136 0.94147 0.75163 0.0
H3158 H 0.68782 0.93588 0.7191 0.0
H3159 H 0.74156 0.95108 0.70198 0.0
H3160 H 0.75542 0.957 0.73444 0.0
H3161 H 0.77008 0.89897 0.81919 0.0
H3162 H 0.75339 0.92215 0.81434 0.0
H3163 H 0.78907 0.94255 0.77452 0.0
H3164 H 0.80576 0.91922 0.77923 0.0
H3165 H 0.75415 0.93434 0.76045 0.0
H3166 H 0.78936 0.96856 0.81593 0.0
H3167 H 0.80262 0.97368 0.84852 0.0
H3168 H 0.7486 0.96099 0.86527 0.0
H3169 H 0.735 0.95555 0.83275 0.0
C3170 C 0.71169 0.99883 0.75472 0.0
C3171 C 0.69566 0.99779 0.76322 0.0
C3172 C 0.72369 0.98837 0.75966 0.0
C3173 C 0.71979 0.97659 0.77307 0.0
C3174 C 0.70377 0.97548 0.78155 0.0
C3175 C 0.69175 0.98597 0.77662 0.0
C3176 C 0.73253 0.96551 0.77828 0.0
C3177 C 0.74017 0.9677 0.79674 0.0
C3178 C 0.73772 0.95344 0.76501 0.0
C3179 C 0.72941 0.94986 0.74547 0.0
C3180 C 0.71028 0.94377 0.74093 0.0
C3181 C 0.70255 0.94051 0.72251 0.0
C3182 C 0.71382 0.94317 0.70848 0.0
C3183 C 0.73285 0.94905 0.71286 0.0
C3184 C 0.74065 0.95234 0.73127 0.0
C3185 C 0.77472 0.90876 0.80983 0.0
C3186 C 0.78914 0.90728 0.79951 0.0
C3187 C 0.76517 0.922 0.80706 0.0
C3188 C 0.77002 0.93408 0.79409 0.0
C3189 C 0.78509 0.9333 0.78454 0.0
C3190 C 0.79458 0.91999 0.78723 0.0
C3191 C 0.75815 0.94608 0.78902 0.0
C3192 C 0.75058 0.94401 0.77054 0.0
C3193 C 0.75302 0.95819 0.80229 0.0
C3194 C 0.76116 0.9615 0.82188 0.0
C3195 C 0.7803 0.96672 0.82655 0.0
C3196 C 0.78788 0.96971 0.84501 0.0
C3197 C 0.77646 0.96762 0.85895 0.0
C3198 C 0.75743 0.96259 0.85445 0.0
C3199 C 0.74978 0.95958 0.83601 0.0
H3200 H 0.78236 0.96994 0.87324 0.0
H3201 H 0.70781 0.94064 0.69423 0.0
H3202 H 0.71659 0.88718 0.52756 0.0
H3203 H 0.69264 0.90391 0.52766 0.0
H3204 H 0.73403 0.95498 0.54328 0.0
H3205 H 0.75787 0.93841 0.54346 0.0
H3206 H 0.70574 0.95375 0.56288 0.0
H3207 H 0.71379 0.94108 0.49858 0.0
H3208 H 0.71438 0.92107 0.47003 0.0
H3209 H 0.65803 0.89289 0.47107 0.0
H3210 H 0.65718 0.9126 0.49978 0.0
H3211 H 0.66298 0.02179 0.53802 0.0
H3212 H 0.68242 1.00055 0.54035 0.0
H3213 H 0.63507 0.95467 0.52454 0.0
H3214 H 0.61557 0.9759 0.52165 0.0
H3215 H 0.6634 0.95034 0.50631 0.0
H3216 H 0.6543 0.96461 0.56889 0.0
H3217 H 0.65338 0.98455 0.59736 0.0
H3218 H 0.71107 0.00932 0.5998 0.0
H3219 H 0.71229 0.98968 0.5712 0.0
C3220 C 0.72053 0.90196 0.53108 0.0
C3221 C 0.7391 0.91149 0.53544 0.0
C3222 C 0.70686 0.91151 0.53107 0.0
C3223 C 0.71155 0.93073 0.53532 0.0
C3224 C 0.73007 0.94017 0.53998 0.0
C3225 C 0.74369 0.93067 0.54001 0.0
C3226 C 0.69736 0.94122 0.53473 0.0
C3227 C 0.69657 0.9531 0.55047 0.0
C3228 C 0.685 0.93996 0.51872 0.0
C3229 C 0.68549 0.92816 0.50144 0.0
C3230 C 0.70157 0.93052 0.4928 0.0
C3231 C 0.70194 0.91925 0.47658 0.0
C3232 C 0.68627 0.90568 0.46877 0.0
C3233 C 0.67017 0.90339 0.47715 0.0
C3234 C 0.66973 0.9146 0.49339 0.0
C3235 C 0.6567 0.00719 0.53493 0.0
C3236 C 0.63771 1.00056 0.52967 0.0
C3237 C 0.66781 0.99505 0.53645 0.0
C3238 C 0.66017 0.976 0.53284 0.0
C3239 C 0.64124 0.96931 0.52748 0.0
C3240 C 0.6301 0.98146 0.52598 0.0
C3241 C 0.67208 0.96317 0.53433 0.0
C3242 C 0.67242 0.95084 0.51879 0.0
C3243 C 0.684 0.96397 0.55054 0.0
C3244 C 0.68336 0.97575 0.56781 0.0
C3245 C 0.66677 0.97439 0.57542 0.0
C3246 C 0.6662 0.98563 0.5916 0.0
C3247 C 0.68215 0.99822 0.60036 0.0
C3248 C 0.69872 0.99957 0.59299 0.0
C3249 C 0.69937 0.98836 0.57681 0.0
H3250 H 0.68168 0.00691 0.61288 0.0
H3251 H 0.68658 0.89697 0.45621 0.0
H3252 H 0.3745 0.49289 0.74525 0.0
H3253 H 0.35442 0.46185 0.74239 0.0
H3254 H 0.39987 0.44223 0.76411 0.0
H3255 H 0.42013 0.4731 0.76628 0.0
H3256 H 0.37976 0.41742 0.73844 0.0
H3257 H 0.36735 0.45338 0.79137 0.0
H3258 H 0.35904 0.47955 0.80815 0.0
H3259 H 0.30705 0.46577 0.77438 0.0
H3260 H 0.31517 0.43965 0.75724 0.0
H3261 H 0.33587 0.34076 0.77833 0.0
H3262 H 0.35308 0.37069 0.77241 0.0
H3263 H 0.30391 0.37995 0.74522 0.0
H3264 H 0.28633 0.34982 0.75129 0.0
H3265 H 0.32369 0.40958 0.77 0.0
H3266 H 0.33633 0.37024 0.71979 0.0
H3267 H 0.34562 0.34332 0.70596 0.0
H3268 H 0.39849 0.36274 0.73797 0.0
H3269 H 0.38948 0.38971 0.75209 0.0
C3270 C 0.38024 0.4819 0.74921 0.0
C3271 C 0.39884 0.48542 0.75612 0.0
C3272 C 0.36873 0.46418 0.74766 0.0
C3273 C 0.37552 0.44974 0.7534 0.0
C3274 C 0.39428 0.45313 0.75963 0.0
C3275 C 0.40585 0.47079 0.76091 0.0
C3276 C 0.36301 0.43132 0.75374 0.0
C3277 C 0.36755 0.41572 0.74542 0.0
C3278 C 0.34688 0.42904 0.76258 0.0
C3279 C 0.34195 0.4447 0.77289 0.0
C3280 C 0.3542 0.45602 0.78744 0.0
C3281 C 0.34952 0.47083 0.79702 0.0
C3282 C 0.33255 0.47435 0.79229 0.0
C3283 C 0.32021 0.46304 0.778 0.0
C3284 C 0.32484 0.44823 0.76835 0.0
C3285 C 0.32862 0.34908 0.77107 0.0
C3286 C 0.30966 0.34285 0.76529 0.0
C3287 C 0.33856 0.36617 0.76758 0.0
C3288 C 0.32985 0.37743 0.75812 0.0
C3289 C 0.31091 0.37139 0.75244 0.0
C3290 C 0.3009 0.35419 0.75591 0.0
C3291 C 0.34057 0.39575 0.75489 0.0
C3292 C 0.33571 0.41132 0.76272 0.0
C3293 C 0.35658 0.39797 0.74591 0.0
C3294 C 0.36219 0.38197 0.73706 0.0
C3295 C 0.34992 0.36875 0.72392 0.0
C3296 C 0.35515 0.35349 0.71601 0.0
C3297 C 0.37265 0.35132 0.72107 0.0
C3298 C 0.38497 0.36446 0.73401 0.0
C3299 C 0.37982 0.37976 0.74194 0.0
H3300 H 0.37666 0.33948 0.71496 0.0
H3301 H 0.32895 0.48582 0.79973 0.0
H3302 H 0.22271 0.59605 0.27898 0.0
H3303 H 0.23711 0.62899 0.28263 0.0
H3304 H 0.20481 0.63378 0.23289 0.0
H3305 H 0.19013 0.60078 0.22921 0.0
H3306 H 0.24313 0.65572 0.23835 0.0
H3307 H 0.18851 0.64263 0.26924 0.0
H3308 H 0.16876 0.62651 0.29038 0.0
H3309 H 0.21143 0.64787 0.33549 0.0
H3310 H 0.23156 0.66388 0.31453 0.0
H3311 H 0.24851 0.74999 0.25077 0.0
H3312 H 0.23687 0.71668 0.24562 0.0
H3313 H 0.25909 0.71358 0.30102 0.0
H3314 H 0.2702 0.74708 0.3065 0.0
H3315 H 0.22683 0.6903 0.29279 0.0
H3316 H 0.28124 0.70441 0.26303 0.0
H3317 H 0.3018 0.72024 0.24235 0.0
H3318 H 0.26117 0.69684 0.19589 0.0
H3319 H 0.24025 0.68107 0.21633 0.0
C3320 C 0.21894 0.60403 0.2686 0.0
C3321 C 0.20518 0.59593 0.2539 0.0
C3322 C 0.22715 0.62282 0.27074 0.0
C3323 C 0.22183 0.63373 0.25813 0.0
C3324 C 0.20904 0.6255 0.24274 0.0
C3325 C 0.20066 0.60671 0.24069 0.0
C3326 C 0.22832 0.65389 0.26199 0.0
C3327 C 0.23946 0.66336 0.25012 0.0
C3328 C 0.2238 0.66366 0.27761 0.0
C3329 C 0.21161 0.65429 0.29028 0.0
C3330 C 0.19373 0.64377 0.28364 0.0
C3331 C 0.18246 0.63467 0.29559 0.0
C3332 C 0.18885 0.63612 0.31425 0.0
C3333 C 0.20651 0.64673 0.32102 0.0
C3334 C 0.21785 0.65583 0.30911 0.0
C3335 C 0.25081 0.74222 0.26191 0.0
C3336 C 0.26038 0.75108 0.27899 0.0
C3337 C 0.24424 0.72318 0.25891 0.0
C3338 C 0.24752 0.71262 0.27278 0.0
C3339 C 0.25652 0.72148 0.29009 0.0
C3340 C 0.26285 0.74059 0.2932 0.0
C3341 C 0.24171 0.69232 0.26913 0.0
C3342 C 0.23063 0.68276 0.28104 0.0
C3343 C 0.24645 0.68247 0.25363 0.0
C3344 C 0.25912 0.69168 0.24124 0.0
C3345 C 0.27665 0.70272 0.24841 0.0
C3346 C 0.28837 0.71167 0.23673 0.0
C3347 C 0.28278 0.70958 0.21782 0.0
C3348 C 0.26547 0.69846 0.21054 0.0
C3349 C 0.25369 0.6895 0.22217 0.0
H3350 H 0.29186 0.71654 0.2088 0.0
H3351 H 0.18011 0.62905 0.32348 0.0
H3352 H 0.48068 0.71104 0.44642 0.0
H3353 H 0.48276 0.68231 0.45792 0.0
H3354 H 0.53259 0.71102 0.49263 0.0
H3355 H 0.53044 0.73984 0.48132 0.0
H3356 H 0.53584 0.67863 0.47357 0.0
H3357 H 0.49281 0.69707 0.51102 0.0
H3358 H 0.46459 0.70641 0.51665 0.0
H3359 H 0.43196 0.65576 0.48604 0.0
H3360 H 0.46001 0.64623 0.48001 0.0
H3361 H 0.54734 0.60896 0.52627 0.0
H3362 H 0.5428 0.63727 0.51615 0.0
H3363 H 0.48881 0.60828 0.48978 0.0
H3364 H 0.49308 0.57984 0.50057 0.0
H3365 H 0.48691 0.64042 0.50358 0.0
H3366 H 0.52813 0.62143 0.46539 0.0
H3367 H 0.55546 0.61128 0.45786 0.0
H3368 H 0.59036 0.66166 0.48684 0.0
H3369 H 0.56323 0.67201 0.49476 0.0
C3370 C 0.492 0.71131 0.45664 0.0
C3371 C 0.50534 0.72789 0.46297 0.0
C3372 C 0.49317 0.6948 0.46325 0.0
C3373 C 0.5078 0.69431 0.47628 0.0
C3374 C 0.52114 0.71088 0.48262 0.0
C3375 C 0.51985 0.72743 0.47619 0.0
C3376 C 0.50945 0.67656 0.48297 0.0
C3377 C 0.52524 0.67043 0.48037 0.0
C3378 C 0.49539 0.66533 0.49126 0.0
C3379 C 0.47852 0.67102 0.4949 0.0
C3380 C 0.47963 0.68799 0.50535 0.0
C3381 C 0.46366 0.69331 0.50864 0.0
C3382 C 0.4465 0.68171 0.50166 0.0
C3383 C 0.44527 0.66475 0.49141 0.0
C3384 C 0.46119 0.65937 0.48807 0.0
C3385 C 0.53443 0.60851 0.51837 0.0
C3386 C 0.52064 0.5919 0.51419 0.0
C3387 C 0.53188 0.62483 0.51242 0.0
C3388 C 0.51562 0.62511 0.50167 0.0
C3389 C 0.50157 0.60863 0.49791 0.0
C3390 C 0.50403 0.59228 0.50411 0.0
C3391 C 0.51345 0.64251 0.49437 0.0
C3392 C 0.49755 0.64857 0.49679 0.0
C3393 C 0.52728 0.65355 0.4856 0.0
C3394 C 0.54364 0.64742 0.48082 0.0
C3395 C 0.54163 0.63029 0.47027 0.0
C3396 C 0.55709 0.62451 0.46591 0.0
C3397 C 0.57463 0.6358 0.4719 0.0
C3398 C 0.57676 0.65292 0.48223 0.0
C3399 C 0.56135 0.65876 0.48664 0.0
H3400 H 0.58658 0.6313 0.46852 0.0
H3401 H 0.43415 0.68584 0.50422 0.0
H3402 H 0.62917 0.31423 0.62794 0.0
H3403 H 0.65759 0.31337 0.6463 0.0
H3404 H 0.62895 0.30724 0.69426 0.0
H3405 H 0.60073 0.3085 0.67612 0.0
H3406 H 0.66107 0.33031 0.70394 0.0
H3407 H 0.64002 0.27067 0.66784 0.0
H3408 H 0.63043 0.24879 0.63929 0.0
H3409 H 0.6829 0.26912 0.62086 0.0
H3410 H 0.69272 0.29126 0.6492 0.0
H3411 H 0.71983 0.29546 0.76231 0.0
H3412 H 0.6943 0.29892 0.74143 0.0
H3413 H 0.72955 0.3084 0.6987 0.0
H3414 H 0.75525 0.30487 0.71952 0.0
H3415 H 0.69617 0.28556 0.68494 0.0
H3416 H 0.7178 0.3439 0.72198 0.0
H3417 H 0.72752 0.36524 0.75089 0.0
H3418 H 0.67398 0.34705 0.76772 0.0
H3419 H 0.66402 0.32533 0.73907 0.0
C3420 C 0.62896 0.31279 0.64242 0.0
C3421 C 0.61262 0.31141 0.65052 0.0
C3422 C 0.64523 0.31218 0.65291 0.0
C3423 C 0.6455 0.30999 0.67172 0.0
C3424 C 0.62923 0.30893 0.67984 0.0
C3425 C 0.61303 0.30961 0.6694 0.0
C3426 C 0.66259 0.30874 0.68303 0.0
C3427 C 0.66858 0.32036 0.69983 0.0
C3428 C 0.67289 0.29618 0.67756 0.0
C3429 C 0.66701 0.28283 0.66053 0.0
C3430 C 0.64946 0.27059 0.65762 0.0
C3431 C 0.64399 0.25811 0.64149 0.0
C3432 C 0.65602 0.25762 0.62823 0.0
C3433 C 0.67357 0.26956 0.63111 0.0
C3434 C 0.6791 0.28208 0.64721 0.0
C3435 C 0.72223 0.29827 0.74848 0.0
C3436 C 0.73973 0.29998 0.74272 0.0
C3437 C 0.70757 0.30033 0.73653 0.0
C3438 C 0.70996 0.30419 0.71849 0.0
C3439 C 0.72731 0.30553 0.71254 0.0
C3440 C 0.74204 0.30356 0.72453 0.0
C3441 C 0.69433 0.30684 0.70598 0.0
C3442 C 0.68868 0.29556 0.68897 0.0
C3443 C 0.68431 0.31969 0.71125 0.0
C3444 C 0.6902 0.33287 0.72843 0.0
C3445 C 0.70813 0.34435 0.7319 0.0
C3446 C 0.71368 0.35653 0.74823 0.0
C3447 C 0.70138 0.35749 0.76113 0.0
C3448 C 0.68349 0.34628 0.75771 0.0
C3449 C 0.67788 0.33404 0.74143 0.0
H3450 H 0.70571 0.36693 0.77376 0.0
H3451 H 0.65176 0.24794 0.61576 0.0
H3452 H 0.99009 0.32525 0.97656 0.0
H3453 H 0.99259 0.35763 0.98759 0.0
H3454 H 0.0439 0.37337 0.96515 0.0
H3455 H 0.0413 0.34112 0.95383 0.0
H3456 H 0.04491 0.39229 1.0005 0.0
H3457 H 0.00713 0.37901 0.94223 0.0
H3458 H 0.98096 0.36173 0.91965 0.0
H3459 H 0.94348 0.37426 0.95642 0.0
H3460 H 0.96946 0.3914 0.97936 0.0
H3461 H 0.05574 0.48768 0.00326 0.0
H3462 H 0.05227 0.45517 0.99339 0.0
H3463 H 0.99647 0.443 0.00616 0.0
H3464 H 0.99963 0.47587 0.01515 0.0
H3465 H 0.9972 0.42158 0.97692 0.0
H3466 H 0.03539 0.43621 0.03503 0.0
H3467 H 0.06185 0.45398 0.05705 0.0
H3468 H 0.09876 0.43886 0.02095 0.0
H3469 H 0.07252 0.42128 0.99855 0.0
C3470 C 1.002 0.33558 0.97413 0.0
C3471 C 0.0155 0.33051 0.9643 0.0
C3472 C 1.00338 0.35414 0.98038 0.0
C3473 C 0.01841 0.36809 0.97716 0.0
C3474 C 0.03218 0.36297 0.96786 0.0
C3475 C 0.03065 0.34447 0.96136 0.0
C3476 C 0.01955 0.38802 0.98293 0.0
C3477 C 0.03455 0.39873 0.99523 0.0
C3478 C 0.0059 0.39648 0.9764 0.0
C3479 C 0.99024 0.3863 0.9626 0.0
C3480 C 0.9933 0.37794 0.94557 0.0
C3481 C 0.97851 0.3682 0.93269 0.0
C3482 C 0.96056 0.36684 0.93662 0.0
C3483 C 0.95739 0.37529 0.95341 0.0
C3484 C 0.97215 0.38503 0.96636 0.0
C3485 C 0.04267 0.47813 0.00393 0.0
C3486 C 0.028 0.4845 0.01015 0.0
C3487 C 0.04073 0.4594 0.99839 0.0
C3488 C 0.02425 0.44627 0.99947 0.0
C3489 C 0.00941 0.45265 0.00526 0.0
C3490 C 0.01122 0.47152 0.01044 0.0
C3491 C 0.0226 0.42602 0.99459 0.0
C3492 C 0.00751 0.4152 0.9824 0.0
C3493 C 0.03617 0.41744 1.00131 0.0
C3494 C 0.05197 0.42753 0.01504 0.0
C3495 C 0.04915 0.43672 0.03176 0.0
C3496 C 0.06411 0.44678 0.0443 0.0
C3497 C 0.08197 0.44758 0.04038 0.0
C3498 C 0.08491 0.43825 0.02396 0.0
C3499 C 0.07 0.42822 0.01134 0.0
H3500 H 0.09354 0.45542 0.05008 0.0
H3501 H 0.94912 0.35929 0.92663 0.0
H3502 H 0.99578 0.79049 0.12519 0.0
H3503 H 0.96894 0.78741 0.14208 0.0
H3504 H 1.00453 0.80662 0.19318 0.0
H3505 H 0.03135 0.80966 0.17642 0.0
H3506 H 0.97721 0.77703 0.19656 0.0
H3507 H 0.9821 0.83459 0.17292 0.0
H3508 H 0.98403 0.85502 0.14882 0.0
H3509 H 0.93162 0.82313 0.12173 0.0
H3510 H 0.92949 0.80235 0.14555 0.0
H3511 H 0.91345 0.79564 0.25554 0.0
H3512 H 0.93908 0.79859 0.2372 0.0
H3513 H 0.90116 0.7818 0.18742 0.0
H3514 H 0.87539 0.77886 0.20571 0.0
H3515 H 0.92898 0.80925 0.18242 0.0
H3516 H 0.92358 0.75197 0.20588 0.0
H3517 H 0.92139 0.73113 0.22962 0.0
H3518 H 0.9744 0.7617 0.25643 0.0
H3519 H 0.9768 0.78288 0.23298 0.0
C3520 C 0.99788 0.79405 0.14002 0.0
C3521 C 0.01572 0.80036 0.14944 0.0
C3522 C 0.98252 0.79236 0.14967 0.0
C3523 C 0.98466 0.79693 0.16893 0.0
C3524 C 1.00248 0.80301 0.17835 0.0
C3525 C 0.01782 0.80479 0.16872 0.0
C3526 C 0.96842 0.7953 0.17935 0.0
C3527 C 0.96679 0.78426 0.1936 0.0
C3528 C 0.9545 0.8043 0.17522 0.0
C3529 C 0.95573 0.8168 0.16091 0.0
C3530 C 0.97106 0.83184 0.16174 0.0
C3531 C 0.97218 0.8435 0.14815 0.0
C3532 C 0.95798 0.84034 0.13372 0.0
C3533 C 0.94262 0.82554 0.1329 0.0
C3534 C 0.94144 0.81383 0.14645 0.0
C3535 C 0.91052 0.79246 0.24069 0.0
C3536 C 0.89229 0.78685 0.23216 0.0
C3537 C 0.92523 0.79417 0.23019 0.0
C3538 C 0.92213 0.79012 0.21088 0.0
C3539 C 0.90396 0.78498 0.20228 0.0
C3540 C 0.88921 0.78334 0.21278 0.0
C3541 C 0.93784 0.79109 0.19975 0.0
C3542 C 0.93937 0.80198 0.18536 0.0
C3543 C 0.95164 0.78187 0.20368 0.0
C3544 C 0.95029 0.76911 0.21777 0.0
C3545 C 0.93471 0.75433 0.21691 0.0
C3546 C 0.93344 0.74244 0.2303 0.0
C3547 C 0.94773 0.74511 0.24455 0.0
C3548 C 0.96334 0.75966 0.2454 0.0
C3549 C 0.96466 0.7716 0.23205 0.0
H3550 H 0.94673 0.7359 0.2549 0.0
H3551 H 0.95887 0.84939 0.12321 0.0
H3552 H 0.51334 0.29177 0.12689 0.0
H3553 H 0.51653 0.31847 0.11035 0.0
H3554 H 0.52653 0.35404 0.16208 0.0
H3555 H 0.52381 0.32732 0.17872 0.0
H3556 H 0.49852 0.34313 0.10733 0.0
H3557 H 0.55462 0.3957 0.1578 0.0
H3558 H 0.58058 0.39622 0.18086 0.0
H3559 H 0.58626 0.34557 0.15292 0.0
H3560 H 0.56051 0.34488 0.12957 0.0
H3561 H 0.50665 0.43081 0.07811 0.0
H3562 H 0.50351 0.40608 0.09732 0.0
H3563 H 0.55679 0.39978 0.08653 0.0
H3564 H 0.56041 0.42506 0.06806 0.0
H3565 H 0.55318 0.39621 0.12097 0.0
H3566 H 0.51605 0.37047 0.06346 0.0
H3567 H 0.49188 0.36829 0.03787 0.0
H3568 H 0.45135 0.36226 0.07555 0.0
H3569 H 0.47533 0.36464 0.10141 0.0
C3570 C 0.51623 0.30528 0.13477 0.0
C3571 C 0.5184 0.3074 0.15415 0.0
C3572 C 0.518 0.32057 0.12527 0.0
C3573 C 0.52196 0.3384 0.13488 0.0
C3574 C 0.5238 0.34052 0.15428 0.0
C3575 C 0.52216 0.32521 0.1638 0.0
C3576 C 0.52421 0.35463 0.12453 0.0
C3577 C 0.51045 0.35475 0.1104 0.0
C3578 C 0.53988 0.36978 0.12822 0.0
C3579 C 0.5555 0.37014 0.14208 0.0
C3580 C 0.56145 0.38471 0.15656 0.0
C3581 C 0.57612 0.38503 0.16968 0.0
C3582 C 0.58502 0.3709 0.1684 0.0
C3583 C 0.57931 0.35646 0.15394 0.0
C3584 C 0.56466 0.35609 0.14078 0.0
C3585 C 0.51783 0.42436 0.08 0.0
C3586 C 0.53373 0.42993 0.07131 0.0
C3587 C 0.51593 0.41004 0.09088 0.0
C3588 C 0.52978 0.40076 0.0932 0.0
C3589 C 0.54585 0.4066 0.08494 0.0
C3590 C 0.5478 0.42097 0.07416 0.0
C3591 C 0.52744 0.38474 0.10385 0.0
C3592 C 0.54117 0.38466 0.11802 0.0
C3593 C 0.51196 0.36942 0.0999 0.0
C3594 C 0.49751 0.36792 0.08438 0.0
C3595 C 0.502 0.36881 0.0663 0.0
C3596 C 0.48833 0.36752 0.05175 0.0
C3597 C 0.4701 0.36519 0.05509 0.0
C3598 C 0.46548 0.36409 0.07299 0.0
C3599 C 0.4791 0.3654 0.08759 0.0
H3600 H 0.45954 0.36419 0.04381 0.0
H3601 H 0.59636 0.37116 0.17858 0.0
H3602 H 0.99501 0.3195 0.31534 0.0
H3603 H 0.96295 0.31738 0.30393 0.0
H3604 H 0.94499 0.28832 0.349 0.0
H3605 H 0.97681 0.29021 0.36025 0.0
H3606 H 0.9229 0.2728 0.31885 0.0
H3607 H 0.94659 0.3345 0.34872 0.0
H3608 H 0.96792 0.36535 0.35485 0.0
H3609 H 0.95452 0.37441 0.29919 0.0
H3610 H 0.93327 0.3435 0.29265 0.0
H3611 H 0.83153 0.28133 0.31477 0.0
H3612 H 0.86384 0.28379 0.32439 0.0
H3613 H 0.879 0.31423 0.27941 0.0
H3614 H 0.84665 0.31239 0.27012 0.0
H3615 H 0.90275 0.32877 0.30825 0.0
H3616 H 0.87748 0.2661 0.27945 0.0
H3617 H 0.85532 0.23572 0.27533 0.0
H3618 H 0.87119 0.22879 0.33114 0.0
H3619 H 0.89333 0.25917 0.33563 0.0
C3620 C 0.98422 0.31256 0.32273 0.0
C3621 C 0.98858 0.30505 0.33874 0.0
C3622 C 0.96584 0.31144 0.31626 0.0
C3623 C 0.95136 0.30284 0.32566 0.0
C3624 C 0.95575 0.29502 0.34141 0.0
C3625 C 0.97405 0.29616 0.34788 0.0
C3626 C 0.93169 0.30211 0.31938 0.0
C3627 C 0.91852 0.28509 0.31667 0.0
C3628 C 0.92577 0.31802 0.31625 0.0
C3629 C 0.9385 0.33661 0.32014 0.0
C3630 C 0.9483 0.34302 0.33774 0.0
C3631 C 0.96036 0.36052 0.3413 0.0
C3632 C 0.96261 0.37181 0.32741 0.0
C3633 C 0.95278 0.36564 0.30993 0.0
C3634 C 0.94072 0.34813 0.30629 0.0
C3635 C 0.8417 0.28863 0.30693 0.0
C3636 C 0.83634 0.2966 0.29159 0.0
C3637 C 0.86028 0.28991 0.31238 0.0
C3638 C 0.87407 0.29883 0.30243 0.0
C3639 C 0.86877 0.30718 0.28735 0.0
C3640 C 0.85018 0.30611 0.28202 0.0
C3641 C 0.89393 0.29945 0.3077 0.0
C3642 C 0.90714 0.31645 0.31024 0.0
C3643 C 0.89987 0.28352 0.31084 0.0
C3644 C 0.88698 0.26498 0.30791 0.0
C3645 C 0.87622 0.2581 0.29084 0.0
C3646 C 0.86367 0.24086 0.28844 0.0
C3647 C 0.86185 0.23032 0.30297 0.0
C3648 C 0.87264 0.23695 0.31989 0.0
C3649 C 0.88522 0.25416 0.32236 0.0
H3650 H 0.85209 0.21703 0.30116 0.0
H3651 H 0.97195 0.38536 0.33019 0.0
H3652 H 1.00007 0.71853 0.62379 0.0
H3653 H 0.99967 0.68977 0.60492 0.0
H3654 H 0.01235 0.6665 0.65395 0.0
H3655 H 0.01269 0.69526 0.67293 0.0
H3656 H 0.03423 0.66052 0.62718 0.0
H3657 H 0.96992 0.65249 0.63073 0.0
H3658 H 0.94056 0.66115 0.62804 0.0
H3659 H 0.94315 0.66371 0.57025 0.0
H3660 H 0.97267 0.65531 0.57265 0.0
H3661 H 0.02276 0.57021 0.58129 0.0
H3662 H 0.02032 0.59674 0.60199 0.0
H3663 H 0.99987 0.6195 0.55561 0.0
H3664 H 1.00161 0.59267 0.53496 0.0
H3665 H 0.9814 0.62517 0.58227 0.0
H3666 H 0.04591 0.63514 0.57832 0.0
H3667 H 0.07576 0.62743 0.58031 0.0
H3668 H 0.07355 0.62241 0.63773 0.0
H3669 H 0.04356 0.62987 0.63603 0.0
C3670 C 1.00257 0.70723 0.63059 0.0
C3671 C 0.00633 0.70921 0.64991 0.0
C3672 C 1.00232 0.69075 0.61976 0.0
C3673 C 0.0059 0.67585 0.62796 0.0
C3674 C 0.00954 0.67775 0.64726 0.0
C3675 C 0.00962 0.69419 0.65812 0.0
C3676 C 0.00637 0.65854 0.61635 0.0
C3677 C 0.02257 0.65263 0.61757 0.0
C3678 C 0.99137 0.64844 0.60341 0.0
C3679 C 0.97359 0.65344 0.60191 0.0
C3680 C 0.96431 0.65505 0.61748 0.0
C3681 C 0.94762 0.65988 0.616 0.0
C3682 C 0.94002 0.66302 0.599 0.0
C3683 C 0.94906 0.66129 0.58342 0.0
C3684 C 0.96576 0.65648 0.58483 0.0
C3685 C 0.01773 0.58085 0.57547 0.0
C3686 C 0.01246 0.57927 0.55638 0.0
C3687 C 0.01643 0.59613 0.58736 0.0
C3688 C 0.0102 0.61045 0.58044 0.0
C3689 C 0.00474 0.60875 0.5614 0.0
C3690 C 0.00579 0.59337 0.54955 0.0
C3691 C 0.00935 0.62716 0.59294 0.0
C3692 C 0.99307 0.63299 0.5919 0.0
C3693 C 0.02436 0.6373 0.60592 0.0
C3694 C 0.04241 0.63289 0.607 0.0
C3695 C 0.05174 0.63227 0.59134 0.0
C3696 C 0.06869 0.62796 0.59242 0.0
C3697 C 0.07652 0.62438 0.60913 0.0
C3698 C 0.06745 0.62516 0.6248 0.0
C3699 C 0.05048 0.62944 0.62379 0.0
H3700 H 0.08965 0.62105 0.60993 0.0
H3701 H 0.9271 0.66676 0.59788 0.0
H3702 H 0.61027 0.82962 0.86273 0.0
H3703 H 0.63881 0.82723 0.85077 0.0
H3704 H 0.60788 0.78947 0.80424 0.0
H3705 H 0.5792 0.79165 0.81635 0.0
H3706 H 0.63598 0.77727 0.81671 0.0
H3707 H 0.63024 0.83544 0.80087 0.0
H3708 H 0.62621 0.86679 0.80636 0.0
H3709 H 0.67528 0.88314 0.84475 0.0
H3710 H 0.67948 0.8518 0.83969 0.0
H3711 H 0.7118 0.77841 0.76553 0.0
H3712 H 0.68285 0.78189 0.77574 0.0
H3713 H 0.71253 0.8201 0.82251 0.0
H3714 H 0.74158 0.81692 0.8122 0.0
H3715 H 0.68479 0.83211 0.80929 0.0
H3716 H 0.69025 0.77403 0.82575 0.0
H3717 H 0.69449 0.74273 0.82043 0.0
H3718 H 0.64608 0.72629 0.78115 0.0
H3719 H 0.64169 0.75757 0.78604 0.0
C3720 C 0.60948 0.82089 0.84987 0.0
C3721 C 0.5923 0.81092 0.84049 0.0
C3722 C 0.62591 0.81958 0.84296 0.0
C3723 C 0.62575 0.80833 0.82638 0.0
C3724 C 0.60857 0.7983 0.81701 0.0
C3725 C 0.59211 0.79963 0.82392 0.0
C3726 C 0.64342 0.80677 0.81906 0.0
C3727 C 0.64649 0.7893 0.81483 0.0
C3728 C 0.65756 0.82236 0.81695 0.0
C3729 C 0.65507 0.84122 0.82003 0.0
C3730 C 0.64009 0.84568 0.8106 0.0
C3731 C 0.63779 0.86346 0.81361 0.0
C3732 C 0.65045 0.87694 0.82593 0.0
C3733 C 0.66547 0.87268 0.83523 0.0
C3734 C 0.66783 0.85491 0.83228 0.0
C3735 C 0.71225 0.78764 0.77797 0.0
C3736 C 0.72922 0.79733 0.78801 0.0
C3737 C 0.69556 0.78953 0.78389 0.0
C3738 C 0.69524 0.80106 0.80015 0.0
C3739 C 0.71219 0.81106 0.80997 0.0
C3740 C 0.72889 0.80919 0.80404 0.0
C3741 C 0.67736 0.80262 0.80695 0.0
C3742 C 0.67425 0.82009 0.81112 0.0
C3743 C 0.6632 0.78703 0.80904 0.0
C3744 C 0.66575 0.76819 0.80613 0.0
C3745 C 0.68058 0.76377 0.81588 0.0
C3746 C 0.683 0.74603 0.81296 0.0
C3747 C 0.67059 0.73254 0.80042 0.0
C3748 C 0.6557 0.73676 0.79083 0.0
C3749 C 0.65323 0.75449 0.79368 0.0
H3750 H 0.67248 0.71882 0.79818 0.0
H3751 H 0.64865 0.89069 0.82825 0.0
H3752 H 0.42989 0.53383 0.70178 0.0
H3753 H 0.44291 0.53577 0.67264 0.0
H3754 H 0.49726 0.55543 0.70217 0.0
H3755 H 0.48425 0.55335 0.73158 0.0
H3756 H 0.48997 0.57568 0.67269 0.0
H3757 H 0.48518 0.51314 0.68285 0.0
H3758 H 0.46931 0.48255 0.68974 0.0
H3759 H 0.43035 0.47564 0.64168 0.0
H3760 H 0.44583 0.50632 0.63465 0.0
H3761 H 0.5365 0.56557 0.59359 0.0
H3762 H 0.52555 0.56556 0.62384 0.0
H3763 H 0.47182 0.53428 0.59859 0.0
H3764 H 0.48292 0.53362 0.56841 0.0
H3765 H 0.48004 0.52006 0.62701 0.0
H3766 H 0.48284 0.58199 0.61686 0.0
H3767 H 0.497 0.61296 0.60966 0.0
H3768 H 0.53745 0.62168 0.65678 0.0
H3769 H 0.52366 0.59065 0.66414 0.0
C3770 C 0.44463 0.53857 0.70212 0.0
C3771 C 0.45605 0.54339 0.71901 0.0
C3772 C 0.45205 0.53963 0.68543 0.0
C3773 C 0.47107 0.54564 0.6852 0.0
C3774 C 0.48254 0.55074 0.70203 0.0
C3775 C 0.47511 0.54948 0.7188 0.0
C3776 C 0.4788 0.54643 0.66731 0.0
C3777 C 0.48808 0.5635 0.66279 0.0
C3778 C 0.47584 0.53061 0.65418 0.0
C3779 C 0.46658 0.5121 0.65832 0.0
C3780 C 0.47314 0.50516 0.67383 0.0
C3781 C 0.46423 0.48779 0.67775 0.0
C3782 C 0.44881 0.47717 0.66618 0.0
C3783 C 0.44229 0.48388 0.65064 0.0
C3784 C 0.45114 0.50126 0.64668 0.0
C3785 C 0.52228 0.55889 0.59444 0.0
C3786 C 0.51058 0.54962 0.57854 0.0
C3787 C 0.516 0.55893 0.61179 0.0
C3788 C 0.49775 0.55008 0.61361 0.0
C3789 C 0.48596 0.54117 0.59766 0.0
C3790 C 0.49231 0.54086 0.58035 0.0
C3791 C 0.49111 0.54941 0.63214 0.0
C3792 C 0.48202 0.53231 0.63684 0.0
C3793 C 0.49403 0.56526 0.64531 0.0
C3794 C 0.50233 0.58393 0.64094 0.0
C3795 C 0.49484 0.59046 0.62561 0.0
C3796 C 0.50278 0.60803 0.62151 0.0
C3797 C 0.51815 0.61926 0.63273 0.0
C3798 C 0.52557 0.61295 0.64809 0.0
C3799 C 0.51768 0.59538 0.65224 0.0
H3800 H 0.52428 0.63286 0.62953 0.0
H3801 H 0.44193 0.46372 0.66923 0.0
H3802 H 0.75269 0.15886 0.98994 0.0
H3803 H 0.74963 0.17903 0.96674 0.0
H3804 H 0.80266 0.21474 0.98837 0.0
H3805 H 0.8058 0.1946 0.01178 0.0
H3806 H 0.77623 0.23363 0.98205 0.0
H3807 H 0.79906 0.18759 0.94945 0.0
H3808 H 0.80017 0.15614 0.9381 0.0
H3809 H 0.7463 0.14582 0.90868 0.0
H3810 H 0.74475 0.17714 0.92008 0.0
H3811 H 0.7868 0.28244 0.90375 0.0
H3812 H 0.79044 0.26468 0.92912 0.0
H3813 H 0.73749 0.22753 0.91008 0.0
H3814 H 0.73386 0.24507 0.88454 0.0
H3815 H 0.76507 0.20996 0.91534 0.0
H3816 H 0.74227 0.25613 0.94836 0.0
H3817 H 0.7414 0.28765 0.95977 0.0
H3818 H 0.79568 0.29791 0.98825 0.0
H3819 H 0.79697 0.26651 0.97679 0.0
C3820 C 0.76373 0.17097 0.98972 0.0
C3821 C 0.77951 0.17516 0.00259 0.0
C3822 C 0.76198 0.18244 0.97645 0.0
C3823 C 0.77599 0.19825 0.9758 0.0
C3824 C 0.79173 0.20256 0.98869 0.0
C3825 C 0.79353 0.19103 0.00196 0.0
C3826 C 0.77402 0.21032 0.96168 0.0
C3827 C 0.77408 0.22858 0.96744 0.0
C3828 C 0.77084 0.20352 0.94269 0.0
C3829 C 0.77173 0.18467 0.93577 0.0
C3830 C 0.78739 0.17857 0.94069 0.0
C3831 C 0.78811 0.16077 0.93422 0.0
C3832 C 0.7733 0.14897 0.92271 0.0
C3833 C 0.75775 0.15497 0.91761 0.0
C3834 C 0.75695 0.17275 0.92406 0.0
C3835 C 0.77587 0.27058 0.9051 0.0
C3836 C 0.76006 0.26508 0.8922 0.0
C3837 C 0.77792 0.26053 0.91963 0.0
C3838 C 0.7642 0.24486 0.92144 0.0
C3839 C 0.74819 0.23963 0.90887 0.0
C3840 C 0.74609 0.24972 0.89441 0.0
C3841 C 0.76707 0.23322 0.93571 0.0
C3842 C 0.76725 0.21504 0.92995 0.0
C3843 C 0.77051 0.24012 0.95467 0.0
C3844 C 0.76979 0.25903 0.96155 0.0
C3845 C 0.75409 0.26516 0.95691 0.0
C3846 C 0.75351 0.28299 0.96342 0.0
C3847 C 0.7685 0.29479 0.97468 0.0
C3848 C 0.78409 0.28877 0.9795 0.0
C3849 C 0.78475 0.27095 0.97301 0.0
H3850 H 0.76801 0.30859 0.97972 0.0
H3851 H 0.77389 0.1352 0.91771 0.0
H3852 H 0.11596 0.54138 0.21787 0.0
H3853 H 0.09469 0.53151 0.1896 0.0
H3854 H 0.12772 0.49653 0.16917 0.0
H3855 H 0.14921 0.5065 0.19748 0.0
H3856 H 0.12036 0.51846 0.14462 0.0
H3857 H 0.08568 0.47736 0.18042 0.0
H3858 H 0.07078 0.46777 0.20749 0.0
H3859 H 0.03546 0.5036 0.20017 0.0
H3860 H 0.05032 0.51363 0.17322 0.0
H3861 H 0.06126 0.50133 0.06327 0.0
H3862 H 0.07486 0.49204 0.091 0.0
H3863 H 0.04924 0.5264 0.1247 0.0
H3864 H 0.03487 0.5349 0.09683 0.0
H3865 H 0.05262 0.49734 0.14123 0.0
H3866 H 0.09205 0.54336 0.1111 0.0
H3867 H 0.10726 0.55464 0.08474 0.0
H3868 H 0.1339 0.51068 0.08223 0.0
H3869 H 0.11865 0.49901 0.10847 0.0
C3870 C 0.1186 0.53145 0.20744 0.0
C3871 C 0.13427 0.52478 0.20979 0.0
C3872 C 0.10635 0.5257 0.19137 0.0
C3873 C 0.10952 0.51311 0.17741 0.0
C3874 C 0.12499 0.50616 0.17986 0.0
C3875 C 0.13725 0.51189 0.19598 0.0
C3876 C 0.09756 0.5087 0.15964 0.0
C3877 C 0.10558 0.51334 0.14377 0.0
C3878 C 0.07827 0.50237 0.15866 0.0
C3879 C 0.0692 0.49631 0.17482 0.0
C3880 C 0.07482 0.4833 0.18465 0.0
C3881 C 0.06637 0.47777 0.19997 0.0
C3882 C 0.0522 0.48509 0.20556 0.0
C3883 C 0.04643 0.49794 0.19582 0.0
C3884 C 0.05485 0.50352 0.1805 0.0
C3885 C 0.05809 0.50634 0.07663 0.0
C3886 C 0.04722 0.51885 0.07817 0.0
C3887 C 0.06587 0.5011 0.09241 0.0
C3888 C 0.06343 0.50891 0.10989 0.0
C3889 C 0.05133 0.52026 0.11134 0.0
C3890 C 0.04318 0.52516 0.09549 0.0
C3891 C 0.07542 0.50756 0.12643 0.0
C3892 C 0.06743 0.50192 0.14202 0.0
C3893 C 0.09477 0.51314 0.12725 0.0
C3894 C 0.10411 0.52024 0.11163 0.0
C3895 C 0.1011 0.53607 0.10487 0.0
C3896 C 0.10973 0.54253 0.08998 0.0
C3897 C 0.12157 0.53341 0.08186 0.0
C3898 C 0.12476 0.51776 0.08858 0.0
C3899 C 0.11613 0.51121 0.10346 0.0
H3900 H 0.1283 0.53849 0.07039 0.0
H3901 H 0.04568 0.48079 0.21743 0.0
H3902 H 0.78562 0.83263 0.48912 0.0
H3903 H 0.78658 0.81853 0.45771 0.0
H3904 H 0.77138 0.86413 0.43596 0.0
H3905 H 0.76999 0.87795 0.46711 0.0
H3906 H 0.75335 0.83374 0.41552 0.0
H3907 H 0.81654 0.85982 0.44059 0.0
H3908 H 0.84409 0.86428 0.46291 0.0
H3909 H 0.84222 0.80706 0.4515 0.0
H3910 H 0.8145 0.80223 0.42927 0.0
H3911 H 0.77916 0.83017 0.32696 0.0
H3912 H 0.77887 0.83925 0.35968 0.0
H3913 H 0.79181 0.78912 0.37193 0.0
H3914 H 0.79271 0.78015 0.33895 0.0
H3915 H 0.80978 0.81793 0.39767 0.0
H3916 H 0.74744 0.79339 0.36968 0.0
H3917 H 0.72173 0.79114 0.34576 0.0
H3918 H 0.72299 0.84757 0.3621 0.0
H3919 H 0.74893 0.85025 0.38594 0.0
C3920 C 0.78235 0.83955 0.47761 0.0
C3921 C 0.77775 0.85642 0.48062 0.0
C3922 C 0.78301 0.83154 0.45966 0.0
C3923 C 0.77928 0.84036 0.44439 0.0
C3924 C 0.77432 0.85701 0.44743 0.0
C3925 C 0.77356 0.86494 0.4653 0.0
C3926 C 0.78067 0.83254 0.42522 0.0
C3927 C 0.76575 0.83039 0.41165 0.0
C3928 C 0.79667 0.82774 0.42011 0.0
C3929 C 0.81333 0.83062 0.43344 0.0
C3930 C 0.82192 0.84817 0.44295 0.0
C3931 C 0.83758 0.85076 0.45557 0.0
C3932 C 0.84486 0.83595 0.45867 0.0
C3933 C 0.83653 0.81852 0.44912 0.0
C3934 C 0.82086 0.81584 0.43651 0.0
C3935 C 0.78208 0.82109 0.33658 0.0
C3936 C 0.78576 0.80432 0.33031 0.0
C3937 C 0.78184 0.82628 0.35533 0.0
C3938 C 0.78484 0.81466 0.36828 0.0
C3939 C 0.78931 0.79825 0.36219 0.0
C3940 C 0.78982 0.79314 0.34335 0.0
C3941 C 0.78261 0.81952 0.38799 0.0
C3942 C 0.79732 0.82105 0.40163 0.0
C3943 C 0.76647 0.82392 0.39318 0.0
C3944 C 0.75021 0.82204 0.37952 0.0
C3945 C 0.74224 0.80532 0.36816 0.0
C3946 C 0.72764 0.80399 0.35459 0.0
C3947 C 0.72078 0.81923 0.35234 0.0
C3948 C 0.72835 0.83578 0.36382 0.0
C3949 C 0.74298 0.83721 0.37739 0.0
H3950 H 0.7096 0.81825 0.34171 0.0
H3951 H 0.85699 0.83799 0.46844 0.0
H3952 H 0.44372 0.51139 0.82282 0.0
H3953 H 0.45738 0.51093 0.85402 0.0
H3954 H 0.4892 0.56679 0.85561 0.0
H3955 H 0.47592 0.56707 0.82392 0.0
H3956 H 0.50955 0.5482 0.8717 0.0
H3957 H 0.4495 0.55541 0.87756 0.0
H3958 H 0.41584 0.5484 0.87111 0.0
H3959 H 0.41099 0.4955 0.88898 0.0
H3960 H 0.44466 0.50208 0.89529 0.0
H3961 H 0.52839 0.56591 0.96997 0.0
H3962 H 0.51772 0.56578 0.93761 0.0
H3963 H 0.49146 0.50795 0.933 0.0
H3964 H 0.50213 0.50794 0.96551 0.0
H3965 H 0.46868 0.52791 0.91866 0.0
H3966 H 0.53013 0.52251 0.91366 0.0
H3967 H 0.5638 0.53152 0.92093 0.0
H3968 H 0.56581 0.58383 0.90265 0.0
H3969 H 0.53213 0.57525 0.89553 0.0
C3970 C 0.45367 0.52358 0.82976 0.0
C3971 C 0.45864 0.53932 0.82092 0.0
C3972 C 0.46142 0.52333 0.84769 0.0
C3973 C 0.47407 0.53895 0.85744 0.0
C3974 C 0.47942 0.55458 0.84847 0.0
C3975 C 0.4718 0.55475 0.83037 0.0
C3976 C 0.4815 0.53892 0.87698 0.0
C3977 C 0.50058 0.544 0.88201 0.0
C3978 C 0.46988 0.53319 0.8905 0.0
C3979 C 0.44962 0.52917 0.88672 0.0
C3980 C 0.44127 0.54222 0.87997 0.0
C3981 C 0.42218 0.53833 0.87636 0.0
C3982 C 0.41128 0.52149 0.87958 0.0
C3983 C 0.41945 0.50852 0.88646 0.0
C3984 C 0.43853 0.51233 0.89007 0.0
C3985 C 0.52048 0.55309 0.96208 0.0
C3986 C 0.51615 0.53691 0.97039 0.0
C3987 C 0.51444 0.55304 0.94352 0.0
C3988 C 0.50388 0.53684 0.9328 0.0
C3989 C 0.49963 0.52062 0.94098 0.0
C3990 C 0.50581 0.52061 0.95955 0.0
C3991 C 0.49668 0.53703 0.91328 0.0
C3992 C 0.47763 0.53205 0.90831 0.0
C3993 C 0.50831 0.54313 0.89994 0.0
C3994 C 0.52858 0.54829 0.9042 0.0
C3995 C 0.53774 0.53599 0.91133 0.0
C3996 C 0.55683 0.54101 0.9154 0.0
C3997 C 0.56693 0.55824 0.91227 0.0
C3998 C 0.55797 0.57049 0.90507 0.0
C3999 C 0.53888 0.56555 0.90101 0.0
H4000 H 0.5817 0.56208 0.91536 0.0
H4001 H 0.39651 0.51851 0.87678 0.0
H4002 H 0.7799 0.19541 0.08318 0.0
H4003 H 0.78715 0.2168 0.11159 0.0
H4004 H 0.82394 0.18679 0.13357 0.0
H4005 H 0.81658 0.16509 0.10502 0.0
H4006 H 0.80043 0.19329 0.15748 0.0
H4007 H 0.84145 0.22885 0.12231 0.0
H4008 H 0.85155 0.24342 0.09531 0.0
H4009 H 0.81295 0.27625 0.10018 0.0
H4010 H 0.8024 0.26168 0.12704 0.0
H4011 H 0.81758 0.25669 0.23758 0.0
H4012 H 0.82511 0.24118 0.20967 0.0
H4013 H 0.78756 0.263 0.17668 0.0
H4014 H 0.7803 0.27904 0.20463 0.0
H4015 H 0.81783 0.26108 0.15966 0.0
H4016 H 0.77342 0.22115 0.19093 0.0
H4017 H 0.76305 0.2066 0.21789 0.0
H4018 H 0.80842 0.18196 0.2201 0.0
H4019 H 0.8192 0.19657 0.19327 0.0
C4020 C 0.78964 0.19342 0.09399 0.0
C4021 C 0.79765 0.17857 0.09195 0.0
C4022 C 0.79389 0.20574 0.11016 0.0
C4023 C 0.80628 0.20352 0.12456 0.0
C4024 C 0.81444 0.18879 0.12253 0.0
C4025 C 0.81022 0.17643 0.10627 0.0
C4026 C 0.80946 0.21587 0.14215 0.0
C4027 C 0.8047 0.20811 0.15807 0.0
C4028 C 0.81473 0.23519 0.14279 0.0
C4029 C 0.82106 0.24407 0.12666 0.0
C4030 C 0.83501 0.23908 0.11755 0.0
C4031 C 0.84084 0.24736 0.10228 0.0
C4032 C 0.83288 0.26074 0.09602 0.0
C4033 C 0.8191 0.26589 0.10504 0.0
C4034 C 0.81321 0.25764 0.12032 0.0
C4035 C 0.81113 0.25842 0.22435 0.0
C4036 C 0.79809 0.26878 0.22323 0.0
C4037 C 0.81548 0.24958 0.20844 0.0
C4038 C 0.80659 0.25063 0.19119 0.0
C4039 C 0.79451 0.26198 0.18991 0.0
C4040 C 0.79032 0.27107 0.20586 0.0
C4041 C 0.80836 0.23847 0.17475 0.0
C4042 C 0.81399 0.24626 0.15911 0.0
C4043 C 0.80388 0.21915 0.17432 0.0
C4044 C 0.79719 0.21007 0.1902 0.0
C4045 C 0.78122 0.21268 0.19722 0.0
C4046 C 0.77527 0.20443 0.21246 0.0
C4047 C 0.78505 0.19335 0.22068 0.0
C4048 C 0.80083 0.19051 0.21368 0.0
C4049 C 0.80687 0.19877 0.19846 0.0
H4050 H 0.78042 0.18696 0.23248 0.0
H4051 H 0.83741 0.26713 0.08419 0.0
H4052 H 0.11683 0.53753 0.28717 0.0
H4053 H 0.09964 0.54451 0.31245 0.0
H4054 H 0.14977 0.57717 0.34429 0.0
H4055 H 0.16705 0.57049 0.31893 0.0
H4056 H 0.12658 0.55053 0.36305 0.0
H4057 H 0.12381 0.59954 0.32767 0.0
H4058 H 0.1181 0.61296 0.2993 0.0
H4059 H 0.06152 0.58286 0.29291 0.0
H4060 H 0.06696 0.56902 0.3211 0.0
H4061 H 0.08203 0.58602 0.43405 0.0
H4062 H 0.10166 0.5849 0.40949 0.0
H4063 H 0.05421 0.55695 0.37094 0.0
H4064 H 0.03459 0.55758 0.3955 0.0
H4065 H 0.07782 0.58357 0.35616 0.0
H4066 H 0.07998 0.53297 0.38903 0.0
H4067 H 0.08519 0.5157 0.41466 0.0
H4068 H 0.14185 0.54569 0.42409 0.0
H4069 H 0.13687 0.56348 0.39875 0.0
C4070 C 0.12418 0.54618 0.29956 0.0
C4071 C 0.14325 0.55346 0.30115 0.0
C4072 C 0.11435 0.55023 0.31391 0.0
C4073 C 0.12348 0.56145 0.33009 0.0
C4074 C 0.14255 0.56853 0.33183 0.0
C4075 C 0.15235 0.56471 0.31738 0.0
C4076 C 0.11308 0.56533 0.34538 0.0
C4077 C 0.11618 0.55811 0.36177 0.0
C4078 C 0.0992 0.57471 0.3433 0.0
C4079 C 0.09584 0.58312 0.32642 0.0
C4080 C 0.11019 0.59566 0.32013 0.0
C4081 C 0.10699 0.60337 0.3041 0.0
C4082 C 0.08947 0.59873 0.29429 0.0
C4083 C 0.07509 0.58642 0.30052 0.0
C4084 C 0.07822 0.57865 0.31654 0.0
C4085 C 0.07581 0.57963 0.42033 0.0
C4086 C 0.05682 0.5717 0.41673 0.0
C4087 C 0.08701 0.57906 0.40633 0.0
C4088 C 0.07938 0.57064 0.38849 0.0
C4089 C 0.06034 0.56349 0.38464 0.0
C4090 C 0.04914 0.56395 0.39866 0.0
C4091 C 0.09127 0.56873 0.37393 0.0
C4092 C 0.08842 0.57627 0.35763 0.0
C4093 C 0.10528 0.55943 0.37601 0.0
C4094 C 0.108 0.54971 0.39211 0.0
C4095 C 0.09348 0.53611 0.39676 0.0
C4096 C 0.09643 0.52613 0.41115 0.0
C4097 C 0.11389 0.52946 0.42087 0.0
C4098 C 0.12836 0.54303 0.41645 0.0
C4099 C 0.12547 0.55311 0.40212 0.0
H4100 H 0.11619 0.52163 0.43192 0.0
H4101 H 0.08702 0.60472 0.28187 0.0
H4102 H 0.76458 0.83609 0.57333 0.0
H4103 H 0.76273 0.82514 0.60347 0.0
H4104 H 0.78974 0.87978 0.63025 0.0
H4105 H 0.79201 0.89064 0.60024 0.0
H4106 H 0.80347 0.85604 0.64619 0.0
H4107 H 0.74263 0.86118 0.62869 0.0
H4108 H 0.71347 0.85572 0.60854 0.0
H4109 H 0.70364 0.79774 0.61039 0.0
H4110 H 0.73289 0.80284 0.63036 0.0
H4111 H 0.78342 0.83898 0.73667 0.0
H4112 H 0.78316 0.85153 0.70727 0.0
H4113 H 0.76109 0.79693 0.67818 0.0
H4114 H 0.76124 0.78431 0.70734 0.0
H4115 H 0.74447 0.82161 0.66405 0.0
H4116 H 0.80593 0.81679 0.68094 0.0
H4117 H 0.83485 0.82256 0.70156 0.0
H4118 H 0.84317 0.88061 0.70122 0.0
H4119 H 0.81413 0.8752 0.68081 0.0
C4120 C 0.77013 0.84574 0.58565 0.0
C4121 C 0.77841 0.86423 0.58439 0.0
C4122 C 0.76898 0.8395 0.6029 0.0
C4123 C 0.77588 0.85168 0.61922 0.0
C4124 C 0.7843 0.8701 0.61792 0.0
C4125 C 0.78555 0.87631 0.60072 0.0
C4126 C 0.77449 0.84528 0.63766 0.0
C4127 C 0.7905 0.84875 0.65016 0.0
C4128 C 0.75765 0.83549 0.64284 0.0
C4129 C 0.74004 0.83238 0.63088 0.0
C4130 C 0.73432 0.84726 0.62469 0.0
C4131 C 0.71776 0.84423 0.61332 0.0
C4132 C 0.70673 0.82639 0.60815 0.0
C4133 C 0.71222 0.81155 0.61438 0.0
C4134 C 0.72877 0.8145 0.62574 0.0
C4135 C 0.77832 0.82967 0.72403 0.0
C4136 C 0.77246 0.81062 0.72438 0.0
C4137 C 0.77826 0.83686 0.70723 0.0
C4138 C 0.77229 0.82514 0.69049 0.0
C4139 C 0.76578 0.80623 0.69089 0.0
C4140 C 0.76596 0.79904 0.70761 0.0
C4141 C 0.77342 0.83237 0.67247 0.0
C4142 C 0.75739 0.82901 0.66007 0.0
C4143 C 0.79021 0.84233 0.6674 0.0
C4144 C 0.80776 0.8456 0.67951 0.0
C4145 C 0.81386 0.83079 0.68537 0.0
C4146 C 0.83028 0.83399 0.69701 0.0
C4147 C 0.84081 0.85194 0.70274 0.0
C4148 C 0.83497 0.86672 0.6968 0.0
C4149 C 0.81854 0.86359 0.68519 0.0
H4150 H 0.85352 0.85439 0.71175 0.0
H4151 H 0.69392 0.82408 0.59935 0.0
H4152 H 0.72426 0.43191 0.55197 0.0
H4153 H 0.70983 0.45639 0.5617 0.0
H4154 H 0.71476 0.47582 0.50887 0.0
H4155 H 0.72907 0.45134 0.49899 0.0
H4156 H 0.72645 0.50384 0.5391 0.0
H4157 H 0.67496 0.45247 0.51622 0.0
H4158 H 0.6558 0.42079 0.51423 0.0
H4159 H 0.64832 0.43011 0.57132 0.0
H4160 H 0.66768 0.46179 0.57372 0.0
H4161 H 0.66025 0.55499 0.53001 0.0
H4162 H 0.68155 0.5355 0.52862 0.0
H4163 H 0.66806 0.51853 0.58095 0.0
H4164 H 0.64635 0.53763 0.58216 0.0
H4165 H 0.66265 0.48987 0.55487 0.0
H4166 H 0.71128 0.54289 0.5766 0.0
H4167 H 0.72973 0.57475 0.5779 0.0
H4168 H 0.74225 0.56285 0.52285 0.0
H4169 H 0.72365 0.53097 0.5211 0.0
C4170 C 0.72218 0.44136 0.54241 0.0
C4171 C 0.72769 0.43973 0.52471 0.0
C4172 C 0.71398 0.4553 0.54799 0.0
C4173 C 0.71129 0.46785 0.53598 0.0
C4174 C 0.71682 0.46628 0.51833 0.0
C4175 C 0.72485 0.45223 0.51267 0.0
C4176 C 0.7025 0.48254 0.54173 0.0
C4177 C 0.71246 0.50086 0.54245 0.0
C4178 C 0.68447 0.47851 0.54659 0.0
C4179 C 0.67298 0.45942 0.54522 0.0
C4180 C 0.66941 0.4477 0.52841 0.0
C4181 C 0.65847 0.42976 0.52719 0.0
C4182 C 0.65091 0.42342 0.54265 0.0
C4183 C 0.65423 0.43503 0.55936 0.0
C4184 C 0.66518 0.45298 0.56066 0.0
C4185 C 0.66213 0.54739 0.54139 0.0
C4186 C 0.65154 0.54767 0.5561 0.0
C4187 C 0.6744 0.53639 0.54067 0.0
C4188 C 0.67638 0.52559 0.55471 0.0
C4189 C 0.66673 0.52679 0.57001 0.0
C4190 C 0.65444 0.53781 0.57074 0.0
C4191 C 0.6865 0.51132 0.55211 0.0
C4192 C 0.67677 0.49297 0.55189 0.0
C4193 C 0.70472 0.51537 0.54769 0.0
C4194 C 0.71595 0.53454 0.54868 0.0
C4195 C 0.71784 0.54709 0.56471 0.0
C4196 C 0.72835 0.56516 0.56554 0.0
C4197 C 0.73713 0.57083 0.55046 0.0
C4198 C 0.73544 0.55844 0.53452 0.0
C4199 C 0.72493 0.54035 0.53361 0.0
H4200 H 0.74526 0.58483 0.55113 0.0
H4201 H 0.64242 0.40954 0.54168 0.0
H4202 H 0.2375 0.12856 0.51497 0.0
H4203 H 0.20691 0.1076 0.51277 0.0
H4204 H 0.18251 0.15104 0.49915 0.0
H4205 H 0.21303 0.17205 0.50129 0.0
H4206 H 0.16754 0.13319 0.52732 0.0
H4207 H 0.18286 0.11722 0.46646 0.0
H4208 H 0.20208 0.10719 0.44422 0.0
H4209 H 0.19691 0.05669 0.46722 0.0
H4210 H 0.17786 0.06653 0.48978 0.0
H4211 H 0.07602 0.08646 0.50475 0.0
H4212 H 0.10703 0.10384 0.50184 0.0
H4213 H 0.12699 0.05601 0.50882 0.0
H4214 H 0.0956 0.03824 0.51097 0.0
H4215 H 0.14506 0.07489 0.48478 0.0
H4216 H 0.13037 0.08972 0.54535 0.0
H4217 H 0.11172 0.099 0.5686 0.0
H4218 H 0.11688 0.15074 0.54805 0.0
H4219 H 0.13536 0.14166 0.5245 0.0
C4220 C 0.22561 0.1336 0.51137 0.0
C4221 C 0.22763 0.15195 0.50833 0.0
C4222 C 0.20817 0.12159 0.51004 0.0
C4223 C 0.19248 0.12776 0.50571 0.0
C4224 C 0.19447 0.14602 0.5025 0.0
C4225 C 0.2119 0.15799 0.50368 0.0
C4226 C 0.17393 0.11547 0.5054 0.0
C4227 C 0.16252 0.12056 0.51785 0.0
C4228 C 0.16771 0.09866 0.49354 0.0
C4229 C 0.17909 0.0927 0.47993 0.0
C4230 C 0.18595 0.10405 0.46688 0.0
C4231 C 0.19679 0.09838 0.45419 0.0
C4232 C 0.20076 0.08133 0.45434 0.0
C4233 C 0.19385 0.0699 0.46714 0.0
C4234 C 0.18301 0.07551 0.47986 0.0
C4235 C 0.08699 0.07958 0.50547 0.0
C4236 C 0.0835 0.06109 0.50834 0.0
C4237 C 0.10471 0.08954 0.50387 0.0
C4238 C 0.11942 0.08138 0.50566 0.0
C4239 C 0.11586 0.06262 0.50756 0.0
C4240 C 0.09797 0.0525 0.50879 0.0
C4241 C 0.13851 0.09279 0.50646 0.0
C4242 C 0.15006 0.0875 0.49425 0.0
C4243 C 0.14503 0.10933 0.51875 0.0
C4244 C 0.13413 0.11495 0.53307 0.0
C4245 C 0.12744 0.10304 0.54573 0.0
C4246 C 0.11691 0.10826 0.55896 0.0
C4247 C 0.11309 0.12543 0.55978 0.0
C4248 C 0.11984 0.13744 0.5474 0.0
C4249 C 0.13036 0.13227 0.53411 0.0
H4250 H 0.10492 0.12945 0.57003 0.0
H4251 H 0.20915 0.07697 0.44451 0.0
H4252 H 0.13601 0.97967 0.75941 0.0
H4253 H 0.15395 0.95685 0.75787 0.0
H4254 H 0.19389 0.99066 0.80126 0.0
H4255 H 0.1763 0.01374 0.80241 0.0
H4256 H 0.21083 0.97926 0.77527 0.0
H4257 H 0.16249 0.94984 0.80796 0.0
H4258 H 0.13056 0.93731 0.81366 0.0
H4259 H 0.12111 0.89929 0.76399 0.0
H4260 H 0.15293 0.91178 0.75784 0.0
H4261 H 0.25899 0.91203 0.79336 0.0
H4262 H 0.23943 0.9333 0.79668 0.0
H4263 H 0.20428 0.90425 0.74776 0.0
H4264 H 0.22373 0.88288 0.74441 0.0
H4265 H 0.18489 0.91278 0.77687 0.0
H4266 H 0.23358 0.94305 0.74447 0.0
H4267 H 0.26582 0.95546 0.73965 0.0
H4268 H 0.27474 0.9919 0.79038 0.0
H4269 H 0.2426 0.9795 0.79563 0.0
C4270 C 0.14853 0.98214 0.76872 0.0
C4271 C 0.15475 0.99849 0.78103 0.0
C4272 C 0.15875 0.96905 0.7679 0.0
C4273 C 0.17523 0.9719 0.77959 0.0
C4274 C 0.18127 0.98812 0.79208 0.0
C4275 C 0.17116 1.00129 0.79277 0.0
C4276 C 0.18659 0.95842 0.77829 0.0
C4277 C 0.20517 0.96478 0.77593 0.0
C4278 C 0.1792 0.93941 0.7787 0.0
C4279 C 0.16005 0.93188 0.78235 0.0
C4280 C 0.15356 0.93891 0.79817 0.0
C4281 C 0.13549 0.9318 0.80149 0.0
C4282 C 0.1238 0.91755 0.78917 0.0
C4283 C 0.13017 0.91035 0.77351 0.0
C4284 C 0.14823 0.91743 0.7701 0.0
C4285 C 0.24703 0.91012 0.78339 0.0
C4286 C 0.24295 0.89585 0.76857 0.0
C4287 C 0.23592 0.92232 0.78525 0.0
C4288 C 0.22047 0.92042 0.77239 0.0
C4289 C 0.21615 0.90597 0.75781 0.0
C4290 C 0.22735 0.89388 0.75583 0.0
C4291 C 0.20901 0.93372 0.77398 0.0
C4292 C 0.19047 0.9273 0.77632 0.0
C4293 C 0.21644 0.9527 0.7737 0.0
C4294 C 0.23574 0.96021 0.77054 0.0
C4295 C 0.24246 0.9536 0.75468 0.0
C4296 C 0.2607 0.96065 0.75185 0.0
C4297 C 0.27233 0.97442 0.76473 0.0
C4298 C 0.26572 0.98121 0.78043 0.0
C4299 C 0.24749 0.97418 0.78333 0.0
H4300 H 0.28645 0.97987 0.76252 0.0
H4301 H 0.10981 0.91206 0.79177 0.0
H4302 H 0.30403 0.95843 1.00069 0.0
H4303 H 0.33525 0.97738 1.00084 0.0
H4304 H 0.35585 0.94369 0.03688 0.0
H4305 H 0.32467 0.9249 0.03704 0.0
H4306 H 0.37172 0.97941 0.04789 0.0
H4307 H 0.35911 0.93834 0.99083 0.0
H4308 H 0.34173 0.92365 0.96081 0.0
H4309 H 0.34999 0.97622 0.94148 0.0
H4310 H 0.36721 0.99125 0.9715 0.0
H4311 H 0.46353 0.99125 0.03492 0.0
H4312 H 0.43066 0.97966 0.03459 0.0
H4313 H 0.42131 0.02171 0.00257 0.0
H4314 H 0.45458 0.03355 0.00274 0.0
H4315 H 0.3989 0.98617 0.98926 0.0
H4316 H 0.41309 0.02692 0.04616 0.0
H4317 H 0.43147 0.04096 0.07592 0.0
H4318 H 0.42164 0.98818 0.0949 0.0
H4319 H 0.40302 0.97384 0.06528 0.0
C4320 C 0.31522 0.95508 0.00865 0.0
C4321 C 0.31195 0.94014 0.01879 0.0
C4322 C 0.33304 0.9659 0.0087 0.0
C4323 C 0.34788 0.96184 0.01875 0.0
C4324 C 0.34459 0.94707 0.02906 0.0
C4325 C 0.32679 0.9363 0.02907 0.0
C4326 C 0.36691 0.97273 0.01831 0.0
C4327 C 0.37766 0.98081 0.03507 0.0
C4328 C 0.37455 0.97496 1.00155 0.0
C4329 C 0.36425 0.96594 0.98348 0.0
C4330 C 0.35708 0.94678 0.98023 0.0
C4331 C 0.34729 0.93839 0.96321 0.0
C4332 C 0.3447 0.949 0.94927 0.0
C4333 C 0.35196 0.96802 0.9523 0.0
C4334 C 0.36175 0.97648 0.96932 0.0
C4335 C 0.45458 0.99811 0.02776 0.0
C4336 C 0.46169 0.01334 0.01882 0.0
C4337 C 0.43576 0.9915 0.02769 0.0
C4338 C 0.42361 0.99997 0.01876 0.0
C4339 C 0.43054 0.01507 0.00962 0.0
C4340 C 0.4495 0.02181 0.00975 0.0
C4341 C 0.40367 0.99256 0.01881 0.0
C4342 C 0.39279 0.98507 0.00202 0.0
C4343 C 0.39592 0.99078 0.03551 0.0
C4344 C 0.40668 0.99933 0.05352 0.0
C4345 C 0.41485 0.01831 0.05669 0.0
C4346 C 0.42527 0.02632 0.07352 0.0
C4347 C 0.42769 0.01546 0.08727 0.0
C4348 C 0.4197 0.99656 0.08422 0.0
C4349 C 0.4091 0.98851 0.06747 0.0
H4350 H 0.43567 0.02174 0.10031 0.0
H4351 H 0.33712 0.94248 0.93609 0.0
H4352 H 0.87033 0.59951 0.81927 0.0
H4353 H 0.84596 0.61514 0.81426 0.0
H4354 H 0.83597 0.59182 0.75696 0.0
H4355 H 0.86059 0.57658 0.76176 0.0
H4356 H 0.83566 0.62665 0.76041 0.0
H4357 H 0.80801 0.57408 0.78864 0.0
H4358 H 0.80545 0.55329 0.81244 0.0
H4359 H 0.80284 0.59733 0.85312 0.0
H4360 H 0.80565 0.61846 0.82961 0.0
H4361 H 0.75346 0.64954 0.73922 0.0
H4362 H 0.77139 0.62784 0.74637 0.0
H4363 H 0.78919 0.65762 0.80085 0.0
H4364 H 0.77202 0.67981 0.79369 0.0
H4365 H 0.78415 0.61823 0.79859 0.0
H4366 H 0.81442 0.671 0.77097 0.0
H4367 H 0.8169 0.69195 0.74733 0.0
H4368 H 0.81462 0.6471 0.7055 0.0
H4369 H 0.81179 0.62581 0.72888 0.0
C4370 C 0.86303 0.59787 0.80558 0.0
C4371 C 0.86729 0.58683 0.7909 0.0
C4372 C 0.84903 0.60666 0.80278 0.0
C4373 C 0.83894 0.60432 0.78533 0.0
C4374 C 0.84354 0.59371 0.77055 0.0
C4375 C 0.85762 0.58505 0.77331 0.0
C4376 C 0.8237 0.61306 0.78235 0.0
C4377 C 0.82426 0.62454 0.76856 0.0
C4378 C 0.80901 0.61059 0.79326 0.0
C4379 C 0.8072 0.59789 0.8074 0.0
C4380 C 0.80702 0.57936 0.80269 0.0
C4381 C 0.8055 0.56751 0.81612 0.0
C4382 C 0.80402 0.57399 0.83429 0.0
C4383 C 0.804 0.59233 0.83905 0.0
C4384 C 0.80554 0.60425 0.82567 0.0
C4385 C 0.76093 0.65129 0.75284 0.0
C4386 C 0.76165 0.66663 0.76571 0.0
C4387 C 0.77101 0.63881 0.75693 0.0
C4388 C 0.78179 0.64143 0.774 0.0
C4389 C 0.78095 0.6555 0.7876 0.0
C4390 C 0.77105 0.66812 0.78346 0.0
C4391 C 0.79614 0.63156 0.77659 0.0
C4392 C 0.79547 0.62007 0.79034 0.0
C4393 C 0.81076 0.63397 0.76567 0.0
C4394 C 0.81267 0.64678 0.75163 0.0
C4395 C 0.81428 0.66558 0.7567 0.0
C4396 C 0.81577 0.67752 0.74336 0.0
C4397 C 0.81586 0.67085 0.72491 0.0
C4398 C 0.81451 0.65224 0.71979 0.0
C4399 C 0.81296 0.64023 0.73308 0.0
H4400 H 0.81703 0.68012 0.7146 0.0
H4401 H 0.80285 0.5648 0.84466 0.0
H4402 H 0.8446 0.68865 0.02127 0.0
H4403 H 0.86943 0.67315 0.02393 0.0
H4404 H 0.82974 0.62058 0.01221 0.0
H4405 H 0.80498 0.63592 0.00986 0.0
H4406 H 0.8538 0.62065 0.04054 0.0
H4407 H 0.85669 0.63857 0.97985 0.0
H4408 H 0.85946 0.66016 0.95681 0.0
H4409 H 0.91241 0.69013 0.98425 0.0
H4410 H 0.90985 0.66884 0.00762 0.0
H4411 H 0.90773 0.56023 0.0163 0.0
H4412 H 0.88637 0.57959 0.01416 0.0
H4413 H 0.93036 0.62754 0.03455 0.0
H4414 H 0.95176 0.60813 0.03742 0.0
H4415 H 0.90621 0.63193 0.00368 0.0
H4416 H 0.9035 0.61238 0.06346 0.0
H4417 H 0.90048 0.58992 0.08564 0.0
H4418 H 0.84657 0.56223 0.0589 0.0
H4419 H 0.84939 0.58437 0.03636 0.0
C4420 C 0.84121 0.67379 0.01921 0.0
C4421 C 0.82284 0.6635 0.01536 0.0
C4422 C 0.85541 0.66495 0.02066 0.0
C4423 C 0.85147 0.64568 0.01815 0.0
C4424 C 0.83313 0.63544 0.01425 0.0
C4425 C 0.81898 0.64424 0.01285 0.0
C4426 C 0.86631 0.63603 0.01995 0.0
C4427 C 0.86515 0.62302 0.03233 0.0
C4428 C 0.88142 0.63943 0.00962 0.0
C4429 C 0.88298 0.65225 0.99561 0.0
C4430 C 0.86886 0.64986 0.98107 0.0
C4431 C 0.8704 0.66202 0.96793 0.0
C4432 C 0.88607 0.67654 0.9691 0.0
C4433 C 0.90026 0.6789 0.98339 0.0
C4434 C 0.89877 0.66678 0.99657 0.0
C4435 C 0.91288 0.57487 0.02048 0.0
C4436 C 0.93147 0.5826 0.02719 0.0
C4437 C 0.90066 0.58592 0.01913 0.0
C4438 C 0.90676 0.60496 0.02434 0.0
C4439 C 0.92539 0.61286 0.03043 0.0
C4440 C 0.93762 0.60177 0.03197 0.0
C4441 C 0.89342 0.61639 0.02397 0.0
C4442 C 0.8949 0.62971 0.01194 0.0
C4443 C 0.87852 0.61322 0.03453 0.0
C4444 C 0.87673 0.59994 0.04812 0.0
C4445 C 0.89107 0.60141 0.06221 0.0
C4446 C 0.88938 0.58875 0.07486 0.0
C4447 C 0.87336 0.57463 0.07365 0.0
C4448 C 0.85898 0.57317 0.05981 0.0
C4449 C 0.86061 0.58577 0.0471 0.0
H4450 H 0.87208 0.56485 0.08347 0.0
H4451 H 0.88725 0.68594 0.95891 0.0
H4452 H 0.14169 0.10714 0.7854 0.0
H4453 H 0.16223 0.13768 0.78625 0.0
H4454 H 0.20714 0.11342 0.77715 0.0
H4455 H 0.18671 0.08282 0.77662 0.0
H4456 H 0.21801 0.14274 0.80298 0.0
H4457 H 0.18594 0.12954 0.74227 0.0
H4458 H 0.159 0.12004 0.71872 0.0
H4459 H 0.13935 0.16553 0.74047 0.0
H4460 H 0.16609 0.17517 0.76439 0.0
H4461 H 0.27586 0.22371 0.77613 0.0
H4462 H 0.25717 0.19254 0.77692 0.0
H4463 H 0.21178 0.21421 0.79074 0.0
H4464 H 0.23025 0.24531 0.79003 0.0
H4465 H 0.20203 0.18581 0.7619 0.0
H4466 H 0.23497 0.1986 0.82298 0.0
H4467 H 0.26257 0.20771 0.84579 0.0
H4468 H 0.28151 0.16254 0.82193 0.0
H4469 H 0.25412 0.15331 0.79879 0.0
C4470 C 0.15594 0.10831 0.78358 0.0
C4471 C 0.16257 0.09259 0.78085 0.0
C4472 C 0.16765 0.12577 0.78401 0.0
C4473 C 0.18619 0.12783 0.78153 0.0
C4474 C 0.1929 0.11216 0.77907 0.0
C4475 C 0.18119 0.09468 0.7787 0.0
C4476 C 0.19849 0.14636 0.78141 0.0
C4477 C 0.21465 0.15206 0.79381 0.0
C4478 C 0.194 0.15863 0.76963 0.0
C4479 C 0.17793 0.15297 0.75523 0.0
C4480 C 0.1758 0.13744 0.74213 0.0
C4481 C 0.16057 0.13204 0.72869 0.0
C4482 C 0.14743 0.14214 0.72811 0.0
C4483 C 0.14952 0.1577 0.74095 0.0
C4484 C 0.16473 0.16315 0.75445 0.0
C4485 C 0.26195 0.22186 0.77948 0.0
C4486 C 0.25457 0.23702 0.783 0.0
C4487 C 0.25131 0.20404 0.77997 0.0
C4488 C 0.23311 0.20109 0.78392 0.0
C4489 C 0.22579 0.2162 0.78763 0.0
C4490 C 0.23642 0.23398 0.78729 0.0
C4491 C 0.22141 0.18223 0.78359 0.0
C4492 C 0.20539 0.17646 0.77104 0.0
C4493 C 0.22614 0.16988 0.79511 0.0
C4494 C 0.24259 0.17539 0.80903 0.0
C4495 C 0.24509 0.19071 0.82249 0.0
C4496 C 0.26069 0.19587 0.8355 0.0
C4497 C 0.27381 0.18575 0.83528 0.0
C4498 C 0.27134 0.1704 0.82207 0.0
C4499 C 0.25578 0.16518 0.80901 0.0
H4500 H 0.28587 0.18976 0.84537 0.0
H4501 H 0.13565 0.13793 0.71768 0.0
H4502 H 0.41769 1.00224 0.31846 0.0
H4503 H 0.40233 0.96981 0.31779 0.0
H4504 H 0.35031 0.98325 0.31926 0.0
H4505 H 0.36559 0.0158 0.31996 0.0
H4506 H 0.35431 0.95452 0.34016 0.0
H4507 H 0.36012 0.97051 0.2782 0.0
H4508 H 0.37726 0.98395 0.25391 0.0
H4509 H 0.41367 0.94899 0.26016 0.0
H4510 H 0.39653 0.93517 0.28436 0.0
H4511 H 0.29203 0.87163 0.29923 0.0
H4512 H 0.30985 0.90349 0.30691 0.0
H4513 H 0.35915 0.88733 0.29625 0.0
H4514 H 0.34132 0.85547 0.28805 0.0
H4515 H 0.35822 0.91717 0.28166 0.0
H4516 H 0.34951 0.89788 0.34068 0.0
H4517 H 0.33202 0.88419 0.36464 0.0
H4518 H 0.3019 0.92538 0.36506 0.0
H4519 H 0.31903 0.93917 0.34089 0.0
C4520 C 0.40304 0.99836 0.31909 0.0
C4521 C 0.39279 0.0115 0.31905 0.0
C4522 C 0.3943 0.97983 0.31865 0.0
C4523 C 0.37519 0.97419 0.31817 0.0
C4524 C 0.36508 0.98739 0.31957 0.0
C4525 C 0.37382 0.00595 0.31996 0.0
C4526 C 0.36561 0.95449 0.31435 0.0
C4527 C 0.35501 0.94633 0.32735 0.0
C4528 C 0.36693 0.94381 0.29779 0.0
C4529 C 0.37717 0.95195 0.28318 0.0
C4530 C 0.37184 0.96576 0.27444 0.0
C4531 C 0.38154 0.97343 0.26068 0.0
C4532 C 0.39666 0.96745 0.25558 0.0
C4533 C 0.40199 0.95365 0.26414 0.0
C4534 C 0.39223 0.94583 0.27782 0.0
C4535 C 0.30666 0.87485 0.29849 0.0
C4536 C 0.31528 0.86103 0.29307 0.0
C4537 C 0.31685 0.89305 0.30301 0.0
C4538 C 0.33589 0.89773 0.3025 0.0
C4539 C 0.34448 0.884 0.29682 0.0
C4540 C 0.33427 0.86581 0.29212 0.0
C4541 C 0.34675 0.91703 0.30745 0.0
C4542 C 0.3576 0.9252 0.29461 0.0
C4543 C 0.34571 0.92764 0.32422 0.0
C4544 C 0.33546 0.91947 0.33886 0.0
C4545 C 0.33907 0.90394 0.34579 0.0
C4546 C 0.32923 0.89617 0.35942 0.0
C4547 C 0.31583 0.90388 0.36634 0.0
C4548 C 0.31227 0.91941 0.35968 0.0
C4549 C 0.32206 0.92722 0.34602 0.0
H4550 H 0.30822 0.89784 0.3769 0.0
H4551 H 0.4042 0.97346 0.24497 0.0
H4552 H 0.57693 0.37556 0.61787 0.0
H4553 H 0.57376 0.40362 0.60582 0.0
H4554 H 0.54067 0.37133 0.5572 0.0
H4555 H 0.5441 0.34312 0.56913 0.0
H4556 H 0.56285 0.40088 0.54741 0.0
H4557 H 0.52175 0.39165 0.59326 0.0
H4558 H 0.51248 0.38639 0.62394 0.0
H4559 H 0.55078 0.43691 0.64809 0.0
H4560 H 0.56047 0.44236 0.61758 0.0
H4561 H 0.52637 0.47413 0.5187 0.0
H4562 H 0.53049 0.44544 0.52879 0.0
H4563 H 0.565 0.47598 0.57742 0.0
H4564 H 0.56089 0.50466 0.56747 0.0
H4565 H 0.5415 0.44693 0.58666 0.0
H4566 H 0.58266 0.45604 0.54068 0.0
H4567 H 0.59157 0.46141 0.5099 0.0
H4568 H 0.55271 0.41121 0.48583 0.0
H4569 H 0.54339 0.40565 0.51646 0.0
C4570 C 0.56904 0.37437 0.60456 0.0
C4571 C 0.56073 0.35693 0.59456 0.0
C4572 C 0.56712 0.39052 0.59769 0.0
C4573 C 0.55668 0.38984 0.58064 0.0
C4574 C 0.54876 0.37243 0.57039 0.0
C4575 C 0.5507 0.35623 0.57726 0.0
C4576 C 0.55388 0.40719 0.57373 0.0
C4577 C 0.55793 0.41079 0.55595 0.0
C4578 C 0.54778 0.42053 0.5848 0.0
C4579 C 0.54196 0.41732 0.60316 0.0
C4580 C 0.52829 0.40157 0.60514 0.0
C4581 C 0.52295 0.39857 0.62249 0.0
C4582 C 0.53107 0.41128 0.63796 0.0
C4583 C 0.54452 0.42706 0.6361 0.0
C4584 C 0.54993 0.43012 0.61878 0.0
C4585 C 0.53494 0.47481 0.5315 0.0
C4586 C 0.54332 0.49191 0.54217 0.0
C4587 C 0.53735 0.4583 0.53726 0.0
C4588 C 0.5482 0.45833 0.55389 0.0
C4589 C 0.55655 0.47539 0.56456 0.0
C4590 C 0.55423 0.49189 0.55876 0.0
C4591 C 0.55058 0.44068 0.5604 0.0
C4592 C 0.54642 0.43702 0.57811 0.0
C4593 C 0.55653 0.4273 0.54924 0.0
C4594 C 0.56219 0.43053 0.53083 0.0
C4595 C 0.57591 0.44621 0.5288 0.0
C4596 C 0.58106 0.44928 0.51139 0.0
C4597 C 0.57267 0.43669 0.49591 0.0
C4598 C 0.55917 0.42096 0.49783 0.0
C4599 C 0.55396 0.41784 0.51521 0.0
H4600 H 0.57666 0.43909 0.48243 0.0
H4601 H 0.52691 0.40893 0.65138 0.0
H4602 H 0.46148 0.7648 0.38255 0.0
H4603 H 0.43393 0.76802 0.36463 0.0
H4604 H 0.41544 0.78879 0.41438 0.0
H4605 H 0.44289 0.7852 0.43247 0.0
H4606 H 0.38683 0.76707 0.39229 0.0
H4607 H 0.43544 0.81801 0.38503 0.0
H4608 H 0.4661 0.83411 0.37837 0.0
H4609 H 0.4544 0.80621 0.32298 0.0
H4610 H 0.42371 0.78976 0.32939 0.0
H4611 H 0.3225 0.80695 0.34467 0.0
H4612 H 0.34793 0.80183 0.36452 0.0
H4613 H 0.36777 0.77826 0.31699 0.0
H4614 H 0.34247 0.78355 0.29699 0.0
H4615 H 0.39534 0.80223 0.33916 0.0
H4616 H 0.34524 0.7517 0.34784 0.0
H4617 H 0.31441 0.73775 0.35574 0.0
H4618 H 0.3287 0.76771 0.41017 0.0
H4619 H 0.35959 0.78206 0.40252 0.0
C4620 C 0.45149 0.7699 0.38973 0.0
C4621 C 0.45447 0.77482 0.40896 0.0
C4622 C 0.43574 0.77184 0.37943 0.0
C4623 C 0.42265 0.77898 0.38804 0.0
C4624 C 0.42529 0.7833 0.40734 0.0
C4625 C 0.44103 0.78127 0.41768 0.0
C4626 C 0.40661 0.78243 0.37679 0.0
C4627 C 0.38872 0.77495 0.38081 0.0
C4628 C 0.40892 0.79264 0.3617 0.0
C4629 C 0.42734 0.80252 0.35775 0.0
C4630 C 0.43945 0.8152 0.37147 0.0
C4631 C 0.45683 0.82441 0.36773 0.0
C4632 C 0.46222 0.82114 0.35027 0.0
C4633 C 0.45021 0.8087 0.3365 0.0
C4634 C 0.43282 0.79945 0.34018 0.0
C4635 C 0.33224 0.80065 0.33838 0.0
C4636 C 0.33038 0.79571 0.31914 0.0
C4637 C 0.34676 0.79762 0.34982 0.0
C4638 C 0.35976 0.78948 0.34235 0.0
C4639 C 0.35794 0.78454 0.32315 0.0
C4640 C 0.3434 0.78754 0.3117 0.0
C4641 C 0.37554 0.78657 0.3544 0.0
C4642 C 0.39343 0.79428 0.35059 0.0
C4643 C 0.37319 0.77686 0.36985 0.0
C4644 C 0.35469 0.76808 0.37454 0.0
C4645 C 0.34178 0.75542 0.36146 0.0
C4646 C 0.32431 0.74743 0.36589 0.0
C4647 C 0.31961 0.75187 0.38343 0.0
C4648 C 0.33238 0.7643 0.39658 0.0
C4649 C 0.34988 0.77235 0.39221 0.0
H4650 H 0.30609 0.74563 0.38683 0.0
H4651 H 0.47568 0.82829 0.3474 0.0
H4652 H 0.06226 0.74328 0.12442 0.0
H4653 H 0.05966 0.71132 0.1127 0.0
H4654 H 0.04683 0.72227 0.05737 0.0
H4655 H 0.0492 0.75452 0.06918 0.0
H4656 H 0.0255 0.68952 0.06236 0.0
H4657 H 0.08972 0.71774 0.0726 0.0
H4658 H 0.11887 0.73625 0.09002 0.0
H4659 H 0.11398 0.69888 0.13036 0.0
H4660 H 0.08465 0.68028 0.11331 0.0
H4661 H 0.07057 0.60777 0.03947 0.0
H4662 H 0.07308 0.64046 0.04812 0.0
H4663 H 0.0223 0.62695 0.07189 0.0
H4664 H 0.01959 0.59427 0.06312 0.0
H4665 H 0.07651 0.6618 0.07963 0.0
H4666 H 0.99933 0.66059 0.06687 0.0
H4667 H 0.97145 0.64274 0.04679 0.0
H4668 H 1.00446 0.62699 0.00665 0.0
H4669 H 0.0325 0.64505 0.02628 0.0
C4670 C 0.05887 0.73897 0.10973 0.0
C4671 C 0.05605 0.75163 0.09776 0.0
C4672 C 0.05745 0.7206 0.10301 0.0
C4673 C 0.0533 0.71422 0.08405 0.0
C4674 C 0.0501 0.72673 0.07205 0.0
C4675 C 0.05152 0.74523 0.07881 0.0
C4676 C 0.05256 0.69462 0.07698 0.0
C4677 C 0.03666 0.6835 0.06617 0.0
C4678 C 0.06722 0.68662 0.0815 0.0
C4679 C 0.08491 0.6977 0.09175 0.0
C4680 C 0.0948 0.71354 0.08525 0.0
C4681 C 0.11136 0.72403 0.09505 0.0
C4682 C 0.11825 0.71876 0.11131 0.0
C4683 C 0.10861 0.70295 0.11777 0.0
C4684 C 0.09203 0.69242 0.10804 0.0
C4685 C 0.05993 0.6117 0.04659 0.0
C4686 C 0.04487 0.5982 0.05056 0.0
C4687 C 0.06141 0.63049 0.05158 0.0
C4688 C 0.0478 0.63639 0.06052 0.0
C4689 C 0.03289 0.62293 0.06475 0.0
C4690 C 0.03142 0.60414 0.05982 0.0
C4691 C 0.04924 0.65654 0.06546 0.0
C4692 C 0.0653 0.66779 0.07585 0.0
C4693 C 0.03487 0.6647 0.06024 0.0
C4694 C 0.01804 0.65404 0.04817 0.0
C4695 C 1.00064 0.6534 0.05372 0.0
C4696 C 0.9848 0.64324 0.04241 0.0
C4697 C 0.98619 0.63369 0.02548 0.0
C4698 C 1.00341 0.63434 0.01979 0.0
C4699 C 0.01928 0.64454 0.03101 0.0
H4700 H 0.97392 0.62584 0.01674 0.0
H4701 H 0.13108 0.72691 0.11888 0.0
H4702 H 0.03578 0.27568 0.88036 0.0
H4703 H 0.06178 0.27819 0.8625 0.0
H4704 H 0.09833 0.28439 0.91261 0.0
H4705 H 0.07236 0.2823 0.93057 0.0
H4706 H 0.11349 0.30792 0.89128 0.0
H4707 H 0.08522 0.2436 0.88218 0.0
H4708 H 0.06002 0.21549 0.87411 0.0
H4709 H 0.05184 0.22831 0.81898 0.0
H4710 H 0.07685 0.25665 0.82679 0.0
H4711 H 0.18954 0.29576 0.84517 0.0
H4712 H 0.16454 0.29173 0.86442 0.0
H4713 H 0.12565 0.28676 0.81637 0.0
H4714 H 0.15044 0.29001 0.79695 0.0
H4715 H 0.11243 0.26186 0.83769 0.0
H4716 H 0.14092 0.32705 0.84793 0.0
H4717 H 0.16674 0.35456 0.85667 0.0
H4718 H 0.1752 0.33912 0.91067 0.0
H4719 H 0.14961 0.31136 0.90215 0.0
C4720 C 0.04934 0.27753 0.88759 0.0
C4721 C 0.05196 0.27871 0.9069 0.0
C4722 C 0.06423 0.27888 0.87734 0.0
C4723 C 0.08209 0.28123 0.88612 0.0
C4724 C 0.08473 0.28255 0.90545 0.0
C4725 C 0.06985 0.28129 0.91572 0.0
C4726 C 0.09799 0.28255 0.87518 0.0
C4727 C 0.11334 0.29768 0.87973 0.0
C4728 C 0.09783 0.26939 0.8599 0.0
C4729 C 0.0828 0.25234 0.85513 0.0
C4730 C 0.07796 0.2405 0.86837 0.0
C4731 C 0.06372 0.22451 0.86384 0.0
C4732 C 0.0543 0.22014 0.84606 0.0
C4733 C 0.05914 0.23173 0.83276 0.0
C4734 C 0.07335 0.24775 0.83722 0.0
C4735 C 0.17566 0.29363 0.83863 0.0
C4736 C 0.17212 0.29332 0.81943 0.0
C4737 C 0.16135 0.29152 0.84972 0.0
C4738 C 0.14315 0.2892 0.84194 0.0
C4739 C 0.13954 0.28862 0.82277 0.0
C4740 C 0.15381 0.29067 0.81168 0.0
C4741 C 0.12781 0.28733 0.85366 0.0
C4742 C 0.11258 0.27207 0.84927 0.0
C4743 C 0.12816 0.30029 0.86918 0.0
C4744 C 0.14346 0.31704 0.87434 0.0
C4745 C 0.14837 0.32946 0.86162 0.0
C4746 C 0.16296 0.3451 0.86654 0.0
C4747 C 0.17265 0.34855 0.88419 0.0
C4748 C 0.16772 0.3364 0.89698 0.0
C4749 C 0.15317 0.32072 0.89212 0.0
H4750 H 0.18394 0.36067 0.88797 0.0
H4751 H 0.04329 0.20775 0.84257 0.0
H4752 H 0.54212 0.78357 0.92199 0.0
H4753 H 0.53995 0.75813 0.94016 0.0
H4754 H 0.53597 0.72076 0.89054 0.0
H4755 H 0.53766 0.74621 0.8722 0.0
H4756 H 0.5124 0.70537 0.91197 0.0
H4757 H 0.57627 0.73607 0.92154 0.0
H4758 H 0.60342 0.76236 0.92962 0.0
H4759 H 0.58873 0.77116 0.98429 0.0
H4760 H 0.56135 0.74506 0.97645 0.0
H4761 H 0.52661 0.63193 0.95979 0.0
H4762 H 0.53021 0.65634 0.94014 0.0
H4763 H 0.53272 0.69604 0.9875 0.0
H4764 H 0.52983 0.67185 0.00734 0.0
H4765 H 0.55788 0.7095 0.96622 0.0
H4766 H 0.49337 0.67914 0.95596 0.0
H4767 H 0.46644 0.65264 0.94764 0.0
H4768 H 0.48286 0.6429 0.89387 0.0
H4769 H 0.51002 0.66921 0.90196 0.0
C4770 C 0.54082 0.76995 0.91492 0.0
C4771 C 0.54015 0.76695 0.89563 0.0
C4772 C 0.53967 0.75538 0.92536 0.0
C4773 C 0.53811 0.73747 0.91683 0.0
C4774 C 0.53723 0.73442 0.89751 0.0
C4775 C 0.53825 0.74899 0.88703 0.0
C4776 C 0.53719 0.72198 0.92806 0.0
C4777 C 0.52253 0.70619 0.92365 0.0
C4778 C 0.55017 0.72305 0.94356 0.0
C4779 C 0.56667 0.7387 0.94835 0.0
C4780 C 0.57876 0.74368 0.93524 0.0
C4781 C 0.5942 0.75854 0.93979 0.0
C4782 C 0.59777 0.76845 0.95744 0.0
C4783 C 0.58594 0.76348 0.97061 0.0
C4784 C 0.57047 0.74865 0.96613 0.0
C4785 C 0.52814 0.64588 0.9661 0.0
C4786 C 0.52784 0.64982 0.98522 0.0
C4787 C 0.53 0.65983 0.95477 0.0
C4788 C 0.53148 0.67807 0.96223 0.0
C4789 C 0.53151 0.6821 0.98134 0.0
C4790 C 0.52968 0.66818 0.99267 0.0
C4791 C 0.53301 0.69299 0.95022 0.0
C4792 C 0.5478 0.70867 0.95449 0.0
C4793 C 0.5202 0.69178 0.93455 0.0
C4794 C 0.50382 0.67603 0.92964 0.0
C4795 C 0.4913 0.67127 0.94241 0.0
C4796 C 0.47599 0.6563 0.93772 0.0
C4797 C 0.47297 0.64606 0.92025 0.0
C4798 C 0.48523 0.65082 0.90741 0.0
C4799 C 0.50058 0.66577 0.91203 0.0
H4800 H 0.4611 0.63448 0.91665 0.0
H4801 H 0.60973 0.77995 0.96094 0.0
H4802 H 0.07057 0.78931 0.72872 0.0
H4803 H 0.10277 0.79304 0.74109 0.0
H4804 H 0.10622 0.74895 0.70057 0.0
H4805 H 0.07433 0.7454 0.68802 0.0
H4806 H 0.12209 0.74636 0.736 0.0
H4807 H 0.12445 0.7919 0.6943 0.0
H4808 H 0.11657 0.81866 0.68261 0.0
H4809 H 0.13869 0.85162 0.73463 0.0
H4810 H 0.14646 0.82496 0.74672 0.0
H4811 H 0.21841 0.75647 0.74319 0.0
H4812 H 0.18595 0.75309 0.73308 0.0
H4813 H 0.1892 0.80579 0.76378 0.0
H4814 H 0.22185 0.80961 0.77303 0.0
H4815 H 0.16918 0.80437 0.73462 0.0
H4816 H 0.16719 0.76085 0.77719 0.0
H4817 H 0.1744 0.73476 0.7909 0.0
H4818 H 0.15085 0.69888 0.74085 0.0
H4819 H 0.1437 0.72482 0.72675 0.0
C4820 C 0.07817 0.78037 0.7225 0.0
C4821 C 0.06979 0.76707 0.70733 0.0
C4822 C 0.09663 0.78255 0.72955 0.0
C4823 C 0.10709 0.77133 0.72175 0.0
C4824 C 0.09857 0.75779 0.70689 0.0
C4825 C 0.08028 0.75582 0.69968 0.0
C4826 C 0.12694 0.77373 0.72876 0.0
C4827 C 0.13242 0.759 0.73555 0.0
C4828 C 0.14047 0.79036 0.72876 0.0
C4829 C 0.13584 0.80639 0.72148 0.0
C4830 C 0.12748 0.80481 0.7033 0.0
C4831 C 0.12306 0.81997 0.69659 0.0
C4832 C 0.12707 0.83682 0.70789 0.0
C4833 C 0.13556 0.83856 0.72591 0.0
C4834 C 0.13998 0.82343 0.73269 0.0
C4835 C 0.2122 0.76731 0.74785 0.0
C4836 C 0.22286 0.78329 0.759 0.0
C4837 C 0.19348 0.76532 0.74215 0.0
C4838 C 0.18468 0.779 0.74786 0.0
C4839 C 0.19539 0.79495 0.75904 0.0
C4840 C 0.21416 0.79711 0.76442 0.0
C4841 C 0.16454 0.77694 0.74194 0.0
C4842 C 0.15894 0.79173 0.73528 0.0
C4843 C 0.15083 0.76046 0.74242 0.0
C4844 C 0.15507 0.74482 0.75085 0.0
C4845 C 0.16366 0.74742 0.76906 0.0
C4846 C 0.16772 0.73266 0.77691 0.0
C4847 C 0.16313 0.71519 0.76674 0.0
C4848 C 0.15442 0.71243 0.74871 0.0
C4849 C 0.15034 0.72716 0.74078 0.0
H4850 H 0.16628 0.70377 0.77284 0.0
H4851 H 0.12365 0.84854 0.70267 0.0
H4852 H 0.0369 0.34909 0.41983 0.0
H4853 H 0.0332 0.37677 0.43772 0.0
H4854 H 0.04521 0.40689 0.39187 0.0
H4855 H 0.04887 0.37911 0.37379 0.0
H4856 H 0.06265 0.42696 0.42562 0.0
H4857 H 1.00221 0.39328 0.39952 0.0
H4858 H 0.97597 0.36603 0.39195 0.0
H4859 H 0.97225 0.36331 0.44956 0.0
H4860 H 0.99867 0.3904 0.45748 0.0
H4861 H 0.03056 0.50323 0.46202 0.0
H4862 H 0.03505 0.47713 0.44205 0.0
H4863 H 0.01894 0.44192 0.48327 0.0
H4864 H 0.01413 0.46784 0.50316 0.0
H4865 H 1.00344 0.42501 0.45022 0.0
H4866 H 0.0641 0.45942 0.47619 0.0
H4867 H 0.09029 0.48675 0.48326 0.0
H4868 H 0.09407 0.48805 0.42549 0.0
H4869 H 0.06749 0.46115 0.41804 0.0
C4870 C 0.03888 0.36161 0.41356 0.0
C4871 C 0.04314 0.36185 0.39533 0.0
C4872 C 0.03669 0.37744 0.4238 0.0
C4873 C 0.03874 0.39392 0.41612 0.0
C4874 C 0.04353 0.39436 0.39811 0.0
C4875 C 0.04558 0.37845 0.38777 0.0
C4876 C 0.0354 0.41046 0.42679 0.0
C4877 C 0.04962 0.42665 0.43078 0.0
C4878 C 0.0185 0.41 0.43379 0.0
C4879 C 1.00254 0.39377 0.42909 0.0
C4880 C 0.9959 0.38678 0.41058 0.0
C4881 C 0.98097 0.37138 0.40622 0.0
C4882 C 0.97248 0.36292 0.42027 0.0
C4883 C 0.97886 0.36987 0.4387 0.0
C4884 C 0.9938 0.38526 0.44313 0.0
C4885 C 0.02792 0.48993 0.46685 0.0
C4886 C 0.02201 0.48772 0.48429 0.0
C4887 C 0.03059 0.475 0.45542 0.0
C4888 C 0.02757 0.45751 0.46118 0.0
C4889 C 0.0214 0.45523 0.47846 0.0
C4890 C 0.0187 0.47013 0.48987 0.0
C4891 C 0.03078 0.44155 0.44931 0.0
C4892 C 0.01648 0.42542 0.44505 0.0
C4893 C 0.04762 0.44213 0.44205 0.0
C4894 C 0.06361 0.45839 0.44655 0.0
C4895 C 0.07035 0.46568 0.46498 0.0
C4896 C 0.08527 0.48112 0.46906 0.0
C4897 C 0.09376 0.48924 0.45483 0.0
C4898 C 0.08738 0.48189 0.4365 0.0
C4899 C 0.07236 0.46655 0.43234 0.0
H4900 H 0.10533 0.50117 0.45802 0.0
H4901 H 0.96092 0.351 0.41687 0.0
H4902 H 0.47875 0.27317 0.23343 0.0
H4903 H 0.45022 0.27532 0.24581 0.0
H4904 H 0.41948 0.25089 0.19314 0.0
H4905 H 0.44792 0.24896 0.1807 0.0
H4906 H 0.40685 0.27818 0.20525 0.0
H4907 H 0.41869 0.22705 0.23218 0.0
H4908 H 0.4363 0.20979 0.24984 0.0
H4909 H 0.44139 0.24865 0.29821 0.0
H4910 H 0.42396 0.26626 0.28076 0.0
H4911 H 0.31764 0.25898 0.23395 0.0
H4912 H 0.34646 0.2554 0.22357 0.0
H4913 H 0.37611 0.28628 0.27443 0.0
H4914 H 0.3472 0.28992 0.28499 0.0
H4915 H 0.38934 0.2561 0.26382 0.0
H4916 H 0.37571 0.30634 0.2356 0.0
H4917 H 0.35651 0.32162 0.21726 0.0
H4918 H 0.35331 0.28192 0.17005 0.0
H4919 H 0.37228 0.26622 0.1882 0.0
C4920 C 0.4659 0.26814 0.22451 0.0
C4921 C 0.46575 0.26084 0.20603 0.0
C4922 C 0.44949 0.2693 0.23165 0.0
C4923 C 0.43241 0.26313 0.22055 0.0
C4924 C 0.43231 0.2558 0.20211 0.0
C4925 C 0.44867 0.25463 0.19499 0.0
C4926 C 0.41477 0.26476 0.22787 0.0
C4927 C 0.40299 0.27308 0.21793 0.0
C4928 C 0.40956 0.25849 0.24463 0.0
C4929 C 0.42024 0.2481 0.25511 0.0
C4930 C 0.42373 0.23202 0.24653 0.0
C4931 C 0.43363 0.22214 0.25652 0.0
C4932 C 0.44002 0.22815 0.27512 0.0
C4933 C 0.43647 0.24403 0.28379 0.0
C4934 C 0.42657 0.25395 0.27386 0.0
C4935 C 0.33023 0.26497 0.24304 0.0
C4936 C 0.32993 0.27485 0.26035 0.0
C4937 C 0.34681 0.26297 0.23701 0.0
C4938 C 0.36366 0.27075 0.24804 0.0
C4939 C 0.36339 0.28016 0.26555 0.0
C4940 C 0.34679 0.28229 0.27158 0.0
C4941 C 0.38148 0.26938 0.24112 0.0
C4942 C 0.39327 0.26116 0.25113 0.0
C4943 C 0.38657 0.27551 0.2243 0.0
C4944 C 0.37528 0.285 0.21332 0.0
C4945 C 0.3708 0.30078 0.22135 0.0
C4946 C 0.35998 0.30953 0.21098 0.0
C4947 C 0.35366 0.30272 0.19251 0.0
C4948 C 0.3582 0.28717 0.18436 0.0
C4949 C 0.369 0.27835 0.19468 0.0
H4950 H 0.34528 0.30952 0.1845 0.0
H4951 H 0.44768 0.22049 0.28283 0.0
H4952 H 0.58014 0.53464 0.32643 0.0
H4953 H 0.56935 0.53418 0.35687 0.0
H4954 H 0.62361 0.53536 0.38141 0.0
H4955 H 0.63433 0.53544 0.35106 0.0
H4956 H 0.59911 0.51214 0.39647 0.0
H4957 H 0.60719 0.57418 0.38415 0.0
H4958 H 0.60309 0.59905 0.36646 0.0
H4959 H 0.54504 0.583 0.36889 0.0
H4960 H 0.54876 0.55785 0.38639 0.0
H4961 H 0.58329 0.53845 0.48967 0.0
H4962 H 0.59559 0.53764 0.45989 0.0
H4963 H 0.54177 0.5329 0.43194 0.0
H4964 H 0.52946 0.53375 0.46134 0.0
H4965 H 0.56737 0.55856 0.41934 0.0
H4966 H 0.55976 0.49606 0.43157 0.0
H4967 H 0.56449 0.47189 0.45 0.0
H4968 H 0.6226 0.48974 0.44852 0.0
H4969 H 0.61823 0.51419 0.43029 0.0
C4970 C 0.58974 0.53474 0.33831 0.0
C4971 C 0.6081 0.53516 0.33631 0.0
C4972 C 0.58359 0.53456 0.35573 0.0
C4973 C 0.59572 0.53498 0.37155 0.0
C4974 C 0.61397 0.53504 0.36949 0.0
C4975 C 0.6201 0.53515 0.35209 0.0
C4976 C 0.5895 0.5356 0.39026 0.0
C4977 C 0.59238 0.52244 0.40154 0.0
C4978 C 0.58053 0.54889 0.39692 0.0
C4979 C 0.57824 0.56401 0.38641 0.0
C4980 C 0.59353 0.57586 0.38078 0.0
C4981 C 0.59128 0.59003 0.37081 0.0
C4982 C 0.57381 0.59257 0.36651 0.0
C4983 C 0.55856 0.58099 0.37221 0.0
C4984 C 0.56073 0.56678 0.38216 0.0
C4985 C 0.57407 0.53713 0.47718 0.0
C4986 C 0.55537 0.53615 0.47798 0.0
C4987 C 0.58111 0.53664 0.46015 0.0
C4988 C 0.56959 0.53515 0.44363 0.0
C4989 C 0.55095 0.53411 0.44445 0.0
C4990 C 0.54392 0.53453 0.46136 0.0
C4991 C 0.57678 0.53499 0.42541 0.0
C4992 C 0.57414 0.54828 0.41426 0.0
C4993 C 0.58604 0.52189 0.41895 0.0
C4994 C 0.58868 0.50708 0.42974 0.0
C4995 C 0.57356 0.49492 0.43529 0.0
C4996 C 0.57617 0.48116 0.44569 0.0
C4997 C 0.59384 0.47932 0.45048 0.0
C4998 C 0.60893 0.4912 0.44483 0.0
C4999 C 0.60639 0.50501 0.43445 0.0
H5000 H 0.59584 0.46866 0.45854 0.0
H5001 H 0.57209 0.60355 0.35879 0.0
H5002 H 0.27553 0.88291 0.07442 0.0
H5003 H 0.27359 0.85809 0.09334 0.0
H5004 H 0.22765 0.82436 0.056 0.0
H5005 H 0.22925 0.84939 0.03718 0.0
H5006 H 0.22198 0.82077 0.09074 0.0
H5007 H 0.26917 0.81588 0.05438 0.0
H5008 H 0.297 0.82655 0.03945 0.0
H5009 H 0.32894 0.84417 0.09245 0.0
H5010 H 0.30127 0.83387 0.10771 0.0
H5011 H 0.27822 0.76501 0.14928 0.0
H5012 H 0.26643 0.77198 0.11945 0.0
H5013 H 0.24287 0.81206 0.14749 0.0
H5014 H 0.25423 0.80489 0.17705 0.0
H5015 H 0.27909 0.80281 0.10896 0.0
H5016 H 0.21049 0.82325 0.12138 0.0
H5017 H 0.18128 0.81022 0.133 0.0
H5018 H 0.18995 0.75627 0.12379 0.0
H5019 H 0.21911 0.76891 0.1118 0.0
C5020 C 0.26497 0.87024 0.07028 0.0
C5021 C 0.25262 0.86801 0.0543 0.0
C5022 C 0.26393 0.85604 0.08103 0.0
C5023 C 0.25072 0.83926 0.07583 0.0
C5024 C 0.23801 0.83716 0.06016 0.0
C5025 C 0.23896 0.85145 0.04944 0.0
C5026 C 0.25037 0.82404 0.08693 0.0
C5027 C 0.23437 0.81666 0.09468 0.0
C5028 C 0.26632 0.81806 0.09128 0.0
C5029 C 0.2831 0.82413 0.08219 0.0
C5030 C 0.28211 0.82211 0.06286 0.0
C5031 C 0.29786 0.82809 0.05433 0.0
C5032 C 0.31472 0.83604 0.06499 0.0
C5033 C 0.31587 0.838 0.08421 0.0
C5034 C 0.30016 0.83205 0.0928 0.0
C5035 C 0.27006 0.77491 0.14897 0.0
C5036 C 0.26722 0.78449 0.16541 0.0
C5037 C 0.26328 0.77883 0.13198 0.0
C5038 C 0.25371 0.79251 0.13119 0.0
C5039 C 0.24986 0.80119 0.14764 0.0
C5040 C 0.25647 0.79716 0.16459 0.0
C5041 C 0.25099 0.80035 0.11384 0.0
C5042 C 0.26647 0.80642 0.1048 0.0
C5043 C 0.23441 0.80472 0.10803 0.0
C5044 C 0.21707 0.79707 0.11571 0.0
C5045 C 0.20615 0.80859 0.12173 0.0
C5046 C 0.18956 0.80126 0.12837 0.0
C5047 C 0.18372 0.78242 0.12909 0.0
C5048 C 0.19447 0.77086 0.1232 0.0
C5049 C 0.21108 0.77812 0.11653 0.0
H5050 H 0.1709 0.77679 0.13431 0.0
H5051 H 0.3269 0.84068 0.05837 0.0
H5052 H 0.95005 0.58997 0.84766 0.0
H5053 H 0.97102 0.5937 0.87608 0.0
H5054 H 0.94673 0.53763 0.88357 0.0
H5055 H 0.92583 0.53382 0.85537 0.0
H5056 H 0.95107 0.56112 0.91525 0.0
H5057 H 0.98634 0.54776 0.86659 0.0
H5058 H 1.00036 0.55272 0.83794 0.0
H5059 H 0.03188 0.6063 0.86284 0.0
H5060 H 0.01784 0.60173 0.89157 0.0
H5061 H 0.03442 0.54079 0.96347 0.0
H5062 H 0.01997 0.54714 0.93457 0.0
H5063 H 1.00012 0.58887 0.96473 0.0
H5064 H 0.01399 0.58219 0.99362 0.0
H5065 H 0.01853 0.57526 0.91453 0.0
H5066 H 0.95553 0.58209 0.95006 0.0
H5067 H 0.94147 0.5739 0.97807 0.0
H5068 H 0.96494 0.52777 0.97794 0.0
H5069 H 0.97892 0.53554 0.94984 0.0
C5070 C 0.94917 0.5785 0.85544 0.0
C5071 C 0.93637 0.56161 0.84935 0.0
C5072 C 0.96116 0.58063 0.87159 0.0
C5073 C 0.96042 0.56591 0.88181 0.0
C5074 C 0.94745 0.54915 0.87586 0.0
C5075 C 0.93557 0.54699 0.85974 0.0
C5076 C 0.97321 0.5677 0.89865 0.0
C5077 C 0.96582 0.5644 0.91514 0.0
C5078 C 0.99241 0.57175 0.89837 0.0
C5079 C 1.00088 0.5745 0.88114 0.0
C5080 C 0.99614 0.56066 0.86589 0.0
C5081 C 1.00411 0.56339 0.84966 0.0
C5082 C 0.01696 0.57984 0.84855 0.0
C5083 C 0.0219 0.59358 0.86371 0.0
C5084 C 0.01395 0.59093 0.87997 0.0
C5085 C 0.02738 0.55163 0.96384 0.0
C5086 C 0.02491 0.56072 0.9807 0.0
C5087 C 0.0192 0.55529 0.94736 0.0
C5088 C 0.00868 0.56818 0.94763 0.0
C5089 C 0.00791 0.57864 0.96432 0.0
C5090 C 0.01578 0.57477 0.98077 0.0
C5091 C 0.99636 0.5687 0.93108 0.0
C5092 C 1.0038 0.57238 0.91469 0.0
C5093 C 0.97712 0.56457 0.9313 0.0
C5094 C 0.96838 0.5595 0.94794 0.0
C5095 C 0.9576 0.57015 0.95597 0.0
C5096 C 0.94966 0.56559 0.97185 0.0
C5097 C 0.9523 0.55032 0.97975 0.0
C5098 C 0.9629 0.53959 0.9718 0.0
C5099 C 0.97084 0.54407 0.95591 0.0
H5100 H 0.9461 0.54677 0.992 0.0
H5101 H 0.02312 0.58192 0.83598 0.0
H5102 H 0.30916 0.23086 0.57206 0.0
H5103 H 0.30916 0.24501 0.60362 0.0
H5104 H 0.25021 0.22582 0.59811 0.0
H5105 H 0.25011 0.21188 0.56652 0.0
H5106 H 0.26139 0.26014 0.61631 0.0
H5107 H 0.27724 0.20294 0.62028 0.0
H5108 H 0.295 0.1801 0.61438 0.0
H5109 H 0.34393 0.2188 0.64152 0.0
H5110 H 0.3265 0.24197 0.64736 0.0
H5111 H 0.25039 0.26716 0.71239 0.0
H5112 H 0.25002 0.25677 0.67961 0.0
H5113 H 0.30906 0.27472 0.68535 0.0
H5114 H 0.30959 0.28484 0.71802 0.0
H5115 H 0.29776 0.24138 0.66684 0.0
H5116 H 0.28168 0.29848 0.6635 0.0
H5117 H 0.26375 0.32115 0.66952 0.0
H5118 H 0.21515 0.28261 0.64148 0.0
H5119 H 0.23274 0.25962 0.6355 0.0
C5120 C 0.29619 0.22983 0.57751 0.0
C5121 C 0.27965 0.22018 0.56682 0.0
C5122 C 0.29621 0.23784 0.59559 0.0
C5123 C 0.27969 0.23626 0.60337 0.0
C5124 C 0.26312 0.22721 0.59246 0.0
C5125 C 0.2631 0.2192 0.5744 0.0
C5126 C 0.2797 0.24345 0.62305 0.0
C5127 C 0.26919 0.2559 0.62738 0.0
C5128 C 0.2901 0.23817 0.63752 0.0
C5129 C 0.3006 0.22425 0.63408 0.0
C5130 C 0.29181 0.20662 0.62486 0.0
C5131 C 0.30182 0.19361 0.62155 0.0
C5132 C 0.32059 0.19801 0.62753 0.0
C5133 C 0.3294 0.21542 0.63687 0.0
C5134 C 0.31946 0.22849 0.64019 0.0
C5135 C 0.26329 0.26903 0.70664 0.0
C5136 C 0.28001 0.27683 0.7179 0.0
C5137 C 0.26306 0.26313 0.68786 0.0
C5138 C 0.27952 0.26505 0.67992 0.0
C5139 C 0.29618 0.27304 0.69111 0.0
C5140 C 0.29643 0.27888 0.70984 0.0
C5141 C 0.27954 0.25819 0.66015 0.0
C5142 C 0.29001 0.24572 0.6558 0.0
C5143 C 0.26909 0.26345 0.64569 0.0
C5144 C 0.2585 0.27727 0.64922 0.0
C5145 C 0.26714 0.29479 0.65874 0.0
C5146 C 0.25704 0.30771 0.66213 0.0
C5147 C 0.23831 0.30331 0.65593 0.0
C5148 C 0.22965 0.28599 0.64629 0.0
C5149 C 0.23968 0.27302 0.64289 0.0
H5150 H 0.23052 0.31332 0.65856 0.0
H5151 H 0.32831 0.18792 0.62495 0.0
H5152 H 0.62332 0.55648 0.22435 0.0
H5153 H 0.60754 0.55757 0.19422 0.0
H5154 H 0.55826 0.52176 0.20773 0.0
H5155 H 0.57409 0.52057 0.23811 0.0
H5156 H 0.56546 0.51118 0.17329 0.0
H5157 H 0.56044 0.56656 0.20685 0.0
H5158 H 0.57129 0.59604 0.22722 0.0
H5159 H 0.60716 0.61757 0.18838 0.0
H5160 H 0.59669 0.58813 0.16786 0.0
H5161 H 0.5254 0.55873 0.09445 0.0
H5162 H 0.53353 0.55764 0.12737 0.0
H5163 H 0.57232 0.52659 0.11374 0.0
H5164 H 0.56417 0.52732 0.08118 0.0
H5165 H 0.56457 0.57014 0.15013 0.0
H5166 H 0.57521 0.49642 0.1437 0.0
H5167 H 0.56271 0.46637 0.1246 0.0
H5168 H 0.51232 0.4808 0.11038 0.0
H5169 H 0.52438 0.51083 0.12965 0.0
C5170 C 0.6091 0.54884 0.22097 0.0
C5171 C 0.59995 0.53843 0.23366 0.0
C5172 C 0.60006 0.54958 0.20374 0.0
C5173 C 0.58163 0.53993 0.19873 0.0
C5174 C 0.57246 0.52938 0.2113 0.0
C5175 C 0.5815 0.52873 0.22866 0.0
C5176 C 0.57228 0.54053 0.18014 0.0
C5177 C 0.56517 0.52406 0.16825 0.0
C5178 C 0.57156 0.55731 0.17363 0.0
C5179 C 0.57784 0.57509 0.18586 0.0
C5180 C 0.57073 0.57754 0.2027 0.0
C5181 C 0.57679 0.59425 0.21426 0.0
C5182 C 0.58991 0.60866 0.2091 0.0
C5183 C 0.59699 0.6064 0.19235 0.0
C5184 C 0.59097 0.58971 0.18074 0.0
C5185 C 0.53566 0.55168 0.09849 0.0
C5186 C 0.54402 0.54305 0.08507 0.0
C5187 C 0.5403 0.55106 0.11732 0.0
C5188 C 0.5533 0.54172 0.12309 0.0
C5189 C 0.56192 0.53349 0.10971 0.0
C5190 C 0.55729 0.53404 0.09101 0.0
C5191 C 0.5583 0.54079 0.14303 0.0
C5192 C 0.56465 0.55722 0.15518 0.0
C5193 C 0.55816 0.52392 0.14982 0.0
C5194 C 0.55076 0.50594 0.13806 0.0
C5195 C 0.56143 0.49317 0.13656 0.0
C5196 C 0.55442 0.47614 0.12571 0.0
C5197 C 0.53673 0.47168 0.11632 0.0
C5198 C 0.52603 0.48428 0.11767 0.0
C5199 C 0.53296 0.50133 0.12854 0.0
H5200 H 0.53131 0.45844 0.10805 0.0
H5201 H 0.59454 0.6216 0.21805 0.0
H5202 H 0.25263 0.85452 0.9757 0.0
H5203 H 0.2519 0.8384 0.94501 0.0
H5204 H 0.24809 0.88714 0.92111 0.0
H5205 H 0.24812 0.90319 0.95194 0.0
H5206 H 0.2278 0.85742 0.89949 0.0
H5207 H 0.28935 0.87677 0.92897 0.0
H5208 H 0.31464 0.8803 0.95375 0.0
H5209 H 0.30586 0.82176 0.94894 0.0
H5210 H 0.28033 0.81787 0.92427 0.0
H5211 H 0.26932 0.83843 0.81854 0.0
H5212 H 0.26236 0.85139 0.84807 0.0
H5213 H 0.25475 0.79858 0.86736 0.0
H5214 H 0.26146 0.78536 0.83763 0.0
H5215 H 0.27982 0.82952 0.89092 0.0
H5216 H 0.21865 0.81175 0.85866 0.0
H5217 H 0.19536 0.81058 0.83257 0.0
H5218 H 0.20603 0.86933 0.84119 0.0
H5219 H 0.2296 0.87087 0.86718 0.0
C5220 C 0.25143 0.86174 0.96388 0.0
C5221 C 0.25066 0.88015 0.96614 0.0
C5222 C 0.25106 0.85254 0.94637 0.0
C5223 C 0.25039 0.86171 0.93082 0.0
C5224 C 0.24871 0.87984 0.93295 0.0
C5225 C 0.24877 0.889 0.95052 0.0
C5226 C 0.25251 0.85263 0.91258 0.0
C5227 C 0.23925 0.85147 0.89758 0.0
C5228 C 0.26742 0.84475 0.91012 0.0
C5229 C 0.28281 0.84702 0.9249 0.0
C5230 C 0.29272 0.86464 0.93329 0.0
C5231 C 0.30711 0.86671 0.9473 0.0
C5232 C 0.31182 0.85126 0.95295 0.0
C5233 C 0.30218 0.83372 0.94456 0.0
C5234 C 0.28776 0.83157 0.93056 0.0
C5235 C 0.26609 0.82953 0.82902 0.0
C5236 C 0.26603 0.8109 0.82585 0.0
C5237 C 0.26201 0.83694 0.84582 0.0
C5238 C 0.25798 0.82589 0.85977 0.0
C5239 C 0.25777 0.80726 0.85665 0.0
C5240 C 0.26157 0.79975 0.8397 0.0
C5241 C 0.25504 0.83416 0.87797 0.0
C5242 C 0.26826 0.8353 0.89293 0.0
C5243 C 0.24036 0.84235 0.88024 0.0
C5244 C 0.22601 0.84143 0.86478 0.0
C5245 C 0.21613 0.82443 0.85491 0.0
C5246 C 0.20286 0.8237 0.84015 0.0
C5247 C 0.19924 0.83987 0.8352 0.0
C5248 C 0.20885 0.85681 0.84504 0.0
C5249 C 0.22216 0.85762 0.8598 0.0
H5250 H 0.18897 0.83928 0.82377 0.0
H5251 H 0.32297 0.85289 0.9638 0.0
H5252 H 0.93379 0.5203 0.76043 0.0
H5253 H 0.9549 0.51778 0.73776 0.0
H5254 H 0.97217 0.57683 0.74165 0.0
H5255 H 0.95061 0.57943 0.76409 0.0
H5256 H 0.96479 0.56198 0.70703 0.0
H5257 H 1.0008 0.55189 0.75947 0.0
H5258 H 0.0073 0.53813 0.78741 0.0
H5259 H 0.9952 0.48494 0.75535 0.0
H5260 H 0.98835 0.49833 0.72724 0.0
H5261 H 0.02734 0.55358 0.64357 0.0
H5262 H 0.01772 0.56146 0.6736 0.0
H5263 H 0.99166 0.50433 0.675 0.0
H5264 H 1.00134 0.49636 0.64503 0.0
H5265 H 0.00787 0.52212 0.70925 0.0
H5266 H 0.96733 0.53185 0.65832 0.0
H5267 H 0.96065 0.54538 0.63025 0.0
H5268 H 0.9815 0.59952 0.66007 0.0
H5269 H 0.98854 0.58629 0.68828 0.0
C5270 C 0.94219 0.53276 0.75658 0.0
C5271 C 0.94056 0.55006 0.76397 0.0
C5272 C 0.95436 0.5313 0.74373 0.0
C5273 C 0.96533 0.54713 0.73824 0.0
C5274 C 0.96389 0.56446 0.74578 0.0
C5275 C 0.95159 0.56592 0.75857 0.0
C5276 C 0.97724 0.54541 0.72361 0.0
C5277 C 0.97454 0.55363 0.70773 0.0
C5278 C 0.98971 0.53423 0.72438 0.0
C5279 C 0.99396 0.52612 0.74124 0.0
C5280 C 0.99941 0.53724 0.75838 0.0
C5281 C 1.00317 0.52951 0.77426 0.0
C5282 C 1.00164 0.51067 0.77316 0.0
C5283 C 0.99638 0.49954 0.75618 0.0
C5284 C 0.99258 0.5072 0.74026 0.0
C5285 C 0.01976 0.54269 0.65042 0.0
C5286 C 0.01485 0.52439 0.64191 0.0
C5287 C 0.01434 0.5472 0.66756 0.0
C5288 C 1.00375 0.5335 0.67633 0.0
C5289 C 0.99984 0.51509 0.66842 0.0
C5290 C 0.00536 0.51055 0.65132 0.0
C5291 C 0.99515 0.53845 0.69271 0.0
C5292 C 0.99841 0.53079 0.70882 0.0
C5293 C 0.98319 0.55015 0.6922 0.0
C5294 C 0.97864 0.55809 0.67534 0.0
C5295 C 0.97058 0.54664 0.65886 0.0
C5296 C 0.96673 0.55425 0.64293 0.0
C5297 C 0.9707 0.5733 0.64336 0.0
C5298 C 0.97846 0.58477 0.65975 0.0
C5299 C 0.98238 0.57722 0.67571 0.0
H5300 H 0.96771 0.57917 0.63101 0.0
H5301 H 1.00455 0.50471 0.78547 0.0
H5302 H 0.28649 0.23647 0.47414 0.0
H5303 H 0.28721 0.24638 0.44351 0.0
H5304 H 0.28121 0.19057 0.41914 0.0
H5305 H 0.28095 0.1807 0.44972 0.0
H5306 H 0.30523 0.21293 0.40287 0.0
H5307 H 0.24464 0.21041 0.41784 0.0
H5308 H 0.22116 0.21707 0.4367 0.0
H5309 H 0.24135 0.27468 0.43394 0.0
H5310 H 0.26512 0.26838 0.41527 0.0
H5311 H 0.27973 0.23151 0.31072 0.0
H5312 H 0.27996 0.21857 0.34 0.0
H5313 H 0.29001 0.27286 0.36989 0.0
H5314 H 0.28976 0.28579 0.34109 0.0
H5315 H 0.2625 0.24902 0.38222 0.0
H5316 H 0.32391 0.25093 0.36781 0.0
H5317 H 0.34671 0.24357 0.34839 0.0
H5318 H 0.32381 0.18601 0.34928 0.0
H5319 H 0.3007 0.19304 0.36851 0.0
C5320 C 0.2854 0.22634 0.46226 0.0
C5321 C 0.28358 0.2078 0.46435 0.0
C5322 C 0.28572 0.23199 0.44473 0.0
C5323 C 0.28398 0.21918 0.42892 0.0
C5324 C 0.28255 0.20072 0.43107 0.0
C5325 C 0.28234 0.1951 0.44858 0.0
C5326 C 0.2834 0.22495 0.41016 0.0
C5327 C 0.29571 0.22061 0.39827 0.0
C5328 C 0.27109 0.23509 0.40411 0.0
C5329 C 0.25677 0.23893 0.41529 0.0
C5330 C 0.24416 0.22451 0.42137 0.0
C5331 C 0.23078 0.22822 0.43201 0.0
C5332 C 0.22979 0.24629 0.43655 0.0
C5333 C 0.24215 0.26069 0.43043 0.0
C5334 C 0.25557 0.25706 0.4198 0.0
C5335 C 0.28212 0.24067 0.32354 0.0
C5336 C 0.28467 0.25969 0.32347 0.0
C5337 C 0.28227 0.23327 0.34027 0.0
C5338 C 0.28499 0.24476 0.35717 0.0
C5339 C 0.28777 0.26371 0.35706 0.0
C5340 C 0.28768 0.27108 0.34048 0.0
C5341 C 0.28454 0.23729 0.3751 0.0
C5342 C 0.27197 0.24127 0.3868 0.0
C5343 C 0.29651 0.22672 0.38088 0.0
C5344 C 0.31046 0.2225 0.36942 0.0
C5345 C 0.32365 0.2367 0.36374 0.0
C5346 C 0.33664 0.23259 0.35279 0.0
C5347 C 0.33667 0.21434 0.34755 0.0
C5348 C 0.32374 0.20015 0.35331 0.0
C5349 C 0.31071 0.20418 0.36425 0.0
H5350 H 0.34674 0.21118 0.33907 0.0
H5351 H 0.21942 0.24914 0.44479 0.0
H5352 H 0.30174 0.59553 0.55777 0.0
H5353 H 0.31894 0.57225 0.55288 0.0
H5354 H 0.34315 0.59918 0.50894 0.0
H5355 H 0.32608 0.62241 0.51372 0.0
H5356 H 0.32988 0.56134 0.4997 0.0
H5357 H 0.36727 0.60523 0.54999 0.0
H5358 H 0.37298 0.62313 0.58093 0.0
H5359 H 0.3592 0.5733 0.60535 0.0
H5360 H 0.35318 0.55511 0.5745 0.0
H5361 H 0.41175 0.53768 0.48646 0.0
H5362 H 0.38581 0.55038 0.49168 0.0
H5363 H 0.37603 0.52037 0.53807 0.0
H5364 H 0.40245 0.50792 0.5331 0.0
H5365 H 0.37723 0.55452 0.54771 0.0
H5366 H 0.34492 0.51033 0.49766 0.0
H5367 H 0.33953 0.49239 0.46677 0.0
H5368 H 0.34315 0.54165 0.44184 0.0
H5369 H 0.34882 0.55995 0.47256 0.0
C5370 C 0.3108 0.59649 0.54713 0.0
C5371 C 0.31265 0.61078 0.53615 0.0
C5372 C 0.32057 0.58321 0.54435 0.0
C5373 C 0.33226 0.58404 0.53055 0.0
C5374 C 0.3341 0.59828 0.51959 0.0
C5375 C 0.32444 0.61159 0.52242 0.0
C5376 C 0.34289 0.57028 0.52753 0.0
C5377 C 0.34029 0.55982 0.51014 0.0
C5378 C 0.35592 0.5679 0.54142 0.0
C5379 C 0.35954 0.57883 0.55994 0.0
C5380 C 0.36529 0.5981 0.56195 0.0
C5381 C 0.36862 0.6083 0.57947 0.0
C5382 C 0.36639 0.59936 0.59509 0.0
C5383 C 0.36088 0.58021 0.59323 0.0
C5384 C 0.35751 0.56995 0.57574 0.0
C5385 C 0.40377 0.53338 0.49745 0.0
C5386 C 0.40906 0.52181 0.50937 0.0
C5387 C 0.38889 0.54062 0.50041 0.0
C5388 C 0.37881 0.53615 0.51514 0.0
C5389 C 0.3836 0.52396 0.52661 0.0
C5390 C 0.39865 0.51688 0.52377 0.0
C5391 C 0.36466 0.54584 0.51962 0.0
C5392 C 0.36655 0.55559 0.53733 0.0
C5393 C 0.35091 0.54749 0.50601 0.0
C5394 C 0.34738 0.53653 0.48745 0.0
C5395 C 0.34468 0.51736 0.48559 0.0
C5396 C 0.34155 0.50712 0.46811 0.0
C5397 C 0.34101 0.51588 0.45235 0.0
C5398 C 0.34356 0.53489 0.45405 0.0
C5399 C 0.3467 0.5452 0.47151 0.0
H5400 H 0.3386 0.50792 0.43883 0.0
H5401 H 0.36898 0.60727 0.60865 0.0
H5402 H 0.84848 0.8978 0.54228 0.0
H5403 H 0.87933 0.91769 0.54248 0.0
H5404 H 0.85598 0.96104 0.52641 0.0
H5405 H 0.82517 0.94123 0.52606 0.0
H5406 H 0.88327 0.95666 0.50629 0.0
H5407 H 0.87422 0.96276 0.5703 0.0
H5408 H 0.86689 0.95164 0.59973 0.0
H5409 H 0.91207 0.92672 0.60061 0.0
H5410 H 0.91951 0.93747 0.57103 0.0
H5411 H 0.9648 0.02825 0.5213 0.0
H5412 H 0.93393 0.00994 0.5238 0.0
H5413 H 0.95648 0.96717 0.54278 0.0
H5414 H 0.98736 0.98552 0.54075 0.0
H5415 H 0.92939 0.97158 0.56174 0.0
H5416 H 0.93814 0.96447 0.49773 0.0
H5417 H 0.94569 0.9751 0.46814 0.0
H5418 H 0.90127 1.00109 0.4669 0.0
H5419 H 0.89362 0.99083 0.49664 0.0
C5420 C 0.84994 0.91157 0.53881 0.0
C5421 C 0.83443 0.91798 0.53418 0.0
C5422 C 0.86755 0.92294 0.539 0.0
C5423 C 0.86993 0.9409 0.53462 0.0
C5424 C 0.85445 0.94724 0.52985 0.0
C5425 C 0.83686 0.93591 0.5297 0.0
C5426 C 0.88855 0.95304 0.53475 0.0
C5427 C 0.89328 0.96014 0.51848 0.0
C5428 C 0.90172 0.9572 0.55054 0.0
C5429 C 0.8973 0.95077 0.56835 0.0
C5430 C 0.8825 0.95478 0.57669 0.0
C5431 C 0.87834 0.94856 0.59341 0.0
C5432 C 0.88898 0.93843 0.60201 0.0
C5433 C 0.90382 0.93454 0.59392 0.0
C5434 C 0.90803 0.94071 0.57718 0.0
C5435 C 0.96321 0.01501 0.52614 0.0
C5436 C 0.97855 0.0083 0.53069 0.0
C5437 C 0.94555 0.00452 0.52749 0.0
C5438 C 0.94288 0.98704 0.53317 0.0
C5439 C 0.9582 0.98059 0.53831 0.0
C5440 C 0.97586 0.99111 0.5371 0.0
C5441 C 0.92413 0.97522 0.53327 0.0
C5442 C 0.91937 0.96816 0.54955 0.0
C5443 C 0.91095 0.97099 0.51746 0.0
C5444 C 0.91543 0.97704 0.4995 0.0
C5445 C 0.93007 0.97256 0.49121 0.0
C5446 C 0.93435 0.9785 0.47441 0.0
C5447 C 0.924 0.9888 0.46567 0.0
C5448 C 0.9093 0.99313 0.4737 0.0
C5449 C 0.90497 0.98725 0.49052 0.0
H5450 H 0.92734 0.99339 0.45267 0.0
H5451 H 0.88574 0.93364 0.61496 0.0
H5452 H 0.88119 0.0601 0.27981 0.0
H5453 H 0.86432 0.08376 0.28142 0.0
H5454 H 0.90905 0.1212 0.26204 0.0
H5455 H 0.9262 0.09762 0.26075 0.0
H5456 H 0.89538 0.13876 0.28876 0.0
H5457 H 0.87068 0.09881 0.23279 0.0
H5458 H 0.85727 0.06921 0.21318 0.0
H5459 H 0.81061 0.05974 0.24331 0.0
H5460 H 0.82388 0.08918 0.26329 0.0
H5461 H 0.84201 0.20099 0.26706 0.0
H5462 H 0.86093 0.17922 0.2645 0.0
H5463 H 0.81911 0.13859 0.28406 0.0
H5464 H 0.79978 0.15997 0.28597 0.0
H5465 H 0.83241 0.12359 0.2557 0.0
H5466 H 0.8583 0.16369 0.31241 0.0
H5467 H 0.8719 0.19374 0.33117 0.0
H5468 H 0.91652 0.20354 0.29835 0.0
H5469 H 0.90307 0.1736 0.27925 0.0
C5470 C 0.8875 0.07341 0.27602 0.0
C5471 C 0.90498 0.07696 0.27005 0.0
C5472 C 0.8778 0.0869 0.27685 0.0
C5473 C 0.88526 0.10417 0.27153 0.0
C5474 C 0.90298 0.10796 0.26614 0.0
C5475 C 0.91275 0.09447 0.26538 0.0
C5476 C 0.87435 0.11805 0.27123 0.0
C5477 C 0.88171 0.13553 0.28133 0.0
C5478 C 0.85643 0.11381 0.26168 0.0
C5479 C 0.84836 0.09613 0.24964 0.0
C5480 C 0.85763 0.09035 0.23533 0.0
C5481 C 0.85004 0.07361 0.22413 0.0
C5482 C 0.83312 0.06258 0.22703 0.0
C5483 C 0.82373 0.06829 0.2411 0.0
C5484 C 0.83127 0.08501 0.25235 0.0
C5485 C 0.83671 0.18739 0.27068 0.0
C5486 C 0.81939 0.1824 0.27698 0.0
C5487 C 0.84767 0.17499 0.26937 0.0
C5488 C 0.84159 0.15734 0.27438 0.0
C5489 C 0.82417 0.15217 0.28025 0.0
C5490 C 0.8132 0.16453 0.28153 0.0
C5491 C 0.85328 0.14418 0.2735 0.0
C5492 C 0.84609 0.12684 0.26312 0.0
C5493 C 0.87138 0.14861 0.28268 0.0
C5494 C 0.8796 0.16648 0.29431 0.0
C5495 C 0.87096 0.1723 0.30913 0.0
C5496 C 0.87865 0.1893 0.31983 0.0
C5497 C 0.89505 0.20056 0.31593 0.0
C5498 C 0.90381 0.19481 0.30135 0.0
C5499 C 0.89618 0.17781 0.2906 0.0
H5500 H 0.90098 0.21372 0.32423 0.0
H5501 H 0.82727 0.04963 0.21835 0.0
H5502 H 0.72628 0.11798 0.0694 0.0
H5503 H 0.69379 0.10179 0.06613 0.0
H5504 H 0.69727 0.07881 0.0107 0.0
H5505 H 0.72972 0.0951 0.01381 0.0
H5506 H 0.66899 0.09455 0.01229 0.0
H5507 H 0.69233 0.05175 0.0444 0.0
H5508 H 0.71037 0.04193 0.06919 0.0
H5509 H 0.67933 0.0617 0.10912 0.0
H5510 H 0.66126 0.07188 0.08461 0.0
H5511 H 0.57744 0.04034 0.99923 0.0
H5512 H 0.61087 0.04981 0.00167 0.0
H5513 H 0.61323 0.07008 0.05923 0.0
H5514 H 0.57983 0.05973 0.05707 0.0
H5515 H 0.63903 0.05363 0.0551 0.0
H5516 H 0.61752 0.09875 0.02365 0.0
H5517 H 0.59929 0.1087 0.99909 0.0
H5518 H 0.62696 0.08515 0.95823 0.0
H5519 H 0.64522 0.07487 0.98255 0.0
C5520 C 0.72018 0.10927 0.05662 0.0
C5521 C 0.73047 0.10783 0.04184 0.0
C5522 C 0.70165 0.09999 0.05479 0.0
C5523 C 0.69318 0.08906 0.0382 0.0
C5524 C 0.70358 0.0872 0.02361 0.0
C5525 C 0.7221 0.09646 0.02543 0.0
C5526 C 0.67323 0.08054 0.03568 0.0
C5527 C 0.66244 0.08535 0.02145 0.0
C5528 C 0.66474 0.0689 0.0479 0.0
C5529 C 0.67554 0.06271 0.06267 0.0
C5530 C 0.68944 0.05414 0.05849 0.0
C5531 C 0.69966 0.04848 0.07249 0.0
C5532 C 0.69603 0.05122 0.09072 0.0
C5533 C 0.68213 0.05959 0.09499 0.0
C5534 C 0.67189 0.06529 0.08105 0.0
C5535 C 0.58512 0.04681 0.0124 0.0
C5536 C 0.57611 0.04944 0.02795 0.0
C5537 C 0.6042 0.05227 0.01376 0.0
C5538 C 0.61454 0.06099 0.03055 0.0
C5539 C 0.60553 0.06339 0.04614 0.0
C5540 C 0.58647 0.05755 0.04489 0.0
C5541 C 0.63472 0.06785 0.03187 0.0
C5542 C 0.64557 0.06274 0.04586 0.0
C5543 C 0.64328 0.07933 0.01949 0.0
C5544 C 0.63262 0.08591 0.00491 0.0
C5545 C 0.61967 0.09564 0.00942 0.0
C5546 C 0.60933 0.10133 0.99555 0.0
C5547 C 0.61193 0.09752 0.97711 0.0
C5548 C 0.62495 0.08808 0.97252 0.0
C5549 C 0.63531 0.08234 0.98634 0.0
H5550 H 0.60388 0.1019 0.96639 0.0
H5551 H 0.70395 0.04683 0.10154 0.0
H5552 H 0.19327 0.50238 0.2935 0.0
H5553 H 0.21091 0.47997 0.2991 0.0
H5554 H 0.22614 0.48024 0.244 0.0
H5555 H 0.20881 0.50293 0.23839 0.0
H5556 H 0.2129 0.44413 0.25582 0.0
H5557 H 0.25684 0.50251 0.27417 0.0
H5558 H 0.26796 0.53374 0.29114 0.0
H5559 H 0.26353 0.51185 0.34253 0.0
H5560 H 0.25211 0.48048 0.32584 0.0
H5561 H 0.30229 0.41792 0.28728 0.0
H5562 H 0.28569 0.4408 0.28018 0.0
H5563 H 0.23673 0.40742 0.29701 0.0
H5564 H 0.25311 0.38434 0.30381 0.0
H5565 H 0.26789 0.46069 0.30247 0.0
H5566 H 0.19979 0.4118 0.26593 0.0
H5567 H 0.18845 0.38102 0.24802 0.0
H5568 H 0.24192 0.38405 0.23153 0.0
H5569 H 0.25347 0.41505 0.24891 0.0
C5570 C 0.20034 0.49762 0.28258 0.0
C5571 C 0.19976 0.50437 0.26554 0.0
C5572 C 0.2104 0.48489 0.28581 0.0
C5573 C 0.2198 0.4786 0.27196 0.0
C5574 C 0.21893 0.485 0.2548 0.0
C5575 C 0.20911 0.49796 0.25166 0.0
C5576 C 0.23076 0.46549 0.27552 0.0
C5577 C 0.22493 0.44767 0.26601 0.0
C5578 C 0.24649 0.47034 0.28869 0.0
C5579 C 0.25344 0.48917 0.29875 0.0
C5580 C 0.25808 0.50437 0.28909 0.0
C5581 C 0.26447 0.52209 0.29865 0.0
C5582 C 0.26641 0.52478 0.3179 0.0
C5583 C 0.262 0.50974 0.32762 0.0
C5584 C 0.25558 0.49199 0.31812 0.0
C5585 C 0.28799 0.4155 0.28947 0.0
C5586 C 0.27897 0.3994 0.29609 0.0
C5587 C 0.27858 0.42857 0.28549 0.0
C5588 C 0.25998 0.42563 0.28789 0.0
C5589 C 0.25103 0.40977 0.29488 0.0
C5590 C 0.26045 0.39673 0.29893 0.0
C5591 C 0.2499 0.43914 0.28297 0.0
C5592 C 0.25587 0.45707 0.29227 0.0
C5593 C 0.2343 0.43435 0.26955 0.0
C5594 C 0.22755 0.4157 0.25895 0.0
C5595 C 0.20911 0.40595 0.2584 0.0
C5596 C 0.20263 0.38849 0.24829 0.0
C5597 C 0.21447 0.38057 0.23869 0.0
C5598 C 0.23279 0.39016 0.23905 0.0
C5599 C 0.23931 0.4077 0.24904 0.0
H5600 H 0.20942 0.367 0.23096 0.0
H5601 H 0.27136 0.53852 0.32528 0.0
H5602 H 0.25907 0.43665 0.05085 0.0
H5603 H 0.23552 0.45357 0.05199 0.0
H5604 H 0.19381 0.40369 0.03176 0.0
H5605 H 0.21744 0.38668 0.03029 0.0
H5606 H 0.18864 0.43116 0.01387 0.0
H5607 H 0.19895 0.42287 0.07697 0.0
H5608 H 0.2171 0.42363 0.10676 0.0
H5609 H 0.23693 0.48218 0.11057 0.0
H5610 H 0.2191 0.48174 0.08067 0.0
H5611 H 0.11713 0.47489 0.02735 0.0
H5612 H 0.13676 0.45392 0.0307 0.0
H5613 H 0.18314 0.49994 0.05023 0.0
H5614 H 0.16342 0.52093 0.04766 0.0
H5615 H 0.18365 0.47193 0.06957 0.0
H5616 H 0.17559 0.47954 0.00511 0.0
H5617 H 0.15742 0.47877 0.97533 0.0
H5618 H 0.13316 0.42117 0.97437 0.0
H5619 H 0.15104 0.42166 0.00428 0.0
C5620 C 0.24488 0.42924 0.04674 0.0
C5621 C 0.2401 0.41032 0.04051 0.0
C5622 C 0.2314 0.43893 0.04749 0.0
C5623 C 0.21284 0.42987 0.0422 0.0
C5624 C 0.20803 0.41095 0.03597 0.0
C5625 C 0.22153 0.40125 0.03518 0.0
C5626 C 0.19863 0.44036 0.04254 0.0
C5627 C 0.18732 0.4398 0.02616 0.0
C5628 C 0.19709 0.45191 0.05846 0.0
C5629 C 0.20779 0.45225 0.07649 0.0
C5630 C 0.20729 0.43589 0.08409 0.0
C5631 C 0.2175 0.43627 0.10101 0.0
C5632 C 0.22819 0.45294 0.11053 0.0
C5633 C 0.22865 0.46927 0.10317 0.0
C5634 C 0.21848 0.46897 0.08625 0.0
C5635 C 0.13143 0.48053 0.03267 0.0
C5636 C 0.13873 0.49962 0.03709 0.0
C5637 C 0.14269 0.46853 0.03441 0.0
C5638 C 0.1615 0.47537 0.04043 0.0
C5639 C 0.16869 0.49435 0.04546 0.0
C5640 C 0.15743 0.50635 0.0438 0.0
C5641 C 0.1739 0.46291 0.04085 0.0
C5642 C 0.18486 0.46312 0.05736 0.0
C5643 C 0.17511 0.45102 0.02506 0.0
C5644 C 0.16451 0.45067 0.007 0.0
C5645 C 0.16629 0.46674 0.9986 0.0
C5646 C 0.15606 0.46635 0.98169 0.0
C5647 C 0.14411 0.44994 0.97298 0.0
C5648 C 0.14241 0.43388 0.98114 0.0
C5649 C 0.1526 0.43419 0.99806 0.0
H5650 H 0.13619 0.44967 0.9599 0.0
H5651 H 0.23608 0.4532 0.12363 0.0
H5652 H 0.87119 0.99059 0.24156 0.0
H5653 H 0.85011 0.96009 0.23933 0.0
H5654 H 0.89557 0.93759 0.2547 0.0
H5655 H 0.91672 0.96789 0.25631 0.0
H5656 H 0.87249 0.91418 0.22962 0.0
H5657 H 0.86717 0.94968 0.28634 0.0
H5658 H 0.86159 0.97607 0.30549 0.0
H5659 H 0.80712 0.96481 0.27719 0.0
H5660 H 0.81247 0.93848 0.25771 0.0
H5661 H 0.83273 0.83741 0.27126 0.0
H5662 H 0.84935 0.8674 0.26487 0.0
H5663 H 0.79856 0.87824 0.24395 0.0
H5664 H 0.7816 0.84804 0.25046 0.0
H5665 H 0.82129 0.9074 0.26808 0.0
H5666 H 0.82655 0.86845 0.21419 0.0
H5667 H 0.83301 0.84117 0.19755 0.0
H5668 H 0.88885 0.85825 0.2229 0.0
H5669 H 0.88267 0.88551 0.23992 0.0
C5670 C 0.8767 0.97908 0.24424 0.0
C5671 C 0.89559 0.98163 0.24923 0.0
C5672 C 0.86463 0.96168 0.24305 0.0
C5673 C 0.87119 0.94658 0.2472 0.0
C5674 C 0.89015 0.94901 0.25147 0.0
C5675 C 0.90224 0.96635 0.25242 0.0
C5676 C 0.85836 0.92843 0.24794 0.0
C5677 C 0.86136 0.91271 0.2381 0.0
C5678 C 0.84355 0.92647 0.2587 0.0
C5679 C 0.8403 0.94226 0.27043 0.0
C5680 C 0.85405 0.95292 0.28411 0.0
C5681 C 0.85093 0.96785 0.29504 0.0
C5682 C 0.83404 0.97215 0.29251 0.0
C5683 C 0.82021 0.96149 0.2791 0.0
C5684 C 0.82328 0.94656 0.26812 0.0
C5685 C 0.82499 0.84609 0.26529 0.0
C5686 C 0.80578 0.84028 0.26138 0.0
C5687 C 0.83458 0.86323 0.26154 0.0
C5688 C 0.82523 0.87495 0.25371 0.0
C5689 C 0.80604 0.86933 0.24991 0.0
C5690 C 0.79638 0.85207 0.2536 0.0
C5691 C 0.83566 0.89322 0.25003 0.0
C5692 C 0.83222 0.90893 0.25934 0.0
C5693 C 0.85021 0.89514 0.239 0.0
C5694 C 0.85411 0.87899 0.22841 0.0
C5695 C 0.84019 0.86636 0.21629 0.0
C5696 C 0.8438 0.85089 0.20678 0.0
C5697 C 0.86132 0.84796 0.20919 0.0
C5698 C 0.87528 0.86054 0.22105 0.0
C5699 C 0.87174 0.87602 0.2306 0.0
H5700 H 0.86408 0.83596 0.20185 0.0
H5701 H 0.83164 0.98371 0.30099 0.0
H5702 H 0.71849 0.08146 0.74777 0.0
H5703 H 0.73502 0.1137 0.74918 0.0
H5704 H 0.6836 0.12881 0.74472 0.0
H5705 H 0.667 0.09655 0.74272 0.0
H5706 H 0.70693 0.14959 0.7264 0.0
H5707 H 0.70807 0.13087 0.78675 0.0
H5708 H 0.71397 0.11165 0.81047 0.0
H5709 H 0.77131 0.12584 0.80416 0.0
H5710 H 0.76571 0.14495 0.78019 0.0
H5711 H 0.7542 0.23638 0.79621 0.0
H5712 H 0.73967 0.20357 0.7893 0.0
H5713 H 0.75814 0.20308 0.73545 0.0
H5714 H 0.77219 0.23608 0.74204 0.0
H5715 H 0.75167 0.17483 0.78221 0.0
H5716 H 0.72714 0.17142 0.70475 0.0
H5717 H 0.71825 0.19149 0.68325 0.0
H5718 H 0.70222 0.22323 0.72775 0.0
H5719 H 0.71079 0.2032 0.74946 0.0
C5720 C 0.71072 0.09164 0.7468 0.0
C5721 C 0.69149 0.08658 0.74534 0.0
C5722 C 0.72017 0.11004 0.74766 0.0
C5723 C 0.71054 0.12367 0.74742 0.0
C5724 C 0.6913 0.11851 0.74497 0.0
C5725 C 0.68183 0.10009 0.74389 0.0
C5726 C 0.72045 0.14334 0.75104 0.0
C5727 C 0.7168 0.15511 0.73854 0.0
C5728 C 0.73302 0.15059 0.76709 0.0
C5729 C 0.73644 0.13917 0.78155 0.0
C5730 C 0.72192 0.12978 0.79033 0.0
C5731 C 0.72521 0.11892 0.80383 0.0
C5732 C 0.743 0.11748 0.80878 0.0
C5733 C 0.75754 0.12694 0.80028 0.0
C5734 C 0.75431 0.13779 0.78674 0.0
C5735 C 0.75522 0.22929 0.78291 0.0
C5736 C 0.76422 0.23881 0.76962 0.0
C5737 C 0.74694 0.21052 0.77899 0.0
C5738 C 0.74762 0.20092 0.76178 0.0
C5739 C 0.75712 0.21029 0.74868 0.0
C5740 C 0.76519 0.22913 0.7525 0.0
C5741 C 0.73819 0.18114 0.75756 0.0
C5742 C 0.74195 0.16931 0.76996 0.0
C5743 C 0.72529 0.17398 0.74173 0.0
C5744 C 0.7198 0.18593 0.72874 0.0
C5745 C 0.72166 0.18264 0.70992 0.0
C5746 C 0.71668 0.19401 0.69771 0.0
C5747 C 0.70973 0.20866 0.70414 0.0
C5748 C 0.70767 0.21192 0.72279 0.0
C5749 C 0.7126 0.20057 0.73506 0.0
H5750 H 0.70592 0.21747 0.69466 0.0
H5751 H 0.74552 0.10907 0.81924 0.0
loop_
_geom_bond_atom_site_label_1
_geom_bond_atom_site_label_2
_geom_bond_distance
_geom_bond_site_symmetry_2
_ccdc_geom_bond_type
In0 O1 2.294 . S
In0 O2 2.326 . S
In0 O6 2.266 . S
In0 O7 2.355 . S
In0 O8 2.266 . S
In0 O9 2.326 . S
In0 O11 2.294 . S
In0 O12 2.326 . S
O1 In0 2.294 . S
O1 C10 1.240 . S
O2 In0 2.326 . S
O2 C10 1.252 . S
C3 O6 1.252 1_655 S
C3 O7 1.258 1_655 S
C4 O11 1.240 . S
C4 O12 1.252 . S
C5 O8 1.252 . S
C5 O9 1.260 . S
O6 In0 2.266 . S
O6 C3 1.252 1_455 S
O7 In0 2.355 . S
O7 C3 1.258 1_455 S
O8 In0 2.266 . S
O8 C5 1.252 . S
O9 In0 2.326 . S
O9 C5 1.260 . S
C10 O1 1.240 . S
C10 O2 1.252 . S
O11 In0 2.294 . S
O11 C4 1.240 . S
O12 In0 2.326 . S
O12 C4 1.252 . S
In13 O14 2.294 . S
In13 O15 2.326 . S
In13 O19 2.266 . S
In13 O20 2.326 . S
In13 O21 2.266 . S
In13 O22 2.326 1_455 S
In13 O24 2.294 . S
In13 O25 2.326 . S
O14 In13 2.294 . S
O14 C23 1.240 . S
O15 In13 2.326 . S
O15 C23 1.252 . S
C16 O19 1.252 . S
C16 O20 1.260 . S
C17 O24 1.240 . S
C17 O25 1.252 . S
C18 O21 1.252 1_655 S
C18 O22 1.260 . S
O19 In13 2.266 . S
O19 C16 1.252 . S
O20 In13 2.326 . S
O20 C16 1.260 . S
O21 In13 2.266 . S
O21 C18 1.252 1_455 S
O22 In13 2.326 1_655 S
O22 C18 1.260 . S
C23 O14 1.240 . S
C23 O15 1.252 . S
O24 In13 2.294 . S
O24 C17 1.240 . S
O25 In13 2.326 . S
O25 C17 1.252 . S
In26 O27 2.294 . S
In26 O28 2.326 . S
In26 O32 2.266 . S
In26 O33 2.326 . S
In26 O34 2.266 . S
In26 O35 2.326 . S
In26 O37 2.294 . S
In26 O38 2.326 . S
O27 In26 2.294 . S
O27 C36 1.240 . S
O28 In26 2.326 . S
O28 C36 1.252 . S
C29 O32 1.252 . S
C29 O33 1.260 . S
C30 O37 1.240 . S
C30 O38 1.252 . S
C31 O34 1.252 . S
C31 O35 1.260 . S
O32 In26 2.266 . S
O32 C29 1.252 . S
O33 In26 2.326 . S
O33 C29 1.260 . S
O34 In26 2.266 . S
O34 C31 1.252 . S
O35 In26 2.326 . S
O35 C31 1.260 . S
C36 O27 1.240 . S
C36 O28 1.252 . S
O37 In26 2.294 . S
O37 C30 1.240 . S
O38 In26 2.326 . S
O38 C30 1.252 . S
In39 O40 2.294 . S
In39 O41 2.326 . S
In39 O45 2.266 . S
In39 O46 2.326 . S
In39 O47 2.266 . S
In39 O48 2.326 . S
In39 O50 2.294 . S
In39 O51 2.326 . S
O40 In39 2.294 . S
O40 C49 1.240 . S
O41 In39 2.326 . S
O41 C49 1.252 . S
C42 O45 1.252 . S
C42 O46 1.260 . S
C43 O50 1.240 . S
C43 O51 1.252 . S
C44 O47 1.252 . S
C44 O48 1.260 . S
O45 In39 2.266 . S
O45 C42 1.252 . S
O46 In39 2.326 . S
O46 C42 1.260 . S
O47 In39 2.266 . S
O47 C44 1.252 . S
O48 In39 2.326 . S
O48 C44 1.260 . S
C49 O40 1.240 . S
C49 O41 1.252 . S
O50 In39 2.294 . S
O50 C43 1.240 . S
O51 In39 2.326 . S
O51 C43 1.252 . S
In52 O53 2.294 . S
In52 O54 2.326 . S
In52 O58 2.266 . S
In52 O59 2.326 . S
In52 O60 2.266 . S
In52 O61 2.326 . S
In52 O63 2.294 . S
In52 O64 2.326 . S
O53 In52 2.294 . S
O53 C62 1.240 . S
O54 In52 2.326 . S
O54 C62 1.252 . S
C55 O58 1.252 . S
C55 O59 1.260 . S
C56 O63 1.240 . S
C56 O64 1.252 . S
C57 O60 1.252 . S
C57 O61 1.260 . S
O58 In52 2.266 . S
O58 C55 1.252 . S
O59 In52 2.326 . S
O59 C55 1.260 . S
O60 In52 2.266 . S
O60 C57 1.252 . S
O61 In52 2.326 . S
O61 C57 1.260 . S
C62 O53 1.240 . S
C62 O54 1.252 . S
O63 In52 2.294 . S
O63 C56 1.240 . S
O64 In52 2.326 . S
O64 C56 1.252 . S
In65 O66 2.294 . S
In65 O67 2.326 . S
In65 O71 2.266 . S
In65 O72 2.326 . S
In65 O73 2.266 . S
In65 O74 2.326 . S
In65 O76 2.294 . S
In65 O77 2.326 . S
O66 In65 2.294 . S
O66 C75 1.240 . S
O67 In65 2.326 . S
O67 C75 1.252 . S
C68 O71 1.252 . S
C68 O72 1.260 . S
C69 O76 1.240 . S
C69 O77 1.252 . S
C70 O73 1.252 . S
C70 O74 1.260 . S
O71 In65 2.266 . S
O71 C68 1.252 . S
O72 In65 2.326 . S
O72 C68 1.260 . S
O73 In65 2.266 . S
O73 C70 1.252 . S
O74 In65 2.326 . S
O74 C70 1.260 . S
C75 O66 1.240 . S
C75 O67 1.252 . S
O76 In65 2.294 . S
O76 C69 1.240 . S
O77 In65 2.326 . S
O77 C69 1.252 . S
In78 O79 2.294 . S
In78 O80 2.326 . S
In78 O84 2.266 . S
In78 O85 2.326 . S
In78 O86 2.266 . S
In78 O87 2.326 . S
In78 O89 2.294 . S
In78 O90 2.326 . S
O79 In78 2.294 . S
O79 C88 1.240 . S
O80 In78 2.326 . S
O80 C88 1.252 . S
C81 O84 1.252 . S
C81 O85 1.260 . S
C82 O89 1.240 . S
C82 O90 1.252 . S
C83 O86 1.252 . S
C83 O87 1.260 . S
O84 In78 2.266 . S
O84 C81 1.252 . S
O85 In78 2.326 . S
O85 C81 1.260 . S
O86 In78 2.266 . S
O86 C83 1.252 . S
O87 In78 2.326 . S
O87 C83 1.260 . S
C88 O79 1.240 . S
C88 O80 1.252 . S
O89 In78 2.294 . S
O89 C82 1.240 . S
O90 In78 2.326 . S
O90 C82 1.252 . S
In91 O92 2.294 . S
In91 O93 2.327 1_455 S
In91 O97 2.276 . S
In91 O98 2.325 . S
In91 O99 2.264 1_455 S
In91 O100 2.323 1_455 S
In91 O102 2.296 . S
In91 O103 2.329 . S
O92 In91 2.294 . S
O92 C101 1.234 . S
O93 In91 2.327 1_655 S
O93 C101 1.251 1_655 S
C94 O97 1.250 . S
C94 O98 1.260 . S
C95 O102 1.240 . S
C95 O103 1.252 . S
C96 O99 1.252 . S
C96 O100 1.260 . S
O97 In91 2.276 . S
O97 C94 1.250 . S
O98 In91 2.325 . S
O98 C94 1.260 . S
O99 In91 2.264 1_655 S
O99 C96 1.252 . S
O100 In91 2.323 1_655 S
O100 C96 1.260 . S
C101 O92 1.234 . S
C101 O93 1.251 1_455 S
O102 In91 2.296 . S
O102 C95 1.240 . S
O103 In91 2.329 . S
O103 C95 1.252 . S
In104 O105 2.294 . S
In104 O106 2.326 . S
In104 O110 2.266 . S
In104 O111 2.326 . S
In104 O112 2.266 1_545 S
In104 O113 2.326 1_545 S
In104 O115 2.294 . S
In104 O116 2.326 . S
O105 In104 2.294 . S
O105 C114 1.240 . S
O106 In104 2.326 . S
O106 C114 1.252 . S
C107 O110 1.252 . S
C107 O111 1.260 . S
C108 O115 1.240 . S
C108 O116 1.252 . S
C109 O112 1.252 . S
C109 O113 1.260 . S
O110 In104 2.266 . S
O110 C107 1.252 . S
O111 In104 2.326 . S
O111 C107 1.260 . S
O112 In104 2.266 1_565 S
O112 C109 1.252 . S
O113 In104 2.326 1_565 S
O113 C109 1.260 . S
C114 O105 1.240 . S
C114 O106 1.252 . S
O115 In104 2.294 . S
O115 C108 1.240 . S
O116 In104 2.326 . S
O116 C108 1.252 . S
In117 O118 2.294 . S
In117 O119 2.326 . S
In117 O123 2.266 . S
In117 O124 2.326 . S
In117 O125 2.266 . S
In117 O126 2.326 . S
In117 O128 2.294 . S
In117 O129 2.326 . S
O118 In117 2.294 . S
O118 C127 1.240 . S
O119 In117 2.326 . S
O119 C127 1.252 . S
C120 O123 1.252 . S
C120 O124 1.260 . S
C121 O128 1.240 . S
C121 O129 1.252 . S
C122 O125 1.252 . S
C122 O126 1.260 . S
O123 In117 2.266 . S
O123 C120 1.252 . S
O124 In117 2.326 . S
O124 C120 1.260 . S
O125 In117 2.266 . S
O125 C122 1.252 . S
O126 In117 2.326 . S
O126 C122 1.260 . S
C127 O118 1.240 . S
C127 O119 1.252 . S
O128 In117 2.294 . S
O128 C121 1.240 . S
O129 In117 2.326 . S
O129 C121 1.252 . S
In130 O131 2.294 . S
In130 O132 2.326 . S
In130 O136 2.266 . S
In130 O137 2.326 . S
In130 O138 2.266 . S
In130 O139 2.326 . S
In130 O141 2.294 . S
In130 O142 2.326 . S
O131 In130 2.294 . S
O131 C140 1.240 . S
O132 In130 2.326 . S
O132 C140 1.252 . S
C133 O136 1.252 . S
C133 O137 1.260 . S
C134 O141 1.240 . S
C134 O142 1.252 . S
C135 O138 1.252 . S
C135 O139 1.260 . S
O136 In130 2.266 . S
O136 C133 1.252 . S
O137 In130 2.326 . S
O137 C133 1.260 . S
O138 In130 2.266 . S
O138 C135 1.252 . S
O139 In130 2.326 . S
O139 C135 1.260 . S
C140 O131 1.240 . S
C140 O132 1.252 . S
O141 In130 2.294 . S
O141 C134 1.240 . S
O142 In130 2.326 . S
O142 C134 1.252 . S
In143 O144 2.296 . S
In143 O145 2.329 . S
In143 O149 2.264 1_554 S
In143 O150 2.322 1_554 S
In143 O151 2.266 1_554 S
In143 O152 2.323 1_554 S
In143 O154 2.294 . S
In143 O155 2.327 . S
O144 In143 2.296 . S
O144 C153 1.240 . S
O145 In143 2.329 . S
O145 C153 1.252 . S
C146 O149 1.252 . S
C146 O150 1.260 . S
C147 O154 1.240 . S
C147 O155 1.252 . S
C148 O151 1.253 . S
C148 O152 1.256 . S
O149 In143 2.264 1_556 S
O149 C146 1.252 . S
O150 In143 2.322 1_556 S
O150 C146 1.260 . S
O151 In143 2.266 1_556 S
O151 C148 1.253 . S
O152 In143 2.323 1_556 S
O152 C148 1.256 . S
C153 O144 1.240 . S
C153 O145 1.252 . S
O154 In143 2.294 . S
O154 C147 1.240 . S
O155 In143 2.327 . S
O155 C147 1.252 . S
In156 O157 2.294 . S
In156 O158 2.326 . S
In156 O162 2.266 . S
In156 O163 2.326 1_554 S
In156 O164 2.266 . S
In156 O165 2.326 . S
In156 O167 2.294 . S
In156 O168 2.326 . S
O157 In156 2.294 . S
O157 C166 1.240 . S
O158 In156 2.326 . S
O158 C166 1.252 . S
C159 O162 1.252 1_556 S
C159 O163 1.260 . S
C160 O167 1.240 . S
C160 O168 1.252 . S
C161 O164 1.252 . S
C161 O165 1.260 . S
O162 In156 2.266 . S
O162 C159 1.252 1_554 S
O163 In156 2.326 1_556 S
O163 C159 1.260 . S
O164 In156 2.266 . S
O164 C161 1.252 . S
O165 In156 2.326 . S
O165 C161 1.260 . S
C166 O157 1.240 . S
C166 O158 1.252 . S
O167 In156 2.294 . S
O167 C160 1.240 . S
O168 In156 2.326 . S
O168 C160 1.252 . S
In169 O170 2.294 . S
In169 O171 2.326 . S
In169 O175 2.266 . S
In169 O176 2.326 . S
In169 O177 2.266 . S
In169 O178 2.326 . S
In169 O180 2.294 . S
In169 O181 2.326 . S
O170 In169 2.294 . S
O170 C179 1.240 . S
O171 In169 2.326 . S
O171 C179 1.252 . S
C172 O175 1.252 . S
C172 O176 1.260 . S
C173 O180 1.240 . S
C173 O181 1.252 . S
C174 O177 1.252 . S
C174 O178 1.260 . S
O175 In169 2.266 . S
O175 C172 1.252 . S
O176 In169 2.326 . S
O176 C172 1.260 . S
O177 In169 2.266 . S
O177 C174 1.252 . S
O178 In169 2.326 . S
O178 C174 1.260 . S
C179 O170 1.240 . S
C179 O171 1.252 . S
O180 In169 2.294 . S
O180 C173 1.240 . S
O181 In169 2.326 . S
O181 C173 1.252 . S
In182 O183 2.294 . S
In182 O184 2.326 . S
In182 O188 2.266 . S
In182 O189 2.326 . S
In182 O190 2.266 . S
In182 O191 2.326 . S
In182 O193 2.294 . S
In182 O194 2.326 . S
O183 In182 2.294 . S
O183 C192 1.240 . S
O184 In182 2.326 . S
O184 C192 1.252 . S
C185 O188 1.252 . S
C185 O189 1.260 . S
C186 O193 1.240 . S
C186 O194 1.252 . S
C187 O190 1.252 . S
C187 O191 1.260 . S
O188 In182 2.266 . S
O188 C185 1.252 . S
O189 In182 2.326 . S
O189 C185 1.260 . S
O190 In182 2.266 . S
O190 C187 1.252 . S
O191 In182 2.326 . S
O191 C187 1.260 . S
C192 O183 1.240 . S
C192 O184 1.252 . S
O193 In182 2.294 . S
O193 C186 1.240 . S
O194 In182 2.326 . S
O194 C186 1.252 . S
In195 O196 2.294 . S
In195 O197 2.326 . S
In195 O201 2.266 . S
In195 O202 2.326 . S
In195 O203 2.266 . S
In195 O204 2.326 . S
In195 O206 2.294 . S
In195 O207 2.326 . S
O196 In195 2.294 . S
O196 C205 1.240 . S
O197 In195 2.326 . S
O197 C205 1.252 . S
C198 O201 1.252 . S
C198 O202 1.260 . S
C199 O206 1.240 . S
C199 O207 1.252 . S
C200 O203 1.252 . S
C200 O204 1.260 . S
O201 In195 2.266 . S
O201 C198 1.252 . S
O202 In195 2.326 . S
O202 C198 1.260 . S
O203 In195 2.266 . S
O203 C200 1.252 . S
O204 In195 2.326 . S
O204 C200 1.260 . S
C205 O196 1.240 . S
C205 O197 1.252 . S
O206 In195 2.294 . S
O206 C199 1.240 . S
O207 In195 2.326 . S
O207 C199 1.252 . S
In208 O209 2.294 . S
In208 O210 2.326 . S
In208 O214 2.266 . S
In208 O215 2.326 . S
In208 O216 2.266 . S
In208 O217 2.278 1_545 S
In208 O219 2.294 . S
In208 O220 2.326 . S
O209 In208 2.294 . S
O209 C218 1.240 . S
O210 In208 2.326 . S
O210 C218 1.252 . S
C211 O214 1.252 . S
C211 O215 1.260 . S
C212 O219 1.240 . S
C212 O220 1.252 . S
C213 O216 1.252 1_565 S
C213 O217 1.263 . S
O214 In208 2.266 . S
O214 C211 1.252 . S
O215 In208 2.326 . S
O215 C211 1.260 . S
O216 In208 2.266 . S
O216 C213 1.252 1_545 S
O217 In208 2.278 1_565 S
O217 C213 1.263 . S
C218 O209 1.240 . S
C218 O210 1.252 . S
O219 In208 2.294 . S
O219 C212 1.240 . S
O220 In208 2.326 . S
O220 C212 1.252 . S
In221 O222 2.294 . S
In221 O223 2.326 . S
In221 O227 2.266 . S
In221 O228 2.326 . S
In221 O229 2.266 . S
In221 O230 2.326 . S
In221 O232 2.294 . S
In221 O233 2.326 . S
O222 In221 2.294 . S
O222 C231 1.240 . S
O223 In221 2.326 . S
O223 C231 1.252 . S
C224 O227 1.252 . S
C224 O228 1.260 . S
C225 O232 1.240 . S
C225 O233 1.252 . S
C226 O229 1.252 . S
C226 O230 1.260 . S
O227 In221 2.266 . S
O227 C224 1.252 . S
O228 In221 2.326 . S
O228 C224 1.260 . S
O229 In221 2.266 . S
O229 C226 1.252 . S
O230 In221 2.326 . S
O230 C226 1.260 . S
C231 O222 1.240 . S
C231 O223 1.252 . S
O232 In221 2.294 . S
O232 C225 1.240 . S
O233 In221 2.326 . S
O233 C225 1.252 . S
In234 O235 2.294 . S
In234 O236 2.326 . S
In234 O240 2.266 . S
In234 O241 2.326 . S
In234 O242 2.266 . S
In234 O243 2.326 . S
In234 O245 2.294 . S
In234 O246 2.326 . S
O235 In234 2.294 . S
O235 C244 1.240 . S
O236 In234 2.326 . S
O236 C244 1.252 . S
C237 O240 1.252 . S
C237 O241 1.260 . S
C238 O245 1.240 . S
C238 O246 1.252 . S
C239 O242 1.252 . S
C239 O243 1.260 . S
O240 In234 2.266 . S
O240 C237 1.252 . S
O241 In234 2.326 . S
O241 C237 1.260 . S
O242 In234 2.266 . S
O242 C239 1.252 . S
O243 In234 2.326 . S
O243 C239 1.260 . S
C244 O235 1.240 . S
C244 O236 1.252 . S
O245 In234 2.294 . S
O245 C238 1.240 . S
O246 In234 2.326 . S
O246 C238 1.252 . S
In247 O248 2.294 . S
In247 O249 2.326 . S
In247 O253 2.266 . S
In247 O254 2.326 . S
In247 O255 2.266 . S
In247 O256 2.326 . S
In247 O258 2.294 . S
In247 O259 2.326 . S
O248 In247 2.294 . S
O248 C257 1.240 . S
O249 In247 2.326 . S
O249 C257 1.252 . S
C250 O253 1.252 . S
C250 O254 1.260 . S
C251 O258 1.240 . S
C251 O259 1.252 . S
C252 O255 1.252 . S
C252 O256 1.260 . S
O253 In247 2.266 . S
O253 C250 1.252 . S
O254 In247 2.326 . S
O254 C250 1.260 . S
O255 In247 2.266 . S
O255 C252 1.252 . S
O256 In247 2.326 . S
O256 C252 1.260 . S
C257 O248 1.240 . S
C257 O249 1.252 . S
O258 In247 2.294 . S
O258 C251 1.240 . S
O259 In247 2.326 . S
O259 C251 1.252 . S
In260 O261 2.294 . S
In260 O262 2.326 . S
In260 O266 2.266 . S
In260 O267 2.326 . S
In260 O268 2.298 . S
In260 O269 2.326 1_554 S
In260 O271 2.294 . S
In260 O272 2.326 . S
O261 In260 2.294 . S
O261 C270 1.240 . S
O262 In260 2.326 . S
O262 C270 1.252 . S
C263 O266 1.252 . S
C263 O267 1.260 . S
C264 O271 1.240 . S
C264 O272 1.252 . S
C265 O268 1.216 1_556 S
C265 O269 1.260 . S
O266 In260 2.266 . S
O266 C263 1.252 . S
O267 In260 2.326 . S
O267 C263 1.260 . S
O268 In260 2.298 . S
O268 C265 1.216 1_554 S
O269 In260 2.326 1_556 S
O269 C265 1.260 . S
C270 O261 1.240 . S
C270 O262 1.252 . S
O271 In260 2.294 . S
O271 C264 1.240 . S
O272 In260 2.326 . S
O272 C264 1.252 . S
In273 O274 2.294 . S
In273 O275 2.326 . S
In273 O279 2.266 . S
In273 O280 2.326 . S
In273 O281 2.266 . S
In273 O282 2.326 . S
In273 O284 2.294 . S
In273 O285 2.326 . S
O274 In273 2.294 . S
O274 C283 1.240 . S
O275 In273 2.326 . S
O275 C283 1.252 . S
C276 O279 1.252 . S
C276 O280 1.260 . S
C277 O284 1.240 . S
C277 O285 1.252 . S
C278 O281 1.252 . S
C278 O282 1.260 . S
O279 In273 2.266 . S
O279 C276 1.252 . S
O280 In273 2.326 . S
O280 C276 1.260 . S
O281 In273 2.266 . S
O281 C278 1.252 . S
O282 In273 2.326 . S
O282 C278 1.260 . S
C283 O274 1.240 . S
C283 O275 1.252 . S
O284 In273 2.294 . S
O284 C277 1.240 . S
O285 In273 2.326 . S
O285 C277 1.252 . S
In286 O287 2.294 . S
In286 O288 2.326 . S
In286 O292 2.266 . S
In286 O293 2.326 . S
In286 O294 2.266 . S
In286 O295 2.326 . S
In286 O297 2.294 . S
In286 O298 2.326 . S
O287 In286 2.294 . S
O287 C296 1.240 . S
O288 In286 2.326 . S
O288 C296 1.252 . S
C289 O292 1.252 . S
C289 O293 1.260 . S
C290 O297 1.240 . S
C290 O298 1.252 . S
C291 O294 1.252 . S
C291 O295 1.260 . S
O292 In286 2.266 . S
O292 C289 1.252 . S
O293 In286 2.326 . S
O293 C289 1.260 . S
O294 In286 2.266 . S
O294 C291 1.252 . S
O295 In286 2.326 . S
O295 C291 1.260 . S
C296 O287 1.240 . S
C296 O288 1.252 . S
O297 In286 2.294 . S
O297 C290 1.240 . S
O298 In286 2.326 . S
O298 C290 1.252 . S
In299 O300 2.294 . S
In299 O301 2.326 . S
In299 O305 2.266 . S
In299 O306 2.326 . S
In299 O307 2.266 . S
In299 O308 2.326 . S
In299 O310 2.294 . S
In299 O311 2.326 . S
O300 In299 2.294 . S
O300 C309 1.240 . S
O301 In299 2.326 . S
O301 C309 1.252 . S
C302 O305 1.252 . S
C302 O306 1.260 . S
C303 O310 1.240 . S
C303 O311 1.252 . S
C304 O307 1.252 . S
C304 O308 1.260 . S
O305 In299 2.266 . S
O305 C302 1.252 . S
O306 In299 2.326 . S
O306 C302 1.260 . S
O307 In299 2.266 . S
O307 C304 1.252 . S
O308 In299 2.326 . S
O308 C304 1.260 . S
C309 O300 1.240 . S
C309 O301 1.252 . S
O310 In299 2.294 . S
O310 C303 1.240 . S
O311 In299 2.326 . S
O311 C303 1.252 . S
Dy312 O315 2.307 . S
Dy312 O317 2.395 . S
Dy312 O318 2.379 . S
Dy312 O320 2.339 . S
Dy312 O322 2.298 . S
Dy312 O326 2.275 . S
Dy312 C334 2.738 . S
Dy313 O316 2.298 . S
Dy313 O319 2.275 . S
Dy313 O321 2.307 . S
Dy313 O323 2.395 1_455 S
Dy313 O324 2.379 1_455 S
Dy313 O327 2.339 1_554 S
Dy313 C343 2.738 1_455 S
C314 O326 1.254 . S
C314 O327 1.257 1_554 S
O315 Dy312 2.307 . S
O315 C325 1.266 . S
O316 Dy313 2.298 . S
O316 C325 1.236 . S
O317 Dy312 2.395 . S
O317 C334 1.255 . S
O318 Dy312 2.379 . S
O318 C334 1.249 . S
O319 Dy313 2.275 . S
O319 C335 1.254 . S
O320 Dy312 2.339 . S
O320 C335 1.257 . S
O321 Dy313 2.307 . S
O321 C336 1.266 . S
O322 Dy312 2.298 . S
O322 C336 1.236 . S
O323 Dy313 2.395 1_655 S
O323 C343 1.255 . S
O324 Dy313 2.379 1_655 S
O324 C343 1.249 . S
C325 O315 1.266 . S
C325 O316 1.236 . S
O326 Dy312 2.275 . S
O326 C314 1.254 . S
O327 Dy313 2.339 1_556 S
O327 C314 1.257 1_556 S
C328 C331 1.344 . S
C328 C332 1.328 . S
C328 C334 1.516 . S
C329 C330 1.304 . S
C329 C333 1.323 . S
C330 C329 1.304 . S
C330 C331 1.371 . S
C330 H344 0.930 . S
C331 C328 1.344 . S
C331 C330 1.371 . S
C331 H345 0.931 . S
C332 C328 1.328 . S
C332 C333 1.433 . S
C332 H346 0.931 . S
C333 C329 1.323 . S
C333 C332 1.433 . S
C333 H347 0.933 . S
C334 Dy312 2.738 . S
C334 O317 1.255 . S
C334 O318 1.249 . S
C334 C328 1.516 . S
C335 O319 1.254 . S
C335 O320 1.257 . S
C336 O321 1.266 . S
C336 O322 1.236 . S
C337 C340 1.344 . S
C337 C341 1.328 . S
C337 C343 1.516 . S
C338 C339 1.304 . S
C338 C342 1.323 . S
C339 C338 1.304 . S
C339 C340 1.371 . S
C339 H348 0.930 . S
C340 C337 1.344 . S
C340 C339 1.371 . S
C340 H349 0.931 . S
C341 C337 1.328 . S
C341 C342 1.433 . S
C341 H350 0.931 1_554 S
C342 C338 1.323 . S
C342 C341 1.433 . S
C342 H351 0.933 1_554 S
C343 Dy313 2.738 1_655 S
C343 O323 1.255 . S
C343 O324 1.249 . S
C343 C337 1.516 . S
H344 C330 0.930 . S
H345 C331 0.931 . S
H346 C332 0.931 . S
H347 C333 0.933 . S
H348 C339 0.930 . S
H349 C340 0.931 . S
H350 C341 0.931 1_556 S
H351 C342 0.933 1_556 S
Dy352 O355 2.307 . S
Dy352 O357 2.395 . S
Dy352 O358 2.379 . S
Dy352 O360 2.339 . S
Dy352 O362 2.298 . S
Dy352 O366 2.275 . S
Dy352 C374 2.738 . S
Dy353 O356 2.298 . S
Dy353 O359 2.275 . S
Dy353 O361 2.307 . S
Dy353 O363 2.395 . S
Dy353 O364 2.379 . S
Dy353 O367 2.339 . S
Dy353 C383 2.738 . S
C354 O366 1.254 . S
C354 O367 1.257 . S
O355 Dy352 2.307 . S
O355 C365 1.266 . S
O356 Dy353 2.298 . S
O356 C365 1.236 . S
O357 Dy352 2.395 . S
O357 C374 1.255 . S
O358 Dy352 2.379 . S
O358 C374 1.249 . S
O359 Dy353 2.275 . S
O359 C375 1.254 . S
O360 Dy352 2.339 . S
O360 C375 1.257 . S
O361 Dy353 2.307 . S
O361 C376 1.266 . S
O362 Dy352 2.298 . S
O362 C376 1.236 . S
O363 Dy353 2.395 . S
O363 C383 1.255 . S
O364 Dy353 2.379 . S
O364 C383 1.249 . S
C365 O355 1.266 . S
C365 O356 1.236 . S
O366 Dy352 2.275 . S
O366 C354 1.254 . S
O367 Dy353 2.339 . S
O367 C354 1.257 . S
C368 C371 1.344 . S
C368 C372 1.328 . S
C368 C374 1.516 . S
C369 C370 1.304 . S
C369 C373 1.323 . S
C370 C369 1.304 . S
C370 C371 1.371 . S
C370 H384 0.930 . S
C371 C368 1.344 . S
C371 C370 1.371 . S
C371 H385 0.931 . S
C372 C368 1.328 . S
C372 C373 1.433 . S
C372 H386 0.931 . S
C373 C369 1.323 . S
C373 C372 1.433 . S
C373 H387 0.933 . S
C374 Dy352 2.738 . S
C374 O357 1.255 . S
C374 O358 1.249 . S
C374 C368 1.516 . S
C375 O359 1.254 . S
C375 O360 1.257 . S
C376 O361 1.266 . S
C376 O362 1.236 . S
C377 C380 1.344 . S
C377 C381 1.328 . S
C377 C383 1.516 . S
C378 C379 1.304 . S
C378 C382 1.323 . S
C379 C378 1.304 . S
C379 C380 1.371 . S
C379 H388 0.930 . S
C380 C377 1.344 . S
C380 C379 1.371 . S
C380 H389 0.931 . S
C381 C377 1.328 . S
C381 C382 1.433 . S
C381 H390 0.931 . S
C382 C378 1.323 . S
C382 C381 1.433 . S
C382 H391 0.933 . S
C383 Dy353 2.738 . S
C383 O363 1.255 . S
C383 O364 1.249 . S
C383 C377 1.516 . S
H384 C370 0.930 . S
H385 C371 0.931 . S
H386 C372 0.931 . S
H387 C373 0.933 . S
H388 C379 0.930 . S
H389 C380 0.931 . S
H390 C381 0.931 . S
H391 C382 0.933 . S
Dy392 O395 2.307 1_545 S
Dy392 O397 2.395 . S
Dy392 O398 2.379 . S
Dy392 O400 2.339 . S
Dy392 O402 2.298 . S
Dy392 O406 2.275 . S
Dy392 C414 2.738 . S
Dy393 O396 2.298 1_545 S
Dy393 O399 2.275 . S
Dy393 O401 2.307 . S
Dy393 O403 2.395 . S
Dy393 O404 2.379 . S
Dy393 O407 2.339 . S
Dy393 C423 2.738 . S
C394 O406 1.254 . S
C394 O407 1.257 . S
O395 Dy392 2.307 1_565 S
O395 C405 1.266 . S
O396 Dy393 2.298 1_565 S
O396 C405 1.236 . S
O397 Dy392 2.395 . S
O397 C414 1.255 . S
O398 Dy392 2.379 . S
O398 C414 1.249 . S
O399 Dy393 2.275 . S
O399 C415 1.254 . S
O400 Dy392 2.339 . S
O400 C415 1.257 . S
O401 Dy393 2.307 . S
O401 C416 1.266 . S
O402 Dy392 2.298 . S
O402 C416 1.236 . S
O403 Dy393 2.395 . S
O403 C423 1.255 . S
O404 Dy393 2.379 . S
O404 C423 1.249 . S
C405 O395 1.266 . S
C405 O396 1.236 . S
O406 Dy392 2.275 . S
O406 C394 1.254 . S
O407 Dy393 2.339 . S
O407 C394 1.257 . S
C408 C411 1.344 . S
C408 C412 1.328 . S
C408 C414 1.516 . S
C409 C410 1.304 . S
C409 C413 1.323 . S
C410 C409 1.304 . S
C410 C411 1.371 . S
C410 H424 0.930 . S
C411 C408 1.344 . S
C411 C410 1.371 . S
C411 H425 0.931 . S
C412 C408 1.328 . S
C412 C413 1.433 . S
C412 H426 0.931 . S
C413 C409 1.323 . S
C413 C412 1.433 . S
C413 H427 0.933 . S
C414 Dy392 2.738 . S
C414 O397 1.255 . S
C414 O398 1.249 . S
C414 C408 1.516 . S
C415 O399 1.254 . S
C415 O400 1.257 . S
C416 O401 1.266 . S
C416 O402 1.236 . S
C417 C420 1.344 . S
C417 C421 1.328 . S
C417 C423 1.516 1_565 S
C418 C419 1.304 . S
C418 C422 1.323 . S
C419 C418 1.304 . S
C419 C420 1.371 . S
C419 H428 0.930 . S
C420 C417 1.344 . S
C420 C419 1.371 . S
C420 H429 0.931 . S
C421 C417 1.328 . S
C421 C422 1.433 . S
C421 H430 0.954 . S
C422 C418 1.323 . S
C422 C421 1.433 . S
C422 H431 0.933 . S
C423 Dy393 2.738 . S
C423 O403 1.255 . S
C423 O404 1.249 . S
C423 C417 1.516 1_545 S
H424 C410 0.930 . S
H425 C411 0.931 . S
H426 C412 0.931 . S
H427 C413 0.933 . S
H428 C419 0.930 . S
H429 C420 0.931 . S
H430 C421 0.954 . S
H431 C422 0.933 . S
Dy432 O435 2.307 . S
Dy432 O437 2.395 . S
Dy432 O438 2.379 . S
Dy432 O440 2.339 . S
Dy432 O442 2.298 . S
Dy432 O446 2.275 . S
Dy432 C454 2.738 . S
Dy433 O436 2.298 . S
Dy433 O439 2.275 . S
Dy433 O441 2.307 . S
Dy433 O443 2.395 . S
Dy433 O444 2.379 . S
Dy433 O447 2.339 . S
Dy433 C463 2.738 . S
C434 O446 1.254 . S
C434 O447 1.257 . S
O435 Dy432 2.307 . S
O435 C445 1.266 . S
O436 Dy433 2.298 . S
O436 C445 1.236 . S
O437 Dy432 2.395 . S
O437 C454 1.255 . S
O438 Dy432 2.379 . S
O438 C454 1.249 . S
O439 Dy433 2.275 . S
O439 C455 1.254 . S
O440 Dy432 2.339 . S
O440 C455 1.257 . S
O441 Dy433 2.307 . S
O441 C456 1.266 . S
O442 Dy432 2.298 . S
O442 C456 1.236 . S
O443 Dy433 2.395 . S
O443 C463 1.255 . S
O444 Dy433 2.379 . S
O444 C463 1.249 . S
C445 O435 1.266 . S
C445 O436 1.236 . S
O446 Dy432 2.275 . S
O446 C434 1.254 . S
O447 Dy433 2.339 . S
O447 C434 1.257 . S
C448 C451 1.344 . S
C448 C452 1.328 . S
C448 C454 1.516 . S
C449 C450 1.304 . S
C449 C453 1.323 . S
C450 C449 1.304 . S
C450 C451 1.371 . S
C450 H464 0.930 . S
C451 C448 1.344 . S
C451 C450 1.371 . S
C451 H465 0.931 . S
C452 C448 1.328 . S
C452 C453 1.433 . S
C452 H466 0.931 . S
C453 C449 1.323 . S
C453 C452 1.433 . S
C453 H467 0.933 . S
C454 Dy432 2.738 . S
C454 O437 1.255 . S
C454 O438 1.249 . S
C454 C448 1.516 . S
C455 O439 1.254 . S
C455 O440 1.257 . S
C456 O441 1.266 . S
C456 O442 1.236 . S
C457 C460 1.344 . S
C457 C461 1.328 . S
C457 C463 1.516 . S
C458 C459 1.304 . S
C458 C462 1.323 . S
C459 C458 1.304 . S
C459 C460 1.371 . S
C459 H468 0.930 . S
C460 C457 1.344 . S
C460 C459 1.371 . S
C460 H469 0.931 . S
C461 C457 1.328 . S
C461 C462 1.433 . S
C461 H470 0.931 . S
C462 C458 1.323 . S
C462 C461 1.433 . S
C462 H471 0.933 . S
C463 Dy433 2.738 . S
C463 O443 1.255 . S
C463 O444 1.249 . S
C463 C457 1.516 . S
H464 C450 0.930 . S
H465 C451 0.931 . S
H466 C452 0.931 . S
H467 C453 0.933 . S
H468 C459 0.930 . S
H469 C460 0.931 . S
H470 C461 0.931 . S
H471 C462 0.933 . S
Dy472 O475 2.307 . S
Dy472 O477 2.395 1_545 S
Dy472 O478 2.379 1_545 S
Dy472 O480 2.339 . S
Dy472 O482 2.298 . S
Dy472 O486 2.275 . S
Dy472 C494 2.738 1_545 S
Dy473 O476 2.298 . S
Dy473 O479 2.275 . S
Dy473 O481 2.307 . S
Dy473 O483 2.395 . S
Dy473 O484 2.379 . S
Dy473 O487 2.302 1_455 S
Dy473 C503 2.738 . S
C474 O486 1.254 . S
C474 O487 1.241 1_455 S
O475 Dy472 2.307 . S
O475 C485 1.266 . S
O476 Dy473 2.298 . S
O476 C485 1.236 . S
O477 Dy472 2.395 1_565 S
O477 C494 1.255 . S
O478 Dy472 2.379 1_565 S
O478 C494 1.249 . S
O479 Dy473 2.275 . S
O479 C495 1.254 . S
O480 Dy472 2.339 . S
O480 C495 1.257 . S
O481 Dy473 2.307 . S
O481 C496 1.266 . S
O482 Dy472 2.298 . S
O482 C496 1.236 . S
O483 Dy473 2.395 . S
O483 C503 1.255 . S
O484 Dy473 2.379 . S
O484 C503 1.249 . S
C485 O475 1.266 . S
C485 O476 1.236 . S
O486 Dy472 2.275 . S
O486 C474 1.254 . S
O487 Dy473 2.302 1_655 S
O487 C474 1.241 1_655 S
C488 C491 1.344 . S
C488 C492 1.328 . S
C488 C494 1.516 . S
C489 C490 1.304 . S
C489 C493 1.323 . S
C490 C489 1.304 . S
C490 C491 1.371 . S
C490 H504 0.930 . S
C491 C488 1.344 . S
C491 C490 1.371 . S
C491 H505 0.931 . S
C492 C488 1.328 . S
C492 C493 1.433 . S
C492 H506 0.931 . S
C493 C489 1.323 . S
C493 C492 1.433 . S
C493 H507 0.933 . S
C494 Dy472 2.738 1_565 S
C494 O477 1.255 . S
C494 O478 1.249 . S
C494 C488 1.516 . S
C495 O479 1.254 . S
C495 O480 1.257 . S
C496 O481 1.266 . S
C496 O482 1.236 . S
C497 C500 1.344 . S
C497 C501 1.328 . S
C497 C503 1.516 . S
C498 C499 1.304 . S
C498 C502 1.323 . S
C499 C498 1.304 . S
C499 C500 1.371 . S
C499 H508 0.930 . S
C500 C497 1.344 . S
C500 C499 1.371 . S
C500 H509 0.931 . S
C501 C497 1.328 . S
C501 C502 1.433 . S
C501 H510 0.931 1_455 S
C502 C498 1.323 . S
C502 C501 1.433 . S
C502 H511 0.933 1_455 S
C503 Dy473 2.738 . S
C503 O483 1.255 . S
C503 O484 1.249 . S
C503 C497 1.516 . S
H504 C490 0.930 . S
H505 C491 0.931 . S
H506 C492 0.931 . S
H507 C493 0.933 . S
H508 C499 0.930 . S
H509 C500 0.931 . S
H510 C501 0.931 1_655 S
H511 C502 0.933 1_655 S
Dy512 O515 2.307 . S
Dy512 O517 2.395 . S
Dy512 O518 2.379 . S
Dy512 O520 2.339 . S
Dy512 O522 2.298 . S
Dy512 O526 2.275 . S
Dy512 C534 2.738 . S
Dy513 O516 2.298 . S
Dy513 O519 2.275 . S
Dy513 O521 2.307 . S
Dy513 O523 2.395 . S
Dy513 O524 2.379 . S
Dy513 O527 2.339 . S
Dy513 C543 2.738 . S
C514 O526 1.254 . S
C514 O527 1.257 . S
O515 Dy512 2.307 . S
O515 C525 1.266 . S
O516 Dy513 2.298 . S
O516 C525 1.236 . S
O517 Dy512 2.395 . S
O517 C534 1.255 . S
O518 Dy512 2.379 . S
O518 C534 1.249 . S
O519 Dy513 2.275 . S
O519 C535 1.254 . S
O520 Dy512 2.339 . S
O520 C535 1.257 . S
O521 Dy513 2.307 . S
O521 C536 1.266 . S
O522 Dy512 2.298 . S
O522 C536 1.236 . S
O523 Dy513 2.395 . S
O523 C543 1.255 . S
O524 Dy513 2.379 . S
O524 C543 1.249 . S
C525 O515 1.266 . S
C525 O516 1.236 . S
O526 Dy512 2.275 . S
O526 C514 1.254 . S
O527 Dy513 2.339 . S
O527 C514 1.257 . S
C528 C531 1.344 . S
C528 C532 1.328 . S
C528 C534 1.516 . S
C529 C530 1.304 . S
C529 C533 1.323 . S
C530 C529 1.304 . S
C530 C531 1.371 . S
C530 H544 0.930 . S
C531 C528 1.344 . S
C531 C530 1.371 . S
C531 H545 0.931 . S
C532 C528 1.328 . S
C532 C533 1.433 . S
C532 H546 0.931 . S
C533 C529 1.323 . S
C533 C532 1.433 . S
C533 H547 0.933 . S
C534 Dy512 2.738 . S
C534 O517 1.255 . S
C534 O518 1.249 . S
C534 C528 1.516 . S
C535 O519 1.254 . S
C535 O520 1.257 . S
C536 O521 1.266 . S
C536 O522 1.236 . S
C537 C540 1.344 . S
C537 C541 1.328 . S
C537 C543 1.516 . S
C538 C539 1.304 . S
C538 C542 1.323 . S
C539 C538 1.304 . S
C539 C540 1.371 . S
C539 H548 0.930 . S
C540 C537 1.344 . S
C540 C539 1.371 . S
C540 H549 0.931 . S
C541 C537 1.328 . S
C541 C542 1.433 . S
C541 H550 0.931 . S
C542 C538 1.323 . S
C542 C541 1.433 . S
C542 H551 0.933 . S
C543 Dy513 2.738 . S
C543 O523 1.255 . S
C543 O524 1.249 . S
C543 C537 1.516 . S
H544 C530 0.930 . S
H545 C531 0.931 . S
H546 C532 0.931 . S
H547 C533 0.933 . S
H548 C539 0.930 . S
H549 C540 0.931 . S
H550 C541 0.931 . S
H551 C542 0.933 . S
Dy552 O555 2.307 . S
Dy552 O557 2.395 . S
Dy552 O558 2.379 . S
Dy552 O560 2.339 1_556 S
Dy552 O562 2.298 1_556 S
Dy552 O566 2.275 . S
Dy552 C574 2.738 . S
Dy553 O556 2.298 . S
Dy553 O559 2.275 . S
Dy553 O561 2.307 . S
Dy553 O563 2.395 . S
Dy553 O564 2.379 . S
Dy553 O567 2.339 . S
Dy553 C583 2.738 . S
C554 O566 1.254 1_554 S
C554 O567 1.257 . S
O555 Dy552 2.307 . S
O555 C565 1.266 1_556 S
O556 Dy553 2.298 . S
O556 C565 1.236 . S
O557 Dy552 2.395 . S
O557 C574 1.255 . S
O558 Dy552 2.379 . S
O558 C574 1.249 . S
O559 Dy553 2.275 . S
O559 C575 1.254 . S
O560 Dy552 2.339 1_554 S
O560 C575 1.257 . S
O561 Dy553 2.307 . S
O561 C576 1.266 . S
O562 Dy552 2.298 1_554 S
O562 C576 1.236 . S
O563 Dy553 2.395 . S
O563 C583 1.255 . S
O564 Dy553 2.379 . S
O564 C583 1.249 . S
C565 O555 1.266 1_554 S
C565 O556 1.236 . S
O566 Dy552 2.275 . S
O566 C554 1.254 1_556 S
O567 Dy553 2.339 . S
O567 C554 1.257 . S
C568 C571 1.344 . S
C568 C572 1.328 . S
C568 C574 1.516 . S
C569 C570 1.304 . S
C569 C573 1.323 . S
C570 C569 1.304 . S
C570 C571 1.371 . S
C570 H584 0.930 . S
C571 C568 1.344 . S
C571 C570 1.371 . S
C571 H585 0.931 . S
C572 C568 1.328 . S
C572 C573 1.433 . S
C572 H586 0.931 . S
C573 C569 1.323 . S
C573 C572 1.433 . S
C573 H587 0.933 . S
C574 Dy552 2.738 . S
C574 O557 1.255 . S
C574 O558 1.249 . S
C574 C568 1.516 . S
C575 O559 1.254 . S
C575 O560 1.257 . S
C576 O561 1.266 . S
C576 O562 1.236 . S
C577 C580 1.344 . S
C577 C581 1.328 . S
C577 C583 1.516 . S
C578 C579 1.304 . S
C578 C582 1.323 1_545 S
C579 C578 1.304 . S
C579 C580 1.371 . S
C579 H588 0.930 . S
C580 C577 1.344 . S
C580 C579 1.371 . S
C580 H589 0.931 . S
C581 C577 1.328 . S
C581 C582 1.433 1_545 S
C581 H590 0.931 1_545 S
C582 C578 1.323 1_565 S
C582 C581 1.433 1_565 S
C582 H591 0.933 . S
C583 Dy553 2.738 . S
C583 O563 1.255 . S
C583 O564 1.249 . S
C583 C577 1.516 . S
H584 C570 0.930 . S
H585 C571 0.931 . S
H586 C572 0.931 . S
H587 C573 0.933 . S
H588 C579 0.930 . S
H589 C580 0.931 . S
H590 C581 0.931 1_565 S
H591 C582 0.933 . S
Dy592 O595 2.307 . S
Dy592 O597 2.395 . S
Dy592 O598 2.379 . S
Dy592 O600 2.339 . S
Dy592 O602 2.298 . S
Dy592 O606 2.275 . S
Dy592 C614 2.738 . S
Dy593 O596 2.298 . S
Dy593 O599 2.275 . S
Dy593 O601 2.307 . S
Dy593 O603 2.395 . S
Dy593 O604 2.379 . S
Dy593 O607 2.339 . S
Dy593 C623 2.738 . S
C594 O606 1.254 . S
C594 O607 1.257 . S
O595 Dy592 2.307 . S
O595 C605 1.266 . S
O596 Dy593 2.298 . S
O596 C605 1.236 . S
O597 Dy592 2.395 . S
O597 C614 1.255 . S
O598 Dy592 2.379 . S
O598 C614 1.249 . S
O599 Dy593 2.275 . S
O599 C615 1.254 . S
O600 Dy592 2.339 . S
O600 C615 1.257 . S
O601 Dy593 2.307 . S
O601 C616 1.266 . S
O602 Dy592 2.298 . S
O602 C616 1.236 . S
O603 Dy593 2.395 . S
O603 C623 1.255 . S
O604 Dy593 2.379 . S
O604 C623 1.249 . S
C605 O595 1.266 . S
C605 O596 1.236 . S
O606 Dy592 2.275 . S
O606 C594 1.254 . S
O607 Dy593 2.339 . S
O607 C594 1.257 . S
C608 C611 1.344 . S
C608 C612 1.328 . S
C608 C614 1.516 . S
C609 C610 1.304 . S
C609 C613 1.323 . S
C610 C609 1.304 . S
C610 C611 1.371 . S
C610 H624 0.930 . S
C611 C608 1.344 . S
C611 C610 1.371 . S
C611 H625 0.931 . S
C612 C608 1.328 . S
C612 C613 1.433 . S
C612 H626 0.931 . S
C613 C609 1.323 . S
C613 C612 1.433 . S
C613 H627 0.933 . S
C614 Dy592 2.738 . S
C614 O597 1.255 . S
C614 O598 1.249 . S
C614 C608 1.516 . S
C615 O599 1.254 . S
C615 O600 1.257 . S
C616 O601 1.266 . S
C616 O602 1.236 . S
C617 C620 1.344 . S
C617 C621 1.328 . S
C617 C623 1.516 . S
C618 C619 1.304 . S
C618 C622 1.323 . S
C619 C618 1.304 . S
C619 C620 1.371 . S
C619 H628 0.930 . S
C620 C617 1.344 . S
C620 C619 1.371 . S
C620 H629 0.931 . S
C621 C617 1.328 . S
C621 C622 1.433 . S
C621 H630 0.931 . S
C622 C618 1.323 . S
C622 C621 1.433 . S
C622 H631 0.933 . S
C623 Dy593 2.738 . S
C623 O603 1.255 . S
C623 O604 1.249 . S
C623 C617 1.516 . S
H624 C610 0.930 . S
H625 C611 0.931 . S
H626 C612 0.931 . S
H627 C613 0.933 . S
H628 C619 0.930 . S
H629 C620 0.931 . S
H630 C621 0.931 . S
H631 C622 0.933 . S
Dy632 O635 2.307 1_554 S
Dy632 O637 2.395 . S
Dy632 O638 2.379 . S
Dy632 O640 2.339 . S
Dy632 O642 2.298 . S
Dy632 O646 2.275 . S
Dy632 C654 2.738 . S
Dy633 O636 2.298 1_554 S
Dy633 O639 2.275 . S
Dy633 O641 2.307 . S
Dy633 O643 2.407 . S
Dy633 O644 2.379 . S
Dy633 O647 2.339 . S
Dy633 C663 2.738 1_554 S
C634 O646 1.254 . S
C634 O647 1.257 . S
O635 Dy632 2.307 1_556 S
O635 C645 1.266 . S
O636 Dy633 2.298 1_556 S
O636 C645 1.236 . S
O637 Dy632 2.395 . S
O637 C654 1.255 . S
O638 Dy632 2.379 . S
O638 C654 1.249 . S
O639 Dy633 2.275 . S
O639 C655 1.254 . S
O640 Dy632 2.339 . S
O640 C655 1.257 . S
O641 Dy633 2.307 . S
O641 C656 1.266 . S
O642 Dy632 2.298 . S
O642 C656 1.236 . S
O643 Dy633 2.407 . S
O643 C663 1.255 1_554 S
O644 Dy633 2.379 . S
O644 C663 1.249 1_554 S
C645 O635 1.266 . S
C645 O636 1.236 . S
O646 Dy632 2.275 . S
O646 C634 1.254 . S
O647 Dy633 2.339 . S
O647 C634 1.257 . S
C648 C651 1.344 . S
C648 C652 1.328 . S
C648 C654 1.516 . S
C649 C650 1.304 . S
C649 C653 1.323 . S
C650 C649 1.304 . S
C650 C651 1.371 . S
C650 H664 0.930 . S
C651 C648 1.344 . S
C651 C650 1.371 . S
C651 H665 0.931 . S
C652 C648 1.328 . S
C652 C653 1.433 . S
C652 H666 0.931 . S
C653 C649 1.323 . S
C653 C652 1.433 . S
C653 H667 0.933 . S
C654 Dy632 2.738 . S
C654 O637 1.255 . S
C654 O638 1.249 . S
C654 C648 1.516 . S
C655 O639 1.254 . S
C655 O640 1.257 . S
C656 O641 1.266 . S
C656 O642 1.236 . S
C657 C660 1.344 . S
C657 C661 1.328 . S
C657 C663 1.516 . S
C658 C659 1.304 . S
C658 C662 1.323 . S
C659 C658 1.304 . S
C659 C660 1.371 . S
C659 H668 0.930 . S
C660 C657 1.344 . S
C660 C659 1.371 . S
C660 H669 0.931 . S
C661 C657 1.328 . S
C661 C662 1.433 . S
C661 H670 0.931 . S
C662 C658 1.323 . S
C662 C661 1.433 . S
C662 H671 0.933 . S
C663 Dy633 2.738 1_556 S
C663 O643 1.255 1_556 S
C663 O644 1.249 1_556 S
C663 C657 1.516 . S
H664 C650 0.930 . S
H665 C651 0.931 . S
H666 C652 0.931 . S
H667 C653 0.933 . S
H668 C659 0.930 . S
H669 C660 0.931 . S
H670 C661 0.931 . S
H671 C662 0.933 . S
Dy672 O675 2.307 . S
Dy672 O677 2.395 . S
Dy672 O678 2.379 . S
Dy672 O680 2.339 . S
Dy672 O682 2.298 . S
Dy672 O686 2.275 . S
Dy672 C694 2.738 . S
Dy673 O676 2.298 . S
Dy673 O679 2.275 . S
Dy673 O681 2.307 . S
Dy673 O683 2.395 . S
Dy673 O684 2.379 . S
Dy673 O687 2.339 . S
Dy673 C703 2.738 . S
C674 O686 1.254 . S
C674 O687 1.257 . S
O675 Dy672 2.307 . S
O675 C685 1.266 . S
O676 Dy673 2.298 . S
O676 C685 1.236 . S
O677 Dy672 2.395 . S
O677 C694 1.255 . S
O678 Dy672 2.379 . S
O678 C694 1.249 . S
O679 Dy673 2.275 . S
O679 C695 1.254 . S
O680 Dy672 2.339 . S
O680 C695 1.257 . S
O681 Dy673 2.307 . S
O681 C696 1.266 . S
O682 Dy672 2.298 . S
O682 C696 1.236 . S
O683 Dy673 2.395 . S
O683 C703 1.255 . S
O684 Dy673 2.379 . S
O684 C703 1.249 . S
C685 O675 1.266 . S
C685 O676 1.236 . S
O686 Dy672 2.275 . S
O686 C674 1.254 . S
O687 Dy673 2.339 . S
O687 C674 1.257 . S
C688 C691 1.344 . S
C688 C692 1.328 . S
C688 C694 1.516 . S
C689 C690 1.304 . S
C689 C693 1.323 . S
C690 C689 1.304 . S
C690 C691 1.371 . S
C690 H704 0.930 . S
C691 C688 1.344 . S
C691 C690 1.371 . S
C691 H705 0.931 . S
C692 C688 1.328 . S
C692 C693 1.433 . S
C692 H706 0.931 . S
C693 C689 1.323 . S
C693 C692 1.433 . S
C693 H707 0.933 . S
C694 Dy672 2.738 . S
C694 O677 1.255 . S
C694 O678 1.249 . S
C694 C688 1.516 . S
C695 O679 1.254 . S
C695 O680 1.257 . S
C696 O681 1.266 . S
C696 O682 1.236 . S
C697 C700 1.344 . S
C697 C701 1.328 . S
C697 C703 1.516 . S
C698 C699 1.304 . S
C698 C702 1.323 . S
C699 C698 1.304 . S
C699 C700 1.371 . S
C699 H708 0.930 . S
C700 C697 1.344 . S
C700 C699 1.371 . S
C700 H709 0.931 . S
C701 C697 1.328 . S
C701 C702 1.433 . S
C701 H710 0.931 . S
C702 C698 1.323 . S
C702 C701 1.433 . S
C702 H711 0.933 . S
C703 Dy673 2.738 . S
C703 O683 1.255 . S
C703 O684 1.249 . S
C703 C697 1.516 . S
H704 C690 0.930 . S
H705 C691 0.931 . S
H706 C692 0.931 . S
H707 C693 0.933 . S
H708 C699 0.930 . S
H709 C700 0.931 . S
H710 C701 0.931 . S
H711 C702 0.933 . S
Dy712 O715 2.307 1_455 S
Dy712 O717 2.395 . S
Dy712 O718 2.379 . S
Dy712 O720 2.339 . S
Dy712 O722 2.298 . S
Dy712 O726 2.275 . S
Dy712 C734 2.738 . S
Dy713 O716 2.298 1_455 S
Dy713 O719 2.275 . S
Dy713 O721 2.307 . S
Dy713 O723 2.395 1_455 S
Dy713 O724 2.379 . S
Dy713 O727 2.339 . S
Dy713 C743 2.738 1_455 S
C714 O726 1.254 . S
C714 O727 1.257 . S
O715 Dy712 2.307 1_655 S
O715 C725 1.266 . S
O716 Dy713 2.298 1_655 S
O716 C725 1.236 . S
O717 Dy712 2.395 . S
O717 C734 1.255 . S
O718 Dy712 2.379 . S
O718 C734 1.249 . S
O719 Dy713 2.275 . S
O719 C735 1.254 . S
O720 Dy712 2.339 . S
O720 C735 1.257 . S
O721 Dy713 2.307 . S
O721 C736 1.266 . S
O722 Dy712 2.298 . S
O722 C736 1.236 . S
O723 Dy713 2.395 1_655 S
O723 C743 1.255 . S
O724 Dy713 2.379 . S
O724 C743 1.249 1_455 S
C725 O715 1.266 . S
C725 O716 1.236 . S
O726 Dy712 2.275 . S
O726 C714 1.254 . S
O727 Dy713 2.339 . S
O727 C714 1.257 . S
C728 C731 1.344 . S
C728 C732 1.328 . S
C728 C734 1.516 . S
C729 C730 1.304 . S
C729 C733 1.323 . S
C730 C729 1.304 . S
C730 C731 1.371 . S
C730 H744 0.930 . S
C731 C728 1.344 . S
C731 C730 1.371 . S
C731 H745 0.931 . S
C732 C728 1.328 . S
C732 C733 1.433 . S
C732 H746 0.931 . S
C733 C729 1.323 . S
C733 C732 1.433 . S
C733 H747 0.933 . S
C734 Dy712 2.738 . S
C734 O717 1.255 . S
C734 O718 1.249 . S
C734 C728 1.516 . S
C735 O719 1.254 . S
C735 O720 1.257 . S
C736 O721 1.266 . S
C736 O722 1.236 . S
C737 C740 1.344 . S
C737 C741 1.328 . S
C737 C743 1.516 . S
C738 C739 1.304 . S
C738 C742 1.323 . S
C739 C738 1.304 . S
C739 C740 1.371 . S
C739 H748 0.930 . S
C740 C737 1.344 . S
C740 C739 1.371 . S
C740 H749 0.931 . S
C741 C737 1.328 . S
C741 C742 1.433 . S
C741 H750 0.931 . S
C742 C738 1.323 . S
C742 C741 1.433 . S
C742 H751 0.933 . S
C743 Dy713 2.738 1_655 S
C743 O723 1.255 . S
C743 O724 1.249 1_655 S
C743 C737 1.516 . S
H744 C730 0.930 . S
H745 C731 0.931 . S
H746 C732 0.931 . S
H747 C733 0.933 . S
H748 C739 0.930 . S
H749 C740 0.931 . S
H750 C741 0.931 . S
H751 C742 0.933 . S
Dy752 O755 2.307 . S
Dy752 O757 2.395 . S
Dy752 O758 2.379 . S
Dy752 O760 2.339 . S
Dy752 O762 2.298 . S
Dy752 O766 2.275 . S
Dy752 C774 2.738 . S
Dy753 O756 2.298 . S
Dy753 O759 2.275 . S
Dy753 O761 2.307 . S
Dy753 O763 2.395 . S
Dy753 O764 2.379 . S
Dy753 O767 2.339 . S
Dy753 C783 2.738 . S
C754 O766 1.254 . S
C754 O767 1.257 . S
O755 Dy752 2.307 . S
O755 C765 1.266 . S
O756 Dy753 2.298 . S
O756 C765 1.236 . S
O757 Dy752 2.395 . S
O757 C774 1.255 . S
O758 Dy752 2.379 . S
O758 C774 1.249 . S
O759 Dy753 2.275 . S
O759 C775 1.254 . S
O760 Dy752 2.339 . S
O760 C775 1.257 . S
O761 Dy753 2.307 . S
O761 C776 1.266 . S
O762 Dy752 2.298 . S
O762 C776 1.236 . S
O763 Dy753 2.395 . S
O763 C783 1.255 . S
O764 Dy753 2.379 . S
O764 C783 1.249 . S
C765 O755 1.266 . S
C765 O756 1.236 . S
O766 Dy752 2.275 . S
O766 C754 1.254 . S
O767 Dy753 2.339 . S
O767 C754 1.257 . S
C768 C771 1.344 . S
C768 C772 1.328 . S
C768 C774 1.516 . S
C769 C770 1.304 . S
C769 C773 1.323 . S
C770 C769 1.304 . S
C770 C771 1.371 . S
C770 H784 0.930 . S
C771 C768 1.344 . S
C771 C770 1.371 . S
C771 H785 0.931 . S
C772 C768 1.328 . S
C772 C773 1.433 . S
C772 H786 0.931 . S
C773 C769 1.323 . S
C773 C772 1.433 . S
C773 H787 0.933 . S
C774 Dy752 2.738 . S
C774 O757 1.255 . S
C774 O758 1.249 . S
C774 C768 1.516 . S
C775 O759 1.254 . S
C775 O760 1.257 . S
C776 O761 1.266 . S
C776 O762 1.236 . S
C777 C780 1.344 . S
C777 C781 1.328 . S
C777 C783 1.516 . S
C778 C779 1.304 . S
C778 C782 1.323 . S
C779 C778 1.304 . S
C779 C780 1.371 . S
C779 H788 0.930 . S
C780 C777 1.344 . S
C780 C779 1.371 . S
C780 H789 0.931 . S
C781 C777 1.328 . S
C781 C782 1.433 . S
C781 H790 0.931 . S
C782 C778 1.323 . S
C782 C781 1.433 . S
C782 H791 0.933 . S
C783 Dy753 2.738 . S
C783 O763 1.255 . S
C783 O764 1.249 . S
C783 C777 1.516 . S
H784 C770 0.930 . S
H785 C771 0.931 . S
H786 C772 0.931 . S
H787 C773 0.933 . S
H788 C779 0.930 . S
H789 C780 0.931 . S
H790 C781 0.931 . S
H791 C782 0.933 . S
Dy792 O795 2.307 . S
Dy792 O797 2.395 . S
Dy792 O798 2.379 . S
Dy792 O800 2.339 . S
Dy792 O802 2.298 . S
Dy792 O806 2.275 . S
Dy792 C814 2.738 . S
Dy793 O796 2.298 . S
Dy793 O799 2.275 . S
Dy793 O801 2.307 . S
Dy793 O803 2.395 . S
Dy793 O804 2.379 . S
Dy793 O807 2.339 . S
Dy793 C823 2.738 . S
C794 O806 1.254 . S
C794 O807 1.257 . S
O795 Dy792 2.307 . S
O795 C805 1.266 . S
O796 Dy793 2.298 . S
O796 C805 1.236 . S
O797 Dy792 2.395 . S
O797 C814 1.255 . S
O798 Dy792 2.379 . S
O798 C814 1.249 . S
O799 Dy793 2.275 . S
O799 C815 1.254 . S
O800 Dy792 2.339 . S
O800 C815 1.257 . S
O801 Dy793 2.307 . S
O801 C816 1.266 . S
O802 Dy792 2.298 . S
O802 C816 1.236 . S
O803 Dy793 2.395 . S
O803 C823 1.255 . S
O804 Dy793 2.379 . S
O804 C823 1.249 . S
C805 O795 1.266 . S
C805 O796 1.236 . S
O806 Dy792 2.275 . S
O806 C794 1.254 . S
O807 Dy793 2.339 . S
O807 C794 1.257 . S
C808 C811 1.344 . S
C808 C812 1.328 . S
C808 C814 1.516 . S
C809 C810 1.304 . S
C809 C813 1.323 . S
C810 C809 1.304 . S
C810 C811 1.371 . S
C810 H824 0.930 . S
C811 C808 1.344 . S
C811 C810 1.371 . S
C811 H825 0.931 . S
C812 C808 1.328 . S
C812 C813 1.433 . S
C812 H826 0.931 . S
C813 C809 1.323 . S
C813 C812 1.433 . S
C813 H827 0.933 . S
C814 Dy792 2.738 . S
C814 O797 1.255 . S
C814 O798 1.249 . S
C814 C808 1.516 . S
C815 O799 1.254 . S
C815 O800 1.257 . S
C816 O801 1.266 . S
C816 O802 1.236 . S
C817 C820 1.344 . S
C817 C821 1.328 . S
C817 C823 1.516 . S
C818 C819 1.304 . S
C818 C822 1.323 . S
C819 C818 1.304 . S
C819 C820 1.371 . S
C819 H828 0.930 . S
C820 C817 1.344 . S
C820 C819 1.371 . S
C820 H829 0.931 . S
C821 C817 1.328 . S
C821 C822 1.433 . S
C821 H830 0.931 . S
C822 C818 1.323 . S
C822 C821 1.433 . S
C822 H831 0.933 . S
C823 Dy793 2.738 . S
C823 O803 1.255 . S
C823 O804 1.249 . S
C823 C817 1.516 . S
H824 C810 0.930 . S
H825 C811 0.931 . S
H826 C812 0.931 . S
H827 C813 0.933 . S
H828 C819 0.930 . S
H829 C820 0.931 . S
H830 C821 0.931 . S
H831 C822 0.933 . S
Dy832 O835 2.307 . S
Dy832 O837 2.395 . S
Dy832 O838 2.379 . S
Dy832 O840 2.339 . S
Dy832 O842 2.298 . S
Dy832 O846 2.275 . S
Dy832 C854 2.738 . S
Dy833 O836 2.298 . S
Dy833 O839 2.275 . S
Dy833 O841 2.307 . S
Dy833 O843 2.395 . S
Dy833 O844 2.379 . S
Dy833 O847 2.339 . S
Dy833 C863 2.738 . S
C834 O846 1.254 . S
C834 O847 1.257 . S
O835 Dy832 2.307 . S
O835 C845 1.266 . S
O836 Dy833 2.298 . S
O836 C845 1.236 . S
O837 Dy832 2.395 . S
O837 C854 1.255 . S
O838 Dy832 2.379 . S
O838 C854 1.249 . S
O839 Dy833 2.275 . S
O839 C855 1.254 . S
O840 Dy832 2.339 . S
O840 C855 1.257 . S
O841 Dy833 2.307 . S
O841 C856 1.266 . S
O842 Dy832 2.298 . S
O842 C856 1.236 . S
O843 Dy833 2.395 . S
O843 C863 1.255 . S
O844 Dy833 2.379 . S
O844 C863 1.249 . S
C845 O835 1.266 . S
C845 O836 1.236 . S
O846 Dy832 2.275 . S
O846 C834 1.254 . S
O847 Dy833 2.339 . S
O847 C834 1.257 . S
C848 C851 1.344 . S
C848 C852 1.328 . S
C848 C854 1.516 . S
C849 C850 1.304 . S
C849 C853 1.323 . S
C850 C849 1.304 . S
C850 C851 1.371 . S
C850 H864 0.930 . S
C851 C848 1.344 . S
C851 C850 1.371 . S
C851 H865 0.931 . S
C852 C848 1.328 . S
C852 C853 1.433 . S
C852 H866 0.931 . S
C853 C849 1.323 . S
C853 C852 1.433 . S
C853 H867 0.933 . S
C854 Dy832 2.738 . S
C854 O837 1.255 . S
C854 O838 1.249 . S
C854 C848 1.516 . S
C855 O839 1.254 . S
C855 O840 1.257 . S
C856 O841 1.266 . S
C856 O842 1.236 . S
C857 C860 1.344 . S
C857 C861 1.328 . S
C857 C863 1.516 . S
C858 C859 1.304 . S
C858 C862 1.323 . S
C859 C858 1.304 . S
C859 C860 1.371 . S
C859 H868 0.930 . S
C860 C857 1.344 . S
C860 C859 1.371 . S
C860 H869 0.931 . S
C861 C857 1.328 . S
C861 C862 1.433 . S
C861 H870 0.931 . S
C862 C858 1.323 . S
C862 C861 1.433 . S
C862 H871 0.933 . S
C863 Dy833 2.738 . S
C863 O843 1.255 . S
C863 O844 1.249 . S
C863 C857 1.516 . S
H864 C850 0.930 . S
H865 C851 0.931 . S
H866 C852 0.931 . S
H867 C853 0.933 . S
H868 C859 0.930 . S
H869 C860 0.931 . S
H870 C861 0.931 . S
H871 C862 0.933 . S
Dy872 O875 2.307 . S
Dy872 O877 2.395 . S
Dy872 O878 2.379 . S
Dy872 O880 2.339 . S
Dy872 O882 2.298 . S
Dy872 O886 2.275 . S
Dy872 C894 2.738 . S
Dy873 O876 2.298 . S
Dy873 O879 2.275 . S
Dy873 O881 2.307 . S
Dy873 O883 2.395 . S
Dy873 O884 2.379 . S
Dy873 O887 2.339 . S
Dy873 C903 2.738 . S
C874 O886 1.254 . S
C874 O887 1.257 . S
O875 Dy872 2.307 . S
O875 C885 1.266 . S
O876 Dy873 2.298 . S
O876 C885 1.236 . S
O877 Dy872 2.395 . S
O877 C894 1.255 . S
O878 Dy872 2.379 . S
O878 C894 1.249 . S
O879 Dy873 2.275 . S
O879 C895 1.254 . S
O880 Dy872 2.339 . S
O880 C895 1.257 . S
O881 Dy873 2.307 . S
O881 C896 1.266 . S
O882 Dy872 2.298 . S
O882 C896 1.236 . S
O883 Dy873 2.395 . S
O883 C903 1.255 . S
O884 Dy873 2.379 . S
O884 C903 1.249 . S
C885 O875 1.266 . S
C885 O876 1.236 . S
O886 Dy872 2.275 . S
O886 C874 1.254 . S
O887 Dy873 2.339 . S
O887 C874 1.257 . S
C888 C891 1.344 . S
C888 C892 1.328 . S
C888 C894 1.516 . S
C889 C890 1.304 . S
C889 C893 1.323 . S
C890 C889 1.304 . S
C890 C891 1.371 . S
C890 H904 0.930 . S
C891 C888 1.344 . S
C891 C890 1.371 . S
C891 H905 0.931 . S
C892 C888 1.328 . S
C892 C893 1.433 . S
C892 H906 0.931 . S
C893 C889 1.323 . S
C893 C892 1.433 . S
C893 H907 0.933 . S
C894 Dy872 2.738 . S
C894 O877 1.255 . S
C894 O878 1.249 . S
C894 C888 1.516 . S
C895 O879 1.254 . S
C895 O880 1.257 . S
C896 O881 1.266 . S
C896 O882 1.236 . S
C897 C900 1.344 . S
C897 C901 1.328 . S
C897 C903 1.516 . S
C898 C899 1.304 . S
C898 C902 1.323 . S
C899 C898 1.304 . S
C899 C900 1.371 . S
C899 H908 0.930 . S
C900 C897 1.344 . S
C900 C899 1.371 . S
C900 H909 0.931 . S
C901 C897 1.328 . S
C901 C902 1.433 . S
C901 H910 0.931 . S
C902 C898 1.323 . S
C902 C901 1.433 . S
C902 H911 0.933 . S
C903 Dy873 2.738 . S
C903 O883 1.255 . S
C903 O884 1.249 . S
C903 C897 1.516 . S
H904 C890 0.930 . S
H905 C891 0.931 . S
H906 C892 0.931 . S
H907 C893 0.933 . S
H908 C899 0.930 . S
H909 C900 0.931 . S
H910 C901 0.931 . S
H911 C902 0.933 . S
Dy912 O915 2.331 . S
Dy912 O917 2.395 . S
Dy912 O918 2.379 . S
Dy912 O920 2.339 1_655 S
Dy912 O922 2.298 1_655 S
Dy912 O926 2.275 1_655 S
Dy912 C934 2.738 . S
Dy913 O916 2.298 . S
Dy913 O919 2.275 . S
Dy913 O921 2.307 . S
Dy913 O923 2.395 . S
Dy913 O924 2.379 . S
Dy913 O927 2.339 1_554 S
Dy913 C943 2.738 . S
C914 O926 1.254 . S
C914 O927 1.257 1_554 S
O915 Dy912 2.331 . S
O915 C925 1.227 1_655 S
O916 Dy913 2.298 . S
O916 C925 1.236 . S
O917 Dy912 2.395 . S
O917 C934 1.255 . S
O918 Dy912 2.379 . S
O918 C934 1.249 . S
O919 Dy913 2.275 . S
O919 C935 1.254 . S
O920 Dy912 2.339 1_455 S
O920 C935 1.257 . S
O921 Dy913 2.307 . S
O921 C936 1.266 . S
O922 Dy912 2.298 1_455 S
O922 C936 1.236 . S
O923 Dy913 2.395 . S
O923 C943 1.255 . S
O924 Dy913 2.379 . S
O924 C943 1.249 . S
C925 O915 1.227 1_455 S
C925 O916 1.236 . S
O926 Dy912 2.275 1_455 S
O926 C914 1.254 . S
O927 Dy913 2.339 1_556 S
O927 C914 1.257 1_556 S
C928 C931 1.344 . S
C928 C932 1.328 . S
C928 C934 1.516 . S
C929 C930 1.304 . S
C929 C933 1.323 . S
C930 C929 1.304 . S
C930 C931 1.371 . S
C930 H944 0.930 . S
C931 C928 1.344 . S
C931 C930 1.371 . S
C931 H945 0.931 . S
C932 C928 1.328 . S
C932 C933 1.433 . S
C932 H946 0.931 . S
C933 C929 1.323 . S
C933 C932 1.433 . S
C933 H947 0.933 . S
C934 Dy912 2.738 . S
C934 O917 1.255 . S
C934 O918 1.249 . S
C934 C928 1.516 . S
C935 O919 1.254 . S
C935 O920 1.257 . S
C936 O921 1.266 . S
C936 O922 1.236 . S
C937 C940 1.344 . S
C937 C941 1.328 . S
C937 C943 1.516 . S
C938 C939 1.304 . S
C938 C942 1.361 . S
C939 C938 1.304 . S
C939 C940 1.371 . S
C939 H948 0.930 . S
C940 C937 1.344 . S
C940 C939 1.371 . S
C940 H949 0.931 . S
C941 C937 1.328 . S
C941 C942 1.439 . S
C941 H950 0.931 1_554 S
C942 C938 1.361 . S
C942 C941 1.439 . S
C942 H951 0.890 1_554 S
C943 Dy913 2.738 . S
C943 O923 1.255 . S
C943 O924 1.249 . S
C943 C937 1.516 . S
H944 C930 0.930 . S
H945 C931 0.931 . S
H946 C932 0.931 . S
H947 C933 0.933 . S
H948 C939 0.930 . S
H949 C940 0.931 . S
H950 C941 0.931 1_556 S
H951 C942 0.890 1_556 S
H952 C970 0.951 . S
H953 C972 0.951 . S
H954 C974 0.950 1_654 S
H955 C975 0.950 . S
H956 C977 0.950 . S
H957 C980 0.950 . S
H958 C981 0.950 . S
H959 C983 0.950 . S
H960 C984 0.950 . S
H961 C985 0.951 . S
H962 C987 0.951 . S
H963 C989 0.950 1_556 S
H964 C990 0.950 . S
H965 C992 0.950 . S
H966 C995 0.950 . S
H967 C996 0.950 . S
H968 C998 0.950 . S
H969 C999 0.950 . S
C970 H952 0.951 . S
C970 C971 1.366 . S
C970 C972 1.388 . S
C971 C970 1.366 . S
C971 C975 1.385 1_455 S
C972 H953 0.951 . S
C972 C970 1.388 . S
C972 C973 1.366 . S
C973 C972 1.366 . S
C973 C974 1.414 . S
C973 C976 1.499 . S
C974 H954 0.950 1_456 S
C974 C973 1.414 . S
C974 C975 1.374 1_455 S
C975 H955 0.950 . S
C975 C971 1.385 1_655 S
C975 C974 1.374 1_655 S
C976 C973 1.499 . S
C976 C977 1.373 1_556 S
C976 C978 1.389 . S
C977 H956 0.950 . S
C977 C976 1.373 1_554 S
C977 C993 1.377 . S
C978 C976 1.389 . S
C978 C979 1.523 . S
C978 C992 1.377 . S
C979 C978 1.523 . S
C979 C980 1.400 1_455 S
C979 C984 1.361 . S
C980 H957 0.950 . S
C980 C979 1.400 1_655 S
C980 C981 1.334 . S
C981 H958 0.950 . S
C981 C980 1.334 . S
C981 C982 1.287 . S
C982 C981 1.287 . S
C982 C983 1.524 . S
C982 H1001 0.913 . S
C983 H959 0.950 . S
C983 C982 1.524 . S
C983 C984 1.415 1_655 S
C984 H960 0.950 . S
C984 C979 1.361 . S
C984 C983 1.415 1_455 S
C985 H961 0.951 . S
C985 C986 1.366 . S
C985 C987 1.388 . S
C986 C985 1.366 . S
C986 C990 1.385 . S
C987 H962 0.951 . S
C987 C985 1.388 . S
C987 C988 1.366 . S
C988 C987 1.366 . S
C988 C989 1.414 . S
C988 C991 1.499 . S
C989 H963 0.950 1_554 S
C989 C988 1.414 . S
C989 C990 1.374 . S
C990 H964 0.950 . S
C990 C986 1.385 . S
C990 C989 1.374 . S
C991 C988 1.499 . S
C991 C992 1.373 1_554 S
C991 C993 1.389 . S
C992 H965 0.950 . S
C992 C978 1.377 . S
C992 C991 1.373 1_556 S
C993 C977 1.377 . S
C993 C991 1.389 . S
C993 C994 1.524 . S
C994 C993 1.524 . S
C994 C995 1.397 . S
C994 C999 1.363 . S
C995 H966 0.950 . S
C995 C994 1.397 . S
C995 C996 1.334 . S
C996 H967 0.950 . S
C996 C995 1.334 . S
C996 C997 1.287 . S
C997 C996 1.287 . S
C997 C998 1.524 . S
C997 H1000 0.999 . S
C998 H968 0.950 . S
C998 C997 1.524 . S
C998 C999 1.415 . S
C999 H969 0.950 . S
C999 C994 1.363 . S
C999 C998 1.415 . S
H1000 C997 0.999 . S
H1001 C982 0.913 . S
H1002 C1020 0.951 . S
H1003 C1022 0.951 . S
H1004 C1024 0.950 . S
H1005 C1025 0.950 . S
H1006 C1027 0.950 . S
H1007 C1030 0.950 . S
H1008 C1031 0.950 . S
H1009 C1033 0.950 . S
H1010 C1034 0.950 . S
H1011 C1035 0.951 . S
H1012 C1037 0.951 . S
H1013 C1039 0.950 . S
H1014 C1040 0.950 . S
H1015 C1042 0.950 . S
H1016 C1045 0.950 . S
H1017 C1046 0.950 . S
H1018 C1048 0.950 . S
H1019 C1049 0.950 . S
C1020 H1002 0.951 . S
C1020 C1021 1.366 . S
C1020 C1022 1.388 . S
C1021 C1020 1.366 . S
C1021 C1025 1.385 . S
C1022 H1003 0.951 . S
C1022 C1020 1.388 . S
C1022 C1023 1.366 . S
C1023 C1022 1.366 . S
C1023 C1024 1.414 . S
C1023 C1026 1.499 . S
C1024 H1004 0.950 . S
C1024 C1023 1.414 . S
C1024 C1025 1.374 . S
C1025 H1005 0.950 . S
C1025 C1021 1.385 . S
C1025 C1024 1.374 . S
C1026 C1023 1.499 . S
C1026 C1027 1.373 . S
C1026 C1028 1.389 . S
C1027 H1006 0.950 . S
C1027 C1026 1.373 . S
C1027 C1043 1.377 . S
C1028 C1026 1.389 . S
C1028 C1029 1.524 . S
C1028 C1042 1.377 . S
C1029 C1028 1.524 . S
C1029 C1030 1.397 . S
C1029 C1034 1.363 . S
C1030 H1007 0.950 . S
C1030 C1029 1.397 . S
C1030 C1031 1.334 . S
C1031 H1008 0.950 . S
C1031 C1030 1.334 . S
C1031 C1032 1.287 . S
C1032 C1031 1.287 . S
C1032 C1033 1.524 . S
C1032 H1051 0.913 . S
C1033 H1009 0.950 . S
C1033 C1032 1.524 . S
C1033 C1034 1.415 . S
C1034 H1010 0.950 . S
C1034 C1029 1.363 . S
C1034 C1033 1.415 . S
C1035 H1011 0.951 . S
C1035 C1036 1.366 . S
C1035 C1037 1.388 . S
C1036 C1035 1.366 . S
C1036 C1040 1.385 . S
C1037 H1012 0.951 . S
C1037 C1035 1.388 . S
C1037 C1038 1.366 . S
C1038 C1037 1.366 . S
C1038 C1039 1.414 . S
C1038 C1041 1.499 . S
C1039 H1013 0.950 . S
C1039 C1038 1.414 . S
C1039 C1040 1.374 . S
C1040 H1014 0.950 . S
C1040 C1036 1.385 . S
C1040 C1039 1.374 . S
C1041 C1038 1.499 . S
C1041 C1042 1.373 . S
C1041 C1043 1.389 . S
C1042 H1015 0.950 . S
C1042 C1028 1.377 . S
C1042 C1041 1.373 . S
C1043 C1027 1.377 . S
C1043 C1041 1.389 . S
C1043 C1044 1.524 . S
C1044 C1043 1.524 . S
C1044 C1045 1.397 . S
C1044 C1049 1.363 . S
C1045 H1016 0.950 . S
C1045 C1044 1.397 . S
C1045 C1046 1.334 . S
C1046 H1017 0.950 . S
C1046 C1045 1.334 . S
C1046 C1047 1.287 . S
C1047 C1046 1.287 . S
C1047 C1048 1.524 . S
C1047 H1050 0.999 . S
C1048 H1018 0.950 . S
C1048 C1047 1.524 . S
C1048 C1049 1.415 . S
C1049 H1019 0.950 . S
C1049 C1044 1.363 . S
C1049 C1048 1.415 . S
H1050 C1047 0.999 . S
H1051 C1032 0.913 . S
H1052 C1070 0.951 . S
H1053 C1072 0.951 . S
H1054 C1074 0.950 . S
H1055 C1075 0.950 . S
H1056 C1077 0.950 . S
H1057 C1080 0.950 . S
H1058 C1081 0.950 . S
H1059 C1083 0.950 . S
H1060 C1084 0.950 . S
H1061 C1085 0.951 . S
H1062 C1087 0.951 . S
H1063 C1089 0.950 . S
H1064 C1090 0.950 . S
H1065 C1092 0.950 . S
H1066 C1095 0.950 . S
H1067 C1096 0.950 . S
H1068 C1098 0.950 . S
H1069 C1099 0.950 . S
C1070 H1052 0.951 . S
C1070 C1071 1.366 . S
C1070 C1072 1.388 . S
C1071 C1070 1.366 . S
C1071 C1075 1.385 . S
C1072 H1053 0.951 . S
C1072 C1070 1.388 . S
C1072 C1073 1.366 . S
C1073 C1072 1.366 . S
C1073 C1074 1.414 . S
C1073 C1076 1.499 . S
C1074 H1054 0.950 . S
C1074 C1073 1.414 . S
C1074 C1075 1.374 . S
C1075 H1055 0.950 . S
C1075 C1071 1.385 . S
C1075 C1074 1.374 . S
C1076 C1073 1.499 . S
C1076 C1077 1.373 . S
C1076 C1078 1.389 . S
C1077 H1056 0.950 . S
C1077 C1076 1.373 . S
C1077 C1093 1.377 . S
C1078 C1076 1.389 . S
C1078 C1079 1.524 . S
C1078 C1092 1.377 . S
C1079 C1078 1.524 . S
C1079 C1080 1.397 . S
C1079 C1084 1.363 . S
C1080 H1057 0.950 . S
C1080 C1079 1.397 . S
C1080 C1081 1.334 . S
C1081 H1058 0.950 . S
C1081 C1080 1.334 . S
C1081 C1082 1.287 . S
C1082 C1081 1.287 . S
C1082 C1083 1.524 . S
C1082 H1101 0.913 . S
C1083 H1059 0.950 . S
C1083 C1082 1.524 . S
C1083 C1084 1.415 . S
C1084 H1060 0.950 . S
C1084 C1079 1.363 . S
C1084 C1083 1.415 . S
C1085 H1061 0.951 . S
C1085 C1086 1.366 . S
C1085 C1087 1.388 . S
C1086 C1085 1.366 . S
C1086 C1090 1.385 . S
C1087 H1062 0.951 . S
C1087 C1085 1.388 . S
C1087 C1088 1.366 . S
C1088 C1087 1.366 . S
C1088 C1089 1.414 . S
C1088 C1091 1.499 . S
C1089 H1063 0.950 . S
C1089 C1088 1.414 . S
C1089 C1090 1.374 . S
C1090 H1064 0.950 . S
C1090 C1086 1.385 . S
C1090 C1089 1.374 . S
C1091 C1088 1.499 . S
C1091 C1092 1.373 . S
C1091 C1093 1.389 . S
C1092 H1065 0.950 . S
C1092 C1078 1.377 . S
C1092 C1091 1.373 . S
C1093 C1077 1.377 . S
C1093 C1091 1.389 . S
C1093 C1094 1.524 . S
C1094 C1093 1.524 . S
C1094 C1095 1.397 . S
C1094 C1099 1.363 . S
C1095 H1066 0.950 . S
C1095 C1094 1.397 . S
C1095 C1096 1.334 . S
C1096 H1067 0.950 . S
C1096 C1095 1.334 . S
C1096 C1097 1.287 . S
C1097 C1096 1.287 . S
C1097 C1098 1.524 . S
C1097 H1100 0.999 . S
C1098 H1068 0.950 . S
C1098 C1097 1.524 . S
C1098 C1099 1.415 . S
C1099 H1069 0.950 . S
C1099 C1094 1.363 . S
C1099 C1098 1.415 . S
H1100 C1097 0.999 . S
H1101 C1082 0.913 . S
H1102 C1120 0.951 . S
H1103 C1122 0.951 . S
H1104 C1124 0.950 . S
H1105 C1125 0.950 . S
H1106 C1127 0.950 . S
H1107 C1130 0.950 . S
H1108 C1131 0.950 . S
H1109 C1133 0.950 . S
H1110 C1134 0.950 . S
H1111 C1135 0.951 . S
H1112 C1137 0.951 . S
H1113 C1139 0.950 . S
H1114 C1140 0.950 . S
H1115 C1142 0.950 . S
H1116 C1145 0.950 . S
H1117 C1146 0.950 . S
H1118 C1148 0.950 . S
H1119 C1149 0.950 . S
C1120 H1102 0.951 . S
C1120 C1121 1.366 . S
C1120 C1122 1.388 . S
C1121 C1120 1.366 . S
C1121 C1125 1.385 . S
C1122 H1103 0.951 . S
C1122 C1120 1.388 . S
C1122 C1123 1.366 . S
C1123 C1122 1.366 . S
C1123 C1124 1.414 . S
C1123 C1126 1.499 . S
C1124 H1104 0.950 . S
C1124 C1123 1.414 . S
C1124 C1125 1.374 . S
C1125 H1105 0.950 . S
C1125 C1121 1.385 . S
C1125 C1124 1.374 . S
C1126 C1123 1.499 . S
C1126 C1127 1.373 . S
C1126 C1128 1.389 . S
C1127 H1106 0.950 . S
C1127 C1126 1.373 . S
C1127 C1143 1.377 . S
C1128 C1126 1.389 . S
C1128 C1129 1.524 . S
C1128 C1142 1.377 . S
C1129 C1128 1.524 . S
C1129 C1130 1.397 . S
C1129 C1134 1.363 . S
C1130 H1107 0.950 . S
C1130 C1129 1.397 . S
C1130 C1131 1.334 . S
C1131 H1108 0.950 . S
C1131 C1130 1.334 . S
C1131 C1132 1.287 . S
C1132 C1131 1.287 . S
C1132 C1133 1.524 . S
C1132 H1151 0.913 . S
C1133 H1109 0.950 . S
C1133 C1132 1.524 . S
C1133 C1134 1.415 . S
C1134 H1110 0.950 . S
C1134 C1129 1.363 . S
C1134 C1133 1.415 . S
C1135 H1111 0.951 . S
C1135 C1136 1.366 . S
C1135 C1137 1.388 . S
C1136 C1135 1.366 . S
C1136 C1140 1.385 . S
C1137 H1112 0.951 . S
C1137 C1135 1.388 . S
C1137 C1138 1.366 . S
C1138 C1137 1.366 . S
C1138 C1139 1.414 . S
C1138 C1141 1.499 . S
C1139 H1113 0.950 . S
C1139 C1138 1.414 . S
C1139 C1140 1.374 . S
C1140 H1114 0.950 . S
C1140 C1136 1.385 . S
C1140 C1139 1.374 . S
C1141 C1138 1.499 . S
C1141 C1142 1.373 . S
C1141 C1143 1.389 . S
C1142 H1115 0.950 . S
C1142 C1128 1.377 . S
C1142 C1141 1.373 . S
C1143 C1127 1.377 . S
C1143 C1141 1.389 . S
C1143 C1144 1.524 . S
C1144 C1143 1.524 . S
C1144 C1145 1.397 . S
C1144 C1149 1.363 . S
C1145 H1116 0.950 . S
C1145 C1144 1.397 . S
C1145 C1146 1.334 . S
C1146 H1117 0.950 . S
C1146 C1145 1.334 . S
C1146 C1147 1.287 . S
C1147 C1146 1.287 . S
C1147 C1148 1.524 . S
C1147 H1150 0.999 . S
C1148 H1118 0.950 . S
C1148 C1147 1.524 . S
C1148 C1149 1.415 . S
C1149 H1119 0.950 . S
C1149 C1144 1.363 . S
C1149 C1148 1.415 . S
H1150 C1147 0.999 . S
H1151 C1132 0.913 . S
H1152 C1170 0.951 . S
H1153 C1172 0.951 . S
H1154 C1174 0.950 . S
H1155 C1175 0.950 . S
H1156 C1177 0.950 . S
H1157 C1180 0.950 . S
H1158 C1181 0.942 1_455 S
H1159 C1183 0.950 . S
H1160 C1184 0.950 . S
H1161 C1185 0.951 . S
H1162 C1187 0.951 . S
H1163 C1189 0.950 . S
H1164 C1190 0.950 . S
H1165 C1192 0.950 . S
H1166 C1195 0.950 . S
H1167 C1196 0.950 . S
H1168 C1198 0.950 . S
H1169 C1199 0.950 . S
C1170 H1152 0.951 . S
C1170 C1171 1.366 . S
C1170 C1172 1.388 . S
C1171 C1170 1.366 . S
C1171 C1175 1.385 . S
C1172 H1153 0.951 . S
C1172 C1170 1.388 . S
C1172 C1173 1.366 . S
C1173 C1172 1.366 . S
C1173 C1174 1.414 . S
C1173 C1176 1.499 . S
C1174 H1154 0.950 . S
C1174 C1173 1.414 . S
C1174 C1175 1.374 . S
C1175 H1155 0.950 . S
C1175 C1171 1.385 . S
C1175 C1174 1.374 . S
C1176 C1173 1.499 . S
C1176 C1177 1.373 . S
C1176 C1178 1.389 . S
C1177 H1156 0.950 . S
C1177 C1176 1.373 . S
C1177 C1193 1.377 . S
C1178 C1176 1.389 . S
C1178 C1179 1.524 . S
C1178 C1192 1.377 . S
C1179 C1178 1.524 . S
C1179 C1180 1.397 . S
C1179 C1184 1.363 1_455 S
C1180 H1157 0.950 . S
C1180 C1179 1.397 . S
C1180 C1181 1.334 1_455 S
C1181 H1158 0.942 1_655 S
C1181 C1180 1.334 1_655 S
C1181 C1182 1.287 . S
C1182 C1181 1.287 . S
C1182 C1183 1.524 . S
C1182 H1201 0.913 . S
C1183 H1159 0.950 . S
C1183 C1182 1.524 . S
C1183 C1184 1.415 . S
C1184 H1160 0.950 . S
C1184 C1179 1.363 1_655 S
C1184 C1183 1.415 . S
C1185 H1161 0.951 . S
C1185 C1186 1.366 . S
C1185 C1187 1.388 . S
C1186 C1185 1.366 . S
C1186 C1190 1.385 . S
C1187 H1162 0.951 . S
C1187 C1185 1.388 . S
C1187 C1188 1.366 . S
C1188 C1187 1.366 . S
C1188 C1189 1.414 . S
C1188 C1191 1.499 . S
C1189 H1163 0.950 . S
C1189 C1188 1.414 . S
C1189 C1190 1.374 . S
C1190 H1164 0.950 . S
C1190 C1186 1.385 . S
C1190 C1189 1.374 . S
C1191 C1188 1.499 . S
C1191 C1192 1.373 . S
C1191 C1193 1.389 . S
C1192 H1165 0.950 . S
C1192 C1178 1.377 . S
C1192 C1191 1.373 . S
C1193 C1177 1.377 . S
C1193 C1191 1.389 . S
C1193 C1194 1.524 . S
C1194 C1193 1.524 . S
C1194 C1195 1.397 . S
C1194 C1199 1.363 . S
C1195 H1166 0.950 . S
C1195 C1194 1.397 . S
C1195 C1196 1.334 . S
C1196 H1167 0.950 . S
C1196 C1195 1.334 . S
C1196 C1197 1.287 . S
C1197 C1196 1.287 . S
C1197 C1198 1.524 . S
C1197 H1200 0.999 . S
C1198 H1168 0.950 . S
C1198 C1197 1.524 . S
C1198 C1199 1.415 . S
C1199 H1169 0.950 . S
C1199 C1194 1.363 . S
C1199 C1198 1.415 . S
H1200 C1197 0.999 . S
H1201 C1182 0.913 . S
H1202 C1220 0.951 . S
H1203 C1222 0.951 . S
H1204 C1224 0.950 . S
H1205 C1225 0.950 . S
H1206 C1227 0.950 . S
H1207 C1230 0.950 . S
H1208 C1231 0.950 . S
H1209 C1233 0.950 . S
H1210 C1234 0.950 . S
H1211 C1235 0.951 . S
H1212 C1237 0.951 . S
H1213 C1239 0.950 . S
H1214 C1240 0.950 . S
H1215 C1242 0.950 . S
H1216 C1245 0.950 . S
H1217 C1246 0.950 . S
H1218 C1248 0.950 . S
H1219 C1249 0.950 . S
C1220 H1202 0.951 . S
C1220 C1221 1.366 . S
C1220 C1222 1.388 . S
C1221 C1220 1.366 . S
C1221 C1225 1.385 . S
C1222 H1203 0.951 . S
C1222 C1220 1.388 . S
C1222 C1223 1.366 . S
C1223 C1222 1.366 . S
C1223 C1224 1.414 . S
C1223 C1226 1.499 . S
C1224 H1204 0.950 . S
C1224 C1223 1.414 . S
C1224 C1225 1.374 . S
C1225 H1205 0.950 . S
C1225 C1221 1.385 . S
C1225 C1224 1.374 . S
C1226 C1223 1.499 . S
C1226 C1227 1.373 . S
C1226 C1228 1.389 . S
C1227 H1206 0.950 . S
C1227 C1226 1.373 . S
C1227 C1243 1.377 . S
C1228 C1226 1.389 . S
C1228 C1229 1.524 . S
C1228 C1242 1.377 . S
C1229 C1228 1.524 . S
C1229 C1230 1.397 . S
C1229 C1234 1.363 . S
C1230 H1207 0.950 . S
C1230 C1229 1.397 . S
C1230 C1231 1.334 . S
C1231 H1208 0.950 . S
C1231 C1230 1.334 . S
C1231 C1232 1.287 . S
C1232 C1231 1.287 . S
C1232 C1233 1.524 . S
C1232 H1251 0.913 . S
C1233 H1209 0.950 . S
C1233 C1232 1.524 . S
C1233 C1234 1.415 . S
C1234 H1210 0.950 . S
C1234 C1229 1.363 . S
C1234 C1233 1.415 . S
C1235 H1211 0.951 . S
C1235 C1236 1.366 . S
C1235 C1237 1.388 . S
C1236 C1235 1.366 . S
C1236 C1240 1.385 . S
C1237 H1212 0.951 . S
C1237 C1235 1.388 . S
C1237 C1238 1.366 . S
C1238 C1237 1.366 . S
C1238 C1239 1.414 . S
C1238 C1241 1.499 . S
C1239 H1213 0.950 . S
C1239 C1238 1.414 . S
C1239 C1240 1.374 . S
C1240 H1214 0.950 . S
C1240 C1236 1.385 . S
C1240 C1239 1.374 . S
C1241 C1238 1.499 . S
C1241 C1242 1.373 . S
C1241 C1243 1.389 . S
C1242 H1215 0.950 . S
C1242 C1228 1.377 . S
C1242 C1241 1.373 . S
C1243 C1227 1.377 . S
C1243 C1241 1.389 . S
C1243 C1244 1.524 . S
C1244 C1243 1.524 . S
C1244 C1245 1.397 . S
C1244 C1249 1.363 . S
C1245 H1216 0.950 . S
C1245 C1244 1.397 . S
C1245 C1246 1.334 . S
C1246 H1217 0.950 . S
C1246 C1245 1.334 . S
C1246 C1247 1.287 . S
C1247 C1246 1.287 . S
C1247 C1248 1.524 . S
C1247 H1250 0.999 . S
C1248 H1218 0.950 . S
C1248 C1247 1.524 . S
C1248 C1249 1.415 . S
C1249 H1219 0.950 . S
C1249 C1244 1.363 . S
C1249 C1248 1.415 . S
H1250 C1247 0.999 . S
H1251 C1232 0.913 . S
H1252 C1270 0.951 . S
H1253 C1272 0.951 . S
H1254 C1274 0.950 . S
H1255 C1275 0.950 . S
H1256 C1277 0.950 . S
H1257 C1280 0.950 . S
H1258 C1281 0.950 . S
H1259 C1283 0.950 . S
H1260 C1284 0.950 . S
H1261 C1285 0.951 . S
H1262 C1287 0.951 . S
H1263 C1289 0.950 . S
H1264 C1290 0.950 . S
H1265 C1292 0.950 . S
H1266 C1295 0.950 . S
H1267 C1296 0.950 . S
H1268 C1298 0.950 . S
H1269 C1299 0.950 . S
C1270 H1252 0.951 . S
C1270 C1271 1.366 . S
C1270 C1272 1.388 . S
C1271 C1270 1.366 . S
C1271 C1275 1.385 . S
C1272 H1253 0.951 . S
C1272 C1270 1.388 . S
C1272 C1273 1.366 . S
C1273 C1272 1.366 . S
C1273 C1274 1.414 . S
C1273 C1276 1.499 . S
C1274 H1254 0.950 . S
C1274 C1273 1.414 . S
C1274 C1275 1.374 . S
C1275 H1255 0.950 . S
C1275 C1271 1.385 . S
C1275 C1274 1.374 . S
C1276 C1273 1.499 . S
C1276 C1277 1.373 . S
C1276 C1278 1.389 . S
C1277 H1256 0.950 . S
C1277 C1276 1.373 . S
C1277 C1293 1.377 . S
C1278 C1276 1.389 . S
C1278 C1279 1.524 . S
C1278 C1292 1.377 . S
C1279 C1278 1.524 . S
C1279 C1280 1.397 . S
C1279 C1284 1.363 . S
C1280 H1257 0.950 . S
C1280 C1279 1.397 . S
C1280 C1281 1.334 . S
C1281 H1258 0.950 . S
C1281 C1280 1.334 . S
C1281 C1282 1.287 . S
C1282 C1281 1.287 . S
C1282 C1283 1.524 . S
C1282 H1301 0.913 . S
C1283 H1259 0.950 . S
C1283 C1282 1.524 . S
C1283 C1284 1.415 . S
C1284 H1260 0.950 . S
C1284 C1279 1.363 . S
C1284 C1283 1.415 . S
C1285 H1261 0.951 . S
C1285 C1286 1.366 . S
C1285 C1287 1.388 . S
C1286 C1285 1.366 . S
C1286 C1290 1.385 . S
C1287 H1262 0.951 . S
C1287 C1285 1.388 . S
C1287 C1288 1.366 . S
C1288 C1287 1.366 . S
C1288 C1289 1.414 . S
C1288 C1291 1.499 . S
C1289 H1263 0.950 . S
C1289 C1288 1.414 . S
C1289 C1290 1.374 . S
C1290 H1264 0.950 . S
C1290 C1286 1.385 . S
C1290 C1289 1.374 . S
C1291 C1288 1.499 . S
C1291 C1292 1.373 . S
C1291 C1293 1.389 . S
C1292 H1265 0.950 . S
C1292 C1278 1.377 . S
C1292 C1291 1.373 . S
C1293 C1277 1.377 . S
C1293 C1291 1.389 . S
C1293 C1294 1.524 . S
C1294 C1293 1.524 . S
C1294 C1295 1.397 . S
C1294 C1299 1.363 . S
C1295 H1266 0.950 . S
C1295 C1294 1.397 . S
C1295 C1296 1.334 . S
C1296 H1267 0.950 . S
C1296 C1295 1.334 . S
C1296 C1297 1.287 . S
C1297 C1296 1.287 . S
C1297 C1298 1.524 . S
C1297 H1300 0.999 . S
C1298 H1268 0.950 . S
C1298 C1297 1.524 . S
C1298 C1299 1.415 . S
C1299 H1269 0.950 . S
C1299 C1294 1.363 . S
C1299 C1298 1.415 . S
H1300 C1297 0.999 . S
H1301 C1282 0.913 . S
H1302 C1320 0.951 . S
H1303 C1322 0.951 . S
H1304 C1324 0.950 . S
H1305 C1325 0.950 . S
H1306 C1327 0.950 . S
H1307 C1330 0.950 . S
H1308 C1331 0.950 . S
H1309 C1333 0.950 . S
H1310 C1334 0.950 . S
H1311 C1335 0.951 . S
H1312 C1337 0.951 . S
H1313 C1339 0.950 . S
H1314 C1340 0.950 . S
H1315 C1342 0.950 . S
H1316 C1345 0.950 . S
H1317 C1346 0.950 . S
H1318 C1348 0.950 . S
H1319 C1349 0.950 . S
C1320 H1302 0.951 . S
C1320 C1321 1.366 . S
C1320 C1322 1.388 . S
C1321 C1320 1.366 . S
C1321 C1325 1.385 . S
C1322 H1303 0.951 . S
C1322 C1320 1.388 . S
C1322 C1323 1.366 . S
C1323 C1322 1.366 . S
C1323 C1324 1.414 . S
C1323 C1326 1.499 . S
C1324 H1304 0.950 . S
C1324 C1323 1.414 . S
C1324 C1325 1.374 . S
C1325 H1305 0.950 . S
C1325 C1321 1.385 . S
C1325 C1324 1.374 . S
C1326 C1323 1.499 . S
C1326 C1327 1.373 . S
C1326 C1328 1.389 . S
C1327 H1306 0.950 . S
C1327 C1326 1.373 . S
C1327 C1343 1.377 . S
C1328 C1326 1.389 . S
C1328 C1329 1.524 . S
C1328 C1342 1.377 . S
C1329 C1328 1.524 . S
C1329 C1330 1.397 . S
C1329 C1334 1.363 . S
C1330 H1307 0.950 . S
C1330 C1329 1.397 . S
C1330 C1331 1.334 . S
C1331 H1308 0.950 . S
C1331 C1330 1.334 . S
C1331 C1332 1.287 . S
C1332 C1331 1.287 . S
C1332 C1333 1.524 . S
C1332 H1351 0.913 . S
C1333 H1309 0.950 . S
C1333 C1332 1.524 . S
C1333 C1334 1.415 . S
C1334 H1310 0.950 . S
C1334 C1329 1.363 . S
C1334 C1333 1.415 . S
C1335 H1311 0.951 . S
C1335 C1336 1.366 . S
C1335 C1337 1.388 . S
C1336 C1335 1.366 . S
C1336 C1340 1.385 . S
C1337 H1312 0.951 . S
C1337 C1335 1.388 . S
C1337 C1338 1.366 . S
C1338 C1337 1.366 . S
C1338 C1339 1.414 . S
C1338 C1341 1.499 . S
C1339 H1313 0.950 . S
C1339 C1338 1.414 . S
C1339 C1340 1.374 . S
C1340 H1314 0.950 . S
C1340 C1336 1.385 . S
C1340 C1339 1.374 . S
C1341 C1338 1.499 . S
C1341 C1342 1.373 . S
C1341 C1343 1.389 . S
C1342 H1315 0.950 . S
C1342 C1328 1.377 . S
C1342 C1341 1.373 . S
C1343 C1327 1.377 . S
C1343 C1341 1.389 . S
C1343 C1344 1.524 . S
C1344 C1343 1.524 . S
C1344 C1345 1.397 . S
C1344 C1349 1.363 . S
C1345 H1316 0.950 . S
C1345 C1344 1.397 . S
C1345 C1346 1.334 . S
C1346 H1317 0.950 . S
C1346 C1345 1.334 . S
C1346 C1347 1.287 . S
C1347 C1346 1.287 . S
C1347 C1348 1.524 . S
C1347 H1350 0.999 . S
C1348 H1318 0.950 . S
C1348 C1347 1.524 . S
C1348 C1349 1.415 . S
C1349 H1319 0.950 . S
C1349 C1344 1.363 . S
C1349 C1348 1.415 . S
H1350 C1347 0.999 . S
H1351 C1332 0.913 . S
H1352 C1370 0.951 . S
H1353 C1372 0.951 . S
H1354 C1374 0.950 . S
H1355 C1375 0.950 . S
H1356 C1377 0.950 1_455 S
H1357 C1380 0.949 . S
H1358 C1381 0.950 . S
H1359 C1383 0.950 . S
H1360 C1384 0.950 . S
H1361 C1385 0.951 . S
H1362 C1387 0.951 . S
H1363 C1389 0.950 . S
H1364 C1390 0.926 1_655 S
H1365 C1392 0.950 . S
H1366 C1395 0.950 . S
H1367 C1396 0.950 . S
H1368 C1398 0.950 . S
H1369 C1399 0.950 . S
C1370 H1352 0.951 . S
C1370 C1371 1.366 . S
C1370 C1372 1.388 . S
C1371 C1370 1.366 . S
C1371 C1375 1.385 . S
C1372 H1353 0.951 . S
C1372 C1370 1.388 . S
C1372 C1373 1.366 . S
C1373 C1372 1.366 . S
C1373 C1374 1.414 . S
C1373 C1376 1.499 . S
C1374 H1354 0.950 . S
C1374 C1373 1.414 . S
C1374 C1375 1.374 . S
C1375 H1355 0.950 . S
C1375 C1371 1.385 . S
C1375 C1374 1.374 . S
C1376 C1373 1.499 . S
C1376 C1377 1.373 . S
C1376 C1378 1.389 . S
C1377 H1356 0.950 1_655 S
C1377 C1376 1.373 . S
C1377 C1393 1.377 1_655 S
C1378 C1376 1.389 . S
C1378 C1379 1.524 . S
C1378 C1392 1.377 . S
C1379 C1378 1.524 . S
C1379 C1380 1.399 . S
C1379 C1384 1.363 . S
C1380 H1357 0.949 . S
C1380 C1379 1.399 . S
C1380 C1381 1.332 1_545 S
C1381 H1358 0.950 . S
C1381 C1380 1.332 1_565 S
C1381 C1382 1.287 . S
C1382 C1381 1.287 . S
C1382 C1383 1.524 . S
C1382 H1401 0.913 . S
C1383 H1359 0.950 . S
C1383 C1382 1.524 . S
C1383 C1384 1.415 1_565 S
C1384 H1360 0.950 . S
C1384 C1379 1.363 . S
C1384 C1383 1.415 1_545 S
C1385 H1361 0.951 . S
C1385 C1386 1.366 . S
C1385 C1387 1.388 . S
C1386 C1385 1.366 . S
C1386 C1390 1.385 . S
C1387 H1362 0.951 . S
C1387 C1385 1.388 . S
C1387 C1388 1.366 . S
C1388 C1387 1.366 . S
C1388 C1389 1.414 1_455 S
C1388 C1391 1.499 1_455 S
C1389 H1363 0.950 . S
C1389 C1388 1.414 1_655 S
C1389 C1390 1.374 1_655 S
C1390 H1364 0.926 1_455 S
C1390 C1386 1.385 . S
C1390 C1389 1.374 1_455 S
C1391 C1388 1.499 1_655 S
C1391 C1392 1.373 . S
C1391 C1393 1.389 1_655 S
C1392 H1365 0.950 . S
C1392 C1378 1.377 . S
C1392 C1391 1.373 . S
C1393 C1377 1.377 1_455 S
C1393 C1391 1.389 1_455 S
C1393 C1394 1.524 . S
C1394 C1393 1.524 . S
C1394 C1395 1.397 . S
C1394 C1399 1.363 . S
C1395 H1366 0.950 . S
C1395 C1394 1.397 . S
C1395 C1396 1.334 . S
C1396 H1367 0.950 . S
C1396 C1395 1.334 . S
C1396 C1397 1.287 . S
C1397 C1396 1.287 . S
C1397 C1398 1.524 . S
C1397 H1400 0.999 . S
C1398 H1368 0.950 . S
C1398 C1397 1.524 . S
C1398 C1399 1.415 . S
C1399 H1369 0.950 . S
C1399 C1394 1.363 . S
C1399 C1398 1.415 . S
H1400 C1397 0.999 . S
H1401 C1382 0.913 . S
H1402 C1420 0.951 . S
H1403 C1422 0.951 . S
H1404 C1424 0.950 . S
H1405 C1425 0.950 . S
H1406 C1427 0.950 . S
H1407 C1430 0.950 . S
H1408 C1431 0.950 . S
H1409 C1433 0.950 . S
H1410 C1434 0.950 . S
H1411 C1435 0.951 . S
H1412 C1437 0.951 . S
H1413 C1439 0.950 . S
H1414 C1440 0.950 . S
H1415 C1442 0.950 . S
H1416 C1445 0.950 . S
H1417 C1446 0.950 . S
H1418 C1448 0.950 . S
H1419 C1449 0.950 . S
C1420 H1402 0.951 . S
C1420 C1421 1.366 . S
C1420 C1422 1.388 . S
C1421 C1420 1.366 . S
C1421 C1425 1.385 . S
C1422 H1403 0.951 . S
C1422 C1420 1.388 . S
C1422 C1423 1.366 . S
C1423 C1422 1.366 . S
C1423 C1424 1.414 . S
C1423 C1426 1.499 . S
C1424 H1404 0.950 . S
C1424 C1423 1.414 . S
C1424 C1425 1.374 . S
C1425 H1405 0.950 . S
C1425 C1421 1.385 . S
C1425 C1424 1.374 . S
C1426 C1423 1.499 . S
C1426 C1427 1.373 . S
C1426 C1428 1.389 . S
C1427 H1406 0.950 . S
C1427 C1426 1.373 . S
C1427 C1443 1.377 . S
C1428 C1426 1.389 . S
C1428 C1429 1.524 . S
C1428 C1442 1.377 . S
C1429 C1428 1.524 . S
C1429 C1430 1.397 . S
C1429 C1434 1.363 . S
C1430 H1407 0.950 . S
C1430 C1429 1.397 . S
C1430 C1431 1.334 . S
C1431 H1408 0.950 . S
C1431 C1430 1.334 . S
C1431 C1432 1.287 . S
C1432 C1431 1.287 . S
C1432 C1433 1.524 . S
C1432 H1451 0.913 . S
C1433 H1409 0.950 . S
C1433 C1432 1.524 . S
C1433 C1434 1.415 . S
C1434 H1410 0.950 . S
C1434 C1429 1.363 . S
C1434 C1433 1.415 . S
C1435 H1411 0.951 . S
C1435 C1436 1.366 . S
C1435 C1437 1.388 . S
C1436 C1435 1.366 . S
C1436 C1440 1.385 . S
C1437 H1412 0.951 . S
C1437 C1435 1.388 . S
C1437 C1438 1.366 . S
C1438 C1437 1.366 . S
C1438 C1439 1.414 . S
C1438 C1441 1.499 . S
C1439 H1413 0.950 . S
C1439 C1438 1.414 . S
C1439 C1440 1.374 . S
C1440 H1414 0.950 . S
C1440 C1436 1.385 . S
C1440 C1439 1.374 . S
C1441 C1438 1.499 . S
C1441 C1442 1.373 . S
C1441 C1443 1.389 . S
C1442 H1415 0.950 . S
C1442 C1428 1.377 . S
C1442 C1441 1.373 . S
C1443 C1427 1.377 . S
C1443 C1441 1.389 . S
C1443 C1444 1.524 . S
C1444 C1443 1.524 . S
C1444 C1445 1.397 . S
C1444 C1449 1.363 . S
C1445 H1416 0.950 . S
C1445 C1444 1.397 . S
C1445 C1446 1.334 . S
C1446 H1417 0.950 . S
C1446 C1445 1.334 . S
C1446 C1447 1.287 . S
C1447 C1446 1.287 . S
C1447 C1448 1.524 . S
C1447 H1450 0.999 . S
C1448 H1418 0.950 . S
C1448 C1447 1.524 . S
C1448 C1449 1.415 . S
C1449 H1419 0.950 . S
C1449 C1444 1.363 . S
C1449 C1448 1.415 . S
H1450 C1447 0.999 . S
H1451 C1432 0.913 . S
H1452 C1470 0.951 . S
H1453 C1472 0.951 . S
H1454 C1474 0.950 . S
H1455 C1475 0.950 . S
H1456 C1477 0.950 . S
H1457 C1480 0.950 . S
H1458 C1481 0.950 . S
H1459 C1483 0.950 . S
H1460 C1484 0.950 . S
H1461 C1485 0.951 . S
H1462 C1487 0.951 . S
H1463 C1489 0.950 . S
H1464 C1490 0.950 . S
H1465 C1492 0.950 . S
H1466 C1495 0.950 . S
H1467 C1496 0.950 . S
H1468 C1498 0.950 . S
H1469 C1499 0.950 . S
C1470 H1452 0.951 . S
C1470 C1471 1.366 . S
C1470 C1472 1.388 . S
C1471 C1470 1.366 . S
C1471 C1475 1.385 . S
C1472 H1453 0.951 . S
C1472 C1470 1.388 . S
C1472 C1473 1.366 . S
C1473 C1472 1.366 . S
C1473 C1474 1.414 . S
C1473 C1476 1.499 . S
C1474 H1454 0.950 . S
C1474 C1473 1.414 . S
C1474 C1475 1.374 . S
C1475 H1455 0.950 . S
C1475 C1471 1.385 . S
C1475 C1474 1.374 . S
C1476 C1473 1.499 . S
C1476 C1477 1.373 . S
C1476 C1478 1.389 . S
C1477 H1456 0.950 . S
C1477 C1476 1.373 . S
C1477 C1493 1.377 . S
C1478 C1476 1.389 . S
C1478 C1479 1.524 . S
C1478 C1492 1.377 . S
C1479 C1478 1.524 . S
C1479 C1480 1.397 . S
C1479 C1484 1.363 1_545 S
C1480 H1457 0.950 . S
C1480 C1479 1.397 . S
C1480 C1481 1.334 1_545 S
C1481 H1458 0.950 . S
C1481 C1480 1.334 1_565 S
C1481 C1482 1.287 . S
C1482 C1481 1.287 . S
C1482 C1483 1.524 . S
C1482 H1501 0.913 . S
C1483 H1459 0.950 . S
C1483 C1482 1.524 . S
C1483 C1484 1.415 . S
C1484 H1460 0.950 . S
C1484 C1479 1.363 1_565 S
C1484 C1483 1.415 . S
C1485 H1461 0.951 . S
C1485 C1486 1.366 . S
C1485 C1487 1.388 . S
C1486 C1485 1.366 . S
C1486 C1490 1.385 . S
C1487 H1462 0.951 . S
C1487 C1485 1.388 . S
C1487 C1488 1.366 . S
C1488 C1487 1.366 . S
C1488 C1489 1.414 . S
C1488 C1491 1.499 . S
C1489 H1463 0.950 . S
C1489 C1488 1.414 . S
C1489 C1490 1.374 . S
C1490 H1464 0.950 . S
C1490 C1486 1.385 . S
C1490 C1489 1.374 . S
C1491 C1488 1.499 . S
C1491 C1492 1.373 . S
C1491 C1493 1.389 . S
C1492 H1465 0.950 . S
C1492 C1478 1.377 . S
C1492 C1491 1.373 . S
C1493 C1477 1.377 . S
C1493 C1491 1.389 . S
C1493 C1494 1.524 . S
C1494 C1493 1.524 . S
C1494 C1495 1.397 . S
C1494 C1499 1.363 . S
C1495 H1466 0.950 . S
C1495 C1494 1.397 . S
C1495 C1496 1.334 . S
C1496 H1467 0.950 . S
C1496 C1495 1.334 . S
C1496 C1497 1.287 . S
C1497 C1496 1.287 . S
C1497 C1498 1.524 . S
C1497 H1500 0.999 . S
C1498 H1468 0.950 . S
C1498 C1497 1.524 . S
C1498 C1499 1.415 . S
C1499 H1469 0.950 . S
C1499 C1494 1.363 . S
C1499 C1498 1.415 . S
H1500 C1497 0.999 . S
H1501 C1482 0.913 . S
H1502 C1520 0.951 . S
H1503 C1522 0.951 . S
H1504 C1524 0.950 . S
H1505 C1525 0.950 . S
H1506 C1527 0.950 . S
H1507 C1530 0.950 . S
H1508 C1531 0.950 . S
H1509 C1533 0.950 . S
H1510 C1534 0.950 . S
H1511 C1535 0.951 . S
H1512 C1537 0.951 . S
H1513 C1539 0.950 . S
H1514 C1540 0.950 . S
H1515 C1542 0.950 . S
H1516 C1545 0.950 . S
H1517 C1546 0.950 . S
H1518 C1548 0.950 . S
H1519 C1549 0.950 . S
C1520 H1502 0.951 . S
C1520 C1521 1.366 . S
C1520 C1522 1.388 . S
C1521 C1520 1.366 . S
C1521 C1525 1.385 . S
C1522 H1503 0.951 . S
C1522 C1520 1.388 . S
C1522 C1523 1.366 . S
C1523 C1522 1.366 . S
C1523 C1524 1.414 . S
C1523 C1526 1.499 . S
C1524 H1504 0.950 . S
C1524 C1523 1.414 . S
C1524 C1525 1.374 . S
C1525 H1505 0.950 . S
C1525 C1521 1.385 . S
C1525 C1524 1.374 . S
C1526 C1523 1.499 . S
C1526 C1527 1.373 . S
C1526 C1528 1.389 . S
C1527 H1506 0.950 . S
C1527 C1526 1.373 . S
C1527 C1543 1.377 . S
C1528 C1526 1.389 . S
C1528 C1529 1.524 . S
C1528 C1542 1.377 . S
C1529 C1528 1.524 . S
C1529 C1530 1.397 . S
C1529 C1534 1.363 . S
C1530 H1507 0.950 . S
C1530 C1529 1.397 . S
C1530 C1531 1.334 . S
C1531 H1508 0.950 . S
C1531 C1530 1.334 . S
C1531 C1532 1.287 . S
C1532 C1531 1.287 . S
C1532 C1533 1.524 . S
C1532 H1551 0.913 . S
C1533 H1509 0.950 . S
C1533 C1532 1.524 . S
C1533 C1534 1.415 . S
C1534 H1510 0.950 . S
C1534 C1529 1.363 . S
C1534 C1533 1.415 . S
C1535 H1511 0.951 . S
C1535 C1536 1.366 . S
C1535 C1537 1.388 . S
C1536 C1535 1.366 . S
C1536 C1540 1.385 . S
C1537 H1512 0.951 . S
C1537 C1535 1.388 . S
C1537 C1538 1.366 . S
C1538 C1537 1.366 . S
C1538 C1539 1.414 . S
C1538 C1541 1.499 . S
C1539 H1513 0.950 . S
C1539 C1538 1.414 . S
C1539 C1540 1.374 . S
C1540 H1514 0.950 . S
C1540 C1536 1.385 . S
C1540 C1539 1.374 . S
C1541 C1538 1.499 . S
C1541 C1542 1.373 . S
C1541 C1543 1.389 . S
C1542 H1515 0.950 . S
C1542 C1528 1.377 . S
C1542 C1541 1.373 . S
C1543 C1527 1.377 . S
C1543 C1541 1.389 . S
C1543 C1544 1.524 . S
C1544 C1543 1.524 . S
C1544 C1545 1.397 . S
C1544 C1549 1.363 . S
C1545 H1516 0.950 . S
C1545 C1544 1.397 . S
C1545 C1546 1.334 . S
C1546 H1517 0.950 . S
C1546 C1545 1.334 . S
C1546 C1547 1.287 . S
C1547 C1546 1.287 . S
C1547 C1548 1.524 . S
C1547 H1550 0.999 . S
C1548 H1518 0.950 . S
C1548 C1547 1.524 . S
C1548 C1549 1.415 . S
C1549 H1519 0.950 . S
C1549 C1544 1.363 . S
C1549 C1548 1.415 . S
H1550 C1547 0.999 . S
H1551 C1532 0.913 . S
H1552 C1570 0.951 . S
H1553 C1572 0.951 . S
H1554 C1574 0.950 . S
H1555 C1575 0.950 . S
H1556 C1577 0.950 1_455 S
H1557 C1580 0.950 . S
H1558 C1581 0.950 . S
H1559 C1583 0.950 1_565 S
H1560 C1584 0.904 1_565 S
H1561 C1585 0.951 . S
H1562 C1587 0.951 . S
H1563 C1589 0.950 1_655 S
H1564 C1590 0.950 . S
H1565 C1592 0.950 . S
H1566 C1595 0.950 . S
H1567 C1596 0.950 . S
H1568 C1598 0.950 . S
H1569 C1599 0.950 . S
C1570 H1552 0.951 . S
C1570 C1571 1.366 . S
C1570 C1572 1.388 . S
C1571 C1570 1.366 . S
C1571 C1575 1.385 . S
C1572 H1553 0.951 . S
C1572 C1570 1.388 . S
C1572 C1573 1.366 . S
C1573 C1572 1.366 . S
C1573 C1574 1.414 . S
C1573 C1576 1.499 . S
C1574 H1554 0.950 . S
C1574 C1573 1.414 . S
C1574 C1575 1.374 . S
C1575 H1555 0.950 . S
C1575 C1571 1.385 . S
C1575 C1574 1.374 . S
C1576 C1573 1.499 . S
C1576 C1577 1.373 . S
C1576 C1578 1.389 . S
C1577 H1556 0.950 1_655 S
C1577 C1576 1.373 . S
C1577 C1593 1.377 1_655 S
C1578 C1576 1.389 . S
C1578 C1579 1.524 . S
C1578 C1592 1.377 . S
C1579 C1578 1.524 . S
C1579 C1580 1.397 . S
C1579 C1584 1.363 . S
C1580 H1557 0.950 . S
C1580 C1579 1.397 . S
C1580 C1581 1.334 . S
C1581 H1558 0.950 . S
C1581 C1580 1.334 . S
C1581 C1582 1.287 . S
C1582 C1581 1.287 . S
C1582 C1583 1.524 . S
C1582 H1601 0.913 . S
C1583 H1559 0.950 1_545 S
C1583 C1582 1.524 . S
C1583 C1584 1.415 . S
C1584 H1560 0.904 1_545 S
C1584 C1579 1.363 . S
C1584 C1583 1.415 . S
C1585 H1561 0.951 . S
C1585 C1586 1.366 . S
C1585 C1587 1.388 . S
C1586 C1585 1.366 . S
C1586 C1590 1.385 . S
C1587 H1562 0.951 . S
C1587 C1585 1.388 . S
C1587 C1588 1.366 . S
C1588 C1587 1.366 . S
C1588 C1589 1.414 . S
C1588 C1591 1.499 1_455 S
C1589 H1563 0.950 1_455 S
C1589 C1588 1.414 . S
C1589 C1590 1.374 . S
C1590 H1564 0.950 . S
C1590 C1586 1.385 . S
C1590 C1589 1.374 . S
C1591 C1588 1.499 1_655 S
C1591 C1592 1.373 . S
C1591 C1593 1.389 1_655 S
C1592 H1565 0.950 . S
C1592 C1578 1.377 . S
C1592 C1591 1.373 . S
C1593 C1577 1.377 1_455 S
C1593 C1591 1.389 1_455 S
C1593 C1594 1.524 . S
C1594 C1593 1.524 . S
C1594 C1595 1.397 . S
C1594 C1599 1.363 . S
C1595 H1566 0.950 . S
C1595 C1594 1.397 . S
C1595 C1596 1.334 . S
C1596 H1567 0.950 . S
C1596 C1595 1.334 . S
C1596 C1597 1.287 . S
C1597 C1596 1.287 . S
C1597 C1598 1.524 . S
C1597 H1600 0.999 . S
C1598 H1568 0.950 . S
C1598 C1597 1.524 . S
C1598 C1599 1.415 . S
C1599 H1569 0.950 . S
C1599 C1594 1.363 . S
C1599 C1598 1.415 . S
H1600 C1597 0.999 . S
H1601 C1582 0.913 . S
H1602 C1620 0.951 . S
H1603 C1622 0.951 . S
H1604 C1624 0.950 . S
H1605 C1625 0.950 . S
H1606 C1627 0.950 . S
H1607 C1630 0.950 . S
H1608 C1631 0.950 . S
H1609 C1633 0.950 . S
H1610 C1634 0.950 . S
H1611 C1635 0.951 . S
H1612 C1637 0.951 . S
H1613 C1639 0.950 . S
H1614 C1640 0.950 . S
H1615 C1642 0.950 . S
H1616 C1645 0.950 . S
H1617 C1646 0.950 . S
H1618 C1648 0.950 . S
H1619 C1649 0.950 . S
C1620 H1602 0.951 . S
C1620 C1621 1.366 . S
C1620 C1622 1.388 . S
C1621 C1620 1.366 . S
C1621 C1625 1.385 . S
C1622 H1603 0.951 . S
C1622 C1620 1.388 . S
C1622 C1623 1.366 . S
C1623 C1622 1.366 . S
C1623 C1624 1.414 . S
C1623 C1626 1.499 . S
C1624 H1604 0.950 . S
C1624 C1623 1.414 . S
C1624 C1625 1.374 . S
C1625 H1605 0.950 . S
C1625 C1621 1.385 . S
C1625 C1624 1.374 . S
C1626 C1623 1.499 . S
C1626 C1627 1.373 . S
C1626 C1628 1.389 . S
C1627 H1606 0.950 . S
C1627 C1626 1.373 . S
C1627 C1643 1.377 . S
C1628 C1626 1.389 . S
C1628 C1629 1.524 . S
C1628 C1642 1.377 . S
C1629 C1628 1.524 . S
C1629 C1630 1.397 . S
C1629 C1634 1.363 . S
C1630 H1607 0.950 . S
C1630 C1629 1.397 . S
C1630 C1631 1.334 . S
C1631 H1608 0.950 . S
C1631 C1630 1.334 . S
C1631 C1632 1.287 . S
C1632 C1631 1.287 . S
C1632 C1633 1.524 . S
C1632 H1651 0.913 . S
C1633 H1609 0.950 . S
C1633 C1632 1.524 . S
C1633 C1634 1.415 . S
C1634 H1610 0.950 . S
C1634 C1629 1.363 . S
C1634 C1633 1.415 . S
C1635 H1611 0.951 . S
C1635 C1636 1.366 . S
C1635 C1637 1.388 . S
C1636 C1635 1.366 . S
C1636 C1640 1.385 . S
C1637 H1612 0.951 . S
C1637 C1635 1.388 . S
C1637 C1638 1.366 . S
C1638 C1637 1.366 . S
C1638 C1639 1.414 . S
C1638 C1641 1.499 . S
C1639 H1613 0.950 . S
C1639 C1638 1.414 . S
C1639 C1640 1.374 . S
C1640 H1614 0.950 . S
C1640 C1636 1.385 . S
C1640 C1639 1.374 . S
C1641 C1638 1.499 . S
C1641 C1642 1.373 . S
C1641 C1643 1.389 . S
C1642 H1615 0.950 . S
C1642 C1628 1.377 . S
C1642 C1641 1.373 . S
C1643 C1627 1.377 . S
C1643 C1641 1.389 . S
C1643 C1644 1.524 . S
C1644 C1643 1.524 . S
C1644 C1645 1.397 . S
C1644 C1649 1.363 . S
C1645 H1616 0.950 . S
C1645 C1644 1.397 . S
C1645 C1646 1.334 . S
C1646 H1617 0.950 . S
C1646 C1645 1.334 . S
C1646 C1647 1.287 . S
C1647 C1646 1.287 . S
C1647 C1648 1.524 . S
C1647 H1650 0.999 . S
C1648 H1618 0.950 . S
C1648 C1647 1.524 . S
C1648 C1649 1.415 . S
C1649 H1619 0.950 . S
C1649 C1644 1.363 . S
C1649 C1648 1.415 . S
H1650 C1647 0.999 . S
H1651 C1632 0.913 . S
H1652 C1670 0.951 . S
H1653 C1672 0.951 . S
H1654 C1674 0.950 . S
H1655 C1675 0.950 . S
H1656 C1677 0.950 . S
H1657 C1680 0.950 . S
H1658 C1681 0.950 . S
H1659 C1683 0.950 . S
H1660 C1684 0.950 . S
H1661 C1685 0.951 . S
H1662 C1687 0.951 . S
H1663 C1689 0.950 . S
H1664 C1690 0.950 . S
H1665 C1692 0.950 . S
H1666 C1695 0.950 . S
H1667 C1696 0.950 . S
H1668 C1698 0.950 . S
H1669 C1699 0.950 . S
C1670 H1652 0.951 . S
C1670 C1671 1.366 . S
C1670 C1672 1.388 . S
C1671 C1670 1.366 . S
C1671 C1675 1.385 . S
C1672 H1653 0.951 . S
C1672 C1670 1.388 . S
C1672 C1673 1.366 . S
C1673 C1672 1.366 . S
C1673 C1674 1.414 . S
C1673 C1676 1.499 . S
C1674 H1654 0.950 . S
C1674 C1673 1.414 . S
C1674 C1675 1.374 . S
C1675 H1655 0.950 . S
C1675 C1671 1.385 . S
C1675 C1674 1.374 . S
C1676 C1673 1.499 . S
C1676 C1677 1.373 . S
C1676 C1678 1.389 . S
C1677 H1656 0.950 . S
C1677 C1676 1.373 . S
C1677 C1693 1.377 . S
C1678 C1676 1.389 . S
C1678 C1679 1.524 . S
C1678 C1692 1.377 . S
C1679 C1678 1.524 . S
C1679 C1680 1.397 . S
C1679 C1684 1.363 . S
C1680 H1657 0.950 . S
C1680 C1679 1.397 . S
C1680 C1681 1.334 . S
C1681 H1658 0.950 . S
C1681 C1680 1.334 . S
C1681 C1682 1.287 . S
C1682 C1681 1.287 . S
C1682 C1683 1.524 . S
C1682 H1701 0.913 1_545 S
C1683 H1659 0.950 . S
C1683 C1682 1.524 . S
C1683 C1684 1.415 . S
C1684 H1660 0.950 . S
C1684 C1679 1.363 . S
C1684 C1683 1.415 . S
C1685 H1661 0.951 . S
C1685 C1686 1.366 . S
C1685 C1687 1.388 . S
C1686 C1685 1.366 . S
C1686 C1690 1.385 . S
C1687 H1662 0.951 . S
C1687 C1685 1.388 . S
C1687 C1688 1.366 . S
C1688 C1687 1.366 . S
C1688 C1689 1.414 . S
C1688 C1691 1.499 . S
C1689 H1663 0.950 . S
C1689 C1688 1.414 . S
C1689 C1690 1.374 . S
C1690 H1664 0.950 . S
C1690 C1686 1.385 . S
C1690 C1689 1.374 . S
C1691 C1688 1.499 . S
C1691 C1692 1.373 . S
C1691 C1693 1.389 . S
C1692 H1665 0.950 . S
C1692 C1678 1.377 . S
C1692 C1691 1.373 . S
C1693 C1677 1.377 . S
C1693 C1691 1.389 . S
C1693 C1694 1.524 . S
C1694 C1693 1.524 . S
C1694 C1695 1.397 . S
C1694 C1699 1.363 . S
C1695 H1666 0.950 . S
C1695 C1694 1.397 . S
C1695 C1696 1.334 . S
C1696 H1667 0.950 . S
C1696 C1695 1.334 . S
C1696 C1697 1.287 . S
C1697 C1696 1.287 . S
C1697 C1698 1.524 . S
C1697 H1700 0.999 . S
C1698 H1668 0.950 . S
C1698 C1697 1.524 . S
C1698 C1699 1.415 . S
C1699 H1669 0.950 . S
C1699 C1694 1.363 . S
C1699 C1698 1.415 . S
H1700 C1697 0.999 . S
H1701 C1682 0.913 1_565 S
H1702 C1720 0.951 . S
H1703 C1722 0.951 . S
H1704 C1724 0.950 . S
H1705 C1725 0.950 . S
H1706 C1727 0.950 . S
H1707 C1730 0.950 . S
H1708 C1731 0.950 . S
H1709 C1733 0.950 . S
H1710 C1734 0.950 . S
H1711 C1735 0.951 . S
H1712 C1737 0.951 . S
H1713 C1739 0.950 . S
H1714 C1740 0.950 . S
H1715 C1742 0.950 . S
H1716 C1745 0.950 . S
H1717 C1746 0.950 . S
H1718 C1748 0.950 . S
H1719 C1749 0.950 . S
C1720 H1702 0.951 . S
C1720 C1721 1.366 . S
C1720 C1722 1.388 . S
C1721 C1720 1.366 . S
C1721 C1725 1.385 . S
C1722 H1703 0.951 . S
C1722 C1720 1.388 . S
C1722 C1723 1.366 . S
C1723 C1722 1.366 . S
C1723 C1724 1.414 . S
C1723 C1726 1.499 . S
C1724 H1704 0.950 . S
C1724 C1723 1.414 . S
C1724 C1725 1.374 . S
C1725 H1705 0.950 . S
C1725 C1721 1.385 . S
C1725 C1724 1.374 . S
C1726 C1723 1.499 . S
C1726 C1727 1.373 . S
C1726 C1728 1.389 . S
C1727 H1706 0.950 . S
C1727 C1726 1.373 . S
C1727 C1743 1.377 . S
C1728 C1726 1.389 . S
C1728 C1729 1.524 . S
C1728 C1742 1.377 . S
C1729 C1728 1.524 . S
C1729 C1730 1.397 . S
C1729 C1734 1.363 . S
C1730 H1707 0.950 . S
C1730 C1729 1.397 . S
C1730 C1731 1.334 . S
C1731 H1708 0.950 . S
C1731 C1730 1.334 . S
C1731 C1732 1.287 . S
C1732 C1731 1.287 . S
C1732 C1733 1.524 . S
C1732 H1751 0.913 . S
C1733 H1709 0.950 . S
C1733 C1732 1.524 . S
C1733 C1734 1.415 . S
C1734 H1710 0.950 . S
C1734 C1729 1.363 . S
C1734 C1733 1.415 . S
C1735 H1711 0.951 . S
C1735 C1736 1.366 . S
C1735 C1737 1.388 . S
C1736 C1735 1.366 . S
C1736 C1740 1.385 . S
C1737 H1712 0.951 . S
C1737 C1735 1.388 . S
C1737 C1738 1.366 . S
C1738 C1737 1.366 . S
C1738 C1739 1.414 . S
C1738 C1741 1.499 . S
C1739 H1713 0.950 . S
C1739 C1738 1.414 . S
C1739 C1740 1.374 . S
C1740 H1714 0.950 . S
C1740 C1736 1.385 . S
C1740 C1739 1.374 . S
C1741 C1738 1.499 . S
C1741 C1742 1.373 . S
C1741 C1743 1.389 . S
C1742 H1715 0.950 . S
C1742 C1728 1.377 . S
C1742 C1741 1.373 . S
C1743 C1727 1.377 . S
C1743 C1741 1.389 . S
C1743 C1744 1.524 . S
C1744 C1743 1.524 . S
C1744 C1745 1.397 . S
C1744 C1749 1.363 . S
C1745 H1716 0.950 . S
C1745 C1744 1.397 . S
C1745 C1746 1.334 . S
C1746 H1717 0.950 . S
C1746 C1745 1.334 . S
C1746 C1747 1.287 . S
C1747 C1746 1.287 . S
C1747 C1748 1.524 . S
C1747 H1750 0.999 . S
C1748 H1718 0.950 . S
C1748 C1747 1.524 . S
C1748 C1749 1.415 . S
C1749 H1719 0.950 . S
C1749 C1744 1.363 . S
C1749 C1748 1.415 . S
H1750 C1747 0.999 . S
H1751 C1732 0.913 . S
H1752 C1770 0.951 . S
H1753 C1772 0.951 . S
H1754 C1774 0.950 . S
H1755 C1775 0.949 1_556 S
H1756 C1777 0.926 1_556 S
H1757 C1780 0.950 . S
H1758 C1781 0.950 . S
H1759 C1783 0.950 . S
H1760 C1784 0.950 . S
H1761 C1785 0.951 . S
H1762 C1787 0.951 . S
H1763 C1789 0.950 . S
H1764 C1790 0.950 . S
H1765 C1792 0.950 . S
H1766 C1795 0.981 1_545 S
H1767 C1796 0.950 . S
H1768 C1798 0.950 . S
H1769 C1799 0.950 . S
C1770 H1752 0.951 . S
C1770 C1771 1.366 . S
C1770 C1772 1.388 . S
C1771 C1770 1.366 . S
C1771 C1775 1.385 . S
C1772 H1753 0.951 . S
C1772 C1770 1.388 . S
C1772 C1773 1.366 . S
C1773 C1772 1.366 . S
C1773 C1774 1.414 . S
C1773 C1776 1.499 . S
C1774 H1754 0.950 . S
C1774 C1773 1.414 . S
C1774 C1775 1.375 . S
C1775 H1755 0.949 1_554 S
C1775 C1771 1.385 . S
C1775 C1774 1.375 . S
C1776 C1773 1.499 . S
C1776 C1777 1.373 . S
C1776 C1778 1.389 . S
C1777 H1756 0.926 1_554 S
C1777 C1776 1.373 . S
C1777 C1793 1.377 . S
C1778 C1776 1.389 . S
C1778 C1779 1.524 . S
C1778 C1792 1.377 . S
C1779 C1778 1.524 . S
C1779 C1780 1.397 . S
C1779 C1784 1.363 . S
C1780 H1757 0.950 . S
C1780 C1779 1.397 . S
C1780 C1781 1.334 . S
C1781 H1758 0.950 . S
C1781 C1780 1.334 . S
C1781 C1782 1.287 . S
C1782 C1781 1.287 . S
C1782 C1783 1.524 . S
C1782 H1801 0.913 . S
C1783 H1759 0.950 . S
C1783 C1782 1.524 . S
C1783 C1784 1.415 . S
C1784 H1760 0.950 . S
C1784 C1779 1.363 . S
C1784 C1783 1.415 . S
C1785 H1761 0.951 . S
C1785 C1786 1.366 1_565 S
C1785 C1787 1.388 . S
C1786 C1785 1.366 1_545 S
C1786 C1790 1.385 . S
C1787 H1762 0.951 . S
C1787 C1785 1.388 . S
C1787 C1788 1.366 . S
C1788 C1787 1.366 . S
C1788 C1789 1.414 1_565 S
C1788 C1791 1.499 . S
C1789 H1763 0.950 . S
C1789 C1788 1.414 1_545 S
C1789 C1790 1.374 . S
C1790 H1764 0.950 . S
C1790 C1786 1.385 . S
C1790 C1789 1.374 . S
C1791 C1788 1.499 . S
C1791 C1792 1.373 . S
C1791 C1793 1.389 . S
C1792 H1765 0.950 . S
C1792 C1778 1.377 . S
C1792 C1791 1.373 . S
C1793 C1777 1.377 . S
C1793 C1791 1.389 . S
C1793 C1794 1.524 . S
C1794 C1793 1.524 . S
C1794 C1795 1.409 . S
C1794 C1799 1.363 1_554 S
C1795 H1766 0.981 1_565 S
C1795 C1794 1.409 . S
C1795 C1796 1.294 1_564 S
C1796 H1767 0.950 . S
C1796 C1795 1.294 1_546 S
C1796 C1797 1.287 1_545 S
C1797 C1796 1.287 1_565 S
C1797 C1798 1.524 . S
C1797 H1800 0.999 . S
C1798 H1768 0.950 . S
C1798 C1797 1.524 . S
C1798 C1799 1.415 . S
C1799 H1769 0.950 . S
C1799 C1794 1.363 1_556 S
C1799 C1798 1.415 . S
H1800 C1797 0.999 . S
H1801 C1782 0.913 . S
H1802 C1820 0.951 . S
H1803 C1822 0.951 . S
H1804 C1824 0.950 . S
H1805 C1825 0.950 . S
H1806 C1827 0.950 . S
H1807 C1830 0.950 . S
H1808 C1831 0.950 . S
H1809 C1833 0.950 . S
H1810 C1834 0.950 . S
H1811 C1835 0.951 . S
H1812 C1837 0.951 . S
H1813 C1839 0.950 . S
H1814 C1840 0.950 . S
H1815 C1842 0.950 . S
H1816 C1845 0.950 . S
H1817 C1846 0.950 . S
H1818 C1848 0.950 . S
H1819 C1849 0.950 . S
C1820 H1802 0.951 . S
C1820 C1821 1.366 . S
C1820 C1822 1.388 . S
C1821 C1820 1.366 . S
C1821 C1825 1.385 . S
C1822 H1803 0.951 . S
C1822 C1820 1.388 . S
C1822 C1823 1.366 . S
C1823 C1822 1.366 . S
C1823 C1824 1.414 . S
C1823 C1826 1.499 . S
C1824 H1804 0.950 . S
C1824 C1823 1.414 . S
C1824 C1825 1.374 . S
C1825 H1805 0.950 . S
C1825 C1821 1.385 . S
C1825 C1824 1.374 . S
C1826 C1823 1.499 . S
C1826 C1827 1.373 1_554 S
C1826 C1828 1.389 . S
C1827 H1806 0.950 . S
C1827 C1826 1.373 1_556 S
C1827 C1843 1.377 . S
C1828 C1826 1.389 . S
C1828 C1829 1.524 . S
C1828 C1842 1.377 . S
C1829 C1828 1.524 . S
C1829 C1830 1.397 . S
C1829 C1834 1.363 . S
C1830 H1807 0.950 . S
C1830 C1829 1.397 . S
C1830 C1831 1.334 . S
C1831 H1808 0.950 . S
C1831 C1830 1.334 . S
C1831 C1832 1.287 . S
C1832 C1831 1.287 . S
C1832 C1833 1.524 . S
C1832 H1851 0.913 . S
C1833 H1809 0.950 . S
C1833 C1832 1.524 . S
C1833 C1834 1.415 . S
C1834 H1810 0.950 . S
C1834 C1829 1.363 . S
C1834 C1833 1.415 . S
C1835 H1811 0.951 . S
C1835 C1836 1.366 . S
C1835 C1837 1.388 . S
C1836 C1835 1.366 . S
C1836 C1840 1.385 . S
C1837 H1812 0.951 . S
C1837 C1835 1.388 . S
C1837 C1838 1.366 . S
C1838 C1837 1.366 . S
C1838 C1839 1.414 . S
C1838 C1841 1.499 . S
C1839 H1813 0.950 . S
C1839 C1838 1.414 . S
C1839 C1840 1.374 . S
C1840 H1814 0.950 . S
C1840 C1836 1.385 . S
C1840 C1839 1.374 . S
C1841 C1838 1.499 . S
C1841 C1842 1.373 . S
C1841 C1843 1.389 1_554 S
C1842 H1815 0.950 . S
C1842 C1828 1.377 . S
C1842 C1841 1.373 . S
C1843 C1827 1.377 . S
C1843 C1841 1.389 1_556 S
C1843 C1844 1.524 . S
C1844 C1843 1.524 . S
C1844 C1845 1.397 . S
C1844 C1849 1.363 . S
C1845 H1816 0.950 . S
C1845 C1844 1.397 . S
C1845 C1846 1.334 . S
C1846 H1817 0.950 . S
C1846 C1845 1.334 . S
C1846 C1847 1.287 . S
C1847 C1846 1.287 . S
C1847 C1848 1.524 . S
C1847 H1850 0.999 . S
C1848 H1818 0.950 . S
C1848 C1847 1.524 . S
C1848 C1849 1.415 . S
C1849 H1819 0.950 . S
C1849 C1844 1.363 . S
C1849 C1848 1.415 . S
H1850 C1847 0.999 . S
H1851 C1832 0.913 . S
H1852 C1870 0.951 . S
H1853 C1872 0.951 . S
H1854 C1874 0.950 . S
H1855 C1875 0.950 . S
H1856 C1877 0.950 . S
H1857 C1880 0.950 . S
H1858 C1881 0.950 . S
H1859 C1883 0.950 . S
H1860 C1884 0.950 . S
H1861 C1885 0.951 . S
H1862 C1887 0.951 . S
H1863 C1889 0.950 . S
H1864 C1890 0.950 . S
H1865 C1892 0.950 . S
H1866 C1895 0.950 . S
H1867 C1896 0.950 . S
H1868 C1898 0.950 . S
H1869 C1899 0.950 . S
C1870 H1852 0.951 . S
C1870 C1871 1.366 . S
C1870 C1872 1.388 . S
C1871 C1870 1.366 . S
C1871 C1875 1.385 . S
C1872 H1853 0.951 . S
C1872 C1870 1.388 . S
C1872 C1873 1.366 . S
C1873 C1872 1.366 . S
C1873 C1874 1.414 . S
C1873 C1876 1.499 . S
C1874 H1854 0.950 . S
C1874 C1873 1.414 . S
C1874 C1875 1.374 . S
C1875 H1855 0.950 . S
C1875 C1871 1.385 . S
C1875 C1874 1.374 . S
C1876 C1873 1.499 . S
C1876 C1877 1.373 . S
C1876 C1878 1.389 . S
C1877 H1856 0.950 . S
C1877 C1876 1.373 . S
C1877 C1893 1.377 . S
C1878 C1876 1.389 . S
C1878 C1879 1.524 . S
C1878 C1892 1.377 . S
C1879 C1878 1.524 . S
C1879 C1880 1.397 . S
C1879 C1884 1.363 . S
C1880 H1857 0.950 . S
C1880 C1879 1.397 . S
C1880 C1881 1.334 . S
C1881 H1858 0.950 . S
C1881 C1880 1.334 . S
C1881 C1882 1.287 . S
C1882 C1881 1.287 . S
C1882 C1883 1.524 . S
C1882 H1901 0.913 . S
C1883 H1859 0.950 . S
C1883 C1882 1.524 . S
C1883 C1884 1.415 . S
C1884 H1860 0.950 . S
C1884 C1879 1.363 . S
C1884 C1883 1.415 . S
C1885 H1861 0.951 . S
C1885 C1886 1.366 . S
C1885 C1887 1.388 . S
C1886 C1885 1.366 . S
C1886 C1890 1.385 . S
C1887 H1862 0.951 . S
C1887 C1885 1.388 . S
C1887 C1888 1.366 . S
C1888 C1887 1.366 . S
C1888 C1889 1.414 . S
C1888 C1891 1.499 . S
C1889 H1863 0.950 . S
C1889 C1888 1.414 . S
C1889 C1890 1.374 . S
C1890 H1864 0.950 . S
C1890 C1886 1.385 . S
C1890 C1889 1.374 . S
C1891 C1888 1.499 . S
C1891 C1892 1.373 . S
C1891 C1893 1.389 . S
C1892 H1865 0.950 . S
C1892 C1878 1.377 . S
C1892 C1891 1.373 . S
C1893 C1877 1.377 . S
C1893 C1891 1.389 . S
C1893 C1894 1.524 . S
C1894 C1893 1.524 . S
C1894 C1895 1.397 . S
C1894 C1899 1.363 . S
C1895 H1866 0.950 . S
C1895 C1894 1.397 . S
C1895 C1896 1.334 . S
C1896 H1867 0.950 . S
C1896 C1895 1.334 . S
C1896 C1897 1.287 . S
C1897 C1896 1.287 . S
C1897 C1898 1.524 . S
C1897 H1900 0.999 . S
C1898 H1868 0.950 . S
C1898 C1897 1.524 . S
C1898 C1899 1.415 . S
C1899 H1869 0.950 . S
C1899 C1894 1.363 . S
C1899 C1898 1.415 . S
H1900 C1897 0.999 . S
H1901 C1882 0.913 . S
H1902 C1920 0.951 . S
H1903 C1922 0.951 . S
H1904 C1924 0.950 . S
H1905 C1925 0.950 . S
H1906 C1927 0.950 . S
H1907 C1930 0.950 . S
H1908 C1931 0.950 . S
H1909 C1933 0.950 . S
H1910 C1934 0.950 . S
H1911 C1935 0.951 . S
H1912 C1937 0.951 . S
H1913 C1939 0.950 . S
H1914 C1940 0.950 . S
H1915 C1942 0.950 . S
H1916 C1945 0.950 . S
H1917 C1946 0.950 . S
H1918 C1948 0.950 . S
H1919 C1949 0.950 . S
C1920 H1902 0.951 . S
C1920 C1921 1.366 . S
C1920 C1922 1.388 . S
C1921 C1920 1.366 . S
C1921 C1925 1.385 . S
C1922 H1903 0.951 . S
C1922 C1920 1.388 . S
C1922 C1923 1.366 . S
C1923 C1922 1.366 . S
C1923 C1924 1.414 . S
C1923 C1926 1.499 . S
C1924 H1904 0.950 . S
C1924 C1923 1.414 . S
C1924 C1925 1.374 . S
C1925 H1905 0.950 . S
C1925 C1921 1.385 . S
C1925 C1924 1.374 . S
C1926 C1923 1.499 . S
C1926 C1927 1.373 . S
C1926 C1928 1.389 . S
C1927 H1906 0.950 . S
C1927 C1926 1.373 . S
C1927 C1943 1.377 . S
C1928 C1926 1.389 . S
C1928 C1929 1.524 . S
C1928 C1942 1.377 . S
C1929 C1928 1.524 . S
C1929 C1930 1.397 . S
C1929 C1934 1.363 . S
C1930 H1907 0.950 . S
C1930 C1929 1.397 . S
C1930 C1931 1.334 . S
C1931 H1908 0.950 . S
C1931 C1930 1.334 . S
C1931 C1932 1.287 . S
C1932 C1931 1.287 . S
C1932 C1933 1.524 . S
C1932 H1951 0.913 . S
C1933 H1909 0.950 . S
C1933 C1932 1.524 . S
C1933 C1934 1.415 . S
C1934 H1910 0.950 . S
C1934 C1929 1.363 . S
C1934 C1933 1.415 . S
C1935 H1911 0.951 . S
C1935 C1936 1.366 . S
C1935 C1937 1.388 . S
C1936 C1935 1.366 . S
C1936 C1940 1.385 . S
C1937 H1912 0.951 . S
C1937 C1935 1.388 . S
C1937 C1938 1.366 . S
C1938 C1937 1.366 . S
C1938 C1939 1.414 . S
C1938 C1941 1.499 . S
C1939 H1913 0.950 . S
C1939 C1938 1.414 . S
C1939 C1940 1.374 . S
C1940 H1914 0.950 . S
C1940 C1936 1.385 . S
C1940 C1939 1.374 . S
C1941 C1938 1.499 . S
C1941 C1942 1.373 . S
C1941 C1943 1.389 . S
C1942 H1915 0.950 . S
C1942 C1928 1.377 . S
C1942 C1941 1.373 . S
C1943 C1927 1.377 . S
C1943 C1941 1.389 . S
C1943 C1944 1.524 . S
C1944 C1943 1.524 . S
C1944 C1945 1.397 . S
C1944 C1949 1.363 . S
C1945 H1916 0.950 . S
C1945 C1944 1.397 . S
C1945 C1946 1.334 . S
C1946 H1917 0.950 . S
C1946 C1945 1.334 . S
C1946 C1947 1.287 . S
C1947 C1946 1.287 . S
C1947 C1948 1.524 . S
C1947 H1950 0.999 . S
C1948 H1918 0.950 . S
C1948 C1947 1.524 . S
C1948 C1949 1.415 . S
C1949 H1919 0.950 . S
C1949 C1944 1.363 . S
C1949 C1948 1.415 . S
H1950 C1947 0.999 . S
H1951 C1932 0.913 . S
H1952 C1970 0.951 . S
H1953 C1972 0.951 . S
H1954 C1974 0.950 . S
H1955 C1975 0.950 . S
H1956 C1977 0.950 . S
H1957 C1980 0.950 . S
H1958 C1981 0.950 . S
H1959 C1983 0.950 . S
H1960 C1984 0.950 . S
H1961 C1985 0.951 . S
H1962 C1987 0.951 . S
H1963 C1989 0.950 . S
H1964 C1990 0.950 . S
H1965 C1992 0.950 . S
H1966 C1995 0.950 . S
H1967 C1996 0.950 . S
H1968 C1998 0.950 . S
H1969 C1999 0.950 . S
C1970 H1952 0.951 . S
C1970 C1971 1.366 . S
C1970 C1972 1.388 . S
C1971 C1970 1.366 . S
C1971 C1975 1.385 . S
C1972 H1953 0.951 . S
C1972 C1970 1.388 . S
C1972 C1973 1.366 . S
C1973 C1972 1.366 . S
C1973 C1974 1.414 . S
C1973 C1976 1.499 . S
C1974 H1954 0.950 . S
C1974 C1973 1.414 . S
C1974 C1975 1.374 . S
C1975 H1955 0.950 . S
C1975 C1971 1.385 . S
C1975 C1974 1.374 . S
C1976 C1973 1.499 . S
C1976 C1977 1.373 . S
C1976 C1978 1.389 . S
C1977 H1956 0.950 . S
C1977 C1976 1.373 . S
C1977 C1993 1.377 . S
C1978 C1976 1.389 . S
C1978 C1979 1.524 . S
C1978 C1992 1.377 . S
C1979 C1978 1.524 . S
C1979 C1980 1.397 . S
C1979 C1984 1.363 . S
C1980 H1957 0.950 . S
C1980 C1979 1.397 . S
C1980 C1981 1.334 . S
C1981 H1958 0.950 . S
C1981 C1980 1.334 . S
C1981 C1982 1.287 . S
C1982 C1981 1.287 . S
C1982 C1983 1.524 . S
C1982 H2001 0.913 . S
C1983 H1959 0.950 . S
C1983 C1982 1.524 . S
C1983 C1984 1.415 . S
C1984 H1960 0.950 . S
C1984 C1979 1.363 . S
C1984 C1983 1.415 . S
C1985 H1961 0.951 . S
C1985 C1986 1.366 . S
C1985 C1987 1.388 . S
C1986 C1985 1.366 . S
C1986 C1990 1.385 . S
C1987 H1962 0.951 . S
C1987 C1985 1.388 . S
C1987 C1988 1.366 . S
C1988 C1987 1.366 . S
C1988 C1989 1.414 . S
C1988 C1991 1.499 . S
C1989 H1963 0.950 . S
C1989 C1988 1.414 . S
C1989 C1990 1.374 . S
C1990 H1964 0.950 . S
C1990 C1986 1.385 . S
C1990 C1989 1.374 . S
C1991 C1988 1.499 . S
C1991 C1992 1.373 . S
C1991 C1993 1.389 . S
C1992 H1965 0.950 . S
C1992 C1978 1.377 . S
C1992 C1991 1.373 . S
C1993 C1977 1.377 . S
C1993 C1991 1.389 . S
C1993 C1994 1.524 . S
C1994 C1993 1.524 . S
C1994 C1995 1.397 . S
C1994 C1999 1.363 . S
C1995 H1966 0.950 . S
C1995 C1994 1.397 . S
C1995 C1996 1.334 . S
C1996 H1967 0.950 . S
C1996 C1995 1.334 . S
C1996 C1997 1.287 . S
C1997 C1996 1.287 . S
C1997 C1998 1.524 . S
C1997 H2000 0.999 . S
C1998 H1968 0.950 . S
C1998 C1997 1.524 . S
C1998 C1999 1.415 . S
C1999 H1969 0.950 . S
C1999 C1994 1.363 . S
C1999 C1998 1.415 . S
H2000 C1997 0.999 . S
H2001 C1982 0.913 . S
H2002 C2020 0.951 . S
H2003 C2022 0.951 . S
H2004 C2024 0.950 . S
H2005 C2025 0.950 . S
H2006 C2027 0.950 . S
H2007 C2030 0.950 . S
H2008 C2031 0.950 . S
H2009 C2033 0.950 . S
H2010 C2034 0.950 . S
H2011 C2035 0.951 . S
H2012 C2037 0.951 . S
H2013 C2039 0.950 . S
H2014 C2040 0.950 . S
H2015 C2042 0.950 . S
H2016 C2045 0.950 . S
H2017 C2046 0.950 . S
H2018 C2048 0.950 . S
H2019 C2049 0.950 . S
C2020 H2002 0.951 . S
C2020 C2021 1.366 . S
C2020 C2022 1.388 . S
C2021 C2020 1.366 . S
C2021 C2025 1.385 . S
C2022 H2003 0.951 . S
C2022 C2020 1.388 . S
C2022 C2023 1.366 . S
C2023 C2022 1.366 . S
C2023 C2024 1.414 . S
C2023 C2026 1.499 . S
C2024 H2004 0.950 . S
C2024 C2023 1.414 . S
C2024 C2025 1.374 . S
C2025 H2005 0.950 . S
C2025 C2021 1.385 . S
C2025 C2024 1.374 . S
C2026 C2023 1.499 . S
C2026 C2027 1.373 . S
C2026 C2028 1.389 . S
C2027 H2006 0.950 . S
C2027 C2026 1.373 . S
C2027 C2043 1.377 . S
C2028 C2026 1.389 . S
C2028 C2029 1.524 . S
C2028 C2042 1.377 . S
C2029 C2028 1.524 . S
C2029 C2030 1.397 . S
C2029 C2034 1.363 . S
C2030 H2007 0.950 . S
C2030 C2029 1.397 . S
C2030 C2031 1.334 . S
C2031 H2008 0.950 . S
C2031 C2030 1.334 . S
C2031 C2032 1.287 . S
C2032 C2031 1.287 . S
C2032 C2033 1.524 . S
C2032 H2051 0.913 . S
C2033 H2009 0.950 . S
C2033 C2032 1.524 . S
C2033 C2034 1.415 . S
C2034 H2010 0.950 . S
C2034 C2029 1.363 . S
C2034 C2033 1.415 . S
C2035 H2011 0.951 . S
C2035 C2036 1.366 . S
C2035 C2037 1.388 . S
C2036 C2035 1.366 . S
C2036 C2040 1.385 . S
C2037 H2012 0.951 . S
C2037 C2035 1.388 . S
C2037 C2038 1.366 . S
C2038 C2037 1.366 . S
C2038 C2039 1.414 . S
C2038 C2041 1.499 . S
C2039 H2013 0.950 . S
C2039 C2038 1.414 . S
C2039 C2040 1.374 . S
C2040 H2014 0.950 . S
C2040 C2036 1.385 . S
C2040 C2039 1.374 . S
C2041 C2038 1.499 . S
C2041 C2042 1.373 . S
C2041 C2043 1.389 . S
C2042 H2015 0.950 . S
C2042 C2028 1.377 . S
C2042 C2041 1.373 . S
C2043 C2027 1.377 . S
C2043 C2041 1.389 . S
C2043 C2044 1.524 . S
C2044 C2043 1.524 . S
C2044 C2045 1.397 . S
C2044 C2049 1.363 . S
C2045 H2016 0.950 . S
C2045 C2044 1.397 . S
C2045 C2046 1.334 . S
C2046 H2017 0.950 . S
C2046 C2045 1.334 . S
C2046 C2047 1.287 . S
C2047 C2046 1.287 . S
C2047 C2048 1.524 . S
C2047 H2050 0.999 . S
C2048 H2018 0.950 . S
C2048 C2047 1.524 . S
C2048 C2049 1.415 . S
C2049 H2019 0.950 . S
C2049 C2044 1.363 . S
C2049 C2048 1.415 . S
H2050 C2047 0.999 . S
H2051 C2032 0.913 . S
H2052 C2070 0.951 . S
H2053 C2072 0.951 . S
H2054 C2074 0.950 . S
H2055 C2075 0.950 . S
H2056 C2077 0.950 . S
H2057 C2080 0.950 . S
H2058 C2081 0.950 . S
H2059 C2083 0.950 . S
H2060 C2084 0.950 . S
H2061 C2085 0.951 . S
H2062 C2087 0.951 . S
H2063 C2089 0.950 . S
H2064 C2090 0.950 . S
H2065 C2092 0.950 . S
H2066 C2095 0.950 . S
H2067 C2096 0.950 . S
H2068 C2098 0.950 . S
H2069 C2099 0.950 . S
C2070 H2052 0.951 . S
C2070 C2071 1.366 . S
C2070 C2072 1.388 . S
C2071 C2070 1.366 . S
C2071 C2075 1.385 . S
C2072 H2053 0.951 . S
C2072 C2070 1.388 . S
C2072 C2073 1.366 . S
C2073 C2072 1.366 . S
C2073 C2074 1.414 . S
C2073 C2076 1.499 . S
C2074 H2054 0.950 . S
C2074 C2073 1.414 . S
C2074 C2075 1.374 . S
C2075 H2055 0.950 . S
C2075 C2071 1.385 . S
C2075 C2074 1.374 . S
C2076 C2073 1.499 . S
C2076 C2077 1.373 . S
C2076 C2078 1.389 . S
C2077 H2056 0.950 . S
C2077 C2076 1.373 . S
C2077 C2093 1.377 . S
C2078 C2076 1.389 . S
C2078 C2079 1.524 . S
C2078 C2092 1.377 . S
C2079 C2078 1.524 . S
C2079 C2080 1.397 . S
C2079 C2084 1.363 . S
C2080 H2057 0.950 . S
C2080 C2079 1.397 . S
C2080 C2081 1.334 . S
C2081 H2058 0.950 . S
C2081 C2080 1.334 . S
C2081 C2082 1.287 . S
C2082 C2081 1.287 . S
C2082 C2083 1.524 . S
C2082 H2101 0.913 . S
C2083 H2059 0.950 . S
C2083 C2082 1.524 . S
C2083 C2084 1.415 . S
C2084 H2060 0.950 . S
C2084 C2079 1.363 . S
C2084 C2083 1.415 . S
C2085 H2061 0.951 . S
C2085 C2086 1.366 . S
C2085 C2087 1.388 . S
C2086 C2085 1.366 . S
C2086 C2090 1.385 . S
C2087 H2062 0.951 . S
C2087 C2085 1.388 . S
C2087 C2088 1.366 . S
C2088 C2087 1.366 . S
C2088 C2089 1.414 . S
C2088 C2091 1.499 . S
C2089 H2063 0.950 . S
C2089 C2088 1.414 . S
C2089 C2090 1.374 . S
C2090 H2064 0.950 . S
C2090 C2086 1.385 . S
C2090 C2089 1.374 . S
C2091 C2088 1.499 . S
C2091 C2092 1.373 . S
C2091 C2093 1.389 . S
C2092 H2065 0.950 . S
C2092 C2078 1.377 . S
C2092 C2091 1.373 . S
C2093 C2077 1.377 . S
C2093 C2091 1.389 . S
C2093 C2094 1.524 . S
C2094 C2093 1.524 . S
C2094 C2095 1.397 . S
C2094 C2099 1.363 . S
C2095 H2066 0.950 . S
C2095 C2094 1.397 . S
C2095 C2096 1.334 . S
C2096 H2067 0.950 . S
C2096 C2095 1.334 . S
C2096 C2097 1.287 . S
C2097 C2096 1.287 . S
C2097 C2098 1.524 . S
C2097 H2100 0.999 . S
C2098 H2068 0.950 . S
C2098 C2097 1.524 . S
C2098 C2099 1.415 . S
C2099 H2069 0.950 . S
C2099 C2094 1.363 . S
C2099 C2098 1.415 . S
H2100 C2097 0.999 . S
H2101 C2082 0.913 . S
H2102 C2120 0.951 . S
H2103 C2122 0.951 . S
H2104 C2124 0.950 . S
H2105 C2125 0.950 . S
H2106 C2127 0.950 . S
H2107 C2130 0.950 . S
H2108 C2131 0.950 . S
H2109 C2133 0.950 . S
H2110 C2134 0.950 . S
H2111 C2135 0.951 . S
H2112 C2137 0.951 . S
H2113 C2139 0.950 . S
H2114 C2140 0.950 . S
H2115 C2142 0.950 . S
H2116 C2145 0.950 . S
H2117 C2146 0.950 . S
H2118 C2148 0.950 . S
H2119 C2149 0.950 . S
C2120 H2102 0.951 . S
C2120 C2121 1.366 . S
C2120 C2122 1.388 . S
C2121 C2120 1.366 . S
C2121 C2125 1.385 . S
C2122 H2103 0.951 . S
C2122 C2120 1.388 . S
C2122 C2123 1.366 . S
C2123 C2122 1.366 . S
C2123 C2124 1.414 . S
C2123 C2126 1.499 . S
C2124 H2104 0.950 . S
C2124 C2123 1.414 . S
C2124 C2125 1.374 . S
C2125 H2105 0.950 . S
C2125 C2121 1.385 . S
C2125 C2124 1.374 . S
C2126 C2123 1.499 . S
C2126 C2127 1.373 . S
C2126 C2128 1.389 . S
C2127 H2106 0.950 . S
C2127 C2126 1.373 . S
C2127 C2143 1.377 . S
C2128 C2126 1.389 . S
C2128 C2129 1.524 . S
C2128 C2142 1.377 . S
C2129 C2128 1.524 . S
C2129 C2130 1.397 . S
C2129 C2134 1.363 . S
C2130 H2107 0.950 . S
C2130 C2129 1.397 . S
C2130 C2131 1.334 . S
C2131 H2108 0.950 . S
C2131 C2130 1.334 . S
C2131 C2132 1.287 . S
C2132 C2131 1.287 . S
C2132 C2133 1.524 . S
C2132 H2151 0.913 . S
C2133 H2109 0.950 . S
C2133 C2132 1.524 . S
C2133 C2134 1.415 . S
C2134 H2110 0.950 . S
C2134 C2129 1.363 . S
C2134 C2133 1.415 . S
C2135 H2111 0.951 . S
C2135 C2136 1.366 . S
C2135 C2137 1.388 . S
C2136 C2135 1.366 . S
C2136 C2140 1.385 . S
C2137 H2112 0.951 . S
C2137 C2135 1.388 . S
C2137 C2138 1.366 . S
C2138 C2137 1.366 . S
C2138 C2139 1.414 . S
C2138 C2141 1.499 . S
C2139 H2113 0.950 . S
C2139 C2138 1.414 . S
C2139 C2140 1.374 . S
C2140 H2114 0.950 . S
C2140 C2136 1.385 . S
C2140 C2139 1.374 . S
C2141 C2138 1.499 . S
C2141 C2142 1.373 . S
C2141 C2143 1.389 . S
C2142 H2115 0.950 . S
C2142 C2128 1.377 . S
C2142 C2141 1.373 . S
C2143 C2127 1.377 . S
C2143 C2141 1.389 . S
C2143 C2144 1.524 . S
C2144 C2143 1.524 . S
C2144 C2145 1.397 . S
C2144 C2149 1.363 . S
C2145 H2116 0.950 . S
C2145 C2144 1.397 . S
C2145 C2146 1.334 . S
C2146 H2117 0.950 . S
C2146 C2145 1.334 . S
C2146 C2147 1.287 . S
C2147 C2146 1.287 . S
C2147 C2148 1.524 . S
C2147 H2150 0.999 . S
C2148 H2118 0.950 . S
C2148 C2147 1.524 . S
C2148 C2149 1.415 . S
C2149 H2119 0.950 . S
C2149 C2144 1.363 . S
C2149 C2148 1.415 . S
H2150 C2147 0.999 . S
H2151 C2132 0.913 . S
H2152 C2170 0.951 . S
H2153 C2172 0.951 . S
H2154 C2174 0.950 . S
H2155 C2175 0.950 . S
H2156 C2177 0.950 . S
H2157 C2180 0.950 . S
H2158 C2181 0.950 . S
H2159 C2183 0.950 . S
H2160 C2184 0.950 . S
H2161 C2185 0.951 . S
H2162 C2187 0.951 . S
H2163 C2189 0.950 . S
H2164 C2190 0.950 . S
H2165 C2192 0.950 . S
H2166 C2195 0.950 . S
H2167 C2196 0.950 . S
H2168 C2198 0.950 . S
H2169 C2199 0.950 1_455 S
C2170 H2152 0.951 . S
C2170 C2171 1.366 . S
C2170 C2172 1.388 . S
C2171 C2170 1.366 . S
C2171 C2175 1.385 . S
C2172 H2153 0.951 . S
C2172 C2170 1.388 . S
C2172 C2173 1.366 . S
C2173 C2172 1.366 . S
C2173 C2174 1.414 . S
C2173 C2176 1.499 . S
C2174 H2154 0.950 . S
C2174 C2173 1.414 . S
C2174 C2175 1.374 . S
C2175 H2155 0.950 . S
C2175 C2171 1.385 . S
C2175 C2174 1.374 . S
C2176 C2173 1.499 . S
C2176 C2177 1.373 . S
C2176 C2178 1.389 . S
C2177 H2156 0.950 . S
C2177 C2176 1.373 . S
C2177 C2193 1.377 . S
C2178 C2176 1.389 . S
C2178 C2179 1.524 . S
C2178 C2192 1.377 . S
C2179 C2178 1.524 . S
C2179 C2180 1.397 . S
C2179 C2184 1.363 . S
C2180 H2157 0.950 . S
C2180 C2179 1.397 . S
C2180 C2181 1.334 . S
C2181 H2158 0.950 . S
C2181 C2180 1.334 . S
C2181 C2182 1.287 . S
C2182 C2181 1.287 . S
C2182 C2183 1.524 . S
C2182 H2201 0.913 . S
C2183 H2159 0.950 . S
C2183 C2182 1.524 . S
C2183 C2184 1.415 . S
C2184 H2160 0.950 . S
C2184 C2179 1.363 . S
C2184 C2183 1.415 . S
C2185 H2161 0.951 . S
C2185 C2186 1.366 . S
C2185 C2187 1.388 . S
C2186 C2185 1.366 . S
C2186 C2190 1.385 . S
C2187 H2162 0.951 . S
C2187 C2185 1.388 . S
C2187 C2188 1.366 . S
C2188 C2187 1.366 . S
C2188 C2189 1.414 . S
C2188 C2191 1.499 . S
C2189 H2163 0.950 . S
C2189 C2188 1.414 . S
C2189 C2190 1.374 . S
C2190 H2164 0.950 . S
C2190 C2186 1.385 . S
C2190 C2189 1.374 . S
C2191 C2188 1.499 . S
C2191 C2192 1.373 . S
C2191 C2193 1.389 . S
C2192 H2165 0.950 . S
C2192 C2178 1.377 . S
C2192 C2191 1.373 . S
C2193 C2177 1.377 . S
C2193 C2191 1.389 . S
C2193 C2194 1.524 . S
C2194 C2193 1.524 . S
C2194 C2195 1.397 . S
C2194 C2199 1.363 1_455 S
C2195 H2166 0.950 . S
C2195 C2194 1.397 . S
C2195 C2196 1.334 1_455 S
C2196 H2167 0.950 . S
C2196 C2195 1.334 1_655 S
C2196 C2197 1.287 . S
C2197 C2196 1.287 . S
C2197 C2198 1.524 . S
C2197 H2200 0.999 . S
C2198 H2168 0.950 . S
C2198 C2197 1.524 . S
C2198 C2199 1.415 . S
C2199 H2169 0.950 1_655 S
C2199 C2194 1.363 1_655 S
C2199 C2198 1.415 . S
H2200 C2197 0.999 . S
H2201 C2182 0.913 . S
H2202 C2220 0.951 . S
H2203 C2222 0.951 . S
H2204 C2224 0.950 . S
H2205 C2225 0.950 . S
H2206 C2227 0.950 . S
H2207 C2230 0.950 . S
H2208 C2231 0.950 . S
H2209 C2233 0.950 . S
H2210 C2234 0.950 . S
H2211 C2235 0.951 . S
H2212 C2237 0.951 . S
H2213 C2239 0.950 . S
H2214 C2240 0.950 . S
H2215 C2242 0.950 . S
H2216 C2245 0.950 . S
H2217 C2246 0.950 . S
H2218 C2248 0.950 . S
H2219 C2249 0.950 . S
C2220 H2202 0.951 . S
C2220 C2221 1.366 . S
C2220 C2222 1.388 . S
C2221 C2220 1.366 . S
C2221 C2225 1.385 . S
C2222 H2203 0.951 . S
C2222 C2220 1.388 . S
C2222 C2223 1.366 . S
C2223 C2222 1.366 . S
C2223 C2224 1.414 . S
C2223 C2226 1.499 . S
C2224 H2204 0.950 . S
C2224 C2223 1.414 . S
C2224 C2225 1.374 . S
C2225 H2205 0.950 . S
C2225 C2221 1.385 . S
C2225 C2224 1.374 . S
C2226 C2223 1.499 . S
C2226 C2227 1.373 . S
C2226 C2228 1.389 . S
C2227 H2206 0.950 . S
C2227 C2226 1.373 . S
C2227 C2243 1.377 . S
C2228 C2226 1.389 . S
C2228 C2229 1.524 . S
C2228 C2242 1.377 . S
C2229 C2228 1.524 . S
C2229 C2230 1.397 . S
C2229 C2234 1.363 . S
C2230 H2207 0.950 . S
C2230 C2229 1.397 . S
C2230 C2231 1.334 . S
C2231 H2208 0.950 . S
C2231 C2230 1.334 . S
C2231 C2232 1.287 . S
C2232 C2231 1.287 . S
C2232 C2233 1.524 . S
C2232 H2251 0.913 . S
C2233 H2209 0.950 . S
C2233 C2232 1.524 . S
C2233 C2234 1.415 . S
C2234 H2210 0.950 . S
C2234 C2229 1.363 . S
C2234 C2233 1.415 . S
C2235 H2211 0.951 . S
C2235 C2236 1.366 . S
C2235 C2237 1.388 . S
C2236 C2235 1.366 . S
C2236 C2240 1.385 . S
C2237 H2212 0.951 . S
C2237 C2235 1.388 . S
C2237 C2238 1.366 . S
C2238 C2237 1.366 . S
C2238 C2239 1.414 . S
C2238 C2241 1.499 . S
C2239 H2213 0.950 . S
C2239 C2238 1.414 . S
C2239 C2240 1.374 . S
C2240 H2214 0.950 . S
C2240 C2236 1.385 . S
C2240 C2239 1.374 . S
C2241 C2238 1.499 . S
C2241 C2242 1.373 . S
C2241 C2243 1.389 . S
C2242 H2215 0.950 . S
C2242 C2228 1.377 . S
C2242 C2241 1.373 . S
C2243 C2227 1.377 . S
C2243 C2241 1.389 . S
C2243 C2244 1.524 . S
C2244 C2243 1.524 . S
C2244 C2245 1.397 . S
C2244 C2249 1.363 . S
C2245 H2216 0.950 . S
C2245 C2244 1.397 . S
C2245 C2246 1.334 . S
C2246 H2217 0.950 . S
C2246 C2245 1.334 . S
C2246 C2247 1.287 . S
C2247 C2246 1.287 . S
C2247 C2248 1.524 . S
C2247 H2250 0.999 . S
C2248 H2218 0.950 . S
C2248 C2247 1.524 . S
C2248 C2249 1.415 . S
C2249 H2219 0.950 . S
C2249 C2244 1.363 . S
C2249 C2248 1.415 . S
H2250 C2247 0.999 . S
H2251 C2232 0.913 . S
H2252 C2270 0.951 . S
H2253 C2272 0.951 . S
H2254 C2274 0.950 . S
H2255 C2275 0.950 . S
H2256 C2277 0.950 . S
H2257 C2280 0.950 . S
H2258 C2281 0.950 . S
H2259 C2283 0.950 . S
H2260 C2284 0.950 . S
H2261 C2285 0.951 . S
H2262 C2287 0.951 . S
H2263 C2289 0.950 . S
H2264 C2290 0.950 . S
H2265 C2292 0.950 . S
H2266 C2295 0.950 . S
H2267 C2296 0.950 . S
H2268 C2298 0.950 . S
H2269 C2299 0.950 . S
C2270 H2252 0.951 . S
C2270 C2271 1.366 . S
C2270 C2272 1.388 . S
C2271 C2270 1.366 . S
C2271 C2275 1.385 . S
C2272 H2253 0.951 . S
C2272 C2270 1.388 . S
C2272 C2273 1.366 . S
C2273 C2272 1.366 . S
C2273 C2274 1.414 . S
C2273 C2276 1.499 . S
C2274 H2254 0.950 . S
C2274 C2273 1.414 . S
C2274 C2275 1.374 . S
C2275 H2255 0.950 . S
C2275 C2271 1.385 . S
C2275 C2274 1.374 . S
C2276 C2273 1.499 . S
C2276 C2277 1.373 . S
C2276 C2278 1.389 . S
C2277 H2256 0.950 . S
C2277 C2276 1.373 . S
C2277 C2293 1.377 . S
C2278 C2276 1.389 . S
C2278 C2279 1.524 . S
C2278 C2292 1.377 . S
C2279 C2278 1.524 . S
C2279 C2280 1.397 . S
C2279 C2284 1.363 . S
C2280 H2257 0.950 . S
C2280 C2279 1.397 . S
C2280 C2281 1.334 . S
C2281 H2258 0.950 . S
C2281 C2280 1.334 . S
C2281 C2282 1.287 . S
C2282 C2281 1.287 . S
C2282 C2283 1.524 . S
C2282 H2301 0.913 . S
C2283 H2259 0.950 . S
C2283 C2282 1.524 . S
C2283 C2284 1.415 . S
C2284 H2260 0.950 . S
C2284 C2279 1.363 . S
C2284 C2283 1.415 . S
C2285 H2261 0.951 . S
C2285 C2286 1.366 . S
C2285 C2287 1.388 . S
C2286 C2285 1.366 . S
C2286 C2290 1.385 . S
C2287 H2262 0.951 . S
C2287 C2285 1.388 . S
C2287 C2288 1.366 . S
C2288 C2287 1.366 . S
C2288 C2289 1.414 . S
C2288 C2291 1.499 . S
C2289 H2263 0.950 . S
C2289 C2288 1.414 . S
C2289 C2290 1.374 . S
C2290 H2264 0.950 . S
C2290 C2286 1.385 . S
C2290 C2289 1.374 . S
C2291 C2288 1.499 . S
C2291 C2292 1.373 . S
C2291 C2293 1.389 . S
C2292 H2265 0.950 . S
C2292 C2278 1.377 . S
C2292 C2291 1.373 . S
C2293 C2277 1.377 . S
C2293 C2291 1.389 . S
C2293 C2294 1.524 . S
C2294 C2293 1.524 . S
C2294 C2295 1.397 . S
C2294 C2299 1.363 . S
C2295 H2266 0.950 . S
C2295 C2294 1.397 . S
C2295 C2296 1.334 . S
C2296 H2267 0.950 . S
C2296 C2295 1.334 . S
C2296 C2297 1.287 . S
C2297 C2296 1.287 . S
C2297 C2298 1.524 . S
C2297 H2300 0.999 . S
C2298 H2268 0.950 . S
C2298 C2297 1.524 . S
C2298 C2299 1.415 . S
C2299 H2269 0.950 . S
C2299 C2294 1.363 . S
C2299 C2298 1.415 . S
H2300 C2297 0.999 . S
H2301 C2282 0.913 . S
H2302 C2320 0.951 . S
H2303 C2322 0.951 . S
H2304 C2324 0.950 . S
H2305 C2325 0.950 . S
H2306 C2327 0.950 . S
H2307 C2330 0.950 . S
H2308 C2331 0.950 . S
H2309 C2333 0.950 . S
H2310 C2334 0.950 . S
H2311 C2335 0.951 . S
H2312 C2337 0.951 . S
H2313 C2339 0.950 . S
H2314 C2340 0.950 . S
H2315 C2342 0.950 . S
H2316 C2345 0.950 . S
H2317 C2346 0.950 . S
H2318 C2348 0.950 . S
H2319 C2349 0.950 . S
C2320 H2302 0.951 . S
C2320 C2321 1.366 . S
C2320 C2322 1.388 . S
C2321 C2320 1.366 . S
C2321 C2325 1.385 . S
C2322 H2303 0.951 . S
C2322 C2320 1.388 . S
C2322 C2323 1.366 . S
C2323 C2322 1.366 . S
C2323 C2324 1.414 . S
C2323 C2326 1.499 . S
C2324 H2304 0.950 . S
C2324 C2323 1.414 . S
C2324 C2325 1.374 . S
C2325 H2305 0.950 . S
C2325 C2321 1.385 . S
C2325 C2324 1.374 . S
C2326 C2323 1.499 . S
C2326 C2327 1.373 . S
C2326 C2328 1.389 . S
C2327 H2306 0.950 . S
C2327 C2326 1.373 . S
C2327 C2343 1.377 . S
C2328 C2326 1.389 . S
C2328 C2329 1.524 . S
C2328 C2342 1.377 . S
C2329 C2328 1.524 . S
C2329 C2330 1.397 . S
C2329 C2334 1.363 . S
C2330 H2307 0.950 . S
C2330 C2329 1.397 . S
C2330 C2331 1.334 . S
C2331 H2308 0.950 . S
C2331 C2330 1.334 . S
C2331 C2332 1.287 . S
C2332 C2331 1.287 . S
C2332 C2333 1.524 . S
C2332 H2351 0.913 . S
C2333 H2309 0.950 . S
C2333 C2332 1.524 . S
C2333 C2334 1.415 . S
C2334 H2310 0.950 . S
C2334 C2329 1.363 . S
C2334 C2333 1.415 . S
C2335 H2311 0.951 . S
C2335 C2336 1.366 . S
C2335 C2337 1.388 . S
C2336 C2335 1.366 . S
C2336 C2340 1.385 . S
C2337 H2312 0.951 . S
C2337 C2335 1.388 . S
C2337 C2338 1.366 . S
C2338 C2337 1.366 . S
C2338 C2339 1.414 . S
C2338 C2341 1.499 . S
C2339 H2313 0.950 . S
C2339 C2338 1.414 . S
C2339 C2340 1.374 . S
C2340 H2314 0.950 . S
C2340 C2336 1.385 . S
C2340 C2339 1.374 . S
C2341 C2338 1.499 . S
C2341 C2342 1.373 . S
C2341 C2343 1.389 . S
C2342 H2315 0.950 . S
C2342 C2328 1.377 . S
C2342 C2341 1.373 . S
C2343 C2327 1.377 . S
C2343 C2341 1.389 . S
C2343 C2344 1.524 . S
C2344 C2343 1.524 . S
C2344 C2345 1.397 . S
C2344 C2349 1.363 . S
C2345 H2316 0.950 . S
C2345 C2344 1.397 . S
C2345 C2346 1.334 . S
C2346 H2317 0.950 . S
C2346 C2345 1.334 . S
C2346 C2347 1.287 . S
C2347 C2346 1.287 . S
C2347 C2348 1.524 . S
C2347 H2350 0.999 . S
C2348 H2318 0.950 . S
C2348 C2347 1.524 . S
C2348 C2349 1.415 . S
C2349 H2319 0.950 . S
C2349 C2344 1.363 . S
C2349 C2348 1.415 . S
H2350 C2347 0.999 . S
H2351 C2332 0.913 . S
H2352 C2370 0.951 . S
H2353 C2372 0.951 . S
H2354 C2374 0.922 1_655 S
H2355 C2375 0.950 . S
H2356 C2377 0.950 . S
H2357 C2380 0.950 . S
H2358 C2381 0.950 . S
H2359 C2383 0.950 . S
H2360 C2384 0.950 . S
H2361 C2385 0.951 1_655 S
H2362 C2387 0.951 1_655 S
H2363 C2389 0.950 . S
H2364 C2390 0.950 . S
H2365 C2392 0.950 . S
H2366 C2395 0.950 . S
H2367 C2396 0.950 . S
H2368 C2398 0.950 . S
H2369 C2399 0.950 . S
C2370 H2352 0.951 . S
C2370 C2371 1.366 . S
C2370 C2372 1.388 . S
C2371 C2370 1.366 . S
C2371 C2375 1.385 . S
C2372 H2353 0.951 . S
C2372 C2370 1.388 . S
C2372 C2373 1.366 . S
C2373 C2372 1.366 . S
C2373 C2374 1.414 . S
C2373 C2376 1.499 . S
C2374 H2354 0.922 1_455 S
C2374 C2373 1.414 . S
C2374 C2375 1.374 . S
C2375 H2355 0.950 . S
C2375 C2371 1.385 . S
C2375 C2374 1.374 . S
C2376 C2373 1.499 . S
C2376 C2377 1.373 . S
C2376 C2378 1.389 . S
C2377 H2356 0.950 . S
C2377 C2376 1.373 . S
C2377 C2393 1.377 . S
C2378 C2376 1.389 . S
C2378 C2379 1.524 . S
C2378 C2392 1.377 . S
C2379 C2378 1.524 . S
C2379 C2380 1.397 . S
C2379 C2384 1.363 . S
C2380 H2357 0.950 . S
C2380 C2379 1.397 . S
C2380 C2381 1.334 . S
C2381 H2358 0.950 . S
C2381 C2380 1.334 . S
C2381 C2382 1.287 . S
C2382 C2381 1.287 . S
C2382 C2383 1.524 . S
C2382 H2401 0.913 . S
C2383 H2359 0.950 . S
C2383 C2382 1.524 . S
C2383 C2384 1.415 . S
C2384 H2360 0.950 . S
C2384 C2379 1.363 . S
C2384 C2383 1.415 . S
C2385 H2361 0.951 1_455 S
C2385 C2386 1.366 . S
C2385 C2387 1.388 . S
C2386 C2385 1.366 . S
C2386 C2390 1.385 . S
C2387 H2362 0.951 1_455 S
C2387 C2385 1.388 . S
C2387 C2388 1.366 . S
C2388 C2387 1.366 . S
C2388 C2389 1.414 . S
C2388 C2391 1.499 . S
C2389 H2363 0.950 . S
C2389 C2388 1.414 . S
C2389 C2390 1.374 . S
C2390 H2364 0.950 . S
C2390 C2386 1.385 . S
C2390 C2389 1.374 . S
C2391 C2388 1.499 . S
C2391 C2392 1.373 . S
C2391 C2393 1.389 . S
C2392 H2365 0.950 . S
C2392 C2378 1.377 . S
C2392 C2391 1.373 . S
C2393 C2377 1.377 . S
C2393 C2391 1.389 . S
C2393 C2394 1.524 . S
C2394 C2393 1.524 . S
C2394 C2395 1.397 . S
C2394 C2399 1.363 1_455 S
C2395 H2366 0.950 . S
C2395 C2394 1.397 . S
C2395 C2396 1.334 . S
C2396 H2367 0.950 . S
C2396 C2395 1.334 . S
C2396 C2397 1.287 1_455 S
C2397 C2396 1.287 1_655 S
C2397 C2398 1.524 . S
C2397 H2400 0.999 . S
C2398 H2368 0.950 . S
C2398 C2397 1.524 . S
C2398 C2399 1.415 . S
C2399 H2369 0.950 . S
C2399 C2394 1.363 1_655 S
C2399 C2398 1.415 . S
H2400 C2397 0.999 . S
H2401 C2382 0.913 . S
H2402 C2420 0.951 . S
H2403 C2422 0.951 . S
H2404 C2424 0.950 . S
H2405 C2425 0.950 . S
H2406 C2427 0.950 . S
H2407 C2430 0.950 . S
H2408 C2431 0.950 . S
H2409 C2433 0.950 . S
H2410 C2434 0.950 . S
H2411 C2435 0.951 . S
H2412 C2437 0.951 . S
H2413 C2439 0.950 . S
H2414 C2440 0.950 . S
H2415 C2442 0.950 . S
H2416 C2445 0.950 . S
H2417 C2446 0.950 . S
H2418 C2448 0.950 . S
H2419 C2449 0.950 . S
C2420 H2402 0.951 . S
C2420 C2421 1.366 . S
C2420 C2422 1.388 . S
C2421 C2420 1.366 . S
C2421 C2425 1.385 . S
C2422 H2403 0.951 . S
C2422 C2420 1.388 . S
C2422 C2423 1.366 . S
C2423 C2422 1.366 . S
C2423 C2424 1.414 . S
C2423 C2426 1.499 . S
C2424 H2404 0.950 . S
C2424 C2423 1.414 . S
C2424 C2425 1.374 . S
C2425 H2405 0.950 . S
C2425 C2421 1.385 . S
C2425 C2424 1.374 . S
C2426 C2423 1.499 . S
C2426 C2427 1.373 . S
C2426 C2428 1.389 . S
C2427 H2406 0.950 . S
C2427 C2426 1.373 . S
C2427 C2443 1.377 . S
C2428 C2426 1.389 . S
C2428 C2429 1.524 . S
C2428 C2442 1.377 . S
C2429 C2428 1.524 . S
C2429 C2430 1.397 . S
C2429 C2434 1.363 . S
C2430 H2407 0.950 . S
C2430 C2429 1.397 . S
C2430 C2431 1.334 . S
C2431 H2408 0.950 . S
C2431 C2430 1.334 . S
C2431 C2432 1.287 . S
C2432 C2431 1.287 . S
C2432 C2433 1.524 . S
C2432 H2451 0.913 . S
C2433 H2409 0.950 . S
C2433 C2432 1.524 . S
C2433 C2434 1.415 . S
C2434 H2410 0.950 . S
C2434 C2429 1.363 . S
C2434 C2433 1.415 . S
C2435 H2411 0.951 . S
C2435 C2436 1.366 . S
C2435 C2437 1.388 . S
C2436 C2435 1.366 . S
C2436 C2440 1.385 . S
C2437 H2412 0.951 . S
C2437 C2435 1.388 . S
C2437 C2438 1.366 . S
C2438 C2437 1.366 . S
C2438 C2439 1.414 . S
C2438 C2441 1.499 . S
C2439 H2413 0.950 . S
C2439 C2438 1.414 . S
C2439 C2440 1.374 . S
C2440 H2414 0.950 . S
C2440 C2436 1.385 . S
C2440 C2439 1.374 . S
C2441 C2438 1.499 . S
C2441 C2442 1.373 . S
C2441 C2443 1.389 . S
C2442 H2415 0.950 . S
C2442 C2428 1.377 . S
C2442 C2441 1.373 . S
C2443 C2427 1.377 . S
C2443 C2441 1.389 . S
C2443 C2444 1.524 . S
C2444 C2443 1.524 . S
C2444 C2445 1.397 . S
C2444 C2449 1.363 . S
C2445 H2416 0.950 . S
C2445 C2444 1.397 . S
C2445 C2446 1.334 . S
C2446 H2417 0.950 . S
C2446 C2445 1.334 . S
C2446 C2447 1.287 . S
C2447 C2446 1.287 . S
C2447 C2448 1.524 . S
C2447 H2450 0.999 . S
C2448 H2418 0.950 . S
C2448 C2447 1.524 . S
C2448 C2449 1.415 . S
C2449 H2419 0.950 . S
C2449 C2444 1.363 . S
C2449 C2448 1.415 . S
H2450 C2447 0.999 . S
H2451 C2432 0.913 . S
H2452 C2470 0.951 . S
H2453 C2472 0.951 . S
H2454 C2474 0.950 . S
H2455 C2475 0.950 . S
H2456 C2477 0.950 . S
H2457 C2480 0.950 . S
H2458 C2481 0.950 . S
H2459 C2483 0.950 . S
H2460 C2484 0.950 . S
H2461 C2485 0.951 . S
H2462 C2487 0.951 . S
H2463 C2489 0.950 . S
H2464 C2490 0.950 . S
H2465 C2492 0.950 . S
H2466 C2495 0.950 . S
H2467 C2496 0.950 . S
H2468 C2498 0.945 1_554 S
H2469 C2499 0.950 . S
C2470 H2452 0.951 . S
C2470 C2471 1.366 . S
C2470 C2472 1.388 . S
C2471 C2470 1.366 . S
C2471 C2475 1.385 . S
C2472 H2453 0.951 . S
C2472 C2470 1.388 . S
C2472 C2473 1.366 . S
C2473 C2472 1.366 . S
C2473 C2474 1.414 . S
C2473 C2476 1.499 . S
C2474 H2454 0.950 . S
C2474 C2473 1.414 . S
C2474 C2475 1.374 . S
C2475 H2455 0.950 . S
C2475 C2471 1.385 . S
C2475 C2474 1.374 . S
C2476 C2473 1.499 . S
C2476 C2477 1.373 . S
C2476 C2478 1.389 . S
C2477 H2456 0.950 . S
C2477 C2476 1.373 . S
C2477 C2493 1.377 . S
C2478 C2476 1.389 . S
C2478 C2479 1.524 . S
C2478 C2492 1.377 . S
C2479 C2478 1.524 . S
C2479 C2480 1.397 . S
C2479 C2484 1.363 . S
C2480 H2457 0.950 . S
C2480 C2479 1.397 . S
C2480 C2481 1.334 . S
C2481 H2458 0.950 . S
C2481 C2480 1.334 . S
C2481 C2482 1.287 . S
C2482 C2481 1.287 . S
C2482 C2483 1.524 . S
C2482 H2501 0.913 . S
C2483 H2459 0.950 . S
C2483 C2482 1.524 . S
C2483 C2484 1.415 . S
C2484 H2460 0.950 . S
C2484 C2479 1.363 . S
C2484 C2483 1.415 . S
C2485 H2461 0.951 . S
C2485 C2486 1.366 . S
C2485 C2487 1.388 . S
C2486 C2485 1.366 . S
C2486 C2490 1.385 . S
C2487 H2462 0.951 . S
C2487 C2485 1.388 . S
C2487 C2488 1.366 . S
C2488 C2487 1.366 . S
C2488 C2489 1.414 . S
C2488 C2491 1.499 . S
C2489 H2463 0.950 . S
C2489 C2488 1.414 . S
C2489 C2490 1.374 . S
C2490 H2464 0.950 . S
C2490 C2486 1.385 . S
C2490 C2489 1.374 . S
C2491 C2488 1.499 . S
C2491 C2492 1.373 . S
C2491 C2493 1.389 . S
C2492 H2465 0.950 . S
C2492 C2478 1.377 . S
C2492 C2491 1.373 . S
C2493 C2477 1.377 . S
C2493 C2491 1.389 . S
C2493 C2494 1.524 . S
C2494 C2493 1.524 . S
C2494 C2495 1.397 . S
C2494 C2499 1.363 . S
C2495 H2466 0.950 . S
C2495 C2494 1.397 . S
C2495 C2496 1.334 1_556 S
C2496 H2467 0.950 . S
C2496 C2495 1.334 1_554 S
C2496 C2497 1.287 . S
C2497 C2496 1.287 . S
C2497 C2498 1.524 1_554 S
C2497 H2500 0.999 . S
C2498 H2468 0.945 1_556 S
C2498 C2497 1.524 1_556 S
C2498 C2499 1.415 . S
C2499 H2469 0.950 . S
C2499 C2494 1.363 . S
C2499 C2498 1.415 . S
H2500 C2497 0.999 . S
H2501 C2482 0.913 . S
H2502 C2520 0.951 . S
H2503 C2522 0.951 . S
H2504 C2524 0.950 . S
H2505 C2525 0.950 . S
H2506 C2527 0.950 . S
H2507 C2530 0.950 . S
H2508 C2531 0.950 . S
H2509 C2533 0.950 . S
H2510 C2534 0.950 . S
H2511 C2535 0.951 . S
H2512 C2537 0.951 . S
H2513 C2539 0.950 . S
H2514 C2540 0.950 . S
H2515 C2542 0.950 . S
H2516 C2545 0.950 . S
H2517 C2546 0.950 . S
H2518 C2548 0.950 . S
H2519 C2549 0.950 . S
C2520 H2502 0.951 . S
C2520 C2521 1.366 . S
C2520 C2522 1.388 . S
C2521 C2520 1.366 . S
C2521 C2525 1.385 . S
C2522 H2503 0.951 . S
C2522 C2520 1.388 . S
C2522 C2523 1.366 . S
C2523 C2522 1.366 . S
C2523 C2524 1.414 . S
C2523 C2526 1.499 . S
C2524 H2504 0.950 . S
C2524 C2523 1.414 . S
C2524 C2525 1.374 . S
C2525 H2505 0.950 . S
C2525 C2521 1.385 . S
C2525 C2524 1.374 . S
C2526 C2523 1.499 . S
C2526 C2527 1.373 . S
C2526 C2528 1.389 . S
C2527 H2506 0.950 . S
C2527 C2526 1.373 . S
C2527 C2543 1.377 . S
C2528 C2526 1.389 . S
C2528 C2529 1.524 . S
C2528 C2542 1.377 . S
C2529 C2528 1.524 . S
C2529 C2530 1.397 . S
C2529 C2534 1.363 . S
C2530 H2507 0.950 . S
C2530 C2529 1.397 . S
C2530 C2531 1.334 . S
C2531 H2508 0.950 . S
C2531 C2530 1.334 . S
C2531 C2532 1.287 . S
C2532 C2531 1.287 . S
C2532 C2533 1.524 . S
C2532 H2551 0.913 . S
C2533 H2509 0.950 . S
C2533 C2532 1.524 . S
C2533 C2534 1.415 . S
C2534 H2510 0.950 . S
C2534 C2529 1.363 . S
C2534 C2533 1.415 . S
C2535 H2511 0.951 . S
C2535 C2536 1.366 . S
C2535 C2537 1.388 . S
C2536 C2535 1.366 . S
C2536 C2540 1.385 . S
C2537 H2512 0.951 . S
C2537 C2535 1.388 . S
C2537 C2538 1.366 . S
C2538 C2537 1.366 . S
C2538 C2539 1.414 . S
C2538 C2541 1.499 . S
C2539 H2513 0.950 . S
C2539 C2538 1.414 . S
C2539 C2540 1.374 . S
C2540 H2514 0.950 . S
C2540 C2536 1.385 . S
C2540 C2539 1.374 . S
C2541 C2538 1.499 . S
C2541 C2542 1.373 . S
C2541 C2543 1.389 . S
C2542 H2515 0.950 . S
C2542 C2528 1.377 . S
C2542 C2541 1.373 . S
C2543 C2527 1.377 . S
C2543 C2541 1.389 . S
C2543 C2544 1.524 . S
C2544 C2543 1.524 . S
C2544 C2545 1.397 . S
C2544 C2549 1.363 . S
C2545 H2516 0.950 . S
C2545 C2544 1.397 . S
C2545 C2546 1.334 . S
C2546 H2517 0.950 . S
C2546 C2545 1.334 . S
C2546 C2547 1.287 . S
C2547 C2546 1.287 . S
C2547 C2548 1.524 . S
C2547 H2550 0.999 . S
C2548 H2518 0.950 . S
C2548 C2547 1.524 . S
C2548 C2549 1.415 . S
C2549 H2519 0.950 . S
C2549 C2544 1.363 . S
C2549 C2548 1.415 . S
H2550 C2547 0.999 . S
H2551 C2532 0.913 . S
H2552 C2570 0.951 . S
H2553 C2572 0.951 . S
H2554 C2574 0.950 . S
H2555 C2575 0.950 . S
H2556 C2577 0.950 . S
H2557 C2580 0.950 . S
H2558 C2581 0.950 . S
H2559 C2583 0.950 . S
H2560 C2584 0.950 . S
H2561 C2585 0.951 . S
H2562 C2587 0.951 . S
H2563 C2589 0.950 . S
H2564 C2590 0.950 . S
H2565 C2592 0.950 . S
H2566 C2595 0.950 . S
H2567 C2596 0.950 . S
H2568 C2598 0.950 . S
H2569 C2599 0.950 1_565 S
C2570 H2552 0.951 . S
C2570 C2571 1.366 . S
C2570 C2572 1.388 . S
C2571 C2570 1.366 . S
C2571 C2575 1.385 . S
C2572 H2553 0.951 . S
C2572 C2570 1.388 . S
C2572 C2573 1.366 . S
C2573 C2572 1.366 . S
C2573 C2574 1.414 . S
C2573 C2576 1.499 . S
C2574 H2554 0.950 . S
C2574 C2573 1.414 . S
C2574 C2575 1.374 . S
C2575 H2555 0.950 . S
C2575 C2571 1.385 . S
C2575 C2574 1.374 . S
C2576 C2573 1.499 . S
C2576 C2577 1.373 . S
C2576 C2578 1.389 . S
C2577 H2556 0.950 . S
C2577 C2576 1.373 . S
C2577 C2593 1.377 . S
C2578 C2576 1.389 . S
C2578 C2579 1.524 . S
C2578 C2592 1.377 . S
C2579 C2578 1.524 . S
C2579 C2580 1.397 . S
C2579 C2584 1.363 . S
C2580 H2557 0.950 . S
C2580 C2579 1.397 . S
C2580 C2581 1.334 . S
C2581 H2558 0.950 . S
C2581 C2580 1.334 . S
C2581 C2582 1.287 . S
C2582 C2581 1.287 . S
C2582 C2583 1.524 . S
C2582 H2601 0.913 . S
C2583 H2559 0.950 . S
C2583 C2582 1.524 . S
C2583 C2584 1.415 . S
C2584 H2560 0.950 . S
C2584 C2579 1.363 . S
C2584 C2583 1.415 . S
C2585 H2561 0.951 . S
C2585 C2586 1.366 . S
C2585 C2587 1.388 . S
C2586 C2585 1.366 . S
C2586 C2590 1.385 . S
C2587 H2562 0.951 . S
C2587 C2585 1.388 . S
C2587 C2588 1.366 . S
C2588 C2587 1.366 . S
C2588 C2589 1.414 . S
C2588 C2591 1.499 . S
C2589 H2563 0.950 . S
C2589 C2588 1.414 . S
C2589 C2590 1.374 . S
C2590 H2564 0.950 . S
C2590 C2586 1.385 . S
C2590 C2589 1.374 . S
C2591 C2588 1.499 . S
C2591 C2592 1.373 . S
C2591 C2593 1.389 . S
C2592 H2565 0.950 . S
C2592 C2578 1.377 . S
C2592 C2591 1.373 . S
C2593 C2577 1.377 . S
C2593 C2591 1.389 . S
C2593 C2594 1.524 . S
C2594 C2593 1.524 . S
C2594 C2595 1.397 . S
C2594 C2599 1.363 . S
C2595 H2566 0.950 . S
C2595 C2594 1.397 . S
C2595 C2596 1.334 . S
C2596 H2567 0.950 . S
C2596 C2595 1.334 . S
C2596 C2597 1.287 . S
C2597 C2596 1.287 . S
C2597 C2598 1.524 1_545 S
C2597 H2600 0.999 1_455 S
C2598 H2568 0.950 . S
C2598 C2597 1.524 1_565 S
C2598 C2599 1.415 1_565 S
C2599 H2569 0.950 1_545 S
C2599 C2594 1.363 . S
C2599 C2598 1.415 1_545 S
H2600 C2597 0.999 1_655 S
H2601 C2582 0.913 . S
H2602 C2620 0.951 . S
H2603 C2622 0.951 . S
H2604 C2624 0.950 . S
H2605 C2625 0.950 . S
H2606 C2627 0.950 . S
H2607 C2630 0.950 . S
H2608 C2631 0.950 . S
H2609 C2633 0.950 . S
H2610 C2634 0.950 . S
H2611 C2635 0.951 . S
H2612 C2637 0.951 . S
H2613 C2639 0.950 . S
H2614 C2640 0.950 . S
H2615 C2642 0.950 . S
H2616 C2645 0.950 . S
H2617 C2646 0.950 . S
H2618 C2648 0.950 . S
H2619 C2649 0.950 . S
C2620 H2602 0.951 . S
C2620 C2621 1.366 . S
C2620 C2622 1.388 . S
C2621 C2620 1.366 . S
C2621 C2625 1.385 . S
C2622 H2603 0.951 . S
C2622 C2620 1.388 . S
C2622 C2623 1.366 . S
C2623 C2622 1.366 . S
C2623 C2624 1.414 . S
C2623 C2626 1.499 . S
C2624 H2604 0.950 . S
C2624 C2623 1.414 . S
C2624 C2625 1.374 . S
C2625 H2605 0.950 . S
C2625 C2621 1.385 . S
C2625 C2624 1.374 . S
C2626 C2623 1.499 . S
C2626 C2627 1.373 . S
C2626 C2628 1.389 . S
C2627 H2606 0.950 . S
C2627 C2626 1.373 . S
C2627 C2643 1.377 . S
C2628 C2626 1.389 . S
C2628 C2629 1.524 . S
C2628 C2642 1.377 . S
C2629 C2628 1.524 . S
C2629 C2630 1.397 . S
C2629 C2634 1.363 . S
C2630 H2607 0.950 . S
C2630 C2629 1.397 . S
C2630 C2631 1.334 . S
C2631 H2608 0.950 . S
C2631 C2630 1.334 . S
C2631 C2632 1.287 . S
C2632 C2631 1.287 . S
C2632 C2633 1.524 . S
C2632 H2651 0.913 . S
C2633 H2609 0.950 . S
C2633 C2632 1.524 . S
C2633 C2634 1.415 . S
C2634 H2610 0.950 . S
C2634 C2629 1.363 . S
C2634 C2633 1.415 . S
C2635 H2611 0.951 . S
C2635 C2636 1.366 . S
C2635 C2637 1.388 . S
C2636 C2635 1.366 . S
C2636 C2640 1.385 . S
C2637 H2612 0.951 . S
C2637 C2635 1.388 . S
C2637 C2638 1.366 . S
C2638 C2637 1.366 . S
C2638 C2639 1.414 . S
C2638 C2641 1.499 . S
C2639 H2613 0.950 . S
C2639 C2638 1.414 . S
C2639 C2640 1.374 . S
C2640 H2614 0.950 . S
C2640 C2636 1.385 . S
C2640 C2639 1.374 . S
C2641 C2638 1.499 . S
C2641 C2642 1.373 . S
C2641 C2643 1.389 . S
C2642 H2615 0.950 . S
C2642 C2628 1.377 . S
C2642 C2641 1.373 . S
C2643 C2627 1.377 . S
C2643 C2641 1.389 . S
C2643 C2644 1.524 . S
C2644 C2643 1.524 . S
C2644 C2645 1.397 . S
C2644 C2649 1.363 . S
C2645 H2616 0.950 . S
C2645 C2644 1.397 . S
C2645 C2646 1.334 . S
C2646 H2617 0.950 . S
C2646 C2645 1.334 . S
C2646 C2647 1.287 . S
C2647 C2646 1.287 . S
C2647 C2648 1.524 . S
C2647 H2650 0.999 . S
C2648 H2618 0.950 . S
C2648 C2647 1.524 . S
C2648 C2649 1.415 . S
C2649 H2619 0.950 . S
C2649 C2644 1.363 . S
C2649 C2648 1.415 . S
H2650 C2647 0.999 . S
H2651 C2632 0.913 . S
H2652 C2670 0.951 . S
H2653 C2672 0.951 . S
H2654 C2674 0.950 . S
H2655 C2675 0.950 . S
H2656 C2677 0.950 1_565 S
H2657 C2680 0.950 . S
H2658 C2681 0.950 . S
H2659 C2683 0.950 . S
H2660 C2684 0.950 . S
H2661 C2685 0.951 . S
H2662 C2687 0.951 . S
H2663 C2689 0.950 . S
H2664 C2690 0.950 . S
H2665 C2692 0.950 . S
H2666 C2695 0.950 . S
H2667 C2696 0.950 . S
H2668 C2698 0.950 . S
H2669 C2699 0.950 . S
C2670 H2652 0.951 . S
C2670 C2671 1.366 . S
C2670 C2672 1.388 . S
C2671 C2670 1.366 . S
C2671 C2675 1.385 . S
C2672 H2653 0.951 . S
C2672 C2670 1.388 . S
C2672 C2673 1.366 . S
C2673 C2672 1.366 . S
C2673 C2674 1.414 . S
C2673 C2676 1.499 . S
C2674 H2654 0.950 . S
C2674 C2673 1.414 . S
C2674 C2675 1.374 . S
C2675 H2655 0.950 . S
C2675 C2671 1.385 . S
C2675 C2674 1.374 . S
C2676 C2673 1.499 . S
C2676 C2677 1.373 . S
C2676 C2678 1.389 . S
C2677 H2656 0.950 1_545 S
C2677 C2676 1.373 . S
C2677 C2693 1.377 . S
C2678 C2676 1.389 . S
C2678 C2679 1.524 . S
C2678 C2692 1.377 . S
C2679 C2678 1.524 . S
C2679 C2680 1.397 . S
C2679 C2684 1.363 . S
C2680 H2657 0.950 . S
C2680 C2679 1.397 . S
C2680 C2681 1.334 . S
C2681 H2658 0.950 . S
C2681 C2680 1.334 . S
C2681 C2682 1.287 . S
C2682 C2681 1.287 . S
C2682 C2683 1.524 . S
C2682 H2701 0.913 . S
C2683 H2659 0.950 . S
C2683 C2682 1.524 . S
C2683 C2684 1.415 . S
C2684 H2660 0.950 . S
C2684 C2679 1.363 . S
C2684 C2683 1.415 . S
C2685 H2661 0.951 . S
C2685 C2686 1.366 . S
C2685 C2687 1.388 . S
C2686 C2685 1.366 . S
C2686 C2690 1.385 . S
C2687 H2662 0.951 . S
C2687 C2685 1.388 . S
C2687 C2688 1.366 . S
C2688 C2687 1.366 . S
C2688 C2689 1.414 . S
C2688 C2691 1.499 . S
C2689 H2663 0.950 . S
C2689 C2688 1.414 . S
C2689 C2690 1.374 . S
C2690 H2664 0.950 . S
C2690 C2686 1.385 . S
C2690 C2689 1.374 . S
C2691 C2688 1.499 . S
C2691 C2692 1.373 . S
C2691 C2693 1.389 . S
C2692 H2665 0.950 . S
C2692 C2678 1.377 . S
C2692 C2691 1.373 . S
C2693 C2677 1.377 . S
C2693 C2691 1.389 . S
C2693 C2694 1.524 1_545 S
C2694 C2693 1.524 1_565 S
C2694 C2695 1.397 . S
C2694 C2699 1.363 . S
C2695 H2666 0.950 . S
C2695 C2694 1.397 . S
C2695 C2696 1.334 . S
C2696 H2667 0.950 . S
C2696 C2695 1.334 . S
C2696 C2697 1.287 . S
C2697 C2696 1.287 . S
C2697 C2698 1.524 . S
C2697 H2700 0.999 . S
C2698 H2668 0.950 . S
C2698 C2697 1.524 . S
C2698 C2699 1.415 . S
C2699 H2669 0.950 . S
C2699 C2694 1.363 . S
C2699 C2698 1.415 . S
H2700 C2697 0.999 . S
H2701 C2682 0.913 . S
H2702 C2720 0.951 . S
H2703 C2722 0.951 . S
H2704 C2724 0.950 . S
H2705 C2725 0.950 . S
H2706 C2727 0.950 . S
H2707 C2730 0.950 . S
H2708 C2731 0.950 . S
H2709 C2733 0.950 . S
H2710 C2734 0.950 . S
H2711 C2735 0.951 . S
H2712 C2737 0.951 . S
H2713 C2739 0.950 . S
H2714 C2740 0.950 . S
H2715 C2742 0.950 . S
H2716 C2745 0.950 . S
H2717 C2746 0.950 . S
H2718 C2748 0.950 . S
H2719 C2749 0.950 . S
C2720 H2702 0.951 . S
C2720 C2721 1.366 . S
C2720 C2722 1.388 . S
C2721 C2720 1.366 . S
C2721 C2725 1.385 . S
C2722 H2703 0.951 . S
C2722 C2720 1.388 . S
C2722 C2723 1.366 . S
C2723 C2722 1.366 . S
C2723 C2724 1.414 . S
C2723 C2726 1.499 . S
C2724 H2704 0.950 . S
C2724 C2723 1.414 . S
C2724 C2725 1.374 . S
C2725 H2705 0.950 . S
C2725 C2721 1.385 . S
C2725 C2724 1.374 . S
C2726 C2723 1.499 . S
C2726 C2727 1.373 . S
C2726 C2728 1.389 . S
C2727 H2706 0.950 . S
C2727 C2726 1.373 . S
C2727 C2743 1.377 . S
C2728 C2726 1.389 . S
C2728 C2729 1.524 . S
C2728 C2742 1.377 . S
C2729 C2728 1.524 . S
C2729 C2730 1.397 . S
C2729 C2734 1.363 . S
C2730 H2707 0.950 . S
C2730 C2729 1.397 . S
C2730 C2731 1.334 . S
C2731 H2708 0.950 . S
C2731 C2730 1.334 . S
C2731 C2732 1.287 . S
C2732 C2731 1.287 . S
C2732 C2733 1.524 . S
C2732 H2751 0.913 . S
C2733 H2709 0.950 . S
C2733 C2732 1.524 . S
C2733 C2734 1.415 . S
C2734 H2710 0.950 . S
C2734 C2729 1.363 . S
C2734 C2733 1.415 . S
C2735 H2711 0.951 . S
C2735 C2736 1.366 . S
C2735 C2737 1.388 . S
C2736 C2735 1.366 . S
C2736 C2740 1.385 . S
C2737 H2712 0.951 . S
C2737 C2735 1.388 . S
C2737 C2738 1.366 . S
C2738 C2737 1.366 . S
C2738 C2739 1.414 . S
C2738 C2741 1.499 . S
C2739 H2713 0.950 . S
C2739 C2738 1.414 . S
C2739 C2740 1.374 . S
C2740 H2714 0.950 . S
C2740 C2736 1.385 . S
C2740 C2739 1.374 . S
C2741 C2738 1.499 . S
C2741 C2742 1.373 . S
C2741 C2743 1.389 . S
C2742 H2715 0.950 . S
C2742 C2728 1.377 . S
C2742 C2741 1.373 . S
C2743 C2727 1.377 . S
C2743 C2741 1.389 . S
C2743 C2744 1.524 . S
C2744 C2743 1.524 . S
C2744 C2745 1.397 . S
C2744 C2749 1.363 . S
C2745 H2716 0.950 . S
C2745 C2744 1.397 . S
C2745 C2746 1.334 . S
C2746 H2717 0.950 . S
C2746 C2745 1.334 . S
C2746 C2747 1.287 . S
C2747 C2746 1.287 . S
C2747 C2748 1.524 . S
C2747 H2750 0.999 . S
C2748 H2718 0.950 . S
C2748 C2747 1.524 . S
C2748 C2749 1.415 . S
C2749 H2719 0.950 . S
C2749 C2744 1.363 . S
C2749 C2748 1.415 . S
H2750 C2747 0.999 . S
H2751 C2732 0.913 . S
H2752 C2770 0.951 . S
H2753 C2772 0.951 . S
H2754 C2774 0.950 . S
H2755 C2775 0.950 . S
H2756 C2777 0.950 . S
H2757 C2780 0.950 . S
H2758 C2781 0.950 . S
H2759 C2783 0.950 . S
H2760 C2784 0.950 . S
H2761 C2785 0.951 . S
H2762 C2787 0.951 . S
H2763 C2789 0.950 . S
H2764 C2790 0.950 . S
H2765 C2792 0.950 . S
H2766 C2795 0.950 . S
H2767 C2796 0.950 . S
H2768 C2798 0.950 1_655 S
H2769 C2799 0.950 . S
C2770 H2752 0.951 . S
C2770 C2771 1.366 . S
C2770 C2772 1.388 . S
C2771 C2770 1.366 . S
C2771 C2775 1.385 . S
C2772 H2753 0.951 . S
C2772 C2770 1.388 . S
C2772 C2773 1.366 . S
C2773 C2772 1.366 . S
C2773 C2774 1.414 . S
C2773 C2776 1.499 . S
C2774 H2754 0.950 . S
C2774 C2773 1.414 . S
C2774 C2775 1.374 . S
C2775 H2755 0.950 . S
C2775 C2771 1.385 . S
C2775 C2774 1.374 . S
C2776 C2773 1.499 . S
C2776 C2777 1.373 . S
C2776 C2778 1.389 . S
C2777 H2756 0.950 . S
C2777 C2776 1.373 . S
C2777 C2793 1.377 . S
C2778 C2776 1.389 . S
C2778 C2779 1.524 . S
C2778 C2792 1.377 . S
C2779 C2778 1.524 . S
C2779 C2780 1.397 . S
C2779 C2784 1.363 . S
C2780 H2757 0.950 . S
C2780 C2779 1.397 . S
C2780 C2781 1.334 . S
C2781 H2758 0.950 . S
C2781 C2780 1.334 . S
C2781 C2782 1.287 . S
C2782 C2781 1.287 . S
C2782 C2783 1.524 . S
C2782 H2801 0.913 . S
C2783 H2759 0.950 . S
C2783 C2782 1.524 . S
C2783 C2784 1.415 . S
C2784 H2760 0.950 . S
C2784 C2779 1.363 . S
C2784 C2783 1.415 . S
C2785 H2761 0.951 . S
C2785 C2786 1.366 . S
C2785 C2787 1.388 . S
C2786 C2785 1.366 . S
C2786 C2790 1.385 . S
C2787 H2762 0.951 . S
C2787 C2785 1.388 . S
C2787 C2788 1.366 . S
C2788 C2787 1.366 . S
C2788 C2789 1.414 . S
C2788 C2791 1.499 . S
C2789 H2763 0.950 . S
C2789 C2788 1.414 . S
C2789 C2790 1.374 . S
C2790 H2764 0.950 . S
C2790 C2786 1.385 . S
C2790 C2789 1.374 . S
C2791 C2788 1.499 . S
C2791 C2792 1.373 . S
C2791 C2793 1.389 . S
C2792 H2765 0.950 . S
C2792 C2778 1.377 . S
C2792 C2791 1.373 . S
C2793 C2777 1.377 . S
C2793 C2791 1.389 . S
C2793 C2794 1.524 . S
C2794 C2793 1.524 . S
C2794 C2795 1.397 1_545 S
C2794 C2799 1.363 . S
C2795 H2766 0.950 . S
C2795 C2794 1.397 1_565 S
C2795 C2796 1.334 . S
C2796 H2767 0.950 . S
C2796 C2795 1.334 . S
C2796 C2797 1.285 . S
C2797 C2796 1.285 . S
C2797 C2798 1.524 1_565 S
C2797 H2800 1.001 1_455 S
C2798 H2768 0.950 1_455 S
C2798 C2797 1.524 1_545 S
C2798 C2799 1.415 . S
C2799 H2769 0.950 . S
C2799 C2794 1.363 . S
C2799 C2798 1.415 . S
H2800 C2797 1.001 1_655 S
H2801 C2782 0.913 . S
H2802 C2820 0.951 . S
H2803 C2822 0.951 . S
H2804 C2824 0.950 . S
H2805 C2825 0.950 . S
H2806 C2827 0.950 . S
H2807 C2830 0.950 . S
H2808 C2831 0.950 . S
H2809 C2833 0.950 . S
H2810 C2834 0.950 . S
H2811 C2835 0.951 . S
H2812 C2837 0.951 . S
H2813 C2839 0.950 . S
H2814 C2840 0.950 . S
H2815 C2842 0.950 . S
H2816 C2845 0.950 . S
H2817 C2846 0.950 . S
H2818 C2848 0.950 . S
H2819 C2849 0.950 . S
C2820 H2802 0.951 . S
C2820 C2821 1.366 . S
C2820 C2822 1.388 . S
C2821 C2820 1.366 . S
C2821 C2825 1.385 . S
C2822 H2803 0.951 . S
C2822 C2820 1.388 . S
C2822 C2823 1.366 . S
C2823 C2822 1.366 . S
C2823 C2824 1.414 . S
C2823 C2826 1.499 . S
C2824 H2804 0.950 . S
C2824 C2823 1.414 . S
C2824 C2825 1.374 . S
C2825 H2805 0.950 . S
C2825 C2821 1.385 . S
C2825 C2824 1.374 . S
C2826 C2823 1.499 . S
C2826 C2827 1.373 . S
C2826 C2828 1.389 . S
C2827 H2806 0.950 . S
C2827 C2826 1.373 . S
C2827 C2843 1.377 . S
C2828 C2826 1.389 . S
C2828 C2829 1.524 . S
C2828 C2842 1.377 . S
C2829 C2828 1.524 . S
C2829 C2830 1.397 . S
C2829 C2834 1.363 . S
C2830 H2807 0.950 . S
C2830 C2829 1.397 . S
C2830 C2831 1.334 . S
C2831 H2808 0.950 . S
C2831 C2830 1.334 . S
C2831 C2832 1.287 . S
C2832 C2831 1.287 . S
C2832 C2833 1.524 . S
C2832 H2851 0.913 . S
C2833 H2809 0.950 . S
C2833 C2832 1.524 . S
C2833 C2834 1.415 . S
C2834 H2810 0.950 . S
C2834 C2829 1.363 . S
C2834 C2833 1.415 . S
C2835 H2811 0.951 . S
C2835 C2836 1.366 . S
C2835 C2837 1.388 . S
C2836 C2835 1.366 . S
C2836 C2840 1.385 . S
C2837 H2812 0.951 . S
C2837 C2835 1.388 . S
C2837 C2838 1.366 . S
C2838 C2837 1.366 . S
C2838 C2839 1.414 . S
C2838 C2841 1.499 . S
C2839 H2813 0.950 . S
C2839 C2838 1.414 . S
C2839 C2840 1.374 . S
C2840 H2814 0.950 . S
C2840 C2836 1.385 . S
C2840 C2839 1.374 . S
C2841 C2838 1.499 . S
C2841 C2842 1.373 . S
C2841 C2843 1.389 . S
C2842 H2815 0.950 . S
C2842 C2828 1.377 . S
C2842 C2841 1.373 . S
C2843 C2827 1.377 . S
C2843 C2841 1.389 . S
C2843 C2844 1.524 . S
C2844 C2843 1.524 . S
C2844 C2845 1.397 . S
C2844 C2849 1.363 . S
C2845 H2816 0.950 . S
C2845 C2844 1.397 . S
C2845 C2846 1.334 . S
C2846 H2817 0.950 . S
C2846 C2845 1.334 . S
C2846 C2847 1.287 . S
C2847 C2846 1.287 . S
C2847 C2848 1.524 . S
C2847 H2850 0.999 . S
C2848 H2818 0.950 . S
C2848 C2847 1.524 . S
C2848 C2849 1.415 . S
C2849 H2819 0.950 . S
C2849 C2844 1.363 . S
C2849 C2848 1.415 . S
H2850 C2847 0.999 . S
H2851 C2832 0.913 . S
H2852 C2870 0.951 . S
H2853 C2872 0.951 . S
H2854 C2874 0.950 . S
H2855 C2875 0.950 . S
H2856 C2877 0.950 . S
H2857 C2880 0.950 1_545 S
H2858 C2881 0.950 . S
H2859 C2883 0.950 . S
H2860 C2884 0.950 . S
H2861 C2885 0.951 . S
H2862 C2887 0.951 . S
H2863 C2889 0.950 . S
H2864 C2890 0.950 . S
H2865 C2892 0.950 . S
H2866 C2895 0.950 . S
H2867 C2896 0.950 . S
H2868 C2898 0.950 . S
H2869 C2899 0.950 . S
C2870 H2852 0.951 . S
C2870 C2871 1.366 1_565 S
C2870 C2872 1.388 . S
C2871 C2870 1.366 1_545 S
C2871 C2875 1.385 . S
C2872 H2853 0.951 . S
C2872 C2870 1.388 . S
C2872 C2873 1.366 1_565 S
C2873 C2872 1.366 1_545 S
C2873 C2874 1.414 . S
C2873 C2876 1.499 . S
C2874 H2854 0.950 . S
C2874 C2873 1.414 . S
C2874 C2875 1.374 . S
C2875 H2855 0.950 . S
C2875 C2871 1.385 . S
C2875 C2874 1.374 . S
C2876 C2873 1.499 . S
C2876 C2877 1.373 . S
C2876 C2878 1.389 1_545 S
C2877 H2856 0.950 . S
C2877 C2876 1.373 . S
C2877 C2893 1.377 . S
C2878 C2876 1.389 1_565 S
C2878 C2879 1.524 . S
C2878 C2892 1.377 . S
C2879 C2878 1.524 . S
C2879 C2880 1.397 . S
C2879 C2884 1.363 . S
C2880 H2857 0.950 1_565 S
C2880 C2879 1.397 . S
C2880 C2881 1.334 . S
C2881 H2858 0.950 . S
C2881 C2880 1.334 . S
C2881 C2882 1.287 . S
C2882 C2881 1.287 . S
C2882 C2883 1.524 . S
C2882 H2901 0.913 . S
C2883 H2859 0.950 . S
C2883 C2882 1.524 . S
C2883 C2884 1.415 . S
C2884 H2860 0.950 . S
C2884 C2879 1.363 . S
C2884 C2883 1.415 . S
C2885 H2861 0.951 . S
C2885 C2886 1.366 . S
C2885 C2887 1.388 . S
C2886 C2885 1.366 . S
C2886 C2890 1.385 1_545 S
C2887 H2862 0.951 . S
C2887 C2885 1.388 . S
C2887 C2888 1.366 . S
C2888 C2887 1.366 . S
C2888 C2889 1.414 1_545 S
C2888 C2891 1.499 . S
C2889 H2863 0.950 . S
C2889 C2888 1.414 1_565 S
C2889 C2890 1.374 . S
C2890 H2864 0.950 . S
C2890 C2886 1.385 1_565 S
C2890 C2889 1.374 . S
C2891 C2888 1.499 . S
C2891 C2892 1.373 1_545 S
C2891 C2893 1.389 . S
C2892 H2865 0.950 . S
C2892 C2878 1.377 . S
C2892 C2891 1.373 1_565 S
C2893 C2877 1.377 . S
C2893 C2891 1.389 . S
C2893 C2894 1.524 . S
C2894 C2893 1.524 . S
C2894 C2895 1.397 . S
C2894 C2899 1.363 . S
C2895 H2866 0.950 . S
C2895 C2894 1.397 . S
C2895 C2896 1.334 . S
C2896 H2867 0.950 . S
C2896 C2895 1.334 . S
C2896 C2897 1.287 . S
C2897 C2896 1.287 . S
C2897 C2898 1.524 . S
C2897 H2900 0.999 . S
C2898 H2868 0.950 . S
C2898 C2897 1.524 . S
C2898 C2899 1.415 . S
C2899 H2869 0.950 . S
C2899 C2894 1.363 . S
C2899 C2898 1.415 . S
H2900 C2897 0.999 . S
H2901 C2882 0.913 . S
H2902 C2920 0.951 . S
H2903 C2922 0.951 . S
H2904 C2924 0.950 . S
H2905 C2925 0.950 . S
H2906 C2927 0.950 . S
H2907 C2930 0.950 . S
H2908 C2931 0.950 . S
H2909 C2933 0.950 . S
H2910 C2934 0.950 . S
H2911 C2935 0.951 . S
H2912 C2937 0.951 . S
H2913 C2939 0.950 . S
H2914 C2940 0.950 . S
H2915 C2942 0.950 . S
H2916 C2945 0.950 . S
H2917 C2946 0.950 . S
H2918 C2948 0.950 . S
H2919 C2949 0.950 . S
C2920 H2902 0.951 . S
C2920 C2921 1.366 . S
C2920 C2922 1.388 . S
C2921 C2920 1.366 . S
C2921 C2925 1.385 . S
C2922 H2903 0.951 . S
C2922 C2920 1.388 . S
C2922 C2923 1.366 . S
C2923 C2922 1.366 . S
C2923 C2924 1.414 . S
C2923 C2926 1.499 . S
C2924 H2904 0.950 . S
C2924 C2923 1.414 . S
C2924 C2925 1.374 . S
C2925 H2905 0.950 . S
C2925 C2921 1.385 . S
C2925 C2924 1.374 . S
C2926 C2923 1.499 . S
C2926 C2927 1.373 . S
C2926 C2928 1.389 . S
C2927 H2906 0.950 . S
C2927 C2926 1.373 . S
C2927 C2943 1.377 . S
C2928 C2926 1.389 . S
C2928 C2929 1.524 . S
C2928 C2942 1.377 . S
C2929 C2928 1.524 . S
C2929 C2930 1.397 . S
C2929 C2934 1.363 . S
C2930 H2907 0.950 . S
C2930 C2929 1.397 . S
C2930 C2931 1.334 . S
C2931 H2908 0.950 . S
C2931 C2930 1.334 . S
C2931 C2932 1.287 . S
C2932 C2931 1.287 . S
C2932 C2933 1.524 . S
C2932 H2951 0.913 . S
C2933 H2909 0.950 . S
C2933 C2932 1.524 . S
C2933 C2934 1.415 . S
C2934 H2910 0.950 . S
C2934 C2929 1.363 . S
C2934 C2933 1.415 . S
C2935 H2911 0.951 . S
C2935 C2936 1.366 . S
C2935 C2937 1.388 . S
C2936 C2935 1.366 . S
C2936 C2940 1.385 . S
C2937 H2912 0.951 . S
C2937 C2935 1.388 . S
C2937 C2938 1.366 . S
C2938 C2937 1.366 . S
C2938 C2939 1.414 . S
C2938 C2941 1.499 . S
C2939 H2913 0.950 . S
C2939 C2938 1.414 . S
C2939 C2940 1.374 . S
C2940 H2914 0.950 . S
C2940 C2936 1.385 . S
C2940 C2939 1.374 . S
C2941 C2938 1.499 . S
C2941 C2942 1.373 . S
C2941 C2943 1.389 . S
C2942 H2915 0.950 . S
C2942 C2928 1.377 . S
C2942 C2941 1.373 . S
C2943 C2927 1.377 . S
C2943 C2941 1.389 . S
C2943 C2944 1.524 . S
C2944 C2943 1.524 . S
C2944 C2945 1.397 . S
C2944 C2949 1.363 . S
C2945 H2916 0.950 . S
C2945 C2944 1.397 . S
C2945 C2946 1.334 . S
C2946 H2917 0.950 . S
C2946 C2945 1.334 . S
C2946 C2947 1.287 . S
C2947 C2946 1.287 . S
C2947 C2948 1.524 . S
C2947 H2950 0.999 . S
C2948 H2918 0.950 . S
C2948 C2947 1.524 . S
C2948 C2949 1.415 . S
C2949 H2919 0.950 . S
C2949 C2944 1.363 . S
C2949 C2948 1.415 . S
H2950 C2947 0.999 . S
H2951 C2932 0.913 . S
H2952 C2970 0.951 . S
H2953 C2972 0.951 . S
H2954 C2974 0.950 . S
H2955 C2975 0.950 . S
H2956 C2977 0.950 . S
H2957 C2980 0.950 1_554 S
H2958 C2981 0.950 . S
H2959 C2983 0.950 . S
H2960 C2984 0.950 1_554 S
H2961 C2985 0.951 . S
H2962 C2987 0.951 . S
H2963 C2989 0.950 . S
H2964 C2990 0.950 . S
H2965 C2992 0.950 . S
H2966 C2995 0.950 . S
H2967 C2996 0.950 . S
H2968 C2998 0.950 . S
H2969 C2999 0.950 . S
C2970 H2952 0.951 . S
C2970 C2971 1.366 . S
C2970 C2972 1.388 . S
C2971 C2970 1.366 . S
C2971 C2975 1.385 . S
C2972 H2953 0.951 . S
C2972 C2970 1.388 . S
C2972 C2973 1.366 . S
C2973 C2972 1.366 . S
C2973 C2974 1.414 . S
C2973 C2976 1.499 . S
C2974 H2954 0.950 . S
C2974 C2973 1.414 . S
C2974 C2975 1.374 . S
C2975 H2955 0.950 . S
C2975 C2971 1.385 . S
C2975 C2974 1.374 . S
C2976 C2973 1.499 . S
C2976 C2977 1.373 . S
C2976 C2978 1.389 . S
C2977 H2956 0.950 . S
C2977 C2976 1.373 . S
C2977 C2993 1.377 . S
C2978 C2976 1.389 . S
C2978 C2979 1.524 . S
C2978 C2992 1.377 . S
C2979 C2978 1.524 . S
C2979 C2980 1.397 1_554 S
C2979 C2984 1.363 1_554 S
C2980 H2957 0.950 1_556 S
C2980 C2979 1.397 1_556 S
C2980 C2981 1.334 . S
C2981 H2958 0.950 . S
C2981 C2980 1.334 . S
C2981 C2982 1.287 . S
C2982 C2981 1.287 . S
C2982 C2983 1.524 . S
C2982 H3001 0.913 . S
C2983 H2959 0.950 . S
C2983 C2982 1.524 . S
C2983 C2984 1.415 . S
C2984 H2960 0.950 1_556 S
C2984 C2979 1.363 1_556 S
C2984 C2983 1.415 . S
C2985 H2961 0.951 . S
C2985 C2986 1.366 . S
C2985 C2987 1.388 . S
C2986 C2985 1.366 . S
C2986 C2990 1.385 . S
C2987 H2962 0.951 . S
C2987 C2985 1.388 . S
C2987 C2988 1.366 . S
C2988 C2987 1.366 . S
C2988 C2989 1.414 . S
C2988 C2991 1.499 . S
C2989 H2963 0.950 . S
C2989 C2988 1.414 . S
C2989 C2990 1.374 . S
C2990 H2964 0.950 . S
C2990 C2986 1.385 . S
C2990 C2989 1.374 . S
C2991 C2988 1.499 . S
C2991 C2992 1.373 . S
C2991 C2993 1.389 . S
C2992 H2965 0.950 . S
C2992 C2978 1.377 . S
C2992 C2991 1.373 . S
C2993 C2977 1.377 . S
C2993 C2991 1.389 . S
C2993 C2994 1.524 . S
C2994 C2993 1.524 . S
C2994 C2995 1.397 . S
C2994 C2999 1.363 . S
C2995 H2966 0.950 . S
C2995 C2994 1.397 . S
C2995 C2996 1.334 . S
C2996 H2967 0.950 . S
C2996 C2995 1.334 . S
C2996 C2997 1.287 . S
C2997 C2996 1.287 . S
C2997 C2998 1.524 . S
C2997 H3000 0.999 . S
C2998 H2968 0.950 . S
C2998 C2997 1.524 . S
C2998 C2999 1.415 . S
C2999 H2969 0.950 . S
C2999 C2994 1.363 . S
C2999 C2998 1.415 . S
H3000 C2997 0.999 . S
H3001 C2982 0.913 . S
H3002 C3020 0.951 . S
H3003 C3022 0.951 . S
H3004 C3024 0.950 . S
H3005 C3025 0.950 . S
H3006 C3027 0.950 1_556 S
H3007 C3030 0.950 . S
H3008 C3031 0.950 . S
H3009 C3033 0.950 . S
H3010 C3034 0.950 . S
H3011 C3035 0.951 . S
H3012 C3037 0.951 . S
H3013 C3039 0.950 . S
H3014 C3040 0.950 . S
H3015 C3042 0.950 . S
H3016 C3045 0.950 . S
H3017 C3046 0.950 . S
H3018 C3048 0.950 . S
H3019 C3049 0.950 . S
C3020 H3002 0.951 . S
C3020 C3021 1.366 . S
C3020 C3022 1.388 . S
C3021 C3020 1.366 . S
C3021 C3025 1.385 . S
C3022 H3003 0.951 . S
C3022 C3020 1.388 . S
C3022 C3023 1.366 . S
C3023 C3022 1.366 . S
C3023 C3024 1.414 . S
C3023 C3026 1.499 . S
C3024 H3004 0.950 . S
C3024 C3023 1.414 . S
C3024 C3025 1.374 . S
C3025 H3005 0.950 . S
C3025 C3021 1.385 . S
C3025 C3024 1.374 . S
C3026 C3023 1.499 . S
C3026 C3027 1.373 . S
C3026 C3028 1.389 . S
C3027 H3006 0.950 1_554 S
C3027 C3026 1.373 . S
C3027 C3043 1.377 . S
C3028 C3026 1.389 . S
C3028 C3029 1.524 . S
C3028 C3042 1.377 . S
C3029 C3028 1.524 . S
C3029 C3030 1.397 . S
C3029 C3034 1.363 . S
C3030 H3007 0.950 . S
C3030 C3029 1.397 . S
C3030 C3031 1.334 . S
C3031 H3008 0.950 . S
C3031 C3030 1.334 . S
C3031 C3032 1.287 . S
C3032 C3031 1.287 . S
C3032 C3033 1.524 . S
C3032 H3051 0.913 . S
C3033 H3009 0.950 . S
C3033 C3032 1.524 . S
C3033 C3034 1.415 . S
C3034 H3010 0.950 . S
C3034 C3029 1.363 . S
C3034 C3033 1.415 . S
C3035 H3011 0.951 . S
C3035 C3036 1.366 . S
C3035 C3037 1.388 . S
C3036 C3035 1.366 . S
C3036 C3040 1.385 . S
C3037 H3012 0.951 . S
C3037 C3035 1.388 . S
C3037 C3038 1.366 . S
C3038 C3037 1.366 . S
C3038 C3039 1.414 . S
C3038 C3041 1.499 . S
C3039 H3013 0.950 . S
C3039 C3038 1.414 . S
C3039 C3040 1.374 . S
C3040 H3014 0.950 . S
C3040 C3036 1.385 . S
C3040 C3039 1.374 . S
C3041 C3038 1.499 . S
C3041 C3042 1.373 . S
C3041 C3043 1.389 . S
C3042 H3015 0.950 . S
C3042 C3028 1.377 . S
C3042 C3041 1.373 . S
C3043 C3027 1.377 . S
C3043 C3041 1.389 . S
C3043 C3044 1.524 1_554 S
C3044 C3043 1.524 1_556 S
C3044 C3045 1.397 . S
C3044 C3049 1.363 . S
C3045 H3016 0.950 . S
C3045 C3044 1.397 . S
C3045 C3046 1.334 . S
C3046 H3017 0.950 . S
C3046 C3045 1.334 . S
C3046 C3047 1.287 . S
C3047 C3046 1.287 . S
C3047 C3048 1.524 . S
C3047 H3050 0.999 . S
C3048 H3018 0.950 . S
C3048 C3047 1.524 . S
C3048 C3049 1.415 . S
C3049 H3019 0.950 . S
C3049 C3044 1.363 . S
C3049 C3048 1.415 . S
H3050 C3047 0.999 . S
H3051 C3032 0.913 . S
H3052 C3070 0.951 . S
H3053 C3072 0.951 . S
H3054 C3074 0.950 . S
H3055 C3075 0.950 . S
H3056 C3077 0.950 . S
H3057 C3080 0.950 . S
H3058 C3081 0.950 . S
H3059 C3083 0.950 . S
H3060 C3084 0.950 . S
H3061 C3085 0.951 . S
H3062 C3087 0.951 . S
H3063 C3089 0.950 . S
H3064 C3090 0.950 . S
H3065 C3092 0.950 . S
H3066 C3095 0.950 . S
H3067 C3096 0.950 . S
H3068 C3098 0.950 . S
H3069 C3099 0.950 . S
C3070 H3052 0.951 . S
C3070 C3071 1.366 . S
C3070 C3072 1.388 . S
C3071 C3070 1.366 . S
C3071 C3075 1.385 . S
C3072 H3053 0.951 . S
C3072 C3070 1.388 . S
C3072 C3073 1.366 . S
C3073 C3072 1.366 . S
C3073 C3074 1.414 . S
C3073 C3076 1.499 . S
C3074 H3054 0.950 . S
C3074 C3073 1.414 . S
C3074 C3075 1.374 . S
C3075 H3055 0.950 . S
C3075 C3071 1.385 . S
C3075 C3074 1.374 . S
C3076 C3073 1.499 . S
C3076 C3077 1.373 . S
C3076 C3078 1.389 . S
C3077 H3056 0.950 . S
C3077 C3076 1.373 . S
C3077 C3093 1.377 . S
C3078 C3076 1.389 . S
C3078 C3079 1.524 . S
C3078 C3092 1.377 . S
C3079 C3078 1.524 . S
C3079 C3080 1.397 . S
C3079 C3084 1.363 . S
C3080 H3057 0.950 . S
C3080 C3079 1.397 . S
C3080 C3081 1.334 . S
C3081 H3058 0.950 . S
C3081 C3080 1.334 . S
C3081 C3082 1.287 . S
C3082 C3081 1.287 . S
C3082 C3083 1.524 . S
C3082 H3101 0.913 . S
C3083 H3059 0.950 . S
C3083 C3082 1.524 . S
C3083 C3084 1.415 . S
C3084 H3060 0.950 . S
C3084 C3079 1.363 . S
C3084 C3083 1.415 . S
C3085 H3061 0.951 . S
C3085 C3086 1.366 . S
C3085 C3087 1.388 . S
C3086 C3085 1.366 . S
C3086 C3090 1.385 . S
C3087 H3062 0.951 . S
C3087 C3085 1.388 . S
C3087 C3088 1.366 . S
C3088 C3087 1.366 . S
C3088 C3089 1.414 . S
C3088 C3091 1.499 . S
C3089 H3063 0.950 . S
C3089 C3088 1.414 . S
C3089 C3090 1.374 . S
C3090 H3064 0.950 . S
C3090 C3086 1.385 . S
C3090 C3089 1.374 . S
C3091 C3088 1.499 . S
C3091 C3092 1.373 . S
C3091 C3093 1.389 . S
C3092 H3065 0.950 . S
C3092 C3078 1.377 . S
C3092 C3091 1.373 . S
C3093 C3077 1.377 . S
C3093 C3091 1.389 . S
C3093 C3094 1.524 . S
C3094 C3093 1.524 . S
C3094 C3095 1.397 . S
C3094 C3099 1.363 . S
C3095 H3066 0.950 . S
C3095 C3094 1.397 . S
C3095 C3096 1.334 . S
C3096 H3067 0.950 . S
C3096 C3095 1.334 . S
C3096 C3097 1.287 . S
C3097 C3096 1.287 . S
C3097 C3098 1.524 . S
C3097 H3100 0.999 . S
C3098 H3068 0.950 . S
C3098 C3097 1.524 . S
C3098 C3099 1.415 . S
C3099 H3069 0.950 . S
C3099 C3094 1.363 . S
C3099 C3098 1.415 . S
H3100 C3097 0.999 . S
H3101 C3082 0.913 . S
H3102 C3120 0.951 . S
H3103 C3122 0.951 . S
H3104 C3124 0.950 . S
H3105 C3125 0.950 . S
H3106 C3127 0.950 . S
H3107 C3130 0.950 . S
H3108 C3131 0.950 . S
H3109 C3133 0.950 . S
H3110 C3134 0.950 . S
H3111 C3135 0.951 . S
H3112 C3137 0.951 . S
H3113 C3139 0.950 . S
H3114 C3140 0.950 . S
H3115 C3142 0.950 . S
H3116 C3145 0.950 . S
H3117 C3146 0.950 . S
H3118 C3148 0.950 . S
H3119 C3149 0.950 . S
C3120 H3102 0.951 . S
C3120 C3121 1.366 . S
C3120 C3122 1.388 . S
C3121 C3120 1.366 . S
C3121 C3125 1.385 . S
C3122 H3103 0.951 . S
C3122 C3120 1.388 . S
C3122 C3123 1.366 . S
C3123 C3122 1.366 . S
C3123 C3124 1.414 . S
C3123 C3126 1.499 . S
C3124 H3104 0.950 . S
C3124 C3123 1.414 . S
C3124 C3125 1.374 . S
C3125 H3105 0.950 . S
C3125 C3121 1.385 . S
C3125 C3124 1.374 . S
C3126 C3123 1.499 . S
C3126 C3127 1.373 . S
C3126 C3128 1.389 . S
C3127 H3106 0.950 . S
C3127 C3126 1.373 . S
C3127 C3143 1.377 . S
C3128 C3126 1.389 . S
C3128 C3129 1.524 . S
C3128 C3142 1.377 . S
C3129 C3128 1.524 . S
C3129 C3130 1.397 . S
C3129 C3134 1.363 . S
C3130 H3107 0.950 . S
C3130 C3129 1.397 . S
C3130 C3131 1.334 . S
C3131 H3108 0.950 . S
C3131 C3130 1.334 . S
C3131 C3132 1.287 . S
C3132 C3131 1.287 . S
C3132 C3133 1.524 . S
C3132 H3151 0.913 . S
C3133 H3109 0.950 . S
C3133 C3132 1.524 . S
C3133 C3134 1.415 . S
C3134 H3110 0.950 . S
C3134 C3129 1.363 . S
C3134 C3133 1.415 . S
C3135 H3111 0.951 . S
C3135 C3136 1.366 . S
C3135 C3137 1.388 . S
C3136 C3135 1.366 . S
C3136 C3140 1.385 . S
C3137 H3112 0.951 . S
C3137 C3135 1.388 . S
C3137 C3138 1.366 . S
C3138 C3137 1.366 . S
C3138 C3139 1.414 . S
C3138 C3141 1.499 . S
C3139 H3113 0.950 . S
C3139 C3138 1.414 . S
C3139 C3140 1.374 . S
C3140 H3114 0.950 . S
C3140 C3136 1.385 . S
C3140 C3139 1.374 . S
C3141 C3138 1.499 . S
C3141 C3142 1.373 . S
C3141 C3143 1.389 . S
C3142 H3115 0.950 . S
C3142 C3128 1.377 . S
C3142 C3141 1.373 . S
C3143 C3127 1.377 . S
C3143 C3141 1.389 . S
C3143 C3144 1.524 . S
C3144 C3143 1.524 . S
C3144 C3145 1.397 . S
C3144 C3149 1.363 . S
C3145 H3116 0.950 . S
C3145 C3144 1.397 . S
C3145 C3146 1.334 . S
C3146 H3117 0.950 . S
C3146 C3145 1.334 . S
C3146 C3147 1.287 . S
C3147 C3146 1.287 . S
C3147 C3148 1.524 . S
C3147 H3150 0.999 . S
C3148 H3118 0.950 . S
C3148 C3147 1.524 . S
C3148 C3149 1.415 . S
C3149 H3119 0.950 . S
C3149 C3144 1.363 . S
C3149 C3148 1.415 . S
H3150 C3147 0.999 . S
H3151 C3132 0.913 . S
H3152 C3170 0.951 . S
H3153 C3172 0.951 . S
H3154 C3174 0.950 . S
H3155 C3175 0.950 . S
H3156 C3177 0.950 . S
H3157 C3180 0.950 . S
H3158 C3181 0.950 . S
H3159 C3183 0.950 . S
H3160 C3184 0.950 . S
H3161 C3185 0.951 . S
H3162 C3187 0.951 . S
H3163 C3189 0.950 . S
H3164 C3190 0.950 . S
H3165 C3192 0.950 . S
H3166 C3195 0.950 . S
H3167 C3196 0.950 . S
H3168 C3198 0.950 . S
H3169 C3199 0.950 . S
C3170 H3152 0.951 . S
C3170 C3171 1.366 . S
C3170 C3172 1.388 1_545 S
C3171 C3170 1.366 . S
C3171 C3175 1.385 . S
C3172 H3153 0.951 . S
C3172 C3170 1.388 1_565 S
C3172 C3173 1.366 . S
C3173 C3172 1.366 . S
C3173 C3174 1.414 . S
C3173 C3176 1.499 . S
C3174 H3154 0.950 . S
C3174 C3173 1.414 . S
C3174 C3175 1.374 1_565 S
C3175 H3155 0.950 . S
C3175 C3171 1.385 . S
C3175 C3174 1.374 1_545 S
C3176 C3173 1.499 . S
C3176 C3177 1.373 . S
C3176 C3178 1.389 . S
C3177 H3156 0.950 . S
C3177 C3176 1.373 . S
C3177 C3193 1.377 . S
C3178 C3176 1.389 . S
C3178 C3179 1.524 . S
C3178 C3192 1.377 . S
C3179 C3178 1.524 . S
C3179 C3180 1.397 . S
C3179 C3184 1.363 . S
C3180 H3157 0.950 . S
C3180 C3179 1.397 . S
C3180 C3181 1.334 . S
C3181 H3158 0.950 . S
C3181 C3180 1.334 . S
C3181 C3182 1.287 . S
C3182 C3181 1.287 . S
C3182 C3183 1.524 . S
C3182 H3201 0.913 . S
C3183 H3159 0.950 . S
C3183 C3182 1.524 . S
C3183 C3184 1.415 . S
C3184 H3160 0.950 . S
C3184 C3179 1.363 . S
C3184 C3183 1.415 . S
C3185 H3161 0.951 . S
C3185 C3186 1.366 . S
C3185 C3187 1.388 . S
C3186 C3185 1.366 . S
C3186 C3190 1.385 . S
C3187 H3162 0.951 . S
C3187 C3185 1.388 . S
C3187 C3188 1.366 . S
C3188 C3187 1.366 . S
C3188 C3189 1.414 . S
C3188 C3191 1.499 . S
C3189 H3163 0.950 . S
C3189 C3188 1.414 . S
C3189 C3190 1.374 . S
C3190 H3164 0.950 . S
C3190 C3186 1.385 . S
C3190 C3189 1.374 . S
C3191 C3188 1.499 . S
C3191 C3192 1.373 . S
C3191 C3193 1.389 . S
C3192 H3165 0.950 . S
C3192 C3178 1.377 . S
C3192 C3191 1.373 . S
C3193 C3177 1.377 . S
C3193 C3191 1.389 . S
C3193 C3194 1.524 . S
C3194 C3193 1.524 . S
C3194 C3195 1.397 . S
C3194 C3199 1.363 . S
C3195 H3166 0.950 . S
C3195 C3194 1.397 . S
C3195 C3196 1.334 . S
C3196 H3167 0.950 . S
C3196 C3195 1.334 . S
C3196 C3197 1.287 . S
C3197 C3196 1.287 . S
C3197 C3198 1.524 . S
C3197 H3200 0.999 . S
C3198 H3168 0.950 . S
C3198 C3197 1.524 . S
C3198 C3199 1.415 . S
C3199 H3169 0.950 . S
C3199 C3194 1.363 . S
C3199 C3198 1.415 . S
H3200 C3197 0.999 . S
H3201 C3182 0.913 . S
H3202 C3220 0.951 . S
H3203 C3222 0.951 . S
H3204 C3224 0.950 . S
H3205 C3225 0.950 . S
H3206 C3227 0.950 . S
H3207 C3230 0.950 . S
H3208 C3231 0.950 . S
H3209 C3233 0.950 . S
H3210 C3234 0.950 . S
H3211 C3235 0.951 . S
H3212 C3237 0.951 . S
H3213 C3239 0.950 . S
H3214 C3240 0.950 . S
H3215 C3242 0.950 . S
H3216 C3245 0.950 . S
H3217 C3246 0.950 . S
H3218 C3248 0.950 1_545 S
H3219 C3249 0.950 . S
C3220 H3202 0.951 . S
C3220 C3221 1.366 . S
C3220 C3222 1.388 . S
C3221 C3220 1.366 . S
C3221 C3225 1.385 . S
C3222 H3203 0.951 . S
C3222 C3220 1.388 . S
C3222 C3223 1.366 . S
C3223 C3222 1.366 . S
C3223 C3224 1.414 . S
C3223 C3226 1.499 . S
C3224 H3204 0.950 . S
C3224 C3223 1.414 . S
C3224 C3225 1.374 . S
C3225 H3205 0.950 . S
C3225 C3221 1.385 . S
C3225 C3224 1.374 . S
C3226 C3223 1.499 . S
C3226 C3227 1.373 . S
C3226 C3228 1.389 . S
C3227 H3206 0.950 . S
C3227 C3226 1.373 . S
C3227 C3243 1.377 . S
C3228 C3226 1.389 . S
C3228 C3229 1.524 . S
C3228 C3242 1.377 . S
C3229 C3228 1.524 . S
C3229 C3230 1.397 . S
C3229 C3234 1.363 . S
C3230 H3207 0.950 . S
C3230 C3229 1.397 . S
C3230 C3231 1.334 . S
C3231 H3208 0.950 . S
C3231 C3230 1.334 . S
C3231 C3232 1.287 . S
C3232 C3231 1.287 . S
C3232 C3233 1.524 . S
C3232 H3251 0.913 . S
C3233 H3209 0.950 . S
C3233 C3232 1.524 . S
C3233 C3234 1.415 . S
C3234 H3210 0.950 . S
C3234 C3229 1.363 . S
C3234 C3233 1.415 . S
C3235 H3211 0.951 . S
C3235 C3236 1.366 . S
C3235 C3237 1.388 . S
C3236 C3235 1.366 . S
C3236 C3240 1.385 . S
C3237 H3212 0.951 . S
C3237 C3235 1.388 . S
C3237 C3238 1.366 . S
C3238 C3237 1.366 . S
C3238 C3239 1.414 . S
C3238 C3241 1.499 . S
C3239 H3213 0.950 . S
C3239 C3238 1.414 . S
C3239 C3240 1.374 . S
C3240 H3214 0.950 . S
C3240 C3236 1.385 . S
C3240 C3239 1.374 . S
C3241 C3238 1.499 . S
C3241 C3242 1.373 . S
C3241 C3243 1.389 . S
C3242 H3215 0.950 . S
C3242 C3228 1.377 . S
C3242 C3241 1.373 . S
C3243 C3227 1.377 . S
C3243 C3241 1.389 . S
C3243 C3244 1.524 . S
C3244 C3243 1.524 . S
C3244 C3245 1.397 . S
C3244 C3249 1.363 . S
C3245 H3216 0.950 . S
C3245 C3244 1.397 . S
C3245 C3246 1.334 . S
C3246 H3217 0.950 . S
C3246 C3245 1.334 . S
C3246 C3247 1.287 . S
C3247 C3246 1.287 . S
C3247 C3248 1.524 . S
C3247 H3250 0.999 1_565 S
C3248 H3218 0.950 1_565 S
C3248 C3247 1.524 . S
C3248 C3249 1.415 . S
C3249 H3219 0.950 . S
C3249 C3244 1.363 . S
C3249 C3248 1.415 . S
H3250 C3247 0.999 1_545 S
H3251 C3232 0.913 . S
H3252 C3270 0.951 . S
H3253 C3272 0.951 . S
H3254 C3274 0.950 . S
H3255 C3275 0.950 . S
H3256 C3277 0.950 . S
H3257 C3280 0.950 . S
H3258 C3281 0.950 . S
H3259 C3283 0.950 . S
H3260 C3284 0.950 . S
H3261 C3285 0.951 . S
H3262 C3287 0.951 . S
H3263 C3289 0.950 . S
H3264 C3290 0.950 . S
H3265 C3292 0.950 . S
H3266 C3295 0.950 . S
H3267 C3296 0.950 . S
H3268 C3298 0.950 . S
H3269 C3299 0.950 . S
C3270 H3252 0.951 . S
C3270 C3271 1.366 . S
C3270 C3272 1.388 . S
C3271 C3270 1.366 . S
C3271 C3275 1.385 . S
C3272 H3253 0.951 . S
C3272 C3270 1.388 . S
C3272 C3273 1.366 . S
C3273 C3272 1.366 . S
C3273 C3274 1.414 . S
C3273 C3276 1.499 . S
C3274 H3254 0.950 . S
C3274 C3273 1.414 . S
C3274 C3275 1.374 . S
C3275 H3255 0.950 . S
C3275 C3271 1.385 . S
C3275 C3274 1.374 . S
C3276 C3273 1.499 . S
C3276 C3277 1.373 . S
C3276 C3278 1.389 . S
C3277 H3256 0.950 . S
C3277 C3276 1.373 . S
C3277 C3293 1.377 . S
C3278 C3276 1.389 . S
C3278 C3279 1.524 . S
C3278 C3292 1.377 . S
C3279 C3278 1.524 . S
C3279 C3280 1.397 . S
C3279 C3284 1.363 . S
C3280 H3257 0.950 . S
C3280 C3279 1.397 . S
C3280 C3281 1.334 . S
C3281 H3258 0.950 . S
C3281 C3280 1.334 . S
C3281 C3282 1.287 . S
C3282 C3281 1.287 . S
C3282 C3283 1.524 . S
C3282 H3301 0.913 . S
C3283 H3259 0.950 . S
C3283 C3282 1.524 . S
C3283 C3284 1.415 . S
C3284 H3260 0.950 . S
C3284 C3279 1.363 . S
C3284 C3283 1.415 . S
C3285 H3261 0.951 . S
C3285 C3286 1.366 . S
C3285 C3287 1.388 . S
C3286 C3285 1.366 . S
C3286 C3290 1.385 . S
C3287 H3262 0.951 . S
C3287 C3285 1.388 . S
C3287 C3288 1.366 . S
C3288 C3287 1.366 . S
C3288 C3289 1.414 . S
C3288 C3291 1.499 . S
C3289 H3263 0.950 . S
C3289 C3288 1.414 . S
C3289 C3290 1.374 . S
C3290 H3264 0.950 . S
C3290 C3286 1.385 . S
C3290 C3289 1.374 . S
C3291 C3288 1.499 . S
C3291 C3292 1.373 . S
C3291 C3293 1.389 . S
C3292 H3265 0.950 . S
C3292 C3278 1.377 . S
C3292 C3291 1.373 . S
C3293 C3277 1.377 . S
C3293 C3291 1.389 . S
C3293 C3294 1.524 . S
C3294 C3293 1.524 . S
C3294 C3295 1.397 . S
C3294 C3299 1.363 . S
C3295 H3266 0.950 . S
C3295 C3294 1.397 . S
C3295 C3296 1.334 . S
C3296 H3267 0.950 . S
C3296 C3295 1.334 . S
C3296 C3297 1.287 . S
C3297 C3296 1.287 . S
C3297 C3298 1.524 . S
C3297 H3300 0.999 . S
C3298 H3268 0.950 . S
C3298 C3297 1.524 . S
C3298 C3299 1.415 . S
C3299 H3269 0.950 . S
C3299 C3294 1.363 . S
C3299 C3298 1.415 . S
H3300 C3297 0.999 . S
H3301 C3282 0.913 . S
H3302 C3320 0.951 . S
H3303 C3322 0.951 . S
H3304 C3324 0.950 . S
H3305 C3325 0.950 . S
H3306 C3327 0.950 . S
H3307 C3330 0.950 . S
H3308 C3331 0.950 . S
H3309 C3333 0.950 . S
H3310 C3334 0.950 . S
H3311 C3335 0.951 . S
H3312 C3337 0.951 . S
H3313 C3339 0.950 . S
H3314 C3340 0.950 . S
H3315 C3342 0.950 . S
H3316 C3345 0.950 . S
H3317 C3346 0.950 . S
H3318 C3348 0.950 . S
H3319 C3349 0.950 . S
C3320 H3302 0.951 . S
C3320 C3321 1.366 . S
C3320 C3322 1.388 . S
C3321 C3320 1.366 . S
C3321 C3325 1.385 . S
C3322 H3303 0.951 . S
C3322 C3320 1.388 . S
C3322 C3323 1.366 . S
C3323 C3322 1.366 . S
C3323 C3324 1.414 . S
C3323 C3326 1.499 . S
C3324 H3304 0.950 . S
C3324 C3323 1.414 . S
C3324 C3325 1.374 . S
C3325 H3305 0.950 . S
C3325 C3321 1.385 . S
C3325 C3324 1.374 . S
C3326 C3323 1.499 . S
C3326 C3327 1.373 . S
C3326 C3328 1.389 . S
C3327 H3306 0.950 . S
C3327 C3326 1.373 . S
C3327 C3343 1.377 . S
C3328 C3326 1.389 . S
C3328 C3329 1.524 . S
C3328 C3342 1.377 . S
C3329 C3328 1.524 . S
C3329 C3330 1.397 . S
C3329 C3334 1.363 . S
C3330 H3307 0.950 . S
C3330 C3329 1.397 . S
C3330 C3331 1.334 . S
C3331 H3308 0.950 . S
C3331 C3330 1.334 . S
C3331 C3332 1.287 . S
C3332 C3331 1.287 . S
C3332 C3333 1.524 . S
C3332 H3351 0.913 . S
C3333 H3309 0.950 . S
C3333 C3332 1.524 . S
C3333 C3334 1.415 . S
C3334 H3310 0.950 . S
C3334 C3329 1.363 . S
C3334 C3333 1.415 . S
C3335 H3311 0.951 . S
C3335 C3336 1.366 . S
C3335 C3337 1.388 . S
C3336 C3335 1.366 . S
C3336 C3340 1.385 . S
C3337 H3312 0.951 . S
C3337 C3335 1.388 . S
C3337 C3338 1.366 . S
C3338 C3337 1.366 . S
C3338 C3339 1.414 . S
C3338 C3341 1.499 . S
C3339 H3313 0.950 . S
C3339 C3338 1.414 . S
C3339 C3340 1.374 . S
C3340 H3314 0.950 . S
C3340 C3336 1.385 . S
C3340 C3339 1.374 . S
C3341 C3338 1.499 . S
C3341 C3342 1.373 . S
C3341 C3343 1.389 . S
C3342 H3315 0.950 . S
C3342 C3328 1.377 . S
C3342 C3341 1.373 . S
C3343 C3327 1.377 . S
C3343 C3341 1.389 . S
C3343 C3344 1.524 . S
C3344 C3343 1.524 . S
C3344 C3345 1.397 . S
C3344 C3349 1.363 . S
C3345 H3316 0.950 . S
C3345 C3344 1.397 . S
C3345 C3346 1.334 . S
C3346 H3317 0.950 . S
C3346 C3345 1.334 . S
C3346 C3347 1.287 . S
C3347 C3346 1.287 . S
C3347 C3348 1.524 . S
C3347 H3350 0.999 . S
C3348 H3318 0.950 . S
C3348 C3347 1.524 . S
C3348 C3349 1.415 . S
C3349 H3319 0.950 . S
C3349 C3344 1.363 . S
C3349 C3348 1.415 . S
H3350 C3347 0.999 . S
H3351 C3332 0.913 . S
H3352 C3370 0.951 . S
H3353 C3372 0.951 . S
H3354 C3374 0.950 . S
H3355 C3375 0.950 . S
H3356 C3377 0.950 . S
H3357 C3380 0.950 . S
H3358 C3381 0.950 . S
H3359 C3383 0.950 . S
H3360 C3384 0.950 . S
H3361 C3385 0.951 . S
H3362 C3387 0.951 . S
H3363 C3389 0.950 . S
H3364 C3390 0.950 . S
H3365 C3392 0.950 . S
H3366 C3395 0.950 . S
H3367 C3396 0.950 . S
H3368 C3398 0.950 . S
H3369 C3399 0.950 . S
C3370 H3352 0.951 . S
C3370 C3371 1.366 . S
C3370 C3372 1.388 . S
C3371 C3370 1.366 . S
C3371 C3375 1.385 . S
C3372 H3353 0.951 . S
C3372 C3370 1.388 . S
C3372 C3373 1.366 . S
C3373 C3372 1.366 . S
C3373 C3374 1.414 . S
C3373 C3376 1.499 . S
C3374 H3354 0.950 . S
C3374 C3373 1.414 . S
C3374 C3375 1.374 . S
C3375 H3355 0.950 . S
C3375 C3371 1.385 . S
C3375 C3374 1.374 . S
C3376 C3373 1.499 . S
C3376 C3377 1.373 . S
C3376 C3378 1.389 . S
C3377 H3356 0.950 . S
C3377 C3376 1.373 . S
C3377 C3393 1.377 . S
C3378 C3376 1.389 . S
C3378 C3379 1.524 . S
C3378 C3392 1.377 . S
C3379 C3378 1.524 . S
C3379 C3380 1.397 . S
C3379 C3384 1.363 . S
C3380 H3357 0.950 . S
C3380 C3379 1.397 . S
C3380 C3381 1.334 . S
C3381 H3358 0.950 . S
C3381 C3380 1.334 . S
C3381 C3382 1.287 . S
C3382 C3381 1.287 . S
C3382 C3383 1.524 . S
C3382 H3401 0.913 . S
C3383 H3359 0.950 . S
C3383 C3382 1.524 . S
C3383 C3384 1.415 . S
C3384 H3360 0.950 . S
C3384 C3379 1.363 . S
C3384 C3383 1.415 . S
C3385 H3361 0.951 . S
C3385 C3386 1.366 . S
C3385 C3387 1.388 . S
C3386 C3385 1.366 . S
C3386 C3390 1.385 . S
C3387 H3362 0.951 . S
C3387 C3385 1.388 . S
C3387 C3388 1.366 . S
C3388 C3387 1.366 . S
C3388 C3389 1.414 . S
C3388 C3391 1.499 . S
C3389 H3363 0.950 . S
C3389 C3388 1.414 . S
C3389 C3390 1.374 . S
C3390 H3364 0.950 . S
C3390 C3386 1.385 . S
C3390 C3389 1.374 . S
C3391 C3388 1.499 . S
C3391 C3392 1.373 . S
C3391 C3393 1.389 . S
C3392 H3365 0.950 . S
C3392 C3378 1.377 . S
C3392 C3391 1.373 . S
C3393 C3377 1.377 . S
C3393 C3391 1.389 . S
C3393 C3394 1.524 . S
C3394 C3393 1.524 . S
C3394 C3395 1.397 . S
C3394 C3399 1.363 . S
C3395 H3366 0.950 . S
C3395 C3394 1.397 . S
C3395 C3396 1.334 . S
C3396 H3367 0.950 . S
C3396 C3395 1.334 . S
C3396 C3397 1.287 . S
C3397 C3396 1.287 . S
C3397 C3398 1.524 . S
C3397 H3400 0.999 . S
C3398 H3368 0.950 . S
C3398 C3397 1.524 . S
C3398 C3399 1.415 . S
C3399 H3369 0.950 . S
C3399 C3394 1.363 . S
C3399 C3398 1.415 . S
H3400 C3397 0.999 . S
H3401 C3382 0.913 . S
H3402 C3420 0.951 . S
H3403 C3422 0.951 . S
H3404 C3424 0.950 . S
H3405 C3425 0.950 . S
H3406 C3427 0.950 . S
H3407 C3430 0.950 . S
H3408 C3431 0.950 . S
H3409 C3433 0.950 . S
H3410 C3434 0.950 . S
H3411 C3435 0.951 . S
H3412 C3437 0.951 . S
H3413 C3439 0.950 . S
H3414 C3440 0.950 . S
H3415 C3442 0.950 . S
H3416 C3445 0.950 . S
H3417 C3446 0.950 . S
H3418 C3448 0.950 . S
H3419 C3449 0.950 . S
C3420 H3402 0.951 . S
C3420 C3421 1.366 . S
C3420 C3422 1.388 . S
C3421 C3420 1.366 . S
C3421 C3425 1.385 . S
C3422 H3403 0.951 . S
C3422 C3420 1.388 . S
C3422 C3423 1.366 . S
C3423 C3422 1.366 . S
C3423 C3424 1.414 . S
C3423 C3426 1.499 . S
C3424 H3404 0.950 . S
C3424 C3423 1.414 . S
C3424 C3425 1.374 . S
C3425 H3405 0.950 . S
C3425 C3421 1.385 . S
C3425 C3424 1.374 . S
C3426 C3423 1.499 . S
C3426 C3427 1.373 . S
C3426 C3428 1.389 . S
C3427 H3406 0.950 . S
C3427 C3426 1.373 . S
C3427 C3443 1.377 . S
C3428 C3426 1.389 . S
C3428 C3429 1.524 . S
C3428 C3442 1.377 . S
C3429 C3428 1.524 . S
C3429 C3430 1.397 . S
C3429 C3434 1.363 . S
C3430 H3407 0.950 . S
C3430 C3429 1.397 . S
C3430 C3431 1.334 . S
C3431 H3408 0.950 . S
C3431 C3430 1.334 . S
C3431 C3432 1.287 . S
C3432 C3431 1.287 . S
C3432 C3433 1.524 . S
C3432 H3451 0.913 . S
C3433 H3409 0.950 . S
C3433 C3432 1.524 . S
C3433 C3434 1.415 . S
C3434 H3410 0.950 . S
C3434 C3429 1.363 . S
C3434 C3433 1.415 . S
C3435 H3411 0.951 . S
C3435 C3436 1.366 . S
C3435 C3437 1.388 . S
C3436 C3435 1.366 . S
C3436 C3440 1.385 . S
C3437 H3412 0.951 . S
C3437 C3435 1.388 . S
C3437 C3438 1.366 . S
C3438 C3437 1.366 . S
C3438 C3439 1.414 . S
C3438 C3441 1.499 . S
C3439 H3413 0.950 . S
C3439 C3438 1.414 . S
C3439 C3440 1.374 . S
C3440 H3414 0.950 . S
C3440 C3436 1.385 . S
C3440 C3439 1.374 . S
C3441 C3438 1.499 . S
C3441 C3442 1.373 . S
C3441 C3443 1.389 . S
C3442 H3415 0.950 . S
C3442 C3428 1.377 . S
C3442 C3441 1.373 . S
C3443 C3427 1.377 . S
C3443 C3441 1.389 . S
C3443 C3444 1.524 . S
C3444 C3443 1.524 . S
C3444 C3445 1.397 . S
C3444 C3449 1.363 . S
C3445 H3416 0.950 . S
C3445 C3444 1.397 . S
C3445 C3446 1.334 . S
C3446 H3417 0.950 . S
C3446 C3445 1.334 . S
C3446 C3447 1.287 . S
C3447 C3446 1.287 . S
C3447 C3448 1.524 . S
C3447 H3450 0.999 . S
C3448 H3418 0.950 . S
C3448 C3447 1.524 . S
C3448 C3449 1.415 . S
C3449 H3419 0.950 . S
C3449 C3444 1.363 . S
C3449 C3448 1.415 . S
H3450 C3447 0.999 . S
H3451 C3432 0.913 . S
H3452 C3470 0.951 . S
H3453 C3472 0.951 . S
H3454 C3474 0.938 1_554 S
H3455 C3475 0.950 . S
H3456 C3477 0.950 . S
H3457 C3480 0.950 . S
H3458 C3481 0.950 . S
H3459 C3483 0.950 . S
H3460 C3484 0.950 . S
H3461 C3485 0.951 . S
H3462 C3487 0.951 . S
H3463 C3489 0.950 . S
H3464 C3490 0.950 . S
H3465 C3492 0.950 . S
H3466 C3495 0.950 . S
H3467 C3496 0.950 . S
H3468 C3498 0.950 . S
H3469 C3499 0.950 . S
C3470 H3452 0.951 . S
C3470 C3471 1.366 1_655 S
C3470 C3472 1.388 . S
C3471 C3470 1.366 1_455 S
C3471 C3475 1.385 . S
C3472 H3453 0.951 . S
C3472 C3470 1.388 . S
C3472 C3473 1.366 1_655 S
C3473 C3472 1.366 1_455 S
C3473 C3474 1.414 . S
C3473 C3476 1.499 . S
C3474 H3454 0.938 1_556 S
C3474 C3473 1.414 . S
C3474 C3475 1.374 . S
C3475 H3455 0.950 . S
C3475 C3471 1.385 . S
C3475 C3474 1.374 . S
C3476 C3473 1.499 . S
C3476 C3477 1.373 1_556 S
C3476 C3478 1.389 . S
C3477 H3456 0.950 . S
C3477 C3476 1.373 1_554 S
C3477 C3493 1.377 . S
C3478 C3476 1.389 . S
C3478 C3479 1.524 . S
C3478 C3492 1.377 . S
C3479 C3478 1.524 . S
C3479 C3480 1.397 . S
C3479 C3484 1.363 1_455 S
C3480 H3457 0.950 . S
C3480 C3479 1.397 . S
C3480 C3481 1.334 . S
C3481 H3458 0.950 . S
C3481 C3480 1.334 . S
C3481 C3482 1.287 . S
C3482 C3481 1.287 . S
C3482 C3483 1.524 1_455 S
C3482 H3501 0.913 . S
C3483 H3459 0.950 . S
C3483 C3482 1.524 1_655 S
C3483 C3484 1.415 . S
C3484 H3460 0.950 . S
C3484 C3479 1.363 1_655 S
C3484 C3483 1.415 . S
C3485 H3461 0.951 . S
C3485 C3486 1.366 . S
C3485 C3487 1.388 . S
C3486 C3485 1.366 . S
C3486 C3490 1.385 1_455 S
C3487 H3462 0.951 . S
C3487 C3485 1.388 . S
C3487 C3488 1.366 . S
C3488 C3487 1.366 . S
C3488 C3489 1.414 1_455 S
C3488 C3491 1.499 . S
C3489 H3463 0.950 . S
C3489 C3488 1.414 1_655 S
C3489 C3490 1.374 . S
C3490 H3464 0.950 . S
C3490 C3486 1.385 1_655 S
C3490 C3489 1.374 . S
C3491 C3488 1.499 . S
C3491 C3492 1.373 1_554 S
C3491 C3493 1.389 . S
C3492 H3465 0.950 . S
C3492 C3478 1.377 . S
C3492 C3491 1.373 1_556 S
C3493 C3477 1.377 . S
C3493 C3491 1.389 . S
C3493 C3494 1.524 . S
C3494 C3493 1.524 . S
C3494 C3495 1.397 1_455 S
C3494 C3499 1.363 . S
C3495 H3466 0.950 . S
C3495 C3494 1.397 1_655 S
C3495 C3496 1.334 . S
C3496 H3467 0.950 . S
C3496 C3495 1.334 . S
C3496 C3497 1.287 1_655 S
C3497 C3496 1.287 1_455 S
C3497 C3498 1.524 . S
C3497 H3500 0.999 . S
C3498 H3468 0.950 . S
C3498 C3497 1.524 . S
C3498 C3499 1.415 . S
C3499 H3469 0.950 . S
C3499 C3494 1.363 . S
C3499 C3498 1.415 . S
H3500 C3497 0.999 . S
H3501 C3482 0.913 . S
H3502 C3520 0.951 . S
H3503 C3522 0.951 . S
H3504 C3524 0.950 . S
H3505 C3525 0.950 . S
H3506 C3527 0.950 . S
H3507 C3530 0.950 . S
H3508 C3531 0.950 . S
H3509 C3533 0.950 . S
H3510 C3534 0.950 . S
H3511 C3535 0.951 . S
H3512 C3537 0.951 . S
H3513 C3539 0.950 . S
H3514 C3540 0.950 . S
H3515 C3542 0.950 . S
H3516 C3545 0.950 . S
H3517 C3546 0.950 . S
H3518 C3548 0.950 . S
H3519 C3549 0.950 . S
C3520 H3502 0.951 . S
C3520 C3521 1.374 . S
C3520 C3522 1.388 . S
C3521 C3520 1.374 . S
C3521 C3525 1.383 1_655 S
C3522 H3503 0.951 . S
C3522 C3520 1.388 . S
C3522 C3523 1.366 . S
C3523 C3522 1.366 . S
C3523 C3524 1.414 . S
C3523 C3526 1.499 . S
C3524 H3504 0.950 . S
C3524 C3523 1.414 . S
C3524 C3525 1.374 1_655 S
C3525 H3505 0.950 . S
C3525 C3521 1.383 1_455 S
C3525 C3524 1.374 1_455 S
C3526 C3523 1.499 . S
C3526 C3527 1.373 . S
C3526 C3528 1.389 . S
C3527 H3506 0.950 . S
C3527 C3526 1.373 . S
C3527 C3543 1.377 . S
C3528 C3526 1.389 . S
C3528 C3529 1.524 . S
C3528 C3542 1.377 . S
C3529 C3528 1.524 . S
C3529 C3530 1.397 . S
C3529 C3534 1.363 . S
C3530 H3507 0.950 . S
C3530 C3529 1.397 . S
C3530 C3531 1.334 . S
C3531 H3508 0.950 . S
C3531 C3530 1.334 . S
C3531 C3532 1.287 . S
C3532 C3531 1.287 . S
C3532 C3533 1.524 . S
C3532 H3551 0.913 . S
C3533 H3509 0.950 . S
C3533 C3532 1.524 . S
C3533 C3534 1.415 . S
C3534 H3510 0.950 . S
C3534 C3529 1.363 . S
C3534 C3533 1.415 . S
C3535 H3511 0.951 . S
C3535 C3536 1.366 . S
C3535 C3537 1.388 . S
C3536 C3535 1.366 . S
C3536 C3540 1.385 . S
C3537 H3512 0.951 . S
C3537 C3535 1.388 . S
C3537 C3538 1.366 . S
C3538 C3537 1.366 . S
C3538 C3539 1.414 . S
C3538 C3541 1.499 . S
C3539 H3513 0.950 . S
C3539 C3538 1.414 . S
C3539 C3540 1.374 . S
C3540 H3514 0.950 . S
C3540 C3536 1.385 . S
C3540 C3539 1.374 . S
C3541 C3538 1.499 . S
C3541 C3542 1.373 . S
C3541 C3543 1.389 . S
C3542 H3515 0.950 . S
C3542 C3528 1.377 . S
C3542 C3541 1.373 . S
C3543 C3527 1.377 . S
C3543 C3541 1.389 . S
C3543 C3544 1.524 . S
C3544 C3543 1.524 . S
C3544 C3545 1.397 . S
C3544 C3549 1.363 . S
C3545 H3516 0.950 . S
C3545 C3544 1.397 . S
C3545 C3546 1.334 . S
C3546 H3517 0.950 . S
C3546 C3545 1.334 . S
C3546 C3547 1.287 . S
C3547 C3546 1.287 . S
C3547 C3548 1.524 . S
C3547 H3550 0.999 . S
C3548 H3518 0.950 . S
C3548 C3547 1.524 . S
C3548 C3549 1.415 . S
C3549 H3519 0.950 . S
C3549 C3544 1.363 . S
C3549 C3548 1.415 . S
H3550 C3547 0.999 . S
H3551 C3532 0.913 . S
H3552 C3570 0.951 . S
H3553 C3572 0.951 . S
H3554 C3574 0.950 . S
H3555 C3575 0.950 . S
H3556 C3577 0.950 . S
H3557 C3580 0.950 . S
H3558 C3581 0.950 . S
H3559 C3583 0.950 . S
H3560 C3584 0.950 . S
H3561 C3585 0.951 . S
H3562 C3587 0.951 . S
H3563 C3589 0.950 . S
H3564 C3590 0.950 . S
H3565 C3592 0.950 . S
H3566 C3595 0.950 . S
H3567 C3596 0.950 . S
H3568 C3598 0.950 . S
H3569 C3599 0.950 . S
C3570 H3552 0.951 . S
C3570 C3571 1.366 . S
C3570 C3572 1.388 . S
C3571 C3570 1.366 . S
C3571 C3575 1.385 . S
C3572 H3553 0.951 . S
C3572 C3570 1.388 . S
C3572 C3573 1.366 . S
C3573 C3572 1.366 . S
C3573 C3574 1.414 . S
C3573 C3576 1.499 . S
C3574 H3554 0.950 . S
C3574 C3573 1.414 . S
C3574 C3575 1.374 . S
C3575 H3555 0.950 . S
C3575 C3571 1.385 . S
C3575 C3574 1.374 . S
C3576 C3573 1.499 . S
C3576 C3577 1.373 . S
C3576 C3578 1.389 . S
C3577 H3556 0.950 . S
C3577 C3576 1.373 . S
C3577 C3593 1.377 . S
C3578 C3576 1.389 . S
C3578 C3579 1.524 . S
C3578 C3592 1.377 . S
C3579 C3578 1.524 . S
C3579 C3580 1.397 . S
C3579 C3584 1.363 . S
C3580 H3557 0.950 . S
C3580 C3579 1.397 . S
C3580 C3581 1.334 . S
C3581 H3558 0.950 . S
C3581 C3580 1.334 . S
C3581 C3582 1.287 . S
C3582 C3581 1.287 . S
C3582 C3583 1.524 . S
C3582 H3601 0.913 . S
C3583 H3559 0.950 . S
C3583 C3582 1.524 . S
C3583 C3584 1.415 . S
C3584 H3560 0.950 . S
C3584 C3579 1.363 . S
C3584 C3583 1.415 . S
C3585 H3561 0.951 . S
C3585 C3586 1.366 . S
C3585 C3587 1.388 . S
C3586 C3585 1.366 . S
C3586 C3590 1.385 . S
C3587 H3562 0.951 . S
C3587 C3585 1.388 . S
C3587 C3588 1.366 . S
C3588 C3587 1.366 . S
C3588 C3589 1.414 . S
C3588 C3591 1.499 . S
C3589 H3563 0.950 . S
C3589 C3588 1.414 . S
C3589 C3590 1.374 . S
C3590 H3564 0.950 . S
C3590 C3586 1.385 . S
C3590 C3589 1.374 . S
C3591 C3588 1.499 . S
C3591 C3592 1.373 . S
C3591 C3593 1.389 . S
C3592 H3565 0.950 . S
C3592 C3578 1.377 . S
C3592 C3591 1.373 . S
C3593 C3577 1.377 . S
C3593 C3591 1.389 . S
C3593 C3594 1.524 . S
C3594 C3593 1.524 . S
C3594 C3595 1.397 . S
C3594 C3599 1.363 . S
C3595 H3566 0.950 . S
C3595 C3594 1.397 . S
C3595 C3596 1.334 . S
C3596 H3567 0.950 . S
C3596 C3595 1.334 . S
C3596 C3597 1.287 . S
C3597 C3596 1.287 . S
C3597 C3598 1.524 . S
C3597 H3600 0.999 . S
C3598 H3568 0.950 . S
C3598 C3597 1.524 . S
C3598 C3599 1.415 . S
C3599 H3569 0.950 . S
C3599 C3594 1.363 . S
C3599 C3598 1.415 . S
H3600 C3597 0.999 . S
H3601 C3582 0.913 . S
H3602 C3620 0.951 . S
H3603 C3622 0.951 . S
H3604 C3624 0.950 . S
H3605 C3625 0.950 . S
H3606 C3627 0.950 . S
H3607 C3630 0.950 . S
H3608 C3631 0.950 . S
H3609 C3633 0.950 . S
H3610 C3634 0.950 . S
H3611 C3635 0.951 . S
H3612 C3637 0.951 . S
H3613 C3639 0.950 . S
H3614 C3640 0.950 . S
H3615 C3642 0.950 . S
H3616 C3645 0.950 . S
H3617 C3646 0.950 . S
H3618 C3648 0.950 . S
H3619 C3649 0.950 . S
C3620 H3602 0.951 . S
C3620 C3621 1.366 . S
C3620 C3622 1.388 . S
C3621 C3620 1.366 . S
C3621 C3625 1.385 . S
C3622 H3603 0.951 . S
C3622 C3620 1.388 . S
C3622 C3623 1.366 . S
C3623 C3622 1.366 . S
C3623 C3624 1.414 . S
C3623 C3626 1.499 . S
C3624 H3604 0.950 . S
C3624 C3623 1.414 . S
C3624 C3625 1.374 . S
C3625 H3605 0.950 . S
C3625 C3621 1.385 . S
C3625 C3624 1.374 . S
C3626 C3623 1.499 . S
C3626 C3627 1.373 . S
C3626 C3628 1.389 . S
C3627 H3606 0.950 . S
C3627 C3626 1.373 . S
C3627 C3643 1.377 . S
C3628 C3626 1.389 . S
C3628 C3629 1.524 . S
C3628 C3642 1.377 . S
C3629 C3628 1.524 . S
C3629 C3630 1.397 . S
C3629 C3634 1.363 . S
C3630 H3607 0.950 . S
C3630 C3629 1.397 . S
C3630 C3631 1.334 . S
C3631 H3608 0.950 . S
C3631 C3630 1.334 . S
C3631 C3632 1.287 . S
C3632 C3631 1.287 . S
C3632 C3633 1.524 . S
C3632 H3651 0.913 . S
C3633 H3609 0.950 . S
C3633 C3632 1.524 . S
C3633 C3634 1.415 . S
C3634 H3610 0.950 . S
C3634 C3629 1.363 . S
C3634 C3633 1.415 . S
C3635 H3611 0.951 . S
C3635 C3636 1.366 . S
C3635 C3637 1.388 . S
C3636 C3635 1.366 . S
C3636 C3640 1.385 . S
C3637 H3612 0.951 . S
C3637 C3635 1.388 . S
C3637 C3638 1.366 . S
C3638 C3637 1.366 . S
C3638 C3639 1.414 . S
C3638 C3641 1.499 . S
C3639 H3613 0.950 . S
C3639 C3638 1.414 . S
C3639 C3640 1.374 . S
C3640 H3614 0.950 . S
C3640 C3636 1.385 . S
C3640 C3639 1.374 . S
C3641 C3638 1.499 . S
C3641 C3642 1.373 . S
C3641 C3643 1.389 . S
C3642 H3615 0.950 . S
C3642 C3628 1.377 . S
C3642 C3641 1.373 . S
C3643 C3627 1.377 . S
C3643 C3641 1.389 . S
C3643 C3644 1.524 . S
C3644 C3643 1.524 . S
C3644 C3645 1.397 . S
C3644 C3649 1.363 . S
C3645 H3616 0.950 . S
C3645 C3644 1.397 . S
C3645 C3646 1.334 . S
C3646 H3617 0.950 . S
C3646 C3645 1.334 . S
C3646 C3647 1.287 . S
C3647 C3646 1.287 . S
C3647 C3648 1.524 . S
C3647 H3650 0.999 . S
C3648 H3618 0.950 . S
C3648 C3647 1.524 . S
C3648 C3649 1.415 . S
C3649 H3619 0.950 . S
C3649 C3644 1.363 . S
C3649 C3648 1.415 . S
H3650 C3647 0.999 . S
H3651 C3632 0.913 . S
H3652 C3670 0.951 . S
H3653 C3672 0.951 . S
H3654 C3674 0.950 . S
H3655 C3675 0.950 . S
H3656 C3677 0.950 . S
H3657 C3680 0.950 . S
H3658 C3681 0.950 . S
H3659 C3683 0.950 . S
H3660 C3684 0.950 . S
H3661 C3685 0.951 . S
H3662 C3687 0.951 . S
H3663 C3689 0.950 . S
H3664 C3690 0.950 . S
H3665 C3692 0.950 . S
H3666 C3695 0.950 . S
H3667 C3696 0.950 . S
H3668 C3698 0.950 . S
H3669 C3699 0.950 . S
C3670 H3652 0.951 . S
C3670 C3671 1.366 1_655 S
C3670 C3672 1.388 . S
C3671 C3670 1.366 1_455 S
C3671 C3675 1.385 . S
C3672 H3653 0.951 . S
C3672 C3670 1.388 . S
C3672 C3673 1.366 1_655 S
C3673 C3672 1.366 1_455 S
C3673 C3674 1.414 . S
C3673 C3676 1.499 . S
C3674 H3654 0.950 . S
C3674 C3673 1.414 . S
C3674 C3675 1.374 . S
C3675 H3655 0.950 . S
C3675 C3671 1.385 . S
C3675 C3674 1.374 . S
C3676 C3673 1.499 . S
C3676 C3677 1.373 . S
C3676 C3678 1.389 1_455 S
C3677 H3656 0.950 . S
C3677 C3676 1.373 . S
C3677 C3693 1.377 . S
C3678 C3676 1.389 1_655 S
C3678 C3679 1.524 . S
C3678 C3692 1.377 . S
C3679 C3678 1.524 . S
C3679 C3680 1.397 . S
C3679 C3684 1.363 . S
C3680 H3657 0.950 . S
C3680 C3679 1.397 . S
C3680 C3681 1.334 . S
C3681 H3658 0.950 . S
C3681 C3680 1.334 . S
C3681 C3682 1.287 . S
C3682 C3681 1.287 . S
C3682 C3683 1.524 . S
C3682 H3701 0.913 . S
C3683 H3659 0.950 . S
C3683 C3682 1.524 . S
C3683 C3684 1.415 . S
C3684 H3660 0.950 . S
C3684 C3679 1.363 . S
C3684 C3683 1.415 . S
C3685 H3661 0.951 . S
C3685 C3686 1.366 . S
C3685 C3687 1.388 . S
C3686 C3685 1.366 . S
C3686 C3690 1.385 1_455 S
C3687 H3662 0.951 . S
C3687 C3685 1.388 . S
C3687 C3688 1.366 . S
C3688 C3687 1.366 . S
C3688 C3689 1.414 1_455 S
C3688 C3691 1.499 . S
C3689 H3663 0.950 . S
C3689 C3688 1.414 1_655 S
C3689 C3690 1.374 . S
C3690 H3664 0.950 . S
C3690 C3686 1.385 1_655 S
C3690 C3689 1.374 . S
C3691 C3688 1.499 . S
C3691 C3692 1.373 1_455 S
C3691 C3693 1.389 . S
C3692 H3665 0.950 . S
C3692 C3678 1.377 . S
C3692 C3691 1.373 1_655 S
C3693 C3677 1.377 . S
C3693 C3691 1.389 . S
C3693 C3694 1.524 . S
C3694 C3693 1.524 . S
C3694 C3695 1.397 . S
C3694 C3699 1.363 . S
C3695 H3666 0.950 . S
C3695 C3694 1.397 . S
C3695 C3696 1.334 . S
C3696 H3667 0.950 . S
C3696 C3695 1.334 . S
C3696 C3697 1.287 . S
C3697 C3696 1.287 . S
C3697 C3698 1.524 . S
C3697 H3700 0.999 . S
C3698 H3668 0.950 . S
C3698 C3697 1.524 . S
C3698 C3699 1.415 . S
C3699 H3669 0.950 . S
C3699 C3694 1.363 . S
C3699 C3698 1.415 . S
H3700 C3697 0.999 . S
H3701 C3682 0.913 . S
H3702 C3720 0.951 . S
H3703 C3722 0.951 . S
H3704 C3724 0.950 . S
H3705 C3725 0.950 . S
H3706 C3727 0.950 . S
H3707 C3730 0.950 . S
H3708 C3731 0.950 . S
H3709 C3733 0.950 . S
H3710 C3734 0.950 . S
H3711 C3735 0.951 . S
H3712 C3737 0.951 . S
H3713 C3739 0.950 . S
H3714 C3740 0.950 . S
H3715 C3742 0.950 . S
H3716 C3745 0.950 . S
H3717 C3746 0.950 . S
H3718 C3748 0.950 . S
H3719 C3749 0.950 . S
C3720 H3702 0.951 . S
C3720 C3721 1.366 . S
C3720 C3722 1.388 . S
C3721 C3720 1.366 . S
C3721 C3725 1.385 . S
C3722 H3703 0.951 . S
C3722 C3720 1.388 . S
C3722 C3723 1.366 . S
C3723 C3722 1.366 . S
C3723 C3724 1.414 . S
C3723 C3726 1.499 . S
C3724 H3704 0.950 . S
C3724 C3723 1.414 . S
C3724 C3725 1.374 . S
C3725 H3705 0.950 . S
C3725 C3721 1.385 . S
C3725 C3724 1.374 . S
C3726 C3723 1.499 . S
C3726 C3727 1.373 . S
C3726 C3728 1.389 . S
C3727 H3706 0.950 . S
C3727 C3726 1.373 . S
C3727 C3743 1.377 . S
C3728 C3726 1.389 . S
C3728 C3729 1.524 . S
C3728 C3742 1.377 . S
C3729 C3728 1.524 . S
C3729 C3730 1.397 . S
C3729 C3734 1.363 . S
C3730 H3707 0.950 . S
C3730 C3729 1.397 . S
C3730 C3731 1.334 . S
C3731 H3708 0.950 . S
C3731 C3730 1.334 . S
C3731 C3732 1.287 . S
C3732 C3731 1.287 . S
C3732 C3733 1.524 . S
C3732 H3751 0.913 . S
C3733 H3709 0.950 . S
C3733 C3732 1.524 . S
C3733 C3734 1.415 . S
C3734 H3710 0.950 . S
C3734 C3729 1.363 . S
C3734 C3733 1.415 . S
C3735 H3711 0.951 . S
C3735 C3736 1.366 . S
C3735 C3737 1.388 . S
C3736 C3735 1.366 . S
C3736 C3740 1.385 . S
C3737 H3712 0.951 . S
C3737 C3735 1.388 . S
C3737 C3738 1.366 . S
C3738 C3737 1.366 . S
C3738 C3739 1.414 . S
C3738 C3741 1.499 . S
C3739 H3713 0.950 . S
C3739 C3738 1.414 . S
C3739 C3740 1.374 . S
C3740 H3714 0.950 . S
C3740 C3736 1.385 . S
C3740 C3739 1.374 . S
C3741 C3738 1.499 . S
C3741 C3742 1.373 . S
C3741 C3743 1.389 . S
C3742 H3715 0.950 . S
C3742 C3728 1.377 . S
C3742 C3741 1.373 . S
C3743 C3727 1.377 . S
C3743 C3741 1.389 . S
C3743 C3744 1.524 . S
C3744 C3743 1.524 . S
C3744 C3745 1.397 . S
C3744 C3749 1.363 . S
C3745 H3716 0.950 . S
C3745 C3744 1.397 . S
C3745 C3746 1.334 . S
C3746 H3717 0.950 . S
C3746 C3745 1.334 . S
C3746 C3747 1.287 . S
C3747 C3746 1.287 . S
C3747 C3748 1.524 . S
C3747 H3750 0.999 . S
C3748 H3718 0.950 . S
C3748 C3747 1.524 . S
C3748 C3749 1.415 . S
C3749 H3719 0.950 . S
C3749 C3744 1.363 . S
C3749 C3748 1.415 . S
H3750 C3747 0.999 . S
H3751 C3732 0.913 . S
H3752 C3770 0.951 . S
H3753 C3772 0.951 . S
H3754 C3774 0.950 . S
H3755 C3775 0.950 . S
H3756 C3777 0.950 . S
H3757 C3780 0.950 . S
H3758 C3781 0.950 . S
H3759 C3783 0.950 . S
H3760 C3784 0.950 . S
H3761 C3785 0.951 . S
H3762 C3787 0.951 . S
H3763 C3789 0.950 . S
H3764 C3790 0.950 . S
H3765 C3792 0.950 . S
H3766 C3795 0.950 . S
H3767 C3796 0.950 . S
H3768 C3798 0.950 . S
H3769 C3799 0.950 . S
C3770 H3752 0.951 . S
C3770 C3771 1.366 . S
C3770 C3772 1.388 . S
C3771 C3770 1.366 . S
C3771 C3775 1.385 . S
C3772 H3753 0.951 . S
C3772 C3770 1.388 . S
C3772 C3773 1.366 . S
C3773 C3772 1.366 . S
C3773 C3774 1.414 . S
C3773 C3776 1.499 . S
C3774 H3754 0.950 . S
C3774 C3773 1.414 . S
C3774 C3775 1.374 . S
C3775 H3755 0.950 . S
C3775 C3771 1.385 . S
C3775 C3774 1.374 . S
C3776 C3773 1.499 . S
C3776 C3777 1.373 . S
C3776 C3778 1.389 . S
C3777 H3756 0.950 . S
C3777 C3776 1.373 . S
C3777 C3793 1.377 . S
C3778 C3776 1.389 . S
C3778 C3779 1.524 . S
C3778 C3792 1.377 . S
C3779 C3778 1.524 . S
C3779 C3780 1.397 . S
C3779 C3784 1.363 . S
C3780 H3757 0.950 . S
C3780 C3779 1.397 . S
C3780 C3781 1.334 . S
C3781 H3758 0.950 . S
C3781 C3780 1.334 . S
C3781 C3782 1.287 . S
C3782 C3781 1.287 . S
C3782 C3783 1.524 . S
C3782 H3801 0.913 . S
C3783 H3759 0.950 . S
C3783 C3782 1.524 . S
C3783 C3784 1.415 . S
C3784 H3760 0.950 . S
C3784 C3779 1.363 . S
C3784 C3783 1.415 . S
C3785 H3761 0.951 . S
C3785 C3786 1.366 . S
C3785 C3787 1.388 . S
C3786 C3785 1.366 . S
C3786 C3790 1.385 . S
C3787 H3762 0.951 . S
C3787 C3785 1.388 . S
C3787 C3788 1.366 . S
C3788 C3787 1.366 . S
C3788 C3789 1.414 . S
C3788 C3791 1.499 . S
C3789 H3763 0.950 . S
C3789 C3788 1.414 . S
C3789 C3790 1.374 . S
C3790 H3764 0.950 . S
C3790 C3786 1.385 . S
C3790 C3789 1.374 . S
C3791 C3788 1.499 . S
C3791 C3792 1.373 . S
C3791 C3793 1.389 . S
C3792 H3765 0.950 . S
C3792 C3778 1.377 . S
C3792 C3791 1.373 . S
C3793 C3777 1.377 . S
C3793 C3791 1.389 . S
C3793 C3794 1.524 . S
C3794 C3793 1.524 . S
C3794 C3795 1.397 . S
C3794 C3799 1.363 . S
C3795 H3766 0.950 . S
C3795 C3794 1.397 . S
C3795 C3796 1.334 . S
C3796 H3767 0.950 . S
C3796 C3795 1.334 . S
C3796 C3797 1.287 . S
C3797 C3796 1.287 . S
C3797 C3798 1.524 . S
C3797 H3800 0.999 . S
C3798 H3768 0.950 . S
C3798 C3797 1.524 . S
C3798 C3799 1.415 . S
C3799 H3769 0.950 . S
C3799 C3794 1.363 . S
C3799 C3798 1.415 . S
H3800 C3797 0.999 . S
H3801 C3782 0.913 . S
H3802 C3820 0.951 . S
H3803 C3822 0.951 . S
H3804 C3824 0.951 1_554 S
H3805 C3825 0.950 . S
H3806 C3827 0.950 . S
H3807 C3830 0.950 . S
H3808 C3831 0.950 . S
H3809 C3833 0.950 . S
H3810 C3834 0.950 . S
H3811 C3835 0.951 . S
H3812 C3837 0.951 . S
H3813 C3839 0.950 . S
H3814 C3840 0.950 . S
H3815 C3842 0.950 . S
H3816 C3845 0.950 . S
H3817 C3846 0.950 . S
H3818 C3848 0.950 1_554 S
H3819 C3849 0.950 . S
C3820 H3802 0.951 . S
C3820 C3821 1.366 1_556 S
C3820 C3822 1.388 . S
C3821 C3820 1.366 1_554 S
C3821 C3825 1.385 . S
C3822 H3803 0.951 . S
C3822 C3820 1.388 . S
C3822 C3823 1.366 . S
C3823 C3822 1.366 . S
C3823 C3824 1.410 . S
C3823 C3826 1.499 . S
C3824 H3804 0.951 1_556 S
C3824 C3823 1.410 . S
C3824 C3825 1.377 1_556 S
C3825 H3805 0.950 . S
C3825 C3821 1.385 . S
C3825 C3824 1.377 1_554 S
C3826 C3823 1.499 . S
C3826 C3827 1.373 . S
C3826 C3828 1.389 . S
C3827 H3806 0.950 . S
C3827 C3826 1.373 . S
C3827 C3843 1.377 . S
C3828 C3826 1.389 . S
C3828 C3829 1.524 . S
C3828 C3842 1.377 . S
C3829 C3828 1.524 . S
C3829 C3830 1.397 . S
C3829 C3834 1.363 . S
C3830 H3807 0.950 . S
C3830 C3829 1.397 . S
C3830 C3831 1.334 . S
C3831 H3808 0.950 . S
C3831 C3830 1.334 . S
C3831 C3832 1.287 . S
C3832 C3831 1.287 . S
C3832 C3833 1.524 . S
C3832 H3851 0.913 . S
C3833 H3809 0.950 . S
C3833 C3832 1.524 . S
C3833 C3834 1.415 . S
C3834 H3810 0.950 . S
C3834 C3829 1.363 . S
C3834 C3833 1.415 . S
C3835 H3811 0.951 . S
C3835 C3836 1.366 . S
C3835 C3837 1.388 . S
C3836 C3835 1.366 . S
C3836 C3840 1.385 . S
C3837 H3812 0.951 . S
C3837 C3835 1.388 . S
C3837 C3838 1.366 . S
C3838 C3837 1.366 . S
C3838 C3839 1.414 . S
C3838 C3841 1.499 . S
C3839 H3813 0.950 . S
C3839 C3838 1.414 . S
C3839 C3840 1.374 . S
C3840 H3814 0.950 . S
C3840 C3836 1.385 . S
C3840 C3839 1.374 . S
C3841 C3838 1.499 . S
C3841 C3842 1.373 . S
C3841 C3843 1.389 . S
C3842 H3815 0.950 . S
C3842 C3828 1.377 . S
C3842 C3841 1.373 . S
C3843 C3827 1.377 . S
C3843 C3841 1.389 . S
C3843 C3844 1.524 . S
C3844 C3843 1.524 . S
C3844 C3845 1.397 . S
C3844 C3849 1.363 . S
C3845 H3816 0.950 . S
C3845 C3844 1.397 . S
C3845 C3846 1.334 . S
C3846 H3817 0.950 . S
C3846 C3845 1.334 . S
C3846 C3847 1.287 . S
C3847 C3846 1.287 . S
C3847 C3848 1.524 . S
C3847 H3850 0.999 . S
C3848 H3818 0.950 1_556 S
C3848 C3847 1.524 . S
C3848 C3849 1.415 . S
C3849 H3819 0.950 . S
C3849 C3844 1.363 . S
C3849 C3848 1.415 . S
H3850 C3847 0.999 . S
H3851 C3832 0.913 . S
H3852 C3870 0.951 . S
H3853 C3872 0.951 . S
H3854 C3874 0.950 . S
H3855 C3875 0.950 . S
H3856 C3877 0.950 . S
H3857 C3880 0.950 . S
H3858 C3881 0.950 . S
H3859 C3883 0.950 . S
H3860 C3884 0.950 . S
H3861 C3885 0.951 . S
H3862 C3887 0.951 . S
H3863 C3889 0.950 . S
H3864 C3890 0.950 . S
H3865 C3892 0.950 . S
H3866 C3895 0.950 . S
H3867 C3896 0.950 . S
H3868 C3898 0.950 . S
H3869 C3899 0.950 . S
C3870 H3852 0.951 . S
C3870 C3871 1.366 . S
C3870 C3872 1.388 . S
C3871 C3870 1.366 . S
C3871 C3875 1.385 . S
C3872 H3853 0.951 . S
C3872 C3870 1.388 . S
C3872 C3873 1.366 . S
C3873 C3872 1.366 . S
C3873 C3874 1.414 . S
C3873 C3876 1.499 . S
C3874 H3854 0.950 . S
C3874 C3873 1.414 . S
C3874 C3875 1.374 . S
C3875 H3855 0.950 . S
C3875 C3871 1.385 . S
C3875 C3874 1.374 . S
C3876 C3873 1.499 . S
C3876 C3877 1.373 . S
C3876 C3878 1.389 . S
C3877 H3856 0.950 . S
C3877 C3876 1.373 . S
C3877 C3893 1.377 . S
C3878 C3876 1.389 . S
C3878 C3879 1.524 . S
C3878 C3892 1.377 . S
C3879 C3878 1.524 . S
C3879 C3880 1.397 . S
C3879 C3884 1.363 . S
C3880 H3857 0.950 . S
C3880 C3879 1.397 . S
C3880 C3881 1.334 . S
C3881 H3858 0.950 . S
C3881 C3880 1.334 . S
C3881 C3882 1.287 . S
C3882 C3881 1.287 . S
C3882 C3883 1.524 . S
C3882 H3901 0.913 . S
C3883 H3859 0.950 . S
C3883 C3882 1.524 . S
C3883 C3884 1.415 . S
C3884 H3860 0.950 . S
C3884 C3879 1.363 . S
C3884 C3883 1.415 . S
C3885 H3861 0.951 . S
C3885 C3886 1.366 . S
C3885 C3887 1.388 . S
C3886 C3885 1.366 . S
C3886 C3890 1.385 . S
C3887 H3862 0.951 . S
C3887 C3885 1.388 . S
C3887 C3888 1.366 . S
C3888 C3887 1.366 . S
C3888 C3889 1.414 . S
C3888 C3891 1.499 . S
C3889 H3863 0.950 . S
C3889 C3888 1.414 . S
C3889 C3890 1.374 . S
C3890 H3864 0.950 . S
C3890 C3886 1.385 . S
C3890 C3889 1.374 . S
C3891 C3888 1.499 . S
C3891 C3892 1.373 . S
C3891 C3893 1.389 . S
C3892 H3865 0.950 . S
C3892 C3878 1.377 . S
C3892 C3891 1.373 . S
C3893 C3877 1.377 . S
C3893 C3891 1.389 . S
C3893 C3894 1.524 . S
C3894 C3893 1.524 . S
C3894 C3895 1.397 . S
C3894 C3899 1.363 . S
C3895 H3866 0.950 . S
C3895 C3894 1.397 . S
C3895 C3896 1.334 . S
C3896 H3867 0.950 . S
C3896 C3895 1.334 . S
C3896 C3897 1.287 . S
C3897 C3896 1.287 . S
C3897 C3898 1.524 . S
C3897 H3900 0.999 . S
C3898 H3868 0.950 . S
C3898 C3897 1.524 . S
C3898 C3899 1.415 . S
C3899 H3869 0.950 . S
C3899 C3894 1.363 . S
C3899 C3898 1.415 . S
H3900 C3897 0.999 . S
H3901 C3882 0.913 . S
H3902 C3920 0.951 . S
H3903 C3922 0.951 . S
H3904 C3924 0.950 . S
H3905 C3925 0.950 . S
H3906 C3927 0.950 . S
H3907 C3930 0.950 . S
H3908 C3931 0.950 . S
H3909 C3933 0.950 . S
H3910 C3934 0.950 . S
H3911 C3935 0.951 . S
H3912 C3937 0.951 . S
H3913 C3939 0.950 . S
H3914 C3940 0.950 . S
H3915 C3942 0.950 . S
H3916 C3945 0.950 . S
H3917 C3946 0.950 . S
H3918 C3948 0.950 . S
H3919 C3949 0.950 . S
C3920 H3902 0.951 . S
C3920 C3921 1.366 . S
C3920 C3922 1.388 . S
C3921 C3920 1.366 . S
C3921 C3925 1.385 . S
C3922 H3903 0.951 . S
C3922 C3920 1.388 . S
C3922 C3923 1.366 . S
C3923 C3922 1.366 . S
C3923 C3924 1.414 . S
C3923 C3926 1.499 . S
C3924 H3904 0.950 . S
C3924 C3923 1.414 . S
C3924 C3925 1.374 . S
C3925 H3905 0.950 . S
C3925 C3921 1.385 . S
C3925 C3924 1.374 . S
C3926 C3923 1.499 . S
C3926 C3927 1.373 . S
C3926 C3928 1.389 . S
C3927 H3906 0.950 . S
C3927 C3926 1.373 . S
C3927 C3943 1.377 . S
C3928 C3926 1.389 . S
C3928 C3929 1.524 . S
C3928 C3942 1.377 . S
C3929 C3928 1.524 . S
C3929 C3930 1.397 . S
C3929 C3934 1.363 . S
C3930 H3907 0.950 . S
C3930 C3929 1.397 . S
C3930 C3931 1.334 . S
C3931 H3908 0.950 . S
C3931 C3930 1.334 . S
C3931 C3932 1.287 . S
C3932 C3931 1.287 . S
C3932 C3933 1.524 . S
C3932 H3951 0.913 . S
C3933 H3909 0.950 . S
C3933 C3932 1.524 . S
C3933 C3934 1.415 . S
C3934 H3910 0.950 . S
C3934 C3929 1.363 . S
C3934 C3933 1.415 . S
C3935 H3911 0.951 . S
C3935 C3936 1.366 . S
C3935 C3937 1.388 . S
C3936 C3935 1.366 . S
C3936 C3940 1.385 . S
C3937 H3912 0.951 . S
C3937 C3935 1.388 . S
C3937 C3938 1.366 . S
C3938 C3937 1.366 . S
C3938 C3939 1.414 . S
C3938 C3941 1.499 . S
C3939 H3913 0.950 . S
C3939 C3938 1.414 . S
C3939 C3940 1.374 . S
C3940 H3914 0.950 . S
C3940 C3936 1.385 . S
C3940 C3939 1.374 . S
C3941 C3938 1.499 . S
C3941 C3942 1.373 . S
C3941 C3943 1.389 . S
C3942 H3915 0.950 . S
C3942 C3928 1.377 . S
C3942 C3941 1.373 . S
C3943 C3927 1.377 . S
C3943 C3941 1.389 . S
C3943 C3944 1.524 . S
C3944 C3943 1.524 . S
C3944 C3945 1.397 . S
C3944 C3949 1.363 . S
C3945 H3916 0.950 . S
C3945 C3944 1.397 . S
C3945 C3946 1.334 . S
C3946 H3917 0.950 . S
C3946 C3945 1.334 . S
C3946 C3947 1.287 . S
C3947 C3946 1.287 . S
C3947 C3948 1.524 . S
C3947 H3950 0.999 . S
C3948 H3918 0.950 . S
C3948 C3947 1.524 . S
C3948 C3949 1.415 . S
C3949 H3919 0.950 . S
C3949 C3944 1.363 . S
C3949 C3948 1.415 . S
H3950 C3947 0.999 . S
H3951 C3932 0.913 . S
H3952 C3970 0.951 . S
H3953 C3972 0.951 . S
H3954 C3974 0.950 . S
H3955 C3975 0.950 . S
H3956 C3977 0.950 . S
H3957 C3980 0.950 . S
H3958 C3981 0.950 . S
H3959 C3983 0.950 . S
H3960 C3984 0.950 . S
H3961 C3985 0.951 . S
H3962 C3987 0.951 . S
H3963 C3989 0.950 . S
H3964 C3990 0.950 . S
H3965 C3992 0.950 . S
H3966 C3995 0.950 . S
H3967 C3996 0.950 . S
H3968 C3998 0.950 . S
H3969 C3999 0.950 . S
C3970 H3952 0.951 . S
C3970 C3971 1.366 . S
C3970 C3972 1.388 . S
C3971 C3970 1.366 . S
C3971 C3975 1.385 . S
C3972 H3953 0.951 . S
C3972 C3970 1.388 . S
C3972 C3973 1.366 . S
C3973 C3972 1.366 . S
C3973 C3974 1.414 . S
C3973 C3976 1.499 . S
C3974 H3954 0.950 . S
C3974 C3973 1.414 . S
C3974 C3975 1.374 . S
C3975 H3955 0.950 . S
C3975 C3971 1.385 . S
C3975 C3974 1.374 . S
C3976 C3973 1.499 . S
C3976 C3977 1.373 . S
C3976 C3978 1.389 . S
C3977 H3956 0.950 . S
C3977 C3976 1.373 . S
C3977 C3993 1.377 . S
C3978 C3976 1.389 . S
C3978 C3979 1.524 . S
C3978 C3992 1.377 . S
C3979 C3978 1.524 . S
C3979 C3980 1.397 . S
C3979 C3984 1.363 . S
C3980 H3957 0.950 . S
C3980 C3979 1.397 . S
C3980 C3981 1.334 . S
C3981 H3958 0.950 . S
C3981 C3980 1.334 . S
C3981 C3982 1.287 . S
C3982 C3981 1.287 . S
C3982 C3983 1.524 . S
C3982 H4001 0.913 . S
C3983 H3959 0.950 . S
C3983 C3982 1.524 . S
C3983 C3984 1.415 . S
C3984 H3960 0.950 . S
C3984 C3979 1.363 . S
C3984 C3983 1.415 . S
C3985 H3961 0.951 . S
C3985 C3986 1.366 . S
C3985 C3987 1.388 . S
C3986 C3985 1.366 . S
C3986 C3990 1.385 . S
C3987 H3962 0.951 . S
C3987 C3985 1.388 . S
C3987 C3988 1.366 . S
C3988 C3987 1.366 . S
C3988 C3989 1.414 . S
C3988 C3991 1.499 . S
C3989 H3963 0.950 . S
C3989 C3988 1.414 . S
C3989 C3990 1.374 . S
C3990 H3964 0.950 . S
C3990 C3986 1.385 . S
C3990 C3989 1.374 . S
C3991 C3988 1.499 . S
C3991 C3992 1.373 . S
C3991 C3993 1.389 . S
C3992 H3965 0.950 . S
C3992 C3978 1.377 . S
C3992 C3991 1.373 . S
C3993 C3977 1.377 . S
C3993 C3991 1.389 . S
C3993 C3994 1.524 . S
C3994 C3993 1.524 . S
C3994 C3995 1.397 . S
C3994 C3999 1.363 . S
C3995 H3966 0.950 . S
C3995 C3994 1.397 . S
C3995 C3996 1.334 . S
C3996 H3967 0.950 . S
C3996 C3995 1.334 . S
C3996 C3997 1.287 . S
C3997 C3996 1.287 . S
C3997 C3998 1.524 . S
C3997 H4000 0.999 . S
C3998 H3968 0.950 . S
C3998 C3997 1.524 . S
C3998 C3999 1.415 . S
C3999 H3969 0.950 . S
C3999 C3994 1.363 . S
C3999 C3998 1.415 . S
H4000 C3997 0.999 . S
H4001 C3982 0.913 . S
H4002 C4020 0.951 . S
H4003 C4022 0.951 . S
H4004 C4024 0.950 . S
H4005 C4025 0.950 . S
H4006 C4027 0.950 . S
H4007 C4030 0.950 . S
H4008 C4031 0.950 . S
H4009 C4033 0.950 . S
H4010 C4034 0.950 . S
H4011 C4035 0.951 . S
H4012 C4037 0.951 . S
H4013 C4039 0.950 . S
H4014 C4040 0.950 . S
H4015 C4042 0.950 . S
H4016 C4045 0.950 . S
H4017 C4046 0.950 . S
H4018 C4048 0.950 . S
H4019 C4049 0.950 . S
C4020 H4002 0.951 . S
C4020 C4021 1.366 . S
C4020 C4022 1.388 . S
C4021 C4020 1.366 . S
C4021 C4025 1.385 . S
C4022 H4003 0.951 . S
C4022 C4020 1.388 . S
C4022 C4023 1.366 . S
C4023 C4022 1.366 . S
C4023 C4024 1.414 . S
C4023 C4026 1.499 . S
C4024 H4004 0.950 . S
C4024 C4023 1.414 . S
C4024 C4025 1.374 . S
C4025 H4005 0.950 . S
C4025 C4021 1.385 . S
C4025 C4024 1.374 . S
C4026 C4023 1.499 . S
C4026 C4027 1.373 . S
C4026 C4028 1.389 . S
C4027 H4006 0.950 . S
C4027 C4026 1.373 . S
C4027 C4043 1.377 . S
C4028 C4026 1.389 . S
C4028 C4029 1.524 . S
C4028 C4042 1.377 . S
C4029 C4028 1.524 . S
C4029 C4030 1.397 . S
C4029 C4034 1.363 . S
C4030 H4007 0.950 . S
C4030 C4029 1.397 . S
C4030 C4031 1.334 . S
C4031 H4008 0.950 . S
C4031 C4030 1.334 . S
C4031 C4032 1.287 . S
C4032 C4031 1.287 . S
C4032 C4033 1.524 . S
C4032 H4051 0.913 . S
C4033 H4009 0.950 . S
C4033 C4032 1.524 . S
C4033 C4034 1.415 . S
C4034 H4010 0.950 . S
C4034 C4029 1.363 . S
C4034 C4033 1.415 . S
C4035 H4011 0.951 . S
C4035 C4036 1.366 . S
C4035 C4037 1.388 . S
C4036 C4035 1.366 . S
C4036 C4040 1.385 . S
C4037 H4012 0.951 . S
C4037 C4035 1.388 . S
C4037 C4038 1.366 . S
C4038 C4037 1.366 . S
C4038 C4039 1.414 . S
C4038 C4041 1.499 . S
C4039 H4013 0.950 . S
C4039 C4038 1.414 . S
C4039 C4040 1.374 . S
C4040 H4014 0.950 . S
C4040 C4036 1.385 . S
C4040 C4039 1.374 . S
C4041 C4038 1.499 . S
C4041 C4042 1.373 . S
C4041 C4043 1.389 . S
C4042 H4015 0.950 . S
C4042 C4028 1.377 . S
C4042 C4041 1.373 . S
C4043 C4027 1.377 . S
C4043 C4041 1.389 . S
C4043 C4044 1.524 . S
C4044 C4043 1.524 . S
C4044 C4045 1.397 . S
C4044 C4049 1.363 . S
C4045 H4016 0.950 . S
C4045 C4044 1.397 . S
C4045 C4046 1.334 . S
C4046 H4017 0.950 . S
C4046 C4045 1.334 . S
C4046 C4047 1.287 . S
C4047 C4046 1.287 . S
C4047 C4048 1.524 . S
C4047 H4050 0.999 . S
C4048 H4018 0.950 . S
C4048 C4047 1.524 . S
C4048 C4049 1.415 . S
C4049 H4019 0.950 . S
C4049 C4044 1.363 . S
C4049 C4048 1.415 . S
H4050 C4047 0.999 . S
H4051 C4032 0.913 . S
H4052 C4070 0.951 . S
H4053 C4072 0.951 . S
H4054 C4074 0.950 . S
H4055 C4075 0.950 . S
H4056 C4077 0.950 . S
H4057 C4080 0.950 . S
H4058 C4081 0.950 . S
H4059 C4083 0.950 . S
H4060 C4084 0.950 . S
H4061 C4085 0.951 . S
H4062 C4087 0.951 . S
H4063 C4089 0.950 . S
H4064 C4090 0.950 . S
H4065 C4092 0.950 . S
H4066 C4095 0.950 . S
H4067 C4096 0.950 . S
H4068 C4098 0.950 . S
H4069 C4099 0.950 . S
C4070 H4052 0.951 . S
C4070 C4071 1.366 . S
C4070 C4072 1.388 . S
C4071 C4070 1.366 . S
C4071 C4075 1.385 . S
C4072 H4053 0.951 . S
C4072 C4070 1.388 . S
C4072 C4073 1.366 . S
C4073 C4072 1.366 . S
C4073 C4074 1.414 . S
C4073 C4076 1.499 . S
C4074 H4054 0.950 . S
C4074 C4073 1.414 . S
C4074 C4075 1.374 . S
C4075 H4055 0.950 . S
C4075 C4071 1.385 . S
C4075 C4074 1.374 . S
C4076 C4073 1.499 . S
C4076 C4077 1.373 . S
C4076 C4078 1.389 . S
C4077 H4056 0.950 . S
C4077 C4076 1.373 . S
C4077 C4093 1.377 . S
C4078 C4076 1.389 . S
C4078 C4079 1.524 . S
C4078 C4092 1.377 . S
C4079 C4078 1.524 . S
C4079 C4080 1.397 . S
C4079 C4084 1.363 . S
C4080 H4057 0.950 . S
C4080 C4079 1.397 . S
C4080 C4081 1.334 . S
C4081 H4058 0.950 . S
C4081 C4080 1.334 . S
C4081 C4082 1.287 . S
C4082 C4081 1.287 . S
C4082 C4083 1.524 . S
C4082 H4101 0.913 . S
C4083 H4059 0.950 . S
C4083 C4082 1.524 . S
C4083 C4084 1.415 . S
C4084 H4060 0.950 . S
C4084 C4079 1.363 . S
C4084 C4083 1.415 . S
C4085 H4061 0.951 . S
C4085 C4086 1.366 . S
C4085 C4087 1.388 . S
C4086 C4085 1.366 . S
C4086 C4090 1.385 . S
C4087 H4062 0.951 . S
C4087 C4085 1.388 . S
C4087 C4088 1.366 . S
C4088 C4087 1.366 . S
C4088 C4089 1.414 . S
C4088 C4091 1.499 . S
C4089 H4063 0.950 . S
C4089 C4088 1.414 . S
C4089 C4090 1.374 . S
C4090 H4064 0.950 . S
C4090 C4086 1.385 . S
C4090 C4089 1.374 . S
C4091 C4088 1.499 . S
C4091 C4092 1.373 . S
C4091 C4093 1.389 . S
C4092 H4065 0.950 . S
C4092 C4078 1.377 . S
C4092 C4091 1.373 . S
C4093 C4077 1.377 . S
C4093 C4091 1.389 . S
C4093 C4094 1.524 . S
C4094 C4093 1.524 . S
C4094 C4095 1.397 . S
C4094 C4099 1.363 . S
C4095 H4066 0.950 . S
C4095 C4094 1.397 . S
C4095 C4096 1.334 . S
C4096 H4067 0.950 . S
C4096 C4095 1.334 . S
C4096 C4097 1.287 . S
C4097 C4096 1.287 . S
C4097 C4098 1.524 . S
C4097 H4100 0.999 . S
C4098 H4068 0.950 . S
C4098 C4097 1.524 . S
C4098 C4099 1.415 . S
C4099 H4069 0.950 . S
C4099 C4094 1.363 . S
C4099 C4098 1.415 . S
H4100 C4097 0.999 . S
H4101 C4082 0.913 . S
H4102 C4120 0.951 . S
H4103 C4122 0.951 . S
H4104 C4124 0.950 . S
H4105 C4125 0.950 . S
H4106 C4127 0.950 . S
H4107 C4130 0.950 . S
H4108 C4131 0.950 . S
H4109 C4133 0.950 . S
H4110 C4134 0.950 . S
H4111 C4135 0.951 . S
H4112 C4137 0.951 . S
H4113 C4139 0.950 . S
H4114 C4140 0.950 . S
H4115 C4142 0.950 . S
H4116 C4145 0.950 . S
H4117 C4146 0.950 . S
H4118 C4148 0.950 . S
H4119 C4149 0.950 . S
C4120 H4102 0.951 . S
C4120 C4121 1.366 . S
C4120 C4122 1.388 . S
C4121 C4120 1.366 . S
C4121 C4125 1.385 . S
C4122 H4103 0.951 . S
C4122 C4120 1.388 . S
C4122 C4123 1.366 . S
C4123 C4122 1.366 . S
C4123 C4124 1.414 . S
C4123 C4126 1.499 . S
C4124 H4104 0.950 . S
C4124 C4123 1.414 . S
C4124 C4125 1.374 . S
C4125 H4105 0.950 . S
C4125 C4121 1.385 . S
C4125 C4124 1.374 . S
C4126 C4123 1.499 . S
C4126 C4127 1.373 . S
C4126 C4128 1.389 . S
C4127 H4106 0.950 . S
C4127 C4126 1.373 . S
C4127 C4143 1.377 . S
C4128 C4126 1.389 . S
C4128 C4129 1.524 . S
C4128 C4142 1.377 . S
C4129 C4128 1.524 . S
C4129 C4130 1.397 . S
C4129 C4134 1.363 . S
C4130 H4107 0.950 . S
C4130 C4129 1.397 . S
C4130 C4131 1.334 . S
C4131 H4108 0.950 . S
C4131 C4130 1.334 . S
C4131 C4132 1.287 . S
C4132 C4131 1.287 . S
C4132 C4133 1.524 . S
C4132 H4151 0.913 . S
C4133 H4109 0.950 . S
C4133 C4132 1.524 . S
C4133 C4134 1.415 . S
C4134 H4110 0.950 . S
C4134 C4129 1.363 . S
C4134 C4133 1.415 . S
C4135 H4111 0.951 . S
C4135 C4136 1.366 . S
C4135 C4137 1.388 . S
C4136 C4135 1.366 . S
C4136 C4140 1.385 . S
C4137 H4112 0.951 . S
C4137 C4135 1.388 . S
C4137 C4138 1.366 . S
C4138 C4137 1.366 . S
C4138 C4139 1.414 . S
C4138 C4141 1.499 . S
C4139 H4113 0.950 . S
C4139 C4138 1.414 . S
C4139 C4140 1.374 . S
C4140 H4114 0.950 . S
C4140 C4136 1.385 . S
C4140 C4139 1.374 . S
C4141 C4138 1.499 . S
C4141 C4142 1.373 . S
C4141 C4143 1.389 . S
C4142 H4115 0.950 . S
C4142 C4128 1.377 . S
C4142 C4141 1.373 . S
C4143 C4127 1.377 . S
C4143 C4141 1.389 . S
C4143 C4144 1.524 . S
C4144 C4143 1.524 . S
C4144 C4145 1.397 . S
C4144 C4149 1.363 . S
C4145 H4116 0.950 . S
C4145 C4144 1.397 . S
C4145 C4146 1.334 . S
C4146 H4117 0.950 . S
C4146 C4145 1.334 . S
C4146 C4147 1.287 . S
C4147 C4146 1.287 . S
C4147 C4148 1.524 . S
C4147 H4150 0.999 . S
C4148 H4118 0.950 . S
C4148 C4147 1.524 . S
C4148 C4149 1.415 . S
C4149 H4119 0.950 . S
C4149 C4144 1.363 . S
C4149 C4148 1.415 . S
H4150 C4147 0.999 . S
H4151 C4132 0.913 . S
H4152 C4170 0.951 . S
H4153 C4172 0.951 . S
H4154 C4174 0.950 . S
H4155 C4175 0.950 . S
H4156 C4177 0.950 . S
H4157 C4180 0.950 . S
H4158 C4181 0.950 . S
H4159 C4183 0.950 . S
H4160 C4184 0.950 . S
H4161 C4185 0.951 . S
H4162 C4187 0.951 . S
H4163 C4189 0.950 . S
H4164 C4190 0.950 . S
H4165 C4192 0.950 . S
H4166 C4195 0.950 . S
H4167 C4196 0.950 . S
H4168 C4198 0.950 . S
H4169 C4199 0.950 . S
C4170 H4152 0.951 . S
C4170 C4171 1.366 . S
C4170 C4172 1.388 . S
C4171 C4170 1.366 . S
C4171 C4175 1.385 . S
C4172 H4153 0.951 . S
C4172 C4170 1.388 . S
C4172 C4173 1.366 . S
C4173 C4172 1.366 . S
C4173 C4174 1.414 . S
C4173 C4176 1.499 . S
C4174 H4154 0.950 . S
C4174 C4173 1.414 . S
C4174 C4175 1.374 . S
C4175 H4155 0.950 . S
C4175 C4171 1.385 . S
C4175 C4174 1.374 . S
C4176 C4173 1.499 . S
C4176 C4177 1.373 . S
C4176 C4178 1.389 . S
C4177 H4156 0.950 . S
C4177 C4176 1.373 . S
C4177 C4193 1.377 . S
C4178 C4176 1.389 . S
C4178 C4179 1.524 . S
C4178 C4192 1.377 . S
C4179 C4178 1.524 . S
C4179 C4180 1.397 . S
C4179 C4184 1.363 . S
C4180 H4157 0.950 . S
C4180 C4179 1.397 . S
C4180 C4181 1.334 . S
C4181 H4158 0.950 . S
C4181 C4180 1.334 . S
C4181 C4182 1.287 . S
C4182 C4181 1.287 . S
C4182 C4183 1.524 . S
C4182 H4201 0.913 . S
C4183 H4159 0.950 . S
C4183 C4182 1.524 . S
C4183 C4184 1.415 . S
C4184 H4160 0.950 . S
C4184 C4179 1.363 . S
C4184 C4183 1.415 . S
C4185 H4161 0.951 . S
C4185 C4186 1.366 . S
C4185 C4187 1.388 . S
C4186 C4185 1.366 . S
C4186 C4190 1.385 . S
C4187 H4162 0.951 . S
C4187 C4185 1.388 . S
C4187 C4188 1.366 . S
C4188 C4187 1.366 . S
C4188 C4189 1.414 . S
C4188 C4191 1.499 . S
C4189 H4163 0.950 . S
C4189 C4188 1.414 . S
C4189 C4190 1.374 . S
C4190 H4164 0.950 . S
C4190 C4186 1.385 . S
C4190 C4189 1.374 . S
C4191 C4188 1.499 . S
C4191 C4192 1.373 . S
C4191 C4193 1.389 . S
C4192 H4165 0.950 . S
C4192 C4178 1.377 . S
C4192 C4191 1.373 . S
C4193 C4177 1.377 . S
C4193 C4191 1.389 . S
C4193 C4194 1.524 . S
C4194 C4193 1.524 . S
C4194 C4195 1.397 . S
C4194 C4199 1.363 . S
C4195 H4166 0.950 . S
C4195 C4194 1.397 . S
C4195 C4196 1.334 . S
C4196 H4167 0.950 . S
C4196 C4195 1.334 . S
C4196 C4197 1.287 . S
C4197 C4196 1.287 . S
C4197 C4198 1.524 . S
C4197 H4200 0.999 . S
C4198 H4168 0.950 . S
C4198 C4197 1.524 . S
C4198 C4199 1.415 . S
C4199 H4169 0.950 . S
C4199 C4194 1.363 . S
C4199 C4198 1.415 . S
H4200 C4197 0.999 . S
H4201 C4182 0.913 . S
H4202 C4220 0.951 . S
H4203 C4222 0.951 . S
H4204 C4224 0.950 . S
H4205 C4225 0.950 . S
H4206 C4227 0.950 . S
H4207 C4230 0.950 . S
H4208 C4231 0.950 . S
H4209 C4233 0.950 . S
H4210 C4234 0.950 . S
H4211 C4235 0.951 . S
H4212 C4237 0.951 . S
H4213 C4239 0.950 . S
H4214 C4240 0.950 . S
H4215 C4242 0.950 . S
H4216 C4245 0.950 . S
H4217 C4246 0.950 . S
H4218 C4248 0.950 . S
H4219 C4249 0.950 . S
C4220 H4202 0.951 . S
C4220 C4221 1.366 . S
C4220 C4222 1.388 . S
C4221 C4220 1.366 . S
C4221 C4225 1.385 . S
C4222 H4203 0.951 . S
C4222 C4220 1.388 . S
C4222 C4223 1.366 . S
C4223 C4222 1.366 . S
C4223 C4224 1.414 . S
C4223 C4226 1.499 . S
C4224 H4204 0.950 . S
C4224 C4223 1.414 . S
C4224 C4225 1.374 . S
C4225 H4205 0.950 . S
C4225 C4221 1.385 . S
C4225 C4224 1.374 . S
C4226 C4223 1.499 . S
C4226 C4227 1.373 . S
C4226 C4228 1.389 . S
C4227 H4206 0.950 . S
C4227 C4226 1.373 . S
C4227 C4243 1.377 . S
C4228 C4226 1.389 . S
C4228 C4229 1.524 . S
C4228 C4242 1.377 . S
C4229 C4228 1.524 . S
C4229 C4230 1.397 . S
C4229 C4234 1.363 . S
C4230 H4207 0.950 . S
C4230 C4229 1.397 . S
C4230 C4231 1.334 . S
C4231 H4208 0.950 . S
C4231 C4230 1.334 . S
C4231 C4232 1.287 . S
C4232 C4231 1.287 . S
C4232 C4233 1.524 . S
C4232 H4251 0.913 . S
C4233 H4209 0.950 . S
C4233 C4232 1.524 . S
C4233 C4234 1.415 . S
C4234 H4210 0.950 . S
C4234 C4229 1.363 . S
C4234 C4233 1.415 . S
C4235 H4211 0.951 . S
C4235 C4236 1.366 . S
C4235 C4237 1.388 . S
C4236 C4235 1.366 . S
C4236 C4240 1.385 . S
C4237 H4212 0.951 . S
C4237 C4235 1.388 . S
C4237 C4238 1.366 . S
C4238 C4237 1.366 . S
C4238 C4239 1.414 . S
C4238 C4241 1.499 . S
C4239 H4213 0.950 . S
C4239 C4238 1.414 . S
C4239 C4240 1.374 . S
C4240 H4214 0.950 . S
C4240 C4236 1.385 . S
C4240 C4239 1.374 . S
C4241 C4238 1.499 . S
C4241 C4242 1.373 . S
C4241 C4243 1.389 . S
C4242 H4215 0.950 . S
C4242 C4228 1.377 . S
C4242 C4241 1.373 . S
C4243 C4227 1.377 . S
C4243 C4241 1.389 . S
C4243 C4244 1.524 . S
C4244 C4243 1.524 . S
C4244 C4245 1.397 . S
C4244 C4249 1.363 . S
C4245 H4216 0.950 . S
C4245 C4244 1.397 . S
C4245 C4246 1.334 . S
C4246 H4217 0.950 . S
C4246 C4245 1.334 . S
C4246 C4247 1.287 . S
C4247 C4246 1.287 . S
C4247 C4248 1.524 . S
C4247 H4250 0.999 . S
C4248 H4218 0.950 . S
C4248 C4247 1.524 . S
C4248 C4249 1.415 . S
C4249 H4219 0.950 . S
C4249 C4244 1.363 . S
C4249 C4248 1.415 . S
H4250 C4247 0.999 . S
H4251 C4232 0.913 . S
H4252 C4270 0.951 . S
H4253 C4272 0.951 . S
H4254 C4274 0.950 . S
H4255 C4275 0.950 1_545 S
H4256 C4277 0.950 . S
H4257 C4280 0.950 . S
H4258 C4281 0.950 . S
H4259 C4283 0.950 . S
H4260 C4284 0.950 . S
H4261 C4285 0.951 . S
H4262 C4287 0.951 . S
H4263 C4289 0.950 . S
H4264 C4290 0.950 . S
H4265 C4292 0.950 . S
H4266 C4295 0.950 . S
H4267 C4296 0.950 . S
H4268 C4298 0.950 . S
H4269 C4299 0.950 . S
C4270 H4252 0.951 . S
C4270 C4271 1.366 . S
C4270 C4272 1.388 . S
C4271 C4270 1.366 . S
C4271 C4275 1.385 . S
C4272 H4253 0.951 . S
C4272 C4270 1.388 . S
C4272 C4273 1.366 . S
C4273 C4272 1.366 . S
C4273 C4274 1.414 . S
C4273 C4276 1.499 . S
C4274 H4254 0.950 . S
C4274 C4273 1.414 . S
C4274 C4275 1.374 . S
C4275 H4255 0.950 1_565 S
C4275 C4271 1.385 . S
C4275 C4274 1.374 . S
C4276 C4273 1.499 . S
C4276 C4277 1.373 . S
C4276 C4278 1.389 . S
C4277 H4256 0.950 . S
C4277 C4276 1.373 . S
C4277 C4293 1.377 . S
C4278 C4276 1.389 . S
C4278 C4279 1.524 . S
C4278 C4292 1.377 . S
C4279 C4278 1.524 . S
C4279 C4280 1.397 . S
C4279 C4284 1.363 . S
C4280 H4257 0.950 . S
C4280 C4279 1.397 . S
C4280 C4281 1.334 . S
C4281 H4258 0.950 . S
C4281 C4280 1.334 . S
C4281 C4282 1.287 . S
C4282 C4281 1.287 . S
C4282 C4283 1.524 . S
C4282 H4301 0.913 . S
C4283 H4259 0.950 . S
C4283 C4282 1.524 . S
C4283 C4284 1.415 . S
C4284 H4260 0.950 . S
C4284 C4279 1.363 . S
C4284 C4283 1.415 . S
C4285 H4261 0.951 . S
C4285 C4286 1.366 . S
C4285 C4287 1.388 . S
C4286 C4285 1.366 . S
C4286 C4290 1.385 . S
C4287 H4262 0.951 . S
C4287 C4285 1.388 . S
C4287 C4288 1.366 . S
C4288 C4287 1.366 . S
C4288 C4289 1.414 . S
C4288 C4291 1.499 . S
C4289 H4263 0.950 . S
C4289 C4288 1.414 . S
C4289 C4290 1.374 . S
C4290 H4264 0.950 . S
C4290 C4286 1.385 . S
C4290 C4289 1.374 . S
C4291 C4288 1.499 . S
C4291 C4292 1.373 . S
C4291 C4293 1.389 . S
C4292 H4265 0.950 . S
C4292 C4278 1.377 . S
C4292 C4291 1.373 . S
C4293 C4277 1.377 . S
C4293 C4291 1.389 . S
C4293 C4294 1.524 . S
C4294 C4293 1.524 . S
C4294 C4295 1.397 . S
C4294 C4299 1.363 . S
C4295 H4266 0.950 . S
C4295 C4294 1.397 . S
C4295 C4296 1.334 . S
C4296 H4267 0.950 . S
C4296 C4295 1.334 . S
C4296 C4297 1.287 . S
C4297 C4296 1.287 . S
C4297 C4298 1.524 . S
C4297 H4300 0.999 . S
C4298 H4268 0.950 . S
C4298 C4297 1.524 . S
C4298 C4299 1.415 . S
C4299 H4269 0.950 . S
C4299 C4294 1.363 . S
C4299 C4298 1.415 . S
H4300 C4297 0.999 . S
H4301 C4282 0.913 . S
H4302 C4320 0.951 . S
H4303 C4322 0.951 . S
H4304 C4324 0.950 . S
H4305 C4325 0.950 . S
H4306 C4327 0.950 . S
H4307 C4330 0.950 . S
H4308 C4331 0.950 . S
H4309 C4333 0.950 . S
H4310 C4334 0.950 . S
H4311 C4335 0.951 . S
H4312 C4337 0.951 1_565 S
H4313 C4339 0.950 . S
H4314 C4340 0.950 . S
H4315 C4342 0.950 . S
H4316 C4345 0.950 . S
H4317 C4346 0.950 . S
H4318 C4348 0.950 . S
H4319 C4349 0.950 . S
C4320 H4302 0.951 . S
C4320 C4321 1.405 . S
C4320 C4322 1.388 . S
C4321 C4320 1.405 . S
C4321 C4325 1.351 1_556 S
C4322 H4303 0.951 . S
C4322 C4320 1.388 . S
C4322 C4323 1.366 1_556 S
C4323 C4322 1.366 1_554 S
C4323 C4324 1.414 . S
C4323 C4326 1.499 . S
C4324 H4304 0.950 . S
C4324 C4323 1.414 . S
C4324 C4325 1.374 . S
C4325 H4305 0.950 . S
C4325 C4321 1.351 1_554 S
C4325 C4324 1.374 . S
C4326 C4323 1.499 . S
C4326 C4327 1.373 . S
C4326 C4328 1.389 1_554 S
C4327 H4306 0.950 . S
C4327 C4326 1.373 . S
C4327 C4343 1.377 . S
C4328 C4326 1.389 1_556 S
C4328 C4329 1.524 . S
C4328 C4342 1.377 . S
C4329 C4328 1.524 . S
C4329 C4330 1.397 . S
C4329 C4334 1.363 . S
C4330 H4307 0.950 . S
C4330 C4329 1.397 . S
C4330 C4331 1.334 . S
C4331 H4308 0.950 . S
C4331 C4330 1.334 . S
C4331 C4332 1.287 . S
C4332 C4331 1.287 . S
C4332 C4333 1.524 . S
C4332 H4351 0.913 . S
C4333 H4309 0.950 . S
C4333 C4332 1.524 . S
C4333 C4334 1.415 . S
C4334 H4310 0.950 . S
C4334 C4329 1.363 . S
C4334 C4333 1.415 . S
C4335 H4311 0.951 . S
C4335 C4336 1.366 . S
C4335 C4337 1.388 . S
C4336 C4335 1.366 . S
C4336 C4340 1.385 1_554 S
C4337 H4312 0.951 1_545 S
C4337 C4335 1.388 . S
C4337 C4338 1.366 . S
C4338 C4337 1.366 . S
C4338 C4339 1.414 1_554 S
C4338 C4341 1.499 1_545 S
C4339 H4313 0.950 . S
C4339 C4338 1.414 1_556 S
C4339 C4340 1.374 . S
C4340 H4314 0.950 . S
C4340 C4336 1.385 1_556 S
C4340 C4339 1.374 . S
C4341 C4338 1.499 1_565 S
C4341 C4342 1.373 1_554 S
C4341 C4343 1.389 . S
C4342 H4315 0.950 . S
C4342 C4328 1.377 . S
C4342 C4341 1.373 1_556 S
C4343 C4327 1.377 . S
C4343 C4341 1.389 . S
C4343 C4344 1.524 . S
C4344 C4343 1.524 . S
C4344 C4345 1.397 1_565 S
C4344 C4349 1.363 . S
C4345 H4316 0.950 . S
C4345 C4344 1.397 1_545 S
C4345 C4346 1.334 . S
C4346 H4317 0.950 . S
C4346 C4345 1.334 . S
C4346 C4347 1.287 . S
C4347 C4346 1.287 . S
C4347 C4348 1.524 1_545 S
C4347 H4350 0.999 . S
C4348 H4318 0.950 . S
C4348 C4347 1.524 1_565 S
C4348 C4349 1.415 . S
C4349 H4319 0.950 . S
C4349 C4344 1.363 . S
C4349 C4348 1.415 . S
H4350 C4347 0.999 . S
H4351 C4332 0.913 . S
H4352 C4370 0.951 . S
H4353 C4372 0.951 . S
H4354 C4374 0.950 . S
H4355 C4375 0.950 . S
H4356 C4377 0.950 . S
H4357 C4380 0.950 . S
H4358 C4381 0.950 . S
H4359 C4383 0.950 . S
H4360 C4384 0.950 . S
H4361 C4385 0.951 . S
H4362 C4387 0.951 . S
H4363 C4389 0.950 . S
H4364 C4390 0.950 . S
H4365 C4392 0.950 . S
H4366 C4395 0.950 . S
H4367 C4396 0.950 . S
H4368 C4398 0.950 . S
H4369 C4399 0.950 . S
C4370 H4352 0.951 . S
C4370 C4371 1.366 . S
C4370 C4372 1.388 . S
C4371 C4370 1.366 . S
C4371 C4375 1.385 . S
C4372 H4353 0.951 . S
C4372 C4370 1.388 . S
C4372 C4373 1.366 . S
C4373 C4372 1.366 . S
C4373 C4374 1.414 . S
C4373 C4376 1.499 . S
C4374 H4354 0.950 . S
C4374 C4373 1.414 . S
C4374 C4375 1.374 . S
C4375 H4355 0.950 . S
C4375 C4371 1.385 . S
C4375 C4374 1.374 . S
C4376 C4373 1.499 . S
C4376 C4377 1.373 . S
C4376 C4378 1.389 . S
C4377 H4356 0.950 . S
C4377 C4376 1.373 . S
C4377 C4393 1.377 . S
C4378 C4376 1.389 . S
C4378 C4379 1.524 . S
C4378 C4392 1.377 . S
C4379 C4378 1.524 . S
C4379 C4380 1.397 . S
C4379 C4384 1.363 . S
C4380 H4357 0.950 . S
C4380 C4379 1.397 . S
C4380 C4381 1.334 . S
C4381 H4358 0.950 . S
C4381 C4380 1.334 . S
C4381 C4382 1.287 . S
C4382 C4381 1.287 . S
C4382 C4383 1.524 . S
C4382 H4401 0.913 . S
C4383 H4359 0.950 . S
C4383 C4382 1.524 . S
C4383 C4384 1.415 . S
C4384 H4360 0.950 . S
C4384 C4379 1.363 . S
C4384 C4383 1.415 . S
C4385 H4361 0.951 . S
C4385 C4386 1.366 . S
C4385 C4387 1.388 . S
C4386 C4385 1.366 . S
C4386 C4390 1.385 . S
C4387 H4362 0.951 . S
C4387 C4385 1.388 . S
C4387 C4388 1.366 . S
C4388 C4387 1.366 . S
C4388 C4389 1.414 . S
C4388 C4391 1.499 . S
C4389 H4363 0.950 . S
C4389 C4388 1.414 . S
C4389 C4390 1.374 . S
C4390 H4364 0.950 . S
C4390 C4386 1.385 . S
C4390 C4389 1.374 . S
C4391 C4388 1.499 . S
C4391 C4392 1.373 . S
C4391 C4393 1.389 . S
C4392 H4365 0.950 . S
C4392 C4378 1.377 . S
C4392 C4391 1.373 . S
C4393 C4377 1.377 . S
C4393 C4391 1.389 . S
C4393 C4394 1.524 . S
C4394 C4393 1.524 . S
C4394 C4395 1.397 . S
C4394 C4399 1.363 . S
C4395 H4366 0.950 . S
C4395 C4394 1.397 . S
C4395 C4396 1.334 . S
C4396 H4367 0.950 . S
C4396 C4395 1.334 . S
C4396 C4397 1.287 . S
C4397 C4396 1.287 . S
C4397 C4398 1.524 . S
C4397 H4400 0.999 . S
C4398 H4368 0.950 . S
C4398 C4397 1.524 . S
C4398 C4399 1.415 . S
C4399 H4369 0.950 . S
C4399 C4394 1.363 . S
C4399 C4398 1.415 . S
H4400 C4397 0.999 . S
H4401 C4382 0.913 . S
H4402 C4420 0.951 . S
H4403 C4422 0.951 . S
H4404 C4424 0.950 . S
H4405 C4425 0.950 . S
H4406 C4427 0.950 . S
H4407 C4430 0.950 1_554 S
H4408 C4431 0.950 . S
H4409 C4433 0.950 . S
H4410 C4434 0.950 1_554 S
H4411 C4435 0.951 . S
H4412 C4437 0.951 . S
H4413 C4439 0.950 . S
H4414 C4440 0.950 . S
H4415 C4442 0.950 . S
H4416 C4445 0.950 . S
H4417 C4446 0.950 . S
H4418 C4448 0.950 . S
H4419 C4449 0.950 . S
C4420 H4402 0.951 . S
C4420 C4421 1.366 . S
C4420 C4422 1.388 . S
C4421 C4420 1.366 . S
C4421 C4425 1.385 . S
C4422 H4403 0.951 . S
C4422 C4420 1.388 . S
C4422 C4423 1.366 . S
C4423 C4422 1.366 . S
C4423 C4424 1.414 . S
C4423 C4426 1.499 . S
C4424 H4404 0.950 . S
C4424 C4423 1.414 . S
C4424 C4425 1.374 . S
C4425 H4405 0.950 . S
C4425 C4421 1.385 . S
C4425 C4424 1.374 . S
C4426 C4423 1.499 . S
C4426 C4427 1.373 . S
C4426 C4428 1.389 . S
C4427 H4406 0.950 . S
C4427 C4426 1.373 . S
C4427 C4443 1.377 . S
C4428 C4426 1.389 . S
C4428 C4429 1.524 . S
C4428 C4442 1.377 . S
C4429 C4428 1.524 . S
C4429 C4430 1.397 1_554 S
C4429 C4434 1.363 1_554 S
C4430 H4407 0.950 1_556 S
C4430 C4429 1.397 1_556 S
C4430 C4431 1.334 . S
C4431 H4408 0.950 . S
C4431 C4430 1.334 . S
C4431 C4432 1.287 . S
C4432 C4431 1.287 . S
C4432 C4433 1.524 . S
C4432 H4451 0.913 . S
C4433 H4409 0.950 . S
C4433 C4432 1.524 . S
C4433 C4434 1.415 . S
C4434 H4410 0.950 1_556 S
C4434 C4429 1.363 1_556 S
C4434 C4433 1.415 . S
C4435 H4411 0.951 . S
C4435 C4436 1.366 . S
C4435 C4437 1.388 . S
C4436 C4435 1.366 . S
C4436 C4440 1.385 . S
C4437 H4412 0.951 . S
C4437 C4435 1.388 . S
C4437 C4438 1.366 . S
C4438 C4437 1.366 . S
C4438 C4439 1.414 . S
C4438 C4441 1.499 . S
C4439 H4413 0.950 . S
C4439 C4438 1.414 . S
C4439 C4440 1.374 . S
C4440 H4414 0.950 . S
C4440 C4436 1.385 . S
C4440 C4439 1.374 . S
C4441 C4438 1.499 . S
C4441 C4442 1.373 . S
C4441 C4443 1.389 . S
C4442 H4415 0.950 . S
C4442 C4428 1.377 . S
C4442 C4441 1.373 . S
C4443 C4427 1.377 . S
C4443 C4441 1.389 . S
C4443 C4444 1.524 . S
C4444 C4443 1.524 . S
C4444 C4445 1.397 . S
C4444 C4449 1.363 . S
C4445 H4416 0.950 . S
C4445 C4444 1.397 . S
C4445 C4446 1.334 . S
C4446 H4417 0.950 . S
C4446 C4445 1.334 . S
C4446 C4447 1.287 . S
C4447 C4446 1.287 . S
C4447 C4448 1.524 . S
C4447 H4450 0.999 . S
C4448 H4418 0.950 . S
C4448 C4447 1.524 . S
C4448 C4449 1.415 . S
C4449 H4419 0.950 . S
C4449 C4444 1.363 . S
C4449 C4448 1.415 . S
H4450 C4447 0.999 . S
H4451 C4432 0.913 . S
H4452 C4470 0.951 . S
H4453 C4472 0.951 . S
H4454 C4474 0.950 . S
H4455 C4475 0.950 . S
H4456 C4477 0.950 . S
H4457 C4480 0.950 . S
H4458 C4481 0.950 . S
H4459 C4483 0.950 . S
H4460 C4484 0.950 . S
H4461 C4485 0.951 . S
H4462 C4487 0.951 . S
H4463 C4489 0.950 . S
H4464 C4490 0.950 . S
H4465 C4492 0.950 . S
H4466 C4495 0.950 . S
H4467 C4496 0.950 . S
H4468 C4498 0.950 . S
H4469 C4499 0.950 . S
C4470 H4452 0.951 . S
C4470 C4471 1.366 . S
C4470 C4472 1.388 . S
C4471 C4470 1.366 . S
C4471 C4475 1.385 . S
C4472 H4453 0.951 . S
C4472 C4470 1.388 . S
C4472 C4473 1.366 . S
C4473 C4472 1.366 . S
C4473 C4474 1.414 . S
C4473 C4476 1.499 . S
C4474 H4454 0.950 . S
C4474 C4473 1.414 . S
C4474 C4475 1.374 . S
C4475 H4455 0.950 . S
C4475 C4471 1.385 . S
C4475 C4474 1.374 . S
C4476 C4473 1.499 . S
C4476 C4477 1.373 . S
C4476 C4478 1.389 . S
C4477 H4456 0.950 . S
C4477 C4476 1.373 . S
C4477 C4493 1.377 . S
C4478 C4476 1.389 . S
C4478 C4479 1.524 . S
C4478 C4492 1.377 . S
C4479 C4478 1.524 . S
C4479 C4480 1.397 . S
C4479 C4484 1.363 . S
C4480 H4457 0.950 . S
C4480 C4479 1.397 . S
C4480 C4481 1.334 . S
C4481 H4458 0.950 . S
C4481 C4480 1.334 . S
C4481 C4482 1.287 . S
C4482 C4481 1.287 . S
C4482 C4483 1.524 . S
C4482 H4501 0.913 . S
C4483 H4459 0.950 . S
C4483 C4482 1.524 . S
C4483 C4484 1.415 . S
C4484 H4460 0.950 . S
C4484 C4479 1.363 . S
C4484 C4483 1.415 . S
C4485 H4461 0.951 . S
C4485 C4486 1.366 . S
C4485 C4487 1.388 . S
C4486 C4485 1.366 . S
C4486 C4490 1.385 . S
C4487 H4462 0.951 . S
C4487 C4485 1.388 . S
C4487 C4488 1.366 . S
C4488 C4487 1.366 . S
C4488 C4489 1.414 . S
C4488 C4491 1.499 . S
C4489 H4463 0.950 . S
C4489 C4488 1.414 . S
C4489 C4490 1.374 . S
C4490 H4464 0.950 . S
C4490 C4486 1.385 . S
C4490 C4489 1.374 . S
C4491 C4488 1.499 . S
C4491 C4492 1.373 . S
C4491 C4493 1.389 . S
C4492 H4465 0.950 . S
C4492 C4478 1.377 . S
C4492 C4491 1.373 . S
C4493 C4477 1.377 . S
C4493 C4491 1.389 . S
C4493 C4494 1.524 . S
C4494 C4493 1.524 . S
C4494 C4495 1.397 . S
C4494 C4499 1.363 . S
C4495 H4466 0.950 . S
C4495 C4494 1.397 . S
C4495 C4496 1.334 . S
C4496 H4467 0.950 . S
C4496 C4495 1.334 . S
C4496 C4497 1.287 . S
C4497 C4496 1.287 . S
C4497 C4498 1.524 . S
C4497 H4500 0.999 . S
C4498 H4468 0.950 . S
C4498 C4497 1.524 . S
C4498 C4499 1.415 . S
C4499 H4469 0.950 . S
C4499 C4494 1.363 . S
C4499 C4498 1.415 . S
H4500 C4497 0.999 . S
H4501 C4482 0.913 . S
H4502 C4520 0.951 . S
H4503 C4522 0.951 . S
H4504 C4524 0.950 . S
H4505 C4525 0.950 . S
H4506 C4527 0.950 . S
H4507 C4530 0.950 . S
H4508 C4531 0.950 . S
H4509 C4533 0.950 . S
H4510 C4534 0.950 . S
H4511 C4535 0.951 . S
H4512 C4537 0.951 . S
H4513 C4539 0.950 . S
H4514 C4540 0.950 . S
H4515 C4542 0.950 . S
H4516 C4545 0.950 . S
H4517 C4546 0.950 . S
H4518 C4548 0.950 . S
H4519 C4549 0.950 . S
C4520 H4502 0.951 . S
C4520 C4521 1.366 . S
C4520 C4522 1.388 . S
C4521 C4520 1.366 . S
C4521 C4525 1.385 . S
C4522 H4503 0.951 . S
C4522 C4520 1.388 . S
C4522 C4523 1.366 . S
C4523 C4522 1.366 . S
C4523 C4524 1.414 . S
C4523 C4526 1.499 . S
C4524 H4504 0.950 . S
C4524 C4523 1.414 . S
C4524 C4525 1.374 . S
C4525 H4505 0.950 . S
C4525 C4521 1.385 . S
C4525 C4524 1.374 . S
C4526 C4523 1.499 . S
C4526 C4527 1.373 . S
C4526 C4528 1.389 . S
C4527 H4506 0.950 . S
C4527 C4526 1.373 . S
C4527 C4543 1.377 . S
C4528 C4526 1.389 . S
C4528 C4529 1.524 . S
C4528 C4542 1.377 . S
C4529 C4528 1.524 . S
C4529 C4530 1.397 . S
C4529 C4534 1.363 . S
C4530 H4507 0.950 . S
C4530 C4529 1.397 . S
C4530 C4531 1.334 . S
C4531 H4508 0.950 . S
C4531 C4530 1.334 . S
C4531 C4532 1.287 . S
C4532 C4531 1.287 . S
C4532 C4533 1.524 . S
C4532 H4551 0.913 . S
C4533 H4509 0.950 . S
C4533 C4532 1.524 . S
C4533 C4534 1.415 . S
C4534 H4510 0.950 . S
C4534 C4529 1.363 . S
C4534 C4533 1.415 . S
C4535 H4511 0.951 . S
C4535 C4536 1.366 . S
C4535 C4537 1.388 . S
C4536 C4535 1.366 . S
C4536 C4540 1.385 . S
C4537 H4512 0.951 . S
C4537 C4535 1.388 . S
C4537 C4538 1.366 . S
C4538 C4537 1.366 . S
C4538 C4539 1.414 . S
C4538 C4541 1.499 . S
C4539 H4513 0.950 . S
C4539 C4538 1.414 . S
C4539 C4540 1.374 . S
C4540 H4514 0.950 . S
C4540 C4536 1.385 . S
C4540 C4539 1.374 . S
C4541 C4538 1.499 . S
C4541 C4542 1.373 . S
C4541 C4543 1.389 . S
C4542 H4515 0.950 . S
C4542 C4528 1.377 . S
C4542 C4541 1.373 . S
C4543 C4527 1.377 . S
C4543 C4541 1.389 . S
C4543 C4544 1.524 . S
C4544 C4543 1.524 . S
C4544 C4545 1.397 . S
C4544 C4549 1.363 . S
C4545 H4516 0.950 . S
C4545 C4544 1.397 . S
C4545 C4546 1.334 . S
C4546 H4517 0.950 . S
C4546 C4545 1.334 . S
C4546 C4547 1.287 . S
C4547 C4546 1.287 . S
C4547 C4548 1.524 . S
C4547 H4550 0.999 . S
C4548 H4518 0.950 . S
C4548 C4547 1.524 . S
C4548 C4549 1.415 . S
C4549 H4519 0.950 . S
C4549 C4544 1.363 . S
C4549 C4548 1.415 . S
H4550 C4547 0.999 . S
H4551 C4532 0.913 . S
H4552 C4570 0.951 . S
H4553 C4572 0.951 . S
H4554 C4574 0.950 . S
H4555 C4575 0.950 . S
H4556 C4577 0.950 . S
H4557 C4580 0.950 . S
H4558 C4581 0.950 . S
H4559 C4583 0.950 . S
H4560 C4584 0.950 . S
H4561 C4585 0.951 . S
H4562 C4587 0.951 . S
H4563 C4589 0.950 . S
H4564 C4590 0.950 . S
H4565 C4592 0.950 . S
H4566 C4595 0.950 . S
H4567 C4596 0.950 . S
H4568 C4598 0.950 . S
H4569 C4599 0.950 . S
C4570 H4552 0.951 . S
C4570 C4571 1.366 . S
C4570 C4572 1.388 . S
C4571 C4570 1.366 . S
C4571 C4575 1.385 . S
C4572 H4553 0.951 . S
C4572 C4570 1.388 . S
C4572 C4573 1.366 . S
C4573 C4572 1.366 . S
C4573 C4574 1.414 . S
C4573 C4576 1.499 . S
C4574 H4554 0.950 . S
C4574 C4573 1.414 . S
C4574 C4575 1.374 . S
C4575 H4555 0.950 . S
C4575 C4571 1.385 . S
C4575 C4574 1.374 . S
C4576 C4573 1.499 . S
C4576 C4577 1.373 . S
C4576 C4578 1.389 . S
C4577 H4556 0.950 . S
C4577 C4576 1.373 . S
C4577 C4593 1.377 . S
C4578 C4576 1.389 . S
C4578 C4579 1.524 . S
C4578 C4592 1.377 . S
C4579 C4578 1.524 . S
C4579 C4580 1.397 . S
C4579 C4584 1.363 . S
C4580 H4557 0.950 . S
C4580 C4579 1.397 . S
C4580 C4581 1.334 . S
C4581 H4558 0.950 . S
C4581 C4580 1.334 . S
C4581 C4582 1.287 . S
C4582 C4581 1.287 . S
C4582 C4583 1.524 . S
C4582 H4601 0.913 . S
C4583 H4559 0.950 . S
C4583 C4582 1.524 . S
C4583 C4584 1.415 . S
C4584 H4560 0.950 . S
C4584 C4579 1.363 . S
C4584 C4583 1.415 . S
C4585 H4561 0.951 . S
C4585 C4586 1.366 . S
C4585 C4587 1.388 . S
C4586 C4585 1.366 . S
C4586 C4590 1.385 . S
C4587 H4562 0.951 . S
C4587 C4585 1.388 . S
C4587 C4588 1.366 . S
C4588 C4587 1.366 . S
C4588 C4589 1.414 . S
C4588 C4591 1.499 . S
C4589 H4563 0.950 . S
C4589 C4588 1.414 . S
C4589 C4590 1.374 . S
C4590 H4564 0.950 . S
C4590 C4586 1.385 . S
C4590 C4589 1.374 . S
C4591 C4588 1.499 . S
C4591 C4592 1.373 . S
C4591 C4593 1.389 . S
C4592 H4565 0.950 . S
C4592 C4578 1.377 . S
C4592 C4591 1.373 . S
C4593 C4577 1.377 . S
C4593 C4591 1.389 . S
C4593 C4594 1.524 . S
C4594 C4593 1.524 . S
C4594 C4595 1.397 . S
C4594 C4599 1.363 . S
C4595 H4566 0.950 . S
C4595 C4594 1.397 . S
C4595 C4596 1.334 . S
C4596 H4567 0.950 . S
C4596 C4595 1.334 . S
C4596 C4597 1.287 . S
C4597 C4596 1.287 . S
C4597 C4598 1.524 . S
C4597 H4600 0.999 . S
C4598 H4568 0.950 . S
C4598 C4597 1.524 . S
C4598 C4599 1.415 . S
C4599 H4569 0.950 . S
C4599 C4594 1.363 . S
C4599 C4598 1.415 . S
H4600 C4597 0.999 . S
H4601 C4582 0.913 . S
H4602 C4620 0.951 . S
H4603 C4622 0.951 . S
H4604 C4624 0.950 . S
H4605 C4625 0.950 . S
H4606 C4627 0.950 . S
H4607 C4630 0.950 . S
H4608 C4631 0.950 . S
H4609 C4633 0.950 . S
H4610 C4634 0.950 . S
H4611 C4635 0.951 . S
H4612 C4637 0.951 . S
H4613 C4639 0.950 . S
H4614 C4640 0.950 . S
H4615 C4642 0.950 . S
H4616 C4645 0.950 . S
H4617 C4646 0.950 . S
H4618 C4648 0.950 . S
H4619 C4649 0.950 . S
C4620 H4602 0.951 . S
C4620 C4621 1.366 . S
C4620 C4622 1.388 . S
C4621 C4620 1.366 . S
C4621 C4625 1.385 . S
C4622 H4603 0.951 . S
C4622 C4620 1.388 . S
C4622 C4623 1.366 . S
C4623 C4622 1.366 . S
C4623 C4624 1.414 . S
C4623 C4626 1.499 . S
C4624 H4604 0.950 . S
C4624 C4623 1.414 . S
C4624 C4625 1.374 . S
C4625 H4605 0.950 . S
C4625 C4621 1.385 . S
C4625 C4624 1.374 . S
C4626 C4623 1.499 . S
C4626 C4627 1.373 . S
C4626 C4628 1.389 . S
C4627 H4606 0.950 . S
C4627 C4626 1.373 . S
C4627 C4643 1.377 . S
C4628 C4626 1.389 . S
C4628 C4629 1.524 . S
C4628 C4642 1.377 . S
C4629 C4628 1.524 . S
C4629 C4630 1.397 . S
C4629 C4634 1.363 . S
C4630 H4607 0.950 . S
C4630 C4629 1.397 . S
C4630 C4631 1.334 . S
C4631 H4608 0.950 . S
C4631 C4630 1.334 . S
C4631 C4632 1.287 . S
C4632 C4631 1.287 . S
C4632 C4633 1.524 . S
C4632 H4651 0.913 . S
C4633 H4609 0.950 . S
C4633 C4632 1.524 . S
C4633 C4634 1.415 . S
C4634 H4610 0.950 . S
C4634 C4629 1.363 . S
C4634 C4633 1.415 . S
C4635 H4611 0.951 . S
C4635 C4636 1.366 . S
C4635 C4637 1.388 . S
C4636 C4635 1.366 . S
C4636 C4640 1.385 . S
C4637 H4612 0.951 . S
C4637 C4635 1.388 . S
C4637 C4638 1.366 . S
C4638 C4637 1.366 . S
C4638 C4639 1.414 . S
C4638 C4641 1.499 . S
C4639 H4613 0.950 . S
C4639 C4638 1.414 . S
C4639 C4640 1.374 . S
C4640 H4614 0.950 . S
C4640 C4636 1.385 . S
C4640 C4639 1.374 . S
C4641 C4638 1.499 . S
C4641 C4642 1.373 . S
C4641 C4643 1.389 . S
C4642 H4615 0.950 . S
C4642 C4628 1.377 . S
C4642 C4641 1.373 . S
C4643 C4627 1.377 . S
C4643 C4641 1.389 . S
C4643 C4644 1.524 . S
C4644 C4643 1.524 . S
C4644 C4645 1.397 . S
C4644 C4649 1.363 . S
C4645 H4616 0.950 . S
C4645 C4644 1.397 . S
C4645 C4646 1.334 . S
C4646 H4617 0.950 . S
C4646 C4645 1.334 . S
C4646 C4647 1.287 . S
C4647 C4646 1.287 . S
C4647 C4648 1.524 . S
C4647 H4650 0.999 . S
C4648 H4618 0.950 . S
C4648 C4647 1.524 . S
C4648 C4649 1.415 . S
C4649 H4619 0.950 . S
C4649 C4644 1.363 . S
C4649 C4648 1.415 . S
H4650 C4647 0.999 . S
H4651 C4632 0.913 . S
H4652 C4670 0.951 . S
H4653 C4672 0.951 . S
H4654 C4674 0.950 . S
H4655 C4675 0.950 . S
H4656 C4677 0.950 . S
H4657 C4680 0.950 . S
H4658 C4681 0.950 . S
H4659 C4683 0.950 . S
H4660 C4684 0.950 . S
H4661 C4685 0.951 . S
H4662 C4687 0.951 . S
H4663 C4689 0.950 . S
H4664 C4690 0.950 . S
H4665 C4692 0.950 . S
H4666 C4695 0.950 . S
H4667 C4696 0.950 . S
H4668 C4698 0.950 1_556 S
H4669 C4699 0.985 . S
C4670 H4652 0.951 . S
C4670 C4671 1.366 . S
C4670 C4672 1.388 . S
C4671 C4670 1.366 . S
C4671 C4675 1.385 . S
C4672 H4653 0.951 . S
C4672 C4670 1.388 . S
C4672 C4673 1.366 . S
C4673 C4672 1.366 . S
C4673 C4674 1.414 . S
C4673 C4676 1.499 . S
C4674 H4654 0.950 . S
C4674 C4673 1.414 . S
C4674 C4675 1.374 . S
C4675 H4655 0.950 . S
C4675 C4671 1.385 . S
C4675 C4674 1.374 . S
C4676 C4673 1.499 . S
C4676 C4677 1.373 . S
C4676 C4678 1.389 . S
C4677 H4656 0.950 . S
C4677 C4676 1.373 . S
C4677 C4693 1.377 . S
C4678 C4676 1.389 . S
C4678 C4679 1.524 . S
C4678 C4692 1.377 . S
C4679 C4678 1.524 . S
C4679 C4680 1.397 . S
C4679 C4684 1.363 . S
C4680 H4657 0.950 . S
C4680 C4679 1.397 . S
C4680 C4681 1.334 . S
C4681 H4658 0.950 . S
C4681 C4680 1.334 . S
C4681 C4682 1.287 . S
C4682 C4681 1.287 . S
C4682 C4683 1.524 . S
C4682 H4701 0.913 . S
C4683 H4659 0.950 . S
C4683 C4682 1.524 . S
C4683 C4684 1.415 . S
C4684 H4660 0.950 . S
C4684 C4679 1.363 . S
C4684 C4683 1.415 . S
C4685 H4661 0.951 . S
C4685 C4686 1.366 . S
C4685 C4687 1.388 . S
C4686 C4685 1.366 . S
C4686 C4690 1.385 . S
C4687 H4662 0.951 . S
C4687 C4685 1.388 . S
C4687 C4688 1.366 . S
C4688 C4687 1.366 . S
C4688 C4689 1.414 . S
C4688 C4691 1.499 . S
C4689 H4663 0.950 . S
C4689 C4688 1.414 . S
C4689 C4690 1.374 . S
C4690 H4664 0.950 . S
C4690 C4686 1.385 . S
C4690 C4689 1.374 . S
C4691 C4688 1.499 . S
C4691 C4692 1.373 . S
C4691 C4693 1.389 . S
C4692 H4665 0.950 . S
C4692 C4678 1.377 . S
C4692 C4691 1.373 . S
C4693 C4677 1.377 . S
C4693 C4691 1.389 . S
C4693 C4694 1.524 . S
C4694 C4693 1.524 . S
C4694 C4695 1.397 1_455 S
C4694 C4699 1.367 . S
C4695 H4666 0.950 . S
C4695 C4694 1.397 1_655 S
C4695 C4696 1.334 . S
C4696 H4667 0.950 . S
C4696 C4695 1.334 . S
C4696 C4697 1.287 . S
C4697 C4696 1.287 . S
C4697 C4698 1.524 . S
C4697 H4700 0.970 1_554 S
C4698 H4668 0.950 1_554 S
C4698 C4697 1.524 . S
C4698 C4699 1.380 1_655 S
C4699 H4669 0.985 . S
C4699 C4694 1.367 . S
C4699 C4698 1.380 1_455 S
H4700 C4697 0.970 1_556 S
H4701 C4682 0.913 . S
H4702 C4720 0.951 . S
H4703 C4722 0.951 . S
H4704 C4724 0.950 . S
H4705 C4725 0.950 . S
H4706 C4727 0.950 . S
H4707 C4730 0.950 . S
H4708 C4731 0.950 . S
H4709 C4733 0.950 . S
H4710 C4734 0.950 . S
H4711 C4735 0.951 . S
H4712 C4737 0.951 . S
H4713 C4739 0.950 . S
H4714 C4740 0.950 . S
H4715 C4742 0.950 . S
H4716 C4745 0.950 . S
H4717 C4746 0.950 . S
H4718 C4748 0.950 . S
H4719 C4749 0.950 . S
C4720 H4702 0.951 . S
C4720 C4721 1.366 . S
C4720 C4722 1.388 . S
C4721 C4720 1.366 . S
C4721 C4725 1.385 . S
C4722 H4703 0.951 . S
C4722 C4720 1.388 . S
C4722 C4723 1.366 . S
C4723 C4722 1.366 . S
C4723 C4724 1.414 . S
C4723 C4726 1.499 . S
C4724 H4704 0.950 . S
C4724 C4723 1.414 . S
C4724 C4725 1.374 . S
C4725 H4705 0.950 . S
C4725 C4721 1.385 . S
C4725 C4724 1.374 . S
C4726 C4723 1.499 . S
C4726 C4727 1.373 . S
C4726 C4728 1.389 . S
C4727 H4706 0.950 . S
C4727 C4726 1.373 . S
C4727 C4743 1.377 . S
C4728 C4726 1.389 . S
C4728 C4729 1.524 . S
C4728 C4742 1.377 . S
C4729 C4728 1.524 . S
C4729 C4730 1.397 . S
C4729 C4734 1.363 . S
C4730 H4707 0.950 . S
C4730 C4729 1.397 . S
C4730 C4731 1.334 . S
C4731 H4708 0.950 . S
C4731 C4730 1.334 . S
C4731 C4732 1.287 . S
C4732 C4731 1.287 . S
C4732 C4733 1.524 . S
C4732 H4751 0.913 . S
C4733 H4709 0.950 . S
C4733 C4732 1.524 . S
C4733 C4734 1.415 . S
C4734 H4710 0.950 . S
C4734 C4729 1.363 . S
C4734 C4733 1.415 . S
C4735 H4711 0.951 . S
C4735 C4736 1.366 . S
C4735 C4737 1.388 . S
C4736 C4735 1.366 . S
C4736 C4740 1.385 . S
C4737 H4712 0.951 . S
C4737 C4735 1.388 . S
C4737 C4738 1.366 . S
C4738 C4737 1.366 . S
C4738 C4739 1.414 . S
C4738 C4741 1.499 . S
C4739 H4713 0.950 . S
C4739 C4738 1.414 . S
C4739 C4740 1.374 . S
C4740 H4714 0.950 . S
C4740 C4736 1.385 . S
C4740 C4739 1.374 . S
C4741 C4738 1.499 . S
C4741 C4742 1.373 . S
C4741 C4743 1.389 . S
C4742 H4715 0.950 . S
C4742 C4728 1.377 . S
C4742 C4741 1.373 . S
C4743 C4727 1.377 . S
C4743 C4741 1.389 . S
C4743 C4744 1.524 . S
C4744 C4743 1.524 . S
C4744 C4745 1.397 . S
C4744 C4749 1.363 . S
C4745 H4716 0.950 . S
C4745 C4744 1.397 . S
C4745 C4746 1.334 . S
C4746 H4717 0.950 . S
C4746 C4745 1.334 . S
C4746 C4747 1.287 . S
C4747 C4746 1.287 . S
C4747 C4748 1.524 . S
C4747 H4750 0.999 . S
C4748 H4718 0.950 . S
C4748 C4747 1.524 . S
C4748 C4749 1.415 . S
C4749 H4719 0.950 . S
C4749 C4744 1.363 . S
C4749 C4748 1.415 . S
H4750 C4747 0.999 . S
H4751 C4732 0.913 . S
H4752 C4770 0.951 . S
H4753 C4772 0.951 . S
H4754 C4774 0.950 . S
H4755 C4775 0.950 . S
H4756 C4777 0.950 . S
H4757 C4780 0.950 . S
H4758 C4781 0.950 . S
H4759 C4783 0.950 . S
H4760 C4784 0.950 . S
H4761 C4785 0.951 . S
H4762 C4787 0.951 . S
H4763 C4789 0.950 . S
H4764 C4790 0.950 . S
H4765 C4792 0.950 . S
H4766 C4795 0.950 . S
H4767 C4796 0.950 . S
H4768 C4798 0.950 . S
H4769 C4799 0.950 . S
C4770 H4752 0.951 . S
C4770 C4771 1.366 . S
C4770 C4772 1.388 . S
C4771 C4770 1.366 . S
C4771 C4775 1.385 . S
C4772 H4753 0.951 . S
C4772 C4770 1.388 . S
C4772 C4773 1.366 . S
C4773 C4772 1.366 . S
C4773 C4774 1.414 . S
C4773 C4776 1.499 . S
C4774 H4754 0.950 . S
C4774 C4773 1.414 . S
C4774 C4775 1.374 . S
C4775 H4755 0.950 . S
C4775 C4771 1.385 . S
C4775 C4774 1.374 . S
C4776 C4773 1.499 . S
C4776 C4777 1.373 . S
C4776 C4778 1.389 . S
C4777 H4756 0.950 . S
C4777 C4776 1.373 . S
C4777 C4793 1.377 . S
C4778 C4776 1.389 . S
C4778 C4779 1.524 . S
C4778 C4792 1.377 . S
C4779 C4778 1.524 . S
C4779 C4780 1.397 . S
C4779 C4784 1.363 . S
C4780 H4757 0.950 . S
C4780 C4779 1.397 . S
C4780 C4781 1.334 . S
C4781 H4758 0.950 . S
C4781 C4780 1.334 . S
C4781 C4782 1.287 . S
C4782 C4781 1.287 . S
C4782 C4783 1.524 . S
C4782 H4801 0.913 . S
C4783 H4759 0.950 . S
C4783 C4782 1.524 . S
C4783 C4784 1.415 . S
C4784 H4760 0.950 . S
C4784 C4779 1.363 . S
C4784 C4783 1.415 . S
C4785 H4761 0.951 . S
C4785 C4786 1.366 . S
C4785 C4787 1.388 . S
C4786 C4785 1.366 . S
C4786 C4790 1.385 . S
C4787 H4762 0.951 . S
C4787 C4785 1.388 . S
C4787 C4788 1.366 . S
C4788 C4787 1.366 . S
C4788 C4789 1.414 . S
C4788 C4791 1.499 . S
C4789 H4763 0.950 . S
C4789 C4788 1.414 . S
C4789 C4790 1.374 . S
C4790 H4764 0.950 . S
C4790 C4786 1.385 . S
C4790 C4789 1.374 . S
C4791 C4788 1.499 . S
C4791 C4792 1.373 . S
C4791 C4793 1.389 . S
C4792 H4765 0.950 . S
C4792 C4778 1.377 . S
C4792 C4791 1.373 . S
C4793 C4777 1.377 . S
C4793 C4791 1.389 . S
C4793 C4794 1.524 . S
C4794 C4793 1.524 . S
C4794 C4795 1.397 . S
C4794 C4799 1.363 . S
C4795 H4766 0.950 . S
C4795 C4794 1.397 . S
C4795 C4796 1.334 . S
C4796 H4767 0.950 . S
C4796 C4795 1.334 . S
C4796 C4797 1.287 . S
C4797 C4796 1.287 . S
C4797 C4798 1.524 . S
C4797 H4800 0.999 . S
C4798 H4768 0.950 . S
C4798 C4797 1.524 . S
C4798 C4799 1.415 . S
C4799 H4769 0.950 . S
C4799 C4794 1.363 . S
C4799 C4798 1.415 . S
H4800 C4797 0.999 . S
H4801 C4782 0.913 . S
H4802 C4820 0.951 . S
H4803 C4822 0.951 . S
H4804 C4824 0.950 . S
H4805 C4825 0.950 . S
H4806 C4827 0.950 . S
H4807 C4830 0.950 . S
H4808 C4831 0.950 . S
H4809 C4833 0.950 . S
H4810 C4834 0.950 . S
H4811 C4835 0.951 . S
H4812 C4837 0.951 . S
H4813 C4839 0.950 . S
H4814 C4840 0.950 . S
H4815 C4842 0.950 . S
H4816 C4845 0.950 . S
H4817 C4846 0.950 . S
H4818 C4848 0.950 . S
H4819 C4849 0.950 . S
C4820 H4802 0.951 . S
C4820 C4821 1.366 . S
C4820 C4822 1.388 . S
C4821 C4820 1.366 . S
C4821 C4825 1.385 . S
C4822 H4803 0.951 . S
C4822 C4820 1.388 . S
C4822 C4823 1.366 . S
C4823 C4822 1.366 . S
C4823 C4824 1.414 . S
C4823 C4826 1.499 . S
C4824 H4804 0.950 . S
C4824 C4823 1.414 . S
C4824 C4825 1.374 . S
C4825 H4805 0.950 . S
C4825 C4821 1.385 . S
C4825 C4824 1.374 . S
C4826 C4823 1.499 . S
C4826 C4827 1.373 . S
C4826 C4828 1.389 . S
C4827 H4806 0.950 . S
C4827 C4826 1.373 . S
C4827 C4843 1.377 . S
C4828 C4826 1.389 . S
C4828 C4829 1.524 . S
C4828 C4842 1.377 . S
C4829 C4828 1.524 . S
C4829 C4830 1.397 . S
C4829 C4834 1.363 . S
C4830 H4807 0.950 . S
C4830 C4829 1.397 . S
C4830 C4831 1.334 . S
C4831 H4808 0.950 . S
C4831 C4830 1.334 . S
C4831 C4832 1.287 . S
C4832 C4831 1.287 . S
C4832 C4833 1.524 . S
C4832 H4851 0.913 . S
C4833 H4809 0.950 . S
C4833 C4832 1.524 . S
C4833 C4834 1.415 . S
C4834 H4810 0.950 . S
C4834 C4829 1.363 . S
C4834 C4833 1.415 . S
C4835 H4811 0.951 . S
C4835 C4836 1.366 . S
C4835 C4837 1.388 . S
C4836 C4835 1.366 . S
C4836 C4840 1.385 . S
C4837 H4812 0.951 . S
C4837 C4835 1.388 . S
C4837 C4838 1.366 . S
C4838 C4837 1.366 . S
C4838 C4839 1.414 . S
C4838 C4841 1.499 . S
C4839 H4813 0.950 . S
C4839 C4838 1.414 . S
C4839 C4840 1.374 . S
C4840 H4814 0.950 . S
C4840 C4836 1.385 . S
C4840 C4839 1.374 . S
C4841 C4838 1.499 . S
C4841 C4842 1.373 . S
C4841 C4843 1.389 . S
C4842 H4815 0.950 . S
C4842 C4828 1.377 . S
C4842 C4841 1.373 . S
C4843 C4827 1.377 . S
C4843 C4841 1.389 . S
C4843 C4844 1.524 . S
C4844 C4843 1.524 . S
C4844 C4845 1.397 . S
C4844 C4849 1.363 . S
C4845 H4816 0.950 . S
C4845 C4844 1.397 . S
C4845 C4846 1.334 . S
C4846 H4817 0.950 . S
C4846 C4845 1.334 . S
C4846 C4847 1.287 . S
C4847 C4846 1.287 . S
C4847 C4848 1.524 . S
C4847 H4850 0.999 . S
C4848 H4818 0.950 . S
C4848 C4847 1.524 . S
C4848 C4849 1.415 . S
C4849 H4819 0.950 . S
C4849 C4844 1.363 . S
C4849 C4848 1.415 . S
H4850 C4847 0.999 . S
H4851 C4832 0.913 . S
H4852 C4870 0.951 . S
H4853 C4872 0.951 . S
H4854 C4874 0.950 . S
H4855 C4875 0.950 . S
H4856 C4877 0.950 . S
H4857 C4880 0.954 . S
H4858 C4881 0.950 . S
H4859 C4883 0.950 . S
H4860 C4884 0.950 . S
H4861 C4885 0.951 . S
H4862 C4887 0.951 . S
H4863 C4889 0.950 . S
H4864 C4890 0.950 . S
H4865 C4892 0.950 1_655 S
H4866 C4895 0.950 . S
H4867 C4896 0.950 . S
H4868 C4898 0.950 . S
H4869 C4899 0.950 . S
C4870 H4852 0.951 . S
C4870 C4871 1.366 . S
C4870 C4872 1.388 . S
C4871 C4870 1.366 . S
C4871 C4875 1.385 . S
C4872 H4853 0.951 . S
C4872 C4870 1.388 . S
C4872 C4873 1.366 . S
C4873 C4872 1.366 . S
C4873 C4874 1.414 . S
C4873 C4876 1.499 . S
C4874 H4854 0.950 . S
C4874 C4873 1.414 . S
C4874 C4875 1.374 . S
C4875 H4855 0.950 . S
C4875 C4871 1.385 . S
C4875 C4874 1.374 . S
C4876 C4873 1.499 . S
C4876 C4877 1.373 . S
C4876 C4878 1.389 . S
C4877 H4856 0.950 . S
C4877 C4876 1.373 . S
C4877 C4893 1.377 . S
C4878 C4876 1.389 . S
C4878 C4879 1.524 1_455 S
C4878 C4892 1.377 . S
C4879 C4878 1.524 1_655 S
C4879 C4880 1.397 . S
C4879 C4884 1.363 . S
C4880 H4857 0.954 . S
C4880 C4879 1.397 . S
C4880 C4881 1.334 . S
C4881 H4858 0.950 . S
C4881 C4880 1.334 . S
C4881 C4882 1.287 . S
C4882 C4881 1.287 . S
C4882 C4883 1.524 . S
C4882 H4901 0.913 . S
C4883 H4859 0.950 . S
C4883 C4882 1.524 . S
C4883 C4884 1.415 . S
C4884 H4860 0.950 . S
C4884 C4879 1.363 . S
C4884 C4883 1.415 . S
C4885 H4861 0.951 . S
C4885 C4886 1.366 . S
C4885 C4887 1.388 . S
C4886 C4885 1.366 . S
C4886 C4890 1.385 . S
C4887 H4862 0.951 . S
C4887 C4885 1.388 . S
C4887 C4888 1.366 . S
C4888 C4887 1.366 . S
C4888 C4889 1.414 . S
C4888 C4891 1.499 . S
C4889 H4863 0.950 . S
C4889 C4888 1.414 . S
C4889 C4890 1.374 . S
C4890 H4864 0.950 . S
C4890 C4886 1.385 . S
C4890 C4889 1.374 . S
C4891 C4888 1.499 . S
C4891 C4892 1.373 . S
C4891 C4893 1.389 . S
C4892 H4865 0.950 1_455 S
C4892 C4878 1.377 . S
C4892 C4891 1.373 . S
C4893 C4877 1.377 . S
C4893 C4891 1.389 . S
C4893 C4894 1.524 . S
C4894 C4893 1.524 . S
C4894 C4895 1.397 . S
C4894 C4899 1.363 . S
C4895 H4866 0.950 . S
C4895 C4894 1.397 . S
C4895 C4896 1.334 . S
C4896 H4867 0.950 . S
C4896 C4895 1.334 . S
C4896 C4897 1.287 . S
C4897 C4896 1.287 . S
C4897 C4898 1.524 . S
C4897 H4900 0.999 . S
C4898 H4868 0.950 . S
C4898 C4897 1.524 . S
C4898 C4899 1.415 . S
C4899 H4869 0.950 . S
C4899 C4894 1.363 . S
C4899 C4898 1.415 . S
H4900 C4897 0.999 . S
H4901 C4882 0.913 . S
H4902 C4920 0.951 . S
H4903 C4922 0.951 . S
H4904 C4924 0.950 . S
H4905 C4925 0.950 . S
H4906 C4927 0.950 . S
H4907 C4930 0.950 . S
H4908 C4931 0.950 . S
H4909 C4933 0.950 . S
H4910 C4934 0.950 . S
H4911 C4935 0.951 . S
H4912 C4937 0.951 . S
H4913 C4939 0.950 . S
H4914 C4940 0.950 . S
H4915 C4942 0.950 . S
H4916 C4945 0.950 . S
H4917 C4946 0.950 . S
H4918 C4948 0.950 . S
H4919 C4949 0.950 . S
C4920 H4902 0.951 . S
C4920 C4921 1.366 . S
C4920 C4922 1.388 . S
C4921 C4920 1.366 . S
C4921 C4925 1.385 . S
C4922 H4903 0.951 . S
C4922 C4920 1.388 . S
C4922 C4923 1.366 . S
C4923 C4922 1.366 . S
C4923 C4924 1.414 . S
C4923 C4926 1.499 . S
C4924 H4904 0.950 . S
C4924 C4923 1.414 . S
C4924 C4925 1.374 . S
C4925 H4905 0.950 . S
C4925 C4921 1.385 . S
C4925 C4924 1.374 . S
C4926 C4923 1.499 . S
C4926 C4927 1.373 . S
C4926 C4928 1.389 . S
C4927 H4906 0.950 . S
C4927 C4926 1.373 . S
C4927 C4943 1.377 . S
C4928 C4926 1.389 . S
C4928 C4929 1.524 . S
C4928 C4942 1.377 . S
C4929 C4928 1.524 . S
C4929 C4930 1.397 . S
C4929 C4934 1.363 . S
C4930 H4907 0.950 . S
C4930 C4929 1.397 . S
C4930 C4931 1.334 . S
C4931 H4908 0.950 . S
C4931 C4930 1.334 . S
C4931 C4932 1.287 . S
C4932 C4931 1.287 . S
C4932 C4933 1.524 . S
C4932 H4951 0.913 . S
C4933 H4909 0.950 . S
C4933 C4932 1.524 . S
C4933 C4934 1.415 . S
C4934 H4910 0.950 . S
C4934 C4929 1.363 . S
C4934 C4933 1.415 . S
C4935 H4911 0.951 . S
C4935 C4936 1.366 . S
C4935 C4937 1.388 . S
C4936 C4935 1.366 . S
C4936 C4940 1.385 . S
C4937 H4912 0.951 . S
C4937 C4935 1.388 . S
C4937 C4938 1.366 . S
C4938 C4937 1.366 . S
C4938 C4939 1.414 . S
C4938 C4941 1.499 . S
C4939 H4913 0.950 . S
C4939 C4938 1.414 . S
C4939 C4940 1.374 . S
C4940 H4914 0.950 . S
C4940 C4936 1.385 . S
C4940 C4939 1.374 . S
C4941 C4938 1.499 . S
C4941 C4942 1.373 . S
C4941 C4943 1.389 . S
C4942 H4915 0.950 . S
C4942 C4928 1.377 . S
C4942 C4941 1.373 . S
C4943 C4927 1.377 . S
C4943 C4941 1.389 . S
C4943 C4944 1.524 . S
C4944 C4943 1.524 . S
C4944 C4945 1.397 . S
C4944 C4949 1.363 . S
C4945 H4916 0.950 . S
C4945 C4944 1.397 . S
C4945 C4946 1.334 . S
C4946 H4917 0.950 . S
C4946 C4945 1.334 . S
C4946 C4947 1.287 . S
C4947 C4946 1.287 . S
C4947 C4948 1.524 . S
C4947 H4950 0.999 . S
C4948 H4918 0.950 . S
C4948 C4947 1.524 . S
C4948 C4949 1.415 . S
C4949 H4919 0.950 . S
C4949 C4944 1.363 . S
C4949 C4948 1.415 . S
H4950 C4947 0.999 . S
H4951 C4932 0.913 . S
H4952 C4970 0.951 . S
H4953 C4972 0.951 . S
H4954 C4974 0.950 . S
H4955 C4975 0.950 . S
H4956 C4977 0.950 . S
H4957 C4980 0.950 . S
H4958 C4981 0.950 . S
H4959 C4983 0.950 . S
H4960 C4984 0.950 . S
H4961 C4985 0.951 . S
H4962 C4987 0.951 . S
H4963 C4989 0.950 . S
H4964 C4990 0.950 . S
H4965 C4992 0.950 . S
H4966 C4995 0.950 . S
H4967 C4996 0.950 . S
H4968 C4998 0.950 . S
H4969 C4999 0.950 . S
C4970 H4952 0.951 . S
C4970 C4971 1.366 . S
C4970 C4972 1.388 . S
C4971 C4970 1.366 . S
C4971 C4975 1.385 . S
C4972 H4953 0.951 . S
C4972 C4970 1.388 . S
C4972 C4973 1.366 . S
C4973 C4972 1.366 . S
C4973 C4974 1.414 . S
C4973 C4976 1.499 . S
C4974 H4954 0.950 . S
C4974 C4973 1.414 . S
C4974 C4975 1.374 . S
C4975 H4955 0.950 . S
C4975 C4971 1.385 . S
C4975 C4974 1.374 . S
C4976 C4973 1.499 . S
C4976 C4977 1.373 . S
C4976 C4978 1.389 . S
C4977 H4956 0.950 . S
C4977 C4976 1.373 . S
C4977 C4993 1.377 . S
C4978 C4976 1.389 . S
C4978 C4979 1.524 . S
C4978 C4992 1.377 . S
C4979 C4978 1.524 . S
C4979 C4980 1.397 . S
C4979 C4984 1.363 . S
C4980 H4957 0.950 . S
C4980 C4979 1.397 . S
C4980 C4981 1.334 . S
C4981 H4958 0.950 . S
C4981 C4980 1.334 . S
C4981 C4982 1.287 . S
C4982 C4981 1.287 . S
C4982 C4983 1.524 . S
C4982 H5001 0.913 . S
C4983 H4959 0.950 . S
C4983 C4982 1.524 . S
C4983 C4984 1.415 . S
C4984 H4960 0.950 . S
C4984 C4979 1.363 . S
C4984 C4983 1.415 . S
C4985 H4961 0.951 . S
C4985 C4986 1.366 . S
C4985 C4987 1.388 . S
C4986 C4985 1.366 . S
C4986 C4990 1.385 . S
C4987 H4962 0.951 . S
C4987 C4985 1.388 . S
C4987 C4988 1.366 . S
C4988 C4987 1.366 . S
C4988 C4989 1.414 . S
C4988 C4991 1.499 . S
C4989 H4963 0.950 . S
C4989 C4988 1.414 . S
C4989 C4990 1.374 . S
C4990 H4964 0.950 . S
C4990 C4986 1.385 . S
C4990 C4989 1.374 . S
C4991 C4988 1.499 . S
C4991 C4992 1.373 . S
C4991 C4993 1.389 . S
C4992 H4965 0.950 . S
C4992 C4978 1.377 . S
C4992 C4991 1.373 . S
C4993 C4977 1.377 . S
C4993 C4991 1.389 . S
C4993 C4994 1.524 . S
C4994 C4993 1.524 . S
C4994 C4995 1.397 . S
C4994 C4999 1.363 . S
C4995 H4966 0.950 . S
C4995 C4994 1.397 . S
C4995 C4996 1.334 . S
C4996 H4967 0.950 . S
C4996 C4995 1.334 . S
C4996 C4997 1.287 . S
C4997 C4996 1.287 . S
C4997 C4998 1.524 . S
C4997 H5000 0.999 . S
C4998 H4968 0.950 . S
C4998 C4997 1.524 . S
C4998 C4999 1.415 . S
C4999 H4969 0.950 . S
C4999 C4994 1.363 . S
C4999 C4998 1.415 . S
H5000 C4997 0.999 . S
H5001 C4982 0.913 . S
H5002 C5020 0.951 . S
H5003 C5022 0.951 . S
H5004 C5024 0.950 . S
H5005 C5025 0.950 . S
H5006 C5027 0.950 . S
H5007 C5030 0.950 . S
H5008 C5031 0.950 . S
H5009 C5033 0.950 . S
H5010 C5034 0.950 . S
H5011 C5035 0.951 . S
H5012 C5037 0.951 . S
H5013 C5039 0.950 . S
H5014 C5040 0.950 . S
H5015 C5042 0.950 . S
H5016 C5045 0.950 . S
H5017 C5046 0.950 . S
H5018 C5048 0.950 . S
H5019 C5049 0.950 . S
C5020 H5002 0.951 . S
C5020 C5021 1.366 . S
C5020 C5022 1.388 . S
C5021 C5020 1.366 . S
C5021 C5025 1.385 . S
C5022 H5003 0.951 . S
C5022 C5020 1.388 . S
C5022 C5023 1.366 . S
C5023 C5022 1.366 . S
C5023 C5024 1.414 . S
C5023 C5026 1.499 . S
C5024 H5004 0.950 . S
C5024 C5023 1.414 . S
C5024 C5025 1.374 . S
C5025 H5005 0.950 . S
C5025 C5021 1.385 . S
C5025 C5024 1.374 . S
C5026 C5023 1.499 . S
C5026 C5027 1.373 . S
C5026 C5028 1.389 . S
C5027 H5006 0.950 . S
C5027 C5026 1.373 . S
C5027 C5043 1.377 . S
C5028 C5026 1.389 . S
C5028 C5029 1.524 . S
C5028 C5042 1.377 . S
C5029 C5028 1.524 . S
C5029 C5030 1.397 . S
C5029 C5034 1.363 . S
C5030 H5007 0.950 . S
C5030 C5029 1.397 . S
C5030 C5031 1.334 . S
C5031 H5008 0.950 . S
C5031 C5030 1.334 . S
C5031 C5032 1.287 . S
C5032 C5031 1.287 . S
C5032 C5033 1.524 . S
C5032 H5051 0.913 . S
C5033 H5009 0.950 . S
C5033 C5032 1.524 . S
C5033 C5034 1.415 . S
C5034 H5010 0.950 . S
C5034 C5029 1.363 . S
C5034 C5033 1.415 . S
C5035 H5011 0.951 . S
C5035 C5036 1.366 . S
C5035 C5037 1.388 . S
C5036 C5035 1.366 . S
C5036 C5040 1.385 . S
C5037 H5012 0.951 . S
C5037 C5035 1.388 . S
C5037 C5038 1.366 . S
C5038 C5037 1.366 . S
C5038 C5039 1.414 . S
C5038 C5041 1.499 . S
C5039 H5013 0.950 . S
C5039 C5038 1.414 . S
C5039 C5040 1.374 . S
C5040 H5014 0.950 . S
C5040 C5036 1.385 . S
C5040 C5039 1.374 . S
C5041 C5038 1.499 . S
C5041 C5042 1.373 . S
C5041 C5043 1.389 . S
C5042 H5015 0.950 . S
C5042 C5028 1.377 . S
C5042 C5041 1.373 . S
C5043 C5027 1.377 . S
C5043 C5041 1.389 . S
C5043 C5044 1.524 . S
C5044 C5043 1.524 . S
C5044 C5045 1.397 . S
C5044 C5049 1.363 . S
C5045 H5016 0.950 . S
C5045 C5044 1.397 . S
C5045 C5046 1.334 . S
C5046 H5017 0.950 . S
C5046 C5045 1.334 . S
C5046 C5047 1.287 . S
C5047 C5046 1.287 . S
C5047 C5048 1.524 . S
C5047 H5050 0.999 . S
C5048 H5018 0.950 . S
C5048 C5047 1.524 . S
C5048 C5049 1.415 . S
C5049 H5019 0.950 . S
C5049 C5044 1.363 . S
C5049 C5048 1.415 . S
H5050 C5047 0.999 . S
H5051 C5032 0.913 . S
H5052 C5070 0.951 . S
H5053 C5072 0.951 . S
H5054 C5074 0.950 . S
H5055 C5075 0.950 . S
H5056 C5077 0.950 . S
H5057 C5080 0.950 . S
H5058 C5081 0.950 . S
H5059 C5083 0.950 . S
H5060 C5084 0.950 . S
H5061 C5085 0.951 . S
H5062 C5087 0.951 . S
H5063 C5089 0.950 . S
H5064 C5090 0.950 . S
H5065 C5092 0.950 . S
H5066 C5095 0.950 . S
H5067 C5096 0.950 . S
H5068 C5098 0.950 . S
H5069 C5099 0.950 . S
C5070 H5052 0.951 . S
C5070 C5071 1.366 . S
C5070 C5072 1.388 . S
C5071 C5070 1.366 . S
C5071 C5075 1.385 . S
C5072 H5053 0.951 . S
C5072 C5070 1.388 . S
C5072 C5073 1.366 . S
C5073 C5072 1.366 . S
C5073 C5074 1.414 . S
C5073 C5076 1.499 . S
C5074 H5054 0.950 . S
C5074 C5073 1.414 . S
C5074 C5075 1.374 . S
C5075 H5055 0.950 . S
C5075 C5071 1.385 . S
C5075 C5074 1.374 . S
C5076 C5073 1.499 . S
C5076 C5077 1.373 . S
C5076 C5078 1.389 . S
C5077 H5056 0.950 . S
C5077 C5076 1.373 . S
C5077 C5093 1.377 . S
C5078 C5076 1.389 . S
C5078 C5079 1.524 . S
C5078 C5092 1.377 . S
C5079 C5078 1.524 . S
C5079 C5080 1.397 . S
C5079 C5084 1.363 . S
C5080 H5057 0.950 . S
C5080 C5079 1.397 . S
C5080 C5081 1.334 . S
C5081 H5058 0.950 . S
C5081 C5080 1.334 . S
C5081 C5082 1.287 . S
C5082 C5081 1.287 . S
C5082 C5083 1.524 . S
C5082 H5101 0.913 . S
C5083 H5059 0.950 . S
C5083 C5082 1.524 . S
C5083 C5084 1.415 . S
C5084 H5060 0.950 . S
C5084 C5079 1.363 . S
C5084 C5083 1.415 . S
C5085 H5061 0.951 . S
C5085 C5086 1.366 . S
C5085 C5087 1.388 . S
C5086 C5085 1.366 . S
C5086 C5090 1.385 . S
C5087 H5062 0.951 . S
C5087 C5085 1.388 . S
C5087 C5088 1.366 . S
C5088 C5087 1.366 . S
C5088 C5089 1.414 . S
C5088 C5091 1.499 . S
C5089 H5063 0.950 . S
C5089 C5088 1.414 . S
C5089 C5090 1.374 . S
C5090 H5064 0.950 . S
C5090 C5086 1.385 . S
C5090 C5089 1.374 . S
C5091 C5088 1.499 . S
C5091 C5092 1.373 . S
C5091 C5093 1.389 . S
C5092 H5065 0.950 . S
C5092 C5078 1.377 . S
C5092 C5091 1.373 . S
C5093 C5077 1.377 . S
C5093 C5091 1.389 . S
C5093 C5094 1.524 . S
C5094 C5093 1.524 . S
C5094 C5095 1.397 . S
C5094 C5099 1.363 . S
C5095 H5066 0.950 . S
C5095 C5094 1.397 . S
C5095 C5096 1.334 . S
C5096 H5067 0.950 . S
C5096 C5095 1.334 . S
C5096 C5097 1.287 . S
C5097 C5096 1.287 . S
C5097 C5098 1.524 . S
C5097 H5100 0.999 . S
C5098 H5068 0.950 . S
C5098 C5097 1.524 . S
C5098 C5099 1.415 . S
C5099 H5069 0.950 . S
C5099 C5094 1.363 . S
C5099 C5098 1.415 . S
H5100 C5097 0.999 . S
H5101 C5082 0.913 . S
H5102 C5120 0.951 . S
H5103 C5122 0.951 . S
H5104 C5124 0.950 . S
H5105 C5125 0.950 . S
H5106 C5127 0.950 . S
H5107 C5130 0.950 . S
H5108 C5131 0.950 . S
H5109 C5133 0.950 . S
H5110 C5134 0.950 . S
H5111 C5135 0.951 . S
H5112 C5137 0.951 . S
H5113 C5139 0.950 . S
H5114 C5140 0.950 . S
H5115 C5142 0.950 . S
H5116 C5145 0.950 . S
H5117 C5146 0.950 . S
H5118 C5148 0.950 . S
H5119 C5149 0.950 . S
C5120 H5102 0.951 . S
C5120 C5121 1.366 . S
C5120 C5122 1.388 . S
C5121 C5120 1.366 . S
C5121 C5125 1.385 . S
C5122 H5103 0.951 . S
C5122 C5120 1.388 . S
C5122 C5123 1.366 . S
C5123 C5122 1.366 . S
C5123 C5124 1.414 . S
C5123 C5126 1.499 . S
C5124 H5104 0.950 . S
C5124 C5123 1.414 . S
C5124 C5125 1.374 . S
C5125 H5105 0.950 . S
C5125 C5121 1.385 . S
C5125 C5124 1.374 . S
C5126 C5123 1.499 . S
C5126 C5127 1.373 . S
C5126 C5128 1.389 . S
C5127 H5106 0.950 . S
C5127 C5126 1.373 . S
C5127 C5143 1.377 . S
C5128 C5126 1.389 . S
C5128 C5129 1.524 . S
C5128 C5142 1.377 . S
C5129 C5128 1.524 . S
C5129 C5130 1.397 . S
C5129 C5134 1.363 . S
C5130 H5107 0.950 . S
C5130 C5129 1.397 . S
C5130 C5131 1.334 . S
C5131 H5108 0.950 . S
C5131 C5130 1.334 . S
C5131 C5132 1.287 . S
C5132 C5131 1.287 . S
C5132 C5133 1.524 . S
C5132 H5151 0.913 . S
C5133 H5109 0.950 . S
C5133 C5132 1.524 . S
C5133 C5134 1.415 . S
C5134 H5110 0.950 . S
C5134 C5129 1.363 . S
C5134 C5133 1.415 . S
C5135 H5111 0.951 . S
C5135 C5136 1.366 . S
C5135 C5137 1.388 . S
C5136 C5135 1.366 . S
C5136 C5140 1.385 . S
C5137 H5112 0.951 . S
C5137 C5135 1.388 . S
C5137 C5138 1.366 . S
C5138 C5137 1.366 . S
C5138 C5139 1.414 . S
C5138 C5141 1.499 . S
C5139 H5113 0.950 . S
C5139 C5138 1.414 . S
C5139 C5140 1.374 . S
C5140 H5114 0.950 . S
C5140 C5136 1.385 . S
C5140 C5139 1.374 . S
C5141 C5138 1.499 . S
C5141 C5142 1.373 . S
C5141 C5143 1.389 . S
C5142 H5115 0.950 . S
C5142 C5128 1.377 . S
C5142 C5141 1.373 . S
C5143 C5127 1.377 . S
C5143 C5141 1.389 . S
C5143 C5144 1.524 . S
C5144 C5143 1.524 . S
C5144 C5145 1.397 . S
C5144 C5149 1.363 . S
C5145 H5116 0.950 . S
C5145 C5144 1.397 . S
C5145 C5146 1.334 . S
C5146 H5117 0.950 . S
C5146 C5145 1.334 . S
C5146 C5147 1.287 . S
C5147 C5146 1.287 . S
C5147 C5148 1.524 . S
C5147 H5150 0.999 . S
C5148 H5118 0.950 . S
C5148 C5147 1.524 . S
C5148 C5149 1.415 . S
C5149 H5119 0.950 . S
C5149 C5144 1.363 . S
C5149 C5148 1.415 . S
H5150 C5147 0.999 . S
H5151 C5132 0.913 . S
H5152 C5170 0.951 . S
H5153 C5172 0.951 . S
H5154 C5174 0.950 . S
H5155 C5175 0.950 . S
H5156 C5177 0.950 . S
H5157 C5180 0.950 . S
H5158 C5181 0.950 . S
H5159 C5183 0.950 . S
H5160 C5184 0.950 . S
H5161 C5185 0.951 . S
H5162 C5187 0.951 . S
H5163 C5189 0.950 . S
H5164 C5190 0.950 . S
H5165 C5192 0.950 . S
H5166 C5195 0.950 . S
H5167 C5196 0.950 . S
H5168 C5198 0.950 . S
H5169 C5199 0.950 . S
C5170 H5152 0.951 . S
C5170 C5171 1.366 . S
C5170 C5172 1.388 . S
C5171 C5170 1.366 . S
C5171 C5175 1.385 . S
C5172 H5153 0.951 . S
C5172 C5170 1.388 . S
C5172 C5173 1.366 . S
C5173 C5172 1.366 . S
C5173 C5174 1.414 . S
C5173 C5176 1.499 . S
C5174 H5154 0.950 . S
C5174 C5173 1.414 . S
C5174 C5175 1.374 . S
C5175 H5155 0.950 . S
C5175 C5171 1.385 . S
C5175 C5174 1.374 . S
C5176 C5173 1.499 . S
C5176 C5177 1.373 . S
C5176 C5178 1.389 . S
C5177 H5156 0.950 . S
C5177 C5176 1.373 . S
C5177 C5193 1.377 . S
C5178 C5176 1.389 . S
C5178 C5179 1.524 . S
C5178 C5192 1.377 . S
C5179 C5178 1.524 . S
C5179 C5180 1.397 . S
C5179 C5184 1.363 . S
C5180 H5157 0.950 . S
C5180 C5179 1.397 . S
C5180 C5181 1.334 . S
C5181 H5158 0.950 . S
C5181 C5180 1.334 . S
C5181 C5182 1.287 . S
C5182 C5181 1.287 . S
C5182 C5183 1.524 . S
C5182 H5201 0.913 . S
C5183 H5159 0.950 . S
C5183 C5182 1.524 . S
C5183 C5184 1.415 . S
C5184 H5160 0.950 . S
C5184 C5179 1.363 . S
C5184 C5183 1.415 . S
C5185 H5161 0.951 . S
C5185 C5186 1.366 . S
C5185 C5187 1.388 . S
C5186 C5185 1.366 . S
C5186 C5190 1.385 . S
C5187 H5162 0.951 . S
C5187 C5185 1.388 . S
C5187 C5188 1.366 . S
C5188 C5187 1.366 . S
C5188 C5189 1.414 . S
C5188 C5191 1.499 . S
C5189 H5163 0.950 . S
C5189 C5188 1.414 . S
C5189 C5190 1.374 . S
C5190 H5164 0.950 . S
C5190 C5186 1.385 . S
C5190 C5189 1.374 . S
C5191 C5188 1.499 . S
C5191 C5192 1.373 . S
C5191 C5193 1.389 . S
C5192 H5165 0.950 . S
C5192 C5178 1.377 . S
C5192 C5191 1.373 . S
C5193 C5177 1.377 . S
C5193 C5191 1.389 . S
C5193 C5194 1.524 . S
C5194 C5193 1.524 . S
C5194 C5195 1.397 . S
C5194 C5199 1.363 . S
C5195 H5166 0.950 . S
C5195 C5194 1.397 . S
C5195 C5196 1.334 . S
C5196 H5167 0.950 . S
C5196 C5195 1.334 . S
C5196 C5197 1.287 . S
C5197 C5196 1.287 . S
C5197 C5198 1.524 . S
C5197 H5200 0.999 . S
C5198 H5168 0.950 . S
C5198 C5197 1.524 . S
C5198 C5199 1.415 . S
C5199 H5169 0.950 . S
C5199 C5194 1.363 . S
C5199 C5198 1.415 . S
H5200 C5197 0.999 . S
H5201 C5182 0.913 . S
H5202 C5220 0.951 . S
H5203 C5222 0.951 . S
H5204 C5224 0.950 . S
H5205 C5225 0.950 . S
H5206 C5227 0.950 . S
H5207 C5230 0.950 . S
H5208 C5231 0.950 . S
H5209 C5233 0.950 . S
H5210 C5234 0.950 . S
H5211 C5235 0.951 . S
H5212 C5237 0.951 . S
H5213 C5239 0.950 . S
H5214 C5240 0.950 . S
H5215 C5242 0.950 . S
H5216 C5245 0.950 . S
H5217 C5246 0.950 . S
H5218 C5248 0.950 . S
H5219 C5249 0.950 . S
C5220 H5202 0.951 . S
C5220 C5221 1.366 . S
C5220 C5222 1.388 . S
C5221 C5220 1.366 . S
C5221 C5225 1.385 . S
C5222 H5203 0.951 . S
C5222 C5220 1.388 . S
C5222 C5223 1.366 . S
C5223 C5222 1.366 . S
C5223 C5224 1.414 . S
C5223 C5226 1.499 . S
C5224 H5204 0.950 . S
C5224 C5223 1.414 . S
C5224 C5225 1.374 . S
C5225 H5205 0.950 . S
C5225 C5221 1.385 . S
C5225 C5224 1.374 . S
C5226 C5223 1.499 . S
C5226 C5227 1.373 . S
C5226 C5228 1.389 . S
C5227 H5206 0.950 . S
C5227 C5226 1.373 . S
C5227 C5243 1.377 . S
C5228 C5226 1.389 . S
C5228 C5229 1.524 . S
C5228 C5242 1.377 . S
C5229 C5228 1.524 . S
C5229 C5230 1.397 . S
C5229 C5234 1.363 . S
C5230 H5207 0.950 . S
C5230 C5229 1.397 . S
C5230 C5231 1.334 . S
C5231 H5208 0.950 . S
C5231 C5230 1.334 . S
C5231 C5232 1.287 . S
C5232 C5231 1.287 . S
C5232 C5233 1.524 . S
C5232 H5251 0.913 . S
C5233 H5209 0.950 . S
C5233 C5232 1.524 . S
C5233 C5234 1.415 . S
C5234 H5210 0.950 . S
C5234 C5229 1.363 . S
C5234 C5233 1.415 . S
C5235 H5211 0.951 . S
C5235 C5236 1.366 . S
C5235 C5237 1.388 . S
C5236 C5235 1.366 . S
C5236 C5240 1.385 . S
C5237 H5212 0.951 . S
C5237 C5235 1.388 . S
C5237 C5238 1.366 . S
C5238 C5237 1.366 . S
C5238 C5239 1.414 . S
C5238 C5241 1.499 . S
C5239 H5213 0.950 . S
C5239 C5238 1.414 . S
C5239 C5240 1.374 . S
C5240 H5214 0.950 . S
C5240 C5236 1.385 . S
C5240 C5239 1.374 . S
C5241 C5238 1.499 . S
C5241 C5242 1.373 . S
C5241 C5243 1.389 . S
C5242 H5215 0.950 . S
C5242 C5228 1.377 . S
C5242 C5241 1.373 . S
C5243 C5227 1.377 . S
C5243 C5241 1.389 . S
C5243 C5244 1.524 . S
C5244 C5243 1.524 . S
C5244 C5245 1.397 . S
C5244 C5249 1.363 . S
C5245 H5216 0.950 . S
C5245 C5244 1.397 . S
C5245 C5246 1.334 . S
C5246 H5217 0.950 . S
C5246 C5245 1.334 . S
C5246 C5247 1.287 . S
C5247 C5246 1.287 . S
C5247 C5248 1.524 . S
C5247 H5250 0.999 . S
C5248 H5218 0.950 . S
C5248 C5247 1.524 . S
C5248 C5249 1.415 . S
C5249 H5219 0.950 . S
C5249 C5244 1.363 . S
C5249 C5248 1.415 . S
H5250 C5247 0.999 . S
H5251 C5232 0.913 . S
H5252 C5270 0.951 . S
H5253 C5272 0.951 . S
H5254 C5274 0.950 . S
H5255 C5275 0.950 . S
H5256 C5277 0.950 . S
H5257 C5280 0.950 . S
H5258 C5281 0.950 . S
H5259 C5283 0.950 . S
H5260 C5284 0.950 . S
H5261 C5285 0.951 . S
H5262 C5287 0.951 . S
H5263 C5289 0.950 . S
H5264 C5290 0.950 . S
H5265 C5292 0.950 . S
H5266 C5295 0.950 . S
H5267 C5296 0.950 . S
H5268 C5298 0.950 . S
H5269 C5299 0.950 . S
C5270 H5252 0.951 . S
C5270 C5271 1.366 . S
C5270 C5272 1.388 . S
C5271 C5270 1.366 . S
C5271 C5275 1.385 . S
C5272 H5253 0.951 . S
C5272 C5270 1.388 . S
C5272 C5273 1.366 . S
C5273 C5272 1.366 . S
C5273 C5274 1.414 . S
C5273 C5276 1.499 . S
C5274 H5254 0.950 . S
C5274 C5273 1.414 . S
C5274 C5275 1.374 . S
C5275 H5255 0.950 . S
C5275 C5271 1.385 . S
C5275 C5274 1.374 . S
C5276 C5273 1.499 . S
C5276 C5277 1.373 . S
C5276 C5278 1.389 . S
C5277 H5256 0.950 . S
C5277 C5276 1.373 . S
C5277 C5293 1.377 . S
C5278 C5276 1.389 . S
C5278 C5279 1.524 . S
C5278 C5292 1.377 . S
C5279 C5278 1.524 . S
C5279 C5280 1.397 . S
C5279 C5284 1.363 . S
C5280 H5257 0.950 . S
C5280 C5279 1.397 . S
C5280 C5281 1.334 . S
C5281 H5258 0.950 . S
C5281 C5280 1.334 . S
C5281 C5282 1.287 . S
C5282 C5281 1.287 . S
C5282 C5283 1.524 . S
C5282 H5301 0.913 . S
C5283 H5259 0.950 . S
C5283 C5282 1.524 . S
C5283 C5284 1.415 . S
C5284 H5260 0.950 . S
C5284 C5279 1.363 . S
C5284 C5283 1.415 . S
C5285 H5261 0.951 . S
C5285 C5286 1.366 . S
C5285 C5287 1.388 . S
C5286 C5285 1.366 . S
C5286 C5290 1.385 . S
C5287 H5262 0.951 . S
C5287 C5285 1.388 . S
C5287 C5288 1.366 . S
C5288 C5287 1.366 . S
C5288 C5289 1.414 . S
C5288 C5291 1.499 . S
C5289 H5263 0.950 . S
C5289 C5288 1.414 . S
C5289 C5290 1.374 . S
C5290 H5264 0.950 . S
C5290 C5286 1.385 . S
C5290 C5289 1.374 . S
C5291 C5288 1.499 . S
C5291 C5292 1.373 . S
C5291 C5293 1.389 . S
C5292 H5265 0.950 . S
C5292 C5278 1.377 . S
C5292 C5291 1.373 . S
C5293 C5277 1.377 . S
C5293 C5291 1.389 . S
C5293 C5294 1.524 . S
C5294 C5293 1.524 . S
C5294 C5295 1.397 . S
C5294 C5299 1.363 . S
C5295 H5266 0.950 . S
C5295 C5294 1.397 . S
C5295 C5296 1.334 . S
C5296 H5267 0.950 . S
C5296 C5295 1.334 . S
C5296 C5297 1.287 . S
C5297 C5296 1.287 . S
C5297 C5298 1.524 . S
C5297 H5300 0.999 . S
C5298 H5268 0.950 . S
C5298 C5297 1.524 . S
C5298 C5299 1.415 . S
C5299 H5269 0.950 . S
C5299 C5294 1.363 . S
C5299 C5298 1.415 . S
H5300 C5297 0.999 . S
H5301 C5282 0.913 . S
H5302 C5320 0.951 . S
H5303 C5322 0.951 . S
H5304 C5324 0.950 . S
H5305 C5325 0.950 . S
H5306 C5327 0.950 . S
H5307 C5330 0.950 . S
H5308 C5331 0.950 . S
H5309 C5333 0.950 . S
H5310 C5334 0.950 . S
H5311 C5335 0.951 . S
H5312 C5337 0.951 . S
H5313 C5339 0.950 . S
H5314 C5340 0.950 . S
H5315 C5342 0.950 . S
H5316 C5345 0.950 . S
H5317 C5346 0.950 . S
H5318 C5348 0.950 . S
H5319 C5349 0.950 . S
C5320 H5302 0.951 . S
C5320 C5321 1.366 . S
C5320 C5322 1.388 . S
C5321 C5320 1.366 . S
C5321 C5325 1.385 . S
C5322 H5303 0.951 . S
C5322 C5320 1.388 . S
C5322 C5323 1.366 . S
C5323 C5322 1.366 . S
C5323 C5324 1.414 . S
C5323 C5326 1.499 . S
C5324 H5304 0.950 . S
C5324 C5323 1.414 . S
C5324 C5325 1.374 . S
C5325 H5305 0.950 . S
C5325 C5321 1.385 . S
C5325 C5324 1.374 . S
C5326 C5323 1.499 . S
C5326 C5327 1.373 . S
C5326 C5328 1.389 . S
C5327 H5306 0.950 . S
C5327 C5326 1.373 . S
C5327 C5343 1.377 . S
C5328 C5326 1.389 . S
C5328 C5329 1.524 . S
C5328 C5342 1.377 . S
C5329 C5328 1.524 . S
C5329 C5330 1.397 . S
C5329 C5334 1.363 . S
C5330 H5307 0.950 . S
C5330 C5329 1.397 . S
C5330 C5331 1.334 . S
C5331 H5308 0.950 . S
C5331 C5330 1.334 . S
C5331 C5332 1.287 . S
C5332 C5331 1.287 . S
C5332 C5333 1.524 . S
C5332 H5351 0.913 . S
C5333 H5309 0.950 . S
C5333 C5332 1.524 . S
C5333 C5334 1.415 . S
C5334 H5310 0.950 . S
C5334 C5329 1.363 . S
C5334 C5333 1.415 . S
C5335 H5311 0.951 . S
C5335 C5336 1.366 . S
C5335 C5337 1.388 . S
C5336 C5335 1.366 . S
C5336 C5340 1.385 . S
C5337 H5312 0.951 . S
C5337 C5335 1.388 . S
C5337 C5338 1.366 . S
C5338 C5337 1.366 . S
C5338 C5339 1.414 . S
C5338 C5341 1.499 . S
C5339 H5313 0.950 . S
C5339 C5338 1.414 . S
C5339 C5340 1.374 . S
C5340 H5314 0.950 . S
C5340 C5336 1.385 . S
C5340 C5339 1.374 . S
C5341 C5338 1.499 . S
C5341 C5342 1.373 . S
C5341 C5343 1.389 . S
C5342 H5315 0.950 . S
C5342 C5328 1.377 . S
C5342 C5341 1.373 . S
C5343 C5327 1.377 . S
C5343 C5341 1.389 . S
C5343 C5344 1.524 . S
C5344 C5343 1.524 . S
C5344 C5345 1.397 . S
C5344 C5349 1.363 . S
C5345 H5316 0.950 . S
C5345 C5344 1.397 . S
C5345 C5346 1.334 . S
C5346 H5317 0.950 . S
C5346 C5345 1.334 . S
C5346 C5347 1.287 . S
C5347 C5346 1.287 . S
C5347 C5348 1.524 . S
C5347 H5350 0.999 . S
C5348 H5318 0.950 . S
C5348 C5347 1.524 . S
C5348 C5349 1.415 . S
C5349 H5319 0.950 . S
C5349 C5344 1.363 . S
C5349 C5348 1.415 . S
H5350 C5347 0.999 . S
H5351 C5332 0.913 . S
H5352 C5370 0.951 . S
H5353 C5372 0.951 . S
H5354 C5374 0.950 . S
H5355 C5375 0.950 . S
H5356 C5377 0.950 . S
H5357 C5380 0.950 . S
H5358 C5381 0.950 . S
H5359 C5383 0.950 . S
H5360 C5384 0.950 . S
H5361 C5385 0.951 . S
H5362 C5387 0.951 . S
H5363 C5389 0.950 . S
H5364 C5390 0.950 . S
H5365 C5392 0.950 . S
H5366 C5395 0.950 . S
H5367 C5396 0.950 . S
H5368 C5398 0.950 . S
H5369 C5399 0.950 . S
C5370 H5352 0.951 . S
C5370 C5371 1.366 . S
C5370 C5372 1.388 . S
C5371 C5370 1.366 . S
C5371 C5375 1.385 . S
C5372 H5353 0.951 . S
C5372 C5370 1.388 . S
C5372 C5373 1.366 . S
C5373 C5372 1.366 . S
C5373 C5374 1.414 . S
C5373 C5376 1.499 . S
C5374 H5354 0.950 . S
C5374 C5373 1.414 . S
C5374 C5375 1.374 . S
C5375 H5355 0.950 . S
C5375 C5371 1.385 . S
C5375 C5374 1.374 . S
C5376 C5373 1.499 . S
C5376 C5377 1.373 . S
C5376 C5378 1.389 . S
C5377 H5356 0.950 . S
C5377 C5376 1.373 . S
C5377 C5393 1.377 . S
C5378 C5376 1.389 . S
C5378 C5379 1.524 . S
C5378 C5392 1.377 . S
C5379 C5378 1.524 . S
C5379 C5380 1.397 . S
C5379 C5384 1.363 . S
C5380 H5357 0.950 . S
C5380 C5379 1.397 . S
C5380 C5381 1.334 . S
C5381 H5358 0.950 . S
C5381 C5380 1.334 . S
C5381 C5382 1.287 . S
C5382 C5381 1.287 . S
C5382 C5383 1.524 . S
C5382 H5401 0.913 . S
C5383 H5359 0.950 . S
C5383 C5382 1.524 . S
C5383 C5384 1.415 . S
C5384 H5360 0.950 . S
C5384 C5379 1.363 . S
C5384 C5383 1.415 . S
C5385 H5361 0.951 . S
C5385 C5386 1.366 . S
C5385 C5387 1.388 . S
C5386 C5385 1.366 . S
C5386 C5390 1.385 . S
C5387 H5362 0.951 . S
C5387 C5385 1.388 . S
C5387 C5388 1.366 . S
C5388 C5387 1.366 . S
C5388 C5389 1.414 . S
C5388 C5391 1.499 . S
C5389 H5363 0.950 . S
C5389 C5388 1.414 . S
C5389 C5390 1.374 . S
C5390 H5364 0.950 . S
C5390 C5386 1.385 . S
C5390 C5389 1.374 . S
C5391 C5388 1.499 . S
C5391 C5392 1.373 . S
C5391 C5393 1.389 . S
C5392 H5365 0.950 . S
C5392 C5378 1.377 . S
C5392 C5391 1.373 . S
C5393 C5377 1.377 . S
C5393 C5391 1.389 . S
C5393 C5394 1.524 . S
C5394 C5393 1.524 . S
C5394 C5395 1.397 . S
C5394 C5399 1.363 . S
C5395 H5366 0.950 . S
C5395 C5394 1.397 . S
C5395 C5396 1.334 . S
C5396 H5367 0.950 . S
C5396 C5395 1.334 . S
C5396 C5397 1.287 . S
C5397 C5396 1.287 . S
C5397 C5398 1.524 . S
C5397 H5400 0.999 . S
C5398 H5368 0.950 . S
C5398 C5397 1.524 . S
C5398 C5399 1.415 . S
C5399 H5369 0.950 . S
C5399 C5394 1.363 . S
C5399 C5398 1.415 . S
H5400 C5397 0.999 . S
H5401 C5382 0.913 . S
H5402 C5420 0.951 . S
H5403 C5422 0.951 . S
H5404 C5424 0.950 . S
H5405 C5425 0.950 . S
H5406 C5427 0.950 . S
H5407 C5430 0.950 . S
H5408 C5431 0.950 . S
H5409 C5433 0.950 . S
H5410 C5434 0.950 . S
H5411 C5435 0.951 . S
H5412 C5437 0.951 . S
H5413 C5439 0.950 . S
H5414 C5440 0.950 . S
H5415 C5442 0.950 . S
H5416 C5445 0.950 . S
H5417 C5446 0.950 . S
H5418 C5448 0.950 . S
H5419 C5449 0.950 . S
C5420 H5402 0.951 . S
C5420 C5421 1.366 . S
C5420 C5422 1.388 . S
C5421 C5420 1.366 . S
C5421 C5425 1.385 . S
C5422 H5403 0.951 . S
C5422 C5420 1.388 . S
C5422 C5423 1.366 . S
C5423 C5422 1.366 . S
C5423 C5424 1.414 . S
C5423 C5426 1.499 . S
C5424 H5404 0.950 . S
C5424 C5423 1.414 . S
C5424 C5425 1.374 . S
C5425 H5405 0.950 . S
C5425 C5421 1.385 . S
C5425 C5424 1.374 . S
C5426 C5423 1.499 . S
C5426 C5427 1.373 . S
C5426 C5428 1.389 . S
C5427 H5406 0.950 . S
C5427 C5426 1.373 . S
C5427 C5443 1.377 . S
C5428 C5426 1.389 . S
C5428 C5429 1.524 . S
C5428 C5442 1.377 . S
C5429 C5428 1.524 . S
C5429 C5430 1.397 . S
C5429 C5434 1.363 . S
C5430 H5407 0.950 . S
C5430 C5429 1.397 . S
C5430 C5431 1.334 . S
C5431 H5408 0.950 . S
C5431 C5430 1.334 . S
C5431 C5432 1.287 . S
C5432 C5431 1.287 . S
C5432 C5433 1.524 . S
C5432 H5451 0.913 . S
C5433 H5409 0.950 . S
C5433 C5432 1.524 . S
C5433 C5434 1.415 . S
C5434 H5410 0.950 . S
C5434 C5429 1.363 . S
C5434 C5433 1.415 . S
C5435 H5411 0.951 . S
C5435 C5436 1.366 1_545 S
C5435 C5437 1.388 1_545 S
C5436 C5435 1.366 1_565 S
C5436 C5440 1.385 . S
C5437 H5412 0.951 . S
C5437 C5435 1.388 1_565 S
C5437 C5438 1.366 . S
C5438 C5437 1.366 . S
C5438 C5439 1.414 . S
C5438 C5441 1.499 . S
C5439 H5413 0.950 . S
C5439 C5438 1.414 . S
C5439 C5440 1.374 . S
C5440 H5414 0.950 . S
C5440 C5436 1.385 . S
C5440 C5439 1.374 . S
C5441 C5438 1.499 . S
C5441 C5442 1.373 . S
C5441 C5443 1.389 . S
C5442 H5415 0.950 . S
C5442 C5428 1.377 . S
C5442 C5441 1.373 . S
C5443 C5427 1.377 . S
C5443 C5441 1.389 . S
C5443 C5444 1.524 . S
C5444 C5443 1.524 . S
C5444 C5445 1.397 . S
C5444 C5449 1.363 . S
C5445 H5416 0.950 . S
C5445 C5444 1.397 . S
C5445 C5446 1.334 1_565 S
C5446 H5417 0.950 . S
C5446 C5445 1.334 1_545 S
C5446 C5447 1.287 . S
C5447 C5446 1.287 . S
C5447 C5448 1.524 . S
C5447 H5450 0.999 . S
C5448 H5418 0.950 . S
C5448 C5447 1.524 . S
C5448 C5449 1.415 1_545 S
C5449 H5419 0.950 . S
C5449 C5444 1.363 . S
C5449 C5448 1.415 1_565 S
H5450 C5447 0.999 . S
H5451 C5432 0.913 . S
H5452 C5470 0.951 . S
H5453 C5472 0.951 . S
H5454 C5474 0.950 . S
H5455 C5475 0.950 . S
H5456 C5477 0.950 . S
H5457 C5480 0.950 . S
H5458 C5481 0.950 . S
H5459 C5483 0.950 . S
H5460 C5484 0.950 . S
H5461 C5485 0.951 . S
H5462 C5487 0.951 . S
H5463 C5489 0.950 . S
H5464 C5490 0.950 . S
H5465 C5492 0.950 . S
H5466 C5495 0.950 . S
H5467 C5496 0.950 . S
H5468 C5498 0.950 . S
H5469 C5499 0.950 . S
C5470 H5452 0.951 . S
C5470 C5471 1.366 . S
C5470 C5472 1.388 . S
C5471 C5470 1.366 . S
C5471 C5475 1.385 . S
C5472 H5453 0.951 . S
C5472 C5470 1.388 . S
C5472 C5473 1.366 . S
C5473 C5472 1.366 . S
C5473 C5474 1.414 . S
C5473 C5476 1.499 . S
C5474 H5454 0.950 . S
C5474 C5473 1.414 . S
C5474 C5475 1.374 . S
C5475 H5455 0.950 . S
C5475 C5471 1.385 . S
C5475 C5474 1.374 . S
C5476 C5473 1.499 . S
C5476 C5477 1.373 . S
C5476 C5478 1.389 . S
C5477 H5456 0.950 . S
C5477 C5476 1.373 . S
C5477 C5493 1.377 . S
C5478 C5476 1.389 . S
C5478 C5479 1.524 . S
C5478 C5492 1.377 . S
C5479 C5478 1.524 . S
C5479 C5480 1.397 . S
C5479 C5484 1.363 . S
C5480 H5457 0.950 . S
C5480 C5479 1.397 . S
C5480 C5481 1.334 . S
C5481 H5458 0.950 . S
C5481 C5480 1.334 . S
C5481 C5482 1.287 . S
C5482 C5481 1.287 . S
C5482 C5483 1.524 . S
C5482 H5501 0.913 . S
C5483 H5459 0.950 . S
C5483 C5482 1.524 . S
C5483 C5484 1.415 . S
C5484 H5460 0.950 . S
C5484 C5479 1.363 . S
C5484 C5483 1.415 . S
C5485 H5461 0.951 . S
C5485 C5486 1.366 . S
C5485 C5487 1.388 . S
C5486 C5485 1.366 . S
C5486 C5490 1.385 . S
C5487 H5462 0.951 . S
C5487 C5485 1.388 . S
C5487 C5488 1.366 . S
C5488 C5487 1.366 . S
C5488 C5489 1.414 . S
C5488 C5491 1.499 . S
C5489 H5463 0.950 . S
C5489 C5488 1.414 . S
C5489 C5490 1.374 . S
C5490 H5464 0.950 . S
C5490 C5486 1.385 . S
C5490 C5489 1.374 . S
C5491 C5488 1.499 . S
C5491 C5492 1.373 . S
C5491 C5493 1.389 . S
C5492 H5465 0.950 . S
C5492 C5478 1.377 . S
C5492 C5491 1.373 . S
C5493 C5477 1.377 . S
C5493 C5491 1.389 . S
C5493 C5494 1.524 . S
C5494 C5493 1.524 . S
C5494 C5495 1.397 . S
C5494 C5499 1.363 . S
C5495 H5466 0.950 . S
C5495 C5494 1.397 . S
C5495 C5496 1.334 . S
C5496 H5467 0.950 . S
C5496 C5495 1.334 . S
C5496 C5497 1.287 . S
C5497 C5496 1.287 . S
C5497 C5498 1.524 . S
C5497 H5500 0.999 . S
C5498 H5468 0.950 . S
C5498 C5497 1.524 . S
C5498 C5499 1.415 . S
C5499 H5469 0.950 . S
C5499 C5494 1.363 . S
C5499 C5498 1.415 . S
H5500 C5497 0.999 . S
H5501 C5482 0.913 . S
H5502 C5520 0.951 . S
H5503 C5522 0.951 . S
H5504 C5524 0.950 . S
H5505 C5525 0.950 . S
H5506 C5527 1.002 . S
H5507 C5530 0.950 . S
H5508 C5531 0.950 . S
H5509 C5533 0.950 . S
H5510 C5534 0.950 . S
H5511 C5535 0.951 1_556 S
H5512 C5537 0.952 1_556 S
H5513 C5539 0.950 . S
H5514 C5540 0.950 . S
H5515 C5542 0.950 . S
H5516 C5545 0.950 . S
H5517 C5546 0.950 . S
H5518 C5548 0.950 . S
H5519 C5549 0.950 . S
C5520 H5502 0.951 . S
C5520 C5521 1.366 . S
C5520 C5522 1.388 . S
C5521 C5520 1.366 . S
C5521 C5525 1.385 . S
C5522 H5503 0.951 . S
C5522 C5520 1.388 . S
C5522 C5523 1.366 . S
C5523 C5522 1.366 . S
C5523 C5524 1.414 . S
C5523 C5526 1.499 . S
C5524 H5504 0.950 . S
C5524 C5523 1.414 . S
C5524 C5525 1.374 . S
C5525 H5505 0.950 . S
C5525 C5521 1.385 . S
C5525 C5524 1.374 . S
C5526 C5523 1.499 . S
C5526 C5527 1.373 . S
C5526 C5528 1.389 . S
C5527 H5506 1.002 . S
C5527 C5526 1.373 . S
C5527 C5543 1.377 . S
C5528 C5526 1.389 . S
C5528 C5529 1.524 . S
C5528 C5542 1.377 . S
C5529 C5528 1.524 . S
C5529 C5530 1.397 . S
C5529 C5534 1.363 . S
C5530 H5507 0.950 . S
C5530 C5529 1.397 . S
C5530 C5531 1.334 . S
C5531 H5508 0.950 . S
C5531 C5530 1.334 . S
C5531 C5532 1.287 . S
C5532 C5531 1.287 . S
C5532 C5533 1.524 . S
C5532 H5551 0.913 . S
C5533 H5509 0.950 . S
C5533 C5532 1.524 . S
C5533 C5534 1.415 . S
C5534 H5510 0.950 . S
C5534 C5529 1.363 . S
C5534 C5533 1.415 . S
C5535 H5511 0.951 1_554 S
C5535 C5536 1.366 . S
C5535 C5537 1.388 . S
C5536 C5535 1.366 . S
C5536 C5540 1.385 . S
C5537 H5512 0.952 1_554 S
C5537 C5535 1.388 . S
C5537 C5538 1.366 . S
C5538 C5537 1.366 . S
C5538 C5539 1.414 . S
C5538 C5541 1.499 . S
C5539 H5513 0.950 . S
C5539 C5538 1.414 . S
C5539 C5540 1.374 . S
C5540 H5514 0.950 . S
C5540 C5536 1.385 . S
C5540 C5539 1.374 . S
C5541 C5538 1.499 . S
C5541 C5542 1.373 . S
C5541 C5543 1.389 . S
C5542 H5515 0.950 . S
C5542 C5528 1.377 . S
C5542 C5541 1.373 . S
C5543 C5527 1.377 . S
C5543 C5541 1.389 . S
C5543 C5544 1.524 1_554 S
C5544 C5543 1.524 1_556 S
C5544 C5545 1.397 . S
C5544 C5549 1.363 . S
C5545 H5516 0.950 . S
C5545 C5544 1.397 . S
C5545 C5546 1.334 . S
C5546 H5517 0.950 . S
C5546 C5545 1.334 . S
C5546 C5547 1.287 . S
C5547 C5546 1.287 . S
C5547 C5548 1.524 . S
C5547 H5550 0.999 . S
C5548 H5518 0.950 . S
C5548 C5547 1.524 . S
C5548 C5549 1.415 . S
C5549 H5519 0.950 . S
C5549 C5544 1.363 . S
C5549 C5548 1.415 . S
H5550 C5547 0.999 . S
H5551 C5532 0.913 . S
H5552 C5570 0.951 . S
H5553 C5572 0.951 . S
H5554 C5574 0.950 . S
H5555 C5575 0.950 . S
H5556 C5577 0.950 . S
H5557 C5580 0.950 . S
H5558 C5581 0.950 . S
H5559 C5583 0.950 . S
H5560 C5584 0.950 . S
H5561 C5585 0.951 . S
H5562 C5587 0.951 . S
H5563 C5589 0.950 . S
H5564 C5590 0.950 . S
H5565 C5592 0.950 . S
H5566 C5595 0.950 . S
H5567 C5596 0.950 . S
H5568 C5598 0.950 . S
H5569 C5599 0.950 . S
C5570 H5552 0.951 . S
C5570 C5571 1.366 . S
C5570 C5572 1.388 . S
C5571 C5570 1.366 . S
C5571 C5575 1.385 . S
C5572 H5553 0.951 . S
C5572 C5570 1.388 . S
C5572 C5573 1.366 . S
C5573 C5572 1.366 . S
C5573 C5574 1.414 . S
C5573 C5576 1.499 . S
C5574 H5554 0.950 . S
C5574 C5573 1.414 . S
C5574 C5575 1.374 . S
C5575 H5555 0.950 . S
C5575 C5571 1.385 . S
C5575 C5574 1.374 . S
C5576 C5573 1.499 . S
C5576 C5577 1.373 . S
C5576 C5578 1.389 . S
C5577 H5556 0.950 . S
C5577 C5576 1.373 . S
C5577 C5593 1.377 . S
C5578 C5576 1.389 . S
C5578 C5579 1.524 . S
C5578 C5592 1.377 . S
C5579 C5578 1.524 . S
C5579 C5580 1.397 . S
C5579 C5584 1.363 . S
C5580 H5557 0.950 . S
C5580 C5579 1.397 . S
C5580 C5581 1.334 . S
C5581 H5558 0.950 . S
C5581 C5580 1.334 . S
C5581 C5582 1.287 . S
C5582 C5581 1.287 . S
C5582 C5583 1.524 . S
C5582 H5601 0.913 . S
C5583 H5559 0.950 . S
C5583 C5582 1.524 . S
C5583 C5584 1.415 . S
C5584 H5560 0.950 . S
C5584 C5579 1.363 . S
C5584 C5583 1.415 . S
C5585 H5561 0.951 . S
C5585 C5586 1.366 . S
C5585 C5587 1.388 . S
C5586 C5585 1.366 . S
C5586 C5590 1.385 . S
C5587 H5562 0.951 . S
C5587 C5585 1.388 . S
C5587 C5588 1.366 . S
C5588 C5587 1.366 . S
C5588 C5589 1.414 . S
C5588 C5591 1.499 . S
C5589 H5563 0.950 . S
C5589 C5588 1.414 . S
C5589 C5590 1.374 . S
C5590 H5564 0.950 . S
C5590 C5586 1.385 . S
C5590 C5589 1.374 . S
C5591 C5588 1.499 . S
C5591 C5592 1.373 . S
C5591 C5593 1.389 . S
C5592 H5565 0.950 . S
C5592 C5578 1.377 . S
C5592 C5591 1.373 . S
C5593 C5577 1.377 . S
C5593 C5591 1.389 . S
C5593 C5594 1.524 . S
C5594 C5593 1.524 . S
C5594 C5595 1.397 . S
C5594 C5599 1.363 . S
C5595 H5566 0.950 . S
C5595 C5594 1.397 . S
C5595 C5596 1.334 . S
C5596 H5567 0.950 . S
C5596 C5595 1.334 . S
C5596 C5597 1.287 . S
C5597 C5596 1.287 . S
C5597 C5598 1.524 . S
C5597 H5600 0.999 . S
C5598 H5568 0.950 . S
C5598 C5597 1.524 . S
C5598 C5599 1.415 . S
C5599 H5569 0.950 . S
C5599 C5594 1.363 . S
C5599 C5598 1.415 . S
H5600 C5597 0.999 . S
H5601 C5582 0.913 . S
H5602 C5620 0.951 . S
H5603 C5622 0.951 . S
H5604 C5624 0.950 . S
H5605 C5625 0.950 . S
H5606 C5627 0.988 . S
H5607 C5630 0.950 . S
H5608 C5631 0.950 . S
H5609 C5633 0.950 . S
H5610 C5634 0.950 . S
H5611 C5635 0.951 . S
H5612 C5637 0.951 . S
H5613 C5639 0.950 . S
H5614 C5640 0.950 . S
H5615 C5642 0.950 . S
H5616 C5645 0.950 . S
H5617 C5646 0.950 . S
H5618 C5648 0.950 . S
H5619 C5649 0.950 . S
C5620 H5602 0.951 . S
C5620 C5621 1.366 . S
C5620 C5622 1.388 . S
C5621 C5620 1.366 . S
C5621 C5625 1.385 . S
C5622 H5603 0.951 . S
C5622 C5620 1.388 . S
C5622 C5623 1.366 . S
C5623 C5622 1.366 . S
C5623 C5624 1.414 . S
C5623 C5626 1.499 . S
C5624 H5604 0.950 . S
C5624 C5623 1.414 . S
C5624 C5625 1.374 . S
C5625 H5605 0.950 . S
C5625 C5621 1.385 . S
C5625 C5624 1.374 . S
C5626 C5623 1.499 . S
C5626 C5627 1.373 . S
C5626 C5628 1.389 . S
C5627 H5606 0.988 . S
C5627 C5626 1.373 . S
C5627 C5643 1.377 . S
C5628 C5626 1.389 . S
C5628 C5629 1.524 . S
C5628 C5642 1.377 . S
C5629 C5628 1.524 . S
C5629 C5630 1.397 . S
C5629 C5634 1.363 . S
C5630 H5607 0.950 . S
C5630 C5629 1.397 . S
C5630 C5631 1.334 . S
C5631 H5608 0.950 . S
C5631 C5630 1.334 . S
C5631 C5632 1.287 . S
C5632 C5631 1.287 . S
C5632 C5633 1.524 . S
C5632 H5651 0.913 . S
C5633 H5609 0.950 . S
C5633 C5632 1.524 . S
C5633 C5634 1.415 . S
C5634 H5610 0.950 . S
C5634 C5629 1.363 . S
C5634 C5633 1.415 . S
C5635 H5611 0.951 . S
C5635 C5636 1.366 . S
C5635 C5637 1.388 . S
C5636 C5635 1.366 . S
C5636 C5640 1.385 . S
C5637 H5612 0.951 . S
C5637 C5635 1.388 . S
C5637 C5638 1.366 . S
C5638 C5637 1.366 . S
C5638 C5639 1.414 . S
C5638 C5641 1.499 . S
C5639 H5613 0.950 . S
C5639 C5638 1.414 . S
C5639 C5640 1.374 . S
C5640 H5614 0.950 . S
C5640 C5636 1.385 . S
C5640 C5639 1.374 . S
C5641 C5638 1.499 . S
C5641 C5642 1.373 . S
C5641 C5643 1.389 . S
C5642 H5615 0.950 . S
C5642 C5628 1.377 . S
C5642 C5641 1.373 . S
C5643 C5627 1.377 . S
C5643 C5641 1.389 . S
C5643 C5644 1.524 1_554 S
C5644 C5643 1.524 1_556 S
C5644 C5645 1.397 . S
C5644 C5649 1.363 . S
C5645 H5616 0.950 . S
C5645 C5644 1.397 . S
C5645 C5646 1.334 . S
C5646 H5617 0.950 . S
C5646 C5645 1.334 . S
C5646 C5647 1.287 . S
C5647 C5646 1.287 . S
C5647 C5648 1.524 . S
C5647 H5650 0.999 . S
C5648 H5618 0.950 . S
C5648 C5647 1.524 . S
C5648 C5649 1.415 . S
C5649 H5619 0.950 . S
C5649 C5644 1.363 . S
C5649 C5648 1.415 . S
H5650 C5647 0.999 . S
H5651 C5632 0.913 . S
H5652 C5670 0.951 . S
H5653 C5672 0.951 . S
H5654 C5674 0.950 . S
H5655 C5675 0.950 . S
H5656 C5677 0.950 . S
H5657 C5680 0.950 . S
H5658 C5681 0.950 . S
H5659 C5683 0.950 . S
H5660 C5684 0.950 . S
H5661 C5685 0.951 . S
H5662 C5687 0.951 . S
H5663 C5689 0.950 . S
H5664 C5690 0.950 . S
H5665 C5692 0.950 . S
H5666 C5695 0.950 . S
H5667 C5696 0.950 . S
H5668 C5698 0.950 . S
H5669 C5699 0.950 . S
C5670 H5652 0.951 . S
C5670 C5671 1.366 . S
C5670 C5672 1.388 . S
C5671 C5670 1.366 . S
C5671 C5675 1.385 . S
C5672 H5653 0.951 . S
C5672 C5670 1.388 . S
C5672 C5673 1.366 . S
C5673 C5672 1.366 . S
C5673 C5674 1.414 . S
C5673 C5676 1.499 . S
C5674 H5654 0.950 . S
C5674 C5673 1.414 . S
C5674 C5675 1.374 . S
C5675 H5655 0.950 . S
C5675 C5671 1.385 . S
C5675 C5674 1.374 . S
C5676 C5673 1.499 . S
C5676 C5677 1.373 . S
C5676 C5678 1.389 . S
C5677 H5656 0.950 . S
C5677 C5676 1.373 . S
C5677 C5693 1.377 . S
C5678 C5676 1.389 . S
C5678 C5679 1.524 . S
C5678 C5692 1.377 . S
C5679 C5678 1.524 . S
C5679 C5680 1.397 . S
C5679 C5684 1.363 . S
C5680 H5657 0.950 . S
C5680 C5679 1.397 . S
C5680 C5681 1.334 . S
C5681 H5658 0.950 . S
C5681 C5680 1.334 . S
C5681 C5682 1.287 . S
C5682 C5681 1.287 . S
C5682 C5683 1.524 . S
C5682 H5701 0.913 . S
C5683 H5659 0.950 . S
C5683 C5682 1.524 . S
C5683 C5684 1.415 . S
C5684 H5660 0.950 . S
C5684 C5679 1.363 . S
C5684 C5683 1.415 . S
C5685 H5661 0.951 . S
C5685 C5686 1.366 . S
C5685 C5687 1.388 . S
C5686 C5685 1.366 . S
C5686 C5690 1.385 . S
C5687 H5662 0.951 . S
C5687 C5685 1.388 . S
C5687 C5688 1.366 . S
C5688 C5687 1.366 . S
C5688 C5689 1.414 . S
C5688 C5691 1.499 . S
C5689 H5663 0.950 . S
C5689 C5688 1.414 . S
C5689 C5690 1.374 . S
C5690 H5664 0.950 . S
C5690 C5686 1.385 . S
C5690 C5689 1.374 . S
C5691 C5688 1.499 . S
C5691 C5692 1.373 . S
C5691 C5693 1.389 . S
C5692 H5665 0.950 . S
C5692 C5678 1.377 . S
C5692 C5691 1.373 . S
C5693 C5677 1.377 . S
C5693 C5691 1.389 . S
C5693 C5694 1.524 . S
C5694 C5693 1.524 . S
C5694 C5695 1.397 . S
C5694 C5699 1.363 . S
C5695 H5666 0.950 . S
C5695 C5694 1.397 . S
C5695 C5696 1.334 . S
C5696 H5667 0.950 . S
C5696 C5695 1.334 . S
C5696 C5697 1.287 . S
C5697 C5696 1.287 . S
C5697 C5698 1.524 . S
C5697 H5700 0.999 . S
C5698 H5668 0.950 . S
C5698 C5697 1.524 . S
C5698 C5699 1.415 . S
C5699 H5669 0.950 . S
C5699 C5694 1.363 . S
C5699 C5698 1.415 . S
H5700 C5697 0.999 . S
H5701 C5682 0.913 . S
H5702 C5720 0.951 . S
H5703 C5722 0.951 . S
H5704 C5724 0.950 . S
H5705 C5725 0.950 . S
H5706 C5727 0.950 . S
H5707 C5730 0.950 . S
H5708 C5731 0.950 . S
H5709 C5733 0.950 . S
H5710 C5734 0.950 . S
H5711 C5735 0.951 . S
H5712 C5737 0.951 . S
H5713 C5739 0.950 . S
H5714 C5740 0.950 . S
H5715 C5742 0.950 . S
H5716 C5745 0.950 . S
H5717 C5746 0.950 . S
H5718 C5748 0.950 . S
H5719 C5749 0.950 . S
C5720 H5702 0.951 . S
C5720 C5721 1.366 . S
C5720 C5722 1.388 . S
C5721 C5720 1.366 . S
C5721 C5725 1.385 . S
C5722 H5703 0.951 . S
C5722 C5720 1.388 . S
C5722 C5723 1.366 . S
C5723 C5722 1.366 . S
C5723 C5724 1.414 . S
C5723 C5726 1.499 . S
C5724 H5704 0.950 . S
C5724 C5723 1.414 . S
C5724 C5725 1.374 . S
C5725 H5705 0.950 . S
C5725 C5721 1.385 . S
C5725 C5724 1.374 . S
C5726 C5723 1.499 . S
C5726 C5727 1.373 . S
C5726 C5728 1.389 . S
C5727 H5706 0.950 . S
C5727 C5726 1.373 . S
C5727 C5743 1.377 . S
C5728 C5726 1.389 . S
C5728 C5729 1.524 . S
C5728 C5742 1.377 . S
C5729 C5728 1.524 . S
C5729 C5730 1.397 . S
C5729 C5734 1.363 . S
C5730 H5707 0.950 . S
C5730 C5729 1.397 . S
C5730 C5731 1.334 . S
C5731 H5708 0.950 . S
C5731 C5730 1.334 . S
C5731 C5732 1.287 . S
C5732 C5731 1.287 . S
C5732 C5733 1.524 . S
C5732 H5751 0.913 . S
C5733 H5709 0.950 . S
C5733 C5732 1.524 . S
C5733 C5734 1.415 . S
C5734 H5710 0.950 . S
C5734 C5729 1.363 . S
C5734 C5733 1.415 . S
C5735 H5711 0.951 . S
C5735 C5736 1.366 . S
C5735 C5737 1.388 . S
C5736 C5735 1.366 . S
C5736 C5740 1.385 . S
C5737 H5712 0.951 . S
C5737 C5735 1.388 . S
C5737 C5738 1.366 . S
C5738 C5737 1.366 . S
C5738 C5739 1.414 . S
C5738 C5741 1.499 . S
C5739 H5713 0.950 . S
C5739 C5738 1.414 . S
C5739 C5740 1.374 . S
C5740 H5714 0.950 . S
C5740 C5736 1.385 . S
C5740 C5739 1.374 . S
C5741 C5738 1.499 . S
C5741 C5742 1.373 . S
C5741 C5743 1.389 . S
C5742 H5715 0.950 . S
C5742 C5728 1.377 . S
C5742 C5741 1.373 . S
C5743 C5727 1.377 . S
C5743 C5741 1.389 . S
C5743 C5744 1.524 . S
C5744 C5743 1.524 . S
C5744 C5745 1.397 . S
C5744 C5749 1.363 . S
C5745 H5716 0.950 . S
C5745 C5744 1.397 . S
C5745 C5746 1.334 . S
C5746 H5717 0.950 . S
C5746 C5745 1.334 . S
C5746 C5747 1.287 . S
C5747 C5746 1.287 . S
C5747 C5748 1.524 . S
C5747 H5750 0.999 . S
C5748 H5718 0.950 . S
C5748 C5747 1.524 . S
C5748 C5749 1.415 . S
C5749 H5719 0.950 . S
C5749 C5744 1.363 . S
C5749 C5748 1.415 . S
H5750 C5747 0.999 . S
H5751 C5732 0.913 . S
C971 C101 1.903 . S
C986 C325 1.838 . S
C1021 C57 1.915 . S
C1036 C376 1.919 . S
C1071 C70 1.208 . S
C1086 C405 1.181 . S
C1136 C449 1.470 . S
C1121 C82 1.505 . S
C1171 C23 1.370 . S
C1186 C489 1.335 . S
C1236 C525 1.255 . S
C1221 C29 1.284 . S
C1286 C575 1.642 . S
C1271 C49 1.615 . S
C1321 C10 2.089 . S
C1336 C605 2.042 . S
C1386 C335 1.685 . S
C1371 C218 1.708 . S
C1421 C226 0.463 . S
C1436 C378 0.538 . S
C1486 C415 1.120 . S
C1471 C251 1.114 . S
C1536 C445 1.144 . S
C1521 C159 1.167 . S
C1571 C211 1.229 . S
C1586 C485 1.202 . S
C1636 C535 0.787 . S
C1621 C225 0.787 . S
C1686 C569 0.694 . S
C1671 C252 0.684 . S
C1736 C615 1.672 . S
C1721 C166 1.694 . S
C1786 C329 1.054 . S
C1771 C147 1.088 . S
C1821 C263 1.568 . S
C1836 C655 1.579 . S
C1886 C689 1.427 . S
C1871 C309 1.466 . S
C1936 C725 0.783 . S
C1921 C291 0.787 . S
C1971 C108 1.341 . S
C1986 C609 1.294 . S
C2021 C121 1.531 . S
C2036 C409 1.486 . S
C2071 C302 1.485 . S
C2086 C775 1.495 . S
C2136 C794 0.275 . S
C2121 C276 0.155 . S
C2186 C336 2.168 1_565 S
C2171 C55 2.179 . S
C2236 C805 2.321 . S
C2221 C96 2.328 . S
C2271 C88 1.697 . S
C2286 C416 1.687 . S
C2321 C75 1.703 . S
C2336 C778 1.676 . S
C2386 C498 1.531 . S
C2371 C4 1.558 . S
C2421 C44 1.746 . S
C2436 C696 1.736 . S
C2486 C554 2.006 1_566 S
C2471 C31 2.007 . S
C2536 C856 2.330 . S
C2521 C18 2.347 . S
C2586 C314 2.030 1_556 S
C2571 C133 2.060 . S
C2636 C809 0.626 . S
C2621 C296 0.615 . S
C2671 C107 1.443 . S
C2686 C394 1.429 . S
C2721 C264 1.606 . S
C2736 C776 1.598 . S
C2771 C140 1.670 . S
C2786 C496 1.660 . S
C2836 C674 1.118 . S
C2821 C289 1.130 . S
C2871 C114 0.901 . S
C2886 C578 0.890 . S
C2921 C265 2.049 . S
C2936 C834 2.020 . S
C2971 C179 1.073 . S
C2986 C338 1.054 . S
C3021 C161 1.918 . S
C3036 C634 1.903 . S
C3071 C244 1.533 . S
C3086 C538 1.510 . S
C3121 C224 1.141 . S
C3136 C736 1.128 . S
C3186 C858 1.374 . S
C3171 C257 1.404 . S
C3221 C199 1.600 . S
C3236 C418 1.573 . S
C3286 C434 1.819 . S
C3271 C237 1.834 . S
C3336 C375 0.460 . S
C3321 C185 0.431 . S
C3371 C69 1.886 . S
C3386 C885 1.842 . S
C3436 C816 1.918 . S
C3421 C83 1.915 . S
C3471 C94 1.210 . S
C3486 C925 1.185 . S
C3521 C56 1.497 1_655 S
C3536 C769 1.469 . S
C3571 C42 1.381 . S
C3586 C649 1.343 . S
C3636 C685 1.255 . S
C3621 C3 1.285 . S
C3686 C735 1.653 . S
C3671 C16 1.625 . S
C3736 C845 2.041 . S
C3721 C36 2.087 . S
C3786 C895 1.686 . S
C3771 C238 1.708 . S
C3821 C174 0.461 . S
C3836 C818 0.536 . S
C3886 C935 1.120 . S
C3871 C186 1.115 . S
C3936 C765 1.143 . S
C3921 C198 1.165 . S
C3986 C645 1.203 . S
C3971 C239 1.230 . S
C4021 C173 0.786 . S
C4036 C695 0.787 . S
C4086 C729 0.698 . S
C4071 C187 0.687 . S
C4121 C205 1.694 . S
C4136 C855 1.672 . S
C4186 C889 1.050 . S
C4171 C290 1.086 . S
C4221 C122 1.570 . S
C4236 C495 1.580 . S
C4286 C529 1.429 . S
C4271 C134 1.469 1_565 S
C4336 C565 0.783 . S
C4321 C148 0.788 . S
C4386 C849 1.290 . S
C4371 C283 1.338 . S
C4421 C270 1.529 . S
C4436 C929 1.484 . S
C4486 C455 1.494 . S
C4471 C135 1.485 . S
C4536 C354 0.279 . S
C4521 C109 0.156 . S
C4571 C81 2.179 . S
C4586 C896 2.167 . S
C4636 C365 2.320 . S
C4621 C68 2.321 . S
C4671 C62 1.697 . S
C4686 C936 1.687 . S
C4721 C95 1.702 . S
C4736 C458 1.667 . S
C4771 C30 1.559 . S
C4786 C658 1.532 . S
C4836 C536 1.724 . S
C4821 C17 1.738 . S
C4871 C5 2.008 . S
C4886 C714 2.007 . S
C4921 C43 2.342 . S
C4936 C616 2.320 . S
C4986 C874 2.030 . S
C4971 C304 2.060 . S
C5021 C153 0.613 . S
C5036 C369 0.616 . S
C5086 C914 1.429 1_656 S
C5071 C278 1.444 . S
C5121 C127 1.605 . S
C5136 C456 1.597 . S
C5171 C303 1.665 . S
C5186 C656 1.656 . S
C5236 C514 1.115 . S
C5221 C146 1.135 . S
C5271 C277 0.897 . S
C5286 C738 0.887 . S
C5336 C594 2.018 . S
C5321 C120 2.047 . S
C5386 C898 1.053 . S
C5371 C231 1.073 . S
C5436 C474 1.903 1_665 S
C5421 C200 1.917 . S
C5471 C212 1.536 . S
C5486 C698 1.513 . S
C5536 C576 1.127 . S
C5521 C172 1.141 . S
C5571 C192 1.403 . S
C5586 C618 1.375 . S
C5621 C160 1.600 . S
C5636 C938 1.573 . S
C5686 C754 1.821 . S
C5671 C213 1.836 . S
C5736 C815 0.462 . S
C5721 C250 0.432 . S
