# Generated by pormake.
# Topology ocu, (6,8)-cn, num edge types: 1
# Building blocks:
#     Node 0, Type 0, BuildingBlock: CUWYAW_clean_sbu_0, # of connection points: 6
#     Node 1, Type 0, BuildingBlock: CUWYAW_clean_sbu_0, # of connection points: 6
#     Node 2, Type 0, BuildingBlock: CUWYAW_clean_sbu_0, # of connection points: 6
#     Node 3, Type 0, BuildingBlock: CUWYAW_clean_sbu_0, # of connection points: 6
#     Node 4, Type 0, BuildingBlock: CUWYAW_clean_sbu_0, # of connection points: 6
#     Node 5, Type 0, BuildingBlock: CUWYAW_clean_sbu_0, # of connection points: 6
#     Node 6, Type 0, BuildingBlock: CUWYAW_clean_sbu_0, # of connection points: 6
#     Node 7, Type 0, BuildingBlock: CUWYAW_clean_sbu_0, # of connection points: 6
#     Node 8, Type 1, BuildingBlock: TAGTUT_clean_sbu_1, # of connection points: 8
#     Node 9, Type 1, BuildingBlock: TAGTUT_clean_sbu_1, # of connection points: 8
#     Node 10, Type 1, BuildingBlock: TAGTUT_clean_sbu_1, # of connection points: 8
#     Node 11, Type 1, BuildingBlock: TAGTUT_clean_sbu_1, # of connection points: 8
#     Node 12, Type 1, BuildingBlock: TAGTUT_clean_sbu_1, # of connection points: 8
#     Node 13, Type 1, BuildingBlock: TAGTUT_clean_sbu_1, # of connection points: 8
#     Edge 14, Type (0, 1), BuildingBlock: OJICUG_clean_linker_0, # of connection points: 2
#     Edge 15, Type (0, 1), BuildingBlock: OJICUG_clean_linker_0, # of connection points: 2
#     Edge 16, Type (0, 1), BuildingBlock: OJICUG_clean_linker_0, # of connection points: 2
#     Edge 17, Type (0, 1), BuildingBlock: OJICUG_clean_linker_0, # of connection points: 2
#     Edge 18, Type (0, 1), BuildingBlock: OJICUG_clean_linker_0, # of connection points: 2
#     Edge 19, Type (0, 1), BuildingBlock: OJICUG_clean_linker_0, # of connection points: 2
#     Edge 20, Type (0, 1), BuildingBlock: OJICUG_clean_linker_0, # of connection points: 2
#     Edge 21, Type (0, 1), BuildingBlock: OJICUG_clean_linker_0, # of connection points: 2
#     Edge 22, Type (0, 1), BuildingBlock: OJICUG_clean_linker_0, # of connection points: 2
#     Edge 23, Type (0, 1), BuildingBlock: OJICUG_clean_linker_0, # of connection points: 2
#     Edge 24, Type (0, 1), BuildingBlock: OJICUG_clean_linker_0, # of connection points: 2
#     Edge 25, Type (0, 1), BuildingBlock: OJICUG_clean_linker_0, # of connection points: 2
#     Edge 26, Type (0, 1), BuildingBlock: OJICUG_clean_linker_0, # of connection points: 2
#     Edge 27, Type (0, 1), BuildingBlock: OJICUG_clean_linker_0, # of connection points: 2
#     Edge 28, Type (0, 1), BuildingBlock: OJICUG_clean_linker_0, # of connection points: 2
#     Edge 29, Type (0, 1), BuildingBlock: OJICUG_clean_linker_0, # of connection points: 2
#     Edge 30, Type (0, 1), BuildingBlock: OJICUG_clean_linker_0, # of connection points: 2
#     Edge 31, Type (0, 1), BuildingBlock: OJICUG_clean_linker_0, # of connection points: 2
#     Edge 32, Type (0, 1), BuildingBlock: OJICUG_clean_linker_0, # of connection points: 2
#     Edge 33, Type (0, 1), BuildingBlock: OJICUG_clean_linker_0, # of connection points: 2
#     Edge 34, Type (0, 1), BuildingBlock: OJICUG_clean_linker_0, # of connection points: 2
#     Edge 35, Type (0, 1), BuildingBlock: OJICUG_clean_linker_0, # of connection points: 2
#     Edge 36, Type (0, 1), BuildingBlock: OJICUG_clean_linker_0, # of connection points: 2
#     Edge 37, Type (0, 1), BuildingBlock: OJICUG_clean_linker_0, # of connection points: 2
#     Edge 38, Type (0, 1), BuildingBlock: OJICUG_clean_linker_0, # of connection points: 2
#     Edge 39, Type (0, 1), BuildingBlock: OJICUG_clean_linker_0, # of connection points: 2
#     Edge 40, Type (0, 1), BuildingBlock: OJICUG_clean_linker_0, # of connection points: 2
#     Edge 41, Type (0, 1), BuildingBlock: OJICUG_clean_linker_0, # of connection points: 2
#     Edge 42, Type (0, 1), BuildingBlock: OJICUG_clean_linker_0, # of connection points: 2
#     Edge 43, Type (0, 1), BuildingBlock: OJICUG_clean_linker_0, # of connection points: 2
#     Edge 44, Type (0, 1), BuildingBlock: OJICUG_clean_linker_0, # of connection points: 2
#     Edge 45, Type (0, 1), BuildingBlock: OJICUG_clean_linker_0, # of connection points: 2
#     Edge 46, Type (0, 1), BuildingBlock: OJICUG_clean_linker_0, # of connection points: 2
#     Edge 47, Type (0, 1), BuildingBlock: OJICUG_clean_linker_0, # of connection points: 2
#     Edge 48, Type (0, 1), BuildingBlock: OJICUG_clean_linker_0, # of connection points: 2
#     Edge 49, Type (0, 1), BuildingBlock: OJICUG_clean_linker_0, # of connection points: 2
#     Edge 50, Type (0, 1), BuildingBlock: OJICUG_clean_linker_0, # of connection points: 2
#     Edge 51, Type (0, 1), BuildingBlock: OJICUG_clean_linker_0, # of connection points: 2
#     Edge 52, Type (0, 1), BuildingBlock: OJICUG_clean_linker_0, # of connection points: 2
#     Edge 53, Type (0, 1), BuildingBlock: OJICUG_clean_linker_0, # of connection points: 2
#     Edge 54, Type (0, 1), BuildingBlock: OJICUG_clean_linker_0, # of connection points: 2
#     Edge 55, Type (0, 1), BuildingBlock: OJICUG_clean_linker_0, # of connection points: 2
#     Edge 56, Type (0, 1), BuildingBlock: OJICUG_clean_linker_0, # of connection points: 2
#     Edge 57, Type (0, 1), BuildingBlock: OJICUG_clean_linker_0, # of connection points: 2
#     Edge 58, Type (0, 1), BuildingBlock: OJICUG_clean_linker_0, # of connection points: 2
#     Edge 59, Type (0, 1), BuildingBlock: OJICUG_clean_linker_0, # of connection points: 2
#     Edge 60, Type (0, 1), BuildingBlock: OJICUG_clean_linker_0, # of connection points: 2
#     Edge 61, Type (0, 1), BuildingBlock: OJICUG_clean_linker_0, # of connection points: 2
# Relax obj value: 0.209
# Max RMSD: 0.231
# Mean RMSD: 0.132
data_MOF--net-ocu--node1-CUWYAW_clean_sbu_0--node2-TAGTUT_clean_sbu_1--edge1-OJICUG_clean_linker_0
_symmetry_space_group_name_H-M    P1
_symmetry_Int_Tables_number       1
_symmetry_cell_setting            triclinic
loop_
_symmetry_equiv_pos_as_xyz
'x, y, z'
_cell_length_a     31.804981
_cell_length_b     30.509843
_cell_length_c     30.347162
_cell_angle_alpha  81.591157
_cell_angle_beta   104.21897
_cell_angle_gamma 114.48893
loop_
_atom_site_label
_atom_site_type_symbol
_atom_site_fract_x
_atom_site_fract_y
_atom_site_fract_z
_atom_type_partial_charge
C0 C 0.38257 0.41958 0.38469 0.0
Eu1 Eu 0.34005 0.3479 0.33106 0.0
C2 C 0.3777 0.42359 0.43 0.0
C3 C 0.38537 0.46864 0.44322 0.0
C4 C 0.36647 0.4714 0.4789 0.0
C5 C 0.33967 0.42895 0.50136 0.0
C6 C 0.33703 0.38429 0.49147 0.0
C7 C 0.35563 0.38154 0.45554 0.0
C8 C 0.38093 0.36052 0.25649 0.0
C9 C 0.24604 0.35862 0.2666 0.0
C10 C 0.24981 0.20673 0.22896 0.0
Eu11 Eu 0.28676 0.27765 0.28333 0.0
C12 C 0.27135 0.19392 0.19887 0.0
C13 C 0.24437 0.15747 0.16832 0.0
C14 C 0.26559 0.14769 0.13803 0.0
C15 C 0.3138 0.17448 0.13833 0.0
C16 C 0.34051 0.21087 0.1693 0.0
C17 C 0.31931 0.22075 0.19912 0.0
C18 C 0.24552 0.26244 0.35768 0.0
C19 C 0.37658 0.26635 0.35394 0.0
O20 O 0.40067 0.38936 0.38136 0.0
O21 O 0.34478 0.41456 0.35349 0.0
O22 O 0.40246 0.36415 0.29836 0.0
O23 O 0.33704 0.34743 0.25511 0.0
O24 O 0.27919 0.37419 0.30331 0.0
O25 O 0.24351 0.32106 0.24827 0.0
O26 O 0.24655 0.24815 0.21787 0.0
O27 O 0.26685 0.20201 0.27219 0.0
O28 O 0.22392 0.25927 0.31569 0.0
O29 O 0.28978 0.27745 0.35924 0.0
O30 O 0.35174 0.25754 0.31199 0.0
O31 O 0.37085 0.29737 0.37493 0.0
H32 H 0.40193 0.50117 0.42331 0.0
H33 H 0.36856 0.5063 0.48541 0.0
H34 H 0.31685 0.35121 0.50861 0.0
H35 H 0.34906 0.34634 0.44524 0.0
H36 H 0.2071 0.13706 0.16767 0.0
H37 H 0.24441 0.11955 0.11428 0.0
H38 H 0.37797 0.2313 0.17099 0.0
H39 H 0.34031 0.24954 0.22224 0.0
C40 C 0.94425 0.39664 0.30928 0.0
Eu41 Eu 0.8559 0.33861 0.29387 0.0
C42 C 0.97324 0.4406 0.33415 0.0
C43 C 0.95734 0.47748 0.3321 0.0
C44 C 0.98988 0.52316 0.34573 0.0
C45 C 1.0386 0.53279 0.35422 0.0
C46 C 1.05079 0.49336 0.37227 0.0
C47 C 1.01871 0.44715 0.35908 0.0
C48 C 0.79777 0.27985 0.22494 0.0
C49 C 0.76804 0.36819 0.27193 0.0
C50 C 0.68087 0.20463 0.30737 0.0
Eu51 Eu 0.76891 0.26343 0.31913 0.0
C52 C 0.65486 0.1544 0.29555 0.0
C53 C 0.67577 0.12146 0.31112 0.0
C54 C 0.64857 0.07263 0.30754 0.0
C55 C 0.59981 0.05543 0.28723 0.0
C56 C 0.5816 0.0895 0.26439 0.0
C57 C 0.60875 0.13883 0.26945 0.0
C58 C 0.82885 0.32225 0.38741 0.0
C59 C 0.85668 0.23382 0.34264 0.0
O60 O 0.9267 0.35816 0.33484 0.0
O61 O 0.91438 0.3996 0.27157 0.0
O62 O 0.82486 0.32491 0.21845 0.0
O63 O 0.80703 0.26716 0.26644 0.0
O64 O 0.81472 0.38664 0.27955 0.0
O65 O 0.74459 0.32224 0.28249 0.0
O66 O 0.69983 0.23344 0.27502 0.0
O67 O 0.70916 0.21271 0.34764 0.0
O68 O 0.80346 0.2767 0.39413 0.0
O69 O 0.81777 0.33471 0.3462 0.0
O70 O 0.80996 0.21516 0.33529 0.0
O71 O 0.8799 0.27972 0.33148 0.0
H72 H 0.9211 0.47213 0.31682 0.0
H73 H 0.97757 0.55212 0.33856 0.0
H74 H 0.08746 0.49903 0.3854 0.0
H75 H 1.03065 0.41792 0.36451 0.0
H76 H 0.71218 0.13312 0.32937 0.0
H77 H 0.6654 0.0489 0.32518 0.0
H78 H 0.54473 0.07796 0.24769 0.0
H79 H 0.59284 0.16448 0.25547 0.0
C80 C 0.81887 0.69454 0.40675 0.0
Eu81 Eu 0.79809 0.75422 0.34716 0.0
C82 C 0.86261 0.68996 0.40585 0.0
C83 C 0.86709 0.64578 0.41391 0.0
C84 C 0.90836 0.6431 0.40864 0.0
C85 C 0.94508 0.68453 0.39464 0.0
C86 C 0.93892 0.72766 0.38387 0.0
C87 C 0.89829 0.73026 0.38973 0.0
C88 C 0.72884 0.74526 0.27448 0.0
C89 C 0.85128 0.7491 0.26339 0.0
C90 C 0.80611 0.89735 0.21669 0.0
Eu91 Eu 0.82412 0.83665 0.2765 0.0
C92 C 0.77082 0.91272 0.22405 0.0
C93 C 0.78016 0.96157 0.22363 0.0
C94 C 0.75217 0.97598 0.24204 0.0
C95 C 0.71515 0.94167 0.26253 0.0
C96 C 0.70816 0.89309 0.265 0.0
C97 C 0.73402 0.87866 0.24417 0.0
C98 C 0.89325 0.84632 0.34894 0.0
C99 C 0.77358 0.84332 0.3627 0.0
O100 O 0.82504 0.73699 0.41787 0.0
O101 O 0.7856 0.67945 0.37057 0.0
O102 O 0.72076 0.72912 0.31522 0.0
O103 O 0.77233 0.76221 0.27514 0.0
O104 O 0.83493 0.73059 0.3016 0.0
O105 O 0.85176 0.79187 0.24611 0.0
O106 O 0.78977 0.85178 0.208 0.0
O107 O 0.84495 0.91072 0.24803 0.0
O108 O 0.90128 0.86034 0.3079 0.0
O109 O 0.84974 0.82903 0.34838 0.0
O110 O 0.7916 0.86267 0.3253 0.0
O111 O 0.77058 0.79916 0.37816 0.0
H112 H 0.83931 0.61391 0.42482 0.0
H113 H 0.91269 0.60936 0.41826 0.0
H114 H 0.96667 0.76 0.3735 0.0
H115 H 0.89466 0.76407 0.38125 0.0
H116 H 0.80945 0.98847 0.20984 0.0
H117 H 0.75892 1.01396 0.23848 0.0
H118 H 0.68159 0.86571 0.28174 0.0
H119 H 0.72734 0.84071 0.24718 0.0
C120 C 0.27891 0.90962 0.29671 0.0
Eu121 Eu 0.29351 0.83284 0.29388 0.0
C122 C 0.28308 0.93312 0.33674 0.0
C123 C 0.26523 0.96855 0.33326 0.0
C124 C 0.26542 0.98705 0.3727 0.0
C125 C 0.28351 0.97006 0.41564 0.0
C126 C 0.30389 0.93661 0.41865 0.0
C127 C 0.30337 0.91798 0.3794 0.0
C128 C 0.24934 0.76313 0.23378 0.0
C129 C 0.25594 0.73872 0.35672 0.0
C130 C 0.35559 0.69052 0.30118 0.0
Eu131 Eu 0.34137 0.76784 0.30251 0.0
C132 C 0.34519 0.66334 0.26166 0.0
C133 C 0.36215 0.62747 0.26367 0.0
C134 C 0.35711 0.60667 0.22375 0.0
C135 C 0.3351 0.62184 0.1818 0.0
C136 C 0.31473 0.65489 0.18075 0.0
C137 C 0.32023 0.67593 0.22043 0.0
C138 C 0.38418 0.83754 0.36328 0.0
C139 C 0.37854 0.86086 0.23843 0.0
O140 O 0.31889 0.91076 0.29157 0.0
O141 O 0.24469 0.86687 0.29131 0.0
O142 O 0.22756 0.7815 0.25134 0.0
O143 O 0.29331 0.78555 0.2442 0.0
O144 O 0.26206 0.7846 0.35221 0.0
O145 O 0.27836 0.72361 0.3352 0.0
O146 O 0.31815 0.69013 0.3118 0.0
O147 O 0.38906 0.73374 0.30072 0.0
O148 O 0.40652 0.81901 0.34668 0.0
O149 O 0.34054 0.81429 0.3523 0.0
O150 O 0.373 0.81519 0.24409 0.0
O151 O 0.35509 0.87614 0.25857 0.0
H152 H 0.2495 0.98034 0.30039 0.0
H153 H 0.24871 1.0122 0.36972 0.0
H154 H 0.31789 0.92304 0.45144 0.0
H155 H 0.31717 0.89039 0.3824 0.0
H156 H 0.38138 0.61755 0.29544 0.0
H157 H 0.37386 0.58182 0.22521 0.0
H158 H 0.2978 0.66714 0.14878 0.0
H159 H 0.30729 0.70397 0.21858 0.0
C160 C 0.44872 0.90193 0.80546 0.0
Eu161 Eu 0.36199 0.84022 0.79365 0.0
C162 C 0.47828 0.95315 0.80597 0.0
C163 C 0.46133 0.98601 0.7793 0.0
C164 C 0.49315 0.02904 0.76351 0.0
C165 C 0.54185 0.03852 0.77379 0.0
C166 C 0.55844 1.01102 0.8095 0.0
C167 C 0.52652 0.96753 0.82479 0.0
C168 C 0.31296 0.76924 0.73392 0.0
C169 C 0.26855 0.86161 0.7619 0.0
C170 C 0.19066 0.69584 0.80944 0.0
Eu171 Eu 0.27433 0.76163 0.81946 0.0
C172 C 0.14325 0.65848 0.8038 0.0
C173 C 0.13677 0.61337 0.82578 0.0
C174 C 0.09343 0.5844 0.83692 0.0
C175 C 0.05707 0.60155 0.82756 0.0
C176 C 0.06094 0.64198 0.79734 0.0
C177 C 0.1044 0.67082 0.78575 0.0
C178 C 0.32373 0.83007 0.88126 0.0
C179 C 0.36814 0.74141 0.85146 0.0
O180 O 0.42639 0.88347 0.83887 0.0
O181 O 0.42345 0.88523 0.76568 0.0
O182 O 0.33389 0.81413 0.72055 0.0
O183 O 0.32123 0.76513 0.77638 0.0
O184 O 0.31532 0.88224 0.76879 0.0
O185 O 0.24664 0.81588 0.7754 0.0
O186 O 0.20738 0.72246 0.77484 0.0
O187 O 0.21879 0.70532 0.84963 0.0
O188 O 0.30079 0.78503 0.89267 0.0
O189 O 0.31611 0.83652 0.83875 0.0
O190 O 0.32155 0.72009 0.84168 0.0
O191 O 0.38972 0.78772 0.84036 0.0
H192 H 0.42385 0.97574 0.76578 0.0
H193 H 0.47848 0.05001 0.73745 0.0
H194 H 0.59583 1.01885 0.82011 0.0
H195 H 0.53983 0.94278 0.84683 0.0
H196 H 0.16652 0.60314 0.83904 0.0
H197 H 0.09163 0.55296 0.85945 0.0
H198 H 1.03299 0.65521 0.78866 0.0
H199 H 0.10902 0.70546 0.76792 0.0
C200 C 0.35816 0.31431 0.68444 0.0
Eu201 Eu 0.33639 0.31968 0.76022 0.0
C202 C 0.37931 0.28702 0.66667 0.0
C203 C 0.42656 0.30907 0.66198 0.0
C204 C 0.44633 0.28451 0.64355 0.0
C205 C 0.41938 0.23715 0.62926 0.0
C206 C 0.372 0.21507 0.63381 0.0
C207 C 0.35217 0.23969 0.65226 0.0
C208 C 0.38238 0.37039 0.8341 0.0
C209 C 0.3598 0.23822 0.83556 0.0
C210 C 0.26365 0.28763 0.92186 0.0
Eu211 Eu 0.29057 0.28467 0.84857 0.0
C212 C 0.23361 0.30838 0.93379 0.0
C213 C 0.20543 0.28359 0.9657 0.0
C214 C 0.17798 0.30337 0.97873 0.0
C215 C 0.17812 0.34846 0.96001 0.0
C216 C 0.20568 0.37274 0.92721 0.0
C217 C 0.23309 0.35291 0.91419 0.0
C218 C 0.24529 0.2345 0.77459 0.0
C219 C 0.26871 0.36782 0.77374 0.0
O220 O 0.31623 0.28984 0.69383 0.0
O221 O 0.386 0.34674 0.7143 0.0
O222 O 0.38458 0.39046 0.79319 0.0
O223 O 0.36061 0.32564 0.83327 0.0
O224 O 0.35986 0.2594 0.79414 0.0
O225 O 0.3393 0.24562 0.86525 0.0
O226 O 0.30373 0.31847 0.91156 0.0
O227 O 0.24206 0.25117 0.89519 0.0
O228 O 0.24356 0.21378 0.81522 0.0
O229 O 0.26656 0.27919 0.77589 0.0
O230 O 0.26543 0.34356 0.81363 0.0
O231 O 0.29172 0.36291 0.7451 0.0
H232 H 0.44824 0.34563 0.67214 0.0
H233 H 0.48268 0.30308 0.63984 0.0
H234 H 0.35031 0.17854 0.62358 0.0
H235 H 0.31549 0.2216 0.65502 0.0
H236 H 0.2052 0.24916 0.98111 0.0
H237 H 0.15768 0.28391 1.00444 0.0
H238 H 0.20613 0.40718 0.9116 0.0
H239 H 0.25424 0.37268 0.88919 0.0
C240 C 0.77296 0.39745 0.78282 0.0
Eu241 Eu 0.80778 0.33224 0.79393 0.0
C242 C 0.76493 0.41984 0.81829 0.0
C243 C 0.7297 0.39263 0.8431 0.0
C244 C 0.7273 0.41076 0.8815 0.0
C245 C 0.76021 0.45639 0.89627 0.0
C246 C 0.79425 0.48455 0.8705 0.0
C247 C 0.79657 0.46642 0.8318 0.0
C248 C 0.78998 0.26906 0.72697 0.0
C249 C 0.74536 0.24299 0.85046 0.0
C250 C 0.87711 0.20008 0.84419 0.0
Eu251 Eu 0.84229 0.26532 0.83061 0.0
C252 C 0.87603 0.16997 0.80994 0.0
C253 C 0.91867 0.17167 0.80313 0.0
C254 C 0.91961 0.1531 0.76424 0.0
C255 C 0.87787 0.13225 0.73199 0.0
C256 C 0.83477 0.12771 0.73993 0.0
C257 C 0.83382 0.14664 0.77866 0.0
C258 C 0.85978 0.32751 0.89791 0.0
C259 C 0.9023 0.35165 0.76879 0.0
O260 O 0.81714 0.40764 0.78344 0.0
O261 O 0.74669 0.35175 0.77675 0.0
O262 O 0.80258 0.31529 0.72113 0.0
O263 O 0.78525 0.25722 0.76799 0.0
O264 O 0.76135 0.29023 0.84517 0.0
O265 O 0.76738 0.22121 0.83687 0.0
O266 O 0.8365 0.19226 0.85322 0.0
O267 O 0.90272 0.246 0.83895 0.0
O268 O 0.84756 0.28143 0.90316 0.0
O269 O 0.86447 0.34 0.85693 0.0
O270 O 0.88763 0.30494 0.77823 0.0
O271 O 0.88039 0.37502 0.78 0.0
H272 H 0.70476 0.35663 0.83383 0.0
H273 H 0.69973 0.38873 0.89988 0.0
H274 H 0.81991 0.51989 0.88101 0.0
H275 H 0.82426 0.4881 0.81345 0.0
H276 H 0.9516 0.19012 0.82633 0.0
H277 H 0.95326 0.15725 0.75809 0.0
H278 H 0.80245 0.11229 0.71492 0.0
H279 H 0.80045 0.14549 0.78262 0.0
C280 C 0.86945 0.91076 0.889 0.0
Eu281 Eu 0.84441 0.84 0.83631 0.0
C282 C 0.8473 0.91846 0.92237 0.0
C283 C 0.87183 0.95751 0.95045 0.0
C284 C 0.84895 0.96781 0.97888 0.0
C285 C 0.80102 0.93946 0.97909 0.0
C286 C 0.77717 0.8992 0.95189 0.0
C287 C 0.80025 0.88861 0.92401 0.0
C288 C 0.89299 0.84983 0.76865 0.0
C289 C 0.76183 0.84552 0.75274 0.0
C290 C 0.76754 0.68964 0.72897 0.0
Eu291 Eu 0.79512 0.75989 0.783 0.0
C292 C 0.78603 0.65677 0.71801 0.0
C293 C 0.78147 0.65002 0.67217 0.0
C294 C 0.80337 0.62369 0.66014 0.0
C295 C 0.82996 0.6033 0.69389 0.0
C296 C 0.83252 0.60817 0.74001 0.0
C297 C 0.81107 0.63511 0.75201 0.0
C298 C 0.7453 0.75312 0.84854 0.0
C299 C 0.87098 0.75013 0.87069 0.0
O300 O 0.88493 0.87641 0.89939 0.0
O301 O 0.84607 0.90957 0.84715 0.0
O302 O 0.91219 0.86024 0.81064 0.0
O303 O 0.84842 0.83319 0.76463 0.0
O304 O 0.7852 0.86066 0.79354 0.0
O305 O 0.76206 0.80708 0.73861 0.0
O306 O 0.78957 0.73491 0.71744 0.0
O307 O 0.75693 0.68364 0.7689 0.0
O308 O 0.72685 0.74393 0.80606 0.0
O309 O 0.78994 0.76789 0.85408 0.0
O310 O 0.85187 0.73699 0.82854 0.0
O311 O 0.8678 0.78732 0.88432 0.0
H312 H 0.90825 0.98069 0.94957 0.0
H313 H 0.86856 0.99853 0.99997 0.0
H314 H 0.7401 0.877 0.95049 0.0
H315 H 0.78085 0.8582 0.90242 0.0
H316 H 0.76254 0.66684 0.64554 0.0
H317 H 0.80147 0.62156 0.62435 0.0
H318 H 0.85233 0.59245 0.76681 0.0
H319 H 0.81524 0.64011 0.78768 0.0
C320 C 0.93432 0.10205 0.58164 0.0
C321 C 0.96943 0.13243 0.45499 0.0
C322 C 1.00036 0.95644 0.50186 0.0
Mg323 Mg 1.03076 0.14168 0.55215 0.0
O324 O 1.01717 0.0762 0.55973 0.0
Mg325 Mg 0.95634 0.02985 0.52537 0.0
Mg326 Mg 0.06471 0.05043 0.55786 0.0
O327 O 0.11283 1.02497 0.55626 0.0
Mg328 Mg 0.09917 0.95977 0.56635 0.0
Mg329 Mg 0.1719 0.07021 0.59447 0.0
C330 C 0.12938 0.1428 0.61523 0.0
C331 C 0.14851 0.13412 0.50153 0.0
O332 O 0.91953 0.06301 0.56057 0.0
O333 O 0.97578 0.1352 0.5835 0.0
O334 O 0.95133 0.08673 0.46424 0.0
O335 O 1.00543 0.16042 0.48189 0.0
O336 O 0.10242 0.1648 0.59465 0.0
O337 O 0.11906 0.09829 0.61091 0.0
C338 C 0.98398 0.968 0.61797 0.0
O339 O 1.02851 0.99031 0.6169 0.0
O340 O 0.9535 0.97656 0.58609 0.0
O341 O 0.21179 0.03811 0.56478 0.0
O342 O 0.15772 0.96542 0.54051 0.0
O343 O 0.17374 1.01239 0.65498 0.0
C344 C 0.19931 0.99891 0.54504 0.0
O345 O 0.1179 0.93989 0.63684 0.0
O346 O 1.02879 0.93662 0.52344 0.0
C347 C 0.15429 0.96678 0.66389 0.0
O348 O 1.00851 1.00103 0.50455 0.0
O349 O 0.10333 0.1119 0.5003 0.0
O350 O 0.17755 0.12436 0.53433 0.0
C351 C 0.42945 0.13277 0.04973 0.0
C352 C 0.47694 0.14414 0.93409 0.0
C353 C 0.48306 0.96577 0.99434 0.0
Mg354 Mg 0.52996 0.1634 0.03279 0.0
O355 O 0.51231 0.097 0.04591 0.0
Mg356 Mg 0.45177 0.04968 1.01095 0.0
Mg357 Mg 0.55566 0.0674 0.04294 0.0
O358 O 0.5992 0.03736 0.04018 0.0
Mg359 Mg 0.57957 0.97232 0.06019 0.0
Mg360 Mg 0.6574 0.08405 0.07899 0.0
C361 C 0.6283 0.16967 0.09584 0.0
C362 C 0.63356 0.1355 0.98094 0.0
O363 O 0.41657 0.09112 0.03444 0.0
O364 O 0.47161 0.16511 0.05385 0.0
O365 O 0.45561 0.10028 0.94727 0.0
O366 O 0.51227 0.1739 0.96009 0.0
O367 O 0.60198 0.19234 0.0757 0.0
O368 O 0.61489 0.12437 0.09065 0.0
C369 C 0.47869 0.99434 0.106 0.0
O370 O 0.52242 1.01428 0.10283 0.0
O371 O 0.44684 1.00244 0.07552 0.0
O372 O 0.69418 0.03781 0.06423 0.0
O373 O 0.63937 0.9626 0.05046 0.0
O374 O 0.64196 0.04051 0.14385 0.0
C375 C 0.68182 0.99413 0.054 0.0
O376 O 0.5815 0.96971 0.13081 0.0
O377 O 0.51006 0.94477 1.01657 0.0
C378 C 0.61159 1.00171 0.15789 0.0
O379 O 0.49561 1.01175 0.99436 0.0
O380 O 0.58974 0.11894 0.98383 0.0
O381 O 0.66484 0.12679 1.01214 0.0
C382 C 0.91724 0.64106 0.16268 0.0
C383 C 0.93786 0.64288 0.02443 0.0
C384 C 0.91947 0.44038 0.06312 0.0
Mg385 Mg 0.99992 0.64622 0.11793 0.0
O386 O 0.9726 0.57894 0.11262 0.0
Mg387 Mg 0.90366 0.54186 0.1009 0.0
Mg388 Mg 1.00064 0.53461 0.09555 0.0
O389 O 1.03008 0.4899 0.08178 0.0
Mg390 Mg 1.01274 0.42332 0.09798 0.0
Mg391 Mg 0.09894 0.53234 0.0906 0.0
C392 C 0.0973 0.62903 0.13521 0.0
C393 C 1.03664 0.57368 1.00381 0.0
O394 O 0.89118 0.60001 0.14341 0.0
O395 O 0.96085 0.66279 0.15969 0.0
O396 O 0.91054 0.60024 0.03683 0.0
O397 O 0.97631 0.66732 0.05064 0.0
O398 O 0.07375 0.65443 0.13615 0.0
O399 O 0.07767 0.58498 0.12347 0.0
C400 C 0.9978 0.53695 0.18343 0.0
O401 O 0.99776 0.50144 0.16626 0.0
O402 O 0.9759 0.56232 0.15855 0.0
O403 O 0.10696 0.47635 0.05256 0.0
O404 O 1.04016 0.40882 0.04505 0.0
O405 O 0.12474 0.49008 0.1583 0.0
C406 C 0.0817 0.43418 0.03706 0.0
O407 O 0.06655 0.41657 0.15774 0.0
O408 O 0.94236 0.42418 0.09796 0.0
C409 C 0.10907 0.4456 0.17343 0.0
O410 O 0.92308 0.48466 0.06293 0.0
O411 O 1.00547 0.56857 0.0257 0.0
O412 O 0.07303 0.5643 0.02173 0.0
C413 C 0.42513 0.60027 0.05601 0.0
C414 C 0.48192 0.63558 0.9442 0.0
C415 C 0.50531 0.46115 0.99307 0.0
Mg416 Mg 0.52916 0.64242 0.04386 0.0
O417 O 0.51671 0.5776 0.05265 0.0
Mg418 Mg 0.4601 0.53178 1.01207 0.0
Mg419 Mg 0.56634 0.55343 0.05365 0.0
O420 O 0.61485 0.52838 0.05399 0.0
Mg421 Mg 0.60202 0.46295 0.05946 0.0
Mg422 Mg 0.67432 0.57496 0.08981 0.0
C423 C 0.62612 0.6464 0.11324 0.0
C424 C 0.64906 0.63661 0.99636 0.0
O425 O 0.41578 0.56179 0.0366 0.0
O426 O 0.46629 0.63447 0.06367 0.0
O427 O 0.46198 0.58983 0.95188 0.0
O428 O 0.5167 0.66208 0.97296 0.0
O429 O 0.5972 0.66544 0.09111 0.0
O430 O 0.62014 0.6028 0.10855 0.0
C431 C 0.48043 0.47107 0.10798 0.0
O432 O 0.5258 0.49345 0.11059 0.0
O433 O 0.45206 0.47863 0.07301 0.0
O434 O 0.71419 0.54324 0.05653 0.0
O435 O 0.65978 0.47099 0.0315 0.0
O436 O 0.67674 0.51708 0.15036 0.0
C437 C 0.70117 0.50458 0.0354 0.0
O438 O 0.6239 0.44345 0.13023 0.0
O439 O 0.53187 0.43882 1.01381 0.0
C440 C 0.65839 0.4712 0.15862 0.0
O441 O 0.51488 0.50502 0.99935 0.0
O442 O 0.60427 0.61351 0.99576 0.0
O443 O 0.67892 0.62876 0.02948 0.0
C444 C 0.95767 0.55464 0.62724 0.0
C445 C 1.03713 0.61413 0.51459 0.0
C446 C 1.00576 0.4342 0.50676 0.0
Mg447 Mg 0.05696 0.58777 0.61488 0.0
O448 O 1.04933 0.5221 0.6048 0.0
Mg449 Mg 0.98349 0.50179 0.55225 0.0
Mg450 Mg 0.07737 0.54385 0.55345 0.0
O451 O 0.11876 0.50765 0.56046 0.0
Mg452 Mg 0.10171 0.44132 0.57438 0.0
Mg453 Mg 0.18288 0.55413 0.5903 0.0
C454 C 0.15469 0.6212 0.63898 0.0
C455 C 0.15766 0.60483 0.49036 0.0
O456 O 0.94556 0.52554 0.59565 0.0
O457 O 1.00034 0.58243 0.64094 0.0
O458 O 1.0057 0.57159 0.51128 0.0
O459 O 0.06206 0.63022 0.55268 0.0
O460 O 0.1226 0.62288 0.65549 0.0
O461 O 0.14376 0.59647 0.60419 0.0
C462 C 0.99868 0.44364 0.62418 0.0
O463 O 1.03607 0.48487 0.62053 0.0
O464 O 0.96499 0.43134 0.58995 0.0
O465 O 0.21467 0.50711 0.5721 0.0
O466 O 0.15841 0.4336 0.55484 0.0
O467 O 0.17822 0.50794 0.65704 0.0
C468 C 0.20128 0.46422 0.55981 0.0
O469 O 0.12028 0.43434 0.64747 0.0
O470 O 1.03067 0.41178 0.5311 0.0
C471 C 0.15618 0.465 0.67221 0.0
O472 O 1.01859 0.47993 0.50895 0.0
O473 O 0.11375 0.58746 0.49226 0.0
O474 O 0.18821 0.59684 0.52276 0.0
C475 C 0.51014 0.14587 0.55061 0.0
C476 C 0.5105 0.17689 0.44806 0.0
C477 C 0.52716 0.95912 0.48457 0.0
Mg478 Mg 0.59805 0.16971 0.51579 0.0
O479 O 0.58296 0.11007 0.49168 0.0
Mg480 Mg 0.5139 0.06362 0.49156 0.0
Mg481 Mg 0.61832 0.06286 0.51526 0.0
O482 O 0.6516 1.01429 0.53086 0.0
Mg483 Mg 0.62767 0.94939 0.51127 0.0
Mg484 Mg 0.71979 0.05313 0.52375 0.0
C485 C 0.69935 0.15517 0.5668 0.0
C486 C 0.63154 0.03636 0.43532 0.0
O487 O 0.48826 0.11729 0.51739 0.0
O488 O 0.55495 0.16145 0.56296 0.0
O489 O 0.49132 0.13184 0.46156 0.0
O490 O 0.55547 0.20092 0.46059 0.0
O491 O 0.66859 0.17448 0.55657 0.0
O492 O 0.69435 0.11807 0.54517 0.0
C493 C 0.57334 0.06206 0.5981 0.0
O494 O 0.60566 0.05561 0.58584 0.0
O495 O 0.53801 0.06569 0.56938 0.0
O496 O 0.73671 0.99316 0.48749 0.0
O497 O 0.6668 0.93232 0.46905 0.0
O498 O 0.71536 0.99493 0.58943 0.0
C499 C 0.71072 0.95264 0.46735 0.0
O500 O 0.65183 0.92522 0.57592 0.0
O501 O 0.55328 0.93527 0.48939 0.0
C502 C 0.68987 0.95115 0.60184 0.0
O503 O 0.54405 1.00414 0.49258 0.0
O504 O 0.62943 0.07364 0.44562 0.0
O505 O 0.66009 1.02002 0.46123 0.0
C506 C 0.24444 0.22758 0.43967 0.0
C507 C 0.21984 0.23291 0.39535 0.0
H508 H 0.24193 0.19427 0.50665 0.0
C509 C 0.16998 0.20728 0.38666 0.0
H510 H 0.28249 0.24621 0.4482 0.0
C511 C 0.14596 0.17671 0.42063 0.0
C512 C 0.17088 0.17051 0.4648 0.0
H513 H 0.14935 0.20999 0.35299 0.0
H514 H 0.1081 0.15694 0.41184 0.0
C515 C 0.22062 0.19729 0.47344 0.0
C516 C 0.93487 0.22836 0.379 0.0
C517 C 0.88529 0.205 0.3661 0.0
H518 H 0.99999 0.22415 0.41593 0.0
C519 C 0.86442 0.15552 0.37837 0.0
H520 H 0.95267 0.26639 0.37052 0.0
C521 C 0.89219 0.13083 0.40414 0.0
C522 C 0.9416 0.155 0.41881 0.0
H523 H 0.8265 0.13618 0.36927 0.0
H524 H 0.87448 0.09339 0.41469 0.0
C525 C 0.96239 0.20396 0.40504 0.0
C526 C 0.92064 0.85245 0.43164 0.0
C527 C 0.92399 0.87396 0.38787 0.0
H528 H 0.94138 0.86289 0.50312 0.0
C529 C 0.94738 0.92408 0.38206 0.0
H530 H 0.90114 0.81416 0.43676 0.0
C531 C 0.96811 0.95222 0.41984 0.0
C532 C 0.96628 0.93028 0.46364 0.0
H533 H 0.94852 0.94163 0.34839 0.0
H534 H 0.98775 0.99066 0.41494 0.0
C535 C 0.94216 0.88037 0.46938 0.0
C536 C 0.24963 0.94108 0.48447 0.0
C537 C 0.27298 0.9801 0.45651 0.0
H538 H 0.20809 0.91696 0.5355 0.0
C539 C 0.27908 1.02689 0.46385 0.0
H540 H 0.24394 0.90455 0.47901 0.0
C541 C 0.25879 0.03398 0.49654 0.0
C542 C 0.23171 0.99415 0.52137 0.0
H543 H 0.29704 0.05736 0.44254 0.0
H544 H 0.26084 0.06981 0.49954 0.0
C545 C 0.22894 0.94806 0.51658 0.0
C546 C 0.25999 0.94029 0.73157 0.0
C547 C 0.23927 0.89018 0.74093 0.0
H548 H 0.24956 1.00418 0.70158 0.0
C549 C 0.18963 0.86716 0.73005 0.0
H550 H 0.29799 0.95946 0.73977 0.0
C551 C 0.16173 0.89286 0.70844 0.0
C552 C 0.18239 0.94261 0.69732 0.0
H553 H 0.17212 0.82872 0.7369 0.0
H554 H 0.12392 0.87317 0.69863 0.0
C555 C 0.23198 0.96616 0.71026 0.0
C556 C 0.21266 0.23905 0.69286 0.0
C557 C 0.22221 0.21108 0.73195 0.0
H558 H 0.17664 0.23896 0.62369 0.0
C559 C 0.20838 0.16153 0.72981 0.0
H560 H 0.2236 0.27765 0.69387 0.0
C561 C 0.18203 0.13949 0.68936 0.0
C562 C 0.1687 0.167 0.65141 0.0
H563 H 0.21634 0.13978 0.75962 0.0
H564 H 0.16897 0.10059 0.68906 0.0
C565 C 0.18614 0.21712 0.65269 0.0
C566 C 0.90104 0.1613 0.65815 0.0
C567 C 0.881 0.12225 0.68749 0.0
H568 H 0.93215 0.1849 0.59967 0.0
C569 C 0.86956 0.07511 0.67633 0.0
H570 H 0.90977 0.19789 0.66636 0.0
C571 C 0.88208 0.06749 0.6379 0.0
C572 C 0.90634 0.10714 0.6109 0.0
H573 H 0.85415 0.04472 0.69896 0.0
H574 H 0.8768 0.03126 0.63186 0.0
C575 C 0.91349 0.1538 0.62001 0.0
C576 C 0.89322 0.87503 0.68478 0.0
C577 C 0.91843 0.87624 0.72999 0.0
H578 H 0.89367 0.90112 0.6154 0.0
C579 C 0.96752 0.90561 0.73779 0.0
H580 H 0.85563 0.85342 0.67687 0.0
C581 C 0.99005 0.93358 0.70186 0.0
C582 C 0.96424 0.93336 0.65675 0.0
H583 H 0.98847 0.90803 0.77206 0.0
H584 H 1.02722 0.95674 0.70981 0.0
C585 C 0.91548 0.90282 0.64921 0.0
C586 C 0.32941 0.11528 0.10376 0.0
C587 C 0.33746 0.16333 0.10842 0.0
H588 H 0.35268 0.06785 0.08094 0.0
C589 C 0.37219 0.20093 0.08864 0.0
H590 H 0.30307 0.08572 0.11908 0.0
C591 C 0.40112 0.19081 0.0678 0.0
C592 C 0.39502 0.14294 0.06573 0.0
H593 H 0.37828 0.23826 0.09099 0.0
H594 H 0.4291 0.22046 0.05452 0.0
C595 C 0.35791 0.10511 0.08222 0.0
C596 C 1.04637 0.59877 0.29418 0.0
C597 C 0.06491 0.56585 0.31931 0.0
H598 H 1.0035 0.60995 0.23066 0.0
C599 C 0.08379 0.54497 0.2947 0.0
H600 H 1.03689 0.62087 0.31155 0.0
C601 C 0.06322 0.53648 0.24886 0.0
C602 C 1.02989 0.55558 0.22673 0.0
H603 H 0.10515 0.52525 0.31206 0.0
H604 H 0.0706 0.51224 0.23208 0.0
C605 C 1.02601 0.59141 0.248 0.0
C606 C 0.68651 1.00358 0.26889 0.0
C607 C 0.67729 0.95445 0.26982 0.0
H608 H 0.6721 0.0599 0.22647 0.0
C609 C 0.63036 0.92269 0.25325 0.0
H610 H 0.72039 0.0288 0.28585 0.0
C611 C 0.60111 0.94036 0.22092 0.0
C612 C 0.61942 0.98915 0.20664 0.0
H613 H 0.61918 0.88396 0.2573 0.0
H614 H 0.56894 0.91482 0.20165 0.0
C615 C 0.65868 1.02146 0.23494 0.0
C616 C 0.20998 0.73318 0.15704 0.0
C617 C 0.22458 0.72327 0.20337 0.0
H618 H 0.1572 0.7079 0.09695 0.0
C619 C 0.20506 0.67622 0.22216 0.0
H620 H 0.22432 0.76954 0.1423 0.0
C621 C 0.16727 0.64067 0.19604 0.0
C622 C 0.14828 0.65255 0.15144 0.0
H623 H 0.21571 0.66827 0.25814 0.0
H624 H 0.14895 0.60634 0.21263 0.0
C625 C 0.17195 0.69783 0.13108 0.0
C626 C 0.37637 0.85316 0.95716 0.0
C627 C 0.35908 0.867 0.91273 0.0
H628 H 0.42899 0.87419 1.01808 0.0
C629 C 0.3787 0.91574 0.89752 0.0
H630 H 0.3618 0.81598 0.96983 0.0
C631 C 0.4171 0.94942 0.92538 0.0
C632 C 0.4366 0.93457 0.96859 0.0
H633 H 0.36574 0.92737 0.86336 0.0
H634 H 0.43331 0.9861 0.91204 0.0
C635 C 0.41488 0.88653 0.98471 0.0
C636 C 0.17148 0.42046 0.98381 0.0
C637 C 0.15131 0.37092 0.97615 0.0
H638 H 0.16529 0.47923 1.00831 0.0
C639 C 0.10633 0.3429 0.9858 0.0
H640 H 0.20629 0.44307 0.9774 0.0
C641 C 0.08268 0.36369 1.00379 0.0
C642 C 0.10355 0.41297 1.01271 0.0
H643 H 0.08951 0.30474 0.97981 0.0
H644 H 1.04868 0.34078 1.01191 0.0
C645 C 0.14795 0.44119 1.00182 0.0
C646 C 0.69038 0.16458 0.88029 0.0
C647 C 0.7082 0.21526 0.87719 0.0
H648 H 0.65117 0.09951 0.91511 0.0
C649 C 0.69381 0.23879 0.90356 0.0
H650 H 0.70065 0.14524 0.86052 0.0
C651 C 0.66501 0.21228 0.93472 0.0
C652 C 0.64966 0.16189 0.9395 0.0
H653 H 0.70713 0.27779 0.90221 0.0
H654 H 0.65747 0.23135 0.95722 0.0
C655 C 0.66157 0.13826 0.91118 0.0
C656 C 0.93107 0.74443 0.93847 0.0
C657 C 0.89172 0.72088 0.90498 0.0
H658 H 0.97685 0.73854 1.00106 0.0
C659 C 0.86904 0.67024 0.90881 0.0
H660 H 0.94893 0.78338 0.93662 0.0
C661 C 0.88432 0.644 0.94689 0.0
C662 C 0.92316 0.66798 0.98115 0.0
H663 H 0.838 0.65128 0.88377 0.0
H664 H 0.86511 0.60532 0.95004 0.0
C665 C 0.94694 0.71842 0.97558 0.0
C666 C 0.16513 0.35359 0.22256 0.0
C667 C 0.21065 0.38158 0.24632 0.0
H668 H 0.09808 0.35069 0.18331 0.0
C669 C 0.22166 0.43125 0.24858 0.0
H670 H 0.15487 0.31536 0.2198 0.0
C671 C 0.18888 0.45223 0.22641 0.0
C672 C 0.14321 0.42401 0.20251 0.0
H673 H 0.25631 0.45433 0.26615 0.0
H674 H 0.19964 0.49076 0.22748 0.0
C675 C 0.13209 0.3741 0.20176 0.0
C676 C 1.0134 0.54381 0.88348 0.0
C677 C 1.02846 0.59035 0.86255 0.0
H678 H 1.00633 0.5028 0.94675 0.0
C679 C 1.03267 0.62922 0.88594 0.0
H680 H 1.00902 0.51315 0.86605 0.0
C681 C 1.03123 0.62328 0.93204 0.0
C682 C 1.02487 0.57845 0.95448 0.0
H683 H 1.04383 0.66559 0.87082 0.0
H684 H 1.0397 0.65443 0.95089 0.0
C685 C 1.01257 0.53805 0.92964 0.0
C686 C 0.43938 0.23665 0.85962 0.0
C687 C 0.3902 0.2116 0.85159 0.0
H688 H 0.50649 0.23433 0.89149 0.0
C689 C 0.37071 0.1622 0.86263 0.0
H690 H 0.45484 0.27503 0.85125 0.0
C691 C 0.40012 0.13846 0.88403 0.0
C692 C 0.44947 0.1643 0.89644 0.0
H693 H 0.33275 0.14245 0.85645 0.0
H694 H 0.38359 0.10081 0.89459 0.0
C695 C 0.46888 0.21326 0.88219 0.0
C696 C 0.88515 0.33893 0.98264 0.0
C697 C 0.87728 0.35957 0.9383 0.0
H698 H 0.90431 0.34719 0.05457 0.0
C699 C 0.88426 0.40886 0.93478 0.0
H700 H 0.88025 0.30137 0.98753 0.0
C701 C 0.89786 0.43581 0.97441 0.0
C702 C 0.90565 0.41454 1.01887 0.0
H703 H 0.8783 0.42634 0.90149 0.0
H704 H 0.90227 0.47323 0.97016 0.0
C705 C 0.8992 0.36563 0.02164 0.0
C706 C 0.73797 0.91859 0.02379 0.0
C707 C 0.77482 0.95376 1.00454 0.0
H708 H 0.6796 0.90387 0.0547 0.0
C709 C 0.78382 1.00273 1.00642 0.0
H710 H 0.73071 0.88063 0.02387 0.0
C711 C 0.75521 1.01606 0.02512 0.0
C712 C 0.7166 0.98065 0.04159 0.0
H713 H 0.8114 0.0308 0.99135 0.0
H714 H 0.76177 0.05394 0.02425 0.0
C715 C 0.70889 0.93189 0.04176 0.0
C716 C 0.90061 0.74397 0.20971 0.0
C717 C 0.86775 0.72039 0.23823 0.0
H718 H 0.94172 0.7387 0.16537 0.0
C719 C 0.84994 0.66915 0.24065 0.0
H720 H 0.91547 0.78298 0.20619 0.0
C721 C 0.86402 0.64307 0.21548 0.0
C722 C 0.89774 0.667 0.1877 0.0
H723 H 0.82433 0.64892 0.26163 0.0
H724 H 0.84921 0.60406 0.21871 0.0
C725 C 0.91573 0.71813 0.18589 0.0
C726 C 0.43679 0.88351 0.18577 0.0
C727 C 0.4097 0.89611 0.2082 0.0
H728 H 0.48144 0.90534 0.13644 0.0
C729 C 0.4115 0.94348 0.20066 0.0
H730 H 0.43654 0.84754 0.19082 0.0
C731 C 0.43719 0.97624 0.16998 0.0
C732 C 0.46268 0.96324 0.14623 0.0
H733 H 0.39157 0.95503 0.21726 0.0
H734 H 0.43548 1.01141 0.16329 0.0
C735 C 0.46308 0.9168 0.15509 0.0
C736 C 0.73916 0.27315 0.15071 0.0
C737 C 0.75669 0.25052 0.19032 0.0
H738 H 0.68521 0.26573 0.09028 0.0
C739 C 0.73303 0.20031 0.19732 0.0
H740 H 0.75621 0.31174 0.14431 0.0
C741 C 0.69265 0.17362 0.16571 0.0
C742 C 0.67427 0.19662 0.12677 0.0
H743 H 0.74532 0.18173 0.2276 0.0
H744 H 0.67473 0.13529 0.1727 0.0
C745 C 0.69831 0.24672 0.1197 0.0
C746 C 0.74192 0.72966 0.93202 0.0
C747 C 0.71823 0.72745 0.88621 0.0
H748 H 0.73912 0.70469 1.00134 0.0
C749 C 0.66927 0.69765 0.87705 0.0
H750 H 0.77933 0.75176 0.94096 0.0
C751 C 0.64548 0.67 0.91231 0.0
C752 C 0.66987 0.6711 0.95807 0.0
H753 H 0.64947 0.69449 0.84228 0.0
H754 H 0.60855 0.64633 0.90343 0.0
C755 C 0.71841 0.70228 0.96695 0.0
C756 C 0.44699 0.73625 0.88221 0.0
C757 C 0.39746 0.71291 0.87085 0.0
H758 H 0.5127 0.73005 0.9126 0.0
C759 C 0.37685 0.66247 0.8776 0.0
H760 H 0.4643 0.77499 0.87709 0.0
C761 C 0.40493 0.63641 0.89728 0.0
C762 C 0.45439 0.66016 0.91103 0.0
H763 H 0.3389 0.64318 0.86875 0.0
H764 H 0.38744 0.598 0.90434 0.0
C765 C 0.47498 0.71032 0.90206 0.0
C766 C 0.42631 0.44425 0.87781 0.0
C767 C 0.40803 0.3941 0.87647 0.0
H768 H 0.47088 0.50519 0.91749 0.0
C769 C 0.41618 0.36584 0.91591 0.0
H770 H 0.41973 0.4664 0.84779 0.0
C771 C 0.44553 0.38768 0.95541 0.0
C772 C 0.46638 0.43795 0.95602 0.0
H773 H 0.40192 0.32687 0.91567 0.0
H774 H 0.45361 0.36539 0.9847 0.0
C775 C 0.45501 0.46616 0.91771 0.0
C776 C 0.74715 0.44177 0.97576 0.0
C777 C 0.75778 0.47405 0.93812 0.0
H778 H 0.7215 0.4271 0.03739 0.0
C779 C 0.76064 0.52119 0.93909 0.0
H780 H 0.74598 0.40566 0.97656 0.0
C781 C 0.74787 0.53389 0.9748 0.0
C782 C 0.73195 0.49944 1.00954 0.0
H783 H 0.76889 0.54687 0.91059 0.0
H784 H 0.7458 0.56873 0.97276 0.0
C785 C 0.73391 0.45422 1.01094 0.0
C786 C 0.6904 0.37445 0.2352 0.0
C787 C 0.73992 0.39745 0.24885 0.0
H788 H 0.62599 0.37944 0.19713 0.0
C789 C 0.76137 0.44701 0.23732 0.0
H790 H 0.67224 0.33636 0.24317 0.0
C791 C 0.73425 0.47216 0.2113 0.0
C792 C 0.68499 0.44831 0.1956 0.0
H793 H 0.79928 0.46604 0.24706 0.0
H794 H 0.75244 0.50965 0.20117 0.0
C795 C 0.66353 0.39931 0.20884 0.0
C796 C 0.68312 0.66946 0.23533 0.0
C797 C 0.69798 0.71971 0.23447 0.0
H798 H 0.6506 0.60649 0.19633 0.0
C799 C 0.69403 0.74583 0.19289 0.0
H800 H 0.68802 0.64898 0.26709 0.0
C801 C 0.6741 0.72197 0.15257 0.0
C802 C 0.6582 0.6716 0.1533 0.0
H803 H 0.70663 0.78467 0.19144 0.0
H804 H 0.66981 0.74273 0.12086 0.0
C805 C 0.66348 0.64548 0.19487 0.0
C806 C 0.36588 0.65232 0.1115 0.0
C807 C 0.34386 0.61257 0.13958 0.0
H808 H 0.40931 0.67916 0.062 0.0
C809 C 0.34012 0.56665 0.13232 0.0
H810 H 0.36972 0.68826 0.11681 0.0
C811 C 0.36255 0.5615 0.10055 0.0
C812 C 0.38935 0.60244 0.0766 0.0
H813 H 0.32326 0.53565 0.15371 0.0
H814 H 0.36293 0.52656 0.09821 0.0
C815 C 0.38881 0.64731 0.08037 0.0
C816 C 0.38279 0.38771 0.17285 0.0
C817 C 0.40698 0.38566 0.21801 0.0
H818 H 0.38627 0.41424 0.10399 0.0
C819 C 0.45698 0.40968 0.22646 0.0
H820 H 0.34465 0.36998 0.16449 0.0
C821 C 0.48159 0.43576 0.19133 0.0
C822 C 0.45716 0.43867 0.14617 0.0
H823 H 0.47729 0.40925 0.26073 0.0
H824 H 0.51958 0.45472 0.19988 0.0
C825 C 0.40722 0.41341 0.13788 0.0
C826 C 0.90603 0.5938 0.70512 0.0
C827 C 0.8595 0.58257 0.68077 0.0
H828 H 0.97305 0.59276 0.70764 0.0
C829 C 0.84372 0.55638 0.64121 0.0
H830 H 0.91967 0.61443 0.73534 0.0
C831 C 0.87486 0.54455 0.62473 0.0
C832 C 0.92213 0.55877 0.64764 0.0
H833 H 0.80782 0.54662 0.62208 0.0
H834 H 0.86259 0.52658 0.59298 0.0
C835 C 0.93689 0.58185 0.68885 0.0
C836 C 0.55635 0.09441 0.70556 0.0
C837 C 0.56877 0.06113 0.7371 0.0
H838 H 0.54361 0.11689 0.636 0.0
C839 C 0.59385 0.03755 0.7247 0.0
H840 H 0.53903 0.11492 0.71437 0.0
C841 C 0.59844 0.04062 0.67972 0.0
C842 C 0.57738 0.06649 0.64662 0.0
H843 H 0.60495 1.01207 0.74791 0.0
H844 H 0.61444 1.01915 0.67024 0.0
C845 C 0.5588 0.09547 0.66032 0.0
C846 C 0.19094 0.37429 0.75305 0.0
C847 C 0.24019 0.3965 0.75793 0.0
H848 H 0.12466 0.37923 0.72216 0.0
C849 C 0.26121 0.44461 0.74294 0.0
H850 H 0.17422 0.33691 0.7644 0.0
C851 C 0.23317 0.46949 0.72065 0.0
C852 C 0.18344 0.44585 0.71102 0.0
H853 H 0.29921 0.46224 0.7466 0.0
H854 H 0.25074 0.50572 0.707 0.0
C855 C 0.16265 0.39862 0.72927 0.0
C856 C 0.78417 0.25502 0.64446 0.0
C857 C 0.77412 0.23567 0.68771 0.0
H858 H 0.77124 0.24431 0.57301 0.0
C859 C 0.74735 0.18545 0.69128 0.0
H860 H 0.80462 0.29327 0.63972 0.0
C861 C 0.72881 0.15672 0.65244 0.0
C862 C 0.73677 0.17676 0.60851 0.0
H863 H 0.73835 0.16873 0.72355 0.0
H864 H 0.70467 0.11951 0.65615 0.0
C865 C 0.76588 0.22642 0.60595 0.0
C866 C 0.89431 0.32857 0.45588 0.0
C867 C 0.8724 0.3513 0.41962 0.0
H868 H 0.95338 0.33645 0.51128 0.0
C869 C 0.89399 0.40172 0.41304 0.0
H870 H 0.87885 0.28978 0.46174 0.0
C871 C 0.93655 0.42871 0.44186 0.0
C872 C 0.95921 0.40586 0.47746 0.0
H873 H 0.87807 0.4203 0.38536 0.0
H874 H 0.95229 0.46743 0.43554 0.0
C875 C 0.93728 0.35539 0.48415 0.0
C876 C 0.77601 0.9238 0.38688 0.0
C877 C 0.7582 0.87248 0.38912 0.0
H878 H 0.77747 0.98905 0.40947 0.0
C879 C 0.72604 0.8492 0.41851 0.0
H880 H 0.80084 0.94403 0.36515 0.0
C881 C 0.71179 0.87522 0.44329 0.0
C882 C 0.72996 0.92641 0.44183 0.0
H883 H 0.71097 0.8102 0.42198 0.0
H884 H 0.68622 0.85471 0.46424 0.0
C885 C 0.76278 0.95004 0.41296 0.0
C886 C 0.23215 0.65949 0.40138 0.0
C887 C 0.22647 0.70324 0.38794 0.0
H888 H 0.21464 0.59446 0.44373 0.0
C889 C 0.19345 0.71193 0.40519 0.0
H890 H 0.25707 0.65118 0.38903 0.0
C891 C 0.16785 0.67817 0.43602 0.0
C892 C 0.17552 0.63562 0.45076 0.0
H893 H 0.18794 0.74504 0.39542 0.0
H894 H 0.14402 0.68651 0.45013 0.0
C895 C 0.20754 0.6266 0.43263 0.0
C896 C 0.40509 0.19746 0.36698 0.0
C897 C 0.41179 0.24401 0.3766 0.0
H898 H 0.42974 0.13979 0.38232 0.0
C899 C 0.45249 0.26893 0.40908 0.0
H900 H 0.37431 0.17684 0.34256 0.0
C901 C 0.48537 0.24831 0.4308 0.0
C902 C 0.47808 0.2013 0.42196 0.0
H903 H 0.45915 0.3048 0.4176 0.0
H904 H 0.51584 0.26868 0.45565 0.0
C905 C 0.43709 0.17618 0.38989 0.0
C906 C 0.69862 0.85073 0.68823 0.0
C907 C 0.73968 0.87445 0.71986 0.0
H908 H 0.65039 0.85613 0.62757 0.0
C909 C 0.76288 0.92496 0.71495 0.0
H910 H 0.68034 0.81185 0.69092 0.0
C911 C 0.74635 0.9509 0.67748 0.0
C912 C 0.70591 0.92671 0.64488 0.0
H913 H 0.79527 0.94398 0.73852 0.0
H914 H 0.7659 0.9894 0.67332 0.0
C915 C 0.68165 0.87645 0.65169 0.0
C916 C 0.53913 1.0149 0.32958 0.0
C917 C 0.56706 1.00783 0.30423 0.0
H918 H 0.54677 0.0415 0.39391 0.0
C919 C 0.58815 0.97568 0.32603 0.0
H920 H 0.51336 0.02993 0.31323 0.0
C921 C 0.60765 0.98035 0.37272 0.0
C922 C 0.59782 1.01049 0.39586 0.0
H923 H 0.60212 0.96001 0.30689 0.0
H924 H 0.63507 0.96726 0.38793 0.0
C925 C 0.55851 1.02204 0.37584 0.0
C926 C 0.99807 0.64436 0.39582 0.0
C927 C 0.99298 0.68564 0.40409 0.0
H928 H 1.01819 0.58712 0.42814 0.0
C929 C 1.02497 0.71441 0.43988 0.0
H930 H 0.97535 0.62301 0.36708 0.0
C931 C 1.04856 0.69355 0.4755 0.0
C932 C 1.0409 0.64532 0.47328 0.0
H933 H 1.02354 0.74792 0.4457 0.0
H934 H 0.06503 0.71175 0.50718 0.0
C935 C 1.02201 0.62362 0.43112 0.0
C936 C 0.42166 0.8523 0.4438 0.0
C937 C 0.40706 0.8703 0.40041 0.0
H938 H 0.47108 0.86858 0.50706 0.0
C939 C 0.42287 0.92025 0.39082 0.0
H940 H 0.40966 0.81377 0.45158 0.0
C941 C 0.45756 0.95184 0.42286 0.0
C942 C 0.47733 0.93319 0.46379 0.0
H943 H 0.41167 0.93451 0.35725 0.0
H944 H 0.47279 0.98986 0.41325 0.0
C945 C 0.45641 0.8837 0.47555 0.0
C946 C 0.25835 0.39961 0.51452 0.0
C947 C 0.30619 0.4308 0.52604 0.0
H948 H 0.18725 0.38604 0.51601 0.0
C949 C 0.31953 0.4693 0.55363 0.0
H950 H 0.24693 0.37001 0.49264 0.0
C951 C 0.28524 0.47907 0.56606 0.0
C952 C 0.23718 0.45018 0.55138 0.0
H953 H 0.35623 0.49352 0.56322 0.0
H954 H 0.29639 0.51035 0.58571 0.0
C955 C 0.22405 0.40915 0.52729 0.0
C956 C 0.41588 0.18146 0.5729 0.0
C957 C 0.44107 0.21116 0.61009 0.0
H958 H 0.41766 0.13732 0.52486 0.0
C959 C 0.48796 0.21681 0.62854 0.0
H960 H 0.37979 0.1766 0.55755 0.0
C961 C 0.5096 0.19475 0.60968 0.0
C962 C 0.48493 0.16587 0.57198 0.0
H963 H 0.50821 0.23847 0.6577 0.0
H964 H 0.54609 0.20091 0.6246 0.0
C965 C 0.43758 0.159 0.55407 0.0
C966 C 0.94272 0.34816 0.70908 0.0
C967 C 0.93649 0.37566 0.73838 0.0
H968 H 0.96813 0.34868 0.64967 0.0
C969 C 0.95887 0.42628 0.73441 0.0
H970 H 0.92562 0.30916 0.71092 0.0
C971 C 0.98463 0.44885 0.70011 0.0
C972 C 0.9875 0.4212 0.66862 0.0
H973 H 0.95461 0.44846 0.7564 0.0
H974 H 0.99873 0.48784 0.69583 0.0
C975 C 0.96737 0.37072 0.67418 0.0
C976 C 0.26075 0.68232 0.72704 0.0
C977 C 0.27967 0.72837 0.70557 0.0
H978 H 0.20592 0.61132 0.72206 0.0
C979 C 0.26293 0.73488 0.65885 0.0
H980 H 0.2732 0.67592 0.76294 0.0
C981 C 0.22514 0.69693 0.63506 0.0
C982 C 0.20359 0.65242 0.65788 0.0
H983 H 0.27691 0.76988 0.64148 0.0
H984 H 0.21006 0.70372 0.59996 0.0
C985 C 0.22263 0.64495 0.7036 0.0
loop_
_geom_bond_atom_site_label_1
_geom_bond_atom_site_label_2
_geom_bond_distance
_geom_bond_site_symmetry_2
_ccdc_geom_bond_type
C0 Eu1 2.835 . S
C0 C2 1.500 . S
C0 O20 1.257 . S
C0 O21 1.260 . S
Eu1 C0 2.835 . S
Eu1 O20 2.473 . S
Eu1 O21 2.480 . S
Eu1 O22 2.430 . S
Eu1 O23 2.670 . S
Eu1 O24 2.394 . S
Eu1 O29 2.355 . S
Eu1 O31 2.374 . S
C2 C0 1.500 . S
C2 C3 1.377 . S
C2 C7 1.377 . S
C3 C2 1.377 . S
C3 C4 1.395 . S
C3 H32 0.931 . S
C4 C3 1.395 . S
C4 C5 1.383 . S
C4 H33 0.931 . S
C5 C4 1.383 . S
C5 C6 1.394 . S
C6 C5 1.394 . S
C6 C7 1.378 . S
C6 H34 0.931 . S
C7 C2 1.377 . S
C7 C6 1.378 . S
C7 H35 0.931 . S
C8 O22 1.259 . S
C8 O23 1.270 . S
C9 O24 1.251 . S
C9 O25 1.251 . S
C10 Eu11 2.835 . S
C10 C12 1.500 . S
C10 O26 1.257 . S
C10 O27 1.260 . S
Eu11 C10 2.835 . S
Eu11 O23 2.355 . S
Eu11 O25 2.374 . S
Eu11 O26 2.473 . S
Eu11 O27 2.480 . S
Eu11 O28 2.430 . S
Eu11 O29 2.670 . S
Eu11 O30 2.394 . S
C12 C10 1.500 . S
C12 C13 1.377 . S
C12 C17 1.377 . S
C13 C12 1.377 . S
C13 C14 1.395 . S
C13 H36 0.931 . S
C14 C13 1.395 . S
C14 C15 1.383 . S
C14 H37 0.931 . S
C15 C14 1.383 . S
C15 C16 1.394 . S
C16 C15 1.394 . S
C16 C17 1.378 . S
C16 H38 0.931 . S
C17 C12 1.377 . S
C17 C16 1.378 . S
C17 H39 0.931 . S
C18 O28 1.259 . S
C18 O29 1.270 . S
C19 O30 1.251 . S
C19 O31 1.251 . S
O20 C0 1.257 . S
O20 Eu1 2.473 . S
O21 C0 1.260 . S
O21 Eu1 2.480 . S
O22 Eu1 2.430 . S
O22 C8 1.259 . S
O23 Eu1 2.670 . S
O23 C8 1.270 . S
O23 Eu11 2.355 . S
O24 Eu1 2.394 . S
O24 C9 1.251 . S
O25 C9 1.251 . S
O25 Eu11 2.374 . S
O26 C10 1.257 . S
O26 Eu11 2.473 . S
O27 C10 1.260 . S
O27 Eu11 2.480 . S
O28 Eu11 2.430 . S
O28 C18 1.259 . S
O29 Eu1 2.355 . S
O29 Eu11 2.670 . S
O29 C18 1.270 . S
O30 Eu11 2.394 . S
O30 C19 1.251 . S
O31 Eu1 2.374 . S
O31 C19 1.251 . S
H32 C3 0.931 . S
H33 C4 0.931 . S
H34 C6 0.931 . S
H35 C7 0.931 . S
H36 C13 0.931 . S
H37 C14 0.931 . S
H38 C16 0.931 . S
H39 C17 0.931 . S
C40 Eu41 2.835 . S
C40 C42 1.500 . S
C40 O60 1.257 . S
C40 O61 1.260 . S
Eu41 C40 2.835 . S
Eu41 O60 2.473 . S
Eu41 O61 2.480 . S
Eu41 O62 2.430 . S
Eu41 O63 2.670 . S
Eu41 O64 2.394 . S
Eu41 O69 2.355 . S
Eu41 O71 2.374 . S
C42 C40 1.500 . S
C42 C43 1.377 . S
C42 C47 1.377 . S
C43 C42 1.377 . S
C43 C44 1.395 . S
C43 H72 0.931 . S
C44 C43 1.395 . S
C44 C45 1.383 . S
C44 H73 0.931 . S
C45 C44 1.383 . S
C45 C46 1.394 . S
C46 C45 1.394 . S
C46 C47 1.378 . S
C46 H74 0.931 . S
C47 C42 1.377 . S
C47 C46 1.378 . S
C47 H75 0.931 . S
C48 O62 1.259 . S
C48 O63 1.270 . S
C49 O64 1.251 . S
C49 O65 1.251 . S
C50 Eu51 2.835 . S
C50 C52 1.500 . S
C50 O66 1.257 . S
C50 O67 1.260 . S
Eu51 C50 2.835 . S
Eu51 O63 2.355 . S
Eu51 O65 2.374 . S
Eu51 O66 2.473 . S
Eu51 O67 2.480 . S
Eu51 O68 2.430 . S
Eu51 O69 2.670 . S
Eu51 O70 2.394 . S
C52 C50 1.500 . S
C52 C53 1.377 . S
C52 C57 1.377 . S
C53 C52 1.377 . S
C53 C54 1.395 . S
C53 H76 0.931 . S
C54 C53 1.395 . S
C54 C55 1.383 . S
C54 H77 0.931 . S
C55 C54 1.383 . S
C55 C56 1.394 . S
C56 C55 1.394 . S
C56 C57 1.378 . S
C56 H78 0.931 . S
C57 C52 1.377 . S
C57 C56 1.378 . S
C57 H79 0.931 . S
C58 O68 1.259 . S
C58 O69 1.270 . S
C59 O70 1.251 . S
C59 O71 1.251 . S
O60 C40 1.257 . S
O60 Eu41 2.473 . S
O61 C40 1.260 . S
O61 Eu41 2.480 . S
O62 Eu41 2.430 . S
O62 C48 1.259 . S
O63 Eu41 2.670 . S
O63 C48 1.270 . S
O63 Eu51 2.355 . S
O64 Eu41 2.394 . S
O64 C49 1.251 . S
O65 C49 1.251 . S
O65 Eu51 2.374 . S
O66 C50 1.257 . S
O66 Eu51 2.473 . S
O67 C50 1.260 . S
O67 Eu51 2.480 . S
O68 Eu51 2.430 . S
O68 C58 1.259 . S
O69 Eu41 2.355 . S
O69 Eu51 2.670 . S
O69 C58 1.270 . S
O70 Eu51 2.394 . S
O70 C59 1.251 . S
O71 Eu41 2.374 . S
O71 C59 1.251 . S
H72 C43 0.931 . S
H73 C44 0.931 . S
H74 C46 0.931 . S
H75 C47 0.931 . S
H76 C53 0.931 . S
H77 C54 0.931 . S
H78 C56 0.931 . S
H79 C57 0.931 . S
C80 Eu81 2.835 . S
C80 C82 1.500 . S
C80 O100 1.257 . S
C80 O101 1.260 . S
Eu81 C80 2.835 . S
Eu81 O100 2.473 . S
Eu81 O101 2.480 . S
Eu81 O102 2.430 . S
Eu81 O103 2.670 . S
Eu81 O104 2.394 . S
Eu81 O109 2.355 . S
Eu81 O111 2.374 . S
C82 C80 1.500 . S
C82 C83 1.377 . S
C82 C87 1.377 . S
C83 C82 1.377 . S
C83 C84 1.395 . S
C83 H112 0.931 . S
C84 C83 1.395 . S
C84 C85 1.383 . S
C84 H113 0.931 . S
C85 C84 1.383 . S
C85 C86 1.394 . S
C86 C85 1.394 . S
C86 C87 1.378 . S
C86 H114 0.931 . S
C87 C82 1.377 . S
C87 C86 1.378 . S
C87 H115 0.931 . S
C88 O102 1.259 . S
C88 O103 1.270 . S
C89 O104 1.251 . S
C89 O105 1.251 . S
C90 Eu91 2.835 . S
C90 C92 1.500 . S
C90 O106 1.257 . S
C90 O107 1.260 . S
Eu91 C90 2.835 . S
Eu91 O103 2.355 . S
Eu91 O105 2.374 . S
Eu91 O106 2.473 . S
Eu91 O107 2.480 . S
Eu91 O108 2.430 . S
Eu91 O109 2.670 . S
Eu91 O110 2.394 . S
C92 C90 1.500 . S
C92 C93 1.377 . S
C92 C97 1.377 . S
C93 C92 1.377 . S
C93 C94 1.395 . S
C93 H116 0.931 . S
C94 C93 1.395 . S
C94 C95 1.383 . S
C94 H117 0.931 . S
C95 C94 1.383 . S
C95 C96 1.394 . S
C96 C95 1.394 . S
C96 C97 1.378 . S
C96 H118 0.931 . S
C97 C92 1.377 . S
C97 C96 1.378 . S
C97 H119 0.931 . S
C98 O108 1.259 . S
C98 O109 1.270 . S
C99 O110 1.251 . S
C99 O111 1.251 . S
O100 C80 1.257 . S
O100 Eu81 2.473 . S
O101 C80 1.260 . S
O101 Eu81 2.480 . S
O102 Eu81 2.430 . S
O102 C88 1.259 . S
O103 Eu81 2.670 . S
O103 C88 1.270 . S
O103 Eu91 2.355 . S
O104 Eu81 2.394 . S
O104 C89 1.251 . S
O105 C89 1.251 . S
O105 Eu91 2.374 . S
O106 C90 1.257 . S
O106 Eu91 2.473 . S
O107 C90 1.260 . S
O107 Eu91 2.480 . S
O108 Eu91 2.430 . S
O108 C98 1.259 . S
O109 Eu81 2.355 . S
O109 Eu91 2.670 . S
O109 C98 1.270 . S
O110 Eu91 2.394 . S
O110 C99 1.251 . S
O111 Eu81 2.374 . S
O111 C99 1.251 . S
H112 C83 0.931 . S
H113 C84 0.931 . S
H114 C86 0.931 . S
H115 C87 0.931 . S
H116 C93 0.931 . S
H117 C94 0.931 . S
H118 C96 0.931 . S
H119 C97 0.931 . S
C120 Eu121 2.835 . S
C120 C122 1.500 . S
C120 O140 1.257 . S
C120 O141 1.260 . S
Eu121 C120 2.835 . S
Eu121 O140 2.473 . S
Eu121 O141 2.480 . S
Eu121 O142 2.430 . S
Eu121 O143 2.670 . S
Eu121 O144 2.394 . S
Eu121 O149 2.355 . S
Eu121 O151 2.374 . S
C122 C120 1.500 . S
C122 C123 1.377 . S
C122 C127 1.377 . S
C123 C122 1.377 . S
C123 C124 1.395 . S
C123 H152 0.931 . S
C124 C123 1.395 . S
C124 C125 1.383 . S
C124 H153 0.931 . S
C125 C124 1.383 . S
C125 C126 1.394 . S
C126 C125 1.394 . S
C126 C127 1.378 . S
C126 H154 0.931 . S
C127 C122 1.377 . S
C127 C126 1.378 . S
C127 H155 0.931 . S
C128 O142 1.259 . S
C128 O143 1.270 . S
C129 O144 1.251 . S
C129 O145 1.251 . S
C130 Eu131 2.835 . S
C130 C132 1.500 . S
C130 O146 1.257 . S
C130 O147 1.260 . S
Eu131 C130 2.835 . S
Eu131 O143 2.355 . S
Eu131 O145 2.374 . S
Eu131 O146 2.473 . S
Eu131 O147 2.480 . S
Eu131 O148 2.430 . S
Eu131 O149 2.670 . S
Eu131 O150 2.394 . S
C132 C130 1.500 . S
C132 C133 1.377 . S
C132 C137 1.377 . S
C133 C132 1.377 . S
C133 C134 1.395 . S
C133 H156 0.931 . S
C134 C133 1.395 . S
C134 C135 1.383 . S
C134 H157 0.931 . S
C135 C134 1.383 . S
C135 C136 1.394 . S
C136 C135 1.394 . S
C136 C137 1.378 . S
C136 H158 0.931 . S
C137 C132 1.377 . S
C137 C136 1.378 . S
C137 H159 0.931 . S
C138 O148 1.259 . S
C138 O149 1.270 . S
C139 O150 1.251 . S
C139 O151 1.251 . S
O140 C120 1.257 . S
O140 Eu121 2.473 . S
O141 C120 1.260 . S
O141 Eu121 2.480 . S
O142 Eu121 2.430 . S
O142 C128 1.259 . S
O143 Eu121 2.670 . S
O143 C128 1.270 . S
O143 Eu131 2.355 . S
O144 Eu121 2.394 . S
O144 C129 1.251 . S
O145 C129 1.251 . S
O145 Eu131 2.374 . S
O146 C130 1.257 . S
O146 Eu131 2.473 . S
O147 C130 1.260 . S
O147 Eu131 2.480 . S
O148 Eu131 2.430 . S
O148 C138 1.259 . S
O149 Eu121 2.355 . S
O149 Eu131 2.670 . S
O149 C138 1.270 . S
O150 Eu131 2.394 . S
O150 C139 1.251 . S
O151 Eu121 2.374 . S
O151 C139 1.251 . S
H152 C123 0.931 . S
H153 C124 0.931 . S
H154 C126 0.931 . S
H155 C127 0.931 . S
H156 C133 0.931 . S
H157 C134 0.931 . S
H158 C136 0.931 . S
H159 C137 0.931 . S
C160 Eu161 2.835 . S
C160 C162 1.500 . S
C160 O180 1.257 . S
C160 O181 1.260 . S
Eu161 C160 2.835 . S
Eu161 O180 2.473 . S
Eu161 O181 2.480 . S
Eu161 O182 2.430 . S
Eu161 O183 2.670 . S
Eu161 O184 2.394 . S
Eu161 O189 2.355 . S
Eu161 O191 2.374 . S
C162 C160 1.500 . S
C162 C163 1.377 . S
C162 C167 1.377 . S
C163 C162 1.377 . S
C163 C164 1.395 . S
C163 H192 0.931 . S
C164 C163 1.395 . S
C164 C165 1.383 . S
C164 H193 0.931 . S
C165 C164 1.383 . S
C165 C166 1.394 . S
C166 C165 1.394 . S
C166 C167 1.378 . S
C166 H194 0.931 . S
C167 C162 1.377 . S
C167 C166 1.378 . S
C167 H195 0.931 . S
C168 O182 1.259 . S
C168 O183 1.270 . S
C169 O184 1.251 . S
C169 O185 1.251 . S
C170 Eu171 2.835 . S
C170 C172 1.500 . S
C170 O186 1.257 . S
C170 O187 1.260 . S
Eu171 C170 2.835 . S
Eu171 O183 2.355 . S
Eu171 O185 2.374 . S
Eu171 O186 2.473 . S
Eu171 O187 2.480 . S
Eu171 O188 2.430 . S
Eu171 O189 2.670 . S
Eu171 O190 2.394 . S
C172 C170 1.500 . S
C172 C173 1.377 . S
C172 C177 1.377 . S
C173 C172 1.377 . S
C173 C174 1.395 . S
C173 H196 0.931 . S
C174 C173 1.395 . S
C174 C175 1.383 . S
C174 H197 0.931 1_556 S
C175 C174 1.383 . S
C175 C176 1.394 . S
C176 C175 1.394 . S
C176 C177 1.378 . S
C176 H198 0.931 . S
C177 C172 1.377 . S
C177 C176 1.378 . S
C177 H199 0.931 . S
C178 O188 1.259 . S
C178 O189 1.270 . S
C179 O190 1.251 . S
C179 O191 1.251 . S
O180 C160 1.257 . S
O180 Eu161 2.473 . S
O181 C160 1.260 . S
O181 Eu161 2.480 . S
O182 Eu161 2.430 . S
O182 C168 1.259 . S
O183 Eu161 2.670 . S
O183 C168 1.270 . S
O183 Eu171 2.355 . S
O184 Eu161 2.394 . S
O184 C169 1.251 . S
O185 C169 1.251 . S
O185 Eu171 2.374 . S
O186 C170 1.257 . S
O186 Eu171 2.473 . S
O187 C170 1.260 . S
O187 Eu171 2.480 . S
O188 Eu171 2.430 . S
O188 C178 1.259 . S
O189 Eu161 2.355 . S
O189 Eu171 2.670 . S
O189 C178 1.270 . S
O190 Eu171 2.394 . S
O190 C179 1.251 . S
O191 Eu161 2.374 . S
O191 C179 1.251 . S
H192 C163 0.931 . S
H193 C164 0.931 . S
H194 C166 0.931 . S
H195 C167 0.931 . S
H196 C173 0.931 . S
H197 C174 0.931 1_554 S
H198 C176 0.931 . S
H199 C177 0.931 . S
C200 Eu201 2.835 . S
C200 C202 1.500 . S
C200 O220 1.257 . S
C200 O221 1.260 . S
Eu201 C200 2.835 . S
Eu201 O220 2.473 . S
Eu201 O221 2.480 . S
Eu201 O222 2.430 . S
Eu201 O223 2.670 . S
Eu201 O224 2.394 . S
Eu201 O229 2.355 . S
Eu201 O231 2.374 . S
C202 C200 1.500 . S
C202 C203 1.377 . S
C202 C207 1.377 . S
C203 C202 1.377 . S
C203 C204 1.395 . S
C203 H232 0.931 . S
C204 C203 1.395 . S
C204 C205 1.383 . S
C204 H233 0.931 . S
C205 C204 1.383 . S
C205 C206 1.394 . S
C206 C205 1.394 . S
C206 C207 1.378 . S
C206 H234 0.931 . S
C207 C202 1.377 . S
C207 C206 1.378 . S
C207 H235 0.931 . S
C208 O222 1.259 . S
C208 O223 1.270 . S
C209 O224 1.251 . S
C209 O225 1.251 . S
C210 Eu211 2.835 . S
C210 C212 1.500 . S
C210 O226 1.257 . S
C210 O227 1.260 . S
Eu211 C210 2.835 . S
Eu211 O223 2.355 . S
Eu211 O225 2.374 . S
Eu211 O226 2.473 . S
Eu211 O227 2.480 . S
Eu211 O228 2.430 . S
Eu211 O229 2.670 . S
Eu211 O230 2.394 . S
C212 C210 1.500 . S
C212 C213 1.377 . S
C212 C217 1.377 . S
C213 C212 1.377 . S
C213 C214 1.395 . S
C213 H236 0.931 . S
C214 C213 1.395 . S
C214 C215 1.383 . S
C214 H237 0.931 . S
C215 C214 1.383 . S
C215 C216 1.394 . S
C216 C215 1.394 . S
C216 C217 1.378 . S
C216 H238 0.931 . S
C217 C212 1.377 . S
C217 C216 1.378 . S
C217 H239 0.931 . S
C218 O228 1.259 . S
C218 O229 1.270 . S
C219 O230 1.251 . S
C219 O231 1.251 . S
O220 C200 1.257 . S
O220 Eu201 2.473 . S
O221 C200 1.260 . S
O221 Eu201 2.480 . S
O222 Eu201 2.430 . S
O222 C208 1.259 . S
O223 Eu201 2.670 . S
O223 C208 1.270 . S
O223 Eu211 2.355 . S
O224 Eu201 2.394 . S
O224 C209 1.251 . S
O225 C209 1.251 . S
O225 Eu211 2.374 . S
O226 C210 1.257 . S
O226 Eu211 2.473 . S
O227 C210 1.260 . S
O227 Eu211 2.480 . S
O228 Eu211 2.430 . S
O228 C218 1.259 . S
O229 Eu201 2.355 . S
O229 Eu211 2.670 . S
O229 C218 1.270 . S
O230 Eu211 2.394 . S
O230 C219 1.251 . S
O231 Eu201 2.374 . S
O231 C219 1.251 . S
H232 C203 0.931 . S
H233 C204 0.931 . S
H234 C206 0.931 . S
H235 C207 0.931 . S
H236 C213 0.931 . S
H237 C214 0.931 . S
H238 C216 0.931 . S
H239 C217 0.931 . S
C240 Eu241 2.835 . S
C240 C242 1.500 . S
C240 O260 1.257 . S
C240 O261 1.260 . S
Eu241 C240 2.835 . S
Eu241 O260 2.473 . S
Eu241 O261 2.480 . S
Eu241 O262 2.430 . S
Eu241 O263 2.670 . S
Eu241 O264 2.394 . S
Eu241 O269 2.355 . S
Eu241 O271 2.374 . S
C242 C240 1.500 . S
C242 C243 1.377 . S
C242 C247 1.377 . S
C243 C242 1.377 . S
C243 C244 1.395 . S
C243 H272 0.931 . S
C244 C243 1.395 . S
C244 C245 1.383 . S
C244 H273 0.931 . S
C245 C244 1.383 . S
C245 C246 1.394 . S
C246 C245 1.394 . S
C246 C247 1.378 . S
C246 H274 0.931 . S
C247 C242 1.377 . S
C247 C246 1.378 . S
C247 H275 0.931 . S
C248 O262 1.259 . S
C248 O263 1.270 . S
C249 O264 1.251 . S
C249 O265 1.251 . S
C250 Eu251 2.835 . S
C250 C252 1.500 . S
C250 O266 1.257 . S
C250 O267 1.260 . S
Eu251 C250 2.835 . S
Eu251 O263 2.355 . S
Eu251 O265 2.374 . S
Eu251 O266 2.473 . S
Eu251 O267 2.480 . S
Eu251 O268 2.430 . S
Eu251 O269 2.670 . S
Eu251 O270 2.394 . S
C252 C250 1.500 . S
C252 C253 1.377 . S
C252 C257 1.377 . S
C253 C252 1.377 . S
C253 C254 1.395 . S
C253 H276 0.931 . S
C254 C253 1.395 . S
C254 C255 1.383 . S
C254 H277 0.931 . S
C255 C254 1.383 . S
C255 C256 1.394 . S
C256 C255 1.394 . S
C256 C257 1.378 . S
C256 H278 0.931 . S
C257 C252 1.377 . S
C257 C256 1.378 . S
C257 H279 0.931 . S
C258 O268 1.259 . S
C258 O269 1.270 . S
C259 O270 1.251 . S
C259 O271 1.251 . S
O260 C240 1.257 . S
O260 Eu241 2.473 . S
O261 C240 1.260 . S
O261 Eu241 2.480 . S
O262 Eu241 2.430 . S
O262 C248 1.259 . S
O263 Eu241 2.670 . S
O263 C248 1.270 . S
O263 Eu251 2.355 . S
O264 Eu241 2.394 . S
O264 C249 1.251 . S
O265 C249 1.251 . S
O265 Eu251 2.374 . S
O266 C250 1.257 . S
O266 Eu251 2.473 . S
O267 C250 1.260 . S
O267 Eu251 2.480 . S
O268 Eu251 2.430 . S
O268 C258 1.259 . S
O269 Eu241 2.355 . S
O269 Eu251 2.670 . S
O269 C258 1.270 . S
O270 Eu251 2.394 . S
O270 C259 1.251 . S
O271 Eu241 2.374 . S
O271 C259 1.251 . S
H272 C243 0.931 . S
H273 C244 0.931 . S
H274 C246 0.931 . S
H275 C247 0.931 . S
H276 C253 0.931 . S
H277 C254 0.931 . S
H278 C256 0.931 . S
H279 C257 0.931 . S
C280 Eu281 2.835 . S
C280 C282 1.500 . S
C280 O300 1.257 . S
C280 O301 1.260 . S
Eu281 C280 2.835 . S
Eu281 O300 2.473 . S
Eu281 O301 2.480 . S
Eu281 O302 2.430 . S
Eu281 O303 2.670 . S
Eu281 O304 2.394 . S
Eu281 O309 2.355 . S
Eu281 O311 2.374 . S
C282 C280 1.500 . S
C282 C283 1.377 . S
C282 C287 1.377 . S
C283 C282 1.377 . S
C283 C284 1.395 . S
C283 H312 0.931 . S
C284 C283 1.395 . S
C284 C285 1.383 . S
C284 H313 0.931 1_565 S
C285 C284 1.383 . S
C285 C286 1.394 . S
C286 C285 1.394 . S
C286 C287 1.378 . S
C286 H314 0.931 . S
C287 C282 1.377 . S
C287 C286 1.378 . S
C287 H315 0.931 . S
C288 O302 1.259 . S
C288 O303 1.270 . S
C289 O304 1.251 . S
C289 O305 1.251 . S
C290 Eu291 2.835 . S
C290 C292 1.500 . S
C290 O306 1.257 . S
C290 O307 1.260 . S
Eu291 C290 2.835 . S
Eu291 O303 2.355 . S
Eu291 O305 2.374 . S
Eu291 O306 2.473 . S
Eu291 O307 2.480 . S
Eu291 O308 2.430 . S
Eu291 O309 2.670 . S
Eu291 O310 2.394 . S
C292 C290 1.500 . S
C292 C293 1.377 . S
C292 C297 1.377 . S
C293 C292 1.377 . S
C293 C294 1.395 . S
C293 H316 0.931 . S
C294 C293 1.395 . S
C294 C295 1.383 . S
C294 H317 0.931 . S
C295 C294 1.383 . S
C295 C296 1.394 . S
C296 C295 1.394 . S
C296 C297 1.378 . S
C296 H318 0.931 . S
C297 C292 1.377 . S
C297 C296 1.378 . S
C297 H319 0.931 . S
C298 O308 1.259 . S
C298 O309 1.270 . S
C299 O310 1.251 . S
C299 O311 1.251 . S
O300 C280 1.257 . S
O300 Eu281 2.473 . S
O301 C280 1.260 . S
O301 Eu281 2.480 . S
O302 Eu281 2.430 . S
O302 C288 1.259 . S
O303 Eu281 2.670 . S
O303 C288 1.270 . S
O303 Eu291 2.355 . S
O304 Eu281 2.394 . S
O304 C289 1.251 . S
O305 C289 1.251 . S
O305 Eu291 2.374 . S
O306 C290 1.257 . S
O306 Eu291 2.473 . S
O307 C290 1.260 . S
O307 Eu291 2.480 . S
O308 Eu291 2.430 . S
O308 C298 1.259 . S
O309 Eu281 2.355 . S
O309 Eu291 2.670 . S
O309 C298 1.270 . S
O310 Eu291 2.394 . S
O310 C299 1.251 . S
O311 Eu281 2.374 . S
O311 C299 1.251 . S
H312 C283 0.931 . S
H313 C284 0.931 1_545 S
H314 C286 0.931 . S
H315 C287 0.931 . S
H316 C293 0.931 . S
H317 C294 0.931 . S
H318 C296 0.931 . S
H319 C297 0.931 . S
C320 O332 1.241 . S
C320 O333 1.280 . S
C321 O334 1.277 . S
C321 O335 1.245 . S
C322 O346 1.247 . S
C322 O348 1.289 . S
Mg323 O324 1.926 1_455 S
Mg323 O333 1.984 1_455 S
Mg323 O335 1.988 1_455 S
Mg323 O336 2.061 . S
O324 Mg323 1.926 1_655 S
O324 Mg325 1.986 . S
O324 Mg326 1.917 1_655 S
Mg325 O324 1.986 . S
Mg325 O332 2.042 . S
Mg325 O334 2.041 . S
Mg325 O340 2.038 1_545 S
Mg325 O348 2.238 1_545 S
Mg326 O324 1.917 1_455 S
Mg326 O327 1.917 1_545 S
Mg326 O337 2.106 . S
Mg326 O339 2.079 1_445 S
Mg326 O348 2.106 1_445 S
Mg326 O349 2.079 . S
O327 Mg326 1.917 1_565 S
O327 Mg328 1.926 . S
O327 Mg329 1.986 1_565 S
Mg328 O327 1.926 . S
Mg328 O342 1.984 . S
Mg328 O345 1.988 . S
Mg328 O346 2.061 1_455 S
Mg329 O327 1.986 1_545 S
Mg329 O337 2.238 . S
Mg329 O341 2.042 1_545 S
Mg329 O343 2.041 1_545 S
Mg329 O350 2.038 . S
C330 O336 1.247 . S
C330 O337 1.289 . S
C331 O349 1.245 . S
C331 O350 1.274 . S
O332 C320 1.241 . S
O332 Mg325 2.042 . S
O333 C320 1.280 . S
O333 Mg323 1.984 1_655 S
O334 C321 1.277 . S
O334 Mg325 2.041 . S
O335 C321 1.245 . S
O335 Mg323 1.988 1_655 S
O336 Mg323 2.061 . S
O336 C330 1.247 . S
O337 Mg326 2.106 . S
O337 Mg329 2.238 . S
O337 C330 1.289 . S
C338 O339 1.245 . S
C338 O340 1.274 . S
O339 Mg326 2.079 1_665 S
O339 C338 1.245 . S
O340 Mg325 2.038 1_565 S
O340 C338 1.274 . S
O341 Mg329 2.042 1_565 S
O341 C344 1.241 . S
O342 Mg328 1.984 . S
O342 C344 1.280 . S
O343 Mg329 2.041 1_565 S
O343 C347 1.277 . S
C344 O341 1.241 . S
C344 O342 1.280 . S
O345 Mg328 1.988 . S
O345 C347 1.245 . S
O346 C322 1.247 . S
O346 Mg328 2.061 1_655 S
C347 O343 1.277 . S
C347 O345 1.245 . S
O348 C322 1.289 . S
O348 Mg325 2.238 1_565 S
O348 Mg326 2.106 1_665 S
O349 Mg326 2.079 . S
O349 C331 1.245 . S
O350 Mg329 2.038 . S
O350 C331 1.274 . S
C351 O363 1.241 . S
C351 O364 1.280 . S
C352 O365 1.277 . S
C352 O366 1.245 . S
C353 O377 1.247 . S
C353 O379 1.274 1_565 S
Mg354 O355 1.926 . S
Mg354 O364 1.984 . S
Mg354 O366 1.988 1_554 S
Mg354 O367 2.061 . S
O355 Mg354 1.926 . S
O355 Mg356 1.986 1_554 S
O355 Mg357 1.919 . S
Mg356 O355 1.986 1_556 S
Mg356 O363 2.042 1_556 S
Mg356 O365 2.041 . S
Mg356 O371 2.038 1_546 S
Mg356 O379 2.250 . S
Mg357 O355 1.919 . S
Mg357 O358 1.934 1_554 S
Mg357 O368 2.109 . S
Mg357 O370 2.084 1_545 S
Mg357 O379 2.107 1_554 S
Mg357 O380 2.074 1_554 S
O358 Mg357 1.934 1_556 S
O358 Mg359 1.905 1_545 S
O358 Mg360 1.991 1_556 S
Mg359 O358 1.905 1_565 S
Mg359 O373 1.984 . S
Mg359 O376 1.988 1_556 S
Mg359 O377 2.061 . S
Mg360 O358 1.991 1_554 S
Mg360 O368 2.238 . S
Mg360 O372 2.042 1_554 S
Mg360 O374 2.023 1_545 S
Mg360 O381 2.038 1_554 S
C361 O367 1.247 . S
C361 O368 1.289 . S
C362 O380 1.245 . S
C362 O381 1.274 . S
O363 C351 1.241 . S
O363 Mg356 2.042 1_554 S
O364 C351 1.280 . S
O364 Mg354 1.984 . S
O365 C352 1.277 . S
O365 Mg356 2.041 . S
O366 C352 1.245 . S
O366 Mg354 1.988 1_556 S
O367 Mg354 2.061 . S
O367 C361 1.247 . S
O368 Mg357 2.109 . S
O368 Mg360 2.238 . S
O368 C361 1.289 . S
C369 O370 1.245 . S
C369 O371 1.274 . S
O370 Mg357 2.084 1_565 S
O370 C369 1.245 . S
O371 Mg356 2.038 1_564 S
O371 C369 1.274 . S
O372 Mg360 2.042 1_556 S
O372 C375 1.241 1_545 S
O373 Mg359 1.984 . S
O373 C375 1.280 . S
O374 Mg360 2.023 1_565 S
O374 C378 1.297 . S
C375 O372 1.241 1_565 S
C375 O373 1.280 . S
O376 Mg359 1.988 1_554 S
O376 C378 1.245 . S
O377 C353 1.247 . S
O377 Mg359 2.061 . S
C378 O374 1.297 . S
C378 O376 1.245 . S
O379 C353 1.274 1_545 S
O379 Mg356 2.250 . S
O379 Mg357 2.107 1_556 S
O380 Mg357 2.074 1_556 S
O380 C362 1.245 . S
O381 Mg360 2.038 1_556 S
O381 C362 1.274 . S
C382 O394 1.241 . S
C382 O395 1.280 . S
C383 O396 1.277 . S
C383 O397 1.245 1_556 S
C384 O408 1.247 1_556 S
C384 O410 1.289 1_556 S
Mg385 O386 1.925 . S
Mg385 O395 2.009 . S
Mg385 O397 1.995 . S
Mg385 O398 2.039 1_655 S
O386 Mg385 1.925 . S
O386 Mg387 1.986 . S
O386 Mg388 1.917 1_655 S
Mg387 O386 1.986 . S
Mg387 O394 2.042 . S
Mg387 O396 2.041 1_554 S
Mg387 O402 2.038 . S
Mg387 O410 2.238 . S
Mg388 O386 1.917 1_455 S
Mg388 O389 1.917 . S
Mg388 O399 2.106 . S
Mg388 O401 2.079 1_455 S
Mg388 O410 2.106 1_455 S
Mg388 O411 2.079 . S
O389 Mg388 1.917 . S
O389 Mg390 1.926 . S
O389 Mg391 1.986 . S
Mg390 O389 1.926 . S
Mg390 O404 1.984 . S
Mg390 O407 1.988 . S
Mg390 O408 2.061 1_455 S
Mg391 O389 1.986 . S
Mg391 O399 2.238 . S
Mg391 O403 2.042 . S
Mg391 O405 2.041 . S
Mg391 O412 2.038 . S
C392 O398 1.247 . S
C392 O399 1.289 . S
C393 O411 1.245 . S
C393 O412 1.274 . S
O394 C382 1.241 . S
O394 Mg387 2.042 . S
O395 C382 1.280 . S
O395 Mg385 2.009 . S
O396 C383 1.277 . S
O396 Mg387 2.041 1_556 S
O397 C383 1.245 1_554 S
O397 Mg385 1.995 . S
O398 Mg385 2.039 1_455 S
O398 C392 1.247 . S
O399 Mg388 2.106 . S
O399 Mg391 2.238 . S
O399 C392 1.289 . S
C400 O401 1.245 . S
C400 O402 1.274 . S
O401 Mg388 2.079 1_655 S
O401 C400 1.245 . S
O402 Mg387 2.038 . S
O402 C400 1.274 . S
O403 Mg391 2.042 . S
O403 C406 1.241 . S
O404 Mg390 1.984 . S
O404 C406 1.280 . S
O405 Mg391 2.041 . S
O405 C409 1.277 . S
C406 O403 1.241 . S
C406 O404 1.280 . S
O407 Mg390 1.988 . S
O407 C409 1.245 . S
O408 C384 1.247 1_554 S
O408 Mg390 2.061 1_655 S
C409 O405 1.277 . S
C409 O407 1.245 . S
O410 C384 1.289 1_554 S
O410 Mg387 2.238 . S
O410 Mg388 2.106 1_655 S
O411 Mg388 2.079 . S
O411 C393 1.245 . S
O412 Mg391 2.038 . S
O412 C393 1.274 . S
C413 O425 1.241 . S
C413 O426 1.280 . S
C414 O427 1.277 . S
C414 O428 1.245 . S
C415 O439 1.247 . S
C415 O441 1.289 . S
Mg416 O417 1.926 . S
Mg416 O426 1.984 . S
Mg416 O428 1.988 1_554 S
Mg416 O429 2.061 . S
O417 Mg416 1.926 . S
O417 Mg418 1.986 . S
O417 Mg419 1.917 . S
Mg418 O417 1.986 . S
Mg418 O425 2.042 . S
Mg418 O427 2.041 1_554 S
Mg418 O433 2.038 . S
Mg418 O441 2.238 1_554 S
Mg419 O417 1.917 . S
Mg419 O420 1.917 . S
Mg419 O430 2.106 . S
Mg419 O432 2.079 . S
Mg419 O441 2.106 1_554 S
Mg419 O442 2.079 1_554 S
O420 Mg419 1.917 . S
O420 Mg421 1.926 . S
O420 Mg422 1.986 . S
Mg421 O420 1.926 . S
Mg421 O435 1.984 1_554 S
Mg421 O438 1.988 . S
Mg421 O439 2.061 1_554 S
Mg422 O420 1.986 . S
Mg422 O430 2.238 . S
Mg422 O434 2.042 . S
Mg422 O436 2.041 . S
Mg422 O443 2.038 . S
C423 O429 1.247 . S
C423 O430 1.289 . S
C424 O442 1.245 . S
C424 O443 1.274 1_556 S
O425 C413 1.241 . S
O425 Mg418 2.042 . S
O426 C413 1.280 . S
O426 Mg416 1.984 . S
O427 C414 1.277 . S
O427 Mg418 2.041 1_556 S
O428 C414 1.245 . S
O428 Mg416 1.988 1_556 S
O429 Mg416 2.061 . S
O429 C423 1.247 . S
O430 Mg419 2.106 . S
O430 Mg422 2.238 . S
O430 C423 1.289 . S
C431 O432 1.245 . S
C431 O433 1.274 . S
O432 Mg419 2.079 . S
O432 C431 1.245 . S
O433 Mg418 2.038 . S
O433 C431 1.274 . S
O434 Mg422 2.042 . S
O434 C437 1.241 1_554 S
O435 Mg421 1.984 1_556 S
O435 C437 1.280 . S
O436 Mg422 2.041 . S
O436 C440 1.277 . S
C437 O434 1.241 1_556 S
C437 O435 1.280 . S
O438 Mg421 1.988 . S
O438 C440 1.245 . S
O439 C415 1.247 . S
O439 Mg421 2.061 1_556 S
C440 O436 1.277 . S
C440 O438 1.245 . S
O441 C415 1.289 . S
O441 Mg418 2.238 1_556 S
O441 Mg419 2.106 1_556 S
O442 Mg419 2.079 1_556 S
O442 C424 1.245 . S
O443 Mg422 2.038 . S
O443 C424 1.274 1_554 S
C444 O456 1.241 . S
C444 O457 1.285 . S
C445 O458 1.277 . S
C445 O459 1.245 1_655 S
C446 O470 1.247 . S
C446 O472 1.289 . S
Mg447 O448 1.926 . S
Mg447 O457 1.978 1_455 S
Mg447 O459 1.988 . S
Mg447 O460 2.061 . S
O448 Mg447 1.926 . S
O448 Mg449 1.986 1_455 S
O448 Mg450 1.917 . S
Mg449 O448 1.986 1_655 S
Mg449 O456 2.042 . S
Mg449 O458 2.041 . S
Mg449 O464 2.038 . S
Mg449 O472 2.238 . S
Mg450 O448 1.917 . S
Mg450 O451 1.917 . S
Mg450 O461 2.106 . S
Mg450 O463 2.079 . S
Mg450 O472 2.106 1_455 S
Mg450 O473 2.079 . S
O451 Mg450 1.917 . S
O451 Mg452 1.926 . S
O451 Mg453 1.986 . S
Mg452 O451 1.926 . S
Mg452 O466 1.984 . S
Mg452 O469 1.988 . S
Mg452 O470 2.061 1_455 S
Mg453 O451 1.986 . S
Mg453 O461 2.238 . S
Mg453 O465 2.042 . S
Mg453 O467 2.041 . S
Mg453 O474 2.038 . S
C454 O460 1.247 . S
C454 O461 1.289 . S
C455 O473 1.245 . S
C455 O474 1.274 . S
O456 C444 1.241 . S
O456 Mg449 2.042 . S
O457 C444 1.285 . S
O457 Mg447 1.978 1_655 S
O458 C445 1.277 . S
O458 Mg449 2.041 . S
O459 C445 1.245 1_455 S
O459 Mg447 1.988 . S
O460 Mg447 2.061 . S
O460 C454 1.247 . S
O461 Mg450 2.106 . S
O461 Mg453 2.238 . S
O461 C454 1.289 . S
C462 O463 1.245 1_655 S
C462 O464 1.274 . S
O463 Mg450 2.079 . S
O463 C462 1.245 1_455 S
O464 Mg449 2.038 . S
O464 C462 1.274 . S
O465 Mg453 2.042 . S
O465 C468 1.241 . S
O466 Mg452 1.984 . S
O466 C468 1.280 . S
O467 Mg453 2.041 . S
O467 C471 1.277 . S
C468 O465 1.241 . S
C468 O466 1.280 . S
O469 Mg452 1.988 . S
O469 C471 1.245 . S
O470 C446 1.247 . S
O470 Mg452 2.061 1_655 S
C471 O467 1.277 . S
C471 O469 1.245 . S
O472 C446 1.289 . S
O472 Mg449 2.238 . S
O472 Mg450 2.106 1_655 S
O473 Mg450 2.079 . S
O473 C455 1.245 . S
O474 Mg453 2.038 . S
O474 C455 1.274 . S
C475 O487 1.241 . S
C475 O488 1.280 . S
C476 O489 1.277 . S
C476 O490 1.245 . S
C477 O501 1.247 . S
C477 O503 1.289 . S
Mg478 O479 1.926 . S
Mg478 O488 1.984 . S
Mg478 O490 1.988 . S
Mg478 O491 2.061 . S
O479 Mg478 1.926 . S
O479 Mg480 1.986 1_545 S
O479 Mg481 1.917 . S
Mg480 O479 1.986 1_565 S
Mg480 O487 2.042 1_565 S
Mg480 O489 2.041 1_565 S
Mg480 O495 2.038 . S
Mg480 O503 2.238 . S
Mg481 O479 1.917 . S
Mg481 O482 1.917 1_545 S
Mg481 O492 2.106 . S
Mg481 O494 2.079 1_545 S
Mg481 O503 2.106 1_545 S
Mg481 O504 2.079 . S
O482 Mg481 1.917 1_565 S
O482 Mg483 1.926 . S
O482 Mg484 1.986 1_565 S
Mg483 O482 1.926 . S
Mg483 O497 1.984 . S
Mg483 O500 1.988 . S
Mg483 O501 2.061 . S
Mg484 O482 1.986 1_545 S
Mg484 O492 2.238 . S
Mg484 O496 2.042 1_545 S
Mg484 O498 2.041 1_545 S
Mg484 O505 2.038 . S
C485 O491 1.247 . S
C485 O492 1.289 . S
C486 O504 1.245 . S
C486 O505 1.274 . S
O487 C475 1.241 . S
O487 Mg480 2.042 1_545 S
O488 C475 1.280 . S
O488 Mg478 1.984 . S
O489 C476 1.277 . S
O489 Mg480 2.041 1_545 S
O490 C476 1.245 . S
O490 Mg478 1.988 . S
O491 Mg478 2.061 . S
O491 C485 1.247 . S
O492 Mg481 2.106 . S
O492 Mg484 2.238 . S
O492 C485 1.289 . S
C493 O494 1.245 . S
C493 O495 1.274 . S
O494 Mg481 2.079 1_565 S
O494 C493 1.245 . S
O495 Mg480 2.038 . S
O495 C493 1.274 . S
O496 Mg484 2.042 1_565 S
O496 C499 1.241 . S
O497 Mg483 1.984 . S
O497 C499 1.280 . S
O498 Mg484 2.041 1_565 S
O498 C502 1.277 . S
C499 O496 1.241 . S
C499 O497 1.280 . S
O500 Mg483 1.988 . S
O500 C502 1.245 . S
O501 C477 1.247 . S
O501 Mg483 2.061 . S
C502 O498 1.277 . S
C502 O500 1.245 . S
O503 C477 1.289 . S
O503 Mg480 2.238 . S
O503 Mg481 2.106 1_565 S
O504 Mg481 2.079 . S
O504 C486 1.245 . S
O505 Mg484 2.038 . S
O505 C486 1.274 . S
C506 C507 1.387 . S
C506 H510 0.950 . S
C506 C515 1.390 . S
C507 C506 1.387 . S
C507 C509 1.387 . S
H508 C515 0.950 . S
C509 C507 1.387 . S
C509 C511 1.390 . S
C509 H513 0.950 . S
H510 C506 0.950 . S
C511 C509 1.390 . S
C511 C512 1.387 . S
C511 H514 0.950 . S
C512 C511 1.387 . S
C512 C515 1.387 . S
H513 C509 0.950 . S
H514 C511 0.950 . S
C515 C506 1.390 . S
C515 H508 0.950 . S
C515 C512 1.387 . S
C516 C517 1.387 . S
C516 H520 0.950 . S
C516 C525 1.390 . S
C517 C516 1.387 . S
C517 C519 1.387 . S
H518 C525 0.950 . S
C519 C517 1.387 . S
C519 C521 1.390 . S
C519 H523 0.950 . S
H520 C516 0.950 . S
C521 C519 1.390 . S
C521 C522 1.387 . S
C521 H524 0.950 . S
C522 C521 1.387 . S
C522 C525 1.387 . S
H523 C519 0.950 . S
H524 C521 0.950 . S
C525 C516 1.390 . S
C525 H518 0.950 . S
C525 C522 1.387 . S
C526 C527 1.387 . S
C526 H530 0.950 . S
C526 C535 1.390 . S
C527 C526 1.387 . S
C527 C529 1.387 . S
H528 C535 0.950 . S
C529 C527 1.387 . S
C529 C531 1.390 . S
C529 H533 0.950 . S
H530 C526 0.950 . S
C531 C529 1.390 . S
C531 C532 1.387 . S
C531 H534 0.950 . S
C532 C531 1.387 . S
C532 C535 1.387 . S
H533 C529 0.950 . S
H534 C531 0.950 . S
C535 C526 1.390 . S
C535 H528 0.950 . S
C535 C532 1.387 . S
C536 C537 1.387 . S
C536 H540 0.950 . S
C536 C545 1.390 . S
C537 C536 1.387 . S
C537 C539 1.387 . S
H538 C545 0.950 . S
C539 C537 1.387 . S
C539 C541 1.390 . S
C539 H543 0.950 . S
H540 C536 0.950 . S
C541 C539 1.390 . S
C541 C542 1.387 . S
C541 H544 0.950 . S
C542 C541 1.387 . S
C542 C545 1.387 . S
H543 C539 0.950 . S
H544 C541 0.950 . S
C545 C536 1.390 . S
C545 H538 0.950 . S
C545 C542 1.387 . S
C546 C547 1.387 . S
C546 H550 0.950 . S
C546 C555 1.390 . S
C547 C546 1.387 . S
C547 C549 1.387 . S
H548 C555 0.950 . S
C549 C547 1.387 . S
C549 C551 1.390 . S
C549 H553 0.950 . S
H550 C546 0.950 . S
C551 C549 1.390 . S
C551 C552 1.387 . S
C551 H554 0.950 . S
C552 C551 1.387 . S
C552 C555 1.387 . S
H553 C549 0.950 . S
H554 C551 0.950 . S
C555 C546 1.390 . S
C555 H548 0.950 . S
C555 C552 1.387 . S
C556 C557 1.387 . S
C556 H560 0.950 . S
C556 C565 1.390 . S
C557 C556 1.387 . S
C557 C559 1.387 . S
H558 C565 0.950 . S
C559 C557 1.387 . S
C559 C561 1.390 . S
C559 H563 0.950 . S
H560 C556 0.950 . S
C561 C559 1.390 . S
C561 C562 1.387 . S
C561 H564 0.950 . S
C562 C561 1.387 . S
C562 C565 1.387 . S
H563 C559 0.950 . S
H564 C561 0.950 . S
C565 C556 1.390 . S
C565 H558 0.950 . S
C565 C562 1.387 . S
C566 C567 1.387 . S
C566 H570 0.950 . S
C566 C575 1.390 . S
C567 C566 1.387 . S
C567 C569 1.387 . S
H568 C575 0.950 . S
C569 C567 1.387 . S
C569 C571 1.390 . S
C569 H573 0.950 . S
H570 C566 0.950 . S
C571 C569 1.390 . S
C571 C572 1.387 . S
C571 H574 0.950 . S
C572 C571 1.387 . S
C572 C575 1.387 . S
H573 C569 0.950 . S
H574 C571 0.950 . S
C575 C566 1.390 . S
C575 H568 0.950 . S
C575 C572 1.387 . S
C576 C577 1.387 . S
C576 H580 0.950 . S
C576 C585 1.390 . S
C577 C576 1.387 . S
C577 C579 1.387 . S
H578 C585 0.950 . S
C579 C577 1.387 . S
C579 C581 1.390 . S
C579 H583 0.950 . S
H580 C576 0.950 . S
C581 C579 1.390 . S
C581 C582 1.387 . S
C581 H584 0.950 . S
C582 C581 1.387 . S
C582 C585 1.387 . S
H583 C579 0.950 . S
H584 C581 0.950 . S
C585 C576 1.390 . S
C585 H578 0.950 . S
C585 C582 1.387 . S
C586 C587 1.387 . S
C586 H590 0.950 . S
C586 C595 1.390 . S
C587 C586 1.387 . S
C587 C589 1.387 . S
H588 C595 0.950 . S
C589 C587 1.387 . S
C589 C591 1.390 . S
C589 H593 0.950 . S
H590 C586 0.950 . S
C591 C589 1.390 . S
C591 C592 1.387 . S
C591 H594 0.950 . S
C592 C591 1.387 . S
C592 C595 1.387 . S
H593 C589 0.950 . S
H594 C591 0.950 . S
C595 C586 1.390 . S
C595 H588 0.950 . S
C595 C592 1.387 . S
C596 C597 1.387 . S
C596 H600 0.950 . S
C596 C605 1.390 . S
C597 C596 1.387 . S
C597 C599 1.387 . S
H598 C605 0.950 . S
C599 C597 1.387 . S
C599 C601 1.390 . S
C599 H603 0.950 . S
H600 C596 0.950 . S
C601 C599 1.390 . S
C601 C602 1.387 . S
C601 H604 0.950 . S
C602 C601 1.387 . S
C602 C605 1.387 . S
H603 C599 0.950 . S
H604 C601 0.950 . S
C605 C596 1.390 . S
C605 H598 0.950 . S
C605 C602 1.387 . S
C606 C607 1.387 . S
C606 H610 0.950 1_565 S
C606 C615 1.390 . S
C607 C606 1.387 . S
C607 C609 1.387 . S
H608 C615 0.950 1_545 S
C609 C607 1.387 . S
C609 C611 1.390 . S
C609 H613 0.950 . S
H610 C606 0.950 1_545 S
C611 C609 1.390 . S
C611 C612 1.387 . S
C611 H614 0.950 . S
C612 C611 1.387 . S
C612 C615 1.387 . S
H613 C609 0.950 . S
H614 C611 0.950 . S
C615 C606 1.390 . S
C615 H608 0.950 1_565 S
C615 C612 1.387 . S
C616 C617 1.387 . S
C616 H620 0.950 . S
C616 C625 1.390 . S
C617 C616 1.387 . S
C617 C619 1.387 . S
H618 C625 0.950 . S
C619 C617 1.387 . S
C619 C621 1.390 . S
C619 H623 0.950 . S
H620 C616 0.950 . S
C621 C619 1.390 . S
C621 C622 1.387 . S
C621 H624 0.950 . S
C622 C621 1.387 . S
C622 C625 1.387 . S
H623 C619 0.950 . S
H624 C621 0.950 . S
C625 C616 1.390 . S
C625 H618 0.950 . S
C625 C622 1.387 . S
C626 C627 1.387 . S
C626 H630 0.950 . S
C626 C635 1.390 . S
C627 C626 1.387 . S
C627 C629 1.387 . S
H628 C635 0.950 . S
C629 C627 1.387 . S
C629 C631 1.390 . S
C629 H633 0.950 . S
H630 C626 0.950 . S
C631 C629 1.390 . S
C631 C632 1.387 . S
C631 H634 0.950 . S
C632 C631 1.387 . S
C632 C635 1.387 . S
H633 C629 0.950 . S
H634 C631 0.950 . S
C635 C626 1.390 . S
C635 H628 0.950 . S
C635 C632 1.387 . S
C636 C637 1.387 . S
C636 H640 0.950 . S
C636 C645 1.390 . S
C637 C636 1.387 . S
C637 C639 1.387 . S
H638 C645 0.950 . S
C639 C637 1.387 . S
C639 C641 1.390 . S
C639 H643 0.950 . S
H640 C636 0.950 . S
C641 C639 1.390 . S
C641 C642 1.387 . S
C641 H644 0.950 . S
C642 C641 1.387 . S
C642 C645 1.387 . S
H643 C639 0.950 . S
H644 C641 0.950 . S
C645 C636 1.390 . S
C645 H638 0.950 . S
C645 C642 1.387 . S
C646 C647 1.387 . S
C646 H650 0.950 . S
C646 C655 1.390 . S
C647 C646 1.387 . S
C647 C649 1.387 . S
H648 C655 0.950 . S
C649 C647 1.387 . S
C649 C651 1.390 . S
C649 H653 0.950 . S
H650 C646 0.950 . S
C651 C649 1.390 . S
C651 C652 1.387 . S
C651 H654 0.950 . S
C652 C651 1.387 . S
C652 C655 1.387 . S
H653 C649 0.950 . S
H654 C651 0.950 . S
C655 C646 1.390 . S
C655 H648 0.950 . S
C655 C652 1.387 . S
C656 C657 1.387 . S
C656 H660 0.950 . S
C656 C665 1.390 . S
C657 C656 1.387 . S
C657 C659 1.387 . S
H658 C665 0.950 . S
C659 C657 1.387 . S
C659 C661 1.390 . S
C659 H663 0.950 . S
H660 C656 0.950 . S
C661 C659 1.390 . S
C661 C662 1.387 . S
C661 H664 0.950 . S
C662 C661 1.387 . S
C662 C665 1.387 . S
H663 C659 0.950 . S
H664 C661 0.950 . S
C665 C656 1.390 . S
C665 H658 0.950 . S
C665 C662 1.387 . S
C666 C667 1.387 . S
C666 H670 0.950 . S
C666 C675 1.390 . S
C667 C666 1.387 . S
C667 C669 1.387 . S
H668 C675 0.950 . S
C669 C667 1.387 . S
C669 C671 1.390 . S
C669 H673 0.950 . S
H670 C666 0.950 . S
C671 C669 1.390 . S
C671 C672 1.387 . S
C671 H674 0.950 . S
C672 C671 1.387 . S
C672 C675 1.387 . S
H673 C669 0.950 . S
H674 C671 0.950 . S
C675 C666 1.390 . S
C675 H668 0.950 . S
C675 C672 1.387 . S
C676 C677 1.387 1_554 S
C676 H680 0.950 . S
C676 C685 1.390 . S
C677 C676 1.387 1_556 S
C677 C679 1.387 . S
H678 C685 0.950 . S
C679 C677 1.387 . S
C679 C681 1.390 . S
C679 H683 0.950 . S
H680 C676 0.950 . S
C681 C679 1.390 . S
C681 C682 1.387 . S
C681 H684 0.950 . S
C682 C681 1.387 . S
C682 C685 1.387 1_556 S
H683 C679 0.950 . S
H684 C681 0.950 . S
C685 C676 1.390 . S
C685 H678 0.950 . S
C685 C682 1.387 1_554 S
C686 C687 1.387 . S
C686 H690 0.950 . S
C686 C695 1.390 . S
C687 C686 1.387 . S
C687 C689 1.387 . S
H688 C695 0.950 . S
C689 C687 1.387 . S
C689 C691 1.390 . S
C689 H693 0.950 . S
H690 C686 0.950 . S
C691 C689 1.390 . S
C691 C692 1.387 . S
C691 H694 0.950 . S
C692 C691 1.387 . S
C692 C695 1.387 . S
H693 C689 0.950 . S
H694 C691 0.950 . S
C695 C686 1.390 . S
C695 H688 0.950 . S
C695 C692 1.387 . S
C696 C697 1.387 . S
C696 H700 0.950 . S
C696 C705 1.390 . S
C697 C696 1.387 . S
C697 C699 1.387 . S
H698 C705 0.950 . S
C699 C697 1.387 . S
C699 C701 1.390 . S
C699 H703 0.950 . S
H700 C696 0.950 . S
C701 C699 1.390 . S
C701 C702 1.387 . S
C701 H704 0.950 . S
C702 C701 1.387 . S
C702 C705 1.387 . S
H703 C699 0.950 . S
H704 C701 0.950 . S
C705 C696 1.390 . S
C705 H698 0.950 . S
C705 C702 1.387 . S
C706 C707 1.387 . S
C706 H710 0.950 . S
C706 C715 1.390 . S
C707 C706 1.387 . S
C707 C709 1.387 1_565 S
H708 C715 0.950 . S
C709 C707 1.387 1_545 S
C709 C711 1.390 . S
C709 H713 0.950 . S
H710 C706 0.950 . S
C711 C709 1.390 . S
C711 C712 1.387 1_545 S
C711 H714 0.950 . S
C712 C711 1.387 1_565 S
C712 C715 1.387 . S
H713 C709 0.950 . S
H714 C711 0.950 . S
C715 C706 1.390 . S
C715 H708 0.950 . S
C715 C712 1.387 . S
C716 C717 1.387 . S
C716 H720 0.950 . S
C716 C725 1.390 . S
C717 C716 1.387 . S
C717 C719 1.387 . S
H718 C725 0.950 . S
C719 C717 1.387 . S
C719 C721 1.390 . S
C719 H723 0.950 . S
H720 C716 0.950 . S
C721 C719 1.390 . S
C721 C722 1.387 . S
C721 H724 0.950 . S
C722 C721 1.387 . S
C722 C725 1.387 . S
H723 C719 0.950 . S
H724 C721 0.950 . S
C725 C716 1.390 . S
C725 H718 0.950 . S
C725 C722 1.387 . S
C726 C727 1.387 . S
C726 H730 0.950 . S
C726 C735 1.390 . S
C727 C726 1.387 . S
C727 C729 1.387 . S
H728 C735 0.950 . S
C729 C727 1.387 . S
C729 C731 1.390 . S
C729 H733 0.950 . S
H730 C726 0.950 . S
C731 C729 1.390 . S
C731 C732 1.387 . S
C731 H734 0.950 . S
C732 C731 1.387 . S
C732 C735 1.387 . S
H733 C729 0.950 . S
H734 C731 0.950 . S
C735 C726 1.390 . S
C735 H728 0.950 . S
C735 C732 1.387 . S
C736 C737 1.387 . S
C736 H740 0.950 . S
C736 C745 1.390 . S
C737 C736 1.387 . S
C737 C739 1.387 . S
H738 C745 0.950 . S
C739 C737 1.387 . S
C739 C741 1.390 . S
C739 H743 0.950 . S
H740 C736 0.950 . S
C741 C739 1.390 . S
C741 C742 1.387 . S
C741 H744 0.950 . S
C742 C741 1.387 . S
C742 C745 1.387 . S
H743 C739 0.950 . S
H744 C741 0.950 . S
C745 C736 1.390 . S
C745 H738 0.950 . S
C745 C742 1.387 . S
C746 C747 1.387 . S
C746 H750 0.950 . S
C746 C755 1.390 . S
C747 C746 1.387 . S
C747 C749 1.387 . S
H748 C755 0.950 . S
C749 C747 1.387 . S
C749 C751 1.390 . S
C749 H753 0.950 . S
H750 C746 0.950 . S
C751 C749 1.390 . S
C751 C752 1.387 . S
C751 H754 0.950 . S
C752 C751 1.387 . S
C752 C755 1.387 . S
H753 C749 0.950 . S
H754 C751 0.950 . S
C755 C746 1.390 . S
C755 H748 0.950 . S
C755 C752 1.387 . S
C756 C757 1.387 . S
C756 H760 0.950 . S
C756 C765 1.390 . S
C757 C756 1.387 . S
C757 C759 1.387 . S
H758 C765 0.950 . S
C759 C757 1.387 . S
C759 C761 1.390 . S
C759 H763 0.950 . S
H760 C756 0.950 . S
C761 C759 1.390 . S
C761 C762 1.387 . S
C761 H764 0.950 . S
C762 C761 1.387 . S
C762 C765 1.387 . S
H763 C759 0.950 . S
H764 C761 0.950 . S
C765 C756 1.390 . S
C765 H758 0.950 . S
C765 C762 1.387 . S
C766 C767 1.387 . S
C766 H770 0.950 . S
C766 C775 1.390 . S
C767 C766 1.387 . S
C767 C769 1.387 . S
H768 C775 0.950 . S
C769 C767 1.387 . S
C769 C771 1.390 . S
C769 H773 0.950 . S
H770 C766 0.950 . S
C771 C769 1.390 . S
C771 C772 1.387 . S
C771 H774 0.950 . S
C772 C771 1.387 . S
C772 C775 1.387 . S
H773 C769 0.950 . S
H774 C771 0.950 . S
C775 C766 1.390 . S
C775 H768 0.950 . S
C775 C772 1.387 . S
C776 C777 1.387 . S
C776 H780 0.950 . S
C776 C785 1.390 . S
C777 C776 1.387 . S
C777 C779 1.387 . S
H778 C785 0.950 . S
C779 C777 1.387 . S
C779 C781 1.390 . S
C779 H783 0.950 . S
H780 C776 0.950 . S
C781 C779 1.390 . S
C781 C782 1.387 . S
C781 H784 0.950 . S
C782 C781 1.387 . S
C782 C785 1.387 . S
H783 C779 0.950 . S
H784 C781 0.950 . S
C785 C776 1.390 . S
C785 H778 0.950 . S
C785 C782 1.387 . S
C786 C787 1.387 . S
C786 H790 0.950 . S
C786 C795 1.390 . S
C787 C786 1.387 . S
C787 C789 1.387 . S
H788 C795 0.950 . S
C789 C787 1.387 . S
C789 C791 1.390 . S
C789 H793 0.950 . S
H790 C786 0.950 . S
C791 C789 1.390 . S
C791 C792 1.387 . S
C791 H794 0.950 . S
C792 C791 1.387 . S
C792 C795 1.387 . S
H793 C789 0.950 . S
H794 C791 0.950 . S
C795 C786 1.390 . S
C795 H788 0.950 . S
C795 C792 1.387 . S
C796 C797 1.387 . S
C796 H800 0.950 . S
C796 C805 1.390 . S
C797 C796 1.387 . S
C797 C799 1.387 . S
H798 C805 0.950 . S
C799 C797 1.387 . S
C799 C801 1.390 . S
C799 H803 0.950 . S
H800 C796 0.950 . S
C801 C799 1.390 . S
C801 C802 1.387 . S
C801 H804 0.950 . S
C802 C801 1.387 . S
C802 C805 1.387 . S
H803 C799 0.950 . S
H804 C801 0.950 . S
C805 C796 1.390 . S
C805 H798 0.950 . S
C805 C802 1.387 . S
C806 C807 1.387 . S
C806 H810 0.950 . S
C806 C815 1.390 . S
C807 C806 1.387 . S
C807 C809 1.387 . S
H808 C815 0.950 . S
C809 C807 1.387 . S
C809 C811 1.390 . S
C809 H813 0.950 . S
H810 C806 0.950 . S
C811 C809 1.390 . S
C811 C812 1.387 . S
C811 H814 0.950 . S
C812 C811 1.387 . S
C812 C815 1.387 . S
H813 C809 0.950 . S
H814 C811 0.950 . S
C815 C806 1.390 . S
C815 H808 0.950 . S
C815 C812 1.387 . S
C816 C817 1.387 . S
C816 H820 0.950 . S
C816 C825 1.390 . S
C817 C816 1.387 . S
C817 C819 1.387 . S
H818 C825 0.950 . S
C819 C817 1.387 . S
C819 C821 1.390 . S
C819 H823 0.950 . S
H820 C816 0.950 . S
C821 C819 1.390 . S
C821 C822 1.387 . S
C821 H824 0.950 . S
C822 C821 1.387 . S
C822 C825 1.387 . S
H823 C819 0.950 . S
H824 C821 0.950 . S
C825 C816 1.390 . S
C825 H818 0.950 . S
C825 C822 1.387 . S
C826 C827 1.387 . S
C826 H830 0.950 . S
C826 C835 1.390 . S
C827 C826 1.387 . S
C827 C829 1.387 . S
H828 C835 0.950 . S
C829 C827 1.387 . S
C829 C831 1.390 . S
C829 H833 0.950 . S
H830 C826 0.950 . S
C831 C829 1.390 . S
C831 C832 1.387 . S
C831 H834 0.950 . S
C832 C831 1.387 . S
C832 C835 1.387 . S
H833 C829 0.950 . S
H834 C831 0.950 . S
C835 C826 1.390 . S
C835 H828 0.950 . S
C835 C832 1.387 . S
C836 C837 1.387 . S
C836 H840 0.950 . S
C836 C845 1.390 . S
C837 C836 1.387 . S
C837 C839 1.387 . S
H838 C845 0.950 . S
C839 C837 1.387 . S
C839 C841 1.390 . S
C839 H843 0.950 . S
H840 C836 0.950 . S
C841 C839 1.390 . S
C841 C842 1.387 . S
C841 H844 0.950 . S
C842 C841 1.387 . S
C842 C845 1.387 . S
H843 C839 0.950 . S
H844 C841 0.950 . S
C845 C836 1.390 . S
C845 H838 0.950 . S
C845 C842 1.387 . S
C846 C847 1.387 . S
C846 H850 0.950 . S
C846 C855 1.390 . S
C847 C846 1.387 . S
C847 C849 1.387 . S
H848 C855 0.950 . S
C849 C847 1.387 . S
C849 C851 1.390 . S
C849 H853 0.950 . S
H850 C846 0.950 . S
C851 C849 1.390 . S
C851 C852 1.387 . S
C851 H854 0.950 . S
C852 C851 1.387 . S
C852 C855 1.387 . S
H853 C849 0.950 . S
H854 C851 0.950 . S
C855 C846 1.390 . S
C855 H848 0.950 . S
C855 C852 1.387 . S
C856 C857 1.387 . S
C856 H860 0.950 . S
C856 C865 1.390 . S
C857 C856 1.387 . S
C857 C859 1.387 . S
H858 C865 0.950 . S
C859 C857 1.387 . S
C859 C861 1.390 . S
C859 H863 0.950 . S
H860 C856 0.950 . S
C861 C859 1.390 . S
C861 C862 1.387 . S
C861 H864 0.950 . S
C862 C861 1.387 . S
C862 C865 1.387 . S
H863 C859 0.950 . S
H864 C861 0.950 . S
C865 C856 1.390 . S
C865 H858 0.950 . S
C865 C862 1.387 . S
C866 C867 1.387 . S
C866 H870 0.950 . S
C866 C875 1.390 . S
C867 C866 1.387 . S
C867 C869 1.387 . S
H868 C875 0.950 . S
C869 C867 1.387 . S
C869 C871 1.390 . S
C869 H873 0.950 . S
H870 C866 0.950 . S
C871 C869 1.390 . S
C871 C872 1.387 . S
C871 H874 0.950 . S
C872 C871 1.387 . S
C872 C875 1.387 . S
H873 C869 0.950 . S
H874 C871 0.950 . S
C875 C866 1.390 . S
C875 H868 0.950 . S
C875 C872 1.387 . S
C876 C877 1.387 . S
C876 H880 0.950 . S
C876 C885 1.390 . S
C877 C876 1.387 . S
C877 C879 1.387 . S
H878 C885 0.950 . S
C879 C877 1.387 . S
C879 C881 1.390 . S
C879 H883 0.950 . S
H880 C876 0.950 . S
C881 C879 1.390 . S
C881 C882 1.387 . S
C881 H884 0.950 . S
C882 C881 1.387 . S
C882 C885 1.387 . S
H883 C879 0.950 . S
H884 C881 0.950 . S
C885 C876 1.390 . S
C885 H878 0.950 . S
C885 C882 1.387 . S
C886 C887 1.387 . S
C886 H890 0.950 . S
C886 C895 1.390 . S
C887 C886 1.387 . S
C887 C889 1.387 . S
H888 C895 0.950 . S
C889 C887 1.387 . S
C889 C891 1.390 . S
C889 H893 0.950 . S
H890 C886 0.950 . S
C891 C889 1.390 . S
C891 C892 1.387 . S
C891 H894 0.950 . S
C892 C891 1.387 . S
C892 C895 1.387 . S
H893 C889 0.950 . S
H894 C891 0.950 . S
C895 C886 1.390 . S
C895 H888 0.950 . S
C895 C892 1.387 . S
C896 C897 1.387 . S
C896 H900 0.950 . S
C896 C905 1.390 . S
C897 C896 1.387 . S
C897 C899 1.387 . S
H898 C905 0.950 . S
C899 C897 1.387 . S
C899 C901 1.390 . S
C899 H903 0.950 . S
H900 C896 0.950 . S
C901 C899 1.390 . S
C901 C902 1.387 . S
C901 H904 0.950 . S
C902 C901 1.387 . S
C902 C905 1.387 . S
H903 C899 0.950 . S
H904 C901 0.950 . S
C905 C896 1.390 . S
C905 H898 0.950 . S
C905 C902 1.387 . S
C906 C907 1.387 . S
C906 H910 0.950 . S
C906 C915 1.390 . S
C907 C906 1.387 . S
C907 C909 1.387 . S
H908 C915 0.950 . S
C909 C907 1.387 . S
C909 C911 1.390 . S
C909 H913 0.950 . S
H910 C906 0.950 . S
C911 C909 1.390 . S
C911 C912 1.387 . S
C911 H914 0.950 . S
C912 C911 1.387 . S
C912 C915 1.387 . S
H913 C909 0.950 . S
H914 C911 0.950 . S
C915 C906 1.390 . S
C915 H908 0.950 . S
C915 C912 1.387 . S
C916 C917 1.387 . S
C916 H920 0.950 1_545 S
C916 C925 1.390 . S
C917 C916 1.387 . S
C917 C919 1.387 . S
H918 C925 0.950 1_565 S
C919 C917 1.387 . S
C919 C921 1.390 . S
C919 H923 0.950 . S
H920 C916 0.950 1_565 S
C921 C919 1.390 . S
C921 C922 1.387 . S
C921 H924 0.950 . S
C922 C921 1.387 . S
C922 C925 1.387 . S
H923 C919 0.950 . S
H924 C921 0.950 . S
C925 C916 1.390 . S
C925 H918 0.950 1_545 S
C925 C922 1.387 . S
C926 C927 1.387 . S
C926 H930 0.950 . S
C926 C935 1.390 . S
C927 C926 1.387 . S
C927 C929 1.387 . S
H928 C935 0.950 . S
C929 C927 1.387 . S
C929 C931 1.390 . S
C929 H933 0.950 . S
H930 C926 0.950 . S
C931 C929 1.390 . S
C931 C932 1.387 . S
C931 H934 0.950 . S
C932 C931 1.387 . S
C932 C935 1.387 . S
H933 C929 0.950 . S
H934 C931 0.950 . S
C935 C926 1.390 . S
C935 H928 0.950 . S
C935 C932 1.387 . S
C936 C937 1.387 . S
C936 H940 0.950 . S
C936 C945 1.390 . S
C937 C936 1.387 . S
C937 C939 1.387 . S
H938 C945 0.950 . S
C939 C937 1.387 . S
C939 C941 1.390 . S
C939 H943 0.950 . S
H940 C936 0.950 . S
C941 C939 1.390 . S
C941 C942 1.387 . S
C941 H944 0.950 . S
C942 C941 1.387 . S
C942 C945 1.387 . S
H943 C939 0.950 . S
H944 C941 0.950 . S
C945 C936 1.390 . S
C945 H938 0.950 . S
C945 C942 1.387 . S
C946 C947 1.387 . S
C946 H950 0.950 . S
C946 C955 1.390 . S
C947 C946 1.387 . S
C947 C949 1.387 . S
H948 C955 0.950 . S
C949 C947 1.387 . S
C949 C951 1.390 . S
C949 H953 0.950 . S
H950 C946 0.950 . S
C951 C949 1.390 . S
C951 C952 1.387 . S
C951 H954 0.950 . S
C952 C951 1.387 . S
C952 C955 1.387 . S
H953 C949 0.950 . S
H954 C951 0.950 . S
C955 C946 1.390 . S
C955 H948 0.950 . S
C955 C952 1.387 . S
C956 C957 1.387 . S
C956 H960 0.950 . S
C956 C965 1.390 . S
C957 C956 1.387 . S
C957 C959 1.387 . S
H958 C965 0.950 . S
C959 C957 1.387 . S
C959 C961 1.390 . S
C959 H963 0.950 . S
H960 C956 0.950 . S
C961 C959 1.390 . S
C961 C962 1.387 . S
C961 H964 0.950 . S
C962 C961 1.387 . S
C962 C965 1.387 . S
H963 C959 0.950 . S
H964 C961 0.950 . S
C965 C956 1.390 . S
C965 H958 0.950 . S
C965 C962 1.387 . S
C966 C967 1.387 . S
C966 H970 0.950 . S
C966 C975 1.390 . S
C967 C966 1.387 . S
C967 C969 1.387 . S
H968 C975 0.950 . S
C969 C967 1.387 . S
C969 C971 1.390 . S
C969 H973 0.950 . S
H970 C966 0.950 . S
C971 C969 1.390 . S
C971 C972 1.387 . S
C971 H974 0.950 . S
C972 C971 1.387 . S
C972 C975 1.387 . S
H973 C969 0.950 . S
H974 C971 0.950 . S
C975 C966 1.390 . S
C975 H968 0.950 . S
C975 C972 1.387 . S
C976 C977 1.387 . S
C976 H980 0.950 . S
C976 C985 1.390 . S
C977 C976 1.387 . S
C977 C979 1.387 . S
H978 C985 0.950 . S
C979 C977 1.387 . S
C979 C981 1.390 . S
C979 H983 0.950 . S
H980 C976 0.950 . S
C981 C979 1.390 . S
C981 C982 1.387 . S
C981 H984 0.950 . S
C982 C981 1.387 . S
C982 C985 1.387 . S
H983 C979 0.950 . S
H984 C981 0.950 . S
C985 C976 1.390 . S
C985 H978 0.950 . S
C985 C982 1.387 . S
C512 C331 2.693 . S
C507 C18 2.763 . S
C522 C321 2.325 . S
C517 C59 2.360 . S
C532 C322 1.148 . S
C527 C98 1.180 . S
C537 C125 0.880 . S
C542 C344 0.862 . S
C547 C169 2.373 . S
C552 C347 2.297 . S
C562 C330 1.180 . S
C557 C218 1.228 . S
C567 C255 1.151 . S
C572 C320 1.190 . S
C577 C288 2.769 . S
C582 C338 2.702 . S
C592 C351 1.198 . S
C587 C15 1.104 . S
C597 C45 1.034 . S
C602 C400 1.226 . S
C612 C378 0.506 . S
C607 C95 0.459 . S
C622 C392 0.863 . S
C617 C128 0.881 . S
C627 C178 0.939 . S
C632 C353 0.890 . S
C642 C406 1.582 1_556 S
C637 C215 1.604 . S
C647 C249 2.435 . S
C652 C362 2.314 . S
C657 C299 2.139 . S
C662 C383 2.164 . S
C667 C9 2.651 . S
C672 C409 2.552 . S
C677 C175 0.726 . S
C682 C393 0.755 1_556 S
C692 C352 1.544 . S
C687 C209 1.619 . S
C702 C384 1.528 . S
C697 C258 1.669 . S
C707 C285 1.316 . S
C712 C375 1.338 . S
C717 C89 3.080 . S
C722 C382 3.093 . S
C732 C369 2.823 . S
C727 C139 2.840 . S
C737 C48 1.568 . S
C742 C361 1.591 . S
C747 C298 2.769 . S
C752 C424 2.703 . S
C757 C179 2.373 . S
C762 C414 2.297 . S
C772 C415 1.178 . S
C767 C208 1.227 . S
C782 C437 1.190 . S
C777 C245 1.155 . S
C787 C49 2.361 . S
C792 C440 2.326 . S
C802 C423 1.149 . S
C797 C88 1.181 . S
C807 C135 0.878 . S
C812 C413 0.862 . S
C817 C8 2.762 . S
C822 C431 2.691 . S
C827 C295 1.318 . S
C832 C444 1.341 . S
C842 C493 0.751 . S
C837 C165 0.721 . S
C847 C219 1.620 . S
C852 C471 1.546 . S
C857 C248 1.669 . S
C862 C485 1.528 . S
C872 C446 1.591 . S
C867 C58 1.566 . S
C877 C99 3.080 . S
C882 C499 3.095 . S
C892 C455 2.825 . S
C887 C129 2.840 . S
C902 C476 2.551 . S
C897 C19 2.649 . S
C912 C502 2.165 . S
C907 C289 2.139 . S
C917 C55 1.035 . S
C922 C486 1.224 . S
C927 C85 0.462 . S
C932 C445 0.516 . S
C942 C477 0.861 . S
C937 C138 0.887 . S
C947 C5 1.106 . S
C952 C468 1.199 . S
C957 C205 1.603 . S
C962 C475 1.577 . S
C972 C462 2.314 . S
C967 C259 2.436 . S
C982 C454 0.893 . S
C977 C168 0.938 . S
