# Generated by pormake.
# Topology apo, (3,6)-cn, num edge types: 1
# Building blocks:
#     Node 0, Type 0, BuildingBlock: OLANEW_clean_sbu_2, # of connection points: 3
#     Node 1, Type 0, BuildingBlock: OLANEW_clean_sbu_2, # of connection points: 3
#     Node 2, Type 0, BuildingBlock: OLANEW_clean_sbu_2, # of connection points: 3
#     Node 3, Type 0, BuildingBlock: OLANEW_clean_sbu_2, # of connection points: 3
#     Node 4, Type 0, BuildingBlock: OLANEW_clean_sbu_2, # of connection points: 3
#     Node 5, Type 0, BuildingBlock: OLANEW_clean_sbu_2, # of connection points: 3
#     Node 6, Type 0, BuildingBlock: OLANEW_clean_sbu_2, # of connection points: 3
#     Node 7, Type 0, BuildingBlock: OLANEW_clean_sbu_2, # of connection points: 3
#     Node 8, Type 1, BuildingBlock: KUMBUR_clean_sbu_1, # of connection points: 6
#     Node 9, Type 1, BuildingBlock: KUMBUR_clean_sbu_1, # of connection points: 6
#     Node 10, Type 1, BuildingBlock: KUMBUR_clean_sbu_1, # of connection points: 6
#     Node 11, Type 1, BuildingBlock: KUMBUR_clean_sbu_1, # of connection points: 6
#     Edge 12, Type (0, 1), BuildingBlock: CIFDUS_clean_linker_0, # of connection points: 2
#     Edge 13, Type (0, 1), BuildingBlock: CIFDUS_clean_linker_0, # of connection points: 2
#     Edge 14, Type (0, 1), BuildingBlock: CIFDUS_clean_linker_0, # of connection points: 2
#     Edge 15, Type (0, 1), BuildingBlock: CIFDUS_clean_linker_0, # of connection points: 2
#     Edge 16, Type (0, 1), BuildingBlock: CIFDUS_clean_linker_0, # of connection points: 2
#     Edge 17, Type (0, 1), BuildingBlock: CIFDUS_clean_linker_0, # of connection points: 2
#     Edge 18, Type (0, 1), BuildingBlock: CIFDUS_clean_linker_0, # of connection points: 2
#     Edge 19, Type (0, 1), BuildingBlock: CIFDUS_clean_linker_0, # of connection points: 2
#     Edge 20, Type (0, 1), BuildingBlock: CIFDUS_clean_linker_0, # of connection points: 2
#     Edge 21, Type (0, 1), BuildingBlock: CIFDUS_clean_linker_0, # of connection points: 2
#     Edge 22, Type (0, 1), BuildingBlock: CIFDUS_clean_linker_0, # of connection points: 2
#     Edge 23, Type (0, 1), BuildingBlock: CIFDUS_clean_linker_0, # of connection points: 2
#     Edge 24, Type (0, 1), BuildingBlock: CIFDUS_clean_linker_0, # of connection points: 2
#     Edge 25, Type (0, 1), BuildingBlock: CIFDUS_clean_linker_0, # of connection points: 2
#     Edge 26, Type (0, 1), BuildingBlock: CIFDUS_clean_linker_0, # of connection points: 2
#     Edge 27, Type (0, 1), BuildingBlock: CIFDUS_clean_linker_0, # of connection points: 2
#     Edge 28, Type (0, 1), BuildingBlock: CIFDUS_clean_linker_0, # of connection points: 2
#     Edge 29, Type (0, 1), BuildingBlock: CIFDUS_clean_linker_0, # of connection points: 2
#     Edge 30, Type (0, 1), BuildingBlock: CIFDUS_clean_linker_0, # of connection points: 2
#     Edge 31, Type (0, 1), BuildingBlock: CIFDUS_clean_linker_0, # of connection points: 2
#     Edge 32, Type (0, 1), BuildingBlock: CIFDUS_clean_linker_0, # of connection points: 2
#     Edge 33, Type (0, 1), BuildingBlock: CIFDUS_clean_linker_0, # of connection points: 2
#     Edge 34, Type (0, 1), BuildingBlock: CIFDUS_clean_linker_0, # of connection points: 2
#     Edge 35, Type (0, 1), BuildingBlock: CIFDUS_clean_linker_0, # of connection points: 2
# Relax obj value: 0.030
# Max RMSD: 0.231
# Mean RMSD: 0.137
data_MOF--net-apo--node1-OLANEW_clean_sbu_2--node2-KUMBUR_clean_sbu_1--edge1-CIFDUS_clean_linker_0
_symmetry_space_group_name_H-M    P1
_symmetry_Int_Tables_number       1
_symmetry_cell_setting            triclinic
loop_
_symmetry_equiv_pos_as_xyz
'x, y, z'
_cell_length_a     25.546308
_cell_length_b     39.349224
_cell_length_c     50.357458
_cell_angle_alpha  88.614305
_cell_angle_beta   89.986111
_cell_angle_gamma 89.956714
loop_
_atom_site_label
_atom_site_type_symbol
_atom_site_fract_x
_atom_site_fract_y
_atom_site_fract_z
_atom_type_partial_charge
O0 O 0.334 0.39566 0.34401 0.0
Cd1 Cd 0.2841 0.35352 0.3702 0.0
O2 O 0.38326 0.40213 0.37912 0.0
Cd3 Cd 0.43997 0.42739 0.40457 0.0
O4 O 0.46831 0.44254 0.44364 0.0
C5 C 0.43591 0.4379 0.46256 0.0
O6 O 0.38959 0.42534 0.45709 0.0
C7 C 0.3717 0.41058 0.35533 0.0
C8 C 0.24239 0.29943 0.34219 0.0
O9 O 0.21893 0.32822 0.34276 0.0
O10 O 0.28629 0.2964 0.35435 0.0
O11 O 0.22256 0.16787 0.93369 0.0
Cd12 Cd 0.24079 0.16753 0.88591 0.0
O13 O 0.19881 0.11557 0.92751 0.0
Cd14 Cd 0.1679 0.06386 0.93109 0.0
O15 O 0.14595 0.02115 0.9063 0.0
C16 C 0.10212 0.02243 0.89438 0.0
O17 O 0.07026 0.04782 0.89908 0.0
C18 C 0.20438 0.14011 0.94326 0.0
C19 C 0.31283 0.2154 0.86661 0.0
O20 O 0.26408 0.22265 0.86863 0.0
O21 O 0.32785 0.1857 0.8744 0.0
O22 O 0.75696 0.09107 0.65524 0.0
Cd23 Cd 0.69826 0.13708 0.64027 0.0
O24 O 0.79269 0.0908 0.61578 0.0
Cd25 Cd 0.83635 0.07528 0.58057 0.0
O26 O 0.84771 0.07972 0.53732 0.0
C27 C 0.81082 0.06987 0.52238 0.0
O28 O 0.76926 0.05584 0.53342 0.0
C29 C 0.7892 0.07797 0.63915 0.0
C30 C 0.67389 0.18741 0.67663 0.0
O31 O 0.65095 0.15845 0.67765 0.0
O32 O 0.70952 0.19224 0.65901 0.0
O33 O 0.71475 0.33718 0.06284 0.0
Cd34 Cd 0.74107 0.34468 0.1093 0.0
O35 O 0.74601 0.38787 0.05225 0.0
Cd36 Cd 0.75045 0.405 0.09323 0.0
O37 O 0.72266 0.43853 0.12437 0.0
C38 C 0.70939 0.46804 0.11603 0.0
O39 O 0.71541 0.47571 0.09067 0.0
C40 C 0.72624 0.35979 0.04528 0.0
C41 C 0.8061 0.29368 0.13076 0.0
O42 O 0.75713 0.29433 0.13627 0.0
O43 O 0.82421 0.31665 0.11482 0.0
O44 O 0.72081 0.59258 0.63839 0.0
Cd45 Cd 0.74347 0.63614 0.60485 0.0
O46 O 0.76833 0.55146 0.622 0.0
Cd47 Cd 0.77658 0.57881 0.58409 0.0
O48 O 0.74654 0.58117 0.54348 0.0
C49 C 0.70422 0.56492 0.53983 0.0
O50 O 0.68209 0.54929 0.56027 0.0
C51 C 0.73905 0.56253 0.64027 0.0
C52 C 0.7801 0.69396 0.63008 0.0
O53 O 0.73103 0.68914 0.62651 0.0
O54 O 0.81204 0.67174 0.6213 0.0
O55 O 0.86484 0.88275 0.15325 0.0
Cd56 Cd 0.81512 0.84234 0.12684 0.0
O57 O 0.83084 0.9256 0.13018 0.0
Cd58 Cd 0.79987 0.89424 0.09869 0.0
O59 O 0.79778 0.87186 0.05943 0.0
C60 C 0.80555 0.89152 0.03941 0.0
O61 O 0.81242 0.92413 0.04323 0.0
C62 C 0.85884 0.91462 0.14945 0.0
C63 C 0.7449 0.80219 0.15637 0.0
O64 O 0.78934 0.79034 0.14923 0.0
O65 O 0.73388 0.83306 0.14988 0.0
O66 O 0.25051 0.91865 0.35035 0.0
Cd67 Cd 0.29391 0.8742 0.37711 0.0
O68 O 0.25715 0.95487 0.38283 0.0
Cd69 Cd 0.28139 0.91904 0.41433 0.0
O70 O 0.28069 0.90171 0.45599 0.0
C71 C 0.2477 0.91648 0.47072 0.0
O72 O 0.2172 0.93995 0.45997 0.0
C73 C 0.2448 0.94854 0.35897 0.0
C74 C 0.33928 0.82452 0.34579 0.0
O75 O 0.29527 0.81914 0.35736 0.0
O76 O 0.36172 0.85324 0.34899 0.0
O77 O 0.28818 0.60261 0.86059 0.0
Cd78 Cd 0.22907 0.64252 0.88252 0.0
O79 O 0.30248 0.57573 0.89878 0.0
Cd80 Cd 0.27105 0.61395 0.92515 0.0
O81 O 0.28978 0.63846 0.96248 0.0
C82 C 0.33764 0.64654 0.96516 0.0
O83 O 0.3698 0.6416 0.94525 0.0
C84 C 0.30808 0.5777 0.87369 0.0
C85 C 0.18454 0.69473 0.85112 0.0
O86 O 0.22433 0.70028 0.8659 0.0
O87 O 0.16669 0.66434 0.85048 0.0
Tb88 Tb 0.0872 0.12434 0.20976 0.0
C89 C 0.90509 0.05211 0.2648 0.0
N90 N 0.90852 0.08617 0.26059 0.0
C91 C 0.82167 0.08707 0.24248 0.0
C92 C 0.86073 0.03374 0.25688 0.0
C93 C 0.8668 0.10408 0.25061 0.0
C94 C 0.81894 0.05165 0.24522 0.0
C95 C 0.94303 0.00112 0.28425 0.0
C96 C 0.94568 0.03615 0.27796 0.0
C97 C 0.90041 0.98206 0.27513 0.0
C98 C 0.85926 0.99837 0.26143 0.0
Tb99 Tb 0.98558 0.11153 0.27213 0.0
N100 N 0.98558 0.05568 0.28659 0.0
C101 C 0.98196 0.98678 0.30056 0.0
C102 C 0.02008 0.04259 0.30488 0.0
C103 C 0.01992 0.00783 0.31149 0.0
H104 H 0.86918 0.13133 0.24819 0.0
H105 H 0.04865 0.99741 0.32522 0.0
H106 H 0.18354 0.0695 0.22727 0.0
H107 H 0.10209 0.25851 0.18718 0.0
H108 H 0.0479 0.05899 0.31439 0.0
H109 H 0.9815 0.95995 0.30589 0.0
H110 H 0.06362 0.20084 0.18497 0.0
H111 H 0.78919 0.10124 0.23396 0.0
H112 H 0.89799 0.95498 0.27938 0.0
H113 H 0.82589 0.98361 0.25515 0.0
H114 H 0.26692 0.07175 0.25147 0.0
H115 H 0.78406 0.03851 0.23883 0.0
H116 H 0.18301 0.2675 0.21318 0.0
N117 N 0.16912 0.12286 0.22912 0.0
C118 C 0.19175 0.15351 0.23325 0.0
C119 C 0.24568 0.095 0.24697 0.0
C120 C 0.24063 0.15621 0.24602 0.0
C121 C 0.19752 0.09381 0.23379 0.0
C122 C 0.26674 0.12634 0.25374 0.0
N123 N 0.12163 0.17801 0.20978 0.0
C124 C 0.09905 0.20468 0.19618 0.0
C125 C 0.1909 0.21438 0.22473 0.0
C126 C 0.16767 0.18212 0.22271 0.0
C127 C 0.16643 0.24224 0.21213 0.0
C128 C 0.12073 0.23726 0.19744 0.0
H129 H 0.30435 0.12723 0.26364 0.0
H130 H 0.29991 0.19113 0.25968 0.0
H131 H 0.25612 0.2422 0.24108 0.0
O132 O 0.07155 0.13259 0.16878 0.0
O133 O 0.06898 0.16447 0.23801 0.0
O134 O 0.06086 0.13665 0.278 0.0
O135 O 0.1409 0.1069 0.1816 0.0
O136 O 0.00773 0.145 0.20299 0.0
O137 O 0.96807 0.1547 0.24447 0.0
O138 O 0.96759 0.10772 0.31274 0.0
O139 O 0.96558 0.09525 0.23217 0.0
O140 O 0.04053 0.07731 0.21139 0.0
O141 O 0.94678 0.15249 0.2901 0.0
O142 O 0.06801 0.09603 0.27478 0.0
O143 O 0.09167 0.07692 0.23375 0.0
C144 C 0.07629 0.163 0.26373 0.0
C145 C 0.14856 0.14199 0.14339 0.0
C146 C 0.17147 0.16268 0.09872 0.0
C147 C 0.21043 0.18325 0.10974 0.0
C148 C 0.18882 0.16209 0.15372 0.0
C149 C 0.2191 0.18281 0.13703 0.0
C150 C 0.14041 0.14199 0.11571 0.0
C151 C 0.97289 0.16028 0.21836 0.0
C152 C 0.11639 0.12042 0.16146 0.0
C153 C 0.26279 0.18849 0.24953 0.0
C154 C 0.23798 0.21755 0.23886 0.0
C155 C 0.99082 0.07344 0.21772 0.0
C156 C 0.89373 0.13695 0.32763 0.0
C157 C 0.84766 0.1283 0.3699 0.0
C158 C 0.80018 0.13587 0.35688 0.0
C159 C 0.84601 0.1446 0.31506 0.0
C160 C 0.89425 0.12892 0.35498 0.0
C161 C 0.79951 0.14398 0.32968 0.0
C162 C 0.09158 0.07384 0.25981 0.0
C163 C 0.94379 0.13674 0.31306 0.0
H164 H 0.23512 0.19915 0.09712 0.0
H165 H 0.19758 0.16146 0.17466 0.0
H166 H 0.24984 0.19826 0.14526 0.0
H167 H 0.11011 0.12612 0.10746 0.0
H168 H 0.76363 0.13602 0.36778 0.0
H169 H 0.84458 0.15106 0.29406 0.0
H170 H 0.93114 0.12265 0.36457 0.0
H171 H 0.76277 0.14993 0.31992 0.0
Tb172 Tb 0.46738 0.4052 0.73444 0.0
C173 C 0.68172 0.43991 0.77794 0.0
N174 N 0.66008 0.40848 0.77603 0.0
C175 C 0.73795 0.38806 0.75511 0.0
C176 C 0.73199 0.44689 0.76768 0.0
C177 C 0.68771 0.3824 0.76534 0.0
C178 C 0.76006 0.42048 0.75612 0.0
C179 C 0.67285 0.49847 0.79108 0.0
C180 C 0.65198 0.46545 0.78908 0.0
C181 C 0.72274 0.50569 0.78064 0.0
C182 C 0.75219 0.47999 0.76893 0.0
Tb183 Tb 0.57705 0.40261 0.79226 0.0
N184 N 0.60315 0.45777 0.79837 0.0
C185 C 0.64345 0.52304 0.80405 0.0
C186 C 0.57701 0.48076 0.81342 0.0
C187 C 0.59586 0.51391 0.81578 0.0
H188 H 0.67109 0.35722 0.76481 0.0
H189 H 0.57415 0.5322 0.82713 0.0
H190 H 0.37576 0.45924 0.75279 0.0
H191 H 0.45942 0.27077 0.71313 0.0
H192 H 0.54242 0.47369 0.82442 0.0
H193 H 0.65809 0.54869 0.80605 0.0
H194 H 0.4975 0.32788 0.71143 0.0
H195 H 0.75956 0.36742 0.74644 0.0
H196 H 0.73915 0.531 0.78178 0.0
H197 H 0.79062 0.48594 0.76099 0.0
H198 H 0.28381 0.45666 0.76784 0.0
H199 H 0.79881 0.42483 0.74798 0.0
H200 H 0.37026 0.26199 0.7312 0.0
N201 N 0.38148 0.40611 0.74681 0.0
C202 C 0.35613 0.37576 0.74704 0.0
C203 C 0.30378 0.43368 0.76216 0.0
C204 C 0.30366 0.37304 0.75544 0.0
C205 C 0.35602 0.43503 0.75388 0.0
C206 C 0.27753 0.40252 0.76307 0.0
N207 N 0.43491 0.35089 0.73242 0.0
C208 C 0.46065 0.32428 0.72135 0.0
C209 C 0.35936 0.31507 0.74014 0.0
C210 C 0.38393 0.34714 0.73986 0.0
C211 C 0.38769 0.28708 0.73135 0.0
C212 C 0.43818 0.29188 0.72137 0.0
H213 H 0.23718 0.40152 0.76968 0.0
H214 H 0.23917 0.33834 0.76289 0.0
H215 H 0.28777 0.28761 0.74925 0.0
O216 O 0.47746 0.39743 0.69354 0.0
O217 O 0.44579 0.38608 0.7742 0.0
O218 O 0.51988 0.36099 0.79184 0.0
O219 O 0.42014 0.43273 0.70725 0.0
O220 O 0.5414 0.37763 0.72813 0.0
O221 O 0.5697 0.3565 0.76916 0.0
O222 O 0.57152 0.40323 0.83411 0.0
O223 O 0.59587 0.42222 0.75205 0.0
O224 O 0.5213 0.44803 0.7364 0.0
O225 O 0.63349 0.37646 0.81515 0.0
O226 O 0.50325 0.43051 0.79938 0.0
O227 O 0.47378 0.45081 0.75824 0.0
C228 C 0.46872 0.36345 0.7898 0.0
C229 C 0.46081 0.44544 0.66613 0.0
C230 C 0.46649 0.46253 0.61919 0.0
C231 C 0.49449 0.49168 0.62639 0.0
C232 C 0.48822 0.47487 0.67288 0.0
C233 C 0.50526 0.49771 0.65307 0.0
C234 C 0.4502 0.43935 0.63932 0.0
C235 C 0.56726 0.35524 0.74307 0.0
C236 C 0.4435 0.42062 0.68664 0.0
C237 C 0.27939 0.34101 0.75635 0.0
C238 C 0.30716 0.3121 0.74869 0.0
C239 C 0.57228 0.44711 0.73917 0.0
C240 C 0.60316 0.35337 0.85569 0.0
C241 C 0.61172 0.3271 0.90006 0.0
C242 C 0.59243 0.29649 0.88991 0.0
C243 C 0.58426 0.32257 0.84608 0.0
C244 C 0.6165 0.35562 0.88266 0.0
C245 C 0.57861 0.29439 0.86317 0.0
C246 C 0.47595 0.45223 0.78439 0.0
C247 C 0.61112 0.38285 0.83757 0.0
H248 H 0.50712 0.51019 0.61148 0.0
H249 H 0.49617 0.48029 0.69341 0.0
H250 H 0.52646 0.52035 0.65844 0.0
H251 H 0.42947 0.41639 0.63419 0.0
H252 H 0.58901 0.27388 0.90246 0.0
H253 H 0.57475 0.32017 0.82528 0.0
H254 H 0.63062 0.3796 0.88998 0.0
H255 H 0.56422 0.27065 0.85557 0.0
Tb256 Tb 0.03253 0.88248 0.71991 0.0
C257 C 0.7946 0.83679 0.75634 0.0
N258 N 0.81885 0.8668 0.76055 0.0
C259 C 0.73712 0.89621 0.75454 0.0
C260 C 0.74089 0.8353 0.75009 0.0
C261 C 0.79051 0.89625 0.76076 0.0
C262 C 0.71234 0.86565 0.74875 0.0
C263 C 0.79916 0.77534 0.75762 0.0
C264 C 0.82315 0.80735 0.76 0.0
C265 C 0.74633 0.7736 0.75004 0.0
C266 C 0.7172 0.80356 0.74628 0.0
Tb267 Tb 0.90684 0.86433 0.76911 0.0
N268 N 0.87397 0.81022 0.76743 0.0
C269 C 0.82851 0.7462 0.76388 0.0
C270 C 0.90124 0.78202 0.77581 0.0
C271 C 0.87947 0.74961 0.77353 0.0
H272 H 0.80942 0.91999 0.7654 0.0
H273 H 0.90177 0.72731 0.77951 0.0
H274 H 0.11755 0.82265 0.73996 0.0
H275 H 0.0379 0.02004 0.72382 0.0
H276 H 0.9397 0.78447 0.78421 0.0
H277 H 0.81156 0.72109 0.76233 0.0
H278 H 0.99899 0.96508 0.7135 0.0
H279 H 0.71517 0.91976 0.75421 0.0
H280 H 0.72727 0.74925 0.74777 0.0
H281 H 0.67611 0.80188 0.74116 0.0
H282 H 0.20158 0.82031 0.76369 0.0
H283 H 0.67096 0.86565 0.74403 0.0
H284 H 0.12469 0.02248 0.74537 0.0
N285 N 0.11066 0.87654 0.74153 0.0
C286 C 0.13552 0.90612 0.74708 0.0
C287 C 0.18309 0.84461 0.75947 0.0
C288 C 0.18445 0.90598 0.76003 0.0
C289 C 0.13464 0.84601 0.74658 0.0
C290 C 0.20792 0.8747 0.76643 0.0
N291 N 0.06291 0.93582 0.72867 0.0
C292 C 0.03684 0.96532 0.72266 0.0
C293 C 0.13459 0.96782 0.74683 0.0
C294 C 0.11106 0.93672 0.74032 0.0
C295 C 0.10795 0.99805 0.74068 0.0
C296 C 0.05889 0.99677 0.72856 0.0
H297 H 0.24552 0.87351 0.77637 0.0
H298 H 0.24583 0.93733 0.77621 0.0
H299 H 0.20206 0.99143 0.76482 0.0
O300 O 0.05939 0.90472 0.68396 0.0
O301 O 0.03197 0.89831 0.76158 0.0
O302 O 0.94674 0.91249 0.76498 0.0
O303 O 0.07876 0.85298 0.69462 0.0
O304 O 0.96188 0.91048 0.70706 0.0
O305 O 0.89333 0.90512 0.73845 0.0
O306 O 0.93086 0.85411 0.80864 0.0
O307 O 0.91672 0.8298 0.73625 0.0
O308 O 0.96316 0.85839 0.70263 0.0
O309 O 0.86265 0.88403 0.80043 0.0
O310 O 0.98538 0.84374 0.77753 0.0
O311 O 0.02296 0.83139 0.73725 0.0
C312 C 0.99466 0.91512 0.77334 0.0
C313 C 0.13761 0.88286 0.66588 0.0
C314 C 0.19144 0.89445 0.62653 0.0
C315 C 0.23659 0.89117 0.64234 0.0
C316 C 0.18318 0.87973 0.68129 0.0
C317 C 0.23234 0.88395 0.66955 0.0
C318 C 0.14202 0.89031 0.63856 0.0
C319 C 0.91421 0.91752 0.71587 0.0
C320 C 0.08498 0.87768 0.67727 0.0
C321 C 0.20827 0.93694 0.76623 0.0
C322 C 0.18339 0.96776 0.75968 0.0
C323 C 0.92875 0.83561 0.71117 0.0
C324 C 0.86135 0.85091 0.8397 0.0
C325 C 0.82996 0.8473 0.88557 0.0
C326 C 0.80026 0.81854 0.87905 0.0
C327 C 0.8315 0.82221 0.83376 0.0
C328 C 0.86077 0.86324 0.86562 0.0
C329 C 0.80135 0.80605 0.85337 0.0
C330 C 0.01455 0.8244 0.76254 0.0
C331 C 0.89073 0.86944 0.8188 0.0
H332 H 0.27515 0.89459 0.63373 0.0
H333 H 0.1811 0.87381 0.70224 0.0
H334 H 0.26731 0.88153 0.68158 0.0
H335 H 0.10682 0.89224 0.62658 0.0
H336 H 0.77523 0.80604 0.89362 0.0
H337 H 0.83074 0.81252 0.81398 0.0
H338 H 0.88417 0.88533 0.87014 0.0
H339 H 0.77809 0.78407 0.84853 0.0
Tb340 Tb 0.45222 0.62014 0.22205 0.0
C341 C 0.67416 0.65302 0.25288 0.0
N342 N 0.64981 0.62239 0.25541 0.0
C343 C 0.72337 0.59555 0.23481 0.0
C344 C 0.72286 0.65638 0.23991 0.0
C345 C 0.67543 0.59352 0.24818 0.0
C346 C 0.74672 0.62721 0.23017 0.0
C347 C 0.67569 0.71293 0.26316 0.0
C348 C 0.65116 0.68089 0.26437 0.0
C349 C 0.7232 0.71674 0.24936 0.0
C350 C 0.74668 0.68852 0.23771 0.0
Tb351 Tb 0.56949 0.6232 0.2759 0.0
N352 N 0.60423 0.67653 0.27663 0.0
C353 C 0.6516 0.7401 0.27585 0.0
C354 C 0.5821 0.70233 0.29044 0.0
C355 C 0.60496 0.73465 0.28986 0.0
H356 H 0.65976 0.56872 0.25311 0.0
H357 H 0.58664 0.7553 0.30022 0.0
H358 H 0.35257 0.64926 0.25584 0.0
H359 H 0.47442 0.50476 0.16632 0.0
H360 H 0.54642 0.69806 0.30151 0.0
H361 H 0.66908 0.76519 0.2753 0.0
H362 H 0.49349 0.56398 0.17732 0.0
H363 H 0.74271 0.57263 0.2285 0.0
H364 H 0.74232 0.74127 0.24782 0.0
H365 H 0.78376 0.6917 0.22749 0.0
H366 H 0.26864 0.6273 0.27393 0.0
H367 H 0.78408 0.62869 0.22001 0.0
H368 H 0.40019 0.47463 0.1879 0.0
N369 N 0.37469 0.60201 0.2396 0.0
C370 C 0.36017 0.56975 0.23429 0.0
C371 C 0.29424 0.61076 0.26299 0.0
C372 C 0.31296 0.55604 0.24421 0.0
C373 C 0.34178 0.62309 0.25285 0.0
C374 C 0.28005 0.57694 0.25896 0.0
N375 N 0.43561 0.56622 0.20775 0.0
C376 C 0.46317 0.55062 0.1882 0.0
C377 C 0.37837 0.51754 0.21166 0.0
C378 C 0.39242 0.55092 0.21828 0.0
C379 C 0.40955 0.50033 0.19352 0.0
C380 C 0.45157 0.51721 0.18135 0.0
H381 H 0.24333 0.56742 0.26691 0.0
H382 H 0.26411 0.51104 0.24644 0.0
H383 H 0.32147 0.47725 0.2179 0.0
O384 O 0.41547 0.62108 0.18453 0.0
O385 O 0.44247 0.59764 0.2622 0.0
O386 O 0.52321 0.57643 0.27394 0.0
O387 O 0.41613 0.66529 0.20866 0.0
O388 O 0.52868 0.59885 0.21101 0.0
O389 O 0.56797 0.57878 0.24991 0.0
O390 O 0.55591 0.62379 0.31712 0.0
O391 O 0.55222 0.66512 0.2475 0.0
O392 O 0.5279 0.64034 0.20899 0.0
O393 O 0.63003 0.60798 0.30186 0.0
O394 O 0.49351 0.6437 0.28825 0.0
O395 O 0.45256 0.66299 0.24928 0.0
C396 C 0.47182 0.57441 0.27407 0.0
C397 C 0.42226 0.67423 0.16219 0.0
C398 C 0.41441 0.68837 0.1148 0.0
C399 C 0.4536 0.71317 0.11756 0.0
C400 C 0.46172 0.69888 0.16439 0.0
C401 C 0.47708 0.71826 0.14218 0.0
C402 C 0.39886 0.66907 0.13738 0.0
C403 C 0.56055 0.57788 0.22397 0.0
C404 C 0.40552 0.6534 0.18541 0.0
C405 C 0.2999 0.52226 0.23873 0.0
C406 C 0.33265 0.50299 0.22253 0.0
C407 C 0.55551 0.66283 0.22168 0.0
C408 C 0.60249 0.58264 0.34213 0.0
C409 C 0.62199 0.56048 0.38671 0.0
C410 C 0.6048 0.5282 0.37902 0.0
C411 C 0.58639 0.55021 0.33469 0.0
C412 C 0.62027 0.5877 0.36806 0.0
C413 C 0.58715 0.52317 0.35315 0.0
C414 C 0.46028 0.66364 0.27519 0.0
C415 C 0.60168 0.61135 0.323 0.0
H416 H 0.46596 0.7288 0.10071 0.0
H417 H 0.48069 0.70324 0.18323 0.0
H418 H 0.50734 0.7373 0.14405 0.0
H419 H 0.36929 0.64951 0.13563 0.0
H420 H 0.6061 0.50666 0.39282 0.0
H421 H 0.57378 0.54588 0.3146 0.0
H422 H 0.63263 0.61288 0.3737 0.0
H423 H 0.57463 0.49817 0.34731 0.0
H424 H 0.20248 0.94376 0.30917 0.0
H425 H 0.23749 0.01565 0.37019 0.0
H426 H 0.19702 0.06103 0.34377 0.0
H427 H 0.14744 0.07997 0.30473 0.0
H428 H 0.1093 0.00896 0.2439 0.0
H429 H 0.15608 0.96371 0.26855 0.0
C430 C 0.20158 0.96939 0.31659 0.0
C431 C 0.22271 0.97612 0.34177 0.0
C432 C 0.17774 0.99555 0.30132 0.0
C433 C 0.22124 0.00957 0.35102 0.0
C434 C 0.19815 0.03564 0.33591 0.0
C435 C 0.14967 0.05459 0.29683 0.0
C436 C 0.12456 0.04752 0.27281 0.0
C437 C 0.17565 0.02882 0.31127 0.0
C438 C 0.12839 0.01483 0.26244 0.0
C439 C 0.15478 0.98899 0.27661 0.0
H440 H 0.34174 0.57728 0.82208 0.0
H441 H 0.34371 0.51795 0.89536 0.0
H442 H 0.39591 0.47433 0.87441 0.0
H443 H 0.44131 0.45272 0.8354 0.0
H444 H 0.44116 0.51208 0.76224 0.0
H445 H 0.38807 0.55574 0.78298 0.0
C446 C 0.35342 0.55476 0.83343 0.0
C447 C 0.33867 0.55101 0.86027 0.0
C448 C 0.38394 0.52969 0.82131 0.0
C449 C 0.35447 0.52166 0.87469 0.0
C450 C 0.38441 0.49661 0.86274 0.0
C451 C 0.42993 0.47531 0.82405 0.0
C452 C 0.4451 0.47908 0.79733 0.0
C453 C 0.39953 0.50039 0.8361 0.0
C454 C 0.42973 0.50842 0.78283 0.0
C455 C 0.3994 0.53345 0.79468 0.0
H456 H 0.65975 0.5729 0.67489 0.0
H457 H 0.77774 0.49958 0.65414 0.0
H458 H 0.7396 0.45813 0.6855 0.0
H459 H 0.66656 0.44069 0.71487 0.0
H460 H 0.54641 0.51342 0.73331 0.0
H461 H 0.59146 0.55714 0.70675 0.0
C462 C 0.67773 0.54806 0.67749 0.0
C463 C 0.72126 0.53929 0.662 0.0
C464 C 0.65472 0.52408 0.69489 0.0
C465 C 0.74395 0.50692 0.66566 0.0
C466 C 0.72208 0.48316 0.68353 0.0
C467 C 0.65093 0.46631 0.7134 0.0
C468 C 0.60316 0.47391 0.7257 0.0
C469 C 0.67654 0.49113 0.69765 0.0
C470 C 0.58289 0.50702 0.72364 0.0
C471 C 0.60864 0.532 0.70853 0.0
H472 H 0.83463 0.98085 0.1559 0.0
H473 H 0.94595 0.90369 0.18019 0.0
H474 H 0.99744 0.94624 0.20338 0.0
H475 H 0.01307 0.00631 0.21478 0.0
H476 H 0.8991 0.08232 0.19192 0.0
H477 H 0.8464 0.03939 0.17004 0.0
C478 C 0.87001 0.97328 0.1664 0.0
C479 C 0.88676 0.93926 0.16608 0.0
C480 C 0.89921 0.99777 0.17968 0.0
C481 C 0.93223 0.92974 0.18013 0.0
C482 C 0.96186 0.95409 0.19324 0.0
C483 C 0.97686 0.01329 0.20479 0.0
C484 C 0.96019 0.04729 0.2044 0.0
C485 C 0.94624 0.9883 0.19273 0.0
C486 C 0.91267 0.05622 0.19214 0.0
C487 C 0.88257 0.03172 0.17971 0.0
H488 H 0.75517 0.02741 0.67134 0.0
H489 H 0.88993 0.05992 0.62604 0.0
H490 H 0.94059 0.01171 0.64451 0.0
H491 H 0.9472 0.96218 0.67586 0.0
H492 H 0.80912 0.929 0.71803 0.0
H493 H 0.759 0.97519 0.69834 0.0
C494 C 0.7956 0.02386 0.66539 0.0
C495 C 0.81905 0.04735 0.64767 0.0
C496 C 0.824 0.99612 0.67581 0.0
C497 C 0.87108 0.04211 0.63969 0.0
C498 C 0.90004 0.01464 0.65034 0.0
C499 C 0.9063 0.96514 0.68099 0.0
C500 C 0.883 0.9432 0.70027 0.0
C501 C 0.8771 0.99177 0.66884 0.0
C502 C 0.8292 0.94665 0.70515 0.0
C503 C 0.80014 0.9729 0.6934 0.0
H504 H 0.68535 0.45984 0.16889 0.0
H505 H 0.67726 0.53218 0.1031 0.0
H506 H 0.63183 0.5724 0.13088 0.0
H507 H 0.59173 0.58657 0.17311 0.0
H508 H 0.59877 0.5154 0.23944 0.0
H509 H 0.64748 0.47524 0.21225 0.0
C510 C 0.67391 0.48447 0.16069 0.0
C511 C 0.68456 0.49282 0.13386 0.0
C512 C 0.64747 0.50766 0.17683 0.0
C513 C 0.6695 0.52492 0.1236 0.0
C514 C 0.64341 0.54801 0.13948 0.0
C515 C 0.604 0.5623 0.18166 0.0
C516 C 0.59154 0.55387 0.20817 0.0
C517 C 0.63175 0.53953 0.16598 0.0
C518 C 0.60804 0.52244 0.21904 0.0
C519 C 0.63573 0.49949 0.20349 0.0
H520 H 0.3298 0.46991 0.33838 0.0
H521 H 0.47438 0.41367 0.34146 0.0
H522 H 0.5183 0.45897 0.31549 0.0
H523 H 0.51404 0.5138 0.2907 0.0
H524 H 0.37266 0.57346 0.29391 0.0
H525 H 0.32829 0.52734 0.31785 0.0
C526 C 0.37101 0.46782 0.33343 0.0
C527 C 0.39899 0.43868 0.34147 0.0
C528 C 0.39614 0.49433 0.31933 0.0
C529 C 0.45237 0.43608 0.33536 0.0
C530 C 0.47731 0.46186 0.3205 0.0
C531 C 0.47389 0.51702 0.2971 0.0
C532 C 0.44636 0.54685 0.28994 0.0
C533 C 0.44947 0.49106 0.31227 0.0
C534 C 0.39414 0.55032 0.29818 0.0
C535 C 0.36892 0.5241 0.31224 0.0
H536 H 0.00891 0.01449 0.86945 0.0
H537 H 0.16686 0.97553 0.87199 0.0
H538 H 0.14757 0.93869 0.83483 0.0
H539 H 0.08651 0.91884 0.80074 0.0
H540 H 0.92836 0.95766 0.7988 0.0
H541 H 0.94713 0.99307 0.83668 0.0
C542 C 0.03908 0.99779 0.86202 0.0
C543 C 0.08929 0.9979 0.87346 0.0
C544 C 0.02776 0.97669 0.84068 0.0
C545 C 0.1278 0.97593 0.86363 0.0
C546 C 0.11688 0.95493 0.8423 0.0
C547 C 0.05616 0.93507 0.80858 0.0
C548 C 0.00622 0.93577 0.79679 0.0
C549 C 0.06713 0.95535 0.8305 0.0
C550 C 0.9672 0.95666 0.80742 0.0
C551 C 0.97786 0.97696 0.8291 0.0
H552 H 0.18112 0.19153 0.97573 0.0
H553 H 0.19712 0.08246 0.97509 0.0
H554 H 0.18179 0.07928 0.02307 0.0
H555 H 0.17218 0.10837 0.06599 0.0
H556 H 0.15863 0.21761 0.06588 0.0
H557 H 0.16415 0.21987 0.01748 0.0
C558 C 0.18086 0.16699 0.98603 0.0
C559 C 0.19042 0.13729 0.97182 0.0
C560 C 0.17256 0.16544 0.01357 0.0
C561 C 0.1894 0.1057 0.98545 0.0
C562 C 0.18096 0.1039 0.01296 0.0
C563 C 0.16924 0.13252 0.05525 0.0
C564 C 0.16528 0.16282 0.06943 0.0
C565 C 0.17347 0.13368 0.02733 0.0
C566 C 0.16204 0.19401 0.05535 0.0
C567 C 0.16536 0.19532 0.02771 0.0
H568 H 0.37523 0.42897 0.5063 0.0
H569 H 0.52816 0.46379 0.48142 0.0
H570 H 0.55111 0.47476 0.52761 0.0
H571 H 0.52815 0.47314 0.57526 0.0
H572 H 0.3743 0.43903 0.59938 0.0
H573 H 0.35173 0.42862 0.55329 0.0
C574 C 0.41361 0.43901 0.5109 0.0
C575 C 0.44993 0.44546 0.49038 0.0
C576 C 0.42656 0.44512 0.53743 0.0
C577 C 0.49944 0.45854 0.4968 0.0
C578 C 0.51261 0.46479 0.52323 0.0
C579 C 0.48952 0.46372 0.57042 0.0
C580 C 0.45314 0.45665 0.59088 0.0
C581 C 0.47653 0.45802 0.54374 0.0
C582 C 0.40346 0.44409 0.58418 0.0
C583 C 0.39033 0.43835 0.55778 0.0
H584 H 0.64994 0.3201 0.02454 0.0
H585 H 0.77467 0.38894 0.00234 0.0
H586 H 0.75121 0.38429 0.95554 0.0
H587 H 0.6942 0.36173 0.92102 0.0
H588 H 0.56487 0.29651 0.94351 0.0
H589 H 0.59163 0.29836 0.9899 0.0
C590 C 0.6723 0.33376 0.00941 0.0
C591 C 0.71415 0.35468 0.01689 0.0
C592 C 0.65767 0.33173 0.98255 0.0
C593 C 0.74227 0.37267 0.9971 0.0
C594 C 0.72883 0.37007 0.97033 0.0
C595 C 0.67134 0.34824 0.93604 0.0
C596 C 0.62754 0.32896 0.92855 0.0
C597 C 0.68622 0.35 0.96285 0.0
C598 C 0.59925 0.31114 0.94844 0.0
C599 C 0.61433 0.31233 0.97509 0.0
H600 H 0.88258 0.10701 0.49377 0.0
H601 H 0.74231 0.04712 0.4853 0.0
H602 H 0.74152 0.05962 0.43764 0.0
H603 H 0.77967 0.08822 0.39832 0.0
H604 H 0.91852 0.14939 0.40681 0.0
H605 H 0.92104 0.13544 0.4543 0.0
C606 C 0.85203 0.0965 0.48148 0.0
C607 C 0.81257 0.07614 0.49319 0.0
C608 C 0.85145 0.10406 0.45402 0.0
C609 C 0.77316 0.0629 0.47691 0.0
C610 C 0.7726 0.07007 0.4496 0.0
C611 C 0.81024 0.09875 0.41058 0.0
C612 C 0.84881 0.11984 0.39892 0.0
C613 C 0.81128 0.09084 0.43796 0.0
C614 C 0.88865 0.13276 0.41512 0.0
C615 C 0.89 0.12493 0.44235 0.0
H616 H 0.81438 0.92731 0.99276 0.0
H617 H 0.80503 0.8249 0.02517 0.0
H618 H 0.81344 0.80233 0.98063 0.0
H619 H 0.82438 0.8116 0.93266 0.0
H620 H 0.82935 0.91408 0.90003 0.0
H621 H 0.82317 0.93658 0.9446 0.0
C622 C 0.81411 0.90004 0.99011 0.0
C623 C 0.80909 0.87785 0.01231 0.0
C624 C 0.81875 0.88721 0.96444 0.0
C625 C 0.80869 0.84258 0.00846 0.0
C626 C 0.81365 0.82963 0.98299 0.0
C627 C 0.82353 0.83887 0.93519 0.0
C628 C 0.82744 0.86102 0.91287 0.0
C629 C 0.81873 0.85171 0.96085 0.0
C630 C 0.82735 0.89632 0.91676 0.0
C631 C 0.8233 0.90927 0.94227 0.0
H632 H 0.74081 0.5926 0.49328 0.0
H633 H 0.61552 0.53102 0.52602 0.0
H634 H 0.57869 0.52465 0.48176 0.0
H635 H 0.5826 0.53579 0.4336 0.0
H636 H 0.70847 0.59664 0.40076 0.0
H637 H 0.74403 0.60436 0.4452 0.0
C638 C 0.70536 0.57788 0.49076 0.0
C639 C 0.68114 0.56226 0.51297 0.0
C640 C 0.68436 0.5742 0.4652 0.0
C641 C 0.63513 0.5433 0.5093 0.0
C642 C 0.61398 0.53959 0.48397 0.0
C643 C 0.61798 0.55058 0.43616 0.0
C644 C 0.6428 0.5656 0.41387 0.0
C645 C 0.63845 0.55474 0.46176 0.0
C646 C 0.68819 0.58513 0.41759 0.0
C647 C 0.70876 0.5894 0.44299 0.0
H648 H 0.28473 0.65304 0.01196 0.0
H649 H 0.43738 0.66596 0.97627 0.0
H650 H 0.474 0.68076 0.01911 0.0
H651 H 0.46403 0.68715 0.06702 0.0
H652 H 0.31164 0.67517 0.10305 0.0
H653 H 0.27389 0.66239 0.05985 0.0
C654 C 0.3259 0.65938 0.01351 0.0
C655 C 0.35822 0.65822 0.9909 0.0
C656 C 0.34697 0.66767 0.03833 0.0
C657 C 0.41153 0.66651 0.99331 0.0
C658 C 0.43262 0.67494 0.01784 0.0
C659 C 0.42239 0.6823 0.06542 0.0
C660 C 0.39085 0.68204 0.08834 0.0
C661 C 0.40087 0.6752 0.04052 0.0
C662 C 0.33708 0.67504 0.08585 0.0
C663 C 0.31535 0.66794 0.06111 0.0
H664 H 0.18048 0.94333 0.5063 0.0
H665 H 0.30632 0.8707 0.49992 0.0
H666 H 0.30022 0.85761 0.54754 0.0
H667 H 0.25887 0.86676 0.59102 0.0
H668 H 0.13344 0.93971 0.59702 0.0
H669 H 0.13944 0.95247 0.54944 0.0
C670 C 0.20663 0.9246 0.51526 0.0
C671 C 0.24385 0.90806 0.49951 0.0
C672 C 0.2029 0.9172 0.5426 0.0
C673 C 0.2773 0.88383 0.51154 0.0
C674 C 0.27386 0.87634 0.53879 0.0
C675 C 0.23315 0.88565 0.58193 0.0
C676 C 0.19572 0.90223 0.59757 0.0
C677 C 0.23687 0.89292 0.55452 0.0
C678 C 0.16216 0.92628 0.58541 0.0
C679 C 0.16574 0.93372 0.55823 0.0
H680 H 0.16478 0.30109 0.30535 0.0
H681 H 0.2661 0.23213 0.34908 0.0
H682 H 0.22223 0.18358 0.32944 0.0
H683 H 0.1534 0.16063 0.3005 0.0
H684 H 0.05639 0.22975 0.25464 0.0
H685 H 0.09986 0.27837 0.27453 0.0
C686 C 0.17732 0.27544 0.31055 0.0
C687 C 0.2183 0.27022 0.32883 0.0
C688 C 0.15231 0.24769 0.29899 0.0
C689 C 0.23462 0.23684 0.33507 0.0
C690 C 0.20939 0.20905 0.32395 0.0
C691 C 0.14156 0.1864 0.29521 0.0
C692 C 0.1013 0.19187 0.27664 0.0
C693 C 0.16779 0.21416 0.30613 0.0
C694 C 0.08703 0.22518 0.26918 0.0
C695 C 0.11194 0.25289 0.28046 0.0
H696 H 0.29296 0.2804 0.85029 0.0
H697 H 0.41662 0.20573 0.85549 0.0
H698 H 0.47647 0.24523 0.8328 0.0
H699 H 0.49228 0.30008 0.80945 0.0
H700 H 0.36888 0.37496 0.80571 0.0
H701 H 0.31007 0.33601 0.82931 0.0
C702 C 0.33308 0.27278 0.84662 0.0
C703 C 0.35015 0.24009 0.85451 0.0
C704 C 0.36721 0.29554 0.83354 0.0
C705 C 0.40238 0.23074 0.84964 0.0
C706 C 0.43664 0.25329 0.8366 0.0
C707 C 0.45289 0.30808 0.81429 0.0
C708 C 0.43495 0.34029 0.80571 0.0
C709 C 0.41934 0.28565 0.82823 0.0
C710 C 0.38342 0.35006 0.81168 0.0
C711 C 0.3498 0.32789 0.82533 0.0
H712 H 0.68343 0.25519 0.66717 0.0
H713 H 0.62554 0.18172 0.72491 0.0
H714 H 0.59166 0.22761 0.75206 0.0
H715 H 0.57349 0.28866 0.75789 0.0
H716 H 0.62398 0.36124 0.69777 0.0
H717 H 0.66609 0.31588 0.67312 0.0
C718 C 0.66402 0.24926 0.68588 0.0
C719 C 0.65722 0.21515 0.6941 0.0
C720 C 0.6431 0.27568 0.70088 0.0
C721 C 0.63123 0.20781 0.71816 0.0
C722 C 0.61182 0.23402 0.73367 0.0
C723 C 0.59441 0.29444 0.73958 0.0
C724 C 0.59599 0.32808 0.72961 0.0
C725 C 0.61683 0.26804 0.72504 0.0
C726 C 0.62225 0.33541 0.70568 0.0
C727 C 0.64628 0.30952 0.69162 0.0
H728 H 0.79762 0.26409 0.17973 0.0
H729 H 0.8936 0.26586 0.1093 0.0
H730 H 0.95254 0.22366 0.12972 0.0
H731 H 0.97707 0.18678 0.16773 0.0
H732 H 0.88621 0.19003 0.24 0.0
H733 H 0.82492 0.22943 0.21867 0.0
C734 C 0.83128 0.25502 0.16883 0.0
C735 C 0.84105 0.26774 0.14298 0.0
C736 C 0.86592 0.23165 0.18103 0.0
C737 C 0.8853 0.25635 0.12922 0.0
C738 C 0.91896 0.23224 0.14088 0.0
C739 C 0.944 0.1961 0.17892 0.0
C740 C 0.93618 0.18491 0.20542 0.0
C741 C 0.90976 0.21981 0.16683 0.0
C742 C 0.89311 0.19765 0.21951 0.0
C743 C 0.85797 0.22037 0.20734 0.0
H744 H 0.87926 0.71915 0.63148 0.0
H745 H 0.72345 0.73531 0.66188 0.0
H746 H 0.75535 0.78185 0.68867 0.0
H747 H 0.82822 0.81646 0.70483 0.0
H748 H 0.9836 0.8013 0.67417 0.0
H749 H 0.95114 0.75638 0.64557 0.0
C750 C 0.85228 0.73296 0.64389 0.0
C751 C 0.79915 0.72359 0.64484 0.0
C752 C 0.87081 0.75989 0.65911 0.0
C753 C 0.76453 0.74198 0.66078 0.0
C754 C 0.78274 0.76855 0.67618 0.0
C755 C 0.85485 0.80311 0.692 0.0
C756 C 0.90817 0.81157 0.69185 0.0
C757 C 0.83588 0.77742 0.67574 0.0
C758 C 0.94228 0.7951 0.67449 0.0
C759 C 0.9238 0.76933 0.65832 0.0
H760 H 0.73276 0.73398 0.15361 0.0
H761 H 0.6713 0.82242 0.19181 0.0
H762 H 0.60722 0.78699 0.21574 0.0
H763 H 0.56821 0.73071 0.22551 0.0
H764 H 0.62574 0.64314 0.18491 0.0
H765 H 0.69144 0.67826 0.16191 0.0
C766 C 0.70542 0.74543 0.16725 0.0
C767 C 0.70686 0.78067 0.1711 0.0
C768 C 0.66768 0.7251 0.18024 0.0
C769 C 0.6708 0.79532 0.18852 0.0
C770 C 0.63417 0.77511 0.20217 0.0
C771 C 0.59503 0.71954 0.21146 0.0
C772 C 0.59253 0.68458 0.20679 0.0
C773 C 0.63206 0.74001 0.19807 0.0
C774 C 0.62691 0.67014 0.18851 0.0
C775 C 0.66463 0.69015 0.17555 0.0
H776 H 0.33162 0.75605 0.35209 0.0
H777 H 0.40249 0.83456 0.3029 0.0
H778 H 0.44387 0.79149 0.27562 0.0
H779 H 0.46121 0.73133 0.26625 0.0
H780 H 0.39799 0.65299 0.31809 0.0
H781 H 0.35202 0.69595 0.34388 0.0
C782 C 0.35591 0.76364 0.3353 0.0
C783 C 0.36376 0.79834 0.32934 0.0
C784 C 0.38087 0.73875 0.32025 0.0
C785 C 0.39598 0.80795 0.30784 0.0
C786 C 0.41954 0.78337 0.29223 0.0
C787 C 0.43701 0.72386 0.28311 0.0
C788 C 0.43224 0.68935 0.29029 0.0
C789 C 0.41241 0.74871 0.2983 0.0
C790 C 0.40188 0.67961 0.31238 0.0
C791 C 0.37569 0.70409 0.32703 0.0
H792 H 0.12778 0.69141 0.80547 0.0
H793 H 0.18201 0.76136 0.86407 0.0
H794 H 0.13297 0.80751 0.84226 0.0
H795 H 0.07244 0.8277 0.80721 0.0
H796 H 0.02489 0.75952 0.74611 0.0
H797 H 0.07327 0.71286 0.76813 0.0
C798 C 0.12898 0.71681 0.81335 0.0
C799 C 0.15811 0.72293 0.83646 0.0
C800 C 0.10162 0.74343 0.80034 0.0
C801 C 0.15996 0.75603 0.84628 0.0
C802 C 0.13174 0.7824 0.8339 0.0
C803 C 0.07271 0.80254 0.79885 0.0
C804 C 0.04475 0.79666 0.77541 0.0
C805 C 0.10202 0.77632 0.81109 0.0
C806 C 0.04616 0.76436 0.76425 0.0
C807 C 0.07371 0.73778 0.77683 0.0
loop_
_geom_bond_atom_site_label_1
_geom_bond_atom_site_label_2
_geom_bond_distance
_geom_bond_site_symmetry_2
_ccdc_geom_bond_type
O0 Cd1 2.300 . S
O0 C7 1.275 . S
Cd1 O0 2.300 . S
Cd1 O9 2.381 . S
Cd1 O10 2.378 . S
O2 Cd3 2.385 . S
O2 C7 1.255 . S
Cd3 O2 2.385 . S
Cd3 O4 2.317 . S
O4 Cd3 2.317 . S
O4 C5 1.232 . S
C5 O4 1.232 . S
C5 O6 1.218 . S
O6 C5 1.218 . S
C7 O0 1.275 . S
C7 O2 1.255 . S
C8 O9 1.258 . S
C8 O10 1.256 . S
O9 Cd1 2.381 . S
O9 C8 1.258 . S
O10 Cd1 2.378 . S
O10 C8 1.256 . S
O11 Cd12 2.300 . S
O11 C18 1.275 . S
Cd12 O11 2.300 . S
Cd12 O20 2.381 . S
Cd12 O21 2.378 . S
O13 Cd14 2.385 . S
O13 C18 1.255 . S
Cd14 O13 2.385 . S
Cd14 O15 2.317 . S
O15 Cd14 2.317 . S
O15 C16 1.232 . S
C16 O15 1.232 . S
C16 O17 1.218 . S
O17 C16 1.218 . S
C18 O11 1.275 . S
C18 O13 1.255 . S
C19 O20 1.258 . S
C19 O21 1.256 . S
O20 Cd12 2.381 . S
O20 C19 1.258 . S
O21 Cd12 2.378 . S
O21 C19 1.256 . S
O22 Cd23 2.300 . S
O22 C29 1.275 . S
Cd23 O22 2.300 . S
Cd23 O31 2.381 . S
Cd23 O32 2.378 . S
O24 Cd25 2.385 . S
O24 C29 1.255 . S
Cd25 O24 2.385 . S
Cd25 O26 2.317 . S
O26 Cd25 2.317 . S
O26 C27 1.232 . S
C27 O26 1.232 . S
C27 O28 1.218 . S
O28 C27 1.218 . S
C29 O22 1.275 . S
C29 O24 1.255 . S
C30 O31 1.258 . S
C30 O32 1.256 . S
O31 Cd23 2.381 . S
O31 C30 1.258 . S
O32 Cd23 2.378 . S
O32 C30 1.256 . S
O33 Cd34 2.300 . S
O33 C40 1.275 . S
Cd34 O33 2.300 . S
Cd34 O42 2.381 . S
Cd34 O43 2.378 . S
O35 Cd36 2.385 . S
O35 C40 1.255 . S
Cd36 O35 2.385 . S
Cd36 O37 2.317 . S
O37 Cd36 2.317 . S
O37 C38 1.232 . S
C38 O37 1.232 . S
C38 O39 1.218 . S
O39 C38 1.218 . S
C40 O33 1.275 . S
C40 O35 1.255 . S
C41 O42 1.258 . S
C41 O43 1.256 . S
O42 Cd34 2.381 . S
O42 C41 1.258 . S
O43 Cd34 2.378 . S
O43 C41 1.256 . S
O44 Cd45 2.300 . S
O44 C51 1.275 . S
Cd45 O44 2.300 . S
Cd45 O53 2.381 . S
Cd45 O54 2.378 . S
O46 Cd47 2.385 . S
O46 C51 1.255 . S
Cd47 O46 2.385 . S
Cd47 O48 2.317 . S
O48 Cd47 2.317 . S
O48 C49 1.232 . S
C49 O48 1.232 . S
C49 O50 1.218 . S
O50 C49 1.218 . S
C51 O44 1.275 . S
C51 O46 1.255 . S
C52 O53 1.258 . S
C52 O54 1.256 . S
O53 Cd45 2.381 . S
O53 C52 1.258 . S
O54 Cd45 2.378 . S
O54 C52 1.256 . S
O55 Cd56 2.300 . S
O55 C62 1.275 . S
Cd56 O55 2.300 . S
Cd56 O64 2.381 . S
Cd56 O65 2.378 . S
O57 Cd58 2.385 . S
O57 C62 1.255 . S
Cd58 O57 2.385 . S
Cd58 O59 2.317 . S
O59 Cd58 2.317 . S
O59 C60 1.232 . S
C60 O59 1.232 . S
C60 O61 1.218 . S
O61 C60 1.218 . S
C62 O55 1.275 . S
C62 O57 1.255 . S
C63 O64 1.258 . S
C63 O65 1.256 . S
O64 Cd56 2.381 . S
O64 C63 1.258 . S
O65 Cd56 2.378 . S
O65 C63 1.256 . S
O66 Cd67 2.300 . S
O66 C73 1.275 . S
Cd67 O66 2.300 . S
Cd67 O75 2.381 . S
Cd67 O76 2.378 . S
O68 Cd69 2.385 . S
O68 C73 1.255 . S
Cd69 O68 2.385 . S
Cd69 O70 2.317 . S
O70 Cd69 2.317 . S
O70 C71 1.232 . S
C71 O70 1.232 . S
C71 O72 1.218 . S
O72 C71 1.218 . S
C73 O66 1.275 . S
C73 O68 1.255 . S
C74 O75 1.258 . S
C74 O76 1.256 . S
O75 Cd67 2.381 . S
O75 C74 1.258 . S
O76 Cd67 2.378 . S
O76 C74 1.256 . S
O77 Cd78 2.300 . S
O77 C84 1.275 . S
Cd78 O77 2.300 . S
Cd78 O86 2.381 . S
Cd78 O87 2.378 . S
O79 Cd80 2.385 . S
O79 C84 1.255 . S
Cd80 O79 2.385 . S
Cd80 O81 2.317 . S
O81 Cd80 2.317 . S
O81 C82 1.232 . S
C82 O81 1.232 . S
C82 O83 1.218 . S
O83 C82 1.218 . S
C84 O77 1.275 . S
C84 O79 1.255 . S
C85 O86 1.258 . S
C85 O87 1.256 . S
O86 Cd78 2.381 . S
O86 C85 1.258 . S
O87 Cd78 2.378 . S
O87 C85 1.256 . S
Tb88 N117 2.617 . S
Tb88 N123 2.572 . S
Tb88 O132 2.465 . S
Tb88 O133 2.387 . S
Tb88 O135 2.428 . S
Tb88 O136 2.308 . S
Tb88 O140 2.349 . S
Tb88 O143 2.393 . S
Tb88 C152 2.802 . S
C89 N90 1.379 . S
C89 C92 1.416 . S
C89 C96 1.424 . S
N90 C89 1.379 . S
N90 C93 1.334 . S
N90 Tb99 2.617 . S
C91 C93 1.390 . S
C91 C94 1.339 . S
C91 H111 0.930 . S
C92 C89 1.416 . S
C92 C94 1.416 . S
C92 C98 1.448 . S
C93 N90 1.334 . S
C93 C91 1.390 . S
C93 H104 0.930 . S
C94 C91 1.339 . S
C94 C92 1.416 . S
C94 H115 0.930 . S
C95 C96 1.413 . S
C95 C97 1.427 . S
C95 C101 1.416 1_545 S
C96 C89 1.424 . S
C96 C95 1.413 . S
C96 N100 1.361 . S
C97 C95 1.427 . S
C97 C98 1.328 . S
C97 H112 0.932 1_545 S
C98 C92 1.448 . S
C98 C97 1.328 . S
C98 H113 0.930 . S
Tb99 N90 2.617 . S
Tb99 N100 2.572 . S
Tb99 O134 2.349 1_655 S
Tb99 O137 2.393 . S
Tb99 O138 2.465 . S
Tb99 O139 2.387 . S
Tb99 O141 2.428 . S
Tb99 O142 2.308 1_655 S
Tb99 C163 2.802 . S
N100 C96 1.361 . S
N100 Tb99 2.572 . S
N100 C102 1.340 . S
C101 C95 1.416 1_565 S
C101 C103 1.332 . S
C101 H109 0.931 . S
C102 N100 1.340 . S
C102 C103 1.407 1_545 S
C102 H108 0.930 . S
C103 C101 1.332 . S
C103 C102 1.407 1_565 S
C103 H105 0.929 . S
H104 C93 0.930 . S
H105 C103 0.929 . S
H106 C121 0.930 . S
H107 C128 0.929 . S
H108 C102 0.930 . S
H109 C101 0.931 . S
H110 C124 0.930 . S
H111 C91 0.930 . S
H112 C97 0.932 1_565 S
H113 C98 0.930 . S
H114 C119 0.930 . S
H115 C94 0.930 . S
H116 C127 0.931 . S
N117 Tb88 2.617 . S
N117 C118 1.379 . S
N117 C121 1.334 . S
C118 N117 1.379 . S
C118 C120 1.416 . S
C118 C126 1.424 . S
C119 H114 0.930 . S
C119 C121 1.390 . S
C119 C122 1.339 . S
C120 C118 1.416 . S
C120 C122 1.416 . S
C120 C153 1.448 . S
C121 H106 0.930 . S
C121 N117 1.334 . S
C121 C119 1.390 . S
C122 C119 1.339 . S
C122 C120 1.416 . S
C122 H129 0.930 . S
N123 Tb88 2.572 . S
N123 C124 1.340 . S
N123 C126 1.361 . S
C124 H110 0.930 . S
C124 N123 1.340 . S
C124 C128 1.407 . S
C125 C126 1.413 . S
C125 C127 1.416 . S
C125 C154 1.427 . S
C126 C118 1.424 . S
C126 N123 1.361 . S
C126 C125 1.413 . S
C127 H116 0.931 . S
C127 C125 1.416 . S
C127 C128 1.332 . S
C128 H107 0.929 . S
C128 C124 1.407 . S
C128 C127 1.332 . S
H129 C122 0.930 . S
H130 C153 0.930 . S
H131 C154 0.929 . S
O132 Tb88 2.465 . S
O132 C152 1.264 . S
O133 Tb88 2.387 . S
O133 C144 1.264 . S
O134 Tb99 2.349 1_455 S
O134 C144 1.243 . S
O135 Tb88 2.428 . S
O135 C152 1.256 . S
O136 Tb88 2.308 . S
O136 C151 1.266 1_455 S
O137 Tb99 2.393 . S
O137 C151 1.248 . S
O138 Tb99 2.465 . S
O138 C163 1.264 . S
O139 Tb99 2.387 . S
O139 C155 1.264 . S
O140 Tb88 2.349 . S
O140 C155 1.243 1_455 S
O141 Tb99 2.428 . S
O141 C163 1.256 . S
O142 Tb99 2.308 1_455 S
O142 C162 1.266 . S
O143 Tb88 2.393 . S
O143 C162 1.248 . S
C144 O133 1.264 . S
C144 O134 1.243 . S
C145 C148 1.399 . S
C145 C150 1.383 . S
C145 C152 1.496 . S
C146 C147 1.399 . S
C146 C150 1.389 . S
C147 C146 1.399 . S
C147 C149 1.380 . S
C147 H164 0.929 . S
C148 C145 1.399 . S
C148 C149 1.392 . S
C148 H165 0.929 . S
C149 C147 1.380 . S
C149 C148 1.392 . S
C149 H166 0.929 . S
C150 C145 1.383 . S
C150 C146 1.389 . S
C150 H167 0.931 . S
C151 O136 1.266 1_655 S
C151 O137 1.248 . S
C152 Tb88 2.802 . S
C152 O132 1.264 . S
C152 O135 1.256 . S
C152 C145 1.496 . S
C153 C120 1.448 . S
C153 H130 0.930 . S
C153 C154 1.328 . S
C154 C125 1.427 . S
C154 H131 0.929 . S
C154 C153 1.328 . S
C155 O139 1.264 . S
C155 O140 1.243 1_655 S
C156 C159 1.399 . S
C156 C160 1.383 . S
C156 C163 1.496 . S
C157 C158 1.399 . S
C157 C160 1.389 . S
C158 C157 1.399 . S
C158 C161 1.380 . S
C158 H168 0.929 . S
C159 C156 1.399 . S
C159 C161 1.392 . S
C159 H169 0.929 . S
C160 C156 1.383 . S
C160 C157 1.389 . S
C160 H170 0.931 . S
C161 C158 1.380 . S
C161 C159 1.392 . S
C161 H171 0.929 . S
C162 O142 1.266 . S
C162 O143 1.248 . S
C163 Tb99 2.802 . S
C163 O138 1.264 . S
C163 O141 1.256 . S
C163 C156 1.496 . S
H164 C147 0.929 . S
H165 C148 0.929 . S
H166 C149 0.929 . S
H167 C150 0.931 . S
H168 C158 0.929 . S
H169 C159 0.929 . S
H170 C160 0.931 . S
H171 C161 0.929 . S
Tb172 N201 2.617 . S
Tb172 N207 2.572 . S
Tb172 O216 2.465 . S
Tb172 O217 2.387 . S
Tb172 O219 2.428 . S
Tb172 O220 2.308 . S
Tb172 O224 2.349 . S
Tb172 O227 2.393 . S
Tb172 C236 2.802 . S
C173 N174 1.379 . S
C173 C176 1.416 . S
C173 C180 1.424 . S
N174 C173 1.379 . S
N174 C177 1.334 . S
N174 Tb183 2.617 . S
C175 C177 1.390 . S
C175 C178 1.339 . S
C175 H195 0.930 . S
C176 C173 1.416 . S
C176 C178 1.416 . S
C176 C182 1.448 . S
C177 N174 1.334 . S
C177 C175 1.390 . S
C177 H188 0.930 . S
C178 C175 1.339 . S
C178 C176 1.416 . S
C178 H199 0.930 . S
C179 C180 1.413 . S
C179 C181 1.427 . S
C179 C185 1.416 . S
C180 C173 1.424 . S
C180 C179 1.413 . S
C180 N184 1.361 . S
C181 C179 1.427 . S
C181 C182 1.328 . S
C181 H196 0.929 . S
C182 C176 1.448 . S
C182 C181 1.328 . S
C182 H197 0.930 . S
Tb183 N174 2.617 . S
Tb183 N184 2.572 . S
Tb183 O218 2.349 . S
Tb183 O221 2.393 . S
Tb183 O222 2.465 . S
Tb183 O223 2.387 . S
Tb183 O225 2.428 . S
Tb183 O226 2.308 . S
Tb183 C247 2.802 . S
N184 C180 1.361 . S
N184 Tb183 2.572 . S
N184 C186 1.340 . S
C185 C179 1.416 . S
C185 C187 1.332 . S
C185 H193 0.931 . S
C186 N184 1.340 . S
C186 C187 1.407 . S
C186 H192 0.930 . S
C187 C185 1.332 . S
C187 C186 1.407 . S
C187 H189 0.929 . S
H188 C177 0.930 . S
H189 C187 0.929 . S
H190 C205 0.930 . S
H191 C212 0.929 . S
H192 C186 0.930 . S
H193 C185 0.931 . S
H194 C208 0.930 . S
H195 C175 0.930 . S
H196 C181 0.929 . S
H197 C182 0.930 . S
H198 C203 0.930 . S
H199 C178 0.930 . S
H200 C211 0.931 . S
N201 Tb172 2.617 . S
N201 C202 1.379 . S
N201 C205 1.334 . S
C202 N201 1.379 . S
C202 C204 1.416 . S
C202 C210 1.424 . S
C203 H198 0.930 . S
C203 C205 1.390 . S
C203 C206 1.339 . S
C204 C202 1.416 . S
C204 C206 1.416 . S
C204 C237 1.448 . S
C205 H190 0.930 . S
C205 N201 1.334 . S
C205 C203 1.390 . S
C206 C203 1.339 . S
C206 C204 1.416 . S
C206 H213 0.930 . S
N207 Tb172 2.572 . S
N207 C208 1.340 . S
N207 C210 1.361 . S
C208 H194 0.930 . S
C208 N207 1.340 . S
C208 C212 1.407 . S
C209 C210 1.413 . S
C209 C211 1.416 . S
C209 C238 1.427 . S
C210 C202 1.424 . S
C210 N207 1.361 . S
C210 C209 1.413 . S
C211 H200 0.931 . S
C211 C209 1.416 . S
C211 C212 1.332 . S
C212 H191 0.929 . S
C212 C208 1.407 . S
C212 C211 1.332 . S
H213 C206 0.930 . S
H214 C237 0.930 . S
H215 C238 0.929 . S
O216 Tb172 2.465 . S
O216 C236 1.264 . S
O217 Tb172 2.387 . S
O217 C228 1.264 . S
O218 Tb183 2.349 . S
O218 C228 1.243 . S
O219 Tb172 2.428 . S
O219 C236 1.256 . S
O220 Tb172 2.308 . S
O220 C235 1.266 . S
O221 Tb183 2.393 . S
O221 C235 1.248 . S
O222 Tb183 2.465 . S
O222 C247 1.264 . S
O223 Tb183 2.387 . S
O223 C239 1.264 . S
O224 Tb172 2.349 . S
O224 C239 1.243 . S
O225 Tb183 2.428 . S
O225 C247 1.256 . S
O226 Tb183 2.308 . S
O226 C246 1.266 . S
O227 Tb172 2.393 . S
O227 C246 1.248 . S
C228 O217 1.264 . S
C228 O218 1.243 . S
C229 C232 1.399 . S
C229 C234 1.383 . S
C229 C236 1.496 . S
C230 C231 1.399 . S
C230 C234 1.389 . S
C231 C230 1.399 . S
C231 C233 1.380 . S
C231 H248 0.929 . S
C232 C229 1.399 . S
C232 C233 1.392 . S
C232 H249 0.929 . S
C233 C231 1.380 . S
C233 C232 1.392 . S
C233 H250 0.929 . S
C234 C229 1.383 . S
C234 C230 1.389 . S
C234 H251 0.931 . S
C235 O220 1.266 . S
C235 O221 1.248 . S
C236 Tb172 2.802 . S
C236 O216 1.264 . S
C236 O219 1.256 . S
C236 C229 1.496 . S
C237 C204 1.448 . S
C237 H214 0.930 . S
C237 C238 1.328 . S
C238 C209 1.427 . S
C238 H215 0.929 . S
C238 C237 1.328 . S
C239 O223 1.264 . S
C239 O224 1.243 . S
C240 C243 1.399 . S
C240 C244 1.383 . S
C240 C247 1.496 . S
C241 C242 1.399 . S
C241 C244 1.389 . S
C242 C241 1.399 . S
C242 C245 1.380 . S
C242 H252 0.929 . S
C243 C240 1.399 . S
C243 C245 1.392 . S
C243 H253 0.929 . S
C244 C240 1.383 . S
C244 C241 1.389 . S
C244 H254 0.931 . S
C245 C242 1.380 . S
C245 C243 1.392 . S
C245 H255 0.929 . S
C246 O226 1.266 . S
C246 O227 1.248 . S
C247 Tb183 2.802 . S
C247 O222 1.264 . S
C247 O225 1.256 . S
C247 C240 1.496 . S
H248 C231 0.929 . S
H249 C232 0.929 . S
H250 C233 0.929 . S
H251 C234 0.931 . S
H252 C242 0.929 . S
H253 C243 0.929 . S
H254 C244 0.931 . S
H255 C245 0.929 . S
Tb256 N285 2.617 . S
Tb256 N291 2.572 . S
Tb256 O300 2.465 . S
Tb256 O301 2.387 . S
Tb256 O303 2.428 . S
Tb256 O304 2.308 . S
Tb256 O308 2.350 . S
Tb256 O311 2.393 . S
Tb256 C320 2.802 . S
C257 N258 1.379 . S
C257 C260 1.416 . S
C257 C264 1.424 . S
N258 C257 1.379 . S
N258 C261 1.334 . S
N258 Tb267 2.617 . S
C259 C261 1.390 . S
C259 C262 1.339 . S
C259 H279 0.930 . S
C260 C257 1.416 . S
C260 C262 1.416 . S
C260 C266 1.448 . S
C261 N258 1.334 . S
C261 C259 1.390 . S
C261 H272 0.930 . S
C262 C259 1.339 . S
C262 C260 1.416 . S
C262 H283 0.930 . S
C263 C264 1.413 . S
C263 C265 1.427 . S
C263 C269 1.416 . S
C264 C257 1.424 . S
C264 C263 1.413 . S
C264 N268 1.361 . S
C265 C263 1.427 . S
C265 C266 1.328 . S
C265 H280 0.929 . S
C266 C260 1.448 . S
C266 C265 1.328 . S
C266 H281 0.930 . S
Tb267 N258 2.617 . S
Tb267 N268 2.572 . S
Tb267 O302 2.349 1_655 S
Tb267 O305 2.393 . S
Tb267 O306 2.465 . S
Tb267 O307 2.387 . S
Tb267 O309 2.428 . S
Tb267 O310 2.308 1_655 S
Tb267 C331 2.802 . S
N268 C264 1.361 . S
N268 Tb267 2.572 . S
N268 C270 1.340 . S
C269 C263 1.416 . S
C269 C271 1.332 . S
C269 H277 0.931 . S
C270 N268 1.340 . S
C270 C271 1.407 . S
C270 H276 0.930 . S
C271 C269 1.332 . S
C271 C270 1.407 . S
C271 H273 0.929 . S
H272 C261 0.930 . S
H273 C271 0.929 . S
H274 C289 0.930 . S
H275 C296 0.929 . S
H276 C270 0.930 . S
H277 C269 0.931 . S
H278 C292 0.930 . S
H279 C259 0.930 . S
H280 C265 0.929 . S
H281 C266 0.930 . S
H282 C287 0.930 . S
H283 C262 0.930 . S
H284 C295 0.931 . S
N285 Tb256 2.617 . S
N285 C286 1.379 . S
N285 C289 1.334 . S
C286 N285 1.379 . S
C286 C288 1.416 . S
C286 C294 1.424 . S
C287 H282 0.930 . S
C287 C289 1.390 . S
C287 C290 1.339 . S
C288 C286 1.416 . S
C288 C290 1.416 . S
C288 C321 1.448 . S
C289 H274 0.930 . S
C289 N285 1.334 . S
C289 C287 1.390 . S
C290 C287 1.339 . S
C290 C288 1.416 . S
C290 H297 0.930 . S
N291 Tb256 2.572 . S
N291 C292 1.340 . S
N291 C294 1.361 . S
C292 H278 0.930 . S
C292 N291 1.340 . S
C292 C296 1.407 1_565 S
C293 C294 1.413 . S
C293 C295 1.416 1_565 S
C293 C322 1.427 . S
C294 C286 1.424 . S
C294 N291 1.361 . S
C294 C293 1.413 . S
C295 H284 0.931 . S
C295 C293 1.416 1_545 S
C295 C296 1.332 . S
C296 H275 0.929 . S
C296 C292 1.407 1_545 S
C296 C295 1.332 . S
H297 C290 0.930 . S
H298 C321 0.930 . S
H299 C322 0.929 1_545 S
O300 Tb256 2.465 . S
O300 C320 1.264 . S
O301 Tb256 2.387 . S
O301 C312 1.264 . S
O302 Tb267 2.349 1_455 S
O302 C312 1.243 . S
O303 Tb256 2.428 . S
O303 C320 1.256 . S
O304 Tb256 2.308 . S
O304 C319 1.266 1_455 S
O305 Tb267 2.393 . S
O305 C319 1.248 . S
O306 Tb267 2.465 . S
O306 C331 1.264 . S
O307 Tb267 2.387 . S
O307 C323 1.264 . S
O308 Tb256 2.350 . S
O308 C323 1.242 1_455 S
O309 Tb267 2.428 . S
O309 C331 1.256 . S
O310 Tb267 2.308 1_455 S
O310 C330 1.266 . S
O311 Tb256 2.393 . S
O311 C330 1.248 . S
C312 O301 1.264 . S
C312 O302 1.243 . S
C313 C316 1.399 . S
C313 C318 1.383 . S
C313 C320 1.496 . S
C314 C315 1.399 . S
C314 C318 1.389 . S
C315 C314 1.399 . S
C315 C317 1.380 . S
C315 H332 0.929 . S
C316 C313 1.399 . S
C316 C317 1.392 . S
C316 H333 0.929 . S
C317 C315 1.380 . S
C317 C316 1.392 . S
C317 H334 0.929 . S
C318 C313 1.383 . S
C318 C314 1.389 . S
C318 H335 0.931 . S
C319 O304 1.266 1_655 S
C319 O305 1.248 . S
C320 Tb256 2.802 . S
C320 O300 1.264 . S
C320 O303 1.256 . S
C320 C313 1.496 . S
C321 C288 1.448 . S
C321 H298 0.930 . S
C321 C322 1.328 . S
C322 C293 1.427 . S
C322 H299 0.929 1_565 S
C322 C321 1.328 . S
C323 O307 1.264 . S
C323 O308 1.242 1_655 S
C324 C327 1.399 . S
C324 C328 1.383 . S
C324 C331 1.496 . S
C325 C326 1.399 . S
C325 C328 1.389 . S
C326 C325 1.399 . S
C326 C329 1.380 . S
C326 H336 0.929 . S
C327 C324 1.399 . S
C327 C329 1.392 . S
C327 H337 0.929 . S
C328 C324 1.383 . S
C328 C325 1.389 . S
C328 H338 0.931 . S
C329 C326 1.380 . S
C329 C327 1.392 . S
C329 H339 0.929 . S
C330 O310 1.266 . S
C330 O311 1.248 . S
C331 Tb267 2.802 . S
C331 O306 1.264 . S
C331 O309 1.256 . S
C331 C324 1.496 . S
H332 C315 0.929 . S
H333 C316 0.929 . S
H334 C317 0.929 . S
H335 C318 0.931 . S
H336 C326 0.929 . S
H337 C327 0.929 . S
H338 C328 0.931 . S
H339 C329 0.929 . S
Tb340 N369 2.617 . S
Tb340 N375 2.572 . S
Tb340 O384 2.465 . S
Tb340 O385 2.387 . S
Tb340 O387 2.428 . S
Tb340 O388 2.308 . S
Tb340 O392 2.349 . S
Tb340 O395 2.393 . S
Tb340 C404 2.802 . S
C341 N342 1.379 . S
C341 C344 1.416 . S
C341 C348 1.424 . S
N342 C341 1.379 . S
N342 C345 1.334 . S
N342 Tb351 2.617 . S
C343 C345 1.390 . S
C343 C346 1.339 . S
C343 H363 0.930 . S
C344 C341 1.416 . S
C344 C346 1.416 . S
C344 C350 1.448 . S
C345 N342 1.334 . S
C345 C343 1.390 . S
C345 H356 0.930 . S
C346 C343 1.339 . S
C346 C344 1.416 . S
C346 H367 0.930 . S
C347 C348 1.413 . S
C347 C349 1.427 . S
C347 C353 1.416 . S
C348 C341 1.424 . S
C348 C347 1.413 . S
C348 N352 1.361 . S
C349 C347 1.427 . S
C349 C350 1.328 . S
C349 H364 0.929 . S
C350 C344 1.448 . S
C350 C349 1.328 . S
C350 H365 0.930 . S
Tb351 N342 2.617 . S
Tb351 N352 2.572 . S
Tb351 O386 2.349 . S
Tb351 O389 2.393 . S
Tb351 O390 2.465 . S
Tb351 O391 2.387 . S
Tb351 O393 2.428 . S
Tb351 O394 2.308 . S
Tb351 C415 2.802 . S
N352 C348 1.361 . S
N352 Tb351 2.572 . S
N352 C354 1.340 . S
C353 C347 1.416 . S
C353 C355 1.332 . S
C353 H361 0.931 . S
C354 N352 1.340 . S
C354 C355 1.407 . S
C354 H360 0.930 . S
C355 C353 1.332 . S
C355 C354 1.407 . S
C355 H357 0.929 . S
H356 C345 0.930 . S
H357 C355 0.929 . S
H358 C373 0.930 . S
H359 C380 0.929 . S
H360 C354 0.930 . S
H361 C353 0.931 . S
H362 C376 0.930 . S
H363 C343 0.930 . S
H364 C349 0.929 . S
H365 C350 0.930 . S
H366 C371 0.930 . S
H367 C346 0.930 . S
H368 C379 0.931 . S
N369 Tb340 2.617 . S
N369 C370 1.379 . S
N369 C373 1.334 . S
C370 N369 1.379 . S
C370 C372 1.416 . S
C370 C378 1.424 . S
C371 H366 0.930 . S
C371 C373 1.390 . S
C371 C374 1.339 . S
C372 C370 1.416 . S
C372 C374 1.416 . S
C372 C405 1.448 . S
C373 H358 0.930 . S
C373 N369 1.334 . S
C373 C371 1.390 . S
C374 C371 1.339 . S
C374 C372 1.416 . S
C374 H381 0.930 . S
N375 Tb340 2.572 . S
N375 C376 1.340 . S
N375 C378 1.361 . S
C376 H362 0.930 . S
C376 N375 1.340 . S
C376 C380 1.407 . S
C377 C378 1.413 . S
C377 C379 1.416 . S
C377 C406 1.427 . S
C378 C370 1.424 . S
C378 N375 1.361 . S
C378 C377 1.413 . S
C379 H368 0.931 . S
C379 C377 1.416 . S
C379 C380 1.332 . S
C380 H359 0.929 . S
C380 C376 1.407 . S
C380 C379 1.332 . S
H381 C374 0.930 . S
H382 C405 0.930 . S
H383 C406 0.929 . S
O384 Tb340 2.465 . S
O384 C404 1.264 . S
O385 Tb340 2.387 . S
O385 C396 1.264 . S
O386 Tb351 2.349 . S
O386 C396 1.243 . S
O387 Tb340 2.428 . S
O387 C404 1.256 . S
O388 Tb340 2.308 . S
O388 C403 1.266 . S
O389 Tb351 2.393 . S
O389 C403 1.248 . S
O390 Tb351 2.465 . S
O390 C415 1.264 . S
O391 Tb351 2.387 . S
O391 C407 1.264 . S
O392 Tb340 2.349 . S
O392 C407 1.243 . S
O393 Tb351 2.428 . S
O393 C415 1.256 . S
O394 Tb351 2.308 . S
O394 C414 1.266 . S
O395 Tb340 2.393 . S
O395 C414 1.248 . S
C396 O385 1.264 . S
C396 O386 1.243 . S
C397 C400 1.399 . S
C397 C402 1.383 . S
C397 C404 1.496 . S
C398 C399 1.399 . S
C398 C402 1.389 . S
C399 C398 1.399 . S
C399 C401 1.380 . S
C399 H416 0.929 . S
C400 C397 1.399 . S
C400 C401 1.392 . S
C400 H417 0.929 . S
C401 C399 1.380 . S
C401 C400 1.392 . S
C401 H418 0.929 . S
C402 C397 1.383 . S
C402 C398 1.389 . S
C402 H419 0.931 . S
C403 O388 1.266 . S
C403 O389 1.248 . S
C404 Tb340 2.802 . S
C404 O384 1.264 . S
C404 O387 1.256 . S
C404 C397 1.496 . S
C405 C372 1.448 . S
C405 H382 0.930 . S
C405 C406 1.328 . S
C406 C377 1.427 . S
C406 H383 0.929 . S
C406 C405 1.328 . S
C407 O391 1.264 . S
C407 O392 1.243 . S
C408 C411 1.399 . S
C408 C412 1.383 . S
C408 C415 1.496 . S
C409 C410 1.399 . S
C409 C412 1.389 . S
C410 C409 1.399 . S
C410 C413 1.380 . S
C410 H420 0.929 . S
C411 C408 1.399 . S
C411 C413 1.392 . S
C411 H421 0.929 . S
C412 C408 1.383 . S
C412 C409 1.389 . S
C412 H422 0.931 . S
C413 C410 1.380 . S
C413 C411 1.392 . S
C413 H423 0.929 . S
C414 O394 1.266 . S
C414 O395 1.248 . S
C415 Tb351 2.802 . S
C415 O390 1.264 . S
C415 O393 1.256 . S
C415 C408 1.496 . S
H416 C399 0.929 . S
H417 C400 0.929 . S
H418 C401 0.929 . S
H419 C402 0.931 . S
H420 C410 0.929 . S
H421 C411 0.929 . S
H422 C412 0.931 . S
H423 C413 0.929 . S
H424 C430 0.930 . S
H425 C433 0.930 . S
H426 C434 0.930 . S
H427 C435 0.930 . S
H428 C438 0.930 . S
H429 C439 0.930 . S
C430 H424 0.930 . S
C430 C431 1.355 . S
C430 C432 1.415 . S
C431 C430 1.355 . S
C431 C433 1.419 . S
C432 C430 1.415 . S
C432 C437 1.425 . S
C432 C439 1.409 . S
C433 H425 0.930 . S
C433 C431 1.419 . S
C433 C434 1.362 . S
C434 H426 0.930 . S
C434 C433 1.362 . S
C434 C437 1.409 . S
C435 H427 0.930 . S
C435 C436 1.355 . S
C435 C437 1.415 1_545 S
C436 C435 1.355 . S
C436 C438 1.419 . S
C437 C432 1.425 . S
C437 C434 1.409 . S
C437 C435 1.415 1_565 S
C438 H428 0.930 . S
C438 C436 1.419 . S
C438 C439 1.362 1_545 S
C439 H429 0.930 . S
C439 C432 1.409 . S
C439 C438 1.362 1_565 S
H440 C446 0.930 . S
H441 C449 0.930 . S
H442 C450 0.930 . S
H443 C451 0.930 . S
H444 C454 0.930 . S
H445 C455 0.930 . S
C446 H440 0.930 . S
C446 C447 1.355 . S
C446 C448 1.415 . S
C447 C446 1.355 . S
C447 C449 1.419 . S
C448 C446 1.415 . S
C448 C453 1.425 . S
C448 C455 1.409 . S
C449 H441 0.930 . S
C449 C447 1.419 . S
C449 C450 1.362 . S
C450 H442 0.930 . S
C450 C449 1.362 . S
C450 C453 1.409 . S
C451 H443 0.930 . S
C451 C452 1.355 . S
C451 C453 1.415 . S
C452 C451 1.355 . S
C452 C454 1.419 . S
C453 C448 1.425 . S
C453 C450 1.409 . S
C453 C451 1.415 . S
C454 H444 0.930 . S
C454 C452 1.419 . S
C454 C455 1.362 . S
C455 H445 0.930 . S
C455 C448 1.409 . S
C455 C454 1.362 . S
H456 C462 0.930 . S
H457 C465 0.930 . S
H458 C466 0.930 . S
H459 C467 0.930 . S
H460 C470 0.930 . S
H461 C471 0.930 . S
C462 H456 0.930 . S
C462 C463 1.355 . S
C462 C464 1.415 . S
C463 C462 1.355 . S
C463 C465 1.419 . S
C464 C462 1.415 . S
C464 C469 1.425 . S
C464 C471 1.409 . S
C465 H457 0.930 . S
C465 C463 1.419 . S
C465 C466 1.362 . S
C466 H458 0.930 . S
C466 C465 1.362 . S
C466 C469 1.409 . S
C467 H459 0.930 . S
C467 C468 1.355 . S
C467 C469 1.415 . S
C468 C467 1.355 . S
C468 C470 1.419 . S
C469 C464 1.425 . S
C469 C466 1.409 . S
C469 C467 1.415 . S
C470 H460 0.930 . S
C470 C468 1.419 . S
C470 C471 1.362 . S
C471 H461 0.930 . S
C471 C464 1.409 . S
C471 C470 1.362 . S
H472 C478 0.930 . S
H473 C481 0.930 . S
H474 C482 0.930 . S
H475 C483 0.925 1_565 S
H476 C486 0.930 . S
H477 C487 0.930 . S
C478 H472 0.930 . S
C478 C479 1.355 . S
C478 C480 1.415 . S
C479 C478 1.355 . S
C479 C481 1.419 . S
C480 C478 1.415 . S
C480 C485 1.425 . S
C480 C487 1.409 1_565 S
C481 H473 0.930 . S
C481 C479 1.419 . S
C481 C482 1.362 . S
C482 H474 0.930 . S
C482 C481 1.362 . S
C482 C485 1.409 . S
C483 H475 0.925 1_545 S
C483 C484 1.355 . S
C483 C485 1.415 1_545 S
C484 C483 1.355 . S
C484 C486 1.419 . S
C485 C480 1.425 . S
C485 C482 1.409 . S
C485 C483 1.415 1_565 S
C486 H476 0.930 . S
C486 C484 1.419 . S
C486 C487 1.362 . S
C487 H477 0.930 . S
C487 C480 1.409 1_545 S
C487 C486 1.362 . S
H488 C494 0.930 . S
H489 C497 0.930 . S
H490 C498 0.930 . S
H491 C499 0.930 . S
H492 C502 0.930 . S
H493 C503 0.930 . S
C494 H488 0.930 . S
C494 C495 1.355 . S
C494 C496 1.415 . S
C495 C494 1.355 . S
C495 C497 1.419 . S
C496 C494 1.415 . S
C496 C501 1.425 . S
C496 C503 1.409 . S
C497 H489 0.930 . S
C497 C495 1.419 . S
C497 C498 1.362 . S
C498 H490 0.930 . S
C498 C497 1.362 . S
C498 C501 1.409 . S
C499 H491 0.930 . S
C499 C500 1.355 . S
C499 C501 1.415 1_565 S
C500 C499 1.355 . S
C500 C502 1.419 . S
C501 C496 1.425 . S
C501 C498 1.409 . S
C501 C499 1.415 1_545 S
C502 H492 0.930 . S
C502 C500 1.419 . S
C502 C503 1.362 1_565 S
C503 H493 0.930 . S
C503 C496 1.409 . S
C503 C502 1.362 1_545 S
H504 C510 0.930 . S
H505 C513 0.930 . S
H506 C514 0.930 . S
H507 C515 0.930 . S
H508 C518 0.930 . S
H509 C519 0.930 . S
C510 H504 0.930 . S
C510 C511 1.355 . S
C510 C512 1.415 . S
C511 C510 1.355 . S
C511 C513 1.419 . S
C512 C510 1.415 . S
C512 C517 1.425 . S
C512 C519 1.409 . S
C513 H505 0.930 . S
C513 C511 1.419 . S
C513 C514 1.362 . S
C514 H506 0.930 . S
C514 C513 1.362 . S
C514 C517 1.409 . S
C515 H507 0.930 . S
C515 C516 1.355 . S
C515 C517 1.415 . S
C516 C515 1.355 . S
C516 C518 1.419 . S
C517 C512 1.425 . S
C517 C514 1.409 . S
C517 C515 1.415 . S
C518 H508 0.930 . S
C518 C516 1.419 . S
C518 C519 1.362 . S
C519 H509 0.930 . S
C519 C512 1.409 . S
C519 C518 1.362 . S
H520 C526 0.930 . S
H521 C529 0.930 . S
H522 C530 0.930 . S
H523 C531 0.930 . S
H524 C534 0.930 . S
H525 C535 0.930 . S
C526 H520 0.930 . S
C526 C527 1.355 . S
C526 C528 1.415 . S
C527 C526 1.355 . S
C527 C529 1.419 . S
C528 C526 1.415 . S
C528 C533 1.425 . S
C528 C535 1.409 . S
C529 H521 0.930 . S
C529 C527 1.419 . S
C529 C530 1.362 . S
C530 H522 0.930 . S
C530 C529 1.362 . S
C530 C533 1.409 . S
C531 H523 0.930 . S
C531 C532 1.355 . S
C531 C533 1.415 . S
C532 C531 1.355 . S
C532 C534 1.419 . S
C533 C528 1.425 . S
C533 C530 1.409 . S
C533 C531 1.415 . S
C534 H524 0.930 . S
C534 C532 1.419 . S
C534 C535 1.362 . S
C535 H525 0.930 . S
C535 C528 1.409 . S
C535 C534 1.362 . S
H536 C542 0.930 . S
H537 C545 0.930 . S
H538 C546 0.930 . S
H539 C547 0.930 . S
H540 C550 0.930 . S
H541 C551 0.930 . S
C542 H536 0.930 . S
C542 C543 1.355 . S
C542 C544 1.415 . S
C543 C542 1.355 . S
C543 C545 1.419 . S
C544 C542 1.415 . S
C544 C549 1.425 . S
C544 C551 1.409 1_545 S
C545 H537 0.930 . S
C545 C543 1.419 . S
C545 C546 1.362 . S
C546 H538 0.930 . S
C546 C545 1.362 . S
C546 C549 1.409 . S
C547 H539 0.930 . S
C547 C548 1.355 . S
C547 C549 1.415 1_565 S
C548 C547 1.355 . S
C548 C550 1.419 . S
C549 C544 1.425 . S
C549 C546 1.409 . S
C549 C547 1.415 1_545 S
C550 H540 0.930 . S
C550 C548 1.419 . S
C550 C551 1.362 . S
C551 H541 0.930 . S
C551 C544 1.409 1_565 S
C551 C550 1.362 . S
H552 C558 0.930 . S
H553 C561 0.930 . S
H554 C562 0.930 . S
H555 C563 0.930 . S
H556 C566 0.930 . S
H557 C567 0.930 . S
C558 H552 0.930 . S
C558 C559 1.355 . S
C558 C560 1.415 1_556 S
C559 C558 1.355 . S
C559 C561 1.419 . S
C560 C558 1.415 1_554 S
C560 C565 1.425 . S
C560 C567 1.409 . S
C561 H553 0.930 . S
C561 C559 1.419 . S
C561 C562 1.362 1_556 S
C562 H554 0.930 . S
C562 C561 1.362 1_554 S
C562 C565 1.409 . S
C563 H555 0.930 . S
C563 C564 1.355 . S
C563 C565 1.415 . S
C564 C563 1.355 . S
C564 C566 1.419 . S
C565 C560 1.425 . S
C565 C562 1.409 . S
C565 C563 1.415 . S
C566 H556 0.930 . S
C566 C564 1.419 . S
C566 C567 1.362 . S
C567 H557 0.930 . S
C567 C560 1.409 . S
C567 C566 1.362 . S
H568 C574 0.930 . S
H569 C577 0.930 . S
H570 C578 0.930 . S
H571 C579 0.930 . S
H572 C582 0.930 . S
H573 C583 0.930 . S
C574 H568 0.930 . S
C574 C575 1.355 . S
C574 C576 1.415 . S
C575 C574 1.355 . S
C575 C577 1.419 . S
C576 C574 1.415 . S
C576 C581 1.425 . S
C576 C583 1.409 . S
C577 H569 0.930 . S
C577 C575 1.419 . S
C577 C578 1.362 . S
C578 H570 0.930 . S
C578 C577 1.362 . S
C578 C581 1.409 . S
C579 H571 0.930 . S
C579 C580 1.355 . S
C579 C581 1.415 . S
C580 C579 1.355 . S
C580 C582 1.419 . S
C581 C576 1.425 . S
C581 C578 1.409 . S
C581 C579 1.415 . S
C582 H572 0.930 . S
C582 C580 1.419 . S
C582 C583 1.362 . S
C583 H573 0.930 . S
C583 C576 1.409 . S
C583 C582 1.362 . S
H584 C590 0.930 . S
H585 C593 0.930 . S
H586 C594 0.930 . S
H587 C595 0.930 . S
H588 C598 0.930 . S
H589 C599 0.930 . S
C590 H584 0.930 . S
C590 C591 1.355 . S
C590 C592 1.415 1_554 S
C591 C590 1.355 . S
C591 C593 1.419 . S
C592 C590 1.415 1_556 S
C592 C597 1.425 . S
C592 C599 1.409 . S
C593 H585 0.930 . S
C593 C591 1.419 . S
C593 C594 1.362 1_554 S
C594 H586 0.930 . S
C594 C593 1.362 1_556 S
C594 C597 1.409 . S
C595 H587 0.930 . S
C595 C596 1.355 . S
C595 C597 1.415 . S
C596 C595 1.355 . S
C596 C598 1.419 . S
C597 C592 1.425 . S
C597 C594 1.409 . S
C597 C595 1.415 . S
C598 H588 0.930 . S
C598 C596 1.419 . S
C598 C599 1.362 . S
C599 H589 0.930 . S
C599 C592 1.409 . S
C599 C598 1.362 . S
H600 C606 0.930 . S
H601 C609 0.930 . S
H602 C610 0.930 . S
H603 C611 0.930 . S
H604 C614 0.930 . S
H605 C615 0.930 . S
C606 H600 0.930 . S
C606 C607 1.355 . S
C606 C608 1.415 . S
C607 C606 1.355 . S
C607 C609 1.419 . S
C608 C606 1.415 . S
C608 C613 1.425 . S
C608 C615 1.409 . S
C609 H601 0.930 . S
C609 C607 1.419 . S
C609 C610 1.362 . S
C610 H602 0.930 . S
C610 C609 1.362 . S
C610 C613 1.409 . S
C611 H603 0.930 . S
C611 C612 1.355 . S
C611 C613 1.415 . S
C612 C611 1.355 . S
C612 C614 1.419 . S
C613 C608 1.425 . S
C613 C610 1.409 . S
C613 C611 1.415 . S
C614 H604 0.930 . S
C614 C612 1.419 . S
C614 C615 1.362 . S
C615 H605 0.930 . S
C615 C608 1.409 . S
C615 C614 1.362 . S
H616 C622 0.918 1_554 S
H617 C625 0.930 . S
H618 C626 0.930 . S
H619 C627 0.930 . S
H620 C630 0.930 . S
H621 C631 0.930 . S
C622 H616 0.918 1_556 S
C622 C623 1.333 1_556 S
C622 C624 1.449 . S
C623 C622 1.333 1_554 S
C623 C625 1.419 . S
C624 C622 1.449 . S
C624 C629 1.425 . S
C624 C631 1.409 . S
C625 H617 0.930 . S
C625 C623 1.419 . S
C625 C626 1.362 1_554 S
C626 H618 0.930 . S
C626 C625 1.362 1_556 S
C626 C629 1.409 . S
C627 H619 0.930 . S
C627 C628 1.355 . S
C627 C629 1.415 . S
C628 C627 1.355 . S
C628 C630 1.419 . S
C629 C624 1.425 . S
C629 C626 1.409 . S
C629 C627 1.415 . S
C630 H620 0.930 . S
C630 C628 1.419 . S
C630 C631 1.362 . S
C631 H621 0.930 . S
C631 C624 1.409 . S
C631 C630 1.362 . S
H632 C638 0.930 . S
H633 C641 0.930 . S
H634 C642 0.930 . S
H635 C643 0.930 . S
H636 C646 0.930 . S
H637 C647 0.930 . S
C638 H632 0.930 . S
C638 C639 1.355 . S
C638 C640 1.415 . S
C639 C638 1.355 . S
C639 C641 1.419 . S
C640 C638 1.415 . S
C640 C645 1.425 . S
C640 C647 1.409 . S
C641 H633 0.930 . S
C641 C639 1.419 . S
C641 C642 1.362 . S
C642 H634 0.930 . S
C642 C641 1.362 . S
C642 C645 1.409 . S
C643 H635 0.930 . S
C643 C644 1.355 . S
C643 C645 1.415 . S
C644 C643 1.355 . S
C644 C646 1.419 . S
C645 C640 1.425 . S
C645 C642 1.409 . S
C645 C643 1.415 . S
C646 H636 0.930 . S
C646 C644 1.419 . S
C646 C647 1.362 . S
C647 H637 0.930 . S
C647 C640 1.409 . S
C647 C646 1.362 . S
H648 C654 0.930 . S
H649 C657 0.930 . S
H650 C658 0.930 . S
H651 C659 0.930 . S
H652 C662 0.930 . S
H653 C663 0.930 . S
C654 H648 0.930 . S
C654 C655 1.355 1_554 S
C654 C656 1.415 . S
C655 C654 1.355 1_556 S
C655 C657 1.419 . S
C656 C654 1.415 . S
C656 C661 1.425 . S
C656 C663 1.409 . S
C657 H649 0.930 . S
C657 C655 1.419 . S
C657 C658 1.362 1_556 S
C658 H650 0.930 . S
C658 C657 1.362 1_554 S
C658 C661 1.409 . S
C659 H651 0.930 . S
C659 C660 1.355 . S
C659 C661 1.415 . S
C660 C659 1.355 . S
C660 C662 1.419 . S
C661 C656 1.425 . S
C661 C658 1.409 . S
C661 C659 1.415 . S
C662 H652 0.930 . S
C662 C660 1.419 . S
C662 C663 1.362 . S
C663 H653 0.930 . S
C663 C656 1.409 . S
C663 C662 1.362 . S
H664 C670 0.930 . S
H665 C673 0.930 . S
H666 C674 0.930 . S
H667 C675 0.930 . S
H668 C678 0.930 . S
H669 C679 0.930 . S
C670 H664 0.930 . S
C670 C671 1.355 . S
C670 C672 1.415 . S
C671 C670 1.355 . S
C671 C673 1.419 . S
C672 C670 1.415 . S
C672 C677 1.425 . S
C672 C679 1.409 . S
C673 H665 0.930 . S
C673 C671 1.419 . S
C673 C674 1.362 . S
C674 H666 0.930 . S
C674 C673 1.362 . S
C674 C677 1.409 . S
C675 H667 0.930 . S
C675 C676 1.355 . S
C675 C677 1.415 . S
C676 C675 1.355 . S
C676 C678 1.419 . S
C677 C672 1.425 . S
C677 C674 1.409 . S
C677 C675 1.415 . S
C678 H668 0.930 . S
C678 C676 1.419 . S
C678 C679 1.362 . S
C679 H669 0.930 . S
C679 C672 1.409 . S
C679 C678 1.362 . S
H680 C686 0.930 . S
H681 C689 0.930 . S
H682 C690 0.930 . S
H683 C691 0.930 . S
H684 C694 0.930 . S
H685 C695 0.930 . S
C686 H680 0.930 . S
C686 C687 1.355 . S
C686 C688 1.415 . S
C687 C686 1.355 . S
C687 C689 1.419 . S
C688 C686 1.415 . S
C688 C693 1.425 . S
C688 C695 1.409 . S
C689 H681 0.930 . S
C689 C687 1.419 . S
C689 C690 1.362 . S
C690 H682 0.930 . S
C690 C689 1.362 . S
C690 C693 1.409 . S
C691 H683 0.930 . S
C691 C692 1.355 . S
C691 C693 1.415 . S
C692 C691 1.355 . S
C692 C694 1.419 . S
C693 C688 1.425 . S
C693 C690 1.409 . S
C693 C691 1.415 . S
C694 H684 0.930 . S
C694 C692 1.419 . S
C694 C695 1.362 . S
C695 H685 0.930 . S
C695 C688 1.409 . S
C695 C694 1.362 . S
H696 C702 0.930 . S
H697 C705 0.930 . S
H698 C706 0.930 . S
H699 C707 0.930 . S
H700 C710 0.930 . S
H701 C711 0.930 . S
C702 H696 0.930 . S
C702 C703 1.355 . S
C702 C704 1.415 . S
C703 C702 1.355 . S
C703 C705 1.419 . S
C704 C702 1.415 . S
C704 C709 1.425 . S
C704 C711 1.409 . S
C705 H697 0.930 . S
C705 C703 1.419 . S
C705 C706 1.362 . S
C706 H698 0.930 . S
C706 C705 1.362 . S
C706 C709 1.409 . S
C707 H699 0.930 . S
C707 C708 1.355 . S
C707 C709 1.415 . S
C708 C707 1.355 . S
C708 C710 1.419 . S
C709 C704 1.425 . S
C709 C706 1.409 . S
C709 C707 1.415 . S
C710 H700 0.930 . S
C710 C708 1.419 . S
C710 C711 1.362 . S
C711 H701 0.930 . S
C711 C704 1.409 . S
C711 C710 1.362 . S
H712 C718 0.930 . S
H713 C721 0.930 . S
H714 C722 0.930 . S
H715 C723 0.930 . S
H716 C726 0.930 . S
H717 C727 0.930 . S
C718 H712 0.930 . S
C718 C719 1.355 . S
C718 C720 1.415 . S
C719 C718 1.355 . S
C719 C721 1.419 . S
C720 C718 1.415 . S
C720 C725 1.425 . S
C720 C727 1.409 . S
C721 H713 0.930 . S
C721 C719 1.419 . S
C721 C722 1.362 . S
C722 H714 0.930 . S
C722 C721 1.362 . S
C722 C725 1.409 . S
C723 H715 0.930 . S
C723 C724 1.355 . S
C723 C725 1.415 . S
C724 C723 1.355 . S
C724 C726 1.419 . S
C725 C720 1.425 . S
C725 C722 1.409 . S
C725 C723 1.415 . S
C726 H716 0.930 . S
C726 C724 1.419 . S
C726 C727 1.362 . S
C727 H717 0.930 . S
C727 C720 1.409 . S
C727 C726 1.362 . S
H728 C734 0.930 . S
H729 C737 0.930 . S
H730 C738 0.930 . S
H731 C739 0.930 . S
H732 C742 0.930 . S
H733 C743 0.930 . S
C734 H728 0.930 . S
C734 C735 1.355 . S
C734 C736 1.415 . S
C735 C734 1.355 . S
C735 C737 1.419 . S
C736 C734 1.415 . S
C736 C741 1.425 . S
C736 C743 1.409 . S
C737 H729 0.930 . S
C737 C735 1.419 . S
C737 C738 1.362 . S
C738 H730 0.930 . S
C738 C737 1.362 . S
C738 C741 1.409 . S
C739 H731 0.930 . S
C739 C740 1.355 . S
C739 C741 1.415 . S
C740 C739 1.355 . S
C740 C742 1.419 . S
C741 C736 1.425 . S
C741 C738 1.409 . S
C741 C739 1.415 . S
C742 H732 0.930 . S
C742 C740 1.419 . S
C742 C743 1.362 . S
C743 H733 0.930 . S
C743 C736 1.409 . S
C743 C742 1.362 . S
H744 C750 0.930 . S
H745 C753 0.930 . S
H746 C754 0.930 . S
H747 C755 0.930 . S
H748 C758 0.930 . S
H749 C759 0.930 . S
C750 H744 0.930 . S
C750 C751 1.355 . S
C750 C752 1.415 . S
C751 C750 1.355 . S
C751 C753 1.419 . S
C752 C750 1.415 . S
C752 C757 1.425 . S
C752 C759 1.409 . S
C753 H745 0.930 . S
C753 C751 1.419 . S
C753 C754 1.362 . S
C754 H746 0.930 . S
C754 C753 1.362 . S
C754 C757 1.409 . S
C755 H747 0.930 . S
C755 C756 1.355 . S
C755 C757 1.415 . S
C756 C755 1.355 . S
C756 C758 1.419 . S
C757 C752 1.425 . S
C757 C754 1.409 . S
C757 C755 1.415 . S
C758 H748 0.930 . S
C758 C756 1.419 . S
C758 C759 1.362 . S
C759 H749 0.930 . S
C759 C752 1.409 . S
C759 C758 1.362 . S
H760 C766 0.930 . S
H761 C769 0.930 . S
H762 C770 0.930 . S
H763 C771 0.930 . S
H764 C774 0.930 . S
H765 C775 0.930 . S
C766 H760 0.930 . S
C766 C767 1.355 . S
C766 C768 1.415 . S
C767 C766 1.355 . S
C767 C769 1.419 . S
C768 C766 1.415 . S
C768 C773 1.425 . S
C768 C775 1.409 . S
C769 H761 0.930 . S
C769 C767 1.419 . S
C769 C770 1.362 . S
C770 H762 0.930 . S
C770 C769 1.362 . S
C770 C773 1.409 . S
C771 H763 0.930 . S
C771 C772 1.355 . S
C771 C773 1.415 . S
C772 C771 1.355 . S
C772 C774 1.419 . S
C773 C768 1.425 . S
C773 C770 1.409 . S
C773 C771 1.415 . S
C774 H764 0.930 . S
C774 C772 1.419 . S
C774 C775 1.362 . S
C775 H765 0.930 . S
C775 C768 1.409 . S
C775 C774 1.362 . S
H776 C782 0.930 . S
H777 C785 0.930 . S
H778 C786 0.930 . S
H779 C787 0.930 . S
H780 C790 0.930 . S
H781 C791 0.930 . S
C782 H776 0.930 . S
C782 C783 1.355 . S
C782 C784 1.415 . S
C783 C782 1.355 . S
C783 C785 1.419 . S
C784 C782 1.415 . S
C784 C789 1.425 . S
C784 C791 1.409 . S
C785 H777 0.930 . S
C785 C783 1.419 . S
C785 C786 1.362 . S
C786 H778 0.930 . S
C786 C785 1.362 . S
C786 C789 1.409 . S
C787 H779 0.930 . S
C787 C788 1.355 . S
C787 C789 1.415 . S
C788 C787 1.355 . S
C788 C790 1.419 . S
C789 C784 1.425 . S
C789 C786 1.409 . S
C789 C787 1.415 . S
C790 H780 0.930 . S
C790 C788 1.419 . S
C790 C791 1.362 . S
C791 H781 0.930 . S
C791 C784 1.409 . S
C791 C790 1.362 . S
H792 C798 0.930 . S
H793 C801 0.930 . S
H794 C802 0.930 . S
H795 C803 0.930 . S
H796 C806 0.930 . S
H797 C807 0.930 . S
C798 H792 0.930 . S
C798 C799 1.355 . S
C798 C800 1.415 . S
C799 C798 1.355 . S
C799 C801 1.419 . S
C800 C798 1.415 . S
C800 C805 1.425 . S
C800 C807 1.409 . S
C801 H793 0.930 . S
C801 C799 1.419 . S
C801 C802 1.362 . S
C802 H794 0.930 . S
C802 C801 1.362 . S
C802 C805 1.409 . S
C803 H795 0.930 . S
C803 C804 1.355 . S
C803 C805 1.415 . S
C804 C803 1.355 . S
C804 C806 1.419 . S
C805 C800 1.425 . S
C805 C802 1.409 . S
C805 C803 1.415 . S
C806 H796 0.930 . S
C806 C804 1.419 . S
C806 C807 1.362 . S
C807 H797 0.930 . S
C807 C800 1.409 . S
C807 C806 1.362 . S
C431 C73 1.633 . S
C436 C162 1.625 . S
C452 C246 1.746 . S
C447 C84 1.711 . S
C468 C239 1.652 . S
C463 C51 1.593 . S
C479 C62 1.747 . S
C484 C155 1.745 . S
C500 C319 1.633 . S
C495 C29 1.568 . S
C516 C403 1.589 . S
C511 C38 1.453 . S
C527 C7 1.539 . S
C532 C396 1.632 . S
C543 C16 1.478 . S
C548 C312 1.591 . S
C564 C146 1.542 . S
C559 C18 1.646 . S
C580 C230 1.442 . S
C575 C5 1.340 . S
C596 C241 1.464 . S
C591 C40 1.641 . S
C612 C157 1.486 . S
C607 C27 1.485 . S
C628 C325 1.302 . S
C623 C60 1.386 . S
C639 C49 1.422 . S
C644 C409 1.300 . S
C660 C398 1.258 . S
C655 C82 1.370 . S
C671 C71 1.391 . S
C676 C314 1.394 . S
C692 C144 1.640 . S
C687 C8 1.628 . S
C708 C228 1.544 . S
C703 C19 1.532 . S
C719 C30 1.622 . S
C724 C235 1.630 . S
C740 C151 1.517 . S
C735 C41 1.546 . S
C756 C323 1.427 . S
C751 C52 1.430 . S
C767 C63 1.537 . S
C772 C407 1.536 . S
C783 C74 1.408 . S
C788 C414 1.373 . S
C799 C85 1.534 . S
C804 C330 1.477 . S
