# Generated by pormake.
# Topology zzz, (3,6)-cn, num edge types: 1
# Building blocks:
#     Node 0, Type 0, BuildingBlock: WUSLED_clean_sbu_0, # of connection points: 3
#     Node 1, Type 0, BuildingBlock: WUSLED_clean_sbu_0, # of connection points: 3
#     Node 2, Type 0, BuildingBlock: WUSLED_clean_sbu_0, # of connection points: 3
#     Node 3, Type 0, BuildingBlock: WUSLED_clean_sbu_0, # of connection points: 3
#     Node 4, Type 0, BuildingBlock: WUSLED_clean_sbu_0, # of connection points: 3
#     Node 5, Type 0, BuildingBlock: WUSLED_clean_sbu_0, # of connection points: 3
#     Node 6, Type 0, BuildingBlock: WUSLED_clean_sbu_0, # of connection points: 3
#     Node 7, Type 0, BuildingBlock: WUSLED_clean_sbu_0, # of connection points: 3
#     Node 8, Type 1, BuildingBlock: BETFEN_clean_sbu_0, # of connection points: 6
#     Node 9, Type 1, BuildingBlock: BETFEN_clean_sbu_0, # of connection points: 6
#     Node 10, Type 1, BuildingBlock: BETFEN_clean_sbu_0, # of connection points: 6
#     Node 11, Type 1, BuildingBlock: BETFEN_clean_sbu_0, # of connection points: 6
#     Edge 12, Type (0, 1), BuildingBlock: MIFKUJ_clean_linker_0, # of connection points: 2
#     Edge 13, Type (0, 1), BuildingBlock: MIFKUJ_clean_linker_0, # of connection points: 2
#     Edge 14, Type (0, 1), BuildingBlock: MIFKUJ_clean_linker_0, # of connection points: 2
#     Edge 15, Type (0, 1), BuildingBlock: MIFKUJ_clean_linker_0, # of connection points: 2
#     Edge 16, Type (0, 1), BuildingBlock: MIFKUJ_clean_linker_0, # of connection points: 2
#     Edge 17, Type (0, 1), BuildingBlock: MIFKUJ_clean_linker_0, # of connection points: 2
#     Edge 18, Type (0, 1), BuildingBlock: MIFKUJ_clean_linker_0, # of connection points: 2
#     Edge 19, Type (0, 1), BuildingBlock: MIFKUJ_clean_linker_0, # of connection points: 2
#     Edge 20, Type (0, 1), BuildingBlock: MIFKUJ_clean_linker_0, # of connection points: 2
#     Edge 21, Type (0, 1), BuildingBlock: MIFKUJ_clean_linker_0, # of connection points: 2
#     Edge 22, Type (0, 1), BuildingBlock: MIFKUJ_clean_linker_0, # of connection points: 2
#     Edge 23, Type (0, 1), BuildingBlock: MIFKUJ_clean_linker_0, # of connection points: 2
#     Edge 24, Type (0, 1), BuildingBlock: MIFKUJ_clean_linker_0, # of connection points: 2
#     Edge 25, Type (0, 1), BuildingBlock: MIFKUJ_clean_linker_0, # of connection points: 2
#     Edge 26, Type (0, 1), BuildingBlock: MIFKUJ_clean_linker_0, # of connection points: 2
#     Edge 27, Type (0, 1), BuildingBlock: MIFKUJ_clean_linker_0, # of connection points: 2
#     Edge 28, Type (0, 1), BuildingBlock: MIFKUJ_clean_linker_0, # of connection points: 2
#     Edge 29, Type (0, 1), BuildingBlock: MIFKUJ_clean_linker_0, # of connection points: 2
#     Edge 30, Type (0, 1), BuildingBlock: MIFKUJ_clean_linker_0, # of connection points: 2
#     Edge 31, Type (0, 1), BuildingBlock: MIFKUJ_clean_linker_0, # of connection points: 2
#     Edge 32, Type (0, 1), BuildingBlock: MIFKUJ_clean_linker_0, # of connection points: 2
#     Edge 33, Type (0, 1), BuildingBlock: MIFKUJ_clean_linker_0, # of connection points: 2
#     Edge 34, Type (0, 1), BuildingBlock: MIFKUJ_clean_linker_0, # of connection points: 2
#     Edge 35, Type (0, 1), BuildingBlock: MIFKUJ_clean_linker_0, # of connection points: 2
# Relax obj value: 0.393
# Max RMSD: 0.266
# Mean RMSD: 0.245
data_MOF--net-zzz--node1-WUSLED_clean_sbu_0--node2-BETFEN_clean_sbu_0--edge1-MIFKUJ_clean_linker_0
_symmetry_space_group_name_H-M    P1
_symmetry_Int_Tables_number       1
_symmetry_cell_setting            triclinic
loop_
_symmetry_equiv_pos_as_xyz
'x, y, z'
_cell_length_a     79.249226
_cell_length_b     79.038433
_cell_length_c     24.053546
_cell_angle_alpha  89.886039
_cell_angle_beta   89.934729
_cell_angle_gamma 90.138329
loop_
_atom_site_label
_atom_site_type_symbol
_atom_site_fract_x
_atom_site_fract_y
_atom_site_fract_z
_atom_type_partial_charge
C0 C 0.76187 0.51547 0.43371 0.0
C1 C 0.77658 0.5138 0.40154 0.0
C2 C 0.79441 0.51712 0.4845 0.0
C3 C 0.79264 0.5147 0.42662 0.0
C4 C 0.77963 0.51835 0.51668 0.0
C5 C 0.76361 0.51764 0.49153 0.0
U6 U 0.72731 0.51483 0.31442 0.0
O7 O 0.70277 0.50145 0.31336 0.0
O8 O 0.70346 0.52911 0.31364 0.0
C9 C 0.69409 0.5155 0.30757 0.0
C10 C 0.74457 0.51521 0.40889 0.0
C11 C 0.68144 0.51593 0.26155 0.0
C12 C 0.65204 0.51336 0.23181 0.0
C13 C 0.66438 0.51283 0.27371 0.0
C14 C 0.6735 0.52042 0.1641 0.0
C15 C 0.65639 0.51724 0.17655 0.0
C16 C 0.68593 0.51966 0.20608 0.0
C17 C 0.75689 0.51541 0.1822 0.0
C18 C 0.7684 0.52265 0.0922 0.0
C19 C 0.7863 0.51022 0.16312 0.0
C20 C 0.77266 0.50969 0.19986 0.0
C21 C 0.78434 0.51685 0.10886 0.0
C22 C 0.7548 0.52173 0.12837 0.0
C23 C 0.74198 0.51488 0.21731 0.0
O24 O 0.73958 0.52894 0.38269 0.0
O25 O 0.7396 0.50126 0.384 0.0
O26 O 0.73871 0.50087 0.24493 0.0
O27 O 0.73814 0.52882 0.24407 0.0
H28 H 0.77567 0.51198 0.35703 0.0
H29 H 0.80374 0.51348 0.40064 0.0
H30 H 0.78045 0.52032 0.56115 0.0
H31 H 0.75249 0.51896 0.51741 0.0
H32 H 0.63901 0.51089 0.24273 0.0
H33 H 0.66054 0.51001 0.31597 0.0
H34 H 0.67727 0.52326 0.12178 0.0
H35 H 0.699 0.52203 0.19528 0.0
H36 H 0.76634 0.52811 0.0515 0.0
H37 H 0.79824 0.50519 0.17721 0.0
H38 H 0.77438 0.50469 0.24144 0.0
H39 H 0.74256 0.52609 0.11431 0.0
C40 C 0.01304 0.76369 0.44555 0.0
C41 C 0.01503 0.77822 0.4123 0.0
C42 C 0.0116 0.7965 0.4936 0.0
C43 C 0.01424 0.79446 0.43609 0.0
C44 C 0.00982 0.78197 0.52683 0.0
C45 C 0.01045 0.76575 0.50298 0.0
U46 U 0.01269 0.73273 0.32118 0.0
O47 O 0.02637 0.70875 0.3076 0.0
O48 O 0.99872 0.70884 0.30932 0.0
C49 C 0.01245 0.69988 0.30101 0.0
C50 C 0.01328 0.74636 0.42139 0.0
C51 C 0.01213 0.68735 0.25475 0.0
C52 C 0.01517 0.65788 0.22605 0.0
C53 C 0.01588 0.67042 0.26714 0.0
C54 C 1.00681 0.6789 0.15841 0.0
C55 C 0.01054 0.66186 0.17113 0.0
C56 C 1.00768 0.69156 0.19974 0.0
C57 C 0.01166 0.76461 0.19022 0.0
C58 C 0.01544 0.76946 0.09177 0.0
C59 C 1.00769 0.79263 0.15297 0.0
C60 C 1.00775 0.78167 0.19817 0.0
C61 C 0.01152 0.78654 0.0997 0.0
C62 C 0.01546 0.75846 0.13711 0.0
C63 C 0.01198 0.75331 0.23762 0.0
O64 O 0.99937 0.74144 0.39647 0.0
O65 O 0.02695 0.74203 0.39383 0.0
O66 O 0.02627 0.74762 0.25793 0.0
O67 O 0.99804 0.74799 0.26166 0.0
H68 H 0.01705 0.77702 0.36792 0.0
H69 H 0.01566 0.80546 0.40956 0.0
H70 H 1.00762 0.78317 0.5711 0.0
H71 H 1.00877 0.75477 0.52946 0.0
H72 H 0.01797 0.64494 0.2376 0.0
H73 H 0.01924 0.66682 0.30916 0.0
H74 H 1.0034 0.68246 0.1164 0.0
H75 H 1.00478 0.70453 0.18886 0.0
H76 H 0.01853 0.76471 0.05079 0.0
H77 H 1.00504 0.80592 0.15966 0.0
H78 H 1.005 0.78652 0.23931 0.0
H79 H 0.01848 0.74524 0.1309 0.0
C80 C 0.75588 1.00963 0.43447 0.0
C81 C 0.74135 0.01112 0.40157 0.0
C82 C 0.7231 1.00884 0.48417 0.0
C83 C 0.72521 0.0107 0.42604 0.0
C84 C 0.73778 1.00725 0.51682 0.0
C85 C 0.7539 1.00766 0.49226 0.0
U86 U 0.79018 0.01104 0.31528 0.0
O87 O 0.81433 0.99723 0.31411 0.0
O88 O 0.81439 0.02491 0.31339 0.0
C89 C 0.82337 0.01105 0.30775 0.0
C90 C 0.77321 1.01012 0.41026 0.0
C91 C 0.83594 0.01083 0.26154 0.0
C92 C 0.86522 1.00766 0.23178 0.0
C93 C 0.85298 1.00813 0.27396 0.0
C94 C 0.84362 0.01273 0.16304 0.0
C95 C 0.8609 1.0101 0.17537 0.0
C96 C 0.83131 0.01301 0.2055 0.0
C97 C 0.76042 1.01032 0.18337 0.0
C98 C 0.74945 1.00439 0.0918 0.0
C99 C 0.73073 0.01417 0.16491 0.0
C100 C 0.7443 0.0148 0.20189 0.0
C101 C 0.73322 1.00892 0.10948 0.0
C102 C 0.76292 1.00519 0.12841 0.0
C103 C 0.77526 0.01095 0.21871 0.0
O104 O 0.77833 0.99654 0.3837 0.0
O105 O 0.77797 0.02422 0.38559 0.0
O106 O 0.77834 0.02495 0.24641 0.0
O107 O 0.77938 0.99701 0.24516 0.0
H108 H 0.74248 0.01258 0.35694 0.0
H109 H 0.71434 0.01163 0.39903 0.0
H110 H 0.73687 1.00599 0.56155 0.0
H111 H 0.76491 1.0065 0.51868 0.0
H112 H 0.8781 1.0051 0.24388 0.0
H113 H 0.85687 1.00625 0.31668 0.0
H114 H 0.83953 0.01486 0.12071 0.0
H115 H 0.81821 0.01501 0.19457 0.0
H116 H 0.75177 1.00008 0.04977 0.0
H117 H 0.7184 0.01804 0.17945 0.0
H118 H 0.74227 0.01888 0.24435 0.0
H119 H 0.77539 1.00176 0.11372 0.0
C120 C 0.50466 0.76039 0.43546 0.0
C121 C 0.49682 0.74639 0.41052 0.0
C122 C 0.50668 0.7276 0.48545 0.0
C123 C 0.49776 0.73027 0.43526 0.0
C124 C 0.51412 0.74181 0.51095 0.0
C125 C 0.51311 0.75794 0.48628 0.0
U126 U 0.5025 0.79466 0.31569 0.0
O127 O 0.48938 0.81931 0.31441 0.0
O128 O 0.51697 0.81847 0.3128 0.0
C129 C 0.50345 0.8279 0.30731 0.0
C130 C 0.50402 0.77773 0.41076 0.0
C131 C 0.5038 0.84037 0.2607 0.0
C132 C 0.50377 0.86987 0.2305 0.0
C133 C 0.50288 0.85767 0.27287 0.0
C134 C 0.5065 0.84771 0.16206 0.0
C135 C 0.50559 0.86517 0.17429 0.0
C136 C 0.5056 0.83545 0.20474 0.0
C137 C 0.50183 0.76489 0.18341 0.0
C138 C 0.50968 0.75366 0.09371 0.0
C139 C 0.49523 0.73586 0.16105 0.0
C140 C 0.49484 0.74929 0.19869 0.0
C141 C 0.50281 0.7379 0.1083 0.0
C142 C 0.50906 0.76704 0.13083 0.0
C143 C 0.50159 0.77963 0.21939 0.0
O144 O 0.5174 0.78283 0.38297 0.0
O145 O 0.4898 0.78261 0.3875 0.0
O146 O 0.48789 0.78284 0.24837 0.0
O147 O 0.51575 0.78363 0.24447 0.0
H148 H 0.49002 0.74789 0.37179 0.0
H149 H 0.49142 0.71985 0.41482 0.0
H150 H 0.52114 0.74046 0.54928 0.0
H151 H 0.51911 0.76855 0.50683 0.0
H152 H 0.50332 0.88308 0.24217 0.0
H153 H 0.50162 0.86181 0.31558 0.0
H154 H 0.50772 0.84348 0.11945 0.0
H155 H 0.50636 0.82216 0.19406 0.0
H156 H 0.51583 0.75567 0.05402 0.0
H157 H 0.48947 0.72397 0.17316 0.0
H158 H 0.48908 0.74753 0.23916 0.0
H159 H 0.51436 0.77914 0.1185 0.0
C160 C 0.25739 0.50219 0.87132 0.0
C161 C 0.24325 0.49691 0.90204 0.0
C162 C 0.22439 0.50347 0.82381 0.0
C163 C 0.22701 0.49747 0.87856 0.0
C164 C 0.2387 0.50835 0.79279 0.0
C165 C 0.25496 0.50773 0.81631 0.0
U166 U 0.28898 0.50128 0.99514 0.0
O167 O 0.3137 0.48862 1.00372 0.0
O168 O 0.3122 0.51623 0.0079 0.0
C169 C 0.32185 0.50283 0.01324 0.0
C170 C 0.27468 0.50225 0.89576 0.0
C171 C 0.33437 0.50287 0.05973 0.0
C172 C 0.36382 0.50006 0.08851 0.0
C173 C 0.35133 0.49953 0.04724 0.0
C174 C 0.34269 0.50722 0.15685 0.0
C175 C 0.35985 0.50404 0.14412 0.0
C176 C 0.33011 0.50664 0.11521 0.0
C177 C 0.25761 0.49837 0.12676 0.0
C178 C 0.25136 0.50042 0.22489 0.0
C179 C 0.22866 0.49746 0.15773 0.0
C180 C 0.2404 0.49703 0.11454 0.0
C181 C 0.23413 0.49941 0.21294 0.0
C182 C 0.26306 0.4998 0.18187 0.0
C183 C 0.27023 0.4994 0.08318 0.0
O184 O 0.27895 0.51582 0.92396 0.0
O185 O 0.27973 0.4882 0.91997 0.0
O186 O 0.2753 0.48579 0.05676 0.0
O187 O 0.27427 0.514 0.06048 0.0
H188 H 0.24474 0.49246 0.94438 0.0
H189 H 0.21647 0.4932 0.9036 0.0
H190 H 0.23734 0.51311 0.75081 0.0
H191 H 0.26566 0.51183 0.7916 0.0
H192 H 0.37665 0.49715 0.07654 0.0
H193 H 0.35499 0.49656 0.00496 0.0
H194 H 0.33896 0.51049 0.19877 0.0
H195 H 0.31713 0.5093 0.12627 0.0
H196 H 0.25571 0.50198 0.26727 0.0
H197 H 0.21532 0.49694 0.148 0.0
H198 H 0.23609 0.49608 0.07193 0.0
H199 H 0.27638 0.50088 0.19145 0.0
C200 C 0.01521 0.26158 0.87655 0.0
C201 C 0.01757 0.24734 0.91072 0.0
C202 C 0.01465 0.22842 0.83061 0.0
C203 C 0.01725 0.23096 0.88802 0.0
C204 C 0.01263 0.24275 0.79645 0.0
C205 C 0.01282 0.25911 0.81924 0.0
U206 U 0.01634 0.29322 0.99889 0.0
O207 O 0.02827 0.3184 0.00711 0.0
O208 O 1.00078 0.31588 0.01294 0.0
C209 C 0.01386 0.32605 0.01706 0.0
C210 C 0.01481 0.27901 0.89971 0.0
C211 C 0.01356 0.33868 0.06289 0.0
C212 C 0.01524 0.36836 0.09022 0.0
C213 C 0.01615 0.35575 0.04944 0.0
C214 C 0.00916 0.34707 0.15972 0.0
C215 C 0.01173 0.36429 0.14609 0.0
C216 C 0.01008 0.33438 0.11858 0.0
C217 C 0.0208 0.26216 0.13133 0.0
C218 C 0.01208 0.25523 0.22504 0.0
C219 C 0.0236 0.23353 0.16455 0.0
C220 C 0.02608 0.24549 0.12291 0.0
C221 C 0.01602 0.23826 0.21487 0.0
C222 C 0.01433 0.26717 0.18295 0.0
C223 C 0.0192 0.27331 0.08375 0.0
O224 O 1.00143 0.28288 0.92935 0.0
O225 O 0.02889 0.28462 0.92201 0.0
O226 O 0.03252 0.27928 0.05754 0.0
O227 O 1.00439 0.27793 0.06469 0.0
H228 H 0.01951 0.24888 0.955 0.0
H229 H 0.01909 0.22023 0.91544 0.0
H230 H 0.01048 0.2413 0.75225 0.0
H231 H 0.01093 0.26988 0.79206 0.0
H232 H 0.01701 0.38139 0.07753 0.0
H233 H 0.0187 0.35942 0.00681 0.0
H234 H 1.00661 0.34335 0.20227 0.0
H235 H 1.00801 0.32129 0.13019 0.0
H236 H 1.00617 0.25897 0.26373 0.0
H237 H 0.02668 0.22041 0.15639 0.0
H238 H 0.0309 0.24148 0.08288 0.0
H239 H 0.01012 0.28004 0.18948 0.0
C240 C 0.26112 0.02393 0.86993 0.0
C241 C 0.27558 0.02749 0.90155 0.0
C242 C 0.29384 0.02226 0.82084 0.0
C243 C 0.29171 0.02669 0.87731 0.0
C244 C 0.27926 0.01912 0.78907 0.0
C245 C 0.26313 0.01989 0.81341 0.0
U246 U 0.23047 0.02585 0.99554 0.0
O247 O 0.2052 0.03737 1.00363 0.0
O248 O 0.20822 1.00999 0.0138 0.0
C249 C 0.19781 0.0229 0.01576 0.0
C250 C 0.24395 0.02387 0.89514 0.0
C251 C 0.18489 0.02297 0.06087 0.0
C252 C 0.15501 0.02431 0.08602 0.0
C253 C 0.16787 0.02468 0.04586 0.0
C254 C 0.17592 0.02064 0.15801 0.0
C255 C 0.15872 0.02219 0.14288 0.0
C256 C 0.18884 0.02099 0.11752 0.0
C257 C 0.26183 0.03049 0.12659 0.0
C258 C 0.267 0.02495 0.22401 0.0
C259 C 0.29031 0.03124 0.16147 0.0
C260 C 0.27905 0.03323 0.11777 0.0
C261 C 0.28435 0.02667 0.21423 0.0
C262 C 0.25572 0.02673 0.17992 0.0
C263 C 0.25094 0.02895 0.07855 0.0
O264 O 0.24017 0.01062 0.92579 0.0
O265 O 0.23876 0.03812 0.91743 0.0
O266 O 0.24464 0.04227 0.05322 0.0
O267 O 0.24628 0.01407 0.05979 0.0
H268 H 0.27441 0.03071 0.94515 0.0
H269 H 0.30257 0.02951 0.903 0.0
H270 H 0.28031 0.01558 0.74574 0.0
H271 H 0.25217 0.01706 0.78814 0.0
H272 H 0.14211 0.02589 0.07229 0.0
H273 H 0.16447 0.02627 1.00254 0.0
H274 H 0.1794 0.01885 0.20112 0.0
H275 H 0.20186 0.01959 0.13042 0.0
H276 H 0.26235 0.02126 0.26465 0.0
H277 H 0.30373 0.03239 0.15353 0.0
H278 H 0.28388 0.03586 0.07645 0.0
H279 H 0.24239 0.02439 0.18677 0.0
C280 C 0.50445 0.26561 0.87915 0.0
C281 C 0.50009 0.28023 0.90907 0.0
C282 C 0.50301 0.29761 0.82508 0.0
C283 C 0.49932 0.29607 0.88217 0.0
C284 C 0.50744 0.283 0.79538 0.0
C285 C 0.50805 0.26718 0.82206 0.0
U286 U 0.50512 0.23214 1.00148 0.0
O287 O 0.49277 0.20705 1.00313 0.0
O288 O 0.52031 0.20884 0.00577 0.0
C289 C 0.50705 0.19893 0.01047 0.0
C290 C 0.50512 0.24852 0.90533 0.0
C291 C 0.5074 0.18615 0.05619 0.0
C292 C 0.50389 0.15672 0.08536 0.0
C293 C 0.50334 0.16927 0.04402 0.0
C294 C 0.51273 0.17762 0.15257 0.0
C295 C 0.50868 0.16065 0.14014 0.0
C296 C 0.51199 0.19027 0.11114 0.0
C297 C 0.50257 0.26232 0.13306 0.0
C298 C 0.50208 0.27224 0.228 0.0
C299 C 0.50506 0.29225 0.1518 0.0
C300 C 0.50434 0.27895 0.1136 0.0
C301 C 0.50425 0.28884 0.20919 0.0
C302 C 0.50116 0.25908 0.19008 0.0
C303 C 0.50342 0.24765 0.09684 0.0
O304 O 0.51894 0.24453 0.93253 0.0
O305 O 0.49135 0.24299 0.93008 0.0
O306 O 0.4899 0.24328 0.0687 0.0
O307 O 0.51777 0.24467 0.07127 0.0
H308 H 0.49729 0.2794 0.95307 0.0
H309 H 0.49604 0.30718 0.90612 0.0
H310 H 0.51037 0.28382 0.75144 0.0
H311 H 0.51136 0.25611 0.79795 0.0
H312 H 0.50079 0.14381 0.07418 0.0
H313 H 0.49982 0.16573 1.00212 0.0
H314 H 0.51627 0.18114 0.19449 0.0
H315 H 0.51506 0.20322 0.12193 0.0
H316 H 0.50141 0.26944 0.27208 0.0
H317 H 0.5069 0.30507 0.13685 0.0
H318 H 0.50556 0.28155 0.06954 0.0
H319 H 0.49986 0.24624 0.20544 0.0
Pr320 Pr 0.0231 1.00972 0.70527 0.0
Pr321 Pr 0.99597 0.01616 0.60809 0.0
C322 C 0.03624 0.99672 0.79749 0.0
C323 C 0.0339 0.97934 0.81727 0.0
C324 C 0.04794 0.96982 0.83333 0.0
C325 C 0.04608 0.95277 0.84695 0.0
C326 C 0.03016 0.94488 0.84378 0.0
C327 C 0.01625 0.95434 0.82536 0.0
C328 C 0.01808 0.97142 0.8125 0.0
C329 C 0.04043 0.01539 0.60464 0.0
C330 C 1.00721 0.9763 0.6304 0.0
C331 C 0.9824 0.02802 0.51473 0.0
C332 C 0.98447 0.04489 0.4903 0.0
C333 C 0.97016 0.05495 0.48175 0.0
C334 C 0.97193 0.07186 0.46648 0.0
C335 C 0.98805 0.07892 0.45948 0.0
C336 C 1.00238 0.0689 0.46839 0.0
C337 C 1.00062 0.05201 0.48381 0.0
C338 C 0.97852 0.01082 0.70902 0.0
C339 C 0.01244 0.04954 0.68124 0.0
O340 O 0.02288 1.00648 0.79862 0.0
O341 O 0.04488 0.99792 0.75138 0.0
O342 O 0.02462 0.01532 0.61199 0.0
O343 O 0.04789 0.01377 0.65237 0.0
O344 O 0.9989 0.98667 0.59679 0.0
O345 O 0.01589 0.98203 0.67374 0.0
O346 O 0.99564 0.01808 0.51431 0.0
O347 O 0.97427 0.02796 0.56203 0.0
O348 O 0.99436 0.01071 0.70184 0.0
O349 O 0.97119 0.0129 0.66134 0.0
O350 O 0.01935 0.03907 0.7179 0.0
O351 O 1.00478 0.0439 0.63564 0.0
H352 H 0.06036 0.97556 0.83495 0.0
H353 H 0.05711 0.94595 0.86097 0.0
H354 H 1.00393 0.94858 0.82038 0.0
H355 H 1.00716 0.97833 0.79776 0.0
H356 H 0.95762 0.04985 0.48855 0.0
H357 H 0.96071 0.0795 0.46111 0.0
H358 H 0.01494 0.07412 0.4634 0.0
H359 H 0.01191 0.0447 0.49188 0.0
Pr360 Pr 0.51318 0.02628 0.70785 0.0
Pr361 Pr 0.5045 0.99988 0.60595 0.0
C362 C 0.52755 0.03783 0.7999 0.0
C363 C 0.54567 0.03728 0.81286 0.0
C364 C 0.55481 0.05241 0.81914 0.0
C365 C 0.57219 0.05199 0.82834 0.0
C366 C 0.58052 0.03643 0.83124 0.0
C367 C 0.57163 0.02135 0.82277 0.0
C368 C 0.55434 0.02175 0.81329 0.0
C369 C 0.5102 0.0438 0.60576 0.0
C370 C 0.54484 1.00821 0.63051 0.0
C371 C 0.49021 0.98848 0.51345 0.0
C372 C 0.47223 0.98963 0.49877 0.0
C373 C 0.46228 0.97493 0.49808 0.0
C374 C 0.44489 0.976 0.49046 0.0
C375 C 0.43716 0.99181 0.483 0.0
C376 C 0.44706 1.00655 0.4844 0.0
C377 C 0.46442 1.00548 0.49243 0.0
C378 C 0.50771 0.98233 0.70798 0.0
C379 C 0.47281 0.0179 0.68323 0.0
O380 O 0.51961 0.02325 0.79867 0.0
O381 O 0.52343 0.04793 0.759 0.0
O382 O 0.50842 0.02816 0.61478 0.0
O383 O 0.51349 0.05126 0.65255 0.0
O384 O 0.53399 1.00203 0.59361 0.0
O385 O 0.53988 0.01595 0.67679 0.0
O386 O 0.49873 1.00272 0.51451 0.0
O387 O 0.49356 0.97849 0.55543 0.0
O388 O 0.50896 0.99805 0.69916 0.0
O389 O 0.50566 0.97478 0.66052 0.0
O390 O 0.48365 0.02429 0.71983 0.0
O391 O 0.47783 1.01 0.63728 0.0
H392 H 0.54847 0.06453 0.81721 0.0
H393 H 0.57901 0.0637 0.83513 0.0
H394 H 0.57801 1.00925 0.82513 0.0
H395 H 0.54779 1.00988 0.80667 0.0
H396 H 0.46793 0.96261 0.50442 0.0
H397 H 0.43748 0.96447 0.4904 0.0
H398 H 0.44147 0.0189 0.47814 0.0
H399 H 0.47164 0.01711 0.49409 0.0
Pr400 Pr 0.49488 0.51639 0.7086 0.0
Pr401 Pr 0.52243 0.50912 0.61121 0.0
C402 C 0.48238 0.53002 0.80067 0.0
C403 C 0.48316 0.54799 0.81601 0.0
C404 C 0.46812 0.55706 0.82325 0.0
C405 C 0.46857 0.5745 0.83182 0.0
C406 C 0.48406 0.58304 0.83255 0.0
C407 C 0.4991 0.57414 0.82438 0.0
C408 C 0.49868 0.55671 0.81604 0.0
C409 C 0.4779 0.51243 0.60652 0.0
C410 C 0.51229 0.54916 0.63393 0.0
C411 C 0.53536 0.49576 0.51945 0.0
C412 C 0.53457 0.47786 0.50398 0.0
C413 C 0.54944 0.46912 0.49128 0.0
C414 C 0.54889 0.45183 0.48003 0.0
C415 C 0.53344 0.44316 0.48133 0.0
C416 C 0.5187 0.45172 0.49685 0.0
C417 C 0.51925 0.46893 0.50822 0.0
C418 C 0.53898 0.51348 0.71372 0.0
C419 C 0.50503 0.47624 0.68623 0.0
O420 O 0.49668 0.5217 0.80069 0.0
O421 O 0.47292 0.52677 0.75746 0.0
O422 O 0.4937 0.51161 0.61458 0.0
O423 O 0.47036 0.51473 0.65385 0.0
O424 O 0.51968 0.5386 0.59865 0.0
O425 O 0.50389 0.54372 0.67842 0.0
O426 O 0.521 0.50395 0.51914 0.0
O427 O 0.54467 0.49898 0.56297 0.0
O428 O 0.52333 0.51414 0.70403 0.0
O429 O 0.54701 0.51119 0.6673 0.0
O430 O 0.49647 0.48673 0.71882 0.0
O431 O 0.51455 0.48171 0.64423 0.0
H432 H 0.45602 0.55068 0.82164 0.0
H433 H 0.45689 0.58132 0.83824 0.0
H434 H 0.51117 0.58063 0.82553 0.0
H435 H 0.51048 0.55016 0.80899 0.0
H436 H 0.56145 0.47569 0.48992 0.0
H437 H 0.56041 0.44541 0.46829 0.0
H438 H 0.50669 0.44515 0.49918 0.0
H439 H 0.50767 0.4752 0.52031 0.0
Pr440 Pr 1.00507 0.49988 0.70824 0.0
Pr441 Pr 0.01335 0.52714 0.60848 0.0
C442 C 0.99099 0.48856 0.80142 0.0
C443 C 0.9729 0.4886 0.81528 0.0
C444 C 0.9642 0.47319 0.82073 0.0
C445 C 0.94684 0.47307 0.83034 0.0
C446 C 0.93805 0.48835 0.83398 0.0
C447 C 0.94653 0.50375 0.82705 0.0
C448 C 0.96385 0.50391 0.81767 0.0
C449 C 1.0082 0.48276 0.60594 0.0
C450 C 0.97291 0.51763 0.63141 0.0
C451 C 0.0276 0.54004 0.51755 0.0
C452 C 0.0452 0.5377 0.50039 0.0
C453 C 0.05491 0.55157 0.48301 0.0
C454 C 0.07206 0.54954 0.47141 0.0
C455 C 0.07969 0.53359 0.47734 0.0
C456 C 0.07003 0.51992 0.49692 0.0
C457 C 0.05299 0.52196 0.50843 0.0
C458 C 0.00965 0.54368 0.71157 0.0
C459 C 0.04532 0.50865 0.68433 0.0
O460 O 0.99841 0.50338 0.79862 0.0
O461 O 0.99536 0.47831 0.76125 0.0
O462 O 0.00985 0.49851 0.61442 0.0
O463 O 1.00532 0.4752 0.65304 0.0
O464 O 0.9837 0.52526 0.59699 0.0
O465 O 0.97813 0.50886 0.67548 0.0
O466 O 0.0179 0.52657 0.51573 0.0
O467 O 0.02578 0.54887 0.56303 0.0
O468 O 1.0087 0.5281 0.70106 0.0
O469 O 0.01167 0.55184 0.66515 0.0
O470 O 0.03452 0.50191 0.72046 0.0
O471 O 0.04017 0.51682 0.63892 0.0
H472 H 0.97083 0.46126 0.81759 0.0
H473 H 0.94033 0.46112 0.83595 0.0
H474 H 0.93981 0.51565 0.83047 0.0
H475 H 0.9701 0.51601 0.81233 0.0
H476 H 0.04924 0.56396 0.47866 0.0
H477 H 0.07921 0.56031 0.45641 0.0
H478 H 0.07566 0.50759 0.50346 0.0
H479 H 0.04599 0.51124 0.52447 0.0
H480 H 0.15864 0.03504 0.24963 0.0
H481 H 0.13624 0.03368 0.31939 0.0
H482 H 0.10426 1.00707 0.20415 0.0
H483 H 0.12671 1.00817 0.13403 0.0
H484 H 0.08596 0.03159 0.26863 0.0
H485 H 0.12209 0.98387 0.30128 0.0
H486 H 0.15018 0.97075 0.30985 0.0
H487 H 0.16158 1.00301 0.44838 0.0
H488 H 0.13356 0.01639 0.44031 0.0
H489 H 0.02995 1.00857 0.4966 0.0
H490 H 0.04759 1.00838 0.41219 0.0
H491 H 0.09014 0.02569 0.50859 0.0
H492 H 0.0729 0.02508 0.59224 0.0
H493 H 0.1011 1.00297 0.44536 0.0
H494 H 0.06538 0.05169 0.41058 0.0
H495 H 0.0375 0.06514 0.40159 0.0
H496 H 0.02496 0.03149 0.2678 0.0
H497 H 0.05284 0.01781 0.27613 0.0
C498 C 0.14693 0.02879 0.23888 0.0
C499 C 0.14473 0.02164 0.18574 0.0
C500 C 0.134 0.02814 0.27891 0.0
C501 C 0.11845 0.02023 0.26748 0.0
C502 C 0.11601 0.01339 0.21418 0.0
C503 C 0.12896 0.01403 0.17398 0.0
C504 C 0.10541 0.0181 0.31267 0.0
C505 C 0.0892 0.02516 0.30701 0.0
C506 C 0.10941 1.00975 0.36304 0.0
C507 C 0.1258 1.0011 0.37019 0.0
C508 C 0.13059 0.98811 0.33366 0.0
C509 C 0.14649 0.98066 0.33836 0.0
C510 C 0.15766 0.98605 0.37963 0.0
C511 C 0.1529 0.99883 0.41652 0.0
C512 C 0.13699 1.00631 0.41204 0.0
C513 C 0.043 0.01255 0.49939 0.0
C514 C 0.04994 0.017 0.55119 0.0
C515 C 0.05314 0.01245 0.45102 0.0
C516 C 0.07036 0.01718 0.4532 0.0
C517 C 0.07704 0.02188 0.50504 0.0
C518 C 0.06707 0.02167 0.5531 0.0
C519 C 0.08174 0.01706 0.40274 0.0
C520 C 0.09771 1.00941 0.40713 0.0
C521 C 0.07744 0.0249 0.35145 0.0
C522 C 0.06111 0.03367 0.34423 0.0
C523 C 0.05668 0.04719 0.3792 0.0
C524 C 0.04086 0.05481 0.37433 0.0
C525 C 0.0294 0.0491 0.33441 0.0
C526 C 0.03383 0.03588 0.2988 0.0
C527 C 0.04966 0.02821 0.30345 0.0
H528 H 0.01711 0.05496 0.33097 0.0
H529 H 0.17001 0.98033 0.38302 0.0
H530 H 0.53431 0.15301 0.21337 0.0
H531 H 0.53494 0.13053 0.28422 0.0
H532 H 0.48481 0.11507 0.23661 0.0
H533 H 0.48427 0.13728 0.16537 0.0
H534 H 0.4872 0.11874 0.34774 0.0
H535 H 0.51765 0.0886 0.20901 0.0
H536 H 0.53953 0.08158 0.13987 0.0
H537 H 0.57801 0.08781 0.26376 0.0
H538 H 0.55635 0.09495 0.33358 0.0
H539 H 0.48585 0.04412 0.52367 0.0
H540 H 0.48504 0.06253 0.4406 0.0
H541 H 0.53397 0.08259 0.48319 0.0
H542 H 0.5345 0.0647 0.5665 0.0
H543 H 0.53147 0.0751 0.37055 0.0
H544 H 0.50071 0.10634 0.50795 0.0
H545 H 0.47861 0.11351 0.57615 0.0
H546 H 0.4404 0.10524 0.4526 0.0
H547 H 0.46229 0.09786 0.38383 0.0
C548 C 0.52344 0.14479 0.21799 0.0
C549 C 0.5092 0.14703 0.18377 0.0
C550 C 0.52387 0.1318 0.25818 0.0
C551 C 0.50996 0.12091 0.26585 0.0
C552 C 0.49576 0.12317 0.23163 0.0
C553 C 0.49545 0.13591 0.19082 0.0
C554 C 0.50966 0.10807 0.31211 0.0
C555 C 0.49673 0.10899 0.35197 0.0
C556 C 0.52226 0.09552 0.31895 0.0
C557 C 0.5354 0.09254 0.27628 0.0
C558 C 0.5308 0.08876 0.22126 0.0
C559 C 0.54315 0.08465 0.18203 0.0
C560 C 0.56015 0.0843 0.19736 0.0
C561 C 0.56484 0.08812 0.2519 0.0
C562 C 0.55253 0.09219 0.29132 0.0
C563 C 0.49652 0.05224 0.51458 0.0
C564 C 0.51034 0.0528 0.55118 0.0
C565 C 0.49599 0.06291 0.46746 0.0
C566 C 0.50942 0.0741 0.45545 0.0
C567 C 0.52344 0.07416 0.49121 0.0
C568 C 0.52376 0.06387 0.5388 0.0
C569 C 0.50902 0.08583 0.40615 0.0
C570 C 0.52185 0.08475 0.36591 0.0
C571 C 0.4963 0.09822 0.3988 0.0
C572 C 0.4831 0.10125 0.44112 0.0
C573 C 0.48757 0.10572 0.49567 0.0
C574 C 0.47509 0.10993 0.53431 0.0
C575 C 0.4581 0.10976 0.51879 0.0
C576 C 0.45355 0.10531 0.46465 0.0
C577 C 0.46599 0.1011 0.42585 0.0
H578 H 0.44847 0.11315 0.54866 0.0
H579 H 0.56969 0.08102 0.16702 0.0
H580 H 0.35805 0.49588 0.25625 0.0
H581 H 0.38027 0.49749 0.32646 0.0
H582 H 0.41549 0.51505 0.20265 0.0
H583 H 0.39326 0.5141 0.13236 0.0
H584 H 0.4298 0.48999 0.27882 0.0
H585 H 0.40239 0.54412 0.28567 0.0
H586 H 0.37718 0.56237 0.28663 0.0
H587 H 0.36043 0.53881 0.43808 0.0
H588 H 0.38554 0.52036 0.43777 0.0
H589 H 0.48926 0.51406 0.49627 0.0
H590 H 0.47179 0.51337 0.41145 0.0
H591 H 0.42721 0.50675 0.51236 0.0
H592 H 0.44435 0.50787 0.59576 0.0
H593 H 0.41995 0.52839 0.43839 0.0
H594 H 0.44712 0.47357 0.43077 0.0
H595 H 0.47207 0.45497 0.42914 0.0
H596 H 0.48932 0.47903 0.27919 0.0
H597 H 0.46455 0.49792 0.28037 0.0
C598 C 0.37042 0.50026 0.24363 0.0
C599 C 0.37359 0.50486 0.18788 0.0
C600 C 0.38325 0.50101 0.28401 0.0
C601 C 0.3997 0.50633 0.27015 0.0
C602 C 0.40303 0.5107 0.21458 0.0
C603 C 0.39018 0.5101 0.17421 0.0
C604 C 0.41294 0.50833 0.31456 0.0
C605 C 0.42776 0.49854 0.31336 0.0
C606 C 0.41046 0.5194 0.35994 0.0
C607 C 0.39577 0.53088 0.36165 0.0
C608 C 0.39331 0.54286 0.31917 0.0
C609 C 0.37906 0.55323 0.31958 0.0
C610 C 0.36721 0.55174 0.36237 0.0
C611 C 0.36964 0.53996 0.40502 0.0
C612 C 0.38391 0.52959 0.40486 0.0
C613 C 0.47577 0.51226 0.50012 0.0
C614 C 0.46829 0.51089 0.55308 0.0
C615 C 0.46572 0.51186 0.45151 0.0
C616 C 0.44799 0.50989 0.45481 0.0
C617 C 0.44072 0.50839 0.50787 0.0
C618 C 0.45065 0.50893 0.55591 0.0
C619 C 0.43668 0.50959 0.40424 0.0
C620 C 0.42216 0.51984 0.40395 0.0
C621 C 0.43951 0.49889 0.35775 0.0
C622 C 0.45408 0.48723 0.35591 0.0
C623 C 0.45626 0.47491 0.39755 0.0
C624 C 0.47037 0.46433 0.39672 0.0
C625 C 0.4823 0.46584 0.35416 0.0
C626 C 0.48008 0.47788 0.31216 0.0
C627 C 0.466 0.48852 0.31284 0.0
H628 H 0.49323 0.45767 0.35369 0.0
H629 H 0.35614 0.55973 0.36251 0.0
H630 H 0.03147 0.3929 0.15497 0.0
H631 H 0.03005 0.41536 0.22419 0.0
H632 H 0.98895 0.38954 0.30596 0.0
H633 H 0.98987 0.36725 0.2353 0.0
H634 H 0.98338 0.42298 0.30659 0.0
H635 H 0.03032 0.38719 0.34995 0.0
H636 H 0.05692 0.37249 0.32859 0.0
H637 H 0.08171 0.42024 0.30282 0.0
H638 H 0.05511 0.43524 0.32247 0.0
H639 H 0.98946 0.45528 0.58088 0.0
H640 H 0.98984 0.43798 0.49695 0.0
H641 H 0.02713 0.47116 0.42452 0.0
H642 H 0.02642 0.48891 0.50893 0.0
H643 H 0.03526 0.43633 0.41328 0.0
H644 H 0.98851 0.47216 0.37701 0.0
H645 H 0.96165 0.48661 0.39668 0.0
H646 H 0.93639 0.43864 0.40954 0.0
H647 H 0.9632 0.42386 0.39137 0.0
C648 C 0.02196 0.39202 0.18718 0.0
C649 C 0.01086 0.37804 0.18934 0.0
C650 C 0.02125 0.4049 0.22723 0.0
C651 C 0.00957 0.40415 0.27128 0.0
C652 C 0.99818 0.39046 0.27282 0.0
C653 C 0.99885 0.37756 0.23262 0.0
C654 C 0.0097 0.41721 0.31682 0.0
C655 C 0.9947 0.42575 0.33021 0.0
C656 C 0.02454 0.42131 0.34706 0.0
C657 C 0.04067 0.41233 0.33707 0.0
C658 C 0.04141 0.39456 0.33938 0.0
C659 C 0.05648 0.38617 0.32748 0.0
C660 C 0.07099 0.39542 0.3142 0.0
C661 C 0.07045 0.41309 0.31296 0.0
C662 C 0.05537 0.42154 0.32439 0.0
C663 C 0.99763 0.45905 0.54689 0.0
C664 C 1.00786 0.47357 0.55165 0.0
C665 C 0.99782 0.44911 0.49873 0.0
C666 C 1.00846 0.45318 0.45391 0.0
C667 C 0.01875 0.46771 0.45833 0.0
C668 C 0.01827 0.47795 0.50642 0.0
C669 C 1.00889 0.44194 0.4035 0.0
C670 C 0.02398 0.43368 0.38934 0.0
C671 C 0.99411 0.43805 0.3727 0.0
C672 C 0.97793 0.44689 0.38341 0.0
C673 C 0.97727 0.46467 0.38463 0.0
C674 C 0.96205 0.47293 0.39546 0.0
C675 C 0.94733 0.46355 0.40451 0.0
C676 C 0.94781 0.44589 0.40265 0.0
C677 C 0.96302 0.43756 0.39212 0.0
H678 H 0.93555 0.46996 0.41283 0.0
H679 H 0.08265 0.3889 0.305 0.0
H680 H 0.8949 0.01853 0.1832 0.0
H681 H 0.9167 0.01684 0.1127 0.0
H682 H 0.87961 1.00127 0.99202 0.0
H683 H 0.85801 1.00104 0.06393 0.0
H684 H 0.90512 0.98479 0.97071 0.0
H685 H 0.89965 0.04437 0.01251 0.0
H686 H 0.90038 0.0697 0.0722 0.0
H687 H 0.95259 0.0606 0.10899 0.0
H688 H 0.95206 0.03499 0.05063 0.0
H689 H 0.9449 1.00625 0.71942 0.0
H690 H 0.92762 1.00548 0.80288 0.0
H691 H 0.97207 0.01167 0.904 0.0
H692 H 0.98966 0.01269 0.81912 0.0
H693 H 0.9461 0.03149 0.94196 0.0
H694 H 0.9518 0.97336 0.89308 0.0
H695 H 0.95094 0.94831 0.83225 0.0
H696 H 0.8978 0.95541 0.80679 0.0
H697 H 0.8984 0.98073 0.86643 0.0
C698 C 0.89126 0.01438 0.14213 0.0
C699 C 0.87435 1.00988 0.13037 0.0
C700 C 0.90387 0.01378 0.10101 0.0
C701 C 0.9 1.00936 0.0458 0.0
C702 C 0.88316 1.00487 0.03384 0.0
C703 C 0.87061 1.00499 0.07531 0.0
C704 C 0.91334 1.00909 1.00065 0.0
C705 C 0.91385 0.99519 0.96424 0.0
C706 C 0.92547 0.02222 0.99274 0.0
C707 C 0.92575 0.03764 0.02772 0.0
C708 C 0.91125 0.04769 0.03369 0.0
C709 C 0.91162 0.0621 0.06733 0.0
C710 C 0.92651 0.06672 0.0945 0.0
C711 C 0.94105 0.05697 0.08808 0.0
C712 C 0.94071 0.04249 0.05481 0.0
C713 C 0.95114 1.00732 0.75931 0.0
C714 C 0.96878 1.00932 0.76226 0.0
C715 C 0.94116 1.00683 0.80732 0.0
C716 C 0.94842 1.00823 0.86035 0.0
C717 C 0.96608 0.01042 0.86377 0.0
C718 C 0.97618 0.01086 0.81523 0.0
C719 C 0.93731 1.00753 0.91125 0.0
C720 C 0.93732 0.02114 0.94876 0.0
C721 C 0.92553 0.99423 0.92004 0.0
C722 C 0.92518 0.97902 0.88398 0.0
C723 C 0.93996 0.96967 0.87413 0.0
C724 C 0.93952 0.95542 0.83986 0.0
C725 C 0.92433 0.95029 0.81561 0.0
C726 C 0.90956 0.95941 0.82554 0.0
C727 C 0.90994 0.97371 0.85957 0.0
H728 H 0.92401 0.93922 0.78919 0.0
H729 H 0.92678 0.0779 0.12042 0.0
H730 H 0.52486 0.86555 0.078 0.0
H731 H 0.5261 0.88739 0.00577 0.0
H732 H 0.48999 0.91728 0.09658 0.0
H733 H 0.48825 0.89531 0.16778 0.0
H734 H 0.48161 0.91774 0.99259 0.0
H735 H 0.5332 0.93021 0.08612 0.0
H736 H 0.56113 0.92521 0.12824 0.0
H737 H 0.57962 0.90612 0.97269 0.0
H738 H 0.55179 0.91101 0.9297 0.0
H739 H 0.49513 0.99088 0.81185 0.0
H740 H 0.49462 0.97285 0.89597 0.0
H741 H 0.52279 0.93458 0.80885 0.0
H742 H 0.5228 0.95216 0.72504 0.0
H743 H 0.53519 0.94072 0.91693 0.0
H744 H 0.48246 0.92776 0.82591 0.0
H745 H 0.45426 0.93304 0.78626 0.0
H746 H 0.43775 0.95397 0.94168 0.0
H747 H 0.46591 0.9489 0.98207 0.0
C748 C 0.51708 0.8767 0.08259 0.0
C749 C 0.50647 0.87852 0.12932 0.0
C750 C 0.51798 0.88937 0.0414 0.0
C751 C 0.50832 0.90427 0.0456 0.0
C752 C 0.49767 0.90605 0.09202 0.0
C753 C 0.49678 0.89343 0.13318 0.0
C754 C 0.50867 0.91755 1.00051 0.0
C755 C 0.49336 0.92298 0.97697 0.0
C756 C 0.52389 0.92439 0.97889 0.0
C757 C 0.5404 0.92081 0.00493 0.0
C758 C 0.54319 0.92478 0.06111 0.0
C759 C 0.55901 0.92204 0.08505 0.0
C760 C 0.57213 0.9153 0.0532 0.0
C761 C 0.56945 0.91132 0.99732 0.0
C762 C 0.55367 0.91411 0.97311 0.0
C763 C 0.50144 0.97874 0.81111 0.0
C764 C 0.5092 0.97304 0.7619 0.0
C765 C 0.501 0.96835 0.85901 0.0
C766 C 0.50863 0.95223 0.85898 0.0
C767 C 0.51681 0.94688 0.8103 0.0
C768 C 0.51686 0.957 0.76233 0.0
C769 C 0.50817 0.94074 0.90891 0.0
C770 C 0.52346 0.93563 0.93319 0.0
C771 C 0.49292 0.93434 0.9316 0.0
C772 C 0.47634 0.93824 0.90662 0.0
C773 C 0.47289 0.93374 0.8513 0.0
C774 C 0.45689 0.93661 0.82881 0.0
C775 C 0.44424 0.94391 0.86135 0.0
C776 C 0.44757 0.94837 0.91646 0.0
C777 C 0.46354 0.9455 0.93916 0.0
H778 H 0.43185 0.94605 0.84392 0.0
H779 H 0.58438 0.91322 0.07179 0.0
H780 H 0.63691 0.49097 0.14022 0.0
H781 H 0.61516 0.49111 0.0676 0.0
H782 H 0.62341 0.54447 0.04166 0.0
H783 H 0.64547 0.54424 0.11389 0.0
H784 H 0.58824 0.5352 0.03806 0.0
H785 H 0.64071 0.51831 0.95556 0.0
H786 H 0.66657 0.50108 0.95261 0.0
H787 H 0.63673 0.45596 0.93555 0.0
H788 H 0.61065 0.47292 0.93971 0.0
H789 H 0.54905 0.5416 0.7706 0.0
H790 H 0.56793 0.54278 0.8513 0.0
H791 H 0.56808 0.48824 0.85949 0.0
H792 H 0.54979 0.48717 0.7772 0.0
H793 H 0.59864 0.4985 0.87443 0.0
H794 H 0.5459 0.51521 0.95799 0.0
H795 H 0.52007 0.5326 0.95808 0.0
H796 H 0.55022 0.57762 0.96859 0.0
H797 H 0.57609 0.56061 0.97007 0.0
C798 C 0.63407 0.50273 0.11907 0.0
C799 C 0.64307 0.51754 0.13233 0.0
C800 C 0.62158 0.50283 0.07761 0.0
C801 C 0.61758 0.51779 0.04862 0.0
C802 C 0.62619 0.53275 0.06316 0.0
C803 C 0.63891 0.53259 0.10409 0.0
C804 C 0.60537 0.51744 1.00062 0.0
C805 C 0.5906 0.52727 1.00215 0.0
C806 C 0.60814 0.50697 0.95371 0.0
C807 C 0.62375 0.49685 0.94839 0.0
C808 C 0.63967 0.5047 0.95137 0.0
C809 C 0.65436 0.49499 0.94958 0.0
C810 C 0.6533 0.47742 0.94402 0.0
C811 C 0.63753 0.46956 0.93994 0.0
C812 C 0.62279 0.47921 0.942 0.0
C813 C 0.5528 0.5299 0.79059 0.0
C814 C 0.54754 0.51432 0.76865 0.0
C815 C 0.56365 0.53054 0.83684 0.0
C816 C 0.56937 0.51559 0.86288 0.0
C817 C 0.56392 0.5 0.8409 0.0
C818 C 0.55325 0.49938 0.79424 0.0
C819 C 0.58134 0.51614 0.91177 0.0
C820 C 0.59614 0.50635 0.91043 0.0
C821 C 0.57852 0.52656 0.95892 0.0
C822 C 0.56291 0.53665 0.96418 0.0
C823 C 0.54697 0.52883 0.96124 0.0
C824 C 0.5323 0.53864 0.96114 0.0
C825 C 0.53345 0.55625 0.96412 0.0
C826 C 0.54926 0.56404 0.96766 0.0
C827 C 0.56393 0.55432 0.96836 0.0
H828 H 0.52212 0.56387 0.96329 0.0
H829 H 0.66469 0.46991 0.94278 0.0
H830 H 0.03384 0.63707 0.14999 0.0
H831 H 0.03287 0.61479 0.07947 0.0
H832 H 0.98446 0.63292 0.02414 0.0
H833 H 0.9854 0.65534 0.09486 0.0
H834 H 0.9861 0.59712 0.02617 0.0
H835 H 0.01878 0.6438 0.95637 0.0
H836 H 0.04157 0.66496 0.96273 0.0
H837 H 0.07847 0.62528 0.96701 0.0
H838 H 0.05583 0.60384 0.96222 0.0
H839 H 0.98375 0.56256 0.75172 0.0
H840 H 0.98368 0.58062 0.83464 0.0
H841 H 0.03371 0.56332 0.87586 0.0
H842 H 0.03363 0.54508 0.79294 0.0
H843 H 0.03178 0.59748 0.8848 0.0
H844 H 1.00001 0.55075 0.94983 0.0
H845 H 0.97769 0.5291 0.9442 0.0
H846 H 0.9399 0.56795 0.95166 0.0
H847 H 0.96196 0.58977 0.95526 0.0
C848 C 0.02292 0.63629 0.12306 0.0
C849 C 0.00979 0.64818 0.12782 0.0
C850 C 0.02238 0.6235 0.08263 0.0
C851 C 1.00865 0.62215 0.04584 0.0
C852 C 0.99523 0.63365 0.05172 0.0
C853 C 0.99587 0.64661 0.0918 0.0
C854 C 1.00887 0.60954 0.99906 0.0
C855 C 0.99599 0.59734 0.99496 0.0
C856 C 0.02197 0.60938 0.95883 0.0
C857 C 0.03562 0.62222 0.95951 0.0
C858 C 0.03175 0.63958 0.95901 0.0
C859 C 0.04464 0.65163 0.96242 0.0
C860 C 0.06146 0.64647 0.96543 0.0
C861 C 0.06543 0.62925 0.96482 0.0
C862 C 0.05258 0.61714 0.96181 0.0
C863 C 0.99454 0.56229 0.77934 0.0
C864 C 1.00849 0.55207 0.76672 0.0
C865 C 0.99456 0.5727 0.82665 0.0
C866 C 1.00867 0.57338 0.86215 0.0
C867 C 0.02263 0.56306 0.84955 0.0
C868 C 0.0225 0.55246 0.80255 0.0
C869 C 0.00893 0.58512 0.91145 0.0
C870 C 0.02191 0.59718 0.91606 0.0
C871 C 0.99599 0.58505 0.95231 0.0
C872 C 0.98264 0.57191 0.95221 0.0
C873 C 0.98693 0.55466 0.94981 0.0
C874 C 0.97432 0.54234 0.94686 0.0
C875 C 0.95739 0.54708 0.9473 0.0
C876 C 0.953 0.56418 0.95098 0.0
C877 C 0.96556 0.57657 0.95341 0.0
H878 H 0.94776 0.53741 0.94494 0.0
H879 H 0.07142 0.65581 0.9681 0.0
H880 H 0.99333 0.21419 0.19107 0.0
H881 H 0.98596 0.18967 0.2476 0.0
H882 H 0.01762 0.20841 0.38018 0.0
H883 H 0.02542 0.2329 0.32228 0.0
H884 H 0.02579 0.17747 0.35126 0.0
H885 H 0.97341 0.20481 0.39743 0.0
H886 H 0.94777 0.22093 0.37384 0.0
H887 H 0.93143 0.18084 0.2662 0.0
H888 H 0.95701 0.16451 0.289 0.0
H889 H 0.00955 0.10247 0.50186 0.0
H890 H 0.01318 0.13146 0.47131 0.0
H891 H 0.9747 0.12417 0.34615 0.0
H892 H 0.97081 0.09516 0.37787 0.0
H893 H 0.96945 0.15196 0.38456 0.0
H894 H 0.02321 0.12611 0.32852 0.0
H895 H 0.04914 0.11011 0.34994 0.0
H896 H 0.06358 0.14782 0.46922 0.0
H897 H 0.03765 0.16388 0.44909 0.0
C898 C 0.99848 0.21313 0.23266 0.0
C899 C 0.01006 0.22507 0.25259 0.0
C900 C 0.99409 0.1993 0.26516 0.0
C901 C 1.00109 0.19739 0.31827 0.0
C902 C 0.01202 0.20983 0.33937 0.0
C903 C 0.01646 0.22371 0.3066 0.0
C904 C 0.99892 0.18125 0.34772 0.0
C905 C 0.01348 0.17197 0.35966 0.0
C906 C 0.98286 0.17401 0.35685 0.0
C907 C 0.9671 0.18345 0.34501 0.0
C908 C 0.96432 0.19943 0.36881 0.0
C909 C 0.94981 0.2086 0.35556 0.0
C910 C 0.93797 0.20191 0.31856 0.0
C911 C 0.94058 0.18598 0.29499 0.0
C912 C 0.95505 0.17673 0.30825 0.0
C913 C 1.002 0.10704 0.46748 0.0
C914 C 0.98997 0.09663 0.44197 0.0
C915 C 1.00416 0.12361 0.44954 0.0
C916 C 0.99439 0.13009 0.40572 0.0
C917 C 0.9823 0.11962 0.38044 0.0
C918 C 0.98005 0.10305 0.39858 0.0
C919 C 0.99641 0.1478 0.38669 0.0
C920 C 0.9818 0.15741 0.37668 0.0
C921 C 0.01248 0.1553 0.37836 0.0
C922 C 0.02849 0.14611 0.38754 0.0
C923 C 0.03197 0.13099 0.35914 0.0
C924 C 0.04662 0.12189 0.3712 0.0
C925 C 0.05798 0.12793 0.41097 0.0
C926 C 0.05478 0.14315 0.43845 0.0
C927 C 0.04013 0.15226 0.4267 0.0
H928 H 0.06927 0.12083 0.42047 0.0
H929 H 0.92678 0.20907 0.30816 0.0
H930 H 0.30142 0.99755 0.21427 0.0
H931 H 0.32486 0.98979 0.2749 0.0
H932 H 0.31812 0.03614 0.3672 0.0
H933 H 0.29477 0.04406 0.30517 0.0
H934 H 0.34958 0.03248 0.33177 0.0
H935 H 0.31019 0.99653 0.43032 0.0
H936 H 0.28782 0.97485 0.43733 0.0
H937 H 0.31988 0.93884 0.35576 0.0
H938 H 0.34239 0.96035 0.34808 0.0
H939 H 0.41411 0.01467 0.52174 0.0
H940 H 0.38544 0.01898 0.48705 0.0
H941 H 0.39084 0.97582 0.37902 0.0
H942 H 0.41957 0.97163 0.41235 0.0
H943 H 0.3593 0.97773 0.42777 0.0
H944 H 0.39805 0.01244 0.32685 0.0
H945 H 0.42067 0.03351 0.31332 0.0
H946 H 0.39007 0.07153 0.39088 0.0
H947 H 0.36738 0.05058 0.40591 0.0
C948 C 0.30478 1.00583 0.2484 0.0
C949 C 0.29648 0.02127 0.25595 0.0
C950 C 0.31802 1.00137 0.28313 0.0
C951 C 0.32299 0.01229 0.32597 0.0
C952 C 0.31428 0.02751 0.33462 0.0
C953 C 0.30101 0.032 0.29962 0.0
C954 C 0.33854 1.00873 0.357 0.0
C955 C 0.35155 0.02072 0.35418 0.0
C956 C 0.34132 0.99301 0.38353 0.0
C957 C 0.32789 0.98004 0.38844 0.0
C958 C 0.31241 0.984 0.41368 0.0
C959 C 0.29973 0.97175 0.41785 0.0
C960 C 0.30242 0.95549 0.39694 0.0
C961 C 0.31782 0.95143 0.37199 0.0
C962 C 0.33056 0.96363 0.36788 0.0
C963 C 0.40911 1.00601 0.49102 0.0
C964 C 0.41909 0.99291 0.4693 0.0
C965 C 0.39277 1.00844 0.47152 0.0
C966 C 0.38626 0.9978 0.43023 0.0
C967 C 0.39575 0.9841 0.41104 0.0
C968 C 0.41211 0.9817 0.43028 0.0
C969 C 0.37007 1.00171 0.40392 0.0
C970 C 0.35714 0.98965 0.40653 0.0
C971 C 0.3674 0.01732 0.37667 0.0
C972 C 0.38112 0.02988 0.36829 0.0
C973 C 0.39623 0.02524 0.34169 0.0
C974 C 0.40905 0.03717 0.33362 0.0
C975 C 0.40684 0.05383 0.35143 0.0
C976 C 0.39179 0.0586 0.37727 0.0
C977 C 0.37895 0.0467 0.38562 0.0
H978 H 0.41677 0.06306 0.34504 0.0
H979 H 0.29258 0.94602 0.40014 0.0
H980 H 0.48622 0.31775 0.21946 0.0
H981 H 0.49261 0.34164 0.28077 0.0
H982 H 0.53464 0.31414 0.35005 0.0
H983 H 0.52801 0.29005 0.28975 0.0
H984 H 0.51726 0.33572 0.4286 0.0
H985 H 0.54407 0.3376 0.24831 0.0
H986 H 0.54538 0.33611 0.14597 0.0
H987 H 0.50963 0.37669 0.13356 0.0
H988 H 0.50794 0.37825 0.23585 0.0
H989 H 0.55366 0.41621 0.50743 0.0
H990 H 0.55196 0.38759 0.46796 0.0
H991 H 0.50891 0.40275 0.37002 0.0
H992 H 0.5109 0.43123 0.40739 0.0
H993 H 0.53216 0.38521 0.31045 0.0
H994 H 0.5052 0.38308 0.49187 0.0
H995 H 0.50955 0.38971 0.59033 0.0
H996 H 0.54641 0.35016 0.60291 0.0
H997 H 0.5434 0.34434 0.50255 0.0
C998 C 0.4966 0.31677 0.24852 0.0
C999 C 0.50682 0.30237 0.24972 0.0
C1000 C 0.50015 0.33026 0.28364 0.0
C1001 C 0.51418 0.32956 0.31912 0.0
C1002 C 0.52373 0.31475 0.323 0.0
C1003 C 0.52003 0.30115 0.28839 0.0
C1004 C 0.52031 0.34516 0.34488 0.0
C1005 C 0.5207 0.34652 0.40301 0.0
C1006 C 0.525 0.35905 0.31115 0.0
C1007 C 0.52581 0.35796 0.24965 0.0
C1008 C 0.53638 0.3461 0.22372 0.0
C1009 C 0.53721 0.34526 0.16574 0.0
C1010 C 0.52758 0.35628 0.13328 0.0
C1011 C 0.51708 0.36815 0.15874 0.0
C1012 C 0.51619 0.36903 0.2167 0.0
C1013 C 0.54394 0.41335 0.47724 0.0
C1014 C 0.53229 0.42575 0.46069 0.0
C1015 C 0.54298 0.39711 0.45491 0.0
C1016 C 0.5303 0.39321 0.41639 0.0
C1017 C 0.51879 0.40562 0.39971 0.0
C1018 C 0.51979 0.42177 0.42163 0.0
C1019 C 0.52834 0.37612 0.39391 0.0
C1020 C 0.52889 0.37439 0.33619 0.0
C1021 C 0.52452 0.36203 0.42809 0.0
C1022 C 0.52429 0.36349 0.48952 0.0
C1023 C 0.51425 0.37579 0.51556 0.0
C1024 C 0.51664 0.37956 0.57163 0.0
C1025 C 0.52832 0.37043 0.60304 0.0
C1026 C 0.5375 0.35736 0.57839 0.0
C1027 C 0.53559 0.35393 0.52171 0.0
H1028 H 0.53012 0.37335 0.64658 0.0
H1029 H 0.52828 0.35565 0.0884 0.0
H1030 H 0.23119 0.52662 0.28019 0.0
H1031 H 0.20683 0.53352 0.33871 0.0
H1032 H 0.18496 0.4847 0.30232 0.0
H1033 H 0.20909 0.47796 0.24282 0.0
H1034 H 0.16535 0.51168 0.27041 0.0
H1035 H 0.19759 0.49394 0.43376 0.0
H1036 H 0.2221 0.49531 0.49677 0.0
H1037 H 0.2129 0.54814 0.52482 0.0
H1038 H 0.18845 0.5471 0.46152 0.0
H1039 H 0.09176 0.50641 0.42138 0.0
H1040 H 0.12016 0.50186 0.38744 0.0
H1041 H 0.13564 0.55016 0.45387 0.0
H1042 H 0.10723 0.55433 0.49202 0.0
H1043 H 0.15921 0.52658 0.46921 0.0
H1044 H 0.12664 0.54557 0.31176 0.0
H1045 H 0.10211 0.54519 0.2487 0.0
H1046 H 0.11253 0.4935 0.20636 0.0
H1047 H 0.13705 0.49354 0.26941 0.0
C1048 C 0.22138 0.51722 0.28627 0.0
C1049 C 0.2217 0.50187 0.25703 0.0
C1050 C 0.20757 0.52114 0.31958 0.0
C1051 C 0.19419 0.50961 0.32427 0.0
C1052 C 0.19521 0.49373 0.29868 0.0
C1053 C 0.20889 0.4899 0.26492 0.0
C1054 C 0.17813 0.51486 0.34876 0.0
C1055 C 0.16398 0.51498 0.31397 0.0
C1056 C 0.17664 0.51988 0.40471 0.0
C1057 C 0.19131 0.52046 0.44268 0.0
C1058 C 0.20088 0.50587 0.45309 0.0
C1059 C 0.21474 0.50658 0.48891 0.0
C1060 C 0.21908 0.52181 0.51468 0.0
C1061 C 0.20955 0.53636 0.5048 0.0
C1062 C 0.19568 0.5357 0.46903 0.0
C1063 C 0.10124 0.51594 0.43001 0.0
C1064 C 0.09724 0.53077 0.45924 0.0
C1065 C 0.11741 0.51343 0.40972 0.0
C1066 C 0.12976 0.52592 0.41665 0.0
C1067 C 0.1261 0.54052 0.44742 0.0
C1068 C 0.10989 0.54293 0.46871 0.0
C1069 C 0.14644 0.52358 0.39117 0.0
C1070 C 0.1607 0.52398 0.42545 0.0
C1071 C 0.14814 0.51947 0.33429 0.0
C1072 C 0.13363 0.51955 0.29542 0.0
C1073 C 0.12367 0.53412 0.28907 0.0
C1074 C 0.10977 0.53396 0.25332 0.0
C1075 C 0.10575 0.51932 0.22359 0.0
C1076 C 0.11567 0.50483 0.22935 0.0
C1077 C 0.12959 0.50493 0.26494 0.0
H1078 H 0.09496 0.51921 0.19606 0.0
H1079 H 0.22982 0.52234 0.54238 0.0
H1080 H 0.03926 0.79456 0.04015 0.0
H1081 H 0.04267 0.81973 0.98141 0.0
H1082 H 0.98965 0.83082 1.0001 0.0
H1083 H 0.98628 0.8058 0.05925 0.0
H1084 H 1.00199 0.83913 0.89633 0.0
H1085 H 0.01262 0.84809 0.08693 0.0
H1086 H 0.02478 0.84379 0.18012 0.0
H1087 H 0.07441 0.85331 0.11527 0.0
H1088 H 0.06255 0.85739 0.02131 0.0
H1089 H 1.00266 0.93064 0.89516 0.0
H1090 H 0.99938 0.90156 0.92698 0.0
H1091 H 0.04958 0.88996 0.86964 0.0
H1092 H 0.0527 0.91865 0.83386 0.0
H1093 H 0.03952 0.88106 0.98748 0.0
H1094 H 0.01709 0.88378 0.79887 0.0
H1095 H 0.99591 0.89425 0.73297 0.0
H1096 H 0.95739 0.86564 0.81525 0.0
H1097 H 0.97757 0.85695 0.88703 0.0
C1098 C 0.02828 0.80208 0.0298 0.0
C1099 C 0.01254 0.79853 0.05378 0.0
C1100 C 0.03024 0.81639 0.9967 0.0
C1101 C 0.01643 0.82705 0.9873 0.0
C1102 C 1.00038 0.82261 0.00704 0.0
C1103 C 0.99847 0.80844 0.04067 0.0
C1104 C 0.01906 0.8439 0.96377 0.0
C1105 C 0.01012 0.84842 0.91595 0.0
C1106 C 0.0294 0.85586 0.99099 0.0
C1107 C 0.03674 0.85271 0.04685 0.0
C1108 C 0.02616 0.84897 0.0923 0.0
C1109 C 0.03299 0.84665 0.14533 0.0
C1110 C 0.05037 0.84819 0.15357 0.0
C1111 C 0.06095 0.85205 0.10876 0.0
C1112 C 0.05419 0.85435 0.05559 0.0
C1113 C 0.01291 0.92189 0.88801 0.0
C1114 C 0.02796 0.92707 0.86172 0.0
C1115 C 0.01105 0.90536 0.90697 0.0
C1116 C 0.02425 0.89385 0.90039 0.0
C1117 C 0.03932 0.89886 0.87493 0.0
C1118 C 0.04108 0.91528 0.85488 0.0
C1119 C 0.02236 0.87644 0.91978 0.0
C1120 C 0.03153 0.87179 0.96707 0.0
C1121 C 0.01102 0.86489 0.89458 0.0
C1122 C 0.99903 0.86987 0.84958 0.0
C1123 C 1.00406 0.88008 0.80444 0.0
C1124 C 0.9922 0.88572 0.76574 0.0
C1125 C 0.97546 0.88038 0.76921 0.0
C1126 C 0.9704 0.86974 0.81241 0.0
C1127 C 0.98201 0.86469 0.85277 0.0
H1128 H 0.96641 0.88457 0.73852 0.0
H1129 H 0.05562 0.84647 0.1947 0.0
H1130 H 0.70072 0.99921 0.12968 0.0
H1131 H 0.67684 1.00165 0.06728 0.0
H1132 H 0.71003 0.01817 0.93519 0.0
H1133 H 0.73373 0.01761 0.9993 0.0
H1134 H 0.68607 0.03848 0.94185 0.0
H1135 H 0.68598 0.97726 0.93085 0.0
H1136 H 0.68711 0.94829 0.96922 0.0
H1137 H 0.64351 0.95846 0.06987 0.0
H1138 H 0.64211 0.98743 0.03194 0.0
H1139 H 0.60976 0.04121 0.77331 0.0
H1140 H 0.6385 0.03551 0.80757 0.0
H1141 H 0.61804 0.02402 0.9699 0.0
H1142 H 0.58957 0.0293 0.93528 0.0
H1143 H 0.63772 0.99882 0.92861 0.0
H1144 H 0.63893 0.05967 0.94853 0.0
H1145 H 0.638 0.08944 0.91798 0.0
H1146 H 0.67972 0.08075 0.80769 0.0
H1147 H 0.68071 0.05083 0.83691 0.0
C1148 C 0.70293 1.00345 0.08745 0.0
C1149 C 0.71906 1.00845 0.06975 0.0
C1150 C 0.68932 1.0044 0.05126 0.0
C1151 C 0.69169 1.00974 0.99611 0.0
C1152 C 0.70795 0.01389 0.97748 0.0
C1153 C 0.7215 0.01344 0.01413 0.0
C1154 C 0.67696 0.01335 0.96077 0.0
C1155 C 0.67571 0.02959 0.93743 0.0
C1156 C 0.66327 1.00195 0.95637 0.0
C1157 C 0.66397 0.98447 0.97858 0.0
C1158 C 0.67666 0.9733 0.9612 0.0
C1159 C 0.67732 0.95688 0.98281 0.0
C1160 C 0.66539 0.95154 0.02197 0.0
C1161 C 0.65271 0.96258 0.03942 0.0
C1162 C 0.65193 0.97897 0.01767 0.0
C1163 C 0.61161 0.03767 0.81627 0.0
C1164 C 0.59777 0.03553 0.8519 0.0
C1165 C 0.62787 0.03449 0.83579 0.0
C1166 C 0.63022 0.02927 0.89102 0.0
C1167 C 0.61637 0.02792 0.92703 0.0
C1168 C 0.60022 0.03098 0.90749 0.0
C1169 C 0.64683 0.02399 0.91117 0.0
C1170 C 0.64837 1.00744 0.93144 0.0
C1171 C 0.66071 0.03514 0.9131 0.0
C1172 C 0.65968 0.05295 0.8941 0.0
C1173 C 0.64772 0.06403 0.91708 0.0
C1174 C 0.64723 0.08096 0.90018 0.0
C1175 C 0.65874 0.08697 0.86071 0.0
C1176 C 0.67076 0.07607 0.83806 0.0
C1177 C 0.67128 0.05913 0.85472 0.0
H1178 H 0.65838 0.10009 0.84784 0.0
H1179 H 0.66597 0.93884 0.03878 0.0
H1180 H 0.50081 0.73895 0.99406 0.0
H1181 H 0.50217 0.7152 0.93013 0.0
H1182 H 0.50628 0.6809 0.06971 0.0
H1183 H 0.50759 0.7046 0.13272 0.0
H1184 H 0.52277 0.66874 0.9968 0.0
H1185 H 0.46714 0.69517 0.99368 0.0
H1186 H 0.44755 0.71872 0.97505 0.0
H1187 H 0.46187 0.71851 0.80278 0.0
H1188 H 0.48182 0.69522 0.82071 0.0
H1189 H 0.47712 0.59572 0.93309 0.0
H1190 H 0.48211 0.6247 0.96499 0.0
H1191 H 0.49803 0.63905 0.79977 0.0
H1192 H 0.49306 0.60987 0.76776 0.0
H1193 H 0.47542 0.66303 0.86341 0.0
H1194 H 0.52828 0.62979 0.88392 0.0
H1195 H 0.54521 0.60609 0.92065 0.0
H1196 H 0.5285 0.61735 0.08641 0.0
H1197 H 0.51141 0.64096 0.05067 0.0
C1198 C 0.50254 0.72638 0.01106 0.0
C1199 C 0.50375 0.72365 0.06882 0.0
C1200 C 0.50301 0.71278 0.97437 0.0
C1201 C 0.50373 0.69621 0.99503 0.0
C1202 C 0.50556 0.69355 0.05248 0.0
C1203 C 0.5059 0.70713 0.08882 0.0
C1204 C 0.50172 0.6814 0.95832 0.0
C1205 C 0.51234 0.66757 0.96783 0.0
C1206 C 0.48837 0.6799 0.91936 0.0
C1207 C 0.47614 0.69366 0.90867 0.0
C1208 C 0.46617 0.70022 0.95191 0.0
C1209 C 0.45503 0.71354 0.9415 0.0
C1210 C 0.45352 0.72015 0.88781 0.0
C1211 C 0.4631 0.71343 0.84439 0.0
C1212 C 0.47435 0.7002 0.85466 0.0
C1213 C 0.48133 0.6052 0.90353 0.0
C1214 C 0.48479 0.60084 0.84834 0.0
C1215 C 0.48423 0.62161 0.92166 0.0
C1216 C 0.4906 0.63376 0.88464 0.0
C1217 C 0.49319 0.62968 0.82864 0.0
C1218 C 0.49043 0.61315 0.81057 0.0
C1219 C 0.49563 0.65034 0.90589 0.0
C1220 C 0.48587 0.66445 0.89216 0.0
C1221 C 0.50897 0.65187 0.94423 0.0
C1222 C 0.51865 0.63714 0.96463 0.0
C1223 C 0.52812 0.62709 0.92808 0.0
C1224 C 0.53776 0.6137 0.9488 0.0
C1225 C 0.53799 0.61031 0.00593 0.0
C1226 C 0.52837 0.62006 0.04229 0.0
C1227 C 0.51874 0.63344 0.02184 0.0
H1228 H 0.54572 0.60026 0.02249 0.0
H1229 H 0.44489 0.73046 0.87982 0.0
H1230 H 0.78389 0.51469 0.99399 0.0
H1231 H 0.80787 0.51466 0.93158 0.0
H1232 H 0.8414 0.51748 0.07313 0.0
H1233 H 0.81769 0.52123 0.13388 0.0
H1234 H 0.85605 0.53096 1.00242 0.0
H1235 H 0.82292 0.4776 0.99012 0.0
H1236 H 0.79754 0.46131 0.96383 0.0
H1237 H 0.80216 0.47897 0.79549 0.0
H1238 H 0.82739 0.49557 0.82108 0.0
H1239 H 0.92738 0.48407 0.93855 0.0
H1240 H 0.89898 0.48936 0.97437 0.0
H1241 H 0.88127 0.49826 0.80735 0.0
H1242 H 0.9099 0.49331 0.77144 0.0
H1243 H 0.8577 0.48324 0.86918 0.0
H1244 H 0.89624 0.53142 0.89596 0.0
H1245 H 0.92029 0.54699 0.93289 0.0
H1246 H 0.9067 0.53191 0.09891 0.0
H1247 H 0.88175 0.51694 0.06202 0.0
C1248 C 0.79634 0.51602 0.01181 0.0
C1249 C 0.79877 0.5175 0.06969 0.0
C1250 C 0.81012 0.51553 0.97585 0.0
C1251 C 0.82654 0.51516 0.9974 0.0
C1252 C 0.82892 0.51749 0.05481 0.0
C1253 C 0.81524 0.51916 0.09018 0.0
C1254 C 0.84142 0.51147 0.96222 0.0
C1255 C 0.85633 0.52025 0.97425 0.0
C1256 C 0.84184 0.49812 0.92281 0.0
C1257 C 0.82684 0.48799 0.90766 0.0
C1258 C 0.81846 0.47804 0.94759 0.0
C1259 C 0.8041 0.46878 0.93283 0.0
C1260 C 0.7982 0.46916 0.87808 0.0
C1261 C 0.80669 0.47874 0.83792 0.0
C1262 C 0.82099 0.4881 0.85254 0.0
C1263 C 0.91729 0.48688 0.90962 0.0
C1264 C 0.92057 0.4885 0.8527 0.0
C1265 C 0.9012 0.49 0.92996 0.0
C1266 C 0.88834 0.49497 0.89347 0.0
C1267 C 0.89128 0.49505 0.83598 0.0
C1268 C 0.90748 0.49214 0.81559 0.0
C1269 C 0.8723 0.50134 0.91554 0.0
C1270 C 0.85726 0.49361 0.89867 0.0
C1271 C 0.87182 0.51481 0.95403 0.0
C1272 C 0.88714 0.52317 0.97597 0.0
C1273 C 0.8983 0.53153 0.94013 0.0
C1274 C 0.91214 0.54026 0.96129 0.0
C1275 C 0.91526 0.54037 0.01848 0.0
C1276 C 0.90433 0.53184 0.05461 0.0
C1277 C 0.89023 0.52337 0.03354 0.0
H1278 H 0.92608 0.54708 0.0348 0.0
H1279 H 0.78708 0.46199 0.86674 0.0
H1280 H 0.99702 0.20138 0.87164 0.0
H1281 H 0.99628 0.17234 0.83698 0.0
H1282 H 0.02918 0.18636 0.70171 0.0
H1283 H 0.02957 0.21574 0.73548 0.0
H1284 H 1.00196 0.16274 0.67436 0.0
H1285 H 0.04901 0.16598 0.80293 0.0
H1286 H 0.05666 0.18144 0.88823 0.0
H1287 H 0.01633 0.15681 0.97641 0.0
H1288 H 1.00842 0.14127 0.89133 0.0
H1289 H 0.01751 0.0754 0.60586 0.0
H1290 H 0.01872 0.10592 0.62297 0.0
H1291 H 1.00821 0.0969 0.7968 0.0
H1292 H 1.00866 0.06645 0.78014 0.0
H1293 H 0.02632 0.12018 0.80238 0.0
H1294 H 0.98071 0.11359 0.67193 0.0
H1295 H 0.96125 0.11252 0.59213 0.0
H1296 H 0.9897 0.15152 0.51009 0.0
H1297 H 0.01063 0.15106 0.58501 0.0
C1298 C 1.00411 0.19833 0.8345 0.0
C1299 C 0.01362 0.21088 0.80709 0.0
C1300 C 1.00365 0.18169 0.81459 0.0
C1301 C 0.013 0.17697 0.76745 0.0
C1302 C 0.02194 0.1896 0.73836 0.0
C1303 C 0.02219 0.2064 0.75785 0.0
C1304 C 0.01429 0.15866 0.75144 0.0
C1305 C 1.00764 0.15324 0.701 0.0
C1306 C 0.02115 0.14649 0.78779 0.0
C1307 C 0.02839 0.15217 0.84125 0.0
C1308 C 0.04217 0.16343 0.84108 0.0
C1309 C 0.0464 0.17238 0.88913 0.0
C1310 C 0.03704 0.17004 0.93781 0.0
C1311 C 0.02367 0.15847 0.9388 0.0
C1312 C 0.01939 0.14947 0.89079 0.0
C1313 C 0.01555 0.07997 0.64781 0.0
C1314 C 0.01305 0.06834 0.69161 0.0
C1315 C 0.01602 0.0976 0.65764 0.0
C1316 C 0.01325 0.10432 0.71132 0.0
C1317 C 0.01061 0.09254 0.7549 0.0
C1318 C 0.01077 0.07493 0.74539 0.0
C1319 C 0.01358 0.12332 0.72304 0.0
C1320 C 0.02078 0.12914 0.77361 0.0
C1321 C 1.00696 0.13592 0.68606 0.0
C1322 C 0.99737 0.13221 0.63445 0.0
C1323 C 0.98338 0.12125 0.63558 0.0
C1324 C 0.97208 0.12088 0.5909 0.0
C1325 C 0.97427 0.13187 0.54587 0.0
C1326 C 0.98809 0.14282 0.54451 0.0
C1327 C 0.99997 0.14247 0.58718 0.0
H1328 H 0.96526 0.13194 0.51211 0.0
H1329 H 0.0401 0.17726 0.97465 0.0
H1330 H 0.3058 0.03189 0.7166 0.0
H1331 H 0.33494 0.03009 0.68129 0.0
H1332 H 0.35011 1.00582 0.83386 0.0
H1333 H 0.32141 1.0077 0.86908 0.0
H1334 H 0.36843 0.03287 0.81329 0.0
H1335 H 0.3485 0.9856 0.70094 0.0
H1336 H 0.33116 0.97259 0.62734 0.0
H1337 H 0.35147 1.00752 0.50773 0.0
H1338 H 0.36902 0.02063 0.58035 0.0
H1339 H 0.45566 0.01674 0.7829 0.0
H1340 H 0.42525 0.01655 0.79841 0.0
H1341 H 0.41707 0.02336 0.62225 0.0
H1342 H 0.44745 0.02162 0.60661 0.0
H1343 H 0.39356 1.0072 0.6452 0.0
H1344 H 0.41033 0.05656 0.74962 0.0
H1345 H 0.42181 0.07605 0.8203 0.0
H1346 H 0.40367 0.04345 0.95047 0.0
H1347 H 0.39235 0.0237 0.88068 0.0
C1348 C 0.31533 0.02597 0.74229 0.0
C1349 C 0.31123 0.02026 0.79639 0.0
C1350 C 0.33201 0.02485 0.72182 0.0
C1351 C 0.34491 0.01779 0.75475 0.0
C1352 C 0.34054 0.0114 0.80749 0.0
C1353 C 0.32406 0.01264 0.82797 0.0
C1354 C 0.36329 0.01889 0.73918 0.0
C1355 C 0.374 0.02696 0.77694 0.0
C1356 C 0.3705 0.01224 0.68989 0.0
C1357 C 0.35998 1.0042 0.64627 0.0
C1358 C 0.34922 0.99055 0.65898 0.0
C1359 C 0.33942 0.98309 0.61731 0.0
C1360 C 0.34028 0.98914 0.56274 0.0
C1361 C 0.35095 1.00268 0.54976 0.0
C1362 C 0.36085 1.01012 0.59115 0.0
C1363 C 0.44736 0.01831 0.74752 0.0
C1364 C 0.45414 0.01933 0.69353 0.0
C1365 C 0.42976 0.01844 0.75643 0.0
C1366 C 0.41826 0.02049 0.71194 0.0
C1367 C 0.4252 0.0217 0.65793 0.0
C1368 C 0.44276 0.02086 0.64886 0.0
C1369 C 0.39921 0.02076 0.72117 0.0
C1370 C 0.38826 0.01308 0.68192 0.0
C1371 C 0.39154 0.0282 0.76876 0.0
C1372 C 0.40077 0.03855 0.80991 0.0
C1373 C 0.4092 0.05335 0.79327 0.0
C1374 C 0.41556 0.0645 0.83322 0.0
C1375 C 0.41352 0.06096 0.88982 0.0
C1376 C 0.40534 0.04614 0.90667 0.0
C1377 C 0.39902 0.03495 0.86697 0.0
H1378 H 0.41821 0.06974 0.92064 0.0
H1379 H 0.33267 0.98337 0.53056 0.0
H1380 H 0.47565 0.31665 0.79436 0.0
H1381 H 0.47559 0.34566 0.7569 0.0
H1382 H 0.53002 0.34558 0.75553 0.0
H1383 H 0.53 0.31667 0.79286 0.0
H1384 H 0.51972 0.37167 0.80756 0.0
H1385 H 0.50537 0.34601 0.64113 0.0
H1386 H 0.49145 0.32999 0.56706 0.0
H1387 H 0.44812 0.36225 0.57821 0.0
H1388 H 0.46172 0.37857 0.65294 0.0
H1389 H 0.53127 0.45383 0.6883 0.0
H1390 H 0.53053 0.42316 0.70439 0.0
H1391 H 0.47645 0.42515 0.72201 0.0
H1392 H 0.47727 0.45604 0.70775 0.0
H1393 H 0.48614 0.39779 0.65684 0.0
H1394 H 0.50068 0.41775 0.84076 0.0
H1395 H 0.5159 0.43 0.92062 0.0
H1396 H 0.56138 0.40503 0.86922 0.0
H1397 H 0.54642 0.39271 0.78902 0.0
C1398 C 0.48757 0.32283 0.78545 0.0
C1399 C 0.50284 0.31452 0.79723 0.0
C1400 C 0.48754 0.33937 0.76358 0.0
C1401 C 0.5028 0.34803 0.75345 0.0
C1402 C 0.51805 0.33934 0.7631 0.0
C1403 C 0.51806 0.3228 0.78445 0.0
C1404 C 0.50303 0.36661 0.73941 0.0
C1405 C 0.51267 0.37723 0.77347 0.0
C1406 C 0.49342 0.3741 0.69601 0.0
C1407 C 0.48462 0.36358 0.65343 0.0
C1408 C 0.49278 0.34965 0.62869 0.0
C1409 C 0.48497 0.34052 0.58618 0.0
C1410 C 0.46889 0.34507 0.56798 0.0
C1411 C 0.46059 0.35875 0.59236 0.0
C1412 C 0.46839 0.36799 0.63476 0.0
C1413 C 0.51922 0.44776 0.69589 0.0
C1414 C 0.50435 0.4575 0.69709 0.0
C1415 C 0.51879 0.43016 0.70529 0.0
C1416 C 0.50344 0.4216 0.71492 0.0
C1417 C 0.48851 0.43128 0.71504 0.0
C1418 C 0.48898 0.44901 0.70716 0.0
C1419 C 0.50307 0.40268 0.72479 0.0
C1420 C 0.49328 0.39205 0.69032 0.0
C1421 C 0.51291 0.3949 0.76675 0.0
C1422 C 0.52253 0.40464 0.8084 0.0
C1423 C 0.51404 0.41529 0.84566 0.0
C1424 C 0.52258 0.4221 0.89128 0.0
C1425 C 0.53961 0.41837 0.89985 0.0
C1426 C 0.54822 0.408 0.8624 0.0
C1427 C 0.53973 0.40115 0.81681 0.0
H1428 H 0.54613 0.42343 0.93568 0.0
H1429 H 0.46288 0.33801 0.53494 0.0
H1430 H 0.21282 0.49835 0.71548 0.0
H1431 H 0.18363 0.50036 0.68099 0.0
H1432 H 0.16694 0.51465 0.8448 0.0
H1433 H 0.19572 0.51305 0.87897 0.0
H1434 H 0.14984 0.48786 0.80367 0.0
H1435 H 0.17019 0.54082 0.74074 0.0
H1436 H 0.18732 0.56083 0.68658 0.0
H1437 H 0.1629 0.54502 0.53694 0.0
H1438 H 0.14673 0.52338 0.58891 0.0
H1439 H 0.06221 0.50602 0.78445 0.0
H1440 H 0.09264 0.50581 0.80092 0.0
H1441 H 0.10153 0.50722 0.62388 0.0
H1442 H 0.0711 0.50852 0.60808 0.0
H1443 H 0.12401 0.52488 0.66133 0.0
H1444 H 0.10782 0.46848 0.72884 0.0
H1445 H 0.09621 0.44547 0.78719 0.0
H1446 H 0.1143 0.47039 0.9341 0.0
H1447 H 0.12576 0.49358 0.87678 0.0
C1448 C 0.20297 0.50214 0.74404 0.0
C1449 C 0.20677 0.50522 0.80061 0.0
C1450 C 0.18624 0.5033 0.7241 0.0
C1451 C 0.17294 0.50763 0.76023 0.0
C1452 C 0.17686 0.51117 0.81599 0.0
C1453 C 0.19342 0.51006 0.83574 0.0
C1454 C 0.15469 0.5071 0.74304 0.0
C1455 C 0.14417 0.49611 0.77279 0.0
C1456 C 0.14733 0.51747 0.70132 0.0
C1457 C 0.15754 0.52997 0.669 0.0
C1458 C 0.16888 0.54098 0.69599 0.0
C1459 C 0.17848 0.55259 0.66549 0.0
C1460 C 0.17645 0.55384 0.60805 0.0
C1461 C 0.16479 0.5435 0.58104 0.0
C1462 C 0.15551 0.53146 0.611 0.0
C1463 C 0.07064 0.50615 0.74898 0.0
C1464 C 0.06404 0.50728 0.69475 0.0
C1465 C 0.08823 0.50586 0.75838 0.0
C1466 C 0.09989 0.50606 0.71381 0.0
C1467 C 0.09319 0.50706 0.65956 0.0
C1468 C 0.07563 0.50777 0.65033 0.0
C1469 C 0.11888 0.50576 0.7234 0.0
C1470 C 0.12961 0.51652 0.69191 0.0
C1471 C 0.12664 0.49534 0.76427 0.0
C1472 C 0.11739 0.48285 0.79857 0.0
C1473 C 0.10892 0.46923 0.77365 0.0
C1474 C 0.10248 0.4561 0.80655 0.0
C1475 C 0.10447 0.45649 0.86431 0.0
C1476 C 0.11268 0.47012 0.88943 0.0
C1477 C 0.11908 0.48328 0.85681 0.0
H1478 H 0.09971 0.44619 0.88958 0.0
H1479 H 0.18373 0.563 0.58454 0.0
H1480 H 0.03383 0.81315 0.56212 0.0
H1481 H 0.03229 0.84259 0.59435 0.0
H1482 H 0.98371 0.84777 0.5151 0.0
H1483 H 0.98582 0.81876 0.48051 0.0
H1484 H 1.00079 0.87236 0.48662 0.0
H1485 H 0.98998 0.85051 0.66743 0.0
H1486 H 0.99464 0.83186 0.74826 0.0
H1487 H 0.04431 0.85266 0.76949 0.0
H1488 H 0.0399 0.87151 0.68875 0.0
H1489 H 0.98546 0.95754 0.56452 0.0
H1490 H 0.98516 0.92707 0.54877 0.0
H1491 H 0.02941 0.92181 0.65198 0.0
H1492 H 0.02865 0.95199 0.67172 0.0
H1493 H 0.01627 0.89619 0.66938 0.0
H1494 H 0.02479 0.91744 0.48311 0.0
H1495 H 0.02133 0.92978 0.38945 0.0
H1496 H 0.97256 0.90639 0.37505 0.0
H1497 H 0.97568 0.89409 0.46869 0.0
C1498 C 0.02279 0.8206 0.5521 0.0
C1499 C 0.01004 0.81376 0.51819 0.0
C1500 C 0.02179 0.83743 0.57108 0.0
C1501 C 1.00783 0.84768 0.5576 0.0
C1502 C 0.99473 0.8404 0.52592 0.0
C1503 C 0.9959 0.82376 0.50606 0.0
C1504 C 1.00755 0.86637 0.5705 0.0
C1505 C 1.00348 0.87754 0.52742 0.0
C1506 C 0.01191 0.87335 0.62273 0.0
C1507 C 0.01468 0.86229 0.67172 0.0
C1508 C 1.00195 0.85101 0.68908 0.0
C1509 C 1.00453 0.84043 0.73491 0.0
C1510 C 0.01982 0.84096 0.76367 0.0
C1511 C 0.03251 0.8522 0.74693 0.0
C1512 C 0.02994 0.8629 0.70131 0.0
C1513 C 0.99513 0.9499 0.58391 0.0
C1514 C 1.00713 0.95748 0.61925 0.0
C1515 C 0.99517 0.93228 0.57408 0.0
C1516 C 1.00762 0.92159 0.59731 0.0
C1517 C 0.01955 0.92928 0.63291 0.0
C1518 C 0.0192 0.94679 0.64409 0.0
C1519 C 1.00796 0.90255 0.58633 0.0
C1520 C 0.01258 0.89119 0.62941 0.0
C1521 C 1.0035 0.89524 0.53426 0.0
C1522 C 1.00034 0.90516 0.48324 0.0
C1523 C 0.01314 0.91536 0.46057 0.0
C1524 C 0.0113 0.92221 0.40728 0.0
C1525 C 0.99671 0.91893 0.37641 0.0
C1526 C 0.98381 0.90902 0.39908 0.0
C1527 C 0.98557 0.90218 0.4523 0.0
H1528 H 0.99545 0.924 0.33481 0.0
H1529 H 0.02179 0.83277 0.79917 0.0
H1530 H 0.71122 0.99074 0.57595 0.0
H1531 H 0.68254 0.99011 0.6141 0.0
H1532 H 0.6666 0.02544 0.48785 0.0
H1533 H 0.69526 0.02714 0.45273 0.0
H1534 H 0.6517 0.03328 0.57508 0.0
H1535 H 0.66192 0.97779 0.4915 0.0
H1536 H 0.67824 0.95127 0.48869 0.0
H1537 H 0.66312 0.93986 0.65614 0.0
H1538 H 0.64709 0.96656 0.66046 0.0
H1539 H 0.56315 0.02151 0.54401 0.0
H1540 H 0.59391 0.02108 0.53035 0.0
H1541 H 0.59948 0.99114 0.67913 0.0
H1542 H 0.56873 0.99209 0.69375 0.0
H1543 H 0.62059 0.97927 0.5979 0.0
H1544 H 0.60853 0.03222 0.67898 0.0
H1545 H 0.59808 0.06106 0.69723 0.0
H1546 H 0.61922 0.07819 0.54255 0.0
H1547 H 0.62944 0.04943 0.52286 0.0
C1548 C 0.70167 0.99857 0.55669 0.0
C1549 C 0.7057 1.00871 0.51 0.0
C1550 C 0.6851 0.998 0.57822 0.0
C1551 C 0.67197 1.00728 0.55298 0.0
C1552 C 0.67621 0.01789 0.50798 0.0
C1553 C 0.69272 0.01868 0.48719 0.0
C1554 C 0.65377 1.00625 0.57198 0.0
C1555 C 0.64485 0.02143 0.57868 0.0
C1556 C 0.64486 0.99083 0.58066 0.0
C1557 C 0.65344 0.97424 0.57646 0.0
C1558 C 0.66206 0.96961 0.52768 0.0
C1559 C 0.67132 0.95459 0.52592 0.0
C1560 C 0.67175 0.94391 0.57226 0.0
C1561 C 0.66281 0.94817 0.62033 0.0
C1562 C 0.65366 0.96326 0.62249 0.0
C1563 C 0.57093 0.01472 0.57355 0.0
C1564 C 0.56344 1.00677 0.61983 0.0
C1565 C 0.58858 0.01455 0.56593 0.0
C1566 C 0.59927 1.00614 0.60378 0.0
C1567 C 0.5917 0.99775 0.64919 0.0
C1568 C 0.57407 0.9983 0.65759 0.0
C1569 C 0.61824 1.00644 0.59632 0.0
C1570 C 0.62734 0.99113 0.59297 0.0
C1571 C 0.62742 0.02179 0.59054 0.0
C1572 C 0.6196 0.0386 0.59928 0.0
C1573 C 0.61064 0.04206 0.64839 0.0
C1574 C 0.60484 0.05842 0.6591 0.0
C1575 C 0.60798 0.07145 0.62108 0.0
C1576 C 0.61675 0.0681 0.57193 0.0
C1577 C 0.6225 0.05176 0.56093 0.0
H1578 H 0.60365 0.08414 0.62974 0.0
H1579 H 0.67899 0.93232 0.5709 0.0
H1580 H 0.50832 0.71715 0.59649 0.0
H1581 H 0.51117 0.68815 0.6326 0.0
H1582 H 0.51281 0.66922 0.46481 0.0
H1583 H 0.51032 0.69778 0.42873 0.0
H1584 H 0.4897 0.65312 0.52556 0.0
H1585 H 0.54702 0.67215 0.55389 0.0
H1586 H 0.56896 0.68998 0.5966 0.0
H1587 H 0.55575 0.67084 0.75809 0.0
H1588 H 0.53331 0.6533 0.71661 0.0
H1589 H 0.51228 0.56633 0.53393 0.0
H1590 H 0.51179 0.59706 0.51832 0.0
H1591 H 0.51417 0.60539 0.69512 0.0
H1592 H 0.51415 0.57469 0.71084 0.0
H1593 H 0.53396 0.62804 0.64502 0.0
H1594 H 0.47697 0.61122 0.62369 0.0
H1595 H 0.45006 0.59897 0.59151 0.0
H1596 H 0.45999 0.61682 0.42591 0.0
H1597 H 0.4871 0.62883 0.45676 0.0
C1598 C 0.50948 0.70684 0.56717 0.0
C1599 C 0.50878 0.71001 0.50925 0.0
C1600 C 0.51115 0.6902 0.58806 0.0
C1601 C 0.51224 0.67632 0.55155 0.0
C1602 C 0.51192 0.67957 0.4941 0.0
C1603 C 0.51028 0.69605 0.47337 0.0
C1604 C 0.51232 0.65822 0.57126 0.0
C1605 C 0.49962 0.64759 0.55078 0.0
C1606 C 0.52462 0.65112 0.60728 0.0
C1607 C 0.53824 0.6616 0.63212 0.0
C1608 C 0.54859 0.67191 0.59859 0.0
C1609 C 0.56115 0.68196 0.6226 0.0
C1610 C 0.5637 0.68161 0.68005 0.0
C1611 C 0.55371 0.67117 0.71361 0.0
C1612 C 0.54104 0.66119 0.68986 0.0
C1613 C 0.51275 0.57469 0.56951 0.0
C1614 C 0.51314 0.56793 0.62373 0.0
C1615 C 0.51235 0.59234 0.56059 0.0
C1616 C 0.51267 0.60379 0.60552 0.0
C1617 C 0.5137 0.59702 0.65959 0.0
C1618 C 0.51366 0.57939 0.66857 0.0
C1619 C 0.51183 0.62269 0.59594 0.0
C1620 C 0.52419 0.63349 0.61908 0.0
C1621 C 0.49909 0.63017 0.56265 0.0
C1622 C 0.4842 0.62066 0.5424 0.0
C1623 C 0.47364 0.6121 0.5801 0.0
C1624 C 0.45828 0.60532 0.56216 0.0
C1625 C 0.45334 0.60706 0.50668 0.0
C1626 C 0.46386 0.61538 0.46879 0.0
C1627 C 0.47925 0.62211 0.48643 0.0
H1628 H 0.44133 0.60203 0.49308 0.0
H1629 H 0.57345 0.68938 0.69853 0.0
H1630 H 0.82015 0.53772 0.45086 0.0
H1631 H 0.84884 0.53969 0.48747 0.0
H1632 H 0.83677 0.50261 0.61297 0.0
H1633 H 0.80758 0.50116 0.57768 0.0
H1634 H 0.86064 0.52946 0.64859 0.0
H1635 H 0.85659 0.48664 0.50521 0.0
H1636 H 0.84087 0.48063 0.41906 0.0
H1637 H 0.86401 0.5236 0.34006 0.0
H1638 H 0.87977 0.52991 0.42611 0.0
H1639 H 0.9469 0.50504 0.69582 0.0
H1640 H 0.91655 0.50584 0.67864 0.0
H1641 H 0.92521 0.53313 0.52602 0.0
H1642 H 0.95575 0.53221 0.54266 0.0
H1643 H 0.90195 0.51066 0.50652 0.0
H1644 H 0.91087 0.54983 0.65413 0.0
H1645 H 0.91687 0.56271 0.74509 0.0
H1646 H 0.87883 0.53144 0.82082 0.0
H1647 H 0.8737 0.51739 0.73182 0.0
C1648 C 0.82351 0.53006 0.48653 0.0
C1649 C 0.8116 0.519 0.51035 0.0
C1650 C 0.83996 0.53125 0.50769 0.0
C1651 C 0.84526 0.52104 0.55233 0.0
C1652 C 0.83314 0.51061 0.57839 0.0
C1653 C 0.81646 0.50969 0.55787 0.0
C1654 C 0.86379 0.51987 0.56631 0.0
C1655 C 0.86975 0.52497 0.61837 0.0
C1656 C 0.87567 0.51448 0.52623 0.0
C1657 C 0.8696 0.50854 0.47155 0.0
C1658 C 0.85872 0.49447 0.46883 0.0
C1659 C 0.84964 0.49115 0.42031 0.0
C1660 C 0.8515 0.50168 0.37401 0.0
C1661 C 0.8627 0.51537 0.37582 0.0
C1662 C 0.87181 0.51876 0.42432 0.0
C1663 C 0.94246 0.51131 0.65856 0.0
C1664 C 0.95408 0.51862 0.62084 0.0
C1665 C 0.92491 0.51182 0.64888 0.0
C1666 C 0.91822 0.51971 0.60121 0.0
C1667 C 0.9298 0.52694 0.56325 0.0
C1668 C 0.94739 0.52648 0.57297 0.0
C1669 C 0.89932 0.52014 0.59038 0.0
C1670 C 0.89314 0.51486 0.53809 0.0
C1671 C 0.88724 0.5253 0.63109 0.0
C1672 C 0.89213 0.53225 0.68612 0.0
C1673 C 0.90427 0.5452 0.69055 0.0
C1674 C 0.90755 0.55273 0.74198 0.0
C1675 C 0.89846 0.54775 0.78904 0.0
C1676 C 0.88623 0.53507 0.78492 0.0
C1677 C 0.88327 0.52718 0.73406 0.0
H1678 H 0.90075 0.55392 0.82846 0.0
H1679 H 0.8442 0.4993 0.33683 0.0
loop_
_geom_bond_atom_site_label_1
_geom_bond_atom_site_label_2
_geom_bond_distance
_geom_bond_site_symmetry_2
_ccdc_geom_bond_type
C0 C1 1.264 . S
C0 C5 1.479 . S
C0 C10 1.465 . S
C1 C0 1.264 . S
C1 C3 1.339 . S
C1 H28 0.931 . S
C2 C3 1.395 . S
C2 C4 1.320 . S
C3 C1 1.339 . S
C3 C2 1.395 . S
C3 H29 0.929 . S
C4 C2 1.320 . S
C4 C5 1.405 . S
C4 H30 0.930 . S
C5 C0 1.479 . S
C5 C4 1.405 . S
C5 H31 0.931 . S
U6 O7 2.454 . S
U6 O8 2.458 . S
U6 C9 2.984 . S
U6 C10 2.847 . S
U6 C23 2.882 . S
U6 O24 2.441 . S
U6 O25 2.420 . S
U6 O26 2.455 . S
U6 O27 2.449 . S
O7 U6 2.454 . S
O7 C9 1.353 . S
O8 U6 2.458 . S
O8 C9 1.286 . S
C9 U6 2.984 . S
C9 O7 1.353 . S
C9 O8 1.286 . S
C9 C11 1.363 . S
C10 C0 1.465 . S
C10 U6 2.847 . S
C10 O24 1.249 . S
C10 O25 1.202 . S
C11 C9 1.363 . S
C11 C13 1.408 . S
C11 C16 1.342 . S
C12 C13 1.310 . S
C12 C15 1.461 . S
C12 H32 0.932 . S
C13 C11 1.408 . S
C13 C12 1.310 . S
C13 H33 0.930 . S
C14 C15 1.474 . S
C14 C16 1.285 . S
C14 H34 0.929 . S
C15 C12 1.461 . S
C15 C14 1.474 . S
C16 C11 1.342 . S
C16 C14 1.285 . S
C16 H35 0.930 . S
C17 C20 1.424 . S
C17 C22 1.245 . S
C17 C23 1.428 . S
C18 C21 1.260 . S
C18 C22 1.477 . S
C18 H36 0.932 . S
C19 C20 1.384 . S
C19 C21 1.479 . S
C19 H37 0.929 . S
C20 C17 1.424 . S
C20 C19 1.384 . S
C20 H38 0.928 . S
C21 C18 1.260 . S
C21 C19 1.479 . S
C22 C17 1.245 . S
C22 C18 1.477 . S
C22 H39 0.932 . S
C23 U6 2.882 . S
C23 C17 1.428 . S
C23 O26 1.301 . S
C23 O27 1.282 . S
O24 U6 2.441 . S
O24 C10 1.249 . S
O25 U6 2.420 . S
O25 C10 1.202 . S
O26 U6 2.455 . S
O26 C23 1.301 . S
O27 U6 2.449 . S
O27 C23 1.282 . S
H28 C1 0.931 . S
H29 C3 0.929 . S
H30 C4 0.930 . S
H31 C5 0.931 . S
H32 C12 0.932 . S
H33 C13 0.930 . S
H34 C14 0.929 . S
H35 C16 0.930 . S
H36 C18 0.932 . S
H37 C19 0.929 . S
H38 C20 0.928 . S
H39 C22 0.932 . S
C40 C41 1.264 . S
C40 C45 1.479 . S
C40 C50 1.465 . S
C41 C40 1.264 . S
C41 C43 1.339 . S
C41 H68 0.931 . S
C42 C43 1.395 . S
C42 C44 1.320 . S
C43 C41 1.339 . S
C43 C42 1.395 . S
C43 H69 0.929 . S
C44 C42 1.320 . S
C44 C45 1.405 . S
C44 H70 0.921 1_455 S
C45 C40 1.479 . S
C45 C44 1.405 . S
C45 H71 0.931 . S
U46 O47 2.454 . S
U46 O48 2.458 . S
U46 C49 2.984 . S
U46 C50 2.847 . S
U46 C63 2.882 . S
U46 O64 2.441 . S
U46 O65 2.420 . S
U46 O66 2.455 . S
U46 O67 2.449 . S
O47 U46 2.454 . S
O47 C49 1.353 . S
O48 U46 2.458 . S
O48 C49 1.286 . S
C49 U46 2.984 . S
C49 O47 1.353 . S
C49 O48 1.286 . S
C49 C51 1.363 . S
C50 C40 1.465 . S
C50 U46 2.847 . S
C50 O64 1.249 . S
C50 O65 1.202 . S
C51 C49 1.363 . S
C51 C53 1.408 . S
C51 C56 1.353 . S
C52 C53 1.310 . S
C52 C55 1.461 . S
C52 H72 0.936 . S
C53 C51 1.408 . S
C53 C52 1.310 . S
C53 H73 0.930 . S
C54 C55 1.474 1_655 S
C54 C56 1.282 1_655 S
C54 H74 0.930 . S
C55 C52 1.461 . S
C55 C54 1.474 1_455 S
C56 C51 1.353 . S
C56 C54 1.282 1_455 S
C56 H75 0.929 . S
C57 C60 1.424 . S
C57 C62 1.245 . S
C57 C63 1.428 . S
C58 C61 1.260 . S
C58 C62 1.477 . S
C58 H76 0.932 . S
C59 C60 1.384 . S
C59 C61 1.479 . S
C59 H77 0.929 . S
C60 C57 1.424 . S
C60 C59 1.384 . S
C60 H78 0.928 . S
C61 C58 1.260 . S
C61 C59 1.479 . S
C62 C57 1.245 . S
C62 C58 1.477 . S
C62 H79 0.932 . S
C63 U46 2.882 . S
C63 C57 1.428 . S
C63 O66 1.301 . S
C63 O67 1.282 . S
O64 U46 2.441 . S
O64 C50 1.249 . S
O65 U46 2.420 . S
O65 C50 1.202 . S
O66 U46 2.455 . S
O66 C63 1.301 . S
O67 U46 2.449 . S
O67 C63 1.282 . S
H68 C41 0.931 . S
H69 C43 0.929 . S
H70 C44 0.921 1_655 S
H71 C45 0.931 . S
H72 C52 0.936 . S
H73 C53 0.930 . S
H74 C54 0.930 . S
H75 C56 0.929 . S
H76 C58 0.932 . S
H77 C59 0.929 . S
H78 C60 0.928 . S
H79 C62 0.932 . S
C80 C81 1.264 . S
C80 C85 1.479 . S
C80 C90 1.465 . S
C81 C80 1.264 . S
C81 C83 1.339 . S
C81 H108 0.931 . S
C82 C83 1.395 1_565 S
C82 C84 1.320 . S
C83 C81 1.339 . S
C83 C82 1.395 1_545 S
C83 H109 0.929 . S
C84 C82 1.320 . S
C84 C85 1.405 1_565 S
C84 H110 0.930 . S
C85 C80 1.479 . S
C85 C84 1.405 1_545 S
C85 H111 0.931 . S
U86 O87 2.463 . S
U86 O88 2.458 . S
U86 C89 2.991 . S
U86 C90 2.847 . S
U86 C103 2.882 . S
U86 O104 2.441 . S
U86 O105 2.420 . S
U86 O106 2.455 . S
U86 O107 2.449 . S
O87 U86 2.463 . S
O87 C89 1.353 . S
O88 U86 2.458 . S
O88 C89 1.288 . S
C89 U86 2.991 . S
C89 O87 1.353 . S
C89 O88 1.288 . S
C89 C91 1.359 1_545 S
C90 C80 1.465 . S
C90 U86 2.847 . S
C90 O104 1.249 . S
C90 O105 1.202 . S
C91 C89 1.359 1_565 S
C91 C93 1.408 . S
C91 C96 1.342 . S
C92 C93 1.310 . S
C92 C95 1.461 . S
C92 H112 0.932 . S
C93 C91 1.408 . S
C93 C92 1.310 . S
C93 H113 0.933 . S
C94 C95 1.474 . S
C94 C96 1.285 . S
C94 H114 0.929 . S
C95 C92 1.461 . S
C95 C94 1.474 . S
C96 C91 1.342 . S
C96 C94 1.285 . S
C96 H115 0.930 . S
C97 C100 1.424 . S
C97 C102 1.245 . S
C97 C103 1.428 . S
C98 C101 1.260 1_545 S
C98 C102 1.477 . S
C98 H116 0.932 . S
C99 C100 1.386 . S
C99 C101 1.476 1_545 S
C99 H117 0.928 . S
C100 C97 1.424 . S
C100 C99 1.386 . S
C100 H118 0.934 . S
C101 C98 1.260 1_565 S
C101 C99 1.476 1_565 S
C102 C97 1.245 . S
C102 C98 1.477 . S
C102 H119 0.932 . S
C103 U86 2.882 . S
C103 C97 1.428 . S
C103 O106 1.301 . S
C103 O107 1.282 . S
O104 U86 2.441 . S
O104 C90 1.249 . S
O105 U86 2.420 . S
O105 C90 1.202 . S
O106 U86 2.455 . S
O106 C103 1.301 . S
O107 U86 2.449 . S
O107 C103 1.282 . S
H108 C81 0.931 . S
H109 C83 0.929 . S
H110 C84 0.930 . S
H111 C85 0.931 . S
H112 C92 0.932 . S
H113 C93 0.933 . S
H114 C94 0.929 . S
H115 C96 0.930 . S
H116 C98 0.932 . S
H117 C99 0.928 . S
H118 C100 0.934 . S
H119 C102 0.932 . S
C120 C121 1.264 . S
C120 C125 1.479 . S
C120 C130 1.465 . S
C121 C120 1.264 . S
C121 C123 1.339 . S
C121 H148 0.931 . S
C122 C123 1.395 . S
C122 C124 1.320 . S
C123 C121 1.339 . S
C123 C122 1.395 . S
C123 H149 0.929 . S
C124 C122 1.320 . S
C124 C125 1.405 . S
C124 H150 0.930 . S
C125 C120 1.479 . S
C125 C124 1.405 . S
C125 H151 0.931 . S
U126 O127 2.454 . S
U126 O128 2.458 . S
U126 C129 2.984 . S
U126 C130 2.847 . S
U126 C143 2.882 . S
U126 O144 2.441 . S
U126 O145 2.420 . S
U126 O146 2.455 . S
U126 O147 2.449 . S
O127 U126 2.454 . S
O127 C129 1.353 . S
O128 U126 2.458 . S
O128 C129 1.286 . S
C129 U126 2.984 . S
C129 O127 1.353 . S
C129 O128 1.286 . S
C129 C131 1.363 . S
C130 C120 1.465 . S
C130 U126 2.847 . S
C130 O144 1.249 . S
C130 O145 1.202 . S
C131 C129 1.363 . S
C131 C133 1.408 . S
C131 C136 1.342 . S
C132 C133 1.310 . S
C132 C135 1.461 . S
C132 H152 0.932 . S
C133 C131 1.408 . S
C133 C132 1.310 . S
C133 H153 0.930 . S
C134 C135 1.474 . S
C134 C136 1.285 . S
C134 H154 0.929 . S
C135 C132 1.461 . S
C135 C134 1.474 . S
C136 C131 1.342 . S
C136 C134 1.285 . S
C136 H155 0.930 . S
C137 C140 1.424 . S
C137 C142 1.245 . S
C137 C143 1.428 . S
C138 C141 1.260 . S
C138 C142 1.477 . S
C138 H156 0.932 . S
C139 C140 1.384 . S
C139 C141 1.479 . S
C139 H157 0.929 . S
C140 C137 1.424 . S
C140 C139 1.384 . S
C140 H158 0.928 . S
C141 C138 1.260 . S
C141 C139 1.479 . S
C142 C137 1.245 . S
C142 C138 1.477 . S
C142 H159 0.932 . S
C143 U126 2.882 . S
C143 C137 1.428 . S
C143 O146 1.301 . S
C143 O147 1.282 . S
O144 U126 2.441 . S
O144 C130 1.249 . S
O145 U126 2.420 . S
O145 C130 1.202 . S
O146 U126 2.455 . S
O146 C143 1.301 . S
O147 U126 2.449 . S
O147 C143 1.282 . S
H148 C121 0.931 . S
H149 C123 0.929 . S
H150 C124 0.930 . S
H151 C125 0.931 . S
H152 C132 0.932 . S
H153 C133 0.930 . S
H154 C134 0.929 . S
H155 C136 0.930 . S
H156 C138 0.932 . S
H157 C139 0.929 . S
H158 C140 0.928 . S
H159 C142 0.932 . S
C160 C161 1.264 . S
C160 C165 1.479 . S
C160 C170 1.465 . S
C161 C160 1.264 . S
C161 C163 1.339 . S
C161 H188 0.931 . S
C162 C163 1.395 . S
C162 C164 1.320 . S
C163 C161 1.339 . S
C163 C162 1.395 . S
C163 H189 0.929 . S
C164 C162 1.320 . S
C164 C165 1.405 . S
C164 H190 0.930 . S
C165 C160 1.479 . S
C165 C164 1.405 . S
C165 H191 0.931 . S
U166 O167 2.454 . S
U166 O168 2.458 . S
U166 C169 2.984 . S
U166 C170 2.847 1_554 S
U166 C183 2.882 . S
U166 O184 2.441 1_554 S
U166 O185 2.420 1_554 S
U166 O186 2.455 . S
U166 O187 2.449 . S
O167 U166 2.454 . S
O167 C169 1.353 . S
O168 U166 2.458 . S
O168 C169 1.286 . S
C169 U166 2.984 . S
C169 O167 1.353 . S
C169 O168 1.286 . S
C169 C171 1.363 . S
C170 C160 1.465 . S
C170 U166 2.847 1_556 S
C170 O184 1.249 . S
C170 O185 1.202 . S
C171 C169 1.363 . S
C171 C173 1.408 . S
C171 C176 1.342 . S
C172 C173 1.310 . S
C172 C175 1.461 . S
C172 H192 0.932 . S
C173 C171 1.408 . S
C173 C172 1.310 . S
C173 H193 0.930 1_554 S
C174 C175 1.474 . S
C174 C176 1.285 . S
C174 H194 0.929 . S
C175 C172 1.461 . S
C175 C174 1.474 . S
C176 C171 1.342 . S
C176 C174 1.285 . S
C176 H195 0.930 . S
C177 C180 1.424 . S
C177 C182 1.245 . S
C177 C183 1.428 . S
C178 C181 1.260 . S
C178 C182 1.477 . S
C178 H196 0.932 . S
C179 C180 1.384 . S
C179 C181 1.479 . S
C179 H197 0.929 . S
C180 C177 1.424 . S
C180 C179 1.384 . S
C180 H198 0.928 . S
C181 C178 1.260 . S
C181 C179 1.479 . S
C182 C177 1.245 . S
C182 C178 1.477 . S
C182 H199 0.932 . S
C183 U166 2.882 . S
C183 C177 1.428 . S
C183 O186 1.301 . S
C183 O187 1.282 . S
O184 U166 2.441 1_556 S
O184 C170 1.249 . S
O185 U166 2.420 1_556 S
O185 C170 1.202 . S
O186 U166 2.455 . S
O186 C183 1.301 . S
O187 U166 2.449 . S
O187 C183 1.282 . S
H188 C161 0.931 . S
H189 C163 0.929 . S
H190 C164 0.930 . S
H191 C165 0.931 . S
H192 C172 0.932 . S
H193 C173 0.930 1_556 S
H194 C174 0.929 . S
H195 C176 0.930 . S
H196 C178 0.932 . S
H197 C179 0.929 . S
H198 C180 0.928 . S
H199 C182 0.932 . S
C200 C201 1.264 . S
C200 C205 1.479 . S
C200 C210 1.465 . S
C201 C200 1.264 . S
C201 C203 1.339 . S
C201 H228 0.931 . S
C202 C203 1.395 . S
C202 C204 1.320 . S
C203 C201 1.339 . S
C203 C202 1.395 . S
C203 H229 0.929 . S
C204 C202 1.320 . S
C204 C205 1.405 . S
C204 H230 0.924 1_455 S
C205 C200 1.479 . S
C205 C204 1.405 . S
C205 H231 0.931 . S
U206 O207 2.454 . S
U206 O208 2.458 . S
U206 C209 2.984 . S
U206 C210 2.847 1_554 S
U206 C223 2.882 . S
U206 O224 2.441 1_554 S
U206 O225 2.420 1_554 S
U206 O226 2.455 . S
U206 O227 2.449 . S
O207 U206 2.454 . S
O207 C209 1.353 . S
O208 U206 2.458 . S
O208 C209 1.286 . S
C209 U206 2.984 . S
C209 O207 1.353 . S
C209 O208 1.286 . S
C209 C211 1.363 . S
C210 C200 1.465 . S
C210 U206 2.847 1_556 S
C210 O224 1.249 . S
C210 O225 1.202 . S
C211 C209 1.363 . S
C211 C213 1.408 . S
C211 C216 1.342 . S
C212 C213 1.310 . S
C212 C215 1.462 . S
C212 H232 0.932 . S
C213 C211 1.408 . S
C213 C212 1.310 . S
C213 H233 0.930 1_554 S
C214 C215 1.474 1_655 S
C214 C216 1.286 1_655 S
C214 H234 0.929 . S
C215 C212 1.462 . S
C215 C214 1.474 1_455 S
C216 C211 1.342 . S
C216 C214 1.286 1_455 S
C216 H235 0.933 . S
C217 C220 1.424 . S
C217 C222 1.245 . S
C217 C223 1.428 . S
C218 C221 1.260 . S
C218 C222 1.477 . S
C218 H236 0.932 . S
C219 C220 1.384 . S
C219 C221 1.479 . S
C219 H237 0.929 . S
C220 C217 1.424 . S
C220 C219 1.384 . S
C220 H238 0.928 . S
C221 C218 1.260 . S
C221 C219 1.479 . S
C222 C217 1.245 . S
C222 C218 1.477 . S
C222 H239 0.932 . S
C223 U206 2.882 . S
C223 C217 1.428 . S
C223 O226 1.301 . S
C223 O227 1.282 . S
O224 U206 2.441 1_556 S
O224 C210 1.249 . S
O225 U206 2.420 1_556 S
O225 C210 1.202 . S
O226 U206 2.455 . S
O226 C223 1.301 . S
O227 U206 2.449 . S
O227 C223 1.282 . S
H228 C201 0.931 . S
H229 C203 0.929 . S
H230 C204 0.924 1_655 S
H231 C205 0.931 . S
H232 C212 0.932 . S
H233 C213 0.930 1_556 S
H234 C214 0.929 . S
H235 C216 0.933 . S
H236 C218 0.932 . S
H237 C219 0.929 . S
H238 C220 0.928 . S
H239 C222 0.932 . S
C240 C241 1.264 . S
C240 C245 1.479 . S
C240 C250 1.465 . S
C241 C240 1.264 . S
C241 C243 1.339 . S
C241 H268 0.931 . S
C242 C243 1.395 . S
C242 C244 1.320 . S
C243 C241 1.339 . S
C243 C242 1.395 . S
C243 H269 0.929 . S
C244 C242 1.320 . S
C244 C245 1.405 . S
C244 H270 0.930 . S
C245 C240 1.479 . S
C245 C244 1.405 . S
C245 H271 0.931 . S
U246 O247 2.454 . S
U246 O248 2.458 . S
U246 C249 2.984 . S
U246 C250 2.847 1_554 S
U246 C263 2.882 . S
U246 O264 2.441 1_554 S
U246 O265 2.420 1_554 S
U246 O266 2.455 . S
U246 O267 2.449 . S
O247 U246 2.454 . S
O247 C249 1.353 . S
O248 U246 2.458 . S
O248 C249 1.286 . S
C249 U246 2.984 . S
C249 O247 1.353 . S
C249 O248 1.286 . S
C249 C251 1.363 . S
C250 C240 1.465 . S
C250 U246 2.847 1_556 S
C250 O264 1.249 . S
C250 O265 1.202 . S
C251 C249 1.363 . S
C251 C253 1.408 . S
C251 C256 1.342 . S
C252 C253 1.310 . S
C252 C255 1.461 . S
C252 H272 0.932 . S
C253 C251 1.408 . S
C253 C252 1.310 . S
C253 H273 0.930 1_554 S
C254 C255 1.474 . S
C254 C256 1.285 . S
C254 H274 0.929 . S
C255 C252 1.461 . S
C255 C254 1.474 . S
C256 C251 1.342 . S
C256 C254 1.285 . S
C256 H275 0.930 . S
C257 C260 1.424 . S
C257 C262 1.245 . S
C257 C263 1.428 . S
C258 C261 1.260 . S
C258 C262 1.477 . S
C258 H276 0.932 . S
C259 C260 1.384 . S
C259 C261 1.479 . S
C259 H277 0.929 . S
C260 C257 1.424 . S
C260 C259 1.384 . S
C260 H278 0.928 . S
C261 C258 1.260 . S
C261 C259 1.479 . S
C262 C257 1.245 . S
C262 C258 1.477 . S
C262 H279 0.932 . S
C263 U246 2.882 . S
C263 C257 1.428 . S
C263 O266 1.301 . S
C263 O267 1.282 . S
O264 U246 2.441 1_556 S
O264 C250 1.249 . S
O265 U246 2.420 1_556 S
O265 C250 1.202 . S
O266 U246 2.455 . S
O266 C263 1.301 . S
O267 U246 2.449 . S
O267 C263 1.282 . S
H268 C241 0.931 . S
H269 C243 0.929 . S
H270 C244 0.930 . S
H271 C245 0.931 . S
H272 C252 0.932 . S
H273 C253 0.930 1_556 S
H274 C254 0.929 . S
H275 C256 0.930 . S
H276 C258 0.932 . S
H277 C259 0.929 . S
H278 C260 0.928 . S
H279 C262 0.932 . S
C280 C281 1.264 . S
C280 C285 1.479 . S
C280 C290 1.465 . S
C281 C280 1.264 . S
C281 C283 1.339 . S
C281 H308 0.931 . S
C282 C283 1.395 . S
C282 C284 1.320 . S
C283 C281 1.339 . S
C283 C282 1.395 . S
C283 H309 0.929 . S
C284 C282 1.320 . S
C284 C285 1.405 . S
C284 H310 0.930 . S
C285 C280 1.479 . S
C285 C284 1.405 . S
C285 H311 0.931 . S
U286 O287 2.454 . S
U286 O288 2.458 . S
U286 C289 2.984 . S
U286 C290 2.847 1_554 S
U286 C303 2.882 . S
U286 O304 2.441 1_554 S
U286 O305 2.420 1_554 S
U286 O306 2.455 . S
U286 O307 2.449 . S
O287 U286 2.454 . S
O287 C289 1.353 . S
O288 U286 2.458 . S
O288 C289 1.286 . S
C289 U286 2.984 . S
C289 O287 1.353 . S
C289 O288 1.286 . S
C289 C291 1.363 . S
C290 C280 1.465 . S
C290 U286 2.847 1_556 S
C290 O304 1.249 . S
C290 O305 1.202 . S
C291 C289 1.363 . S
C291 C293 1.408 . S
C291 C296 1.342 . S
C292 C293 1.310 . S
C292 C295 1.461 . S
C292 H312 0.932 . S
C293 C291 1.408 . S
C293 C292 1.310 . S
C293 H313 0.930 1_554 S
C294 C295 1.474 . S
C294 C296 1.285 . S
C294 H314 0.929 . S
C295 C292 1.461 . S
C295 C294 1.474 . S
C296 C291 1.342 . S
C296 C294 1.285 . S
C296 H315 0.930 . S
C297 C300 1.424 . S
C297 C302 1.245 . S
C297 C303 1.428 . S
C298 C301 1.260 . S
C298 C302 1.477 . S
C298 H316 0.932 . S
C299 C300 1.384 . S
C299 C301 1.479 . S
C299 H317 0.929 . S
C300 C297 1.424 . S
C300 C299 1.384 . S
C300 H318 0.928 . S
C301 C298 1.260 . S
C301 C299 1.479 . S
C302 C297 1.245 . S
C302 C298 1.477 . S
C302 H319 0.932 . S
C303 U286 2.882 . S
C303 C297 1.428 . S
C303 O306 1.301 . S
C303 O307 1.282 . S
O304 U286 2.441 1_556 S
O304 C290 1.249 . S
O305 U286 2.420 1_556 S
O305 C290 1.202 . S
O306 U286 2.455 . S
O306 C303 1.301 . S
O307 U286 2.449 . S
O307 C303 1.282 . S
H308 C281 0.931 . S
H309 C283 0.929 . S
H310 C284 0.930 . S
H311 C285 0.931 . S
H312 C292 0.932 . S
H313 C293 0.930 1_556 S
H314 C294 0.929 . S
H315 C296 0.930 . S
H316 C298 0.932 . S
H317 C299 0.929 . S
H318 C300 0.928 . S
H319 C302 0.932 . S
Pr320 C322 2.880 . S
Pr320 O340 2.562 . S
Pr320 O341 2.490 . S
Pr320 O342 2.695 1_565 S
Pr320 O343 2.512 . S
Pr320 O345 2.437 . S
Pr320 O348 2.436 1_455 S
Pr320 O350 2.438 1_565 S
Pr321 C331 2.880 . S
Pr321 O342 2.436 1_655 S
Pr321 O344 2.438 1_545 S
Pr321 O346 2.562 . S
Pr321 O347 2.490 . S
Pr321 O348 2.695 1_545 S
Pr321 O349 2.512 . S
Pr321 O351 2.437 . S
C322 Pr320 2.880 . S
C322 C323 1.491 . S
C322 O340 1.254 . S
C322 O341 1.225 . S
C323 C322 1.491 . S
C323 C324 1.392 . S
C323 C328 1.356 . S
C324 C323 1.392 . S
C324 C325 1.368 . S
C324 H352 0.929 . S
C325 C324 1.368 . S
C325 C326 1.386 . S
C325 H353 0.929 . S
C326 C325 1.386 . S
C326 C327 1.373 . S
C327 C326 1.373 . S
C327 C328 1.409 . S
C327 H354 0.931 1_455 S
C328 C323 1.356 . S
C328 C327 1.409 . S
C328 H355 0.930 1_455 S
C329 O342 1.270 . S
C329 O343 1.248 1_545 S
C330 O344 1.267 . S
C330 O345 1.278 1_655 S
C331 Pr321 2.880 . S
C331 C332 1.491 . S
C331 O346 1.254 . S
C331 O347 1.225 . S
C332 C331 1.491 . S
C332 C333 1.392 . S
C332 C337 1.356 . S
C333 C332 1.392 . S
C333 C334 1.368 . S
C333 H356 0.929 . S
C334 C333 1.368 . S
C334 C335 1.386 . S
C334 H357 0.929 . S
C335 C334 1.386 . S
C335 C336 1.373 . S
C336 C335 1.373 . S
C336 C337 1.409 . S
C336 H358 0.931 1_655 S
C337 C332 1.356 . S
C337 C336 1.409 . S
C337 H359 0.930 1_655 S
C338 O348 1.270 1_545 S
C338 O349 1.248 . S
C339 O350 1.267 . S
C339 O351 1.278 1_455 S
O340 Pr320 2.562 . S
O340 C322 1.254 . S
O341 Pr320 2.490 . S
O341 C322 1.225 . S
O342 Pr320 2.695 1_545 S
O342 Pr321 2.436 1_455 S
O342 C329 1.270 . S
O343 Pr320 2.512 . S
O343 C329 1.248 1_565 S
O344 Pr321 2.438 1_565 S
O344 C330 1.267 . S
O345 Pr320 2.437 . S
O345 C330 1.278 1_455 S
O346 Pr321 2.562 . S
O346 C331 1.254 . S
O347 Pr321 2.490 . S
O347 C331 1.225 . S
O348 Pr320 2.436 1_655 S
O348 Pr321 2.695 1_565 S
O348 C338 1.270 1_565 S
O349 Pr321 2.512 . S
O349 C338 1.248 . S
O350 Pr320 2.438 1_545 S
O350 C339 1.267 . S
O351 Pr321 2.437 . S
O351 C339 1.278 1_655 S
H352 C324 0.929 . S
H353 C325 0.929 . S
H354 C327 0.931 1_655 S
H355 C328 0.930 1_655 S
H356 C333 0.929 . S
H357 C334 0.929 . S
H358 C336 0.931 1_455 S
H359 C337 0.930 1_455 S
Pr360 C362 2.880 . S
Pr360 O380 2.562 . S
Pr360 O381 2.490 . S
Pr360 O382 2.695 . S
Pr360 O383 2.512 . S
Pr360 O385 2.437 . S
Pr360 O388 2.436 1_545 S
Pr360 O390 2.438 . S
Pr361 C371 2.880 . S
Pr361 O382 2.436 1_565 S
Pr361 O384 2.438 . S
Pr361 O386 2.562 1_565 S
Pr361 O387 2.490 . S
Pr361 O388 2.695 . S
Pr361 O389 2.512 . S
Pr361 O391 2.437 . S
C362 Pr360 2.880 . S
C362 C363 1.491 . S
C362 O380 1.254 . S
C362 O381 1.225 . S
C363 C362 1.491 . S
C363 C364 1.392 . S
C363 C368 1.356 . S
C364 C363 1.392 . S
C364 C365 1.368 . S
C364 H392 0.929 . S
C365 C364 1.368 . S
C365 C366 1.386 . S
C365 H393 0.929 . S
C366 C365 1.386 . S
C366 C367 1.373 . S
C367 C366 1.373 . S
C367 C368 1.409 . S
C367 H394 0.931 1_545 S
C368 C363 1.356 . S
C368 C367 1.409 . S
C368 H395 0.930 1_545 S
C369 O382 1.270 . S
C369 O383 1.248 . S
C370 O384 1.267 . S
C370 O385 1.278 1_565 S
C371 Pr361 2.880 . S
C371 C372 1.491 . S
C371 O386 1.254 1_565 S
C371 O387 1.225 . S
C372 C371 1.491 . S
C372 C373 1.392 . S
C372 C377 1.346 1_565 S
C373 C372 1.392 . S
C373 C374 1.368 . S
C373 H396 0.929 . S
C374 C373 1.368 . S
C374 C375 1.386 . S
C374 H397 0.929 . S
C375 C374 1.386 . S
C375 C376 1.373 . S
C376 C375 1.373 . S
C376 C377 1.408 1_565 S
C376 H398 0.931 1_565 S
C377 C372 1.346 1_545 S
C377 C376 1.408 1_545 S
C377 H399 0.941 . S
C378 O388 1.270 . S
C378 O389 1.248 . S
C379 O390 1.267 . S
C379 O391 1.278 1_545 S
O380 Pr360 2.562 . S
O380 C362 1.254 . S
O381 Pr360 2.490 . S
O381 C362 1.225 . S
O382 Pr360 2.695 . S
O382 Pr361 2.436 1_545 S
O382 C369 1.270 . S
O383 Pr360 2.512 . S
O383 C369 1.248 . S
O384 Pr361 2.438 . S
O384 C370 1.267 . S
O385 Pr360 2.437 . S
O385 C370 1.278 1_545 S
O386 Pr361 2.562 1_545 S
O386 C371 1.254 1_545 S
O387 Pr361 2.490 . S
O387 C371 1.225 . S
O388 Pr360 2.436 1_565 S
O388 Pr361 2.695 . S
O388 C378 1.270 . S
O389 Pr361 2.512 . S
O389 C378 1.248 . S
O390 Pr360 2.438 . S
O390 C379 1.267 . S
O391 Pr361 2.437 . S
O391 C379 1.278 1_565 S
H392 C364 0.929 . S
H393 C365 0.929 . S
H394 C367 0.931 1_565 S
H395 C368 0.930 1_565 S
H396 C373 0.929 . S
H397 C374 0.929 . S
H398 C376 0.931 1_545 S
H399 C377 0.941 . S
Pr400 C402 2.880 . S
Pr400 O420 2.562 . S
Pr400 O421 2.490 . S
Pr400 O422 2.695 . S
Pr400 O423 2.512 . S
Pr400 O425 2.437 . S
Pr400 O428 2.436 . S
Pr400 O430 2.438 . S
Pr401 C411 2.880 . S
Pr401 O422 2.436 . S
Pr401 O424 2.438 . S
Pr401 O426 2.562 . S
Pr401 O427 2.490 . S
Pr401 O428 2.695 . S
Pr401 O429 2.512 . S
Pr401 O431 2.437 . S
C402 Pr400 2.880 . S
C402 C403 1.491 . S
C402 O420 1.254 . S
C402 O421 1.225 . S
C403 C402 1.491 . S
C403 C404 1.392 . S
C403 C408 1.356 . S
C404 C403 1.392 . S
C404 C405 1.368 . S
C404 H432 0.929 . S
C405 C404 1.368 . S
C405 C406 1.386 . S
C405 H433 0.929 . S
C406 C405 1.386 . S
C406 C407 1.373 . S
C407 C406 1.373 . S
C407 C408 1.409 . S
C407 H434 0.931 . S
C408 C403 1.356 . S
C408 C407 1.409 . S
C408 H435 0.930 . S
C409 O422 1.270 . S
C409 O423 1.248 . S
C410 O424 1.267 . S
C410 O425 1.278 . S
C411 Pr401 2.880 . S
C411 C412 1.491 . S
C411 O426 1.254 . S
C411 O427 1.225 . S
C412 C411 1.491 . S
C412 C413 1.392 . S
C412 C417 1.356 . S
C413 C412 1.392 . S
C413 C414 1.368 . S
C413 H436 0.929 . S
C414 C413 1.368 . S
C414 C415 1.386 . S
C414 H437 0.929 . S
C415 C414 1.386 . S
C415 C416 1.373 . S
C416 C415 1.373 . S
C416 C417 1.409 . S
C416 H438 0.931 . S
C417 C412 1.356 . S
C417 C416 1.409 . S
C417 H439 0.930 . S
C418 O428 1.270 . S
C418 O429 1.248 . S
C419 O430 1.267 . S
C419 O431 1.278 . S
O420 Pr400 2.562 . S
O420 C402 1.254 . S
O421 Pr400 2.490 . S
O421 C402 1.225 . S
O422 Pr400 2.695 . S
O422 Pr401 2.436 . S
O422 C409 1.270 . S
O423 Pr400 2.512 . S
O423 C409 1.248 . S
O424 Pr401 2.438 . S
O424 C410 1.267 . S
O425 Pr400 2.437 . S
O425 C410 1.278 . S
O426 Pr401 2.562 . S
O426 C411 1.254 . S
O427 Pr401 2.490 . S
O427 C411 1.225 . S
O428 Pr400 2.436 . S
O428 Pr401 2.695 . S
O428 C418 1.270 . S
O429 Pr401 2.512 . S
O429 C418 1.248 . S
O430 Pr400 2.438 . S
O430 C419 1.267 . S
O431 Pr401 2.437 . S
O431 C419 1.278 . S
H432 C404 0.929 . S
H433 C405 0.929 . S
H434 C407 0.931 . S
H435 C408 0.930 . S
H436 C413 0.929 . S
H437 C414 0.929 . S
H438 C416 0.931 . S
H439 C417 0.930 . S
Pr440 C442 2.880 . S
Pr440 O460 2.562 . S
Pr440 O461 2.490 . S
Pr440 O462 2.695 1_655 S
Pr440 O463 2.512 . S
Pr440 O465 2.437 . S
Pr440 O468 2.436 . S
Pr440 O470 2.438 1_655 S
Pr441 C451 2.880 . S
Pr441 O462 2.436 . S
Pr441 O464 2.438 1_455 S
Pr441 O466 2.562 . S
Pr441 O467 2.490 . S
Pr441 O468 2.695 1_455 S
Pr441 O469 2.512 . S
Pr441 O471 2.437 . S
C442 Pr440 2.880 . S
C442 C443 1.491 . S
C442 O460 1.254 . S
C442 O461 1.225 . S
C443 C442 1.491 . S
C443 C444 1.392 . S
C443 C448 1.356 . S
C444 C443 1.392 . S
C444 C445 1.368 . S
C444 H472 0.929 . S
C445 C444 1.368 . S
C445 C446 1.386 . S
C445 H473 0.929 . S
C446 C445 1.386 . S
C446 C447 1.373 . S
C447 C446 1.373 . S
C447 C448 1.409 . S
C447 H474 0.931 . S
C448 C443 1.356 . S
C448 C447 1.409 . S
C448 H475 0.930 . S
C449 O462 1.270 1_655 S
C449 O463 1.248 . S
C450 O464 1.267 . S
C450 O465 1.278 . S
C451 Pr441 2.880 . S
C451 C452 1.491 . S
C451 O466 1.254 . S
C451 O467 1.225 . S
C452 C451 1.491 . S
C452 C453 1.392 . S
C452 C457 1.356 . S
C453 C452 1.392 . S
C453 C454 1.368 . S
C453 H476 0.929 . S
C454 C453 1.368 . S
C454 C455 1.386 . S
C454 H477 0.929 . S
C455 C454 1.386 . S
C455 C456 1.373 . S
C456 C455 1.373 . S
C456 C457 1.409 . S
C456 H478 0.931 . S
C457 C452 1.356 . S
C457 C456 1.409 . S
C457 H479 0.930 . S
C458 O468 1.270 1_455 S
C458 O469 1.248 . S
C459 O470 1.267 . S
C459 O471 1.278 . S
O460 Pr440 2.562 . S
O460 C442 1.254 . S
O461 Pr440 2.490 . S
O461 C442 1.225 . S
O462 Pr440 2.695 1_455 S
O462 Pr441 2.436 . S
O462 C449 1.270 1_455 S
O463 Pr440 2.512 . S
O463 C449 1.248 . S
O464 Pr441 2.438 1_655 S
O464 C450 1.267 . S
O465 Pr440 2.437 . S
O465 C450 1.278 . S
O466 Pr441 2.562 . S
O466 C451 1.254 . S
O467 Pr441 2.490 . S
O467 C451 1.225 . S
O468 Pr440 2.436 . S
O468 Pr441 2.695 1_655 S
O468 C458 1.270 1_655 S
O469 Pr441 2.512 . S
O469 C458 1.248 . S
O470 Pr440 2.438 1_455 S
O470 C459 1.267 . S
O471 Pr441 2.437 . S
O471 C459 1.278 . S
H472 C444 0.929 . S
H473 C445 0.929 . S
H474 C447 0.931 . S
H475 C448 0.930 . S
H476 C453 0.929 . S
H477 C454 0.929 . S
H478 C456 0.931 . S
H479 C457 0.930 . S
H480 C498 0.951 . S
H481 C500 0.951 . S
H482 C502 0.950 1_565 S
H483 C503 0.950 1_565 S
H484 C505 0.950 . S
H485 C508 0.950 . S
H486 C509 0.950 . S
H487 C511 0.950 . S
H488 C512 0.950 1_545 S
H489 C513 0.951 . S
H490 C515 0.960 . S
H491 C517 0.950 . S
H492 C518 0.950 . S
H493 C520 0.950 1_565 S
H494 C523 0.950 . S
H495 C524 0.950 . S
H496 C526 0.950 . S
H497 C527 0.950 . S
C498 H480 0.951 . S
C498 C499 1.366 . S
C498 C500 1.388 . S
C499 C498 1.366 . S
C499 C503 1.385 . S
C500 H481 0.951 . S
C500 C498 1.388 . S
C500 C501 1.366 . S
C501 C500 1.366 . S
C501 C502 1.414 . S
C501 C504 1.499 . S
C502 H482 0.950 1_545 S
C502 C501 1.414 . S
C502 C503 1.374 . S
C503 H483 0.950 1_545 S
C503 C499 1.385 . S
C503 C502 1.374 . S
C504 C501 1.499 . S
C504 C505 1.373 . S
C504 C506 1.389 . S
C505 H484 0.950 . S
C505 C504 1.373 . S
C505 C521 1.377 . S
C506 C504 1.389 . S
C506 C507 1.524 1_545 S
C506 C520 1.377 . S
C507 C506 1.524 1_565 S
C507 C508 1.397 . S
C507 C512 1.363 . S
C508 H485 0.950 . S
C508 C507 1.397 . S
C508 C509 1.334 . S
C509 H486 0.950 . S
C509 C508 1.334 . S
C509 C510 1.287 . S
C510 C509 1.287 . S
C510 C511 1.524 . S
C510 H529 0.913 . S
C511 H487 0.950 . S
C511 C510 1.524 . S
C511 C512 1.415 . S
C512 H488 0.950 1_565 S
C512 C507 1.363 . S
C512 C511 1.415 . S
C513 H489 0.951 . S
C513 C514 1.366 1_565 S
C513 C515 1.389 . S
C514 C513 1.366 1_545 S
C514 C518 1.385 . S
C515 H490 0.960 . S
C515 C513 1.389 . S
C515 C516 1.355 1_565 S
C516 C515 1.355 1_545 S
C516 C517 1.414 . S
C516 C519 1.499 . S
C517 H491 0.950 . S
C517 C516 1.414 . S
C517 C518 1.374 . S
C518 H492 0.950 . S
C518 C514 1.385 . S
C518 C517 1.374 . S
C519 C516 1.499 . S
C519 C520 1.373 . S
C519 C521 1.389 . S
C520 H493 0.950 1_545 S
C520 C506 1.377 . S
C520 C519 1.373 . S
C521 C505 1.377 . S
C521 C519 1.389 . S
C521 C522 1.524 . S
C522 C521 1.524 . S
C522 C523 1.397 . S
C522 C527 1.363 . S
C523 H494 0.950 . S
C523 C522 1.397 . S
C523 C524 1.334 . S
C524 H495 0.950 . S
C524 C523 1.334 . S
C524 C525 1.287 . S
C525 C524 1.287 . S
C525 C526 1.524 . S
C525 H528 0.999 . S
C526 H496 0.950 . S
C526 C525 1.524 . S
C526 C527 1.415 . S
C527 H497 0.950 . S
C527 C522 1.363 . S
C527 C526 1.415 . S
H528 C525 0.999 . S
H529 C510 0.913 . S
H530 C548 0.951 . S
H531 C550 0.951 . S
H532 C552 0.950 . S
H533 C553 0.950 . S
H534 C555 0.950 . S
H535 C558 0.950 . S
H536 C559 0.950 . S
H537 C561 0.950 . S
H538 C562 0.950 . S
H539 C563 0.951 . S
H540 C565 0.951 . S
H541 C567 0.950 . S
H542 C568 0.950 . S
H543 C570 0.950 . S
H544 C573 0.950 . S
H545 C574 0.950 . S
H546 C576 0.950 . S
H547 C577 0.950 . S
C548 H530 0.951 . S
C548 C549 1.366 . S
C548 C550 1.388 . S
C549 C548 1.366 . S
C549 C553 1.385 . S
C550 H531 0.951 . S
C550 C548 1.388 . S
C550 C551 1.366 . S
C551 C550 1.366 . S
C551 C552 1.414 . S
C551 C554 1.499 . S
C552 H532 0.950 . S
C552 C551 1.414 . S
C552 C553 1.374 . S
C553 H533 0.950 . S
C553 C549 1.385 . S
C553 C552 1.374 . S
C554 C551 1.499 . S
C554 C555 1.373 . S
C554 C556 1.389 . S
C555 H534 0.950 . S
C555 C554 1.373 . S
C555 C571 1.377 . S
C556 C554 1.389 . S
C556 C557 1.524 . S
C556 C570 1.377 . S
C557 C556 1.524 . S
C557 C558 1.397 . S
C557 C562 1.363 . S
C558 H535 0.950 . S
C558 C557 1.397 . S
C558 C559 1.334 . S
C559 H536 0.950 . S
C559 C558 1.334 . S
C559 C560 1.287 . S
C560 C559 1.287 . S
C560 C561 1.524 . S
C560 H579 0.913 . S
C561 H537 0.950 . S
C561 C560 1.524 . S
C561 C562 1.415 . S
C562 H538 0.950 . S
C562 C557 1.363 . S
C562 C561 1.415 . S
C563 H539 0.951 . S
C563 C564 1.366 . S
C563 C565 1.388 . S
C564 C563 1.366 . S
C564 C568 1.385 . S
C565 H540 0.951 . S
C565 C563 1.388 . S
C565 C566 1.366 . S
C566 C565 1.366 . S
C566 C567 1.414 . S
C566 C569 1.499 . S
C567 H541 0.950 . S
C567 C566 1.414 . S
C567 C568 1.374 . S
C568 H542 0.950 . S
C568 C564 1.385 . S
C568 C567 1.374 . S
C569 C566 1.499 . S
C569 C570 1.373 . S
C569 C571 1.389 . S
C570 H543 0.950 . S
C570 C556 1.377 . S
C570 C569 1.373 . S
C571 C555 1.377 . S
C571 C569 1.389 . S
C571 C572 1.524 . S
C572 C571 1.524 . S
C572 C573 1.397 . S
C572 C577 1.363 . S
C573 H544 0.950 . S
C573 C572 1.397 . S
C573 C574 1.334 . S
C574 H545 0.950 . S
C574 C573 1.334 . S
C574 C575 1.287 . S
C575 C574 1.287 . S
C575 C576 1.524 . S
C575 H578 0.999 . S
C576 H546 0.950 . S
C576 C575 1.524 . S
C576 C577 1.415 . S
C577 H547 0.950 . S
C577 C572 1.363 . S
C577 C576 1.415 . S
H578 C575 0.999 . S
H579 C560 0.913 . S
H580 C598 0.951 . S
H581 C600 0.951 . S
H582 C602 0.950 . S
H583 C603 0.950 . S
H584 C605 0.950 . S
H585 C608 0.950 . S
H586 C609 0.950 . S
H587 C611 0.950 . S
H588 C612 0.950 . S
H589 C613 0.951 . S
H590 C615 0.951 . S
H591 C617 0.950 . S
H592 C618 0.950 . S
H593 C620 0.950 . S
H594 C623 0.950 . S
H595 C624 0.950 . S
H596 C626 0.950 . S
H597 C627 0.950 . S
C598 H580 0.951 . S
C598 C599 1.366 . S
C598 C600 1.388 . S
C599 C598 1.366 . S
C599 C603 1.385 . S
C600 H581 0.951 . S
C600 C598 1.388 . S
C600 C601 1.366 . S
C601 C600 1.366 . S
C601 C602 1.414 . S
C601 C604 1.499 . S
C602 H582 0.950 . S
C602 C601 1.414 . S
C602 C603 1.374 . S
C603 H583 0.950 . S
C603 C599 1.385 . S
C603 C602 1.374 . S
C604 C601 1.499 . S
C604 C605 1.373 . S
C604 C606 1.389 . S
C605 H584 0.950 . S
C605 C604 1.373 . S
C605 C621 1.377 . S
C606 C604 1.389 . S
C606 C607 1.524 . S
C606 C620 1.377 . S
C607 C606 1.524 . S
C607 C608 1.397 . S
C607 C612 1.363 . S
C608 H585 0.950 . S
C608 C607 1.397 . S
C608 C609 1.334 . S
C609 H586 0.950 . S
C609 C608 1.334 . S
C609 C610 1.287 . S
C610 C609 1.287 . S
C610 C611 1.524 . S
C610 H629 0.913 . S
C611 H587 0.950 . S
C611 C610 1.524 . S
C611 C612 1.415 . S
C612 H588 0.950 . S
C612 C607 1.363 . S
C612 C611 1.415 . S
C613 H589 0.951 . S
C613 C614 1.366 . S
C613 C615 1.388 . S
C614 C613 1.366 . S
C614 C618 1.385 . S
C615 H590 0.951 . S
C615 C613 1.388 . S
C615 C616 1.366 . S
C616 C615 1.366 . S
C616 C617 1.414 . S
C616 C619 1.499 . S
C617 H591 0.950 . S
C617 C616 1.414 . S
C617 C618 1.374 . S
C618 H592 0.950 . S
C618 C614 1.385 . S
C618 C617 1.374 . S
C619 C616 1.499 . S
C619 C620 1.373 . S
C619 C621 1.389 . S
C620 H593 0.950 . S
C620 C606 1.377 . S
C620 C619 1.373 . S
C621 C605 1.377 . S
C621 C619 1.389 . S
C621 C622 1.524 . S
C622 C621 1.524 . S
C622 C623 1.397 . S
C622 C627 1.363 . S
C623 H594 0.950 . S
C623 C622 1.397 . S
C623 C624 1.334 . S
C624 H595 0.950 . S
C624 C623 1.334 . S
C624 C625 1.287 . S
C625 C624 1.287 . S
C625 C626 1.524 . S
C625 H628 0.999 . S
C626 H596 0.950 . S
C626 C625 1.524 . S
C626 C627 1.415 . S
C627 H597 0.950 . S
C627 C622 1.363 . S
C627 C626 1.415 . S
H628 C625 0.999 . S
H629 C610 0.913 . S
H630 C648 0.951 . S
H631 C650 0.951 . S
H632 C652 0.950 . S
H633 C653 0.950 . S
H634 C655 0.950 . S
H635 C658 0.950 . S
H636 C659 0.950 . S
H637 C661 0.950 . S
H638 C662 0.950 . S
H639 C663 0.951 . S
H640 C665 0.951 . S
H641 C667 0.950 . S
H642 C668 0.950 . S
H643 C670 0.950 . S
H644 C673 0.950 . S
H645 C674 0.950 . S
H646 C676 0.950 . S
H647 C677 0.950 . S
C648 H630 0.951 . S
C648 C649 1.368 . S
C648 C650 1.388 . S
C649 C648 1.368 . S
C649 C653 1.383 1_455 S
C650 H631 0.951 . S
C650 C648 1.388 . S
C650 C651 1.403 . S
C651 C650 1.403 . S
C651 C652 1.376 1_455 S
C651 C654 1.498 . S
C652 H632 0.950 . S
C652 C651 1.376 1_655 S
C652 C653 1.374 . S
C653 H633 0.950 . S
C653 C649 1.383 1_655 S
C653 C652 1.374 . S
C654 C651 1.498 . S
C654 C655 1.345 1_455 S
C654 C656 1.417 . S
C655 H634 0.950 . S
C655 C654 1.345 1_655 S
C655 C671 1.377 . S
C656 C654 1.417 . S
C656 C657 1.524 . S
C656 C670 1.377 . S
C657 C656 1.524 . S
C657 C658 1.397 . S
C657 C662 1.363 . S
C658 H635 0.950 . S
C658 C657 1.397 . S
C658 C659 1.334 . S
C659 H636 0.950 . S
C659 C658 1.334 . S
C659 C660 1.287 . S
C660 C659 1.287 . S
C660 C661 1.524 . S
C660 H679 0.913 . S
C661 H637 0.950 . S
C661 C660 1.524 . S
C661 C662 1.415 . S
C662 H638 0.950 . S
C662 C657 1.363 . S
C662 C661 1.415 . S
C663 H639 0.951 . S
C663 C664 1.334 1_655 S
C663 C665 1.388 . S
C664 C663 1.334 1_455 S
C664 C668 1.417 . S
C665 H640 0.951 . S
C665 C663 1.388 . S
C665 C666 1.369 1_655 S
C666 C665 1.369 1_455 S
C666 C667 1.410 . S
C666 C669 1.498 . S
C667 H641 0.950 . S
C667 C666 1.410 . S
C667 C668 1.374 . S
C668 H642 0.950 . S
C668 C664 1.417 . S
C668 C667 1.374 . S
C669 C666 1.498 . S
C669 C670 1.388 . S
C669 C671 1.375 1_455 S
C670 H643 0.950 . S
C670 C656 1.377 . S
C670 C669 1.388 . S
C671 C655 1.377 . S
C671 C669 1.375 1_655 S
C671 C672 1.524 . S
C672 C671 1.524 . S
C672 C673 1.397 . S
C672 C677 1.363 . S
C673 H644 0.950 . S
C673 C672 1.397 . S
C673 C674 1.334 . S
C674 H645 0.950 . S
C674 C673 1.334 . S
C674 C675 1.287 . S
C675 C674 1.287 . S
C675 C676 1.524 . S
C675 H678 0.999 . S
C676 H646 0.950 . S
C676 C675 1.524 . S
C676 C677 1.415 . S
C677 H647 0.950 . S
C677 C672 1.363 . S
C677 C676 1.415 . S
H678 C675 0.999 . S
H679 C660 0.913 . S
H680 C698 0.944 1_545 S
H681 C700 0.952 . S
H682 C702 0.950 . S
H683 C703 0.950 . S
H684 C705 0.950 . S
H685 C708 0.950 . S
H686 C709 0.950 . S
H687 C711 0.950 . S
H688 C712 0.950 . S
H689 C713 0.951 . S
H690 C715 0.951 . S
H691 C717 0.950 . S
H692 C718 0.950 . S
H693 C720 0.950 . S
H694 C723 0.950 . S
H695 C724 0.950 . S
H696 C726 0.950 . S
H697 C727 0.950 . S
C698 H680 0.944 1_565 S
C698 C699 1.376 . S
C698 C700 1.386 1_565 S
C699 C698 1.376 . S
C699 C703 1.385 . S
C700 H681 0.952 . S
C700 C698 1.386 1_545 S
C700 C701 1.365 1_545 S
C701 C700 1.365 1_565 S
C701 C702 1.414 . S
C701 C704 1.499 . S
C702 H682 0.950 . S
C702 C701 1.414 . S
C702 C703 1.374 . S
C703 H683 0.950 . S
C703 C699 1.385 . S
C703 C702 1.374 . S
C704 C701 1.499 . S
C704 C705 1.373 1_554 S
C704 C706 1.389 1_564 S
C705 H684 0.950 . S
C705 C704 1.373 1_556 S
C705 C721 1.377 . S
C706 C704 1.389 1_546 S
C706 C707 1.524 1_556 S
C706 C720 1.377 . S
C707 C706 1.524 1_554 S
C707 C708 1.397 . S
C707 C712 1.363 . S
C708 H685 0.950 . S
C708 C707 1.397 . S
C708 C709 1.334 . S
C709 H686 0.950 . S
C709 C708 1.334 . S
C709 C710 1.287 . S
C710 C709 1.287 . S
C710 C711 1.524 . S
C710 H729 0.913 . S
C711 H687 0.950 . S
C711 C710 1.524 . S
C711 C712 1.415 . S
C712 H688 0.950 . S
C712 C707 1.363 . S
C712 C711 1.415 . S
C713 H689 0.951 . S
C713 C714 1.360 1_565 S
C713 C715 1.388 . S
C714 C713 1.360 1_545 S
C714 C718 1.389 . S
C715 H690 0.951 . S
C715 C713 1.388 . S
C715 C716 1.366 . S
C716 C715 1.366 . S
C716 C717 1.414 1_565 S
C716 C719 1.499 . S
C717 H691 0.950 . S
C717 C716 1.414 1_545 S
C717 C718 1.374 . S
C718 H692 0.950 . S
C718 C714 1.389 . S
C718 C717 1.374 . S
C719 C716 1.499 . S
C719 C720 1.373 1_565 S
C719 C721 1.389 . S
C720 H693 0.950 . S
C720 C706 1.377 . S
C720 C719 1.373 1_545 S
C721 C705 1.377 . S
C721 C719 1.389 . S
C721 C722 1.524 . S
C722 C721 1.524 . S
C722 C723 1.397 . S
C722 C727 1.363 . S
C723 H694 0.950 . S
C723 C722 1.397 . S
C723 C724 1.334 . S
C724 H695 0.950 . S
C724 C723 1.334 . S
C724 C725 1.287 . S
C725 C724 1.287 . S
C725 C726 1.524 . S
C725 H728 0.999 . S
C726 H696 0.950 . S
C726 C725 1.524 . S
C726 C727 1.415 . S
C727 H697 0.950 . S
C727 C722 1.363 . S
C727 C726 1.415 . S
H728 C725 0.999 . S
H729 C710 0.913 . S
H730 C748 0.951 . S
H731 C750 0.951 . S
H732 C752 0.950 . S
H733 C753 0.950 . S
H734 C755 0.952 . S
H735 C758 0.950 . S
H736 C759 0.950 . S
H737 C761 0.950 . S
H738 C762 0.950 . S
H739 C763 0.951 . S
H740 C765 0.951 . S
H741 C767 0.950 . S
H742 C768 0.950 . S
H743 C770 0.950 . S
H744 C773 0.950 . S
H745 C774 0.950 . S
H746 C776 0.950 . S
H747 C777 0.950 . S
C748 H730 0.951 . S
C748 C749 1.366 . S
C748 C750 1.388 . S
C749 C748 1.366 . S
C749 C753 1.385 . S
C750 H731 0.951 . S
C750 C748 1.388 . S
C750 C751 1.366 . S
C751 C750 1.366 . S
C751 C752 1.414 . S
C751 C754 1.499 . S
C752 H732 0.950 . S
C752 C751 1.414 . S
C752 C753 1.374 . S
C753 H733 0.950 . S
C753 C749 1.385 . S
C753 C752 1.374 . S
C754 C751 1.499 . S
C754 C755 1.373 1_554 S
C754 C756 1.389 1_554 S
C755 H734 0.952 . S
C755 C754 1.373 1_556 S
C755 C771 1.377 . S
C756 C754 1.389 1_556 S
C756 C757 1.518 1_556 S
C756 C770 1.377 . S
C757 C756 1.518 1_554 S
C757 C758 1.412 . S
C757 C762 1.353 1_554 S
C758 H735 0.950 . S
C758 C757 1.412 . S
C758 C759 1.334 . S
C759 H736 0.950 . S
C759 C758 1.334 . S
C759 C760 1.287 . S
C760 C759 1.287 . S
C760 C761 1.524 1_554 S
C760 H779 0.913 . S
C761 H737 0.950 . S
C761 C760 1.524 1_556 S
C761 C762 1.415 . S
C762 H738 0.950 . S
C762 C757 1.353 1_556 S
C762 C761 1.415 . S
C763 H739 0.951 . S
C763 C764 1.366 . S
C763 C765 1.388 . S
C764 C763 1.366 . S
C764 C768 1.385 . S
C765 H740 0.951 . S
C765 C763 1.388 . S
C765 C766 1.366 . S
C766 C765 1.366 . S
C766 C767 1.414 . S
C766 C769 1.499 . S
C767 H741 0.950 . S
C767 C766 1.414 . S
C767 C768 1.374 . S
C768 H742 0.950 . S
C768 C764 1.385 . S
C768 C767 1.374 . S
C769 C766 1.499 . S
C769 C770 1.373 . S
C769 C771 1.389 . S
C770 H743 0.950 . S
C770 C756 1.377 . S
C770 C769 1.373 . S
C771 C755 1.377 . S
C771 C769 1.389 . S
C771 C772 1.524 . S
C772 C771 1.524 . S
C772 C773 1.397 . S
C772 C777 1.363 . S
C773 H744 0.950 . S
C773 C772 1.397 . S
C773 C774 1.334 . S
C774 H745 0.950 . S
C774 C773 1.334 . S
C774 C775 1.287 . S
C775 C774 1.287 . S
C775 C776 1.524 . S
C775 H778 0.999 . S
C776 H746 0.950 . S
C776 C775 1.524 . S
C776 C777 1.415 . S
C777 H747 0.950 . S
C777 C772 1.363 . S
C777 C776 1.415 . S
H778 C775 0.999 . S
H779 C760 0.913 . S
H780 C798 0.951 . S
H781 C800 0.951 . S
H782 C802 0.950 . S
H783 C803 0.950 . S
H784 C805 0.950 1_554 S
H785 C808 0.950 . S
H786 C809 0.950 . S
H787 C811 0.950 . S
H788 C812 0.950 . S
H789 C813 0.951 . S
H790 C815 0.951 . S
H791 C817 0.950 . S
H792 C818 0.950 . S
H793 C820 0.950 . S
H794 C823 0.950 . S
H795 C824 0.950 . S
H796 C826 0.950 . S
H797 C827 0.950 . S
C798 H780 0.951 . S
C798 C799 1.366 . S
C798 C800 1.388 . S
C799 C798 1.366 . S
C799 C803 1.385 . S
C800 H781 0.951 . S
C800 C798 1.388 . S
C800 C801 1.366 . S
C801 C800 1.366 . S
C801 C802 1.414 . S
C801 C804 1.498 . S
C802 H782 0.950 . S
C802 C801 1.414 . S
C802 C803 1.374 . S
C803 H783 0.950 . S
C803 C799 1.385 . S
C803 C802 1.374 . S
C804 C801 1.498 . S
C804 C805 1.373 1_554 S
C804 C806 1.390 1_554 S
C805 H784 0.950 1_556 S
C805 C804 1.373 1_556 S
C805 C821 1.377 . S
C806 C804 1.390 1_556 S
C806 C807 1.524 . S
C806 C820 1.377 . S
C807 C806 1.524 . S
C807 C808 1.397 . S
C807 C812 1.363 . S
C808 H785 0.950 . S
C808 C807 1.397 . S
C808 C809 1.334 . S
C809 H786 0.950 . S
C809 C808 1.334 . S
C809 C810 1.287 . S
C810 C809 1.287 . S
C810 C811 1.524 . S
C810 H829 0.913 . S
C811 H787 0.950 . S
C811 C810 1.524 . S
C811 C812 1.415 . S
C812 H788 0.950 . S
C812 C807 1.363 . S
C812 C811 1.415 . S
C813 H789 0.951 . S
C813 C814 1.366 . S
C813 C815 1.388 . S
C814 C813 1.366 . S
C814 C818 1.385 . S
C815 H790 0.951 . S
C815 C813 1.388 . S
C815 C816 1.366 . S
C816 C815 1.366 . S
C816 C817 1.414 . S
C816 C819 1.499 . S
C817 H791 0.950 . S
C817 C816 1.414 . S
C817 C818 1.374 . S
C818 H792 0.950 . S
C818 C814 1.385 . S
C818 C817 1.374 . S
C819 C816 1.499 . S
C819 C820 1.373 . S
C819 C821 1.389 . S
C820 H793 0.950 . S
C820 C806 1.377 . S
C820 C819 1.373 . S
C821 C805 1.377 . S
C821 C819 1.389 . S
C821 C822 1.524 . S
C822 C821 1.524 . S
C822 C823 1.397 . S
C822 C827 1.363 . S
C823 H794 0.950 . S
C823 C822 1.397 . S
C823 C824 1.334 . S
C824 H795 0.950 . S
C824 C823 1.334 . S
C824 C825 1.287 . S
C825 C824 1.287 . S
C825 C826 1.524 . S
C825 H828 0.999 . S
C826 H796 0.950 . S
C826 C825 1.524 . S
C826 C827 1.415 . S
C827 H797 0.950 . S
C827 C822 1.363 . S
C827 C826 1.415 . S
H828 C825 0.999 . S
H829 C810 0.913 . S
H830 C848 0.951 . S
H831 C850 0.951 . S
H832 C852 0.950 . S
H833 C853 0.950 . S
H834 C855 0.950 1_554 S
H835 C858 0.950 . S
H836 C859 0.950 . S
H837 C861 0.950 . S
H838 C862 0.950 . S
H839 C863 0.951 . S
H840 C865 0.951 . S
H841 C867 0.950 . S
H842 C868 0.950 . S
H843 C870 0.950 . S
H844 C873 0.950 . S
H845 C874 0.950 . S
H846 C876 0.950 . S
H847 C877 0.950 . S
C848 H830 0.951 . S
C848 C849 1.361 1_455 S
C848 C850 1.388 . S
C849 C848 1.361 1_655 S
C849 C853 1.390 . S
C850 H831 0.951 . S
C850 C848 1.388 . S
C850 C851 1.370 1_455 S
C851 C850 1.370 1_655 S
C851 C852 1.409 . S
C851 C854 1.497 . S
C852 H832 0.950 . S
C852 C851 1.409 . S
C852 C853 1.374 . S
C853 H833 0.950 . S
C853 C849 1.390 . S
C853 C852 1.374 . S
C854 C851 1.497 . S
C854 C855 1.400 1_554 S
C854 C856 1.363 1_654 S
C855 H834 0.950 1_556 S
C855 C854 1.400 1_556 S
C855 C871 1.377 . S
C856 C854 1.363 1_456 S
C856 C857 1.524 . S
C856 C870 1.377 . S
C857 C856 1.524 . S
C857 C858 1.397 . S
C857 C862 1.363 . S
C858 H835 0.950 . S
C858 C857 1.397 . S
C858 C859 1.334 . S
C859 H836 0.950 . S
C859 C858 1.334 . S
C859 C860 1.287 . S
C860 C859 1.287 . S
C860 C861 1.524 . S
C860 H879 0.913 . S
C861 H837 0.950 . S
C861 C860 1.524 . S
C861 C862 1.415 . S
C862 H838 0.950 . S
C862 C857 1.363 . S
C862 C861 1.415 . S
C863 H839 0.951 . S
C863 C864 1.402 . S
C863 C865 1.388 . S
C864 C863 1.402 . S
C864 C868 1.349 1_655 S
C865 H840 0.951 . S
C865 C863 1.388 . S
C865 C866 1.411 . S
C866 C865 1.411 . S
C866 C867 1.368 1_655 S
C866 C869 1.498 . S
C867 H841 0.950 . S
C867 C866 1.368 1_455 S
C867 C868 1.374 . S
C868 H842 0.950 . S
C868 C864 1.349 1_455 S
C868 C867 1.374 . S
C869 C866 1.498 . S
C869 C870 1.362 1_655 S
C869 C871 1.400 . S
C870 H843 0.950 . S
C870 C856 1.377 . S
C870 C869 1.362 1_455 S
C871 C855 1.377 . S
C871 C869 1.400 . S
C871 C872 1.524 . S
C872 C871 1.524 . S
C872 C873 1.397 . S
C872 C877 1.363 . S
C873 H844 0.950 . S
C873 C872 1.397 . S
C873 C874 1.334 . S
C874 H845 0.950 . S
C874 C873 1.334 . S
C874 C875 1.287 . S
C875 C874 1.287 . S
C875 C876 1.524 . S
C875 H878 0.999 . S
C876 H846 0.950 . S
C876 C875 1.524 . S
C876 C877 1.415 . S
C877 H847 0.950 . S
C877 C872 1.363 . S
C877 C876 1.415 . S
H878 C875 0.999 . S
H879 C860 0.913 . S
H880 C898 0.951 . S
H881 C900 0.951 . S
H882 C902 0.950 . S
H883 C903 0.950 . S
H884 C905 0.950 . S
H885 C908 0.950 . S
H886 C909 0.950 . S
H887 C911 0.950 . S
H888 C912 0.950 . S
H889 C913 0.951 . S
H890 C915 0.951 . S
H891 C917 0.950 . S
H892 C918 0.950 . S
H893 C920 0.950 . S
H894 C923 0.950 . S
H895 C924 0.950 . S
H896 C926 0.950 . S
H897 C927 0.950 . S
C898 H880 0.951 . S
C898 C899 1.366 1_655 S
C898 C900 1.388 . S
C899 C898 1.366 1_455 S
C899 C903 1.385 . S
C900 H881 0.951 . S
C900 C898 1.388 . S
C900 C901 1.366 . S
C901 C900 1.366 . S
C901 C902 1.414 1_655 S
C901 C904 1.499 . S
C902 H882 0.950 . S
C902 C901 1.414 1_455 S
C902 C903 1.374 . S
C903 H883 0.950 . S
C903 C899 1.385 . S
C903 C902 1.374 . S
C904 C901 1.499 . S
C904 C905 1.373 1_655 S
C904 C906 1.389 . S
C905 H884 0.950 . S
C905 C904 1.373 1_455 S
C905 C921 1.377 . S
C906 C904 1.389 . S
C906 C907 1.524 . S
C906 C920 1.377 . S
C907 C906 1.524 . S
C907 C908 1.397 . S
C907 C912 1.363 . S
C908 H885 0.950 . S
C908 C907 1.397 . S
C908 C909 1.334 . S
C909 H886 0.950 . S
C909 C908 1.334 . S
C909 C910 1.287 . S
C910 C909 1.287 . S
C910 C911 1.524 . S
C910 H929 0.913 . S
C911 H887 0.950 . S
C911 C910 1.524 . S
C911 C912 1.415 . S
C912 H888 0.950 . S
C912 C907 1.363 . S
C912 C911 1.415 . S
C913 H889 0.951 . S
C913 C914 1.366 . S
C913 C915 1.388 . S
C914 C913 1.366 . S
C914 C918 1.385 . S
C915 H890 0.951 . S
C915 C913 1.388 . S
C915 C916 1.366 . S
C916 C915 1.366 . S
C916 C917 1.414 . S
C916 C919 1.499 . S
C917 H891 0.950 . S
C917 C916 1.414 . S
C917 C918 1.374 . S
C918 H892 0.950 . S
C918 C914 1.385 . S
C918 C917 1.374 . S
C919 C916 1.499 . S
C919 C920 1.373 . S
C919 C921 1.389 1_655 S
C920 H893 0.950 . S
C920 C906 1.377 . S
C920 C919 1.373 . S
C921 C905 1.377 . S
C921 C919 1.389 1_455 S
C921 C922 1.524 . S
C922 C921 1.524 . S
C922 C923 1.397 . S
C922 C927 1.363 . S
C923 H894 0.950 . S
C923 C922 1.397 . S
C923 C924 1.334 . S
C924 H895 0.950 . S
C924 C923 1.334 . S
C924 C925 1.287 . S
C925 C924 1.287 . S
C925 C926 1.524 . S
C925 H928 0.999 . S
C926 H896 0.950 . S
C926 C925 1.524 . S
C926 C927 1.415 . S
C927 H897 0.950 . S
C927 C922 1.363 . S
C927 C926 1.415 . S
H928 C925 0.999 . S
H929 C910 0.913 . S
H930 C948 0.951 . S
H931 C950 0.951 . S
H932 C952 0.950 . S
H933 C953 0.950 . S
H934 C955 0.950 . S
H935 C958 0.950 . S
H936 C959 0.950 . S
H937 C961 0.950 . S
H938 C962 0.950 . S
H939 C963 0.951 1_545 S
H940 C965 0.951 1_545 S
H941 C967 0.950 . S
H942 C968 0.950 . S
H943 C970 0.950 . S
H944 C973 0.950 . S
H945 C974 0.950 . S
H946 C976 0.950 . S
H947 C977 0.950 . S
C948 H930 0.951 . S
C948 C949 1.366 1_565 S
C948 C950 1.388 . S
C949 C948 1.366 1_545 S
C949 C953 1.385 . S
C950 H931 0.951 . S
C950 C948 1.388 . S
C950 C951 1.366 1_565 S
C951 C950 1.366 1_545 S
C951 C952 1.414 . S
C951 C954 1.494 1_545 S
C952 H932 0.950 . S
C952 C951 1.414 . S
C952 C953 1.374 . S
C953 H933 0.950 . S
C953 C949 1.385 . S
C953 C952 1.374 . S
C954 C951 1.494 1_565 S
C954 C955 1.355 1_565 S
C954 C956 1.413 . S
C955 H934 0.950 . S
C955 C954 1.355 1_545 S
C955 C971 1.377 . S
C956 C954 1.413 . S
C956 C957 1.524 . S
C956 C970 1.377 . S
C957 C956 1.524 . S
C957 C958 1.397 . S
C957 C962 1.363 . S
C958 H935 0.950 . S
C958 C957 1.397 . S
C958 C959 1.334 . S
C959 H936 0.950 . S
C959 C958 1.334 . S
C959 C960 1.287 . S
C960 C959 1.287 . S
C960 C961 1.524 . S
C960 H979 0.913 . S
C961 H937 0.950 . S
C961 C960 1.524 . S
C961 C962 1.415 . S
C962 H938 0.950 . S
C962 C957 1.363 . S
C962 C961 1.415 . S
C963 H939 0.951 1_565 S
C963 C964 1.366 . S
C963 C965 1.388 . S
C964 C963 1.366 . S
C964 C968 1.385 . S
C965 H940 0.951 1_565 S
C965 C963 1.388 . S
C965 C966 1.366 . S
C966 C965 1.366 . S
C966 C967 1.414 . S
C966 C969 1.499 . S
C967 H941 0.950 . S
C967 C966 1.414 . S
C967 C968 1.374 . S
C968 H942 0.950 . S
C968 C964 1.385 . S
C968 C967 1.374 . S
C969 C966 1.499 . S
C969 C970 1.373 . S
C969 C971 1.389 1_565 S
C970 H943 0.950 . S
C970 C956 1.377 . S
C970 C969 1.373 . S
C971 C955 1.377 . S
C971 C969 1.389 1_545 S
C971 C972 1.524 . S
C972 C971 1.524 . S
C972 C973 1.397 . S
C972 C977 1.363 . S
C973 H944 0.950 . S
C973 C972 1.397 . S
C973 C974 1.334 . S
C974 H945 0.950 . S
C974 C973 1.334 . S
C974 C975 1.287 . S
C975 C974 1.287 . S
C975 C976 1.524 . S
C975 H978 0.999 . S
C976 H946 0.950 . S
C976 C975 1.524 . S
C976 C977 1.415 . S
C977 H947 0.950 . S
C977 C972 1.363 . S
C977 C976 1.415 . S
H978 C975 0.999 . S
H979 C960 0.913 . S
H980 C998 0.951 . S
H981 C1000 0.951 . S
H982 C1002 0.950 . S
H983 C1003 0.950 . S
H984 C1005 0.950 . S
H985 C1008 0.950 . S
H986 C1009 0.950 . S
H987 C1011 0.950 . S
H988 C1012 0.950 . S
H989 C1013 0.951 . S
H990 C1015 0.951 . S
H991 C1017 0.950 . S
H992 C1018 0.950 . S
H993 C1020 0.950 . S
H994 C1023 0.950 . S
H995 C1024 0.950 . S
H996 C1026 0.950 . S
H997 C1027 0.950 . S
C998 H980 0.951 . S
C998 C999 1.366 . S
C998 C1000 1.388 . S
C999 C998 1.366 . S
C999 C1003 1.385 . S
C1000 H981 0.951 . S
C1000 C998 1.388 . S
C1000 C1001 1.366 . S
C1001 C1000 1.366 . S
C1001 C1002 1.414 . S
C1001 C1004 1.499 . S
C1002 H982 0.950 . S
C1002 C1001 1.414 . S
C1002 C1003 1.374 . S
C1003 H983 0.950 . S
C1003 C999 1.385 . S
C1003 C1002 1.374 . S
C1004 C1001 1.499 . S
C1004 C1005 1.373 . S
C1004 C1006 1.389 . S
C1005 H984 0.950 . S
C1005 C1004 1.373 . S
C1005 C1021 1.377 . S
C1006 C1004 1.389 . S
C1006 C1007 1.524 . S
C1006 C1020 1.377 . S
C1007 C1006 1.524 . S
C1007 C1008 1.397 . S
C1007 C1012 1.363 . S
C1008 H985 0.950 . S
C1008 C1007 1.397 . S
C1008 C1009 1.334 . S
C1009 H986 0.950 . S
C1009 C1008 1.334 . S
C1009 C1010 1.287 . S
C1010 C1009 1.287 . S
C1010 C1011 1.524 . S
C1010 H1029 0.913 . S
C1011 H987 0.950 . S
C1011 C1010 1.524 . S
C1011 C1012 1.415 . S
C1012 H988 0.950 . S
C1012 C1007 1.363 . S
C1012 C1011 1.415 . S
C1013 H989 0.951 . S
C1013 C1014 1.366 . S
C1013 C1015 1.388 . S
C1014 C1013 1.366 . S
C1014 C1018 1.385 . S
C1015 H990 0.951 . S
C1015 C1013 1.388 . S
C1015 C1016 1.366 . S
C1016 C1015 1.366 . S
C1016 C1017 1.414 . S
C1016 C1019 1.499 . S
C1017 H991 0.950 . S
C1017 C1016 1.414 . S
C1017 C1018 1.374 . S
C1018 H992 0.950 . S
C1018 C1014 1.385 . S
C1018 C1017 1.374 . S
C1019 C1016 1.499 . S
C1019 C1020 1.373 . S
C1019 C1021 1.389 . S
C1020 H993 0.950 . S
C1020 C1006 1.377 . S
C1020 C1019 1.373 . S
C1021 C1005 1.377 . S
C1021 C1019 1.389 . S
C1021 C1022 1.524 . S
C1022 C1021 1.524 . S
C1022 C1023 1.397 . S
C1022 C1027 1.363 . S
C1023 H994 0.950 . S
C1023 C1022 1.397 . S
C1023 C1024 1.334 . S
C1024 H995 0.950 . S
C1024 C1023 1.334 . S
C1024 C1025 1.287 . S
C1025 C1024 1.287 . S
C1025 C1026 1.524 . S
C1025 H1028 0.999 . S
C1026 H996 0.950 . S
C1026 C1025 1.524 . S
C1026 C1027 1.415 . S
C1027 H997 0.950 . S
C1027 C1022 1.363 . S
C1027 C1026 1.415 . S
H1028 C1025 0.999 . S
H1029 C1010 0.913 . S
H1030 C1048 0.951 . S
H1031 C1050 0.951 . S
H1032 C1052 0.950 . S
H1033 C1053 0.950 . S
H1034 C1055 0.950 . S
H1035 C1058 0.950 . S
H1036 C1059 0.950 . S
H1037 C1061 0.950 . S
H1038 C1062 0.950 . S
H1039 C1063 0.951 . S
H1040 C1065 0.951 . S
H1041 C1067 0.950 . S
H1042 C1068 0.950 . S
H1043 C1070 0.950 . S
H1044 C1073 0.950 . S
H1045 C1074 0.950 . S
H1046 C1076 0.950 . S
H1047 C1077 0.950 . S
C1048 H1030 0.951 . S
C1048 C1049 1.366 . S
C1048 C1050 1.388 . S
C1049 C1048 1.366 . S
C1049 C1053 1.385 . S
C1050 H1031 0.951 . S
C1050 C1048 1.388 . S
C1050 C1051 1.366 . S
C1051 C1050 1.366 . S
C1051 C1052 1.414 . S
C1051 C1054 1.499 . S
C1052 H1032 0.950 . S
C1052 C1051 1.414 . S
C1052 C1053 1.374 . S
C1053 H1033 0.950 . S
C1053 C1049 1.385 . S
C1053 C1052 1.374 . S
C1054 C1051 1.499 . S
C1054 C1055 1.373 . S
C1054 C1056 1.389 . S
C1055 H1034 0.950 . S
C1055 C1054 1.373 . S
C1055 C1071 1.377 . S
C1056 C1054 1.389 . S
C1056 C1057 1.524 . S
C1056 C1070 1.377 . S
C1057 C1056 1.524 . S
C1057 C1058 1.397 . S
C1057 C1062 1.363 . S
C1058 H1035 0.950 . S
C1058 C1057 1.397 . S
C1058 C1059 1.334 . S
C1059 H1036 0.950 . S
C1059 C1058 1.334 . S
C1059 C1060 1.287 . S
C1060 C1059 1.287 . S
C1060 C1061 1.524 . S
C1060 H1079 0.913 . S
C1061 H1037 0.950 . S
C1061 C1060 1.524 . S
C1061 C1062 1.415 . S
C1062 H1038 0.950 . S
C1062 C1057 1.363 . S
C1062 C1061 1.415 . S
C1063 H1039 0.951 . S
C1063 C1064 1.366 . S
C1063 C1065 1.388 . S
C1064 C1063 1.366 . S
C1064 C1068 1.385 . S
C1065 H1040 0.951 . S
C1065 C1063 1.388 . S
C1065 C1066 1.366 . S
C1066 C1065 1.366 . S
C1066 C1067 1.414 . S
C1066 C1069 1.499 . S
C1067 H1041 0.950 . S
C1067 C1066 1.414 . S
C1067 C1068 1.374 . S
C1068 H1042 0.950 . S
C1068 C1064 1.385 . S
C1068 C1067 1.374 . S
C1069 C1066 1.499 . S
C1069 C1070 1.373 . S
C1069 C1071 1.389 . S
C1070 H1043 0.950 . S
C1070 C1056 1.377 . S
C1070 C1069 1.373 . S
C1071 C1055 1.377 . S
C1071 C1069 1.389 . S
C1071 C1072 1.524 . S
C1072 C1071 1.524 . S
C1072 C1073 1.397 . S
C1072 C1077 1.363 . S
C1073 H1044 0.950 . S
C1073 C1072 1.397 . S
C1073 C1074 1.334 . S
C1074 H1045 0.950 . S
C1074 C1073 1.334 . S
C1074 C1075 1.287 . S
C1075 C1074 1.287 . S
C1075 C1076 1.524 . S
C1075 H1078 0.999 . S
C1076 H1046 0.950 . S
C1076 C1075 1.524 . S
C1076 C1077 1.415 . S
C1077 H1047 0.950 . S
C1077 C1072 1.363 . S
C1077 C1076 1.415 . S
H1078 C1075 0.999 . S
H1079 C1060 0.913 . S
H1080 C1098 0.951 . S
H1081 C1100 0.951 . S
H1082 C1102 0.950 1_556 S
H1083 C1103 0.950 . S
H1084 C1105 0.948 . S
H1085 C1108 0.950 . S
H1086 C1109 0.950 . S
H1087 C1111 0.950 . S
H1088 C1112 0.950 . S
H1089 C1113 0.948 . S
H1090 C1115 0.951 1_655 S
H1091 C1117 0.950 . S
H1092 C1118 0.950 . S
H1093 C1120 0.950 . S
H1094 C1123 0.950 . S
H1095 C1124 0.929 1_455 S
H1096 C1126 0.950 . S
H1097 C1127 0.950 . S
C1098 H1080 0.951 . S
C1098 C1099 1.366 1_455 S
C1098 C1100 1.388 . S
C1099 C1098 1.366 1_655 S
C1099 C1103 1.385 . S
C1100 H1081 0.951 . S
C1100 C1098 1.388 . S
C1100 C1101 1.366 1_554 S
C1101 C1100 1.366 1_556 S
C1101 C1102 1.414 1_456 S
C1101 C1104 1.499 . S
C1102 H1082 0.950 1_554 S
C1102 C1101 1.414 1_654 S
C1102 C1103 1.374 . S
C1103 H1083 0.950 . S
C1103 C1099 1.385 . S
C1103 C1102 1.374 . S
C1104 C1101 1.499 . S
C1104 C1105 1.375 1_455 S
C1104 C1106 1.389 . S
C1105 H1084 0.948 . S
C1105 C1104 1.375 1_655 S
C1105 C1121 1.377 1_655 S
C1106 C1104 1.389 . S
C1106 C1107 1.524 1_556 S
C1106 C1120 1.377 . S
C1107 C1106 1.524 1_554 S
C1107 C1108 1.397 . S
C1107 C1112 1.363 . S
C1108 H1085 0.950 . S
C1108 C1107 1.397 . S
C1108 C1109 1.334 . S
C1109 H1086 0.950 . S
C1109 C1108 1.334 . S
C1109 C1110 1.287 . S
C1110 C1109 1.287 . S
C1110 C1111 1.524 . S
C1110 H1129 0.913 . S
C1111 H1087 0.950 . S
C1111 C1110 1.524 . S
C1111 C1112 1.415 . S
C1112 H1088 0.950 . S
C1112 C1107 1.363 . S
C1112 C1111 1.415 . S
C1113 H1089 0.948 . S
C1113 C1114 1.366 . S
C1113 C1115 1.388 . S
C1114 C1113 1.366 . S
C1114 C1118 1.385 . S
C1115 H1090 0.951 1_455 S
C1115 C1113 1.388 . S
C1115 C1116 1.366 . S
C1116 C1115 1.366 . S
C1116 C1117 1.414 . S
C1116 C1119 1.499 . S
C1117 H1091 0.950 . S
C1117 C1116 1.414 . S
C1117 C1118 1.374 . S
C1118 H1092 0.950 . S
C1118 C1114 1.385 . S
C1118 C1117 1.374 . S
C1119 C1116 1.499 . S
C1119 C1120 1.373 . S
C1119 C1121 1.389 . S
C1120 H1093 0.950 . S
C1120 C1106 1.377 . S
C1120 C1119 1.373 . S
C1121 C1105 1.377 1_455 S
C1121 C1119 1.389 . S
C1121 C1122 1.524 1_455 S
C1122 C1121 1.524 1_655 S
C1122 C1123 1.397 1_655 S
C1122 C1127 1.363 . S
C1123 H1094 0.950 . S
C1123 C1122 1.397 1_455 S
C1123 C1124 1.320 1_455 S
C1124 H1095 0.929 1_655 S
C1124 C1123 1.320 1_655 S
C1124 C1125 1.324 . S
C1125 C1124 1.324 . S
C1125 C1126 1.524 . S
C1125 H1128 0.999 . S
C1126 H1096 0.950 . S
C1126 C1125 1.524 . S
C1126 C1127 1.415 . S
C1127 H1097 0.950 . S
C1127 C1122 1.363 . S
C1127 C1126 1.415 . S
H1128 C1125 0.999 . S
H1129 C1110 0.913 . S
H1130 C1148 0.951 . S
H1131 C1150 0.951 . S
H1132 C1152 0.950 . S
H1133 C1153 0.946 1_545 S
H1134 C1155 0.950 . S
H1135 C1158 0.950 . S
H1136 C1159 0.950 . S
H1137 C1161 0.950 . S
H1138 C1162 0.950 . S
H1139 C1163 0.951 . S
H1140 C1165 0.951 . S
H1141 C1167 0.950 . S
H1142 C1168 0.950 . S
H1143 C1170 0.980 . S
H1144 C1173 0.950 . S
H1145 C1174 0.950 . S
H1146 C1176 0.950 . S
H1147 C1177 0.950 . S
C1148 H1130 0.951 . S
C1148 C1149 1.366 . S
C1148 C1150 1.388 . S
C1149 C1148 1.366 . S
C1149 C1153 1.397 1_554 S
C1150 H1131 0.951 . S
C1150 C1148 1.388 . S
C1150 C1151 1.347 1_564 S
C1151 C1150 1.347 1_546 S
C1151 C1152 1.423 . S
C1151 C1154 1.515 . S
C1152 H1132 0.950 . S
C1152 C1151 1.423 . S
C1152 C1153 1.366 1_545 S
C1153 H1133 0.946 1_565 S
C1153 C1149 1.397 1_556 S
C1153 C1152 1.366 1_565 S
C1154 C1151 1.515 . S
C1154 C1155 1.373 . S
C1154 C1156 1.389 1_545 S
C1155 H1134 0.950 . S
C1155 C1154 1.373 . S
C1155 C1171 1.377 . S
C1156 C1154 1.389 1_565 S
C1156 C1157 1.524 . S
C1156 C1170 1.390 . S
C1157 C1156 1.524 . S
C1157 C1158 1.397 . S
C1157 C1162 1.363 1_556 S
C1158 H1135 0.950 . S
C1158 C1157 1.397 . S
C1158 C1159 1.334 . S
C1159 H1136 0.950 . S
C1159 C1158 1.334 . S
C1159 C1160 1.287 1_556 S
C1160 C1159 1.287 1_554 S
C1160 C1161 1.524 . S
C1160 H1179 0.913 . S
C1161 H1137 0.950 . S
C1161 C1160 1.524 . S
C1161 C1162 1.415 . S
C1162 H1138 0.950 . S
C1162 C1157 1.363 1_554 S
C1162 C1161 1.415 . S
C1163 H1139 0.951 . S
C1163 C1164 1.366 . S
C1163 C1165 1.388 . S
C1164 C1163 1.366 . S
C1164 C1168 1.385 . S
C1165 H1140 0.951 . S
C1165 C1163 1.388 . S
C1165 C1166 1.366 . S
C1166 C1165 1.366 . S
C1166 C1167 1.414 . S
C1166 C1169 1.499 . S
C1167 H1141 0.950 . S
C1167 C1166 1.414 . S
C1167 C1168 1.374 . S
C1168 H1142 0.950 . S
C1168 C1164 1.385 . S
C1168 C1167 1.374 . S
C1169 C1166 1.499 . S
C1169 C1170 1.332 1_545 S
C1169 C1171 1.389 . S
C1170 H1143 0.980 . S
C1170 C1156 1.390 . S
C1170 C1169 1.332 1_565 S
C1171 C1155 1.377 . S
C1171 C1169 1.389 . S
C1171 C1172 1.524 . S
C1172 C1171 1.524 . S
C1172 C1173 1.397 . S
C1172 C1177 1.363 . S
C1173 H1144 0.950 . S
C1173 C1172 1.397 . S
C1173 C1174 1.334 . S
C1174 H1145 0.950 . S
C1174 C1173 1.334 . S
C1174 C1175 1.287 . S
C1175 C1174 1.287 . S
C1175 C1176 1.524 . S
C1175 H1178 0.999 . S
C1176 H1146 0.950 . S
C1176 C1175 1.524 . S
C1176 C1177 1.415 . S
C1177 H1147 0.950 . S
C1177 C1172 1.363 . S
C1177 C1176 1.415 . S
H1178 C1175 0.999 . S
H1179 C1160 0.913 . S
H1180 C1198 0.951 . S
H1181 C1200 0.951 . S
H1182 C1202 0.950 . S
H1183 C1203 0.950 . S
H1184 C1205 0.950 1_554 S
H1185 C1208 0.950 . S
H1186 C1209 0.950 . S
H1187 C1211 0.950 . S
H1188 C1212 0.950 . S
H1189 C1213 0.951 . S
H1190 C1215 0.951 . S
H1191 C1217 0.950 . S
H1192 C1218 0.950 . S
H1193 C1220 0.950 . S
H1194 C1223 0.950 . S
H1195 C1224 0.950 . S
H1196 C1226 0.950 . S
H1197 C1227 0.950 . S
C1198 H1180 0.951 . S
C1198 C1199 1.366 1_556 S
C1198 C1200 1.388 . S
C1199 C1198 1.366 1_554 S
C1199 C1203 1.385 . S
C1200 H1181 0.951 . S
C1200 C1198 1.388 . S
C1200 C1201 1.366 . S
C1201 C1200 1.366 . S
C1201 C1202 1.414 1_556 S
C1201 C1204 1.499 . S
C1202 H1182 0.950 . S
C1202 C1201 1.414 1_554 S
C1202 C1203 1.374 . S
C1203 H1183 0.950 . S
C1203 C1199 1.385 . S
C1203 C1202 1.374 . S
C1204 C1201 1.499 . S
C1204 C1205 1.373 . S
C1204 C1206 1.389 . S
C1205 H1184 0.950 1_556 S
C1205 C1204 1.373 . S
C1205 C1221 1.377 . S
C1206 C1204 1.389 . S
C1206 C1207 1.524 . S
C1206 C1220 1.377 . S
C1207 C1206 1.524 . S
C1207 C1208 1.397 . S
C1207 C1212 1.363 . S
C1208 H1185 0.950 . S
C1208 C1207 1.397 . S
C1208 C1209 1.334 . S
C1209 H1186 0.950 . S
C1209 C1208 1.334 . S
C1209 C1210 1.287 . S
C1210 C1209 1.287 . S
C1210 C1211 1.524 . S
C1210 H1229 0.913 . S
C1211 H1187 0.950 . S
C1211 C1210 1.524 . S
C1211 C1212 1.415 . S
C1212 H1188 0.950 . S
C1212 C1207 1.363 . S
C1212 C1211 1.415 . S
C1213 H1189 0.951 . S
C1213 C1214 1.366 . S
C1213 C1215 1.388 . S
C1214 C1213 1.366 . S
C1214 C1218 1.385 . S
C1215 H1190 0.951 . S
C1215 C1213 1.388 . S
C1215 C1216 1.366 . S
C1216 C1215 1.366 . S
C1216 C1217 1.414 . S
C1216 C1219 1.499 . S
C1217 H1191 0.950 . S
C1217 C1216 1.414 . S
C1217 C1218 1.374 . S
C1218 H1192 0.950 . S
C1218 C1214 1.385 . S
C1218 C1217 1.374 . S
C1219 C1216 1.499 . S
C1219 C1220 1.373 . S
C1219 C1221 1.389 . S
C1220 H1193 0.950 . S
C1220 C1206 1.377 . S
C1220 C1219 1.373 . S
C1221 C1205 1.377 . S
C1221 C1219 1.389 . S
C1221 C1222 1.524 . S
C1222 C1221 1.524 . S
C1222 C1223 1.397 . S
C1222 C1227 1.363 1_556 S
C1223 H1194 0.950 . S
C1223 C1222 1.397 . S
C1223 C1224 1.334 . S
C1224 H1195 0.950 . S
C1224 C1223 1.334 . S
C1224 C1225 1.287 1_556 S
C1225 C1224 1.287 1_554 S
C1225 C1226 1.524 . S
C1225 H1228 0.999 . S
C1226 H1196 0.950 . S
C1226 C1225 1.524 . S
C1226 C1227 1.415 . S
C1227 H1197 0.950 . S
C1227 C1222 1.363 1_554 S
C1227 C1226 1.415 . S
H1228 C1225 0.999 . S
H1229 C1210 0.913 . S
H1230 C1248 0.951 . S
H1231 C1250 0.951 . S
H1232 C1252 0.950 . S
H1233 C1253 0.950 . S
H1234 C1255 0.950 1_554 S
H1235 C1258 0.950 . S
H1236 C1259 0.950 . S
H1237 C1261 0.950 . S
H1238 C1262 0.950 . S
H1239 C1263 0.951 . S
H1240 C1265 0.951 . S
H1241 C1267 0.950 . S
H1242 C1268 0.950 . S
H1243 C1270 0.950 . S
H1244 C1273 0.950 . S
H1245 C1274 0.950 . S
H1246 C1276 0.950 . S
H1247 C1277 0.950 . S
C1248 H1230 0.951 . S
C1248 C1249 1.366 1_556 S
C1248 C1250 1.388 . S
C1249 C1248 1.366 1_554 S
C1249 C1253 1.385 . S
C1250 H1231 0.951 . S
C1250 C1248 1.388 . S
C1250 C1251 1.366 . S
C1251 C1250 1.366 . S
C1251 C1252 1.414 1_556 S
C1251 C1254 1.499 . S
C1252 H1232 0.950 . S
C1252 C1251 1.414 1_554 S
C1252 C1253 1.374 . S
C1253 H1233 0.950 . S
C1253 C1249 1.385 . S
C1253 C1252 1.374 . S
C1254 C1251 1.499 . S
C1254 C1255 1.373 . S
C1254 C1256 1.389 . S
C1255 H1234 0.950 1_556 S
C1255 C1254 1.373 . S
C1255 C1271 1.377 . S
C1256 C1254 1.389 . S
C1256 C1257 1.524 . S
C1256 C1270 1.377 . S
C1257 C1256 1.524 . S
C1257 C1258 1.397 . S
C1257 C1262 1.363 . S
C1258 H1235 0.950 . S
C1258 C1257 1.397 . S
C1258 C1259 1.334 . S
C1259 H1236 0.950 . S
C1259 C1258 1.334 . S
C1259 C1260 1.287 . S
C1260 C1259 1.287 . S
C1260 C1261 1.524 . S
C1260 H1279 0.913 . S
C1261 H1237 0.950 . S
C1261 C1260 1.524 . S
C1261 C1262 1.415 . S
C1262 H1238 0.950 . S
C1262 C1257 1.363 . S
C1262 C1261 1.415 . S
C1263 H1239 0.951 . S
C1263 C1264 1.366 . S
C1263 C1265 1.388 . S
C1264 C1263 1.366 . S
C1264 C1268 1.385 . S
C1265 H1240 0.951 . S
C1265 C1263 1.388 . S
C1265 C1266 1.366 . S
C1266 C1265 1.366 . S
C1266 C1267 1.414 . S
C1266 C1269 1.499 . S
C1267 H1241 0.950 . S
C1267 C1266 1.414 . S
C1267 C1268 1.374 . S
C1268 H1242 0.950 . S
C1268 C1264 1.385 . S
C1268 C1267 1.374 . S
C1269 C1266 1.499 . S
C1269 C1270 1.373 . S
C1269 C1271 1.389 . S
C1270 H1243 0.950 . S
C1270 C1256 1.377 . S
C1270 C1269 1.373 . S
C1271 C1255 1.377 . S
C1271 C1269 1.389 . S
C1271 C1272 1.524 . S
C1272 C1271 1.524 . S
C1272 C1273 1.397 . S
C1272 C1277 1.363 1_556 S
C1273 H1244 0.950 . S
C1273 C1272 1.397 . S
C1273 C1274 1.334 . S
C1274 H1245 0.950 . S
C1274 C1273 1.334 . S
C1274 C1275 1.287 1_556 S
C1275 C1274 1.287 1_554 S
C1275 C1276 1.524 . S
C1275 H1278 0.999 . S
C1276 H1246 0.950 . S
C1276 C1275 1.524 . S
C1276 C1277 1.415 . S
C1277 H1247 0.950 . S
C1277 C1272 1.363 1_554 S
C1277 C1276 1.415 . S
H1278 C1275 0.999 . S
H1279 C1260 0.913 . S
H1280 C1298 0.951 . S
H1281 C1300 0.951 . S
H1282 C1302 0.950 . S
H1283 C1303 0.950 . S
H1284 C1305 0.940 1_655 S
H1285 C1308 0.950 . S
H1286 C1309 0.950 . S
H1287 C1311 0.950 . S
H1288 C1312 0.950 1_655 S
H1289 C1313 0.951 . S
H1290 C1315 0.951 . S
H1291 C1317 0.950 . S
H1292 C1318 0.950 . S
H1293 C1320 0.950 . S
H1294 C1323 0.950 . S
H1295 C1324 0.950 . S
H1296 C1326 0.948 1_455 S
H1297 C1327 0.950 . S
C1298 H1280 0.951 . S
C1298 C1299 1.366 1_655 S
C1298 C1300 1.388 . S
C1299 C1298 1.366 1_455 S
C1299 C1303 1.385 . S
C1300 H1281 0.951 . S
C1300 C1298 1.388 . S
C1300 C1301 1.366 1_655 S
C1301 C1300 1.366 1_455 S
C1301 C1302 1.414 . S
C1301 C1304 1.499 . S
C1302 H1282 0.950 . S
C1302 C1301 1.414 . S
C1302 C1303 1.374 . S
C1303 H1283 0.950 . S
C1303 C1299 1.385 . S
C1303 C1302 1.374 . S
C1304 C1301 1.499 . S
C1304 C1305 1.388 . S
C1304 C1306 1.389 . S
C1305 H1284 0.940 1_455 S
C1305 C1304 1.388 . S
C1305 C1321 1.376 . S
C1306 C1304 1.389 . S
C1306 C1307 1.524 . S
C1306 C1320 1.377 . S
C1307 C1306 1.524 . S
C1307 C1308 1.397 . S
C1307 C1312 1.363 . S
C1308 H1285 0.950 . S
C1308 C1307 1.397 . S
C1308 C1309 1.334 . S
C1309 H1286 0.950 . S
C1309 C1308 1.334 . S
C1309 C1310 1.287 . S
C1310 C1309 1.287 . S
C1310 C1311 1.524 . S
C1310 H1329 0.913 . S
C1311 H1287 0.950 . S
C1311 C1310 1.524 . S
C1311 C1312 1.415 . S
C1312 H1288 0.950 1_455 S
C1312 C1307 1.363 . S
C1312 C1311 1.415 . S
C1313 H1289 0.951 . S
C1313 C1314 1.366 . S
C1313 C1315 1.388 . S
C1314 C1313 1.366 . S
C1314 C1318 1.385 1_455 S
C1315 H1290 0.951 . S
C1315 C1313 1.388 . S
C1315 C1316 1.366 . S
C1316 C1315 1.366 . S
C1316 C1317 1.414 1_455 S
C1316 C1319 1.499 . S
C1317 H1291 0.950 . S
C1317 C1316 1.414 1_655 S
C1317 C1318 1.374 . S
C1318 H1292 0.950 . S
C1318 C1314 1.385 1_655 S
C1318 C1317 1.374 . S
C1319 C1316 1.499 . S
C1319 C1320 1.373 . S
C1319 C1321 1.394 . S
C1320 H1293 0.950 . S
C1320 C1306 1.377 . S
C1320 C1319 1.373 . S
C1321 C1305 1.376 . S
C1321 C1319 1.394 . S
C1321 C1322 1.518 1_455 S
C1322 C1321 1.518 1_655 S
C1322 C1323 1.397 . S
C1322 C1327 1.363 1_655 S
C1323 H1294 0.950 . S
C1323 C1322 1.397 . S
C1323 C1324 1.334 . S
C1324 H1295 0.950 . S
C1324 C1323 1.334 . S
C1324 C1325 1.287 . S
C1325 C1324 1.287 . S
C1325 C1326 1.524 . S
C1325 H1328 0.999 . S
C1326 H1296 0.948 1_655 S
C1326 C1325 1.524 . S
C1326 C1327 1.415 1_655 S
C1327 H1297 0.950 . S
C1327 C1322 1.363 1_455 S
C1327 C1326 1.415 1_455 S
H1328 C1325 0.999 . S
H1329 C1310 0.913 . S
H1330 C1348 0.951 . S
H1331 C1350 0.951 . S
H1332 C1352 0.973 . S
H1333 C1353 0.968 . S
H1334 C1355 0.950 . S
H1335 C1358 0.950 . S
H1336 C1359 0.950 . S
H1337 C1361 0.950 . S
H1338 C1362 0.950 1_545 S
H1339 C1363 0.951 . S
H1340 C1365 0.951 . S
H1341 C1367 0.950 . S
H1342 C1368 0.950 . S
H1343 C1370 0.964 . S
H1344 C1373 0.950 . S
H1345 C1374 0.950 . S
H1346 C1376 0.950 . S
H1347 C1377 0.950 . S
C1348 H1330 0.951 . S
C1348 C1349 1.366 . S
C1348 C1350 1.388 . S
C1349 C1348 1.366 . S
C1349 C1353 1.385 . S
C1350 H1331 0.951 . S
C1350 C1348 1.388 . S
C1350 C1351 1.366 . S
C1351 C1350 1.366 . S
C1351 C1352 1.414 . S
C1351 C1354 1.499 . S
C1352 H1332 0.973 . S
C1352 C1351 1.414 . S
C1352 C1353 1.374 . S
C1353 H1333 0.968 . S
C1353 C1349 1.385 . S
C1353 C1352 1.374 . S
C1354 C1351 1.499 . S
C1354 C1355 1.373 . S
C1354 C1356 1.389 . S
C1355 H1334 0.950 . S
C1355 C1354 1.373 . S
C1355 C1371 1.377 . S
C1356 C1354 1.389 . S
C1356 C1357 1.524 1_545 S
C1356 C1370 1.377 . S
C1357 C1356 1.524 1_565 S
C1357 C1358 1.397 . S
C1357 C1362 1.363 . S
C1358 H1335 0.950 . S
C1358 C1357 1.397 . S
C1358 C1359 1.334 . S
C1359 H1336 0.950 . S
C1359 C1358 1.334 . S
C1359 C1360 1.287 . S
C1360 C1359 1.287 . S
C1360 C1361 1.524 . S
C1360 H1379 0.913 . S
C1361 H1337 0.950 . S
C1361 C1360 1.524 . S
C1361 C1362 1.415 . S
C1362 H1338 0.950 1_565 S
C1362 C1357 1.363 . S
C1362 C1361 1.415 . S
C1363 H1339 0.951 . S
C1363 C1364 1.366 . S
C1363 C1365 1.388 . S
C1364 C1363 1.366 . S
C1364 C1368 1.385 . S
C1365 H1340 0.951 . S
C1365 C1363 1.388 . S
C1365 C1366 1.366 . S
C1366 C1365 1.366 . S
C1366 C1367 1.414 . S
C1366 C1369 1.499 . S
C1367 H1341 0.950 . S
C1367 C1366 1.414 . S
C1367 C1368 1.374 . S
C1368 H1342 0.950 . S
C1368 C1364 1.385 . S
C1368 C1367 1.374 . S
C1369 C1366 1.499 . S
C1369 C1370 1.373 . S
C1369 C1371 1.389 . S
C1370 H1343 0.964 . S
C1370 C1356 1.377 . S
C1370 C1369 1.373 . S
C1371 C1355 1.377 . S
C1371 C1369 1.389 . S
C1371 C1372 1.524 . S
C1372 C1371 1.524 . S
C1372 C1373 1.397 . S
C1372 C1377 1.363 . S
C1373 H1344 0.950 . S
C1373 C1372 1.397 . S
C1373 C1374 1.334 . S
C1374 H1345 0.950 . S
C1374 C1373 1.334 . S
C1374 C1375 1.287 . S
C1375 C1374 1.287 . S
C1375 C1376 1.524 . S
C1375 H1378 0.999 . S
C1376 H1346 0.950 . S
C1376 C1375 1.524 . S
C1376 C1377 1.415 . S
C1377 H1347 0.950 . S
C1377 C1372 1.363 . S
C1377 C1376 1.415 . S
H1378 C1375 0.999 . S
H1379 C1360 0.913 . S
H1380 C1398 0.951 . S
H1381 C1400 0.951 . S
H1382 C1402 0.950 . S
H1383 C1403 0.950 . S
H1384 C1405 0.950 . S
H1385 C1408 0.950 . S
H1386 C1409 0.950 . S
H1387 C1411 0.950 . S
H1388 C1412 0.950 . S
H1389 C1413 0.951 . S
H1390 C1415 0.951 . S
H1391 C1417 0.950 . S
H1392 C1418 0.950 . S
H1393 C1420 0.950 . S
H1394 C1423 0.950 . S
H1395 C1424 0.950 . S
H1396 C1426 0.950 . S
H1397 C1427 0.950 . S
C1398 H1380 0.951 . S
C1398 C1399 1.366 . S
C1398 C1400 1.388 . S
C1399 C1398 1.366 . S
C1399 C1403 1.385 . S
C1400 H1381 0.951 . S
C1400 C1398 1.388 . S
C1400 C1401 1.366 . S
C1401 C1400 1.366 . S
C1401 C1402 1.414 . S
C1401 C1404 1.499 . S
C1402 H1382 0.950 . S
C1402 C1401 1.414 . S
C1402 C1403 1.374 . S
C1403 H1383 0.950 . S
C1403 C1399 1.385 . S
C1403 C1402 1.374 . S
C1404 C1401 1.499 . S
C1404 C1405 1.373 . S
C1404 C1406 1.389 . S
C1405 H1384 0.950 . S
C1405 C1404 1.373 . S
C1405 C1421 1.377 . S
C1406 C1404 1.389 . S
C1406 C1407 1.524 . S
C1406 C1420 1.377 . S
C1407 C1406 1.524 . S
C1407 C1408 1.397 . S
C1407 C1412 1.363 . S
C1408 H1385 0.950 . S
C1408 C1407 1.397 . S
C1408 C1409 1.334 . S
C1409 H1386 0.950 . S
C1409 C1408 1.334 . S
C1409 C1410 1.287 . S
C1410 C1409 1.287 . S
C1410 C1411 1.524 . S
C1410 H1429 0.913 . S
C1411 H1387 0.950 . S
C1411 C1410 1.524 . S
C1411 C1412 1.415 . S
C1412 H1388 0.950 . S
C1412 C1407 1.363 . S
C1412 C1411 1.415 . S
C1413 H1389 0.951 . S
C1413 C1414 1.366 . S
C1413 C1415 1.388 . S
C1414 C1413 1.366 . S
C1414 C1418 1.385 . S
C1415 H1390 0.951 . S
C1415 C1413 1.388 . S
C1415 C1416 1.366 . S
C1416 C1415 1.366 . S
C1416 C1417 1.414 . S
C1416 C1419 1.499 . S
C1417 H1391 0.950 . S
C1417 C1416 1.414 . S
C1417 C1418 1.374 . S
C1418 H1392 0.950 . S
C1418 C1414 1.385 . S
C1418 C1417 1.374 . S
C1419 C1416 1.499 . S
C1419 C1420 1.373 . S
C1419 C1421 1.389 . S
C1420 H1393 0.950 . S
C1420 C1406 1.377 . S
C1420 C1419 1.373 . S
C1421 C1405 1.377 . S
C1421 C1419 1.389 . S
C1421 C1422 1.524 . S
C1422 C1421 1.524 . S
C1422 C1423 1.397 . S
C1422 C1427 1.363 . S
C1423 H1394 0.950 . S
C1423 C1422 1.397 . S
C1423 C1424 1.334 . S
C1424 H1395 0.950 . S
C1424 C1423 1.334 . S
C1424 C1425 1.287 . S
C1425 C1424 1.287 . S
C1425 C1426 1.524 . S
C1425 H1428 0.999 . S
C1426 H1396 0.950 . S
C1426 C1425 1.524 . S
C1426 C1427 1.415 . S
C1427 H1397 0.950 . S
C1427 C1422 1.363 . S
C1427 C1426 1.415 . S
H1428 C1425 0.999 . S
H1429 C1410 0.913 . S
H1430 C1448 0.951 . S
H1431 C1450 0.951 . S
H1432 C1452 0.950 . S
H1433 C1453 0.950 . S
H1434 C1455 0.950 . S
H1435 C1458 0.950 . S
H1436 C1459 0.950 . S
H1437 C1461 0.950 . S
H1438 C1462 0.950 . S
H1439 C1463 0.951 . S
H1440 C1465 0.951 . S
H1441 C1467 0.950 . S
H1442 C1468 0.950 . S
H1443 C1470 0.950 . S
H1444 C1473 0.950 . S
H1445 C1474 0.950 . S
H1446 C1476 0.950 . S
H1447 C1477 0.950 . S
C1448 H1430 0.951 . S
C1448 C1449 1.366 . S
C1448 C1450 1.388 . S
C1449 C1448 1.366 . S
C1449 C1453 1.385 . S
C1450 H1431 0.951 . S
C1450 C1448 1.388 . S
C1450 C1451 1.366 . S
C1451 C1450 1.366 . S
C1451 C1452 1.414 . S
C1451 C1454 1.499 . S
C1452 H1432 0.950 . S
C1452 C1451 1.414 . S
C1452 C1453 1.374 . S
C1453 H1433 0.950 . S
C1453 C1449 1.385 . S
C1453 C1452 1.374 . S
C1454 C1451 1.499 . S
C1454 C1455 1.373 . S
C1454 C1456 1.389 . S
C1455 H1434 0.950 . S
C1455 C1454 1.373 . S
C1455 C1471 1.377 . S
C1456 C1454 1.389 . S
C1456 C1457 1.524 . S
C1456 C1470 1.377 . S
C1457 C1456 1.524 . S
C1457 C1458 1.397 . S
C1457 C1462 1.363 . S
C1458 H1435 0.950 . S
C1458 C1457 1.397 . S
C1458 C1459 1.334 . S
C1459 H1436 0.950 . S
C1459 C1458 1.334 . S
C1459 C1460 1.287 . S
C1460 C1459 1.287 . S
C1460 C1461 1.524 . S
C1460 H1479 0.913 . S
C1461 H1437 0.950 . S
C1461 C1460 1.524 . S
C1461 C1462 1.415 . S
C1462 H1438 0.950 . S
C1462 C1457 1.363 . S
C1462 C1461 1.415 . S
C1463 H1439 0.951 . S
C1463 C1464 1.366 . S
C1463 C1465 1.388 . S
C1464 C1463 1.366 . S
C1464 C1468 1.385 . S
C1465 H1440 0.951 . S
C1465 C1463 1.388 . S
C1465 C1466 1.366 . S
C1466 C1465 1.366 . S
C1466 C1467 1.414 . S
C1466 C1469 1.499 . S
C1467 H1441 0.950 . S
C1467 C1466 1.414 . S
C1467 C1468 1.374 . S
C1468 H1442 0.950 . S
C1468 C1464 1.385 . S
C1468 C1467 1.374 . S
C1469 C1466 1.499 . S
C1469 C1470 1.373 . S
C1469 C1471 1.389 . S
C1470 H1443 0.950 . S
C1470 C1456 1.377 . S
C1470 C1469 1.373 . S
C1471 C1455 1.377 . S
C1471 C1469 1.389 . S
C1471 C1472 1.524 . S
C1472 C1471 1.524 . S
C1472 C1473 1.397 . S
C1472 C1477 1.363 . S
C1473 H1444 0.950 . S
C1473 C1472 1.397 . S
C1473 C1474 1.334 . S
C1474 H1445 0.950 . S
C1474 C1473 1.334 . S
C1474 C1475 1.287 . S
C1475 C1474 1.287 . S
C1475 C1476 1.524 . S
C1475 H1478 0.999 . S
C1476 H1446 0.950 . S
C1476 C1475 1.524 . S
C1476 C1477 1.415 . S
C1477 H1447 0.950 . S
C1477 C1472 1.363 . S
C1477 C1476 1.415 . S
H1478 C1475 0.999 . S
H1479 C1460 0.913 . S
H1480 C1498 0.951 . S
H1481 C1500 0.951 . S
H1482 C1502 0.950 . S
H1483 C1503 0.950 . S
H1484 C1505 0.950 . S
H1485 C1508 0.950 . S
H1486 C1509 0.950 . S
H1487 C1511 0.950 . S
H1488 C1512 0.950 . S
H1489 C1513 0.951 . S
H1490 C1515 0.951 . S
H1491 C1517 0.950 . S
H1492 C1518 0.950 . S
H1493 C1520 0.950 1_455 S
H1494 C1523 0.950 . S
H1495 C1524 0.950 . S
H1496 C1526 0.950 . S
H1497 C1527 0.950 . S
C1498 H1480 0.951 . S
C1498 C1499 1.366 1_455 S
C1498 C1500 1.388 . S
C1499 C1498 1.366 1_655 S
C1499 C1503 1.385 . S
C1500 H1481 0.951 . S
C1500 C1498 1.388 . S
C1500 C1501 1.366 1_455 S
C1501 C1500 1.366 1_655 S
C1501 C1502 1.414 . S
C1501 C1504 1.499 . S
C1502 H1482 0.950 . S
C1502 C1501 1.414 . S
C1502 C1503 1.374 . S
C1503 H1483 0.950 . S
C1503 C1499 1.385 . S
C1503 C1502 1.374 . S
C1504 C1501 1.499 . S
C1504 C1505 1.373 . S
C1504 C1506 1.389 . S
C1505 H1484 0.950 . S
C1505 C1504 1.373 . S
C1505 C1521 1.377 . S
C1506 C1504 1.389 . S
C1506 C1507 1.520 1_655 S
C1506 C1520 1.377 . S
C1507 C1506 1.520 1_455 S
C1507 C1508 1.362 1_455 S
C1507 C1512 1.400 . S
C1508 H1485 0.950 . S
C1508 C1507 1.362 1_655 S
C1508 C1509 1.334 . S
C1509 H1486 0.950 . S
C1509 C1508 1.334 . S
C1509 C1510 1.271 1_655 S
C1510 C1509 1.271 1_455 S
C1510 C1511 1.540 . S
C1510 H1529 0.912 . S
C1511 H1487 0.950 . S
C1511 C1510 1.540 . S
C1511 C1512 1.415 . S
C1512 H1488 0.950 . S
C1512 C1507 1.400 . S
C1512 C1511 1.415 . S
C1513 H1489 0.951 . S
C1513 C1514 1.366 . S
C1513 C1515 1.388 . S
C1514 C1513 1.366 . S
C1514 C1518 1.385 1_655 S
C1515 H1490 0.951 . S
C1515 C1513 1.388 . S
C1515 C1516 1.366 . S
C1516 C1515 1.366 . S
C1516 C1517 1.414 1_655 S
C1516 C1519 1.499 . S
C1517 H1491 0.950 . S
C1517 C1516 1.414 1_455 S
C1517 C1518 1.374 . S
C1518 H1492 0.950 . S
C1518 C1514 1.385 1_455 S
C1518 C1517 1.374 . S
C1519 C1516 1.499 . S
C1519 C1520 1.373 . S
C1519 C1521 1.389 . S
C1520 H1493 0.950 1_655 S
C1520 C1506 1.377 . S
C1520 C1519 1.373 . S
C1521 C1505 1.377 . S
C1521 C1519 1.389 . S
C1521 C1522 1.524 . S
C1522 C1521 1.524 . S
C1522 C1523 1.397 1_655 S
C1522 C1527 1.363 . S
C1523 H1494 0.950 . S
C1523 C1522 1.397 1_455 S
C1523 C1524 1.334 . S
C1524 H1495 0.950 . S
C1524 C1523 1.334 . S
C1524 C1525 1.287 1_455 S
C1525 C1524 1.287 1_655 S
C1525 C1526 1.524 . S
C1525 H1528 0.999 . S
C1526 H1496 0.950 . S
C1526 C1525 1.524 . S
C1526 C1527 1.415 . S
C1527 H1497 0.950 . S
C1527 C1522 1.363 . S
C1527 C1526 1.415 . S
H1528 C1525 0.999 . S
H1529 C1510 0.912 . S
H1530 C1548 0.951 . S
H1531 C1550 0.951 . S
H1532 C1552 0.950 . S
H1533 C1553 0.950 . S
H1534 C1555 0.950 . S
H1535 C1558 0.950 . S
H1536 C1559 0.950 . S
H1537 C1561 0.950 . S
H1538 C1562 0.950 . S
H1539 C1563 0.951 . S
H1540 C1565 0.951 . S
H1541 C1567 0.950 . S
H1542 C1568 0.950 . S
H1543 C1570 0.950 . S
H1544 C1573 0.950 . S
H1545 C1574 0.950 . S
H1546 C1576 0.950 . S
H1547 C1577 0.950 . S
C1548 H1530 0.951 . S
C1548 C1549 1.366 . S
C1548 C1550 1.388 . S
C1549 C1548 1.366 . S
C1549 C1553 1.385 1_565 S
C1550 H1531 0.951 . S
C1550 C1548 1.388 . S
C1550 C1551 1.366 . S
C1551 C1550 1.366 . S
C1551 C1552 1.414 1_565 S
C1551 C1554 1.499 . S
C1552 H1532 0.950 . S
C1552 C1551 1.414 1_545 S
C1552 C1553 1.374 . S
C1553 H1533 0.950 . S
C1553 C1549 1.385 1_545 S
C1553 C1552 1.374 . S
C1554 C1551 1.499 . S
C1554 C1555 1.373 1_565 S
C1554 C1556 1.389 . S
C1555 H1534 0.950 . S
C1555 C1554 1.373 1_545 S
C1555 C1571 1.377 . S
C1556 C1554 1.389 . S
C1556 C1557 1.524 . S
C1556 C1570 1.377 . S
C1557 C1556 1.524 . S
C1557 C1558 1.397 . S
C1557 C1562 1.363 . S
C1558 H1535 0.950 . S
C1558 C1557 1.397 . S
C1558 C1559 1.334 . S
C1559 H1536 0.950 . S
C1559 C1558 1.334 . S
C1559 C1560 1.287 . S
C1560 C1559 1.287 . S
C1560 C1561 1.524 . S
C1560 H1579 0.913 . S
C1561 H1537 0.950 . S
C1561 C1560 1.524 . S
C1561 C1562 1.415 . S
C1562 H1538 0.950 . S
C1562 C1557 1.363 . S
C1562 C1561 1.415 . S
C1563 H1539 0.951 . S
C1563 C1564 1.366 1_545 S
C1563 C1565 1.388 . S
C1564 C1563 1.366 1_565 S
C1564 C1568 1.385 . S
C1565 H1540 0.951 . S
C1565 C1563 1.388 . S
C1565 C1566 1.366 1_545 S
C1566 C1565 1.366 1_565 S
C1566 C1567 1.414 . S
C1566 C1569 1.499 . S
C1567 H1541 0.950 . S
C1567 C1566 1.414 . S
C1567 C1568 1.374 . S
C1568 H1542 0.950 . S
C1568 C1564 1.385 . S
C1568 C1567 1.374 . S
C1569 C1566 1.499 . S
C1569 C1570 1.373 . S
C1569 C1571 1.389 1_565 S
C1570 H1543 0.950 . S
C1570 C1556 1.377 . S
C1570 C1569 1.373 . S
C1571 C1555 1.377 . S
C1571 C1569 1.389 1_545 S
C1571 C1572 1.524 . S
C1572 C1571 1.524 . S
C1572 C1573 1.397 . S
C1572 C1577 1.363 . S
C1573 H1544 0.950 . S
C1573 C1572 1.397 . S
C1573 C1574 1.334 . S
C1574 H1545 0.950 . S
C1574 C1573 1.334 . S
C1574 C1575 1.287 . S
C1575 C1574 1.287 . S
C1575 C1576 1.524 . S
C1575 H1578 0.999 . S
C1576 H1546 0.950 . S
C1576 C1575 1.524 . S
C1576 C1577 1.415 . S
C1577 H1547 0.950 . S
C1577 C1572 1.363 . S
C1577 C1576 1.415 . S
H1578 C1575 0.999 . S
H1579 C1560 0.913 . S
H1580 C1598 0.951 . S
H1581 C1600 0.951 . S
H1582 C1602 0.950 . S
H1583 C1603 0.950 . S
H1584 C1605 0.950 . S
H1585 C1608 0.950 . S
H1586 C1609 0.950 . S
H1587 C1611 0.950 . S
H1588 C1612 0.950 . S
H1589 C1613 0.951 . S
H1590 C1615 0.951 . S
H1591 C1617 0.950 . S
H1592 C1618 0.950 . S
H1593 C1620 0.950 . S
H1594 C1623 0.950 . S
H1595 C1624 0.950 . S
H1596 C1626 0.950 . S
H1597 C1627 0.950 . S
C1598 H1580 0.951 . S
C1598 C1599 1.366 . S
C1598 C1600 1.388 . S
C1599 C1598 1.366 . S
C1599 C1603 1.385 . S
C1600 H1581 0.951 . S
C1600 C1598 1.388 . S
C1600 C1601 1.366 . S
C1601 C1600 1.366 . S
C1601 C1602 1.414 . S
C1601 C1604 1.499 . S
C1602 H1582 0.950 . S
C1602 C1601 1.414 . S
C1602 C1603 1.374 . S
C1603 H1583 0.950 . S
C1603 C1599 1.385 . S
C1603 C1602 1.374 . S
C1604 C1601 1.499 . S
C1604 C1605 1.373 . S
C1604 C1606 1.389 . S
C1605 H1584 0.950 . S
C1605 C1604 1.373 . S
C1605 C1621 1.377 . S
C1606 C1604 1.389 . S
C1606 C1607 1.524 . S
C1606 C1620 1.377 . S
C1607 C1606 1.524 . S
C1607 C1608 1.397 . S
C1607 C1612 1.363 . S
C1608 H1585 0.950 . S
C1608 C1607 1.397 . S
C1608 C1609 1.334 . S
C1609 H1586 0.950 . S
C1609 C1608 1.334 . S
C1609 C1610 1.287 . S
C1610 C1609 1.287 . S
C1610 C1611 1.524 . S
C1610 H1629 0.913 . S
C1611 H1587 0.950 . S
C1611 C1610 1.524 . S
C1611 C1612 1.415 . S
C1612 H1588 0.950 . S
C1612 C1607 1.363 . S
C1612 C1611 1.415 . S
C1613 H1589 0.951 . S
C1613 C1614 1.366 . S
C1613 C1615 1.388 . S
C1614 C1613 1.366 . S
C1614 C1618 1.385 . S
C1615 H1590 0.951 . S
C1615 C1613 1.388 . S
C1615 C1616 1.366 . S
C1616 C1615 1.366 . S
C1616 C1617 1.414 . S
C1616 C1619 1.499 . S
C1617 H1591 0.950 . S
C1617 C1616 1.414 . S
C1617 C1618 1.374 . S
C1618 H1592 0.950 . S
C1618 C1614 1.385 . S
C1618 C1617 1.374 . S
C1619 C1616 1.499 . S
C1619 C1620 1.373 . S
C1619 C1621 1.389 . S
C1620 H1593 0.950 . S
C1620 C1606 1.377 . S
C1620 C1619 1.373 . S
C1621 C1605 1.377 . S
C1621 C1619 1.389 . S
C1621 C1622 1.524 . S
C1622 C1621 1.524 . S
C1622 C1623 1.397 . S
C1622 C1627 1.363 . S
C1623 H1594 0.950 . S
C1623 C1622 1.397 . S
C1623 C1624 1.334 . S
C1624 H1595 0.950 . S
C1624 C1623 1.334 . S
C1624 C1625 1.287 . S
C1625 C1624 1.287 . S
C1625 C1626 1.524 . S
C1625 H1628 0.999 . S
C1626 H1596 0.950 . S
C1626 C1625 1.524 . S
C1626 C1627 1.415 . S
C1627 H1597 0.950 . S
C1627 C1622 1.363 . S
C1627 C1626 1.415 . S
H1628 C1625 0.999 . S
H1629 C1610 0.913 . S
H1630 C1648 0.951 . S
H1631 C1650 0.951 . S
H1632 C1652 0.950 . S
H1633 C1653 0.950 . S
H1634 C1655 0.950 . S
H1635 C1658 0.950 . S
H1636 C1659 0.950 . S
H1637 C1661 0.950 . S
H1638 C1662 0.950 . S
H1639 C1663 0.951 . S
H1640 C1665 0.951 . S
H1641 C1667 0.950 . S
H1642 C1668 0.950 . S
H1643 C1670 0.950 . S
H1644 C1673 0.950 . S
H1645 C1674 0.950 . S
H1646 C1676 0.950 . S
H1647 C1677 0.950 . S
C1648 H1630 0.951 . S
C1648 C1649 1.366 . S
C1648 C1650 1.388 . S
C1649 C1648 1.366 . S
C1649 C1653 1.385 . S
C1650 H1631 0.951 . S
C1650 C1648 1.388 . S
C1650 C1651 1.366 . S
C1651 C1650 1.366 . S
C1651 C1652 1.414 . S
C1651 C1654 1.499 . S
C1652 H1632 0.950 . S
C1652 C1651 1.414 . S
C1652 C1653 1.374 . S
C1653 H1633 0.950 . S
C1653 C1649 1.385 . S
C1653 C1652 1.374 . S
C1654 C1651 1.499 . S
C1654 C1655 1.373 . S
C1654 C1656 1.389 . S
C1655 H1634 0.950 . S
C1655 C1654 1.373 . S
C1655 C1671 1.377 . S
C1656 C1654 1.389 . S
C1656 C1657 1.524 . S
C1656 C1670 1.377 . S
C1657 C1656 1.524 . S
C1657 C1658 1.397 . S
C1657 C1662 1.363 . S
C1658 H1635 0.950 . S
C1658 C1657 1.397 . S
C1658 C1659 1.334 . S
C1659 H1636 0.950 . S
C1659 C1658 1.334 . S
C1659 C1660 1.287 . S
C1660 C1659 1.287 . S
C1660 C1661 1.524 . S
C1660 H1679 0.913 . S
C1661 H1637 0.950 . S
C1661 C1660 1.524 . S
C1661 C1662 1.415 . S
C1662 H1638 0.950 . S
C1662 C1657 1.363 . S
C1662 C1661 1.415 . S
C1663 H1639 0.951 . S
C1663 C1664 1.366 . S
C1663 C1665 1.388 . S
C1664 C1663 1.366 . S
C1664 C1668 1.385 . S
C1665 H1640 0.951 . S
C1665 C1663 1.388 . S
C1665 C1666 1.366 . S
C1666 C1665 1.366 . S
C1666 C1667 1.414 . S
C1666 C1669 1.499 . S
C1667 H1641 0.950 . S
C1667 C1666 1.414 . S
C1667 C1668 1.374 . S
C1668 H1642 0.950 . S
C1668 C1664 1.385 . S
C1668 C1667 1.374 . S
C1669 C1666 1.499 . S
C1669 C1670 1.373 . S
C1669 C1671 1.389 . S
C1670 H1643 0.950 . S
C1670 C1656 1.377 . S
C1670 C1669 1.373 . S
C1671 C1655 1.377 . S
C1671 C1669 1.389 . S
C1671 C1672 1.524 . S
C1672 C1671 1.524 . S
C1672 C1673 1.397 . S
C1672 C1677 1.363 . S
C1673 H1644 0.950 . S
C1673 C1672 1.397 . S
C1673 C1674 1.334 . S
C1674 H1645 0.950 . S
C1674 C1673 1.334 . S
C1674 C1675 1.287 . S
C1675 C1674 1.287 . S
C1675 C1676 1.524 . S
C1675 H1678 0.999 . S
C1676 H1646 0.950 . S
C1676 C1675 1.524 . S
C1676 C1677 1.415 . S
C1677 H1647 0.950 . S
C1677 C1672 1.363 . S
C1677 C1676 1.415 . S
H1678 C1675 0.999 . S
H1679 C1660 0.913 . S
C499 C255 1.959 . S
C514 C329 2.077 . S
C564 C369 2.080 . S
C549 C295 1.958 . S
C614 C409 2.081 . S
C599 C175 1.959 . S
C664 C449 2.073 1_455 S
C649 C215 1.955 . S
C714 C338 2.084 . S
C699 C95 1.963 . S
C749 C135 1.959 . S
C764 C378 2.080 . S
C799 C15 1.959 . S
C814 C418 2.082 . S
C849 C55 1.956 1_655 S
C864 C458 2.075 1_655 S
C914 C335 0.260 . S
C899 C221 0.277 . S
C964 C375 0.270 . S
C949 C261 0.274 . S
C1014 C415 0.257 . S
C999 C301 0.280 . S
C1049 C181 0.272 . S
C1064 C455 0.266 . S
C1099 C61 0.412 1_655 S
C1114 C326 0.244 . S
C1164 C366 0.266 . S
C1149 C101 0.423 . S
C1214 C406 0.257 . S
C1199 C141 0.407 . S
C1249 C21 0.427 . S
C1264 C446 0.274 . S
C1299 C202 2.798 . S
C1314 C339 3.068 . S
C1349 C242 2.795 . S
C1364 C379 3.063 . S
C1414 C419 3.064 . S
C1399 C282 2.792 . S
C1464 C459 3.070 . S
C1449 C162 2.795 . S
C1499 C42 2.809 1_655 S
C1514 C330 3.069 . S
C1564 C370 3.062 . S
C1549 C82 2.799 . S
C1614 C410 3.064 . S
C1599 C122 2.806 . S
C1649 C2 2.808 . S
C1664 C450 3.079 . S
