# Generated by pormake.
# Topology anh, (6,3)-cn, num edge types: 1
# Building blocks:
#     Node 0, Type 0, BuildingBlock: BETFAJ_clean_sbu_0, # of connection points: 6
#     Node 1, Type 0, BuildingBlock: BETFAJ_clean_sbu_0, # of connection points: 6
#     Node 2, Type 0, BuildingBlock: BETFAJ_clean_sbu_0, # of connection points: 6
#     Node 3, Type 1, BuildingBlock: WUSLED_clean_sbu_0, # of connection points: 3
#     Node 4, Type 1, BuildingBlock: WUSLED_clean_sbu_0, # of connection points: 3
#     Node 5, Type 1, BuildingBlock: WUSLED_clean_sbu_0, # of connection points: 3
#     Node 6, Type 1, BuildingBlock: WUSLED_clean_sbu_0, # of connection points: 3
#     Node 7, Type 1, BuildingBlock: WUSLED_clean_sbu_0, # of connection points: 3
#     Node 8, Type 1, BuildingBlock: WUSLED_clean_sbu_0, # of connection points: 3
#     Edge 9, Type (0, 1), BuildingBlock: XIVTED_clean_linker_0, # of connection points: 2
#     Edge 10, Type (0, 1), BuildingBlock: XIVTED_clean_linker_0, # of connection points: 2
#     Edge 11, Type (0, 1), BuildingBlock: XIVTED_clean_linker_0, # of connection points: 2
#     Edge 12, Type (0, 1), BuildingBlock: XIVTED_clean_linker_0, # of connection points: 2
#     Edge 13, Type (0, 1), BuildingBlock: XIVTED_clean_linker_0, # of connection points: 2
#     Edge 14, Type (0, 1), BuildingBlock: XIVTED_clean_linker_0, # of connection points: 2
#     Edge 15, Type (0, 1), BuildingBlock: XIVTED_clean_linker_0, # of connection points: 2
#     Edge 16, Type (0, 1), BuildingBlock: XIVTED_clean_linker_0, # of connection points: 2
#     Edge 17, Type (0, 1), BuildingBlock: XIVTED_clean_linker_0, # of connection points: 2
#     Edge 18, Type (0, 1), BuildingBlock: XIVTED_clean_linker_0, # of connection points: 2
#     Edge 19, Type (0, 1), BuildingBlock: XIVTED_clean_linker_0, # of connection points: 2
#     Edge 20, Type (0, 1), BuildingBlock: XIVTED_clean_linker_0, # of connection points: 2
#     Edge 21, Type (0, 1), BuildingBlock: XIVTED_clean_linker_0, # of connection points: 2
#     Edge 22, Type (0, 1), BuildingBlock: XIVTED_clean_linker_0, # of connection points: 2
#     Edge 23, Type (0, 1), BuildingBlock: XIVTED_clean_linker_0, # of connection points: 2
#     Edge 24, Type (0, 1), BuildingBlock: XIVTED_clean_linker_0, # of connection points: 2
#     Edge 25, Type (0, 1), BuildingBlock: XIVTED_clean_linker_0, # of connection points: 2
#     Edge 26, Type (0, 1), BuildingBlock: XIVTED_clean_linker_0, # of connection points: 2
# Relax obj value: 0.169
# Max RMSD: 0.201
# Mean RMSD: 0.149
data_MOF--net-anh--node1-BETFAJ_clean_sbu_0--node2-WUSLED_clean_sbu_0--edge1-XIVTED_clean_linker_0
_symmetry_space_group_name_H-M    P1
_symmetry_Int_Tables_number       1
_symmetry_cell_setting            triclinic
loop_
_symmetry_equiv_pos_as_xyz
'x, y, z'
_cell_length_a     40.242353
_cell_length_b     46.488485
_cell_length_c     69.871325
_cell_angle_alpha  91.916868
_cell_angle_beta   90.106562
_cell_angle_gamma 127.62212
loop_
_atom_site_label
_atom_site_type_symbol
_atom_site_fract_x
_atom_site_fract_y
_atom_site_fract_z
_atom_type_partial_charge
Sm0 Sm 0.09652 0.50141 0.16201 0.0
Sm1 Sm 1.0458 0.53406 0.16948 0.0
C2 C 0.13881 0.4816 0.147 0.0
C3 C 0.17606 0.48964 0.15635 0.0
C4 C 0.21308 0.50667 0.14624 0.0
C5 C 0.25075 0.52146 0.15605 0.0
C6 C 0.25167 0.51962 0.17611 0.0
C7 C 0.21457 0.50264 0.18618 0.0
C8 C 0.17698 0.4875 0.17636 0.0
C9 C 0.08991 0.5103 0.20106 0.0
C10 C 0.14858 0.59019 0.17093 0.0
C11 C 1.00769 0.55556 0.18744 0.0
C12 C 0.96281 0.53521 0.18837 0.0
C13 C 0.94447 0.5227 0.20616 0.0
C14 C 0.90177 0.49547 0.20707 0.0
C15 C 0.87674 0.48161 0.19026 0.0
C16 C 0.89513 0.49406 0.1724 0.0
C17 C 0.93805 0.52047 0.17144 0.0
C18 C 0.05209 0.52451 0.13034 0.0
C19 C 0.99346 0.44501 0.16552 0.0
O20 O 0.14363 0.51068 0.14158 0.0
O21 O 0.10352 0.45851 0.1557 0.0
O22 O 0.07762 0.51815 0.18704 0.0
O23 O 0.10767 0.49653 0.19427 0.0
O24 O 0.1507 0.56377 0.16519 0.0
O25 O 0.11288 0.58469 0.17392 0.0
O26 O 1.0208 0.53939 0.19595 0.0
O27 O 1.02426 0.56795 0.1707 0.0
O28 O 0.06498 0.51711 0.14431 0.0
O29 O 1.03407 0.53813 0.13711 0.0
O30 O 0.99287 0.47236 0.17092 0.0
O31 O 1.02764 0.44996 0.15927 0.0
H32 H 0.21296 0.50927 0.13088 0.0
H33 H 0.27895 0.53356 0.1479 0.0
H34 H 0.21461 0.50065 0.20158 0.0
H35 H 0.14883 0.47472 0.18455 0.0
H36 H 0.96352 0.53275 0.21926 0.0
H37 H 0.88812 0.48588 0.22095 0.0
H38 H 0.87637 0.48431 0.15923 0.0
H39 H 0.95177 0.52866 0.15746 0.0
Sm40 Sm 0.5829 1.00083 0.49107 0.0
Sm41 Sm 0.53486 0.02822 0.4863 0.0
C42 C 0.61094 0.96451 0.50102 0.0
C43 C 0.59592 0.92649 0.50141 0.0
C44 C 0.57687 0.90617 0.51776 0.0
C45 C 0.56674 0.8717 0.51888 0.0
C46 C 0.5755 0.85683 0.50369 0.0
C47 C 0.59284 0.87652 0.48702 0.0
C48 C 0.60311 0.91103 0.48593 0.0
C49 C 0.57612 0.01313 0.45356 0.0
C50 C 0.48039 0.94247 0.48385 0.0
C51 C 0.50804 0.06563 0.47705 0.0
C52 C 0.51942 0.10148 0.48293 0.0
C53 C 0.5355 0.12844 0.46943 0.0
C54 C 0.54587 0.16237 0.47465 0.0
C55 C 0.54012 0.16992 0.49348 0.0
C56 C 0.52474 0.14308 0.50706 0.0
C57 C 0.51469 0.1093 0.50188 0.0
C58 C 0.54237 0.01694 0.52404 0.0
C59 C 0.63847 0.08717 0.48999 0.0
O60 O 0.59487 0.97469 0.51316 0.0
O61 O 0.61678 0.97821 0.48422 0.0
O62 O 0.54639 0.99787 0.46511 0.0
O63 O 0.61044 0.02193 0.46155 0.0
O64 O 0.51359 0.94883 0.49255 0.0
O65 O 0.48246 0.96936 0.47675 0.0
O66 O 0.53592 0.066 0.46723 0.0
O67 O 0.48983 0.04043 0.48969 0.0
O68 O 0.57183 0.03149 0.51231 0.0
O69 O 0.50848 0.00924 0.5162 0.0
O70 O 0.60288 0.08039 0.48454 0.0
O71 O 0.63957 0.06099 0.49564 0.0
H72 H 0.57098 0.91732 0.52996 0.0
H73 H 0.55375 0.85744 0.532 0.0
H74 H 0.59925 0.86557 0.47492 0.0
H75 H 0.61768 0.92592 0.47311 0.0
H76 H 0.53992 0.12321 0.45479 0.0
H77 H 0.55842 0.18266 0.46394 0.0
H78 H 0.51947 0.14777 0.52164 0.0
H79 H 0.5028 0.08925 0.51269 0.0
Sm80 Sm 0.61581 0.56732 0.84112 0.0
Sm81 Sm 0.56131 0.48821 0.84677 0.0
C82 C 0.64796 0.63219 0.82831 0.0
C83 C 0.63554 0.65621 0.82726 0.0
C84 C 0.61878 0.65781 0.81005 0.0
C85 C 0.60819 0.6812 0.80864 0.0
C86 C 0.61419 0.70365 0.82442 0.0
C87 C 0.63045 0.7017 0.84174 0.0
C88 C 0.64112 0.67832 0.84314 0.0
C89 C 0.60699 0.55049 0.87859 0.0
C90 C 0.51214 0.52387 0.84873 0.0
C91 C 0.52801 0.42081 0.85554 0.0
C92 C 0.53508 0.3941 0.84949 0.0
C93 C 0.5552 0.38582 0.86206 0.0
C94 C 0.56203 0.36066 0.85646 0.0
C95 C 0.54871 0.34311 0.83818 0.0
C96 C 0.5287 0.35153 0.82561 0.0
C97 C 0.52204 0.37674 0.83116 0.0
C98 C 0.56946 0.50559 0.80895 0.0
C99 C 0.66623 0.5331 0.8467 0.0
O100 O 0.62654 0.60238 0.81738 0.0
O101 O 0.65721 0.62738 0.84527 0.0
O102 O 0.57792 0.53457 0.86608 0.0
O103 O 0.64218 0.57784 0.87189 0.0
O104 O 0.54723 0.55197 0.84106 0.0
O105 O 0.5113 0.49668 0.85482 0.0
O106 O 0.55795 0.44925 0.86592 0.0
O107 O 0.51137 0.42884 0.84275 0.0
O108 O 0.59936 0.52112 0.82119 0.0
O109 O 0.53465 0.47955 0.81637 0.0
O110 O 0.62866 0.50378 0.85132 0.0
O111 O 0.66981 0.56136 0.84009 0.0
H112 H 0.61435 0.64129 0.79753 0.0
H113 H 0.59638 0.68238 0.79499 0.0
H114 H 0.63496 0.71825 0.85425 0.0
H115 H 0.65398 0.67779 0.85664 0.0
H116 H 0.56573 0.39887 0.87624 0.0
H117 H 0.57805 0.35521 0.86641 0.0
H118 H 0.51744 0.33816 0.81153 0.0
H119 H 0.50646 0.38241 0.82107 0.0
C120 C 0.66388 0.11547 0.18986 0.0
C121 C 0.67673 0.14201 0.20452 0.0
C122 C 0.73757 0.18755 0.18608 0.0
C123 C 0.7133 0.17781 0.20263 0.0
C124 C 0.72418 0.16063 0.17154 0.0
C125 C 0.68791 0.1251 0.17346 0.0
U126 U 0.57154 0.02734 0.21415 0.0
O127 O 0.5067 0.98829 0.20257 0.0
O128 O 0.54785 0.97202 0.20455 0.0
C129 C 0.51138 0.96304 0.19885 0.0
C130 C 0.62543 0.07764 0.19072 0.0
C131 C 0.47441 0.92452 0.19859 0.0
C132 C 0.4316 0.8669 0.18033 0.0
C133 C 0.46681 0.90327 0.18204 0.0
C134 C 0.41072 0.87207 0.21196 0.0
C135 C 0.40306 0.85063 0.19526 0.0
C136 C 0.44619 0.90883 0.21361 0.0
C137 C 0.57067 0.03563 0.27113 0.0
C138 C 0.5448 0.99564 0.29797 0.0
C139 C 0.58097 0.06021 0.30365 0.0
C140 C 0.58534 0.06506 0.28402 0.0
C141 C 0.56162 0.02568 0.31092 0.0
C142 C 0.54959 1.00062 0.27813 0.0
C143 C 0.5823 0.04411 0.25101 0.0
O144 O 0.62973 0.05437 0.19799 0.0
O145 O 0.59081 0.07254 0.19579 0.0
O146 O 0.55914 0.04807 0.23983 0.0
O147 O 0.59847 0.02998 0.24219 0.0
H148 H 0.65859 0.13509 0.21734 0.0
H149 H 0.72276 0.19771 0.21419 0.0
H150 H 0.74132 0.16707 0.15844 0.0
H151 H 0.67836 0.10506 0.16194 0.0
H152 H 0.42642 0.85174 0.16709 0.0
H153 H 0.48802 0.91502 0.17019 0.0
H154 H 0.38957 0.86039 0.2238 0.0
H155 H 0.45149 0.9249 0.22649 0.0
H156 H 0.52979 0.96874 0.30323 0.0
H157 H 0.59377 0.08376 0.31324 0.0
H158 H 0.60179 0.09228 0.27891 0.0
H159 H 0.53813 0.97755 0.26838 0.0
C160 C 0.55879 0.57858 0.53741 0.0
C161 C 0.5505 0.59547 0.55151 0.0
C162 C 0.55751 0.63637 0.52808 0.0
C163 C 0.54976 0.6241 0.54687 0.0
C164 C 0.56544 0.61905 0.514 0.0
C165 C 0.5661 0.59042 0.51865 0.0
U166 U 0.56671 0.52393 0.57394 0.0
O167 O 0.60566 0.50552 0.57398 0.0
O168 O 0.53679 0.46552 0.57398 0.0
C169 C 0.5729 0.47101 0.57293 0.0
C170 C 0.56122 0.54939 0.54215 0.0
C171 C 0.57546 0.4475 0.55937 0.0
C172 C 0.54372 0.39746 0.53552 0.0
C173 C 0.54348 0.42387 0.54564 0.0
C174 C 0.60921 0.41984 0.5517 0.0
C175 C 0.5758 0.39433 0.53907 0.0
C176 C 0.60891 0.44599 0.56179 0.0
C177 C 0.57249 0.54667 0.62757 0.0
C178 C 0.55886 0.50722 0.65341 0.0
C179 C 0.59538 0.57155 0.66023 0.0
C180 C 0.59257 0.57635 0.64081 0.0
C181 C 0.57811 0.53686 0.66684 0.0
C182 C 0.55618 0.51209 0.63394 0.0
C183 C 0.56859 0.5525 0.60733 0.0
O184 O 0.59712 0.56038 0.54999 0.0
O185 O 0.52837 0.5217 0.5506 0.0
O186 O 0.53354 0.52633 0.59814 0.0
O187 O 0.60217 0.56583 0.59716 0.0
H188 H 0.5451 0.58678 0.56613 0.0
H189 H 0.5441 0.63716 0.55809 0.0
H190 H 0.57101 0.62754 0.49936 0.0
H191 H 0.57261 0.57767 0.50762 0.0
H192 H 0.51762 0.3782 0.52582 0.0
H193 H 0.51742 0.42466 0.54337 0.0
H194 H 0.63483 0.41861 0.55442 0.0
H195 H 0.63398 0.46403 0.57221 0.0
H196 H 0.54581 0.48023 0.65794 0.0
H197 H 0.61001 0.5949 0.67013 0.0
H198 H 0.60555 0.60326 0.63614 0.0
H199 H 0.54102 0.48883 0.62392 0.0
C200 C 0.99492 0.53144 0.86924 0.0
C201 C 0.95548 0.50462 0.87697 0.0
C202 C 0.92324 0.5329 0.86493 0.0
C203 C 0.92075 0.50545 0.875 0.0
C204 C 0.96328 0.55972 0.85738 0.0
C205 C 0.99781 0.55894 0.85948 0.0
U206 U 0.08778 0.52624 0.88728 0.0
O207 O 0.10908 0.49663 0.87295 0.0
O208 O 0.15141 0.55584 0.87497 0.0
C209 C 0.14648 0.52626 0.86907 0.0
C210 C 1.03164 0.52949 0.86879 0.0
C211 C 0.18438 0.52606 0.86875 0.0
C212 C 0.23993 0.53201 0.84969 0.0
C213 C 0.20512 0.53239 0.85137 0.0
C214 C 0.23563 0.51924 0.883 0.0
C215 C 0.25665 0.52565 0.86542 0.0
C216 C 0.20026 0.51935 0.88462 0.0
C217 C 0.08422 0.52259 0.94603 0.0
C218 C 0.11811 0.54859 0.97752 0.0
C219 C 1.0464 0.49377 0.97524 0.0
C220 C 1.04784 0.49453 0.95514 0.0
C221 C 0.08149 0.5209 0.98679 0.0
C222 C 0.11934 0.54954 0.95746 0.0
C223 C 0.08554 0.52394 0.92476 0.0
O224 O 0.06936 0.55818 0.87447 0.0
O225 O 1.02548 0.49904 0.87257 0.0
O226 O 0.0635 0.49446 0.91346 0.0
O227 O 0.10886 0.55467 0.91589 0.0
H228 H 0.95111 0.48249 0.88438 0.0
H229 H 0.89183 0.48388 0.88135 0.0
H230 H 0.96875 0.58165 0.84942 0.0
H231 H 1.02703 0.57982 0.85292 0.0
H232 H 0.25308 0.53619 0.83567 0.0
H233 H 0.19403 0.53743 0.83873 0.0
H234 H 0.24662 0.51447 0.89574 0.0
H235 H 0.18546 0.51426 0.89832 0.0
H236 H 0.14613 0.56959 0.98576 0.0
H237 H 1.01741 0.47229 0.9817 0.0
H238 H 1.02015 0.47348 0.94671 0.0
H239 H 0.148 0.5713 0.95087 0.0
C240 C 0.958 0.41975 0.46554 0.0
C241 C 0.94761 0.39276 0.45159 0.0
C242 C 0.88831 0.34633 0.47039 0.0
C243 C 0.91302 0.35631 0.45401 0.0
C244 C 0.89899 0.3737 0.48417 0.0
C245 C 0.93328 0.40987 0.48173 0.0
U246 U 1.04724 0.51063 0.4417 0.0
O247 O 0.11269 0.54812 0.45266 0.0
O248 O 0.07224 0.56526 0.45344 0.0
C249 C 0.10874 0.57322 0.45812 0.0
C250 C 0.99566 0.45798 0.46461 0.0
C251 C 0.1462 0.61154 0.45912 0.0
C252 C 0.19386 0.66602 0.4793 0.0
C253 C 0.15758 0.6302 0.477 0.0
C254 C 0.2079 0.66555 0.44564 0.0
C255 C 0.21975 0.68413 0.46373 0.0
C256 C 0.1714 0.62937 0.44336 0.0
C257 C 1.04069 0.50337 0.38396 0.0
C258 C 0.0731 0.54132 0.35638 0.0
C259 C 1.02271 0.47595 0.35173 0.0
C260 C 1.01793 0.47266 0.37146 0.0
C261 C 1.05083 0.51016 0.34384 0.0
C262 C 0.06812 0.53794 0.37637 0.0
C263 C 1.0338 0.49697 0.40461 0.0
O264 O 1.03007 0.46407 0.45826 0.0
O265 O 0.99008 0.48137 0.45881 0.0
O266 O 1.01897 0.51107 0.4147 0.0
O267 O 0.05786 0.49224 0.41449 0.0
H268 H 0.96636 0.39977 0.43898 0.0
H269 H 0.90549 0.33604 0.44302 0.0
H270 H 0.88137 0.36714 0.49713 0.0
H271 H 0.94103 0.43019 0.49276 0.0
H272 H 0.20152 0.6796 0.49333 0.0
H273 H 0.13847 0.61684 0.48934 0.0
H274 H 0.2273 0.6787 0.43338 0.0
H275 H 0.16314 0.6153 0.42946 0.0
H276 H 0.09507 0.56808 0.3508 0.0
H277 H 1.00427 0.45142 0.34262 0.0
H278 H 0.99629 0.44578 0.37701 0.0
H279 H 0.08584 0.56205 0.38581 0.0
C280 C 0.56824 0.94891 0.79467 0.0
C281 C 0.56365 0.92557 0.77981 0.0
C282 C 0.57304 0.89248 0.80271 0.0
C283 C 0.56598 0.89753 0.7838 0.0
C284 C 0.577 0.91573 0.81754 0.0
C285 C 0.5747 0.94371 0.81352 0.0
U286 U 0.56367 0.00761 0.75966 0.0
O287 O 0.59979 0.06697 0.75953 0.0
O288 O 0.53098 0.032 0.76136 0.0
C289 C 0.56623 0.06538 0.76149 0.0
C290 C 0.56745 0.97934 0.79071 0.0
C291 C 0.57041 0.093 0.77465 0.0
C292 C 0.54269 0.1115 0.79893 0.0
C293 C 0.54193 0.08411 0.78927 0.0
C294 C 0.60182 0.15677 0.78031 0.0
C295 C 0.57171 0.14799 0.79398 0.0
C296 C 0.60103 0.1296 0.77073 0.0
C297 C 0.5583 0.98507 0.70555 0.0
C298 C 0.56505 0.0224 0.67991 0.0
C299 C 0.55256 0.96526 0.67228 0.0
C300 C 0.55196 0.95943 0.6918 0.0
C301 C 0.55949 0.99694 0.66605 0.0
C302 C 0.5646 0.01657 0.69953 0.0
C303 C 0.55948 0.97859 0.72594 0.0
O304 O 0.60084 0.00668 0.78239 0.0
O305 O 0.53208 0.97034 0.78325 0.0
O306 O 0.52616 0.968 0.73573 0.0
O307 O 0.59494 1.00295 0.73536 0.0
H308 H 0.5588 0.92933 0.76512 0.0
H309 H 0.56328 0.8804 0.77202 0.0
H310 H 0.58178 0.91226 0.83228 0.0
H311 H 0.57825 0.96148 0.82516 0.0
H312 H 0.51917 0.10389 0.80945 0.0
H313 H 0.51804 0.05604 0.79266 0.0
H314 H 0.62522 0.18468 0.77649 0.0
H315 H 0.62332 0.13715 0.75955 0.0
H316 H 0.5706 0.04714 0.67559 0.0
H317 H 0.54732 0.94476 0.66204 0.0
H318 H 0.54687 0.9349 0.69619 0.0
H319 H 0.5696 0.03673 0.70997 0.0
C320 C 0.57221 0.45727 0.14268 0.0
C321 C 0.60127 0.45815 0.1312 0.0
C322 C 0.62892 0.4498 0.15917 0.0
C323 C 0.62973 0.45454 0.13944 0.0
C324 C 0.60063 0.45011 0.1707 0.0
C325 C 0.57218 0.45383 0.16242 0.0
U326 U 0.52339 0.45496 0.09741 0.0
O327 O 0.50295 0.48706 0.08891 0.0
O328 O 0.45727 0.42738 0.08921 0.0
C329 C 0.46333 0.45862 0.08995 0.0
C330 C 0.54014 0.45719 0.13361 0.0
C331 C 0.44249 0.46279 0.10559 0.0
C332 C 0.43823 0.4664 0.14015 0.0
C333 C 0.44691 0.45401 0.12404 0.0
C334 C 0.41812 0.49477 0.11955 0.0
C335 C 0.42484 0.48763 0.13799 0.0
C336 C 0.42723 0.48258 0.10337 0.0
C337 C 0.56604 0.45526 0.05066 0.0
C338 C 0.53274 0.45974 0.02327 0.0
C339 C 0.60173 0.47446 0.0207 0.0
C340 C 0.6007 0.46618 0.03976 0.0
C341 C 0.56816 0.47203 0.01247 0.0
C342 C 0.53178 0.45156 0.04232 0.0
C343 C 0.56801 0.45305 0.07126 0.0
O344 O 0.55473 0.48655 0.12418 0.0
O345 O 0.51204 0.42667 0.12388 0.0
O346 O 0.53489 0.42341 0.07844 0.0
O347 O 0.58046 0.48316 0.0807 0.0
H348 H 0.6012 0.46076 0.11584 0.0
H349 H 0.65197 0.45507 0.13043 0.0
H350 H 0.59972 0.44639 0.18597 0.0
H351 H 0.54957 0.45304 0.17127 0.0
H352 H 0.44356 0.46065 0.15425 0.0
H353 H 0.45918 0.43915 0.12609 0.0
H354 H 0.40684 0.51055 0.11771 0.0
H355 H 0.42437 0.49008 0.0893 0.0
H356 H 0.50674 0.45808 0.01727 0.0
H357 H 0.62918 0.48358 0.01252 0.0
H358 H 0.62754 0.46964 0.04617 0.0
H359 H 0.50516 0.44387 0.05079 0.0
H360 H 0.25858 0.4795 0.20061 0.0
H361 H 0.45741 0.55791 0.14585 0.0
H362 H 0.33149 0.5822 0.17321 0.0
H363 H 0.37734 0.45108 0.16859 0.0
H364 H 0.43305 0.57968 0.17003 0.0
H365 H 0.32131 0.48374 0.20471 0.0
C366 C 0.28829 0.50387 0.19629 0.0
C367 C 0.28995 0.52983 0.18579 0.0
C368 C 0.42169 0.55173 0.17015 0.0
C369 C 0.36103 0.53406 0.18972 0.0
C370 C 0.43526 0.5393 0.15625 0.0
C371 C 0.41785 0.50249 0.15491 0.0
C372 C 0.38941 0.52673 0.1822 0.0
C373 C 0.39049 0.47953 0.16896 0.0
C374 C 0.32415 0.50621 0.19855 0.0
C375 C 0.32901 0.56095 0.18069 0.0
N376 N 0.37607 0.4918 0.18175 0.0
N377 N 0.36305 0.56171 0.18215 0.0
H378 H 0.7196 0.11147 0.48459 0.0
H379 H 0.8123 0.32077 0.48537 0.0
H380 H 0.64535 0.14905 0.49258 0.0
H381 H 0.88026 0.28364 0.46236 0.0
H382 H 0.75364 0.25822 0.49158 0.0
H383 H 0.78155 0.17459 0.47987 0.0
C384 C 0.71648 0.13302 0.48563 0.0
C385 C 0.67732 0.12503 0.48901 0.0
C386 C 0.7813 0.26365 0.48511 0.0
C387 C 0.7477 0.19698 0.48362 0.0
C388 C 0.81504 0.29951 0.48165 0.0
C389 C 0.85158 0.30774 0.47336 0.0
C390 C 0.78375 0.23544 0.4803 0.0
C391 C 0.85267 0.27867 0.46859 0.0
C392 C 0.7517 0.16893 0.48278 0.0
C393 C 0.67488 0.15391 0.48995 0.0
N394 N 0.81934 0.24384 0.47218 0.0
N395 N 0.70949 0.18847 0.48731 0.0
H396 H 0.54875 0.69401 0.80464 0.0
H397 H 0.62828 0.89691 0.82801 0.0
H398 H 0.65886 0.77337 0.83974 0.0
H399 H 0.52804 0.82271 0.7871 0.0
H400 H 0.63573 0.84996 0.83466 0.0
H401 H 0.53711 0.73909 0.79997 0.0
C402 C 0.57051 0.72089 0.81137 0.0
C403 C 0.60501 0.72991 0.82251 0.0
C404 C 0.61208 0.84391 0.82423 0.0
C405 C 0.59146 0.78151 0.81743 0.0
C406 C 0.60757 0.87065 0.82052 0.0
C407 C 0.57744 0.86381 0.80697 0.0
C408 C 0.58633 0.80998 0.81433 0.0
C409 C 0.55205 0.8294 0.79748 0.0
C410 C 0.5637 0.74656 0.80876 0.0
C411 C 0.63159 0.76498 0.8312 0.0
N412 N 0.55709 0.80378 0.80133 0.0
N413 N 0.62432 0.78949 0.82843 0.0
H414 H 0.81605 0.42369 0.16706 0.0
H415 H 0.6762 0.48247 0.19159 0.0
H416 H 0.8351 0.49239 0.21588 0.0
H417 H 0.64554 0.40438 0.14585 0.0
H418 H 0.72597 0.47502 0.20491 0.0
H419 H 0.74427 0.40346 0.16348 0.0
C420 C 0.80458 0.43342 0.1774 0.0
C421 C 0.8314 0.46007 0.19156 0.0
C422 C 0.70786 0.4589 0.19216 0.0
C423 C 0.75055 0.43751 0.18761 0.0
C424 C 0.67959 0.46327 0.18459 0.0
C425 C 0.65729 0.44412 0.16767 0.0
C426 C 0.71434 0.43583 0.18244 0.0
C427 C 0.66297 0.42001 0.15882 0.0
C428 C 0.76377 0.4219 0.1754 0.0
C429 C 0.81537 0.47163 0.20481 0.0
N430 N 0.6916 0.41688 0.16621 0.0
N431 N 0.77608 0.46076 0.20226 0.0
H432 H 0.4138 0.91699 0.45933 0.0
H433 H 0.27691 0.71319 0.49379 0.0
H434 H 0.45841 0.88178 0.50186 0.0
H435 H 0.25201 0.74176 0.4404 0.0
H436 H 0.33969 0.77607 0.49901 0.0
H437 H 0.35058 0.85416 0.45426 0.0
C438 C 0.41022 0.89609 0.46768 0.0
C439 C 0.44147 0.90468 0.48105 0.0
C440 C 0.3206 0.76854 0.48611 0.0
C441 C 0.36907 0.83269 0.47533 0.0
C442 C 0.28458 0.73268 0.48315 0.0
C443 C 0.25899 0.72209 0.46661 0.0
C444 C 0.33115 0.79425 0.47251 0.0
C445 C 0.27094 0.74855 0.45325 0.0
C446 C 0.37421 0.8602 0.4647 0.0
C447 C 0.4352 0.87639 0.49137 0.0
N448 N 0.30602 0.78343 0.45653 0.0
N449 N 0.39964 0.8417 0.48835 0.0
H450 H 0.57048 0.33265 0.80295 0.0
H451 H 0.55711 0.16006 0.83097 0.0
H452 H 0.54135 0.29107 0.85979 0.0
H453 H 0.57866 0.2007 0.77408 0.0
H454 H 0.5531 0.2084 0.84247 0.0
H455 H 0.57628 0.28537 0.79278 0.0
C456 C 0.56517 0.31352 0.81331 0.0
C457 C 0.55497 0.31571 0.83222 0.0
C458 C 0.55887 0.20672 0.82749 0.0
C459 C 0.56217 0.26149 0.82069 0.0
C460 C 0.56098 0.17908 0.82092 0.0
C461 C 0.56879 0.1766 0.80158 0.0
C462 C 0.56438 0.23182 0.81459 0.0
C463 C 0.5736 0.20201 0.78919 0.0
C464 C 0.56872 0.28656 0.80751 0.0
C465 C 0.54952 0.2906 0.84509 0.0
N466 N 0.57136 0.22846 0.7959 0.0
N467 N 0.55302 0.26443 0.83907 0.0
H468 H 0.51091 0.7949 0.5208 0.0
H469 H 0.61262 0.69249 0.50526 0.0
H470 H 0.62671 0.84003 0.49165 0.0
H471 H 0.50464 0.65174 0.53994 0.0
H472 H 0.61447 0.74431 0.49784 0.0
H473 H 0.50475 0.74006 0.52596 0.0
C474 C 0.53498 0.79329 0.51545 0.0
C475 C 0.5694 0.8222 0.50578 0.0
C476 C 0.59031 0.72402 0.50705 0.0
C477 C 0.56234 0.75941 0.51149 0.0
C478 C 0.58906 0.69427 0.5112 0.0
C479 C 0.55841 0.66769 0.52325 0.0
C480 C 0.56072 0.72733 0.51501 0.0
C481 C 0.52914 0.67181 0.53078 0.0
C482 C 0.53136 0.76192 0.51833 0.0
C483 C 0.59929 0.8183 0.49891 0.0
N484 N 0.53104 0.70109 0.52655 0.0
N485 N 0.59512 0.78758 0.50195 0.0
H486 H 0.67014 0.48107 0.86222 0.0
H487 H 0.91748 0.58375 0.84662 0.0
H488 H 0.75081 0.58591 0.83746 0.0
H489 H 0.83838 0.4837 0.87649 0.0
H490 H 0.85785 0.58391 0.84237 0.0
H491 H 0.73067 0.48113 0.86664 0.0
C492 C 0.70048 0.50423 0.85763 0.0
C493 C 0.70445 0.5335 0.84932 0.0
C494 C 0.85355 0.56193 0.84991 0.0
C495 C 0.77559 0.53361 0.85446 0.0
C496 C 0.88826 0.56155 0.85244 0.0
C497 C 0.88513 0.53357 0.86215 0.0
C498 C 0.81402 0.53417 0.85698 0.0
C499 C 0.84441 0.50627 0.86898 0.0
C500 C 0.73537 0.5042 0.86022 0.0
C501 C 0.74541 0.56255 0.84386 0.0
N502 N 0.81124 0.50733 0.86627 0.0
N503 N 0.77886 0.56178 0.84646 0.0
H504 H 0.23093 0.61968 0.16349 0.0
H505 H 0.3224 0.81818 0.20713 0.0
H506 H 0.15426 0.64721 0.18747 0.0
H507 H 0.3978 0.79381 0.17819 0.0
H508 H 0.26094 0.75462 0.20177 0.0
H509 H 0.29313 0.68279 0.17009 0.0
C510 C 0.22713 0.63885 0.17013 0.0
C511 C 0.18722 0.62797 0.1748 0.0
C512 C 0.29098 0.76322 0.19659 0.0
C513 C 0.25817 0.70016 0.18252 0.0
C514 C 0.3262 0.7995 0.1998 0.0
C515 C 0.36551 0.81162 0.19305 0.0
C516 C 0.295 0.73874 0.18661 0.0
C517 C 0.36816 0.78605 0.1834 0.0
C518 C 0.2626 0.67489 0.17389 0.0
C519 C 0.18425 0.65416 0.18344 0.0
N520 N 0.33348 0.75098 0.18045 0.0
N521 N 0.21913 0.68887 0.18701 0.0
H522 H 0.52518 0.20986 0.47218 0.0
H523 H 0.59046 0.3534 0.55857 0.0
H524 H 0.57495 0.21046 0.52715 0.0
H525 H 0.55249 0.36211 0.5026 0.0
H526 H 0.58488 0.30092 0.54673 0.0
H527 H 0.53606 0.266 0.48228 0.0
C528 C 0.53877 0.22193 0.48629 0.0
C529 C 0.54887 0.20517 0.49889 0.0
C530 C 0.57803 0.31434 0.53693 0.0
C531 C 0.5606 0.26901 0.51061 0.0
C532 C 0.58147 0.34452 0.54366 0.0
C533 C 0.57255 0.36252 0.53147 0.0
C534 C 0.5653 0.30168 0.51783 0.0
C535 C 0.55967 0.34901 0.51247 0.0
C536 C 0.54467 0.25385 0.49208 0.0
C537 C 0.56587 0.22188 0.51707 0.0
N538 N 0.55646 0.31933 0.50619 0.0
N539 N 0.57097 0.2527 0.52239 0.0
H540 H 0.44349 0.48141 0.8721 0.0
H541 H 0.3193 0.55752 0.83766 0.0
H542 H 0.49312 0.56611 0.83191 0.0
H543 H 0.28497 0.49448 0.88803 0.0
H544 H 0.37835 0.55609 0.83377 0.0
H545 H 0.38312 0.48192 0.87662 0.0
C546 C 0.44185 0.50009 0.86411 0.0
C547 C 0.47423 0.52375 0.85151 0.0
C548 C 0.35805 0.54265 0.84574 0.0
C549 C 0.40352 0.52414 0.85659 0.0
C550 C 0.32334 0.54301 0.84798 0.0
C551 C 0.2952 0.52578 0.86324 0.0
C552 C 0.36604 0.52494 0.85877 0.0
C553 C 0.30483 0.50854 0.87606 0.0
C554 C 0.40711 0.50041 0.86678 0.0
C555 C 0.46953 0.54732 0.84179 0.0
N556 N 0.33879 0.50848 0.8735 0.0
N557 N 0.43518 0.54669 0.84441 0.0
H558 H 0.91768 0.42222 0.17977 0.0
H559 H 0.81157 0.20976 0.16971 0.0
H560 H 0.98119 0.38078 0.15673 0.0
H561 H 0.75254 0.25228 0.19682 0.0
H562 H 0.87311 0.27177 0.16411 0.0
H563 H 0.85637 0.36003 0.18521 0.0
C564 C 0.91873 0.4001 0.17568 0.0
C565 C 0.95482 0.40701 0.16765 0.0
C566 C 0.84678 0.26758 0.17135 0.0
C567 C 0.88434 0.3353 0.17404 0.0
C568 C 0.8114 0.23208 0.17447 0.0
C569 C 0.77641 0.22552 0.18367 0.0
C570 C 0.84748 0.29705 0.17745 0.0
C571 C 0.77871 0.2558 0.18983 0.0
C572 C 0.88365 0.3645 0.1789 0.0
C573 C 0.95413 0.37698 0.16285 0.0
N574 N 0.81347 0.29012 0.18655 0.0
N575 N 0.91954 0.34255 0.16611 0.0
H576 H 1.04925 0.47139 0.10926 0.0
H577 H 0.11832 0.57979 0.01232 0.0
H578 H 0.07345 0.57477 0.10443 0.0
H579 H 1.04055 0.46257 0.01077 0.0
H580 H 0.11481 0.58012 0.04715 0.0
H581 H 0.05761 0.46928 0.07424 0.0
C582 C 0.05687 0.49381 0.10088 0.0
C583 C 0.06052 0.52328 0.10971 0.0
C584 C 0.09851 0.55429 0.0392 0.0
C585 C 0.07078 0.52137 0.06993 0.0
C586 C 0.10077 0.55404 0.01922 0.0
C587 C 0.07975 0.5211 0.00832 0.0
C588 C 0.07527 0.52141 0.04866 0.0
C589 C 0.05694 0.48868 0.0184 0.0
C590 C 0.06135 0.49249 0.08093 0.0
C591 C 0.07007 0.55145 0.09819 0.0
N592 N 0.05537 0.48965 0.03794 0.0
N593 N 0.07515 0.54993 0.07903 0.0
H594 H 0.50338 0.97997 0.43165 0.0
H595 H 0.62866 0.0674 0.33548 0.0
H596 H 0.63828 0.05031 0.42823 0.0
H597 H 0.49684 0.97663 0.33419 0.0
H598 H 0.63057 0.06473 0.37013 0.0
H599 H 0.49803 0.98176 0.39663 0.0
C600 C 0.5318 0.99589 0.42354 0.0
C601 C 0.57137 0.01489 0.43277 0.0
C602 C 0.60114 0.04527 0.36235 0.0
C603 C 0.56551 0.0171 0.39299 0.0
C604 C 0.60001 0.04689 0.34255 0.0
C605 C 0.56247 0.02234 0.33195 0.0
C606 C 0.56442 0.01898 0.37184 0.0
C607 C 0.52644 0.99596 0.34185 0.0
C608 C 0.52872 0.99674 0.4036 0.0
C609 C 0.60718 0.03508 0.42167 0.0
N610 N 0.5282 0.99509 0.36131 0.0
N611 N 0.60338 0.03568 0.40243 0.0
H612 H 0.63905 0.55891 0.78925 0.0
H613 H 0.51557 0.48055 0.68758 0.0
H614 H 0.50875 0.46621 0.78138 0.0
H615 H 0.64134 0.58114 0.69389 0.0
H616 H 0.51522 0.47337 0.72195 0.0
H617 H 0.64292 0.56685 0.75441 0.0
C618 C 0.61137 0.54025 0.7802 0.0
C619 C 0.57356 0.51179 0.78817 0.0
C620 C 0.54299 0.49705 0.71586 0.0
C621 C 0.57773 0.52049 0.74853 0.0
C622 C 0.54334 0.50099 0.69614 0.0
C623 C 0.57854 0.5315 0.68774 0.0
C624 C 0.57809 0.52375 0.72741 0.0
C625 C 0.61329 0.55739 0.69975 0.0
C626 C 0.61355 0.54478 0.76037 0.0
C627 C 0.53857 0.48848 0.77587 0.0
N628 N 0.6122 0.55296 0.71897 0.0
N629 N 0.54155 0.49328 0.75674 0.0
H630 H 0.49444 0.01546 0.55185 0.0
H631 H 0.59747 0.98444 0.63797 0.0
H632 H 0.60198 0.01735 0.54393 0.0
H633 H 0.52433 0.02306 0.6464 0.0
H634 H 0.59583 0.99122 0.60343 0.0
H635 H 0.50132 0.01333 0.58639 0.0
C636 C 0.51951 0.01536 0.5574 0.0
C637 C 0.54762 0.0165 0.545 0.0
C638 C 0.58046 0.99848 0.61287 0.0
C639 C 0.55537 0.01357 0.58463 0.0
C640 C 0.58109 0.99438 0.63257 0.0
C641 C 0.56079 1.003 0.64515 0.0
C642 C 0.55895 0.0109 0.60559 0.0
C643 C 0.54061 0.01627 0.63732 0.0
C644 C 0.52352 0.01429 0.57714 0.0
C645 C 0.57967 0.01652 0.55301 0.0
N646 N 0.53989 0.01949 0.61806 0.0
N647 N 0.58244 0.01469 0.57234 0.0
H648 H 0.66285 0.58672 0.90851 0.0
H649 H 0.5088 0.43815 0.98344 0.0
H650 H 0.53622 0.49237 0.89394 0.0
H651 H 0.63443 0.53437 0.99767 0.0
H652 H 0.5164 0.45889 0.95087 0.0
H653 H 0.65155 0.56915 0.94178 0.0
C654 C 0.63267 0.56234 0.91238 0.0
C655 C 0.60047 0.54084 0.89862 0.0
C656 C 0.54224 0.47548 0.96115 0.0
C657 C 0.58727 0.52051 0.9364 0.0
C658 C 0.53786 0.4637 0.97968 0.0
C659 C 0.57133 0.48437 0.99302 0.0
C660 C 0.58028 0.50815 0.9561 0.0
C661 C 0.60831 0.51727 0.98759 0.0
C662 C 0.62616 0.55233 0.93133 0.0
C663 C 0.56184 0.50961 0.90423 0.0
N664 N 0.61186 0.52809 0.96949 0.0
N665 N 0.55633 0.50023 0.92275 0.0
H666 H 0.07485 0.5541 0.22104 0.0
H667 H 0.05694 0.46522 0.32077 0.0
H668 H 0.08832 0.47003 0.22848 0.0
H669 H 0.06 0.55945 0.31856 0.0
H670 H 0.06328 0.46512 0.28631 0.0
H671 H 0.06383 0.55482 0.25575 0.0
C672 C 0.07467 0.53535 0.22985 0.0
C673 C 0.08177 0.51149 0.22174 0.0
C674 C 0.06269 0.48599 0.29323 0.0
C675 C 0.07052 0.51291 0.26146 0.0
C676 C 0.05879 0.48593 0.31303 0.0
C677 C 0.05748 0.51216 0.32271 0.0
C678 C 0.06565 0.51263 0.28269 0.0
C679 C 0.06106 0.53878 0.31174 0.0
C680 C 0.06899 0.53613 0.24971 0.0
C681 C 0.08289 0.48883 0.23402 0.0
N682 N 0.06483 0.53828 0.2923 0.0
N683 N 0.07729 0.49007 0.2531 0.0
loop_
_geom_bond_atom_site_label_1
_geom_bond_atom_site_label_2
_geom_bond_distance
_geom_bond_site_symmetry_2
_ccdc_geom_bond_type
Sm0 C2 2.846 . S
Sm0 O20 2.543 . S
Sm0 O21 2.450 . S
Sm0 O22 2.681 . S
Sm0 O23 2.464 . S
Sm0 O24 2.396 . S
Sm0 O28 2.386 . S
Sm0 O31 2.408 1_455 S
Sm1 C11 2.846 . S
Sm1 O22 2.386 1_655 S
Sm1 O25 2.408 1_655 S
Sm1 O26 2.543 . S
Sm1 O27 2.450 . S
Sm1 O28 2.681 1_655 S
Sm1 O29 2.464 . S
Sm1 O30 2.396 . S
C2 Sm0 2.846 . S
C2 C3 1.506 . S
C2 O20 1.261 . S
C2 O21 1.242 . S
C3 C2 1.506 . S
C3 C4 1.358 . S
C3 C8 1.382 . S
C4 C3 1.358 . S
C4 C5 1.385 . S
C4 H32 0.930 . S
C5 C4 1.385 . S
C5 C6 1.395 . S
C5 H33 0.929 . S
C6 C5 1.395 . S
C6 C7 1.335 . S
C7 C6 1.335 . S
C7 C8 1.398 . S
C7 H34 0.930 . S
C8 C3 1.382 . S
C8 C7 1.398 . S
C8 H35 0.929 . S
C9 O22 1.271 . S
C9 O23 1.251 . S
C10 O24 1.252 . S
C10 O25 1.272 . S
C11 Sm1 2.846 . S
C11 C12 1.506 . S
C11 O26 1.261 . S
C11 O27 1.242 . S
C12 C11 1.506 . S
C12 C13 1.358 . S
C12 C17 1.382 . S
C13 C12 1.358 . S
C13 C14 1.385 . S
C13 H36 0.930 . S
C14 C13 1.385 . S
C14 C15 1.395 . S
C14 H37 0.929 . S
C15 C14 1.395 . S
C15 C16 1.335 . S
C16 C15 1.335 . S
C16 C17 1.398 . S
C16 H38 0.930 . S
C17 C12 1.382 . S
C17 C16 1.398 . S
C17 H39 0.929 . S
C18 O28 1.271 . S
C18 O29 1.251 1_455 S
C19 O30 1.252 . S
C19 O31 1.272 . S
O20 Sm0 2.543 . S
O20 C2 1.261 . S
O21 Sm0 2.450 . S
O21 C2 1.242 . S
O22 Sm0 2.681 . S
O22 Sm1 2.386 1_455 S
O22 C9 1.271 . S
O23 Sm0 2.464 . S
O23 C9 1.251 . S
O24 Sm0 2.396 . S
O24 C10 1.252 . S
O25 Sm1 2.408 1_455 S
O25 C10 1.272 . S
O26 Sm1 2.543 . S
O26 C11 1.261 . S
O27 Sm1 2.450 . S
O27 C11 1.242 . S
O28 Sm0 2.386 . S
O28 Sm1 2.681 1_455 S
O28 C18 1.271 . S
O29 Sm1 2.464 . S
O29 C18 1.251 1_655 S
O30 Sm1 2.396 . S
O30 C19 1.252 . S
O31 Sm0 2.408 1_655 S
O31 C19 1.272 . S
H32 C4 0.930 . S
H33 C5 0.929 . S
H34 C7 0.930 . S
H35 C8 0.929 . S
H36 C13 0.930 . S
H37 C14 0.929 . S
H38 C16 0.930 . S
H39 C17 0.929 . S
Sm40 C42 2.846 . S
Sm40 O60 2.543 . S
Sm40 O61 2.450 . S
Sm40 O62 2.681 1_565 S
Sm40 O63 2.464 . S
Sm40 O64 2.396 . S
Sm40 O68 2.399 . S
Sm40 O71 2.408 1_565 S
Sm41 C51 2.846 . S
Sm41 O62 2.386 . S
Sm41 O65 2.408 1_545 S
Sm41 O66 2.543 . S
Sm41 O67 2.450 . S
Sm41 O68 2.662 1_545 S
Sm41 O69 2.464 . S
Sm41 O70 2.396 . S
C42 Sm40 2.846 . S
C42 C43 1.506 . S
C42 O60 1.261 . S
C42 O61 1.242 . S
C43 C42 1.506 . S
C43 C44 1.358 . S
C43 C48 1.382 . S
C44 C43 1.358 . S
C44 C45 1.385 . S
C44 H72 0.930 . S
C45 C44 1.385 . S
C45 C46 1.395 . S
C45 H73 0.929 . S
C46 C45 1.395 . S
C46 C47 1.335 . S
C47 C46 1.335 . S
C47 C48 1.398 . S
C47 H74 0.930 . S
C48 C43 1.382 . S
C48 C47 1.398 . S
C48 H75 0.929 . S
C49 O62 1.271 . S
C49 O63 1.251 1_545 S
C50 O64 1.252 . S
C50 O65 1.272 . S
C51 Sm41 2.846 . S
C51 C52 1.506 . S
C51 O66 1.261 . S
C51 O67 1.242 . S
C52 C51 1.506 . S
C52 C53 1.358 . S
C52 C57 1.382 . S
C53 C52 1.358 . S
C53 C54 1.385 . S
C53 H76 0.930 . S
C54 C53 1.385 . S
C54 C55 1.395 . S
C54 H77 0.929 . S
C55 C54 1.395 . S
C55 C56 1.335 . S
C56 C55 1.335 . S
C56 C57 1.398 . S
C56 H78 0.930 . S
C57 C52 1.382 . S
C57 C56 1.398 . S
C57 H79 0.929 . S
C58 O68 1.260 1_545 S
C58 O69 1.251 . S
C59 O70 1.252 . S
C59 O71 1.272 . S
O60 Sm40 2.543 . S
O60 C42 1.261 . S
O61 Sm40 2.450 . S
O61 C42 1.242 . S
O62 Sm40 2.681 1_545 S
O62 Sm41 2.386 . S
O62 C49 1.271 . S
O63 Sm40 2.464 . S
O63 C49 1.251 1_565 S
O64 Sm40 2.396 . S
O64 C50 1.252 . S
O65 Sm41 2.408 1_565 S
O65 C50 1.272 . S
O66 Sm41 2.543 . S
O66 C51 1.261 . S
O67 Sm41 2.450 . S
O67 C51 1.242 . S
O68 Sm40 2.399 . S
O68 Sm41 2.662 1_565 S
O68 C58 1.260 1_565 S
O69 Sm41 2.464 . S
O69 C58 1.251 . S
O70 Sm41 2.396 . S
O70 C59 1.252 . S
O71 Sm40 2.408 1_545 S
O71 C59 1.272 . S
H72 C44 0.930 . S
H73 C45 0.929 . S
H74 C47 0.930 . S
H75 C48 0.929 . S
H76 C53 0.930 . S
H77 C54 0.929 . S
H78 C56 0.930 . S
H79 C57 0.929 . S
Sm80 C82 2.846 . S
Sm80 O100 2.543 . S
Sm80 O101 2.450 . S
Sm80 O102 2.681 . S
Sm80 O103 2.464 . S
Sm80 O104 2.396 . S
Sm80 O108 2.386 . S
Sm80 O111 2.408 . S
Sm81 C91 2.846 . S
Sm81 O102 2.386 . S
Sm81 O105 2.408 . S
Sm81 O106 2.543 . S
Sm81 O107 2.450 . S
Sm81 O108 2.681 . S
Sm81 O109 2.464 . S
Sm81 O110 2.396 . S
C82 Sm80 2.846 . S
C82 C83 1.506 . S
C82 O100 1.261 . S
C82 O101 1.242 . S
C83 C82 1.506 . S
C83 C84 1.358 . S
C83 C88 1.382 . S
C84 C83 1.358 . S
C84 C85 1.385 . S
C84 H112 0.930 . S
C85 C84 1.385 . S
C85 C86 1.395 . S
C85 H113 0.929 . S
C86 C85 1.395 . S
C86 C87 1.335 . S
C87 C86 1.335 . S
C87 C88 1.398 . S
C87 H114 0.930 . S
C88 C83 1.382 . S
C88 C87 1.398 . S
C88 H115 0.929 . S
C89 O102 1.271 . S
C89 O103 1.251 . S
C90 O104 1.252 . S
C90 O105 1.272 . S
C91 Sm81 2.846 . S
C91 C92 1.506 . S
C91 O106 1.261 . S
C91 O107 1.242 . S
C92 C91 1.506 . S
C92 C93 1.358 . S
C92 C97 1.382 . S
C93 C92 1.358 . S
C93 C94 1.385 . S
C93 H116 0.930 . S
C94 C93 1.385 . S
C94 C95 1.395 . S
C94 H117 0.929 . S
C95 C94 1.395 . S
C95 C96 1.335 . S
C96 C95 1.335 . S
C96 C97 1.398 . S
C96 H118 0.930 . S
C97 C92 1.382 . S
C97 C96 1.398 . S
C97 H119 0.929 . S
C98 O108 1.271 . S
C98 O109 1.251 . S
C99 O110 1.252 . S
C99 O111 1.272 . S
O100 Sm80 2.543 . S
O100 C82 1.261 . S
O101 Sm80 2.450 . S
O101 C82 1.242 . S
O102 Sm80 2.681 . S
O102 Sm81 2.386 . S
O102 C89 1.271 . S
O103 Sm80 2.464 . S
O103 C89 1.251 . S
O104 Sm80 2.396 . S
O104 C90 1.252 . S
O105 Sm81 2.408 . S
O105 C90 1.272 . S
O106 Sm81 2.543 . S
O106 C91 1.261 . S
O107 Sm81 2.450 . S
O107 C91 1.242 . S
O108 Sm80 2.386 . S
O108 Sm81 2.681 . S
O108 C98 1.271 . S
O109 Sm81 2.464 . S
O109 C98 1.251 . S
O110 Sm81 2.396 . S
O110 C99 1.252 . S
O111 Sm80 2.408 . S
O111 C99 1.272 . S
H112 C84 0.930 . S
H113 C85 0.929 . S
H114 C87 0.930 . S
H115 C88 0.929 . S
H116 C93 0.930 . S
H117 C94 0.929 . S
H118 C96 0.930 . S
H119 C97 0.929 . S
C120 C121 1.264 . S
C120 C125 1.479 . S
C120 C130 1.465 . S
C121 C120 1.264 . S
C121 C123 1.339 . S
C121 H148 0.931 . S
C122 C123 1.395 . S
C122 C124 1.320 . S
C123 C121 1.339 . S
C123 C122 1.395 . S
C123 H149 0.929 . S
C124 C122 1.320 . S
C124 C125 1.405 . S
C124 H150 0.930 . S
C125 C120 1.479 . S
C125 C124 1.405 . S
C125 H151 0.931 . S
U126 O127 2.454 1_545 S
U126 O128 2.458 1_545 S
U126 C129 2.984 1_545 S
U126 C130 2.847 . S
U126 C143 2.882 . S
U126 O144 2.441 . S
U126 O145 2.420 . S
U126 O146 2.455 1_545 S
U126 O147 2.449 . S
O127 U126 2.454 1_565 S
O127 C129 1.353 . S
O128 U126 2.458 1_565 S
O128 C129 1.286 . S
C129 U126 2.984 1_565 S
C129 O127 1.353 . S
C129 O128 1.286 . S
C129 C131 1.363 . S
C130 C120 1.465 . S
C130 U126 2.847 . S
C130 O144 1.249 . S
C130 O145 1.202 . S
C131 C129 1.363 . S
C131 C133 1.408 . S
C131 C136 1.342 . S
C132 C133 1.310 . S
C132 C135 1.461 . S
C132 H152 0.932 . S
C133 C131 1.408 . S
C133 C132 1.310 . S
C133 H153 0.930 . S
C134 C135 1.474 . S
C134 C136 1.285 . S
C134 H154 0.929 . S
C135 C132 1.461 . S
C135 C134 1.474 . S
C136 C131 1.342 . S
C136 C134 1.285 . S
C136 H155 0.930 . S
C137 C140 1.424 . S
C137 C142 1.245 1_545 S
C137 C143 1.428 . S
C138 C141 1.260 1_565 S
C138 C142 1.477 . S
C138 H156 0.932 . S
C139 C140 1.384 . S
C139 C141 1.479 . S
C139 H157 0.929 . S
C140 C137 1.424 . S
C140 C139 1.384 . S
C140 H158 0.928 . S
C141 C138 1.260 1_545 S
C141 C139 1.479 . S
C142 C137 1.245 1_565 S
C142 C138 1.477 . S
C142 H159 0.932 . S
C143 U126 2.882 . S
C143 C137 1.428 . S
C143 O146 1.301 1_545 S
C143 O147 1.282 . S
O144 U126 2.441 . S
O144 C130 1.249 . S
O145 U126 2.420 . S
O145 C130 1.202 . S
O146 U126 2.455 1_565 S
O146 C143 1.301 1_565 S
O147 U126 2.449 . S
O147 C143 1.282 . S
H148 C121 0.931 . S
H149 C123 0.929 . S
H150 C124 0.930 . S
H151 C125 0.931 . S
H152 C132 0.932 . S
H153 C133 0.930 . S
H154 C134 0.929 . S
H155 C136 0.930 . S
H156 C138 0.932 . S
H157 C139 0.929 . S
H158 C140 0.928 . S
H159 C142 0.932 . S
C160 C161 1.264 . S
C160 C165 1.479 . S
C160 C170 1.465 . S
C161 C160 1.264 . S
C161 C163 1.339 . S
C161 H188 0.931 . S
C162 C163 1.395 . S
C162 C164 1.320 . S
C163 C161 1.339 . S
C163 C162 1.395 . S
C163 H189 0.929 . S
C164 C162 1.320 . S
C164 C165 1.405 . S
C164 H190 0.930 . S
C165 C160 1.479 . S
C165 C164 1.405 . S
C165 H191 0.931 . S
U166 O167 2.454 . S
U166 O168 2.458 . S
U166 C169 2.984 . S
U166 C170 2.847 . S
U166 C183 2.882 . S
U166 O184 2.441 . S
U166 O185 2.420 . S
U166 O186 2.455 . S
U166 O187 2.449 . S
O167 U166 2.454 . S
O167 C169 1.353 . S
O168 U166 2.458 . S
O168 C169 1.286 . S
C169 U166 2.984 . S
C169 O167 1.353 . S
C169 O168 1.286 . S
C169 C171 1.363 . S
C170 C160 1.465 . S
C170 U166 2.847 . S
C170 O184 1.249 . S
C170 O185 1.202 . S
C171 C169 1.363 . S
C171 C173 1.408 . S
C171 C176 1.342 . S
C172 C173 1.310 . S
C172 C175 1.461 . S
C172 H192 0.932 . S
C173 C171 1.408 . S
C173 C172 1.310 . S
C173 H193 0.930 . S
C174 C175 1.474 . S
C174 C176 1.285 . S
C174 H194 0.929 . S
C175 C172 1.461 . S
C175 C174 1.474 . S
C176 C171 1.342 . S
C176 C174 1.285 . S
C176 H195 0.930 . S
C177 C180 1.424 . S
C177 C182 1.245 . S
C177 C183 1.428 . S
C178 C181 1.260 . S
C178 C182 1.477 . S
C178 H196 0.932 . S
C179 C180 1.384 . S
C179 C181 1.479 . S
C179 H197 0.929 . S
C180 C177 1.424 . S
C180 C179 1.384 . S
C180 H198 0.928 . S
C181 C178 1.260 . S
C181 C179 1.479 . S
C182 C177 1.245 . S
C182 C178 1.477 . S
C182 H199 0.932 . S
C183 U166 2.882 . S
C183 C177 1.428 . S
C183 O186 1.301 . S
C183 O187 1.282 . S
O184 U166 2.441 . S
O184 C170 1.249 . S
O185 U166 2.420 . S
O185 C170 1.202 . S
O186 U166 2.455 . S
O186 C183 1.301 . S
O187 U166 2.449 . S
O187 C183 1.282 . S
H188 C161 0.931 . S
H189 C163 0.929 . S
H190 C164 0.930 . S
H191 C165 0.931 . S
H192 C172 0.932 . S
H193 C173 0.930 . S
H194 C174 0.929 . S
H195 C176 0.930 . S
H196 C178 0.932 . S
H197 C179 0.929 . S
H198 C180 0.928 . S
H199 C182 0.932 . S
C200 C201 1.264 . S
C200 C205 1.479 . S
C200 C210 1.465 . S
C201 C200 1.264 . S
C201 C203 1.339 . S
C201 H228 0.931 . S
C202 C203 1.395 . S
C202 C204 1.320 . S
C203 C201 1.339 . S
C203 C202 1.395 . S
C203 H229 0.929 . S
C204 C202 1.320 . S
C204 C205 1.405 . S
C204 H230 0.930 . S
C205 C200 1.479 . S
C205 C204 1.405 . S
C205 H231 0.931 . S
U206 O207 2.454 . S
U206 O208 2.458 . S
U206 C209 2.984 . S
U206 C210 2.847 1_455 S
U206 C223 2.882 . S
U206 O224 2.453 . S
U206 O225 2.420 1_455 S
U206 O226 2.455 . S
U206 O227 2.449 1_455 S
O207 U206 2.454 . S
O207 C209 1.353 . S
O208 U206 2.458 . S
O208 C209 1.286 . S
C209 U206 2.984 . S
C209 O207 1.353 . S
C209 O208 1.286 . S
C209 C211 1.363 . S
C210 C200 1.465 . S
C210 U206 2.847 1_655 S
C210 O224 1.229 1_655 S
C210 O225 1.202 . S
C211 C209 1.363 . S
C211 C213 1.408 . S
C211 C216 1.342 . S
C212 C213 1.310 . S
C212 C215 1.461 . S
C212 H232 0.932 . S
C213 C211 1.408 . S
C213 C212 1.310 . S
C213 H233 0.930 . S
C214 C215 1.474 . S
C214 C216 1.285 . S
C214 H234 0.929 . S
C215 C212 1.461 . S
C215 C214 1.474 . S
C216 C211 1.342 . S
C216 C214 1.285 . S
C216 H235 0.930 . S
C217 C220 1.424 . S
C217 C222 1.245 . S
C217 C223 1.428 . S
C218 C221 1.260 . S
C218 C222 1.477 . S
C218 H236 0.932 . S
C219 C220 1.382 1_655 S
C219 C221 1.460 1_655 S
C219 H237 0.949 . S
C220 C217 1.424 . S
C220 C219 1.382 1_455 S
C220 H238 0.928 1_455 S
C221 C218 1.260 . S
C221 C219 1.460 1_455 S
C222 C217 1.245 . S
C222 C218 1.477 . S
C222 H239 0.932 . S
C223 U206 2.882 . S
C223 C217 1.428 . S
C223 O226 1.301 . S
C223 O227 1.282 1_455 S
O224 U206 2.453 . S
O224 C210 1.229 1_455 S
O225 U206 2.420 1_655 S
O225 C210 1.202 . S
O226 U206 2.455 . S
O226 C223 1.301 . S
O227 U206 2.449 1_655 S
O227 C223 1.282 1_655 S
H228 C201 0.931 . S
H229 C203 0.929 . S
H230 C204 0.930 . S
H231 C205 0.931 . S
H232 C212 0.932 . S
H233 C213 0.930 . S
H234 C214 0.929 . S
H235 C216 0.930 . S
H236 C218 0.932 . S
H237 C219 0.949 . S
H238 C220 0.928 1_655 S
H239 C222 0.932 . S
C240 C241 1.264 . S
C240 C245 1.479 . S
C240 C250 1.465 . S
C241 C240 1.264 . S
C241 C243 1.339 . S
C241 H268 0.931 . S
C242 C243 1.395 . S
C242 C244 1.320 . S
C243 C241 1.339 . S
C243 C242 1.395 . S
C243 H269 0.929 . S
C244 C242 1.320 . S
C244 C245 1.405 . S
C244 H270 0.930 . S
C245 C240 1.479 . S
C245 C244 1.405 . S
C245 H271 0.931 . S
U246 O247 2.454 1_655 S
U246 O248 2.458 1_655 S
U246 C249 2.984 1_655 S
U246 C250 2.847 . S
U246 C263 2.882 . S
U246 O264 2.441 . S
U246 O265 2.420 . S
U246 O266 2.455 1_655 S
U246 O267 2.449 . S
O247 U246 2.454 1_455 S
O247 C249 1.353 . S
O248 U246 2.458 1_455 S
O248 C249 1.286 . S
C249 U246 2.984 1_455 S
C249 O247 1.353 . S
C249 O248 1.286 . S
C249 C251 1.363 . S
C250 C240 1.465 . S
C250 U246 2.847 . S
C250 O264 1.249 . S
C250 O265 1.202 . S
C251 C249 1.363 . S
C251 C253 1.408 . S
C251 C256 1.342 . S
C252 C253 1.310 . S
C252 C255 1.461 . S
C252 H272 0.932 . S
C253 C251 1.408 . S
C253 C252 1.310 . S
C253 H273 0.930 . S
C254 C255 1.474 . S
C254 C256 1.285 . S
C254 H274 0.929 . S
C255 C252 1.461 . S
C255 C254 1.474 . S
C256 C251 1.342 . S
C256 C254 1.285 . S
C256 H275 0.930 . S
C257 C260 1.424 . S
C257 C262 1.245 1_655 S
C257 C263 1.428 . S
C258 C261 1.260 1_455 S
C258 C262 1.477 . S
C258 H276 0.932 . S
C259 C260 1.384 . S
C259 C261 1.479 . S
C259 H277 0.929 . S
C260 C257 1.424 . S
C260 C259 1.384 . S
C260 H278 0.928 . S
C261 C258 1.260 1_655 S
C261 C259 1.479 . S
C262 C257 1.245 1_455 S
C262 C258 1.477 . S
C262 H279 0.932 . S
C263 U246 2.882 . S
C263 C257 1.428 . S
C263 O266 1.301 1_655 S
C263 O267 1.282 . S
O264 U246 2.441 . S
O264 C250 1.249 . S
O265 U246 2.420 . S
O265 C250 1.202 . S
O266 U246 2.455 1_455 S
O266 C263 1.301 1_455 S
O267 U246 2.449 . S
O267 C263 1.282 . S
H268 C241 0.931 . S
H269 C243 0.929 . S
H270 C244 0.930 . S
H271 C245 0.931 . S
H272 C252 0.932 . S
H273 C253 0.930 . S
H274 C254 0.929 . S
H275 C256 0.930 . S
H276 C258 0.932 . S
H277 C259 0.929 . S
H278 C260 0.928 . S
H279 C262 0.932 . S
C280 C281 1.264 . S
C280 C285 1.479 . S
C280 C290 1.465 . S
C281 C280 1.264 . S
C281 C283 1.339 . S
C281 H308 0.931 . S
C282 C283 1.395 . S
C282 C284 1.320 . S
C283 C281 1.339 . S
C283 C282 1.395 . S
C283 H309 0.929 . S
C284 C282 1.320 . S
C284 C285 1.405 . S
C284 H310 0.930 . S
C285 C280 1.479 . S
C285 C284 1.405 . S
C285 H311 0.931 . S
U286 O287 2.454 1_565 S
U286 O288 2.458 1_565 S
U286 C289 2.984 1_565 S
U286 C290 2.847 . S
U286 C303 2.882 . S
U286 O304 2.441 . S
U286 O305 2.420 . S
U286 O306 2.455 1_565 S
U286 O307 2.449 . S
O287 U286 2.454 1_545 S
O287 C289 1.353 . S
O288 U286 2.458 1_545 S
O288 C289 1.286 . S
C289 U286 2.984 1_545 S
C289 O287 1.353 . S
C289 O288 1.286 . S
C289 C291 1.363 . S
C290 C280 1.465 . S
C290 U286 2.847 . S
C290 O304 1.249 . S
C290 O305 1.202 . S
C291 C289 1.363 . S
C291 C293 1.408 . S
C291 C296 1.342 . S
C292 C293 1.310 . S
C292 C295 1.461 . S
C292 H312 0.932 . S
C293 C291 1.408 . S
C293 C292 1.310 . S
C293 H313 0.930 . S
C294 C295 1.474 . S
C294 C296 1.285 . S
C294 H314 0.929 . S
C295 C292 1.461 . S
C295 C294 1.474 . S
C296 C291 1.342 . S
C296 C294 1.285 . S
C296 H315 0.930 . S
C297 C300 1.424 . S
C297 C302 1.245 1_565 S
C297 C303 1.428 . S
C298 C301 1.260 1_545 S
C298 C302 1.477 . S
C298 H316 0.932 . S
C299 C300 1.384 . S
C299 C301 1.479 . S
C299 H317 0.929 . S
C300 C297 1.424 . S
C300 C299 1.384 . S
C300 H318 0.928 . S
C301 C298 1.260 1_565 S
C301 C299 1.479 . S
C302 C297 1.245 1_545 S
C302 C298 1.477 . S
C302 H319 0.932 . S
C303 U286 2.882 . S
C303 C297 1.428 . S
C303 O306 1.301 1_565 S
C303 O307 1.282 . S
O304 U286 2.441 . S
O304 C290 1.249 . S
O305 U286 2.420 . S
O305 C290 1.202 . S
O306 U286 2.455 1_545 S
O306 C303 1.301 1_545 S
O307 U286 2.449 . S
O307 C303 1.282 . S
H308 C281 0.931 . S
H309 C283 0.929 . S
H310 C284 0.930 . S
H311 C285 0.931 . S
H312 C292 0.932 . S
H313 C293 0.930 . S
H314 C294 0.929 . S
H315 C296 0.930 . S
H316 C298 0.932 . S
H317 C299 0.929 . S
H318 C300 0.928 . S
H319 C302 0.932 . S
C320 C321 1.264 . S
C320 C325 1.479 . S
C320 C330 1.465 . S
C321 C320 1.264 . S
C321 C323 1.339 . S
C321 H348 0.931 . S
C322 C323 1.395 . S
C322 C324 1.320 . S
C323 C321 1.339 . S
C323 C322 1.395 . S
C323 H349 0.929 . S
C324 C322 1.320 . S
C324 C325 1.405 . S
C324 H350 0.930 . S
C325 C320 1.479 . S
C325 C324 1.405 . S
C325 H351 0.931 . S
U326 O327 2.454 . S
U326 O328 2.458 . S
U326 C329 2.984 . S
U326 C330 2.847 . S
U326 C343 2.882 . S
U326 O344 2.441 . S
U326 O345 2.420 . S
U326 O346 2.455 . S
U326 O347 2.449 . S
O327 U326 2.454 . S
O327 C329 1.353 . S
O328 U326 2.458 . S
O328 C329 1.286 . S
C329 U326 2.984 . S
C329 O327 1.353 . S
C329 O328 1.286 . S
C329 C331 1.363 . S
C330 C320 1.465 . S
C330 U326 2.847 . S
C330 O344 1.249 . S
C330 O345 1.202 . S
C331 C329 1.363 . S
C331 C333 1.408 . S
C331 C336 1.342 . S
C332 C333 1.310 . S
C332 C335 1.461 . S
C332 H352 0.932 . S
C333 C331 1.408 . S
C333 C332 1.310 . S
C333 H353 0.930 . S
C334 C335 1.474 . S
C334 C336 1.285 . S
C334 H354 0.929 . S
C335 C332 1.461 . S
C335 C334 1.474 . S
C336 C331 1.342 . S
C336 C334 1.285 . S
C336 H355 0.930 . S
C337 C340 1.424 . S
C337 C342 1.245 . S
C337 C343 1.428 . S
C338 C341 1.260 1_554 S
C338 C342 1.477 . S
C338 H356 0.915 1_554 S
C339 C340 1.384 . S
C339 C341 1.479 1_554 S
C339 H357 0.929 . S
C340 C337 1.424 . S
C340 C339 1.384 . S
C340 H358 0.928 . S
C341 C338 1.260 1_556 S
C341 C339 1.479 1_556 S
C342 C337 1.245 . S
C342 C338 1.477 . S
C342 H359 0.932 . S
C343 U326 2.882 . S
C343 C337 1.428 . S
C343 O346 1.301 . S
C343 O347 1.282 . S
O344 U326 2.441 . S
O344 C330 1.249 . S
O345 U326 2.420 . S
O345 C330 1.202 . S
O346 U326 2.455 . S
O346 C343 1.301 . S
O347 U326 2.449 . S
O347 C343 1.282 . S
H348 C321 0.931 . S
H349 C323 0.929 . S
H350 C324 0.930 . S
H351 C325 0.931 . S
H352 C332 0.932 . S
H353 C333 0.930 . S
H354 C334 0.929 . S
H355 C336 0.930 . S
H356 C338 0.915 1_556 S
H357 C339 0.929 . S
H358 C340 0.928 . S
H359 C342 0.932 . S
H360 C366 0.930 . S
H361 C370 0.930 . S
H362 C375 0.929 . S
H363 C373 0.929 . S
H364 C368 0.929 . S
H365 C374 0.929 . S
C366 H360 0.930 . S
C366 C367 1.367 . S
C366 C374 1.378 . S
C367 C366 1.367 . S
C367 C375 1.433 . S
C368 H364 0.929 . S
C368 C370 1.378 . S
C368 C372 1.350 . S
C369 C372 1.463 . S
C369 C374 1.350 . S
C369 N377 1.427 . S
C370 H361 0.930 . S
C370 C368 1.378 . S
C370 C371 1.367 . S
C371 C370 1.367 . S
C371 C373 1.433 . S
C372 C368 1.350 . S
C372 C369 1.463 . S
C372 N376 1.427 . S
C373 H363 0.929 . S
C373 C371 1.433 . S
C373 N376 1.384 . S
C374 H365 0.929 . S
C374 C366 1.378 . S
C374 C369 1.350 . S
C375 H362 0.929 . S
C375 C367 1.433 . S
C375 N377 1.384 . S
N376 C372 1.427 . S
N376 C373 1.384 . S
N377 C369 1.427 . S
N377 C375 1.384 . S
H378 C384 0.930 . S
H379 C388 0.930 . S
H380 C393 0.929 . S
H381 C391 0.929 . S
H382 C386 0.929 . S
H383 C392 0.929 . S
C384 H378 0.930 . S
C384 C385 1.367 . S
C384 C392 1.378 . S
C385 C384 1.367 . S
C385 C393 1.433 . S
C386 H382 0.929 . S
C386 C388 1.378 . S
C386 C390 1.350 . S
C387 C390 1.463 . S
C387 C392 1.350 . S
C387 N395 1.427 . S
C388 H379 0.930 . S
C388 C386 1.378 . S
C388 C389 1.367 . S
C389 C388 1.367 . S
C389 C391 1.433 . S
C390 C386 1.350 . S
C390 C387 1.463 . S
C390 N394 1.427 . S
C391 H381 0.929 . S
C391 C389 1.433 . S
C391 N394 1.384 . S
C392 H383 0.929 . S
C392 C384 1.378 . S
C392 C387 1.350 . S
C393 H380 0.929 . S
C393 C385 1.433 . S
C393 N395 1.384 . S
N394 C390 1.427 . S
N394 C391 1.384 . S
N395 C387 1.427 . S
N395 C393 1.384 . S
H396 C402 0.930 . S
H397 C406 0.930 . S
H398 C411 0.929 . S
H399 C409 0.929 . S
H400 C404 0.929 . S
H401 C410 0.929 . S
C402 H396 0.930 . S
C402 C403 1.367 . S
C402 C410 1.378 . S
C403 C402 1.367 . S
C403 C411 1.433 . S
C404 H400 0.929 . S
C404 C406 1.378 . S
C404 C408 1.350 . S
C405 C408 1.463 . S
C405 C410 1.350 . S
C405 N413 1.427 . S
C406 H397 0.930 . S
C406 C404 1.378 . S
C406 C407 1.367 . S
C407 C406 1.367 . S
C407 C409 1.433 . S
C408 C404 1.350 . S
C408 C405 1.463 . S
C408 N412 1.427 . S
C409 H399 0.929 . S
C409 C407 1.433 . S
C409 N412 1.384 . S
C410 H401 0.929 . S
C410 C402 1.378 . S
C410 C405 1.350 . S
C411 H398 0.929 . S
C411 C403 1.433 . S
C411 N413 1.384 . S
N412 C408 1.427 . S
N412 C409 1.384 . S
N413 C405 1.427 . S
N413 C411 1.384 . S
H414 C420 0.930 . S
H415 C424 0.930 . S
H416 C429 0.929 . S
H417 C427 0.929 . S
H418 C422 0.929 . S
H419 C428 0.929 . S
C420 H414 0.930 . S
C420 C421 1.367 . S
C420 C428 1.378 . S
C421 C420 1.367 . S
C421 C429 1.433 . S
C422 H418 0.929 . S
C422 C424 1.378 . S
C422 C426 1.350 . S
C423 C426 1.463 . S
C423 C428 1.350 . S
C423 N431 1.427 . S
C424 H415 0.930 . S
C424 C422 1.378 . S
C424 C425 1.367 . S
C425 C424 1.367 . S
C425 C427 1.433 . S
C426 C422 1.350 . S
C426 C423 1.463 . S
C426 N430 1.427 . S
C427 H417 0.929 . S
C427 C425 1.433 . S
C427 N430 1.384 . S
C428 H419 0.929 . S
C428 C420 1.378 . S
C428 C423 1.350 . S
C429 H416 0.929 . S
C429 C421 1.433 . S
C429 N431 1.384 . S
N430 C426 1.427 . S
N430 C427 1.384 . S
N431 C423 1.427 . S
N431 C429 1.384 . S
H432 C438 0.930 . S
H433 C442 0.930 . S
H434 C447 0.929 . S
H435 C445 0.929 . S
H436 C440 0.929 . S
H437 C446 0.929 . S
C438 H432 0.930 . S
C438 C439 1.367 . S
C438 C446 1.378 . S
C439 C438 1.367 . S
C439 C447 1.433 . S
C440 H436 0.929 . S
C440 C442 1.378 . S
C440 C444 1.350 . S
C441 C444 1.463 . S
C441 C446 1.350 . S
C441 N449 1.427 . S
C442 H433 0.930 . S
C442 C440 1.378 . S
C442 C443 1.367 . S
C443 C442 1.367 . S
C443 C445 1.433 . S
C444 C440 1.350 . S
C444 C441 1.463 . S
C444 N448 1.427 . S
C445 H435 0.929 . S
C445 C443 1.433 . S
C445 N448 1.384 . S
C446 H437 0.929 . S
C446 C438 1.378 . S
C446 C441 1.350 . S
C447 H434 0.929 . S
C447 C439 1.433 . S
C447 N449 1.384 . S
N448 C444 1.427 . S
N448 C445 1.384 . S
N449 C441 1.427 . S
N449 C447 1.384 . S
H450 C456 0.930 . S
H451 C460 0.930 . S
H452 C465 0.929 . S
H453 C463 0.929 . S
H454 C458 0.929 . S
H455 C464 0.929 . S
C456 H450 0.930 . S
C456 C457 1.367 . S
C456 C464 1.378 . S
C457 C456 1.367 . S
C457 C465 1.433 . S
C458 H454 0.929 . S
C458 C460 1.378 . S
C458 C462 1.350 . S
C459 C462 1.463 . S
C459 C464 1.350 . S
C459 N467 1.427 . S
C460 H451 0.930 . S
C460 C458 1.378 . S
C460 C461 1.367 . S
C461 C460 1.367 . S
C461 C463 1.433 . S
C462 C458 1.350 . S
C462 C459 1.463 . S
C462 N466 1.427 . S
C463 H453 0.929 . S
C463 C461 1.433 . S
C463 N466 1.384 . S
C464 H455 0.929 . S
C464 C456 1.378 . S
C464 C459 1.350 . S
C465 H452 0.929 . S
C465 C457 1.433 . S
C465 N467 1.384 . S
N466 C462 1.427 . S
N466 C463 1.384 . S
N467 C459 1.427 . S
N467 C465 1.384 . S
H468 C474 0.930 . S
H469 C478 0.930 . S
H470 C483 0.929 . S
H471 C481 0.929 . S
H472 C476 0.929 . S
H473 C482 0.929 . S
C474 H468 0.930 . S
C474 C475 1.367 . S
C474 C482 1.378 . S
C475 C474 1.367 . S
C475 C483 1.433 . S
C476 H472 0.929 . S
C476 C478 1.378 . S
C476 C480 1.350 . S
C477 C480 1.463 . S
C477 C482 1.350 . S
C477 N485 1.427 . S
C478 H469 0.930 . S
C478 C476 1.378 . S
C478 C479 1.367 . S
C479 C478 1.367 . S
C479 C481 1.433 . S
C480 C476 1.350 . S
C480 C477 1.463 . S
C480 N484 1.427 . S
C481 H471 0.929 . S
C481 C479 1.433 . S
C481 N484 1.384 . S
C482 H473 0.929 . S
C482 C474 1.378 . S
C482 C477 1.350 . S
C483 H470 0.929 . S
C483 C475 1.433 . S
C483 N485 1.384 . S
N484 C480 1.427 . S
N484 C481 1.384 . S
N485 C477 1.427 . S
N485 C483 1.384 . S
H486 C492 0.930 . S
H487 C496 0.930 . S
H488 C501 0.929 . S
H489 C499 0.929 . S
H490 C494 0.929 . S
H491 C500 0.929 . S
C492 H486 0.930 . S
C492 C493 1.367 . S
C492 C500 1.378 . S
C493 C492 1.367 . S
C493 C501 1.433 . S
C494 H490 0.929 . S
C494 C496 1.378 . S
C494 C498 1.350 . S
C495 C498 1.463 . S
C495 C500 1.350 . S
C495 N503 1.427 . S
C496 H487 0.930 . S
C496 C494 1.378 . S
C496 C497 1.367 . S
C497 C496 1.367 . S
C497 C499 1.433 . S
C498 C494 1.350 . S
C498 C495 1.463 . S
C498 N502 1.427 . S
C499 H489 0.929 . S
C499 C497 1.433 . S
C499 N502 1.384 . S
C500 H491 0.929 . S
C500 C492 1.378 . S
C500 C495 1.350 . S
C501 H488 0.929 . S
C501 C493 1.433 . S
C501 N503 1.384 . S
N502 C498 1.427 . S
N502 C499 1.384 . S
N503 C495 1.427 . S
N503 C501 1.384 . S
H504 C510 0.930 . S
H505 C514 0.930 . S
H506 C519 0.929 . S
H507 C517 0.929 . S
H508 C512 0.929 . S
H509 C518 0.929 . S
C510 H504 0.930 . S
C510 C511 1.367 . S
C510 C518 1.378 . S
C511 C510 1.367 . S
C511 C519 1.433 . S
C512 H508 0.929 . S
C512 C514 1.378 . S
C512 C516 1.350 . S
C513 C516 1.463 . S
C513 C518 1.350 . S
C513 N521 1.427 . S
C514 H505 0.930 . S
C514 C512 1.378 . S
C514 C515 1.367 . S
C515 C514 1.367 . S
C515 C517 1.433 . S
C516 C512 1.350 . S
C516 C513 1.463 . S
C516 N520 1.427 . S
C517 H507 0.929 . S
C517 C515 1.433 . S
C517 N520 1.384 . S
C518 H509 0.929 . S
C518 C510 1.378 . S
C518 C513 1.350 . S
C519 H506 0.929 . S
C519 C511 1.433 . S
C519 N521 1.384 . S
N520 C516 1.427 . S
N520 C517 1.384 . S
N521 C513 1.427 . S
N521 C519 1.384 . S
H522 C528 0.930 . S
H523 C532 0.930 . S
H524 C537 0.929 . S
H525 C535 0.929 . S
H526 C530 0.929 . S
H527 C536 0.929 . S
C528 H522 0.930 . S
C528 C529 1.367 . S
C528 C536 1.378 . S
C529 C528 1.367 . S
C529 C537 1.433 . S
C530 H526 0.929 . S
C530 C532 1.378 . S
C530 C534 1.350 . S
C531 C534 1.463 . S
C531 C536 1.350 . S
C531 N539 1.427 . S
C532 H523 0.930 . S
C532 C530 1.378 . S
C532 C533 1.367 . S
C533 C532 1.367 . S
C533 C535 1.433 . S
C534 C530 1.350 . S
C534 C531 1.463 . S
C534 N538 1.427 . S
C535 H525 0.929 . S
C535 C533 1.433 . S
C535 N538 1.384 . S
C536 H527 0.929 . S
C536 C528 1.378 . S
C536 C531 1.350 . S
C537 H524 0.929 . S
C537 C529 1.433 . S
C537 N539 1.384 . S
N538 C534 1.427 . S
N538 C535 1.384 . S
N539 C531 1.427 . S
N539 C537 1.384 . S
H540 C546 0.930 . S
H541 C550 0.930 . S
H542 C555 0.929 . S
H543 C553 0.929 . S
H544 C548 0.929 . S
H545 C554 0.929 . S
C546 H540 0.930 . S
C546 C547 1.367 . S
C546 C554 1.378 . S
C547 C546 1.367 . S
C547 C555 1.433 . S
C548 H544 0.929 . S
C548 C550 1.378 . S
C548 C552 1.350 . S
C549 C552 1.463 . S
C549 C554 1.350 . S
C549 N557 1.427 . S
C550 H541 0.930 . S
C550 C548 1.378 . S
C550 C551 1.367 . S
C551 C550 1.367 . S
C551 C553 1.433 . S
C552 C548 1.350 . S
C552 C549 1.463 . S
C552 N556 1.427 . S
C553 H543 0.929 . S
C553 C551 1.433 . S
C553 N556 1.384 . S
C554 H545 0.929 . S
C554 C546 1.378 . S
C554 C549 1.350 . S
C555 H542 0.929 . S
C555 C547 1.433 . S
C555 N557 1.384 . S
N556 C552 1.427 . S
N556 C553 1.384 . S
N557 C549 1.427 . S
N557 C555 1.384 . S
H558 C564 0.930 . S
H559 C568 0.930 . S
H560 C573 0.929 . S
H561 C571 0.929 . S
H562 C566 0.929 . S
H563 C572 0.929 . S
C564 H558 0.930 . S
C564 C565 1.367 . S
C564 C572 1.378 . S
C565 C564 1.367 . S
C565 C573 1.433 . S
C566 H562 0.929 . S
C566 C568 1.378 . S
C566 C570 1.350 . S
C567 C570 1.463 . S
C567 C572 1.350 . S
C567 N575 1.427 . S
C568 H559 0.930 . S
C568 C566 1.378 . S
C568 C569 1.367 . S
C569 C568 1.367 . S
C569 C571 1.433 . S
C570 C566 1.350 . S
C570 C567 1.463 . S
C570 N574 1.427 . S
C571 H561 0.929 . S
C571 C569 1.433 . S
C571 N574 1.384 . S
C572 H563 0.929 . S
C572 C564 1.378 . S
C572 C567 1.350 . S
C573 H560 0.929 . S
C573 C565 1.433 . S
C573 N575 1.384 . S
N574 C570 1.427 . S
N574 C571 1.384 . S
N575 C567 1.427 . S
N575 C573 1.384 . S
H576 C582 0.930 . S
H577 C586 0.930 . S
H578 C591 0.929 . S
H579 C589 0.929 1_655 S
H580 C584 0.929 . S
H581 C590 0.929 . S
C582 H576 0.930 . S
C582 C583 1.367 1_655 S
C582 C590 1.378 . S
C583 C582 1.367 1_455 S
C583 C591 1.433 . S
C584 H580 0.929 . S
C584 C586 1.378 . S
C584 C588 1.350 . S
C585 C588 1.463 . S
C585 C590 1.349 1_455 S
C585 N593 1.427 . S
C586 H577 0.930 . S
C586 C584 1.378 . S
C586 C587 1.367 . S
C587 C586 1.367 . S
C587 C589 1.433 . S
C588 C584 1.350 . S
C588 C585 1.463 . S
C588 N592 1.427 . S
C589 H579 0.929 1_455 S
C589 C587 1.433 . S
C589 N592 1.384 . S
C590 H581 0.929 . S
C590 C582 1.378 . S
C590 C585 1.349 1_655 S
C591 H578 0.929 . S
C591 C583 1.433 . S
C591 N593 1.384 . S
N592 C588 1.427 . S
N592 C589 1.384 . S
N593 C585 1.427 . S
N593 C591 1.384 . S
H594 C600 0.930 . S
H595 C604 0.930 . S
H596 C609 0.929 . S
H597 C607 0.929 . S
H598 C602 0.929 . S
H599 C608 0.929 . S
C600 H594 0.930 . S
C600 C601 1.367 1_565 S
C600 C608 1.378 . S
C601 C600 1.367 1_545 S
C601 C609 1.433 . S
C602 H598 0.929 . S
C602 C604 1.378 . S
C602 C606 1.350 . S
C603 C606 1.463 . S
C603 C608 1.350 1_545 S
C603 N611 1.427 . S
C604 H595 0.930 . S
C604 C602 1.378 . S
C604 C605 1.367 . S
C605 C604 1.367 . S
C605 C607 1.433 1_545 S
C606 C602 1.350 . S
C606 C603 1.463 . S
C606 N610 1.427 1_545 S
C607 H597 0.929 . S
C607 C605 1.433 1_565 S
C607 N610 1.384 . S
C608 H599 0.929 . S
C608 C600 1.378 . S
C608 C603 1.350 1_565 S
C609 H596 0.929 . S
C609 C601 1.433 . S
C609 N611 1.384 . S
N610 C606 1.427 1_565 S
N610 C607 1.384 . S
N611 C603 1.427 . S
N611 C609 1.384 . S
H612 C618 0.930 . S
H613 C622 0.930 . S
H614 C627 0.929 . S
H615 C625 0.929 . S
H616 C620 0.929 . S
H617 C626 0.929 . S
C618 H612 0.930 . S
C618 C619 1.367 . S
C618 C626 1.378 . S
C619 C618 1.367 . S
C619 C627 1.433 . S
C620 H616 0.929 . S
C620 C622 1.378 . S
C620 C624 1.350 . S
C621 C624 1.463 . S
C621 C626 1.350 . S
C621 N629 1.427 . S
C622 H613 0.930 . S
C622 C620 1.378 . S
C622 C623 1.367 . S
C623 C622 1.367 . S
C623 C625 1.433 . S
C624 C620 1.350 . S
C624 C621 1.463 . S
C624 N628 1.427 . S
C625 H615 0.929 . S
C625 C623 1.433 . S
C625 N628 1.384 . S
C626 H617 0.929 . S
C626 C618 1.378 . S
C626 C621 1.350 . S
C627 H614 0.929 . S
C627 C619 1.433 . S
C627 N629 1.384 . S
N628 C624 1.427 . S
N628 C625 1.384 . S
N629 C621 1.427 . S
N629 C627 1.384 . S
H630 C636 0.930 . S
H631 C640 0.930 . S
H632 C645 0.929 . S
H633 C643 0.929 . S
H634 C638 0.929 . S
H635 C644 0.929 . S
C636 H630 0.930 . S
C636 C637 1.367 . S
C636 C644 1.378 . S
C637 C636 1.367 . S
C637 C645 1.433 1_545 S
C638 H634 0.929 . S
C638 C640 1.378 . S
C638 C642 1.350 . S
C639 C642 1.463 1_545 S
C639 C644 1.350 . S
C639 N647 1.427 1_545 S
C640 H631 0.930 . S
C640 C638 1.378 . S
C640 C641 1.367 . S
C641 C640 1.367 . S
C641 C643 1.433 1_565 S
C642 C638 1.350 . S
C642 C639 1.463 1_565 S
C642 N646 1.427 1_565 S
C643 H633 0.929 . S
C643 C641 1.433 1_545 S
C643 N646 1.384 . S
C644 H635 0.929 . S
C644 C636 1.378 . S
C644 C639 1.350 . S
C645 H632 0.929 . S
C645 C637 1.433 1_565 S
C645 N647 1.384 . S
N646 C642 1.427 1_545 S
N646 C643 1.384 . S
N647 C639 1.427 1_565 S
N647 C645 1.384 . S
H648 C654 0.930 . S
H649 C658 0.930 . S
H650 C663 0.929 . S
H651 C661 0.929 . S
H652 C656 0.929 . S
H653 C662 0.929 . S
C654 H648 0.930 . S
C654 C655 1.367 . S
C654 C662 1.378 . S
C655 C654 1.367 . S
C655 C663 1.433 . S
C656 H652 0.929 . S
C656 C658 1.378 . S
C656 C660 1.350 . S
C657 C660 1.463 . S
C657 C662 1.350 . S
C657 N665 1.427 . S
C658 H649 0.930 . S
C658 C656 1.378 . S
C658 C659 1.367 . S
C659 C658 1.367 . S
C659 C661 1.433 . S
C660 C656 1.350 . S
C660 C657 1.463 . S
C660 N664 1.427 . S
C661 H651 0.929 . S
C661 C659 1.433 . S
C661 N664 1.384 . S
C662 H653 0.929 . S
C662 C654 1.378 . S
C662 C657 1.350 . S
C663 H650 0.929 . S
C663 C655 1.433 . S
C663 N665 1.384 . S
N664 C660 1.427 . S
N664 C661 1.384 . S
N665 C657 1.427 . S
N665 C663 1.384 . S
H666 C672 0.930 . S
H667 C676 0.930 . S
H668 C681 0.927 1_655 S
H669 C679 0.929 . S
H670 C674 0.929 . S
H671 C680 0.929 . S
C672 H666 0.930 . S
C672 C673 1.367 . S
C672 C680 1.378 . S
C673 C672 1.367 . S
C673 C681 1.435 . S
C674 H670 0.929 . S
C674 C676 1.378 . S
C674 C678 1.362 1_655 S
C675 C678 1.464 . S
C675 C680 1.350 . S
C675 N683 1.427 1_455 S
C676 H667 0.930 . S
C676 C674 1.378 . S
C676 C677 1.367 . S
C677 C676 1.367 . S
C677 C679 1.433 1_655 S
C678 C674 1.362 1_455 S
C678 C675 1.464 . S
C678 N682 1.413 . S
C679 H669 0.929 . S
C679 C677 1.433 1_455 S
C679 N682 1.384 . S
C680 H671 0.929 . S
C680 C672 1.378 . S
C680 C675 1.350 . S
C681 H668 0.927 1_455 S
C681 C673 1.435 . S
C681 N683 1.384 1_455 S
N682 C678 1.413 . S
N682 C679 1.384 . S
N683 C675 1.427 1_655 S
N683 C681 1.384 1_655 S
C367 C6 0.573 . S
C371 C335 0.561 . S
C385 C59 1.976 . S
C389 C242 1.952 . S
C403 C86 1.211 . S
C407 C282 1.222 . S
C421 C15 0.377 . S
C425 C322 0.339 . S
C443 C255 2.074 . S
C439 C50 2.132 . S
C461 C295 1.331 . S
C457 C95 1.326 . S
C475 C46 1.205 . S
C479 C162 1.202 . S
C493 C99 3.163 . S
C497 C202 3.128 . S
C511 C10 2.163 . S
C515 C135 2.100 . S
C533 C175 1.310 . S
C529 C55 1.316 . S
C551 C215 3.034 . S
C547 C90 3.080 . S
C565 C19 1.974 . S
C569 C122 1.954 . S
C587 C221 1.755 1_554 S
C583 C18 1.702 . S
C601 C49 1.348 . S
C605 C141 1.384 . S
C619 C98 1.465 . S
C623 C181 1.502 . S
C641 C301 1.491 . S
C637 C58 1.443 . S
C659 C341 1.115 . S
C655 C89 1.094 . S
C673 C9 1.344 . S
C677 C261 1.374 . S
