# Generated by pormake.
# Topology ant, (3,6)-cn, num edge types: 1
# Building blocks:
#     Node 0, Type 0, BuildingBlock: WUSLED_clean_sbu_0, # of connection points: 3
#     Node 1, Type 0, BuildingBlock: WUSLED_clean_sbu_0, # of connection points: 3
#     Node 2, Type 0, BuildingBlock: WUSLED_clean_sbu_0, # of connection points: 3
#     Node 3, Type 0, BuildingBlock: WUSLED_clean_sbu_0, # of connection points: 3
#     Node 4, Type 0, BuildingBlock: WUSLED_clean_sbu_0, # of connection points: 3
#     Node 5, Type 0, BuildingBlock: WUSLED_clean_sbu_0, # of connection points: 3
#     Node 6, Type 0, BuildingBlock: WUSLED_clean_sbu_0, # of connection points: 3
#     Node 7, Type 0, BuildingBlock: WUSLED_clean_sbu_0, # of connection points: 3
#     Node 8, Type 1, BuildingBlock: MIDCAF_clean_sbu_0, # of connection points: 6
#     Node 9, Type 1, BuildingBlock: MIDCAF_clean_sbu_0, # of connection points: 6
#     Node 10, Type 1, BuildingBlock: MIDCAF_clean_sbu_0, # of connection points: 6
#     Node 11, Type 1, BuildingBlock: MIDCAF_clean_sbu_0, # of connection points: 6
#     Edge 12, Type (0, 1), BuildingBlock: XUDNAN_clean_linker_2, # of connection points: 2
#     Edge 13, Type (0, 1), BuildingBlock: XUDNAN_clean_linker_2, # of connection points: 2
#     Edge 14, Type (0, 1), BuildingBlock: XUDNAN_clean_linker_2, # of connection points: 2
#     Edge 15, Type (0, 1), BuildingBlock: XUDNAN_clean_linker_2, # of connection points: 2
#     Edge 16, Type (0, 1), BuildingBlock: XUDNAN_clean_linker_2, # of connection points: 2
#     Edge 17, Type (0, 1), BuildingBlock: XUDNAN_clean_linker_2, # of connection points: 2
#     Edge 18, Type (0, 1), BuildingBlock: XUDNAN_clean_linker_2, # of connection points: 2
#     Edge 19, Type (0, 1), BuildingBlock: XUDNAN_clean_linker_2, # of connection points: 2
#     Edge 20, Type (0, 1), BuildingBlock: XUDNAN_clean_linker_2, # of connection points: 2
#     Edge 21, Type (0, 1), BuildingBlock: XUDNAN_clean_linker_2, # of connection points: 2
#     Edge 22, Type (0, 1), BuildingBlock: XUDNAN_clean_linker_2, # of connection points: 2
#     Edge 23, Type (0, 1), BuildingBlock: XUDNAN_clean_linker_2, # of connection points: 2
#     Edge 24, Type (0, 1), BuildingBlock: XUDNAN_clean_linker_2, # of connection points: 2
#     Edge 25, Type (0, 1), BuildingBlock: XUDNAN_clean_linker_2, # of connection points: 2
#     Edge 26, Type (0, 1), BuildingBlock: XUDNAN_clean_linker_2, # of connection points: 2
#     Edge 27, Type (0, 1), BuildingBlock: XUDNAN_clean_linker_2, # of connection points: 2
#     Edge 28, Type (0, 1), BuildingBlock: XUDNAN_clean_linker_2, # of connection points: 2
#     Edge 29, Type (0, 1), BuildingBlock: XUDNAN_clean_linker_2, # of connection points: 2
#     Edge 30, Type (0, 1), BuildingBlock: XUDNAN_clean_linker_2, # of connection points: 2
#     Edge 31, Type (0, 1), BuildingBlock: XUDNAN_clean_linker_2, # of connection points: 2
#     Edge 32, Type (0, 1), BuildingBlock: XUDNAN_clean_linker_2, # of connection points: 2
#     Edge 33, Type (0, 1), BuildingBlock: XUDNAN_clean_linker_2, # of connection points: 2
#     Edge 34, Type (0, 1), BuildingBlock: XUDNAN_clean_linker_2, # of connection points: 2
#     Edge 35, Type (0, 1), BuildingBlock: XUDNAN_clean_linker_2, # of connection points: 2
# Relax obj value: 0.097
# Max RMSD: 0.155
# Mean RMSD: 0.100
data_MOF--net-ant--node1-WUSLED_clean_sbu_0--node2-MIDCAF_clean_sbu_0--edge1-XUDNAN_clean_linker_2
_symmetry_space_group_name_H-M    P1
_symmetry_Int_Tables_number       1
_symmetry_cell_setting            triclinic
loop_
_symmetry_equiv_pos_as_xyz
'x, y, z'
_cell_length_a     36.397626
_cell_length_b     36.28364
_cell_length_c     99.121667
_cell_angle_alpha  90.055106
_cell_angle_beta   94.370169
_cell_angle_gamma 89.861196
loop_
_atom_site_label
_atom_site_type_symbol
_atom_site_fract_x
_atom_site_fract_y
_atom_site_fract_z
_atom_type_partial_charge
C0 C 0.20843 0.16078 0.09524 0.0
C1 C 0.24424 0.14788 0.09901 0.0
C2 C 0.22052 0.08678 0.1038 0.0
C3 C 0.25023 0.11129 0.10317 0.0
C4 C 0.18466 0.09992 0.10028 0.0
C5 C 0.17868 0.13639 0.09608 0.0
U6 U 0.18767 0.22871 0.06635 0.0
O7 O 0.15085 0.27686 0.06417 0.0
O8 O 0.2101 0.28361 0.0622 0.0
C9 C 0.17795 0.30006 0.06264 0.0
C10 C 0.20243 0.19928 0.09034 0.0
C11 C 0.17698 0.336 0.06987 0.0
C12 C 0.14135 0.3857 0.07921 0.0
C13 C 0.14379 0.34954 0.07439 0.0
C14 C 0.20546 0.39553 0.07547 0.0
C15 C 0.17194 0.40943 0.07957 0.0
C16 C 0.20789 0.35936 0.07062 0.0
C17 C 0.17472 0.18555 0.03048 0.0
C18 C 0.133 0.19403 0.0103 0.0
C19 C 0.19564 0.1736 0.00813 0.0
C20 C 0.20243 0.17463 0.0222 0.0
C21 C 0.1608 0.18312 0.00201 0.0
C22 C 0.13987 0.19528 0.02438 0.0
C23 C 0.18212 0.18409 0.04538 0.0
O24 O 0.22799 0.21291 0.08309 0.0
O25 O 0.16884 0.20773 0.08546 0.0
O26 O 0.15452 0.19165 0.05276 0.0
O27 O 0.21355 0.19823 0.05032 0.0
H28 H 0.26772 0.16604 0.09863 0.0
H29 H 0.27816 0.10225 0.10596 0.0
H30 H 0.16114 0.08175 0.10047 0.0
H31 H 0.15067 0.14524 0.09334 0.0
H32 H 0.11524 0.39524 0.08248 0.0
H33 H 0.11925 0.33262 0.07382 0.0
H34 H 0.22948 0.41307 0.07547 0.0
H35 H 0.23369 0.35017 0.06698 0.0
H36 H 0.10601 0.20196 0.00588 0.0
H37 H 0.21752 0.1647 0.00205 0.0
H38 H 0.22935 0.16644 0.02663 0.0
H39 H 0.11779 0.20361 0.03046 0.0
C40 C 0.17733 0.80658 0.34297 0.0
C41 C 0.1904 0.81022 0.35658 0.0
C42 C 0.25395 0.81261 0.35021 0.0
C43 C 0.22831 0.81324 0.36017 0.0
C44 C 0.24052 0.80931 0.33655 0.0
C45 C 0.20266 0.80628 0.33298 0.0
U46 U 0.10006 0.78953 0.31597 0.0
O47 O 0.04981 0.75542 0.31571 0.0
O48 O 0.04551 0.81482 0.31168 0.0
C49 C 0.02778 0.78369 0.31309 0.0
C50 C 0.13748 0.80241 0.33922 0.0
C51 C 0.99397 0.78571 0.32038 0.0
C52 C 0.95888 0.81054 0.33823 0.0
C53 C 0.99257 0.80555 0.33248 0.0
C54 C 0.92789 0.77482 0.32014 0.0
C55 C 0.92593 0.79595 0.33197 0.0
C56 C 0.96155 0.76983 0.31442 0.0
C57 C 0.12811 0.77598 0.27983 0.0
C58 C 0.08546 0.75756 0.26098 0.0
C59 C 0.148 0.77493 0.25703 0.0
C60 C 0.15545 0.78144 0.27085 0.0
C61 C 0.11296 0.76279 0.25192 0.0
C62 C 0.09295 0.76424 0.27484 0.0
C63 C 0.13693 0.78262 0.29434 0.0
O64 O 0.12239 0.82865 0.33149 0.0
O65 O 0.12715 0.76924 0.33517 0.0
O66 O 0.13066 0.75499 0.30241 0.0
O67 O 0.12608 0.81455 0.29888 0.0
H68 H 0.1713 0.81038 0.36445 0.0
H69 H 0.23755 0.81525 0.37079 0.0
H70 H 0.25925 0.80925 0.32857 0.0
H71 H 0.19313 0.80354 0.3224 0.0
H72 H 0.95858 0.82636 0.34749 0.0
H73 H 0.01728 0.81796 0.33727 0.0
H74 H 0.9032 0.76343 0.31497 0.0
H75 H 0.96205 0.75453 0.30504 0.0
H76 H 0.05815 0.74849 0.25734 0.0
H77 H 0.16999 0.77861 0.25039 0.0
H78 H 0.18275 0.79047 0.27456 0.0
H79 H 0.07143 0.76008 0.28165 0.0
C80 C 0.71097 0.65988 0.59461 0.0
C81 C 0.74501 0.64812 0.60083 0.0
C82 C 0.72149 0.58564 0.60298 0.0
C83 C 0.75029 0.61134 0.60491 0.0
C84 C 0.68741 0.59756 0.59685 0.0
C85 C 0.68221 0.63411 0.59271 0.0
U86 U 0.69324 0.72664 0.5655 0.0
O87 O 0.65575 0.77395 0.56237 0.0
O88 O 0.71521 0.78174 0.56126 0.0
C89 C 0.68261 0.7976 0.56113 0.0
C90 C 0.70603 0.69848 0.58976 0.0
C91 C 0.68 0.83367 0.56818 0.0
C92 C 0.6421 0.88254 0.5769 0.0
C93 C 0.64589 0.8465 0.57213 0.0
C94 C 0.70658 0.89376 0.57421 0.0
C95 C 0.67221 0.90689 0.57779 0.0
C96 C 0.71037 0.85769 0.5694 0.0
C97 C 0.68281 0.6806 0.53033 0.0
C98 C 0.67606 0.71352 0.50898 0.0
C99 C 0.67093 0.64695 0.50925 0.0
C100 C 0.6771 0.64726 0.52334 0.0
C101 C 0.67033 0.68008 0.50188 0.0
C102 C 0.68219 0.71378 0.52309 0.0
C103 C 0.68955 0.67999 0.54513 0.0
O104 O 0.73236 0.71153 0.58275 0.0
O105 O 0.67286 0.70739 0.58457 0.0
O106 O 0.6612 0.6884 0.55199 0.0
O107 O 0.72041 0.6953 0.55006 0.0
H108 H 0.76765 0.66735 0.60244 0.0
H109 H 0.7768 0.60309 0.60968 0.0
H110 H 0.6648 0.5784 0.595 0.0
H111 H 0.65566 0.64195 0.58788 0.0
H112 H 0.61535 0.89149 0.57975 0.0
H113 H 0.62173 0.82906 0.57118 0.0
H114 H 0.73029 0.91181 0.57462 0.0
H115 H 0.73686 0.84905 0.56621 0.0
H116 H 0.67632 0.7395 0.50362 0.0
H117 H 0.66617 0.6208 0.50414 0.0
H118 H 0.67739 0.62139 0.5288 0.0
H119 H 0.68661 0.73978 0.52834 0.0
C120 C 0.68944 0.3139 0.84298 0.0
C121 C 0.70184 0.33825 0.85336 0.0
C122 C 0.7654 0.31937 0.85105 0.0
C123 C 0.73958 0.34113 0.85733 0.0
C124 C 0.75286 0.29554 0.8405 0.0
C125 C 0.71537 0.29301 0.83645 0.0
U126 U 0.61418 0.29877 0.81522 0.0
O127 O 0.56569 0.26285 0.81364 0.0
O128 O 0.55859 0.32265 0.81113 0.0
C129 C 0.54233 0.29042 0.81186 0.0
C130 C 0.6497 0.31059 0.83884 0.0
C131 C 0.50805 0.28843 0.81902 0.0
C132 C 0.46227 0.25129 0.82946 0.0
C133 C 0.49757 0.2553 0.825 0.0
C134 C 0.44751 0.31392 0.82262 0.0
C135 C 0.43654 0.28024 0.82803 0.0
C136 C 0.48279 0.31788 0.81808 0.0
C137 C 0.64339 0.2861 0.77943 0.0
C138 C 0.60047 0.28805 0.75942 0.0
C139 C 0.66257 0.2651 0.7578 0.0
C140 C 0.67037 0.27135 0.77163 0.0
C141 C 0.62762 0.27365 0.75152 0.0
C142 C 0.60822 0.29404 0.77329 0.0
C143 C 0.65237 0.29304 0.79392 0.0
O144 O 0.63554 0.33737 0.83115 0.0
O145 O 0.6388 0.27771 0.83463 0.0
O146 O 0.64679 0.26519 0.80196 0.0
O147 O 0.64083 0.32471 0.7985 0.0
H148 H 0.68232 0.35486 0.85844 0.0
H149 H 0.74848 0.35968 0.86549 0.0
H150 H 0.77216 0.27887 0.83533 0.0
H151 H 0.70665 0.2745 0.82824 0.0
H152 H 0.45486 0.22519 0.83378 0.0
H153 H 0.51608 0.23185 0.82577 0.0
H154 H 0.42825 0.33667 0.82129 0.0
H155 H 0.48974 0.34352 0.81331 0.0
H156 H 0.57322 0.29458 0.75488 0.0
H157 H 0.68421 0.25442 0.75196 0.0
H158 H 0.69762 0.26498 0.77623 0.0
H159 H 0.58689 0.30511 0.7792 0.0
C160 C 0.0947 0.8348 0.91674 0.0
C161 C 0.06459 0.85888 0.91748 0.0
C162 C 0.10402 0.91219 0.91471 0.0
C163 C 0.06921 0.89702 0.91654 0.0
C164 C 0.13416 0.88813 0.91393 0.0
C165 C 0.12956 0.84991 0.9149 0.0
U166 U 0.09706 0.7462 0.9375 0.0
O167 O 0.05738 0.70041 0.93788 0.0
O168 O 0.11458 0.68965 0.93325 0.0
C169 C 0.08155 0.67588 0.93438 0.0
C170 C 0.08939 0.79426 0.91773 0.0
C171 C 0.06838 0.64748 0.92446 0.0
C172 C 0.07645 0.61027 0.90443 0.0
C173 C 0.08532 0.64149 0.91236 0.0
C174 C 0.03236 0.59172 0.9202 0.0
C175 C 0.05068 0.58444 0.9085 0.0
C176 C 0.04117 0.62285 0.92809 0.0
C177 C 0.12683 0.75237 0.97508 0.0
C178 C 0.12368 0.69944 0.98995 0.0
C179 C 0.14439 0.75849 0.99906 0.0
C180 C 0.13981 0.77392 0.98614 0.0
C181 C 0.13605 0.72115 1.00115 0.0
C182 C 0.11914 0.71494 0.977 0.0
C183 C 0.12016 0.7696 0.96173 0.0
O184 O 0.11925 0.77405 0.92014 0.0
O185 O 0.06193 0.78351 0.92466 0.0
O186 O 0.08547 0.77081 0.957 0.0
O187 O 0.14258 0.75943 0.95262 0.0
H188 H 0.0373 0.84827 0.91879 0.0
H189 H 0.04541 0.91466 0.91732 0.0
H190 H 0.16123 0.89874 0.91228 0.0
H191 H 0.15333 0.83225 0.91413 0.0
H192 H 0.09126 0.60536 0.89553 0.0
H193 H 0.10649 0.65998 0.90933 0.0
H194 H 0.01204 0.57265 0.92351 0.0
H195 H 0.02782 0.62682 0.93739 0.0
H196 H 0.11727 0.67057 0.9912 0.0
H197 H 0.1533 0.77619 0.00748 0.0
H198 H 0.14571 0.8029 0.98482 0.0
H199 H 0.10911 0.69791 0.96852 0.0
C200 C 0.59211 0.81297 0.16005 0.0
C201 C 0.56647 0.82379 0.16919 0.0
C202 C 0.5159 0.81595 0.15175 0.0
C203 C 0.5288 0.82539 0.16508 0.0
C204 C 0.54186 0.80523 0.14265 0.0
C205 C 0.57953 0.80379 0.14676 0.0
U206 U 0.66937 0.8062 0.18801 0.0
O207 O 0.7199 0.77266 0.18992 0.0
O208 O 0.7237 0.83309 0.19075 0.0
C209 C 0.74167 0.80158 0.1909 0.0
C210 C 0.63178 0.81037 0.16436 0.0
C211 C 0.7764 0.8002 0.18401 0.0
C212 C 0.83837 0.8244 0.18267 0.0
C213 C 0.8027 0.82794 0.18684 0.0
C214 C 0.82193 0.76582 0.17223 0.0
C215 C 0.84874 0.79288 0.17561 0.0
C216 C 0.78616 0.76934 0.17644 0.0
C217 C 0.64525 0.80396 0.22471 0.0
C218 C 0.68804 0.81753 0.24416 0.0
C219 C 0.63285 0.78211 0.24705 0.0
C220 C 0.6228 0.78493 0.2332 0.0
C221 C 0.66553 0.79842 0.25269 0.0
C222 C 0.67812 0.82006 0.23026 0.0
C223 C 0.63414 0.80617 0.21013 0.0
O224 O 0.64611 0.83927 0.17081 0.0
O225 O 0.6425 0.77897 0.16999 0.0
O226 O 0.63987 0.77615 0.20316 0.0
O227 O 0.6433 0.83651 0.20397 0.0
H228 H 0.57558 0.8309 0.17952 0.0
H229 H 0.50981 0.83419 0.17234 0.0
H230 H 0.53305 0.79713 0.13239 0.0
H231 H 0.59885 0.79512 0.13958 0.0
H232 H 0.85808 0.84609 0.18523 0.0
H233 H 0.79613 0.85182 0.19278 0.0
H234 H 0.82903 0.74111 0.16685 0.0
H235 H 0.7667 0.74723 0.17422 0.0
H236 H 0.71346 0.83018 0.24822 0.0
H237 H 0.61465 0.76767 0.25338 0.0
H238 H 0.5974 0.77228 0.22911 0.0
H239 H 0.69611 0.83457 0.22386 0.0
C240 C 0.57612 0.34871 0.41664 0.0
C241 C 0.55135 0.37341 0.42213 0.0
C242 C 0.58621 0.42611 0.41473 0.0
C243 C 0.55636 0.41156 0.4212 0.0
C244 C 0.61108 0.40137 0.4093 0.0
C245 C 0.606 0.36321 0.4102 0.0
U246 U 0.57977 0.25743 0.43608 0.0
O247 O 0.53994 0.21172 0.43622 0.0
O248 O 0.59622 0.20147 0.43046 0.0
C249 C 0.56342 0.18758 0.43194 0.0
C250 C 0.5705 0.30812 0.41722 0.0
C251 C 0.54892 0.1597 0.422 0.0
C252 C 0.5564 0.1205 0.4024 0.0
C253 C 0.56634 0.15184 0.41013 0.0
C254 C 0.51035 0.10551 0.41787 0.0
C255 C 0.52913 0.09631 0.40645 0.0
C256 C 0.52016 0.1368 0.42555 0.0
C257 C 0.61363 0.25867 0.47346 0.0
C258 C 0.61179 0.2042 0.48766 0.0
C259 C 0.63384 0.26216 0.49732 0.0
C260 C 0.62796 0.27896 0.48466 0.0
C261 C 0.62549 0.22465 0.49902 0.0
C262 C 0.60593 0.22108 0.47497 0.0
C263 C 0.60562 0.27742 0.46044 0.0
O264 O 0.60043 0.2877 0.41892 0.0
O265 O 0.54381 0.29655 0.42438 0.0
O266 O 0.57056 0.27935 0.45622 0.0
O267 O 0.62685 0.26832 0.45081 0.0
H268 H 0.52777 0.36339 0.42706 0.0
H269 H 0.53624 0.42964 0.42528 0.0
H270 H 0.63462 0.41146 0.40437 0.0
H271 H 0.62547 0.34499 0.4058 0.0
H272 H 0.5716 0.11406 0.39371 0.0
H273 H 0.58876 0.16885 0.40717 0.0
H274 H 0.48896 0.08769 0.42118 0.0
H275 H 0.50644 0.14206 0.43469 0.0
H276 H 0.60534 0.17523 0.48859 0.0
H277 H 0.64375 0.27895 0.50587 0.0
H278 H 0.63391 0.30804 0.48367 0.0
H279 H 0.59488 0.20499 0.46639 0.0
C280 C 0.08812 0.31424 0.65839 0.0
C281 C 0.0636 0.32958 0.66716 0.0
C282 C 1.01165 0.3186 0.65057 0.0
C283 C 0.02581 0.33192 0.66326 0.0
C284 C 0.03637 0.30338 0.64181 0.0
C285 C 0.07418 0.30132 0.64568 0.0
U286 U 0.16572 0.29934 0.68582 0.0
O287 O 0.21638 0.26583 0.68618 0.0
O288 O 0.22001 0.32555 0.68988 0.0
C289 C 0.23799 0.29433 0.68886 0.0
C290 C 0.12793 0.31046 0.66252 0.0
C291 C 0.27369 0.29573 0.68272 0.0
C292 C 0.3148 0.28054 0.6652 0.0
C293 C 0.27935 0.28063 0.66998 0.0
C294 C 0.33892 0.31039 0.68585 0.0
C295 C 0.34507 0.29547 0.6731 0.0
C296 C 0.30376 0.31059 0.69054 0.0
C297 C 0.141 0.2876 0.72221 0.0
C298 C 0.18509 0.26614 0.74016 0.0
C299 C 0.12589 0.29026 0.74563 0.0
C300 C 0.11639 0.29665 0.73189 0.0
C301 C 0.1602 0.27454 0.74992 0.0
C302 C 0.17564 0.27276 0.72643 0.0
C303 C 0.13009 0.29351 0.70777 0.0
O304 O 0.14282 0.33728 0.67 0.0
O305 O 0.13855 0.27757 0.66682 0.0
O306 O 0.13581 0.26554 0.69974 0.0
O307 O 0.13991 0.32528 0.70284 0.0
H308 H 0.07357 0.33937 0.6771 0.0
H309 H 1.00756 0.34329 0.67034 0.0
H310 H 0.02648 0.29311 0.63194 0.0
H311 H 0.09253 0.2893 0.63877 0.0
H312 H 0.31842 0.26906 0.6553 0.0
H313 H 0.25658 0.26873 0.6638 0.0
H314 H 0.36148 0.32136 0.69238 0.0
H315 H 0.30016 0.32185 0.70049 0.0
H316 H 0.21183 0.25431 0.74315 0.0
H317 H 0.1059 0.29658 0.75286 0.0
H318 H 0.08958 0.30822 0.72882 0.0
H319 H 0.19517 0.26593 0.71908 0.0
Zn320 Zn 0.21022 0.69682 0.14298 0.0
Zn321 Zn 0.12247 0.78145 0.11376 0.0
Zn322 Zn 0.16879 0.74377 0.12777 0.0
C323 C 0.14192 0.7277 0.09659 0.0
C324 C 0.18225 0.8277 0.12131 0.0
O325 O 0.14465 0.73668 0.14749 0.0
O326 O 0.18081 0.69662 0.15904 0.0
C327 C 0.18726 0.65759 0.11985 0.0
O328 O 0.15645 0.71552 0.108 0.0
O329 O 0.12699 0.75906 0.09586 0.0
O330 O 0.14818 0.82882 0.1178 0.0
O331 O 0.19796 0.79655 0.12433 0.0
O332 O 0.20708 0.65338 0.13076 0.0
O333 O 0.17182 0.68914 0.11707 0.0
O334 O 0.22391 0.77058 0.13079 0.0
O335 O 0.25453 0.72878 0.1435 0.0
C336 C 0.25382 0.75931 0.13736 0.0
O337 O 0.11797 0.75517 0.13887 0.0
O338 O 0.07665 0.77234 0.12261 0.0
C339 C 0.15308 0.71764 0.15828 0.0
C340 C 0.08441 0.76367 0.1348 0.0
Zn341 Zn 0.5772 0.72142 0.35893 0.0
Zn342 Zn 0.64157 0.81294 0.39263 0.0
Zn343 Zn 0.60705 0.76816 0.37611 0.0
C344 C 0.57521 0.84724 0.38506 0.0
C345 C 0.68737 0.80596 0.37202 0.0
O346 O 0.6045 0.71263 0.38625 0.0
O347 O 0.58617 0.67561 0.36934 0.0
C348 C 0.52203 0.77335 0.36442 0.0
O349 O 0.56974 0.81678 0.37846 0.0
O350 O 0.60509 0.85259 0.39206 0.0
O351 O 0.68682 0.82148 0.3834 0.0
O352 O 0.65984 0.78587 0.3675 0.0
O353 O 0.527 0.74344 0.35827 0.0
O354 O 0.54937 0.78861 0.37138 0.0
O355 O 0.63783 0.76797 0.35739 0.0
O356 O 0.60684 0.72969 0.34343 0.0
C357 C 0.63286 0.75228 0.34569 0.0
O358 O 0.62022 0.7383 0.39566 0.0
O359 O 0.6445 0.78242 0.40893 0.0
C360 C 0.59686 0.67996 0.38164 0.0
C361 C 0.63373 0.74962 0.40735 0.0
Zn362 Zn 0.61821 0.2778 0.61114 0.0
Zn363 Zn 0.70732 0.19718 0.63981 0.0
Zn364 Zn 0.66531 0.2427 0.62528 0.0
C365 C 0.7518 0.25659 0.63239 0.0
C366 C 0.68055 0.15486 0.61845 0.0
O367 O 0.6146 0.25529 0.63648 0.0
O368 O 0.57232 0.26914 0.62007 0.0
C369 C 0.67769 0.32558 0.6182 0.0
O370 O 0.72042 0.27026 0.62792 0.0
O371 O 0.7535 0.22441 0.63725 0.0
O372 O 0.69916 0.15084 0.62962 0.0
O373 O 0.6673 0.18697 0.61503 0.0
O374 O 0.64355 0.32568 0.61474 0.0
O375 O 0.69415 0.29496 0.62139 0.0
O376 O 0.65291 0.21293 0.60567 0.0
O377 O 0.62234 0.25533 0.59331 0.0
C378 C 0.63796 0.22434 0.59419 0.0
O379 O 0.64281 0.23915 0.64527 0.0
O380 O 0.6835 0.20428 0.65708 0.0
C381 C 0.58074 0.26257 0.63239 0.0
C382 C 0.65496 0.22425 0.65655 0.0
Zn383 Zn 0.07577 0.2059 0.85971 0.0
Zn384 Zn 0.16039 0.2954 0.88889 0.0
Zn385 Zn 0.11397 0.25237 0.87454 0.0
C386 C 0.14634 0.23596 0.90548 0.0
C387 C 0.09428 0.3351 0.88303 0.0
O388 O 0.13865 0.24501 0.85477 0.0
O389 O 0.10062 0.20797 0.84272 0.0
C390 C 0.09879 0.16651 0.88245 0.0
O391 O 0.1268 0.22605 0.89466 0.0
O392 O 0.16482 0.26536 0.90556 0.0
O393 O 0.1265 0.33802 0.8886 0.0
O394 O 0.08335 0.30469 0.87731 0.0
O395 O 0.08261 0.16157 0.87088 0.0
O396 O 0.11121 0.19879 0.88588 0.0
O397 O 0.05822 0.27857 0.87108 0.0
O398 O 0.02869 0.23212 0.86076 0.0
C399 C 0.02804 0.26385 0.86597 0.0
O400 O 0.16526 0.26149 0.86382 0.0
O401 O 0.20203 0.29643 0.87721 0.0
C402 C 0.129 0.22791 0.84364 0.0
C403 C 0.19632 0.27821 0.86641 0.0
H404 H 0.22151 0.45171 0.09532 0.0
H405 H 0.11439 0.45673 0.07294 0.0
H406 H 0.10814 0.52189 0.0796 0.0
H407 H 0.19859 0.5072 0.123 0.0
H408 H 0.24276 0.52972 0.12506 0.0
H409 H 0.2393 0.48397 0.11805 0.0
H410 H 0.2702 0.50635 0.09683 0.0
H411 H 0.27359 0.55226 0.10376 0.0
H412 H 0.25054 0.54475 0.08724 0.0
H413 H 0.11251 0.58634 0.08953 0.0
H414 H 0.12648 0.64332 0.10267 0.0
H415 H 0.23142 0.59699 0.11777 0.0
C416 C 0.19691 0.46659 0.09168 0.0
C417 C 0.1684 0.44888 0.08362 0.0
C418 C 0.13641 0.46938 0.07928 0.0
C419 C 0.13273 0.50656 0.08291 0.0
C420 C 0.1613 0.5231 0.09087 0.0
C421 C 0.19276 0.50374 0.09523 0.0
C422 C 0.21886 0.52754 0.1041 0.0
C423 C 0.22523 0.51113 0.1184 0.0
C424 C 0.25547 0.53305 0.09759 0.0
C425 C 0.197 0.56314 0.10421 0.0
C426 C 0.164 0.56019 0.09643 0.0
C427 C 0.13858 0.58913 0.09545 0.0
C428 C 0.14692 0.62165 0.10278 0.0
C429 C 0.18043 0.62514 0.11088 0.0
C430 C 0.20578 0.59544 0.11149 0.0
H431 H 0.86512 0.75039 0.33359 0.0
H432 H 0.90389 0.86175 0.34213 0.0
H433 H 0.8447 0.87711 0.35118 0.0
H434 H 0.76759 0.77708 0.32381 0.0
H435 H 0.74915 0.73687 0.33149 0.0
H436 H 0.79355 0.73465 0.3246 0.0
H437 H 0.82326 0.71187 0.34772 0.0
H438 H 0.77897 0.7138 0.35462 0.0
H439 H 0.81739 0.73869 0.36273 0.0
H440 H 0.78405 0.87995 0.36062 0.0
H441 H 0.72542 0.86941 0.37082 0.0
H442 H 0.72333 0.75678 0.35606 0.0
C443 C 0.86095 0.77816 0.33718 0.0
C444 C 0.88953 0.80475 0.33725 0.0
C445 C 0.88295 0.84062 0.34221 0.0
C446 C 0.84916 0.8498 0.34722 0.0
C447 C 0.82183 0.823 0.3471 0.0
C448 C 0.82712 0.78791 0.34219 0.0
C449 C 0.79355 0.76391 0.34394 0.0
C450 C 0.77487 0.75245 0.33014 0.0
C451 C 0.80392 0.73008 0.35278 0.0
C452 C 0.76938 0.79062 0.35112 0.0
C453 C 0.78613 0.82471 0.35258 0.0
C454 C 0.77046 0.85353 0.35942 0.0
C455 C 0.73718 0.84723 0.36521 0.0
C456 C 0.71974 0.8124 0.36415 0.0
C457 C 0.73574 0.78387 0.3568 0.0
H458 H 0.67344 0.54229 0.61569 0.0
H459 H 0.78058 0.53993 0.59937 0.0
H460 H 0.78547 0.47302 0.60422 0.0
H461 H 0.69293 0.47219 0.64235 0.0
H462 H 0.6471 0.45344 0.63988 0.0
H463 H 0.65479 0.50166 0.63681 0.0
H464 H 0.62413 0.49476 0.61245 0.0
H465 H 0.61631 0.44669 0.61546 0.0
H466 H 0.64146 0.46055 0.60134 0.0
H467 H 0.77455 0.40391 0.60851 0.0
H468 H 0.74833 0.34142 0.61142 0.0
H469 H 0.64914 0.39103 0.62491 0.0
C470 C 0.69818 0.52784 0.61328 0.0
C471 C 0.72659 0.54637 0.60714 0.0
C472 C 0.7586 0.52642 0.60422 0.0
C473 C 0.76158 0.48837 0.60692 0.0
C474 C 0.73253 0.47076 0.61269 0.0
C475 C 0.70157 0.49011 0.61592 0.0
C476 C 0.67288 0.46483 0.62109 0.0
C477 C 0.66657 0.47356 0.63592 0.0
C478 C 0.63658 0.46683 0.61204 0.0
C479 C 0.69181 0.42801 0.61982 0.0
C480 C 0.72643 0.43172 0.61516 0.0
C481 C 0.74773 0.40083 0.61239 0.0
C482 C 0.73281 0.36545 0.61414 0.0
C483 C 0.69695 0.36147 0.61853 0.0
C484 C 0.6768 0.39323 0.62166 0.0
H485 H 0.81063 0.26069 0.85659 0.0
H486 H 0.81011 0.38007 0.8556 0.0
H487 H 0.87778 0.38031 0.86131 0.0
H488 H 0.88229 0.25056 0.8845 0.0
H489 H 0.90129 0.21017 0.87701 0.0
H490 H 0.85285 0.22029 0.87412 0.0
H491 H 0.85856 0.21832 0.8482 0.0
H492 H 0.90692 0.20825 0.85101 0.0
H493 H 0.89182 0.24746 0.84088 0.0
H494 H 0.94773 0.36592 0.86509 0.0
H495 H 1.0105 0.33838 0.86668 0.0
H496 H 0.96237 0.22933 0.86563 0.0
C497 C 0.82469 0.28693 0.85769 0.0
C498 C 0.80525 0.32034 0.8556 0.0
C499 C 0.82454 0.35413 0.85725 0.0
C500 C 0.86294 0.3545 0.86047 0.0
C501 C 0.88143 0.32085 0.86219 0.0
C502 C 0.86266 0.28775 0.86098 0.0
C503 C 0.88849 0.25522 0.86272 0.0
C504 C 0.88076 0.23275 0.87534 0.0
C505 C 0.88632 0.23091 0.84994 0.0
C506 C 0.92497 0.27498 0.86467 0.0
C507 C 0.92068 0.31281 0.86449 0.0
C508 C 0.95122 0.3363 0.86545 0.0
C509 C 0.98683 0.32054 0.86644 0.0
C510 C 0.99147 0.28184 0.86637 0.0
C511 C 0.95993 0.25909 0.8657 0.0
H512 H 0.04785 0.51638 0.92003 0.0
H513 H 0.04432 0.57078 0.88103 0.0
H514 H 0.04297 0.50992 0.86968 0.0
H515 H 0.10919 0.44962 0.91285 0.0
H516 H 0.08919 0.41347 0.92236 0.0
H517 H 0.08297 0.46075 0.92704 0.0
H518 H 0.0121 0.45176 0.92485 0.0
H519 H 0.01819 0.40431 0.92006 0.0
H520 H 0.9899 0.43459 0.90922 0.0
H521 H 0.05084 0.44327 0.86288 0.0
H522 H 0.07169 0.37835 0.86154 0.0
H523 H 0.06963 0.36817 0.90493 0.0
C524 C 0.0454 0.51557 0.90908 0.0
C525 C 0.04566 0.54838 0.90141 0.0
C526 C 0.04403 0.54602 0.88711 0.0
C527 C 0.04293 0.51156 0.88058 0.0
C528 C 0.04331 0.4797 0.88848 0.0
C529 C 0.04448 0.48152 0.90244 0.0
C530 C 0.04935 0.44371 0.90876 0.0
C531 C 0.08477 0.4418 0.9183 0.0
C532 C 0.01535 0.43297 0.91616 0.0
C533 C 0.05237 0.42037 0.89624 0.0
C534 C 0.04794 0.4414 0.88458 0.0
C535 C 0.05333 0.42639 0.8719 0.0
C536 C 0.06487 0.38946 0.87119 0.0
C537 C 0.07085 0.36813 0.88309 0.0
C538 C 0.06363 0.38357 0.89566 0.0
H539 H 0.87452 0.76623 0.15204 0.0
H540 H 0.91134 0.80772 0.19186 0.0
H541 H 0.97606 0.80061 0.18643 0.0
H542 H 0.94832 0.69816 0.14968 0.0
H543 H 0.95164 0.70616 0.13187 0.0
H544 H 0.90824 0.7126 0.13918 0.0
H545 H 0.90446 0.77948 0.13001 0.0
H546 H 0.94773 0.77321 0.12265 0.0
H547 H 0.94202 0.81075 0.13423 0.0
H548 H 0.03713 0.79247 0.1761 0.0
H549 H 0.08857 0.78565 0.16129 0.0
H550 H 0.01214 0.74704 0.12878 0.0
C551 C 0.89618 0.77332 0.15969 0.0
C552 C 0.88774 0.78767 0.17236 0.0
C553 C 0.91702 0.79718 0.182 0.0
C554 C 0.95392 0.79293 0.17907 0.0
C555 C 0.96125 0.77896 0.16646 0.0
C556 C 0.93318 0.76929 0.15693 0.0
C557 C 0.94838 0.75651 0.14391 0.0
C558 C 0.93856 0.71594 0.14099 0.0
C559 C 0.93485 0.78149 0.132 0.0
C560 C 0.98931 0.76112 0.14751 0.0
C561 C 0.99629 0.77375 0.16061 0.0
C562 C 0.03201 0.78181 0.16593 0.0
C563 C 0.06121 0.77728 0.15756 0.0
C564 C 0.05457 0.7645 0.14413 0.0
C565 C 0.01812 0.75621 0.13912 0.0
H566 H 0.60827 0.464 0.39274 0.0
H567 H 0.57344 0.48078 0.4332 0.0
H568 H 0.57696 0.54822 0.43002 0.0
H569 H 0.67311 0.54181 0.39328 0.0
H570 H 0.66159 0.55226 0.37569 0.0
H571 H 0.65878 0.5055 0.38163 0.0
H572 H 0.5906 0.50225 0.37201 0.0
H573 H 0.5932 0.54891 0.36606 0.0
H574 H 0.55829 0.53629 0.37716 0.0
H575 H 0.57986 0.61477 0.4215 0.0
H576 H 0.58114 0.67279 0.40828 0.0
H577 H 0.61681 0.61144 0.3741 0.0
C578 C 0.60219 0.4817 0.40108 0.0
C579 C 0.5906 0.46684 0.41324 0.0
C580 C 0.58199 0.49133 0.42373 0.0
C581 C 0.58421 0.52975 0.42206 0.0
C582 C 0.59537 0.5434 0.40988 0.0
C583 C 0.6044 0.52 0.39961 0.0
C584 C 0.61386 0.54133 0.38724 0.0
C585 C 0.65424 0.53484 0.3843 0.0
C586 C 0.5874 0.53162 0.3749 0.0
C587 C 0.60789 0.58038 0.392 0.0
C588 C 0.59757 0.58124 0.40512 0.0
C589 C 0.5886 0.61438 0.41131 0.0
C590 C 0.58974 0.64728 0.4038 0.0
C591 C 0.6 0.64673 0.39032 0.0
C592 C 0.60944 0.6128 0.38448 0.0
H593 H 0.96929 0.26367 0.63845 0.0
H594 H 0.96217 0.37468 0.65428 0.0
H595 H 0.8946 0.37415 0.64889 0.0
H596 H 0.89613 0.27288 0.61086 0.0
H597 H 0.87987 0.2266 0.61318 0.0
H598 H 0.92783 0.23742 0.61706 0.0
H599 H 0.9242 0.21218 0.64138 0.0
H600 H 0.87641 0.20114 0.63755 0.0
H601 H 0.88987 0.23037 0.65179 0.0
H602 H 0.8262 0.35924 0.64301 0.0
H603 H 0.76488 0.32959 0.63887 0.0
H604 H 0.81809 0.2291 0.62693 0.0
C605 C 0.95369 0.28823 0.6405 0.0
C606 C 0.97117 0.31932 0.6467 0.0
C607 C 0.94944 0.35046 0.64958 0.0
C608 C 0.91104 0.35051 0.64646 0.0
C609 C 0.89466 0.31924 0.64043 0.0
C610 C 0.91544 0.28865 0.63752 0.0
C611 C 0.89123 0.25741 0.63203 0.0
C612 C 0.89925 0.24804 0.61741 0.0
C613 C 0.89569 0.22328 0.64124 0.0
C614 C 0.85351 0.27477 0.63256 0.0
C615 C 0.85584 0.31066 0.63722 0.0
C616 C 0.82416 0.33133 0.63918 0.0
C617 C 0.78941 0.31447 0.63668 0.0
C618 C 0.78677 0.27735 0.63235 0.0
C619 C 0.81929 0.25773 0.63005 0.0
H620 H 0.37995 0.24166 0.65871 0.0
H621 H 0.39641 0.35048 0.67643 0.0
H622 H 0.46027 0.35048 0.66992 0.0
H623 H 0.47176 0.20614 0.66772 0.0
H624 H 0.47491 0.18171 0.652 0.0
H625 H 0.43061 0.189 0.65856 0.0
H626 H 0.40662 0.22052 0.63613 0.0
H627 H 0.45064 0.21285 0.62947 0.0
H628 H 0.43178 0.25879 0.62984 0.0
H629 H 0.52148 0.34037 0.66087 0.0
H630 H 0.57474 0.32228 0.6483 0.0
H631 H 0.52002 0.22039 0.63617 0.0
C632 C 0.39688 0.26559 0.66116 0.0
C633 C 0.38305 0.29585 0.6683 0.0
C634 C 0.40639 0.32654 0.67129 0.0
C635 C 0.44279 0.32689 0.66759 0.0
C636 C 0.4557 0.29644 0.66082 0.0
C637 C 0.43343 0.2665 0.65748 0.0
C638 C 0.45388 0.23808 0.64961 0.0
C639 C 0.45803 0.20157 0.65744 0.0
C640 C 0.43459 0.23223 0.63542 0.0
C641 C 0.49088 0.25699 0.64892 0.0
C642 C 0.49138 0.29046 0.6556 0.0
C643 C 0.52171 0.31389 0.65584 0.0
C644 C 0.55205 0.3032 0.64884 0.0
C645 C 0.55221 0.26916 0.64191 0.0
C646 C 0.52117 0.24581 0.64193 0.0
H647 H 0.45852 0.79498 0.1666 0.0
H648 H 0.48167 0.8369 0.12714 0.0
H649 H 0.41541 0.83343 0.11972 0.0
H650 H 0.39221 0.73095 0.15537 0.0
H651 H 0.36329 0.73788 0.16914 0.0
H652 H 0.41191 0.74679 0.17158 0.0
H653 H 0.3983 0.81335 0.17936 0.0
H654 H 0.34951 0.80464 0.17688 0.0
H655 H 0.36937 0.84299 0.16849 0.0
H656 H 0.34682 0.81916 0.11593 0.0
H657 H 0.28345 0.79439 0.11628 0.0
H658 H 0.30497 0.76632 0.15854 0.0
C659 C 0.4497 0.80435 0.1565 0.0
C660 C 0.47557 0.81625 0.14749 0.0
C661 C 0.46262 0.82724 0.13422 0.0
C662 C 0.42491 0.82571 0.12994 0.0
C663 C 0.40027 0.81349 0.13906 0.0
C664 C 0.41221 0.8032 0.15209 0.0
C665 C 0.38064 0.78899 0.15971 0.0
C666 C 0.38743 0.74878 0.16421 0.0
C667 C 0.37407 0.81399 0.17183 0.0
C668 C 0.34922 0.79191 0.14884 0.0
C669 C 0.36086 0.80645 0.13701 0.0
C670 C 0.33716 0.80884 0.12526 0.0
C671 C 0.30097 0.79539 0.12558 0.0
C672 C 0.28879 0.7801 0.13756 0.0
C673 C 0.31322 0.77889 0.14934 0.0
H674 H 0.3931 0.32748 0.84168 0.0
H675 H 0.39264 0.22023 0.82228 0.0
H676 H 0.3288 0.21017 0.82826 0.0
H677 H 0.34396 0.30103 0.8694 0.0
H678 H 0.31854 0.34358 0.87017 0.0
H679 H 0.36314 0.3433 0.86349 0.0
H680 H 0.33487 0.37288 0.84125 0.0
H681 H 0.29009 0.37308 0.84786 0.0
H682 H 0.2965 0.35079 0.83195 0.0
H683 H 0.26619 0.21025 0.83753 0.0
H684 H 0.21134 0.21941 0.8504 0.0
H685 H 0.25177 0.32717 0.86313 0.0
C686 C 0.37938 0.30211 0.83853 0.0
C687 C 0.39792 0.27462 0.83154 0.0
C688 C 0.37918 0.2415 0.82779 0.0
C689 C 0.34278 0.23567 0.83103 0.0
C690 C 0.32537 0.26325 0.83798 0.0
C691 C 0.34308 0.29579 0.84172 0.0
C692 C 0.31895 0.32013 0.84979 0.0
C693 C 0.33724 0.32742 0.86405 0.0
C694 C 0.30955 0.35637 0.84226 0.0
C695 C 0.28525 0.29589 0.85025 0.0
C696 C 0.28925 0.2634 0.84323 0.0
C697 C 0.26245 0.23591 0.84283 0.0
C698 C 0.2311 0.24153 0.85001 0.0
C699 C 0.2267 0.27442 0.8574 0.0
C700 C 0.25407 0.30199 0.85738 0.0
H701 H 0.30941 0.77417 0.33906 0.0
H702 H 0.29058 0.85492 0.37012 0.0
H703 H 0.35754 0.85651 0.37666 0.0
H704 H 0.3795 0.72409 0.35773 0.0
H705 H 0.40573 0.71526 0.34336 0.0
H706 H 0.35663 0.72171 0.34097 0.0
H707 H 0.36599 0.77443 0.32393 0.0
H708 H 0.41517 0.76815 0.32629 0.0
H709 H 0.39522 0.81279 0.32905 0.0
H710 H 0.42777 0.84694 0.38032 0.0
H711 H 0.49275 0.82611 0.38085 0.0
H712 H 0.46433 0.75416 0.3467 0.0
C713 C 0.31928 0.79271 0.34709 0.0
C714 C 0.29449 0.8145 0.35402 0.0
C715 C 0.30881 0.83764 0.36471 0.0
C716 C 0.3469 0.83894 0.36845 0.0
C717 C 0.37049 0.81703 0.36138 0.0
C718 C 0.35709 0.79439 0.35091 0.0
C719 C 0.38778 0.77266 0.34515 0.0
C720 C 0.38206 0.73097 0.34692 0.0
C721 C 0.39124 0.78262 0.33022 0.0
C722 C 0.42059 0.78634 0.35404 0.0
C723 C 0.41031 0.81199 0.36335 0.0
C724 C 0.43609 0.82721 0.37294 0.0
C725 C 0.47311 0.8155 0.3731 0.0
C726 C 0.48404 0.78897 0.3637 0.0
C727 C 0.4572 0.7747 0.354 0.0
H728 H 0.71919 0.94948 0.59443 0.0
H729 H 0.61439 0.95336 0.57046 0.0
H730 H 0.60612 0.01814 0.5773 0.0
H731 H 0.69194 1.00366 0.62189 0.0
H732 H 0.73563 0.02679 0.62471 0.0
H733 H 0.73367 0.98118 0.61754 0.0
H734 H 0.76677 1.0046 0.59695 0.0
H735 H 0.76872 0.05034 0.60405 0.0
H736 H 0.74764 0.04298 0.58722 0.0
H737 H 0.60854 0.08275 0.58743 0.0
H738 H 0.62092 0.14002 0.60067 0.0
H739 H 0.72464 0.0942 0.61726 0.0
C740 C 0.69467 0.96403 0.59049 0.0
C741 C 0.66741 0.94612 0.58192 0.0
C742 C 0.63546 0.96617 0.57719 0.0
C743 C 0.63064 1.00314 0.58093 0.0
C744 C 0.65801 0.01989 0.5894 0.0
C745 C 0.68938 1.00092 0.59414 0.0
C746 C 0.71417 0.02483 0.60345 0.0
C747 C 0.71912 1.00812 0.61774 0.0
C748 C 0.75154 0.03105 0.59756 0.0
C749 C 0.69173 0.06008 0.60333 0.0
C750 C 0.65953 0.05688 0.59509 0.0
C751 C 0.63395 0.08567 0.59375 0.0
C752 C 0.64136 0.11832 0.60114 0.0
C753 C 0.67407 0.122 0.60968 0.0
C754 C 0.69952 0.09241 0.61069 0.0
H755 H 0.17953 0.04423 0.11995 0.0
H756 H 0.27487 0.03988 0.09628 0.0
H757 H 0.28166 0.97332 0.1012 0.0
H758 H 0.21178 0.97459 0.14561 0.0
H759 H 0.16612 0.95599 0.14641 0.0
H760 H 0.17208 1.00409 0.14261 0.0
H761 H 0.12995 0.99673 0.12047 0.0
H762 H 0.12368 0.94884 0.12427 0.0
H763 H 0.14083 0.96198 0.10838 0.0
H764 H 0.27248 0.90523 0.1061 0.0
H765 H 0.24722 0.84325 0.11014 0.0
H766 H 0.15951 0.89257 0.13112 0.0
C767 C 0.20213 0.02943 0.11593 0.0
C768 C 0.22671 0.04743 0.10774 0.0
C769 C 0.25599 0.02693 0.10274 0.0
C770 C 0.26004 0.98903 0.10546 0.0
C771 C 0.23486 0.97202 0.11336 0.0
C772 C 0.20661 0.99171 0.11858 0.0
C773 C 0.18141 0.96669 0.12585 0.0
C774 C 0.18296 0.9759 0.14102 0.0
C775 C 0.14164 0.96867 0.11935 0.0
C776 C 0.19896 0.92962 0.12345 0.0
C777 C 0.23012 0.93315 0.11642 0.0
C778 C 0.24883 0.90224 0.11199 0.0
C779 C 0.23474 0.867 0.11452 0.0
C780 C 0.20244 0.86303 0.12144 0.0
C781 C 0.18494 0.8948 0.12616 0.0
H782 H 0.52421 0.02976 0.41884 0.0
H783 H 0.5231 0.0799 0.37916 0.0
H784 H 0.52039 0.01786 0.36864 0.0
H785 H 0.58479 0.96184 0.41285 0.0
H786 H 0.56432 0.92709 0.42286 0.0
H787 H 0.55826 0.97491 0.42674 0.0
H788 H 0.48734 0.96607 0.42446 0.0
H789 H 0.49334 0.91808 0.42039 0.0
H790 H 0.46542 0.94734 0.40904 0.0
H791 H 0.52665 0.94998 0.36279 0.0
H792 H 0.54897 0.88535 0.36258 0.0
H793 H 0.54676 0.88067 0.40608 0.0
C794 C 0.52192 0.02779 0.4079 0.0
C795 C 0.5232 0.05972 0.39981 0.0
C796 C 0.5219 0.05583 0.38556 0.0
C797 C 0.52001 0.02069 0.3795 0.0
C798 C 0.51938 0.98968 0.38782 0.0
C799 C 0.5204 0.99306 0.40175 0.0
C800 C 0.52496 0.95597 0.40864 0.0
C801 C 0.56017 0.95491 0.41832 0.0
C802 C 0.49072 0.9463 0.41607 0.0
C803 C 0.52816 0.93123 0.39649 0.0
C804 C 0.52374 0.95085 0.38451 0.0
C805 C 0.52931 0.93424 0.37208 0.0
C806 C 0.5416 0.89741 0.37201 0.0
C807 C 0.54875 0.87804 0.38429 0.0
C808 C 0.54033 0.89467 0.39654 0.0
H809 H 0.0569 0.96009 0.90072 0.0
H810 H 0.1615 0.95627 0.9248 0.0
H811 H 0.16945 0.02317 0.92114 0.0
H812 H 0.0837 0.0209 0.8762 0.0
H813 H 0.04015 0.04477 0.87418 0.0
H814 H 0.04179 0.99758 0.8797 0.0
H815 H 1.00875 0.01572 0.90103 0.0
H816 H 1.00712 0.0631 0.89557 0.0
H817 H 0.02804 0.05137 0.91208 0.0
H818 H 0.16743 0.09071 0.91329 0.0
H819 H 0.15661 0.15012 0.90121 0.0
H820 H 0.05254 0.10856 0.88328 0.0
C821 C 0.08112 0.97335 0.90551 0.0
C822 C 0.10845 0.9528 0.91311 0.0
C823 C 0.14025 0.97128 0.91884 0.0
C824 C 0.14487 1.00937 0.91692 0.0
C825 C 0.11736 0.02871 0.90931 0.0
C826 C 0.08608 0.01118 0.90374 0.0
C827 C 0.06151 0.03733 0.8953 0.0
C828 C 0.05653 0.02437 0.88047 0.0
C829 C 0.02415 0.04216 0.90136 0.0
C830 C 0.08415 0.07218 0.89671 0.0
C831 C 0.11611 0.06703 0.90494 0.0
C832 C 0.14218 0.09513 0.907 0.0
C833 C 0.13572 0.12891 0.90021 0.0
C834 C 0.1035 0.13413 0.89149 0.0
C835 C 0.07726 0.10553 0.89 0.0
H836 H 0.2056 0.20821 0.98308 0.0
H837 H 0.09971 0.15651 0.98712 0.0
H838 H 0.0873 0.15728 0.96222 0.0
H839 H 0.1759 0.26913 0.95744 0.0
H840 H 0.21745 0.26654 0.94868 0.0
H841 H 0.21925 0.25807 0.96658 0.0
H842 H 0.24931 0.19429 0.96295 0.0
H843 H 0.24738 0.20254 0.94498 0.0
H844 H 0.2265 0.16179 0.95139 0.0
H845 H 0.08483 0.16808 0.93682 0.0
H846 H 0.09072 0.19211 0.91371 0.0
H847 H 0.1985 0.2358 0.92661 0.0
C848 C 0.18015 0.19628 0.97872 0.0
C849 C 0.15372 0.18211 0.98704 0.0
C850 C 0.12028 0.16771 0.98094 0.0
C851 C 0.11315 0.16771 0.96681 0.0
C852 C 0.13978 0.1821 0.9589 0.0
C853 C 0.17258 0.19619 0.96468 0.0
C854 C 0.19543 0.21279 0.95412 0.0
C855 C 0.20239 0.25407 0.95687 0.0
C856 C 0.23181 0.19157 0.95332 0.0
C857 C 0.16996 0.20683 0.94153 0.0
C858 C 0.13824 0.18852 0.9444 0.0
C859 C 0.10979 0.18197 0.93443 0.0
C860 C 0.11345 0.1955 0.92131 0.0
C861 C 0.14522 0.21545 0.91833 0.0
C862 C 0.17405 0.22029 0.92854 0.0
H863 H 0.13509 0.80245 0.23045 0.0
H864 H 0.07609 0.7035 0.24028 0.0
H865 H 0.07124 0.6857 0.21615 0.0
H866 H 0.08625 0.81776 0.19613 0.0
H867 H 0.12797 0.8332 0.18925 0.0
H868 H 0.12084 0.84157 0.2068 0.0
H869 H 0.18262 0.80875 0.21397 0.0
H870 H 0.18998 0.80041 0.19652 0.0
H871 H 0.19015 0.76238 0.20821 0.0
H872 H 0.08162 0.67382 0.1917 0.0
H873 H 0.10612 0.6695 0.16906 0.0
H874 H 0.1584 0.77574 0.17528 0.0
C875 C 0.12056 0.77736 0.22749 0.0
C876 C 0.10591 0.7544 0.23726 0.0
C877 C 0.08705 0.72182 0.23297 0.0
C878 C 0.0842 0.71146 0.21928 0.0
C879 C 0.09993 0.7342 0.20997 0.0
C880 C 0.11743 0.7667 0.21389 0.0
C881 C 0.13514 0.7845 0.20221 0.0
C882 C 0.11642 0.82145 0.19837 0.0
C883 C 0.17694 0.78925 0.20542 0.0
C884 C 0.12673 0.75594 0.19129 0.0
C885 C 0.10568 0.72749 0.19585 0.0
C886 C 0.09725 0.69639 0.18791 0.0
C887 C 0.11121 0.6941 0.17511 0.0
C888 C 0.1331 0.72278 0.17043 0.0
C889 C 0.14063 0.75412 0.17855 0.0
H890 H 0.62853 0.72849 0.486 0.0
H891 H 0.69772 0.63148 0.48376 0.0
H892 H 0.68898 0.63328 0.45878 0.0
H893 H 0.56472 0.70794 0.45641 0.0
H894 H 0.56171 0.75565 0.4514 0.0
H895 H 0.56974 0.74376 0.46903 0.0
H896 H 0.62883 0.78388 0.47082 0.0
H897 H 0.62078 0.79606 0.45328 0.0
H898 H 0.66406 0.77554 0.45935 0.0
H899 H 0.67757 0.64998 0.43374 0.0
H900 H 0.66654 0.68171 0.41155 0.0
H901 H 0.60561 0.76716 0.43071 0.0
C902 C 0.64172 0.70745 0.48029 0.0
C903 C 0.66377 0.67983 0.48687 0.0
C904 C 0.68026 0.65265 0.47896 0.0
C905 C 0.67548 0.65346 0.46476 0.0
C906 C 0.65391 0.68144 0.4586 0.0
C907 C 0.63727 0.70788 0.46616 0.0
C908 C 0.6178 0.7367 0.45725 0.0
C909 C 0.57601 0.73595 0.4586 0.0
C910 C 0.63384 0.7753 0.46036 0.0
C911 C 0.62704 0.72314 0.44349 0.0
C912 C 0.64739 0.6909 0.44437 0.0
C913 C 0.66111 0.67486 0.43293 0.0
C914 C 0.65463 0.69285 0.42038 0.0
C915 C 0.63468 0.72632 0.41949 0.0
C916 C 0.62028 0.74111 0.43114 0.0
H917 H 0.64635 0.21495 0.73597 0.0
H918 H 0.59328 0.32216 0.73356 0.0
H919 H 0.58674 0.31722 0.70863 0.0
H920 H 0.69974 0.22662 0.70903 0.0
H921 H 0.69581 0.17994 0.70286 0.0
H922 H 0.69133 0.18947 0.72046 0.0
H923 H 0.62738 0.15781 0.71886 0.0
H924 H 0.63168 0.14815 0.70121 0.0
H925 H 0.59217 0.1731 0.70632 0.0
H926 H 0.59549 0.30535 0.6842 0.0
H927 H 0.61692 0.2862 0.66224 0.0
H928 H 0.66021 0.18495 0.68018 0.0
C929 C 0.63281 0.23711 0.73019 0.0
C930 C 0.62023 0.2689 0.73669 0.0
C931 C 0.60266 0.29733 0.7288 0.0
C932 C 0.59888 0.29479 0.71464 0.0
C933 C 0.61232 0.26341 0.70854 0.0
C934 C 0.62856 0.23487 0.71607 0.0
C935 C 0.64315 0.2054 0.70705 0.0
C936 C 0.68498 0.20008 0.71002 0.0
C937 C 0.62234 0.16895 0.70844 0.0
C938 C 0.6341 0.22259 0.69328 0.0
C939 C 0.61593 0.25586 0.69434 0.0
C940 C 0.60832 0.27866 0.68317 0.0
C941 C 0.61993 0.26733 0.67065 0.0
C942 C 0.6383 0.23331 0.6693 0.0
C943 C 0.64511 0.21058 0.68079 0.0
H944 H 0.18915 0.73361 0.02181 0.0
H945 H 0.08635 0.67571 0.01221 0.0
H946 H 0.08442 0.65854 0.0362 0.0
H947 H 0.22537 0.67175 0.05078 0.0
H948 H 0.24416 0.71079 0.06019 0.0
H949 H 0.24218 0.71094 0.04195 0.0
H950 H 0.20566 0.77243 0.0415 0.0
H951 H 0.20769 0.77249 0.05964 0.0
H952 H 0.16369 0.77514 0.05002 0.0
H953 H 0.08594 0.66003 0.0613 0.0
H954 H 0.09144 0.67975 0.08525 0.0
H955 H 0.19398 0.73464 0.07895 0.0
C956 C 0.16673 0.7165 0.02471 0.0
C957 C 0.13799 0.70589 0.01511 0.0
C958 C 0.10904 0.68364 0.01931 0.0
C959 C 0.1077 0.67375 0.03294 0.0
C960 C 0.13578 0.68585 0.04224 0.0
C961 C 0.16502 0.70641 0.03827 0.0
C962 C 0.18905 0.72013 0.05037 0.0
C963 C 0.22747 0.70232 0.05085 0.0
C964 C 0.19162 0.76253 0.05038 0.0
C965 C 0.16745 0.70617 0.06178 0.0
C966 C 0.13723 0.68573 0.0569 0.0
C967 C 0.11027 0.67461 0.06532 0.0
C968 C 0.11368 0.68567 0.07892 0.0
C969 C 0.14406 0.70701 0.08398 0.0
C970 C 0.17163 0.71658 0.0754 0.0
H971 H 0.66251 0.73777 0.26887 0.0
H972 H 0.68913 0.85413 0.26995 0.0
H973 H 0.69651 0.85189 0.29495 0.0
H974 H 0.60643 0.73842 0.29426 0.0
H975 H 0.6199 0.69428 0.30138 0.0
H976 H 0.62508 0.70328 0.28384 0.0
H977 H 0.69465 0.68704 0.28734 0.0
H978 H 0.68953 0.67797 0.30498 0.0
H979 H 0.72334 0.71072 0.30019 0.0
H980 H 0.68881 0.83962 0.31961 0.0
H981 H 0.6656 0.81882 0.34112 0.0
H982 H 0.64599 0.71011 0.32399 0.0
C983 C 0.67079 0.76256 0.27437 0.0
C984 C 0.67527 0.7961 0.2675 0.0
C985 C 0.68601 0.82802 0.27502 0.0
C986 C 0.69031 0.82697 0.28922 0.0
C987 C 0.68446 0.79365 0.29573 0.0
C988 C 0.67538 0.76189 0.2885 0.0
C989 C 0.66627 0.73066 0.29776 0.0
C990 C 0.62711 0.71584 0.29409 0.0
C991 C 0.69518 0.69977 0.29755 0.0
C992 C 0.66897 0.75045 0.31123 0.0
C993 C 0.68048 0.78648 0.30997 0.0
C994 C 0.68084 0.81116 0.3208 0.0
C995 C 0.66785 0.79906 0.33303 0.0
C996 C 0.65465 0.76267 0.33429 0.0
C997 C 0.65653 0.7379 0.32339 0.0
H998 H 0.68036 0.23517 0.51926 0.0
H999 H 0.57704 0.17783 0.51011 0.0
H1000 H 0.5773 0.15822 0.53391 0.0
H1001 H 0.71897 0.17054 0.54711 0.0
H1002 H 0.73853 0.20874 0.55681 0.0
H1003 H 0.73508 0.21055 0.53857 0.0
H1004 H 0.69867 0.27196 0.53926 0.0
H1005 H 0.70227 0.2704 0.55739 0.0
H1006 H 0.65756 0.27382 0.5483 0.0
H1007 H 0.58081 0.15752 0.55902 0.0
H1008 H 0.58763 0.17593 0.58307 0.0
H1009 H 0.68958 0.23142 0.5764 0.0
C1010 C 0.65829 0.21767 0.52219 0.0
C1011 C 0.62877 0.20794 0.51278 0.0
C1012 C 0.60032 0.18512 0.51704 0.0
C1013 C 0.60023 0.17384 0.53057 0.0
C1014 C 0.62905 0.1851 0.53971 0.0
C1015 C 0.65782 0.20619 0.53566 0.0
C1016 C 0.68279 0.21885 0.54769 0.0
C1017 C 0.72112 0.2011 0.54753 0.0
C1018 C 0.68543 0.26124 0.54819 0.0
C1019 C 0.66217 0.2038 0.5592 0.0
C1020 C 0.6317 0.18362 0.55439 0.0
C1021 C 0.60539 0.17183 0.56296 0.0
C1022 C 0.60959 0.18208 0.57664 0.0
C1023 C 0.64015 0.20329 0.58164 0.0
C1024 C 0.66719 0.21334 0.5729 0.0
H1025 H 0.14768 0.31608 0.77236 0.0
H1026 H 0.1909 0.21066 0.76017 0.0
H1027 H 0.19826 0.19128 0.78407 0.0
H1028 H 0.20564 0.32294 0.80561 0.0
H1029 H 0.16825 0.34364 0.81385 0.0
H1030 H 0.17267 0.35185 0.79611 0.0
H1031 H 0.10602 0.32831 0.79054 0.0
H1032 H 0.10146 0.32014 0.8082 0.0
H1033 H 0.09356 0.28313 0.79619 0.0
H1034 H 0.18946 0.17881 0.80826 0.0
H1035 H 0.16701 0.1753 0.83117 0.0
H1036 H 0.13286 0.2895 0.82833 0.0
C1037 C 0.15945 0.28923 0.77476 0.0
C1038 C 0.16888 0.26495 0.7644 0.0
C1039 C 0.18405 0.22997 0.76794 0.0
C1040 C 0.18831 0.2187 0.7815 0.0
C1041 C 0.17788 0.24293 0.79144 0.0
C1042 C 0.16422 0.2777 0.78827 0.0
C1043 C 0.15185 0.29709 0.80071 0.0
C1044 C 0.17606 0.33088 0.80428 0.0
C1045 C 0.1108 0.30776 0.79879 0.0
C1046 C 0.15857 0.26697 0.8112 0.0
C1047 C 0.17414 0.23613 0.80568 0.0
C1048 C 0.17845 0.20314 0.81284 0.0
C1049 C 0.16566 0.20134 0.82581 0.0
C1050 C 0.14942 0.23247 0.83154 0.0
C1051 C 0.14669 0.2659 0.82431 0.0
loop_
_geom_bond_atom_site_label_1
_geom_bond_atom_site_label_2
_geom_bond_distance
_geom_bond_site_symmetry_2
_ccdc_geom_bond_type
C0 C1 1.264 . S
C0 C5 1.479 . S
C0 C10 1.465 . S
C1 C0 1.264 . S
C1 C3 1.339 . S
C1 H28 0.931 . S
C2 C3 1.395 . S
C2 C4 1.320 . S
C3 C1 1.339 . S
C3 C2 1.395 . S
C3 H29 0.929 . S
C4 C2 1.320 . S
C4 C5 1.405 . S
C4 H30 0.930 . S
C5 C0 1.479 . S
C5 C4 1.405 . S
C5 H31 0.931 . S
U6 O7 2.454 . S
U6 O8 2.458 . S
U6 C9 2.984 . S
U6 C10 2.847 . S
U6 C23 2.882 . S
U6 O24 2.441 . S
U6 O25 2.420 . S
U6 O26 2.455 . S
U6 O27 2.449 . S
O7 U6 2.454 . S
O7 C9 1.353 . S
O8 U6 2.458 . S
O8 C9 1.286 . S
C9 U6 2.984 . S
C9 O7 1.353 . S
C9 O8 1.286 . S
C9 C11 1.363 . S
C10 C0 1.465 . S
C10 U6 2.847 . S
C10 O24 1.249 . S
C10 O25 1.202 . S
C11 C9 1.363 . S
C11 C13 1.408 . S
C11 C16 1.342 . S
C12 C13 1.310 . S
C12 C15 1.461 . S
C12 H32 0.932 . S
C13 C11 1.408 . S
C13 C12 1.310 . S
C13 H33 0.930 . S
C14 C15 1.474 . S
C14 C16 1.285 . S
C14 H34 0.929 . S
C15 C12 1.461 . S
C15 C14 1.474 . S
C16 C11 1.342 . S
C16 C14 1.285 . S
C16 H35 0.930 . S
C17 C20 1.424 . S
C17 C22 1.245 . S
C17 C23 1.428 . S
C18 C21 1.229 1_554 S
C18 C22 1.477 . S
C18 H36 0.970 . S
C19 C20 1.384 . S
C19 C21 1.447 1_554 S
C19 H37 0.929 . S
C20 C17 1.424 . S
C20 C19 1.384 . S
C20 H38 0.928 . S
C21 C18 1.229 1_556 S
C21 C19 1.447 1_556 S
C22 C17 1.245 . S
C22 C18 1.477 . S
C22 H39 0.932 . S
C23 U6 2.882 . S
C23 C17 1.428 . S
C23 O26 1.301 . S
C23 O27 1.282 . S
O24 U6 2.441 . S
O24 C10 1.249 . S
O25 U6 2.420 . S
O25 C10 1.202 . S
O26 U6 2.455 . S
O26 C23 1.301 . S
O27 U6 2.449 . S
O27 C23 1.282 . S
H28 C1 0.931 . S
H29 C3 0.929 . S
H30 C4 0.930 . S
H31 C5 0.931 . S
H32 C12 0.932 . S
H33 C13 0.930 . S
H34 C14 0.929 . S
H35 C16 0.930 . S
H36 C18 0.970 . S
H37 C19 0.929 . S
H38 C20 0.928 . S
H39 C22 0.932 . S
C40 C41 1.264 . S
C40 C45 1.479 . S
C40 C50 1.465 . S
C41 C40 1.264 . S
C41 C43 1.339 . S
C41 H68 0.931 . S
C42 C43 1.395 . S
C42 C44 1.320 . S
C43 C41 1.339 . S
C43 C42 1.395 . S
C43 H69 0.929 . S
C44 C42 1.320 . S
C44 C45 1.405 . S
C44 H70 0.930 . S
C45 C40 1.479 . S
C45 C44 1.405 . S
C45 H71 0.931 . S
U46 O47 2.454 . S
U46 O48 2.458 . S
U46 C49 2.984 . S
U46 C50 2.847 . S
U46 C63 2.882 . S
U46 O64 2.441 . S
U46 O65 2.420 . S
U46 O66 2.455 . S
U46 O67 2.449 . S
O47 U46 2.454 . S
O47 C49 1.353 . S
O48 U46 2.458 . S
O48 C49 1.286 . S
C49 U46 2.984 . S
C49 O47 1.353 . S
C49 O48 1.286 . S
C49 C51 1.363 . S
C50 C40 1.465 . S
C50 U46 2.847 . S
C50 O64 1.249 . S
C50 O65 1.202 . S
C51 C49 1.363 . S
C51 C53 1.408 . S
C51 C56 1.342 1_455 S
C52 C53 1.310 1_655 S
C52 C55 1.461 . S
C52 H72 0.932 . S
C53 C51 1.408 . S
C53 C52 1.310 1_455 S
C53 H73 0.930 . S
C54 C55 1.474 . S
C54 C56 1.285 . S
C54 H74 0.929 . S
C55 C52 1.461 . S
C55 C54 1.474 . S
C56 C51 1.342 1_655 S
C56 C54 1.285 . S
C56 H75 0.930 . S
C57 C60 1.424 . S
C57 C62 1.245 . S
C57 C63 1.428 . S
C58 C61 1.260 . S
C58 C62 1.477 . S
C58 H76 0.932 . S
C59 C60 1.384 . S
C59 C61 1.479 . S
C59 H77 0.929 . S
C60 C57 1.424 . S
C60 C59 1.384 . S
C60 H78 0.928 . S
C61 C58 1.260 . S
C61 C59 1.479 . S
C62 C57 1.245 . S
C62 C58 1.477 . S
C62 H79 0.932 . S
C63 U46 2.882 . S
C63 C57 1.428 . S
C63 O66 1.301 . S
C63 O67 1.282 . S
O64 U46 2.441 . S
O64 C50 1.249 . S
O65 U46 2.420 . S
O65 C50 1.202 . S
O66 U46 2.455 . S
O66 C63 1.301 . S
O67 U46 2.449 . S
O67 C63 1.282 . S
H68 C41 0.931 . S
H69 C43 0.929 . S
H70 C44 0.930 . S
H71 C45 0.931 . S
H72 C52 0.932 . S
H73 C53 0.930 . S
H74 C54 0.929 . S
H75 C56 0.930 . S
H76 C58 0.932 . S
H77 C59 0.929 . S
H78 C60 0.928 . S
H79 C62 0.932 . S
C80 C81 1.264 . S
C80 C85 1.479 . S
C80 C90 1.465 . S
C81 C80 1.264 . S
C81 C83 1.339 . S
C81 H108 0.931 . S
C82 C83 1.395 . S
C82 C84 1.320 . S
C83 C81 1.339 . S
C83 C82 1.395 . S
C83 H109 0.929 . S
C84 C82 1.320 . S
C84 C85 1.405 . S
C84 H110 0.930 . S
C85 C80 1.479 . S
C85 C84 1.405 . S
C85 H111 0.931 . S
U86 O87 2.454 . S
U86 O88 2.458 . S
U86 C89 2.984 . S
U86 C90 2.847 . S
U86 C103 2.882 . S
U86 O104 2.441 . S
U86 O105 2.420 . S
U86 O106 2.455 . S
U86 O107 2.449 . S
O87 U86 2.454 . S
O87 C89 1.353 . S
O88 U86 2.458 . S
O88 C89 1.286 . S
C89 U86 2.984 . S
C89 O87 1.353 . S
C89 O88 1.286 . S
C89 C91 1.363 . S
C90 C80 1.465 . S
C90 U86 2.847 . S
C90 O104 1.249 . S
C90 O105 1.202 . S
C91 C89 1.363 . S
C91 C93 1.408 . S
C91 C96 1.342 . S
C92 C93 1.310 . S
C92 C95 1.461 . S
C92 H112 0.932 . S
C93 C91 1.408 . S
C93 C92 1.310 . S
C93 H113 0.930 . S
C94 C95 1.474 . S
C94 C96 1.285 . S
C94 H114 0.929 . S
C95 C92 1.461 . S
C95 C94 1.474 . S
C96 C91 1.342 . S
C96 C94 1.285 . S
C96 H115 0.930 . S
C97 C100 1.424 . S
C97 C102 1.245 . S
C97 C103 1.428 . S
C98 C101 1.260 . S
C98 C102 1.477 . S
C98 H116 0.932 . S
C99 C100 1.384 . S
C99 C101 1.479 . S
C99 H117 0.929 . S
C100 C97 1.424 . S
C100 C99 1.384 . S
C100 H118 0.928 . S
C101 C98 1.260 . S
C101 C99 1.479 . S
C102 C97 1.245 . S
C102 C98 1.477 . S
C102 H119 0.932 . S
C103 U86 2.882 . S
C103 C97 1.428 . S
C103 O106 1.301 . S
C103 O107 1.282 . S
O104 U86 2.441 . S
O104 C90 1.249 . S
O105 U86 2.420 . S
O105 C90 1.202 . S
O106 U86 2.455 . S
O106 C103 1.301 . S
O107 U86 2.449 . S
O107 C103 1.282 . S
H108 C81 0.931 . S
H109 C83 0.929 . S
H110 C84 0.930 . S
H111 C85 0.931 . S
H112 C92 0.932 . S
H113 C93 0.930 . S
H114 C94 0.929 . S
H115 C96 0.930 . S
H116 C98 0.932 . S
H117 C99 0.929 . S
H118 C100 0.928 . S
H119 C102 0.932 . S
C120 C121 1.264 . S
C120 C125 1.479 . S
C120 C130 1.465 . S
C121 C120 1.264 . S
C121 C123 1.339 . S
C121 H148 0.931 . S
C122 C123 1.395 . S
C122 C124 1.320 . S
C123 C121 1.339 . S
C123 C122 1.395 . S
C123 H149 0.929 . S
C124 C122 1.320 . S
C124 C125 1.405 . S
C124 H150 0.930 . S
C125 C120 1.479 . S
C125 C124 1.405 . S
C125 H151 0.931 . S
U126 O127 2.454 . S
U126 O128 2.458 . S
U126 C129 2.984 . S
U126 C130 2.847 . S
U126 C143 2.882 . S
U126 O144 2.441 . S
U126 O145 2.420 . S
U126 O146 2.455 . S
U126 O147 2.449 . S
O127 U126 2.454 . S
O127 C129 1.353 . S
O128 U126 2.458 . S
O128 C129 1.286 . S
C129 U126 2.984 . S
C129 O127 1.353 . S
C129 O128 1.286 . S
C129 C131 1.363 . S
C130 C120 1.465 . S
C130 U126 2.847 . S
C130 O144 1.249 . S
C130 O145 1.202 . S
C131 C129 1.363 . S
C131 C133 1.408 . S
C131 C136 1.342 . S
C132 C133 1.310 . S
C132 C135 1.461 . S
C132 H152 0.932 . S
C133 C131 1.408 . S
C133 C132 1.310 . S
C133 H153 0.930 . S
C134 C135 1.474 . S
C134 C136 1.285 . S
C134 H154 0.929 . S
C135 C132 1.461 . S
C135 C134 1.474 . S
C136 C131 1.342 . S
C136 C134 1.285 . S
C136 H155 0.930 . S
C137 C140 1.424 . S
C137 C142 1.245 . S
C137 C143 1.428 . S
C138 C141 1.260 . S
C138 C142 1.477 . S
C138 H156 0.932 . S
C139 C140 1.384 . S
C139 C141 1.479 . S
C139 H157 0.929 . S
C140 C137 1.424 . S
C140 C139 1.384 . S
C140 H158 0.928 . S
C141 C138 1.260 . S
C141 C139 1.479 . S
C142 C137 1.245 . S
C142 C138 1.477 . S
C142 H159 0.932 . S
C143 U126 2.882 . S
C143 C137 1.428 . S
C143 O146 1.301 . S
C143 O147 1.282 . S
O144 U126 2.441 . S
O144 C130 1.249 . S
O145 U126 2.420 . S
O145 C130 1.202 . S
O146 U126 2.455 . S
O146 C143 1.301 . S
O147 U126 2.449 . S
O147 C143 1.282 . S
H148 C121 0.931 . S
H149 C123 0.929 . S
H150 C124 0.930 . S
H151 C125 0.931 . S
H152 C132 0.932 . S
H153 C133 0.930 . S
H154 C134 0.929 . S
H155 C136 0.930 . S
H156 C138 0.932 . S
H157 C139 0.929 . S
H158 C140 0.928 . S
H159 C142 0.932 . S
C160 C161 1.264 . S
C160 C165 1.479 . S
C160 C170 1.465 . S
C161 C160 1.264 . S
C161 C163 1.339 . S
C161 H188 0.931 . S
C162 C163 1.395 . S
C162 C164 1.320 . S
C163 C161 1.339 . S
C163 C162 1.395 . S
C163 H189 0.929 . S
C164 C162 1.320 . S
C164 C165 1.405 . S
C164 H190 0.930 . S
C165 C160 1.479 . S
C165 C164 1.405 . S
C165 H191 0.931 . S
U166 O167 2.454 . S
U166 O168 2.458 . S
U166 C169 2.984 . S
U166 C170 2.847 . S
U166 C183 2.882 . S
U166 O184 2.441 . S
U166 O185 2.420 . S
U166 O186 2.455 . S
U166 O187 2.449 . S
O167 U166 2.454 . S
O167 C169 1.353 . S
O168 U166 2.458 . S
O168 C169 1.286 . S
C169 U166 2.984 . S
C169 O167 1.353 . S
C169 O168 1.286 . S
C169 C171 1.363 . S
C170 C160 1.465 . S
C170 U166 2.847 . S
C170 O184 1.249 . S
C170 O185 1.202 . S
C171 C169 1.363 . S
C171 C173 1.408 . S
C171 C176 1.342 . S
C172 C173 1.310 . S
C172 C175 1.461 . S
C172 H192 0.932 . S
C173 C171 1.408 . S
C173 C172 1.310 . S
C173 H193 0.930 . S
C174 C175 1.474 . S
C174 C176 1.285 . S
C174 H194 0.929 . S
C175 C172 1.461 . S
C175 C174 1.474 . S
C176 C171 1.342 . S
C176 C174 1.285 . S
C176 H195 0.930 . S
C177 C180 1.424 . S
C177 C182 1.245 . S
C177 C183 1.428 . S
C178 C181 1.260 . S
C178 C182 1.477 . S
C178 H196 0.932 . S
C179 C180 1.384 . S
C179 C181 1.479 . S
C179 H197 0.929 . S
C180 C177 1.424 . S
C180 C179 1.384 . S
C180 H198 0.928 . S
C181 C178 1.260 . S
C181 C179 1.479 . S
C182 C177 1.245 . S
C182 C178 1.477 . S
C182 H199 0.932 . S
C183 U166 2.882 . S
C183 C177 1.428 . S
C183 O186 1.301 . S
C183 O187 1.282 . S
O184 U166 2.441 . S
O184 C170 1.249 . S
O185 U166 2.420 . S
O185 C170 1.202 . S
O186 U166 2.455 . S
O186 C183 1.301 . S
O187 U166 2.449 . S
O187 C183 1.282 . S
H188 C161 0.931 . S
H189 C163 0.929 . S
H190 C164 0.930 . S
H191 C165 0.931 . S
H192 C172 0.932 . S
H193 C173 0.930 . S
H194 C174 0.929 . S
H195 C176 0.930 . S
H196 C178 0.932 . S
H197 C179 0.929 . S
H198 C180 0.928 . S
H199 C182 0.932 . S
C200 C201 1.264 . S
C200 C205 1.479 . S
C200 C210 1.465 . S
C201 C200 1.264 . S
C201 C203 1.339 . S
C201 H228 0.931 . S
C202 C203 1.395 . S
C202 C204 1.320 . S
C203 C201 1.339 . S
C203 C202 1.395 . S
C203 H229 0.929 . S
C204 C202 1.320 . S
C204 C205 1.405 . S
C204 H230 0.930 . S
C205 C200 1.479 . S
C205 C204 1.405 . S
C205 H231 0.931 . S
U206 O207 2.454 . S
U206 O208 2.458 . S
U206 C209 2.984 . S
U206 C210 2.847 . S
U206 C223 2.882 . S
U206 O224 2.441 . S
U206 O225 2.420 . S
U206 O226 2.455 . S
U206 O227 2.449 . S
O207 U206 2.454 . S
O207 C209 1.353 . S
O208 U206 2.458 . S
O208 C209 1.286 . S
C209 U206 2.984 . S
C209 O207 1.353 . S
C209 O208 1.286 . S
C209 C211 1.363 . S
C210 C200 1.465 . S
C210 U206 2.847 . S
C210 O224 1.249 . S
C210 O225 1.202 . S
C211 C209 1.363 . S
C211 C213 1.408 . S
C211 C216 1.342 . S
C212 C213 1.310 . S
C212 C215 1.461 . S
C212 H232 0.932 . S
C213 C211 1.408 . S
C213 C212 1.310 . S
C213 H233 0.930 . S
C214 C215 1.474 . S
C214 C216 1.285 . S
C214 H234 0.929 . S
C215 C212 1.461 . S
C215 C214 1.474 . S
C216 C211 1.342 . S
C216 C214 1.285 . S
C216 H235 0.930 . S
C217 C220 1.424 . S
C217 C222 1.245 . S
C217 C223 1.428 . S
C218 C221 1.260 . S
C218 C222 1.477 . S
C218 H236 0.932 . S
C219 C220 1.384 . S
C219 C221 1.479 . S
C219 H237 0.929 . S
C220 C217 1.424 . S
C220 C219 1.384 . S
C220 H238 0.928 . S
C221 C218 1.260 . S
C221 C219 1.479 . S
C222 C217 1.245 . S
C222 C218 1.477 . S
C222 H239 0.932 . S
C223 U206 2.882 . S
C223 C217 1.428 . S
C223 O226 1.301 . S
C223 O227 1.282 . S
O224 U206 2.441 . S
O224 C210 1.249 . S
O225 U206 2.420 . S
O225 C210 1.202 . S
O226 U206 2.455 . S
O226 C223 1.301 . S
O227 U206 2.449 . S
O227 C223 1.282 . S
H228 C201 0.931 . S
H229 C203 0.929 . S
H230 C204 0.930 . S
H231 C205 0.931 . S
H232 C212 0.932 . S
H233 C213 0.930 . S
H234 C214 0.929 . S
H235 C216 0.930 . S
H236 C218 0.932 . S
H237 C219 0.929 . S
H238 C220 0.928 . S
H239 C222 0.932 . S
C240 C241 1.264 . S
C240 C245 1.479 . S
C240 C250 1.465 . S
C241 C240 1.264 . S
C241 C243 1.339 . S
C241 H268 0.931 . S
C242 C243 1.395 . S
C242 C244 1.320 . S
C243 C241 1.339 . S
C243 C242 1.395 . S
C243 H269 0.929 . S
C244 C242 1.320 . S
C244 C245 1.405 . S
C244 H270 0.930 . S
C245 C240 1.479 . S
C245 C244 1.405 . S
C245 H271 0.931 . S
U246 O247 2.454 . S
U246 O248 2.458 . S
U246 C249 2.984 . S
U246 C250 2.847 . S
U246 C263 2.882 . S
U246 O264 2.441 . S
U246 O265 2.420 . S
U246 O266 2.455 . S
U246 O267 2.449 . S
O247 U246 2.454 . S
O247 C249 1.353 . S
O248 U246 2.458 . S
O248 C249 1.286 . S
C249 U246 2.984 . S
C249 O247 1.353 . S
C249 O248 1.286 . S
C249 C251 1.363 . S
C250 C240 1.465 . S
C250 U246 2.847 . S
C250 O264 1.249 . S
C250 O265 1.202 . S
C251 C249 1.363 . S
C251 C253 1.408 . S
C251 C256 1.342 . S
C252 C253 1.310 . S
C252 C255 1.461 . S
C252 H272 0.932 . S
C253 C251 1.408 . S
C253 C252 1.310 . S
C253 H273 0.930 . S
C254 C255 1.474 . S
C254 C256 1.285 . S
C254 H274 0.929 . S
C255 C252 1.461 . S
C255 C254 1.474 . S
C256 C251 1.342 . S
C256 C254 1.285 . S
C256 H275 0.930 . S
C257 C260 1.424 . S
C257 C262 1.245 . S
C257 C263 1.428 . S
C258 C261 1.260 . S
C258 C262 1.477 . S
C258 H276 0.932 . S
C259 C260 1.384 . S
C259 C261 1.479 . S
C259 H277 0.929 . S
C260 C257 1.424 . S
C260 C259 1.384 . S
C260 H278 0.928 . S
C261 C258 1.260 . S
C261 C259 1.479 . S
C262 C257 1.245 . S
C262 C258 1.477 . S
C262 H279 0.932 . S
C263 U246 2.882 . S
C263 C257 1.428 . S
C263 O266 1.301 . S
C263 O267 1.282 . S
O264 U246 2.441 . S
O264 C250 1.249 . S
O265 U246 2.420 . S
O265 C250 1.202 . S
O266 U246 2.455 . S
O266 C263 1.301 . S
O267 U246 2.449 . S
O267 C263 1.282 . S
H268 C241 0.931 . S
H269 C243 0.929 . S
H270 C244 0.930 . S
H271 C245 0.931 . S
H272 C252 0.932 . S
H273 C253 0.930 . S
H274 C254 0.929 . S
H275 C256 0.930 . S
H276 C258 0.932 . S
H277 C259 0.929 . S
H278 C260 0.928 . S
H279 C262 0.932 . S
C280 C281 1.264 . S
C280 C285 1.479 . S
C280 C290 1.465 . S
C281 C280 1.264 . S
C281 C283 1.339 1_455 S
C281 H308 0.931 . S
C282 C283 1.395 . S
C282 C284 1.320 1_655 S
C283 C281 1.339 1_655 S
C283 C282 1.395 . S
C283 H309 0.929 . S
C284 C282 1.320 1_455 S
C284 C285 1.405 . S
C284 H310 0.930 1_455 S
C285 C280 1.479 . S
C285 C284 1.405 . S
C285 H311 0.931 . S
U286 O287 2.454 . S
U286 O288 2.458 . S
U286 C289 2.984 . S
U286 C290 2.847 . S
U286 C303 2.882 . S
U286 O304 2.441 . S
U286 O305 2.420 . S
U286 O306 2.455 . S
U286 O307 2.449 . S
O287 U286 2.454 . S
O287 C289 1.353 . S
O288 U286 2.458 . S
O288 C289 1.286 . S
C289 U286 2.984 . S
C289 O287 1.353 . S
C289 O288 1.286 . S
C289 C291 1.363 . S
C290 C280 1.465 . S
C290 U286 2.847 . S
C290 O304 1.249 . S
C290 O305 1.202 . S
C291 C289 1.363 . S
C291 C293 1.408 . S
C291 C296 1.342 . S
C292 C293 1.310 . S
C292 C295 1.461 . S
C292 H312 0.932 . S
C293 C291 1.408 . S
C293 C292 1.310 . S
C293 H313 0.930 . S
C294 C295 1.474 . S
C294 C296 1.285 . S
C294 H314 0.929 . S
C295 C292 1.461 . S
C295 C294 1.474 . S
C296 C291 1.342 . S
C296 C294 1.285 . S
C296 H315 0.930 . S
C297 C300 1.424 . S
C297 C302 1.245 . S
C297 C303 1.428 . S
C298 C301 1.260 . S
C298 C302 1.477 . S
C298 H316 0.932 . S
C299 C300 1.384 . S
C299 C301 1.479 . S
C299 H317 0.929 . S
C300 C297 1.424 . S
C300 C299 1.384 . S
C300 H318 0.928 . S
C301 C298 1.260 . S
C301 C299 1.479 . S
C302 C297 1.245 . S
C302 C298 1.477 . S
C302 H319 0.932 . S
C303 U286 2.882 . S
C303 C297 1.428 . S
C303 O306 1.301 . S
C303 O307 1.282 . S
O304 U286 2.441 . S
O304 C290 1.249 . S
O305 U286 2.420 . S
O305 C290 1.202 . S
O306 U286 2.455 . S
O306 C303 1.301 . S
O307 U286 2.449 . S
O307 C303 1.282 . S
H308 C281 0.931 . S
H309 C283 0.929 . S
H310 C284 0.930 1_655 S
H311 C285 0.931 . S
H312 C292 0.932 . S
H313 C293 0.930 . S
H314 C294 0.929 . S
H315 C296 0.930 . S
H316 C298 0.932 . S
H317 C299 0.929 . S
H318 C300 0.928 . S
H319 C302 0.932 . S
Zn320 O326 1.920 . S
Zn320 O332 1.898 . S
Zn320 O335 1.905 . S
Zn321 O329 1.905 . S
Zn321 O330 1.898 . S
Zn321 O338 1.920 . S
Zn322 O325 2.080 . S
Zn322 O328 2.114 . S
Zn322 O331 2.120 . S
Zn322 O333 2.120 . S
Zn322 O334 2.114 . S
Zn322 O337 2.080 . S
C323 O328 1.166 . S
C323 O329 1.182 . S
C324 O330 1.167 . S
C324 O331 1.299 . S
O325 Zn322 2.080 . S
O325 C339 1.305 . S
O326 Zn320 1.920 . S
O326 C339 1.234 . S
C327 O332 1.167 . S
C327 O333 1.299 . S
O328 Zn322 2.114 . S
O328 C323 1.166 . S
O329 Zn321 1.905 . S
O329 C323 1.182 . S
O330 Zn321 1.898 . S
O330 C324 1.167 . S
O331 Zn322 2.120 . S
O331 C324 1.299 . S
O332 Zn320 1.898 . S
O332 C327 1.167 . S
O333 Zn322 2.120 . S
O333 C327 1.299 . S
O334 Zn322 2.114 . S
O334 C336 1.166 . S
O335 Zn320 1.905 . S
O335 C336 1.182 . S
C336 O334 1.166 . S
C336 O335 1.182 . S
O337 Zn322 2.080 . S
O337 C340 1.305 . S
O338 Zn321 1.920 . S
O338 C340 1.234 . S
C339 O325 1.305 . S
C339 O326 1.234 . S
C340 O337 1.305 . S
C340 O338 1.234 . S
Zn341 O347 1.920 . S
Zn341 O353 1.898 . S
Zn341 O356 1.905 . S
Zn342 O350 1.905 . S
Zn342 O351 1.898 . S
Zn342 O359 1.920 . S
Zn343 O346 2.080 . S
Zn343 O349 2.114 . S
Zn343 O352 2.120 . S
Zn343 O354 2.120 . S
Zn343 O355 2.114 . S
Zn343 O358 2.080 . S
C344 O349 1.166 . S
C344 O350 1.182 . S
C345 O351 1.167 . S
C345 O352 1.299 . S
O346 Zn343 2.080 . S
O346 C360 1.305 . S
O347 Zn341 1.920 . S
O347 C360 1.234 . S
C348 O353 1.167 . S
C348 O354 1.299 . S
O349 Zn343 2.114 . S
O349 C344 1.166 . S
O350 Zn342 1.905 . S
O350 C344 1.182 . S
O351 Zn342 1.898 . S
O351 C345 1.167 . S
O352 Zn343 2.120 . S
O352 C345 1.299 . S
O353 Zn341 1.898 . S
O353 C348 1.167 . S
O354 Zn343 2.120 . S
O354 C348 1.299 . S
O355 Zn343 2.114 . S
O355 C357 1.166 . S
O356 Zn341 1.905 . S
O356 C357 1.182 . S
C357 O355 1.166 . S
C357 O356 1.182 . S
O358 Zn343 2.080 . S
O358 C361 1.305 . S
O359 Zn342 1.920 . S
O359 C361 1.234 . S
C360 O346 1.305 . S
C360 O347 1.234 . S
C361 O358 1.305 . S
C361 O359 1.234 . S
Zn362 O368 1.920 . S
Zn362 O374 1.898 . S
Zn362 O377 1.905 . S
Zn363 O371 1.905 . S
Zn363 O372 1.898 . S
Zn363 O380 1.920 . S
Zn364 O367 2.080 . S
Zn364 O370 2.114 . S
Zn364 O373 2.120 . S
Zn364 O375 2.120 . S
Zn364 O376 2.114 . S
Zn364 O379 2.080 . S
C365 O370 1.166 . S
C365 O371 1.182 . S
C366 O372 1.167 . S
C366 O373 1.299 . S
O367 Zn364 2.080 . S
O367 C381 1.305 . S
O368 Zn362 1.920 . S
O368 C381 1.234 . S
C369 O374 1.167 . S
C369 O375 1.299 . S
O370 Zn364 2.114 . S
O370 C365 1.166 . S
O371 Zn363 1.905 . S
O371 C365 1.182 . S
O372 Zn363 1.898 . S
O372 C366 1.167 . S
O373 Zn364 2.120 . S
O373 C366 1.299 . S
O374 Zn362 1.898 . S
O374 C369 1.167 . S
O375 Zn364 2.120 . S
O375 C369 1.299 . S
O376 Zn364 2.114 . S
O376 C378 1.166 . S
O377 Zn362 1.905 . S
O377 C378 1.182 . S
C378 O376 1.166 . S
C378 O377 1.182 . S
O379 Zn364 2.080 . S
O379 C382 1.305 . S
O380 Zn363 1.920 . S
O380 C382 1.234 . S
C381 O367 1.305 . S
C381 O368 1.234 . S
C382 O379 1.305 . S
C382 O380 1.234 . S
Zn383 O389 1.920 . S
Zn383 O395 1.898 . S
Zn383 O398 1.905 . S
Zn384 O392 1.905 . S
Zn384 O393 1.898 . S
Zn384 O401 1.920 . S
Zn385 O388 2.080 . S
Zn385 O391 2.114 . S
Zn385 O394 2.120 . S
Zn385 O396 2.120 . S
Zn385 O397 2.114 . S
Zn385 O400 2.080 . S
C386 O391 1.166 . S
C386 O392 1.182 . S
C387 O393 1.167 . S
C387 O394 1.299 . S
O388 Zn385 2.080 . S
O388 C402 1.305 . S
O389 Zn383 1.920 . S
O389 C402 1.234 . S
C390 O395 1.167 . S
C390 O396 1.299 . S
O391 Zn385 2.114 . S
O391 C386 1.166 . S
O392 Zn384 1.905 . S
O392 C386 1.182 . S
O393 Zn384 1.898 . S
O393 C387 1.167 . S
O394 Zn385 2.120 . S
O394 C387 1.299 . S
O395 Zn383 1.898 . S
O395 C390 1.167 . S
O396 Zn385 2.120 . S
O396 C390 1.299 . S
O397 Zn385 2.114 . S
O397 C399 1.166 . S
O398 Zn383 1.905 . S
O398 C399 1.182 . S
C399 O397 1.166 . S
C399 O398 1.182 . S
O400 Zn385 2.080 . S
O400 C403 1.305 . S
O401 Zn384 1.920 . S
O401 C403 1.234 . S
C402 O388 1.305 . S
C402 O389 1.234 . S
C403 O400 1.305 . S
C403 O401 1.234 . S
H404 C416 0.930 . S
H405 C418 0.930 . S
H406 C419 0.930 . S
H407 C423 0.959 . S
H408 C423 0.959 . S
H409 C423 0.961 . S
H410 C424 0.960 . S
H411 C424 0.961 . S
H412 C424 0.959 . S
H413 C427 0.929 . S
H414 C428 0.931 . S
H415 C430 0.930 . S
C416 H404 0.930 . S
C416 C417 1.399 . S
C416 C421 1.399 . S
C417 C416 1.399 . S
C417 C418 1.376 . S
C418 H405 0.930 . S
C418 C417 1.376 . S
C418 C419 1.388 . S
C419 H406 0.930 . S
C419 C418 1.388 . S
C419 C420 1.390 . S
C420 C419 1.390 . S
C420 C421 1.394 . S
C420 C426 1.465 . S
C421 C416 1.399 . S
C421 C420 1.394 . S
C421 C422 1.516 . S
C422 C421 1.516 . S
C422 C423 1.502 . S
C422 C424 1.561 . S
C422 C425 1.526 . S
C423 H407 0.959 . S
C423 H408 0.959 . S
C423 H409 0.961 . S
C423 C422 1.502 . S
C424 H410 0.960 . S
C424 H411 0.961 . S
C424 H412 0.959 . S
C424 C422 1.561 . S
C425 C422 1.526 . S
C425 C426 1.396 . S
C425 C430 1.390 . S
C426 C420 1.465 . S
C426 C425 1.396 . S
C426 C427 1.399 . S
C427 H413 0.929 . S
C427 C426 1.399 . S
C427 C428 1.385 . S
C428 H414 0.931 . S
C428 C427 1.385 . S
C428 C429 1.389 . S
C429 C428 1.389 . S
C429 C430 1.387 . S
C430 H415 0.930 . S
C430 C425 1.390 . S
C430 C429 1.387 . S
H431 C443 0.930 . S
H432 C445 0.930 . S
H433 C446 0.930 . S
H434 C450 0.959 . S
H435 C450 0.959 . S
H436 C450 0.961 . S
H437 C451 0.960 . S
H438 C451 0.961 . S
H439 C451 0.959 . S
H440 C454 0.929 . S
H441 C455 0.931 . S
H442 C457 0.930 . S
C443 H431 0.930 . S
C443 C444 1.399 . S
C443 C448 1.399 . S
C444 C443 1.399 . S
C444 C445 1.376 . S
C445 H432 0.930 . S
C445 C444 1.376 . S
C445 C446 1.388 . S
C446 H433 0.930 . S
C446 C445 1.388 . S
C446 C447 1.390 . S
C447 C446 1.390 . S
C447 C448 1.394 . S
C447 C453 1.465 . S
C448 C443 1.399 . S
C448 C447 1.394 . S
C448 C449 1.516 . S
C449 C448 1.516 . S
C449 C450 1.502 . S
C449 C451 1.561 . S
C449 C452 1.526 . S
C450 H434 0.959 . S
C450 H435 0.959 . S
C450 H436 0.961 . S
C450 C449 1.502 . S
C451 H437 0.960 . S
C451 H438 0.961 . S
C451 H439 0.959 . S
C451 C449 1.561 . S
C452 C449 1.526 . S
C452 C453 1.396 . S
C452 C457 1.390 . S
C453 C447 1.465 . S
C453 C452 1.396 . S
C453 C454 1.399 . S
C454 H440 0.929 . S
C454 C453 1.399 . S
C454 C455 1.385 . S
C455 H441 0.931 . S
C455 C454 1.385 . S
C455 C456 1.389 . S
C456 C455 1.389 . S
C456 C457 1.387 . S
C457 H442 0.930 . S
C457 C452 1.390 . S
C457 C456 1.387 . S
H458 C470 0.930 . S
H459 C472 0.930 . S
H460 C473 0.930 . S
H461 C477 0.959 . S
H462 C477 0.959 . S
H463 C477 0.961 . S
H464 C478 0.960 . S
H465 C478 0.961 . S
H466 C478 0.959 . S
H467 C481 0.929 . S
H468 C482 0.931 . S
H469 C484 0.930 . S
C470 H458 0.930 . S
C470 C471 1.399 . S
C470 C475 1.399 . S
C471 C470 1.399 . S
C471 C472 1.376 . S
C472 H459 0.930 . S
C472 C471 1.376 . S
C472 C473 1.388 . S
C473 H460 0.930 . S
C473 C472 1.388 . S
C473 C474 1.390 . S
C474 C473 1.390 . S
C474 C475 1.394 . S
C474 C480 1.465 . S
C475 C470 1.399 . S
C475 C474 1.394 . S
C475 C476 1.516 . S
C476 C475 1.516 . S
C476 C477 1.502 . S
C476 C478 1.561 . S
C476 C479 1.526 . S
C477 H461 0.959 . S
C477 H462 0.959 . S
C477 H463 0.961 . S
C477 C476 1.502 . S
C478 H464 0.960 . S
C478 H465 0.961 . S
C478 H466 0.959 . S
C478 C476 1.561 . S
C479 C476 1.526 . S
C479 C480 1.396 . S
C479 C484 1.390 . S
C480 C474 1.465 . S
C480 C479 1.396 . S
C480 C481 1.399 . S
C481 H467 0.929 . S
C481 C480 1.399 . S
C481 C482 1.385 . S
C482 H468 0.931 . S
C482 C481 1.385 . S
C482 C483 1.389 . S
C483 C482 1.389 . S
C483 C484 1.387 . S
C484 H469 0.930 . S
C484 C479 1.390 . S
C484 C483 1.387 . S
H485 C497 0.930 . S
H486 C499 0.930 . S
H487 C500 0.930 . S
H488 C504 0.959 . S
H489 C504 0.959 . S
H490 C504 0.961 . S
H491 C505 0.960 . S
H492 C505 0.961 . S
H493 C505 0.959 . S
H494 C508 0.929 . S
H495 C509 0.928 . S
H496 C511 0.930 . S
C497 H485 0.930 . S
C497 C498 1.399 . S
C497 C502 1.399 . S
C498 C497 1.399 . S
C498 C499 1.376 . S
C499 H486 0.930 . S
C499 C498 1.376 . S
C499 C500 1.388 . S
C500 H487 0.930 . S
C500 C499 1.388 . S
C500 C501 1.390 . S
C501 C500 1.390 . S
C501 C502 1.394 . S
C501 C507 1.465 . S
C502 C497 1.399 . S
C502 C501 1.394 . S
C502 C503 1.516 . S
C503 C502 1.516 . S
C503 C504 1.502 . S
C503 C505 1.561 . S
C503 C506 1.526 . S
C504 H488 0.959 . S
C504 H489 0.959 . S
C504 H490 0.961 . S
C504 C503 1.502 . S
C505 H491 0.960 . S
C505 H492 0.961 . S
C505 H493 0.959 . S
C505 C503 1.561 . S
C506 C503 1.526 . S
C506 C507 1.396 . S
C506 C511 1.390 . S
C507 C501 1.465 . S
C507 C506 1.396 . S
C507 C508 1.399 . S
C508 H494 0.929 . S
C508 C507 1.399 . S
C508 C509 1.388 1_655 S
C509 H495 0.928 . S
C509 C508 1.388 1_455 S
C509 C510 1.389 . S
C510 C509 1.389 . S
C510 C511 1.387 1_455 S
C511 H496 0.930 . S
C511 C506 1.390 . S
C511 C510 1.387 1_655 S
H512 C524 0.930 . S
H513 C526 0.930 . S
H514 C527 0.930 . S
H515 C531 0.959 . S
H516 C531 0.959 . S
H517 C531 0.961 . S
H518 C532 0.960 . S
H519 C532 0.961 . S
H520 C532 0.959 . S
H521 C535 0.929 . S
H522 C536 0.931 . S
H523 C538 0.930 . S
C524 H512 0.930 . S
C524 C525 1.399 . S
C524 C529 1.399 . S
C525 C524 1.399 . S
C525 C526 1.376 . S
C526 H513 0.930 . S
C526 C525 1.376 . S
C526 C527 1.388 . S
C527 H514 0.930 . S
C527 C526 1.388 . S
C527 C528 1.390 . S
C528 C527 1.390 . S
C528 C529 1.394 . S
C528 C534 1.465 . S
C529 C524 1.399 . S
C529 C528 1.394 . S
C529 C530 1.516 . S
C530 C529 1.516 . S
C530 C531 1.502 . S
C530 C532 1.561 . S
C530 C533 1.526 . S
C531 H515 0.959 . S
C531 H516 0.959 . S
C531 H517 0.961 . S
C531 C530 1.502 . S
C532 H518 0.960 . S
C532 H519 0.961 . S
C532 H520 0.959 . S
C532 C530 1.561 . S
C533 C530 1.526 . S
C533 C534 1.396 . S
C533 C538 1.390 . S
C534 C528 1.465 . S
C534 C533 1.396 . S
C534 C535 1.399 . S
C535 H521 0.929 . S
C535 C534 1.399 . S
C535 C536 1.385 . S
C536 H522 0.931 . S
C536 C535 1.385 . S
C536 C537 1.389 . S
C537 C536 1.389 . S
C537 C538 1.387 . S
C538 H523 0.930 . S
C538 C533 1.390 . S
C538 C537 1.387 . S
H539 C551 0.930 . S
H540 C553 0.930 . S
H541 C554 0.930 . S
H542 C558 0.959 . S
H543 C558 0.959 . S
H544 C558 0.961 . S
H545 C559 0.960 . S
H546 C559 0.961 . S
H547 C559 0.959 . S
H548 C562 0.929 . S
H549 C563 0.931 . S
H550 C565 0.930 1_455 S
C551 H539 0.930 . S
C551 C552 1.399 . S
C551 C556 1.399 . S
C552 C551 1.399 . S
C552 C553 1.376 . S
C553 H540 0.930 . S
C553 C552 1.376 . S
C553 C554 1.388 . S
C554 H541 0.930 . S
C554 C553 1.388 . S
C554 C555 1.390 . S
C555 C554 1.390 . S
C555 C556 1.394 . S
C555 C561 1.465 . S
C556 C551 1.399 . S
C556 C555 1.394 . S
C556 C557 1.516 . S
C557 C556 1.516 . S
C557 C558 1.502 . S
C557 C559 1.561 . S
C557 C560 1.526 . S
C558 H542 0.959 . S
C558 H543 0.959 . S
C558 H544 0.961 . S
C558 C557 1.502 . S
C559 H545 0.960 . S
C559 H546 0.961 . S
C559 H547 0.959 . S
C559 C557 1.561 . S
C560 C557 1.526 . S
C560 C561 1.396 . S
C560 C565 1.390 . S
C561 C555 1.465 . S
C561 C560 1.396 . S
C561 C562 1.399 . S
C562 H548 0.929 . S
C562 C561 1.399 . S
C562 C563 1.385 1_655 S
C563 H549 0.931 . S
C563 C562 1.385 1_455 S
C563 C564 1.389 . S
C564 C563 1.389 . S
C564 C565 1.387 1_455 S
C565 H550 0.930 1_655 S
C565 C560 1.390 . S
C565 C564 1.387 1_655 S
H566 C578 0.930 . S
H567 C580 0.930 . S
H568 C581 0.930 . S
H569 C585 0.959 . S
H570 C585 0.959 . S
H571 C585 0.961 . S
H572 C586 0.960 . S
H573 C586 0.961 . S
H574 C586 0.959 . S
H575 C589 0.929 . S
H576 C590 0.931 . S
H577 C592 0.930 . S
C578 H566 0.930 . S
C578 C579 1.399 . S
C578 C583 1.399 . S
C579 C578 1.399 . S
C579 C580 1.376 . S
C580 H567 0.930 . S
C580 C579 1.376 . S
C580 C581 1.388 . S
C581 H568 0.930 . S
C581 C580 1.388 . S
C581 C582 1.390 . S
C582 C581 1.390 . S
C582 C583 1.394 . S
C582 C588 1.465 . S
C583 C578 1.399 . S
C583 C582 1.394 . S
C583 C584 1.516 . S
C584 C583 1.516 . S
C584 C585 1.502 . S
C584 C586 1.561 . S
C584 C587 1.526 . S
C585 H569 0.959 . S
C585 H570 0.959 . S
C585 H571 0.961 . S
C585 C584 1.502 . S
C586 H572 0.960 . S
C586 H573 0.961 . S
C586 H574 0.959 . S
C586 C584 1.561 . S
C587 C584 1.526 . S
C587 C588 1.396 . S
C587 C592 1.390 . S
C588 C582 1.465 . S
C588 C587 1.396 . S
C588 C589 1.399 . S
C589 H575 0.929 . S
C589 C588 1.399 . S
C589 C590 1.385 . S
C590 H576 0.931 . S
C590 C589 1.385 . S
C590 C591 1.389 . S
C591 C590 1.389 . S
C591 C592 1.387 . S
C592 H577 0.930 . S
C592 C587 1.390 . S
C592 C591 1.387 . S
H593 C605 0.930 . S
H594 C607 0.930 . S
H595 C608 0.930 . S
H596 C612 0.959 . S
H597 C612 0.959 . S
H598 C612 0.961 . S
H599 C613 0.960 . S
H600 C613 0.961 . S
H601 C613 0.959 . S
H602 C616 0.929 . S
H603 C617 0.931 . S
H604 C619 0.930 . S
C605 H593 0.930 . S
C605 C606 1.399 . S
C605 C610 1.399 . S
C606 C605 1.399 . S
C606 C607 1.376 . S
C607 H594 0.930 . S
C607 C606 1.376 . S
C607 C608 1.388 . S
C608 H595 0.930 . S
C608 C607 1.388 . S
C608 C609 1.390 . S
C609 C608 1.390 . S
C609 C610 1.394 . S
C609 C615 1.465 . S
C610 C605 1.399 . S
C610 C609 1.394 . S
C610 C611 1.516 . S
C611 C610 1.516 . S
C611 C612 1.502 . S
C611 C613 1.561 . S
C611 C614 1.526 . S
C612 H596 0.959 . S
C612 H597 0.959 . S
C612 H598 0.961 . S
C612 C611 1.502 . S
C613 H599 0.960 . S
C613 H600 0.961 . S
C613 H601 0.959 . S
C613 C611 1.561 . S
C614 C611 1.526 . S
C614 C615 1.396 . S
C614 C619 1.390 . S
C615 C609 1.465 . S
C615 C614 1.396 . S
C615 C616 1.399 . S
C616 H602 0.929 . S
C616 C615 1.399 . S
C616 C617 1.385 . S
C617 H603 0.931 . S
C617 C616 1.385 . S
C617 C618 1.389 . S
C618 C617 1.389 . S
C618 C619 1.387 . S
C619 H604 0.930 . S
C619 C614 1.390 . S
C619 C618 1.387 . S
H620 C632 0.930 . S
H621 C634 0.930 . S
H622 C635 0.930 . S
H623 C639 0.959 . S
H624 C639 0.959 . S
H625 C639 0.961 . S
H626 C640 0.960 . S
H627 C640 0.961 . S
H628 C640 0.959 . S
H629 C643 0.929 . S
H630 C644 0.931 . S
H631 C646 0.930 . S
C632 H620 0.930 . S
C632 C633 1.399 . S
C632 C637 1.399 . S
C633 C632 1.399 . S
C633 C634 1.376 . S
C634 H621 0.930 . S
C634 C633 1.376 . S
C634 C635 1.388 . S
C635 H622 0.930 . S
C635 C634 1.388 . S
C635 C636 1.390 . S
C636 C635 1.390 . S
C636 C637 1.394 . S
C636 C642 1.465 . S
C637 C632 1.399 . S
C637 C636 1.394 . S
C637 C638 1.516 . S
C638 C637 1.516 . S
C638 C639 1.502 . S
C638 C640 1.561 . S
C638 C641 1.526 . S
C639 H623 0.959 . S
C639 H624 0.959 . S
C639 H625 0.961 . S
C639 C638 1.502 . S
C640 H626 0.960 . S
C640 H627 0.961 . S
C640 H628 0.959 . S
C640 C638 1.561 . S
C641 C638 1.526 . S
C641 C642 1.396 . S
C641 C646 1.390 . S
C642 C636 1.465 . S
C642 C641 1.396 . S
C642 C643 1.399 . S
C643 H629 0.929 . S
C643 C642 1.399 . S
C643 C644 1.385 . S
C644 H630 0.931 . S
C644 C643 1.385 . S
C644 C645 1.389 . S
C645 C644 1.389 . S
C645 C646 1.387 . S
C646 H631 0.930 . S
C646 C641 1.390 . S
C646 C645 1.387 . S
H647 C659 0.930 . S
H648 C661 0.930 . S
H649 C662 0.930 . S
H650 C666 0.959 . S
H651 C666 0.959 . S
H652 C666 0.961 . S
H653 C667 0.960 . S
H654 C667 0.961 . S
H655 C667 0.959 . S
H656 C670 0.929 . S
H657 C671 0.931 . S
H658 C673 0.930 . S
C659 H647 0.930 . S
C659 C660 1.399 . S
C659 C664 1.399 . S
C660 C659 1.399 . S
C660 C661 1.376 . S
C661 H648 0.930 . S
C661 C660 1.376 . S
C661 C662 1.388 . S
C662 H649 0.930 . S
C662 C661 1.388 . S
C662 C663 1.390 . S
C663 C662 1.390 . S
C663 C664 1.394 . S
C663 C669 1.465 . S
C664 C659 1.399 . S
C664 C663 1.394 . S
C664 C665 1.516 . S
C665 C664 1.516 . S
C665 C666 1.502 . S
C665 C667 1.561 . S
C665 C668 1.526 . S
C666 H650 0.959 . S
C666 H651 0.959 . S
C666 H652 0.961 . S
C666 C665 1.502 . S
C667 H653 0.960 . S
C667 H654 0.961 . S
C667 H655 0.959 . S
C667 C665 1.561 . S
C668 C665 1.526 . S
C668 C669 1.396 . S
C668 C673 1.390 . S
C669 C663 1.465 . S
C669 C668 1.396 . S
C669 C670 1.399 . S
C670 H656 0.929 . S
C670 C669 1.399 . S
C670 C671 1.385 . S
C671 H657 0.931 . S
C671 C670 1.385 . S
C671 C672 1.389 . S
C672 C671 1.389 . S
C672 C673 1.387 . S
C673 H658 0.930 . S
C673 C668 1.390 . S
C673 C672 1.387 . S
H674 C686 0.930 . S
H675 C688 0.930 . S
H676 C689 0.930 . S
H677 C693 0.959 . S
H678 C693 0.959 . S
H679 C693 0.961 . S
H680 C694 0.960 . S
H681 C694 0.961 . S
H682 C694 0.959 . S
H683 C697 0.929 . S
H684 C698 0.931 . S
H685 C700 0.930 . S
C686 H674 0.930 . S
C686 C687 1.399 . S
C686 C691 1.399 . S
C687 C686 1.399 . S
C687 C688 1.376 . S
C688 H675 0.930 . S
C688 C687 1.376 . S
C688 C689 1.388 . S
C689 H676 0.930 . S
C689 C688 1.388 . S
C689 C690 1.390 . S
C690 C689 1.390 . S
C690 C691 1.394 . S
C690 C696 1.465 . S
C691 C686 1.399 . S
C691 C690 1.394 . S
C691 C692 1.516 . S
C692 C691 1.516 . S
C692 C693 1.502 . S
C692 C694 1.561 . S
C692 C695 1.526 . S
C693 H677 0.959 . S
C693 H678 0.959 . S
C693 H679 0.961 . S
C693 C692 1.502 . S
C694 H680 0.960 . S
C694 H681 0.961 . S
C694 H682 0.959 . S
C694 C692 1.561 . S
C695 C692 1.526 . S
C695 C696 1.396 . S
C695 C700 1.390 . S
C696 C690 1.465 . S
C696 C695 1.396 . S
C696 C697 1.399 . S
C697 H683 0.929 . S
C697 C696 1.399 . S
C697 C698 1.385 . S
C698 H684 0.931 . S
C698 C697 1.385 . S
C698 C699 1.389 . S
C699 C698 1.389 . S
C699 C700 1.387 . S
C700 H685 0.930 . S
C700 C695 1.390 . S
C700 C699 1.387 . S
H701 C713 0.930 . S
H702 C715 0.930 . S
H703 C716 0.930 . S
H704 C720 0.959 . S
H705 C720 0.959 . S
H706 C720 0.961 . S
H707 C721 0.960 . S
H708 C721 0.961 . S
H709 C721 0.959 . S
H710 C724 0.929 . S
H711 C725 0.931 . S
H712 C727 0.930 . S
C713 H701 0.930 . S
C713 C714 1.399 . S
C713 C718 1.399 . S
C714 C713 1.399 . S
C714 C715 1.376 . S
C715 H702 0.930 . S
C715 C714 1.376 . S
C715 C716 1.388 . S
C716 H703 0.930 . S
C716 C715 1.388 . S
C716 C717 1.390 . S
C717 C716 1.390 . S
C717 C718 1.394 . S
C717 C723 1.465 . S
C718 C713 1.399 . S
C718 C717 1.394 . S
C718 C719 1.516 . S
C719 C718 1.516 . S
C719 C720 1.502 . S
C719 C721 1.561 . S
C719 C722 1.526 . S
C720 H704 0.959 . S
C720 H705 0.959 . S
C720 H706 0.961 . S
C720 C719 1.502 . S
C721 H707 0.960 . S
C721 H708 0.961 . S
C721 H709 0.959 . S
C721 C719 1.561 . S
C722 C719 1.526 . S
C722 C723 1.396 . S
C722 C727 1.390 . S
C723 C717 1.465 . S
C723 C722 1.396 . S
C723 C724 1.399 . S
C724 H710 0.929 . S
C724 C723 1.399 . S
C724 C725 1.385 . S
C725 H711 0.931 . S
C725 C724 1.385 . S
C725 C726 1.389 . S
C726 C725 1.389 . S
C726 C727 1.387 . S
C727 H712 0.930 . S
C727 C722 1.390 . S
C727 C726 1.387 . S
H728 C740 0.930 . S
H729 C742 0.930 . S
H730 C743 0.930 . S
H731 C747 0.959 . S
H732 C747 0.959 . S
H733 C747 0.961 . S
H734 C748 0.960 . S
H735 C748 0.961 . S
H736 C748 0.959 . S
H737 C751 0.929 . S
H738 C752 0.931 . S
H739 C754 0.930 . S
C740 H728 0.930 . S
C740 C741 1.399 . S
C740 C745 1.399 1_565 S
C741 C740 1.399 . S
C741 C742 1.376 . S
C742 H729 0.930 . S
C742 C741 1.376 . S
C742 C743 1.388 . S
C743 H730 0.930 . S
C743 C742 1.388 . S
C743 C744 1.390 1_565 S
C744 C743 1.390 1_545 S
C744 C745 1.394 . S
C744 C750 1.465 . S
C745 C740 1.399 1_545 S
C745 C744 1.394 . S
C745 C746 1.516 . S
C746 C745 1.516 . S
C746 C747 1.502 . S
C746 C748 1.561 . S
C746 C749 1.526 . S
C747 H731 0.959 . S
C747 H732 0.959 . S
C747 H733 0.961 . S
C747 C746 1.502 . S
C748 H734 0.960 . S
C748 H735 0.961 . S
C748 H736 0.959 . S
C748 C746 1.561 . S
C749 C746 1.526 . S
C749 C750 1.396 . S
C749 C754 1.390 . S
C750 C744 1.465 . S
C750 C749 1.396 . S
C750 C751 1.399 . S
C751 H737 0.929 . S
C751 C750 1.399 . S
C751 C752 1.385 . S
C752 H738 0.931 . S
C752 C751 1.385 . S
C752 C753 1.389 . S
C753 C752 1.389 . S
C753 C754 1.387 . S
C754 H739 0.930 . S
C754 C749 1.390 . S
C754 C753 1.387 . S
H755 C767 0.930 . S
H756 C769 0.930 . S
H757 C770 0.930 . S
H758 C774 0.959 . S
H759 C774 0.959 . S
H760 C774 0.961 . S
H761 C775 0.960 . S
H762 C775 0.961 . S
H763 C775 0.959 . S
H764 C778 0.929 . S
H765 C779 0.931 . S
H766 C781 0.930 . S
C767 H755 0.930 . S
C767 C768 1.399 . S
C767 C772 1.399 1_545 S
C768 C767 1.399 . S
C768 C769 1.376 . S
C769 H756 0.930 . S
C769 C768 1.376 . S
C769 C770 1.388 1_545 S
C770 H757 0.930 . S
C770 C769 1.388 1_565 S
C770 C771 1.390 . S
C771 C770 1.390 . S
C771 C772 1.394 . S
C771 C777 1.465 . S
C772 C767 1.399 1_565 S
C772 C771 1.394 . S
C772 C773 1.516 . S
C773 C772 1.516 . S
C773 C774 1.502 . S
C773 C775 1.561 . S
C773 C776 1.526 . S
C774 H758 0.959 . S
C774 H759 0.959 . S
C774 H760 0.961 . S
C774 C773 1.502 . S
C775 H761 0.960 . S
C775 H762 0.961 . S
C775 H763 0.959 . S
C775 C773 1.561 . S
C776 C773 1.526 . S
C776 C777 1.396 . S
C776 C781 1.390 . S
C777 C771 1.465 . S
C777 C776 1.396 . S
C777 C778 1.399 . S
C778 H764 0.929 . S
C778 C777 1.399 . S
C778 C779 1.385 . S
C779 H765 0.931 . S
C779 C778 1.385 . S
C779 C780 1.389 . S
C780 C779 1.389 . S
C780 C781 1.387 . S
C781 H766 0.930 . S
C781 C776 1.390 . S
C781 C780 1.387 . S
H782 C794 0.930 . S
H783 C796 0.930 . S
H784 C797 0.930 . S
H785 C801 0.959 . S
H786 C801 0.959 . S
H787 C801 0.961 . S
H788 C802 0.960 . S
H789 C802 0.961 . S
H790 C802 0.959 . S
H791 C805 0.929 . S
H792 C806 0.931 . S
H793 C808 0.930 . S
C794 H782 0.930 . S
C794 C795 1.399 . S
C794 C799 1.399 1_545 S
C795 C794 1.399 . S
C795 C796 1.376 . S
C796 H783 0.930 . S
C796 C795 1.376 . S
C796 C797 1.388 1_545 S
C797 H784 0.930 . S
C797 C796 1.388 1_565 S
C797 C798 1.390 . S
C798 C797 1.390 . S
C798 C799 1.394 . S
C798 C804 1.465 . S
C799 C794 1.399 1_565 S
C799 C798 1.394 . S
C799 C800 1.516 . S
C800 C799 1.516 . S
C800 C801 1.502 . S
C800 C802 1.561 . S
C800 C803 1.526 . S
C801 H785 0.959 . S
C801 H786 0.959 . S
C801 H787 0.961 . S
C801 C800 1.502 . S
C802 H788 0.960 . S
C802 H789 0.961 . S
C802 H790 0.959 . S
C802 C800 1.561 . S
C803 C800 1.526 . S
C803 C804 1.396 . S
C803 C808 1.390 . S
C804 C798 1.465 . S
C804 C803 1.396 . S
C804 C805 1.399 . S
C805 H791 0.929 . S
C805 C804 1.399 . S
C805 C806 1.385 . S
C806 H792 0.931 . S
C806 C805 1.385 . S
C806 C807 1.389 . S
C807 C806 1.389 . S
C807 C808 1.387 . S
C808 H793 0.930 . S
C808 C803 1.390 . S
C808 C807 1.387 . S
H809 C821 0.930 . S
H810 C823 0.930 . S
H811 C824 0.930 . S
H812 C828 0.959 . S
H813 C828 0.959 . S
H814 C828 0.961 . S
H815 C829 0.960 . S
H816 C829 0.961 . S
H817 C829 0.959 . S
H818 C832 0.929 . S
H819 C833 0.931 . S
H820 C835 0.930 . S
C821 H809 0.930 . S
C821 C822 1.399 . S
C821 C826 1.399 1_565 S
C822 C821 1.399 . S
C822 C823 1.376 . S
C823 H810 0.930 . S
C823 C822 1.376 . S
C823 C824 1.388 . S
C824 H811 0.930 . S
C824 C823 1.388 . S
C824 C825 1.390 1_565 S
C825 C824 1.390 1_545 S
C825 C826 1.394 . S
C825 C831 1.465 . S
C826 C821 1.399 1_545 S
C826 C825 1.394 . S
C826 C827 1.516 . S
C827 C826 1.516 . S
C827 C828 1.502 . S
C827 C829 1.561 . S
C827 C830 1.526 . S
C828 H812 0.959 . S
C828 H813 0.959 . S
C828 H814 0.961 . S
C828 C827 1.502 . S
C829 H815 0.960 . S
C829 H816 0.961 . S
C829 H817 0.959 . S
C829 C827 1.561 . S
C830 C827 1.526 . S
C830 C831 1.396 . S
C830 C835 1.390 . S
C831 C825 1.465 . S
C831 C830 1.396 . S
C831 C832 1.399 . S
C832 H818 0.929 . S
C832 C831 1.399 . S
C832 C833 1.385 . S
C833 H819 0.931 . S
C833 C832 1.385 . S
C833 C834 1.389 . S
C834 C833 1.389 . S
C834 C835 1.387 . S
C835 H820 0.930 . S
C835 C830 1.390 . S
C835 C834 1.387 . S
H836 C848 0.930 . S
H837 C850 0.930 . S
H838 C851 0.930 . S
H839 C855 0.959 . S
H840 C855 0.959 . S
H841 C855 0.961 . S
H842 C856 0.960 . S
H843 C856 0.961 . S
H844 C856 0.959 . S
H845 C859 0.929 . S
H846 C860 0.931 . S
H847 C862 0.930 . S
C848 H836 0.930 . S
C848 C849 1.399 . S
C848 C853 1.399 . S
C849 C848 1.399 . S
C849 C850 1.376 . S
C850 H837 0.930 . S
C850 C849 1.376 . S
C850 C851 1.388 . S
C851 H838 0.930 . S
C851 C850 1.388 . S
C851 C852 1.390 . S
C852 C851 1.390 . S
C852 C853 1.394 . S
C852 C858 1.465 . S
C853 C848 1.399 . S
C853 C852 1.394 . S
C853 C854 1.516 . S
C854 C853 1.516 . S
C854 C855 1.502 . S
C854 C856 1.561 . S
C854 C857 1.526 . S
C855 H839 0.959 . S
C855 H840 0.959 . S
C855 H841 0.961 . S
C855 C854 1.502 . S
C856 H842 0.960 . S
C856 H843 0.961 . S
C856 H844 0.959 . S
C856 C854 1.561 . S
C857 C854 1.526 . S
C857 C858 1.396 . S
C857 C862 1.390 . S
C858 C852 1.465 . S
C858 C857 1.396 . S
C858 C859 1.399 . S
C859 H845 0.929 . S
C859 C858 1.399 . S
C859 C860 1.385 . S
C860 H846 0.931 . S
C860 C859 1.385 . S
C860 C861 1.389 . S
C861 C860 1.389 . S
C861 C862 1.387 . S
C862 H847 0.930 . S
C862 C857 1.390 . S
C862 C861 1.387 . S
H863 C875 0.930 . S
H864 C877 0.930 . S
H865 C878 0.930 . S
H866 C882 0.959 . S
H867 C882 0.959 . S
H868 C882 0.961 . S
H869 C883 0.960 . S
H870 C883 0.961 . S
H871 C883 0.959 . S
H872 C886 0.929 . S
H873 C887 0.931 . S
H874 C889 0.930 . S
C875 H863 0.930 . S
C875 C876 1.399 . S
C875 C880 1.399 . S
C876 C875 1.399 . S
C876 C877 1.376 . S
C877 H864 0.930 . S
C877 C876 1.376 . S
C877 C878 1.388 . S
C878 H865 0.930 . S
C878 C877 1.388 . S
C878 C879 1.390 . S
C879 C878 1.390 . S
C879 C880 1.394 . S
C879 C885 1.465 . S
C880 C875 1.399 . S
C880 C879 1.394 . S
C880 C881 1.516 . S
C881 C880 1.516 . S
C881 C882 1.502 . S
C881 C883 1.561 . S
C881 C884 1.526 . S
C882 H866 0.959 . S
C882 H867 0.959 . S
C882 H868 0.961 . S
C882 C881 1.502 . S
C883 H869 0.960 . S
C883 H870 0.961 . S
C883 H871 0.959 . S
C883 C881 1.561 . S
C884 C881 1.526 . S
C884 C885 1.396 . S
C884 C889 1.390 . S
C885 C879 1.465 . S
C885 C884 1.396 . S
C885 C886 1.399 . S
C886 H872 0.929 . S
C886 C885 1.399 . S
C886 C887 1.385 . S
C887 H873 0.931 . S
C887 C886 1.385 . S
C887 C888 1.389 . S
C888 C887 1.389 . S
C888 C889 1.387 . S
C889 H874 0.930 . S
C889 C884 1.390 . S
C889 C888 1.387 . S
H890 C902 0.930 . S
H891 C904 0.930 . S
H892 C905 0.930 . S
H893 C909 0.959 . S
H894 C909 0.959 . S
H895 C909 0.961 . S
H896 C910 0.960 . S
H897 C910 0.961 . S
H898 C910 0.959 . S
H899 C913 0.929 . S
H900 C914 0.931 . S
H901 C916 0.930 . S
C902 H890 0.930 . S
C902 C903 1.399 . S
C902 C907 1.399 . S
C903 C902 1.399 . S
C903 C904 1.376 . S
C904 H891 0.930 . S
C904 C903 1.376 . S
C904 C905 1.388 . S
C905 H892 0.930 . S
C905 C904 1.388 . S
C905 C906 1.390 . S
C906 C905 1.390 . S
C906 C907 1.394 . S
C906 C912 1.465 . S
C907 C902 1.399 . S
C907 C906 1.394 . S
C907 C908 1.516 . S
C908 C907 1.516 . S
C908 C909 1.502 . S
C908 C910 1.561 . S
C908 C911 1.526 . S
C909 H893 0.959 . S
C909 H894 0.959 . S
C909 H895 0.961 . S
C909 C908 1.502 . S
C910 H896 0.960 . S
C910 H897 0.961 . S
C910 H898 0.959 . S
C910 C908 1.561 . S
C911 C908 1.526 . S
C911 C912 1.396 . S
C911 C916 1.390 . S
C912 C906 1.465 . S
C912 C911 1.396 . S
C912 C913 1.399 . S
C913 H899 0.929 . S
C913 C912 1.399 . S
C913 C914 1.385 . S
C914 H900 0.931 . S
C914 C913 1.385 . S
C914 C915 1.389 . S
C915 C914 1.389 . S
C915 C916 1.387 . S
C916 H901 0.930 . S
C916 C911 1.390 . S
C916 C915 1.387 . S
H917 C929 0.930 . S
H918 C931 0.930 . S
H919 C932 0.930 . S
H920 C936 0.959 . S
H921 C936 0.959 . S
H922 C936 0.961 . S
H923 C937 0.960 . S
H924 C937 0.961 . S
H925 C937 0.959 . S
H926 C940 0.929 . S
H927 C941 0.931 . S
H928 C943 0.930 . S
C929 H917 0.930 . S
C929 C930 1.399 . S
C929 C934 1.399 . S
C930 C929 1.399 . S
C930 C931 1.376 . S
C931 H918 0.930 . S
C931 C930 1.376 . S
C931 C932 1.388 . S
C932 H919 0.930 . S
C932 C931 1.388 . S
C932 C933 1.390 . S
C933 C932 1.390 . S
C933 C934 1.394 . S
C933 C939 1.465 . S
C934 C929 1.399 . S
C934 C933 1.394 . S
C934 C935 1.516 . S
C935 C934 1.516 . S
C935 C936 1.502 . S
C935 C937 1.561 . S
C935 C938 1.526 . S
C936 H920 0.959 . S
C936 H921 0.959 . S
C936 H922 0.961 . S
C936 C935 1.502 . S
C937 H923 0.960 . S
C937 H924 0.961 . S
C937 H925 0.959 . S
C937 C935 1.561 . S
C938 C935 1.526 . S
C938 C939 1.396 . S
C938 C943 1.390 . S
C939 C933 1.465 . S
C939 C938 1.396 . S
C939 C940 1.399 . S
C940 H926 0.929 . S
C940 C939 1.399 . S
C940 C941 1.385 . S
C941 H927 0.931 . S
C941 C940 1.385 . S
C941 C942 1.389 . S
C942 C941 1.389 . S
C942 C943 1.387 . S
C943 H928 0.930 . S
C943 C938 1.390 . S
C943 C942 1.387 . S
H944 C956 0.930 . S
H945 C958 0.930 . S
H946 C959 0.930 . S
H947 C963 0.959 . S
H948 C963 0.959 . S
H949 C963 0.961 . S
H950 C964 0.960 . S
H951 C964 0.961 . S
H952 C964 0.959 . S
H953 C967 0.929 . S
H954 C968 0.931 . S
H955 C970 0.930 . S
C956 H944 0.930 . S
C956 C957 1.399 . S
C956 C961 1.399 . S
C957 C956 1.399 . S
C957 C958 1.376 . S
C958 H945 0.930 . S
C958 C957 1.376 . S
C958 C959 1.388 . S
C959 H946 0.930 . S
C959 C958 1.388 . S
C959 C960 1.390 . S
C960 C959 1.390 . S
C960 C961 1.394 . S
C960 C966 1.465 . S
C961 C956 1.399 . S
C961 C960 1.394 . S
C961 C962 1.516 . S
C962 C961 1.516 . S
C962 C963 1.502 . S
C962 C964 1.561 . S
C962 C965 1.526 . S
C963 H947 0.959 . S
C963 H948 0.959 . S
C963 H949 0.961 . S
C963 C962 1.502 . S
C964 H950 0.960 . S
C964 H951 0.961 . S
C964 H952 0.959 . S
C964 C962 1.561 . S
C965 C962 1.526 . S
C965 C966 1.396 . S
C965 C970 1.390 . S
C966 C960 1.465 . S
C966 C965 1.396 . S
C966 C967 1.399 . S
C967 H953 0.929 . S
C967 C966 1.399 . S
C967 C968 1.385 . S
C968 H954 0.931 . S
C968 C967 1.385 . S
C968 C969 1.389 . S
C969 C968 1.389 . S
C969 C970 1.387 . S
C970 H955 0.930 . S
C970 C965 1.390 . S
C970 C969 1.387 . S
H971 C983 0.930 . S
H972 C985 0.930 . S
H973 C986 0.930 . S
H974 C990 0.959 . S
H975 C990 0.959 . S
H976 C990 0.961 . S
H977 C991 0.960 . S
H978 C991 0.961 . S
H979 C991 0.959 . S
H980 C994 0.929 . S
H981 C995 0.931 . S
H982 C997 0.930 . S
C983 H971 0.930 . S
C983 C984 1.399 . S
C983 C988 1.399 . S
C984 C983 1.399 . S
C984 C985 1.376 . S
C985 H972 0.930 . S
C985 C984 1.376 . S
C985 C986 1.388 . S
C986 H973 0.930 . S
C986 C985 1.388 . S
C986 C987 1.390 . S
C987 C986 1.390 . S
C987 C988 1.394 . S
C987 C993 1.465 . S
C988 C983 1.399 . S
C988 C987 1.394 . S
C988 C989 1.516 . S
C989 C988 1.516 . S
C989 C990 1.502 . S
C989 C991 1.561 . S
C989 C992 1.526 . S
C990 H974 0.959 . S
C990 H975 0.959 . S
C990 H976 0.961 . S
C990 C989 1.502 . S
C991 H977 0.960 . S
C991 H978 0.961 . S
C991 H979 0.959 . S
C991 C989 1.561 . S
C992 C989 1.526 . S
C992 C993 1.396 . S
C992 C997 1.390 . S
C993 C987 1.465 . S
C993 C992 1.396 . S
C993 C994 1.399 . S
C994 H980 0.929 . S
C994 C993 1.399 . S
C994 C995 1.385 . S
C995 H981 0.931 . S
C995 C994 1.385 . S
C995 C996 1.389 . S
C996 C995 1.389 . S
C996 C997 1.387 . S
C997 H982 0.930 . S
C997 C992 1.390 . S
C997 C996 1.387 . S
H998 C1010 0.930 . S
H999 C1012 0.930 . S
H1000 C1013 0.930 . S
H1001 C1017 0.959 . S
H1002 C1017 0.959 . S
H1003 C1017 0.961 . S
H1004 C1018 0.960 . S
H1005 C1018 0.961 . S
H1006 C1018 0.959 . S
H1007 C1021 0.929 . S
H1008 C1022 0.931 . S
H1009 C1024 0.930 . S
C1010 H998 0.930 . S
C1010 C1011 1.399 . S
C1010 C1015 1.399 . S
C1011 C1010 1.399 . S
C1011 C1012 1.376 . S
C1012 H999 0.930 . S
C1012 C1011 1.376 . S
C1012 C1013 1.388 . S
C1013 H1000 0.930 . S
C1013 C1012 1.388 . S
C1013 C1014 1.390 . S
C1014 C1013 1.390 . S
C1014 C1015 1.394 . S
C1014 C1020 1.465 . S
C1015 C1010 1.399 . S
C1015 C1014 1.394 . S
C1015 C1016 1.516 . S
C1016 C1015 1.516 . S
C1016 C1017 1.502 . S
C1016 C1018 1.561 . S
C1016 C1019 1.526 . S
C1017 H1001 0.959 . S
C1017 H1002 0.959 . S
C1017 H1003 0.961 . S
C1017 C1016 1.502 . S
C1018 H1004 0.960 . S
C1018 H1005 0.961 . S
C1018 H1006 0.959 . S
C1018 C1016 1.561 . S
C1019 C1016 1.526 . S
C1019 C1020 1.396 . S
C1019 C1024 1.390 . S
C1020 C1014 1.465 . S
C1020 C1019 1.396 . S
C1020 C1021 1.399 . S
C1021 H1007 0.929 . S
C1021 C1020 1.399 . S
C1021 C1022 1.385 . S
C1022 H1008 0.931 . S
C1022 C1021 1.385 . S
C1022 C1023 1.389 . S
C1023 C1022 1.389 . S
C1023 C1024 1.387 . S
C1024 H1009 0.930 . S
C1024 C1019 1.390 . S
C1024 C1023 1.387 . S
H1025 C1037 0.930 . S
H1026 C1039 0.930 . S
H1027 C1040 0.930 . S
H1028 C1044 0.959 . S
H1029 C1044 0.959 . S
H1030 C1044 0.961 . S
H1031 C1045 0.960 . S
H1032 C1045 0.961 . S
H1033 C1045 0.959 . S
H1034 C1048 0.929 . S
H1035 C1049 0.931 . S
H1036 C1051 0.930 . S
C1037 H1025 0.930 . S
C1037 C1038 1.399 . S
C1037 C1042 1.399 . S
C1038 C1037 1.399 . S
C1038 C1039 1.376 . S
C1039 H1026 0.930 . S
C1039 C1038 1.376 . S
C1039 C1040 1.388 . S
C1040 H1027 0.930 . S
C1040 C1039 1.388 . S
C1040 C1041 1.390 . S
C1041 C1040 1.390 . S
C1041 C1042 1.394 . S
C1041 C1047 1.465 . S
C1042 C1037 1.399 . S
C1042 C1041 1.394 . S
C1042 C1043 1.516 . S
C1043 C1042 1.516 . S
C1043 C1044 1.502 . S
C1043 C1045 1.561 . S
C1043 C1046 1.526 . S
C1044 H1028 0.959 . S
C1044 H1029 0.959 . S
C1044 H1030 0.961 . S
C1044 C1043 1.502 . S
C1045 H1031 0.960 . S
C1045 H1032 0.961 . S
C1045 H1033 0.959 . S
C1045 C1043 1.561 . S
C1046 C1043 1.526 . S
C1046 C1047 1.396 . S
C1046 C1051 1.390 . S
C1047 C1041 1.465 . S
C1047 C1046 1.396 . S
C1047 C1048 1.399 . S
C1048 H1034 0.929 . S
C1048 C1047 1.399 . S
C1048 C1049 1.385 . S
C1049 H1035 0.931 . S
C1049 C1048 1.385 . S
C1049 C1050 1.389 . S
C1050 C1049 1.389 . S
C1050 C1051 1.387 . S
C1051 H1036 0.930 . S
C1051 C1046 1.390 . S
C1051 C1050 1.387 . S
C429 C327 1.559 . S
C417 C15 1.686 . S
C456 C345 1.263 . S
C444 C55 1.435 . S
C471 C82 1.359 . S
C483 C369 1.305 . S
C510 C399 1.303 . S
C498 C122 1.449 . S
C537 C387 1.418 . S
C525 C175 1.475 . S
C552 C215 1.444 . S
C564 C340 1.283 . S
C579 C242 1.692 . S
C591 C360 1.558 . S
C606 C282 1.469 . S
C618 C365 1.373 . S
C633 C295 1.427 . S
C645 C381 1.296 . S
C660 C202 1.503 . S
C672 C336 1.406 . S
C699 C403 1.367 . S
C687 C135 1.394 . S
C726 C348 1.290 . S
C714 C42 1.450 . S
C741 C95 1.694 . S
C753 C366 1.532 . S
C768 C2 1.368 . S
C780 C324 1.313 . S
C807 C344 1.412 . S
C795 C255 1.460 . S
C834 C390 1.516 . S
C822 C162 1.729 . S
C861 C386 1.310 . S
C849 C21 1.507 . S
C888 C339 1.313 . S
C876 C61 1.385 . S
C903 C101 1.488 . S
C915 C361 1.335 . S
C930 C141 1.459 . S
C942 C382 1.410 . S
C969 C323 1.373 . S
C957 C181 1.529 1_554 S
C984 C221 1.483 . S
C996 C357 1.436 . S
C1023 C378 1.380 . S
C1011 C261 1.539 . S
C1050 C402 1.332 . S
C1038 C301 1.411 . S
