# Generated by pormake.
# Topology myd, (4,6)-cn, num edge types: 1
# Building blocks:
#     Node 0, Type 0, BuildingBlock: NAWXER_clean_sbu_0, # of connection points: 4
#     Node 1, Type 0, BuildingBlock: NAWXER_clean_sbu_0, # of connection points: 4
#     Node 2, Type 0, BuildingBlock: NAWXER_clean_sbu_0, # of connection points: 4
#     Node 3, Type 0, BuildingBlock: NAWXER_clean_sbu_0, # of connection points: 4
#     Node 4, Type 0, BuildingBlock: NAWXER_clean_sbu_0, # of connection points: 4
#     Node 5, Type 0, BuildingBlock: NAWXER_clean_sbu_0, # of connection points: 4
#     Node 6, Type 0, BuildingBlock: NAWXER_clean_sbu_0, # of connection points: 4
#     Node 7, Type 0, BuildingBlock: NAWXER_clean_sbu_0, # of connection points: 4
#     Node 8, Type 0, BuildingBlock: NAWXER_clean_sbu_0, # of connection points: 4
#     Node 9, Type 0, BuildingBlock: NAWXER_clean_sbu_0, # of connection points: 4
#     Node 10, Type 0, BuildingBlock: NAWXER_clean_sbu_0, # of connection points: 4
#     Node 11, Type 0, BuildingBlock: NAWXER_clean_sbu_0, # of connection points: 4
#     Node 12, Type 1, BuildingBlock: FUNLAD_clean_sbu_0, # of connection points: 6
#     Node 13, Type 1, BuildingBlock: FUNLAD_clean_sbu_0, # of connection points: 6
#     Node 14, Type 1, BuildingBlock: FUNLAD_clean_sbu_0, # of connection points: 6
#     Node 15, Type 1, BuildingBlock: FUNLAD_clean_sbu_0, # of connection points: 6
#     Node 16, Type 1, BuildingBlock: FUNLAD_clean_sbu_0, # of connection points: 6
#     Node 17, Type 1, BuildingBlock: FUNLAD_clean_sbu_0, # of connection points: 6
#     Node 18, Type 1, BuildingBlock: FUNLAD_clean_sbu_0, # of connection points: 6
#     Node 19, Type 1, BuildingBlock: FUNLAD_clean_sbu_0, # of connection points: 6
#     Edge 20, Type (0, 1), BuildingBlock: OJICUG_clean_linker_0, # of connection points: 2
#     Edge 21, Type (0, 1), BuildingBlock: OJICUG_clean_linker_0, # of connection points: 2
#     Edge 22, Type (0, 1), BuildingBlock: OJICUG_clean_linker_0, # of connection points: 2
#     Edge 23, Type (0, 1), BuildingBlock: OJICUG_clean_linker_0, # of connection points: 2
#     Edge 24, Type (0, 1), BuildingBlock: OJICUG_clean_linker_0, # of connection points: 2
#     Edge 25, Type (0, 1), BuildingBlock: OJICUG_clean_linker_0, # of connection points: 2
#     Edge 26, Type (0, 1), BuildingBlock: OJICUG_clean_linker_0, # of connection points: 2
#     Edge 27, Type (0, 1), BuildingBlock: OJICUG_clean_linker_0, # of connection points: 2
#     Edge 28, Type (0, 1), BuildingBlock: OJICUG_clean_linker_0, # of connection points: 2
#     Edge 29, Type (0, 1), BuildingBlock: OJICUG_clean_linker_0, # of connection points: 2
#     Edge 30, Type (0, 1), BuildingBlock: OJICUG_clean_linker_0, # of connection points: 2
#     Edge 31, Type (0, 1), BuildingBlock: OJICUG_clean_linker_0, # of connection points: 2
#     Edge 32, Type (0, 1), BuildingBlock: OJICUG_clean_linker_0, # of connection points: 2
#     Edge 33, Type (0, 1), BuildingBlock: OJICUG_clean_linker_0, # of connection points: 2
#     Edge 34, Type (0, 1), BuildingBlock: OJICUG_clean_linker_0, # of connection points: 2
#     Edge 35, Type (0, 1), BuildingBlock: OJICUG_clean_linker_0, # of connection points: 2
#     Edge 36, Type (0, 1), BuildingBlock: OJICUG_clean_linker_0, # of connection points: 2
#     Edge 37, Type (0, 1), BuildingBlock: OJICUG_clean_linker_0, # of connection points: 2
#     Edge 38, Type (0, 1), BuildingBlock: OJICUG_clean_linker_0, # of connection points: 2
#     Edge 39, Type (0, 1), BuildingBlock: OJICUG_clean_linker_0, # of connection points: 2
#     Edge 40, Type (0, 1), BuildingBlock: OJICUG_clean_linker_0, # of connection points: 2
#     Edge 41, Type (0, 1), BuildingBlock: OJICUG_clean_linker_0, # of connection points: 2
#     Edge 42, Type (0, 1), BuildingBlock: OJICUG_clean_linker_0, # of connection points: 2
#     Edge 43, Type (0, 1), BuildingBlock: OJICUG_clean_linker_0, # of connection points: 2
#     Edge 44, Type (0, 1), BuildingBlock: OJICUG_clean_linker_0, # of connection points: 2
#     Edge 45, Type (0, 1), BuildingBlock: OJICUG_clean_linker_0, # of connection points: 2
#     Edge 46, Type (0, 1), BuildingBlock: OJICUG_clean_linker_0, # of connection points: 2
#     Edge 47, Type (0, 1), BuildingBlock: OJICUG_clean_linker_0, # of connection points: 2
#     Edge 48, Type (0, 1), BuildingBlock: OJICUG_clean_linker_0, # of connection points: 2
#     Edge 49, Type (0, 1), BuildingBlock: OJICUG_clean_linker_0, # of connection points: 2
#     Edge 50, Type (0, 1), BuildingBlock: OJICUG_clean_linker_0, # of connection points: 2
#     Edge 51, Type (0, 1), BuildingBlock: OJICUG_clean_linker_0, # of connection points: 2
#     Edge 52, Type (0, 1), BuildingBlock: OJICUG_clean_linker_0, # of connection points: 2
#     Edge 53, Type (0, 1), BuildingBlock: OJICUG_clean_linker_0, # of connection points: 2
#     Edge 54, Type (0, 1), BuildingBlock: OJICUG_clean_linker_0, # of connection points: 2
#     Edge 55, Type (0, 1), BuildingBlock: OJICUG_clean_linker_0, # of connection points: 2
#     Edge 56, Type (0, 1), BuildingBlock: OJICUG_clean_linker_0, # of connection points: 2
#     Edge 57, Type (0, 1), BuildingBlock: OJICUG_clean_linker_0, # of connection points: 2
#     Edge 58, Type (0, 1), BuildingBlock: OJICUG_clean_linker_0, # of connection points: 2
#     Edge 59, Type (0, 1), BuildingBlock: OJICUG_clean_linker_0, # of connection points: 2
#     Edge 60, Type (0, 1), BuildingBlock: OJICUG_clean_linker_0, # of connection points: 2
#     Edge 61, Type (0, 1), BuildingBlock: OJICUG_clean_linker_0, # of connection points: 2
#     Edge 62, Type (0, 1), BuildingBlock: OJICUG_clean_linker_0, # of connection points: 2
#     Edge 63, Type (0, 1), BuildingBlock: OJICUG_clean_linker_0, # of connection points: 2
#     Edge 64, Type (0, 1), BuildingBlock: OJICUG_clean_linker_0, # of connection points: 2
#     Edge 65, Type (0, 1), BuildingBlock: OJICUG_clean_linker_0, # of connection points: 2
#     Edge 66, Type (0, 1), BuildingBlock: OJICUG_clean_linker_0, # of connection points: 2
#     Edge 67, Type (0, 1), BuildingBlock: OJICUG_clean_linker_0, # of connection points: 2
# Relax obj value: 0.328
# Max RMSD: 0.255
# Mean RMSD: 0.153
data_MOF--net-myd--node1-NAWXER_clean_sbu_0--node2-FUNLAD_clean_sbu_0--edge1-OJICUG_clean_linker_0
_symmetry_space_group_name_H-M    P1
_symmetry_Int_Tables_number       1
_symmetry_cell_setting            triclinic
loop_
_symmetry_equiv_pos_as_xyz
'x, y, z'
_cell_length_a     33.419164
_cell_length_b     33.100247
_cell_length_c     38.300372
_cell_angle_alpha  81.052178
_cell_angle_beta   81.240936
_cell_angle_gamma 87.389345
loop_
_atom_site_label
_atom_site_type_symbol
_atom_site_fract_x
_atom_site_fract_y
_atom_site_fract_z
_atom_type_partial_charge
C0 C 0.05148 0.23112 0.31399 0.0
C1 C 0.04176 0.31863 0.40729 0.0
O2 O 0.0821 0.24352 0.32528 0.0
Zn3 Zn 0.05043 0.2711 0.3627 0.0
O4 O 0.01573 0.23914 0.32862 0.0
Zn5 Zn 0.98458 0.26842 0.37008 0.0
O6 O 0.95412 0.30886 0.34084 0.0
O7 O 0.02043 0.31621 0.32994 0.0
O8 O 1.0077 0.30573 0.40247 0.0
O9 O 0.07449 0.30514 0.39101 0.0
O10 O 0.0267 0.21821 0.39638 0.0
O11 O 0.96011 0.21978 0.3996 0.0
C12 C 0.98501 0.3278 0.32325 0.0
C13 C 0.9926 0.20086 0.40671 0.0
C14 C 0.07863 0.76816 0.21243 0.0
C15 C 0.04256 0.68915 0.12458 0.0
O16 O 0.10426 0.75156 0.19043 0.0
Zn17 Zn 0.06252 0.72825 0.16963 0.0
O18 O 0.04061 0.76511 0.21265 0.0
Zn19 Zn 0.99938 0.7398 0.18526 0.0
O20 O 0.97104 0.70266 0.22596 0.0
O21 O 0.03617 0.68724 0.2164 0.0
O22 O 1.01125 0.70465 0.14198 0.0
O23 O 0.07735 0.69478 0.13221 0.0
O24 O 0.04003 0.7858 0.14425 0.0
O25 O 0.97552 0.79278 0.16584 0.0
C26 C 1.0013 0.6812 0.23543 0.0
C27 C 1.00734 0.8077 0.14628 0.0
C28 C 0.37969 1.0008 0.17134 0.0
C29 C 0.28447 0.99731 0.28556 0.0
O30 O 0.37006 0.96831 0.19316 0.0
Zn31 Zn 0.33494 0.99406 0.23061 0.0
O32 O 0.36668 0.03552 0.17949 0.0
Zn33 Zn 0.32648 0.06049 0.21909 0.0
O34 O 0.36051 0.09379 0.2408 0.0
O35 O 0.37422 0.02775 0.25351 0.0
O36 O 0.29099 0.03222 0.26632 0.0
O37 O 0.30294 0.96569 0.2751 0.0
O38 O 0.28841 1.01384 0.20005 0.0
O39 O 0.28448 0.08122 0.18892 0.0
C40 C 0.38054 0.06477 0.25676 0.0
C41 C 0.27241 0.04638 0.18492 0.0
C42 C 0.76672 0.52106 0.16841 0.0
C43 C 0.67886 0.52276 0.28196 0.0
O44 O 0.7561 0.48495 0.18366 0.0
Zn45 Zn 0.71864 0.45763 0.23223 0.0
O46 O 0.75393 0.55181 0.18335 0.0
Zn47 Zn 0.72132 0.52222 0.22428 0.0
O48 O 0.7659 0.48936 0.25318 0.0
O49 O 0.75556 0.423 0.25789 0.0
O50 O 0.69273 0.55304 0.25947 0.0
O51 O 0.68583 0.48642 0.27457 0.0
O52 O 0.67798 0.4309 0.21541 0.0
O53 O 0.67489 0.49808 0.2012 0.0
C54 C 0.77528 0.45212 0.26446 0.0
C55 C 0.66173 0.46265 0.19979 0.0
C56 C 0.21095 0.38338 0.97332 0.0
C57 C 0.31845 0.27857 0.94917 0.0
O58 O 0.22399 0.37318 0.94281 0.0
Zn59 Zn 0.26613 0.33245 0.95704 0.0
O60 O 0.22829 0.36782 1.00012 0.0
Zn61 Zn 0.27458 0.32427 0.01321 0.0
O62 O 0.3195 0.3546 0.02488 0.0
O63 O 0.31529 0.36523 0.96732 0.0
O64 O 0.31121 0.28636 0.98116 0.0
O65 O 0.29801 0.29698 0.92555 0.0
O66 O 0.23072 0.28642 0.99058 0.0
O67 O 0.24238 0.28119 0.04621 0.0
C68 C 0.33408 0.37005 0.99309 0.0
C69 C 0.22387 0.26904 0.02305 0.0
C70 C 0.25031 0.7698 0.46758 0.0
C71 C 0.36067 0.67821 0.51201 0.0
O72 O 0.27764 0.75346 0.4467 0.0
Zn73 Zn 0.30769 0.72438 0.48518 0.0
O74 O 0.25225 0.76459 0.50102 0.0
Zn75 Zn 0.28519 0.73363 0.54009 0.0
O76 O 0.30702 0.77842 0.55799 0.0
O77 O 0.33311 0.77432 0.50204 0.0
O78 O 0.33593 0.69345 0.53566 0.0
O79 O 0.35564 0.68688 0.47928 0.0
O80 O 0.261 0.68483 0.51272 0.0
O81 O 0.24131 0.69993 0.56711 0.0
C82 C 0.33104 0.79179 0.52983 0.0
C83 C 0.23741 0.67903 0.5426 0.0
C84 C 0.71356 0.8786 0.47495 0.0
C85 C 0.81652 0.76792 0.45652 0.0
O86 O 0.72629 0.86645 0.44516 0.0
Zn87 Zn 0.7674 0.82554 0.4614 0.0
O88 O 0.73073 0.86426 0.50218 0.0
Zn89 Zn 0.77607 0.82034 0.51734 0.0
O90 O 0.82123 0.85125 0.52756 0.0
O91 O 0.8176 0.85821 0.46997 0.0
O92 O 0.81075 0.77844 0.48765 0.0
O93 O 0.79663 0.78606 0.43242 0.0
O94 O 0.72987 0.78363 0.49746 0.0
O95 O 0.74225 0.7806 0.5527 0.0
C96 C 0.83609 0.86488 0.49541 0.0
C97 C 0.72231 0.7685 0.53049 0.0
C98 C 0.47346 0.81934 0.82556 0.0
C99 C 0.49258 0.6964 0.91033 0.0
O100 O 0.44511 0.79672 0.8432 0.0
Zn101 Zn 0.47893 0.76215 0.87312 0.0
O102 O 0.50982 0.81305 0.83213 0.0
Zn103 Zn 0.54361 0.77164 0.86555 0.0
O104 O 0.57872 0.74666 0.82815 0.0
O105 O 0.51336 0.73516 0.83192 0.0
O106 O 0.52505 0.71662 0.89955 0.0
O107 O 0.45875 0.71241 0.90354 0.0
O108 O 0.49686 0.80401 0.90423 0.0
O109 O 0.56336 0.80891 0.89369 0.0
C110 C 0.54977 0.73084 0.81708 0.0
C111 C 0.52922 0.82042 0.90906 0.0
C112 C 0.5007 0.1826 0.73148 0.0
C113 C 0.50796 0.30788 0.64146 0.0
O114 O 0.47071 0.20378 0.72115 0.0
Zn115 Zn 0.5 0.24046 0.68091 0.0
O116 O 0.53601 0.18877 0.71329 0.0
Zn117 Zn 0.56343 0.22956 0.66683 0.0
O118 O 0.60389 0.25367 0.68835 0.0
O119 O 0.53967 0.26691 0.70908 0.0
O120 O 0.54101 0.28655 0.64035 0.0
O121 O 0.47592 0.29254 0.66029 0.0
O122 O 0.51395 0.20428 0.63859 0.0
O123 O 0.58026 0.19552 0.6303 0.0
C124 C 0.57749 0.27045 0.70959 0.0
C125 C 0.54598 0.18888 0.62217 0.0
C126 C 0.7744 0.54116 0.68312 0.0
C127 C 0.88187 0.55981 0.75471 0.0
O128 O 0.78721 0.57569 0.68699 0.0
Zn129 Zn 0.82835 0.55435 0.71739 0.0
O130 O 0.78961 0.50828 0.69859 0.0
Zn131 Zn 0.83585 0.48834 0.7299 0.0
O132 O 0.80398 0.46058 0.77438 0.0
O133 O 0.79233 0.52716 0.76502 0.0
O134 O 0.87533 0.52254 0.75239 0.0
O135 O 0.86217 0.58849 0.73804 0.0
O136 O 0.86882 0.52774 0.67878 0.0
O137 O 0.8711 0.46066 0.69413 0.0
C138 C 0.7857 0.4924 0.78453 0.0
C139 C 0.88161 0.49247 0.67179 0.0
C140 C 0.27239 0.02053 0.67307 0.0
C141 C 0.18219 0.99266 0.78671 0.0
O142 O 0.26904 0.98751 0.69513 0.0
Zn143 Zn 0.22629 1.00431 0.72952 0.0
O144 O 0.24964 0.05161 0.67948 0.0
Zn145 Zn 0.20042 0.06489 0.71988 0.0
O146 O 0.22021 0.10897 0.74058 0.0
O147 O 0.2525 0.04949 0.75146 0.0
O148 O 0.17604 0.02794 0.76897 0.0
O149 O 0.20829 0.96797 0.77334 0.0
O150 O 0.1768 1.00944 0.70111 0.0
O151 O 0.15485 0.07365 0.69345 0.0
C152 C 0.24735 0.08718 0.75508 0.0
C153 C 0.15235 0.03677 0.68853 0.0
C154 C 0.7432 0.17597 0.03203 0.0
C155 C 0.83489 0.29014 0.02261 0.0
O156 O 0.74674 0.19623 0.05707 0.0
Zn157 Zn 0.78998 0.23121 0.03079 0.0
O158 O 0.76687 0.1828 1.00223 0.0
Zn159 Zn 0.81328 0.22383 0.97581 0.0
O160 O 0.86198 0.18698 0.96931 0.0
O161 O 0.84132 0.1917 0.02589 0.0
O162 O 0.83771 0.27372 0.99415 0.0
O163 O 0.81068 0.27554 0.05021 0.0
O164 O 0.75648 0.26242 0.99203 0.0
O165 O 0.78301 0.25321 0.93747 0.0
C166 C 0.86659 0.17734 1.00207 0.0
C167 C 0.75489 0.26831 0.9585 0.0
C168 C 0.14965 0.02644 0.09963 0.0
N169 N 0.10965 0.02939 1.00028 0.0
C170 C 0.1481 0.03484 0.98284 0.0
C171 C 0.15947 0.02182 0.94963 0.0
C172 C 0.13086 1.0034 0.93415 0.0
C173 C 0.09166 0.99758 0.95301 0.0
C174 C 0.08173 1.01064 0.98625 0.0
Zn175 Zn 0.09163 0.04958 0.0483 0.0
C176 C 0.04294 0.97942 0.09922 0.0
N177 N 0.05539 0.08278 0.15066 0.0
C178 C 0.09009 0.09532 0.16007 0.0
C179 C 0.0188 0.08898 0.17038 0.0
C180 C 0.01649 0.10944 0.2002 0.0
C181 C 0.0522 0.12338 0.20949 0.0
C182 C 0.0892 0.11529 0.18927 0.0
Zn183 Zn 0.06616 0.06152 0.10219 0.0
O184 O 0.14955 0.03184 0.06604 0.0
C185 C 0.11836 0.12913 0.05225 0.0
O186 O 0.11696 0.03104 0.12001 0.0
H187 H 0.99147 0.07951 0.16231 0.0
H188 H 0.16979 0.0499 0.9944 0.0
H189 H 0.11904 0.09212 0.14384 0.0
O190 O 0.1169 0.10746 0.02791 0.0
O191 O 0.10054 0.11671 0.08352 0.0
H192 H 0.05145 1.00622 1.00068 0.0
O193 O 0.01383 0.09153 0.08367 0.0
O194 O 0.03426 0.07175 0.03155 0.0
O195 O 0.03352 1.00586 0.12024 0.0
O196 O 0.06655 0.98979 0.06997 0.0
C197 C 1.00777 0.08973 0.05185 0.0
H198 H 0.18987 0.0274 0.93564 0.0
H199 H 0.06882 0.98338 0.94201 0.0
H200 H 0.98717 0.11515 0.21522 0.0
H201 H 0.11733 0.12644 0.19454 0.0
C202 C 0.902 0.52107 0.06098 0.0
N203 N 0.96326 0.53325 0.95419 0.0
C204 C 0.92439 0.53486 0.94711 0.0
C205 C 0.91567 0.54754 0.91253 0.0
C206 C 0.94719 0.55754 0.88429 0.0
C207 C 0.9871 0.55573 0.89197 0.0
C208 C 0.99446 0.54395 0.92738 0.0
Zn209 Zn 0.97244 0.50834 0.00609 0.0
C210 C 1.01032 0.56442 0.04559 0.0
N211 N 0.98589 0.45323 0.11269 0.0
C212 C 0.9545 0.42963 0.1301 0.0
C213 C 0.01533 0.46348 0.13039 0.0
C214 C 1.0137 0.44993 0.16699 0.0
C215 C 0.98203 0.42467 0.18547 0.0
C216 C 0.95232 0.41452 0.16629 0.0
Zn217 Zn 0.9824 0.47846 0.06094 0.0
O218 O 0.91288 0.53027 0.02752 0.0
C219 C 0.94104 0.42296 0.02459 0.0
O220 O 0.92569 0.50047 0.07994 0.0
H221 H 0.03962 0.48291 0.11635 0.0
H222 H 0.89986 0.52481 0.96797 0.0
H223 H 0.93039 0.42295 0.1162 0.0
O224 O 0.94529 0.45289 0.99917 0.0
O225 O 0.95575 0.42506 0.05283 0.0
H226 H 0.02523 0.54215 0.93314 0.0
O227 O 0.04003 0.45625 0.04209 0.0
O228 O 0.03338 0.4841 0.98717 0.0
O229 O 1.00792 0.53224 0.06852 0.0
O230 O 0.99793 0.5644 0.01563 0.0
C231 C 0.05466 0.4634 0.00912 0.0
H232 H 0.88459 0.54751 0.90762 0.0
H233 H 1.01229 0.56279 0.87078 0.0
H234 H 0.03698 0.45947 0.18054 0.0
H235 H 0.92771 0.39461 0.17879 0.0
C236 C 0.03981 0.03179 0.41806 0.0
N237 N 0.07095 0.94158 0.35009 0.0
C238 C 0.03663 0.92863 0.34064 0.0
C239 C 0.03939 0.90455 0.31343 0.0
C240 C 0.07772 0.89456 0.29571 0.0
C241 C 0.1119 0.91243 0.30293 0.0
C242 C 0.10795 0.93542 0.33067 0.0
Zn243 Zn 0.07205 0.95448 0.40062 0.0
C244 C 0.15187 0.98784 0.39934 0.0
N245 N 0.08823 0.96832 0.50381 0.0
C246 C 0.05794 0.9904 0.5207 0.0
C247 C 0.12165 0.95541 0.519 0.0
C248 C 0.12568 0.96511 0.55241 0.0
C249 C 0.09531 0.98875 0.56986 0.0
C250 C 0.06112 1.00145 0.55377 0.0
Zn251 Zn 0.08235 0.95657 0.4545 0.0
O252 O 0.03614 1.01023 0.39389 0.0
C253 C 1.0015 0.92193 0.45354 0.0
O254 O 0.06007 0.01717 0.44277 0.0
H255 H 0.14533 0.93803 0.50502 0.0
H256 H 1.00753 0.93356 0.35624 0.0
H257 H 0.03138 0.99996 0.50834 0.0
O258 O 0.01785 0.9216 0.42131 0.0
O259 O 0.02121 0.9365 0.47448 0.0
H260 H 0.13544 0.94401 0.33877 0.0
O261 O 0.10477 0.89706 0.46614 0.0
O262 O 0.11044 0.89885 0.40831 0.0
O263 O 0.14491 0.97474 0.43273 0.0
O264 O 0.12353 0.98834 0.38097 0.0
C265 C 0.11842 0.88118 0.43852 0.0
H266 H 1.01225 0.89137 0.30812 0.0
H267 H 0.14192 0.90502 0.29004 0.0
H268 H 0.1527 0.95519 0.56409 0.0
H269 H 0.03716 0.0196 0.56667 0.0
C270 C 0.91707 0.62187 0.45375 0.0
N271 N 0.03815 0.58612 0.4716 0.0
C272 C 0.0477 0.62641 0.4651 0.0
C273 C 0.07834 0.64038 0.48122 0.0
C274 C 0.09944 0.61251 0.5039 0.0
C275 C 0.08904 0.57127 0.50989 0.0
C276 C 0.05805 0.55878 0.49373 0.0
Zn277 Zn 0.98997 0.56342 0.45357 0.0
C278 C 0.93652 0.51951 0.5206 0.0
N279 N 0.88747 0.51099 0.42661 0.0
C280 C 0.86958 0.53578 0.40141 0.0
C281 C 0.88326 0.46962 0.43168 0.0
C282 C 0.86478 0.45143 0.40781 0.0
C283 C 0.85066 0.47642 0.37902 0.0
C284 C 0.8508 0.51902 0.3773 0.0
Zn285 Zn 0.93376 0.53619 0.44403 0.0
O286 O 0.95417 0.61965 0.45854 0.0
C287 C 0.98588 0.58278 0.37698 0.0
O288 O 0.90021 0.59013 0.44879 0.0
H289 H 0.89758 0.45044 0.452 0.0
H290 H 0.03124 0.64779 0.44786 0.0
H291 H 0.87351 0.56847 0.39741 0.0
O292 O 1.01009 0.58809 0.39851 0.0
O293 O 0.95455 0.56156 0.38898 0.0
H294 H 0.04937 0.52714 0.49963 0.0
O295 O 0.96719 0.48217 0.43929 0.0
O296 O 0.02434 0.50646 0.44716 0.0
O297 O 0.91326 0.51231 0.49896 0.0
O298 O 0.96847 0.53958 0.5083 0.0
C299 C 1.00426 0.47663 0.44225 0.0
H300 H 0.08582 0.67246 0.47567 0.0
H301 H 0.10432 0.54893 0.52742 0.0
H302 H 0.86449 0.41841 0.41012 0.0
H303 H 0.83913 0.53919 0.35587 0.0
C304 C 0.40678 0.0199 0.56338 0.0
N305 N 0.46554 0.03149 0.45568 0.0
C306 C 0.42641 0.03423 0.44916 0.0
C307 C 0.41708 0.04787 0.41489 0.0
C308 C 0.44817 0.0577 0.38624 0.0
C309 C 0.48838 0.05463 0.39331 0.0
C310 C 0.49641 0.04188 0.42846 0.0
Zn311 Zn 0.47503 1.00499 0.50746 0.0
C312 C 0.51634 0.05947 0.54739 0.0
N313 N 0.48837 0.94716 0.61363 0.0
C314 C 0.4522 0.93123 0.63008 0.0
C315 C 0.52071 0.94526 0.63156 0.0
C316 C 0.51704 0.92679 0.66745 0.0
C317 C 0.47959 0.91073 0.68499 0.0
C318 C 0.44701 0.91357 0.66567 0.0
Zn319 Zn 0.48694 0.97556 0.56205 0.0
O320 O 0.41546 0.02705 0.52958 0.0
C321 C 0.44194 0.92187 0.52578 0.0
O322 O 0.43215 1.00107 0.58147 0.0
H323 H 0.54919 0.9581 0.61814 0.0
H324 H 0.40202 0.02429 0.47018 0.0
H325 H 0.42654 0.93267 0.61585 0.0
O326 O 0.44711 0.95079 0.49959 0.0
O327 O 0.45696 0.92447 0.55372 0.0
H328 H 0.5274 0.03909 0.43367 0.0
O329 O 0.54278 0.95068 0.54256 0.0
O330 O 0.53596 0.98025 0.48804 0.0
O331 O 0.51576 0.02698 0.57004 0.0
O332 O 0.50144 0.0598 0.51846 0.0
C333 C 0.55714 0.9585 0.50955 0.0
H334 H 0.38574 0.0487 0.41054 0.0
H335 H 0.51331 0.06149 0.37183 0.0
H336 H 0.54331 0.92479 0.68108 0.0
H337 H 0.41733 0.90267 0.6779 0.0
C338 C 0.64765 0.52746 0.6004 0.0
N339 N 0.60474 0.54255 0.50181 0.0
C340 C 0.64046 0.55744 0.48352 0.0
C341 C 0.65073 0.55482 0.44726 0.0
C342 C 0.62409 0.53651 0.42969 0.0
C343 C 0.58807 0.52015 0.44948 0.0
C344 C 0.57885 0.52367 0.48569 0.0
Zn345 Zn 0.58698 0.55427 0.55259 0.0
C346 C 0.5417 0.48027 0.5988 0.0
N347 N 0.55338 0.5776 0.65831 0.0
C348 C 0.58824 0.58601 0.67009 0.0
C349 C 0.51665 0.5879 0.67577 0.0
C350 C 0.51451 0.60898 0.70518 0.0
C351 C 0.55051 0.61929 0.71646 0.0
C352 C 0.58744 0.60618 0.69919 0.0
Zn353 Zn 0.56383 0.56145 0.60767 0.0
O354 O 0.64622 0.53711 0.56718 0.0
C355 C 0.61232 0.63299 0.56237 0.0
O356 O 0.61542 0.52881 0.62217 0.0
H357 H 0.48928 0.58218 0.66563 0.0
H358 H 0.66057 0.57237 0.49684 0.0
H359 H 0.61753 0.58084 0.65522 0.0
O360 O 0.60833 0.61422 0.53674 0.0
O361 O 0.59778 0.61732 0.59381 0.0
H362 H 0.55045 0.51241 0.50068 0.0
O363 O 0.51052 0.59329 0.59158 0.0
O364 O 0.52893 0.57486 0.53871 0.0
O365 O 0.5319 0.50508 0.62128 0.0
O366 O 0.56517 0.49243 0.5698 0.0
C367 C 0.50314 0.59213 0.56 0.0
H368 H 0.67917 0.56712 0.43307 0.0
H369 H 0.56669 0.50589 0.43687 0.0
H370 H 0.48522 0.61862 0.71793 0.0
H371 H 0.61595 0.61446 0.70604 0.0
C372 C 0.54265 0.52753 0.92111 0.0
N373 N 0.57014 0.44337 0.84716 0.0
C374 C 0.53535 0.43098 0.83813 0.0
C375 C 0.53722 0.40813 0.81017 0.0
C376 C 0.57514 0.3988 0.79134 0.0
C377 C 0.60959 0.4169 0.79782 0.0
C378 C 0.60653 0.43873 0.82626 0.0
Zn379 Zn 0.57314 0.45117 0.89877 0.0
C380 C 0.6535 0.48257 0.89847 0.0
N381 N 0.59196 0.45423 1.00277 0.0
C382 C 0.56244 0.4729 0.02367 0.0
C383 C 0.62483 0.43573 0.01587 0.0
C384 C 0.6285 0.43474 0.05164 0.0
C385 C 0.59827 0.45334 0.07386 0.0
C386 C 0.56519 0.47311 0.05955 0.0
Zn387 Zn 0.58415 0.44974 0.95251 0.0
O388 O 0.53792 0.50707 0.89645 0.0
C389 C 0.50233 0.41809 0.95102 0.0
O390 O 0.56352 0.51182 0.94515 0.0
H391 H 0.64791 0.42121 0.99868 0.0
H392 H 0.5067 0.43497 0.85472 0.0
H393 H 0.53639 0.48707 0.01266 0.0
O394 O 0.51839 0.41814 0.91864 0.0
O395 O 0.52278 0.4312 0.97216 0.0
H396 H 0.63441 0.44718 0.83375 0.0
O397 O 0.60469 0.3888 0.95992 0.0
O398 O 0.61162 0.39507 0.90184 0.0
O399 O 0.64695 0.4669 0.9313 0.0
O400 O 0.6247 0.4854 0.88037 0.0
C401 C 0.61905 0.3751 0.93141 0.0
H402 H 0.50985 0.39495 0.80535 0.0
H403 H 0.63932 0.41016 0.78396 0.0
H404 H 0.65496 0.42006 0.06174 0.0
H405 H 0.54158 0.48801 0.07602 0.0
C406 C 0.42088 0.13553 0.94841 0.0
N407 N 0.53754 0.08768 0.96658 0.0
C408 C 0.54959 0.12724 0.95921 0.0
C409 C 0.5821 0.1394 0.97399 0.0
C410 C 0.60279 0.11048 0.99602 0.0
C411 C 0.59046 0.06978 1.00244 0.0
C412 C 0.55731 0.05912 0.9878 0.0
Zn413 Zn 0.48526 0.07042 0.9508 0.0
C414 C 0.42983 0.03251 0.01902 0.0
N415 N 0.37441 0.03217 0.92569 0.0
C416 C 0.34018 0.05465 0.93448 0.0
C417 C 0.38024 1.0151 0.89519 0.0
C418 C 0.35518 0.02656 0.8693 0.0
C419 C 0.32391 0.05568 0.875 0.0
C420 C 0.31451 0.06738 0.90904 0.0
Zn421 Zn 0.42671 0.0469 0.94197 0.0
O422 O 0.45743 0.13099 0.95439 0.0
C423 C 0.48132 0.08698 0.87394 0.0
O424 O 0.40214 0.10474 0.94447 0.0
H425 H 0.4076 0.99748 0.8885 0.0
H426 H 0.53353 0.1496 0.94246 0.0
H427 H 0.33582 0.06763 0.95905 0.0
O428 O 0.50608 0.09151 0.89521 0.0
O429 O 0.44861 0.06831 0.8865 0.0
H430 H 0.54681 0.02808 0.99423 0.0
O431 O 0.45166 0.98864 0.93891 0.0
O432 O 0.51121 1.00928 0.94555 0.0
O433 O 0.40543 0.02696 0.99771 0.0
O434 O 0.46324 0.04989 0.00623 0.0
C435 C 0.48865 0.98073 0.94165 0.0
H436 H 0.59115 0.17104 0.96809 0.0
H437 H 0.60565 0.04668 0.01936 0.0
H438 H 0.36236 1.01539 0.8439 0.0
H439 H 0.2901 0.08911 0.91481 0.0
C440 C 0.01998 0.1389 0.44105 0.0
C441 C 0.99417 0.15604 0.41685 0.0
H442 H 0.05416 0.08653 0.46052 0.0
C443 C 0.98036 0.13101 0.3948 0.0
H444 H 0.03189 0.15776 0.45763 0.0
C445 C 0.99432 0.09023 0.39537 0.0
C446 C 0.02189 0.07373 0.41838 0.0
H447 H 0.96146 0.14389 0.37504 0.0
H448 H 0.98466 0.07217 0.37702 0.0
C449 C 0.03324 0.09817 0.44214 0.0
C450 C 1.00667 0.36243 0.44994 0.0
C451 C 0.0409 0.35519 0.42538 0.0
H452 H 0.9688 0.40684 0.47467 0.0
C453 C 0.06794 0.38735 0.41202 0.0
H454 H 0.98537 0.33833 0.4608 0.0
C455 C 0.05833 0.42708 0.42003 0.0
C456 C 0.02159 0.43483 0.44138 0.0
H457 H 0.09437 0.38278 0.39272 0.0
H458 H 0.07766 0.4521 0.40705 0.0
C459 C 0.99708 0.40176 0.45773 0.0
C460 C 0.98964 0.88235 0.14911 0.0
C461 C 1.00995 0.85193 0.13069 0.0
H462 H 0.98439 0.94636 0.15421 0.0
C463 C 0.03859 0.86435 0.10045 0.0
H464 H 0.96796 0.87383 0.17292 0.0
C465 C 0.04774 0.90574 0.08958 0.0
C466 C 0.02922 0.93609 0.10907 0.0
H467 H 0.05509 0.84179 0.08583 0.0
H468 H 0.07076 0.91369 0.06664 0.0
C469 C 0.99941 0.92392 0.13862 0.0
C470 C 1.0023 0.66392 0.08213 0.0
C471 C 0.03774 0.66198 0.09811 0.0
H472 H 0.96663 0.63502 0.05121 0.0
C473 C 0.06697 0.63123 0.09113 0.0
H474 H 0.97925 0.68732 0.08692 0.0
C475 C 0.05944 0.60113 0.07115 0.0
C476 C 0.02319 0.60193 0.0567 0.0
H477 H 0.0945 0.62874 0.10311 0.0
H478 H 0.081 0.57591 0.06861 0.0
C479 C 0.99528 0.63436 0.06129 0.0
C480 C 0.37921 0.9816 0.11072 0.0
C481 C 0.39887 1.00021 0.13386 0.0
H482 H 0.37275 0.97781 0.05626 0.0
C483 C 0.43021 0.0273 0.11894 0.0
H484 H 0.35402 0.96166 0.12141 0.0
C485 C 0.44104 0.03644 0.08181 0.0
C486 C 0.41994 0.01973 0.05847 0.0
H487 H 0.44511 0.04297 0.13604 0.0
H488 H 0.46479 0.05819 0.0714 0.0
C489 C 0.38941 0.99149 0.07339 0.0
C490 C 0.61786 0.49396 0.1554 0.0
C491 C 0.63381 0.45868 0.17443 0.0
H492 H 0.59366 0.5197 0.10802 0.0
C493 C 0.62956 0.42046 0.16396 0.0
H494 H 0.62023 0.52377 0.16315 0.0
C495 C 0.61461 0.41827 0.13234 0.0
C496 C 0.60323 0.45415 0.11118 0.0
H497 H 0.6411 0.39266 0.17834 0.0
H498 H 0.61458 0.3889 0.12317 0.0
C499 C 0.60258 0.49168 0.12391 0.0
C500 C 0.43766 0.04413 0.29167 0.0
C501 C 0.40535 0.07142 0.28439 0.0
H502 H 0.47728 0.01925 0.32922 0.0
C503 C 0.39167 0.09865 0.30862 0.0
H504 H 0.4486 0.02249 0.2737 0.0
C505 C 0.40747 0.09607 0.34087 0.0
C506 C 0.43795 0.06691 0.34917 0.0
H507 H 0.36641 0.11952 0.30412 0.0
H508 H 0.39439 0.11544 0.3602 0.0
C509 C 0.4541 0.04224 0.32349 0.0
C510 C 0.66245 0.56547 0.33099 0.0
C511 C 0.65942 0.52832 0.31826 0.0
H512 H 0.65361 0.59715 0.37636 0.0
C513 C 0.64177 0.49488 0.34191 0.0
H514 H 0.67598 0.59177 0.31348 0.0
C515 C 0.62911 0.49794 0.37786 0.0
C516 C 0.63409 0.53441 0.39098 0.0
H517 H 0.63896 0.46582 0.33292 0.0
H518 H 0.61698 0.47121 0.39569 0.0
C519 C 0.65007 0.56842 0.36705 0.0
C520 C 0.16029 0.41836 0.01445 0.0
C521 C 0.1733 0.40908 0.97983 0.0
H522 H 0.11347 0.44243 0.05044 0.0
C523 C 0.14796 0.42108 0.95356 0.0
H524 H 0.17878 0.41 0.03547 0.0
C525 C 0.10991 0.44031 0.96229 0.0
C526 C 0.09632 0.44742 0.99753 0.0
H527 H 0.15687 0.41438 0.92664 0.0
H528 H 0.09055 0.44807 0.94187 0.0
C529 C 0.1225 0.43695 0.02315 0.0
C530 C 0.20413 0.61953 0.52836 0.0
C531 C 0.20072 0.65577 0.54346 0.0
H532 H 0.17462 0.57745 0.50412 0.0
C533 C 0.16265 0.67543 0.54906 0.0
H534 H 0.23338 0.60441 0.523 0.0
C535 C 0.12923 0.6608 0.53715 0.0
C536 C 0.13325 0.62583 0.52014 0.0
H537 H 0.15951 0.70408 0.5597 0.0
H538 H 0.10063 0.6776 0.54008 0.0
C539 C 0.17062 0.60443 0.51719 0.0
C540 C 0.89463 0.89062 0.44964 0.0
C541 C 0.8773 0.88287 0.48588 0.0
H542 H 0.94672 0.90797 0.41138 0.0
C543 C 0.90128 0.88873 0.51183 0.0
H544 H 0.87749 0.88637 0.4287 0.0
C545 C 0.94161 0.90159 0.50163 0.0
C546 C 0.95899 0.90816 0.46532 0.0
H547 H 0.88915 0.88278 0.53997 0.0
H548 H 0.95934 0.90577 0.52218 0.0
C549 C 0.93475 0.90274 0.43958 0.0
C550 C 0.40094 0.64743 0.56016 0.0
C551 C 0.39602 0.65332 0.52375 0.0
H552 H 0.43805 0.62396 0.59996 0.0
C553 C 0.42606 0.63725 0.49947 0.0
H554 H 0.37857 0.65923 0.57983 0.0
C555 C 0.46043 0.6166 0.51129 0.0
C556 C 0.46569 0.61181 0.5476 0.0
H557 H 0.4234 0.64122 0.47131 0.0
H558 H 0.48329 0.60513 0.4918 0.0
C559 C 0.43524 0.62718 0.57185 0.0
C560 C 0.52791 0.63638 0.94086 0.0
C561 C 0.49738 0.65174 0.92068 0.0
H562 H 0.56573 0.58519 0.95705 0.0
C563 C 0.47937 0.62498 0.90276 0.0
H564 H 0.54288 0.6565 0.9543 0.0
C565 C 0.49351 0.58434 0.90314 0.0
C566 C 0.52533 0.56954 0.92208 0.0
H567 H 0.45652 0.63627 0.88618 0.0
H568 H 0.48027 0.56489 0.88788 0.0
C569 C 0.54132 0.59563 0.94198 0.0
C570 C 0.55331 0.88931 0.91644 0.0
C571 C 0.52467 0.85804 0.9261 0.0
H572 H 0.56447 0.9534 0.91395 0.0
C573 C 0.48724 0.86649 0.94609 0.0
H574 H 0.58235 0.88385 0.90083 0.0
C575 C 0.47692 0.90606 0.95294 0.0
C576 C 0.50391 0.93819 0.94043 0.0
H577 H 0.46461 0.84312 0.95425 0.0
H578 H 0.44682 0.91192 0.96654 0.0
C579 C 0.54302 0.92918 0.92372 0.0
C580 C 0.53995 0.36558 0.59719 0.0
C581 C 0.51023 0.35221 0.62635 0.0
H582 H 0.57253 0.416 0.56535 0.0
C583 C 0.48837 0.38188 0.64468 0.0
H584 H 0.55764 0.34358 0.58272 0.0
C585 C 0.49768 0.42362 0.63532 0.0
C586 C 0.52854 0.43675 0.60695 0.0
H587 H 0.46582 0.37262 0.66769 0.0
H588 H 0.48145 0.44544 0.65092 0.0
C589 C 0.54862 0.40722 0.58737 0.0
C590 C 0.57103 0.12812 0.59295 0.0
C591 C 0.54246 0.16023 0.59669 0.0
H592 H 0.58491 0.07059 0.57417 0.0
C593 C 0.50848 0.162 0.57881 0.0
H594 H 0.5974 0.12579 0.60652 0.0
C595 C 0.50211 0.13103 0.55922 0.0
C596 C 0.52906 0.09731 0.55801 0.0
H597 H 0.48601 0.18644 0.58115 0.0
H598 H 0.47451 0.13182 0.54748 0.0
C599 C 0.56403 0.09661 0.57431 0.0
C600 C 0.88406 0.4702 0.61199 0.0
C601 C 0.90226 0.49036 0.63506 0.0
H602 H 0.87994 0.46408 0.55753 0.0
C603 C 0.93386 0.51717 0.62037 0.0
H604 H 0.85879 0.45031 0.62253 0.0
C605 C 0.94611 0.52488 0.5834 0.0
C606 C 0.92622 0.50692 0.55998 0.0
H607 H 0.94775 0.53383 0.63744 0.0
H608 H 0.9698 0.54672 0.57311 0.0
C609 C 0.89571 0.47864 0.57475 0.0
C610 C 0.11337 0.05499 0.63723 0.0
C611 C 0.12684 0.02542 0.66361 0.0
H612 H 0.09256 0.06614 0.58622 0.0
C613 C 0.12285 0.98371 0.66172 0.0
H614 H 0.11612 0.08731 0.63801 0.0
C615 C 0.11013 0.97176 0.63203 0.0
C616 C 0.10047 1.00128 0.60406 0.0
H617 H 0.13241 0.96017 0.68194 0.0
H618 H 0.10987 0.93947 0.63004 0.0
C619 C 0.10013 0.04292 0.60758 0.0
C620 C 0.93824 0.54017 0.79058 0.0
C621 C 0.90635 0.56745 0.78217 0.0
H622 H 0.97699 0.51653 0.82921 0.0
C623 C 0.89264 0.59598 0.80518 0.0
H624 H 0.94919 0.5176 0.7735 0.0
C625 C 0.90789 0.59466 0.83752 0.0
C626 C 0.93787 0.5655 0.84701 0.0
H627 H 0.8677 0.61692 0.79975 0.0
H628 H 0.89472 0.61494 0.85604 0.0
C629 C 0.95418 0.53954 0.82247 0.0
C630 C 0.18931 0.969 0.85053 0.0
C631 C 0.16483 0.98551 0.82483 0.0
H632 H 0.19793 0.96226 0.90557 0.0
C633 C 0.12717 1.00354 0.83603 0.0
H634 H 0.21884 0.95567 0.8425 0.0
C635 C 0.11515 1.0071 0.87198 0.0
C636 C 0.14094 0.99343 0.89734 0.0
H637 H 0.108 0.01695 0.81666 0.0
H638 H 0.08683 0.02296 0.87953 0.0
C639 C 0.17763 0.97331 0.88648 0.0
C640 C 0.64996 0.9145 0.45458 0.0
C641 C 0.67608 0.90479 0.48055 0.0
H642 H 0.59176 0.93955 0.44299 0.0
C643 C 0.66377 0.91647 0.51441 0.0
H644 H 0.65831 0.90589 0.42824 0.0
C645 C 0.62586 0.93489 0.52288 0.0
C646 C 0.59887 0.94291 0.49772 0.0
H647 H 0.68286 0.90998 0.53515 0.0
H648 H 0.61735 0.94215 0.54968 0.0
C649 C 0.61179 0.93367 0.46302 0.0
C650 C 0.66835 0.17024 0.04153 0.0
C651 C 0.70672 0.15233 0.03257 0.0
H652 H 0.60526 0.17148 0.03612 0.0
C653 C 0.7098 0.11773 0.01512 0.0
H654 H 0.66528 0.19757 0.05414 0.0
C655 C 0.67549 0.10264 1.00511 0.0
C656 C 0.6377 0.1226 0.01147 0.0
H657 H 0.73916 0.1039 0.00731 0.0
H658 H 0.67898 0.07701 0.99033 0.0
C659 C 0.63418 0.15579 0.03068 0.0
C660 C 0.4013 0.38846 0.00963 0.0
C661 C 0.37599 0.38648 0.98374 0.0
H662 H 0.46109 0.40004 0.01979 0.0
C663 C 0.39281 0.39559 0.94741 0.0
H664 H 0.38966 0.38127 0.0378 0.0
C665 C 0.43365 0.40504 0.93718 0.0
C666 C 0.45917 0.4065 0.96284 0.0
H667 H 0.37469 0.39428 0.92647 0.0
H668 H 0.44517 0.41143 0.90892 0.0
C669 C 0.44236 0.39879 0.99928 0.0
C670 C 0.9327 0.13689 0.98966 0.0
C671 C 0.9018 0.15205 0.01385 0.0
H672 H 0.9903 0.10502 0.98254 0.0
C673 C 0.90556 0.14468 0.0505 0.0
H674 H 0.93095 0.14196 0.96131 0.0
C675 C 0.93944 0.12399 0.06256 0.0
C676 C 0.97076 0.10955 0.03851 0.0
H677 H 0.88256 0.15564 0.07016 0.0
H678 H 0.9412 0.11972 0.09091 0.0
C679 C 0.96673 0.11571 1.00188 0.0
C680 C 0.0845 0.17475 0.28254 0.0
C681 C 0.05488 0.20581 0.28534 0.0
H682 H 0.10561 0.12265 0.25762 0.0
C683 C 0.02392 0.20891 0.2639 0.0
H684 H 0.108 0.17113 0.29947 0.0
C685 C 0.02235 0.18139 0.24014 0.0
C686 C 0.0516 0.14991 0.23742 0.0
H687 H 1.00052 0.23259 0.26575 0.0
H688 H 0.99866 0.18533 0.22342 0.0
C689 C 0.08272 0.14682 0.25892 0.0
C690 C 0.01851 0.37357 0.27047 0.0
C691 C 0.98233 0.35917 0.29165 0.0
H692 H 0.04702 0.40365 0.22056 0.0
C693 C 0.94534 0.37143 0.27981 0.0
H694 H 0.04772 0.36518 0.27878 0.0
C695 C 0.9449 0.39525 0.24623 0.0
C696 C 0.98148 0.40635 0.22363 0.0
H697 H 0.91695 0.36136 0.29574 0.0
H698 H 0.9159 0.40368 0.23757 0.0
C699 C 0.01814 0.39629 0.23685 0.0
C700 C 0.1103 0.83107 0.22165 0.0
C701 C 0.09009 0.79467 0.23611 0.0
H702 H 0.12137 0.89235 0.22922 0.0
C703 C 0.06915 0.79023 0.27105 0.0
H704 H 0.12565 0.8354 0.19434 0.0
C705 C 0.06552 0.8228 0.29028 0.0
C706 C 0.08301 0.86032 0.27497 0.0
H707 H 0.0529 0.7625 0.28243 0.0
H708 H 0.04815 0.81895 0.31683 0.0
C709 C 0.10697 0.86379 0.24116 0.0
C710 C 0.03188 0.64404 0.28807 0.0
C711 C 0.99785 0.65283 0.27018 0.0
H712 H 0.05493 0.61571 0.33568 0.0
C713 C 0.96054 0.63638 0.28702 0.0
H714 H 0.06108 0.65648 0.27612 0.0
C715 C 0.95727 0.61219 0.3209 0.0
C716 C 0.99099 0.60463 0.33935 0.0
H717 H 0.93373 0.64252 0.27416 0.0
H718 H 0.92783 0.60061 0.3332 0.0
C719 C 0.0284 0.62072 0.32233 0.0
C720 C 0.21927 1.00544 0.1684 0.0
C721 C 0.24197 0.04139 0.16152 0.0
H722 H 0.17277 0.97197 0.15342 0.0
C723 C 0.23769 0.06956 0.13077 0.0
H724 H 0.222 0.98296 0.19177 0.0
C725 C 0.21057 0.06218 0.10789 0.0
C726 C 0.18698 0.02682 0.11563 0.0
H727 H 0.25519 0.09717 0.12446 0.0
H728 H 0.20614 0.08537 0.08542 0.0
C729 C 0.19172 0.99857 0.14606 0.0
C730 C 0.80208 0.49439 0.11404 0.0
C731 C 0.79575 0.52615 0.13485 0.0
H732 H 0.84064 0.46918 0.07241 0.0
C733 C 0.8202 0.56079 0.12515 0.0
H734 H 0.78353 0.46748 0.12063 0.0
C735 C 0.85289 0.56171 0.0974 0.0
C736 C 0.86084 0.52851 0.07847 0.0
H737 H 0.81606 0.58572 0.14072 0.0
H738 H 0.8738 0.58672 0.09271 0.0
C739 C 0.8343 0.49564 0.08604 0.0
C740 C 0.23178 0.03093 0.3261 0.0
C741 C 0.2549 0.99553 0.31918 0.0
H742 H 0.18152 0.05649 0.35795 0.0
C743 C 0.24843 0.95961 0.3441 0.0
H744 H 0.2359 0.05938 0.30782 0.0
C745 C 0.21784 0.95865 0.37389 0.0
C746 C 0.19297 0.99338 0.37906 0.0
H747 H 0.26582 0.93193 0.33988 0.0
H748 H 0.21142 0.92986 0.39119 0.0
C749 C 0.201 0.0297 0.35533 0.0
C750 C 0.79017 0.42378 0.32487 0.0
C751 C 0.8034 0.445 0.29061 0.0
H752 H 0.79494 0.41768 0.38076 0.0
C753 C 0.83773 0.46917 0.28499 0.0
H754 H 0.76335 0.40534 0.32971 0.0
C755 C 0.85565 0.47607 0.31391 0.0
C756 C 0.83902 0.45939 0.34882 0.0
H757 H 0.84834 0.48571 0.25873 0.0
H758 H 0.88041 0.4972 0.30928 0.0
C759 C 0.80791 0.43109 0.35404 0.0
C760 C 0.18321 0.21733 1.00348 0.0
C761 C 0.19574 0.23402 0.03168 0.0
H762 H 0.1493 0.17165 0.98774 0.0
C763 C 0.18134 0.21664 0.06696 0.0
H764 H 0.1937 0.22967 0.97587 0.0
C765 C 0.15517 0.18332 0.07371 0.0
C766 C 0.1433 0.1664 0.04532 0.0
H767 H 0.19031 0.22867 0.08926 0.0
H768 H 0.14498 0.17022 0.10118 0.0
C769 C 0.15762 0.18393 0.01019 0.0
C770 C 0.17928 0.79445 0.4815 0.0
C771 C 0.21413 0.7928 0.45586 0.0
H772 H 0.1218 0.82297 0.49586 0.0
C773 C 0.21408 0.81573 0.42172 0.0
H774 H 0.17762 0.7764 0.50782 0.0
C775 C 0.18106 0.84231 0.41464 0.0
C776 C 0.14799 0.8464 0.44169 0.0
H777 H 0.24027 0.81492 0.40134 0.0
H778 H 0.18267 0.86158 0.3889 0.0
C779 C 0.14692 0.82096 0.47462 0.0
C780 C 0.87973 0.72874 0.46842 0.0
C781 C 0.84544 0.73363 0.45068 0.0
H782 H 0.92966 0.6899 0.483 0.0
C783 C 0.83653 0.70273 0.43209 0.0
H784 H 0.88724 0.7522 0.48303 0.0
C785 C 0.86019 0.66664 0.43293 0.0
C786 C 0.89369 0.66112 0.45176 0.0
H787 H 0.8101 0.7055 0.41857 0.0
H788 H 0.85189 0.64275 0.41918 0.0
C789 C 0.90393 0.69308 0.46858 0.0
C790 C 0.37535 0.84807 0.49593 0.0
C791 C 0.3583 0.82597 0.5289 0.0
H792 H 0.41513 0.89592 0.46895 0.0
C793 C 0.36948 0.83527 0.56049 0.0
H794 H 0.36725 0.84153 0.47108 0.0
C795 C 0.39757 0.86565 0.55915 0.0
C796 C 0.41455 0.8879 0.52622 0.0
H797 H 0.35714 0.81857 0.5862 0.0
H798 H 0.40547 0.87211 0.58409 0.0
C799 C 0.40289 0.87906 0.49462 0.0
C800 C 0.52793 0.7116 0.76355 0.0
C801 C 0.55569 0.7061 0.78809 0.0
H802 H 0.50428 0.68843 0.72201 0.0
C803 C 0.58175 0.67178 0.78933 0.0
H804 H 0.50705 0.73767 0.76261 0.0
C805 C 0.57926 0.64277 0.76682 0.0
C806 C 0.55086 0.64789 0.74261 0.0
H807 H 0.60239 0.66629 0.80889 0.0
H808 H 0.59912 0.61598 0.76875 0.0
C809 C 0.52562 0.68293 0.74096 0.0
C810 C 0.49216 0.88223 0.78274 0.0
C811 C 0.46755 0.84786 0.79324 0.0
H812 H 0.51464 0.92965 0.74069 0.0
C813 C 0.44454 0.83616 0.76902 0.0
H814 H 0.51046 0.89159 0.80101 0.0
C815 C 0.44815 0.85686 0.73408 0.0
C816 C 0.47417 0.89031 0.72286 0.0
H817 H 0.42623 0.80911 0.77619 0.0
H818 H 0.43196 0.84519 0.71548 0.0
C819 C 0.49516 0.90349 0.748 0.0
C820 C 0.56643 0.29403 0.7676 0.0
C821 C 0.58793 0.29789 0.7329 0.0
H822 H 0.54498 0.32345 0.81284 0.0
C823 C 0.60803 0.33425 0.71809 0.0
H824 H 0.55024 0.26634 0.7792 0.0
C825 C 0.60429 0.36742 0.73708 0.0
C826 C 0.58007 0.36442 0.77075 0.0
H827 H 0.62377 0.33811 0.69091 0.0
H828 H 0.61875 0.39586 0.72489 0.0
C829 C 0.56249 0.327 0.78635 0.0
C830 C 0.52993 0.14468 0.7845 0.0
C831 C 0.49627 0.15441 0.7663 0.0
H832 H 0.55178 0.11628 0.83263 0.0
C833 C 0.45835 0.1393 0.78297 0.0
H834 H 0.55958 0.15603 0.77266 0.0
C835 C 0.4541 0.11577 0.81712 0.0
C836 C 0.48746 0.10745 0.83593 0.0
H837 H 0.4318 0.14618 0.76985 0.0
H838 H 0.42421 0.10546 0.82939 0.0
C839 C 0.52551 0.12192 0.81899 0.0
C840 C 0.72047 0.50156 0.66614 0.0
C841 C 0.74354 0.53721 0.65988 0.0
H842 H 0.67236 0.47009 0.65145 0.0
C843 C 0.73836 0.56689 0.63033 0.0
H844 H 0.72383 0.47798 0.6886 0.0
C845 C 0.70991 0.56137 0.60809 0.0
C846 C 0.68578 0.52642 0.6154 0.0
H847 H 0.75605 0.59439 0.62456 0.0
H848 H 0.70486 0.58568 0.58665 0.0
C849 C 0.69155 0.49654 0.6445 0.0
C850 C 0.31403 0.98706 0.6255 0.0
C851 C 0.30215 0.02283 0.64008 0.0
H852 H 0.35568 0.95915 0.58771 0.0
C853 C 0.32031 0.05999 0.62379 0.0
H854 H 0.30023 0.95812 0.63715 0.0
C855 C 0.35237 0.06052 0.59537 0.0
C856 C 0.36563 0.02413 0.58236 0.0
H857 H 0.31159 0.08805 0.6345 0.0
H858 H 0.36855 0.08858 0.58539 0.0
C859 C 0.34524 0.98779 0.5968 0.0
C860 C 0.7324 0.52594 0.82448 0.0
C861 C 0.75623 0.49084 0.81812 0.0
H862 H 0.68163 0.55108 0.85597 0.0
C863 C 0.75064 0.45528 0.84361 0.0
H864 H 0.7359 0.55409 0.80574 0.0
C865 C 0.72014 0.45428 0.87344 0.0
C866 C 0.69442 0.48855 0.87797 0.0
H867 H 0.76869 0.42787 0.83982 0.0
H868 H 0.71445 0.42571 0.89126 0.0
C869 C 0.70168 0.52464 0.85372 0.0
C870 C 0.30832 0.0974 0.78043 0.0
C871 C 0.26603 0.09951 0.78371 0.0
H872 H 0.35986 0.08241 0.80708 0.0
C873 C 0.24304 0.09472 0.81796 0.0
H874 H 0.32655 0.10016 0.75426 0.0
C875 C 0.26188 0.08271 0.84827 0.0
C876 C 0.30397 0.07578 0.84455 0.0
H877 H 0.21024 0.09502 0.82101 0.0
H878 H 0.24323 0.0755 0.87405 0.0
C879 C 0.32718 0.08598 0.81064 0.0
C880 C 0.67208 0.72418 0.51378 0.0
C881 C 0.69148 0.73602 0.54071 0.0
H882 H 0.63212 0.68295 0.49952 0.0
C883 C 0.68208 0.71543 0.5758 0.0
H884 H 0.67814 0.73932 0.4864 0.0
C885 C 0.65484 0.68294 0.58338 0.0
C886 C 0.6369 0.67033 0.55591 0.0
H887 H 0.69637 0.72375 0.59714 0.0
H888 H 0.64902 0.66673 0.61042 0.0
C889 C 0.64545 0.69174 0.52123 0.0
C890 C 0.71771 0.31446 0.91331 0.0
C891 C 0.71799 0.29007 0.94682 0.0
H892 H 0.68511 0.3603 0.8815 0.0
C893 C 0.68242 0.28888 0.97197 0.0
H894 H 0.74444 0.31586 0.89329 0.0
C895 C 0.64897 0.31403 0.9654 0.0
C896 C 0.64966 0.34104 0.93329 0.0
H897 H 0.68098 0.26966 0.99775 0.0
H898 H 0.62327 0.31392 0.98642 0.0
C899 C 0.68365 0.33974 0.90656 0.0
C900 C 0.34341 0.21676 0.92169 0.0
C901 C 0.34978 0.24688 0.94196 0.0
H902 H 0.3611 0.1576 0.90823 0.0
C903 C 0.38313 0.24256 0.96098 0.0
H904 H 0.31786 0.21918 0.90708 0.0
C905 C 0.40811 0.20742 0.96165 0.0
C906 C 0.39959 0.17572 0.94384 0.0
H907 H 0.3887 0.26561 0.9768 0.0
H908 H 0.43241 0.20406 0.97771 0.0
C909 C 0.36793 0.18135 0.92284 0.0
C910 C 0.87843 0.34834 0.99099 0.0
C911 C 0.86135 0.32466 0.02316 0.0
H912 H 0.91687 0.39817 0.96608 0.0
C913 C 0.87145 0.33305 0.05549 0.0
H914 H 0.87121 0.34257 0.9656 0.0
C915 C 0.89834 0.36414 0.05564 0.0
C916 C 0.91517 0.38811 0.02352 0.0
H917 H 0.85909 0.31516 0.08065 0.0
H918 H 0.90534 0.36987 0.08111 0.0
C919 C 0.9047 0.38006 0.99119 0.0
loop_
_geom_bond_atom_site_label_1
_geom_bond_atom_site_label_2
_geom_bond_distance
_geom_bond_site_symmetry_2
_ccdc_geom_bond_type
C0 O2 1.247 . S
C0 O4 1.258 1_455 S
C1 O8 1.247 . S
C1 O9 1.258 1_655 S
O2 C0 1.247 . S
O2 Zn3 2.028 . S
Zn3 O2 2.028 . S
Zn3 O7 2.035 . S
Zn3 O9 2.035 . S
Zn3 O10 2.028 . S
O4 C0 1.258 1_655 S
O4 Zn5 2.035 . S
Zn5 O4 2.035 . S
Zn5 O6 2.028 . S
Zn5 O8 2.028 . S
Zn5 O11 2.035 . S
O6 Zn5 2.028 . S
O6 C12 1.247 . S
O7 Zn3 2.035 . S
O7 C12 1.258 1_455 S
O8 C1 1.247 . S
O8 Zn5 2.028 . S
O9 C1 1.258 1_455 S
O9 Zn3 2.035 . S
O10 Zn3 2.028 . S
O10 C13 1.247 . S
O11 Zn5 2.035 . S
O11 C13 1.258 1_655 S
C12 O6 1.247 . S
C12 O7 1.258 1_655 S
C13 O10 1.247 . S
C13 O11 1.258 1_455 S
C14 O16 1.247 . S
C14 O18 1.258 1_455 S
C15 O22 1.247 . S
C15 O23 1.258 1_655 S
O16 C14 1.247 . S
O16 Zn17 2.028 . S
Zn17 O16 2.028 . S
Zn17 O21 2.035 . S
Zn17 O23 2.035 . S
Zn17 O24 2.028 . S
O18 C14 1.258 1_655 S
O18 Zn19 2.035 . S
Zn19 O18 2.035 . S
Zn19 O20 2.028 . S
Zn19 O22 2.028 . S
Zn19 O25 2.035 . S
O20 Zn19 2.028 . S
O20 C26 1.247 . S
O21 Zn17 2.035 . S
O21 C26 1.258 1_455 S
O22 C15 1.247 . S
O22 Zn19 2.028 . S
O23 C15 1.258 1_455 S
O23 Zn17 2.035 . S
O24 Zn17 2.028 . S
O24 C27 1.247 . S
O25 Zn19 2.035 . S
O25 C27 1.258 1_655 S
C26 O20 1.247 . S
C26 O21 1.258 1_655 S
C27 O24 1.247 . S
C27 O25 1.258 1_455 S
C28 O30 1.247 1_545 S
C28 O32 1.258 . S
C29 O36 1.257 . S
C29 O37 1.249 1_545 S
O30 C28 1.247 1_565 S
O30 Zn31 2.028 . S
Zn31 O30 2.028 . S
Zn31 O35 2.035 . S
Zn31 O37 2.035 . S
Zn31 O38 2.028 . S
O32 C28 1.258 . S
O32 Zn33 2.035 . S
Zn33 O32 2.035 . S
Zn33 O34 2.028 . S
Zn33 O36 2.028 . S
Zn33 O39 2.035 . S
O34 Zn33 2.028 . S
O34 C40 1.247 . S
O35 Zn31 2.035 . S
O35 C40 1.258 1_565 S
O36 C29 1.257 . S
O36 Zn33 2.028 . S
O37 C29 1.249 1_565 S
O37 Zn31 2.035 . S
O38 Zn31 2.028 . S
O38 C41 1.247 1_565 S
O39 Zn33 2.035 . S
O39 C41 1.258 . S
C40 O34 1.247 . S
C40 O35 1.258 1_545 S
C41 O38 1.247 1_545 S
C41 O39 1.258 . S
C42 O44 1.247 . S
C42 O46 1.258 . S
C43 O50 1.247 . S
C43 O51 1.258 . S
O44 C42 1.247 . S
O44 Zn45 2.028 . S
Zn45 O44 2.028 . S
Zn45 O49 2.035 . S
Zn45 O51 2.035 . S
Zn45 O52 2.028 . S
O46 C42 1.258 . S
O46 Zn47 2.035 . S
Zn47 O46 2.035 . S
Zn47 O48 2.028 . S
Zn47 O50 2.028 . S
Zn47 O53 2.035 . S
O48 Zn47 2.028 . S
O48 C54 1.247 . S
O49 Zn45 2.035 . S
O49 C54 1.258 . S
O50 C43 1.247 . S
O50 Zn47 2.028 . S
O51 C43 1.258 . S
O51 Zn45 2.035 . S
O52 Zn45 2.028 . S
O52 C55 1.247 . S
O53 Zn47 2.035 . S
O53 C55 1.258 . S
C54 O48 1.247 . S
C54 O49 1.258 . S
C55 O52 1.247 . S
C55 O53 1.258 . S
C56 O58 1.247 1_554 S
C56 O60 1.258 . S
C57 O64 1.247 1_556 S
C57 O65 1.258 . S
O58 C56 1.247 1_556 S
O58 Zn59 2.028 . S
Zn59 O58 2.028 . S
Zn59 O63 2.035 . S
Zn59 O65 2.035 . S
Zn59 O66 2.028 . S
O60 C56 1.258 . S
O60 Zn61 2.035 . S
Zn61 O60 2.035 . S
Zn61 O62 2.028 . S
Zn61 O64 2.028 . S
Zn61 O67 2.035 . S
O62 Zn61 2.028 . S
O62 C68 1.247 1_554 S
O63 Zn59 2.035 . S
O63 C68 1.258 . S
O64 C57 1.247 1_554 S
O64 Zn61 2.028 . S
O65 C57 1.258 . S
O65 Zn59 2.035 . S
O66 Zn59 2.028 . S
O66 C69 1.247 1_556 S
O67 Zn61 2.035 . S
O67 C69 1.258 . S
C68 O62 1.247 1_556 S
C68 O63 1.258 . S
C69 O66 1.247 1_554 S
C69 O67 1.258 . S
C70 O72 1.247 . S
C70 O74 1.258 . S
C71 O78 1.247 . S
C71 O79 1.258 . S
O72 C70 1.247 . S
O72 Zn73 2.028 . S
Zn73 O72 2.028 . S
Zn73 O77 2.035 . S
Zn73 O79 2.035 . S
Zn73 O80 2.028 . S
O74 C70 1.258 . S
O74 Zn75 2.035 . S
Zn75 O74 2.035 . S
Zn75 O76 2.028 . S
Zn75 O78 2.028 . S
Zn75 O81 2.035 . S
O76 Zn75 2.028 . S
O76 C82 1.247 . S
O77 Zn73 2.035 . S
O77 C82 1.258 . S
O78 C71 1.247 . S
O78 Zn75 2.028 . S
O79 C71 1.258 . S
O79 Zn73 2.035 . S
O80 Zn73 2.028 . S
O80 C83 1.247 . S
O81 Zn75 2.035 . S
O81 C83 1.258 . S
C82 O76 1.247 . S
C82 O77 1.258 . S
C83 O80 1.247 . S
C83 O81 1.258 . S
C84 O86 1.247 . S
C84 O88 1.258 . S
C85 O92 1.247 . S
C85 O93 1.258 . S
O86 C84 1.247 . S
O86 Zn87 2.028 . S
Zn87 O86 2.028 . S
Zn87 O91 2.035 . S
Zn87 O93 2.035 . S
Zn87 O94 2.028 . S
O88 C84 1.258 . S
O88 Zn89 2.035 . S
Zn89 O88 2.035 . S
Zn89 O90 2.028 . S
Zn89 O92 2.028 . S
Zn89 O95 2.035 . S
O90 Zn89 2.028 . S
O90 C96 1.247 . S
O91 Zn87 2.035 . S
O91 C96 1.258 . S
O92 C85 1.247 . S
O92 Zn89 2.028 . S
O93 C85 1.258 . S
O93 Zn87 2.035 . S
O94 Zn87 2.028 . S
O94 C97 1.247 . S
O95 Zn89 2.035 . S
O95 C97 1.258 . S
C96 O90 1.247 . S
C96 O91 1.258 . S
C97 O94 1.247 . S
C97 O95 1.258 . S
C98 O100 1.247 . S
C98 O102 1.258 . S
C99 O106 1.247 . S
C99 O107 1.258 . S
O100 C98 1.247 . S
O100 Zn101 2.028 . S
Zn101 O100 2.028 . S
Zn101 O105 2.035 . S
Zn101 O107 2.035 . S
Zn101 O108 2.028 . S
O102 C98 1.258 . S
O102 Zn103 2.035 . S
Zn103 O102 2.035 . S
Zn103 O104 2.028 . S
Zn103 O106 2.028 . S
Zn103 O109 2.035 . S
O104 Zn103 2.028 . S
O104 C110 1.247 . S
O105 Zn101 2.035 . S
O105 C110 1.258 . S
O106 C99 1.247 . S
O106 Zn103 2.028 . S
O107 C99 1.258 . S
O107 Zn101 2.035 . S
O108 Zn101 2.028 . S
O108 C111 1.247 . S
O109 Zn103 2.035 . S
O109 C111 1.258 . S
C110 O104 1.247 . S
C110 O105 1.258 . S
C111 O108 1.247 . S
C111 O109 1.258 . S
C112 O114 1.247 . S
C112 O116 1.258 . S
C113 O120 1.247 . S
C113 O121 1.258 . S
O114 C112 1.247 . S
O114 Zn115 2.028 . S
Zn115 O114 2.028 . S
Zn115 O119 2.035 . S
Zn115 O121 2.035 . S
Zn115 O122 2.028 . S
O116 C112 1.258 . S
O116 Zn117 2.035 . S
Zn117 O116 2.035 . S
Zn117 O118 2.028 . S
Zn117 O120 2.028 . S
Zn117 O123 2.035 . S
O118 Zn117 2.028 . S
O118 C124 1.247 . S
O119 Zn115 2.035 . S
O119 C124 1.258 . S
O120 C113 1.247 . S
O120 Zn117 2.028 . S
O121 C113 1.258 . S
O121 Zn115 2.035 . S
O122 Zn115 2.028 . S
O122 C125 1.247 . S
O123 Zn117 2.035 . S
O123 C125 1.258 . S
C124 O118 1.247 . S
C124 O119 1.258 . S
C125 O122 1.247 . S
C125 O123 1.258 . S
C126 O128 1.247 . S
C126 O130 1.258 . S
C127 O134 1.247 . S
C127 O135 1.258 . S
O128 C126 1.247 . S
O128 Zn129 2.028 . S
Zn129 O128 2.028 . S
Zn129 O133 2.035 . S
Zn129 O135 2.035 . S
Zn129 O136 2.028 . S
O130 C126 1.258 . S
O130 Zn131 2.035 . S
Zn131 O130 2.035 . S
Zn131 O132 2.028 . S
Zn131 O134 2.028 . S
Zn131 O137 2.035 . S
O132 Zn131 2.028 . S
O132 C138 1.247 . S
O133 Zn129 2.035 . S
O133 C138 1.258 . S
O134 C127 1.247 . S
O134 Zn131 2.028 . S
O135 C127 1.258 . S
O135 Zn129 2.035 . S
O136 Zn129 2.028 . S
O136 C139 1.247 . S
O137 Zn131 2.035 . S
O137 C139 1.258 . S
C138 O132 1.247 . S
C138 O133 1.258 . S
C139 O136 1.247 . S
C139 O137 1.258 . S
C140 O142 1.247 . S
C140 O144 1.258 1_565 S
C141 O148 1.247 . S
C141 O149 1.258 1_545 S
O142 C140 1.247 . S
O142 Zn143 2.028 . S
Zn143 O142 2.028 . S
Zn143 O147 2.035 . S
Zn143 O149 2.035 . S
Zn143 O150 2.028 . S
O144 C140 1.258 1_545 S
O144 Zn145 2.035 . S
Zn145 O144 2.035 . S
Zn145 O146 2.028 . S
Zn145 O148 2.028 . S
Zn145 O151 2.035 . S
O146 Zn145 2.028 . S
O146 C152 1.247 . S
O147 Zn143 2.035 . S
O147 C152 1.258 1_565 S
O148 C141 1.247 . S
O148 Zn145 2.028 . S
O149 C141 1.258 1_565 S
O149 Zn143 2.035 . S
O150 Zn143 2.028 . S
O150 C153 1.247 . S
O151 Zn145 2.035 . S
O151 C153 1.258 1_545 S
C152 O146 1.247 . S
C152 O147 1.258 1_545 S
C153 O150 1.247 . S
C153 O151 1.258 1_565 S
C154 O156 1.247 . S
C154 O158 1.258 1_554 S
C155 O162 1.247 1_554 S
C155 O163 1.258 . S
O156 C154 1.247 . S
O156 Zn157 2.028 . S
Zn157 O156 2.028 . S
Zn157 O161 2.035 . S
Zn157 O163 2.035 . S
Zn157 O164 2.028 . S
O158 C154 1.258 1_556 S
O158 Zn159 2.035 . S
Zn159 O158 2.035 . S
Zn159 O160 2.028 . S
Zn159 O162 2.028 . S
Zn159 O165 2.035 . S
O160 Zn159 2.028 . S
O160 C166 1.247 1_556 S
O161 Zn157 2.035 . S
O161 C166 1.258 . S
O162 C155 1.247 1_556 S
O162 Zn159 2.028 . S
O163 C155 1.258 . S
O163 Zn157 2.035 . S
O164 Zn157 2.028 . S
O164 C167 1.247 1_554 S
O165 Zn159 2.035 . S
O165 C167 1.258 . S
C166 O160 1.247 1_554 S
C166 O161 1.258 . S
C167 O164 1.247 1_556 S
C167 O165 1.258 . S
C168 O184 1.251 . S
C168 O186 1.254 . S
N169 C170 1.333 . S
N169 C174 1.307 . S
N169 Zn175 2.020 1_556 S
C170 N169 1.333 . S
C170 C171 1.379 1_545 S
C170 H188 0.952 . S
C171 C170 1.379 1_565 S
C171 C172 1.390 . S
C171 H198 0.949 . S
C172 C171 1.390 . S
C172 C173 1.357 . S
C173 C172 1.357 . S
C173 C174 1.370 1_565 S
C173 H199 0.950 . S
C174 N169 1.307 . S
C174 C173 1.370 1_545 S
C174 H192 0.948 . S
Zn175 N169 2.020 1_554 S
Zn175 O184 2.039 . S
Zn175 O190 2.034 . S
Zn175 O194 2.025 . S
Zn175 O196 2.024 1_545 S
C176 O195 1.246 1_565 S
C176 O196 1.249 . S
N177 C178 1.307 . S
N177 C179 1.333 1_455 S
N177 Zn183 2.020 . S
C178 N177 1.307 . S
C178 C182 1.370 . S
C178 H189 0.948 . S
C179 N177 1.333 1_655 S
C179 C180 1.379 . S
C179 H187 0.952 . S
C180 C179 1.379 . S
C180 C181 1.390 . S
C180 H200 0.949 . S
C181 C180 1.390 . S
C181 C182 1.357 1_655 S
C182 C178 1.370 . S
C182 C181 1.357 1_455 S
C182 H201 0.950 . S
Zn183 N177 2.020 . S
Zn183 O186 2.025 . S
Zn183 O191 2.024 . S
Zn183 O193 2.039 1_455 S
Zn183 O195 2.034 . S
O184 C168 1.251 . S
O184 Zn175 2.039 . S
C185 O190 1.246 . S
C185 O191 1.249 . S
O186 C168 1.254 . S
O186 Zn183 2.025 . S
H187 C179 0.952 . S
H188 C170 0.952 . S
H189 C178 0.948 . S
O190 Zn175 2.034 . S
O190 C185 1.246 . S
O191 Zn183 2.024 . S
O191 C185 1.249 . S
H192 C174 0.948 . S
O193 Zn183 2.039 1_655 S
O193 C197 1.251 . S
O194 Zn175 2.025 . S
O194 C197 1.254 1_455 S
O195 C176 1.246 1_545 S
O195 Zn183 2.034 . S
O196 Zn175 2.024 1_565 S
O196 C176 1.249 . S
C197 O193 1.251 . S
C197 O194 1.254 1_655 S
H198 C171 0.949 . S
H199 C173 0.950 . S
H200 C180 0.949 . S
H201 C182 0.950 . S
C202 O218 1.251 . S
C202 O220 1.254 . S
N203 C204 1.333 . S
N203 C208 1.307 . S
N203 Zn209 2.020 1_556 S
C204 N203 1.333 . S
C204 C205 1.379 . S
C204 H222 0.952 . S
C205 C204 1.379 . S
C205 C206 1.390 . S
C205 H232 0.949 . S
C206 C205 1.390 . S
C206 C207 1.357 . S
C207 C206 1.357 . S
C207 C208 1.370 . S
C207 H233 0.950 . S
C208 N203 1.307 . S
C208 C207 1.370 . S
C208 H226 0.948 1_655 S
Zn209 N203 2.020 1_554 S
Zn209 O218 2.039 . S
Zn209 O224 2.034 . S
Zn209 O228 2.025 1_654 S
Zn209 O230 2.024 . S
C210 O229 1.246 . S
C210 O230 1.249 1_455 S
N211 C212 1.307 . S
N211 C213 1.333 1_655 S
N211 Zn217 2.020 . S
C212 N211 1.307 . S
C212 C216 1.370 . S
C212 H223 0.948 . S
C213 N211 1.333 1_455 S
C213 C214 1.379 . S
C213 H221 0.952 . S
C214 C213 1.379 . S
C214 C215 1.390 . S
C214 H234 0.949 . S
C215 C214 1.390 . S
C215 C216 1.357 1_455 S
C216 C212 1.370 . S
C216 C215 1.357 1_655 S
C216 H235 0.950 . S
Zn217 N211 2.020 . S
Zn217 O220 2.025 . S
Zn217 O225 2.024 . S
Zn217 O227 2.039 1_655 S
Zn217 O229 2.034 1_655 S
O218 C202 1.251 . S
O218 Zn209 2.039 . S
C219 O224 1.246 . S
C219 O225 1.249 . S
O220 C202 1.254 . S
O220 Zn217 2.025 . S
H221 C213 0.952 . S
H222 C204 0.952 . S
H223 C212 0.948 . S
O224 Zn209 2.034 . S
O224 C219 1.246 . S
O225 Zn217 2.024 . S
O225 C219 1.249 . S
H226 C208 0.948 1_455 S
O227 Zn217 2.039 1_455 S
O227 C231 1.251 . S
O228 Zn209 2.025 1_456 S
O228 C231 1.254 1_556 S
O229 C210 1.246 . S
O229 Zn217 2.034 1_455 S
O230 Zn209 2.024 . S
O230 C210 1.249 1_655 S
C231 O227 1.251 . S
C231 O228 1.254 1_554 S
H232 C205 0.949 . S
H233 C207 0.950 . S
H234 C214 0.949 . S
H235 C216 0.950 . S
C236 O252 1.251 1_545 S
C236 O254 1.254 . S
N237 C238 1.333 . S
N237 C242 1.307 . S
N237 Zn243 2.020 . S
C238 N237 1.333 . S
C238 C239 1.379 1_455 S
C238 H256 0.952 1_455 S
C239 C238 1.379 1_655 S
C239 C240 1.390 1_655 S
C239 H266 0.949 . S
C240 C239 1.390 1_455 S
C240 C241 1.357 . S
C241 C240 1.357 . S
C241 C242 1.370 . S
C241 H267 0.950 . S
C242 N237 1.307 . S
C242 C241 1.370 . S
C242 H260 0.948 . S
Zn243 N237 2.020 . S
Zn243 O252 2.039 . S
Zn243 O258 2.034 . S
Zn243 O262 2.025 . S
Zn243 O264 2.024 . S
C244 O263 1.246 . S
C244 O264 1.249 . S
N245 C246 1.307 1_565 S
N245 C247 1.333 . S
N245 Zn251 2.020 . S
C246 N245 1.307 1_545 S
C246 C250 1.370 . S
C246 H257 0.948 . S
C247 N245 1.333 . S
C247 C248 1.379 . S
C247 H255 0.952 . S
C248 C247 1.379 . S
C248 C249 1.390 1_565 S
C248 H268 0.949 . S
C249 C248 1.390 1_545 S
C249 C250 1.357 . S
C250 C246 1.370 . S
C250 C249 1.357 . S
C250 H269 0.950 . S
Zn251 N245 2.020 . S
Zn251 O254 2.025 1_565 S
Zn251 O259 2.024 . S
Zn251 O261 2.039 . S
Zn251 O263 2.034 . S
O252 C236 1.251 1_565 S
O252 Zn243 2.039 . S
C253 O258 1.246 1_655 S
C253 O259 1.249 1_655 S
O254 C236 1.254 . S
O254 Zn251 2.025 1_545 S
H255 C247 0.952 . S
H256 C238 0.952 1_655 S
H257 C246 0.948 . S
O258 Zn243 2.034 . S
O258 C253 1.246 1_455 S
O259 Zn251 2.024 . S
O259 C253 1.249 1_455 S
H260 C242 0.948 . S
O261 Zn251 2.039 . S
O261 C265 1.251 . S
O262 Zn243 2.025 . S
O262 C265 1.254 . S
O263 C244 1.246 . S
O263 Zn251 2.034 . S
O264 Zn243 2.024 . S
O264 C244 1.249 . S
C265 O261 1.251 . S
C265 O262 1.254 . S
H266 C239 0.949 . S
H267 C241 0.950 . S
H268 C248 0.949 . S
H269 C250 0.950 . S
C270 O286 1.251 . S
C270 O288 1.254 . S
N271 C272 1.333 . S
N271 C276 1.307 . S
N271 Zn277 2.020 1_455 S
C272 N271 1.333 . S
C272 C273 1.379 . S
C272 H290 0.952 . S
C273 C272 1.379 . S
C273 C274 1.390 . S
C273 H300 0.949 . S
C274 C273 1.390 . S
C274 C275 1.357 . S
C275 C274 1.357 . S
C275 C276 1.370 . S
C275 H301 0.950 . S
C276 N271 1.307 . S
C276 C275 1.370 . S
C276 H294 0.948 . S
Zn277 N271 2.020 1_655 S
Zn277 O286 2.039 . S
Zn277 O292 2.034 1_655 S
Zn277 O296 2.025 1_655 S
Zn277 O298 2.024 . S
C278 O297 1.246 . S
C278 O298 1.249 . S
N279 C280 1.307 . S
N279 C281 1.333 . S
N279 Zn285 2.020 . S
C280 N279 1.307 . S
C280 C284 1.370 . S
C280 H291 0.948 . S
C281 N279 1.333 . S
C281 C282 1.379 . S
C281 H289 0.952 . S
C282 C281 1.379 . S
C282 C283 1.390 . S
C282 H302 0.949 . S
C283 C282 1.390 . S
C283 C284 1.357 . S
C284 C280 1.370 . S
C284 C283 1.357 . S
C284 H303 0.950 . S
Zn285 N279 2.020 . S
Zn285 O288 2.025 . S
Zn285 O293 2.024 . S
Zn285 O295 2.039 . S
Zn285 O297 2.034 . S
O286 C270 1.251 . S
O286 Zn277 2.039 . S
C287 O292 1.246 1_655 S
C287 O293 1.249 . S
O288 C270 1.254 . S
O288 Zn285 2.025 . S
H289 C281 0.952 . S
H290 C272 0.952 . S
H291 C280 0.948 . S
O292 Zn277 2.034 1_455 S
O292 C287 1.246 1_455 S
O293 Zn285 2.024 . S
O293 C287 1.249 . S
H294 C276 0.948 . S
O295 Zn285 2.039 . S
O295 C299 1.251 . S
O296 Zn277 2.025 1_455 S
O296 C299 1.254 1_455 S
O297 C278 1.246 . S
O297 Zn285 2.034 . S
O298 Zn277 2.024 . S
O298 C278 1.249 . S
C299 O295 1.251 . S
C299 O296 1.254 1_655 S
H300 C273 0.949 . S
H301 C275 0.950 . S
H302 C282 0.949 . S
H303 C284 0.950 . S
C304 O320 1.251 1_565 S
C304 O322 1.254 . S
N305 C306 1.333 . S
N305 C310 1.307 . S
N305 Zn311 2.020 1_545 S
C306 N305 1.333 . S
C306 C307 1.379 . S
C306 H324 0.952 . S
C307 C306 1.379 . S
C307 C308 1.390 . S
C307 H334 0.949 . S
C308 C307 1.390 . S
C308 C309 1.357 . S
C309 C308 1.357 . S
C309 C310 1.370 . S
C309 H335 0.950 . S
C310 N305 1.307 . S
C310 C309 1.370 . S
C310 H328 0.948 . S
Zn311 N305 2.020 1_565 S
Zn311 O320 2.039 1_565 S
Zn311 O326 2.034 . S
Zn311 O330 2.025 . S
Zn311 O332 2.024 1_565 S
C312 O331 1.246 . S
C312 O332 1.249 . S
N313 C314 1.307 . S
N313 C315 1.333 . S
N313 Zn319 2.020 . S
C314 N313 1.307 . S
C314 C318 1.370 . S
C314 H325 0.948 . S
C315 N313 1.333 . S
C315 C316 1.379 . S
C315 H323 0.952 . S
C316 C315 1.379 . S
C316 C317 1.390 . S
C316 H336 0.949 . S
C317 C316 1.390 . S
C317 C318 1.357 . S
C318 C314 1.370 . S
C318 C317 1.357 . S
C318 H337 0.950 . S
Zn319 N313 2.020 . S
Zn319 O322 2.025 . S
Zn319 O327 2.024 . S
Zn319 O329 2.039 . S
Zn319 O331 2.034 1_565 S
O320 C304 1.251 1_545 S
O320 Zn311 2.039 1_545 S
C321 O326 1.246 . S
C321 O327 1.249 . S
O322 C304 1.254 . S
O322 Zn319 2.025 . S
H323 C315 0.952 . S
H324 C306 0.952 . S
H325 C314 0.948 . S
O326 Zn311 2.034 . S
O326 C321 1.246 . S
O327 Zn319 2.024 . S
O327 C321 1.249 . S
H328 C310 0.948 . S
O329 Zn319 2.039 . S
O329 C333 1.251 . S
O330 Zn311 2.025 . S
O330 C333 1.254 . S
O331 C312 1.246 . S
O331 Zn319 2.034 1_545 S
O332 Zn311 2.024 1_545 S
O332 C312 1.249 . S
C333 O329 1.251 . S
C333 O330 1.254 . S
H334 C307 0.949 . S
H335 C309 0.950 . S
H336 C316 0.949 . S
H337 C318 0.950 . S
C338 O354 1.251 . S
C338 O356 1.254 . S
N339 C340 1.333 . S
N339 C344 1.307 . S
N339 Zn345 2.020 . S
C340 N339 1.333 . S
C340 C341 1.379 . S
C340 H358 0.952 . S
C341 C340 1.379 . S
C341 C342 1.390 . S
C341 H368 0.949 . S
C342 C341 1.390 . S
C342 C343 1.357 . S
C343 C342 1.357 . S
C343 C344 1.370 . S
C343 H369 0.950 . S
C344 N339 1.307 . S
C344 C343 1.370 . S
C344 H362 0.948 . S
Zn345 N339 2.020 . S
Zn345 O354 2.039 . S
Zn345 O360 2.034 . S
Zn345 O364 2.025 . S
Zn345 O366 2.024 . S
C346 O365 1.246 . S
C346 O366 1.249 . S
N347 C348 1.307 . S
N347 C349 1.333 . S
N347 Zn353 2.020 . S
C348 N347 1.307 . S
C348 C352 1.370 . S
C348 H359 0.948 . S
C349 N347 1.333 . S
C349 C350 1.379 . S
C349 H357 0.952 . S
C350 C349 1.379 . S
C350 C351 1.390 . S
C350 H370 0.949 . S
C351 C350 1.390 . S
C351 C352 1.357 . S
C352 C348 1.370 . S
C352 C351 1.357 . S
C352 H371 0.950 . S
Zn353 N347 2.020 . S
Zn353 O356 2.025 . S
Zn353 O361 2.024 . S
Zn353 O363 2.039 . S
Zn353 O365 2.034 . S
O354 C338 1.251 . S
O354 Zn345 2.039 . S
C355 O360 1.246 . S
C355 O361 1.249 . S
O356 C338 1.254 . S
O356 Zn353 2.025 . S
H357 C349 0.952 . S
H358 C340 0.952 . S
H359 C348 0.948 . S
O360 Zn345 2.034 . S
O360 C355 1.246 . S
O361 Zn353 2.024 . S
O361 C355 1.249 . S
H362 C344 0.948 . S
O363 Zn353 2.039 . S
O363 C367 1.251 . S
O364 Zn345 2.025 . S
O364 C367 1.254 . S
O365 C346 1.246 . S
O365 Zn353 2.034 . S
O366 Zn345 2.024 . S
O366 C346 1.249 . S
C367 O363 1.251 . S
C367 O364 1.254 . S
H368 C341 0.949 . S
H369 C343 0.950 . S
H370 C350 0.949 . S
H371 C352 0.950 . S
C372 O388 1.251 . S
C372 O390 1.254 . S
N373 C374 1.333 . S
N373 C378 1.307 . S
N373 Zn379 2.020 . S
C374 N373 1.333 . S
C374 C375 1.379 . S
C374 H392 0.952 . S
C375 C374 1.379 . S
C375 C376 1.390 . S
C375 H402 0.949 . S
C376 C375 1.390 . S
C376 C377 1.357 . S
C377 C376 1.357 . S
C377 C378 1.370 . S
C377 H403 0.950 . S
C378 N373 1.307 . S
C378 C377 1.370 . S
C378 H396 0.948 . S
Zn379 N373 2.020 . S
Zn379 O388 2.039 . S
Zn379 O394 2.034 . S
Zn379 O398 2.025 . S
Zn379 O400 2.024 . S
C380 O399 1.246 . S
C380 O400 1.249 . S
N381 C382 1.307 . S
N381 C383 1.333 . S
N381 Zn387 2.020 1_554 S
C382 N381 1.307 . S
C382 C386 1.370 . S
C382 H393 0.948 . S
C383 N381 1.333 . S
C383 C384 1.379 . S
C383 H391 0.952 . S
C384 C383 1.379 . S
C384 C385 1.390 . S
C384 H404 0.949 . S
C385 C384 1.390 . S
C385 C386 1.357 . S
C386 C382 1.370 . S
C386 C385 1.357 . S
C386 H405 0.950 . S
Zn387 N381 2.020 1_556 S
Zn387 O390 2.025 . S
Zn387 O395 2.024 . S
Zn387 O397 2.039 . S
Zn387 O399 2.034 . S
O388 C372 1.251 . S
O388 Zn379 2.039 . S
C389 O394 1.246 . S
C389 O395 1.249 . S
O390 C372 1.254 . S
O390 Zn387 2.025 . S
H391 C383 0.952 . S
H392 C374 0.952 . S
H393 C382 0.948 . S
O394 Zn379 2.034 . S
O394 C389 1.246 . S
O395 Zn387 2.024 . S
O395 C389 1.249 . S
H396 C378 0.948 . S
O397 Zn387 2.039 . S
O397 C401 1.251 . S
O398 Zn379 2.025 . S
O398 C401 1.254 . S
O399 C380 1.246 . S
O399 Zn387 2.034 . S
O400 Zn379 2.024 . S
O400 C380 1.249 . S
C401 O397 1.251 . S
C401 O398 1.254 . S
H402 C375 0.949 . S
H403 C377 0.950 . S
H404 C384 0.949 . S
H405 C386 0.950 . S
C406 O422 1.251 . S
C406 O424 1.254 . S
N407 C408 1.333 . S
N407 C412 1.307 . S
N407 Zn413 2.020 . S
C408 N407 1.333 . S
C408 C409 1.379 . S
C408 H426 0.952 . S
C409 C408 1.379 . S
C409 C410 1.390 . S
C409 H436 0.949 . S
C410 C409 1.390 . S
C410 C411 1.357 . S
C411 C410 1.357 . S
C411 C412 1.370 . S
C411 H437 0.950 1_556 S
C412 N407 1.307 . S
C412 C411 1.370 . S
C412 H430 0.948 . S
Zn413 N407 2.020 . S
Zn413 O422 2.039 . S
Zn413 O428 2.034 . S
Zn413 O432 2.025 1_545 S
Zn413 O434 2.024 . S
C414 O433 1.246 . S
C414 O434 1.249 . S
N415 C416 1.307 . S
N415 C417 1.333 1_545 S
N415 Zn421 2.020 . S
C416 N415 1.307 . S
C416 C420 1.370 . S
C416 H427 0.948 . S
C417 N415 1.333 1_565 S
C417 C418 1.379 . S
C417 H425 0.952 . S
C418 C417 1.379 . S
C418 C419 1.390 . S
C418 H438 0.949 . S
C419 C418 1.390 . S
C419 C420 1.357 1_565 S
C420 C416 1.370 . S
C420 C419 1.357 1_545 S
C420 H439 0.950 . S
Zn421 N415 2.020 . S
Zn421 O424 2.025 . S
Zn421 O429 2.024 . S
Zn421 O431 2.039 1_545 S
Zn421 O433 2.034 . S
O422 C406 1.251 . S
O422 Zn413 2.039 . S
C423 O428 1.246 . S
C423 O429 1.249 . S
O424 C406 1.254 . S
O424 Zn421 2.025 . S
H425 C417 0.952 . S
H426 C408 0.952 . S
H427 C416 0.948 . S
O428 Zn413 2.034 . S
O428 C423 1.246 . S
O429 Zn421 2.024 . S
O429 C423 1.249 . S
H430 C412 0.948 . S
O431 Zn421 2.039 1_565 S
O431 C435 1.251 . S
O432 Zn413 2.025 1_565 S
O432 C435 1.254 . S
O433 C414 1.246 . S
O433 Zn421 2.034 . S
O434 Zn413 2.024 . S
O434 C414 1.249 . S
C435 O431 1.251 . S
C435 O432 1.254 . S
H436 C409 0.949 . S
H437 C411 0.950 1_554 S
H438 C418 0.949 . S
H439 C420 0.950 . S
C440 C441 1.387 . S
C440 H444 0.950 . S
C440 C449 1.390 . S
C441 C440 1.387 . S
C441 C443 1.387 1_455 S
H442 C449 0.950 . S
C443 C441 1.387 1_655 S
C443 C445 1.390 . S
C443 H447 0.950 . S
H444 C440 0.950 . S
C445 C443 1.390 . S
C445 C446 1.387 1_655 S
C445 H448 0.950 . S
C446 C445 1.387 1_455 S
C446 C449 1.387 . S
H447 C443 0.950 . S
H448 C445 0.950 . S
C449 C440 1.390 . S
C449 H442 0.950 . S
C449 C446 1.387 . S
C450 C451 1.387 . S
C450 H454 0.950 . S
C450 C459 1.390 . S
C451 C450 1.387 . S
C451 C453 1.387 1_655 S
H452 C459 0.950 . S
C453 C451 1.387 1_455 S
C453 C455 1.390 . S
C453 H457 0.950 . S
H454 C450 0.950 . S
C455 C453 1.390 . S
C455 C456 1.397 . S
C455 H458 0.950 . S
C456 C455 1.397 . S
C456 C459 1.374 1_455 S
H457 C453 0.950 . S
H458 C455 0.950 . S
C459 C450 1.390 . S
C459 H452 0.950 . S
C459 C456 1.374 1_655 S
C460 C461 1.387 1_655 S
C460 H464 0.950 . S
C460 C469 1.390 . S
C461 C460 1.387 1_455 S
C461 C463 1.387 . S
H462 C469 0.950 . S
C463 C461 1.387 . S
C463 C465 1.390 . S
C463 H467 0.950 . S
H464 C460 0.950 . S
C465 C463 1.390 . S
C465 C466 1.387 . S
C465 H468 0.950 . S
C466 C465 1.387 . S
C466 C469 1.387 1_455 S
H467 C463 0.950 . S
H468 C465 0.950 . S
C469 C460 1.390 . S
C469 H462 0.950 . S
C469 C466 1.387 1_655 S
C470 C471 1.387 . S
C470 H474 0.950 . S
C470 C479 1.390 . S
C471 C470 1.387 . S
C471 C473 1.387 1_655 S
H472 C479 0.950 . S
C473 C471 1.387 1_455 S
C473 C475 1.390 . S
C473 H477 0.950 . S
H474 C470 0.950 . S
C475 C473 1.390 . S
C475 C476 1.387 . S
C475 H478 0.950 . S
C476 C475 1.387 . S
C476 C479 1.387 1_455 S
H477 C473 0.950 . S
H478 C475 0.950 . S
C479 C470 1.390 . S
C479 H472 0.950 . S
C479 C476 1.387 1_655 S
C480 C481 1.387 1_565 S
C480 H484 0.950 . S
C480 C489 1.390 . S
C481 C480 1.387 1_545 S
C481 C483 1.387 . S
H482 C489 0.950 . S
C483 C481 1.387 . S
C483 C485 1.390 . S
C483 H487 0.950 . S
H484 C480 0.950 . S
C485 C483 1.390 . S
C485 C486 1.387 . S
C485 H488 0.950 . S
C486 C485 1.387 . S
C486 C489 1.387 1_545 S
H487 C483 0.950 . S
H488 C485 0.950 . S
C489 C480 1.390 . S
C489 H482 0.950 . S
C489 C486 1.387 1_565 S
C490 C491 1.387 . S
C490 H494 0.950 . S
C490 C499 1.390 . S
C491 C490 1.387 . S
C491 C493 1.387 . S
H492 C499 0.950 . S
C493 C491 1.387 . S
C493 C495 1.390 . S
C493 H497 0.950 . S
H494 C490 0.950 . S
C495 C493 1.390 . S
C495 C496 1.387 . S
C495 H498 0.950 . S
C496 C495 1.387 . S
C496 C499 1.387 . S
H497 C493 0.950 . S
H498 C495 0.950 . S
C499 C490 1.390 . S
C499 H492 0.950 . S
C499 C496 1.387 . S
C500 C501 1.387 . S
C500 H504 0.950 1_545 S
C500 C509 1.390 . S
C501 C500 1.387 . S
C501 C503 1.387 . S
H502 C509 0.950 . S
C503 C501 1.387 . S
C503 C505 1.390 . S
C503 H507 0.950 . S
H504 C500 0.950 1_565 S
C505 C503 1.390 . S
C505 C506 1.387 . S
C505 H508 0.950 . S
C506 C505 1.387 . S
C506 C509 1.387 . S
H507 C503 0.950 . S
H508 C505 0.950 . S
C509 C500 1.390 . S
C509 H502 0.950 . S
C509 C506 1.387 . S
C510 C511 1.387 . S
C510 H514 0.950 . S
C510 C519 1.390 . S
C511 C510 1.387 . S
C511 C513 1.387 . S
H512 C519 0.950 . S
C513 C511 1.387 . S
C513 C515 1.390 . S
C513 H517 0.950 . S
H514 C510 0.950 . S
C515 C513 1.390 . S
C515 C516 1.387 . S
C515 H518 0.950 . S
C516 C515 1.387 . S
C516 C519 1.387 . S
H517 C513 0.950 . S
H518 C515 0.950 . S
C519 C510 1.390 . S
C519 H512 0.950 . S
C519 C516 1.387 . S
C520 C521 1.387 . S
C520 H524 0.950 . S
C520 C529 1.390 . S
C521 C520 1.387 . S
C521 C523 1.387 1_554 S
H522 C529 0.950 . S
C523 C521 1.387 1_556 S
C523 C525 1.390 . S
C523 H527 0.950 . S
H524 C520 0.950 . S
C525 C523 1.390 . S
C525 C526 1.387 1_556 S
C525 H528 0.950 . S
C526 C525 1.387 1_554 S
C526 C529 1.387 . S
H527 C523 0.950 . S
H528 C525 0.950 . S
C529 C520 1.390 . S
C529 H522 0.950 . S
C529 C526 1.387 . S
C530 C531 1.387 . S
C530 H534 0.950 . S
C530 C539 1.390 . S
C531 C530 1.387 . S
C531 C533 1.387 . S
H532 C539 0.950 . S
C533 C531 1.387 . S
C533 C535 1.390 . S
C533 H537 0.950 . S
H534 C530 0.950 . S
C535 C533 1.390 . S
C535 C536 1.387 . S
C535 H538 0.950 . S
C536 C535 1.387 . S
C536 C539 1.387 . S
H537 C533 0.950 . S
H538 C535 0.950 . S
C539 C530 1.390 . S
C539 H532 0.950 . S
C539 C536 1.387 . S
C540 C541 1.387 . S
C540 H544 0.950 . S
C540 C549 1.390 . S
C541 C540 1.387 . S
C541 C543 1.387 . S
H542 C549 0.950 . S
C543 C541 1.387 . S
C543 C545 1.390 . S
C543 H547 0.950 . S
H544 C540 0.950 . S
C545 C543 1.390 . S
C545 C546 1.387 . S
C545 H548 0.950 . S
C546 C545 1.387 . S
C546 C549 1.387 . S
H547 C543 0.950 . S
H548 C545 0.950 . S
C549 C540 1.390 . S
C549 H542 0.950 . S
C549 C546 1.387 . S
C550 C551 1.387 . S
C550 H554 0.950 . S
C550 C559 1.390 . S
C551 C550 1.387 . S
C551 C553 1.387 . S
H552 C559 0.950 . S
C553 C551 1.387 . S
C553 C555 1.390 . S
C553 H557 0.950 . S
H554 C550 0.950 . S
C555 C553 1.390 . S
C555 C556 1.387 . S
C555 H558 0.950 . S
C556 C555 1.387 . S
C556 C559 1.387 . S
H557 C553 0.950 . S
H558 C555 0.950 . S
C559 C550 1.390 . S
C559 H552 0.950 . S
C559 C556 1.387 . S
C560 C561 1.387 . S
C560 H564 0.950 . S
C560 C569 1.390 . S
C561 C560 1.387 . S
C561 C563 1.387 . S
H562 C569 0.950 . S
C563 C561 1.387 . S
C563 C565 1.390 . S
C563 H567 0.950 . S
H564 C560 0.950 . S
C565 C563 1.390 . S
C565 C566 1.387 . S
C565 H568 0.950 . S
C566 C565 1.387 . S
C566 C569 1.387 . S
H567 C563 0.950 . S
H568 C565 0.950 . S
C569 C560 1.390 . S
C569 H562 0.950 . S
C569 C566 1.387 . S
C570 C571 1.387 . S
C570 H574 0.950 . S
C570 C579 1.390 . S
C571 C570 1.387 . S
C571 C573 1.387 . S
H572 C579 0.950 . S
C573 C571 1.387 . S
C573 C575 1.390 . S
C573 H577 0.950 . S
H574 C570 0.950 . S
C575 C573 1.390 . S
C575 C576 1.387 . S
C575 H578 0.950 . S
C576 C575 1.387 . S
C576 C579 1.387 . S
H577 C573 0.950 . S
H578 C575 0.950 . S
C579 C570 1.390 . S
C579 H572 0.950 . S
C579 C576 1.387 . S
C580 C581 1.387 . S
C580 H584 0.950 . S
C580 C589 1.390 . S
C581 C580 1.387 . S
C581 C583 1.387 . S
H582 C589 0.950 . S
C583 C581 1.387 . S
C583 C585 1.390 . S
C583 H587 0.950 . S
H584 C580 0.950 . S
C585 C583 1.390 . S
C585 C586 1.387 . S
C585 H588 0.950 . S
C586 C585 1.387 . S
C586 C589 1.387 . S
H587 C583 0.950 . S
H588 C585 0.950 . S
C589 C580 1.390 . S
C589 H582 0.950 . S
C589 C586 1.387 . S
C590 C591 1.387 . S
C590 H594 0.950 . S
C590 C599 1.390 . S
C591 C590 1.387 . S
C591 C593 1.387 . S
H592 C599 0.950 . S
C593 C591 1.387 . S
C593 C595 1.390 . S
C593 H597 0.950 . S
H594 C590 0.950 . S
C595 C593 1.390 . S
C595 C596 1.387 . S
C595 H598 0.950 . S
C596 C595 1.387 . S
C596 C599 1.387 . S
H597 C593 0.950 . S
H598 C595 0.950 . S
C599 C590 1.390 . S
C599 H592 0.950 . S
C599 C596 1.387 . S
C600 C601 1.387 . S
C600 H604 0.950 . S
C600 C609 1.390 . S
C601 C600 1.387 . S
C601 C603 1.387 . S
H602 C609 0.950 . S
C603 C601 1.387 . S
C603 C605 1.390 . S
C603 H607 0.950 . S
H604 C600 0.950 . S
C605 C603 1.390 . S
C605 C606 1.387 . S
C605 H608 0.950 . S
C606 C605 1.387 . S
C606 C609 1.387 . S
H607 C603 0.950 . S
H608 C605 0.950 . S
C609 C600 1.390 . S
C609 H602 0.950 . S
C609 C606 1.387 . S
C610 C611 1.387 1_545 S
C610 H614 0.950 . S
C610 C619 1.390 . S
C611 C610 1.387 1_565 S
C611 C613 1.387 . S
H612 C619 0.950 . S
C613 C611 1.387 . S
C613 C615 1.390 . S
C613 H617 0.950 . S
H614 C610 0.950 . S
C615 C613 1.390 . S
C615 C616 1.387 1_565 S
C615 H618 0.950 . S
C616 C615 1.387 1_545 S
C616 C619 1.387 . S
H617 C613 0.950 . S
H618 C615 0.950 . S
C619 C610 1.390 . S
C619 H612 0.950 . S
C619 C616 1.387 . S
C620 C621 1.387 . S
C620 H624 0.950 . S
C620 C629 1.390 . S
C621 C620 1.387 . S
C621 C623 1.387 . S
H622 C629 0.950 . S
C623 C621 1.387 . S
C623 C625 1.390 . S
C623 H627 0.950 . S
H624 C620 0.950 . S
C625 C623 1.390 . S
C625 C626 1.387 . S
C625 H628 0.950 . S
C626 C625 1.387 . S
C626 C629 1.387 . S
H627 C623 0.950 . S
H628 C625 0.950 . S
C629 C620 1.390 . S
C629 H622 0.950 . S
C629 C626 1.387 . S
C630 C631 1.387 1_565 S
C630 H634 0.950 . S
C630 C639 1.390 . S
C631 C630 1.387 1_545 S
C631 C633 1.387 . S
H632 C639 0.950 . S
C633 C631 1.387 . S
C633 C635 1.390 1_545 S
C633 H637 0.950 . S
H634 C630 0.950 . S
C635 C633 1.390 1_565 S
C635 C636 1.387 . S
C635 H638 0.950 . S
C636 C635 1.387 . S
C636 C639 1.387 . S
H637 C633 0.950 . S
H638 C635 0.950 . S
C639 C630 1.390 . S
C639 H632 0.950 . S
C639 C636 1.387 . S
C640 C641 1.387 . S
C640 H644 0.950 . S
C640 C649 1.390 . S
C641 C640 1.387 . S
C641 C643 1.387 . S
H642 C649 0.950 . S
C643 C641 1.387 . S
C643 C645 1.390 . S
C643 H647 0.950 . S
H644 C640 0.950 . S
C645 C643 1.390 . S
C645 C646 1.387 . S
C645 H648 0.950 . S
C646 C645 1.387 . S
C646 C649 1.387 . S
H647 C643 0.950 . S
H648 C645 0.950 . S
C649 C640 1.390 . S
C649 H642 0.950 . S
C649 C646 1.387 . S
C650 C651 1.377 1_554 S
C650 H654 0.950 . S
C650 C659 1.390 . S
C651 C650 1.377 1_556 S
C651 C653 1.400 . S
H652 C659 0.950 . S
C653 C651 1.400 . S
C653 C655 1.390 . S
C653 H657 0.950 . S
H654 C650 0.950 . S
C655 C653 1.390 . S
C655 C656 1.387 1_556 S
C655 H658 0.950 . S
C656 C655 1.387 1_554 S
C656 C659 1.387 . S
H657 C653 0.950 . S
H658 C655 0.950 . S
C659 C650 1.390 . S
C659 H652 0.950 . S
C659 C656 1.387 . S
C660 C661 1.387 . S
C660 H664 0.950 . S
C660 C669 1.390 . S
C661 C660 1.387 . S
C661 C663 1.387 . S
H662 C669 0.950 . S
C663 C661 1.387 . S
C663 C665 1.390 . S
C663 H667 0.950 . S
H664 C660 0.950 . S
C665 C663 1.390 . S
C665 C666 1.387 . S
C665 H668 0.950 . S
C666 C665 1.387 . S
C666 C669 1.387 . S
H667 C663 0.950 . S
H668 C665 0.950 . S
C669 C660 1.390 . S
C669 H662 0.950 . S
C669 C666 1.387 . S
C670 C671 1.367 1_556 S
C670 H674 0.972 . S
C670 C679 1.390 . S
C671 C670 1.367 1_554 S
C671 C673 1.387 . S
H672 C679 0.968 . S
C673 C671 1.387 . S
C673 C675 1.390 . S
C673 H677 0.950 . S
H674 C670 0.972 . S
C675 C673 1.390 . S
C675 C676 1.387 . S
C675 H678 0.950 . S
C676 C675 1.387 . S
C676 C679 1.368 1_554 S
H677 C673 0.950 . S
H678 C675 0.950 . S
C679 C670 1.390 . S
C679 H672 0.968 . S
C679 C676 1.368 1_556 S
C680 C681 1.387 . S
C680 H684 0.950 . S
C680 C689 1.390 . S
C681 C680 1.387 . S
C681 C683 1.387 1_455 S
H682 C689 0.950 . S
C683 C681 1.387 1_655 S
C683 C685 1.390 . S
C683 H687 0.950 . S
H684 C680 0.950 . S
C685 C683 1.390 . S
C685 C686 1.387 . S
C685 H688 0.950 . S
C686 C685 1.387 . S
C686 C689 1.387 1_655 S
H687 C683 0.950 . S
H688 C685 0.950 . S
C689 C680 1.390 . S
C689 H682 0.950 . S
C689 C686 1.387 1_455 S
C690 C691 1.387 1_455 S
C690 H694 0.950 . S
C690 C699 1.390 . S
C691 C690 1.387 1_655 S
C691 C693 1.387 . S
H692 C699 0.950 . S
C693 C691 1.387 . S
C693 C695 1.390 . S
C693 H697 0.950 . S
H694 C690 0.950 . S
C695 C693 1.390 . S
C695 C696 1.387 1_655 S
C695 H698 0.950 . S
C696 C695 1.387 1_455 S
C696 C699 1.387 . S
H697 C693 0.950 . S
H698 C695 0.950 . S
C699 C690 1.390 . S
C699 H692 0.950 . S
C699 C696 1.387 . S
C700 C701 1.387 . S
C700 H704 0.950 . S
C700 C709 1.390 . S
C701 C700 1.387 . S
C701 C703 1.387 1_455 S
H702 C709 0.950 . S
C703 C701 1.387 1_655 S
C703 C705 1.390 . S
C703 H707 0.950 . S
H704 C700 0.950 . S
C705 C703 1.390 . S
C705 C706 1.387 1_655 S
C705 H708 0.950 . S
C706 C705 1.387 1_455 S
C706 C709 1.387 . S
H707 C703 0.950 . S
H708 C705 0.950 . S
C709 C700 1.390 . S
C709 H702 0.950 . S
C709 C706 1.387 . S
C710 C711 1.387 1_455 S
C710 H714 0.950 . S
C710 C719 1.390 . S
C711 C710 1.387 1_655 S
C711 C713 1.387 . S
H712 C719 0.950 . S
C713 C711 1.387 . S
C713 C715 1.390 . S
C713 H717 0.950 . S
H714 C710 0.950 . S
C715 C713 1.390 . S
C715 C716 1.396 . S
C715 H718 0.950 . S
C716 C715 1.396 . S
C716 C719 1.381 1_655 S
H717 C713 0.950 . S
H718 C715 0.950 . S
C719 C710 1.390 . S
C719 H712 0.950 . S
C719 C716 1.381 1_455 S
C720 C721 1.387 1_565 S
C720 H724 0.950 . S
C720 C729 1.390 . S
C721 C720 1.387 1_545 S
C721 C723 1.387 . S
H722 C729 0.950 . S
C723 C721 1.387 . S
C723 C725 1.390 . S
C723 H727 0.950 . S
H724 C720 0.950 . S
C725 C723 1.390 . S
C725 C726 1.387 . S
C725 H728 0.950 . S
C726 C725 1.387 . S
C726 C729 1.387 1_545 S
H727 C723 0.950 . S
H728 C725 0.950 . S
C729 C720 1.390 . S
C729 H722 0.950 . S
C729 C726 1.387 1_565 S
C730 C731 1.387 . S
C730 H734 0.950 . S
C730 C739 1.390 . S
C731 C730 1.387 . S
C731 C733 1.387 . S
H732 C739 0.950 . S
C733 C731 1.387 . S
C733 C735 1.390 . S
C733 H737 0.950 . S
H734 C730 0.950 . S
C735 C733 1.390 . S
C735 C736 1.387 . S
C735 H738 0.950 . S
C736 C735 1.387 . S
C736 C739 1.387 . S
H737 C733 0.950 . S
H738 C735 0.950 . S
C739 C730 1.390 . S
C739 H732 0.950 . S
C739 C736 1.387 . S
C740 C741 1.387 1_545 S
C740 H744 0.950 . S
C740 C749 1.390 . S
C741 C740 1.387 1_565 S
C741 C743 1.387 . S
H742 C749 0.950 . S
C743 C741 1.387 . S
C743 C745 1.390 . S
C743 H747 0.950 . S
H744 C740 0.950 . S
C745 C743 1.390 . S
C745 C746 1.387 . S
C745 H748 0.950 . S
C746 C745 1.387 . S
C746 C749 1.387 1_565 S
H747 C743 0.950 . S
H748 C745 0.950 . S
C749 C740 1.390 . S
C749 H742 0.950 . S
C749 C746 1.387 1_545 S
C750 C751 1.387 . S
C750 H754 0.950 . S
C750 C759 1.390 . S
C751 C750 1.387 . S
C751 C753 1.387 . S
H752 C759 0.950 . S
C753 C751 1.387 . S
C753 C755 1.390 . S
C753 H757 0.950 . S
H754 C750 0.950 . S
C755 C753 1.390 . S
C755 C756 1.387 . S
C755 H758 0.950 . S
C756 C755 1.387 . S
C756 C759 1.387 . S
H757 C753 0.950 . S
H758 C755 0.950 . S
C759 C750 1.390 . S
C759 H752 0.950 . S
C759 C756 1.387 . S
C760 C761 1.387 1_556 S
C760 H764 0.950 . S
C760 C769 1.390 . S
C761 C760 1.387 1_554 S
C761 C763 1.387 . S
H762 C769 0.950 . S
C763 C761 1.387 . S
C763 C765 1.390 . S
C763 H767 0.950 . S
H764 C760 0.950 . S
C765 C763 1.390 . S
C765 C766 1.387 . S
C765 H768 0.950 . S
C766 C765 1.387 . S
C766 C769 1.387 1_554 S
H767 C763 0.950 . S
H768 C765 0.950 . S
C769 C760 1.390 . S
C769 H762 0.950 . S
C769 C766 1.387 1_556 S
C770 C771 1.387 . S
C770 H774 0.950 . S
C770 C779 1.390 . S
C771 C770 1.387 . S
C771 C773 1.387 . S
H772 C779 0.950 . S
C773 C771 1.387 . S
C773 C775 1.390 . S
C773 H777 0.950 . S
H774 C770 0.950 . S
C775 C773 1.390 . S
C775 C776 1.387 . S
C775 H778 0.950 . S
C776 C775 1.387 . S
C776 C779 1.387 . S
H777 C773 0.950 . S
H778 C775 0.950 . S
C779 C770 1.390 . S
C779 H772 0.950 . S
C779 C776 1.387 . S
C780 C781 1.387 . S
C780 H784 0.950 . S
C780 C789 1.390 . S
C781 C780 1.387 . S
C781 C783 1.387 . S
H782 C789 0.950 . S
C783 C781 1.387 . S
C783 C785 1.390 . S
C783 H787 0.950 . S
H784 C780 0.950 . S
C785 C783 1.390 . S
C785 C786 1.387 . S
C785 H788 0.950 . S
C786 C785 1.387 . S
C786 C789 1.387 . S
H787 C783 0.950 . S
H788 C785 0.950 . S
C789 C780 1.390 . S
C789 H782 0.950 . S
C789 C786 1.387 . S
C790 C791 1.387 . S
C790 H794 0.950 . S
C790 C799 1.390 . S
C791 C790 1.387 . S
C791 C793 1.387 . S
H792 C799 0.950 . S
C793 C791 1.387 . S
C793 C795 1.390 . S
C793 H797 0.950 . S
H794 C790 0.950 . S
C795 C793 1.390 . S
C795 C796 1.387 . S
C795 H798 0.950 . S
C796 C795 1.387 . S
C796 C799 1.387 . S
H797 C793 0.950 . S
H798 C795 0.950 . S
C799 C790 1.390 . S
C799 H792 0.950 . S
C799 C796 1.387 . S
C800 C801 1.387 . S
C800 H804 0.950 . S
C800 C809 1.390 . S
C801 C800 1.387 . S
C801 C803 1.387 . S
H802 C809 0.950 . S
C803 C801 1.387 . S
C803 C805 1.390 . S
C803 H807 0.950 . S
H804 C800 0.950 . S
C805 C803 1.390 . S
C805 C806 1.387 . S
C805 H808 0.950 . S
C806 C805 1.387 . S
C806 C809 1.387 . S
H807 C803 0.950 . S
H808 C805 0.950 . S
C809 C800 1.390 . S
C809 H802 0.950 . S
C809 C806 1.387 . S
C810 C811 1.387 . S
C810 H814 0.950 . S
C810 C819 1.390 . S
C811 C810 1.387 . S
C811 C813 1.387 . S
H812 C819 0.950 . S
C813 C811 1.387 . S
C813 C815 1.390 . S
C813 H817 0.950 . S
H814 C810 0.950 . S
C815 C813 1.390 . S
C815 C816 1.387 . S
C815 H818 0.950 . S
C816 C815 1.387 . S
C816 C819 1.387 . S
H817 C813 0.950 . S
H818 C815 0.950 . S
C819 C810 1.390 . S
C819 H812 0.950 . S
C819 C816 1.387 . S
C820 C821 1.387 . S
C820 H824 0.950 . S
C820 C829 1.390 . S
C821 C820 1.387 . S
C821 C823 1.387 . S
H822 C829 0.950 . S
C823 C821 1.387 . S
C823 C825 1.390 . S
C823 H827 0.950 . S
H824 C820 0.950 . S
C825 C823 1.390 . S
C825 C826 1.387 . S
C825 H828 0.950 . S
C826 C825 1.387 . S
C826 C829 1.387 . S
H827 C823 0.950 . S
H828 C825 0.950 . S
C829 C820 1.390 . S
C829 H822 0.950 . S
C829 C826 1.387 . S
C830 C831 1.387 . S
C830 H834 0.950 . S
C830 C839 1.390 . S
C831 C830 1.387 . S
C831 C833 1.387 . S
H832 C839 0.950 . S
C833 C831 1.387 . S
C833 C835 1.390 . S
C833 H837 0.950 . S
H834 C830 0.950 . S
C835 C833 1.390 . S
C835 C836 1.387 . S
C835 H838 0.950 . S
C836 C835 1.387 . S
C836 C839 1.387 . S
H837 C833 0.950 . S
H838 C835 0.950 . S
C839 C830 1.390 . S
C839 H832 0.950 . S
C839 C836 1.387 . S
C840 C841 1.387 . S
C840 H844 0.950 . S
C840 C849 1.390 . S
C841 C840 1.387 . S
C841 C843 1.387 . S
H842 C849 0.950 . S
C843 C841 1.387 . S
C843 C845 1.390 . S
C843 H847 0.950 . S
H844 C840 0.950 . S
C845 C843 1.390 . S
C845 C846 1.387 . S
C845 H848 0.950 . S
C846 C845 1.387 . S
C846 C849 1.387 . S
H847 C843 0.950 . S
H848 C845 0.950 . S
C849 C840 1.390 . S
C849 H842 0.950 . S
C849 C846 1.387 . S
C850 C851 1.387 . S
C850 H854 0.950 . S
C850 C859 1.390 . S
C851 C850 1.387 . S
C851 C853 1.387 1_565 S
H852 C859 0.950 . S
C853 C851 1.387 1_545 S
C853 C855 1.390 . S
C853 H857 0.950 . S
H854 C850 0.950 . S
C855 C853 1.390 . S
C855 C856 1.397 . S
C855 H858 0.950 . S
C856 C855 1.397 . S
C856 C859 1.377 1_545 S
H857 C853 0.950 . S
H858 C855 0.950 . S
C859 C850 1.390 . S
C859 H852 0.950 . S
C859 C856 1.377 1_565 S
C860 C861 1.387 . S
C860 H864 0.950 . S
C860 C869 1.390 . S
C861 C860 1.387 . S
C861 C863 1.387 . S
H862 C869 0.950 . S
C863 C861 1.387 . S
C863 C865 1.390 . S
C863 H867 0.950 . S
H864 C860 0.950 . S
C865 C863 1.390 . S
C865 C866 1.387 . S
C865 H868 0.950 . S
C866 C865 1.387 . S
C866 C869 1.387 . S
H867 C863 0.950 . S
H868 C865 0.950 . S
C869 C860 1.390 . S
C869 H862 0.950 . S
C869 C866 1.387 . S
C870 C871 1.387 . S
C870 H874 0.950 . S
C870 C879 1.390 1_545 S
C871 C870 1.387 . S
C871 C873 1.387 . S
H872 C879 0.950 . S
C873 C871 1.387 . S
C873 C875 1.390 1_545 S
C873 H877 0.950 . S
H874 C870 0.950 . S
C875 C873 1.390 1_565 S
C875 C876 1.387 . S
C875 H878 0.950 . S
C876 C875 1.387 . S
C876 C879 1.387 . S
H877 C873 0.950 . S
H878 C875 0.950 . S
C879 C870 1.390 1_565 S
C879 H872 0.950 . S
C879 C876 1.387 . S
C880 C881 1.387 . S
C880 H884 0.950 . S
C880 C889 1.390 . S
C881 C880 1.387 . S
C881 C883 1.387 . S
H882 C889 0.950 . S
C883 C881 1.387 . S
C883 C885 1.390 . S
C883 H887 0.950 . S
H884 C880 0.950 . S
C885 C883 1.390 . S
C885 C886 1.387 . S
C885 H888 0.950 . S
C886 C885 1.387 . S
C886 C889 1.387 . S
H887 C883 0.950 . S
H888 C885 0.950 . S
C889 C880 1.390 . S
C889 H882 0.950 . S
C889 C886 1.387 . S
C890 C891 1.387 . S
C890 H894 0.950 . S
C890 C899 1.390 . S
C891 C890 1.387 . S
C891 C893 1.387 1_556 S
H892 C899 0.950 . S
C893 C891 1.387 1_554 S
C893 C895 1.390 . S
C893 H897 0.950 . S
H894 C890 0.950 . S
C895 C893 1.390 . S
C895 C896 1.387 1_554 S
C895 H898 0.950 . S
C896 C895 1.387 1_556 S
C896 C899 1.387 . S
H897 C893 0.950 . S
H898 C895 0.950 . S
C899 C890 1.390 . S
C899 H892 0.950 . S
C899 C896 1.387 . S
C900 C901 1.387 . S
C900 H904 0.950 . S
C900 C909 1.390 . S
C901 C900 1.387 . S
C901 C903 1.373 1_556 S
H902 C909 0.950 . S
C903 C901 1.373 1_554 S
C903 C905 1.385 1_554 S
C903 H907 0.969 . S
H904 C900 0.950 . S
C905 C903 1.385 1_556 S
C905 C906 1.387 . S
C905 H908 0.950 1_556 S
C906 C905 1.387 . S
C906 C909 1.387 . S
H907 C903 0.969 . S
H908 C905 0.950 1_554 S
C909 C900 1.390 . S
C909 H902 0.950 . S
C909 C906 1.387 . S
C910 C911 1.387 1_556 S
C910 H914 0.950 . S
C910 C919 1.390 . S
C911 C910 1.387 1_554 S
C911 C913 1.387 . S
H912 C919 0.950 . S
C913 C911 1.387 . S
C913 C915 1.390 . S
C913 H917 0.950 . S
H914 C910 0.950 . S
C915 C913 1.390 . S
C915 C916 1.387 . S
C915 H918 0.950 . S
C916 C915 1.387 . S
C916 C919 1.387 1_554 S
H917 C913 0.950 . S
H918 C915 0.950 . S
C919 C910 1.390 . S
C919 H912 0.950 . S
C919 C916 1.387 1_556 S
C441 C13 1.626 . S
C446 C236 1.648 . S
C456 C299 1.822 1_455 S
C451 C1 1.837 . S
C466 C176 1.852 . S
C461 C27 1.840 . S
C471 C15 1.736 . S
C476 C210 1.720 . S
C481 C28 1.820 . S
C486 C414 1.803 1_554 S
C491 C55 1.156 . S
C496 C385 1.137 . S
C506 C308 2.025 . S
C501 C40 2.146 . S
C511 C43 1.427 . S
C516 C342 1.403 . S
C526 C231 1.935 . S
C521 C56 1.968 . S
C536 C274 1.365 . S
C531 C83 1.390 . S
C541 C96 1.958 . S
C546 C253 1.898 . S
C551 C71 1.577 . S
C556 C367 1.561 . S
C566 C372 1.651 . S
C561 C99 1.628 . S
C576 C435 1.823 . S
C571 C111 1.839 . S
C581 C113 1.841 . S
C586 C346 1.854 . S
C596 C312 1.719 . S
C591 C125 1.737 . S
C601 C139 1.822 . S
C606 C278 1.804 . S
C611 C153 1.158 . S
C616 C249 1.140 . S
C626 C206 2.026 . S
C621 C127 2.150 . S
C631 C141 1.427 . S
C636 C172 1.402 . S
C646 C333 1.934 . S
C641 C84 1.968 . S
C656 C410 1.364 1_554 S
C651 C154 1.386 1_556 S
C661 C68 1.958 . S
C666 C389 1.897 . S
C671 C166 1.576 . S
C676 C197 1.560 . S
C686 C181 1.210 . S
C681 C0 1.260 . S
C691 C12 1.194 . S
C696 C215 1.183 . S
C706 C240 1.069 . S
C701 C14 1.108 . S
C716 C287 1.929 . S
C711 C26 1.933 . S
C721 C41 1.627 . S
C726 C168 1.574 . S
C731 C42 1.474 . S
C736 C202 1.451 . S
C746 C244 1.608 . S
C741 C29 1.669 1_565 S
C751 C54 1.255 . S
C756 C283 1.148 . S
C761 C69 1.751 . S
C766 C185 1.687 . S
C776 C265 1.754 . S
C771 C70 1.816 . S
C781 C85 1.631 . S
C786 C270 1.628 . S
C791 C82 1.570 . S
C796 C321 1.534 . S
C806 C351 1.207 . S
C801 C110 1.259 . S
C811 C98 1.196 . S
C816 C317 1.187 . S
C821 C124 1.108 . S
C826 C376 1.066 . S
C831 C112 1.934 . S
C836 C423 1.929 . S
C841 C126 1.627 . S
C846 C338 1.573 . S
C856 C304 1.449 1_545 S
C851 C140 1.474 . S
C861 C138 1.670 . S
C866 C380 1.608 . S
C876 C419 1.148 . S
C871 C152 1.255 . S
C886 C355 1.687 . S
C881 C97 1.751 . S
C896 C401 1.756 . S
C891 C167 1.816 . S
C906 C406 1.629 . S
C901 C57 1.630 . S
C911 C155 1.569 . S
C916 C219 1.534 . S
