# Generated by pormake.
# Topology iac, (4,6)-cn, num edge types: 1
# Building blocks:
#     Node 0, Type 0, BuildingBlock: AZAVOO_clean_sbu_0, # of connection points: 4
#     Node 1, Type 0, BuildingBlock: AZAVOO_clean_sbu_0, # of connection points: 4
#     Node 2, Type 0, BuildingBlock: AZAVOO_clean_sbu_0, # of connection points: 4
#     Node 3, Type 0, BuildingBlock: AZAVOO_clean_sbu_0, # of connection points: 4
#     Node 4, Type 0, BuildingBlock: AZAVOO_clean_sbu_0, # of connection points: 4
#     Node 5, Type 0, BuildingBlock: AZAVOO_clean_sbu_0, # of connection points: 4
#     Node 6, Type 0, BuildingBlock: AZAVOO_clean_sbu_0, # of connection points: 4
#     Node 7, Type 0, BuildingBlock: AZAVOO_clean_sbu_0, # of connection points: 4
#     Node 8, Type 0, BuildingBlock: AZAVOO_clean_sbu_0, # of connection points: 4
#     Node 9, Type 0, BuildingBlock: AZAVOO_clean_sbu_0, # of connection points: 4
#     Node 10, Type 0, BuildingBlock: AZAVOO_clean_sbu_0, # of connection points: 4
#     Node 11, Type 0, BuildingBlock: AZAVOO_clean_sbu_0, # of connection points: 4
#     Node 12, Type 0, BuildingBlock: AZAVOO_clean_sbu_0, # of connection points: 4
#     Node 13, Type 0, BuildingBlock: AZAVOO_clean_sbu_0, # of connection points: 4
#     Node 14, Type 0, BuildingBlock: AZAVOO_clean_sbu_0, # of connection points: 4
#     Node 15, Type 0, BuildingBlock: AZAVOO_clean_sbu_0, # of connection points: 4
#     Node 16, Type 0, BuildingBlock: AZAVOO_clean_sbu_0, # of connection points: 4
#     Node 17, Type 0, BuildingBlock: AZAVOO_clean_sbu_0, # of connection points: 4
#     Node 18, Type 0, BuildingBlock: AZAVOO_clean_sbu_0, # of connection points: 4
#     Node 19, Type 0, BuildingBlock: AZAVOO_clean_sbu_0, # of connection points: 4
#     Node 20, Type 0, BuildingBlock: AZAVOO_clean_sbu_0, # of connection points: 4
#     Node 21, Type 0, BuildingBlock: AZAVOO_clean_sbu_0, # of connection points: 4
#     Node 22, Type 0, BuildingBlock: AZAVOO_clean_sbu_0, # of connection points: 4
#     Node 23, Type 0, BuildingBlock: AZAVOO_clean_sbu_0, # of connection points: 4
#     Node 24, Type 1, BuildingBlock: CIFDUS_clean_sbu_1, # of connection points: 6
#     Node 25, Type 1, BuildingBlock: CIFDUS_clean_sbu_1, # of connection points: 6
#     Node 26, Type 1, BuildingBlock: CIFDUS_clean_sbu_1, # of connection points: 6
#     Node 27, Type 1, BuildingBlock: CIFDUS_clean_sbu_1, # of connection points: 6
#     Node 28, Type 1, BuildingBlock: CIFDUS_clean_sbu_1, # of connection points: 6
#     Node 29, Type 1, BuildingBlock: CIFDUS_clean_sbu_1, # of connection points: 6
#     Node 30, Type 1, BuildingBlock: CIFDUS_clean_sbu_1, # of connection points: 6
#     Node 31, Type 1, BuildingBlock: CIFDUS_clean_sbu_1, # of connection points: 6
#     Node 32, Type 1, BuildingBlock: CIFDUS_clean_sbu_1, # of connection points: 6
#     Node 33, Type 1, BuildingBlock: CIFDUS_clean_sbu_1, # of connection points: 6
#     Node 34, Type 1, BuildingBlock: CIFDUS_clean_sbu_1, # of connection points: 6
#     Node 35, Type 1, BuildingBlock: CIFDUS_clean_sbu_1, # of connection points: 6
#     Node 36, Type 1, BuildingBlock: CIFDUS_clean_sbu_1, # of connection points: 6
#     Node 37, Type 1, BuildingBlock: CIFDUS_clean_sbu_1, # of connection points: 6
#     Node 38, Type 1, BuildingBlock: CIFDUS_clean_sbu_1, # of connection points: 6
#     Node 39, Type 1, BuildingBlock: CIFDUS_clean_sbu_1, # of connection points: 6
#     Edge 40, Type (0, 1), None
#     Edge 41, Type (0, 1), None
#     Edge 42, Type (0, 1), None
#     Edge 43, Type (0, 1), None
#     Edge 44, Type (0, 1), None
#     Edge 45, Type (0, 1), None
#     Edge 46, Type (0, 1), None
#     Edge 47, Type (0, 1), None
#     Edge 48, Type (0, 1), None
#     Edge 49, Type (0, 1), None
#     Edge 50, Type (0, 1), None
#     Edge 51, Type (0, 1), None
#     Edge 52, Type (0, 1), None
#     Edge 53, Type (0, 1), None
#     Edge 54, Type (0, 1), None
#     Edge 55, Type (0, 1), None
#     Edge 56, Type (0, 1), None
#     Edge 57, Type (0, 1), None
#     Edge 58, Type (0, 1), None
#     Edge 59, Type (0, 1), None
#     Edge 60, Type (0, 1), None
#     Edge 61, Type (0, 1), None
#     Edge 62, Type (0, 1), None
#     Edge 63, Type (0, 1), None
#     Edge 64, Type (0, 1), None
#     Edge 65, Type (0, 1), None
#     Edge 66, Type (0, 1), None
#     Edge 67, Type (0, 1), None
#     Edge 68, Type (0, 1), None
#     Edge 69, Type (0, 1), None
#     Edge 70, Type (0, 1), None
#     Edge 71, Type (0, 1), None
#     Edge 72, Type (0, 1), None
#     Edge 73, Type (0, 1), None
#     Edge 74, Type (0, 1), None
#     Edge 75, Type (0, 1), None
#     Edge 76, Type (0, 1), None
#     Edge 77, Type (0, 1), None
#     Edge 78, Type (0, 1), None
#     Edge 79, Type (0, 1), None
#     Edge 80, Type (0, 1), None
#     Edge 81, Type (0, 1), None
#     Edge 82, Type (0, 1), None
#     Edge 83, Type (0, 1), None
#     Edge 84, Type (0, 1), None
#     Edge 85, Type (0, 1), None
#     Edge 86, Type (0, 1), None
#     Edge 87, Type (0, 1), None
#     Edge 88, Type (0, 1), None
#     Edge 89, Type (0, 1), None
#     Edge 90, Type (0, 1), None
#     Edge 91, Type (0, 1), None
#     Edge 92, Type (0, 1), None
#     Edge 93, Type (0, 1), None
#     Edge 94, Type (0, 1), None
#     Edge 95, Type (0, 1), None
#     Edge 96, Type (0, 1), None
#     Edge 97, Type (0, 1), None
#     Edge 98, Type (0, 1), None
#     Edge 99, Type (0, 1), None
#     Edge 100, Type (0, 1), None
#     Edge 101, Type (0, 1), None
#     Edge 102, Type (0, 1), None
#     Edge 103, Type (0, 1), None
#     Edge 104, Type (0, 1), None
#     Edge 105, Type (0, 1), None
#     Edge 106, Type (0, 1), None
#     Edge 107, Type (0, 1), None
#     Edge 108, Type (0, 1), None
#     Edge 109, Type (0, 1), None
#     Edge 110, Type (0, 1), None
#     Edge 111, Type (0, 1), None
#     Edge 112, Type (0, 1), None
#     Edge 113, Type (0, 1), None
#     Edge 114, Type (0, 1), None
#     Edge 115, Type (0, 1), None
#     Edge 116, Type (0, 1), None
#     Edge 117, Type (0, 1), None
#     Edge 118, Type (0, 1), None
#     Edge 119, Type (0, 1), None
#     Edge 120, Type (0, 1), None
#     Edge 121, Type (0, 1), None
#     Edge 122, Type (0, 1), None
#     Edge 123, Type (0, 1), None
#     Edge 124, Type (0, 1), None
#     Edge 125, Type (0, 1), None
#     Edge 126, Type (0, 1), None
#     Edge 127, Type (0, 1), None
#     Edge 128, Type (0, 1), None
#     Edge 129, Type (0, 1), None
#     Edge 130, Type (0, 1), None
#     Edge 131, Type (0, 1), None
#     Edge 132, Type (0, 1), None
#     Edge 133, Type (0, 1), None
#     Edge 134, Type (0, 1), None
#     Edge 135, Type (0, 1), None
# Relax obj value: 0.135
# Max RMSD: 0.177
# Mean RMSD: 0.151
data_MOF--net-iac--node1-AZAVOO_clean_sbu_0--node2-CIFDUS_clean_sbu_1--edge1-none
_symmetry_space_group_name_H-M    P1
_symmetry_Int_Tables_number       1
_symmetry_cell_setting            triclinic
loop_
_symmetry_equiv_pos_as_xyz
'x, y, z'
_cell_length_a     26.296817
_cell_length_b     24.126395
_cell_length_c     25.168852
_cell_angle_alpha  92.47329
_cell_angle_beta   89.473657
_cell_angle_gamma 91.021406
loop_
_atom_site_label
_atom_site_type_symbol
_atom_site_fract_x
_atom_site_fract_y
_atom_site_fract_z
_atom_type_partial_charge
Mg0 Mg 0.00347 0.25477 0.15746 0.0
O1 O 0.006 0.16629 0.10632 0.0
O2 O 0.94201 0.21394 0.08814 0.0
Mg3 Mg 0.88335 0.27696 0.08589 0.0
C4 C 0.96632 0.17027 0.07871 0.0
C5 C 0.10203 0.27941 0.21936 0.0
O6 O 0.06937 0.30488 0.25128 0.0
O7 O 0.02223 0.30448 0.08313 0.0
O8 O 0.94872 0.3357 0.05328 0.0
O9 O 0.96294 0.21747 0.22496 0.0
O10 O 0.9208 0.25721 0.16236 0.0
C11 C -0.00273 0.33551 0.0531 0.0
C12 C 0.91943 0.23016 0.20566 0.0
O13 O 0.08656 0.25288 0.17762 0.0
Mg14 Mg 0.00095 0.75485 0.33483 0.0
O15 O 0.00118 0.82487 0.39856 0.0
O16 O 0.93236 0.80714 0.44847 0.0
Mg17 Mg 0.88833 0.73406 0.41271 0.0
C18 C 0.97183 0.83609 0.43797 0.0
C19 C 0.09651 0.72894 0.2853 0.0
O20 O 0.06345 0.69051 0.2692 0.0
O21 O 0.02382 0.69269 0.3955 0.0
O22 O 0.95158 0.67685 0.43953 0.0
O23 O 0.96012 0.80673 0.28083 0.0
O24 O 0.92376 0.7489 0.33632 0.0
C25 C -0.00137 0.66791 0.43122 0.0
C26 C 0.91907 0.78573 0.30124 0.0
O27 O 0.08159 0.76938 0.31477 0.0
Mg28 Mg 0.50349 0.7548 0.65758 0.0
O29 O 0.50579 0.6665 0.60626 0.0
O30 O 0.4416 0.71389 0.58794 0.0
Mg31 Mg 0.38336 0.77753 0.58657 0.0
C32 C 0.46614 0.67035 0.57857 0.0
C33 C 0.60204 0.77938 0.71928 0.0
O34 O 0.56937 0.80492 0.75113 0.0
O35 O 0.5222 0.80454 0.58327 0.0
O36 O 0.44871 0.8361 0.55373 0.0
O37 O 0.46315 0.71721 0.72509 0.0
O38 O 0.42094 0.75736 0.66276 0.0
C39 C 0.49726 0.83569 0.55333 0.0
C40 C 0.41963 0.72999 0.70586 0.0
O41 O 0.58659 0.75278 0.67758 0.0
Mg42 Mg 0.50097 0.25487 0.83489 0.0
O43 O 0.50117 0.3249 0.8986 0.0
O44 O 0.43233 0.30717 0.94849 0.0
Mg45 Mg 0.38833 0.23407 0.91272 0.0
C46 C 0.4718 0.33612 0.93799 0.0
C47 C 0.59651 0.22895 0.78541 0.0
O48 O 0.56344 0.19051 0.76934 0.0
O49 O 0.52382 0.19273 0.89557 0.0
O50 O 0.45157 0.17688 0.93957 0.0
O51 O 0.46017 0.30676 0.78088 0.0
O52 O 0.42379 0.24892 0.83635 0.0
C53 C 0.49863 0.16795 0.93128 0.0
C54 C 0.41912 0.28576 0.80128 0.0
O55 O 0.5816 0.26941 0.81485 0.0
Mg56 Mg 0.10673 0.99287 0.26599 0.0
O57 O 0.16724 0.06872 0.27495 0.0
O58 O 0.20469 0.03884 0.34749 0.0
Mg59 Mg 0.16749 0.96374 0.38644 0.0
C60 C 0.2023 0.07339 0.31035 0.0
C61 C 0.04984 0.98079 0.16351 0.0
O62 O 0.01547 0.96619 0.19866 0.0
O63 O 0.1706 0.93606 0.24627 0.0
O64 O 0.20465 0.90511 0.31928 0.0
O65 O 0.04423 0.04016 0.29946 0.0
O66 O 0.0963 -0.00584 0.34919 0.0
C67 C 0.20129 0.90493 0.2687 0.0
C68 C 0.05744 0.02657 0.34635 0.0
O69 O 0.09365 -0.00231 0.17872 0.0
Mg70 Mg 0.25339 0.91831 0.50006 0.0
O71 O 0.25172 0.85018 0.43407 0.0
O72 O 0.3182 0.79689 0.44951 0.0
Mg73 Mg 0.36224 0.83581 0.5174 0.0
C74 C 0.27915 0.80814 0.42308 0.0
C75 C 0.15754 0.96632 0.52843 0.0
O76 O 0.18965 0.98406 0.56529 0.0
O77 O 0.22701 0.85837 0.56091 0.0
O78 O 0.29757 0.8129 0.57623 0.0
O79 O 0.29687 0.97405 0.44951 0.0
O80 O 0.33107 0.91757 0.50556 0.0
C81 C 0.25108 0.82305 0.58633 0.0
C82 C 0.33722 0.95491 0.47095 0.0
O83 O 0.17327 0.93742 0.48865 0.0
Mg84 Mg 0.4084 0.00363 0.76773 0.0
O85 O 0.34886 0.93466 0.76587 0.0
O86 O 0.29616 0.95557 0.83359 0.0
Mg87 Mg 0.3311 0.02744 0.88406 0.0
C88 C 0.30887 0.92534 0.793 0.0
C89 C 0.45353 0.02471 0.66464 0.0
O90 O 0.47221 0.06344 0.69752 0.0
O91 O 0.35154 0.06702 0.74519 0.0
O92 O 0.30923 0.08978 0.8198 0.0
O93 O 0.46039 0.95124 0.80831 0.0
O94 O 0.40873 0.0111 0.84985 0.0
C95 C 0.31897 0.09637 0.77057 0.0
C96 C 0.44366 0.97409 0.85247 0.0
O97 O 0.42418 0.98747 0.68208 0.0
Mg98 Mg 0.25669 0.09367 -0.00701 0.0
O99 O 0.25252 0.1571 0.06711 0.0
O100 O 0.32902 0.1978 0.07411 0.0
Mg101 Mg 0.36878 0.17709 -0.00414 0.0
C102 C 0.28502 0.1876 0.09306 0.0
C103 C 0.14474 0.05879 0.96195 0.0
O104 O 0.16702 0.05314 0.91516 0.0
O105 O 0.23965 0.15727 0.93287 0.0
O106 O 0.30316 0.2174 0.94579 0.0
O107 O 0.29003 0.03531 0.04565 0.0
O108 O 0.33894 0.08968 -0.0025 0.0
C109 C 0.26204 0.20238 0.92227 0.0
C110 C 0.33516 0.05344 0.03412 0.0
O111 O 0.17107 0.07734 0.00118 0.0
Mg112 Mg 0.75336 0.41837 4e-05 0.0
O113 O 0.75174 0.35026 0.93403 0.0
O114 O 0.81819 0.29696 0.94959 0.0
Mg115 Mg 0.86222 0.336 0.01745 0.0
C116 C 0.77918 0.3082 0.9231 0.0
C117 C 0.65753 0.46629 0.02842 0.0
O118 O 0.68965 0.48404 0.06526 0.0
O119 O 0.72699 0.35838 0.06087 0.0
O120 O 0.79761 0.31307 0.07632 0.0
O121 O 0.79683 0.47417 0.94951 0.0
O122 O 0.83102 0.41768 0.00556 0.0
C123 C 0.75109 0.32313 0.08636 0.0
C124 C 0.83718 0.45501 0.97094 0.0
O125 O 0.67324 0.43742 0.98862 0.0
Mg126 Mg 0.90836 0.50363 0.26772 0.0
O127 O 0.84884 0.43465 0.26586 0.0
O128 O 0.79616 0.45553 0.33361 0.0
Mg129 Mg 0.83109 0.52741 0.38407 0.0
C130 C 0.80887 0.4253 0.29301 0.0
C131 C 0.95351 0.52471 0.16459 0.0
O132 O 0.97223 0.56341 0.19747 0.0
O133 O 0.85148 0.567 0.2452 0.0
O134 O 0.80917 0.58975 0.31982 0.0
O135 O 0.96038 0.45124 0.30828 0.0
O136 O 0.90871 0.51109 0.34984 0.0
C137 C 0.8189 0.59634 0.27058 0.0
C138 C 0.94365 0.47407 0.35245 0.0
O139 O 0.92413 0.48749 0.18205 0.0
Mg140 Mg 0.75669 0.59364 0.49304 0.0
O141 O 0.75255 0.65706 0.56718 0.0
O142 O 0.82903 0.69783 0.57408 0.0
Mg143 Mg 0.86879 0.67706 0.49585 0.0
C144 C 0.78505 0.6876 0.59308 0.0
C145 C 0.64478 0.55872 0.46196 0.0
O146 O 0.66709 0.55307 0.41519 0.0
O147 O 0.73962 0.65728 0.43296 0.0
O148 O 0.80318 0.71737 0.44577 0.0
O149 O 0.79005 0.53526 0.54567 0.0
O150 O 0.83894 0.58965 0.49754 0.0
C151 C 0.76202 0.70237 0.42231 0.0
C152 C 0.83518 0.5534 0.53414 0.0
O153 O 0.67107 0.57728 0.50121 0.0
Mg154 Mg 0.6067 0.49289 0.766 0.0
O155 O 0.6672 0.56875 0.77497 0.0
O156 O 0.70467 0.53881 0.84748 0.0
Mg157 Mg 0.66747 0.46371 0.88642 0.0
C158 C 0.70227 0.57339 0.81036 0.0
C159 C 0.54982 0.48083 0.6635 0.0
O160 O 0.51545 0.46623 0.69864 0.0
O161 O 0.6706 0.4361 0.74624 0.0
O162 O 0.7046 0.40507 0.81925 0.0
O163 O 0.54419 0.54017 0.79949 0.0
O164 O 0.59628 0.49417 0.8492 0.0
C165 C 0.70127 0.40494 0.76866 0.0
C166 C 0.55741 0.52658 0.84638 0.0
O167 O 0.59363 0.49774 0.67872 0.0
Mg168 Mg 0.00861 0.71791 0.85457 0.0
O169 O 0.01114 0.80003 0.90435 0.0
O170 O 0.94249 0.83192 0.94607 0.0
Mg171 Mg 0.90992 0.74383 0.95395 0.0
C172 C -0.01115 0.83779 0.93226 0.0
C173 C 0.11435 0.73693 0.78934 0.0
O174 O 0.10168 0.69479 0.7572 0.0
O175 O 0.03408 0.66362 0.92478 0.0
O176 O -0.00674 0.72595 0.97033 0.0
O177 O 0.95009 0.74997 0.79555 0.0
O178 O 0.93039 0.71058 0.87043 0.0
C179 C 0.00765 0.67639 0.96594 0.0
C180 C 0.91558 0.73114 0.82731 0.0
O181 O 0.08734 0.74767 0.83019 0.0
Mg182 Mg 0.00948 0.28232 0.65798 0.0
O183 O 0.0141 0.19858 0.61509 0.0
O184 O 0.94364 0.18582 0.56733 0.0
Mg185 Mg 0.89222 0.26038 0.57986 0.0
C186 C -0.01284 0.17023 0.58218 0.0
C187 C 0.09161 0.26789 0.72975 0.0
O188 O 0.05169 0.2881 0.75499 0.0
O189 O 0.02293 0.32304 0.57818 0.0
O190 O 0.95288 0.3026 0.53205 0.0
O191 O 0.9547 0.25588 0.72774 0.0
O192 O 0.93301 0.28744 0.65139 0.0
C193 C -0.01383 0.33767 0.54892 0.0
C194 C 0.91951 0.27269 0.69725 0.0
O195 O 0.0919 0.26712 0.67946 0.0
Mg196 Mg 0.50869 0.21787 0.35455 0.0
O197 O 0.5112 0.3 0.40434 0.0
O198 O 0.44251 0.33187 0.44602 0.0
Mg199 Mg 0.4099 0.2438 0.45386 0.0
C200 C 0.48888 0.33775 0.43224 0.0
C201 C 0.61429 0.23688 0.28918 0.0
O202 O 0.60124 0.19503 0.25685 0.0
O203 O 0.53404 0.16355 0.42478 0.0
O204 O 0.49322 0.22591 0.47029 0.0
O205 O 0.45017 0.24991 0.29547 0.0
O206 O 0.43044 0.21057 0.37036 0.0
C207 C 0.5076 0.17635 0.46594 0.0
C208 C 0.41564 0.23111 0.32723 0.0
O209 O 0.58753 0.24747 0.33025 0.0
Mg210 Mg 0.50947 0.78244 0.15796 0.0
O211 O 0.51424 0.69861 0.11519 0.0
O212 O 0.44381 0.68581 0.06739 0.0
Mg213 Mg 0.39219 0.76015 0.07994 0.0
C214 C 0.48733 0.67025 0.08225 0.0
C215 C 0.59146 0.76748 0.22984 0.0
O216 O 0.55127 0.78684 0.25521 0.0
O217 O 0.52274 0.82296 0.07802 0.0
O218 O 0.45255 0.80272 0.032 0.0
O219 O 0.45473 0.75604 0.22779 0.0
O220 O 0.433 0.78738 0.15137 0.0
C221 C 0.48597 0.83768 0.0488 0.0
C222 C 0.41952 0.77272 0.19726 0.0
O223 O 0.59193 0.76755 0.17958 0.0
Mg224 Mg 0.89385 0.03549 0.7461 0.0
O225 O 0.85048 0.95061 0.73725 0.0
O226 O 0.81411 0.91631 0.80908 0.0
Mg227 Mg 0.80596 0.00201 0.85241 0.0
C228 C 0.82646 0.91152 0.76001 0.0
C229 C 0.96227 0.02003 0.65148 0.0
O230 O -0.00698 0.04245 0.68745 0.0
O231 O 0.82634 0.08969 0.72442 0.0
O232 O 0.78913 0.02628 0.76875 0.0
O233 O 0.95511 0.00162 0.79956 0.0
O234 O 0.88324 0.03756 0.82929 0.0
C235 C 0.79071 0.0761 0.75551 0.0
C236 C 0.92718 0.01868 0.83936 0.0
O237 O 0.91514 0.02155 0.6605 0.0
Mg238 Mg 0.75372 0.11002 0.4843 0.0
O239 O 0.75071 0.15083 0.57013 0.0
O240 O 0.80104 0.2243 0.55727 0.0
Mg241 Mg 0.86504 0.20273 0.49792 0.0
C242 C 0.7667 0.19949 0.58382 0.0
C243 C 0.66555 0.04244 0.51786 0.0
O244 O 0.70742 0.01561 0.52681 0.0
O245 O 0.74011 0.18985 0.43915 0.0
O246 O 0.81902 0.22367 0.42822 0.0
O247 O 0.81093 0.03719 0.49906 0.0
O248 O 0.83106 0.12113 0.47948 0.0
C249 C 0.77392 0.21515 0.41162 0.0
C250 C 0.84573 0.07237 0.48615 0.0
O251 O 0.66949 0.08768 0.4944 0.0
Mg252 Mg 0.61361 0.99233 0.26195 0.0
O253 O 0.64909 0.07448 0.23508 0.0
O254 O 0.70728 0.08294 0.29989 0.0
Mg255 Mg 0.68749 0.04321 0.37717 0.0
C256 C 0.69137 0.09347 0.25371 0.0
C257 C 0.56345 0.96635 0.13992 0.0
O258 O 0.56624 0.92734 0.10253 0.0
O259 O 0.69407 0.9553 0.2557 0.0
O260 O 0.71694 0.9644 0.34061 0.0
O261 O 0.53931 0.0103 0.30407 0.0
O262 O 0.6154 0.02173 0.33892 0.0
C263 C 0.71815 0.93823 0.29562 0.0
C264 C 0.56803 0.01128 0.34551 0.0
O265 O 0.591 0.96075 0.18041 0.0
Mg266 Mg 0.73625 0.89619 0.04782 0.0
O267 O 0.72887 0.83938 0.96787 0.0
O268 O 0.80699 0.8178 0.94061 0.0
Mg269 Mg 0.84387 0.8124 0.02258 0.0
C270 C 0.75939 0.82051 0.93176 0.0
C271 C 0.63968 0.96734 0.03265 0.0
O272 O 0.66688 0.00325 0.06146 0.0
O273 O 0.71776 0.8266 0.10844 0.0
O274 O 0.76409 0.78768 0.04796 0.0
O275 O 0.77939 0.96041 0.00503 0.0
O276 O 0.82202 0.89952 0.04888 0.0
C277 C 0.74877 0.78865 0.0957 0.0
C278 C 0.82271 0.9431 0.0209 0.0
O279 O 0.65371 0.9171 0.02927 0.0
Mg280 Mg 0.25374 0.61003 0.98432 0.0
O281 O 0.25077 0.65086 0.07015 0.0
O282 O 0.30108 0.72433 0.05722 0.0
Mg283 Mg 0.36508 0.70274 -0.00212 0.0
C284 C 0.26675 0.69953 0.08379 0.0
C285 C 0.16556 0.54244 0.01789 0.0
O286 O 0.20742 0.51559 0.02683 0.0
O287 O 0.24012 0.68987 0.9392 0.0
O288 O 0.31903 0.72369 0.92822 0.0
O289 O 0.31096 0.53722 -0.00092 0.0
O290 O 0.33108 0.62115 0.97946 0.0
C291 C 0.27393 0.71516 0.91165 0.0
C292 C 0.34575 0.5724 0.98616 0.0
O293 O 0.16951 0.58769 -0.00555 0.0
Mg294 Mg 0.11368 0.49238 0.76196 0.0
O295 O 0.1492 0.57451 0.73508 0.0
O296 O 0.20739 0.58294 0.79989 0.0
Mg297 Mg 0.18757 0.54325 0.87717 0.0
C298 C 0.1915 0.59345 0.75369 0.0
C299 C 0.06352 0.46642 0.63992 0.0
O300 O 0.06633 0.42742 0.60252 0.0
O301 O 0.19413 0.45533 0.7557 0.0
O302 O 0.21703 0.46445 0.84061 0.0
O303 O 0.03938 0.51037 0.80407 0.0
O304 O 0.11547 0.52177 0.83892 0.0
C305 C 0.21824 0.43828 0.79562 0.0
C306 C 0.06809 0.51134 0.84551 0.0
O307 O 0.09106 0.46083 0.68042 0.0
Mg308 Mg 0.23627 0.39621 0.54781 0.0
O309 O 0.22892 0.33938 0.46786 0.0
O310 O 0.30705 0.31783 0.4406 0.0
Mg311 Mg 0.34395 0.31246 0.52257 0.0
C312 C 0.25944 0.32052 0.43175 0.0
C313 C 0.13973 0.46736 0.5326 0.0
O314 O 0.16698 0.50328 0.56133 0.0
O315 O 0.21782 0.3266 0.60844 0.0
O316 O 0.26418 0.28771 0.54795 0.0
O317 O 0.2794 0.46045 0.50503 0.0
O318 O 0.32203 0.39955 0.54886 0.0
C319 C 0.24886 0.28868 0.59569 0.0
C320 C 0.32272 0.44313 0.52089 0.0
O321 O 0.15372 0.4171 0.52926 0.0
Mg322 Mg 0.39388 0.53545 0.24608 0.0
O323 O 0.35049 0.45058 0.23718 0.0
O324 O 0.31414 0.41628 0.30902 0.0
Mg325 Mg 0.30601 0.50195 0.3524 0.0
C326 C 0.32647 0.41149 0.25994 0.0
C327 C 0.46231 0.52004 0.1515 0.0
O328 O 0.49304 0.54241 0.18752 0.0
O329 O 0.32639 0.58968 0.22442 0.0
O330 O 0.28919 0.52626 0.26876 0.0
O331 O 0.45515 0.50154 0.29949 0.0
O332 O 0.38329 0.53746 0.32926 0.0
C333 C 0.29076 0.57609 0.25552 0.0
C334 C 0.42722 0.51856 0.33931 0.0
O335 O 0.41517 0.5216 0.16047 0.0
O336 O 0.0578 0.03679 0.98338 0.0
Mn337 Mn -0.01302 -0.00106 0.00301 0.0
O338 O 0.11706 0.97063 0.98057 0.0
Mn339 Mn 0.07612 0.91955 0.01266 0.0
O340 O 0.91483 0.96165 0.02132 0.0
O341 O 0.96279 0.07916 0.02593 0.0
Mn342 Mn 0.91076 0.07858 0.98103 0.0
O343 O 0.96529 -0.00274 0.92206 0.0
O344 O 0.86112 0.02569 -0.00512 0.0
O345 O 0.00943 -0.00451 0.08212 0.0
O346 O 0.07029 0.93118 0.08537 0.0
O347 O 0.90531 0.14489 0.0139 0.0
O348 O 0.93216 0.07913 0.91204 0.0
C349 C 0.02303 0.87246 0.9658 0.0
C350 C 0.10345 0.02 0.97416 0.0
C351 C 0.86926 0.97789 0.01194 0.0
C352 C 0.94542 0.12929 0.03839 0.0
C353 C 0.94752 0.03363 0.89221 0.0
C354 C 0.04172 0.96758 0.1074 0.0
O355 O 0.01472 0.92256 0.98436 0.0
O356 O 0.06616 0.85203 0.97904 0.0
O357 O 0.34023 0.75205 0.24465 0.0
Mn358 Mn 0.26036 0.74696 0.25664 0.0
O359 O 0.34511 0.81504 0.18031 0.0
Mn360 Mn 0.27796 0.83163 0.17084 0.0
O361 O 0.18205 0.74424 0.26402 0.0
O362 O 0.2645 0.66905 0.2846 0.0
Mn363 Mn 0.22627 0.6691 0.34324 0.0
O364 O 0.26732 0.78415 0.33252 0.0
O365 O 0.16055 0.6795 0.322 0.0
O366 O 0.25651 0.71065 0.1782 0.0
O367 O 0.24332 0.78165 0.12641 0.0
O368 O 0.25062 0.59957 0.33751 0.0
O369 O 0.25177 0.72026 0.39287 0.0
C370 C 0.23744 0.87605 0.23239 0.0
C371 C 0.36545 0.78055 0.21051 0.0
C372 C 0.14922 0.71491 0.28842 0.0
C373 C 0.27068 0.61698 0.29388 0.0
C374 C 0.2643 0.76905 0.38053 0.0
C375 C 0.24834 0.73005 0.13215 0.0
O376 O 0.25156 0.825 0.23384 0.0
O377 O 0.25141 0.89986 0.18943 0.0
O378 O 0.42533 0.96984 0.48784 0.0
Mn379 Mn 0.49955 0.00283 0.49904 0.0
O380 O 0.37553 0.04119 0.47548 0.0
Mn381 Mn 0.41652 0.08373 0.51995 0.0
O382 O 0.57496 0.03462 0.5085 0.0
O383 O 0.51956 0.9213 0.5065 0.0
Mn384 Mn 0.58155 0.91994 0.47947 0.0
O385 O 0.51207 0.00075 0.41854 0.0
O386 O 0.62009 0.96113 0.52687 0.0
O387 O 0.48773 0.00784 0.57971 0.0
O388 O 0.42087 0.06447 0.59024 0.0
O389 O 0.56855 0.84824 0.49543 0.0
O390 O 0.58318 0.95064 0.41266 0.0
C391 C 0.4708 0.13614 0.48662 0.0
C392 C 0.38309 0.98969 0.47302 0.0
C393 C 0.61675 0.01281 0.52268 0.0
C394 C 0.527 0.86891 0.51534 0.0
C395 C 0.55238 0.98528 0.39426 0.0
C396 C 0.45451 0.03317 0.60842 0.0
O397 O 0.47888 0.08362 0.49276 0.0
O398 O 0.42744 0.15468 0.50381 0.0
O399 O 0.33036 0.2714 0.79435 0.0
Mn400 Mn 0.2556 0.26106 0.76643 0.0
O401 O 0.37593 0.2905 0.72324 0.0
Mn402 Mn 0.33665 0.23855 0.68683 0.0
O403 O 0.18053 0.25408 0.73905 0.0
O404 O 0.23532 0.25454 0.84494 0.0
Mn405 Mn 0.17803 0.2898 0.85482 0.0
O406 O 0.24594 0.347 0.76969 0.0
O407 O 0.12965 0.25763 0.81094 0.0
O408 O 0.2667 0.17592 0.76523 0.0
O409 O 0.33628 0.16769 0.71318 0.0
O410 O 0.1918 0.26276 0.91969 0.0
O411 O 0.19248 0.36178 0.83955 0.0
C412 C 0.28372 0.26741 0.63512 0.0
C413 C 0.37149 0.28932 0.77302 0.0
C414 C 0.13628 0.25532 0.76095 0.0
C415 C 0.23136 0.24288 0.89508 0.0
C416 C 0.21999 0.37884 0.80145 0.0
C417 C 0.30436 0.14805 0.74625 0.0
O418 O 0.27415 0.26432 0.68628 0.0
O419 O 0.32694 0.24865 0.6176 0.0
O420 O -0.00462 0.92884 0.46277 0.0
Mn421 Mn -0.00051 0.00538 0.50544 0.0
O422 O -0.0104 0.86348 0.52513 0.0
Mn423 Mn 0.0195 0.90606 0.5793 0.0
O424 O -0.00141 0.07836 0.5529 0.0
O425 O 0.0198 0.04242 0.43652 0.0
Mn426 Mn -0.00555 0.10936 0.44662 0.0
O427 O 0.92157 0.01802 0.49506 0.0
O428 O 0.02607 0.14547 0.50309 0.0
O429 O 0.07589 -0.00299 0.51557 0.0
O430 O 0.08739 0.92464 0.56736 0.0
O431 O 0.02303 0.11057 0.381 0.0
O432 O 0.92484 0.10069 0.45632 0.0
C433 C 0.9795 0.97102 0.62201 0.0
C434 C -0.01308 0.87877 0.47723 0.0
C435 C 0.01206 0.12874 0.54782 0.0
C436 C 0.03509 0.06015 0.39063 0.0
C437 C 0.90023 0.06156 0.47836 0.0
C438 C 0.10401 0.96442 0.54006 0.0
O439 O 0.98517 0.96674 0.57165 0.0
O440 O -0.0063 0.92781 0.64605 0.0
O441 O 0.29123 0.83381 0.75936 0.0
Mn442 Mn 0.25611 0.75633 0.74469 0.0
O443 O 0.22707 0.89462 0.76987 0.0
Mn444 Mn 0.17994 0.8528 0.73003 0.0
O445 O 0.21513 0.68201 0.73383 0.0
O446 O 0.32849 0.72276 0.73347 0.0
Mn447 Mn 0.31498 0.65716 0.76214 0.0
O448 O 0.25652 0.7459 0.82596 0.0
O449 O 0.26987 0.61551 0.72106 0.0
O450 O 0.25438 0.77243 0.66452 0.0
O451 O 0.19714 0.84116 0.65841 0.0
O452 O 0.38082 0.65217 0.74422 0.0
O453 O 0.2981 0.66693 0.8339 0.0
C454 C 0.14089 0.78479 0.7676 0.0
C455 C 0.27371 0.88169 0.77386 0.0
C456 C 0.2244 0.63094 0.7247 0.0
C457 C 0.37397 0.70115 0.7266 0.0
C458 C 0.27275 0.70734 0.85393 0.0
C459 C 0.2304 0.80812 0.63807 0.0
O460 O 0.18783 0.78734 0.75452 0.0
O461 O 0.11711 0.82949 0.75778 0.0
O462 O 0.46094 -0.00546 0.94332 0.0
Mn463 Mn 0.49569 0.01393 0.01608 0.0
O464 O 0.5247 0.97183 0.88721 0.0
Mn465 Mn 0.57186 0.01901 0.92083 0.0
O466 O 0.53096 0.03495 0.08835 0.0
O467 O 0.42444 0.02438 0.0498 0.0
Mn468 Mn 0.42911 0.98344 0.10841 0.0
O469 O 0.49684 0.93069 0.02999 0.0
O470 O 0.48325 0.00444 0.15335 0.0
O471 O 0.49746 0.09553 -0.00756 0.0
O472 O 0.55325 0.09337 0.92257 0.0
O473 O 0.36616 0.01345 0.11205 0.0
O474 O 0.43449 0.90919 0.08615 0.0
C475 C 0.61226 0.98799 0.98726 0.0
C476 C 0.47744 0.97537 0.89822 0.0
C477 C 0.52728 0.01188 0.13316 0.0
C478 C 0.37776 0.03341 0.06639 0.0
C479 C 0.47034 0.89527 0.05434 0.0
C480 C 0.52006 0.11782 0.95255 0.0
O481 O 0.56548 0.00238 0.98699 0.0
O482 O 0.63504 -0.00576 0.94224 0.0
O483 O 0.33967 0.23879 0.27336 0.0
Mn484 Mn 0.26097 0.24914 0.26347 0.0
O485 O 0.33392 0.21522 0.35646 0.0
Mn486 Mn 0.26664 0.19397 0.35171 0.0
O487 O 0.18331 0.26066 0.25217 0.0
O488 O 0.2792 0.32456 0.23395 0.0
Mn489 Mn 0.24332 0.32932 0.1748 0.0
O490 O 0.26721 0.20862 0.18626 0.0
O491 O 0.17495 0.32603 0.192 0.0
O492 O 0.25819 0.29498 0.33895 0.0
O493 O 0.22634 0.23779 0.39504 0.0
O494 O 0.27971 0.39416 0.18067 0.0
O495 O 0.26346 0.27493 0.12632 0.0
C496 C 0.23726 0.12289 0.3182 0.0
C497 C 0.36046 0.2308 0.31795 0.0
C498 C 0.15619 0.29161 0.22397 0.0
C499 C 0.29627 0.37419 0.22411 0.0
C500 C 0.26867 0.22469 0.1378 0.0
C501 C 0.23973 0.28654 0.38547 0.0
O502 O 0.23726 0.16871 0.29021 0.0
O503 O 0.26209 0.12303 0.36236 0.0
O504 O 0.49535 0.42887 0.9628 0.0
Mn505 Mn 0.49951 0.5054 0.00548 0.0
O506 O 0.48956 0.3635 0.02516 0.0
Mn507 Mn 0.51949 0.40606 0.07932 0.0
O508 O 0.49866 0.57838 0.05296 0.0
O509 O 0.51981 0.54244 0.93656 0.0
Mn510 Mn 0.49451 0.6094 0.94669 0.0
O511 O 0.42159 0.51806 -0.0049 0.0
O512 O 0.52621 0.64546 0.00316 0.0
O513 O 0.57589 0.49701 0.01558 0.0
O514 O 0.58739 0.42461 0.06736 0.0
O515 O 0.52306 0.6106 0.88106 0.0
O516 O 0.4249 0.60076 0.95642 0.0
C517 C 0.47953 0.47104 0.12204 0.0
C518 C 0.48688 0.37879 0.97726 0.0
C519 C 0.51221 0.62874 0.0479 0.0
C520 C 0.53509 0.56017 0.89067 0.0
C521 C 0.40027 0.56161 0.97842 0.0
C522 C 0.604 0.46441 0.04007 0.0
O523 O 0.48517 0.46675 0.07168 0.0
O524 O 0.49373 0.42782 0.14608 0.0
O525 O 0.79123 0.33377 0.25932 0.0
Mn526 Mn 0.75603 0.25629 0.24467 0.0
O527 O 0.72707 0.39459 0.26992 0.0
Mn528 Mn 0.6799 0.35286 0.23004 0.0
O529 O 0.71502 0.18201 0.23381 0.0
O530 O 0.82827 0.22242 0.23349 0.0
Mn531 Mn 0.81503 0.15675 0.26217 0.0
O532 O 0.75647 0.24583 0.32592 0.0
O533 O 0.76972 0.1154 0.22103 0.0
O534 O 0.75433 0.27244 0.1645 0.0
O535 O 0.69714 0.34123 0.15843 0.0
O536 O 0.8809 0.15218 0.24395 0.0
O537 O 0.79811 0.16685 0.33392 0.0
C538 C 0.64083 0.2848 0.26754 0.0
C539 C 0.77372 0.38165 0.27387 0.0
C540 C 0.72426 0.13093 0.2247 0.0
C541 C 0.87385 0.20114 0.22641 0.0
C542 C 0.77276 0.20731 0.3539 0.0
C543 C 0.73039 0.30818 0.13808 0.0
O544 O 0.68779 0.2874 0.25451 0.0
O545 O 0.61705 0.3295 0.25774 0.0
O546 O 0.96094 0.49447 0.44331 0.0
Mn547 Mn -0.00428 0.5139 0.51606 0.0
O548 O 0.0247 0.47179 0.38718 0.0
Mn549 Mn 0.07185 0.51897 0.42078 0.0
O550 O 0.03101 0.53497 0.58831 0.0
O551 O 0.92447 0.52433 0.54981 0.0
Mn552 Mn 0.92918 0.48343 0.60844 0.0
O553 O -0.00312 0.43067 0.53001 0.0
O554 O 0.98331 0.50451 0.65335 0.0
O555 O -0.00254 0.59549 0.49238 0.0
O556 O 0.05325 0.59333 0.42252 0.0
O557 O 0.8662 0.51341 0.61207 0.0
O558 O 0.9346 0.40915 0.58625 0.0
C559 C 0.11228 0.48797 0.48721 0.0
C560 C 0.97743 0.47533 0.3982 0.0
C561 C 0.02734 0.51194 0.63314 0.0
C562 C 0.87779 0.53336 0.5664 0.0
C563 C 0.97043 0.39524 0.55441 0.0
C564 C 0.02006 0.61778 0.45249 0.0
O565 O 0.0655 0.50235 0.48695 0.0
O566 O 0.13505 0.49422 0.44217 0.0
O567 O 0.83031 0.77136 0.29434 0.0
Mn568 Mn 0.75554 0.76103 0.26645 0.0
O569 O 0.87585 0.79045 0.22321 0.0
Mn570 Mn 0.83653 0.73851 0.18683 0.0
O571 O 0.68045 0.75403 0.2391 0.0
O572 O 0.73529 0.75451 0.34498 0.0
Mn573 Mn 0.67797 0.78973 0.35485 0.0
O574 O 0.74588 0.84696 0.26972 0.0
O575 O 0.62962 0.75742 0.31102 0.0
O576 O 0.76663 0.67588 0.26525 0.0
O577 O 0.83619 0.66765 0.21318 0.0
O578 O 0.69179 0.76275 0.41974 0.0
O579 O 0.69234 0.86172 0.33952 0.0
C580 C 0.78362 0.76736 0.13513 0.0
C581 C 0.87143 0.78928 0.273 0.0
C582 C 0.63622 0.75514 0.26103 0.0
C583 C 0.73135 0.74287 0.39512 0.0
C584 C 0.71988 0.87879 0.30144 0.0
C585 C 0.80427 0.64802 0.24627 0.0
O586 O 0.77404 0.76429 0.18629 0.0
O587 O 0.82682 0.74859 0.1176 0.0
O588 O 0.84021 0.25203 0.74466 0.0
Mn589 Mn 0.76033 0.24695 0.75666 0.0
O590 O 0.84504 0.31491 0.68022 0.0
Mn591 Mn 0.77788 0.33155 0.6708 0.0
O592 O 0.68202 0.24421 0.76406 0.0
O593 O 0.76448 0.16906 0.78464 0.0
Mn594 Mn 0.7263 0.16912 0.84333 0.0
O595 O 0.76728 0.28417 0.83254 0.0
O596 O 0.66056 0.17956 0.82215 0.0
O597 O 0.75648 0.21061 0.67823 0.0
O598 O 0.74317 0.28157 0.62643 0.0
O599 O 0.75063 0.09957 0.83754 0.0
O600 O 0.75187 0.22028 0.89292 0.0
C601 C 0.7374 0.37602 0.73235 0.0
C602 C 0.86541 0.28047 0.71046 0.0
C603 C 0.64922 0.21492 0.78852 0.0
C604 C 0.77066 0.11699 0.7939 0.0
C605 C 0.76435 0.26908 0.88056 0.0
C606 C 0.74825 0.22997 0.63218 0.0
O607 O 0.75152 0.32498 0.73383 0.0
O608 O 0.75136 0.39981 0.68937 0.0
O609 O 0.83963 0.7388 0.77342 0.0
Mn610 Mn 0.76095 0.74915 0.76349 0.0
O611 O 0.83386 0.71522 0.85653 0.0
Mn612 Mn 0.76657 0.69398 0.85175 0.0
O613 O 0.68331 0.76066 0.75215 0.0
O614 O 0.7792 0.82457 0.73399 0.0
Mn615 Mn 0.74335 0.82933 0.67482 0.0
O616 O 0.76722 0.70862 0.68628 0.0
O617 O 0.67497 0.82601 0.69196 0.0
O618 O 0.75815 0.79498 0.83896 0.0
O619 O 0.72626 0.73781 0.89504 0.0
O620 O 0.77972 0.89418 0.68071 0.0
O621 O 0.76354 0.77495 0.62635 0.0
C622 C 0.73721 0.62291 0.81824 0.0
C623 C 0.86041 0.73081 0.81802 0.0
C624 C 0.6562 0.79158 0.72391 0.0
C625 C 0.79626 0.87421 0.72416 0.0
C626 C 0.76871 0.7247 0.63782 0.0
C627 C 0.73967 0.78656 0.88547 0.0
O628 O 0.73723 0.66871 0.79023 0.0
O629 O 0.76201 0.62305 0.86243 0.0
O630 O 0.55782 0.53674 0.48335 0.0
Mn631 Mn 0.48699 0.49892 0.50298 0.0
O632 O 0.61707 0.47057 0.48054 0.0
Mn633 Mn 0.57612 0.41952 0.51267 0.0
O634 O 0.41484 0.46165 0.52131 0.0
O635 O 0.46284 0.57917 0.52589 0.0
Mn636 Mn 0.41085 0.5785 0.48091 0.0
O637 O 0.46532 0.49718 0.42202 0.0
O638 O 0.36117 0.52567 0.49475 0.0
O639 O 0.50943 0.4955 0.58209 0.0
O640 O 0.5703 0.43121 0.58537 0.0
O641 O 0.4053 0.64482 0.51367 0.0
O642 O 0.43228 0.57906 0.41194 0.0
C643 C 0.52304 0.37241 0.46581 0.0
C644 C 0.60348 0.51994 0.47413 0.0
C645 C 0.36928 0.47789 0.51188 0.0
C646 C 0.44539 0.6293 0.53824 0.0
C647 C 0.44761 0.53354 0.39214 0.0
C648 C 0.54172 0.46761 0.60739 0.0
O649 O 0.51472 0.42252 0.48435 0.0
O650 O 0.56616 0.35198 0.47908 0.0
O651 O 0.92531 0.46986 0.98779 0.0
Mn652 Mn -0.00044 0.50282 -0.001 0.0
O653 O 0.87556 0.54125 0.9754 0.0
Mn654 Mn 0.91656 0.58374 0.01989 0.0
O655 O 0.07497 0.5346 0.00848 0.0
O656 O 0.01953 0.42125 0.00645 0.0
Mn657 Mn 0.08156 0.41998 0.97948 0.0
O658 O 0.01208 0.50074 0.9185 0.0
O659 O 0.12007 0.46114 0.02692 0.0
O660 O -0.01227 0.50783 0.07967 0.0
O661 O 0.92087 0.56445 0.09019 0.0
O662 O 0.06862 0.34825 -0.00468 0.0
O663 O 0.08325 0.45071 0.91268 0.0
C664 C 0.97084 0.63616 0.9866 0.0
C665 C 0.88308 0.48974 0.97297 0.0
C666 C 0.11675 0.51281 0.02271 0.0
C667 C 0.02703 0.36885 0.0152 0.0
C668 C 0.05243 0.48533 0.89426 0.0
C669 C 0.95449 0.53315 0.10837 0.0
O670 O 0.97893 0.58363 -0.00728 0.0
O671 O 0.92748 0.65469 0.0038 0.0
loop_
_geom_bond_atom_site_label_1
_geom_bond_atom_site_label_2
_geom_bond_distance
_geom_bond_site_symmetry_2
_ccdc_geom_bond_type
Mg0 O1 2.028 . S
Mg0 O7 1.986 . S
Mg0 O9 2.114 1_455 S
Mg0 O10 2.251 1_455 S
Mg0 O13 2.010 . S
O1 Mg0 2.028 . S
O1 C4 1.250 1_455 S
O2 Mg3 2.028 . S
O2 C4 1.248 . S
Mg3 O2 2.028 . S
Mg3 O8 2.032 . S
Mg3 O10 2.079 . S
C4 O1 1.250 1_655 S
C4 O2 1.248 . S
C5 O6 1.264 . S
C5 O13 1.249 . S
O6 C5 1.264 . S
O7 Mg0 1.986 . S
O7 C11 1.247 . S
O8 Mg3 2.032 . S
O8 C11 1.258 1_655 S
O9 Mg0 2.114 1_655 S
O9 C12 1.252 . S
O10 Mg0 2.251 1_655 S
O10 Mg3 2.079 . S
O10 C12 1.273 . S
C11 O7 1.247 . S
C11 O8 1.258 1_455 S
C12 O9 1.252 . S
C12 O10 1.273 . S
O13 Mg0 2.010 . S
O13 C5 1.249 . S
Mg14 O15 2.028 . S
Mg14 O21 1.986 . S
Mg14 O23 2.114 1_455 S
Mg14 O24 2.251 1_455 S
Mg14 O27 2.010 . S
O15 Mg14 2.028 . S
O15 C18 1.250 . S
O16 Mg17 2.028 . S
O16 C18 1.248 1_655 S
Mg17 O16 2.028 . S
Mg17 O22 2.032 . S
Mg17 O24 2.079 . S
C18 O15 1.250 . S
C18 O16 1.248 1_455 S
C19 O20 1.264 . S
C19 O27 1.249 . S
O20 C19 1.264 . S
O21 Mg14 1.986 . S
O21 C25 1.246 1_455 S
O22 Mg17 2.032 . S
O22 C25 1.259 . S
O23 Mg14 2.114 1_655 S
O23 C26 1.252 . S
O24 Mg14 2.251 1_655 S
O24 Mg17 2.079 . S
O24 C26 1.273 . S
C25 O21 1.246 1_655 S
C25 O22 1.259 . S
C26 O23 1.252 . S
C26 O24 1.273 . S
O27 Mg14 2.010 . S
O27 C19 1.249 . S
Mg28 O29 2.028 . S
Mg28 O35 1.986 . S
Mg28 O37 2.114 . S
Mg28 O38 2.251 . S
Mg28 O41 2.010 . S
O29 Mg28 2.028 . S
O29 C32 1.250 . S
O30 Mg31 2.028 . S
O30 C32 1.248 . S
Mg31 O30 2.028 . S
Mg31 O36 2.032 . S
Mg31 O38 2.079 . S
C32 O29 1.250 . S
C32 O30 1.248 . S
C33 O34 1.264 . S
C33 O41 1.249 . S
O34 C33 1.264 . S
O35 Mg28 1.986 . S
O35 C39 1.246 . S
O36 Mg31 2.032 . S
O36 C39 1.259 . S
O37 Mg28 2.114 . S
O37 C40 1.252 . S
O38 Mg28 2.251 . S
O38 Mg31 2.079 . S
O38 C40 1.273 . S
C39 O35 1.246 . S
C39 O36 1.259 . S
C40 O37 1.252 . S
C40 O38 1.273 . S
O41 Mg28 2.010 . S
O41 C33 1.249 . S
Mg42 O43 2.028 . S
Mg42 O49 1.986 . S
Mg42 O51 2.114 . S
Mg42 O52 2.251 . S
Mg42 O55 2.010 . S
O43 Mg42 2.028 . S
O43 C46 1.250 . S
O44 Mg45 2.028 . S
O44 C46 1.248 . S
Mg45 O44 2.028 . S
Mg45 O50 2.032 . S
Mg45 O52 2.079 . S
C46 O43 1.250 . S
C46 O44 1.248 . S
C47 O48 1.264 . S
C47 O55 1.249 . S
O48 C47 1.264 . S
O49 Mg42 1.986 . S
O49 C53 1.246 . S
O50 Mg45 2.032 . S
O50 C53 1.259 . S
O51 Mg42 2.114 . S
O51 C54 1.252 . S
O52 Mg42 2.251 . S
O52 Mg45 2.079 . S
O52 C54 1.273 . S
C53 O49 1.246 . S
C53 O50 1.259 . S
C54 O51 1.252 . S
C54 O52 1.273 . S
O55 Mg42 2.010 . S
O55 C47 1.249 . S
Mg56 O57 2.028 1_565 S
Mg56 O63 1.986 . S
Mg56 O65 2.114 1_565 S
Mg56 O66 2.251 1_565 S
Mg56 O69 2.010 . S
O57 Mg56 2.028 1_545 S
O57 C60 1.250 . S
O58 Mg59 2.028 . S
O58 C60 1.248 . S
Mg59 O58 2.028 . S
Mg59 O64 2.032 1_545 S
Mg59 O66 2.080 . S
C60 O57 1.250 . S
C60 O58 1.248 . S
C61 O62 1.264 . S
C61 O69 1.249 . S
O62 C61 1.264 . S
O63 Mg56 1.986 . S
O63 C67 1.246 . S
O64 Mg59 2.032 1_565 S
O64 C67 1.259 . S
O65 Mg56 2.114 1_545 S
O65 C68 1.252 . S
O66 Mg56 2.251 1_545 S
O66 Mg59 2.080 . S
O66 C68 1.277 . S
C67 O63 1.246 . S
C67 O64 1.259 . S
C68 O65 1.252 . S
C68 O66 1.277 . S
O69 Mg56 2.010 . S
O69 C61 1.249 . S
Mg70 O71 2.028 . S
Mg70 O77 1.986 . S
Mg70 O79 2.114 . S
Mg70 O80 2.251 . S
Mg70 O83 2.010 . S
O71 Mg70 2.028 . S
O71 C74 1.250 . S
O72 Mg73 2.028 . S
O72 C74 1.248 . S
Mg73 O72 2.028 . S
Mg73 O78 2.032 . S
Mg73 O80 2.079 . S
C74 O71 1.250 . S
C74 O72 1.248 . S
C75 O76 1.264 1_565 S
C75 O83 1.249 . S
O76 C75 1.264 1_545 S
O77 Mg70 1.986 . S
O77 C81 1.246 . S
O78 Mg73 2.032 . S
O78 C81 1.259 . S
O79 Mg70 2.114 . S
O79 C82 1.252 . S
O80 Mg70 2.251 . S
O80 Mg73 2.079 . S
O80 C82 1.273 . S
C81 O77 1.246 . S
C81 O78 1.259 . S
C82 O79 1.252 . S
C82 O80 1.273 . S
O83 Mg70 2.010 . S
O83 C75 1.249 . S
Mg84 O85 2.028 1_545 S
Mg84 O91 1.986 . S
Mg84 O93 2.114 1_545 S
Mg84 O94 2.251 . S
Mg84 O97 2.010 . S
O85 Mg84 2.028 1_565 S
O85 C88 1.250 . S
O86 Mg87 2.028 1_565 S
O86 C88 1.248 . S
Mg87 O86 2.028 1_545 S
Mg87 O92 2.032 . S
Mg87 O94 2.079 . S
C88 O85 1.250 . S
C88 O86 1.248 . S
C89 O90 1.264 . S
C89 O97 1.249 . S
O90 C89 1.264 . S
O91 Mg84 1.986 . S
O91 C95 1.246 . S
O92 Mg87 2.032 . S
O92 C95 1.259 . S
O93 Mg84 2.114 1_565 S
O93 C96 1.252 1_565 S
O94 Mg84 2.251 . S
O94 Mg87 2.079 . S
O94 C96 1.273 . S
C95 O91 1.246 . S
C95 O92 1.259 . S
C96 O93 1.252 1_545 S
C96 O94 1.273 . S
O97 Mg84 2.010 . S
O97 C89 1.249 . S
Mg98 O99 2.042 . S
Mg98 O105 1.976 1_554 S
Mg98 O107 2.121 . S
Mg98 O108 2.253 . S
Mg98 O111 2.009 1_554 S
O99 Mg98 2.042 . S
O99 C102 1.250 . S
O100 Mg101 2.028 . S
O100 C102 1.248 . S
Mg101 O100 2.028 . S
Mg101 O106 2.032 1_554 S
Mg101 O108 2.079 . S
C102 O99 1.250 . S
C102 O100 1.248 . S
C103 O104 1.264 1_554 S
C103 O111 1.249 1_554 S
O104 C103 1.264 1_556 S
O105 Mg98 1.976 1_556 S
O105 C109 1.246 . S
O106 Mg101 2.032 1_556 S
O106 C109 1.259 . S
O107 Mg98 2.121 . S
O107 C110 1.252 . S
O108 Mg98 2.253 . S
O108 Mg101 2.079 . S
O108 C110 1.273 . S
C109 O105 1.246 . S
C109 O106 1.259 . S
C110 O107 1.252 . S
C110 O108 1.273 . S
O111 Mg98 2.009 1_556 S
O111 C103 1.249 1_556 S
Mg112 O113 2.028 1_554 S
Mg112 O119 1.986 . S
Mg112 O121 2.114 1_554 S
Mg112 O122 2.251 . S
Mg112 O125 2.010 . S
O113 Mg112 2.028 1_556 S
O113 C116 1.250 . S
O114 Mg115 2.028 1_556 S
O114 C116 1.248 . S
Mg115 O114 2.028 1_554 S
Mg115 O120 2.032 . S
Mg115 O122 2.079 . S
C116 O113 1.250 . S
C116 O114 1.248 . S
C117 O118 1.264 . S
C117 O125 1.249 . S
O118 C117 1.264 . S
O119 Mg112 1.986 . S
O119 C123 1.246 . S
O120 Mg115 2.032 . S
O120 C123 1.259 . S
O121 Mg112 2.114 1_556 S
O121 C124 1.252 1_556 S
O122 Mg112 2.251 . S
O122 Mg115 2.079 . S
O122 C124 1.273 . S
C123 O119 1.246 . S
C123 O120 1.259 . S
C124 O121 1.252 1_554 S
C124 O122 1.273 . S
O125 Mg112 2.010 . S
O125 C117 1.249 . S
Mg126 O127 2.028 . S
Mg126 O133 1.986 . S
Mg126 O135 2.114 . S
Mg126 O136 2.251 . S
Mg126 O139 2.010 . S
O127 Mg126 2.028 . S
O127 C130 1.250 . S
O128 Mg129 2.028 . S
O128 C130 1.248 . S
Mg129 O128 2.028 . S
Mg129 O134 2.032 . S
Mg129 O136 2.079 . S
C130 O127 1.250 . S
C130 O128 1.248 . S
C131 O132 1.264 1_655 S
C131 O139 1.249 . S
O132 C131 1.264 1_455 S
O133 Mg126 1.986 . S
O133 C137 1.246 . S
O134 Mg129 2.032 . S
O134 C137 1.259 . S
O135 Mg126 2.114 . S
O135 C138 1.252 . S
O136 Mg126 2.251 . S
O136 Mg129 2.079 . S
O136 C138 1.273 . S
C137 O133 1.246 . S
C137 O134 1.259 . S
C138 O135 1.252 . S
C138 O136 1.273 . S
O139 Mg126 2.010 . S
O139 C131 1.249 . S
Mg140 O141 2.028 . S
Mg140 O147 1.986 . S
Mg140 O149 2.114 . S
Mg140 O150 2.251 . S
Mg140 O153 2.010 . S
O141 Mg140 2.028 . S
O141 C144 1.250 . S
O142 Mg143 2.028 . S
O142 C144 1.248 . S
Mg143 O142 2.028 . S
Mg143 O148 2.032 . S
Mg143 O150 2.079 . S
C144 O141 1.250 . S
C144 O142 1.248 . S
C145 O146 1.264 . S
C145 O153 1.249 . S
O146 C145 1.264 . S
O147 Mg140 1.986 . S
O147 C151 1.246 . S
O148 Mg143 2.032 . S
O148 C151 1.259 . S
O149 Mg140 2.114 . S
O149 C152 1.252 . S
O150 Mg140 2.251 . S
O150 Mg143 2.079 . S
O150 C152 1.273 . S
C151 O147 1.246 . S
C151 O148 1.259 . S
C152 O149 1.252 . S
C152 O150 1.273 . S
O153 Mg140 2.010 . S
O153 C145 1.249 . S
Mg154 O155 2.028 . S
Mg154 O161 1.986 . S
Mg154 O163 2.114 . S
Mg154 O164 2.251 . S
Mg154 O167 2.010 . S
O155 Mg154 2.028 . S
O155 C158 1.250 . S
O156 Mg157 2.028 . S
O156 C158 1.248 . S
Mg157 O156 2.028 . S
Mg157 O162 2.032 . S
Mg157 O164 2.079 . S
C158 O155 1.250 . S
C158 O156 1.248 . S
C159 O160 1.264 . S
C159 O167 1.249 . S
O160 C159 1.264 . S
O161 Mg154 1.986 . S
O161 C165 1.246 . S
O162 Mg157 2.032 . S
O162 C165 1.259 . S
O163 Mg154 2.114 . S
O163 C166 1.252 . S
O164 Mg154 2.251 . S
O164 Mg157 2.079 . S
O164 C166 1.273 . S
C165 O161 1.246 . S
C165 O162 1.259 . S
C166 O163 1.252 . S
C166 O164 1.273 . S
O167 Mg154 2.010 . S
O167 C159 1.249 . S
Mg168 O169 2.028 . S
Mg168 O175 1.986 . S
Mg168 O177 2.114 1_455 S
Mg168 O178 2.251 1_455 S
Mg168 O181 2.010 . S
O169 Mg168 2.028 . S
O169 C172 1.250 . S
O170 Mg171 2.028 . S
O170 C172 1.248 1_655 S
Mg171 O170 2.028 . S
Mg171 O176 2.032 . S
Mg171 O178 2.079 . S
C172 O169 1.250 . S
C172 O170 1.248 1_455 S
C173 O174 1.264 . S
C173 O181 1.249 . S
O174 C173 1.264 . S
O175 Mg168 1.986 . S
O175 C179 1.246 . S
O176 Mg171 2.032 . S
O176 C179 1.259 1_655 S
O177 Mg168 2.114 1_655 S
O177 C180 1.252 . S
O178 Mg168 2.251 1_655 S
O178 Mg171 2.079 . S
O178 C180 1.273 . S
C179 O175 1.246 . S
C179 O176 1.259 1_455 S
C180 O177 1.252 . S
C180 O178 1.273 . S
O181 Mg168 2.010 . S
O181 C173 1.249 . S
Mg182 O183 2.028 . S
Mg182 O189 1.986 . S
Mg182 O191 2.114 1_455 S
Mg182 O192 2.251 1_455 S
Mg182 O195 2.010 . S
O183 Mg182 2.028 . S
O183 C186 1.250 1_455 S
O184 Mg185 2.028 . S
O184 C186 1.248 . S
Mg185 O184 2.028 . S
Mg185 O190 2.032 . S
Mg185 O192 2.079 . S
C186 O183 1.250 1_655 S
C186 O184 1.248 . S
C187 O188 1.264 . S
C187 O195 1.249 . S
O188 C187 1.264 . S
O189 Mg182 1.986 . S
O189 C193 1.246 1_455 S
O190 Mg185 2.032 . S
O190 C193 1.259 . S
O191 Mg182 2.114 1_655 S
O191 C194 1.252 . S
O192 Mg182 2.251 1_655 S
O192 Mg185 2.079 . S
O192 C194 1.273 . S
C193 O189 1.246 1_655 S
C193 O190 1.259 . S
C194 O191 1.252 . S
C194 O192 1.273 . S
O195 Mg182 2.010 . S
O195 C187 1.249 . S
Mg196 O197 2.028 . S
Mg196 O203 1.986 . S
Mg196 O205 2.114 . S
Mg196 O206 2.251 . S
Mg196 O209 2.010 . S
O197 Mg196 2.028 . S
O197 C200 1.250 . S
O198 Mg199 2.028 . S
O198 C200 1.248 . S
Mg199 O198 2.028 . S
Mg199 O204 2.032 . S
Mg199 O206 2.079 . S
C200 O197 1.250 . S
C200 O198 1.248 . S
C201 O202 1.264 . S
C201 O209 1.249 . S
O202 C201 1.264 . S
O203 Mg196 1.986 . S
O203 C207 1.246 . S
O204 Mg199 2.032 . S
O204 C207 1.259 . S
O205 Mg196 2.114 . S
O205 C208 1.252 . S
O206 Mg196 2.251 . S
O206 Mg199 2.079 . S
O206 C208 1.273 . S
C207 O203 1.246 . S
C207 O204 1.259 . S
C208 O205 1.252 . S
C208 O206 1.273 . S
O209 Mg196 2.010 . S
O209 C201 1.249 . S
Mg210 O211 2.028 . S
Mg210 O217 1.986 . S
Mg210 O219 2.114 . S
Mg210 O220 2.251 . S
Mg210 O223 2.010 . S
O211 Mg210 2.028 . S
O211 C214 1.250 . S
O212 Mg213 2.028 . S
O212 C214 1.248 . S
Mg213 O212 2.028 . S
Mg213 O218 2.032 . S
Mg213 O220 2.079 . S
C214 O211 1.250 . S
C214 O212 1.248 . S
C215 O216 1.264 . S
C215 O223 1.249 . S
O216 C215 1.264 . S
O217 Mg210 1.986 . S
O217 C221 1.246 . S
O218 Mg213 2.032 . S
O218 C221 1.259 . S
O219 Mg210 2.114 . S
O219 C222 1.252 . S
O220 Mg210 2.251 . S
O220 Mg213 2.079 . S
O220 C222 1.273 . S
C221 O217 1.246 . S
C221 O218 1.259 . S
C222 O219 1.252 . S
C222 O220 1.273 . S
O223 Mg210 2.010 . S
O223 C215 1.249 . S
Mg224 O225 2.028 1_545 S
Mg224 O231 1.986 . S
Mg224 O233 2.114 1_545 S
Mg224 O234 2.251 . S
Mg224 O237 2.010 . S
O225 Mg224 2.028 1_565 S
O225 C228 1.250 . S
O226 Mg227 2.028 1_565 S
O226 C228 1.248 . S
Mg227 O226 2.028 1_545 S
Mg227 O232 2.032 . S
Mg227 O234 2.079 . S
C228 O225 1.250 . S
C228 O226 1.248 . S
C229 O230 1.264 1_655 S
C229 O237 1.249 . S
O230 C229 1.264 1_455 S
O231 Mg224 1.986 . S
O231 C235 1.246 . S
O232 Mg227 2.032 . S
O232 C235 1.259 . S
O233 Mg224 2.114 1_565 S
O233 C236 1.254 . S
O234 Mg224 2.251 . S
O234 Mg227 2.079 . S
O234 C236 1.269 1_545 S
C235 O231 1.246 . S
C235 O232 1.259 . S
C236 O233 1.254 . S
C236 O234 1.269 1_565 S
O237 Mg224 2.010 . S
O237 C229 1.249 . S
Mg238 O239 2.028 . S
Mg238 O245 1.986 . S
Mg238 O247 2.114 . S
Mg238 O248 2.251 . S
Mg238 O251 2.010 . S
O239 Mg238 2.028 . S
O239 C242 1.250 . S
O240 Mg241 2.028 . S
O240 C242 1.248 . S
Mg241 O240 2.028 . S
Mg241 O246 2.032 . S
Mg241 O248 2.079 . S
C242 O239 1.250 . S
C242 O240 1.248 . S
C243 O244 1.264 . S
C243 O251 1.249 . S
O244 C243 1.264 . S
O245 Mg238 1.986 . S
O245 C249 1.246 . S
O246 Mg241 2.032 . S
O246 C249 1.259 . S
O247 Mg238 2.114 . S
O247 C250 1.252 . S
O248 Mg238 2.251 . S
O248 Mg241 2.079 . S
O248 C250 1.273 . S
C249 O245 1.246 . S
C249 O246 1.259 . S
C250 O247 1.252 . S
C250 O248 1.273 . S
O251 Mg238 2.010 . S
O251 C243 1.249 . S
Mg252 O253 2.028 1_565 S
Mg252 O259 1.986 . S
Mg252 O261 2.114 1_565 S
Mg252 O262 2.251 1_565 S
Mg252 O265 2.010 . S
O253 Mg252 2.028 1_545 S
O253 C256 1.250 . S
O254 Mg255 2.028 . S
O254 C256 1.248 . S
Mg255 O254 2.028 . S
Mg255 O260 2.032 1_545 S
Mg255 O262 2.079 . S
C256 O253 1.250 . S
C256 O254 1.248 . S
C257 O258 1.264 . S
C257 O265 1.249 . S
O258 C257 1.264 . S
O259 Mg252 1.986 . S
O259 C263 1.246 . S
O260 Mg255 2.032 1_565 S
O260 C263 1.259 . S
O261 Mg252 2.114 1_545 S
O261 C264 1.252 . S
O262 Mg252 2.251 1_545 S
O262 Mg255 2.079 . S
O262 C264 1.273 . S
C263 O259 1.246 . S
C263 O260 1.259 . S
C264 O261 1.252 . S
C264 O262 1.273 . S
O265 Mg252 2.010 . S
O265 C257 1.249 . S
Mg266 O267 2.028 1_554 S
Mg266 O273 1.986 . S
Mg266 O275 2.114 . S
Mg266 O276 2.251 . S
Mg266 O279 2.010 . S
O267 Mg266 2.028 1_556 S
O267 C270 1.250 . S
O268 Mg269 2.028 1_556 S
O268 C270 1.248 . S
Mg269 O268 2.028 1_554 S
Mg269 O274 2.032 . S
Mg269 O276 2.079 . S
C270 O267 1.250 . S
C270 O268 1.248 . S
C271 O272 1.264 1_565 S
C271 O279 1.249 . S
O272 C271 1.264 1_545 S
O273 Mg266 1.986 . S
O273 C277 1.246 . S
O274 Mg269 2.032 . S
O274 C277 1.259 . S
O275 Mg266 2.114 . S
O275 C278 1.252 . S
O276 Mg266 2.251 . S
O276 Mg269 2.079 . S
O276 C278 1.273 . S
C277 O273 1.246 . S
C277 O274 1.259 . S
C278 O275 1.252 . S
C278 O276 1.273 . S
O279 Mg266 2.010 . S
O279 C271 1.249 . S
Mg280 O281 2.028 1_556 S
Mg280 O287 1.986 . S
Mg280 O289 2.114 1_556 S
Mg280 O290 2.251 1_556 S
Mg280 O293 2.010 . S
O281 Mg280 2.028 1_554 S
O281 C284 1.250 . S
O282 Mg283 2.028 . S
O282 C284 1.248 . S
Mg283 O282 2.028 . S
Mg283 O288 2.032 1_554 S
Mg283 O290 2.079 . S
C284 O281 1.250 . S
C284 O282 1.248 . S
C285 O286 1.264 . S
C285 O293 1.249 . S
O286 C285 1.264 . S
O287 Mg280 1.986 . S
O287 C291 1.246 . S
O288 Mg283 2.032 1_556 S
O288 C291 1.259 . S
O289 Mg280 2.114 1_554 S
O289 C292 1.252 . S
O290 Mg280 2.251 1_554 S
O290 Mg283 2.079 . S
O290 C292 1.273 . S
C291 O287 1.246 . S
C291 O288 1.259 . S
C292 O289 1.252 . S
C292 O290 1.273 . S
O293 Mg280 2.010 . S
O293 C285 1.249 . S
Mg294 O295 2.028 . S
Mg294 O301 1.986 . S
Mg294 O303 2.114 . S
Mg294 O304 2.251 . S
Mg294 O307 2.010 . S
O295 Mg294 2.028 . S
O295 C298 1.250 . S
O296 Mg297 2.028 . S
O296 C298 1.248 . S
Mg297 O296 2.028 . S
Mg297 O302 2.032 . S
Mg297 O304 2.079 . S
C298 O295 1.250 . S
C298 O296 1.248 . S
C299 O300 1.264 . S
C299 O307 1.249 . S
O300 C299 1.264 . S
O301 Mg294 1.986 . S
O301 C305 1.246 . S
O302 Mg297 2.032 . S
O302 C305 1.259 . S
O303 Mg294 2.114 . S
O303 C306 1.252 . S
O304 Mg294 2.251 . S
O304 Mg297 2.079 . S
O304 C306 1.273 . S
C305 O301 1.246 . S
C305 O302 1.259 . S
C306 O303 1.252 . S
C306 O304 1.273 . S
O307 Mg294 2.010 . S
O307 C299 1.249 . S
Mg308 O309 2.028 . S
Mg308 O315 1.986 . S
Mg308 O317 2.114 . S
Mg308 O318 2.251 . S
Mg308 O321 2.010 . S
O309 Mg308 2.028 . S
O309 C312 1.250 . S
O310 Mg311 2.028 . S
O310 C312 1.248 . S
Mg311 O310 2.028 . S
Mg311 O316 2.032 . S
Mg311 O318 2.079 . S
C312 O309 1.250 . S
C312 O310 1.248 . S
C313 O314 1.264 . S
C313 O321 1.249 . S
O314 C313 1.264 . S
O315 Mg308 1.986 . S
O315 C319 1.246 . S
O316 Mg311 2.032 . S
O316 C319 1.259 . S
O317 Mg308 2.114 . S
O317 C320 1.252 . S
O318 Mg308 2.251 . S
O318 Mg311 2.079 . S
O318 C320 1.273 . S
C319 O315 1.246 . S
C319 O316 1.259 . S
C320 O317 1.252 . S
C320 O318 1.273 . S
O321 Mg308 2.010 . S
O321 C313 1.249 . S
Mg322 O323 2.028 . S
Mg322 O329 1.986 . S
Mg322 O331 2.114 . S
Mg322 O332 2.251 . S
Mg322 O335 2.010 . S
O323 Mg322 2.028 . S
O323 C326 1.250 . S
O324 Mg325 2.028 . S
O324 C326 1.248 . S
Mg325 O324 2.028 . S
Mg325 O330 2.032 . S
Mg325 O332 2.079 . S
C326 O323 1.250 . S
C326 O324 1.248 . S
C327 O328 1.264 . S
C327 O335 1.249 . S
O328 C327 1.264 . S
O329 Mg322 1.986 . S
O329 C333 1.246 . S
O330 Mg325 2.032 . S
O330 C333 1.259 . S
O331 Mg322 2.114 . S
O331 C334 1.252 . S
O332 Mg322 2.251 . S
O332 Mg325 2.079 . S
O332 C334 1.273 . S
C333 O329 1.246 . S
C333 O330 1.259 . S
C334 O331 1.252 . S
C334 O332 1.273 . S
O335 Mg322 2.010 . S
O335 C327 1.249 . S
O336 Mn337 2.163 . S
O336 C350 1.244 1_554 S
Mn337 O336 2.163 . S
Mn337 O340 2.160 1_445 S
Mn337 O341 2.221 1_455 S
Mn337 O343 2.163 1_454 S
Mn337 O345 2.160 1_545 S
Mn337 O355 2.224 1_545 S
O338 Mn339 2.095 1_556 S
O338 C350 1.247 1_565 S
Mn339 O338 2.095 1_554 S
Mn339 O346 2.089 . S
Mn339 O355 2.295 . S
Mn339 O356 2.251 1_554 S
O340 Mn337 2.160 1_665 S
O340 C351 1.239 . S
O341 Mn337 2.221 1_655 S
O341 Mn342 2.290 . S
O341 C352 1.278 . S
Mn342 O341 2.290 . S
Mn342 O344 2.089 . S
Mn342 O347 2.251 . S
Mn342 O348 2.087 1_554 S
O343 Mn337 2.163 1_656 S
O343 C353 1.244 . S
O344 Mn342 2.089 . S
O344 C351 1.256 1_545 S
O345 Mn337 2.160 1_565 S
O345 C354 1.239 . S
O346 Mn339 2.089 . S
O346 C354 1.256 . S
O347 Mn342 2.251 . S
O347 C352 1.241 . S
O348 Mn342 2.087 1_556 S
O348 C353 1.256 . S
C349 O355 1.268 1_556 S
C349 O356 1.241 . S
C350 O336 1.244 1_556 S
C350 O338 1.247 1_545 S
C351 O340 1.239 . S
C351 O344 1.256 1_565 S
C352 O341 1.278 . S
C352 O347 1.241 . S
C353 O343 1.244 . S
C353 O348 1.256 . S
C354 O345 1.239 . S
C354 O346 1.256 . S
O355 Mn337 2.224 1_565 S
O355 Mn339 2.295 . S
O355 C349 1.268 1_554 S
O356 Mn339 2.251 1_556 S
O356 C349 1.241 . S
O357 Mn358 2.163 . S
O357 C371 1.244 . S
Mn358 O357 2.163 . S
Mn358 O361 2.160 . S
Mn358 O362 2.221 . S
Mn358 O364 2.163 . S
Mn358 O366 2.160 . S
Mn358 O376 2.221 . S
O359 Mn360 2.087 . S
O359 C371 1.256 . S
Mn360 O359 2.087 . S
Mn360 O367 2.089 . S
Mn360 O376 2.290 . S
Mn360 O377 2.251 . S
O361 Mn358 2.160 . S
O361 C372 1.239 . S
O362 Mn358 2.221 . S
O362 Mn363 2.290 . S
O362 C373 1.278 . S
Mn363 O362 2.290 . S
Mn363 O365 2.089 . S
Mn363 O368 2.251 . S
Mn363 O369 2.087 . S
O364 Mn358 2.163 . S
O364 C374 1.244 . S
O365 Mn363 2.089 . S
O365 C372 1.256 . S
O366 Mn358 2.160 . S
O366 C375 1.239 . S
O367 Mn360 2.089 . S
O367 C375 1.256 . S
O368 Mn363 2.251 . S
O368 C373 1.241 . S
O369 Mn363 2.087 . S
O369 C374 1.256 . S
C370 O376 1.278 . S
C370 O377 1.241 . S
C371 O357 1.244 . S
C371 O359 1.256 . S
C372 O361 1.239 . S
C372 O365 1.256 . S
C373 O362 1.278 . S
C373 O368 1.241 . S
C374 O364 1.244 . S
C374 O369 1.256 . S
C375 O366 1.239 . S
C375 O367 1.256 . S
O376 Mn358 2.221 . S
O376 Mn360 2.290 . S
O376 C370 1.278 . S
O377 Mn360 2.251 . S
O377 C370 1.241 . S
O378 Mn379 2.163 1_565 S
O378 C392 1.244 . S
Mn379 O378 2.163 1_545 S
Mn379 O382 2.160 . S
Mn379 O383 2.221 1_545 S
Mn379 O385 2.163 . S
Mn379 O387 2.160 . S
Mn379 O397 2.221 . S
O380 Mn381 2.087 . S
O380 C392 1.256 1_545 S
Mn381 O380 2.087 . S
Mn381 O388 2.089 . S
Mn381 O397 2.290 . S
Mn381 O398 2.251 . S
O382 Mn379 2.160 . S
O382 C393 1.239 . S
O383 Mn379 2.221 1_565 S
O383 Mn384 2.290 . S
O383 C394 1.278 . S
Mn384 O383 2.290 . S
Mn384 O386 2.089 1_565 S
Mn384 O389 2.251 . S
Mn384 O390 2.087 . S
O385 Mn379 2.163 . S
O385 C395 1.244 1_545 S
O386 Mn384 2.089 1_545 S
O386 C393 1.256 . S
O387 Mn379 2.160 . S
O387 C396 1.239 . S
O388 Mn381 2.089 . S
O388 C396 1.256 . S
O389 Mn384 2.251 . S
O389 C394 1.241 . S
O390 Mn384 2.087 . S
O390 C395 1.256 . S
C391 O397 1.278 . S
C391 O398 1.241 . S
C392 O378 1.244 . S
C392 O380 1.256 1_565 S
C393 O382 1.239 . S
C393 O386 1.256 . S
C394 O383 1.278 . S
C394 O389 1.241 . S
C395 O385 1.244 1_565 S
C395 O390 1.256 . S
C396 O387 1.239 . S
C396 O388 1.256 . S
O397 Mn379 2.221 . S
O397 Mn381 2.290 . S
O397 C391 1.278 . S
O398 Mn381 2.251 . S
O398 C391 1.241 . S
O399 Mn400 2.163 . S
O399 C413 1.244 . S
Mn400 O399 2.163 . S
Mn400 O403 2.160 . S
Mn400 O404 2.221 . S
Mn400 O406 2.163 . S
Mn400 O408 2.160 . S
Mn400 O418 2.221 . S
O401 Mn402 2.087 . S
O401 C413 1.256 . S
Mn402 O401 2.087 . S
Mn402 O409 2.089 . S
Mn402 O418 2.290 . S
Mn402 O419 2.251 . S
O403 Mn400 2.160 . S
O403 C414 1.239 . S
O404 Mn400 2.221 . S
O404 Mn405 2.290 . S
O404 C415 1.278 . S
Mn405 O404 2.290 . S
Mn405 O407 2.089 . S
Mn405 O410 2.251 . S
Mn405 O411 2.087 . S
O406 Mn400 2.163 . S
O406 C416 1.244 . S
O407 Mn405 2.089 . S
O407 C414 1.256 . S
O408 Mn400 2.160 . S
O408 C417 1.239 . S
O409 Mn402 2.089 . S
O409 C417 1.256 . S
O410 Mn405 2.251 . S
O410 C415 1.241 . S
O411 Mn405 2.087 . S
O411 C416 1.256 . S
C412 O418 1.278 . S
C412 O419 1.241 . S
C413 O399 1.244 . S
C413 O401 1.256 . S
C414 O403 1.239 . S
C414 O407 1.256 . S
C415 O404 1.278 . S
C415 O410 1.241 . S
C416 O406 1.244 . S
C416 O411 1.256 . S
C417 O408 1.239 . S
C417 O409 1.256 . S
O418 Mn400 2.221 . S
O418 Mn402 2.290 . S
O418 C412 1.278 . S
O419 Mn402 2.251 . S
O419 C412 1.241 . S
O420 Mn421 2.163 1_565 S
O420 C434 1.244 . S
Mn421 O420 2.163 1_545 S
Mn421 O424 2.160 . S
Mn421 O425 2.221 . S
Mn421 O427 2.163 1_455 S
Mn421 O429 2.160 1_545 S
Mn421 O439 2.221 1_545 S
O422 Mn423 2.087 1_655 S
O422 C434 1.256 1_655 S
Mn423 O422 2.087 1_455 S
Mn423 O430 2.089 . S
Mn423 O439 2.290 . S
Mn423 O440 2.251 1_455 S
O424 Mn421 2.160 . S
O424 C435 1.239 . S
O425 Mn421 2.221 . S
O425 Mn426 2.290 . S
O425 C436 1.278 . S
Mn426 O425 2.290 . S
Mn426 O428 2.089 . S
Mn426 O431 2.251 . S
Mn426 O432 2.087 1_455 S
O427 Mn421 2.163 1_655 S
O427 C437 1.244 . S
O428 Mn426 2.089 . S
O428 C435 1.256 . S
O429 Mn421 2.160 1_565 S
O429 C438 1.239 . S
O430 Mn423 2.089 . S
O430 C438 1.256 . S
O431 Mn426 2.251 . S
O431 C436 1.241 . S
O432 Mn426 2.087 1_655 S
O432 C437 1.256 . S
C433 O439 1.278 1_655 S
C433 O440 1.241 . S
C434 O420 1.244 . S
C434 O422 1.256 1_455 S
C435 O424 1.239 . S
C435 O428 1.256 . S
C436 O425 1.278 . S
C436 O431 1.241 . S
C437 O427 1.244 . S
C437 O432 1.256 . S
C438 O429 1.239 . S
C438 O430 1.256 . S
O439 Mn421 2.221 1_565 S
O439 Mn423 2.290 . S
O439 C433 1.278 1_455 S
O440 Mn423 2.251 1_655 S
O440 C433 1.241 . S
O441 Mn442 2.163 . S
O441 C455 1.244 . S
Mn442 O441 2.163 . S
Mn442 O445 2.160 . S
Mn442 O446 2.221 . S
Mn442 O448 2.163 . S
Mn442 O450 2.160 . S
Mn442 O460 2.221 . S
O443 Mn444 2.087 . S
O443 C455 1.256 . S
Mn444 O443 2.087 . S
Mn444 O451 2.089 . S
Mn444 O460 2.290 . S
Mn444 O461 2.251 . S
O445 Mn442 2.160 . S
O445 C456 1.239 . S
O446 Mn442 2.221 . S
O446 Mn447 2.290 . S
O446 C457 1.278 . S
Mn447 O446 2.290 . S
Mn447 O449 2.089 . S
Mn447 O452 2.251 . S
Mn447 O453 2.087 . S
O448 Mn442 2.163 . S
O448 C458 1.244 . S
O449 Mn447 2.089 . S
O449 C456 1.256 . S
O450 Mn442 2.160 . S
O450 C459 1.239 . S
O451 Mn444 2.089 . S
O451 C459 1.256 . S
O452 Mn447 2.251 . S
O452 C457 1.241 . S
O453 Mn447 2.087 . S
O453 C458 1.256 . S
C454 O460 1.278 . S
C454 O461 1.241 . S
C455 O441 1.244 . S
C455 O443 1.256 . S
C456 O445 1.239 . S
C456 O449 1.256 . S
C457 O446 1.278 . S
C457 O452 1.241 . S
C458 O448 1.244 . S
C458 O453 1.256 . S
C459 O450 1.239 . S
C459 O451 1.256 . S
O460 Mn442 2.221 . S
O460 Mn444 2.290 . S
O460 C454 1.278 . S
O461 Mn444 2.251 . S
O461 C454 1.241 . S
O462 Mn463 2.163 1_566 S
O462 C476 1.244 . S
Mn463 O462 2.163 1_544 S
Mn463 O466 2.160 . S
Mn463 O467 2.221 . S
Mn463 O469 2.163 1_545 S
Mn463 O471 2.160 1_554 S
Mn463 O481 2.221 1_544 S
O464 Mn465 2.087 1_565 S
O464 C476 1.256 . S
Mn465 O464 2.087 1_545 S
Mn465 O472 2.089 . S
Mn465 O481 2.290 1_545 S
Mn465 O482 2.251 1_545 S
O466 Mn463 2.160 . S
O466 C477 1.239 . S
O467 Mn463 2.221 . S
O467 Mn468 2.290 1_545 S
O467 C478 1.278 . S
Mn468 O467 2.290 1_565 S
Mn468 O470 2.089 1_565 S
Mn468 O473 2.251 1_565 S
Mn468 O474 2.087 . S
O469 Mn463 2.163 1_565 S
O469 C479 1.244 . S
O470 Mn468 2.089 1_545 S
O470 C477 1.256 . S
O471 Mn463 2.160 1_556 S
O471 C480 1.239 . S
O472 Mn465 2.089 . S
O472 C480 1.256 . S
O473 Mn468 2.251 1_545 S
O473 C478 1.241 . S
O474 Mn468 2.087 . S
O474 C479 1.256 . S
C475 O481 1.278 . S
C475 O482 1.241 . S
C476 O462 1.244 . S
C476 O464 1.256 . S
C477 O466 1.239 . S
C477 O470 1.256 . S
C478 O467 1.278 . S
C478 O473 1.241 . S
C479 O469 1.244 . S
C479 O474 1.256 . S
C480 O471 1.239 . S
C480 O472 1.256 . S
O481 Mn463 2.221 1_566 S
O481 Mn465 2.290 1_565 S
O481 C475 1.278 . S
O482 Mn465 2.251 1_565 S
O482 C475 1.241 . S
O483 Mn484 2.163 . S
O483 C497 1.244 . S
Mn484 O483 2.163 . S
Mn484 O487 2.160 . S
Mn484 O488 2.221 . S
Mn484 O490 2.163 . S
Mn484 O492 2.160 . S
Mn484 O502 2.221 . S
O485 Mn486 2.087 . S
O485 C497 1.256 . S
Mn486 O485 2.087 . S
Mn486 O493 2.089 . S
Mn486 O502 2.290 . S
Mn486 O503 2.251 . S
O487 Mn484 2.160 . S
O487 C498 1.239 . S
O488 Mn484 2.221 . S
O488 Mn489 2.290 . S
O488 C499 1.278 . S
Mn489 O488 2.290 . S
Mn489 O491 2.089 . S
Mn489 O494 2.251 . S
Mn489 O495 2.087 . S
O490 Mn484 2.163 . S
O490 C500 1.244 . S
O491 Mn489 2.089 . S
O491 C498 1.256 . S
O492 Mn484 2.160 . S
O492 C501 1.239 . S
O493 Mn486 2.089 . S
O493 C501 1.256 . S
O494 Mn489 2.251 . S
O494 C499 1.241 . S
O495 Mn489 2.087 . S
O495 C500 1.256 . S
C496 O502 1.278 . S
C496 O503 1.241 . S
C497 O483 1.244 . S
C497 O485 1.256 . S
C498 O487 1.239 . S
C498 O491 1.256 . S
C499 O488 1.278 . S
C499 O494 1.241 . S
C500 O490 1.244 . S
C500 O495 1.256 . S
C501 O492 1.239 . S
C501 O493 1.256 . S
O502 Mn484 2.221 . S
O502 Mn486 2.290 . S
O502 C496 1.278 . S
O503 Mn486 2.251 . S
O503 C496 1.241 . S
O504 Mn505 2.163 1_556 S
O504 C518 1.244 . S
Mn505 O504 2.163 1_554 S
Mn505 O508 2.160 . S
Mn505 O509 2.221 1_554 S
Mn505 O511 2.163 . S
Mn505 O513 2.160 . S
Mn505 O523 2.221 . S
O506 Mn507 2.087 . S
O506 C518 1.256 1_554 S
Mn507 O506 2.087 . S
Mn507 O514 2.089 . S
Mn507 O523 2.290 . S
Mn507 O524 2.251 . S
O508 Mn505 2.160 . S
O508 C519 1.239 . S
O509 Mn505 2.221 1_556 S
O509 Mn510 2.290 . S
O509 C520 1.278 . S
Mn510 O509 2.290 . S
Mn510 O512 2.089 1_556 S
Mn510 O515 2.251 . S
Mn510 O516 2.087 . S
O511 Mn505 2.163 . S
O511 C521 1.244 1_554 S
O512 Mn510 2.089 1_554 S
O512 C519 1.256 . S
O513 Mn505 2.160 . S
O513 C522 1.239 . S
O514 Mn507 2.089 . S
O514 C522 1.256 . S
O515 Mn510 2.251 . S
O515 C520 1.241 . S
O516 Mn510 2.087 . S
O516 C521 1.256 . S
C517 O523 1.278 . S
C517 O524 1.241 . S
C518 O504 1.244 . S
C518 O506 1.256 1_556 S
C519 O508 1.239 . S
C519 O512 1.256 . S
C520 O509 1.278 . S
C520 O515 1.241 . S
C521 O511 1.244 1_556 S
C521 O516 1.256 . S
C522 O513 1.239 . S
C522 O514 1.256 . S
O523 Mn505 2.221 . S
O523 Mn507 2.290 . S
O523 C517 1.278 . S
O524 Mn507 2.251 . S
O524 C517 1.241 . S
O525 Mn526 2.163 . S
O525 C539 1.244 . S
Mn526 O525 2.163 . S
Mn526 O529 2.160 . S
Mn526 O530 2.221 . S
Mn526 O532 2.163 . S
Mn526 O534 2.160 . S
Mn526 O544 2.221 . S
O527 Mn528 2.087 . S
O527 C539 1.256 . S
Mn528 O527 2.087 . S
Mn528 O535 2.089 . S
Mn528 O544 2.290 . S
Mn528 O545 2.251 . S
O529 Mn526 2.160 . S
O529 C540 1.239 . S
O530 Mn526 2.221 . S
O530 Mn531 2.290 . S
O530 C541 1.278 . S
Mn531 O530 2.290 . S
Mn531 O533 2.089 . S
Mn531 O536 2.251 . S
Mn531 O537 2.087 . S
O532 Mn526 2.163 . S
O532 C542 1.244 . S
O533 Mn531 2.089 . S
O533 C540 1.256 . S
O534 Mn526 2.160 . S
O534 C543 1.239 . S
O535 Mn528 2.089 . S
O535 C543 1.256 . S
O536 Mn531 2.251 . S
O536 C541 1.241 . S
O537 Mn531 2.087 . S
O537 C542 1.256 . S
C538 O544 1.278 . S
C538 O545 1.241 . S
C539 O525 1.244 . S
C539 O527 1.256 . S
C540 O529 1.239 . S
C540 O533 1.256 . S
C541 O530 1.278 . S
C541 O536 1.241 . S
C542 O532 1.244 . S
C542 O537 1.256 . S
C543 O534 1.239 . S
C543 O535 1.256 . S
O544 Mn526 2.221 . S
O544 Mn528 2.290 . S
O544 C538 1.278 . S
O545 Mn528 2.251 . S
O545 C538 1.241 . S
O546 Mn547 2.163 1_655 S
O546 C560 1.244 . S
Mn547 O546 2.163 1_455 S
Mn547 O550 2.160 . S
Mn547 O551 2.221 1_455 S
Mn547 O553 2.163 . S
Mn547 O555 2.160 . S
Mn547 O565 2.221 . S
O548 Mn549 2.087 . S
O548 C560 1.256 1_455 S
Mn549 O548 2.087 . S
Mn549 O556 2.089 . S
Mn549 O565 2.290 . S
Mn549 O566 2.251 . S
O550 Mn547 2.160 . S
O550 C561 1.239 . S
O551 Mn547 2.221 1_655 S
O551 Mn552 2.290 . S
O551 C562 1.278 . S
Mn552 O551 2.290 . S
Mn552 O554 2.089 1_655 S
Mn552 O557 2.251 . S
Mn552 O558 2.087 . S
O553 Mn547 2.163 . S
O553 C563 1.244 1_455 S
O554 Mn552 2.089 1_455 S
O554 C561 1.256 . S
O555 Mn547 2.160 . S
O555 C564 1.239 . S
O556 Mn549 2.089 . S
O556 C564 1.256 . S
O557 Mn552 2.251 . S
O557 C562 1.241 . S
O558 Mn552 2.087 . S
O558 C563 1.256 . S
C559 O565 1.278 . S
C559 O566 1.241 . S
C560 O546 1.244 . S
C560 O548 1.256 1_655 S
C561 O550 1.239 . S
C561 O554 1.256 . S
C562 O551 1.278 . S
C562 O557 1.241 . S
C563 O553 1.244 1_655 S
C563 O558 1.256 . S
C564 O555 1.239 . S
C564 O556 1.256 . S
O565 Mn547 2.221 . S
O565 Mn549 2.290 . S
O565 C559 1.278 . S
O566 Mn549 2.251 . S
O566 C559 1.241 . S
O567 Mn568 2.163 . S
O567 C581 1.244 . S
Mn568 O567 2.163 . S
Mn568 O571 2.160 . S
Mn568 O572 2.221 . S
Mn568 O574 2.163 . S
Mn568 O576 2.160 . S
Mn568 O586 2.221 . S
O569 Mn570 2.087 . S
O569 C581 1.256 . S
Mn570 O569 2.087 . S
Mn570 O577 2.089 . S
Mn570 O586 2.290 . S
Mn570 O587 2.251 . S
O571 Mn568 2.160 . S
O571 C582 1.239 . S
O572 Mn568 2.221 . S
O572 Mn573 2.290 . S
O572 C583 1.278 . S
Mn573 O572 2.290 . S
Mn573 O575 2.089 . S
Mn573 O578 2.251 . S
Mn573 O579 2.087 . S
O574 Mn568 2.163 . S
O574 C584 1.244 . S
O575 Mn573 2.089 . S
O575 C582 1.256 . S
O576 Mn568 2.160 . S
O576 C585 1.239 . S
O577 Mn570 2.089 . S
O577 C585 1.256 . S
O578 Mn573 2.251 . S
O578 C583 1.241 . S
O579 Mn573 2.087 . S
O579 C584 1.256 . S
C580 O586 1.278 . S
C580 O587 1.241 . S
C581 O567 1.244 . S
C581 O569 1.256 . S
C582 O571 1.239 . S
C582 O575 1.256 . S
C583 O572 1.278 . S
C583 O578 1.241 . S
C584 O574 1.244 . S
C584 O579 1.256 . S
C585 O576 1.239 . S
C585 O577 1.256 . S
O586 Mn568 2.221 . S
O586 Mn570 2.290 . S
O586 C580 1.278 . S
O587 Mn570 2.251 . S
O587 C580 1.241 . S
O588 Mn589 2.163 . S
O588 C602 1.244 . S
Mn589 O588 2.163 . S
Mn589 O592 2.160 . S
Mn589 O593 2.221 . S
Mn589 O595 2.163 . S
Mn589 O597 2.160 . S
Mn589 O607 2.221 . S
O590 Mn591 2.087 . S
O590 C602 1.256 . S
Mn591 O590 2.087 . S
Mn591 O598 2.089 . S
Mn591 O607 2.290 . S
Mn591 O608 2.251 . S
O592 Mn589 2.160 . S
O592 C603 1.239 . S
O593 Mn589 2.221 . S
O593 Mn594 2.290 . S
O593 C604 1.278 . S
Mn594 O593 2.290 . S
Mn594 O596 2.089 . S
Mn594 O599 2.251 . S
Mn594 O600 2.087 . S
O595 Mn589 2.163 . S
O595 C605 1.244 . S
O596 Mn594 2.089 . S
O596 C603 1.256 . S
O597 Mn589 2.160 . S
O597 C606 1.239 . S
O598 Mn591 2.089 . S
O598 C606 1.256 . S
O599 Mn594 2.251 . S
O599 C604 1.241 . S
O600 Mn594 2.087 . S
O600 C605 1.256 . S
C601 O607 1.278 . S
C601 O608 1.241 . S
C602 O588 1.244 . S
C602 O590 1.256 . S
C603 O592 1.239 . S
C603 O596 1.256 . S
C604 O593 1.278 . S
C604 O599 1.241 . S
C605 O595 1.244 . S
C605 O600 1.256 . S
C606 O597 1.239 . S
C606 O598 1.256 . S
O607 Mn589 2.221 . S
O607 Mn591 2.290 . S
O607 C601 1.278 . S
O608 Mn591 2.251 . S
O608 C601 1.241 . S
O609 Mn610 2.163 . S
O609 C623 1.244 . S
Mn610 O609 2.163 . S
Mn610 O613 2.160 . S
Mn610 O614 2.221 . S
Mn610 O616 2.163 . S
Mn610 O618 2.160 . S
Mn610 O628 2.221 . S
O611 Mn612 2.087 . S
O611 C623 1.256 . S
Mn612 O611 2.087 . S
Mn612 O619 2.089 . S
Mn612 O628 2.290 . S
Mn612 O629 2.251 . S
O613 Mn610 2.160 . S
O613 C624 1.239 . S
O614 Mn610 2.221 . S
O614 Mn615 2.290 . S
O614 C625 1.278 . S
Mn615 O614 2.290 . S
Mn615 O617 2.089 . S
Mn615 O620 2.251 . S
Mn615 O621 2.087 . S
O616 Mn610 2.163 . S
O616 C626 1.244 . S
O617 Mn615 2.089 . S
O617 C624 1.256 . S
O618 Mn610 2.160 . S
O618 C627 1.239 . S
O619 Mn612 2.089 . S
O619 C627 1.256 . S
O620 Mn615 2.251 . S
O620 C625 1.241 . S
O621 Mn615 2.087 . S
O621 C626 1.256 . S
C622 O628 1.278 . S
C622 O629 1.241 . S
C623 O609 1.244 . S
C623 O611 1.256 . S
C624 O613 1.239 . S
C624 O617 1.256 . S
C625 O614 1.278 . S
C625 O620 1.241 . S
C626 O616 1.244 . S
C626 O621 1.256 . S
C627 O618 1.239 . S
C627 O619 1.256 . S
O628 Mn610 2.221 . S
O628 Mn612 2.290 . S
O628 C622 1.278 . S
O629 Mn612 2.251 . S
O629 C622 1.241 . S
O630 Mn631 2.163 . S
O630 C644 1.244 . S
Mn631 O630 2.163 . S
Mn631 O634 2.160 . S
Mn631 O635 2.221 . S
Mn631 O637 2.163 . S
Mn631 O639 2.160 . S
Mn631 O649 2.221 . S
O632 Mn633 2.087 . S
O632 C644 1.256 . S
Mn633 O632 2.087 . S
Mn633 O640 2.089 . S
Mn633 O649 2.290 . S
Mn633 O650 2.251 . S
O634 Mn631 2.160 . S
O634 C645 1.239 . S
O635 Mn631 2.221 . S
O635 Mn636 2.290 . S
O635 C646 1.278 . S
Mn636 O635 2.290 . S
Mn636 O638 2.089 . S
Mn636 O641 2.251 . S
Mn636 O642 2.087 . S
O637 Mn631 2.163 . S
O637 C647 1.244 . S
O638 Mn636 2.089 . S
O638 C645 1.256 . S
O639 Mn631 2.160 . S
O639 C648 1.239 . S
O640 Mn633 2.089 . S
O640 C648 1.256 . S
O641 Mn636 2.251 . S
O641 C646 1.241 . S
O642 Mn636 2.087 . S
O642 C647 1.256 . S
C643 O649 1.278 . S
C643 O650 1.241 . S
C644 O630 1.244 . S
C644 O632 1.256 . S
C645 O634 1.239 . S
C645 O638 1.256 . S
C646 O635 1.278 . S
C646 O641 1.241 . S
C647 O637 1.244 . S
C647 O642 1.256 . S
C648 O639 1.239 . S
C648 O640 1.256 . S
O649 Mn631 2.221 . S
O649 Mn633 2.290 . S
O649 C643 1.278 . S
O650 Mn633 2.251 . S
O650 C643 1.241 . S
O651 Mn652 2.160 1_656 S
O651 C665 1.246 . S
Mn652 O651 2.160 1_454 S
Mn652 O655 2.160 . S
Mn652 O656 2.221 . S
Mn652 O658 2.163 1_554 S
Mn652 O660 2.160 1_455 S
Mn652 O670 2.221 1_455 S
O653 Mn654 2.087 1_556 S
O653 C665 1.256 . S
Mn654 O653 2.087 1_554 S
Mn654 O661 2.089 . S
Mn654 O670 2.290 . S
Mn654 O671 2.251 1_554 S
O655 Mn652 2.160 . S
O655 C666 1.239 . S
O656 Mn652 2.221 . S
O656 Mn657 2.290 1_554 S
O656 C667 1.278 . S
Mn657 O656 2.290 1_556 S
Mn657 O659 2.089 1_556 S
Mn657 O662 2.251 1_556 S
Mn657 O663 2.087 . S
O658 Mn652 2.163 1_556 S
O658 C668 1.244 . S
O659 Mn657 2.089 1_554 S
O659 C666 1.256 . S
O660 Mn652 2.160 1_655 S
O660 C669 1.239 . S
O661 Mn654 2.089 . S
O661 C669 1.256 . S
O662 Mn657 2.251 1_554 S
O662 C667 1.241 . S
O663 Mn657 2.087 . S
O663 C668 1.256 . S
C664 O670 1.278 1_556 S
C664 O671 1.241 . S
C665 O651 1.246 . S
C665 O653 1.256 . S
C666 O655 1.239 . S
C666 O659 1.256 . S
C667 O656 1.278 . S
C667 O662 1.241 . S
C668 O658 1.244 . S
C668 O663 1.256 . S
C669 O660 1.239 . S
C669 O661 1.256 . S
O670 Mn652 2.221 1_655 S
O670 Mn654 2.290 . S
O670 C664 1.278 1_554 S
O671 Mn654 2.251 1_556 S
O671 C664 1.241 . S
C352 C4 1.224 . S
C19 C372 1.268 . S
C39 C394 1.588 . S
C413 C54 1.261 . S
C18 C434 1.182 . S
C457 C40 1.558 . S
C480 C53 1.540 . S
C5 C498 1.051 . S
C61 C354 0.834 . S
C74 C374 1.290 . S
C396 C89 1.140 . S
C415 C109 1.667 . S
C68 C436 1.566 . S
C459 C81 1.687 . S
C476 C96 1.212 1_565 S
C500 C102 1.359 . S
C350 C103 0.827 1_556 S
C522 C117 1.156 . S
C130 C539 1.188 . S
C562 C152 1.499 . S
C60 C496 1.276 . S
C392 C82 1.250 . S
C137 C585 1.638 . S
C601 C165 1.544 . S
C172 C349 1.700 . S
C602 C194 1.460 . S
C207 C391 1.455 . S
C215 C582 1.090 . S
C435 C186 1.418 1_455 S
C538 C201 1.834 . S
C479 C221 1.406 . S
C623 C180 1.651 . S
C353 C236 1.531 1_545 S
C242 C606 1.476 . S
C395 C264 1.544 1_565 S
C277 C580 1.714 . S
C229 C433 1.527 1_545 S
C249 C542 1.490 . S
C477 C257 1.066 1_545 S
C270 C627 1.357 . S
C278 C351 1.203 . S
C292 C521 1.542 1_554 S
C298 C456 1.548 . S
C313 C559 1.982 . S
C625 C228 1.718 . S
C393 C243 1.052 . S
C416 C305 1.345 . S
C373 C333 1.398 . S
C32 C646 1.224 . S
C603 C47 1.268 . S
C667 C11 1.589 . S
C26 C581 1.261 . S
C46 C518 1.182 . S
C541 C12 1.558 . S
C564 C25 1.540 1_455 S
C624 C33 1.051 . S
C648 C159 0.834 . S
C116 C605 1.290 . S
C131 C669 1.140 . S
C583 C151 1.667 . S
C520 C166 1.566 . S
C123 C543 1.687 . S
C560 C138 1.213 . S
C144 C626 1.359 . S
C644 C145 0.827 . S
C438 C75 1.156 . S
C455 C88 1.188 . S
C110 C478 1.498 . S
C622 C158 1.276 . S
C124 C665 1.250 1_554 S
C417 C95 1.638 . S
C370 C67 1.544 . S
C200 C643 1.700 . S
C371 C222 1.459 . S
C664 C179 1.455 1_655 S
C187 C414 1.090 . S
C214 C519 1.418 . S
C173 C454 1.834 . S
C193 C563 1.406 . S
C208 C497 1.651 . S
C647 C334 1.536 . S
C284 C375 1.476 . S
C668 C306 1.544 . S
C319 C412 1.714 . S
C327 C517 1.527 . S
C458 C291 1.490 . S
C299 C561 1.066 . S
C501 C312 1.357 . S
C645 C320 1.203 . S
C437 C250 1.542 . S
C256 C540 1.548 . S
C475 C271 1.982 1_556 S
C499 C326 1.718 . S
C285 C666 1.052 1_556 S
C584 C263 1.345 . S
C604 C235 1.398 . S
