# Generated by pormake.
# Topology bwt, (3,3)-cn, num edge types: 1
# Building blocks:
#     Node 0, Type 0, BuildingBlock: OLANEW_clean_sbu_2, # of connection points: 3
#     Node 1, Type 0, BuildingBlock: OLANEW_clean_sbu_2, # of connection points: 3
#     Node 2, Type 0, BuildingBlock: OLANEW_clean_sbu_2, # of connection points: 3
#     Node 3, Type 0, BuildingBlock: OLANEW_clean_sbu_2, # of connection points: 3
#     Node 4, Type 0, BuildingBlock: OLANEW_clean_sbu_2, # of connection points: 3
#     Node 5, Type 0, BuildingBlock: OLANEW_clean_sbu_2, # of connection points: 3
#     Node 6, Type 0, BuildingBlock: OLANEW_clean_sbu_2, # of connection points: 3
#     Node 7, Type 0, BuildingBlock: OLANEW_clean_sbu_2, # of connection points: 3
#     Node 8, Type 0, BuildingBlock: OLANEW_clean_sbu_2, # of connection points: 3
#     Node 9, Type 0, BuildingBlock: OLANEW_clean_sbu_2, # of connection points: 3
#     Node 10, Type 0, BuildingBlock: OLANEW_clean_sbu_2, # of connection points: 3
#     Node 11, Type 0, BuildingBlock: OLANEW_clean_sbu_2, # of connection points: 3
#     Node 12, Type 0, BuildingBlock: OLANEW_clean_sbu_2, # of connection points: 3
#     Node 13, Type 0, BuildingBlock: OLANEW_clean_sbu_2, # of connection points: 3
#     Node 14, Type 0, BuildingBlock: OLANEW_clean_sbu_2, # of connection points: 3
#     Node 15, Type 0, BuildingBlock: OLANEW_clean_sbu_2, # of connection points: 3
#     Node 16, Type 0, BuildingBlock: OLANEW_clean_sbu_2, # of connection points: 3
#     Node 17, Type 0, BuildingBlock: OLANEW_clean_sbu_2, # of connection points: 3
#     Node 18, Type 0, BuildingBlock: OLANEW_clean_sbu_2, # of connection points: 3
#     Node 19, Type 0, BuildingBlock: OLANEW_clean_sbu_2, # of connection points: 3
#     Node 20, Type 0, BuildingBlock: OLANEW_clean_sbu_2, # of connection points: 3
#     Node 21, Type 0, BuildingBlock: OLANEW_clean_sbu_2, # of connection points: 3
#     Node 22, Type 0, BuildingBlock: OLANEW_clean_sbu_2, # of connection points: 3
#     Node 23, Type 0, BuildingBlock: OLANEW_clean_sbu_2, # of connection points: 3
#     Node 24, Type 1, BuildingBlock: WUSLED_clean_sbu_0, # of connection points: 3
#     Node 25, Type 1, BuildingBlock: WUSLED_clean_sbu_0, # of connection points: 3
#     Node 26, Type 1, BuildingBlock: WUSLED_clean_sbu_0, # of connection points: 3
#     Node 27, Type 1, BuildingBlock: WUSLED_clean_sbu_0, # of connection points: 3
#     Node 28, Type 1, BuildingBlock: WUSLED_clean_sbu_0, # of connection points: 3
#     Node 29, Type 1, BuildingBlock: WUSLED_clean_sbu_0, # of connection points: 3
#     Node 30, Type 1, BuildingBlock: WUSLED_clean_sbu_0, # of connection points: 3
#     Node 31, Type 1, BuildingBlock: WUSLED_clean_sbu_0, # of connection points: 3
#     Node 32, Type 1, BuildingBlock: WUSLED_clean_sbu_0, # of connection points: 3
#     Node 33, Type 1, BuildingBlock: WUSLED_clean_sbu_0, # of connection points: 3
#     Node 34, Type 1, BuildingBlock: WUSLED_clean_sbu_0, # of connection points: 3
#     Node 35, Type 1, BuildingBlock: WUSLED_clean_sbu_0, # of connection points: 3
#     Node 36, Type 1, BuildingBlock: WUSLED_clean_sbu_0, # of connection points: 3
#     Node 37, Type 1, BuildingBlock: WUSLED_clean_sbu_0, # of connection points: 3
#     Node 38, Type 1, BuildingBlock: WUSLED_clean_sbu_0, # of connection points: 3
#     Node 39, Type 1, BuildingBlock: WUSLED_clean_sbu_0, # of connection points: 3
#     Node 40, Type 1, BuildingBlock: WUSLED_clean_sbu_0, # of connection points: 3
#     Node 41, Type 1, BuildingBlock: WUSLED_clean_sbu_0, # of connection points: 3
#     Node 42, Type 1, BuildingBlock: WUSLED_clean_sbu_0, # of connection points: 3
#     Node 43, Type 1, BuildingBlock: WUSLED_clean_sbu_0, # of connection points: 3
#     Node 44, Type 1, BuildingBlock: WUSLED_clean_sbu_0, # of connection points: 3
#     Node 45, Type 1, BuildingBlock: WUSLED_clean_sbu_0, # of connection points: 3
#     Node 46, Type 1, BuildingBlock: WUSLED_clean_sbu_0, # of connection points: 3
#     Node 47, Type 1, BuildingBlock: WUSLED_clean_sbu_0, # of connection points: 3
#     Edge 48, Type (0, 1), BuildingBlock: XUDNAN_clean_linker_2, # of connection points: 2
#     Edge 49, Type (0, 1), BuildingBlock: XUDNAN_clean_linker_2, # of connection points: 2
#     Edge 50, Type (0, 1), BuildingBlock: XUDNAN_clean_linker_2, # of connection points: 2
#     Edge 51, Type (0, 1), BuildingBlock: XUDNAN_clean_linker_2, # of connection points: 2
#     Edge 52, Type (0, 1), BuildingBlock: XUDNAN_clean_linker_2, # of connection points: 2
#     Edge 53, Type (0, 1), BuildingBlock: XUDNAN_clean_linker_2, # of connection points: 2
#     Edge 54, Type (0, 1), BuildingBlock: XUDNAN_clean_linker_2, # of connection points: 2
#     Edge 55, Type (0, 1), BuildingBlock: XUDNAN_clean_linker_2, # of connection points: 2
#     Edge 56, Type (0, 1), BuildingBlock: XUDNAN_clean_linker_2, # of connection points: 2
#     Edge 57, Type (0, 1), BuildingBlock: XUDNAN_clean_linker_2, # of connection points: 2
#     Edge 58, Type (0, 1), BuildingBlock: XUDNAN_clean_linker_2, # of connection points: 2
#     Edge 59, Type (0, 1), BuildingBlock: XUDNAN_clean_linker_2, # of connection points: 2
#     Edge 60, Type (0, 1), BuildingBlock: XUDNAN_clean_linker_2, # of connection points: 2
#     Edge 61, Type (0, 1), BuildingBlock: XUDNAN_clean_linker_2, # of connection points: 2
#     Edge 62, Type (0, 1), BuildingBlock: XUDNAN_clean_linker_2, # of connection points: 2
#     Edge 63, Type (0, 1), BuildingBlock: XUDNAN_clean_linker_2, # of connection points: 2
#     Edge 64, Type (0, 1), BuildingBlock: XUDNAN_clean_linker_2, # of connection points: 2
#     Edge 65, Type (0, 1), BuildingBlock: XUDNAN_clean_linker_2, # of connection points: 2
#     Edge 66, Type (0, 1), BuildingBlock: XUDNAN_clean_linker_2, # of connection points: 2
#     Edge 67, Type (0, 1), BuildingBlock: XUDNAN_clean_linker_2, # of connection points: 2
#     Edge 68, Type (0, 1), BuildingBlock: XUDNAN_clean_linker_2, # of connection points: 2
#     Edge 69, Type (0, 1), BuildingBlock: XUDNAN_clean_linker_2, # of connection points: 2
#     Edge 70, Type (0, 1), BuildingBlock: XUDNAN_clean_linker_2, # of connection points: 2
#     Edge 71, Type (0, 1), BuildingBlock: XUDNAN_clean_linker_2, # of connection points: 2
#     Edge 72, Type (0, 1), BuildingBlock: XUDNAN_clean_linker_2, # of connection points: 2
#     Edge 73, Type (0, 1), BuildingBlock: XUDNAN_clean_linker_2, # of connection points: 2
#     Edge 74, Type (0, 1), BuildingBlock: XUDNAN_clean_linker_2, # of connection points: 2
#     Edge 75, Type (0, 1), BuildingBlock: XUDNAN_clean_linker_2, # of connection points: 2
#     Edge 76, Type (0, 1), BuildingBlock: XUDNAN_clean_linker_2, # of connection points: 2
#     Edge 77, Type (0, 1), BuildingBlock: XUDNAN_clean_linker_2, # of connection points: 2
#     Edge 78, Type (0, 1), BuildingBlock: XUDNAN_clean_linker_2, # of connection points: 2
#     Edge 79, Type (0, 1), BuildingBlock: XUDNAN_clean_linker_2, # of connection points: 2
#     Edge 80, Type (0, 1), BuildingBlock: XUDNAN_clean_linker_2, # of connection points: 2
#     Edge 81, Type (0, 1), BuildingBlock: XUDNAN_clean_linker_2, # of connection points: 2
#     Edge 82, Type (0, 1), BuildingBlock: XUDNAN_clean_linker_2, # of connection points: 2
#     Edge 83, Type (0, 1), BuildingBlock: XUDNAN_clean_linker_2, # of connection points: 2
#     Edge 84, Type (0, 1), BuildingBlock: XUDNAN_clean_linker_2, # of connection points: 2
#     Edge 85, Type (0, 1), BuildingBlock: XUDNAN_clean_linker_2, # of connection points: 2
#     Edge 86, Type (0, 1), BuildingBlock: XUDNAN_clean_linker_2, # of connection points: 2
#     Edge 87, Type (0, 1), BuildingBlock: XUDNAN_clean_linker_2, # of connection points: 2
#     Edge 88, Type (0, 1), BuildingBlock: XUDNAN_clean_linker_2, # of connection points: 2
#     Edge 89, Type (0, 1), BuildingBlock: XUDNAN_clean_linker_2, # of connection points: 2
#     Edge 90, Type (0, 1), BuildingBlock: XUDNAN_clean_linker_2, # of connection points: 2
#     Edge 91, Type (0, 1), BuildingBlock: XUDNAN_clean_linker_2, # of connection points: 2
#     Edge 92, Type (0, 1), BuildingBlock: XUDNAN_clean_linker_2, # of connection points: 2
#     Edge 93, Type (0, 1), BuildingBlock: XUDNAN_clean_linker_2, # of connection points: 2
#     Edge 94, Type (0, 1), BuildingBlock: XUDNAN_clean_linker_2, # of connection points: 2
#     Edge 95, Type (0, 1), BuildingBlock: XUDNAN_clean_linker_2, # of connection points: 2
#     Edge 96, Type (0, 1), BuildingBlock: XUDNAN_clean_linker_2, # of connection points: 2
#     Edge 97, Type (0, 1), BuildingBlock: XUDNAN_clean_linker_2, # of connection points: 2
#     Edge 98, Type (0, 1), BuildingBlock: XUDNAN_clean_linker_2, # of connection points: 2
#     Edge 99, Type (0, 1), BuildingBlock: XUDNAN_clean_linker_2, # of connection points: 2
#     Edge 100, Type (0, 1), BuildingBlock: XUDNAN_clean_linker_2, # of connection points: 2
#     Edge 101, Type (0, 1), BuildingBlock: XUDNAN_clean_linker_2, # of connection points: 2
#     Edge 102, Type (0, 1), BuildingBlock: XUDNAN_clean_linker_2, # of connection points: 2
#     Edge 103, Type (0, 1), BuildingBlock: XUDNAN_clean_linker_2, # of connection points: 2
#     Edge 104, Type (0, 1), BuildingBlock: XUDNAN_clean_linker_2, # of connection points: 2
#     Edge 105, Type (0, 1), BuildingBlock: XUDNAN_clean_linker_2, # of connection points: 2
#     Edge 106, Type (0, 1), BuildingBlock: XUDNAN_clean_linker_2, # of connection points: 2
#     Edge 107, Type (0, 1), BuildingBlock: XUDNAN_clean_linker_2, # of connection points: 2
#     Edge 108, Type (0, 1), BuildingBlock: XUDNAN_clean_linker_2, # of connection points: 2
#     Edge 109, Type (0, 1), BuildingBlock: XUDNAN_clean_linker_2, # of connection points: 2
#     Edge 110, Type (0, 1), BuildingBlock: XUDNAN_clean_linker_2, # of connection points: 2
#     Edge 111, Type (0, 1), BuildingBlock: XUDNAN_clean_linker_2, # of connection points: 2
#     Edge 112, Type (0, 1), BuildingBlock: XUDNAN_clean_linker_2, # of connection points: 2
#     Edge 113, Type (0, 1), BuildingBlock: XUDNAN_clean_linker_2, # of connection points: 2
#     Edge 114, Type (0, 1), BuildingBlock: XUDNAN_clean_linker_2, # of connection points: 2
#     Edge 115, Type (0, 1), BuildingBlock: XUDNAN_clean_linker_2, # of connection points: 2
#     Edge 116, Type (0, 1), BuildingBlock: XUDNAN_clean_linker_2, # of connection points: 2
#     Edge 117, Type (0, 1), BuildingBlock: XUDNAN_clean_linker_2, # of connection points: 2
#     Edge 118, Type (0, 1), BuildingBlock: XUDNAN_clean_linker_2, # of connection points: 2
#     Edge 119, Type (0, 1), BuildingBlock: XUDNAN_clean_linker_2, # of connection points: 2
# Relax obj value: 0.141
# Max RMSD: 0.140
# Mean RMSD: 0.087
data_MOF--net-bwt--node1-OLANEW_clean_sbu_2--node2-WUSLED_clean_sbu_0--edge1-XUDNAN_clean_linker_2
_symmetry_space_group_name_H-M    P1
_symmetry_Int_Tables_number       1
_symmetry_cell_setting            triclinic
loop_
_symmetry_equiv_pos_as_xyz
'x, y, z'
_cell_length_a     77.021883
_cell_length_b     76.968162
_cell_length_c     76.982204
_cell_angle_alpha  93.359126
_cell_angle_beta   93.355543
_cell_angle_gamma 93.367291
loop_
_atom_site_label
_atom_site_type_symbol
_atom_site_fract_x
_atom_site_fract_y
_atom_site_fract_z
_atom_type_partial_charge
O0 O 0.26338 0.57867 0.34606 0.0
Cd1 Cd 0.26747 0.59026 0.31758 0.0
O2 O 0.2841 0.59594 0.35995 0.0
Cd3 Cd 0.29538 0.60525 0.33655 0.0
O4 O 0.31855 0.60933 0.32181 0.0
C5 C 0.32437 0.5961 0.31398 0.0
O6 O 0.31549 0.58099 0.31397 0.0
C7 C 0.27163 0.58439 0.36021 0.0
C8 C 0.23564 0.5863 0.298 0.0
O9 O 0.24695 0.5748 0.29672 0.0
O10 O 0.23955 0.59989 0.30823 0.0
O11 O 0.25209 0.41209 0.71555 0.0
Cd12 Cd 0.24128 0.40123 0.68604 0.0
O13 O 0.23296 0.39608 0.72878 0.0
Cd14 Cd 0.21706 0.3882 0.70492 0.0
O15 O 0.19183 0.38927 0.6907 0.0
C16 C 0.17868 0.38735 0.69979 0.0
O17 O 0.18124 0.38389 0.71623 0.0
C18 C 0.24621 0.40681 0.72955 0.0
C19 C 0.26955 0.39182 0.6672 0.0
O20 O 0.26425 0.40729 0.66715 0.0
O21 O 0.26116 0.38065 0.67578 0.0
O22 O 0.73614 0.01141 0.67195 0.0
Cd23 Cd 0.7463 0.01446 0.70268 0.0
O24 O 0.76171 0.01032 0.6607 0.0
Cd25 Cd 0.77739 0.01448 0.68533 0.0
O26 O 0.80252 0.01781 0.70021 0.0
C27 C 0.80953 0.03283 0.70497 0.0
O28 O 0.80087 0.04666 0.70195 0.0
C29 C 0.74518 0.00985 0.65873 0.0
C30 C 0.71655 0.01622 0.72152 0.0
O31 O 0.72483 0.03009 0.71719 0.0
O32 O 0.72274 0.00152 0.71752 0.0
O33 O 0.77875 0.03121 0.29281 0.0
Cd34 Cd 0.78776 0.03777 0.32354 0.0
O35 O 0.75135 0.02469 0.29758 0.0
Cd36 Cd 0.72507 0.01371 0.28931 0.0
O37 O 0.70091 0.99793 0.28217 0.0
C38 C 0.68627 0.00444 0.27943 0.0
O39 O 0.68543 0.02146 0.2807 0.0
C40 C 0.76336 0.02625 0.28702 0.0
C41 C 0.81805 0.02095 0.33163 0.0
O42 O 0.80301 0.0139 0.33421 0.0
O43 O 0.81878 0.03609 0.32552 0.0
O44 O 0.34159 0.2608 0.58248 0.0
Cd45 Cd 0.31196 0.26177 0.59205 0.0
O46 O 0.35327 0.28294 0.59952 0.0
Cd47 Cd 0.32885 0.29281 0.60788 0.0
O48 O 0.31407 0.31623 0.60968 0.0
C49 C 0.31861 0.32743 0.59905 0.0
O50 O 0.3308 0.32367 0.58843 0.0
C51 C 0.3549 0.27033 0.58842 0.0
C52 C 0.29895 0.22736 0.59436 0.0
O53 O 0.29678 0.23516 0.58021 0.0
O54 O 0.30683 0.236 0.60755 0.0
O55 O 0.27565 0.75924 0.00678 0.0
Cd56 Cd 0.30591 0.75612 1.00002 0.0
O57 O 0.26832 0.73196 0.01189 0.0
Cd58 Cd 0.29194 0.72017 0.00384 0.0
O59 O 0.30339 0.69687 0.99295 0.0
C60 C 0.29658 0.68235 0.99708 0.0
O61 O 0.28403 0.68243 0.00794 0.0
C62 C 0.26453 0.74779 0.01134 0.0
C63 C 0.31828 0.78727 0.9869 0.0
O64 O 0.31284 0.77412 0.97663 0.0
O65 O 0.31829 0.78557 0.00336 0.0
O66 O 0.75892 0.24086 0.40063 0.0
Cd67 Cd 0.72745 0.23464 0.39539 0.0
O68 O 0.76546 0.22828 0.37566 0.0
Cd69 Cd 0.73983 0.21437 0.37205 0.0
O70 O 0.7228 0.19134 0.37594 0.0
C71 C 0.73046 0.17725 0.37731 0.0
O72 O 0.74736 0.17755 0.37569 0.0
C73 C 0.77013 0.23743 0.38963 0.0
C74 C 0.71125 0.26618 0.39487 0.0
O75 O 0.71333 0.25836 0.40902 0.0
O76 O 0.71651 0.25891 0.38089 0.0
O77 O 0.66603 0.73161 0.97644 0.0
Cd78 Cd 0.69614 0.74114 0.98555 0.0
O79 O 0.65386 0.75681 0.97875 0.0
Cd80 Cd 0.67725 0.77354 0.98655 0.0
O81 O 0.68989 0.79925 0.99443 0.0
C82 C 0.68001 0.81024 0.00094 0.0
O83 O 0.66362 0.8053 0.00271 0.0
C84 C 0.65259 0.74041 0.97529 0.0
C85 C 0.71416 0.7111 0.99018 0.0
O86 O 0.70661 0.7185 0.00278 0.0
O87 O 0.71364 0.71821 0.97553 0.0
O88 O 0.56686 0.34267 0.25519 0.0
Cd89 Cd 0.57428 0.31249 0.25815 0.0
O90 O 0.57898 0.35281 0.28068 0.0
Cd91 Cd 0.5854 0.32791 0.29085 0.0
O92 O 0.58896 0.3133 0.31419 0.0
C93 C 0.57549 0.30941 0.32229 0.0
O94 O 0.56018 0.31314 0.31554 0.0
C95 C 0.57101 0.3554 0.26621 0.0
C96 C 0.5662 0.29356 0.22633 0.0
O97 O 0.55515 0.2943 0.23813 0.0
O98 O 0.58123 0.30148 0.2297 0.0
O99 O 0.95945 0.2251 0.75173 0.0
Cd100 Cd 0.95465 0.25621 0.75184 0.0
O101 O 0.97545 0.22541 0.72897 0.0
Cd102 Cd 0.9707 0.25173 0.72155 0.0
O103 O 0.96882 0.26662 0.69827 0.0
C104 C 0.97858 0.26153 0.68647 0.0
O105 O 0.98897 0.24902 0.68975 0.0
C106 C 0.96889 0.21728 0.74117 0.0
C107 C 0.95836 0.27065 0.78609 0.0
O108 O 0.94357 0.2642 0.77943 0.0
O109 O 0.97138 0.27056 0.77645 0.0
O110 O 0.40224 0.72798 0.23263 0.0
Cd111 Cd 0.38625 0.69951 0.23186 0.0
O112 O 0.42024 0.72065 0.21262 0.0
Cd113 Cd 0.40583 0.69684 0.20173 0.0
O114 O 0.40132 0.68681 0.17455 0.0
C115 C 0.41404 0.69064 0.16538 0.0
O116 O 0.4281 0.69882 0.17315 0.0
C117 C 0.41554 0.73158 0.22417 0.0
C118 C 0.38198 0.69143 0.26636 0.0
O119 O 0.39531 0.68683 0.25843 0.0
O120 O 0.37042 0.69937 0.25781 0.0
O121 O 0.00115 0.67412 0.75271 0.0
Cd122 Cd 0.00013 0.70538 0.75962 0.0
O123 O 0.97834 0.66586 0.76682 0.0
Cd124 Cd 0.97824 0.69072 0.78203 0.0
O125 O 0.98239 0.70523 0.80739 0.0
C126 C 0.99385 0.69941 0.81771 0.0
O127 O 0.00235 0.68604 0.81219 0.0
C128 C 0.99014 0.66222 0.75655 0.0
C129 C 0.9992 0.72098 0.72774 0.0
O130 O 0.01371 0.71842 0.73592 0.0
O131 O 0.9851 0.71675 0.73495 0.0
O132 O 0.75341 0.39699 0.68376 0.0
Cd133 Cd 0.75934 0.39146 0.71439 0.0
O134 O 0.72555 0.39009 0.68454 0.0
Cd135 Cd 0.69785 0.38471 0.67681 0.0
O136 O 0.66944 0.3827 0.67673 0.0
C137 C 0.66062 0.39305 0.66807 0.0
O138 O 0.6688 0.40435 0.65881 0.0
C139 C 0.73835 0.3952 0.67597 0.0
C140 C 0.79506 0.38862 0.72047 0.0
O141 O 0.78478 0.37502 0.71682 0.0
O142 O 0.78838 0.40347 0.72163 0.0
O143 O 0.75495 0.63076 0.27993 0.0
Cd144 Cd 0.74778 0.64825 0.30579 0.0
O145 O 0.78282 0.632 0.28795 0.0
Cd146 Cd 0.81043 0.62848 0.28435 0.0
O147 O 0.83831 0.62508 0.28285 0.0
C148 C 0.84352 0.61197 0.27428 0.0
O149 O 0.83192 0.60065 0.26617 0.0
C150 C 0.77034 0.62684 0.27695 0.0
C151 C 0.71311 0.64117 0.31309 0.0
O152 O 0.71721 0.6522 0.30195 0.0
O153 O 0.72542 0.63358 0.32093 0.0
O154 O 0.27543 0.05587 0.30897 0.0
Cd155 Cd 0.2849 0.06068 0.2798 0.0
O156 O 0.24991 0.04513 0.2979 0.0
Cd157 Cd 0.22274 0.03521 0.29877 0.0
O158 O 0.19526 0.02604 0.29707 0.0
C159 C 0.18959 0.01429 0.30661 0.0
O160 O 0.20051 0.00765 0.31779 0.0
C161 C 0.26031 0.04914 0.31117 0.0
C162 C 0.31287 0.04071 0.27213 0.0
O163 O 0.31546 0.05627 0.27905 0.0
O164 O 0.29709 0.03467 0.26878 0.0
O165 O 0.27134 0.97927 0.71401 0.0
Cd166 Cd 0.25732 0.97657 0.68462 0.0
O167 O 0.29197 0.99692 0.7053 0.0
Cd168 Cd 0.31647 0.01302 0.70802 0.0
O169 O 0.3396 0.03094 0.71153 0.0
C170 C 0.35219 0.02817 0.72223 0.0
O171 O 0.35123 0.0142 0.73123 0.0
C172 C 0.28519 0.98894 0.7175 0.0
C173 C 0.22315 0.98664 0.68508 0.0
O174 O 0.22674 0.97083 0.68724 0.0
O175 O 0.23573 0.99768 0.68254 0.0
O176 O 0.67037 0.73918 0.41914 0.0
Cd177 Cd 0.69934 0.75162 0.41355 0.0
O178 O 0.68041 0.71341 0.42252 0.0
Cd179 Cd 0.67804 0.68534 0.42634 0.0
O180 O 0.67537 0.65755 0.43103 0.0
C181 C 0.66424 0.64744 0.42197 0.0
O182 O 0.65438 0.65392 0.40975 0.0
C183 C 0.66773 0.72329 0.42247 0.0
C184 C 0.69905 0.78692 0.40689 0.0
O185 O 0.69723 0.77505 0.39441 0.0
O186 O 0.70098 0.78209 0.42251 0.0
O187 O 0.69562 0.24609 0.98873 0.0
Cd188 Cd 0.66908 0.23594 0.00196 0.0
O189 O 0.69706 0.27209 0.00238 0.0
Cd190 Cd 0.70808 0.29902 0.00738 0.0
O191 O 0.71946 0.32583 0.01131 0.0
C192 C 0.71657 0.33513 0.02491 0.0
O193 O 0.70674 0.32839 0.0365 0.0
C194 C 0.7033 0.26113 0.99179 0.0
C195 C 0.67291 0.20398 0.01677 0.0
O196 O 0.66826 0.20461 0.00057 0.0
O197 O 0.67572 0.21843 0.02593 0.0
O198 O 0.2697 0.75863 0.62913 0.0
Cd199 Cd 0.29581 0.7496 0.64495 0.0
O200 O 0.28226 0.78438 0.62562 0.0
Cd201 Cd 0.28425 0.81071 0.61619 0.0
O202 O 0.28501 0.83772 0.60883 0.0
C203 C 0.27358 0.84276 0.59797 0.0
O204 O 0.2613 0.83144 0.59107 0.0
C205 C 0.26887 0.77378 0.62352 0.0
C206 C 0.30197 0.71479 0.63677 0.0
O207 O 0.29141 0.71893 0.64837 0.0
O208 O 0.30961 0.72711 0.62901 0.0
O209 O 0.30147 0.26411 0.02944 0.0
Cd210 Cd 0.27368 0.27272 0.03992 0.0
O211 O 0.29686 0.23655 0.03482 0.0
Cd212 Cd 0.30346 0.20922 0.03372 0.0
O213 O 0.30833 0.18163 0.02956 0.0
C214 C 0.31694 0.17669 0.01677 0.0
O215 O 0.32303 0.18842 0.00658 0.0
C216 C 0.30662 0.24872 0.02937 0.0
C217 C 0.26531 0.30441 0.02671 0.0
O218 O 0.27481 0.304 0.0409 0.0
O219 O 0.2596 0.28985 0.01891 0.0
O220 O 0.41802 0.65237 0.71988 0.0
Cd221 Cd 0.4061 0.68102 0.72326 0.0
O222 O 0.44157 0.66173 0.7075 0.0
Cd223 Cd 0.43148 0.68628 0.6999 0.0
O224 O 0.4288 0.69763 0.67452 0.0
C225 C 0.43207 0.68696 0.66207 0.0
O226 O 0.43607 0.67116 0.66576 0.0
C227 C 0.43284 0.64958 0.7142 0.0
C228 C 0.39791 0.68651 0.75799 0.0
O229 O 0.38659 0.67949 0.74642 0.0
O230 O 0.41295 0.69134 0.75305 0.0
O231 O 0.97697 0.71599 0.25693 0.0
Cd232 Cd 0.97695 0.68808 0.24 0.0
O233 O 0.98707 0.70454 0.28067 0.0
Cd234 Cd 0.99712 0.70604 0.30803 0.0
O235 O 0.00541 0.70939 0.33577 0.0
C236 C 0.99686 0.70125 0.34672 0.0
O237 O 0.98329 0.6909 0.34104 0.0
C238 C 0.98172 0.71765 0.27307 0.0
C239 C 0.99137 0.69142 0.20782 0.0
O240 O 0.9751 0.69322 0.20947 0.0
O241 O 0.00078 0.68809 0.22137 0.0
O242 O 0.6166 0.31125 0.76149 0.0
Cd243 Cd 0.62212 0.34079 0.75202 0.0
O244 O 0.6118 0.32074 0.78816 0.0
Cd245 Cd 0.60361 0.31666 0.81451 0.0
O246 O 0.59546 0.30898 0.83987 0.0
C247 C 0.60596 0.31114 0.85329 0.0
O248 O 0.6217 0.3182 0.85172 0.0
C249 C 0.61292 0.30811 0.77693 0.0
C250 C 0.62492 0.34025 0.71596 0.0
O251 O 0.63838 0.33912 0.72635 0.0
O252 O 0.61019 0.3418 0.72264 0.0
O253 O 0.98262 0.32189 0.2486 0.0
Cd254 Cd 0.97225 0.29193 0.23964 0.0
O255 O 0.00236 0.32484 0.22925 0.0
Cd256 Cd 0.99353 0.30102 0.21369 0.0
O257 O 0.98413 0.28939 0.18806 0.0
C258 C 0.97567 0.29947 0.1787 0.0
O259 O 0.97292 0.31512 0.18534 0.0
C260 C 0.99498 0.33083 0.24247 0.0
C261 C 0.96266 0.27645 0.26982 0.0
O262 O 0.97828 0.27618 0.26497 0.0
O263 O 0.95137 0.28347 0.26004 0.0
C264 C 0.28929 0.55314 0.59912 0.0
C265 C 0.30612 0.55836 0.60625 0.0
C266 C 0.29785 0.58827 0.6107 0.0
C267 C 0.31039 0.57577 0.61191 0.0
C268 C 0.2808 0.58288 0.6043 0.0
C269 C 0.27658 0.56553 0.5985 0.0
U270 U 0.27619 0.5244 0.55872 0.0
O271 O 0.28687 0.50064 0.5476 0.0
O272 O 0.25942 0.50026 0.55392 0.0
C273 C 0.27232 0.49111 0.54887 0.0
C274 C 0.28571 0.53533 0.59089 0.0
C275 C 0.27431 0.47458 0.55717 0.0
C276 C 0.28016 0.45828 0.58278 0.0
C277 C 0.27752 0.47415 0.57528 0.0
C278 C 0.27623 0.44323 0.55414 0.0
C279 C 0.27976 0.44268 0.57223 0.0
C280 C 0.27353 0.45904 0.5467 0.0
C281 C 0.26744 0.54938 0.51746 0.0
C282 C 0.26305 0.53603 0.48803 0.0
C283 C 0.26363 0.56747 0.49294 0.0
C284 C 0.26619 0.56585 0.51085 0.0
C285 C 0.26228 0.55261 0.48129 0.0
C286 C 0.26567 0.53443 0.50601 0.0
C287 C 0.27161 0.54831 0.53619 0.0
O288 O 0.26941 0.53088 0.5856 0.0
O289 O 0.29686 0.5306 0.57949 0.0
O290 O 0.28684 0.54233 0.54032 0.0
O291 O 0.25906 0.542 0.54531 0.0
H292 H 0.31614 0.54907 0.6069 0.0
H293 H 0.32358 0.57952 0.61696 0.0
H294 H 0.27091 0.59224 0.60305 0.0
H295 H 0.2635 0.56201 0.59298 0.0
H296 H 0.28299 0.45828 0.59672 0.0
H297 H 0.27823 0.48609 0.58355 0.0
H298 H 0.27561 0.43141 0.5457 0.0
H299 H 0.27104 0.45915 0.5327 0.0
H300 H 0.26219 0.52436 0.47937 0.0
H301 H 0.26282 0.58038 0.48818 0.0
H302 H 0.26752 0.57751 0.51953 0.0
H303 H 0.26669 0.52161 0.51095 0.0
C304 C 0.27402 0.45578 0.97283 0.0
C305 C 0.25658 0.44925 0.97295 0.0
C306 C 0.26577 0.4228 0.98569 0.0
C307 C 0.25252 0.43294 0.97927 0.0
C308 C 0.28313 0.42971 0.9864 0.0
C309 C 0.2872 0.44603 0.98009 0.0
U310 U 0.28226 0.47896 0.93178 0.0
O311 O 0.27427 0.50395 0.92259 0.0
O312 O 0.30207 0.49926 0.92599 0.0
C313 C 0.2904 0.51068 0.92288 0.0
C314 C 0.27859 0.47215 0.96438 0.0
C315 C 0.29397 0.52835 0.93158 0.0
C316 C 0.28384 0.5552 0.94467 0.0
C317 C 0.2804 0.53812 0.93759 0.0
C318 C 0.31449 0.55309 0.94012 0.0
C319 C 0.30091 0.56296 0.94592 0.0
C320 C 0.31104 0.53602 0.93297 0.0
C321 C 0.27735 0.44992 0.88918 0.0
C322 C 0.27919 0.46073 0.86028 0.0
C323 C 0.27399 0.42977 0.86361 0.0
C324 C 0.27458 0.4329 0.88169 0.0
C325 C 0.27615 0.44365 0.85267 0.0
C326 C 0.27977 0.46384 0.87842 0.0
C327 C 0.27724 0.45282 0.90818 0.0
O328 O 0.29379 0.47296 0.95741 0.0
O329 O 0.26615 0.47819 0.95442 0.0
O330 O 0.26461 0.46198 0.91382 0.0
O331 O 0.29242 0.45718 0.91645 0.0
H332 H 0.24604 0.45651 0.96775 0.0
H333 H 0.23898 0.42817 0.97889 0.0
H334 H 0.29368 0.42221 0.99118 0.0
H335 H 0.30074 0.45077 0.98041 0.0
H336 H 0.27301 0.56249 0.94872 0.0
H337 H 0.26705 0.53273 0.93655 0.0
H338 H 0.32781 0.55856 0.94106 0.0
H339 H 0.32174 0.52888 0.92832 0.0
H340 H 0.28074 0.47171 0.85221 0.0
H341 H 0.2719 0.41645 0.8582 0.0
H342 H 0.27275 0.42201 0.88984 0.0
H343 H 0.28189 0.47709 0.88404 0.0
C344 C 0.6993 0.95117 0.4165 0.0
C345 C 0.7088 0.94066 0.4274 0.0
C346 C 0.69978 0.91494 0.40833 0.0
C347 C 0.70913 0.92277 0.4233 0.0
C348 C 0.69034 0.92557 0.39739 0.0
C349 C 0.69013 0.94352 0.40145 0.0
U350 U 0.69959 0.98748 0.45153 0.0
O351 O 0.71205 0.01394 0.45416 0.0
O352 O 0.68355 0.01018 0.45429 0.0
C353 C 0.69711 0.02138 0.45421 0.0
C354 C 0.69816 0.96985 0.42126 0.0
C355 C 0.69528 0.03593 0.44279 0.0
C356 C 0.70262 0.05094 0.41704 0.0
C357 C 0.70304 0.03613 0.42674 0.0
C358 C 0.68603 0.06516 0.43893 0.0
C359 C 0.69435 0.06572 0.42317 0.0
C360 C 0.68655 0.05041 0.44865 0.0
C361 C 0.70542 0.97564 0.49875 0.0
C362 C 0.69945 0.99503 0.52345 0.0
C363 C 0.7169 0.97027 0.52785 0.0
C364 C 0.71503 0.96561 0.50999 0.0
C365 C 0.7091 0.985 0.53477 0.0
C366 C 0.69771 0.99044 0.50556 0.0
C367 C 0.70385 0.97067 0.47998 0.0
O368 O 0.68418 0.97374 0.42933 0.0
O369 O 0.71254 0.97802 0.42841 0.0
O370 O 0.7169 0.97633 0.47115 0.0
O371 O 0.68851 0.97239 0.47204 0.0
H372 H 0.71587 0.94627 0.43918 0.0
H373 H 0.71677 0.91508 0.43188 0.0
H374 H 0.68277 0.91998 0.38591 0.0
H375 H 0.68257 0.95139 0.39299 0.0
H376 H 0.70897 0.05092 0.40485 0.0
H377 H 0.70977 0.02503 0.42192 0.0
H378 H 0.67974 0.07638 0.44413 0.0
H379 H 0.68053 0.0505 0.46104 0.0
H380 H 0.69348 0.00656 0.52839 0.0
H381 H 0.72428 0.96222 0.53628 0.0
H382 H 0.7211 0.95418 0.50494 0.0
H383 H 0.69039 0.99847 0.49705 0.0
C384 C 0.69276 0.04727 0.05062 0.0
C385 C 0.70221 0.05991 0.06186 0.0
C386 C 0.68816 0.08309 0.04729 0.0
C387 C 0.70003 0.07761 0.06014 0.0
C388 C 0.67883 0.07037 0.03592 0.0
C389 C 0.68112 0.0526 0.03759 0.0
U390 U 0.70325 0.01277 0.08126 0.0
O391 O 0.69122 0.98662 0.08477 0.0
O392 O 0.71884 0.98984 0.07912 0.0
C393 C 0.70552 0.97888 0.08138 0.0
C394 C 0.69442 0.02861 0.05317 0.0
C395 C 0.70337 0.96296 0.06966 0.0
C396 C 0.7093 0.94619 0.04311 0.0
C397 C 0.71025 0.96205 0.05314 0.0
C398 C 0.69417 0.93219 0.06575 0.0
C399 C 0.70138 0.93105 0.04939 0.0
C400 C 0.69518 0.94797 0.07576 0.0
C401 C 0.71549 0.02789 0.12849 0.0
C402 C 0.72742 0.00836 0.1491 0.0
C403 C 0.7204 0.03743 0.15907 0.0
C404 C 0.71473 0.0407 0.14206 0.0
C405 C 0.72699 0.02129 0.16273 0.0
C406 C 0.72166 0.01161 0.13211 0.0
C407 C 0.71006 0.0317 0.11059 0.0
O408 O 0.71038 0.02417 0.05695 0.0
O409 O 0.68292 0.02163 0.06309 0.0
O410 O 0.69427 0.02564 0.10511 0.0
O411 O 0.72168 0.02908 0.09903 0.0
H412 H 0.71118 0.05609 0.07212 0.0
H413 H 0.70768 0.08701 0.06892 0.0
H414 H 0.66945 0.0741 0.02601 0.0
H415 H 0.6736 0.04302 0.0289 0.0
H416 H 0.71481 0.94577 0.03048 0.0
H417 H 0.71661 0.97347 0.04813 0.0
H418 H 0.68821 0.92074 0.0711 0.0
H419 H 0.68992 0.94836 0.08852 0.0
H420 H 0.73225 0.99574 0.15156 0.0
H421 H 0.72009 0.04771 0.16925 0.0
H422 H 0.70997 0.05332 0.13945 0.0
H423 H 0.72219 0.00152 0.12177 0.0
C424 C 0.59253 0.30776 0.55571 0.0
C425 C 0.58394 0.3027 0.57034 0.0
C426 C 0.60636 0.31863 0.5896 0.0
C427 C 0.59081 0.30801 0.5871 0.0
C428 C 0.61505 0.32353 0.57488 0.0
C429 C 0.60814 0.31815 0.55804 0.0
U430 U 0.55271 0.29059 0.52879 0.0
O431 O 0.53999 0.29897 0.5046 0.0
O432 O 0.54817 0.27216 0.50583 0.0
C433 C 0.54203 0.28406 0.49594 0.0
C434 C 0.58451 0.3029 0.53818 0.0
C435 C 0.5491 0.28534 0.47859 0.0
C436 C 0.5694 0.27718 0.45687 0.0
C437 C 0.56356 0.27628 0.4737 0.0
C438 C 0.54662 0.29641 0.44967 0.0
C439 C 0.56093 0.28718 0.44461 0.0
C440 C 0.54074 0.29541 0.46642 0.0
C441 C 0.51296 0.28019 0.55512 0.0
C442 C 0.484 0.27175 0.54207 0.0
C443 C 0.48882 0.27557 0.5735 0.0
C444 C 0.50647 0.27977 0.5717 0.0
C445 C 0.47734 0.27172 0.55871 0.0
C446 C 0.50171 0.276 0.54029 0.0
C447 C 0.53131 0.28579 0.55364 0.0
O448 O 0.58028 0.28616 0.53499 0.0
O449 O 0.57207 0.31283 0.53319 0.0
O450 O 0.53403 0.3008 0.54667 0.0
O451 O 0.54136 0.27376 0.5479 0.0
H452 H 0.5718 0.29474 0.5688 0.0
H453 H 0.58395 0.30371 0.59812 0.0
H454 H 0.62698 0.3318 0.57636 0.0
H455 H 0.61485 0.3223 0.54686 0.0
H456 H 0.58034 0.26978 0.45338 0.0
H457 H 0.57027 0.26835 0.48278 0.0
H458 H 0.53998 0.30452 0.44072 0.0
H459 H 0.52955 0.3025 0.46986 0.0
H460 H 0.47546 0.26898 0.53044 0.0
H461 H 0.48414 0.2754 0.5865 0.0
H462 H 0.51502 0.28295 0.58328 0.0
H463 H 0.50656 0.27633 0.52737 0.0
C464 C 0.02758 0.72097 0.05381 0.0
C465 C 0.0403 0.72645 0.06708 0.0
C466 C 0.02295 0.71276 0.08853 0.0
C467 C 0.038 0.72244 0.08426 0.0
C468 C 0.01002 0.7076 0.07524 0.0
C469 C 0.01236 0.71163 0.05797 0.0
U470 U 0.05999 0.73486 0.02252 0.0
O471 O 0.06638 0.72399 0.99679 0.0
O472 O 0.05894 0.75107 0.99992 0.0
C473 C 0.06307 0.73833 0.98909 0.0
C474 C 0.03092 0.72414 0.03562 0.0
C475 C 0.05287 0.73592 0.97231 0.0
C476 C 0.02544 0.7331 0.95478 0.0
C477 C 0.03459 0.73542 0.97112 0.0
C478 C 0.05277 0.73169 0.94083 0.0
C479 C 0.03446 0.73112 0.93946 0.0
C480 C 0.06185 0.73407 0.95709 0.0
C481 C 0.10609 0.74666 0.04157 0.0
C482 C 0.12852 0.75959 0.02459 0.0
C483 C 0.1366 0.7455 0.05097 0.0
C484 C 0.11901 0.74172 0.05355 0.0
C485 C 0.14154 0.75435 0.0364 0.0
C486 C 0.11093 0.75567 0.0271 0.0
C487 C 0.08776 0.7414 0.0438 0.0
O488 O 0.03465 0.74055 0.03261 0.0
O489 O 0.04155 0.71344 0.02852 0.0
O490 O 0.08269 0.72569 0.03716 0.0
O491 O 0.07644 0.75309 0.04045 0.0
H492 H 0.05218 0.73362 0.0641 0.0
H493 H 0.04806 0.72688 0.09421 0.0
H494 H 0.99835 0.70003 0.0781 0.0
H495 H 0.00247 0.70719 0.04784 0.0
H496 H 0.01133 0.73259 0.95414 0.0
H497 H 0.02744 0.73678 0.98278 0.0
H498 H 0.06013 0.73049 0.9293 0.0
H499 H 0.07597 0.73448 0.95777 0.0
H500 H 0.13196 0.76622 0.01313 0.0
H501 H 0.14636 0.74143 0.06034 0.0
H502 H 0.11549 0.73468 0.06474 0.0
H503 H 0.10113 0.75939 0.01758 0.0
C504 C 0.97085 0.25635 0.4292 0.0
C505 C 0.95701 0.26583 0.42298 0.0
C506 C 0.96052 0.25418 0.39335 0.0
C507 C 0.9519 0.26477 0.40519 0.0
C508 C 0.97382 0.24409 0.39984 0.0
C509 C 0.97895 0.24522 0.41759 0.0
U510 U 0.96586 0.26721 0.47784 0.0
O511 O 0.97849 0.25531 0.50012 0.0
O512 O 0.98371 0.28319 0.49659 0.0
C513 C 0.98596 0.27024 0.50672 0.0
C514 C 0.97773 0.25864 0.44747 0.0
C515 C 0.98371 0.27408 0.52532 0.0
C516 C 0.99654 0.27845 0.55489 0.0
C517 C 0.99841 0.27593 0.537 0.0
C518 C 0.96517 0.27774 0.54957 0.0
C519 C 0.97989 0.27912 0.56142 0.0
C520 C 0.96707 0.27522 0.53164 0.0
C521 C 0.91774 0.27129 0.46538 0.0
C522 C 0.8888 0.27961 0.45647 0.0
C523 C 0.90267 0.25794 0.43887 0.0
C524 C 0.91739 0.25979 0.4505 0.0
C525 C 0.88807 0.26764 0.44185 0.0
C526 C 0.90349 0.28137 0.46814 0.0
C527 C 0.93258 0.27249 0.47839 0.0
O528 O 0.97861 0.27471 0.45442 0.0
O529 O 0.97195 0.24704 0.45796 0.0
O530 O 0.93911 0.25759 0.48186 0.0
O531 O 0.94454 0.28508 0.47672 0.0
H532 H 0.95053 0.27445 0.43177 0.0
H533 H 0.94171 0.27282 0.40065 0.0
H534 H 0.98049 0.23555 0.39115 0.0
H535 H 0.98957 0.23771 0.4222 0.0
H536 H 0.00815 0.27973 0.56363 0.0
H537 H 0.01136 0.27515 0.5323 0.0
H538 H 0.95217 0.27803 0.55418 0.0
H539 H 0.95557 0.2738 0.52275 0.0
H540 H 0.87796 0.28755 0.45899 0.0
H541 H 0.90254 0.24847 0.42789 0.0
H542 H 0.92833 0.25195 0.44809 0.0
H543 H 0.9036 0.29042 0.47947 0.0
C544 C 0.41033 0.69166 0.92175 0.0
C545 C 0.42243 0.68763 0.90943 0.0
C546 C 0.40097 0.6917 0.88575 0.0
C547 C 0.41778 0.68755 0.89163 0.0
C548 C 0.38887 0.69576 0.89818 0.0
C549 C 0.39354 0.69574 0.91605 0.0
U550 U 0.44662 0.69511 0.95656 0.0
O551 O 0.45026 0.70987 0.98206 0.0
O552 O 0.45138 0.68134 0.9804 0.0
C553 C 0.45149 0.69566 0.99062 0.0
C554 C 0.41558 0.69227 0.94047 0.0
C555 C 0.44182 0.69472 0.00659 0.0
C556 C 0.42368 0.67863 0.02584 0.0
C557 C 0.43063 0.68022 0.00955 0.0
C558 C 0.43837 0.70631 0.03615 0.0
C559 C 0.42784 0.69146 0.03946 0.0
C560 C 0.44532 0.70787 0.01993 0.0
C561 C 0.49286 0.69936 0.94144 0.0
C562 C 0.52187 0.69358 0.93274 0.0
C563 C 0.51834 0.71036 0.9598 0.0
C564 C 0.50024 0.70851 0.95667 0.0
C565 C 0.52933 0.70293 0.94785 0.0
C566 C 0.50378 0.69186 0.92955 0.0
C567 C 0.47387 0.6975 0.93775 0.0
O568 O 0.42378 0.67876 0.94558 0.0
O569 O 0.42307 0.70726 0.94685 0.0
O570 O 0.46523 0.71099 0.94266 0.0
O571 O 0.46632 0.68251 0.94138 0.0
H572 H 0.43553 0.68456 0.91359 0.0
H573 H 0.42734 0.68405 0.88248 0.0
H574 H 0.37589 0.69922 0.89412 0.0
H575 H 0.38409 0.69906 0.92539 0.0
H576 H 0.41568 0.667 0.02798 0.0
H577 H 0.42771 0.66984 0.99951 0.0
H578 H 0.44155 0.7166 0.04624 0.0
H579 H 0.45394 0.71915 0.01799 0.0
H580 H 0.53003 0.68783 0.92324 0.0
H581 H 0.52372 0.71745 0.97165 0.0
H582 H 0.49203 0.71425 0.96613 0.0
H583 H 0.4983 0.68473 0.91774 0.0
C584 C 0.55298 0.59798 0.29783 0.0
C585 C 0.56594 0.59691 0.28575 0.0
C586 C 0.58751 0.61093 0.30725 0.0
C587 C 0.583 0.6034 0.29039 0.0
C588 C 0.57446 0.61238 0.31918 0.0
C589 C 0.55733 0.60604 0.31448 0.0
U590 U 0.52456 0.55755 0.28324 0.0
O591 O 0.50054 0.54629 0.29341 0.0
O592 O 0.50068 0.5531 0.26609 0.0
C593 C 0.49126 0.54806 0.27882 0.0
C594 C 0.53535 0.58954 0.2938 0.0
C595 C 0.4747 0.55644 0.28076 0.0
C596 C 0.45644 0.58093 0.27751 0.0
C597 C 0.47235 0.57337 0.27552 0.0
C598 C 0.44518 0.55488 0.29027 0.0
C599 C 0.44263 0.57177 0.2849 0.0
C600 C 0.46101 0.5473 0.28816 0.0
C601 C 0.54875 0.51626 0.27325 0.0
C602 C 0.53442 0.48819 0.26328 0.0
C603 C 0.56537 0.49049 0.27151 0.0
C604 C 0.5646 0.50837 0.27529 0.0
C605 C 0.55027 0.48016 0.26561 0.0
C606 C 0.53365 0.50613 0.26715 0.0
C607 C 0.54824 0.53492 0.27817 0.0
O608 O 0.53119 0.58468 0.27733 0.0
O609 O 0.53064 0.57772 0.30454 0.0
O610 O 0.54217 0.5386 0.29346 0.0
O611 O 0.54234 0.54469 0.26597 0.0
H612 H 0.56307 0.59062 0.27287 0.0
H613 H 0.59282 0.60191 0.28099 0.0
H614 H 0.57755 0.61825 0.33221 0.0
H615 H 0.54758 0.60699 0.32401 0.0
H616 H 0.45491 0.59388 0.27308 0.0
H617 H 0.48278 0.58074 0.26985 0.0
H618 H 0.43502 0.54755 0.29637 0.0
H619 H 0.46261 0.53427 0.2924 0.0
H620 H 0.52255 0.48055 0.25891 0.0
H621 H 0.57781 0.48473 0.2732 0.0
H622 H 0.57638 0.51603 0.27998 0.0
H623 H 0.52127 0.51205 0.26561 0.0
C624 C 0.06196 0.99619 0.70136 0.0
C625 C 0.07176 0.01148 0.7075 0.0
C626 C 0.09804 0.99949 0.69691 0.0
C627 C 0.08967 0.01311 0.70533 0.0
C628 C 0.08807 0.98422 0.69077 0.0
C629 C 0.0702 0.9826 0.693 0.0
U630 U 0.01903 0.01594 0.71071 0.0
O631 O 0.99699 0.00544 0.72464 0.0
O632 O 0.9935 0.00979 0.6967 0.0
C633 C 0.98606 0.00528 0.71083 0.0
C634 C 0.04308 0.99445 0.7031 0.0
C635 C 0.96883 0.01203 0.71333 0.0
C636 C 0.93807 0.01074 0.70424 0.0
C637 C 0.95482 0.00546 0.70195 0.0
C638 C 0.94905 0.02962 0.72925 0.0
C639 C 0.93492 0.02271 0.71802 0.0
C640 C 0.96589 0.02425 0.72697 0.0
C641 C 0.01967 0.06527 0.72205 0.0
C642 C 0.99401 0.08089 0.72822 0.0
C643 C 0.02227 0.09656 0.72846 0.0
C644 C 0.0299 0.08096 0.72435 0.0
C645 C 0.00424 0.09672 0.73039 0.0
C646 C 0.00168 0.06526 0.724 0.0
C647 C 0.02809 0.04915 0.71756 0.0
O648 O 0.03794 0.99725 0.71895 0.0
O649 O 0.03369 0.00196 0.69123 0.0
O650 O 0.02428 0.04221 0.70169 0.0
O651 O 0.02818 0.03762 0.7295 0.0
H652 H 0.06555 0.02216 0.71392 0.0
H653 H 0.09698 0.02495 0.71039 0.0
H654 H 0.09403 0.9736 0.68398 0.0
H655 H 0.06276 0.97077 0.68805 0.0
H656 H 0.92755 0.00545 0.69514 0.0
H657 H 0.95683 0.99605 0.69133 0.0
H658 H 0.94701 0.03883 0.74 0.0
H659 H 0.97651 0.02947 0.73596 0.0
H660 H 0.98006 0.08064 0.72947 0.0
H661 H 0.03053 0.10849 0.73027 0.0
H662 H 0.04383 0.08116 0.72293 0.0
H663 H 0.9936 0.05323 0.72216 0.0
C664 C 0.45836 0.97578 0.25406 0.0
C665 C 0.44551 0.97044 0.2408 0.0
C666 C 0.42439 0.98769 0.25518 0.0
C667 C 0.42878 0.97641 0.2413 0.0
C668 C 0.43741 0.99346 0.26817 0.0
C669 C 0.45425 0.98756 0.2676 0.0
U670 U 0.48344 0.93543 0.25233 0.0
O671 O 0.50644 0.92828 0.23847 0.0
O672 O 0.50677 0.92769 0.26702 0.0
C673 C 0.51568 0.92609 0.253 0.0
C674 C 0.47549 0.96804 0.25463 0.0
C675 C 0.53365 0.93393 0.25428 0.0
C676 C 0.55634 0.95477 0.26738 0.0
C677 C 0.53882 0.94854 0.2656 0.0
C678 C 0.5635 0.93224 0.24615 0.0
C679 C 0.56893 0.94649 0.25788 0.0
C680 C 0.54607 0.92602 0.24442 0.0
C681 C 0.45637 0.89219 0.247 0.0
C682 C 0.46977 0.86441 0.2466 0.0
C683 C 0.4385 0.86523 0.24125 0.0
C684 C 0.44001 0.88342 0.24334 0.0
C685 C 0.45337 0.85551 0.24281 0.0
C686 C 0.47125 0.88262 0.24866 0.0
C687 C 0.45774 0.9113 0.24884 0.0
O688 O 0.47898 0.95923 0.2684 0.0
O689 O 0.47969 0.96009 0.24 0.0
O690 O 0.46408 0.91904 0.23561 0.0
O691 O 0.46429 0.91811 0.26405 0.0
H692 H 0.44821 0.96131 0.2302 0.0
H693 H 0.4192 0.97198 0.23088 0.0
H694 H 0.43446 0.00202 0.27912 0.0
H695 H 0.46391 0.99178 0.27802 0.0
H696 H 0.56009 0.9657 0.2766 0.0
H697 H 0.52942 0.95491 0.2733 0.0
H698 H 0.57278 0.92578 0.23837 0.0
H699 H 0.54231 0.91479 0.23555 0.0
H700 H 0.48144 0.85732 0.24807 0.0
H701 H 0.42572 0.85882 0.23807 0.0
H702 H 0.42841 0.89066 0.24195 0.0
H703 H 0.484 0.88924 0.25151 0.0
C704 C 0.95653 0.41571 0.71303 0.0
C705 C 0.9464 0.42558 0.72398 0.0
C706 C 0.9223 0.40357 0.71915 0.0
C707 C 0.92948 0.41953 0.7271 0.0
C708 C 0.93264 0.3936 0.70841 0.0
C709 C 0.94962 0.39963 0.70539 0.0
U710 U 0.98777 0.45448 0.70832 0.0
O711 O 0.01572 0.45937 0.71533 0.0
O712 O 0.00597 0.46002 0.688 0.0
C713 C 0.01969 0.46046 0.69903 0.0
C714 C 0.9738 0.42264 0.70863 0.0
C715 C 0.03399 0.44995 0.69363 0.0
C716 C 0.04947 0.42338 0.69424 0.0
C717 C 0.03501 0.43266 0.69828 0.0
C718 C 0.06162 0.44831 0.68021 0.0
C719 C 0.06305 0.4312 0.68537 0.0
C720 C 0.04722 0.45761 0.68435 0.0
C721 C 0.97299 0.49997 0.71933 0.0
C722 C 0.98439 0.5271 0.70844 0.0
C723 C 0.9722 0.52725 0.73674 0.0
C724 C 0.96859 0.50922 0.73451 0.0
C725 C 0.98019 0.53642 0.72375 0.0
C726 C 0.98093 0.50905 0.70629 0.0
C727 C 0.96964 0.48087 0.71762 0.0
O728 O 0.97375 0.4315 0.69455 0.0
O729 O 0.98372 0.43025 0.72172 0.0
O730 O 0.97867 0.47222 0.72886 0.0
O731 O 0.96869 0.47356 0.70169 0.0
H732 H 0.95147 0.43811 0.72991 0.0
H733 H 0.92199 0.42742 0.73563 0.0
H734 H 0.92745 0.3814 0.70187 0.0
H735 H 0.95721 0.39194 0.69676 0.0
H736 H 0.05013 0.41016 0.69822 0.0
H737 H 0.02482 0.4265 0.70536 0.0
H738 H 0.07195 0.45477 0.67357 0.0
H739 H 0.04663 0.47095 0.68068 0.0
H740 H 0.99031 0.53374 0.69805 0.0
H741 H 0.96905 0.53391 0.74882 0.0
H742 H 0.96256 0.50245 0.74477 0.0
H743 H 0.98454 0.50222 0.69447 0.0
C744 C 0.67401 0.41841 0.43839 0.0
C745 C 0.68327 0.40615 0.4473 0.0
C746 C 0.67711 0.38465 0.4229 0.0
C747 C 0.68489 0.3895 0.43961 0.0
C748 C 0.66754 0.39691 0.41414 0.0
C749 C 0.66604 0.41367 0.42183 0.0
U750 U 0.67936 0.44846 0.47872 0.0
O751 O 0.69231 0.47462 0.48377 0.0
O752 O 0.66457 0.47028 0.48836 0.0
C753 C 0.67784 0.48174 0.48772 0.0
C754 C 0.67293 0.4361 0.44639 0.0
C755 C 0.67415 0.49757 0.47876 0.0
C756 C 0.66846 0.51244 0.45222 0.0
C757 C 0.67148 0.49712 0.46055 0.0
C758 C 0.67062 0.52875 0.48025 0.0
C759 C 0.66807 0.52846 0.46197 0.0
C760 C 0.67363 0.51343 0.48854 0.0
C761 C 0.69371 0.42665 0.52079 0.0
C762 C 0.69169 0.41285 0.54828 0.0
C763 C 0.71419 0.43564 0.54535 0.0
C764 C 0.70789 0.43747 0.5282 0.0
C765 C 0.70639 0.42306 0.55544 0.0
C766 C 0.68548 0.41458 0.53108 0.0
C767 C 0.68829 0.42658 0.50207 0.0
O768 O 0.66065 0.43782 0.45743 0.0
O769 O 0.68799 0.44381 0.45226 0.0
O770 O 0.69938 0.43404 0.49203 0.0
O771 O 0.67201 0.42985 0.49817 0.0
H772 H 0.68949 0.40956 0.46014 0.0
H773 H 0.69262 0.38059 0.44665 0.0
H774 H 0.66118 0.39357 0.40137 0.0
H775 H 0.65874 0.42295 0.41481 0.0
H776 H 0.66674 0.51179 0.43813 0.0
H777 H 0.67189 0.48495 0.4528 0.0
H778 H 0.67013 0.54079 0.48817 0.0
H779 H 0.67563 0.51399 0.50262 0.0
H780 H 0.68549 0.40296 0.55571 0.0
H781 H 0.72541 0.44383 0.55062 0.0
H782 H 0.71444 0.44699 0.52062 0.0
H783 H 0.67457 0.40605 0.52561 0.0
C784 C 0.75338 0.56385 0.0373 0.0
C785 C 0.75705 0.5796 0.04731 0.0
C786 C 0.74946 0.596 0.02215 0.0
C787 C 0.75514 0.59552 0.03981 0.0
C788 C 0.74605 0.58015 0.0121 0.0
C789 C 0.74797 0.56419 0.01964 0.0
U790 U 0.76013 0.54049 0.07832 0.0
O791 O 0.74634 0.51753 0.088 0.0
O792 O 0.77441 0.51746 0.08446 0.0
C793 C 0.7602 0.50836 0.08801 0.0
C794 C 0.75452 0.54719 0.04555 0.0
C795 C 0.75757 0.49089 0.07916 0.0
C796 C 0.75169 0.47201 0.0528 0.0
C797 C 0.75449 0.48874 0.061 0.0
C798 C 0.75508 0.45945 0.08085 0.0
C799 C 0.75189 0.45716 0.06264 0.0
C800 C 0.7579 0.47617 0.08901 0.0
C801 C 0.76809 0.57063 0.12018 0.0
C802 C 0.77331 0.56091 0.14939 0.0
C803 C 0.77007 0.59153 0.14512 0.0
C804 C 0.76777 0.58779 0.12716 0.0
C805 C 0.77274 0.57814 0.15647 0.0
C806 C 0.77094 0.55716 0.13134 0.0
C807 C 0.76508 0.56719 0.10127 0.0
O808 O 0.77002 0.54431 0.05248 0.0
O809 O 0.74191 0.54361 0.0558 0.0
O810 O 0.74958 0.56019 0.09594 0.0
O811 O 0.77779 0.56026 0.09315 0.0
H812 H 0.76122 0.57956 0.061 0.0
H813 H 0.75811 0.60746 0.04786 0.0
H814 H 0.74146 0.58005 0.99852 0.0
H815 H 0.74498 0.55214 0.01176 0.0
H816 H 0.74906 0.47072 0.03879 0.0
H817 H 0.75413 0.5 0.0532 0.0
H818 H 0.75556 0.44831 0.08879 0.0
H819 H 0.76029 0.47762 0.10305 0.0
H820 H 0.77522 0.55031 0.15781 0.0
H821 H 0.76985 0.60496 0.15013 0.0
H822 H 0.76563 0.59833 0.1187 0.0
H823 H 0.77117 0.5438 0.12611 0.0
C824 C 0.26452 0.06692 0.5586 0.0
C825 C 0.27139 0.07983 0.54834 0.0
C826 C 0.26958 0.10189 0.5721 0.0
C827 C 0.27399 0.09711 0.55505 0.0
C828 C 0.26236 0.08892 0.58218 0.0
C829 C 0.2599 0.07159 0.57549 0.0
U830 U 0.25728 0.03352 0.52032 0.0
O831 O 0.2699 0.0092 0.51441 0.0
O832 O 0.24167 0.00851 0.51717 0.0
C833 C 0.25544 0.99942 0.51527 0.0
C834 C 0.26221 0.0486 0.5518 0.0
C835 C 0.25695 0.98462 0.52633 0.0
C836 C 0.26271 0.97311 0.55466 0.0
C837 C 0.26021 0.9873 0.54444 0.0
C838 C 0.25844 0.95345 0.52879 0.0
C839 C 0.26202 0.95602 0.54693 0.0
C840 C 0.25594 0.96764 0.5186 0.0
C841 C 0.25306 0.04997 0.47418 0.0
C842 C 0.23527 0.04213 0.44734 0.0
C843 C 0.26573 0.05139 0.44605 0.0
C844 C 0.26738 0.05358 0.46421 0.0
C845 C 0.24964 0.04573 0.43737 0.0
C846 C 0.23695 0.04424 0.46555 0.0
C847 C 0.25504 0.05285 0.49341 0.0
O848 O 0.24666 0.04371 0.5446 0.0
O849 O 0.27494 0.043 0.54273 0.0
O850 O 0.26996 0.04875 0.50079 0.0
O851 O 0.24156 0.04822 0.50221 0.0
H852 H 0.27495 0.07651 0.5352 0.0
H853 H 0.27981 0.10664 0.54698 0.0
H854 H 0.25854 0.09215 0.59524 0.0
H855 H 0.25444 0.06182 0.58354 0.0
H856 H 0.26524 0.97552 0.56861 0.0
H857 H 0.26104 0.00037 0.5506 0.0
H858 H 0.25805 0.94051 0.52239 0.0
H859 H 0.25354 0.96538 0.50462 0.0
H860 H 0.22263 0.03799 0.44108 0.0
H861 H 0.27714 0.05403 0.43882 0.0
H862 H 0.27992 0.05815 0.47047 0.0
H863 H 0.22558 0.04152 0.47281 0.0
C864 C 0.33318 0.94558 0.95441 0.0
C865 C 0.32709 0.93365 0.94061 0.0
C866 C 0.33465 0.90936 0.95789 0.0
C867 C 0.32772 0.91575 0.94236 0.0
C868 C 0.34081 0.9214 0.97169 0.0
C869 C 0.34007 0.93937 0.96995 0.0
U870 U 0.32961 0.98181 0.92416 0.0
O871 O 0.31413 0.00492 0.92436 0.0
O872 O 0.34266 0.00802 0.92429 0.0
C873 C 0.32797 0.01583 0.92511 0.0
C874 C 0.33262 0.96442 0.95232 0.0
C875 C 0.32797 0.03077 0.93786 0.0
C876 C 0.3315 0.04376 0.9675 0.0
C877 C 0.33182 0.0292 0.95572 0.0
C878 C 0.32346 0.06144 0.94362 0.0
C879 C 0.32733 0.06007 0.96156 0.0
C880 C 0.32381 0.04694 0.93192 0.0
C881 C 0.32572 0.9694 0.87559 0.0
C882 C 0.31954 0.9909 0.8546 0.0
C883 C 0.32545 0.96151 0.84459 0.0
C884 C 0.32763 0.95701 0.86188 0.0
C885 C 0.32129 0.97849 0.84074 0.0
C886 C 0.32177 0.9864 0.87188 0.0
C887 C 0.32774 0.96446 0.89368 0.0
O888 O 0.3461 0.97156 0.94508 0.0
O889 O 0.31763 0.96935 0.94587 0.0
O890 O 0.31415 0.96671 0.90293 0.0
O891 O 0.34257 0.96993 0.90209 0.0
H892 H 0.32179 0.93819 0.92846 0.0
H893 H 0.32255 0.90692 0.93158 0.0
H894 H 0.34641 0.91696 0.98375 0.0
H895 H 0.34495 0.94841 0.98069 0.0
H896 H 0.33465 0.04228 0.9812 0.0
H897 H 0.33503 0.01675 0.96052 0.0
H898 H 0.31985 0.07368 0.93862 0.0
H899 H 0.3207 0.04834 0.91818 0.0
H900 H 0.31612 0.00402 0.85211 0.0
H901 H 0.32713 0.95171 0.83425 0.0
H902 H 0.33076 0.94385 0.86455 0.0
H903 H 0.32026 0.99612 0.88235 0.0
C904 C 0.42157 0.6905 0.42614 0.0
C905 C 0.43148 0.69368 0.41181 0.0
C906 C 0.40581 0.6872 0.39197 0.0
C907 C 0.42368 0.69212 0.39492 0.0
C908 C 0.39595 0.68388 0.40641 0.0
C909 C 0.40379 0.68552 0.42336 0.0
U910 U 0.46288 0.6955 0.45484 0.0
O911 O 0.47056 0.71176 0.47877 0.0
O912 O 0.4711 0.68325 0.47888 0.0
C913 C 0.47294 0.69823 0.48811 0.0
C914 C 0.42993 0.69217 0.44386 0.0
C915 C 0.46538 0.6986 0.50524 0.0
C916 C 0.44319 0.70691 0.52483 0.0
C917 C 0.44953 0.70612 0.50812 0.0
C918 C 0.4683 0.69241 0.53579 0.0
C919 C 0.45254 0.70007 0.53885 0.0
C920 C 0.47464 0.6917 0.51916 0.0
C921 C 0.50566 0.69711 0.4325 0.0
C922 C 0.5335 0.69791 0.44913 0.0
C923 C 0.53259 0.6993 0.41772 0.0
C924 C 0.51438 0.69831 0.41713 0.0
C925 C 0.54236 0.69905 0.43372 0.0
C926 C 0.51528 0.69698 0.44853 0.0
C927 C 0.48654 0.69582 0.43167 0.0
O928 O 0.43889 0.67889 0.44817 0.0
O929 O 0.43825 0.70735 0.44825 0.0
O930 O 0.47922 0.70989 0.43731 0.0
O931 O 0.47948 0.68141 0.43729 0.0
H932 H 0.44527 0.69749 0.41372 0.0
H933 H 0.43162 0.69508 0.38419 0.0
H934 H 0.38222 0.67989 0.4046 0.0
H935 H 0.39599 0.6829 0.43428 0.0
H936 H 0.43094 0.71276 0.52676 0.0
H937 H 0.44214 0.71148 0.49751 0.0
H938 H 0.47595 0.68726 0.54634 0.0
H939 H 0.48693 0.68593 0.51721 0.0
H940 H 0.54064 0.69793 0.46168 0.0
H941 H 0.53901 0.69996 0.40561 0.0
H942 H 0.50711 0.69839 0.40465 0.0
H943 H 0.5087 0.69611 0.46054 0.0
C944 C 0.94074 0.29953 0.94619 0.0
C945 C 0.92915 0.30436 0.93284 0.0
C946 C 0.95049 0.29875 0.91142 0.0
C947 C 0.934 0.30406 0.91564 0.0
C948 C 0.96223 0.2943 0.92493 0.0
C949 C 0.95736 0.29467 0.94218 0.0
U950 U 0.90364 0.29617 0.97552 0.0
O951 O 0.89862 0.27952 0.99712 0.0
O952 O 0.89958 0.30803 0.00157 0.0
C953 C 0.89829 0.29286 0.00854 0.0
C954 C 0.93497 0.29827 0.96396 0.0
C955 C 0.90843 0.29166 0.02514 0.0
C956 C 0.93442 0.28428 0.04188 0.0
C957 C 0.92534 0.28574 0.02578 0.0
C958 C 0.90985 0.29487 0.05673 0.0
C959 C 0.92675 0.28884 0.05753 0.0
C960 C 0.9008 0.29624 0.04068 0.0
C961 C 0.85772 0.29529 0.95493 0.0
C962 C 0.83298 0.28853 0.97202 0.0
C963 C 0.82833 0.29506 0.94173 0.0
C964 C 0.84633 0.29749 0.94049 0.0
C965 C 0.82145 0.29033 0.95746 0.0
C966 C 0.85097 0.29101 0.97076 0.0
C967 C 0.87661 0.29681 0.95326 0.0
O968 O 0.92734 0.3119 0.9703 0.0
O969 O 0.92661 0.28337 0.96662 0.0
O970 O 0.88464 0.28259 0.95625 0.0
O971 O 0.88475 0.31099 0.96084 0.0
H972 H 0.9162 0.30804 0.93568 0.0
H973 H 0.92475 0.30781 0.90561 0.0
H974 H 0.97494 0.28996 0.92211 0.0
H975 H 0.9664 0.29073 0.95232 0.0
H976 H 0.94748 0.27977 0.04209 0.0
H977 H 0.93147 0.28221 0.01387 0.0
H978 H 0.90349 0.29825 0.06854 0.0
H979 H 0.88773 0.30077 0.04042 0.0
H980 H 0.82816 0.28467 0.98424 0.0
H981 H 0.8198 0.29679 0.93036 0.0
H982 H 0.85137 0.30086 0.92819 0.0
H983 H 0.85963 0.28924 0.98204 0.0
C984 C 0.03088 0.74685 0.57296 0.0
C985 C 0.04069 0.75492 0.58747 0.0
C986 C 0.01816 0.74587 0.60654 0.0
C987 C 0.03437 0.75448 0.60409 0.0
C988 C 0.00825 0.73804 0.59188 0.0
C989 C 0.01458 0.73852 0.57523 0.0
U990 U 0.06958 0.75388 0.54603 0.0
O991 O 0.07918 0.7379 0.52442 0.0
O992 O 0.07242 0.76476 0.52049 0.0
C993 C 0.0768 0.7499 0.5132 0.0
C994 C 0.03809 0.74631 0.55571 0.0
C995 C 0.06672 0.74384 0.49696 0.0
C996 C 0.03911 0.73492 0.48118 0.0
C997 C 0.04856 0.74096 0.49664 0.0
C998 C 0.06592 0.73456 0.46622 0.0
C999 C 0.04768 0.73158 0.46578 0.0
C1000 C 0.07534 0.74064 0.48168 0.0
C1001 C 0.1124 0.77038 0.57191 0.0
C1002 C 0.14217 0.76707 0.56401 0.0
C1003 C 0.13638 0.78691 0.5883 0.0
C1004 C 0.11855 0.78261 0.58537 0.0
C1005 C 0.14843 0.77901 0.57783 0.0
C1006 C 0.12428 0.76283 0.56103 0.0
C1007 C 0.0937 0.76505 0.57024 0.0
O1008 O 0.04298 0.76156 0.55013 0.0
O1009 O 0.04958 0.73457 0.55341 0.0
O1010 O 0.08965 0.74844 0.56606 0.0
O1011 O 0.08357 0.77552 0.5621 0.0
H1012 H 0.05336 0.76136 0.58595 0.0
H1013 H 0.04223 0.76083 0.61504 0.0
H1014 H 0.99582 0.7311 0.59333 0.0
H1015 H 0.00692 0.73211 0.56418 0.0
H1016 H 0.02508 0.733 0.48127 0.0
H1017 H 0.0417 0.74337 0.50836 0.0
H1018 H 0.07296 0.73191 0.45468 0.0
H1019 H 0.08938 0.74272 0.48174 0.0
H1020 H 0.15112 0.7609 0.55562 0.0
H1021 H 0.14075 0.79595 0.59921 0.0
H1022 H 0.10957 0.78852 0.59393 0.0
H1023 H 0.11976 0.7534 0.55049 0.0
C1024 C 0.54614 0.25429 0.0653 0.0
C1025 C 0.53889 0.2408 0.07465 0.0
C1026 C 0.54964 0.25613 0.10213 0.0
C1027 C 0.54074 0.24165 0.09285 0.0
C1028 C 0.55737 0.26932 0.09268 0.0
C1029 C 0.55566 0.26838 0.07445 0.0
U1030 U 0.51358 0.24891 0.02652 0.0
O1031 O 0.50889 0.26573 0.0048 0.0
O1032 O 0.51503 0.23849 0.99947 0.0
C1033 C 0.5125 0.25366 0.993 0.0
C1034 C 0.54241 0.25477 0.04632 0.0
C1035 C 0.52473 0.25939 0.98021 0.0
C1036 C 0.55398 0.26278 0.97012 0.0
C1037 C 0.54264 0.25707 0.98246 0.0
C1038 C 0.52965 0.27339 0.95333 0.0
C1039 C 0.54762 0.27104 0.9554 0.0
C1040 C 0.51834 0.26759 0.9656 0.0
C1041 C 0.46644 0.2364 0.03557 0.0
C1042 C 0.44319 0.23409 0.01269 0.0
C1043 C 0.43626 0.23448 0.04302 0.0
C1044 C 0.45401 0.23569 0.0481 0.0
C1045 C 0.43061 0.23395 0.02526 0.0
C1046 C 0.46097 0.23537 0.01782 0.0
C1047 C 0.48491 0.2396 0.0413 0.0
O1048 O 0.53812 0.23972 0.03767 0.0
O1049 O 0.53245 0.26722 0.04174 0.0
O1050 O 0.49093 0.25588 0.04088 0.0
O1051 O 0.49556 0.22833 0.03515 0.0
H1052 H 0.53137 0.22982 0.06794 0.0
H1053 H 0.53489 0.2311 0.09966 0.0
H1054 H 0.56412 0.28078 0.09933 0.0
H1055 H 0.56123 0.279 0.06751 0.0
H1056 H 0.5677 0.26059 0.97205 0.0
H1057 H 0.54785 0.25083 0.99373 0.0
H1058 H 0.52432 0.27998 0.94236 0.0
H1059 H 0.50457 0.26961 0.96373 0.0
H1060 H 0.4393 0.23352 0.99892 0.0
H1061 H 0.42699 0.23473 0.05307 0.0
H1062 H 0.45804 0.23662 0.06187 0.0
H1063 H 0.47045 0.23598 0.00797 0.0
C1064 C 0.42688 0.40929 0.65457 0.0
C1065 C 0.41374 0.41988 0.65991 0.0
C1066 C 0.3915 0.39796 0.64791 0.0
C1067 C 0.39625 0.41426 0.65669 0.0
C1068 C 0.40475 0.38744 0.6424 0.0
C1069 C 0.42233 0.39309 0.64571 0.0
U1070 U 0.45918 0.44574 0.67077 0.0
O1071 O 0.48287 0.4468 0.68819 0.0
O1072 O 0.48438 0.45494 0.66141 0.0
C1073 C 0.49301 0.45176 0.676 0.0
C1074 C 0.44523 0.41535 0.6583 0.0
C1075 C 0.50871 0.44205 0.67409 0.0
C1076 C 0.52336 0.41493 0.6731 0.0
C1077 C 0.50804 0.42378 0.67401 0.0
C1078 C 0.54 0.4425 0.67183 0.0
C1079 C 0.53953 0.42423 0.67211 0.0
C1080 C 0.52473 0.45132 0.67283 0.0
C1081 C 0.44101 0.48902 0.68471 0.0
C1082 C 0.45942 0.51337 0.69826 0.0
C1083 C 0.42966 0.51766 0.68821 0.0
C1084 C 0.42731 0.50004 0.68264 0.0
C1085 C 0.44578 0.52459 0.696 0.0
C1086 C 0.45707 0.49574 0.69262 0.0
C1087 C 0.43852 0.47074 0.67802 0.0
O1088 O 0.45092 0.42747 0.64834 0.0
O1089 O 0.44978 0.41886 0.67493 0.0
O1090 O 0.44277 0.4591 0.68909 0.0
O1091 O 0.44407 0.46748 0.66241 0.0
H1092 H 0.41704 0.43245 0.66676 0.0
H1093 H 0.38647 0.42255 0.66148 0.0
H1094 H 0.40154 0.37489 0.63552 0.0
H1095 H 0.43235 0.3848 0.64143 0.0
H1096 H 0.52258 0.40084 0.67318 0.0
H1097 H 0.49574 0.4164 0.67488 0.0
H1098 H 0.55226 0.45006 0.67132 0.0
H1099 H 0.52546 0.46543 0.67291 0.0
H1100 H 0.47193 0.51822 0.70437 0.0
H1101 H 0.41897 0.52595 0.68595 0.0
H1102 H 0.41487 0.49506 0.67645 0.0
H1103 H 0.46782 0.48739 0.69427 0.0
C1104 C 0.96606 0.96012 0.32675 0.0
C1105 C 0.9518 0.94785 0.3258 0.0
C1106 C 0.93244 0.97078 0.3329 0.0
C1107 C 0.93514 0.95312 0.32881 0.0
C1108 C 0.94683 0.98304 0.33387 0.0
C1109 C 0.96352 0.97773 0.33082 0.0
U1110 U 0.9955 0.92348 0.3189 0.0
O1111 O 0.01614 0.91999 0.30069 0.0
O1112 O 0.0223 0.91974 0.32887 0.0
C1113 C 0.0284 0.91977 0.31328 0.0
C1114 C 0.98354 0.95449 0.32359 0.0
C1115 C 0.04381 0.93159 0.31173 0.0
C1116 C 0.05705 0.96061 0.30878 0.0
C1117 C 0.04226 0.94955 0.31052 0.0
C1118 C 0.07507 0.93586 0.30968 0.0
C1119 C 0.07362 0.95387 0.3083 0.0
C1120 C 0.06027 0.92482 0.31137 0.0
C1121 C 0.97529 0.87694 0.31783 0.0
C1122 C 0.99024 0.85169 0.30772 0.0
C1123 C 0.96316 0.84778 0.32197 0.0
C1124 C 0.96226 0.86585 0.32395 0.0
C1125 C 0.97713 0.84049 0.31377 0.0
C1126 C 0.98937 0.86979 0.3098 0.0
C1127 C 0.97398 0.89589 0.31987 0.0
O1128 O 0.99092 0.94626 0.33627 0.0
O1129 O 0.98508 0.94682 0.30809 0.0
O1130 O 0.97606 0.90436 0.30572 0.0
O1131 O 0.98231 0.90366 0.33385 0.0
H1132 H 0.95355 0.93418 0.32266 0.0
H1133 H 0.92433 0.94338 0.32766 0.0
H1134 H 0.94524 0.9967 0.33718 0.0
H1135 H 0.97443 0.98735 0.33167 0.0
H1136 H 0.05552 0.97444 0.30796 0.0
H1137 H 0.02961 0.955 0.31088 0.0
H1138 H 0.08761 0.93023 0.30914 0.0
H1139 H 0.06168 0.91097 0.31227 0.0
H1140 H 0.00125 0.84647 0.30152 0.0
H1141 H 0.95277 0.83949 0.32658 0.0
H1142 H 0.95131 0.87118 0.33018 0.0
H1143 H 0.99962 0.8782 0.30511 0.0
C1144 C 0.56891 0.0639 0.75406 0.0
C1145 C 0.58183 0.07044 0.7436 0.0
C1146 C 0.60059 0.04743 0.75156 0.0
C1147 C 0.5974 0.06224 0.74227 0.0
C1148 C 0.58758 0.04079 0.76192 0.0
C1149 C 0.57187 0.04895 0.76312 0.0
U1150 U 0.54738 0.10572 0.76419 0.0
O1151 O 0.52542 0.11771 0.75111 0.0
O1152 O 0.5243 0.11155 0.77853 0.0
C1153 C 0.51586 0.11683 0.76466 0.0
C1154 C 0.55273 0.07303 0.75615 0.0
C1155 C 0.49814 0.10897 0.76076 0.0
C1156 C 0.47836 0.08394 0.75163 0.0
C1157 C 0.49521 0.09104 0.75645 0.0
C1158 C 0.46724 0.11263 0.75563 0.0
C1159 C 0.46421 0.09471 0.75096 0.0
C1160 C 0.48407 0.11968 0.76048 0.0
C1161 C 0.57797 0.1464 0.77527 0.0
C1162 C 0.56958 0.17624 0.77382 0.0
C1163 C 0.59754 0.17038 0.78766 0.0
C1164 C 0.59377 0.15252 0.78407 0.0
C1165 C 0.58556 0.18245 0.78243 0.0
C1166 C 0.56578 0.15834 0.77033 0.0
C1167 C 0.57467 0.12761 0.77099 0.0
O1168 O 0.55023 0.07891 0.77214 0.0
O1169 O 0.54916 0.08426 0.74442 0.0
O1170 O 0.56803 0.12321 0.75511 0.0
O1171 O 0.56739 0.1187 0.78298 0.0
H1172 H 0.58001 0.082 0.73649 0.0
H1173 H 0.60692 0.0675 0.73386 0.0
H1174 H 0.58965 0.02951 0.76936 0.0
H1175 H 0.56213 0.04374 0.77134 0.0
H1176 H 0.47648 0.07013 0.74794 0.0
H1177 H 0.506 0.08261 0.75649 0.0
H1178 H 0.45659 0.12122 0.75548 0.0
H1179 H 0.48613 0.13356 0.76377 0.0
H1180 H 0.56003 0.18522 0.76981 0.0
H1181 H 0.61002 0.17477 0.79413 0.0
H1182 H 0.60332 0.14347 0.78795 0.0
H1183 H 0.55344 0.15383 0.76362 0.0
C1184 C 0.07402 0.56998 0.26478 0.0
C1185 C 0.08252 0.56752 0.24922 0.0
C1186 C 0.11072 0.57496 0.26471 0.0
C1187 C 0.10065 0.56997 0.24919 0.0
C1188 C 0.10213 0.57823 0.28009 0.0
C1189 C 0.084 0.57585 0.2801 0.0
U1190 U 0.03682 0.53589 0.26667 0.0
O1191 O 0.01367 0.53499 0.28208 0.0
O1192 O 0.01064 0.53265 0.25348 0.0
C1193 C 0.00281 0.53375 0.26819 0.0
C1194 C 0.05505 0.56557 0.26539 0.0
C1195 C 0.98821 0.54514 0.26867 0.0
C1196 C 0.97617 0.5735 0.26688 0.0
C1197 C 0.99046 0.56306 0.26636 0.0
C1198 C 0.95742 0.54817 0.27208 0.0
C1199 C 0.95947 0.56614 0.2697 0.0
C1200 C 0.97166 0.5378 0.27154 0.0
C1201 C 0.04696 0.48858 0.26755 0.0
C1202 C 0.02366 0.46679 0.2714 0.0
C1203 C 0.05246 0.45784 0.26532 0.0
C1204 C 0.05838 0.47532 0.26482 0.0
C1205 C 0.03503 0.45339 0.26862 0.0
C1206 C 0.02957 0.48423 0.27083 0.0
C1207 C 0.05308 0.5069 0.26674 0.0
O1208 O 0.0473 0.55702 0.25148 0.0
O1209 O 0.05011 0.55946 0.28005 0.0
O1210 O 0.05123 0.51681 0.28092 0.0
O1211 O 0.04814 0.51414 0.25237 0.0
H1212 H 0.07525 0.56327 0.23709 0.0
H1213 H 0.10681 0.56769 0.23705 0.0
H1214 H 0.10945 0.58197 0.29231 0.0
H1215 H 0.07784 0.57807 0.29226 0.0
H1216 H 0.97816 0.58727 0.26489 0.0
H1217 H 0.00321 0.56892 0.26413 0.0
H1218 H 0.94484 0.54213 0.27461 0.0
H1219 H 0.96974 0.52399 0.27344 0.0
H1220 H 0.0101 0.46378 0.27368 0.0
H1221 H 0.06155 0.44781 0.26326 0.0
H1222 H 0.07185 0.47849 0.26226 0.0
H1223 H 0.02055 0.49434 0.27284 0.0
H1224 H 0.207 0.60523 0.30254 0.0
H1225 H 0.22486 0.56083 0.27272 0.0
H1226 H 0.19521 0.55473 0.25891 0.0
H1227 H 0.16707 0.58532 0.31195 0.0
H1228 H 0.1549 0.60452 0.31023 0.0
H1229 H 0.17789 0.60669 0.31623 0.0
H1230 H 0.18281 0.62634 0.29053 0.0
H1231 H 0.15979 0.62429 0.28449 0.0
H1232 H 0.1752 0.6185 0.26872 0.0
H1233 H 0.16323 0.55195 0.25029 0.0
H1234 H 0.13122 0.55238 0.24778 0.0
H1235 H 0.13411 0.59873 0.28306 0.0
C1236 C 0.20476 0.59443 0.29284 0.0
C1237 C 0.21827 0.58356 0.28863 0.0
C1238 C 0.21473 0.56937 0.27611 0.0
C1239 C 0.19794 0.56583 0.26816 0.0
C1240 C 0.18485 0.57661 0.27285 0.0
C1241 C 0.18807 0.59066 0.28486 0.0
C1242 C 0.17147 0.59948 0.28852 0.0
C1243 C 0.16761 0.59896 0.30788 0.0
C1244 C 0.17238 0.61827 0.28271 0.0
C1245 C 0.15834 0.58792 0.27703 0.0
C1246 C 0.16636 0.57495 0.26794 0.0
C1247 C 0.15684 0.56221 0.25713 0.0
C1248 C 0.13864 0.56263 0.25572 0.0
C1249 C 0.13009 0.57566 0.26512 0.0
C1250 C 0.1402 0.58857 0.27573 0.0
H1251 H 0.29176 0.41365 0.6509 0.0
H1252 H 0.2844 0.36031 0.66568 0.0
H1253 H 0.31387 0.35452 0.65678 0.0
H1254 H 0.32176 0.40458 0.61375 0.0
H1255 H 0.33412 0.42481 0.61973 0.0
H1256 H 0.31106 0.42297 0.6228 0.0
H1257 H 0.31801 0.43321 0.65546 0.0
H1258 H 0.34095 0.43428 0.65235 0.0
H1259 H 0.33233 0.42095 0.66871 0.0
H1260 H 0.34564 0.35609 0.65179 0.0
H1261 H 0.3769 0.365 0.6514 0.0
H1262 H 0.36368 0.4172 0.63944 0.0
C1263 C 0.2961 0.40057 0.65168 0.0
C1264 C 0.28577 0.38743 0.65896 0.0
C1265 C 0.29206 0.37058 0.66009 0.0
C1266 C 0.30877 0.36715 0.655 0.0
C1267 C 0.31895 0.38062 0.64859 0.0
C1268 C 0.31276 0.39696 0.64669 0.0
C1269 C 0.32703 0.40985 0.64186 0.0
C1270 C 0.32325 0.41592 0.62344 0.0
C1271 C 0.32973 0.42548 0.65541 0.0
C1272 C 0.34241 0.39849 0.64237 0.0
C1273 C 0.33743 0.38157 0.64582 0.0
C1274 C 0.34964 0.36919 0.64864 0.0
C1275 C 0.3674 0.37436 0.64834 0.0
C1276 C 0.37279 0.39181 0.64539 0.0
C1277 C 0.36002 0.40379 0.64181 0.0
H1278 H 0.70061 0.04552 0.73218 0.0
H1279 H 0.69408 0.989 0.72875 0.0
H1280 H 0.66433 0.9907 0.73884 0.0
H1281 H 0.6748 0.05266 0.77103 0.0
H1282 H 0.66595 0.07192 0.76274 0.0
H1283 H 0.68741 0.06612 0.75737 0.0
H1284 H 0.67814 0.06658 0.72449 0.0
H1285 H 0.65665 0.07221 0.72973 0.0
H1286 H 0.65936 0.05317 0.71561 0.0
H1287 H 0.63407 0.99872 0.74582 0.0
H1288 H 0.60626 0.01238 0.74999 0.0
H1289 H 0.63315 0.06357 0.74998 0.0
C1290 C 0.69309 0.03348 0.73392 0.0
C1291 C 0.69969 0.01713 0.72971 0.0
C1292 C 0.68934 0.00168 0.73199 0.0
C1293 C 0.67242 0.00251 0.73772 0.0
C1294 C 0.66613 0.01887 0.74131 0.0
C1295 C 0.67624 0.03407 0.73969 0.0
C1296 C 0.66611 0.05001 0.7433 0.0
C1297 C 0.67404 0.06081 0.75958 0.0
C1298 C 0.665 0.06114 0.72733 0.0
C1299 C 0.64854 0.04142 0.74657 0.0
C1300 C 0.64882 0.02346 0.74553 0.0
C1301 C 0.63378 0.01277 0.74699 0.0
C1302 C 0.61805 0.02066 0.74943 0.0
C1303 C 0.61746 0.03907 0.75032 0.0
C1304 C 0.63305 0.04948 0.74918 0.0
H1305 H 0.85091 0.02954 0.3217 0.0
H1306 H 0.82129 0.99118 0.34904 0.0
H1307 H 0.84774 0.97494 0.35363 0.0
H1308 H 0.8759 0.99939 0.29915 0.0
H1309 H 0.89553 0.01348 0.30054 0.0
H1310 H 0.87461 0.02274 0.3005 0.0
H1311 H 0.88398 0.04035 0.3296 0.0
H1312 H 0.90495 0.03114 0.32973 0.0
H1313 H 0.89171 0.02906 0.34813 0.0
H1314 H 0.87714 0.96238 0.35437 0.0
H1315 H 0.90721 0.95401 0.35065 0.0
H1316 H 0.91729 1.00005 0.3219 0.0
C1317 C 0.85002 0.01785 0.32886 0.0
C1318 C 0.83406 0.01167 0.33511 0.0
C1319 C 0.83339 0.99617 0.34417 0.0
C1320 C 0.84835 0.98688 0.34687 0.0
C1321 C 0.86384 0.99324 0.34039 0.0
C1322 C 0.86478 0.00835 0.33155 0.0
C1323 C 0.88281 0.01192 0.32517 0.0
C1324 C 0.88216 0.01187 0.30515 0.0
C1325 C 0.89136 0.02914 0.33367 0.0
C1326 C 0.89182 0.99638 0.33169 0.0
C1327 C 0.8807 0.98583 0.34054 0.0
C1328 C 0.88598 0.97054 0.34747 0.0
C1329 C 0.90305 0.96584 0.34518 0.0
C1330 C 0.91463 0.97633 0.33594 0.0
C1331 C 0.90888 0.99187 0.32924 0.0
H1332 H 0.28332 0.20516 0.56805 0.0
H1333 H 0.30229 0.20724 0.62241 0.0
H1334 H 0.29514 0.17561 0.62315 0.0
H1335 H 0.24739 0.17211 0.57139 0.0
H1336 H 0.2505 0.16177 0.55027 0.0
H1337 H 0.25582 0.18481 0.55445 0.0
H1338 H 0.28714 0.18064 0.54504 0.0
H1339 H 0.28196 0.15761 0.54095 0.0
H1340 H 0.30021 0.16523 0.55571 0.0
H1341 H 0.28811 0.14341 0.61732 0.0
H1342 H 0.28124 0.11316 0.60552 0.0
H1343 H 0.26599 0.13221 0.5552 0.0
C1344 C 0.28573 0.19904 0.5802 0.0
C1345 C 0.29333 0.20871 0.5952 0.0
C1346 C 0.29642 0.20013 0.61077 0.0
C1347 C 0.2924 0.18216 0.61133 0.0
C1348 C 0.2852 0.17297 0.59623 0.0
C1349 C 0.28177 0.18113 0.58099 0.0
C1350 C 0.27466 0.16814 0.56638 0.0
C1351 C 0.25598 0.17193 0.56027 0.0
C1352 C 0.28672 0.16789 0.55112 0.0
C1353 C 0.27498 0.15136 0.57569 0.0
C1354 C 0.281 0.15443 0.59292 0.0
C1355 C 0.28313 0.14087 0.60391 0.0
C1356 C 0.27909 0.12371 0.5971 0.0
C1357 C 0.27296 0.12021 0.57943 0.0
C1358 C 0.27075 0.13434 0.56872 0.0
H1359 H 0.31978 0.81967 0.00383 0.0
H1360 H 0.32835 0.79297 0.95414 0.0
H1361 H 0.33564 0.82132 0.94197 0.0
H1362 H 0.2984 0.85444 0.98606 0.0
H1363 H 0.30746 0.87077 0.00235 0.0
H1364 H 0.30473 0.84836 0.00768 0.0
H1365 H 0.33753 0.84871 0.01747 0.0
H1366 H 0.34036 0.87116 0.01216 0.0
H1367 H 0.35362 0.85508 0.00257 0.0
H1368 H 0.34084 0.85254 0.93492 0.0
H1369 H 0.34214 0.88442 0.93291 0.0
H1370 H 0.32837 0.89084 0.98672 0.0
C1371 C 0.32351 0.81977 0.99049 0.0
C1372 C 0.32369 0.80412 0.97996 0.0
C1373 C 0.32821 0.80481 0.96244 0.0
C1374 C 0.33242 0.82084 0.95544 0.0
C1375 C 0.33191 0.83605 0.96611 0.0
C1376 C 0.32749 0.83567 0.98323 0.0
C1377 C 0.32665 0.85394 0.9915 0.0
C1378 C 0.30822 0.85705 0.99723 0.0
C1379 C 0.34036 0.85742 0.00683 0.0
C1380 C 0.3311 0.86465 0.9763 0.0
C1381 C 0.3343 0.85408 0.96185 0.0
C1382 C 0.33833 0.86095 0.94615 0.0
C1383 C 0.3389 0.87909 0.9451 0.0
C1384 C 0.33522 0.89022 0.9596 0.0
C1385 C 0.33148 0.88279 0.97545 0.0
H1386 H 0.69862 0.2847 0.42241 0.0
H1387 H 0.7073 0.28696 0.36736 0.0
H1388 H 0.69709 0.3168 0.36792 0.0
H1389 H 0.6594 0.31014 0.42192 0.0
H1390 H 0.66549 0.32079 0.44306 0.0
H1391 H 0.6719 0.29903 0.43788 0.0
H1392 H 0.7042 0.30934 0.44575 0.0
H1393 H 0.69792 0.3311 0.45086 0.0
H1394 H 0.71383 0.32739 0.435 0.0
H1395 H 0.68861 0.34739 0.37517 0.0
H1396 H 0.68222 0.37608 0.38845 0.0
H1397 H 0.67799 0.35339 0.43849 0.0
C1398 C 0.69811 0.29134 0.4104 0.0
C1399 C 0.70374 0.28347 0.39483 0.0
C1400 C 0.703 0.29269 0.37943 0.0
C1401 C 0.6972 0.30964 0.37961 0.0
C1402 C 0.69203 0.31713 0.39525 0.0
C1403 C 0.6923 0.30822 0.41033 0.0
C1404 C 0.6869 0.31951 0.42562 0.0
C1405 C 0.66991 0.31191 0.43252 0.0
C1406 C 0.70159 0.32198 0.44016 0.0
C1407 C 0.68408 0.33633 0.41691 0.0
C1408 C 0.68695 0.33467 0.39936 0.0
C1409 C 0.68604 0.34876 0.38884 0.0
C1410 C 0.68231 0.36501 0.3965 0.0
C1411 C 0.67953 0.36707 0.41454 0.0
C1412 C 0.68017 0.35237 0.42471 0.0
H1413 H 0.71485 0.69151 0.01882 0.0
H1414 H 0.73183 0.69267 0.96608 0.0
H1415 H 0.74376 0.66379 0.96884 0.0
H1416 H 0.75178 0.6695 0.0372 0.0
H1417 H 0.73846 0.65688 0.05097 0.0
H1418 H 0.73228 0.67811 0.04518 0.0
H1419 H 0.70208 0.66464 0.03293 0.0
H1420 H 0.70819 0.64338 0.03861 0.0
H1421 H 0.70095 0.64688 0.01647 0.0
H1422 H 0.75248 0.634 0.97687 0.0
H1423 H 0.7578 0.60599 0.9898 0.0
H1424 H 0.73462 0.62434 0.037 0.0
C1425 C 0.72128 0.68582 0.00792 0.0
C1426 C 0.72245 0.6944 0.99225 0.0
C1427 C 0.73082 0.68638 0.97824 0.0
C1428 C 0.73764 0.66998 0.97968 0.0
C1429 C 0.73603 0.66177 0.99522 0.0
C1430 C 0.72812 0.66946 0.00911 0.0
C1431 C 0.72749 0.65766 0.02415 0.0
C1432 C 0.73814 0.66604 0.04033 0.0
C1433 C 0.70855 0.65286 0.02827 0.0
C1434 C 0.73608 0.64203 0.01647 0.0
C1435 C 0.74098 0.64466 0.9998 0.0
C1436 C 0.74877 0.63184 0.98995 0.0
C1437 C 0.75163 0.61593 0.99735 0.0
C1438 C 0.74668 0.61296 0.01443 0.0
C1439 C 0.73884 0.62628 0.02404 0.0
H1440 H 0.58576 0.29218 0.19762 0.0
H1441 H 0.53577 0.27469 0.21587 0.0
H1442 H 0.52698 0.26131 0.18652 0.0
H1443 H 0.56982 0.30409 0.15668 0.0
H1444 H 0.58797 0.29686 0.14502 0.0
H1445 H 0.59104 0.30366 0.16781 0.0
H1446 H 0.60332 0.27393 0.1743 0.0
H1447 H 0.60037 0.26706 0.15148 0.0
H1448 H 0.5906 0.25403 0.16747 0.0
H1449 H 0.52271 0.25195 0.15479 0.0
H1450 H 0.52323 0.24713 0.12293 0.0
H1451 H 0.57631 0.27 0.12532 0.0
C1452 C 0.57307 0.28529 0.19553 0.0
C1453 C 0.56147 0.28444 0.20908 0.0
C1454 C 0.5449 0.27548 0.20572 0.0
C1455 C 0.5398 0.26781 0.1891 0.0
C1456 C 0.55143 0.26913 0.17598 0.0
C1457 C 0.56776 0.27757 0.17901 0.0
C1458 C 0.57743 0.2779 0.16243 0.0
C1459 C 0.58181 0.29675 0.15771 0.0
C1460 C 0.59391 0.26761 0.16402 0.0
C1461 C 0.56383 0.26869 0.14953 0.0
C1462 C 0.549 0.26362 0.15765 0.0
C1463 C 0.53436 0.2556 0.14832 0.0
C1464 C 0.53484 0.25282 0.13021 0.0
C1465 C 0.54987 0.25802 0.12153 0.0
C1466 C 0.56459 0.2659 0.13147 0.0
H1467 H 0.93375 0.27007 0.81036 0.0
H1468 H 0.98773 0.28636 0.80363 0.0
H1469 H 0.99145 0.29641 0.83479 0.0
H1470 H 0.92501 0.30551 0.84133 0.0
H1471 H 0.91143 0.29171 0.85379 0.0
H1472 H 0.91285 0.28668 0.83078 0.0
H1473 H 0.92224 0.25575 0.8371 0.0
H1474 H 0.92085 0.26069 0.8601 0.0
H1475 H 0.94085 0.25346 0.85193 0.0
H1476 H 0.98947 0.30364 0.86713 0.0
H1477 H 0.98189 0.30753 0.89784 0.0
H1478 H 0.92944 0.28583 0.88312 0.0
C1479 C 0.94632 0.27592 0.81537 0.0
C1480 C 0.96044 0.27748 0.80453 0.0
C1481 C 0.97671 0.28506 0.81167 0.0
C1482 C 0.97895 0.29082 0.82935 0.0
C1483 C 0.96479 0.28892 0.83971 0.0
C1484 C 0.94878 0.28167 0.83295 0.0
C1485 C 0.9358 0.28054 0.84691 0.0
C1486 C 0.92036 0.29179 0.84296 0.0
C1487 C 0.92958 0.26148 0.84914 0.0
C1488 C 0.94703 0.28813 0.86263 0.0
C1489 C 0.96369 0.29296 0.85823 0.0
C1490 C 0.97645 0.29995 0.8707 0.0
C1491 C 0.97205 0.30201 0.88813 0.0
C1492 C 0.95505 0.29707 0.89291 0.0
C1493 C 0.94245 0.29007 0.87989 0.0
H1494 H 0.40558 0.67709 0.28853 0.0
H1495 H 0.35545 0.70013 0.28678 0.0
H1496 H 0.35469 0.69872 0.31868 0.0
H1497 H 0.39697 0.64812 0.32482 0.0
H1498 H 0.41914 0.65159 0.3337 0.0
H1499 H 0.41432 0.65216 0.31055 0.0
H1500 H 0.43008 0.68301 0.3115 0.0
H1501 H 0.43452 0.68258 0.33466 0.0
H1502 H 0.42296 0.70013 0.32591 0.0
H1503 H 0.36096 0.69799 0.35103 0.0
H1504 H 0.37365 0.69769 0.38119 0.0
H1505 H 0.41939 0.67455 0.36181 0.0
C1506 C 0.39424 0.68147 0.29478 0.0
C1507 C 0.38055 0.68868 0.28513 0.0
C1508 C 0.36607 0.69449 0.29387 0.0
C1509 C 0.3655 0.69371 0.312 0.0
C1510 C 0.37943 0.68695 0.32118 0.0
C1511 C 0.39346 0.68077 0.31285 0.0
C1512 C 0.40734 0.67534 0.32584 0.0
C1513 C 0.40957 0.65563 0.32359 0.0
C1514 C 0.42474 0.6859 0.32439 0.0
C1515 C 0.39923 0.68005 0.34279 0.0
C1516 C 0.38303 0.6865 0.33984 0.0
C1517 C 0.3735 0.69266 0.3535 0.0
C1518 C 0.38079 0.69237 0.37062 0.0
C1519 C 0.39752 0.68606 0.37394 0.0
C1520 C 0.40664 0.67957 0.35977 0.0
H1521 H 0.02658 0.72611 0.70709 0.0
H1522 H 0.97069 0.73025 0.70818 0.0
H1523 H 0.96963 0.73879 0.6777 0.0
H1524 H 0.03524 0.76239 0.67929 0.0
H1525 H 0.05146 0.75114 0.66788 0.0
H1526 H 0.04799 0.74691 0.69023 0.0
H1527 H 0.04258 0.71392 0.68145 0.0
H1528 H 0.04597 0.71805 0.6591 0.0
H1529 H 0.02601 0.70684 0.6646 0.0
H1530 H 0.97446 0.74504 0.64644 0.0
H1531 H 0.98484 0.74869 0.61701 0.0
H1532 H 0.03739 0.73962 0.63641 0.0
C1533 C 0.01415 0.72912 0.70105 0.0
C1534 C 0.99873 0.72761 0.71006 0.0
C1535 C 0.98269 0.73139 0.70156 0.0
C1536 C 0.98196 0.73626 0.68425 0.0
C1537 C 0.99738 0.73731 0.67564 0.0
C1538 C 0.01318 0.7339 0.68378 0.0
C1539 C 0.0277 0.73501 0.67138 0.0
C1540 C 0.0414 0.74974 0.67757 0.0
C1541 C 0.03605 0.71741 0.66899 0.0
C1542 C 0.01756 0.73932 0.65492 0.0
C1543 C 0.00012 0.74072 0.65765 0.0
C1544 C 0.98812 0.74407 0.64418 0.0
C1545 C 0.99411 0.746 0.62748 0.0
C1546 C 0.01194 0.7445 0.62437 0.0
C1547 C 0.02375 0.74119 0.63838 0.0
H1548 H 0.82035 0.41522 0.72178 0.0
H1549 H 0.81288 0.35901 0.72337 0.0
H1550 H 0.84482 0.35679 0.72498 0.0
H1551 H 0.85515 0.41491 0.6941 0.0
H1552 H 0.86669 0.43412 0.70458 0.0
H1553 H 0.84337 0.43139 0.70512 0.0
H1554 H 0.84606 0.43504 0.73888 0.0
H1555 H 0.86942 0.4378 0.73844 0.0
H1556 H 0.85971 0.42112 0.75093 0.0
H1557 H 0.87762 0.36066 0.72502 0.0
H1558 H 0.90857 0.37027 0.72296 0.0
H1559 H 0.89414 0.42377 0.72014 0.0
C1560 C 0.82541 0.40246 0.72275 0.0
C1561 C 0.81414 0.3873 0.72257 0.0
C1562 C 0.82129 0.37081 0.72355 0.0
C1563 C 0.83941 0.36942 0.7245 0.0
C1564 C 0.85016 0.38463 0.72442 0.0
C1565 C 0.84342 0.40083 0.72356 0.0
C1566 C 0.8577 0.41505 0.72266 0.0
C1567 C 0.8556 0.42441 0.7056 0.0
C1568 C 0.85825 0.42802 0.73868 0.0
C1569 C 0.87352 0.40431 0.72294 0.0
C1570 C 0.86895 0.38681 0.72411 0.0
C1571 C 0.88136 0.37434 0.72415 0.0
C1572 C 0.89889 0.37991 0.72285 0.0
C1573 C 0.90384 0.39778 0.72141 0.0
C1574 C 0.8909 0.41007 0.72156 0.0
H1575 H 0.6842 0.64731 0.29255 0.0
H1576 H 0.70045 0.62516 0.34099 0.0
H1577 H 0.66967 0.6171 0.34596 0.0
H1578 H 0.64344 0.66411 0.30657 0.0
H1579 H 0.63192 0.65831 0.28579 0.0
H1580 H 0.65505 0.66378 0.28689 0.0
H1581 H 0.65996 0.63417 0.27068 0.0
H1582 H 0.63688 0.62862 0.26953 0.0
H1583 H 0.65174 0.61424 0.27932 0.0
H1584 H 0.63721 0.61041 0.345 0.0
H1585 H 0.60581 0.60388 0.33727 0.0
H1586 H 0.61097 0.62959 0.28901 0.0
C1587 C 0.68126 0.64101 0.30434 0.0
C1588 C 0.69468 0.63699 0.31647 0.0
C1589 C 0.69035 0.6284 0.33155 0.0
C1590 C 0.67291 0.62384 0.33452 0.0
C1591 C 0.66 0.62786 0.32221 0.0
C1592 C 0.66397 0.63617 0.30737 0.0
C1593 C 0.64781 0.63789 0.29558 0.0
C1594 C 0.64435 0.65717 0.2936 0.0
C1595 C 0.64919 0.62814 0.27772 0.0
C1596 C 0.63415 0.62904 0.30597 0.0
C1597 C 0.64139 0.62357 0.32141 0.0
C1598 C 0.63138 0.61473 0.333 0.0
C1599 C 0.61355 0.61117 0.32855 0.0
C1600 C 0.60597 0.61627 0.31257 0.0
C1601 C 0.61643 0.62549 0.30128 0.0
H1602 H 0.34789 0.05037 0.2761 0.0
H1603 H 0.31127 0.0067 0.25936 0.0
H1604 H 0.3358 0.98855 0.25316 0.0
H1605 H 0.37898 0.0419 0.2438 0.0
H1606 H 0.39768 0.0483 0.25844 0.0
H1607 H 0.37724 0.05791 0.26156 0.0
H1608 H 0.37794 0.04821 0.29325 0.0
H1609 H 0.39836 0.03853 0.29021 0.0
H1610 H 0.38009 0.02554 0.29715 0.0
H1611 H 0.36413 0.975 0.2493 0.0
H1612 H 0.39448 0.96696 0.24751 0.0
H1613 H 0.41285 0.01964 0.26593 0.0
C1614 C 0.34502 0.03699 0.27112 0.0
C1615 C 0.32764 0.02995 0.26823 0.0
C1616 C 0.32446 0.01239 0.26167 0.0
C1617 C 0.3383 0.00197 0.25811 0.0
C1618 C 0.35525 0.00931 0.26114 0.0
C1619 C 0.35868 0.02641 0.26744 0.0
C1620 C 0.37812 0.03109 0.2695 0.0
C1621 C 0.3833 0.04566 0.25761 0.0
C1622 C 0.38396 0.03613 0.28867 0.0
C1623 C 0.38507 0.0139 0.26343 0.0
C1624 C 0.37165 0.00153 0.25869 0.0
C1625 C 0.37476 0.98461 0.25284 0.0
C1626 C 0.39207 0.98022 0.25175 0.0
C1627 C 0.40611 0.9927 0.2564 0.0
C1628 C 0.40246 0.00976 0.26236 0.0
H1629 H 0.19419 0.96669 0.69251 0.0
H1630 H 0.21121 0.01878 0.67924 0.0
H1631 H 0.18105 0.02781 0.68077 0.0
H1632 H 0.1527 0.96424 0.66817 0.0
H1633 H 0.14155 0.95254 0.68427 0.0
H1634 H 0.16444 0.95017 0.68194 0.0
H1635 H 0.17094 0.95947 0.7147 0.0
H1636 H 0.14808 0.96187 0.71713 0.0
H1637 H 0.16365 0.97989 0.72331 0.0
H1638 H 0.14895 0.03112 0.6838 0.0
H1639 H 0.11739 0.02842 0.68804 0.0
H1640 H 0.12175 0.97438 0.70009 0.0
C1641 C 0.19159 0.97999 0.68987 0.0
C1642 C 0.20506 0.99203 0.68572 0.0
C1643 C 0.2011 0.00933 0.68243 0.0
C1644 C 0.18401 0.01458 0.68327 0.0
C1645 C 0.17106 0.00239 0.68745 0.0
C1646 C 0.17465 0.98546 0.6907 0.0
C1647 C 0.15844 0.97495 0.69507 0.0
C1648 C 0.15403 0.95957 0.68156 0.0
C1649 C 0.1604 0.96868 0.71366 0.0
C1650 C 0.14515 0.9886 0.69376 0.0
C1651 C 0.15267 0.00434 0.68934 0.0
C1652 C 0.14293 0.01887 0.68733 0.0
C1653 C 0.12504 0.01724 0.68988 0.0
C1654 C 0.11706 0.0012 0.69443 0.0
C1655 C 0.12736 0.98676 0.69641 0.0
H1656 H 0.69896 0.81484 0.43071 0.0
H1657 H 0.69901 0.80133 0.37517 0.0
H1658 H 0.69924 0.83259 0.36938 0.0
H1659 H 0.67051 0.85013 0.42732 0.0
H1660 H 0.68184 0.8633 0.44507 0.0
H1661 H 0.68181 0.83989 0.44476 0.0
H1662 H 0.71559 0.84193 0.44729 0.0
H1663 H 0.71572 0.86535 0.44755 0.0
H1664 H 0.72737 0.85351 0.43153 0.0
H1665 H 0.69997 0.86547 0.36977 0.0
H1666 H 0.70048 0.89731 0.37623 0.0
H1667 H 0.69876 0.88901 0.43144 0.0
C1668 C 0.69904 0.81843 0.41732 0.0
C1669 C 0.69901 0.80563 0.40339 0.0
C1670 C 0.69902 0.8109 0.38605 0.0
C1671 C 0.69917 0.82862 0.38264 0.0
C1672 C 0.69922 0.8409 0.39669 0.0
C1673 C 0.69907 0.83603 0.41368 0.0
C1674 C 0.69898 0.85176 0.42643 0.0
C1675 C 0.68229 0.85123 0.43648 0.0
C1676 C 0.71539 0.85322 0.43893 0.0
C1677 C 0.69918 0.86626 0.41397 0.0
C1678 C 0.69935 0.85975 0.39688 0.0
C1679 C 0.69972 0.87071 0.3831 0.0
C1680 C 0.6999 0.88878 0.3869 0.0
C1681 C 0.69964 0.89575 0.40435 0.0
C1682 C 0.69923 0.88421 0.41799 0.0
H1683 H 0.67368 0.17155 0.99997 0.0
H1684 H 0.67694 0.19824 0.05144 0.0
H1685 H 0.68043 0.17016 0.06476 0.0
H1686 H 0.64978 0.13239 0.01114 0.0
H1687 H 0.66148 0.11811 0.99729 0.0
H1688 H 0.65875 0.14024 0.99174 0.0
H1689 H 0.69221 0.14554 0.99079 0.0
H1690 H 0.69503 0.12342 0.99629 0.0
H1691 H 0.70611 0.14126 0.00952 0.0
H1692 H 0.68339 0.13929 0.07251 0.0
H1693 H 0.68684 0.10782 0.07424 0.0
H1694 H 0.683 0.10122 0.01768 0.0
C1695 C 0.67504 0.17147 0.01405 0.0
C1696 C 0.67496 0.18709 0.02468 0.0
C1697 C 0.67696 0.18646 0.04304 0.0
C1698 C 0.67891 0.17056 0.05073 0.0
C1699 C 0.67894 0.15543 0.03988 0.0
C1700 C 0.67716 0.15573 0.02195 0.0
C1701 C 0.67815 0.13765 0.01327 0.0
C1702 C 0.66102 0.13175 0.00274 0.0
C1703 C 0.69381 0.13693 0.00179 0.0
C1704 C 0.68075 0.12713 0.02915 0.0
C1705 C 0.68107 0.13764 0.04435 0.0
C1706 C 0.68328 0.13094 0.06069 0.0
C1707 C 0.68536 0.11304 0.06152 0.0
C1708 C 0.68537 0.10199 0.0461 0.0
C1709 C 0.68291 0.10922 0.02972 0.0
H1710 H 0.2822 0.68578 0.64437 0.0
H1711 H 0.32879 0.70214 0.61905 0.0
H1712 H 0.33388 0.67131 0.61135 0.0
H1713 H 0.29811 0.64622 0.66159 0.0
H1714 H 0.27745 0.63401 0.65733 0.0
H1715 H 0.27813 0.65728 0.66189 0.0
H1716 H 0.26017 0.6606 0.63286 0.0
H1717 H 0.25941 0.63737 0.62824 0.0
H1718 H 0.26789 0.65179 0.61271 0.0
H1719 H 0.3335 0.63875 0.60584 0.0
H1720 H 0.32661 0.60701 0.60114 0.0
H1721 H 0.27983 0.61199 0.62935 0.0
C1722 C 0.29358 0.68287 0.63737 0.0
C1723 C 0.30517 0.69634 0.6324 0.0
C1724 C 0.31975 0.69202 0.623 0.0
C1725 C 0.32279 0.67455 0.61863 0.0
C1726 C 0.31107 0.66158 0.62368 0.0
C1727 C 0.29669 0.66553 0.63273 0.0
C1728 C 0.28554 0.64923 0.63572 0.0
C1729 C 0.28477 0.64653 0.6553 0.0
C1730 C 0.26717 0.64979 0.62685 0.0
C1731 C 0.29581 0.63551 0.62679 0.0
C1732 C 0.31061 0.64287 0.62012 0.0
C1733 C 0.32201 0.63283 0.61108 0.0
C1734 C 0.31804 0.6148 0.60857 0.0
C1735 C 0.30272 0.60704 0.61493 0.0
C1736 C 0.2916 0.61757 0.6243 0.0
H1737 H 0.27973 0.33707 0.0372 0.0
H1738 H 0.24245 0.3096 0.9992 0.0
H1739 H 0.23709 0.33733 0.98584 0.0
H1740 H 0.25687 0.37738 0.04198 0.0
H1741 H 0.27678 0.39108 0.04375 0.0
H1742 H 0.27667 0.36931 0.0512 0.0
H1743 H 0.30148 0.36219 0.0311 0.0
H1744 H 0.30164 0.38389 0.02356 0.0
H1745 H 0.29859 0.3653 0.0081 0.0
H1746 H 0.23697 0.36763 0.97562 0.0
H1747 H 0.24258 0.39827 0.96878 0.0
H1748 H 0.27995 0.40614 0.01342 0.0
C1749 C 0.27026 0.33692 0.02622 0.0
C1750 C 0.26144 0.32117 0.01929 0.0
C1751 C 0.24933 0.3215 0.00475 0.0
C1752 C 0.24617 0.33719 0.9971 0.0
C1753 C 0.25522 0.35244 0.00413 0.0
C1754 C 0.26701 0.35245 0.01836 0.0
C1755 C 0.27569 0.37047 0.0228 0.0
C1756 C 0.27123 0.37747 0.04101 0.0
C1757 C 0.29552 0.37045 0.02129 0.0
C1758 C 0.26715 0.38053 0.00865 0.0
C1759 C 0.25525 0.36992 0.99813 0.0
C1760 C 0.24611 0.37612 0.98388 0.0
C1761 C 0.24932 0.39359 0.98016 0.0
C1762 C 0.26163 0.40468 0.99062 0.0
C1763 C 0.27051 0.39801 0.00513 0.0
H1764 H 0.41971 0.6997 0.78569 0.0
H1765 H 0.36743 0.67677 0.77247 0.0
H1766 H 0.36175 0.67742 0.80374 0.0
H1767 H 0.42828 0.67612 0.82244 0.0
H1768 H 0.44033 0.69382 0.83504 0.0
H1769 H 0.43976 0.69304 0.81161 0.0
H1770 H 0.42799 0.72391 0.81184 0.0
H1771 H 0.42862 0.72483 0.83532 0.0
H1772 H 0.4086 0.72816 0.82299 0.0
H1773 H 0.36261 0.67843 0.8366 0.0
H1774 H 0.36988 0.67999 0.86835 0.0
H1775 H 0.42132 0.70299 0.85994 0.0
C1776 C 0.40697 0.69507 0.78933 0.0
C1777 C 0.394 0.68822 0.77661 0.0
C1778 C 0.37755 0.68213 0.78197 0.0
C1779 C 0.37419 0.68245 0.7997 0.0
C1780 C 0.38737 0.68902 0.81192 0.0
C1781 C 0.40339 0.69532 0.80695 0.0
C1782 C 0.41561 0.70094 0.82266 0.0
C1783 C 0.43195 0.69034 0.82295 0.0
C1784 C 0.42049 0.72063 0.82323 0.0
C1785 C 0.40411 0.69642 0.83724 0.0
C1786 C 0.38783 0.68968 0.8308 0.0
C1787 C 0.37525 0.68391 0.8418 0.0
C1788 C 0.37948 0.68493 0.85984 0.0
C1789 C 0.39617 0.69163 0.86672 0.0
C1790 C 0.4085 0.69763 0.85516 0.0
H1791 H 0.97539 0.70077 0.17716 0.0
H1792 H 0.02487 0.68597 0.19996 0.0
H1793 H 0.03794 0.68895 0.1717 0.0
H1794 H 0.97837 0.6787 0.13465 0.0
H1795 H 0.96855 0.69567 0.12304 0.0
H1796 H 0.96287 0.69194 0.14494 0.0
H1797 H 0.97168 0.72426 0.15443 0.0
H1798 H 0.97735 0.7281 0.13256 0.0
H1799 H 0.9932 0.73314 0.15059 0.0
H1800 H 0.04578 0.69387 0.14126 0.0
H1801 H 0.04812 0.70099 0.11065 0.0
H1802 H 0.99373 0.71316 0.10759 0.0
C1803 C 0.98896 0.69808 0.1762 0.0
C1804 C 0.9991 0.6931 0.19079 0.0
C1805 C 0.01683 0.6898 0.18899 0.0
C1806 C 0.02437 0.69142 0.17298 0.0
C1807 C 0.01402 0.69637 0.15889 0.0
C1808 C 0.99671 0.69968 0.16032 0.0
C1809 C 0.98861 0.7052 0.14324 0.0
C1810 C 0.97372 0.69209 0.13605 0.0
C1811 C 0.98235 0.72378 0.14534 0.0
C1812 C 0.00411 0.70457 0.13202 0.0
C1813 C 0.0186 0.69937 0.14131 0.0
C1814 C 0.03454 0.69799 0.13386 0.0
C1815 C 0.03575 0.70217 0.11649 0.0
C1816 C 0.02114 0.70776 0.10673 0.0
C1817 C 0.00508 0.70879 0.11463 0.0
H1818 H 0.59852 0.34146 0.69071 0.0
H1819 H 0.6543 0.33661 0.69791 0.0
H1820 H 0.65617 0.33338 0.66597 0.0
H1821 H 0.59052 0.30985 0.65692 0.0
H1822 H 0.57435 0.32116 0.64493 0.0
H1823 H 0.57765 0.32523 0.66817 0.0
H1824 H 0.58374 0.35852 0.66452 0.0
H1825 H 0.57957 0.35421 0.64134 0.0
H1826 H 0.59978 0.36535 0.64973 0.0
H1827 H 0.65145 0.32794 0.6333 0.0
H1828 H 0.64043 0.32054 0.60279 0.0
H1829 H 0.58792 0.32964 0.61714 0.0
C1830 C 0.61117 0.33995 0.68559 0.0
C1831 C 0.62626 0.33929 0.69682 0.0
C1832 C 0.64255 0.33717 0.68957 0.0
C1833 C 0.64377 0.33541 0.67143 0.0
C1834 C 0.62859 0.33591 0.66073 0.0
C1835 C 0.61262 0.33827 0.66755 0.0
C1836 C 0.59811 0.33728 0.65333 0.0
C1837 C 0.58436 0.3225 0.656 0.0
C1838 C 0.58981 0.35489 0.65218 0.0
C1839 C 0.60829 0.33324 0.63753 0.0
C1840 C 0.62589 0.33279 0.64199 0.0
C1841 C 0.63772 0.32851 0.62963 0.0
C1842 C 0.63136 0.32439 0.61231 0.0
C1843 C 0.61331 0.32446 0.60756 0.0
C1844 C 0.60176 0.32928 0.62036 0.0
H1845 H 0.98499 0.26649 0.29579 0.0
H1846 H 0.93021 0.27248 0.28255 0.0
H1847 H 0.92321 0.26472 0.31218 0.0
H1848 H 0.97916 0.23023 0.32473 0.0
H1849 H 0.99697 0.23877 0.33961 0.0
H1850 H 0.99731 0.24261 0.31676 0.0
H1851 H 0.0013 0.27591 0.32444 0.0
H1852 H 0.00092 0.27218 0.34725 0.0
H1853 H 0.98576 0.28631 0.33754 0.0
H1854 H 0.9226 0.25885 0.34414 0.0
H1855 H 0.92849 0.25552 0.37566 0.0
H1856 H 0.98377 0.25445 0.36778 0.0
C1857 C 0.97147 0.26578 0.29896 0.0
C1858 C 0.95813 0.26996 0.28681 0.0
C1859 C 0.94064 0.26923 0.29162 0.0
C1860 C 0.93653 0.26481 0.30841 0.0
C1861 C 0.95006 0.26114 0.3202 0.0
C1862 C 0.96717 0.26152 0.31565 0.0
C1863 C 0.97946 0.25842 0.33105 0.0
C1864 C 0.98877 0.2415 0.32784 0.0
C1865 C 0.99263 0.27414 0.33532 0.0
C1866 C 0.96666 0.25663 0.3451 0.0
C1867 C 0.94974 0.25803 0.33858 0.0
C1868 C 0.93579 0.25758 0.34935 0.0
C1869 C 0.93928 0.25581 0.36725 0.0
C1870 C 0.95659 0.25463 0.37423 0.0
C1871 C 0.97035 0.25489 0.36287 0.0
H1872 H 0.28567 0.59491 0.39294 0.0
H1873 H 0.24735 0.55791 0.3655 0.0
H1874 H 0.24055 0.54569 0.39348 0.0
H1875 H 0.30177 0.56611 0.42383 0.0
H1876 H 0.30462 0.58265 0.44151 0.0
H1877 H 0.30617 0.58862 0.41936 0.0
H1878 H 0.28222 0.61052 0.42357 0.0
H1879 H 0.28061 0.60464 0.44574 0.0
H1880 H 0.26147 0.60299 0.43096 0.0
H1881 H 0.23856 0.53703 0.42466 0.0
H1882 H 0.2409 0.53341 0.45646 0.0
H1883 H 0.28048 0.57617 0.46297 0.0
C1884 C 0.27579 0.58427 0.39276 0.0
C1885 C 0.26705 0.57737 0.37699 0.0
C1886 C 0.25421 0.56344 0.3774 0.0
C1887 C 0.25027 0.5564 0.39323 0.0
C1888 C 0.25923 0.56345 0.40852 0.0
C1889 C 0.27167 0.57714 0.4084 0.0
C1890 C 0.2795 0.58237 0.42656 0.0
C1891 C 0.29918 0.57978 0.42788 0.0
C1892 C 0.27572 0.60125 0.43202 0.0
C1893 C 0.26959 0.56946 0.43695 0.0
C1894 C 0.25798 0.55861 0.42635 0.0
C1895 C 0.24758 0.54548 0.43308 0.0
C1896 C 0.24905 0.54346 0.45112 0.0
C1897 C 0.26078 0.55457 0.46219 0.0
C1898 C 0.27118 0.56766 0.4549 0.0
H1899 H 0.23578 0.39934 0.76187 0.0
H1900 H 0.27464 0.43005 0.7362 0.0
H1901 H 0.28691 0.44258 0.76493 0.0
H1902 H 0.22806 0.43181 0.79472 0.0
H1903 H 0.22532 0.41665 0.81148 0.0
H1904 H 0.2201 0.40959 0.78898 0.0
H1905 H 0.24123 0.38475 0.79165 0.0
H1906 H 0.24648 0.3917 0.81419 0.0
H1907 H 0.26361 0.38997 0.79931 0.0
H1908 H 0.29431 0.4525 0.79662 0.0
H1909 H 0.29663 0.45833 0.82864 0.0
H1910 H 0.25261 0.42133 0.83312 0.0
C1911 C 0.24696 0.40858 0.76224 0.0
C1912 C 0.25425 0.41367 0.74675 0.0
C1913 C 0.26883 0.4259 0.74789 0.0
C1914 C 0.2759 0.43311 0.76414 0.0
C1915 C 0.26825 0.42793 0.77913 0.0
C1916 C 0.25415 0.41589 0.77831 0.0
C1917 C 0.2481 0.41274 0.79628 0.0
C1918 C 0.22928 0.41802 0.79796 0.0
C1919 C 0.24997 0.39366 0.8006 0.0
C1920 C 0.26095 0.42495 0.80735 0.0
C1921 C 0.27248 0.43361 0.79726 0.0
C1922 C 0.28536 0.44575 0.80465 0.0
C1923 C 0.28651 0.44907 0.82283 0.0
C1924 C 0.27485 0.44025 0.83341 0.0
C1925 C 0.26191 0.42808 0.82545 0.0
H1926 H 0.75996 0.00094 0.62814 0.0
H1927 H 0.71066 0.01284 0.64928 0.0
H1928 H 0.69611 0.00832 0.61977 0.0
H1929 H 0.75334 0.02158 0.58762 0.0
H1930 H 0.76366 0.00505 0.57506 0.0
H1931 H 0.77024 0.00968 0.59778 0.0
H1932 H 0.76388 0.97714 0.60355 0.0
H1933 H 0.75726 0.97242 0.58087 0.0
H1934 H 0.74262 0.96683 0.59738 0.0
H1935 H 0.68695 0.00248 0.58789 0.0
H1936 H 0.68373 0.99477 0.55617 0.0
H1937 H 0.73891 0.98625 0.55615 0.0
C1938 C 0.74612 0.00269 0.62659 0.0
C1939 C 0.73646 0.00731 0.64103 0.0
C1940 C 0.71834 0.00931 0.63842 0.0
C1941 C 0.70996 0.0068 0.6217 0.0
C1942 C 0.71986 0.00222 0.60777 0.0
C1943 C 0.73753 1.00012 0.61004 0.0
C1944 C 0.74513 0.99475 0.59299 0.0
C1945 C 0.75891 0.00859 0.58808 0.0
C1946 C 0.75266 0.97671 0.59375 0.0
C1947 C 0.72897 0.99411 0.58076 0.0
C1948 C 0.71454 0.99856 0.5895 0.0
C1949 C 0.69816 0.99898 0.5809 0.0
C1950 C 0.69646 0.99466 0.5629 0.0
C1951 C 0.71106 0.98988 0.55374 0.0
C1952 C 0.72749 0.98966 0.56285 0.0
H1953 H 0.73436 0.03284 0.26663 0.0
H1954 H 0.78486 0.01091 0.26484 0.0
H1955 H 0.77998 0.00512 0.23295 0.0
H1956 H 0.7115 0.00307 0.23219 0.0
H1957 H 0.69902 0.02008 0.22361 0.0
H1958 H 0.70579 0.02095 0.24647 0.0
H1959 H 0.7207 0.05169 0.24409 0.0
H1960 H 0.7141 0.05091 0.22123 0.0
H1961 H 0.7368 0.05481 0.22828 0.0
H1962 H 0.77037 0.00316 0.20131 0.0
H1963 H 0.75731 0.0064 0.17172 0.0
H1964 H 0.71306 0.0298 0.19397 0.0
C1965 C 0.74413 0.02632 0.25959 0.0
C1966 C 0.75982 0.02194 0.26819 0.0
C1967 C 0.77269 0.01421 0.25845 0.0
C1968 C 0.77 0.01081 0.24038 0.0
C1969 C 0.75441 0.01532 0.23226 0.0
C1970 C 0.7417 0.02295 0.24152 0.0
C1971 C 0.72668 0.02768 0.22947 0.0
C1972 C 0.70975 0.01732 0.23315 0.0
C1973 C 0.72445 0.04745 0.23085 0.0
C1974 C 0.73312 0.02186 0.21197 0.0
C1975 C 0.74902 0.01455 0.21391 0.0
C1976 C 0.75784 0.0087 0.19962 0.0
C1977 C 0.75028 0.01052 0.18287 0.0
C1978 C 0.73415 0.01829 0.18055 0.0
C1979 C 0.72543 0.02387 0.19534 0.0
H1980 H 0.38604 0.2883 0.59831 0.0
H1981 H 0.36312 0.24513 0.56402 0.0
H1982 H 0.39199 0.24048 0.55277 0.0
H1983 H 0.41544 0.30521 0.56851 0.0
H1984 H 0.43268 0.31115 0.58501 0.0
H1985 H 0.4103 0.31074 0.59063 0.0
H1986 H 0.41699 0.28937 0.6146 0.0
H1987 H 0.4394 0.28972 0.60907 0.0
H1988 H 0.42674 0.26925 0.60887 0.0
H1989 H 0.42345 0.24111 0.54473 0.0
H1990 H 0.45501 0.24654 0.5412 0.0
H1991 H 0.45686 0.28933 0.58069 0.0
C1992 C 0.38705 0.27779 0.5885 0.0
C1993 C 0.37228 0.26708 0.58207 0.0
C1994 C 0.37424 0.25351 0.56918 0.0
C1995 C 0.39058 0.25077 0.5627 0.0
C1996 C 0.40484 0.26167 0.56925 0.0
C1997 C 0.40323 0.27487 0.58191 0.0
C1998 C 0.4205 0.2849 0.58668 0.0
C1999 C 0.41967 0.30413 0.58245 0.0
C2000 C 0.42624 0.2832 0.60595 0.0
C2001 C 0.43209 0.27532 0.57469 0.0
C2002 C 0.42285 0.26197 0.56471 0.0
C2003 C 0.43082 0.2515 0.55251 0.0
C2004 C 0.44871 0.25474 0.55053 0.0
C2005 C 0.45841 0.26829 0.56073 0.0
C2006 C 0.44988 0.27868 0.57291 0.0
H2007 H 0.23838 0.72718 0.02381 0.0
H2008 H 0.25071 0.77962 0.00831 0.0
H2009 H 0.22086 0.78744 0.01409 0.0
H2010 H 0.19534 0.72255 0.00471 0.0
H2011 H 0.18665 0.71057 0.02201 0.0
H2012 H 0.20921 0.70938 0.01744 0.0
H2013 H 0.21846 0.71948 0.04954 0.0
H2014 H 0.1959 0.72069 0.05422 0.0
H2015 H 0.21086 0.73952 0.05876 0.0
H2016 H 0.18908 0.78901 0.02001 0.0
H2017 H 0.15812 0.78439 0.02656 0.0
H2018 H 0.16697 0.73111 0.03847 0.0
C2019 C 0.23488 0.74036 0.02174 0.0
C2020 C 0.24691 0.75278 0.01559 0.0
C2021 C 0.24175 0.76988 0.01305 0.0
C2022 C 0.22482 0.77445 0.01629 0.0
C2023 C 0.21325 0.76183 0.02218 0.0
C2024 C 0.2181 0.74517 0.02499 0.0
C2025 C 0.20312 0.73391 0.03102 0.0
C2026 C 0.1983 0.71818 0.01802 0.0
C2027 C 0.20734 0.72806 0.04948 0.0
C2028 C 0.18901 0.74676 0.03095 0.0
C2029 C 0.19509 0.7628 0.02583 0.0
C2030 C 0.18421 0.77655 0.02417 0.0
C2031 C 0.16666 0.77379 0.02783 0.0
C2032 C 0.16021 0.75744 0.03313 0.0
C2033 C 0.17161 0.74384 0.03476 0.0
H2034 H 0.78578 0.25011 0.42102 0.0
H2035 H 0.79648 0.23763 0.36712 0.0
H2036 H 0.82772 0.24588 0.37415 0.0
H2037 H 0.8178 0.28705 0.42933 0.0
H2038 H 0.82347 0.28132 0.45123 0.0
H2039 H 0.80181 0.27589 0.44158 0.0
H2040 H 0.80498 0.24342 0.44766 0.0
H2041 H 0.82661 0.24874 0.45732 0.0
H2042 H 0.82313 0.23237 0.43953 0.0
H2043 H 0.85807 0.25429 0.38749 0.0
H2044 H 0.88505 0.26131 0.40615 0.0
H2045 H 0.85427 0.26681 0.45143 0.0
C2046 C 0.79462 0.24937 0.41061 0.0
C2047 C 0.78866 0.24334 0.39349 0.0
C2048 C 0.80074 0.24226 0.38033 0.0
C2049 C 0.8185 0.24696 0.38418 0.0
C2050 C 0.82397 0.25264 0.40126 0.0
C2051 C 0.81237 0.25383 0.41426 0.0
C2052 C 0.82166 0.25926 0.43177 0.0
C2053 C 0.81584 0.27693 0.43889 0.0
C2054 C 0.81893 0.2451 0.44483 0.0
C2055 C 0.84033 0.26076 0.42665 0.0
C2056 C 0.8414 0.25707 0.40898 0.0
C2057 C 0.85737 0.25723 0.40134 0.0
C2058 C 0.87264 0.26111 0.41208 0.0
C2059 C 0.87185 0.26464 0.4303 0.0
C2060 C 0.85539 0.26454 0.43754 0.0
H2061 H 0.62074 0.75467 0.97421 0.0
H2062 H 0.64533 0.70592 0.96482 0.0
H2063 H 0.6165 0.69102 0.95665 0.0
H2064 H 0.58303 0.73642 0.99317 0.0
H2065 H 0.5684 0.751 0.98334 0.0
H2066 H 0.59101 0.75791 0.9881 0.0
H2067 H 0.59391 0.76484 0.95581 0.0
H2068 H 0.5713 0.75799 0.95096 0.0
H2069 H 0.58785 0.7481 0.93881 0.0
H2070 H 0.58493 0.68145 0.94942 0.0
H2071 H 0.55289 0.67786 0.94421 0.0
H2072 H 0.54909 0.73278 0.95866 0.0
C2073 C 0.62011 0.74087 0.97038 0.0
C2074 C 0.63534 0.73148 0.97013 0.0
C2075 C 0.63387 0.71341 0.96511 0.0
C2076 C 0.61755 0.70483 0.96044 0.0
C2077 C 0.60282 0.71448 0.96088 0.0
C2078 C 0.60395 0.73209 0.96575 0.0
C2079 C 0.58613 0.73943 0.96533 0.0
C2080 C 0.5819 0.74661 0.98357 0.0
C2081 C 0.58472 0.75341 0.95193 0.0
C2082 C 0.57479 0.72317 0.95954 0.0
C2083 C 0.58466 0.70893 0.95695 0.0
C2084 C 0.57707 0.69251 0.9514 0.0
C2085 C 0.55889 0.69061 0.94841 0.0
C2086 C 0.54853 0.70503 0.95107 0.0
C2087 C 0.55665 0.72149 0.95673 0.0
H2088 H 0.57974 0.38565 0.28611 0.0
H2089 H 0.55146 0.36558 0.23796 0.0
H2090 H 0.54291 0.39532 0.23243 0.0
H2091 H 0.54945 0.41669 0.29869 0.0
H2092 H 0.56605 0.43283 0.30747 0.0
H2093 H 0.57007 0.41002 0.30744 0.0
H2094 H 0.59777 0.41557 0.2905 0.0
H2095 H 0.59387 0.43841 0.29051 0.0
H2096 H 0.5961 0.42609 0.2702 0.0
H2097 H 0.53694 0.42744 0.23263 0.0
H2098 H 0.53504 0.45929 0.23802 0.0
H2099 H 0.56733 0.45782 0.28596 0.0
C2100 C 0.57178 0.38746 0.27436 0.0
C2101 C 0.56626 0.37325 0.26248 0.0
C2102 C 0.55588 0.37625 0.24726 0.0
C2103 C 0.55093 0.3931 0.24402 0.0
C2104 C 0.55652 0.40679 0.25608 0.0
C2105 C 0.56679 0.40413 0.27091 0.0
C2106 C 0.57112 0.42097 0.28184 0.0
C2107 C 0.56373 0.42007 0.29992 0.0
C2108 C 0.59089 0.42553 0.28334 0.0
C2109 C 0.56166 0.43354 0.27089 0.0
C2110 C 0.55326 0.42515 0.2561 0.0
C2111 C 0.54351 0.43414 0.24415 0.0
C2112 C 0.54242 0.45219 0.24735 0.0
C2113 C 0.55111 0.46103 0.26235 0.0
C2114 C 0.56077 0.45148 0.27424 0.0
H2115 H 0.9907 0.19774 0.72246 0.0
H2116 H 0.95414 0.19451 0.76318 0.0
H2117 H 0.95885 0.16311 0.76475 0.0
H2118 H 0.97843 0.1563 0.70056 0.0
H2119 H 0.00037 0.15187 0.69554 0.0
H2120 H 0.99416 0.17405 0.69779 0.0
H2121 H 0.01935 0.18139 0.72138 0.0
H2122 H 0.02567 0.15925 0.71917 0.0
H2123 H 0.02088 0.1686 0.74024 0.0
H2124 H 0.96728 0.13171 0.76129 0.0
H2125 H 0.97976 0.10344 0.75407 0.0
H2126 H 0.01069 0.1278 0.71578 0.0
C2127 C 0.98367 0.19049 0.73175 0.0
C2128 C 0.97202 0.1986 0.74268 0.0
C2129 C 0.96316 0.18859 0.75468 0.0
C2130 C 0.96572 0.17074 0.75565 0.0
C2131 C 0.97722 0.16314 0.74457 0.0
C2132 C 0.98611 0.17275 0.73293 0.0
C2133 C 0.99784 0.16162 0.72253 0.0
C2134 C 0.99236 0.16092 0.70294 0.0
C2135 C 0.01707 0.1681 0.72605 0.0
C2136 C 0.99416 0.1442 0.7301 0.0
C2137 C 0.98218 0.14527 0.74274 0.0
C2138 C 0.97669 0.13073 0.75143 0.0
C2139 C 0.98376 0.11473 0.74718 0.0
C2140 C 0.99624 0.11345 0.73443 0.0
C2141 C 0.00136 0.12841 0.72576 0.0
H2142 H 0.40601 0.7605 0.24313 0.0
H2143 H 0.44672 0.74179 0.21145 0.0
H2144 H 0.46182 0.77106 0.21444 0.0
H2145 H 0.40388 0.80127 0.22518 0.0
H2146 H 0.40012 0.81317 0.24534 0.0
H2147 H 0.39329 0.79038 0.24218 0.0
H2148 H 0.41136 0.78406 0.27032 0.0
H2149 H 0.41818 0.80688 0.27363 0.0
H2150 H 0.43424 0.79079 0.27265 0.0
H2151 H 0.47148 0.8027 0.21914 0.0
H2152 H 0.47488 0.83461 0.22508 0.0
H2153 H 0.42804 0.83273 0.25386 0.0
C2154 C 0.41825 0.76246 0.23706 0.0
C2155 C 0.4252 0.74881 0.22711 0.0
C2156 C 0.44113 0.75203 0.21916 0.0
C2157 C 0.44984 0.7686 0.22081 0.0
C2158 C 0.44248 0.78183 0.23047 0.0
C2159 C 0.42708 0.77895 0.23851 0.0
C2160 C 0.42147 0.79564 0.24733 0.0
C2161 C 0.40364 0.80039 0.23953 0.0
C2162 C 0.42131 0.79425 0.26716 0.0
C2163 C 0.43595 0.80839 0.24269 0.0
C2164 C 0.44802 0.80013 0.23311 0.0
C2165 C 0.46223 0.80929 0.22682 0.0
C2166 C 0.46409 0.82741 0.23033 0.0
C2167 C 0.45178 0.8362 0.23999 0.0
C2168 C 0.43762 0.82645 0.24634 0.0
H2169 H 0.9669 0.63414 0.75911 0.0
H2170 H 0.01608 0.64927 0.73768 0.0
H2171 H 0.01858 0.6189 0.72642 0.0
H2172 H 0.97864 0.59283 0.77282 0.0
H2173 H 0.95755 0.58199 0.76699 0.0
H2174 H 0.95936 0.60502 0.77299 0.0
H2175 H 0.94322 0.61113 0.74369 0.0
H2176 H 0.9413 0.58811 0.73763 0.0
H2177 H 0.95141 0.60303 0.7235 0.0
H2178 H 0.01637 0.58669 0.71861 0.0
H2179 H 0.00922 0.55505 0.71409 0.0
H2180 H 0.96084 0.56119 0.73945 0.0
C2181 C 0.97817 0.6311 0.75199 0.0
C2182 C 0.99131 0.6441 0.74932 0.0
C2183 C 0.00583 0.63956 0.73989 0.0
C2184 C 0.00737 0.62234 0.73344 0.0
C2185 C 0.99425 0.60984 0.73641 0.0
C2186 C 0.97987 0.61401 0.74536 0.0
C2187 C 0.96764 0.5981 0.74685 0.0
C2188 C 0.96569 0.59426 0.76606 0.0
C2189 C 0.94984 0.60023 0.73735 0.0
C2190 C 0.97751 0.58429 0.73754 0.0
C2191 C 0.99281 0.59133 0.73161 0.0
C2192 C 0.00432 0.58105 0.72301 0.0
C2193 C 8e-05 0.56309 0.7204 0.0
C2194 C 0.9844 0.55556 0.7263 0.0
C2195 C 0.97299 0.56643 0.73491 0.0
H2196 H 0.70848 0.40242 0.65619 0.0
H2197 H 0.7641 0.39717 0.65341 0.0
H2198 H 0.76198 0.40438 0.62268 0.0
H2199 H 0.69621 0.3826 0.61261 0.0
H2200 H 0.67895 0.39705 0.60898 0.0
H2201 H 0.68509 0.39139 0.63077 0.0
H2202 H 0.69025 0.42462 0.64018 0.0
H2203 H 0.68421 0.42985 0.61823 0.0
H2204 H 0.705 0.43792 0.62847 0.0
H2205 H 0.75419 0.41255 0.59255 0.0
H2206 H 0.74076 0.41967 0.56416 0.0
H2207 H 0.68996 0.41842 0.58584 0.0
C2208 C 0.72013 0.40231 0.6491 0.0
C2209 C 0.7364 0.39891 0.65728 0.0
C2210 C 0.75146 0.3997 0.6475 0.0
C2211 C 0.75041 0.40377 0.63001 0.0
C2212 C 0.73421 0.40699 0.62237 0.0
C2213 C 0.7193 0.4062 0.63151 0.0
C2214 C 0.70349 0.41012 0.62005 0.0
C2215 C 0.69014 0.39436 0.61798 0.0
C2216 C 0.69525 0.4266 0.62716 0.0
C2217 C 0.71188 0.41321 0.60308 0.0
C2218 C 0.72964 0.41148 0.60478 0.0
C2219 C 0.74029 0.41393 0.59102 0.0
C2220 C 0.73257 0.41809 0.575 0.0
C2221 C 0.71435 0.41966 0.57283 0.0
C2222 C 0.70391 0.41721 0.5871 0.0
H2223 H 0.75258 0.62856 0.24561 0.0
H2224 H 0.79465 0.60269 0.27113 0.0
H2225 H 0.79974 0.58686 0.24314 0.0
H2226 H 0.73579 0.59167 0.21726 0.0
H2227 H 0.73045 0.60479 0.19929 0.0
H2228 H 0.73022 0.6139 0.22136 0.0
H2229 H 0.75193 0.63918 0.21433 0.0
H2230 H 0.75222 0.63016 0.19224 0.0
H2231 H 0.77233 0.63422 0.20542 0.0
H2232 H 0.8001 0.57396 0.21196 0.0
H2233 H 0.79627 0.5658 0.18029 0.0
H2234 H 0.75355 0.59992 0.17584 0.0
C2235 C 0.76285 0.61953 0.24532 0.0
C2236 C 0.77349 0.61712 0.26043 0.0
C2237 C 0.78676 0.60518 0.25956 0.0
C2238 C 0.78958 0.59597 0.24377 0.0
C2239 C 0.77895 0.59882 0.22904 0.0
C2240 C 0.76585 0.61032 0.22972 0.0
C2241 C 0.75636 0.61129 0.21208 0.0
C2242 C 0.73707 0.60503 0.21253 0.0
C2243 C 0.75834 0.62981 0.20564 0.0
C2244 C 0.76622 0.5986 0.2013 0.0
C2245 C 0.77914 0.59144 0.21128 0.0
C2246 C 0.78999 0.57946 0.20403 0.0
C2247 C 0.78767 0.57484 0.18607 0.0
C2248 C 0.77467 0.58228 0.1756 0.0
C2249 C 0.76376 0.59417 0.18344 0.0
H2250 H 0.27086 0.06876 0.34089 0.0
H2251 H 0.2389 0.02255 0.32182 0.0
H2252 H 0.23132 0.01739 0.35192 0.0
H2253 H 0.28858 0.05126 0.37899 0.0
H2254 H 0.28857 0.07126 0.3924 0.0
H2255 H 0.29041 0.07197 0.36924 0.0
H2256 H 0.26348 0.09059 0.36701 0.0
H2257 H 0.26161 0.09002 0.39018 0.0
H2258 H 0.24331 0.08269 0.37537 0.0
H2259 H 0.22872 0.01643 0.38449 0.0
H2260 H 0.231 0.01992 0.41667 0.0
H2261 H 0.26444 0.06701 0.41415 0.0
C2262 C 0.26213 0.05765 0.34304 0.0
C2263 C 0.2551 0.0463 0.32899 0.0
C2264 C 0.24388 0.03179 0.33231 0.0
C2265 C 0.23967 0.02864 0.3494 0.0
C2266 C 0.24682 0.04013 0.36298 0.0
C2267 C 0.25776 0.05438 0.35996 0.0
C2268 C 0.26413 0.06447 0.37681 0.0
C2269 C 0.28411 0.06474 0.37951 0.0
C2270 C 0.25775 0.08304 0.37737 0.0
C2271 C 0.25532 0.05351 0.38982 0.0
C2272 C 0.24534 0.03957 0.38162 0.0
C2273 C 0.23636 0.0274 0.39104 0.0
C2274 C 0.23767 0.02955 0.40932 0.0
C2275 C 0.24789 0.04374 0.41799 0.0
C2276 C 0.25669 0.0559 0.40799 0.0
H2277 H 0.28379 0.96454 0.74172 0.0
H2278 H 0.3034 0.01742 0.73443 0.0
H2279 H 0.31629 0.01994 0.76463 0.0
H2280 H 0.27107 0.97329 0.78491 0.0
H2281 H 0.27687 0.95252 0.79239 0.0
H2282 H 0.27042 0.95445 0.76977 0.0
H2283 H 0.29938 0.94196 0.76087 0.0
H2284 H 0.30593 0.94 0.78349 0.0
H2285 H 0.31981 0.95226 0.76993 0.0
H2286 H 0.32614 0.01697 0.79609 0.0
H2287 H 0.33178 0.00896 0.82641 0.0
H2288 H 0.30424 0.95859 0.81348 0.0
C2289 C 0.29094 0.97659 0.74644 0.0
C2290 C 0.29317 0.99055 0.7355 0.0
C2291 C 0.30232 0.00623 0.74224 0.0
C2292 C 0.30946 0.00788 0.75949 0.0
C2293 C 0.30715 0.99379 0.76987 0.0
C2294 C 0.29805 0.97847 0.76362 0.0
C2295 C 0.29677 0.96555 0.77764 0.0
C2296 C 0.27765 0.9612 0.7814 0.0
C2297 C 0.30602 0.94896 0.77268 0.0
C2298 C 0.30647 0.97603 0.7928 0.0
C2299 C 0.31242 0.99225 0.78806 0.0
C2300 C 0.32153 0.00431 0.79995 0.0
C2301 C 0.32457 0.99967 0.81718 0.0
C2302 C 0.31846 0.98314 0.82236 0.0
C2303 C 0.30934 0.97121 0.80991 0.0
H2304 H 0.63688 0.73374 0.40876 0.0
H2305 H 0.65856 0.69857 0.44509 0.0
H2306 H 0.62885 0.68784 0.45129 0.0
H2307 H 0.60155 0.74564 0.43412 0.0
H2308 H 0.58638 0.74678 0.41555 0.0
H2309 H 0.60936 0.75103 0.41336 0.0
H2310 H 0.60846 0.72705 0.38818 0.0
H2311 H 0.58546 0.72273 0.39028 0.0
H2312 H 0.6 0.70528 0.39172 0.0
H2313 H 0.59668 0.68164 0.45417 0.0
H2314 H 0.56449 0.68012 0.45318 0.0
H2315 H 0.56395 0.72001 0.41559 0.0
C2316 C 0.63536 0.72369 0.41793 0.0
C2317 C 0.65001 0.71659 0.42605 0.0
C2318 C 0.64753 0.70364 0.43815 0.0
C2319 C 0.6307 0.69764 0.44193 0.0
C2320 C 0.61651 0.70483 0.43359 0.0
C2321 C 0.61867 0.71757 0.42185 0.0
C2322 C 0.6013 0.7234 0.41491 0.0
C2323 C 0.59955 0.74287 0.41978 0.0
C2324 C 0.59865 0.71937 0.3951 0.0
C2325 C 0.58902 0.71201 0.42466 0.0
C2326 C 0.59804 0.70139 0.43538 0.0
C2327 C 0.58948 0.68989 0.44582 0.0
C2328 C 0.57121 0.6892 0.44525 0.0
C2329 C 0.5617 0.69994 0.43431 0.0
C2330 C 0.57081 0.71147 0.42391 0.0
H2331 H 0.7324 0.28099 0.00493 0.0
H2332 H 0.71053 0.25046 0.95884 0.0
H2333 H 0.73774 0.25646 0.94416 0.0
H2334 H 0.75677 0.31439 0.98186 0.0
H2335 H 0.7749 0.31593 0.9979 0.0
H2336 H 0.75322 0.3104 0.00426 0.0
H2337 H 0.76384 0.28229 0.01716 0.0
H2338 H 0.78554 0.28764 0.01083 0.0
H2339 H 0.77458 0.26693 0.00355 0.0
H2340 H 0.76777 0.26425 0.93522 0.0
H2341 H 0.7989 0.27258 0.93286 0.0
H2342 H 0.80103 0.29876 0.98454 0.0
C2343 C 0.7331 0.2761 0.99154 0.0
C2344 C 0.71921 0.26565 0.98282 0.0
C2345 C 0.72099 0.25864 0.96565 0.0
C2346 C 0.73635 0.26203 0.9572 0.0
C2347 C 0.7498 0.27242 0.96613 0.0
C2348 C 0.74835 0.27936 0.98292 0.0
C2349 C 0.76513 0.28918 0.99 0.0
C2350 C 0.76234 0.30863 0.99372 0.0
C2351 C 0.77272 0.28101 0.00635 0.0
C2352 C 0.77636 0.28636 0.9747 0.0
C2353 C 0.76721 0.27681 0.96102 0.0
C2354 C 0.77501 0.27194 0.94575 0.0
C2355 C 0.79269 0.27682 0.9445 0.0
C2356 C 0.80242 0.28642 0.95846 0.0
C2357 C 0.794 0.29138 0.97366 0.0
H2358 H 0.24391 0.7523 0.60527 0.0
H2359 H 0.25569 0.80622 0.62386 0.0
H2360 H 0.22752 0.81405 0.61072 0.0
H2361 H 0.21886 0.76039 0.56451 0.0
H2362 H 0.20323 0.74243 0.56677 0.0
H2363 H 0.2254 0.7415 0.57541 0.0
H2364 H 0.21441 0.73591 0.6059 0.0
H2365 H 0.19226 0.73678 0.59736 0.0
H2366 H 0.20037 0.75102 0.61585 0.0
H2367 H 0.19699 0.81557 0.59788 0.0
H2368 H 0.16608 0.81044 0.58737 0.0
H2369 H 0.17358 0.75525 0.57856 0.0
C2370 C 0.24071 0.76582 0.60626 0.0
C2371 C 0.25237 0.77879 0.61493 0.0
C2372 C 0.24749 0.79624 0.61641 0.0
C2373 C 0.23136 0.80078 0.60918 0.0
C2374 C 0.22018 0.78767 0.60067 0.0
C2375 C 0.22462 0.77053 0.59924 0.0
C2376 C 0.20969 0.75868 0.59084 0.0
C2377 C 0.21459 0.75026 0.57334 0.0
C2378 C 0.20384 0.74479 0.60323 0.0
C2379 C 0.196 0.77177 0.58816 0.0
C2380 C 0.20238 0.78845 0.59371 0.0
C2381 C 0.19189 0.80258 0.59336 0.0
C2382 C 0.17434 0.79953 0.58746 0.0
C2383 C 0.16742 0.78246 0.58211 0.0
C2384 C 0.17854 0.7685 0.58221 0.0
H2385 H 0.33007 0.2267 0.0425 0.0
H2386 H 0.32274 0.26424 0.00331 0.0
H2387 H 0.35302 0.26132 0.9951 0.0
H2388 H 0.37106 0.24186 0.05728 0.0
H2389 H 0.37957 0.22099 0.06103 0.0
H2390 H 0.35659 0.22362 0.0618 0.0
H2391 H 0.35001 0.19824 0.03828 0.0
H2392 H 0.37303 0.19538 0.03756 0.0
H2393 H 0.36026 0.19889 0.01785 0.0
H2394 H 0.38476 0.25717 0.99371 0.0
H2395 H 0.4159 0.25285 0.9998 0.0
H2396 H 0.40263 0.21738 0.0395 0.0
C2397 C 0.33458 0.23368 0.03166 0.0
C2398 C 0.32396 0.24534 0.0232 0.0
C2399 C 0.33066 0.25508 0.00979 0.0
C2400 C 0.34779 0.25343 0.00498 0.0
C2401 C 0.35803 0.24199 0.01373 0.0
C2402 C 0.35167 0.23221 0.02675 0.0
C2403 C 0.3659 0.22231 0.03538 0.0
C2404 C 0.36842 0.22752 0.05503 0.0
C2405 C 0.36207 0.20253 0.03206 0.0
C2406 C 0.3814 0.22865 0.02571 0.0
C2407 C 0.37651 0.23972 0.01306 0.0
C2408 C 0.38871 0.24823 0.00333 0.0
C2409 C 0.40639 0.24563 0.00684 0.0
C2410 C 0.41177 0.23468 0.02006 0.0
C2411 C 0.39898 0.22582 0.02931 0.0
H2412 H 0.41519 0.61913 0.72156 0.0
H2413 H 0.46519 0.6399 0.70605 0.0
H2414 H 0.47506 0.61005 0.70267 0.0
H2415 H 0.43189 0.58195 0.74495 0.0
H2416 H 0.41326 0.56771 0.73728 0.0
H2417 H 0.411 0.59081 0.74079 0.0
H2418 H 0.39835 0.59183 0.70895 0.0
H2419 H 0.40068 0.56882 0.70529 0.0
H2420 H 0.41075 0.58392 0.69131 0.0
H2421 H 0.47832 0.57799 0.69782 0.0
H2422 H 0.47472 0.54611 0.69187 0.0
H2423 H 0.42276 0.54614 0.71091 0.0
C2424 C 0.42837 0.61745 0.71787 0.0
C2425 C 0.43944 0.63189 0.71415 0.0
C2426 C 0.45648 0.62907 0.70903 0.0
C2427 C 0.46223 0.61216 0.70712 0.0
C2428 C 0.45083 0.59819 0.71046 0.0
C2429 C 0.43429 0.60066 0.71584 0.0
C2430 C 0.42411 0.58341 0.71723 0.0
C2431 C 0.41982 0.58082 0.73619 0.0
C2432 C 0.4075 0.58192 0.70496 0.0
C2433 C 0.4373 0.57088 0.71123 0.0
C2434 C 0.4527 0.57966 0.70761 0.0
C2435 C 0.46643 0.57094 0.70091 0.0
C2436 C 0.46429 0.5528 0.69764 0.0
C2437 C 0.44849 0.54356 0.70098 0.0
C2438 C 0.43497 0.55279 0.70813 0.0
H2439 H 0.98787 0.74982 0.26077 0.0
H2440 H 0.97294 0.72402 0.30671 0.0
H2441 H 0.97148 0.75265 0.32262 0.0
H2442 H 0.01432 0.78575 0.28324 0.0
H2443 H 0.00721 0.80148 0.26834 0.0
H2444 H 0.0079 0.77892 0.26087 0.0
H2445 H 0.9753 0.7782 0.2502 0.0
H2446 H 0.97451 0.80074 0.25762 0.0
H2447 H 0.95944 0.78454 0.26529 0.0
H2448 H 0.97058 0.78413 0.33312 0.0
H2449 H 0.97038 0.81618 0.3375 0.0
H2450 H 0.98531 0.82142 0.28448 0.0
C2451 C 0.98442 0.75023 0.27422 0.0
C2452 C 0.98104 0.73473 0.28271 0.0
C2453 C 0.97632 0.73573 0.30022 0.0
C2454 C 0.97525 0.75193 0.30928 0.0
C2455 C 0.97884 0.76699 0.30059 0.0
C2456 C 0.98332 0.76629 0.28345 0.0
C2457 C 0.9861 0.78438 0.27698 0.0
C2458 C 0.00501 0.78783 0.27207 0.0
C2459 C 0.97306 0.78712 0.26162 0.0
C2460 C 0.98235 0.79538 0.29312 0.0
C2461 C 0.97819 0.78511 0.3066 0.0
C2462 C 0.97385 0.79231 0.32267 0.0
C2463 C 0.97368 0.81051 0.32501 0.0
C2464 C 0.97785 0.82128 0.31134 0.0
C2465 C 0.98231 0.81354 0.29525 0.0
H2466 H 0.59708 0.2811 0.75622 0.0
H2467 H 0.62232 0.29385 0.80759 0.0
H2468 H 0.61676 0.26336 0.81518 0.0
H2469 H 0.56361 0.25036 0.76928 0.0
H2470 H 0.56452 0.23586 0.75015 0.0
H2471 H 0.56984 0.25886 0.74906 0.0
H2472 H 0.5999 0.25225 0.73761 0.0
H2473 H 0.59465 0.22924 0.73862 0.0
H2474 H 0.61419 0.23918 0.74999 0.0
H2475 H 0.60931 0.23123 0.81675 0.0
H2476 H 0.60063 0.19978 0.81215 0.0
H2477 H 0.58074 0.20796 0.75954 0.0
C2478 C 0.60134 0.27746 0.76909 0.0
C2479 C 0.60966 0.28991 0.78152 0.0
C2480 C 0.61527 0.28467 0.79815 0.0
C2481 C 0.61235 0.26734 0.80249 0.0
C2482 C 0.6039 0.25542 0.79001 0.0
C2483 C 0.5985 0.26024 0.77364 0.0
C2484 C 0.59008 0.24483 0.76247 0.0
C2485 C 0.57087 0.24765 0.75745 0.0
C2486 C 0.60032 0.24116 0.74622 0.0
C2487 C 0.59171 0.23055 0.77506 0.0
C2488 C 0.5997 0.23692 0.79088 0.0
C2489 C 0.603 0.2261 0.80443 0.0
C2490 C 0.5981 0.20826 0.80167 0.0
C2491 C 0.58998 0.20145 0.78552 0.0
C2492 C 0.58667 0.21283 0.77213 0.0
H2493 H 0.01854 0.35485 0.23067 0.0
H2494 H 0.98334 0.34688 0.27195 0.0
H2495 H 0.99109 0.37689 0.28415 0.0
H2496 H 0.05199 0.38212 0.25691 0.0
H2497 H 0.05638 0.39594 0.23937 0.0
H2498 H 0.049 0.37343 0.2346 0.0
H2499 H 0.02326 0.38293 0.21489 0.0
H2500 H 0.03054 0.40545 0.2196 0.0
H2501 H 0.00861 0.39809 0.22375 0.0
H2502 H 0.00138 0.40826 0.29087 0.0
H2503 H 0.01353 0.43875 0.29164 0.0
H2504 H 0.04167 0.42623 0.24577 0.0
C2505 C 0.01261 0.35931 0.24241 0.0
C2506 C 0.00036 0.34847 0.25037 0.0
C2507 C 0.99278 0.35491 0.26562 0.0
C2508 C 0.99712 0.37193 0.27267 0.0
C2509 C 0.00908 0.38233 0.26436 0.0
C2510 C 0.01676 0.37625 0.2496 0.0
C2511 C 0.02863 0.3903 0.24272 0.0
C2512 C 0.04763 0.38514 0.24345 0.0
C2513 C 0.02238 0.39443 0.22414 0.0
C2514 C 0.02621 0.40531 0.25576 0.0
C2515 C 0.01497 0.40042 0.26821 0.0
C2516 C 0.01027 0.41222 0.28126 0.0
C2517 C 0.01714 0.42952 0.28152 0.0
C2518 C 0.02856 0.43486 0.26879 0.0
C2519 C 0.03322 0.42249 0.25586 0.0
H2520 H 0.34093 0.56975 0.2978 0.0
H2521 H 0.34774 0.6246 0.31497 0.0
H2522 H 0.3783 0.62511 0.30679 0.0
H2523 H 0.38078 0.55784 0.31438 0.0
H2524 H 0.38445 0.54244 0.29662 0.0
H2525 H 0.36256 0.54692 0.30156 0.0
H2526 H 0.35596 0.5554 0.26986 0.0
H2527 H 0.37782 0.55077 0.26475 0.0
H2528 H 0.36984 0.57184 0.2609 0.0
H2529 H 0.40912 0.61858 0.30026 0.0
H2530 H 0.43713 0.60592 0.29465 0.0
H2531 H 0.40973 0.55563 0.28086 0.0
C2532 C 0.34871 0.58198 0.29952 0.0
C2533 C 0.34192 0.59713 0.30703 0.0
C2534 C 0.35262 0.61283 0.30919 0.0
C2535 C 0.37001 0.61324 0.3046 0.0
C2536 C 0.37645 0.59791 0.29773 0.0
C2537 C 0.36604 0.58263 0.29499 0.0
C2538 C 0.37631 0.56769 0.28841 0.0
C2539 C 0.376 0.55286 0.301 0.0
C2540 C 0.36958 0.56104 0.26988 0.0
C2541 C 0.39426 0.57678 0.28847 0.0
C2542 C 0.39408 0.59424 0.29372 0.0
C2543 C 0.40935 0.605 0.2958 0.0
C2544 C 0.42521 0.59769 0.29252 0.0
C2545 C 0.4257 0.57976 0.28726 0.0
C2546 C 0.4099 0.56933 0.28499 0.0
H2547 H 0.14872 0.38708 0.71713 0.0
H2548 H 0.16888 0.39637 0.66678 0.0
H2549 H 0.14011 0.40567 0.65638 0.0
H2550 H 0.10375 0.37192 0.70085 0.0
H2551 H 0.09439 0.38276 0.71913 0.0
H2552 H 0.11579 0.3746 0.72173 0.0
H2553 H 0.12836 0.40537 0.73329 0.0
H2554 H 0.10707 0.41362 0.73068 0.0
H2555 H 0.12504 0.42371 0.7202 0.0
H2556 H 0.11021 0.41718 0.6527 0.0
H2557 H 0.08159 0.4296 0.65597 0.0
H2558 H 0.08136 0.41288 0.7088 0.0
C2559 C 0.14701 0.39068 0.70377 0.0
C2560 C 0.16104 0.39094 0.69275 0.0
C2561 C 0.1583 0.39599 0.67544 0.0
C2562 C 0.14199 0.40126 0.66941 0.0
C2563 C 0.12856 0.40128 0.68079 0.0
C2564 C 0.13088 0.39599 0.69757 0.0
C2565 C 0.11485 0.3985 0.7077 0.0
C2566 C 0.10671 0.3809 0.71264 0.0
C2567 C 0.11909 0.41105 0.72391 0.0
C2568 C 0.10333 0.40656 0.69418 0.0
C2569 C 0.11137 0.40788 0.67867 0.0
C2570 C 0.1037 0.41598 0.66469 0.0
C2571 C 0.08751 0.42307 0.66669 0.0
C2572 C 0.0792 0.42208 0.68258 0.0
C2573 C 0.08717 0.41346 0.69635 0.0
H2574 H 0.8322 0.00701 0.70845 0.0
H2575 H 0.82888 0.06303 0.7159 0.0
H2576 H 0.8606 0.06637 0.72336 0.0
H2577 H 0.86724 0.00269 0.74293 0.0
H2578 H 0.87717 0.98626 0.72987 0.0
H2579 H 0.85394 0.98816 0.72767 0.0
H2580 H 0.85581 0.9914 0.69449 0.0
H2581 H 0.879 0.98966 0.69659 0.0
H2582 H 0.8702 0.00837 0.68708 0.0
H2583 H 0.89326 0.0638 0.72672 0.0
H2584 H 0.92376 0.05546 0.72547 0.0
H2585 H 0.90526 0.00123 0.71588 0.0
C2586 C 0.83802 0.01996 0.71207 0.0
C2587 C 0.82802 0.03475 0.71165 0.0
C2588 C 0.83625 0.05148 0.7162 0.0
C2589 C 0.85427 0.05352 0.72049 0.0
C2590 C 0.86383 0.03868 0.72028 0.0
C2591 C 0.85594 0.02221 0.71631 0.0
C2592 C 0.86921 0.00851 0.71553 0.0
C2593 C 0.86674 0.99565 0.72986 0.0
C2594 C 0.86851 0.99893 0.69734 0.0
C2595 C 0.88586 0.01989 0.71911 0.0
C2596 C 0.88254 0.03722 0.72207 0.0
C2597 C 0.896 0.05023 0.72468 0.0
C2598 C 0.91327 0.04538 0.724 0.0
C2599 C 0.91687 0.02771 0.72054 0.0
C2600 C 0.90293 0.01485 0.71843 0.0
H2601 H 0.65245 0.01378 0.27452 0.0
H2602 H 0.68398 0.96882 0.27536 0.0
H2603 H 0.65747 0.94933 0.26959 0.0
H2604 H 0.6167 0.99494 0.29604 0.0
H2605 H 0.60022 0.00489 0.28306 0.0
H2606 H 0.62171 0.01547 0.28676 0.0
H2607 H 0.62444 0.01625 0.25342 0.0
H2608 H 0.60293 0.00572 0.24962 0.0
H2609 H 0.62119 0.99626 0.23989 0.0
H2610 H 0.6277 0.93466 0.26455 0.0
H2611 H 0.59645 0.92567 0.26015 0.0
H2612 H 0.58402 0.98003 0.2621 0.0
C2613 C 0.6538 0.99984 0.27341 0.0
C2614 C 0.67033 0.99285 0.27541 0.0
C2615 C 0.67149 0.97451 0.27389 0.0
C2616 C 0.6565 0.96332 0.27061 0.0
C2617 C 0.64043 0.97063 0.26884 0.0
C2618 C 0.63895 0.98845 0.27013 0.0
C2619 C 0.62005 0.99288 0.2679 0.0
C2620 C 0.61434 0.00262 0.28443 0.0
C2621 C 0.61698 0.0034 0.25174 0.0
C2622 C 0.61115 0.97475 0.26528 0.0
C2623 C 0.62318 0.96213 0.26584 0.0
C2624 C 0.61816 0.94442 0.26394 0.0
C2625 C 0.60037 0.93945 0.26134 0.0
C2626 C 0.58775 0.95213 0.26062 0.0
C2627 C 0.5933 0.97002 0.26268 0.0
H2628 H 0.32317 0.35168 0.57508 0.0
H2629 H 0.296 0.34168 0.62164 0.0
H2630 H 0.28311 0.37038 0.62028 0.0
H2631 H 0.33344 0.3972 0.58463 0.0
H2632 H 0.32993 0.40267 0.56231 0.0
H2633 H 0.33692 0.38147 0.56711 0.0
H2634 H 0.31041 0.36681 0.54841 0.0
H2635 H 0.30333 0.38794 0.54346 0.0
H2636 H 0.28874 0.37258 0.55306 0.0
H2637 H 0.27383 0.40089 0.61389 0.0
H2638 H 0.26767 0.42933 0.60203 0.0
H2639 H 0.30089 0.41831 0.55967 0.0
C2640 C 0.31455 0.35548 0.58506 0.0
C2641 C 0.31061 0.34444 0.59848 0.0
C2642 C 0.29917 0.34992 0.6112 0.0
C2643 C 0.29184 0.36621 0.61056 0.0
C2644 C 0.29606 0.37678 0.59712 0.0
C2645 C 0.30711 0.37155 0.58457 0.0
C2646 C 0.30941 0.38503 0.57126 0.0
C2647 C 0.32855 0.392 0.57135 0.0
C2648 C 0.30256 0.37765 0.55297 0.0
C2649 C 0.29801 0.39877 0.57827 0.0
C2650 C 0.29041 0.39388 0.59321 0.0
C2651 C 0.27957 0.40475 0.60209 0.0
C2652 C 0.27624 0.42091 0.59534 0.0
C2653 C 0.28365 0.42593 0.57982 0.0
C2654 C 0.29477 0.4147 0.57136 0.0
H2655 H 0.28353 0.64945 0.00275 0.0
H2656 H 0.32065 0.6774 0.97255 0.0
H2657 H 0.32719 0.64957 0.95735 0.0
H2658 H 0.3079 0.61024 0.00709 0.0
H2659 H 0.2884 0.59594 0.00508 0.0
H2660 H 0.28775 0.61788 0.01446 0.0
H2661 H 0.26286 0.62359 0.99177 0.0
H2662 H 0.2635 0.60174 0.98226 0.0
H2663 H 0.26609 0.62004 0.96886 0.0
H2664 H 0.32801 0.61888 0.94398 0.0
H2665 H 0.32332 0.58789 0.93371 0.0
H2666 H 0.28609 0.58008 0.9732 0.0
C2667 C 0.29322 0.64974 0.99312 0.0
C2668 C 0.3016 0.66563 0.98886 0.0
C2669 C 0.3141 0.6654 0.97607 0.0
C2670 C 0.31791 0.64965 0.96738 0.0
C2671 C 0.30918 0.63425 0.9717 0.0
C2672 C 0.29718 0.63418 0.98435 0.0
C2673 C 0.28904 0.61602 0.98607 0.0
C2674 C 0.29355 0.60965 0.00426 0.0
C2675 C 0.2692 0.61532 0.98199 0.0
C2676 C 0.29805 0.60592 0.97214 0.0
C2677 C 0.30971 0.61662 0.96408 0.0
C2678 C 0.31908 0.61033 0.95036 0.0
C2679 C 0.31639 0.59266 0.94468 0.0
C2680 C 0.30439 0.58145 0.95268 0.0
C2681 C 0.29526 0.58826 0.9667 0.0
H2682 H 0.74386 0.14572 0.38253 0.0
H2683 H 0.69558 0.17213 0.38266 0.0
H2684 H 0.68035 0.14547 0.3922 0.0
H2685 H 0.72462 0.10231 0.36752 0.0
H2686 H 0.73962 0.0914 0.38136 0.0
H2687 H 0.74626 0.11202 0.37308 0.0
H2688 H 0.7543 0.12483 0.40461 0.0
H2689 H 0.74771 0.1043 0.41298 0.0
H2690 H 0.73813 0.12393 0.42059 0.0
H2691 H 0.671 0.11657 0.40394 0.0
H2692 H 0.66833 0.08792 0.41685 0.0
H2693 H 0.72287 0.08084 0.40907 0.0
C2694 C 0.73002 0.14587 0.3843 0.0
C2695 C 0.7209 0.16102 0.3818 0.0
C2696 C 0.70283 0.16066 0.38444 0.0
C2697 C 0.69407 0.14557 0.38983 0.0
C2698 C 0.70354 0.13094 0.39242 0.0
C2699 C 0.72111 0.13097 0.38966 0.0
C2700 C 0.72855 0.11394 0.39427 0.0
C2701 C 0.73515 0.10435 0.37809 0.0
C2702 C 0.74302 0.11694 0.40898 0.0
C2703 C 0.71252 0.10442 0.4004 0.0
C2704 C 0.69818 0.11437 0.39912 0.0
C2705 C 0.68211 0.10861 0.40484 0.0
C2706 C 0.68074 0.09237 0.41223 0.0
C2707 C 0.69536 0.0821 0.41387 0.0
C2708 C 0.71136 0.08819 0.40764 0.0
H2709 H 0.66244 0.83564 0.01737 0.0
H2710 H 0.7124 0.82586 0.99659 0.0
H2711 H 0.72297 0.85626 0.00542 0.0
H2712 H 0.6603 0.87994 0.00473 0.0
H2713 H 0.65039 0.8872 0.02429 0.0
H2714 H 0.64668 0.86489 0.01583 0.0
H2715 H 0.65792 0.85424 0.04554 0.0
H2716 H 0.66162 0.8765 0.0541 0.0
H2717 H 0.67921 0.86206 0.05475 0.0
H2718 H 0.72813 0.8878 0.0171 0.0
H2719 H 0.72788 0.91723 0.03179 0.0
H2720 H 0.67443 0.90598 0.04462 0.0
C2721 C 0.6756 0.83986 0.01458 0.0
C2722 C 0.68658 0.82836 0.00625 0.0
C2723 C 0.70374 0.83443 0.00297 0.0
C2724 C 0.70984 0.85169 0.00789 0.0
C2725 C 0.69863 0.86268 0.01606 0.0
C2726 C 0.68188 0.85696 0.01943 0.0
C2727 C 0.67256 0.87113 0.02883 0.0
C2728 C 0.65654 0.87608 0.01775 0.0
C2729 C 0.66754 0.86565 0.04687 0.0
C2730 C 0.6867 0.88571 0.03039 0.0
C2731 C 0.70161 0.88066 0.02284 0.0
C2732 C 0.71649 0.89191 0.02297 0.0
C2733 C 0.71619 0.90864 0.03124 0.0
C2734 C 0.70114 0.91392 0.03935 0.0
C2735 C 0.68618 0.9023 0.03867 0.0
H2736 H 0.54912 0.30038 0.34297 0.0
H2737 H 0.60549 0.30421 0.3419 0.0
H2738 H 0.608 0.2967 0.37269 0.0
H2739 H 0.54683 0.32022 0.38433 0.0
H2740 H 0.52872 0.30644 0.3904 0.0
H2741 H 0.5313 0.31009 0.36781 0.0
H2742 H 0.53111 0.27677 0.36054 0.0
H2743 H 0.52835 0.27298 0.38312 0.0
H2744 H 0.54627 0.26407 0.37229 0.0
H2745 H 0.60427 0.29178 0.40451 0.0
H2746 H 0.5946 0.28897 0.43431 0.0
H2747 H 0.54069 0.28757 0.41406 0.0
C2748 C 0.562 0.29932 0.34907 0.0
C2749 C 0.57711 0.30287 0.34 0.0
C2750 C 0.59372 0.30147 0.34855 0.0
C2751 C 0.59528 0.29721 0.36605 0.0
C2752 C 0.58011 0.29424 0.37474 0.0
C2753 C 0.56379 0.29505 0.36646 0.0
C2754 C 0.54953 0.29223 0.3789 0.0
C2755 C 0.53845 0.3082 0.38045 0.0
C2756 C 0.53815 0.27551 0.37338 0.0
C2757 C 0.56037 0.29022 0.3956 0.0
C2758 C 0.57798 0.29127 0.39295 0.0
C2759 C 0.59051 0.29065 0.40668 0.0
C2760 C 0.58488 0.28899 0.42357 0.0
C2761 C 0.56687 0.28803 0.42659 0.0
C2762 C 0.55454 0.28844 0.41229 0.0
H2763 H 0.99728 0.25221 0.65876 0.0
H2764 H 0.95692 0.28594 0.67425 0.0
H2765 H 0.95367 0.29537 0.64409 0.0
H2766 H 0.0168 0.2807 0.62805 0.0
H2767 H 0.02097 0.26272 0.61311 0.0
H2768 H 0.02084 0.2597 0.63614 0.0
H2769 H 0.99747 0.23408 0.63004 0.0
H2770 H 0.99749 0.23705 0.60704 0.0
H2771 H 0.9774 0.23762 0.61789 0.0
H2772 H 0.95371 0.29959 0.61154 0.0
H2773 H 0.95752 0.29873 0.57978 0.0
H2774 H 0.99757 0.26186 0.58623 0.0
C2775 C 0.9879 0.26176 0.65592 0.0
C2776 C 0.97738 0.26836 0.66889 0.0
C2777 C 0.96518 0.28074 0.66454 0.0
C2778 C 0.96324 0.28617 0.64745 0.0
C2779 C 0.97365 0.27914 0.63492 0.0
C2780 C 0.9858 0.26727 0.63901 0.0
C2781 C 0.99493 0.2611 0.62313 0.0
C2782 C 0.01455 0.26638 0.62524 0.0
C2783 C 0.99161 0.24129 0.6193 0.0
C2784 C 0.98587 0.27116 0.60937 0.0
C2785 C 0.97368 0.28156 0.61637 0.0
C2786 C 0.96332 0.29158 0.60595 0.0
C2787 C 0.96549 0.29093 0.58793 0.0
C2788 C 0.97792 0.28032 0.58053 0.0
C2789 C 0.98822 0.27039 0.5915 0.0
H2790 H 0.43938 0.69746 0.143 0.0
H2791 H 0.38579 0.67696 0.14425 0.0
H2792 H 0.38349 0.67395 0.11196 0.0
H2793 H 0.43303 0.72295 0.10703 0.0
H2794 H 0.45363 0.71875 0.09817 0.0
H2795 H 0.45132 0.71812 0.12126 0.0
H2796 H 0.4617 0.68665 0.12058 0.0
H2797 H 0.4642 0.68724 0.0975 0.0
H2798 H 0.45067 0.67005 0.10572 0.0
H2799 H 0.38692 0.67468 0.07915 0.0
H2800 H 0.39587 0.67866 0.04917 0.0
H2801 H 0.44719 0.69847 0.07024 0.0
C2802 C 0.42719 0.69214 0.13655 0.0
C2803 C 0.41277 0.68742 0.14617 0.0
C2804 C 0.39704 0.6806 0.13715 0.0
C2805 C 0.39561 0.67887 0.11882 0.0
C2806 C 0.41004 0.68394 0.10975 0.0
C2807 C 0.42555 0.69034 0.11837 0.0
C2808 C 0.43902 0.69539 0.10575 0.0
C2809 C 0.44457 0.71496 0.1082 0.0
C2810 C 0.45483 0.68416 0.10749 0.0
C2811 C 0.42862 0.6911 0.08863 0.0
C2812 C 0.41196 0.68442 0.09112 0.0
C2813 C 0.39997 0.67979 0.07708 0.0
C2814 C 0.40518 0.68205 0.06011 0.0
C2815 C 0.42219 0.68898 0.05734 0.0
C2816 C 0.434 0.69342 0.07188 0.0
H2817 H 0.01846 0.69039 0.84198 0.0
H2818 H 0.97674 0.72527 0.83453 0.0
H2819 H 0.98198 0.73686 0.8652 0.0
H2820 H 0.00995 0.68024 0.88559 0.0
H2821 H 0.03267 0.67975 0.89253 0.0
H2822 H 0.02557 0.67432 0.87006 0.0
H2823 H 0.04759 0.69807 0.86034 0.0
H2824 H 0.05481 0.70352 0.88277 0.0
H2825 H 0.04708 0.7202 0.8693 0.0
H2826 H 0.99186 0.74437 0.89707 0.0
H2827 H 0.00638 0.74805 0.92675 0.0
H2828 H 0.04131 0.70801 0.91274 0.0
C2829 C 0.01041 0.70048 0.84674 0.0
C2830 C 0.99717 0.70691 0.83585 0.0
C2831 C 0.98698 0.72016 0.84263 0.0
C2832 C 0.98983 0.72679 0.86004 0.0
C2833 C 0.00293 0.72004 0.87045 0.0
C2834 C 0.01309 0.70724 0.86399 0.0
C2835 C 0.02645 0.70226 0.87771 0.0
C2836 C 0.02347 0.683 0.88171 0.0
C2837 C 0.04508 0.70626 0.8722 0.0
C2838 C 0.02228 0.71429 0.89292 0.0
C2839 C 0.00863 0.7244 0.88857 0.0
C2840 C 0.00255 0.7365 0.90061 0.0
C2841 C 0.0108 0.73843 0.91745 0.0
C2842 C 0.02502 0.72837 0.92204 0.0
C2843 C 0.03063 0.71605 0.90958 0.0
H2844 H 0.63778 0.41206 0.64965 0.0
H2845 H 0.6405 0.37528 0.69019 0.0
H2846 H 0.60908 0.37751 0.69405 0.0
H2847 H 0.60973 0.43983 0.67024 0.0
H2848 H 0.59774 0.44468 0.65048 0.0
H2849 H 0.62001 0.43893 0.64978 0.0
H2850 H 0.61064 0.41381 0.6266 0.0
H2851 H 0.5883 0.41947 0.62721 0.0
H2852 H 0.59396 0.39759 0.63118 0.0
H2853 H 0.57766 0.38474 0.69437 0.0
H2854 H 0.54917 0.39796 0.69248 0.0
H2855 H 0.5672 0.43016 0.65192 0.0
C2856 C 0.63173 0.40424 0.65915 0.0
C2857 C 0.64156 0.39334 0.66949 0.0
C2858 C 0.63317 0.38349 0.68192 0.0
C2859 C 0.61534 0.38469 0.68423 0.0
C2860 C 0.60606 0.39567 0.6739 0.0
C2861 C 0.61397 0.40526 0.6616 0.0
C2862 C 0.60134 0.41686 0.65288 0.0
C2863 C 0.60758 0.43621 0.65604 0.0
C2864 C 0.59839 0.41162 0.63331 0.0
C2865 C 0.58519 0.41259 0.66248 0.0
C2866 C 0.58809 0.40013 0.67436 0.0
C2867 C 0.5752 0.39444 0.68505 0.0
C2868 C 0.55904 0.40194 0.68382 0.0
C2869 C 0.55598 0.4151 0.67207 0.0
C2870 C 0.56919 0.42022 0.66111 0.0
H2871 H 0.85874 0.58417 0.25892 0.0
H2872 H 0.87091 0.63321 0.28918 0.0
H2873 H 0.90222 0.62775 0.28976 0.0
H2874 H 0.88946 0.56001 0.28121 0.0
H2875 H 0.89497 0.54735 0.26209 0.0
H2876 H 0.87369 0.55573 0.26299 0.0
H2877 H 0.87817 0.57118 0.23441 0.0
H2878 H 0.89947 0.56281 0.2334 0.0
H2879 H 0.89704 0.58594 0.23306 0.0
H2880 H 0.93213 0.6161 0.28836 0.0
H2881 H 0.95807 0.59894 0.28549 0.0
H2882 H 0.92619 0.55784 0.25582 0.0
C2883 C 0.86798 0.59387 0.26552 0.0
C2884 C 0.86236 0.60914 0.27398 0.0
C2885 C 0.8749 0.62142 0.28258 0.0
C2886 C 0.89272 0.61846 0.28295 0.0
C2887 C 0.89779 0.60318 0.27462 0.0
C2888 C 0.88579 0.59111 0.26603 0.0
C2889 C 0.89452 0.57541 0.25873 0.0
C2890 C 0.88776 0.55864 0.26674 0.0
C2891 C 0.89216 0.57375 0.23871 0.0
C2892 C 0.91328 0.58037 0.26482 0.0
C2893 C 0.91495 0.59649 0.27384 0.0
C2894 C 0.931 0.60353 0.28117 0.0
C2895 C 0.94568 0.59373 0.2794 0.0
C2896 C 0.94419 0.57704 0.27044 0.0
C2897 C 0.92776 0.57047 0.26289 0.0
H2898 H 0.17344 0.98851 0.32421 0.0
H2899 H 0.16367 0.02564 0.28496 0.0
H2900 H 0.13282 0.0147 0.28161 0.0
H2901 H 0.14598 0.95334 0.30375 0.0
H2902 H 0.13846 0.94577 0.32388 0.0
H2903 H 0.15967 0.95687 0.32361 0.0
H2904 H 0.15149 0.97944 0.34762 0.0
H2905 H 0.13026 0.96837 0.34799 0.0
H2906 H 0.13219 0.99128 0.3442 0.0
H2907 H 0.10312 0.99936 0.28214 0.0
H2908 H 0.07684 0.98044 0.28627 0.0
H2909 H 0.10598 0.95351 0.32529 0.0
C2910 C 0.16482 0.99441 0.31496 0.0
C2911 C 0.171 0.00795 0.30486 0.0
C2912 C 0.15926 0.01526 0.29286 0.0
C2913 C 0.1417 0.00915 0.29087 0.0
C2914 C 0.13606 0.99574 0.30098 0.0
C2915 C 0.14726 0.98847 0.3128 0.0
C2916 C 0.13796 0.97401 0.32186 0.0
C2917 C 0.146 0.95646 0.31804 0.0
C2918 C 0.13798 0.97855 0.34159 0.0
C2919 C 0.11983 0.97418 0.31318 0.0
C2920 C 0.11897 0.98687 0.30124 0.0
C2921 C 0.10361 0.98943 0.29152 0.0
C2922 C 0.08872 0.97869 0.29402 0.0
C2923 C 0.08933 0.96551 0.30611 0.0
C2924 C 0.10513 0.96334 0.31583 0.0
H2925 H 0.38231 0.02522 0.74253 0.0
H2926 H 0.3572 0.0592 0.70702 0.0
H2927 H 0.383 0.07993 0.71073 0.0
H2928 H 0.40322 0.0592 0.77204 0.0
H2929 H 0.42279 0.04785 0.77572 0.0
H2930 H 0.40229 0.0357 0.77039 0.0
H2931 H 0.41554 0.01965 0.74425 0.0
H2932 H 0.43609 0.03177 0.74948 0.0
H2933 H 0.42552 0.03218 0.728 0.0
H2934 H 0.41142 0.09695 0.71821 0.0
H2935 H 0.44085 0.10895 0.72864 0.0
H2936 H 0.44753 0.06398 0.75931 0.0
C2937 C 0.38221 0.03703 0.73555 0.0
C2938 C 0.3677 0.04058 0.72449 0.0
C2939 C 0.36814 0.05617 0.71555 0.0
C2940 C 0.38273 0.06804 0.71758 0.0
C2941 C 0.3968 0.06413 0.72856 0.0
C2942 C 0.39669 0.049 0.73737 0.0
C2943 C 0.41358 0.04787 0.74826 0.0
C2944 C 0.41027 0.04765 0.76776 0.0
C2945 C 0.42325 0.03192 0.74212 0.0
C2946 C 0.4232 0.06473 0.74417 0.0
C2947 C 0.41325 0.07393 0.73282 0.0
C2948 C 0.41931 0.0899 0.72715 0.0
C2949 C 0.436 0.09665 0.73322 0.0
C2950 C 0.44647 0.08745 0.74484 0.0
C2951 C 0.43991 0.07126 0.75033 0.0
H2952 H 0.68207 0.63001 0.4468 0.0
H2953 H 0.6422 0.62227 0.40433 0.0
H2954 H 0.639 0.59095 0.40969 0.0
H2955 H 0.70214 0.5894 0.43887 0.0
H2956 H 0.70638 0.58616 0.4617 0.0
H2957 H 0.7056 0.60792 0.4544 0.0
H2958 H 0.6819 0.61452 0.476 0.0
H2959 H 0.68258 0.59277 0.48334 0.0
H2960 H 0.66222 0.60053 0.4752 0.0
H2961 H 0.64001 0.56042 0.41988 0.0
H2962 H 0.645 0.53314 0.43429 0.0
H2963 H 0.68446 0.56091 0.46978 0.0
C2964 C 0.67268 0.62175 0.43859 0.0
C2965 C 0.66238 0.62863 0.42513 0.0
C2966 C 0.65023 0.61733 0.41472 0.0
C2967 C 0.64832 0.59951 0.41765 0.0
C2968 C 0.65866 0.59318 0.43104 0.0
C2969 C 0.6706 0.60396 0.44134 0.0
C2970 C 0.68004 0.59393 0.45494 0.0
C2971 C 0.6997 0.59438 0.45231 0.0
C2972 C 0.67646 0.60085 0.47346 0.0
C2973 C 0.6715 0.57583 0.45074 0.0
C2974 C 0.65924 0.57565 0.43689 0.0
C2975 C 0.64964 0.5604 0.4307 0.0
C2976 C 0.65263 0.54495 0.43891 0.0
C2977 C 0.66512 0.54484 0.45318 0.0
C2978 C 0.67466 0.56055 0.45906 0.0
H2979 H 0.71197 0.35869 0.05214 0.0
H2980 H 0.73788 0.3529 0.00372 0.0
H2981 H 0.74984 0.38346 0.00807 0.0
H2982 H 0.70009 0.40256 0.04744 0.0
H2983 H 0.70384 0.40893 0.07033 0.0
H2984 H 0.69751 0.38658 0.06346 0.0
H2985 H 0.72484 0.37656 0.08042 0.0
H2986 H 0.73126 0.39889 0.08734 0.0
H2987 H 0.7461 0.3857 0.076 0.0
H2988 H 0.75876 0.41486 0.01767 0.0
H2989 H 0.76423 0.44444 0.03194 0.0
H2990 H 0.73218 0.42956 0.07384 0.0
C2991 C 0.72018 0.3638 0.04244 0.0
C2992 C 0.72396 0.35338 0.02757 0.0
C2993 C 0.73477 0.36063 0.01521 0.0
C2994 C 0.74163 0.37797 0.01757 0.0
C2995 C 0.73758 0.38789 0.03235 0.0
C2996 C 0.72713 0.38106 0.04458 0.0
C2997 C 0.72468 0.39446 0.0593 0.0
C2998 C 0.70538 0.39836 0.06017 0.0
C2999 C 0.73217 0.38855 0.0768 0.0
C3000 C 0.73539 0.40992 0.05344 0.0
C3001 C 0.74272 0.40589 0.03786 0.0
C3002 C 0.75307 0.41816 0.02986 0.0
C3003 C 0.75601 0.43496 0.03801 0.0
C3004 C 0.74865 0.43935 0.05402 0.0
C3005 C 0.7382 0.42658 0.06175 0.0
H3006 H 0.25231 0.85733 0.57368 0.0
H3007 H 0.2962 0.86974 0.61126 0.0
H3008 H 0.29734 0.90027 0.60302 0.0
H3009 H 0.26765 0.884 0.54072 0.0
H3010 H 0.24636 0.89058 0.53391 0.0
H3011 H 0.24859 0.86984 0.5432 0.0
H3012 H 0.2272 0.8782 0.56663 0.0
H3013 H 0.2249 0.89898 0.55741 0.0
H3014 H 0.23163 0.89808 0.58015 0.0
H3015 H 0.29413 0.92932 0.59026 0.0
H3016 H 0.28721 0.95461 0.57341 0.0
H3017 H 0.24527 0.92331 0.54435 0.0
C3018 C 0.26212 0.86646 0.58025 0.0
C3019 C 0.27415 0.86112 0.59315 0.0
C3020 C 0.28683 0.8735 0.60135 0.0
C3021 C 0.28758 0.8909 0.59678 0.0
C3022 C 0.27555 0.89571 0.58399 0.0
C3023 C 0.26307 0.88386 0.57583 0.0
C3024 C 0.25194 0.8923 0.56222 0.0
C3025 C 0.25375 0.88366 0.54393 0.0
C3026 C 0.23278 0.89186 0.56689 0.0
C3027 C 0.2602 0.91071 0.56391 0.0
C3028 C 0.27373 0.91243 0.57661 0.0
C3029 C 0.28349 0.92816 0.58036 0.0
C3030 C 0.27938 0.94249 0.57079 0.0
C3031 C 0.26566 0.94099 0.55758 0.0
C3032 C 0.25592 0.92486 0.55425 0.0
H3033 H 0.33219 0.16174 0.98878 0.0
H3034 H 0.30623 0.14912 0.03541 0.0
H3035 H 0.30806 0.11773 0.02752 0.0
H3036 H 0.31077 0.12849 0.96108 0.0
H3037 H 0.32944 0.12403 0.94885 0.0
H3038 H 0.32756 0.14544 0.95899 0.0
H3039 H 0.35766 0.14386 0.97553 0.0
H3040 H 0.35967 0.12244 0.96538 0.0
H3041 H 0.36152 0.12577 0.9888 0.0
H3042 H 0.31083 0.08766 0.01336 0.0
H3043 H 0.31406 0.06147 0.99396 0.0
H3044 H 0.3386 0.09391 0.95693 0.0
C3045 C 0.32711 0.1524 0.99749 0.0
C3046 C 0.31909 0.15791 0.01274 0.0
C3047 C 0.31246 0.14523 0.02367 0.0
C3048 C 0.31347 0.12736 0.01932 0.0
C3049 C 0.32122 0.12239 0.00404 0.0
C3050 C 0.32799 0.13455 0.99334 0.0
C3051 C 0.33482 0.12583 0.9772 0.0
C3052 C 0.32506 0.13127 0.96055 0.0
C3053 C 0.35459 0.12971 0.97671 0.0
C3054 C 0.33049 0.10687 0.98029 0.0
C3055 C 0.3228 0.10512 0.99592 0.0
C3056 C 0.31703 0.08886 0.0012 0.0
C3057 C 0.319 0.07404 0.99013 0.0
C3058 C 0.32659 0.07559 0.97391 0.0
C3059 C 0.33261 0.09226 0.96915 0.0
H3060 H 0.44086 0.66726 0.63369 0.0
H3061 H 0.4239 0.71836 0.64921 0.0
H3062 H 0.42547 0.7269 0.61878 0.0
H3063 H 0.47179 0.68162 0.60496 0.0
H3064 H 0.46755 0.66319 0.58944 0.0
H3065 H 0.46385 0.66087 0.61207 0.0
H3066 H 0.43188 0.64965 0.6037 0.0
H3067 H 0.43549 0.65192 0.58101 0.0
H3068 H 0.418 0.66269 0.59083 0.0
H3069 H 0.43027 0.73006 0.58657 0.0
H3070 H 0.43868 0.72787 0.556 0.0
H3071 H 0.45235 0.67461 0.56223 0.0
C3072 C 0.43728 0.68021 0.63072 0.0
C3073 C 0.4322 0.69213 0.64384 0.0
C3074 C 0.42779 0.70899 0.63937 0.0
C3075 C 0.42861 0.71393 0.62211 0.0
C3076 C 0.43383 0.70186 0.60953 0.0
C3077 C 0.43808 0.68534 0.61367 0.0
C3078 C 0.44404 0.67499 0.59805 0.0
C3079 C 0.46293 0.66988 0.60133 0.0
C3080 C 0.43161 0.65886 0.59311 0.0
C3081 C 0.44276 0.68832 0.58447 0.0
C3082 C 0.43671 0.7037 0.59123 0.0
C3083 C 0.4349 0.71802 0.58113 0.0
C3084 C 0.43962 0.71663 0.56376 0.0
C3085 C 0.44619 0.70108 0.55673 0.0
C3086 C 0.44752 0.68673 0.56724 0.0
H3087 H 0.02337 0.72285 0.36305 0.0
H3088 H 0.98202 0.68462 0.37317 0.0
H3089 H 0.99049 0.68823 0.40465 0.0
H3090 H 0.05496 0.71002 0.39533 0.0
H3091 H 0.06348 0.732 0.40133 0.0
H3092 H 0.05419 0.72643 0.37956 0.0
H3093 H 0.03278 0.75098 0.38294 0.0
H3094 H 0.04202 0.75664 0.40471 0.0
H3095 H 0.01893 0.75137 0.40103 0.0
H3096 H 0.00352 0.69587 0.43502 0.0
H3097 H 0.02017 0.70706 0.46214 0.0
H3098 H 0.0526 0.74075 0.43229 0.0
C3099 C 0.0161 0.71521 0.37187 0.0
C3100 C 0.00203 0.70343 0.36561 0.0
C3101 C 0.99284 0.69373 0.37762 0.0
C3102 C 0.99755 0.69568 0.39554 0.0
C3103 C 0.01146 0.7074 0.40126 0.0
C3104 C 0.02059 0.71702 0.3898 0.0
C3105 C 0.03498 0.72878 0.39934 0.0
C3106 C 0.05297 0.72401 0.39354 0.0
C3107 C 0.03199 0.74809 0.39686 0.0
C3108 C 0.03253 0.72424 0.41796 0.0
C3109 C 0.01889 0.71189 0.41878 0.0
C3110 C 0.01418 0.70561 0.43455 0.0
C3111 C 0.02365 0.71213 0.44991 0.0
C3112 C 0.03767 0.72484 0.44941 0.0
C3113 C 0.04209 0.73092 0.43314 0.0
H3114 H 0.57523 0.29394 0.86055 0.0
H3115 H 0.62438 0.31641 0.88489 0.0
H3116 H 0.61517 0.30797 0.91358 0.0
H3117 H 0.54846 0.30719 0.89455 0.0
H3118 H 0.53448 0.28747 0.89249 0.0
H3119 H 0.54511 0.29492 0.87383 0.0
H3120 H 0.55886 0.26514 0.86962 0.0
H3121 H 0.54825 0.25758 0.88825 0.0
H3122 H 0.57155 0.25703 0.88747 0.0
H3123 H 0.60018 0.29785 0.93978 0.0
H3124 H 0.58063 0.28667 0.96142 0.0
H3125 H 0.54175 0.26998 0.91973 0.0
C3126 C 0.58409 0.29707 0.87189 0.0
C3127 C 0.60052 0.30587 0.87046 0.0
C3128 C 0.61173 0.30967 0.88564 0.0
C3129 C 0.60662 0.30493 0.902 0.0
C3130 C 0.59031 0.29631 0.90295 0.0
C3131 C 0.57924 0.29236 0.88829 0.0
C3132 C 0.56236 0.28313 0.89286 0.0
C3133 C 0.54668 0.29382 0.88815 0.0
C3134 C 0.56013 0.26462 0.88403 0.0
C3135 C 0.56558 0.28268 0.91241 0.0
C3136 C 0.58178 0.29031 0.91799 0.0
C3137 C 0.58751 0.29171 0.93555 0.0
C3138 C 0.57635 0.28522 0.94774 0.0
C3139 C 0.55963 0.27738 0.94233 0.0
C3140 C 0.55433 0.27605 0.92437 0.0
H3141 H 0.95626 0.31792 0.15631 0.0
H3142 H 0.98163 0.26923 0.15971 0.0
H3143 H 0.97237 0.26126 0.1288 0.0
H3144 H 0.91918 0.30082 0.12885 0.0
H3145 H 0.91813 0.3201 0.11672 0.0
H3146 H 0.92679 0.32179 0.13903 0.0
H3147 H 0.95536 0.33697 0.12958 0.0
H3148 H 0.94681 0.33527 0.10723 0.0
H3149 H 0.96733 0.32633 0.11301 0.0
H3150 H 0.96052 0.25897 0.09716 0.0
H3151 H 0.94598 0.26195 0.06804 0.0
H3152 H 0.9287 0.31222 0.08587 0.0
C3153 C 0.95986 0.30555 0.15061 0.0
C3154 C 0.96969 0.2942 0.16043 0.0
C3155 C 0.97408 0.27812 0.15244 0.0
C3156 C 0.96892 0.27351 0.13489 0.0
C3157 C 0.95935 0.2851 0.12556 0.0
C3158 C 0.95481 0.30074 0.1332 0.0
C3159 C 0.94438 0.31089 0.12046 0.0
C3160 C 0.92603 0.31355 0.12664 0.0
C3161 C 0.95406 0.3284 0.11739 0.0
C3162 C 0.94373 0.29851 0.10442 0.0
C3163 C 0.95249 0.28373 0.10755 0.0
C3164 C 0.95363 0.27049 0.09458 0.0
C3165 C 0.94544 0.27234 0.07806 0.0
C3166 C 0.93617 0.28729 0.0747 0.0
C3167 C 0.93549 0.30055 0.08808 0.0
loop_
_geom_bond_atom_site_label_1
_geom_bond_atom_site_label_2
_geom_bond_distance
_geom_bond_site_symmetry_2
_ccdc_geom_bond_type
O0 Cd1 2.300 . S
O0 C7 1.275 . S
Cd1 O0 2.300 . S
Cd1 O9 2.381 . S
Cd1 O10 2.378 . S
O2 Cd3 2.385 . S
O2 C7 1.255 . S
Cd3 O2 2.385 . S
Cd3 O4 2.317 . S
O4 Cd3 2.317 . S
O4 C5 1.232 . S
C5 O4 1.232 . S
C5 O6 1.218 . S
O6 C5 1.218 . S
C7 O0 1.275 . S
C7 O2 1.255 . S
C8 O9 1.258 . S
C8 O10 1.256 . S
O9 Cd1 2.381 . S
O9 C8 1.258 . S
O10 Cd1 2.378 . S
O10 C8 1.256 . S
O11 Cd12 2.300 . S
O11 C18 1.275 . S
Cd12 O11 2.300 . S
Cd12 O20 2.381 . S
Cd12 O21 2.378 . S
O13 Cd14 2.385 . S
O13 C18 1.255 . S
Cd14 O13 2.385 . S
Cd14 O15 2.317 . S
O15 Cd14 2.317 . S
O15 C16 1.232 . S
C16 O15 1.232 . S
C16 O17 1.218 . S
O17 C16 1.218 . S
C18 O11 1.275 . S
C18 O13 1.255 . S
C19 O20 1.258 . S
C19 O21 1.256 . S
O20 Cd12 2.381 . S
O20 C19 1.258 . S
O21 Cd12 2.378 . S
O21 C19 1.256 . S
O22 Cd23 2.300 . S
O22 C29 1.275 . S
Cd23 O22 2.300 . S
Cd23 O31 2.381 1_565 S
Cd23 O32 2.378 . S
O24 Cd25 2.385 . S
O24 C29 1.255 . S
Cd25 O24 2.385 . S
Cd25 O26 2.317 . S
O26 Cd25 2.317 . S
O26 C27 1.232 . S
C27 O26 1.232 . S
C27 O28 1.218 . S
O28 C27 1.218 . S
C29 O22 1.275 . S
C29 O24 1.255 . S
C30 O31 1.258 . S
C30 O32 1.256 1_545 S
O31 Cd23 2.381 1_545 S
O31 C30 1.258 . S
O32 Cd23 2.378 . S
O32 C30 1.256 1_565 S
O33 Cd34 2.300 . S
O33 C40 1.275 . S
Cd34 O33 2.300 . S
Cd34 O42 2.381 1_545 S
Cd34 O43 2.378 . S
O35 Cd36 2.385 . S
O35 C40 1.255 . S
Cd36 O35 2.385 . S
Cd36 O37 2.317 . S
O37 Cd36 2.317 . S
O37 C38 1.232 . S
C38 O37 1.232 . S
C38 O39 1.218 . S
O39 C38 1.218 . S
C40 O33 1.275 . S
C40 O35 1.255 . S
C41 O42 1.258 . S
C41 O43 1.256 1_565 S
O42 Cd34 2.381 1_565 S
O42 C41 1.258 . S
O43 Cd34 2.378 . S
O43 C41 1.256 1_545 S
O44 Cd45 2.300 . S
O44 C51 1.275 . S
Cd45 O44 2.300 . S
Cd45 O53 2.381 . S
Cd45 O54 2.378 . S
O46 Cd47 2.385 . S
O46 C51 1.255 . S
Cd47 O46 2.385 . S
Cd47 O48 2.317 . S
O48 Cd47 2.317 . S
O48 C49 1.232 . S
C49 O48 1.232 . S
C49 O50 1.218 . S
O50 C49 1.218 . S
C51 O44 1.275 . S
C51 O46 1.255 . S
C52 O53 1.258 . S
C52 O54 1.256 . S
O53 Cd45 2.381 . S
O53 C52 1.258 . S
O54 Cd45 2.378 . S
O54 C52 1.256 . S
O55 Cd56 2.300 . S
O55 C62 1.275 . S
Cd56 O55 2.300 . S
Cd56 O64 2.381 1_554 S
Cd56 O65 2.378 . S
O57 Cd58 2.385 . S
O57 C62 1.255 . S
Cd58 O57 2.385 . S
Cd58 O59 2.317 . S
O59 Cd58 2.317 . S
O59 C60 1.232 . S
C60 O59 1.232 . S
C60 O61 1.218 . S
O61 C60 1.218 . S
C62 O55 1.275 . S
C62 O57 1.255 . S
C63 O64 1.258 . S
C63 O65 1.256 1_556 S
O64 Cd56 2.381 1_556 S
O64 C63 1.258 . S
O65 Cd56 2.378 . S
O65 C63 1.256 1_554 S
O66 Cd67 2.300 . S
O66 C73 1.275 . S
Cd67 O66 2.300 . S
Cd67 O75 2.381 . S
Cd67 O76 2.378 . S
O68 Cd69 2.385 . S
O68 C73 1.255 . S
Cd69 O68 2.385 . S
Cd69 O70 2.317 . S
O70 Cd69 2.317 . S
O70 C71 1.232 . S
C71 O70 1.232 . S
C71 O72 1.218 . S
O72 C71 1.218 . S
C73 O66 1.275 . S
C73 O68 1.255 . S
C74 O75 1.258 . S
C74 O76 1.256 . S
O75 Cd67 2.381 . S
O75 C74 1.258 . S
O76 Cd67 2.378 . S
O76 C74 1.256 . S
O77 Cd78 2.300 . S
O77 C84 1.275 . S
Cd78 O77 2.300 . S
Cd78 O86 2.381 1_556 S
Cd78 O87 2.378 . S
O79 Cd80 2.385 . S
O79 C84 1.255 . S
Cd80 O79 2.385 . S
Cd80 O81 2.317 . S
O81 Cd80 2.317 . S
O81 C82 1.232 . S
C82 O81 1.232 . S
C82 O83 1.218 . S
O83 C82 1.218 . S
C84 O77 1.275 . S
C84 O79 1.255 . S
C85 O86 1.258 . S
C85 O87 1.256 1_554 S
O86 Cd78 2.381 1_554 S
O86 C85 1.258 . S
O87 Cd78 2.378 . S
O87 C85 1.256 1_556 S
O88 Cd89 2.300 . S
O88 C95 1.275 . S
Cd89 O88 2.300 . S
Cd89 O97 2.381 . S
Cd89 O98 2.378 . S
O90 Cd91 2.385 . S
O90 C95 1.255 . S
Cd91 O90 2.385 . S
Cd91 O92 2.317 . S
O92 Cd91 2.317 . S
O92 C93 1.232 . S
C93 O92 1.232 . S
C93 O94 1.218 . S
O94 C93 1.218 . S
C95 O88 1.275 . S
C95 O90 1.255 . S
C96 O97 1.258 . S
C96 O98 1.256 . S
O97 Cd89 2.381 . S
O97 C96 1.258 . S
O98 Cd89 2.378 . S
O98 C96 1.256 . S
O99 Cd100 2.300 . S
O99 C106 1.275 . S
Cd100 O99 2.300 . S
Cd100 O108 2.381 1_455 S
Cd100 O109 2.378 . S
O101 Cd102 2.385 . S
O101 C106 1.255 . S
Cd102 O101 2.385 . S
Cd102 O103 2.317 . S
O103 Cd102 2.317 . S
O103 C104 1.232 . S
C104 O103 1.232 . S
C104 O105 1.218 . S
O105 C104 1.218 . S
C106 O99 1.275 . S
C106 O101 1.255 . S
C107 O108 1.258 . S
C107 O109 1.256 1_655 S
O108 Cd100 2.381 1_655 S
O108 C107 1.258 . S
O109 Cd100 2.378 . S
O109 C107 1.256 1_455 S
O110 Cd111 2.300 . S
O110 C117 1.275 . S
Cd111 O110 2.300 . S
Cd111 O119 2.381 . S
Cd111 O120 2.378 . S
O112 Cd113 2.385 . S
O112 C117 1.255 . S
Cd113 O112 2.385 . S
Cd113 O114 2.317 . S
O114 Cd113 2.317 . S
O114 C115 1.232 . S
C115 O114 1.232 . S
C115 O116 1.218 . S
O116 C115 1.218 . S
C117 O110 1.275 . S
C117 O112 1.255 . S
C118 O119 1.258 . S
C118 O120 1.256 . S
O119 Cd111 2.381 . S
O119 C118 1.258 . S
O120 Cd111 2.378 . S
O120 C118 1.256 . S
O121 Cd122 2.300 . S
O121 C128 1.275 . S
Cd122 O121 2.300 . S
Cd122 O130 2.381 1_655 S
Cd122 O131 2.378 . S
O123 Cd124 2.385 . S
O123 C128 1.255 . S
Cd124 O123 2.385 . S
Cd124 O125 2.317 . S
O125 Cd124 2.317 . S
O125 C126 1.232 . S
C126 O125 1.232 . S
C126 O127 1.218 . S
O127 C126 1.218 . S
C128 O121 1.275 . S
C128 O123 1.255 . S
C129 O130 1.258 . S
C129 O131 1.256 1_455 S
O130 Cd122 2.381 1_455 S
O130 C129 1.258 . S
O131 Cd122 2.378 . S
O131 C129 1.256 1_655 S
O132 Cd133 2.300 . S
O132 C139 1.275 . S
Cd133 O132 2.300 . S
Cd133 O141 2.381 . S
Cd133 O142 2.378 . S
O134 Cd135 2.385 . S
O134 C139 1.255 . S
Cd135 O134 2.385 . S
Cd135 O136 2.317 . S
O136 Cd135 2.317 . S
O136 C137 1.232 . S
C137 O136 1.232 . S
C137 O138 1.218 . S
O138 C137 1.218 . S
C139 O132 1.275 . S
C139 O134 1.255 . S
C140 O141 1.258 . S
C140 O142 1.256 . S
O141 Cd133 2.381 . S
O141 C140 1.258 . S
O142 Cd133 2.378 . S
O142 C140 1.256 . S
O143 Cd144 2.300 . S
O143 C150 1.275 . S
Cd144 O143 2.300 . S
Cd144 O152 2.381 . S
Cd144 O153 2.378 . S
O145 Cd146 2.385 . S
O145 C150 1.255 . S
Cd146 O145 2.385 . S
Cd146 O147 2.317 . S
O147 Cd146 2.317 . S
O147 C148 1.232 . S
C148 O147 1.232 . S
C148 O149 1.218 . S
O149 C148 1.218 . S
C150 O143 1.275 . S
C150 O145 1.255 . S
C151 O152 1.258 . S
C151 O153 1.256 . S
O152 Cd144 2.381 . S
O152 C151 1.258 . S
O153 Cd144 2.378 . S
O153 C151 1.256 . S
O154 Cd155 2.300 1_545 S
O154 C161 1.275 . S
Cd155 O154 2.300 1_565 S
Cd155 O163 2.381 1_565 S
Cd155 O164 2.378 . S
O156 Cd157 2.385 . S
O156 C161 1.255 1_565 S
Cd157 O156 2.385 . S
Cd157 O158 2.317 . S
O158 Cd157 2.317 . S
O158 C159 1.232 . S
C159 O158 1.232 . S
C159 O160 1.218 . S
O160 C159 1.218 . S
C161 O154 1.275 . S
C161 O156 1.255 1_545 S
C162 O163 1.258 1_565 S
C162 O164 1.256 . S
O163 Cd155 2.381 1_545 S
O163 C162 1.258 1_545 S
O164 Cd155 2.378 . S
O164 C162 1.256 . S
O165 Cd166 2.300 1_565 S
O165 C172 1.275 . S
Cd166 O165 2.300 1_545 S
Cd166 O174 2.381 1_545 S
Cd166 O175 2.378 . S
O167 Cd168 2.385 . S
O167 C172 1.255 1_545 S
Cd168 O167 2.385 . S
Cd168 O169 2.317 . S
O169 Cd168 2.317 . S
O169 C170 1.232 . S
C170 O169 1.232 . S
C170 O171 1.218 . S
O171 C170 1.218 . S
C172 O165 1.275 . S
C172 O167 1.255 1_565 S
C173 O174 1.258 1_545 S
C173 O175 1.256 . S
O174 Cd166 2.381 1_565 S
O174 C173 1.258 1_565 S
O175 Cd166 2.378 . S
O175 C173 1.256 . S
O176 Cd177 2.300 . S
O176 C183 1.275 . S
Cd177 O176 2.300 . S
Cd177 O185 2.381 . S
Cd177 O186 2.378 . S
O178 Cd179 2.385 . S
O178 C183 1.255 . S
Cd179 O178 2.385 . S
Cd179 O180 2.317 . S
O180 Cd179 2.317 . S
O180 C181 1.232 . S
C181 O180 1.232 . S
C181 O182 1.218 . S
O182 C181 1.218 . S
C183 O176 1.275 . S
C183 O178 1.255 . S
C184 O185 1.258 . S
C184 O186 1.256 . S
O185 Cd177 2.381 . S
O185 C184 1.258 . S
O186 Cd177 2.378 . S
O186 C184 1.256 . S
O187 Cd188 2.300 1_556 S
O187 C194 1.275 . S
Cd188 O187 2.300 1_554 S
Cd188 O196 2.381 1_554 S
Cd188 O197 2.378 . S
O189 Cd190 2.385 . S
O189 C194 1.255 1_554 S
Cd190 O189 2.385 . S
Cd190 O191 2.317 . S
O191 Cd190 2.317 . S
O191 C192 1.232 . S
C192 O191 1.232 . S
C192 O193 1.218 . S
O193 C192 1.218 . S
C194 O187 1.275 . S
C194 O189 1.255 1_556 S
C195 O196 1.258 1_554 S
C195 O197 1.256 . S
O196 Cd188 2.381 1_556 S
O196 C195 1.258 1_556 S
O197 Cd188 2.378 . S
O197 C195 1.256 . S
O198 Cd199 2.300 . S
O198 C205 1.275 . S
Cd199 O198 2.300 . S
Cd199 O207 2.381 . S
Cd199 O208 2.378 . S
O200 Cd201 2.385 . S
O200 C205 1.255 . S
Cd201 O200 2.385 . S
Cd201 O202 2.317 . S
O202 Cd201 2.317 . S
O202 C203 1.232 . S
C203 O202 1.232 . S
C203 O204 1.218 . S
O204 C203 1.218 . S
C205 O198 1.275 . S
C205 O200 1.255 . S
C206 O207 1.258 . S
C206 O208 1.256 . S
O207 Cd199 2.381 . S
O207 C206 1.258 . S
O208 Cd199 2.378 . S
O208 C206 1.256 . S
O209 Cd210 2.300 1_554 S
O209 C216 1.275 . S
Cd210 O209 2.300 1_556 S
Cd210 O218 2.381 1_556 S
Cd210 O219 2.378 . S
O211 Cd212 2.385 . S
O211 C216 1.255 1_556 S
Cd212 O211 2.385 . S
Cd212 O213 2.317 . S
O213 Cd212 2.317 . S
O213 C214 1.232 . S
C214 O213 1.232 . S
C214 O215 1.218 . S
O215 C214 1.218 . S
C216 O209 1.275 . S
C216 O211 1.255 1_554 S
C217 O218 1.258 1_556 S
C217 O219 1.256 . S
O218 Cd210 2.381 1_554 S
O218 C217 1.258 1_554 S
O219 Cd210 2.378 . S
O219 C217 1.256 . S
O220 Cd221 2.300 . S
O220 C227 1.275 . S
Cd221 O220 2.300 . S
Cd221 O229 2.381 . S
Cd221 O230 2.378 . S
O222 Cd223 2.385 . S
O222 C227 1.255 . S
Cd223 O222 2.385 . S
Cd223 O224 2.317 . S
O224 Cd223 2.317 . S
O224 C225 1.232 . S
C225 O224 1.232 . S
C225 O226 1.218 . S
O226 C225 1.218 . S
C227 O220 1.275 . S
C227 O222 1.255 . S
C228 O229 1.258 . S
C228 O230 1.256 . S
O229 Cd221 2.381 . S
O229 C228 1.258 . S
O230 Cd221 2.378 . S
O230 C228 1.256 . S
O231 Cd232 2.300 1_655 S
O231 C238 1.275 . S
Cd232 O231 2.300 1_455 S
Cd232 O240 2.381 1_455 S
Cd232 O241 2.378 . S
O233 Cd234 2.385 . S
O233 C238 1.255 1_455 S
Cd234 O233 2.385 . S
Cd234 O235 2.317 . S
O235 Cd234 2.317 . S
O235 C236 1.232 . S
C236 O235 1.232 . S
C236 O237 1.218 . S
O237 C236 1.218 . S
C238 O231 1.275 . S
C238 O233 1.255 1_655 S
C239 O240 1.258 1_455 S
C239 O241 1.256 . S
O240 Cd232 2.381 1_655 S
O240 C239 1.258 1_655 S
O241 Cd232 2.378 . S
O241 C239 1.256 . S
O242 Cd243 2.300 . S
O242 C249 1.275 . S
Cd243 O242 2.300 . S
Cd243 O251 2.381 . S
Cd243 O252 2.378 . S
O244 Cd245 2.385 . S
O244 C249 1.255 . S
Cd245 O244 2.385 . S
Cd245 O246 2.317 . S
O246 Cd245 2.317 . S
O246 C247 1.232 . S
C247 O246 1.232 . S
C247 O248 1.218 . S
O248 C247 1.218 . S
C249 O242 1.275 . S
C249 O244 1.255 . S
C250 O251 1.258 . S
C250 O252 1.256 . S
O251 Cd243 2.381 . S
O251 C250 1.258 . S
O252 Cd243 2.378 . S
O252 C250 1.256 . S
O253 Cd254 2.300 1_455 S
O253 C260 1.275 . S
Cd254 O253 2.300 1_655 S
Cd254 O262 2.381 1_655 S
Cd254 O263 2.378 . S
O255 Cd256 2.385 . S
O255 C260 1.255 1_655 S
Cd256 O255 2.385 . S
Cd256 O257 2.317 . S
O257 Cd256 2.317 . S
O257 C258 1.232 . S
C258 O257 1.232 . S
C258 O259 1.218 . S
O259 C258 1.218 . S
C260 O253 1.275 . S
C260 O255 1.255 1_455 S
C261 O262 1.258 1_655 S
C261 O263 1.256 . S
O262 Cd254 2.381 1_455 S
O262 C261 1.258 1_455 S
O263 Cd254 2.378 . S
O263 C261 1.256 . S
C264 C265 1.264 . S
C264 C269 1.479 . S
C264 C274 1.465 . S
C265 C264 1.264 . S
C265 C267 1.339 . S
C265 H292 0.931 . S
C266 C267 1.395 . S
C266 C268 1.320 . S
C267 C265 1.339 . S
C267 C266 1.395 . S
C267 H293 0.929 . S
C268 C266 1.320 . S
C268 C269 1.405 . S
C268 H294 0.930 . S
C269 C264 1.479 . S
C269 C268 1.405 . S
C269 H295 0.931 . S
U270 O271 2.454 . S
U270 O272 2.458 . S
U270 C273 2.984 . S
U270 C274 2.847 . S
U270 C287 2.882 . S
U270 O288 2.441 . S
U270 O289 2.420 . S
U270 O290 2.455 . S
U270 O291 2.449 . S
O271 U270 2.454 . S
O271 C273 1.353 . S
O272 U270 2.458 . S
O272 C273 1.286 . S
C273 U270 2.984 . S
C273 O271 1.353 . S
C273 O272 1.286 . S
C273 C275 1.363 . S
C274 C264 1.465 . S
C274 U270 2.847 . S
C274 O288 1.249 . S
C274 O289 1.202 . S
C275 C273 1.363 . S
C275 C277 1.408 . S
C275 C280 1.342 . S
C276 C277 1.310 . S
C276 C279 1.461 . S
C276 H296 0.932 . S
C277 C275 1.408 . S
C277 C276 1.310 . S
C277 H297 0.930 . S
C278 C279 1.474 . S
C278 C280 1.285 . S
C278 H298 0.929 . S
C279 C276 1.461 . S
C279 C278 1.474 . S
C280 C275 1.342 . S
C280 C278 1.285 . S
C280 H299 0.930 . S
C281 C284 1.424 . S
C281 C286 1.245 . S
C281 C287 1.428 . S
C282 C285 1.260 . S
C282 C286 1.477 . S
C282 H300 0.932 . S
C283 C284 1.384 . S
C283 C285 1.479 . S
C283 H301 0.929 . S
C284 C281 1.424 . S
C284 C283 1.384 . S
C284 H302 0.928 . S
C285 C282 1.260 . S
C285 C283 1.479 . S
C286 C281 1.245 . S
C286 C282 1.477 . S
C286 H303 0.932 . S
C287 U270 2.882 . S
C287 C281 1.428 . S
C287 O290 1.301 . S
C287 O291 1.282 . S
O288 U270 2.441 . S
O288 C274 1.249 . S
O289 U270 2.420 . S
O289 C274 1.202 . S
O290 U270 2.455 . S
O290 C287 1.301 . S
O291 U270 2.449 . S
O291 C287 1.282 . S
H292 C265 0.931 . S
H293 C267 0.929 . S
H294 C268 0.930 . S
H295 C269 0.931 . S
H296 C276 0.932 . S
H297 C277 0.930 . S
H298 C278 0.929 . S
H299 C280 0.930 . S
H300 C282 0.932 . S
H301 C283 0.929 . S
H302 C284 0.928 . S
H303 C286 0.932 . S
C304 C305 1.264 . S
C304 C309 1.479 . S
C304 C314 1.465 . S
C305 C304 1.264 . S
C305 C307 1.339 . S
C305 H332 0.931 . S
C306 C307 1.395 . S
C306 C308 1.320 . S
C307 C305 1.339 . S
C307 C306 1.395 . S
C307 H333 0.929 . S
C308 C306 1.320 . S
C308 C309 1.405 . S
C308 H334 0.930 . S
C309 C304 1.479 . S
C309 C308 1.405 . S
C309 H335 0.931 . S
U310 O311 2.454 . S
U310 O312 2.458 . S
U310 C313 2.984 . S
U310 C314 2.847 . S
U310 C327 2.882 . S
U310 O328 2.441 . S
U310 O329 2.420 . S
U310 O330 2.455 . S
U310 O331 2.449 . S
O311 U310 2.454 . S
O311 C313 1.353 . S
O312 U310 2.458 . S
O312 C313 1.286 . S
C313 U310 2.984 . S
C313 O311 1.353 . S
C313 O312 1.286 . S
C313 C315 1.363 . S
C314 C304 1.465 . S
C314 U310 2.847 . S
C314 O328 1.249 . S
C314 O329 1.202 . S
C315 C313 1.363 . S
C315 C317 1.408 . S
C315 C320 1.342 . S
C316 C317 1.310 . S
C316 C319 1.461 . S
C316 H336 0.932 . S
C317 C315 1.408 . S
C317 C316 1.310 . S
C317 H337 0.930 . S
C318 C319 1.474 . S
C318 C320 1.285 . S
C318 H338 0.929 . S
C319 C316 1.461 . S
C319 C318 1.474 . S
C320 C315 1.342 . S
C320 C318 1.285 . S
C320 H339 0.930 . S
C321 C324 1.424 . S
C321 C326 1.245 . S
C321 C327 1.428 . S
C322 C325 1.260 . S
C322 C326 1.477 . S
C322 H340 0.932 . S
C323 C324 1.384 . S
C323 C325 1.479 . S
C323 H341 0.929 . S
C324 C321 1.424 . S
C324 C323 1.384 . S
C324 H342 0.928 . S
C325 C322 1.260 . S
C325 C323 1.479 . S
C326 C321 1.245 . S
C326 C322 1.477 . S
C326 H343 0.932 . S
C327 U310 2.882 . S
C327 C321 1.428 . S
C327 O330 1.301 . S
C327 O331 1.282 . S
O328 U310 2.441 . S
O328 C314 1.249 . S
O329 U310 2.420 . S
O329 C314 1.202 . S
O330 U310 2.455 . S
O330 C327 1.301 . S
O331 U310 2.449 . S
O331 C327 1.282 . S
H332 C305 0.931 . S
H333 C307 0.929 . S
H334 C308 0.930 . S
H335 C309 0.931 . S
H336 C316 0.932 . S
H337 C317 0.930 . S
H338 C318 0.929 . S
H339 C320 0.930 . S
H340 C322 0.932 . S
H341 C323 0.929 . S
H342 C324 0.928 . S
H343 C326 0.932 . S
C344 C345 1.264 . S
C344 C349 1.479 . S
C344 C354 1.465 . S
C345 C344 1.264 . S
C345 C347 1.339 . S
C345 H372 0.931 . S
C346 C347 1.395 . S
C346 C348 1.320 . S
C347 C345 1.339 . S
C347 C346 1.395 . S
C347 H373 0.929 . S
C348 C346 1.320 . S
C348 C349 1.405 . S
C348 H374 0.930 . S
C349 C344 1.479 . S
C349 C348 1.405 . S
C349 H375 0.931 . S
U350 O351 2.463 . S
U350 O352 2.473 . S
U350 C353 2.998 . S
U350 C354 2.833 1_545 S
U350 C367 2.883 . S
U350 O368 2.432 1_545 S
U350 O369 2.405 1_545 S
U350 O370 2.462 . S
U350 O371 2.443 1_545 S
O351 U350 2.463 . S
O351 C353 1.353 . S
O352 U350 2.473 . S
O352 C353 1.286 . S
C353 U350 2.998 . S
C353 O351 1.353 . S
C353 O352 1.286 . S
C353 C355 1.363 . S
C354 C344 1.465 . S
C354 U350 2.833 1_565 S
C354 O368 1.249 . S
C354 O369 1.202 . S
C355 C353 1.363 . S
C355 C357 1.408 . S
C355 C360 1.342 . S
C356 C357 1.310 . S
C356 C359 1.461 . S
C356 H376 0.932 . S
C357 C355 1.408 . S
C357 C356 1.310 . S
C357 H377 0.930 . S
C358 C359 1.474 . S
C358 C360 1.285 . S
C358 H378 0.929 . S
C359 C356 1.461 . S
C359 C358 1.474 . S
C360 C355 1.342 . S
C360 C358 1.285 . S
C360 H379 0.930 . S
C361 C364 1.424 1_545 S
C361 C366 1.245 . S
C361 C367 1.428 . S
C362 C365 1.260 . S
C362 C366 1.477 . S
C362 H380 0.932 . S
C363 C364 1.384 . S
C363 C365 1.479 1_565 S
C363 H381 0.929 . S
C364 C361 1.424 1_565 S
C364 C363 1.384 . S
C364 H382 0.928 . S
C365 C362 1.260 . S
C365 C363 1.479 1_545 S
C366 C361 1.245 . S
C366 C362 1.477 . S
C366 H383 0.932 . S
C367 U350 2.883 . S
C367 C361 1.428 . S
C367 O370 1.301 . S
C367 O371 1.282 1_545 S
O368 U350 2.432 1_565 S
O368 C354 1.249 . S
O369 U350 2.405 1_565 S
O369 C354 1.202 . S
O370 U350 2.462 . S
O370 C367 1.301 . S
O371 U350 2.443 1_565 S
O371 C367 1.282 1_565 S
H372 C345 0.931 . S
H373 C347 0.929 . S
H374 C348 0.930 . S
H375 C349 0.931 . S
H376 C356 0.932 . S
H377 C357 0.930 . S
H378 C358 0.929 . S
H379 C360 0.930 . S
H380 C362 0.932 . S
H381 C363 0.929 . S
H382 C364 0.928 . S
H383 C366 0.932 . S
C384 C385 1.264 . S
C384 C389 1.479 . S
C384 C394 1.465 . S
C385 C384 1.264 . S
C385 C387 1.339 . S
C385 H412 0.931 . S
C386 C387 1.395 . S
C386 C388 1.320 . S
C387 C385 1.339 . S
C387 C386 1.395 . S
C387 H413 0.929 . S
C388 C386 1.320 . S
C388 C389 1.405 . S
C388 H414 0.930 . S
C389 C384 1.479 . S
C389 C388 1.405 . S
C389 H415 0.931 . S
U390 O391 2.454 . S
U390 O392 2.458 . S
U390 C393 2.984 . S
U390 C394 2.847 1_565 S
U390 C407 2.881 . S
U390 O408 2.441 1_565 S
U390 O409 2.420 1_565 S
U390 O410 2.455 . S
U390 O411 2.449 1_565 S
O391 U390 2.454 . S
O391 C393 1.353 . S
O392 U390 2.458 . S
O392 C393 1.286 . S
C393 U390 2.984 . S
C393 O391 1.353 . S
C393 O392 1.286 . S
C393 C395 1.363 . S
C394 C384 1.465 . S
C394 U390 2.847 1_545 S
C394 O408 1.249 . S
C394 O409 1.202 . S
C395 C393 1.363 . S
C395 C397 1.408 . S
C395 C400 1.342 . S
C396 C397 1.310 . S
C396 C399 1.461 . S
C396 H416 0.932 . S
C397 C395 1.408 . S
C397 C396 1.310 . S
C397 H417 0.930 . S
C398 C399 1.474 . S
C398 C400 1.285 . S
C398 H418 0.929 . S
C399 C396 1.461 . S
C399 C398 1.474 . S
C400 C395 1.342 . S
C400 C398 1.285 . S
C400 H419 0.930 . S
C401 C404 1.419 1_565 S
C401 C406 1.250 . S
C401 C407 1.429 . S
C402 C405 1.260 1_565 S
C402 C406 1.477 . S
C402 H420 0.932 . S
C403 C404 1.384 . S
C403 C405 1.479 . S
C403 H421 0.929 . S
C404 C401 1.419 1_545 S
C404 C403 1.384 . S
C404 H422 0.928 . S
C405 C402 1.260 1_545 S
C405 C403 1.479 . S
C406 C401 1.250 . S
C406 C402 1.477 . S
C406 H423 0.932 . S
C407 U390 2.881 . S
C407 C401 1.429 . S
C407 O410 1.318 . S
C407 O411 1.265 1_565 S
O408 U390 2.441 1_545 S
O408 C394 1.249 . S
O409 U390 2.420 1_545 S
O409 C394 1.202 . S
O410 U390 2.455 . S
O410 C407 1.318 . S
O411 U390 2.449 1_545 S
O411 C407 1.265 1_545 S
H412 C385 0.931 . S
H413 C387 0.929 . S
H414 C388 0.930 . S
H415 C389 0.931 . S
H416 C396 0.932 . S
H417 C397 0.930 . S
H418 C398 0.929 . S
H419 C400 0.930 . S
H420 C402 0.932 . S
H421 C403 0.929 . S
H422 C404 0.928 . S
H423 C406 0.932 . S
C424 C425 1.264 . S
C424 C429 1.479 . S
C424 C434 1.465 . S
C425 C424 1.264 . S
C425 C427 1.339 . S
C425 H452 0.931 . S
C426 C427 1.395 . S
C426 C428 1.320 . S
C427 C425 1.339 . S
C427 C426 1.395 . S
C427 H453 0.929 . S
C428 C426 1.320 . S
C428 C429 1.405 . S
C428 H454 0.930 . S
C429 C424 1.479 . S
C429 C428 1.405 . S
C429 H455 0.931 . S
U430 O431 2.454 . S
U430 O432 2.458 . S
U430 C433 2.984 . S
U430 C434 2.847 . S
U430 C447 2.882 . S
U430 O448 2.441 . S
U430 O449 2.420 . S
U430 O450 2.455 . S
U430 O451 2.449 . S
O431 U430 2.454 . S
O431 C433 1.353 . S
O432 U430 2.458 . S
O432 C433 1.286 . S
C433 U430 2.984 . S
C433 O431 1.353 . S
C433 O432 1.286 . S
C433 C435 1.363 . S
C434 C424 1.465 . S
C434 U430 2.847 . S
C434 O448 1.249 . S
C434 O449 1.202 . S
C435 C433 1.363 . S
C435 C437 1.408 . S
C435 C440 1.342 . S
C436 C437 1.310 . S
C436 C439 1.461 . S
C436 H456 0.932 . S
C437 C435 1.408 . S
C437 C436 1.310 . S
C437 H457 0.930 . S
C438 C439 1.474 . S
C438 C440 1.285 . S
C438 H458 0.929 . S
C439 C436 1.461 . S
C439 C438 1.474 . S
C440 C435 1.342 . S
C440 C438 1.285 . S
C440 H459 0.930 . S
C441 C444 1.424 . S
C441 C446 1.245 . S
C441 C447 1.428 . S
C442 C445 1.260 . S
C442 C446 1.477 . S
C442 H460 0.932 . S
C443 C444 1.384 . S
C443 C445 1.479 . S
C443 H461 0.929 . S
C444 C441 1.424 . S
C444 C443 1.384 . S
C444 H462 0.928 . S
C445 C442 1.260 . S
C445 C443 1.479 . S
C446 C441 1.245 . S
C446 C442 1.477 . S
C446 H463 0.932 . S
C447 U430 2.882 . S
C447 C441 1.428 . S
C447 O450 1.301 . S
C447 O451 1.282 . S
O448 U430 2.441 . S
O448 C434 1.249 . S
O449 U430 2.420 . S
O449 C434 1.202 . S
O450 U430 2.455 . S
O450 C447 1.301 . S
O451 U430 2.449 . S
O451 C447 1.282 . S
H452 C425 0.931 . S
H453 C427 0.929 . S
H454 C428 0.930 . S
H455 C429 0.931 . S
H456 C436 0.932 . S
H457 C437 0.930 . S
H458 C438 0.929 . S
H459 C440 0.930 . S
H460 C442 0.932 . S
H461 C443 0.929 . S
H462 C444 0.928 . S
H463 C446 0.932 . S
C464 C465 1.264 . S
C464 C469 1.479 . S
C464 C474 1.465 . S
C465 C464 1.264 . S
C465 C467 1.339 . S
C465 H492 0.931 . S
C466 C467 1.395 . S
C466 C468 1.320 . S
C467 C465 1.339 . S
C467 C466 1.395 . S
C467 H493 0.929 . S
C468 C466 1.320 . S
C468 C469 1.405 . S
C468 H494 0.930 . S
C469 C464 1.479 . S
C469 C468 1.405 . S
C469 H495 0.931 . S
U470 O471 2.454 . S
U470 O472 2.458 . S
U470 C473 2.984 . S
U470 C474 2.847 1_556 S
U470 C487 2.881 . S
U470 O488 2.441 1_556 S
U470 O489 2.420 1_556 S
U470 O490 2.455 . S
U470 O491 2.449 1_556 S
O471 U470 2.454 . S
O471 C473 1.353 . S
O472 U470 2.458 . S
O472 C473 1.286 . S
C473 U470 2.984 . S
C473 O471 1.353 . S
C473 O472 1.286 . S
C473 C475 1.363 . S
C474 C464 1.465 . S
C474 U470 2.847 1_554 S
C474 O488 1.249 . S
C474 O489 1.202 . S
C475 C473 1.363 . S
C475 C477 1.408 . S
C475 C480 1.342 . S
C476 C477 1.310 . S
C476 C479 1.461 . S
C476 H496 0.932 . S
C477 C475 1.408 . S
C477 C476 1.310 . S
C477 H497 0.930 . S
C478 C479 1.474 . S
C478 C480 1.285 . S
C478 H498 0.929 . S
C479 C476 1.461 . S
C479 C478 1.474 . S
C480 C475 1.342 . S
C480 C478 1.285 . S
C480 H499 0.930 . S
C481 C484 1.419 1_556 S
C481 C486 1.250 . S
C481 C487 1.429 . S
C482 C485 1.260 1_556 S
C482 C486 1.477 . S
C482 H500 0.932 . S
C483 C484 1.384 . S
C483 C485 1.479 . S
C483 H501 0.929 . S
C484 C481 1.419 1_554 S
C484 C483 1.384 . S
C484 H502 0.928 . S
C485 C482 1.260 1_554 S
C485 C483 1.479 . S
C486 C481 1.250 . S
C486 C482 1.477 . S
C486 H503 0.932 . S
C487 U470 2.881 . S
C487 C481 1.429 . S
C487 O490 1.318 . S
C487 O491 1.265 1_556 S
O488 U470 2.441 1_554 S
O488 C474 1.249 . S
O489 U470 2.420 1_554 S
O489 C474 1.202 . S
O490 U470 2.455 . S
O490 C487 1.318 . S
O491 U470 2.449 1_554 S
O491 C487 1.265 1_554 S
H492 C465 0.931 . S
H493 C467 0.929 . S
H494 C468 0.930 . S
H495 C469 0.931 . S
H496 C476 0.932 . S
H497 C477 0.930 . S
H498 C478 0.929 . S
H499 C480 0.930 . S
H500 C482 0.932 . S
H501 C483 0.929 . S
H502 C484 0.928 . S
H503 C486 0.932 . S
C504 C505 1.264 . S
C504 C509 1.479 . S
C504 C514 1.465 . S
C505 C504 1.264 . S
C505 C507 1.339 . S
C505 H532 0.931 . S
C506 C507 1.395 . S
C506 C508 1.320 . S
C507 C505 1.339 . S
C507 C506 1.395 . S
C507 H533 0.929 . S
C508 C506 1.320 . S
C508 C509 1.405 . S
C508 H534 0.930 . S
C509 C504 1.479 . S
C509 C508 1.405 . S
C509 H535 0.931 . S
U510 O511 2.454 . S
U510 O512 2.458 . S
U510 C513 2.984 . S
U510 C514 2.847 . S
U510 C527 2.882 . S
U510 O528 2.441 . S
U510 O529 2.420 . S
U510 O530 2.455 . S
U510 O531 2.449 . S
O511 U510 2.454 . S
O511 C513 1.353 . S
O512 U510 2.458 . S
O512 C513 1.286 . S
C513 U510 2.984 . S
C513 O511 1.353 . S
C513 O512 1.286 . S
C513 C515 1.363 . S
C514 C504 1.465 . S
C514 U510 2.847 . S
C514 O528 1.249 . S
C514 O529 1.202 . S
C515 C513 1.363 . S
C515 C517 1.408 . S
C515 C520 1.342 . S
C516 C517 1.310 . S
C516 C519 1.461 . S
C516 H536 0.932 . S
C517 C515 1.408 . S
C517 C516 1.310 . S
C517 H537 0.930 . S
C518 C519 1.474 . S
C518 C520 1.285 . S
C518 H538 0.929 . S
C519 C516 1.461 . S
C519 C518 1.474 . S
C520 C515 1.342 . S
C520 C518 1.285 . S
C520 H539 0.930 . S
C521 C524 1.424 . S
C521 C526 1.245 . S
C521 C527 1.428 . S
C522 C525 1.260 . S
C522 C526 1.477 . S
C522 H540 0.932 . S
C523 C524 1.384 . S
C523 C525 1.479 . S
C523 H541 0.929 . S
C524 C521 1.424 . S
C524 C523 1.384 . S
C524 H542 0.928 . S
C525 C522 1.260 . S
C525 C523 1.479 . S
C526 C521 1.245 . S
C526 C522 1.477 . S
C526 H543 0.932 . S
C527 U510 2.882 . S
C527 C521 1.428 . S
C527 O530 1.301 . S
C527 O531 1.282 . S
O528 U510 2.441 . S
O528 C514 1.249 . S
O529 U510 2.420 . S
O529 C514 1.202 . S
O530 U510 2.455 . S
O530 C527 1.301 . S
O531 U510 2.449 . S
O531 C527 1.282 . S
H532 C505 0.931 . S
H533 C507 0.929 . S
H534 C508 0.930 . S
H535 C509 0.931 . S
H536 C516 0.932 . S
H537 C517 0.930 . S
H538 C518 0.929 . S
H539 C520 0.930 . S
H540 C522 0.932 . S
H541 C523 0.929 . S
H542 C524 0.928 . S
H543 C526 0.932 . S
C544 C545 1.264 . S
C544 C549 1.479 . S
C544 C554 1.465 . S
C545 C544 1.264 . S
C545 C547 1.339 . S
C545 H572 0.931 . S
C546 C547 1.395 . S
C546 C548 1.320 . S
C547 C545 1.339 . S
C547 C546 1.395 . S
C547 H573 0.929 . S
C548 C546 1.320 . S
C548 C549 1.405 . S
C548 H574 0.930 . S
C549 C544 1.479 . S
C549 C548 1.405 . S
C549 H575 0.931 . S
U550 O551 2.463 . S
U550 O552 2.473 . S
U550 C553 2.998 . S
U550 C554 2.833 1_554 S
U550 C567 2.883 . S
U550 O568 2.432 1_554 S
U550 O569 2.405 1_554 S
U550 O570 2.462 . S
U550 O571 2.443 1_554 S
O551 U550 2.463 . S
O551 C553 1.353 . S
O552 U550 2.473 . S
O552 C553 1.286 . S
C553 U550 2.998 . S
C553 O551 1.353 . S
C553 O552 1.286 . S
C553 C555 1.363 . S
C554 C544 1.465 . S
C554 U550 2.833 1_556 S
C554 O568 1.249 . S
C554 O569 1.202 . S
C555 C553 1.363 . S
C555 C557 1.408 . S
C555 C560 1.342 . S
C556 C557 1.310 . S
C556 C559 1.461 . S
C556 H576 0.932 . S
C557 C555 1.408 . S
C557 C556 1.310 . S
C557 H577 0.930 . S
C558 C559 1.474 . S
C558 C560 1.285 . S
C558 H578 0.929 . S
C559 C556 1.461 . S
C559 C558 1.474 . S
C560 C555 1.342 . S
C560 C558 1.285 . S
C560 H579 0.930 . S
C561 C564 1.424 1_554 S
C561 C566 1.245 . S
C561 C567 1.428 . S
C562 C565 1.260 . S
C562 C566 1.477 . S
C562 H580 0.932 . S
C563 C564 1.384 . S
C563 C565 1.479 1_556 S
C563 H581 0.929 . S
C564 C561 1.424 1_556 S
C564 C563 1.384 . S
C564 H582 0.928 . S
C565 C562 1.260 . S
C565 C563 1.479 1_554 S
C566 C561 1.245 . S
C566 C562 1.477 . S
C566 H583 0.932 . S
C567 U550 2.883 . S
C567 C561 1.428 . S
C567 O570 1.301 . S
C567 O571 1.282 1_554 S
O568 U550 2.432 1_556 S
O568 C554 1.249 . S
O569 U550 2.405 1_556 S
O569 C554 1.202 . S
O570 U550 2.462 . S
O570 C567 1.301 . S
O571 U550 2.443 1_556 S
O571 C567 1.282 1_556 S
H572 C545 0.931 . S
H573 C547 0.929 . S
H574 C548 0.930 . S
H575 C549 0.931 . S
H576 C556 0.932 . S
H577 C557 0.930 . S
H578 C558 0.929 . S
H579 C560 0.930 . S
H580 C562 0.932 . S
H581 C563 0.929 . S
H582 C564 0.928 . S
H583 C566 0.932 . S
C584 C585 1.264 . S
C584 C589 1.479 . S
C584 C594 1.465 . S
C585 C584 1.264 . S
C585 C587 1.339 . S
C585 H612 0.931 . S
C586 C587 1.395 . S
C586 C588 1.320 . S
C587 C585 1.339 . S
C587 C586 1.395 . S
C587 H613 0.929 . S
C588 C586 1.320 . S
C588 C589 1.405 . S
C588 H614 0.930 . S
C589 C584 1.479 . S
C589 C588 1.405 . S
C589 H615 0.931 . S
U590 O591 2.454 . S
U590 O592 2.458 . S
U590 C593 2.984 . S
U590 C594 2.847 . S
U590 C607 2.882 . S
U590 O608 2.441 . S
U590 O609 2.420 . S
U590 O610 2.455 . S
U590 O611 2.449 . S
O591 U590 2.454 . S
O591 C593 1.353 . S
O592 U590 2.458 . S
O592 C593 1.286 . S
C593 U590 2.984 . S
C593 O591 1.353 . S
C593 O592 1.286 . S
C593 C595 1.363 . S
C594 C584 1.465 . S
C594 U590 2.847 . S
C594 O608 1.249 . S
C594 O609 1.202 . S
C595 C593 1.363 . S
C595 C597 1.408 . S
C595 C600 1.342 . S
C596 C597 1.310 . S
C596 C599 1.461 . S
C596 H616 0.932 . S
C597 C595 1.408 . S
C597 C596 1.310 . S
C597 H617 0.930 . S
C598 C599 1.474 . S
C598 C600 1.285 . S
C598 H618 0.929 . S
C599 C596 1.461 . S
C599 C598 1.474 . S
C600 C595 1.342 . S
C600 C598 1.285 . S
C600 H619 0.930 . S
C601 C604 1.424 . S
C601 C606 1.245 . S
C601 C607 1.428 . S
C602 C605 1.260 . S
C602 C606 1.477 . S
C602 H620 0.932 . S
C603 C604 1.384 . S
C603 C605 1.479 . S
C603 H621 0.929 . S
C604 C601 1.424 . S
C604 C603 1.384 . S
C604 H622 0.928 . S
C605 C602 1.260 . S
C605 C603 1.479 . S
C606 C601 1.245 . S
C606 C602 1.477 . S
C606 H623 0.932 . S
C607 U590 2.882 . S
C607 C601 1.428 . S
C607 O610 1.301 . S
C607 O611 1.282 . S
O608 U590 2.441 . S
O608 C594 1.249 . S
O609 U590 2.420 . S
O609 C594 1.202 . S
O610 U590 2.455 . S
O610 C607 1.301 . S
O611 U590 2.449 . S
O611 C607 1.282 . S
H612 C585 0.931 . S
H613 C587 0.929 . S
H614 C588 0.930 . S
H615 C589 0.931 . S
H616 C596 0.932 . S
H617 C597 0.930 . S
H618 C598 0.929 . S
H619 C600 0.930 . S
H620 C602 0.932 . S
H621 C603 0.929 . S
H622 C604 0.928 . S
H623 C606 0.932 . S
C624 C625 1.264 . S
C624 C629 1.479 . S
C624 C634 1.465 . S
C625 C624 1.264 . S
C625 C627 1.339 . S
C625 H652 0.931 . S
C626 C627 1.395 . S
C626 C628 1.320 . S
C627 C625 1.339 . S
C627 C626 1.395 . S
C627 H653 0.929 . S
C628 C626 1.320 . S
C628 C629 1.405 . S
C628 H654 0.930 . S
C629 C624 1.479 . S
C629 C628 1.405 . S
C629 H655 0.931 . S
U630 O631 2.454 . S
U630 O632 2.458 . S
U630 C633 2.984 . S
U630 C634 2.847 1_655 S
U630 C647 2.881 . S
U630 O648 2.441 1_655 S
U630 O649 2.420 1_655 S
U630 O650 2.455 . S
U630 O651 2.449 1_655 S
O631 U630 2.454 . S
O631 C633 1.353 . S
O632 U630 2.458 . S
O632 C633 1.286 . S
C633 U630 2.984 . S
C633 O631 1.353 . S
C633 O632 1.286 . S
C633 C635 1.363 . S
C634 C624 1.465 . S
C634 U630 2.847 1_455 S
C634 O648 1.249 . S
C634 O649 1.202 . S
C635 C633 1.363 . S
C635 C637 1.408 . S
C635 C640 1.342 . S
C636 C637 1.310 . S
C636 C639 1.461 . S
C636 H656 0.932 . S
C637 C635 1.408 . S
C637 C636 1.310 . S
C637 H657 0.930 . S
C638 C639 1.474 . S
C638 C640 1.285 . S
C638 H658 0.929 . S
C639 C636 1.461 . S
C639 C638 1.474 . S
C640 C635 1.342 . S
C640 C638 1.285 . S
C640 H659 0.930 . S
C641 C644 1.419 1_655 S
C641 C646 1.250 . S
C641 C647 1.429 . S
C642 C645 1.260 1_655 S
C642 C646 1.477 . S
C642 H660 0.932 . S
C643 C644 1.384 . S
C643 C645 1.479 . S
C643 H661 0.929 . S
C644 C641 1.419 1_455 S
C644 C643 1.384 . S
C644 H662 0.928 . S
C645 C642 1.260 1_455 S
C645 C643 1.479 . S
C646 C641 1.250 . S
C646 C642 1.477 . S
C646 H663 0.932 . S
C647 U630 2.881 . S
C647 C641 1.429 . S
C647 O650 1.318 . S
C647 O651 1.265 1_655 S
O648 U630 2.441 1_455 S
O648 C634 1.249 . S
O649 U630 2.420 1_455 S
O649 C634 1.202 . S
O650 U630 2.455 . S
O650 C647 1.318 . S
O651 U630 2.449 1_455 S
O651 C647 1.265 1_455 S
H652 C625 0.931 . S
H653 C627 0.929 . S
H654 C628 0.930 . S
H655 C629 0.931 . S
H656 C636 0.932 . S
H657 C637 0.930 . S
H658 C638 0.929 . S
H659 C640 0.930 . S
H660 C642 0.932 . S
H661 C643 0.929 . S
H662 C644 0.928 . S
H663 C646 0.932 . S
C664 C665 1.264 . S
C664 C669 1.479 . S
C664 C674 1.465 . S
C665 C664 1.264 . S
C665 C667 1.339 . S
C665 H692 0.931 . S
C666 C667 1.395 . S
C666 C668 1.320 . S
C667 C665 1.339 . S
C667 C666 1.395 . S
C667 H693 0.929 . S
C668 C666 1.320 . S
C668 C669 1.405 . S
C668 H694 0.930 . S
C669 C664 1.479 . S
C669 C668 1.405 . S
C669 H695 0.931 . S
U670 O671 2.454 . S
U670 O672 2.458 . S
U670 C673 2.984 . S
U670 C674 2.847 . S
U670 C687 2.882 . S
U670 O688 2.441 . S
U670 O689 2.420 . S
U670 O690 2.455 . S
U670 O691 2.449 . S
O671 U670 2.454 . S
O671 C673 1.353 . S
O672 U670 2.458 . S
O672 C673 1.286 . S
C673 U670 2.984 . S
C673 O671 1.353 . S
C673 O672 1.286 . S
C673 C675 1.363 . S
C674 C664 1.465 . S
C674 U670 2.847 . S
C674 O688 1.249 . S
C674 O689 1.202 . S
C675 C673 1.363 . S
C675 C677 1.408 . S
C675 C680 1.342 . S
C676 C677 1.310 . S
C676 C679 1.461 . S
C676 H696 0.932 . S
C677 C675 1.408 . S
C677 C676 1.310 . S
C677 H697 0.930 . S
C678 C679 1.474 . S
C678 C680 1.285 . S
C678 H698 0.929 . S
C679 C676 1.461 . S
C679 C678 1.474 . S
C680 C675 1.342 . S
C680 C678 1.285 . S
C680 H699 0.930 . S
C681 C684 1.424 . S
C681 C686 1.245 . S
C681 C687 1.428 . S
C682 C685 1.260 . S
C682 C686 1.477 . S
C682 H700 0.932 . S
C683 C684 1.384 . S
C683 C685 1.479 . S
C683 H701 0.929 . S
C684 C681 1.424 . S
C684 C683 1.384 . S
C684 H702 0.928 . S
C685 C682 1.260 . S
C685 C683 1.479 . S
C686 C681 1.245 . S
C686 C682 1.477 . S
C686 H703 0.932 . S
C687 U670 2.882 . S
C687 C681 1.428 . S
C687 O690 1.301 . S
C687 O691 1.282 . S
O688 U670 2.441 . S
O688 C674 1.249 . S
O689 U670 2.420 . S
O689 C674 1.202 . S
O690 U670 2.455 . S
O690 C687 1.301 . S
O691 U670 2.449 . S
O691 C687 1.282 . S
H692 C665 0.931 . S
H693 C667 0.929 . S
H694 C668 0.930 . S
H695 C669 0.931 . S
H696 C676 0.932 . S
H697 C677 0.930 . S
H698 C678 0.929 . S
H699 C680 0.930 . S
H700 C682 0.932 . S
H701 C683 0.929 . S
H702 C684 0.928 . S
H703 C686 0.932 . S
C704 C705 1.264 . S
C704 C709 1.479 . S
C704 C714 1.465 . S
C705 C704 1.264 . S
C705 C707 1.339 . S
C705 H732 0.931 . S
C706 C707 1.395 . S
C706 C708 1.320 . S
C707 C705 1.339 . S
C707 C706 1.395 . S
C707 H733 0.929 . S
C708 C706 1.320 . S
C708 C709 1.405 . S
C708 H734 0.930 . S
C709 C704 1.479 . S
C709 C708 1.405 . S
C709 H735 0.931 . S
U710 O711 2.463 . S
U710 O712 2.473 . S
U710 C713 2.998 . S
U710 C714 2.833 1_455 S
U710 C727 2.883 . S
U710 O728 2.432 1_455 S
U710 O729 2.405 1_455 S
U710 O730 2.462 . S
U710 O731 2.443 1_455 S
O711 U710 2.463 . S
O711 C713 1.353 . S
O712 U710 2.473 . S
O712 C713 1.286 . S
C713 U710 2.998 . S
C713 O711 1.353 . S
C713 O712 1.286 . S
C713 C715 1.363 . S
C714 C704 1.465 . S
C714 U710 2.833 1_655 S
C714 O728 1.249 . S
C714 O729 1.202 . S
C715 C713 1.363 . S
C715 C717 1.408 . S
C715 C720 1.342 . S
C716 C717 1.310 . S
C716 C719 1.461 . S
C716 H736 0.932 . S
C717 C715 1.408 . S
C717 C716 1.310 . S
C717 H737 0.930 . S
C718 C719 1.474 . S
C718 C720 1.285 . S
C718 H738 0.929 . S
C719 C716 1.461 . S
C719 C718 1.474 . S
C720 C715 1.342 . S
C720 C718 1.285 . S
C720 H739 0.930 . S
C721 C724 1.424 1_455 S
C721 C726 1.245 . S
C721 C727 1.428 . S
C722 C725 1.260 . S
C722 C726 1.477 . S
C722 H740 0.932 . S
C723 C724 1.384 . S
C723 C725 1.479 1_655 S
C723 H741 0.929 . S
C724 C721 1.424 1_655 S
C724 C723 1.384 . S
C724 H742 0.928 . S
C725 C722 1.260 . S
C725 C723 1.479 1_455 S
C726 C721 1.245 . S
C726 C722 1.477 . S
C726 H743 0.932 . S
C727 U710 2.883 . S
C727 C721 1.428 . S
C727 O730 1.301 . S
C727 O731 1.282 1_455 S
O728 U710 2.432 1_655 S
O728 C714 1.249 . S
O729 U710 2.405 1_655 S
O729 C714 1.202 . S
O730 U710 2.462 . S
O730 C727 1.301 . S
O731 U710 2.443 1_655 S
O731 C727 1.282 1_655 S
H732 C705 0.931 . S
H733 C707 0.929 . S
H734 C708 0.930 . S
H735 C709 0.931 . S
H736 C716 0.932 . S
H737 C717 0.930 . S
H738 C718 0.929 . S
H739 C720 0.930 . S
H740 C722 0.932 . S
H741 C723 0.929 . S
H742 C724 0.928 . S
H743 C726 0.932 . S
C744 C745 1.264 . S
C744 C749 1.479 . S
C744 C754 1.465 . S
C745 C744 1.264 . S
C745 C747 1.339 . S
C745 H772 0.931 . S
C746 C747 1.395 . S
C746 C748 1.320 . S
C747 C745 1.339 . S
C747 C746 1.395 . S
C747 H773 0.929 . S
C748 C746 1.320 . S
C748 C749 1.405 . S
C748 H774 0.930 . S
C749 C744 1.479 . S
C749 C748 1.405 . S
C749 H775 0.931 . S
U750 O751 2.454 . S
U750 O752 2.458 . S
U750 C753 2.984 . S
U750 C754 2.847 . S
U750 C767 2.882 . S
U750 O768 2.441 . S
U750 O769 2.420 . S
U750 O770 2.455 . S
U750 O771 2.449 . S
O751 U750 2.454 . S
O751 C753 1.353 . S
O752 U750 2.458 . S
O752 C753 1.286 . S
C753 U750 2.984 . S
C753 O751 1.353 . S
C753 O752 1.286 . S
C753 C755 1.363 . S
C754 C744 1.465 . S
C754 U750 2.847 . S
C754 O768 1.249 . S
C754 O769 1.202 . S
C755 C753 1.363 . S
C755 C757 1.408 . S
C755 C760 1.342 . S
C756 C757 1.310 . S
C756 C759 1.461 . S
C756 H776 0.932 . S
C757 C755 1.408 . S
C757 C756 1.310 . S
C757 H777 0.930 . S
C758 C759 1.474 . S
C758 C760 1.285 . S
C758 H778 0.929 . S
C759 C756 1.461 . S
C759 C758 1.474 . S
C760 C755 1.342 . S
C760 C758 1.285 . S
C760 H779 0.930 . S
C761 C764 1.424 . S
C761 C766 1.245 . S
C761 C767 1.428 . S
C762 C765 1.260 . S
C762 C766 1.477 . S
C762 H780 0.932 . S
C763 C764 1.384 . S
C763 C765 1.479 . S
C763 H781 0.929 . S
C764 C761 1.424 . S
C764 C763 1.384 . S
C764 H782 0.928 . S
C765 C762 1.260 . S
C765 C763 1.479 . S
C766 C761 1.245 . S
C766 C762 1.477 . S
C766 H783 0.932 . S
C767 U750 2.882 . S
C767 C761 1.428 . S
C767 O770 1.301 . S
C767 O771 1.282 . S
O768 U750 2.441 . S
O768 C754 1.249 . S
O769 U750 2.420 . S
O769 C754 1.202 . S
O770 U750 2.455 . S
O770 C767 1.301 . S
O771 U750 2.449 . S
O771 C767 1.282 . S
H772 C745 0.931 . S
H773 C747 0.929 . S
H774 C748 0.930 . S
H775 C749 0.931 . S
H776 C756 0.932 . S
H777 C757 0.930 . S
H778 C758 0.929 . S
H779 C760 0.930 . S
H780 C762 0.932 . S
H781 C763 0.929 . S
H782 C764 0.928 . S
H783 C766 0.932 . S
C784 C785 1.264 . S
C784 C789 1.479 . S
C784 C794 1.465 . S
C785 C784 1.264 . S
C785 C787 1.339 . S
C785 H812 0.931 . S
C786 C787 1.395 . S
C786 C788 1.320 . S
C787 C785 1.339 . S
C787 C786 1.395 . S
C787 H813 0.929 . S
C788 C786 1.320 . S
C788 C789 1.405 . S
C788 H814 0.930 . S
C789 C784 1.479 . S
C789 C788 1.405 . S
C789 H815 0.931 . S
U790 O791 2.454 . S
U790 O792 2.458 . S
U790 C793 2.984 . S
U790 C794 2.847 . S
U790 C807 2.882 . S
U790 O808 2.441 . S
U790 O809 2.420 . S
U790 O810 2.455 . S
U790 O811 2.449 . S
O791 U790 2.454 . S
O791 C793 1.353 . S
O792 U790 2.458 . S
O792 C793 1.286 . S
C793 U790 2.984 . S
C793 O791 1.353 . S
C793 O792 1.286 . S
C793 C795 1.363 . S
C794 C784 1.465 . S
C794 U790 2.847 . S
C794 O808 1.249 . S
C794 O809 1.202 . S
C795 C793 1.363 . S
C795 C797 1.408 . S
C795 C800 1.342 . S
C796 C797 1.310 . S
C796 C799 1.461 . S
C796 H816 0.932 . S
C797 C795 1.408 . S
C797 C796 1.310 . S
C797 H817 0.930 . S
C798 C799 1.474 . S
C798 C800 1.285 . S
C798 H818 0.929 . S
C799 C796 1.461 . S
C799 C798 1.474 . S
C800 C795 1.342 . S
C800 C798 1.285 . S
C800 H819 0.930 . S
C801 C804 1.424 . S
C801 C806 1.245 . S
C801 C807 1.428 . S
C802 C805 1.260 . S
C802 C806 1.477 . S
C802 H820 0.932 . S
C803 C804 1.384 . S
C803 C805 1.479 . S
C803 H821 0.929 . S
C804 C801 1.424 . S
C804 C803 1.384 . S
C804 H822 0.928 . S
C805 C802 1.260 . S
C805 C803 1.479 . S
C806 C801 1.245 . S
C806 C802 1.477 . S
C806 H823 0.932 . S
C807 U790 2.882 . S
C807 C801 1.428 . S
C807 O810 1.301 . S
C807 O811 1.282 . S
O808 U790 2.441 . S
O808 C794 1.249 . S
O809 U790 2.420 . S
O809 C794 1.202 . S
O810 U790 2.455 . S
O810 C807 1.301 . S
O811 U790 2.449 . S
O811 C807 1.282 . S
H812 C785 0.931 . S
H813 C787 0.929 . S
H814 C788 0.930 . S
H815 C789 0.931 . S
H816 C796 0.932 . S
H817 C797 0.930 . S
H818 C798 0.929 . S
H819 C800 0.930 . S
H820 C802 0.932 . S
H821 C803 0.929 . S
H822 C804 0.928 . S
H823 C806 0.932 . S
C824 C825 1.264 . S
C824 C829 1.479 . S
C824 C834 1.465 . S
C825 C824 1.264 . S
C825 C827 1.339 . S
C825 H852 0.931 . S
C826 C827 1.395 . S
C826 C828 1.320 . S
C827 C825 1.339 . S
C827 C826 1.395 . S
C827 H853 0.929 . S
C828 C826 1.320 . S
C828 C829 1.405 . S
C828 H854 0.930 . S
C829 C824 1.479 . S
C829 C828 1.405 . S
C829 H855 0.931 . S
U830 O831 2.457 . S
U830 O832 2.464 . S
U830 C833 2.990 . S
U830 C834 2.842 1_565 S
U830 C847 2.883 . S
U830 O848 2.437 1_565 S
U830 O849 2.414 1_565 S
U830 O850 2.458 . S
U830 O851 2.447 1_565 S
O831 U830 2.457 . S
O831 C833 1.353 . S
O832 U830 2.464 . S
O832 C833 1.286 . S
C833 U830 2.990 . S
C833 O831 1.353 . S
C833 O832 1.286 . S
C833 C835 1.363 . S
C834 C824 1.465 . S
C834 U830 2.842 1_545 S
C834 O848 1.249 . S
C834 O849 1.202 . S
C835 C833 1.363 . S
C835 C837 1.408 . S
C835 C840 1.342 . S
C836 C837 1.310 . S
C836 C839 1.461 . S
C836 H856 0.932 . S
C837 C835 1.408 . S
C837 C836 1.310 . S
C837 H857 0.930 . S
C838 C839 1.474 . S
C838 C840 1.285 . S
C838 H858 0.929 . S
C839 C836 1.461 . S
C839 C838 1.474 . S
C840 C835 1.342 . S
C840 C838 1.285 . S
C840 H859 0.930 . S
C841 C844 1.424 1_565 S
C841 C846 1.245 . S
C841 C847 1.428 . S
C842 C845 1.260 . S
C842 C846 1.477 . S
C842 H860 0.932 . S
C843 C844 1.384 . S
C843 C845 1.479 1_545 S
C843 H861 0.929 . S
C844 C841 1.424 1_545 S
C844 C843 1.384 . S
C844 H862 0.928 . S
C845 C842 1.260 . S
C845 C843 1.479 1_565 S
C846 C841 1.245 . S
C846 C842 1.477 . S
C846 H863 0.932 . S
C847 U830 2.883 . S
C847 C841 1.428 . S
C847 O850 1.301 . S
C847 O851 1.282 1_565 S
O848 U830 2.437 1_545 S
O848 C834 1.249 . S
O849 U830 2.414 1_545 S
O849 C834 1.202 . S
O850 U830 2.458 . S
O850 C847 1.301 . S
O851 U830 2.447 1_545 S
O851 C847 1.282 1_545 S
H852 C825 0.931 . S
H853 C827 0.929 . S
H854 C828 0.930 . S
H855 C829 0.931 . S
H856 C836 0.932 . S
H857 C837 0.930 . S
H858 C838 0.929 . S
H859 C840 0.930 . S
H860 C842 0.932 . S
H861 C843 0.929 . S
H862 C844 0.928 . S
H863 C846 0.932 . S
C864 C865 1.264 . S
C864 C869 1.479 . S
C864 C874 1.465 . S
C865 C864 1.264 . S
C865 C867 1.339 . S
C865 H892 0.931 . S
C866 C867 1.395 . S
C866 C868 1.320 . S
C867 C865 1.339 . S
C867 C866 1.395 . S
C867 H893 0.929 . S
C868 C866 1.320 . S
C868 C869 1.405 . S
C868 H894 0.930 . S
C869 C864 1.479 . S
C869 C868 1.405 . S
C869 H895 0.931 . S
U870 O871 2.452 . S
U870 O872 2.454 . S
U870 C873 2.981 . S
U870 C874 2.851 1_545 S
U870 C887 2.885 1_545 S
U870 O888 2.443 1_545 S
U870 O889 2.425 1_545 S
U870 O890 2.453 . S
U870 O891 2.451 1_545 S
O871 U870 2.452 . S
O871 C873 1.353 . S
O872 U870 2.454 . S
O872 C873 1.286 . S
C873 U870 2.981 . S
C873 O871 1.353 . S
C873 O872 1.286 . S
C873 C875 1.363 . S
C874 C864 1.465 . S
C874 U870 2.851 1_565 S
C874 O888 1.249 . S
C874 O889 1.202 . S
C875 C873 1.363 . S
C875 C877 1.408 . S
C875 C880 1.342 . S
C876 C877 1.310 . S
C876 C879 1.461 . S
C876 H896 0.932 . S
C877 C875 1.408 . S
C877 C876 1.310 . S
C877 H897 0.930 . S
C878 C879 1.474 . S
C878 C880 1.285 . S
C878 H898 0.929 . S
C879 C876 1.461 . S
C879 C878 1.474 . S
C880 C875 1.342 . S
C880 C878 1.285 . S
C880 H899 0.930 . S
C881 C884 1.469 . S
C881 C886 1.201 1_565 S
C881 C887 1.428 . S
C882 C885 1.260 1_545 S
C882 C886 1.477 . S
C882 H900 0.932 . S
C883 C884 1.384 . S
C883 C885 1.479 . S
C883 H901 0.929 . S
C884 C881 1.469 . S
C884 C883 1.384 . S
C884 H902 0.928 . S
C885 C882 1.260 1_565 S
C885 C883 1.479 . S
C886 C881 1.201 1_545 S
C886 C882 1.477 . S
C886 H903 0.932 . S
C887 U870 2.885 1_565 S
C887 C881 1.428 . S
C887 O890 1.257 1_565 S
C887 O891 1.328 . S
O888 U870 2.443 1_565 S
O888 C874 1.249 . S
O889 U870 2.425 1_565 S
O889 C874 1.202 . S
O890 U870 2.453 . S
O890 C887 1.257 1_545 S
O891 U870 2.451 1_565 S
O891 C887 1.328 . S
H892 C865 0.931 . S
H893 C867 0.929 . S
H894 C868 0.930 . S
H895 C869 0.931 . S
H896 C876 0.932 . S
H897 C877 0.930 . S
H898 C878 0.929 . S
H899 C880 0.930 . S
H900 C882 0.932 . S
H901 C883 0.929 . S
H902 C884 0.928 . S
H903 C886 0.932 . S
C904 C905 1.264 . S
C904 C909 1.479 . S
C904 C914 1.465 . S
C905 C904 1.264 . S
C905 C907 1.339 . S
C905 H932 0.931 . S
C906 C907 1.395 . S
C906 C908 1.320 . S
C907 C905 1.339 . S
C907 C906 1.395 . S
C907 H933 0.929 . S
C908 C906 1.320 . S
C908 C909 1.405 . S
C908 H934 0.930 . S
C909 C904 1.479 . S
C909 C908 1.405 . S
C909 H935 0.931 . S
U910 O911 2.454 . S
U910 O912 2.458 . S
U910 C913 2.984 . S
U910 C914 2.847 . S
U910 C927 2.882 . S
U910 O928 2.441 . S
U910 O929 2.420 . S
U910 O930 2.455 . S
U910 O931 2.449 . S
O911 U910 2.454 . S
O911 C913 1.353 . S
O912 U910 2.458 . S
O912 C913 1.286 . S
C913 U910 2.984 . S
C913 O911 1.353 . S
C913 O912 1.286 . S
C913 C915 1.363 . S
C914 C904 1.465 . S
C914 U910 2.847 . S
C914 O928 1.249 . S
C914 O929 1.202 . S
C915 C913 1.363 . S
C915 C917 1.408 . S
C915 C920 1.342 . S
C916 C917 1.310 . S
C916 C919 1.461 . S
C916 H936 0.932 . S
C917 C915 1.408 . S
C917 C916 1.310 . S
C917 H937 0.930 . S
C918 C919 1.474 . S
C918 C920 1.285 . S
C918 H938 0.929 . S
C919 C916 1.461 . S
C919 C918 1.474 . S
C920 C915 1.342 . S
C920 C918 1.285 . S
C920 H939 0.930 . S
C921 C924 1.424 . S
C921 C926 1.245 . S
C921 C927 1.428 . S
C922 C925 1.260 . S
C922 C926 1.477 . S
C922 H940 0.932 . S
C923 C924 1.384 . S
C923 C925 1.479 . S
C923 H941 0.929 . S
C924 C921 1.424 . S
C924 C923 1.384 . S
C924 H942 0.928 . S
C925 C922 1.260 . S
C925 C923 1.479 . S
C926 C921 1.245 . S
C926 C922 1.477 . S
C926 H943 0.932 . S
C927 U910 2.882 . S
C927 C921 1.428 . S
C927 O930 1.301 . S
C927 O931 1.282 . S
O928 U910 2.441 . S
O928 C914 1.249 . S
O929 U910 2.420 . S
O929 C914 1.202 . S
O930 U910 2.455 . S
O930 C927 1.301 . S
O931 U910 2.449 . S
O931 C927 1.282 . S
H932 C905 0.931 . S
H933 C907 0.929 . S
H934 C908 0.930 . S
H935 C909 0.931 . S
H936 C916 0.932 . S
H937 C917 0.930 . S
H938 C918 0.929 . S
H939 C920 0.930 . S
H940 C922 0.932 . S
H941 C923 0.929 . S
H942 C924 0.928 . S
H943 C926 0.932 . S
C944 C945 1.264 . S
C944 C949 1.479 . S
C944 C954 1.465 . S
C945 C944 1.264 . S
C945 C947 1.339 . S
C945 H972 0.931 . S
C946 C947 1.395 . S
C946 C948 1.320 . S
C947 C945 1.339 . S
C947 C946 1.395 . S
C947 H973 0.929 . S
C948 C946 1.320 . S
C948 C949 1.405 . S
C948 H974 0.930 . S
C949 C944 1.479 . S
C949 C948 1.405 . S
C949 H975 0.931 . S
U950 O951 2.452 . S
U950 O952 2.454 . S
U950 C953 2.981 . S
U950 C954 2.851 1_554 S
U950 C967 2.885 1_554 S
U950 O968 2.443 1_554 S
U950 O969 2.425 1_554 S
U950 O970 2.453 . S
U950 O971 2.451 1_554 S
O951 U950 2.452 . S
O951 C953 1.353 . S
O952 U950 2.454 . S
O952 C953 1.286 . S
C953 U950 2.981 . S
C953 O951 1.353 . S
C953 O952 1.286 . S
C953 C955 1.363 . S
C954 C944 1.465 . S
C954 U950 2.851 1_556 S
C954 O968 1.249 . S
C954 O969 1.202 . S
C955 C953 1.363 . S
C955 C957 1.408 . S
C955 C960 1.342 . S
C956 C957 1.310 . S
C956 C959 1.461 . S
C956 H976 0.932 . S
C957 C955 1.408 . S
C957 C956 1.310 . S
C957 H977 0.930 . S
C958 C959 1.474 . S
C958 C960 1.285 . S
C958 H978 0.929 . S
C959 C956 1.461 . S
C959 C958 1.474 . S
C960 C955 1.342 . S
C960 C958 1.285 . S
C960 H979 0.930 . S
C961 C964 1.469 . S
C961 C966 1.201 1_556 S
C961 C967 1.428 . S
C962 C965 1.260 1_554 S
C962 C966 1.477 . S
C962 H980 0.932 . S
C963 C964 1.384 . S
C963 C965 1.479 . S
C963 H981 0.929 . S
C964 C961 1.469 . S
C964 C963 1.384 . S
C964 H982 0.928 . S
C965 C962 1.260 1_556 S
C965 C963 1.479 . S
C966 C961 1.201 1_554 S
C966 C962 1.477 . S
C966 H983 0.932 . S
C967 U950 2.885 1_556 S
C967 C961 1.428 . S
C967 O970 1.257 1_556 S
C967 O971 1.328 . S
O968 U950 2.443 1_556 S
O968 C954 1.249 . S
O969 U950 2.425 1_556 S
O969 C954 1.202 . S
O970 U950 2.453 . S
O970 C967 1.257 1_554 S
O971 U950 2.451 1_556 S
O971 C967 1.328 . S
H972 C945 0.931 . S
H973 C947 0.929 . S
H974 C948 0.930 . S
H975 C949 0.931 . S
H976 C956 0.932 . S
H977 C957 0.930 . S
H978 C958 0.929 . S
H979 C960 0.930 . S
H980 C962 0.932 . S
H981 C963 0.929 . S
H982 C964 0.928 . S
H983 C966 0.932 . S
C984 C985 1.264 . S
C984 C989 1.479 . S
C984 C994 1.465 . S
C985 C984 1.264 . S
C985 C987 1.339 . S
C985 H1012 0.931 . S
C986 C987 1.395 . S
C986 C988 1.320 . S
C987 C985 1.339 . S
C987 C986 1.395 . S
C987 H1013 0.929 . S
C988 C986 1.320 . S
C988 C989 1.405 . S
C988 H1014 0.930 . S
C989 C984 1.479 . S
C989 C988 1.405 . S
C989 H1015 0.931 . S
U990 O991 2.454 . S
U990 O992 2.458 . S
U990 C993 2.984 . S
U990 C994 2.847 . S
U990 C1007 2.882 . S
U990 O1008 2.441 . S
U990 O1009 2.420 . S
U990 O1010 2.455 . S
U990 O1011 2.449 . S
O991 U990 2.454 . S
O991 C993 1.353 . S
O992 U990 2.458 . S
O992 C993 1.286 . S
C993 U990 2.984 . S
C993 O991 1.353 . S
C993 O992 1.286 . S
C993 C995 1.363 . S
C994 C984 1.465 . S
C994 U990 2.847 . S
C994 O1008 1.249 . S
C994 O1009 1.202 . S
C995 C993 1.363 . S
C995 C997 1.408 . S
C995 C1000 1.342 . S
C996 C997 1.310 . S
C996 C999 1.461 . S
C996 H1016 0.932 . S
C997 C995 1.408 . S
C997 C996 1.310 . S
C997 H1017 0.930 . S
C998 C999 1.474 . S
C998 C1000 1.285 . S
C998 H1018 0.929 . S
C999 C996 1.461 . S
C999 C998 1.474 . S
C1000 C995 1.342 . S
C1000 C998 1.285 . S
C1000 H1019 0.930 . S
C1001 C1004 1.424 . S
C1001 C1006 1.245 . S
C1001 C1007 1.428 . S
C1002 C1005 1.260 . S
C1002 C1006 1.477 . S
C1002 H1020 0.932 . S
C1003 C1004 1.384 . S
C1003 C1005 1.479 . S
C1003 H1021 0.929 . S
C1004 C1001 1.424 . S
C1004 C1003 1.384 . S
C1004 H1022 0.928 . S
C1005 C1002 1.260 . S
C1005 C1003 1.479 . S
C1006 C1001 1.245 . S
C1006 C1002 1.477 . S
C1006 H1023 0.932 . S
C1007 U990 2.882 . S
C1007 C1001 1.428 . S
C1007 O1010 1.301 . S
C1007 O1011 1.282 . S
O1008 U990 2.441 . S
O1008 C994 1.249 . S
O1009 U990 2.420 . S
O1009 C994 1.202 . S
O1010 U990 2.455 . S
O1010 C1007 1.301 . S
O1011 U990 2.449 . S
O1011 C1007 1.282 . S
H1012 C985 0.931 . S
H1013 C987 0.929 . S
H1014 C988 0.930 . S
H1015 C989 0.931 . S
H1016 C996 0.932 . S
H1017 C997 0.930 . S
H1018 C998 0.929 . S
H1019 C1000 0.930 . S
H1020 C1002 0.932 . S
H1021 C1003 0.929 . S
H1022 C1004 0.928 . S
H1023 C1006 0.932 . S
C1024 C1025 1.264 . S
C1024 C1029 1.479 . S
C1024 C1034 1.465 . S
C1025 C1024 1.264 . S
C1025 C1027 1.339 . S
C1025 H1052 0.931 . S
C1026 C1027 1.395 . S
C1026 C1028 1.320 . S
C1027 C1025 1.339 . S
C1027 C1026 1.395 . S
C1027 H1053 0.929 . S
C1028 C1026 1.320 . S
C1028 C1029 1.405 . S
C1028 H1054 0.930 . S
C1029 C1024 1.479 . S
C1029 C1028 1.405 . S
C1029 H1055 0.931 . S
U1030 O1031 2.457 . S
U1030 O1032 2.464 . S
U1030 C1033 2.990 . S
U1030 C1034 2.842 1_556 S
U1030 C1047 2.883 . S
U1030 O1048 2.437 1_556 S
U1030 O1049 2.414 1_556 S
U1030 O1050 2.458 . S
U1030 O1051 2.447 1_556 S
O1031 U1030 2.457 . S
O1031 C1033 1.353 . S
O1032 U1030 2.464 . S
O1032 C1033 1.286 . S
C1033 U1030 2.990 . S
C1033 O1031 1.353 . S
C1033 O1032 1.286 . S
C1033 C1035 1.363 . S
C1034 C1024 1.465 . S
C1034 U1030 2.842 1_554 S
C1034 O1048 1.249 . S
C1034 O1049 1.202 . S
C1035 C1033 1.363 . S
C1035 C1037 1.408 . S
C1035 C1040 1.342 . S
C1036 C1037 1.310 . S
C1036 C1039 1.461 . S
C1036 H1056 0.932 . S
C1037 C1035 1.408 . S
C1037 C1036 1.310 . S
C1037 H1057 0.930 . S
C1038 C1039 1.474 . S
C1038 C1040 1.285 . S
C1038 H1058 0.929 . S
C1039 C1036 1.461 . S
C1039 C1038 1.474 . S
C1040 C1035 1.342 . S
C1040 C1038 1.285 . S
C1040 H1059 0.930 . S
C1041 C1044 1.424 1_556 S
C1041 C1046 1.245 . S
C1041 C1047 1.428 . S
C1042 C1045 1.260 . S
C1042 C1046 1.477 . S
C1042 H1060 0.932 . S
C1043 C1044 1.384 . S
C1043 C1045 1.479 1_554 S
C1043 H1061 0.929 . S
C1044 C1041 1.424 1_554 S
C1044 C1043 1.384 . S
C1044 H1062 0.928 . S
C1045 C1042 1.260 . S
C1045 C1043 1.479 1_556 S
C1046 C1041 1.245 . S
C1046 C1042 1.477 . S
C1046 H1063 0.932 . S
C1047 U1030 2.883 . S
C1047 C1041 1.428 . S
C1047 O1050 1.301 . S
C1047 O1051 1.282 1_556 S
O1048 U1030 2.437 1_554 S
O1048 C1034 1.249 . S
O1049 U1030 2.414 1_554 S
O1049 C1034 1.202 . S
O1050 U1030 2.458 . S
O1050 C1047 1.301 . S
O1051 U1030 2.447 1_554 S
O1051 C1047 1.282 1_554 S
H1052 C1025 0.931 . S
H1053 C1027 0.929 . S
H1054 C1028 0.930 . S
H1055 C1029 0.931 . S
H1056 C1036 0.932 . S
H1057 C1037 0.930 . S
H1058 C1038 0.929 . S
H1059 C1040 0.930 . S
H1060 C1042 0.932 . S
H1061 C1043 0.929 . S
H1062 C1044 0.928 . S
H1063 C1046 0.932 . S
C1064 C1065 1.264 . S
C1064 C1069 1.479 . S
C1064 C1074 1.465 . S
C1065 C1064 1.264 . S
C1065 C1067 1.339 . S
C1065 H1092 0.931 . S
C1066 C1067 1.395 . S
C1066 C1068 1.320 . S
C1067 C1065 1.339 . S
C1067 C1066 1.395 . S
C1067 H1093 0.929 . S
C1068 C1066 1.320 . S
C1068 C1069 1.405 . S
C1068 H1094 0.930 . S
C1069 C1064 1.479 . S
C1069 C1068 1.405 . S
C1069 H1095 0.931 . S
U1070 O1071 2.454 . S
U1070 O1072 2.458 . S
U1070 C1073 2.984 . S
U1070 C1074 2.847 . S
U1070 C1087 2.882 . S
U1070 O1088 2.441 . S
U1070 O1089 2.420 . S
U1070 O1090 2.455 . S
U1070 O1091 2.449 . S
O1071 U1070 2.454 . S
O1071 C1073 1.353 . S
O1072 U1070 2.458 . S
O1072 C1073 1.286 . S
C1073 U1070 2.984 . S
C1073 O1071 1.353 . S
C1073 O1072 1.286 . S
C1073 C1075 1.363 . S
C1074 C1064 1.465 . S
C1074 U1070 2.847 . S
C1074 O1088 1.249 . S
C1074 O1089 1.202 . S
C1075 C1073 1.363 . S
C1075 C1077 1.408 . S
C1075 C1080 1.342 . S
C1076 C1077 1.310 . S
C1076 C1079 1.461 . S
C1076 H1096 0.932 . S
C1077 C1075 1.408 . S
C1077 C1076 1.310 . S
C1077 H1097 0.930 . S
C1078 C1079 1.474 . S
C1078 C1080 1.285 . S
C1078 H1098 0.929 . S
C1079 C1076 1.461 . S
C1079 C1078 1.474 . S
C1080 C1075 1.342 . S
C1080 C1078 1.285 . S
C1080 H1099 0.930 . S
C1081 C1084 1.424 . S
C1081 C1086 1.245 . S
C1081 C1087 1.428 . S
C1082 C1085 1.260 . S
C1082 C1086 1.477 . S
C1082 H1100 0.932 . S
C1083 C1084 1.384 . S
C1083 C1085 1.479 . S
C1083 H1101 0.929 . S
C1084 C1081 1.424 . S
C1084 C1083 1.384 . S
C1084 H1102 0.928 . S
C1085 C1082 1.260 . S
C1085 C1083 1.479 . S
C1086 C1081 1.245 . S
C1086 C1082 1.477 . S
C1086 H1103 0.932 . S
C1087 U1070 2.882 . S
C1087 C1081 1.428 . S
C1087 O1090 1.301 . S
C1087 O1091 1.282 . S
O1088 U1070 2.441 . S
O1088 C1074 1.249 . S
O1089 U1070 2.420 . S
O1089 C1074 1.202 . S
O1090 U1070 2.455 . S
O1090 C1087 1.301 . S
O1091 U1070 2.449 . S
O1091 C1087 1.282 . S
H1092 C1065 0.931 . S
H1093 C1067 0.929 . S
H1094 C1068 0.930 . S
H1095 C1069 0.931 . S
H1096 C1076 0.932 . S
H1097 C1077 0.930 . S
H1098 C1078 0.929 . S
H1099 C1080 0.930 . S
H1100 C1082 0.932 . S
H1101 C1083 0.929 . S
H1102 C1084 0.928 . S
H1103 C1086 0.932 . S
C1104 C1105 1.264 . S
C1104 C1109 1.479 . S
C1104 C1114 1.465 . S
C1105 C1104 1.264 . S
C1105 C1107 1.339 . S
C1105 H1132 0.931 . S
C1106 C1107 1.395 . S
C1106 C1108 1.320 . S
C1107 C1105 1.339 . S
C1107 C1106 1.395 . S
C1107 H1133 0.929 . S
C1108 C1106 1.320 . S
C1108 C1109 1.405 . S
C1108 H1134 0.930 . S
C1109 C1104 1.479 . S
C1109 C1108 1.405 . S
C1109 H1135 0.931 . S
U1110 O1111 2.452 . S
U1110 O1112 2.454 . S
U1110 C1113 2.981 . S
U1110 C1114 2.851 1_455 S
U1110 C1127 2.885 1_455 S
U1110 O1128 2.443 1_455 S
U1110 O1129 2.425 1_455 S
U1110 O1130 2.453 . S
U1110 O1131 2.451 1_455 S
O1111 U1110 2.452 . S
O1111 C1113 1.353 . S
O1112 U1110 2.454 . S
O1112 C1113 1.286 . S
C1113 U1110 2.981 . S
C1113 O1111 1.353 . S
C1113 O1112 1.286 . S
C1113 C1115 1.363 . S
C1114 C1104 1.465 . S
C1114 U1110 2.851 1_655 S
C1114 O1128 1.249 . S
C1114 O1129 1.202 . S
C1115 C1113 1.363 . S
C1115 C1117 1.408 . S
C1115 C1120 1.342 . S
C1116 C1117 1.310 . S
C1116 C1119 1.461 . S
C1116 H1136 0.932 . S
C1117 C1115 1.408 . S
C1117 C1116 1.310 . S
C1117 H1137 0.930 . S
C1118 C1119 1.474 . S
C1118 C1120 1.285 . S
C1118 H1138 0.929 . S
C1119 C1116 1.461 . S
C1119 C1118 1.474 . S
C1120 C1115 1.342 . S
C1120 C1118 1.285 . S
C1120 H1139 0.930 . S
C1121 C1124 1.469 . S
C1121 C1126 1.201 1_655 S
C1121 C1127 1.428 . S
C1122 C1125 1.260 1_455 S
C1122 C1126 1.477 . S
C1122 H1140 0.932 . S
C1123 C1124 1.384 . S
C1123 C1125 1.479 . S
C1123 H1141 0.929 . S
C1124 C1121 1.469 . S
C1124 C1123 1.384 . S
C1124 H1142 0.928 . S
C1125 C1122 1.260 1_655 S
C1125 C1123 1.479 . S
C1126 C1121 1.201 1_455 S
C1126 C1122 1.477 . S
C1126 H1143 0.932 . S
C1127 U1110 2.885 1_655 S
C1127 C1121 1.428 . S
C1127 O1130 1.257 1_655 S
C1127 O1131 1.328 . S
O1128 U1110 2.443 1_655 S
O1128 C1114 1.249 . S
O1129 U1110 2.425 1_655 S
O1129 C1114 1.202 . S
O1130 U1110 2.453 . S
O1130 C1127 1.257 1_455 S
O1131 U1110 2.451 1_655 S
O1131 C1127 1.328 . S
H1132 C1105 0.931 . S
H1133 C1107 0.929 . S
H1134 C1108 0.930 . S
H1135 C1109 0.931 . S
H1136 C1116 0.932 . S
H1137 C1117 0.930 . S
H1138 C1118 0.929 . S
H1139 C1120 0.930 . S
H1140 C1122 0.932 . S
H1141 C1123 0.929 . S
H1142 C1124 0.928 . S
H1143 C1126 0.932 . S
C1144 C1145 1.264 . S
C1144 C1149 1.479 . S
C1144 C1154 1.465 . S
C1145 C1144 1.264 . S
C1145 C1147 1.339 . S
C1145 H1172 0.931 . S
C1146 C1147 1.395 . S
C1146 C1148 1.320 . S
C1147 C1145 1.339 . S
C1147 C1146 1.395 . S
C1147 H1173 0.929 . S
C1148 C1146 1.320 . S
C1148 C1149 1.405 . S
C1148 H1174 0.930 . S
C1149 C1144 1.479 . S
C1149 C1148 1.405 . S
C1149 H1175 0.931 . S
U1150 O1151 2.454 . S
U1150 O1152 2.458 . S
U1150 C1153 2.984 . S
U1150 C1154 2.847 . S
U1150 C1167 2.882 . S
U1150 O1168 2.441 . S
U1150 O1169 2.420 . S
U1150 O1170 2.455 . S
U1150 O1171 2.449 . S
O1151 U1150 2.454 . S
O1151 C1153 1.353 . S
O1152 U1150 2.458 . S
O1152 C1153 1.286 . S
C1153 U1150 2.984 . S
C1153 O1151 1.353 . S
C1153 O1152 1.286 . S
C1153 C1155 1.363 . S
C1154 C1144 1.465 . S
C1154 U1150 2.847 . S
C1154 O1168 1.249 . S
C1154 O1169 1.202 . S
C1155 C1153 1.363 . S
C1155 C1157 1.408 . S
C1155 C1160 1.342 . S
C1156 C1157 1.310 . S
C1156 C1159 1.461 . S
C1156 H1176 0.932 . S
C1157 C1155 1.408 . S
C1157 C1156 1.310 . S
C1157 H1177 0.930 . S
C1158 C1159 1.474 . S
C1158 C1160 1.285 . S
C1158 H1178 0.929 . S
C1159 C1156 1.461 . S
C1159 C1158 1.474 . S
C1160 C1155 1.342 . S
C1160 C1158 1.285 . S
C1160 H1179 0.930 . S
C1161 C1164 1.424 . S
C1161 C1166 1.245 . S
C1161 C1167 1.428 . S
C1162 C1165 1.260 . S
C1162 C1166 1.477 . S
C1162 H1180 0.932 . S
C1163 C1164 1.384 . S
C1163 C1165 1.479 . S
C1163 H1181 0.929 . S
C1164 C1161 1.424 . S
C1164 C1163 1.384 . S
C1164 H1182 0.928 . S
C1165 C1162 1.260 . S
C1165 C1163 1.479 . S
C1166 C1161 1.245 . S
C1166 C1162 1.477 . S
C1166 H1183 0.932 . S
C1167 U1150 2.882 . S
C1167 C1161 1.428 . S
C1167 O1170 1.301 . S
C1167 O1171 1.282 . S
O1168 U1150 2.441 . S
O1168 C1154 1.249 . S
O1169 U1150 2.420 . S
O1169 C1154 1.202 . S
O1170 U1150 2.455 . S
O1170 C1167 1.301 . S
O1171 U1150 2.449 . S
O1171 C1167 1.282 . S
H1172 C1145 0.931 . S
H1173 C1147 0.929 . S
H1174 C1148 0.930 . S
H1175 C1149 0.931 . S
H1176 C1156 0.932 . S
H1177 C1157 0.930 . S
H1178 C1158 0.929 . S
H1179 C1160 0.930 . S
H1180 C1162 0.932 . S
H1181 C1163 0.929 . S
H1182 C1164 0.928 . S
H1183 C1166 0.932 . S
C1184 C1185 1.264 . S
C1184 C1189 1.479 . S
C1184 C1194 1.465 . S
C1185 C1184 1.264 . S
C1185 C1187 1.339 . S
C1185 H1212 0.931 . S
C1186 C1187 1.395 . S
C1186 C1188 1.320 . S
C1187 C1185 1.339 . S
C1187 C1186 1.395 . S
C1187 H1213 0.929 . S
C1188 C1186 1.320 . S
C1188 C1189 1.405 . S
C1188 H1214 0.930 . S
C1189 C1184 1.479 . S
C1189 C1188 1.405 . S
C1189 H1215 0.931 . S
U1190 O1191 2.457 . S
U1190 O1192 2.464 . S
U1190 C1193 2.990 . S
U1190 C1194 2.842 1_655 S
U1190 C1207 2.883 . S
U1190 O1208 2.437 1_655 S
U1190 O1209 2.414 1_655 S
U1190 O1210 2.458 . S
U1190 O1211 2.447 1_655 S
O1191 U1190 2.457 . S
O1191 C1193 1.353 . S
O1192 U1190 2.464 . S
O1192 C1193 1.286 . S
C1193 U1190 2.990 . S
C1193 O1191 1.353 . S
C1193 O1192 1.286 . S
C1193 C1195 1.363 . S
C1194 C1184 1.465 . S
C1194 U1190 2.842 1_455 S
C1194 O1208 1.249 . S
C1194 O1209 1.202 . S
C1195 C1193 1.363 . S
C1195 C1197 1.408 . S
C1195 C1200 1.342 . S
C1196 C1197 1.310 . S
C1196 C1199 1.461 . S
C1196 H1216 0.932 . S
C1197 C1195 1.408 . S
C1197 C1196 1.310 . S
C1197 H1217 0.930 . S
C1198 C1199 1.474 . S
C1198 C1200 1.285 . S
C1198 H1218 0.929 . S
C1199 C1196 1.461 . S
C1199 C1198 1.474 . S
C1200 C1195 1.342 . S
C1200 C1198 1.285 . S
C1200 H1219 0.930 . S
C1201 C1204 1.424 1_655 S
C1201 C1206 1.245 . S
C1201 C1207 1.428 . S
C1202 C1205 1.260 . S
C1202 C1206 1.477 . S
C1202 H1220 0.932 . S
C1203 C1204 1.384 . S
C1203 C1205 1.479 1_455 S
C1203 H1221 0.929 . S
C1204 C1201 1.424 1_455 S
C1204 C1203 1.384 . S
C1204 H1222 0.928 . S
C1205 C1202 1.260 . S
C1205 C1203 1.479 1_655 S
C1206 C1201 1.245 . S
C1206 C1202 1.477 . S
C1206 H1223 0.932 . S
C1207 U1190 2.883 . S
C1207 C1201 1.428 . S
C1207 O1210 1.301 . S
C1207 O1211 1.282 1_655 S
O1208 U1190 2.437 1_455 S
O1208 C1194 1.249 . S
O1209 U1190 2.414 1_455 S
O1209 C1194 1.202 . S
O1210 U1190 2.458 . S
O1210 C1207 1.301 . S
O1211 U1190 2.447 1_455 S
O1211 C1207 1.282 1_455 S
H1212 C1185 0.931 . S
H1213 C1187 0.929 . S
H1214 C1188 0.930 . S
H1215 C1189 0.931 . S
H1216 C1196 0.932 . S
H1217 C1197 0.930 . S
H1218 C1198 0.929 . S
H1219 C1200 0.930 . S
H1220 C1202 0.932 . S
H1221 C1203 0.929 . S
H1222 C1204 0.928 . S
H1223 C1206 0.932 . S
H1224 C1236 0.930 . S
H1225 C1238 0.930 . S
H1226 C1239 0.930 . S
H1227 C1243 0.959 . S
H1228 C1243 0.959 . S
H1229 C1243 0.961 . S
H1230 C1244 0.960 . S
H1231 C1244 0.961 . S
H1232 C1244 0.959 . S
H1233 C1247 0.929 . S
H1234 C1248 0.931 . S
H1235 C1250 0.930 . S
C1236 H1224 0.930 . S
C1236 C1237 1.399 . S
C1236 C1241 1.399 . S
C1237 C1236 1.399 . S
C1237 C1238 1.376 . S
C1238 H1225 0.930 . S
C1238 C1237 1.376 . S
C1238 C1239 1.388 . S
C1239 H1226 0.930 . S
C1239 C1238 1.388 . S
C1239 C1240 1.390 . S
C1240 C1239 1.390 . S
C1240 C1241 1.394 . S
C1240 C1246 1.465 . S
C1241 C1236 1.399 . S
C1241 C1240 1.394 . S
C1241 C1242 1.516 . S
C1242 C1241 1.516 . S
C1242 C1243 1.502 . S
C1242 C1244 1.561 . S
C1242 C1245 1.526 . S
C1243 H1227 0.959 . S
C1243 H1228 0.959 . S
C1243 H1229 0.961 . S
C1243 C1242 1.502 . S
C1244 H1230 0.960 . S
C1244 H1231 0.961 . S
C1244 H1232 0.959 . S
C1244 C1242 1.561 . S
C1245 C1242 1.526 . S
C1245 C1246 1.396 . S
C1245 C1250 1.390 . S
C1246 C1240 1.465 . S
C1246 C1245 1.396 . S
C1246 C1247 1.399 . S
C1247 H1233 0.929 . S
C1247 C1246 1.399 . S
C1247 C1248 1.385 . S
C1248 H1234 0.931 . S
C1248 C1247 1.385 . S
C1248 C1249 1.389 . S
C1249 C1248 1.389 . S
C1249 C1250 1.387 . S
C1250 H1235 0.930 . S
C1250 C1245 1.390 . S
C1250 C1249 1.387 . S
H1251 C1263 0.930 . S
H1252 C1265 0.930 . S
H1253 C1266 0.930 . S
H1254 C1270 0.959 . S
H1255 C1270 0.959 . S
H1256 C1270 0.961 . S
H1257 C1271 0.960 . S
H1258 C1271 0.961 . S
H1259 C1271 0.959 . S
H1260 C1274 0.929 . S
H1261 C1275 0.931 . S
H1262 C1277 0.930 . S
C1263 H1251 0.930 . S
C1263 C1264 1.399 . S
C1263 C1268 1.399 . S
C1264 C1263 1.399 . S
C1264 C1265 1.376 . S
C1265 H1252 0.930 . S
C1265 C1264 1.376 . S
C1265 C1266 1.388 . S
C1266 H1253 0.930 . S
C1266 C1265 1.388 . S
C1266 C1267 1.390 . S
C1267 C1266 1.390 . S
C1267 C1268 1.394 . S
C1267 C1273 1.465 . S
C1268 C1263 1.399 . S
C1268 C1267 1.394 . S
C1268 C1269 1.516 . S
C1269 C1268 1.516 . S
C1269 C1270 1.502 . S
C1269 C1271 1.561 . S
C1269 C1272 1.526 . S
C1270 H1254 0.959 . S
C1270 H1255 0.959 . S
C1270 H1256 0.961 . S
C1270 C1269 1.502 . S
C1271 H1257 0.960 . S
C1271 H1258 0.961 . S
C1271 H1259 0.959 . S
C1271 C1269 1.561 . S
C1272 C1269 1.526 . S
C1272 C1273 1.396 . S
C1272 C1277 1.390 . S
C1273 C1267 1.465 . S
C1273 C1272 1.396 . S
C1273 C1274 1.399 . S
C1274 H1260 0.929 . S
C1274 C1273 1.399 . S
C1274 C1275 1.385 . S
C1275 H1261 0.931 . S
C1275 C1274 1.385 . S
C1275 C1276 1.389 . S
C1276 C1275 1.389 . S
C1276 C1277 1.387 . S
C1277 H1262 0.930 . S
C1277 C1272 1.390 . S
C1277 C1276 1.387 . S
H1278 C1290 0.930 . S
H1279 C1292 0.930 1_565 S
H1280 C1293 0.930 1_565 S
H1281 C1297 0.959 . S
H1282 C1297 0.959 . S
H1283 C1297 0.961 . S
H1284 C1298 0.960 . S
H1285 C1298 0.961 . S
H1286 C1298 0.959 . S
H1287 C1301 0.929 . S
H1288 C1302 0.931 . S
H1289 C1304 0.930 . S
C1290 H1278 0.930 . S
C1290 C1291 1.399 . S
C1290 C1295 1.399 . S
C1291 C1290 1.399 . S
C1291 C1292 1.376 . S
C1292 H1279 0.930 1_545 S
C1292 C1291 1.376 . S
C1292 C1293 1.388 . S
C1293 H1280 0.930 1_545 S
C1293 C1292 1.388 . S
C1293 C1294 1.390 . S
C1294 C1293 1.390 . S
C1294 C1295 1.394 . S
C1294 C1300 1.465 . S
C1295 C1290 1.399 . S
C1295 C1294 1.394 . S
C1295 C1296 1.516 . S
C1296 C1295 1.516 . S
C1296 C1297 1.502 . S
C1296 C1298 1.561 . S
C1296 C1299 1.526 . S
C1297 H1281 0.959 . S
C1297 H1282 0.959 . S
C1297 H1283 0.961 . S
C1297 C1296 1.502 . S
C1298 H1284 0.960 . S
C1298 H1285 0.961 . S
C1298 H1286 0.959 . S
C1298 C1296 1.561 . S
C1299 C1296 1.526 . S
C1299 C1300 1.396 . S
C1299 C1304 1.390 . S
C1300 C1294 1.465 . S
C1300 C1299 1.396 . S
C1300 C1301 1.399 . S
C1301 H1287 0.929 . S
C1301 C1300 1.399 . S
C1301 C1302 1.385 . S
C1302 H1288 0.931 . S
C1302 C1301 1.385 . S
C1302 C1303 1.389 . S
C1303 C1302 1.389 . S
C1303 C1304 1.387 . S
C1304 H1289 0.930 . S
C1304 C1299 1.390 . S
C1304 C1303 1.387 . S
H1305 C1317 0.930 . S
H1306 C1319 0.930 . S
H1307 C1320 0.930 . S
H1308 C1324 0.959 . S
H1309 C1324 0.959 . S
H1310 C1324 0.961 . S
H1311 C1325 0.960 . S
H1312 C1325 0.961 . S
H1313 C1325 0.959 . S
H1314 C1328 0.929 . S
H1315 C1329 0.931 . S
H1316 C1331 0.930 . S
C1317 H1305 0.930 . S
C1317 C1318 1.399 . S
C1317 C1322 1.399 . S
C1318 C1317 1.399 . S
C1318 C1319 1.376 . S
C1319 H1306 0.930 . S
C1319 C1318 1.376 . S
C1319 C1320 1.388 . S
C1320 H1307 0.930 . S
C1320 C1319 1.388 . S
C1320 C1321 1.390 . S
C1321 C1320 1.390 . S
C1321 C1322 1.394 . S
C1321 C1327 1.465 . S
C1322 C1317 1.399 . S
C1322 C1321 1.394 . S
C1322 C1323 1.516 . S
C1323 C1322 1.516 . S
C1323 C1324 1.502 . S
C1323 C1325 1.561 1_565 S
C1323 C1326 1.526 . S
C1324 H1308 0.959 . S
C1324 H1309 0.959 . S
C1324 H1310 0.961 . S
C1324 C1323 1.502 . S
C1325 H1311 0.960 . S
C1325 H1312 0.961 . S
C1325 H1313 0.959 . S
C1325 C1323 1.561 1_545 S
C1326 C1323 1.526 . S
C1326 C1327 1.396 . S
C1326 C1331 1.390 . S
C1327 C1321 1.465 . S
C1327 C1326 1.396 . S
C1327 C1328 1.399 . S
C1328 H1314 0.929 . S
C1328 C1327 1.399 . S
C1328 C1329 1.385 . S
C1329 H1315 0.931 . S
C1329 C1328 1.385 . S
C1329 C1330 1.389 . S
C1330 C1329 1.389 . S
C1330 C1331 1.387 . S
C1331 H1316 0.930 . S
C1331 C1326 1.390 . S
C1331 C1330 1.387 . S
H1332 C1344 0.930 . S
H1333 C1346 0.930 . S
H1334 C1347 0.930 . S
H1335 C1351 0.959 . S
H1336 C1351 0.959 . S
H1337 C1351 0.961 . S
H1338 C1352 0.960 . S
H1339 C1352 0.961 . S
H1340 C1352 0.959 . S
H1341 C1355 0.929 . S
H1342 C1356 0.931 . S
H1343 C1358 0.930 . S
C1344 H1332 0.930 . S
C1344 C1345 1.399 . S
C1344 C1349 1.399 . S
C1345 C1344 1.399 . S
C1345 C1346 1.376 . S
C1346 H1333 0.930 . S
C1346 C1345 1.376 . S
C1346 C1347 1.388 . S
C1347 H1334 0.930 . S
C1347 C1346 1.388 . S
C1347 C1348 1.390 . S
C1348 C1347 1.390 . S
C1348 C1349 1.394 . S
C1348 C1354 1.465 . S
C1349 C1344 1.399 . S
C1349 C1348 1.394 . S
C1349 C1350 1.516 . S
C1350 C1349 1.516 . S
C1350 C1351 1.502 . S
C1350 C1352 1.561 . S
C1350 C1353 1.526 . S
C1351 H1335 0.959 . S
C1351 H1336 0.959 . S
C1351 H1337 0.961 . S
C1351 C1350 1.502 . S
C1352 H1338 0.960 . S
C1352 H1339 0.961 . S
C1352 H1340 0.959 . S
C1352 C1350 1.561 . S
C1353 C1350 1.526 . S
C1353 C1354 1.396 . S
C1353 C1358 1.390 . S
C1354 C1348 1.465 . S
C1354 C1353 1.396 . S
C1354 C1355 1.399 . S
C1355 H1341 0.929 . S
C1355 C1354 1.399 . S
C1355 C1356 1.385 . S
C1356 H1342 0.931 . S
C1356 C1355 1.385 . S
C1356 C1357 1.389 . S
C1357 C1356 1.389 . S
C1357 C1358 1.387 . S
C1358 H1343 0.930 . S
C1358 C1353 1.390 . S
C1358 C1357 1.387 . S
H1359 C1371 0.933 . S
H1360 C1373 0.930 . S
H1361 C1374 0.930 . S
H1362 C1378 0.963 . S
H1363 C1378 0.959 . S
H1364 C1378 0.961 . S
H1365 C1379 0.960 . S
H1366 C1379 0.961 . S
H1367 C1379 0.959 . S
H1368 C1382 0.929 . S
H1369 C1383 0.931 . S
H1370 C1385 0.930 . S
C1371 H1359 0.933 . S
C1371 C1372 1.397 1_554 S
C1371 C1376 1.398 1_554 S
C1372 C1371 1.397 1_556 S
C1372 C1373 1.376 . S
C1373 H1360 0.930 . S
C1373 C1372 1.376 . S
C1373 C1374 1.388 . S
C1374 H1361 0.930 . S
C1374 C1373 1.388 . S
C1374 C1375 1.390 . S
C1375 C1374 1.390 . S
C1375 C1376 1.394 . S
C1375 C1381 1.465 . S
C1376 C1371 1.398 1_556 S
C1376 C1375 1.394 . S
C1376 C1377 1.516 1_556 S
C1377 C1376 1.516 1_554 S
C1377 C1378 1.502 . S
C1377 C1379 1.561 . S
C1377 C1380 1.526 1_554 S
C1378 H1362 0.963 . S
C1378 H1363 0.959 . S
C1378 H1364 0.961 . S
C1378 C1377 1.502 . S
C1379 H1365 0.960 . S
C1379 H1366 0.961 . S
C1379 H1367 0.959 . S
C1379 C1377 1.561 . S
C1380 C1377 1.526 1_556 S
C1380 C1381 1.396 . S
C1380 C1385 1.390 . S
C1381 C1375 1.465 . S
C1381 C1380 1.396 . S
C1381 C1382 1.399 . S
C1382 H1368 0.929 . S
C1382 C1381 1.399 . S
C1382 C1383 1.385 . S
C1383 H1369 0.931 . S
C1383 C1382 1.385 . S
C1383 C1384 1.389 . S
C1384 C1383 1.389 . S
C1384 C1385 1.387 . S
C1385 H1370 0.930 . S
C1385 C1380 1.390 . S
C1385 C1384 1.387 . S
H1386 C1398 0.930 . S
H1387 C1400 0.930 . S
H1388 C1401 0.930 . S
H1389 C1405 0.959 . S
H1390 C1405 0.959 . S
H1391 C1405 0.961 . S
H1392 C1406 0.960 . S
H1393 C1406 0.961 . S
H1394 C1406 0.959 . S
H1395 C1409 0.929 . S
H1396 C1410 0.931 . S
H1397 C1412 0.930 . S
C1398 H1386 0.930 . S
C1398 C1399 1.399 . S
C1398 C1403 1.399 . S
C1399 C1398 1.399 . S
C1399 C1400 1.376 . S
C1400 H1387 0.930 . S
C1400 C1399 1.376 . S
C1400 C1401 1.388 . S
C1401 H1388 0.930 . S
C1401 C1400 1.388 . S
C1401 C1402 1.390 . S
C1402 C1401 1.390 . S
C1402 C1403 1.394 . S
C1402 C1408 1.465 . S
C1403 C1398 1.399 . S
C1403 C1402 1.394 . S
C1403 C1404 1.516 . S
C1404 C1403 1.516 . S
C1404 C1405 1.502 . S
C1404 C1406 1.561 . S
C1404 C1407 1.526 . S
C1405 H1389 0.959 . S
C1405 H1390 0.959 . S
C1405 H1391 0.961 . S
C1405 C1404 1.502 . S
C1406 H1392 0.960 . S
C1406 H1393 0.961 . S
C1406 H1394 0.959 . S
C1406 C1404 1.561 . S
C1407 C1404 1.526 . S
C1407 C1408 1.396 . S
C1407 C1412 1.390 . S
C1408 C1402 1.465 . S
C1408 C1407 1.396 . S
C1408 C1409 1.399 . S
C1409 H1395 0.929 . S
C1409 C1408 1.399 . S
C1409 C1410 1.385 . S
C1410 H1396 0.931 . S
C1410 C1409 1.385 . S
C1410 C1411 1.389 . S
C1411 C1410 1.389 . S
C1411 C1412 1.387 . S
C1412 H1397 0.930 . S
C1412 C1407 1.390 . S
C1412 C1411 1.387 . S
H1413 C1425 0.930 . S
H1414 C1427 0.930 . S
H1415 C1428 0.930 . S
H1416 C1432 0.959 . S
H1417 C1432 0.959 . S
H1418 C1432 0.961 . S
H1419 C1433 0.960 . S
H1420 C1433 0.961 . S
H1421 C1433 0.959 . S
H1422 C1436 0.929 . S
H1423 C1437 0.931 . S
H1424 C1439 0.930 . S
C1425 H1413 0.930 . S
C1425 C1426 1.399 . S
C1425 C1430 1.399 . S
C1426 C1425 1.399 . S
C1426 C1427 1.376 1_554 S
C1427 H1414 0.930 . S
C1427 C1426 1.376 1_556 S
C1427 C1428 1.388 . S
C1428 H1415 0.930 . S
C1428 C1427 1.388 . S
C1428 C1429 1.390 1_556 S
C1429 C1428 1.390 1_554 S
C1429 C1430 1.394 . S
C1429 C1435 1.465 . S
C1430 C1425 1.399 . S
C1430 C1429 1.394 . S
C1430 C1431 1.516 . S
C1431 C1430 1.516 . S
C1431 C1432 1.502 . S
C1431 C1433 1.561 . S
C1431 C1434 1.526 . S
C1432 H1416 0.959 . S
C1432 H1417 0.959 . S
C1432 H1418 0.961 . S
C1432 C1431 1.502 . S
C1433 H1419 0.960 . S
C1433 H1420 0.961 . S
C1433 H1421 0.959 . S
C1433 C1431 1.561 . S
C1434 C1431 1.526 . S
C1434 C1435 1.396 . S
C1434 C1439 1.390 . S
C1435 C1429 1.465 . S
C1435 C1434 1.396 . S
C1435 C1436 1.399 1_554 S
C1436 H1422 0.929 . S
C1436 C1435 1.399 1_556 S
C1436 C1437 1.385 . S
C1437 H1423 0.931 . S
C1437 C1436 1.385 . S
C1437 C1438 1.389 1_556 S
C1438 C1437 1.389 1_554 S
C1438 C1439 1.387 . S
C1439 H1424 0.930 . S
C1439 C1434 1.390 . S
C1439 C1438 1.387 . S
H1440 C1452 0.930 . S
H1441 C1454 0.930 . S
H1442 C1455 0.930 . S
H1443 C1459 0.959 . S
H1444 C1459 0.959 . S
H1445 C1459 0.961 . S
H1446 C1460 0.960 . S
H1447 C1460 0.961 . S
H1448 C1460 0.959 . S
H1449 C1463 0.929 . S
H1450 C1464 0.931 . S
H1451 C1466 0.930 . S
C1452 H1440 0.930 . S
C1452 C1453 1.399 . S
C1452 C1457 1.399 . S
C1453 C1452 1.399 . S
C1453 C1454 1.376 . S
C1454 H1441 0.930 . S
C1454 C1453 1.376 . S
C1454 C1455 1.388 . S
C1455 H1442 0.930 . S
C1455 C1454 1.388 . S
C1455 C1456 1.390 . S
C1456 C1455 1.390 . S
C1456 C1457 1.394 . S
C1456 C1462 1.465 . S
C1457 C1452 1.399 . S
C1457 C1456 1.394 . S
C1457 C1458 1.516 . S
C1458 C1457 1.516 . S
C1458 C1459 1.502 . S
C1458 C1460 1.561 . S
C1458 C1461 1.526 . S
C1459 H1443 0.959 . S
C1459 H1444 0.959 . S
C1459 H1445 0.961 . S
C1459 C1458 1.502 . S
C1460 H1446 0.960 . S
C1460 H1447 0.961 . S
C1460 H1448 0.959 . S
C1460 C1458 1.561 . S
C1461 C1458 1.526 . S
C1461 C1462 1.396 . S
C1461 C1466 1.390 . S
C1462 C1456 1.465 . S
C1462 C1461 1.396 . S
C1462 C1463 1.399 . S
C1463 H1449 0.929 . S
C1463 C1462 1.399 . S
C1463 C1464 1.385 . S
C1464 H1450 0.931 . S
C1464 C1463 1.385 . S
C1464 C1465 1.389 . S
C1465 C1464 1.389 . S
C1465 C1466 1.387 . S
C1466 H1451 0.930 . S
C1466 C1461 1.390 . S
C1466 C1465 1.387 . S
H1467 C1479 0.930 . S
H1468 C1481 0.930 . S
H1469 C1482 0.930 . S
H1470 C1486 0.959 . S
H1471 C1486 0.959 . S
H1472 C1486 0.961 . S
H1473 C1487 0.960 . S
H1474 C1487 0.961 . S
H1475 C1487 0.959 . S
H1476 C1490 0.929 1_455 S
H1477 C1491 0.931 . S
H1478 C1493 0.930 . S
C1479 H1467 0.930 . S
C1479 C1480 1.399 . S
C1479 C1484 1.399 . S
C1480 C1479 1.399 . S
C1480 C1481 1.376 1_655 S
C1481 H1468 0.930 . S
C1481 C1480 1.376 1_455 S
C1481 C1482 1.388 . S
C1482 H1469 0.930 . S
C1482 C1481 1.388 . S
C1482 C1483 1.390 1_455 S
C1483 C1482 1.390 1_655 S
C1483 C1484 1.394 . S
C1483 C1489 1.465 . S
C1484 C1479 1.399 . S
C1484 C1483 1.394 . S
C1484 C1485 1.516 . S
C1485 C1484 1.516 . S
C1485 C1486 1.502 . S
C1485 C1487 1.561 . S
C1485 C1488 1.526 . S
C1486 H1470 0.959 . S
C1486 H1471 0.959 . S
C1486 H1472 0.961 . S
C1486 C1485 1.502 . S
C1487 H1473 0.960 . S
C1487 H1474 0.961 . S
C1487 H1475 0.959 . S
C1487 C1485 1.561 . S
C1488 C1485 1.526 . S
C1488 C1489 1.396 . S
C1488 C1493 1.390 . S
C1489 C1483 1.465 . S
C1489 C1488 1.396 . S
C1489 C1490 1.399 . S
C1490 H1476 0.929 1_655 S
C1490 C1489 1.399 . S
C1490 C1491 1.385 . S
C1491 H1477 0.931 . S
C1491 C1490 1.385 . S
C1491 C1492 1.389 . S
C1492 C1491 1.389 . S
C1492 C1493 1.387 . S
C1493 H1478 0.930 . S
C1493 C1488 1.390 . S
C1493 C1492 1.387 . S
H1494 C1506 0.930 . S
H1495 C1508 0.930 . S
H1496 C1509 0.930 . S
H1497 C1513 0.959 . S
H1498 C1513 0.959 . S
H1499 C1513 0.961 . S
H1500 C1514 0.960 . S
H1501 C1514 0.961 . S
H1502 C1514 0.959 . S
H1503 C1517 0.929 . S
H1504 C1518 0.931 . S
H1505 C1520 0.930 . S
C1506 H1494 0.930 . S
C1506 C1507 1.399 . S
C1506 C1511 1.399 . S
C1507 C1506 1.399 . S
C1507 C1508 1.376 . S
C1508 H1495 0.930 . S
C1508 C1507 1.376 . S
C1508 C1509 1.388 . S
C1509 H1496 0.930 . S
C1509 C1508 1.388 . S
C1509 C1510 1.390 . S
C1510 C1509 1.390 . S
C1510 C1511 1.394 . S
C1510 C1516 1.465 . S
C1511 C1506 1.399 . S
C1511 C1510 1.394 . S
C1511 C1512 1.516 . S
C1512 C1511 1.516 . S
C1512 C1513 1.502 . S
C1512 C1514 1.561 . S
C1512 C1515 1.526 . S
C1513 H1497 0.959 . S
C1513 H1498 0.959 . S
C1513 H1499 0.961 . S
C1513 C1512 1.502 . S
C1514 H1500 0.960 . S
C1514 H1501 0.961 . S
C1514 H1502 0.959 . S
C1514 C1512 1.561 . S
C1515 C1512 1.526 . S
C1515 C1516 1.396 . S
C1515 C1520 1.390 . S
C1516 C1510 1.465 . S
C1516 C1515 1.396 . S
C1516 C1517 1.399 . S
C1517 H1503 0.929 . S
C1517 C1516 1.399 . S
C1517 C1518 1.385 . S
C1518 H1504 0.931 . S
C1518 C1517 1.385 . S
C1518 C1519 1.389 . S
C1519 C1518 1.389 . S
C1519 C1520 1.387 . S
C1520 H1505 0.930 . S
C1520 C1515 1.390 . S
C1520 C1519 1.387 . S
H1521 C1533 0.930 . S
H1522 C1535 0.930 . S
H1523 C1536 0.930 . S
H1524 C1540 0.959 . S
H1525 C1540 0.959 . S
H1526 C1540 0.961 . S
H1527 C1541 0.960 . S
H1528 C1541 0.961 . S
H1529 C1541 0.959 . S
H1530 C1544 0.929 . S
H1531 C1545 0.931 . S
H1532 C1547 0.930 . S
C1533 H1521 0.930 . S
C1533 C1534 1.399 . S
C1533 C1538 1.399 . S
C1534 C1533 1.399 . S
C1534 C1535 1.376 1_455 S
C1535 H1522 0.930 . S
C1535 C1534 1.376 1_655 S
C1535 C1536 1.388 . S
C1536 H1523 0.930 . S
C1536 C1535 1.388 . S
C1536 C1537 1.390 1_655 S
C1537 C1536 1.390 1_455 S
C1537 C1538 1.394 . S
C1537 C1543 1.465 . S
C1538 C1533 1.399 . S
C1538 C1537 1.394 . S
C1538 C1539 1.516 . S
C1539 C1538 1.516 . S
C1539 C1540 1.502 . S
C1539 C1541 1.561 . S
C1539 C1542 1.526 . S
C1540 H1524 0.959 . S
C1540 H1525 0.959 . S
C1540 H1526 0.961 . S
C1540 C1539 1.502 . S
C1541 H1527 0.960 . S
C1541 H1528 0.961 . S
C1541 H1529 0.959 . S
C1541 C1539 1.561 . S
C1542 C1539 1.526 . S
C1542 C1543 1.396 . S
C1542 C1547 1.390 . S
C1543 C1537 1.465 . S
C1543 C1542 1.396 . S
C1543 C1544 1.399 1_455 S
C1544 H1530 0.929 . S
C1544 C1543 1.399 1_655 S
C1544 C1545 1.385 . S
C1545 H1531 0.931 . S
C1545 C1544 1.385 . S
C1545 C1546 1.389 1_655 S
C1546 C1545 1.389 1_455 S
C1546 C1547 1.387 . S
C1547 H1532 0.930 . S
C1547 C1542 1.390 . S
C1547 C1546 1.387 . S
H1548 C1560 0.930 . S
H1549 C1562 0.930 . S
H1550 C1563 0.930 . S
H1551 C1567 0.959 . S
H1552 C1567 0.959 . S
H1553 C1567 0.961 . S
H1554 C1568 0.960 . S
H1555 C1568 0.961 . S
H1556 C1568 0.959 . S
H1557 C1571 0.929 . S
H1558 C1572 0.931 . S
H1559 C1574 0.930 . S
C1560 H1548 0.930 . S
C1560 C1561 1.399 . S
C1560 C1565 1.399 . S
C1561 C1560 1.399 . S
C1561 C1562 1.376 . S
C1562 H1549 0.930 . S
C1562 C1561 1.376 . S
C1562 C1563 1.388 . S
C1563 H1550 0.930 . S
C1563 C1562 1.388 . S
C1563 C1564 1.390 . S
C1564 C1563 1.390 . S
C1564 C1565 1.394 . S
C1564 C1570 1.465 . S
C1565 C1560 1.399 . S
C1565 C1564 1.394 . S
C1565 C1566 1.516 . S
C1566 C1565 1.516 . S
C1566 C1567 1.502 . S
C1566 C1568 1.561 . S
C1566 C1569 1.526 . S
C1567 H1551 0.959 . S
C1567 H1552 0.959 . S
C1567 H1553 0.961 . S
C1567 C1566 1.502 . S
C1568 H1554 0.960 . S
C1568 H1555 0.961 . S
C1568 H1556 0.959 . S
C1568 C1566 1.561 . S
C1569 C1566 1.526 . S
C1569 C1570 1.396 . S
C1569 C1574 1.390 . S
C1570 C1564 1.465 . S
C1570 C1569 1.396 . S
C1570 C1571 1.399 . S
C1571 H1557 0.929 . S
C1571 C1570 1.399 . S
C1571 C1572 1.385 . S
C1572 H1558 0.931 . S
C1572 C1571 1.385 . S
C1572 C1573 1.389 . S
C1573 C1572 1.389 . S
C1573 C1574 1.387 . S
C1574 H1559 0.930 . S
C1574 C1569 1.390 . S
C1574 C1573 1.387 . S
H1575 C1587 0.930 . S
H1576 C1589 0.930 . S
H1577 C1590 0.930 . S
H1578 C1594 0.959 . S
H1579 C1594 0.959 . S
H1580 C1594 0.961 . S
H1581 C1595 0.960 . S
H1582 C1595 0.961 . S
H1583 C1595 0.959 . S
H1584 C1598 0.929 . S
H1585 C1599 0.931 . S
H1586 C1601 0.930 . S
C1587 H1575 0.930 . S
C1587 C1588 1.399 . S
C1587 C1592 1.399 . S
C1588 C1587 1.399 . S
C1588 C1589 1.376 . S
C1589 H1576 0.930 . S
C1589 C1588 1.376 . S
C1589 C1590 1.388 . S
C1590 H1577 0.930 . S
C1590 C1589 1.388 . S
C1590 C1591 1.390 . S
C1591 C1590 1.390 . S
C1591 C1592 1.394 . S
C1591 C1597 1.465 . S
C1592 C1587 1.399 . S
C1592 C1591 1.394 . S
C1592 C1593 1.516 . S
C1593 C1592 1.516 . S
C1593 C1594 1.502 . S
C1593 C1595 1.561 . S
C1593 C1596 1.526 . S
C1594 H1578 0.959 . S
C1594 H1579 0.959 . S
C1594 H1580 0.961 . S
C1594 C1593 1.502 . S
C1595 H1581 0.960 . S
C1595 H1582 0.961 . S
C1595 H1583 0.959 . S
C1595 C1593 1.561 . S
C1596 C1593 1.526 . S
C1596 C1597 1.396 . S
C1596 C1601 1.390 . S
C1597 C1591 1.465 . S
C1597 C1596 1.396 . S
C1597 C1598 1.399 . S
C1598 H1584 0.929 . S
C1598 C1597 1.399 . S
C1598 C1599 1.385 . S
C1599 H1585 0.931 . S
C1599 C1598 1.385 . S
C1599 C1600 1.389 . S
C1600 C1599 1.389 . S
C1600 C1601 1.387 . S
C1601 H1586 0.930 . S
C1601 C1596 1.390 . S
C1601 C1600 1.387 . S
H1602 C1614 0.930 . S
H1603 C1616 0.930 . S
H1604 C1617 0.930 . S
H1605 C1621 0.959 . S
H1606 C1621 0.959 . S
H1607 C1621 0.961 . S
H1608 C1622 0.960 . S
H1609 C1622 0.961 . S
H1610 C1622 0.959 . S
H1611 C1625 0.929 . S
H1612 C1626 0.931 . S
H1613 C1628 0.930 1_545 S
C1614 H1602 0.930 . S
C1614 C1615 1.399 1_545 S
C1614 C1619 1.399 1_545 S
C1615 C1614 1.399 1_565 S
C1615 C1616 1.376 . S
C1616 H1603 0.930 . S
C1616 C1615 1.376 . S
C1616 C1617 1.388 . S
C1617 H1604 0.930 . S
C1617 C1616 1.388 . S
C1617 C1618 1.390 . S
C1618 C1617 1.390 . S
C1618 C1619 1.394 . S
C1618 C1624 1.465 . S
C1619 C1614 1.399 1_565 S
C1619 C1618 1.394 . S
C1619 C1620 1.516 1_565 S
C1620 C1619 1.516 1_545 S
C1620 C1621 1.502 . S
C1620 C1622 1.561 . S
C1620 C1623 1.526 1_545 S
C1621 H1605 0.959 . S
C1621 H1606 0.959 . S
C1621 H1607 0.961 . S
C1621 C1620 1.502 . S
C1622 H1608 0.960 . S
C1622 H1609 0.961 . S
C1622 H1610 0.959 . S
C1622 C1620 1.561 . S
C1623 C1620 1.526 1_565 S
C1623 C1624 1.396 . S
C1623 C1628 1.390 . S
C1624 C1618 1.465 . S
C1624 C1623 1.396 . S
C1624 C1625 1.399 . S
C1625 H1611 0.929 . S
C1625 C1624 1.399 . S
C1625 C1626 1.385 . S
C1626 H1612 0.931 . S
C1626 C1625 1.385 . S
C1626 C1627 1.389 . S
C1627 C1626 1.389 . S
C1627 C1628 1.387 . S
C1628 H1613 0.930 1_565 S
C1628 C1623 1.390 . S
C1628 C1627 1.387 . S
H1629 C1641 0.919 1_565 S
H1630 C1643 0.930 . S
H1631 C1644 0.930 . S
H1632 C1648 0.959 . S
H1633 C1648 0.959 . S
H1634 C1648 0.961 . S
H1635 C1649 0.960 . S
H1636 C1649 0.961 . S
H1637 C1649 0.959 . S
H1638 C1652 0.929 . S
H1639 C1653 0.931 . S
H1640 C1655 0.930 . S
C1641 H1629 0.919 1_545 S
C1641 C1642 1.399 . S
C1641 C1646 1.399 . S
C1642 C1641 1.399 . S
C1642 C1643 1.376 . S
C1643 H1630 0.930 . S
C1643 C1642 1.376 . S
C1643 C1644 1.388 . S
C1644 H1631 0.930 . S
C1644 C1643 1.388 . S
C1644 C1645 1.390 . S
C1645 C1644 1.390 . S
C1645 C1646 1.394 . S
C1645 C1651 1.465 . S
C1646 C1641 1.399 . S
C1646 C1645 1.394 . S
C1646 C1647 1.516 . S
C1647 C1646 1.516 . S
C1647 C1648 1.502 1_545 S
C1647 C1649 1.561 . S
C1647 C1650 1.526 . S
C1648 H1632 0.959 . S
C1648 H1633 0.959 . S
C1648 H1634 0.961 . S
C1648 C1647 1.502 1_565 S
C1649 H1635 0.960 . S
C1649 H1636 0.961 . S
C1649 H1637 0.959 . S
C1649 C1647 1.561 . S
C1650 C1647 1.526 . S
C1650 C1651 1.396 . S
C1650 C1655 1.390 . S
C1651 C1645 1.465 . S
C1651 C1650 1.396 . S
C1651 C1652 1.399 . S
C1652 H1638 0.929 . S
C1652 C1651 1.399 . S
C1652 C1653 1.385 . S
C1653 H1639 0.931 . S
C1653 C1652 1.385 . S
C1653 C1654 1.389 . S
C1654 C1653 1.389 . S
C1654 C1655 1.387 . S
C1655 H1640 0.930 . S
C1655 C1650 1.390 . S
C1655 C1654 1.387 . S
H1656 C1668 0.930 . S
H1657 C1670 0.930 . S
H1658 C1671 0.930 . S
H1659 C1675 0.959 . S
H1660 C1675 0.959 . S
H1661 C1675 0.961 . S
H1662 C1676 0.960 . S
H1663 C1676 0.961 . S
H1664 C1676 0.959 . S
H1665 C1679 0.929 . S
H1666 C1680 0.931 . S
H1667 C1682 0.930 . S
C1668 H1656 0.930 . S
C1668 C1669 1.399 . S
C1668 C1673 1.399 . S
C1669 C1668 1.399 . S
C1669 C1670 1.376 . S
C1670 H1657 0.930 . S
C1670 C1669 1.376 . S
C1670 C1671 1.388 . S
C1671 H1658 0.930 . S
C1671 C1670 1.388 . S
C1671 C1672 1.390 . S
C1672 C1671 1.390 . S
C1672 C1673 1.394 . S
C1672 C1678 1.465 . S
C1673 C1668 1.399 . S
C1673 C1672 1.394 . S
C1673 C1674 1.516 . S
C1674 C1673 1.516 . S
C1674 C1675 1.502 . S
C1674 C1676 1.561 . S
C1674 C1677 1.526 . S
C1675 H1659 0.959 . S
C1675 H1660 0.959 . S
C1675 H1661 0.961 . S
C1675 C1674 1.502 . S
C1676 H1662 0.960 . S
C1676 H1663 0.961 . S
C1676 H1664 0.959 . S
C1676 C1674 1.561 . S
C1677 C1674 1.526 . S
C1677 C1678 1.396 . S
C1677 C1682 1.390 . S
C1678 C1672 1.465 . S
C1678 C1677 1.396 . S
C1678 C1679 1.399 . S
C1679 H1665 0.929 . S
C1679 C1678 1.399 . S
C1679 C1680 1.385 . S
C1680 H1666 0.931 . S
C1680 C1679 1.385 . S
C1680 C1681 1.389 . S
C1681 C1680 1.389 . S
C1681 C1682 1.387 . S
C1682 H1667 0.930 . S
C1682 C1677 1.390 . S
C1682 C1681 1.387 . S
H1683 C1695 0.930 1_556 S
H1684 C1697 0.930 . S
H1685 C1698 0.930 . S
H1686 C1702 0.959 . S
H1687 C1702 0.959 . S
H1688 C1702 0.961 . S
H1689 C1703 0.943 1_556 S
H1690 C1703 0.961 . S
H1691 C1703 0.959 . S
H1692 C1706 0.929 . S
H1693 C1707 0.931 . S
H1694 C1709 0.930 . S
C1695 H1683 0.930 1_554 S
C1695 C1696 1.399 . S
C1695 C1700 1.399 . S
C1696 C1695 1.399 . S
C1696 C1697 1.376 . S
C1697 H1684 0.930 . S
C1697 C1696 1.376 . S
C1697 C1698 1.388 . S
C1698 H1685 0.930 . S
C1698 C1697 1.388 . S
C1698 C1699 1.390 . S
C1699 C1698 1.390 . S
C1699 C1700 1.394 . S
C1699 C1705 1.465 . S
C1700 C1695 1.399 . S
C1700 C1699 1.394 . S
C1700 C1701 1.516 . S
C1701 C1700 1.516 . S
C1701 C1702 1.502 1_554 S
C1701 C1703 1.561 . S
C1701 C1704 1.526 . S
C1702 H1686 0.959 . S
C1702 H1687 0.959 . S
C1702 H1688 0.961 . S
C1702 C1701 1.502 1_556 S
C1703 H1689 0.943 1_554 S
C1703 H1690 0.961 . S
C1703 H1691 0.959 . S
C1703 C1701 1.561 . S
C1704 C1701 1.526 . S
C1704 C1705 1.396 . S
C1704 C1709 1.390 . S
C1705 C1699 1.465 . S
C1705 C1704 1.396 . S
C1705 C1706 1.399 . S
C1706 H1692 0.929 . S
C1706 C1705 1.399 . S
C1706 C1707 1.385 . S
C1707 H1693 0.931 . S
C1707 C1706 1.385 . S
C1707 C1708 1.389 . S
C1708 C1707 1.389 . S
C1708 C1709 1.387 . S
C1709 H1694 0.930 . S
C1709 C1704 1.390 . S
C1709 C1708 1.387 . S
H1710 C1722 0.930 . S
H1711 C1724 0.930 . S
H1712 C1725 0.930 . S
H1713 C1729 0.959 . S
H1714 C1729 0.959 . S
H1715 C1729 0.961 . S
H1716 C1730 0.960 . S
H1717 C1730 0.961 . S
H1718 C1730 0.959 . S
H1719 C1733 0.929 . S
H1720 C1734 0.931 . S
H1721 C1736 0.930 . S
C1722 H1710 0.930 . S
C1722 C1723 1.399 . S
C1722 C1727 1.399 . S
C1723 C1722 1.399 . S
C1723 C1724 1.376 . S
C1724 H1711 0.930 . S
C1724 C1723 1.376 . S
C1724 C1725 1.388 . S
C1725 H1712 0.930 . S
C1725 C1724 1.388 . S
C1725 C1726 1.390 . S
C1726 C1725 1.390 . S
C1726 C1727 1.394 . S
C1726 C1732 1.465 . S
C1727 C1722 1.399 . S
C1727 C1726 1.394 . S
C1727 C1728 1.516 . S
C1728 C1727 1.516 . S
C1728 C1729 1.502 . S
C1728 C1730 1.561 . S
C1728 C1731 1.526 . S
C1729 H1713 0.959 . S
C1729 H1714 0.959 . S
C1729 H1715 0.961 . S
C1729 C1728 1.502 . S
C1730 H1716 0.960 . S
C1730 H1717 0.961 . S
C1730 H1718 0.959 . S
C1730 C1728 1.561 . S
C1731 C1728 1.526 . S
C1731 C1732 1.396 . S
C1731 C1736 1.390 . S
C1732 C1726 1.465 . S
C1732 C1731 1.396 . S
C1732 C1733 1.399 . S
C1733 H1719 0.929 . S
C1733 C1732 1.399 . S
C1733 C1734 1.385 . S
C1734 H1720 0.931 . S
C1734 C1733 1.385 . S
C1734 C1735 1.389 . S
C1735 C1734 1.389 . S
C1735 C1736 1.387 . S
C1736 H1721 0.930 . S
C1736 C1731 1.390 . S
C1736 C1735 1.387 . S
H1737 C1749 0.930 . S
H1738 C1751 0.930 . S
H1739 C1752 0.930 . S
H1740 C1756 0.959 . S
H1741 C1756 0.959 . S
H1742 C1756 0.961 . S
H1743 C1757 0.960 . S
H1744 C1757 0.961 . S
H1745 C1757 0.959 . S
H1746 C1760 0.929 . S
H1747 C1761 0.931 . S
H1748 C1763 0.930 1_554 S
C1749 H1737 0.930 . S
C1749 C1750 1.399 1_554 S
C1749 C1754 1.399 1_554 S
C1750 C1749 1.399 1_556 S
C1750 C1751 1.376 . S
C1751 H1738 0.930 . S
C1751 C1750 1.376 . S
C1751 C1752 1.388 . S
C1752 H1739 0.930 . S
C1752 C1751 1.388 . S
C1752 C1753 1.390 . S
C1753 C1752 1.390 . S
C1753 C1754 1.394 . S
C1753 C1759 1.465 . S
C1754 C1749 1.399 1_556 S
C1754 C1753 1.394 . S
C1754 C1755 1.516 1_556 S
C1755 C1754 1.516 1_554 S
C1755 C1756 1.502 . S
C1755 C1757 1.561 . S
C1755 C1758 1.526 1_554 S
C1756 H1740 0.959 . S
C1756 H1741 0.959 . S
C1756 H1742 0.961 . S
C1756 C1755 1.502 . S
C1757 H1743 0.960 . S
C1757 H1744 0.961 . S
C1757 H1745 0.959 . S
C1757 C1755 1.561 . S
C1758 C1755 1.526 1_556 S
C1758 C1759 1.396 . S
C1758 C1763 1.390 . S
C1759 C1753 1.465 . S
C1759 C1758 1.396 . S
C1759 C1760 1.399 . S
C1760 H1746 0.929 . S
C1760 C1759 1.399 . S
C1760 C1761 1.385 . S
C1761 H1747 0.931 . S
C1761 C1760 1.385 . S
C1761 C1762 1.389 . S
C1762 C1761 1.389 . S
C1762 C1763 1.387 . S
C1763 H1748 0.930 1_556 S
C1763 C1758 1.390 . S
C1763 C1762 1.387 . S
H1764 C1776 0.930 . S
H1765 C1778 0.930 . S
H1766 C1779 0.930 . S
H1767 C1783 0.959 . S
H1768 C1783 0.959 . S
H1769 C1783 0.961 . S
H1770 C1784 0.960 . S
H1771 C1784 0.961 . S
H1772 C1784 0.959 . S
H1773 C1787 0.929 . S
H1774 C1788 0.931 . S
H1775 C1790 0.930 . S
C1776 H1764 0.930 . S
C1776 C1777 1.399 . S
C1776 C1781 1.399 . S
C1777 C1776 1.399 . S
C1777 C1778 1.376 . S
C1778 H1765 0.930 . S
C1778 C1777 1.376 . S
C1778 C1779 1.388 . S
C1779 H1766 0.930 . S
C1779 C1778 1.388 . S
C1779 C1780 1.390 . S
C1780 C1779 1.390 . S
C1780 C1781 1.394 . S
C1780 C1786 1.465 . S
C1781 C1776 1.399 . S
C1781 C1780 1.394 . S
C1781 C1782 1.516 . S
C1782 C1781 1.516 . S
C1782 C1783 1.502 . S
C1782 C1784 1.561 . S
C1782 C1785 1.526 . S
C1783 H1767 0.959 . S
C1783 H1768 0.959 . S
C1783 H1769 0.961 . S
C1783 C1782 1.502 . S
C1784 H1770 0.960 . S
C1784 H1771 0.961 . S
C1784 H1772 0.959 . S
C1784 C1782 1.561 . S
C1785 C1782 1.526 . S
C1785 C1786 1.396 . S
C1785 C1790 1.390 . S
C1786 C1780 1.465 . S
C1786 C1785 1.396 . S
C1786 C1787 1.399 . S
C1787 H1773 0.929 . S
C1787 C1786 1.399 . S
C1787 C1788 1.385 . S
C1788 H1774 0.931 . S
C1788 C1787 1.385 . S
C1788 C1789 1.389 . S
C1789 C1788 1.389 . S
C1789 C1790 1.387 . S
C1790 H1775 0.930 . S
C1790 C1785 1.390 . S
C1790 C1789 1.387 . S
H1791 C1803 0.930 . S
H1792 C1805 0.930 . S
H1793 C1806 0.930 . S
H1794 C1810 0.959 . S
H1795 C1810 0.959 . S
H1796 C1810 0.961 . S
H1797 C1811 0.960 . S
H1798 C1811 0.961 . S
H1799 C1811 0.959 . S
H1800 C1814 0.929 . S
H1801 C1815 0.931 . S
H1802 C1817 0.930 . S
C1803 H1791 0.930 . S
C1803 C1804 1.399 . S
C1803 C1808 1.399 . S
C1804 C1803 1.399 . S
C1804 C1805 1.376 . S
C1805 H1792 0.930 . S
C1805 C1804 1.376 . S
C1805 C1806 1.388 . S
C1806 H1793 0.930 . S
C1806 C1805 1.388 . S
C1806 C1807 1.390 . S
C1807 C1806 1.390 . S
C1807 C1808 1.394 . S
C1807 C1813 1.465 . S
C1808 C1803 1.399 . S
C1808 C1807 1.394 . S
C1808 C1809 1.516 . S
C1809 C1808 1.516 . S
C1809 C1810 1.502 1_455 S
C1809 C1811 1.561 . S
C1809 C1812 1.526 . S
C1810 H1794 0.959 . S
C1810 H1795 0.959 . S
C1810 H1796 0.961 . S
C1810 C1809 1.502 1_655 S
C1811 H1797 0.960 . S
C1811 H1798 0.961 . S
C1811 H1799 0.959 . S
C1811 C1809 1.561 . S
C1812 C1809 1.526 . S
C1812 C1813 1.396 . S
C1812 C1817 1.390 . S
C1813 C1807 1.465 . S
C1813 C1812 1.396 . S
C1813 C1814 1.399 . S
C1814 H1800 0.929 . S
C1814 C1813 1.399 . S
C1814 C1815 1.385 . S
C1815 H1801 0.931 . S
C1815 C1814 1.385 . S
C1815 C1816 1.389 . S
C1816 C1815 1.389 . S
C1816 C1817 1.387 . S
C1817 H1802 0.930 . S
C1817 C1812 1.390 . S
C1817 C1816 1.387 . S
H1818 C1830 0.930 . S
H1819 C1832 0.930 . S
H1820 C1833 0.930 . S
H1821 C1837 0.959 . S
H1822 C1837 0.959 . S
H1823 C1837 0.961 . S
H1824 C1838 0.960 . S
H1825 C1838 0.961 . S
H1826 C1838 0.959 . S
H1827 C1841 0.929 . S
H1828 C1842 0.931 . S
H1829 C1844 0.930 . S
C1830 H1818 0.930 . S
C1830 C1831 1.399 . S
C1830 C1835 1.399 . S
C1831 C1830 1.399 . S
C1831 C1832 1.376 . S
C1832 H1819 0.930 . S
C1832 C1831 1.376 . S
C1832 C1833 1.388 . S
C1833 H1820 0.930 . S
C1833 C1832 1.388 . S
C1833 C1834 1.390 . S
C1834 C1833 1.390 . S
C1834 C1835 1.394 . S
C1834 C1840 1.465 . S
C1835 C1830 1.399 . S
C1835 C1834 1.394 . S
C1835 C1836 1.516 . S
C1836 C1835 1.516 . S
C1836 C1837 1.502 . S
C1836 C1838 1.561 . S
C1836 C1839 1.526 . S
C1837 H1821 0.959 . S
C1837 H1822 0.959 . S
C1837 H1823 0.961 . S
C1837 C1836 1.502 . S
C1838 H1824 0.960 . S
C1838 H1825 0.961 . S
C1838 H1826 0.959 . S
C1838 C1836 1.561 . S
C1839 C1836 1.526 . S
C1839 C1840 1.396 . S
C1839 C1844 1.390 . S
C1840 C1834 1.465 . S
C1840 C1839 1.396 . S
C1840 C1841 1.399 . S
C1841 H1827 0.929 . S
C1841 C1840 1.399 . S
C1841 C1842 1.385 . S
C1842 H1828 0.931 . S
C1842 C1841 1.385 . S
C1842 C1843 1.389 . S
C1843 C1842 1.389 . S
C1843 C1844 1.387 . S
C1844 H1829 0.930 . S
C1844 C1839 1.390 . S
C1844 C1843 1.387 . S
H1845 C1857 0.930 1_455 S
H1846 C1859 0.930 . S
H1847 C1860 0.930 . S
H1848 C1864 0.959 . S
H1849 C1864 0.959 . S
H1850 C1864 0.961 . S
H1851 C1865 0.960 . S
H1852 C1865 0.961 . S
H1853 C1865 0.959 . S
H1854 C1868 0.929 . S
H1855 C1869 0.931 . S
H1856 C1871 0.930 . S
C1857 H1845 0.930 1_655 S
C1857 C1858 1.399 . S
C1857 C1862 1.399 . S
C1858 C1857 1.399 . S
C1858 C1859 1.376 . S
C1859 H1846 0.930 . S
C1859 C1858 1.376 . S
C1859 C1860 1.388 . S
C1860 H1847 0.930 . S
C1860 C1859 1.388 . S
C1860 C1861 1.390 . S
C1861 C1860 1.390 . S
C1861 C1862 1.394 . S
C1861 C1867 1.465 . S
C1862 C1857 1.399 . S
C1862 C1861 1.394 . S
C1862 C1863 1.516 . S
C1863 C1862 1.516 . S
C1863 C1864 1.502 1_655 S
C1863 C1865 1.561 . S
C1863 C1866 1.526 . S
C1864 H1848 0.959 . S
C1864 H1849 0.959 . S
C1864 H1850 0.961 . S
C1864 C1863 1.502 1_455 S
C1865 H1851 0.960 . S
C1865 H1852 0.961 . S
C1865 H1853 0.959 . S
C1865 C1863 1.561 . S
C1866 C1863 1.526 . S
C1866 C1867 1.396 . S
C1866 C1871 1.390 . S
C1867 C1861 1.465 . S
C1867 C1866 1.396 . S
C1867 C1868 1.399 . S
C1868 H1854 0.929 . S
C1868 C1867 1.399 . S
C1868 C1869 1.385 . S
C1869 H1855 0.931 . S
C1869 C1868 1.385 . S
C1869 C1870 1.389 . S
C1870 C1869 1.389 . S
C1870 C1871 1.387 . S
C1871 H1856 0.930 . S
C1871 C1866 1.390 . S
C1871 C1870 1.387 . S
H1872 C1884 0.930 . S
H1873 C1886 0.930 . S
H1874 C1887 0.930 . S
H1875 C1891 0.959 . S
H1876 C1891 0.959 . S
H1877 C1891 0.961 . S
H1878 C1892 0.960 . S
H1879 C1892 0.961 . S
H1880 C1892 0.959 . S
H1881 C1895 0.929 . S
H1882 C1896 0.931 . S
H1883 C1898 0.930 . S
C1884 H1872 0.930 . S
C1884 C1885 1.399 . S
C1884 C1889 1.399 . S
C1885 C1884 1.399 . S
C1885 C1886 1.376 . S
C1886 H1873 0.930 . S
C1886 C1885 1.376 . S
C1886 C1887 1.388 . S
C1887 H1874 0.930 . S
C1887 C1886 1.388 . S
C1887 C1888 1.390 . S
C1888 C1887 1.390 . S
C1888 C1889 1.394 . S
C1888 C1894 1.465 . S
C1889 C1884 1.399 . S
C1889 C1888 1.394 . S
C1889 C1890 1.516 . S
C1890 C1889 1.516 . S
C1890 C1891 1.502 . S
C1890 C1892 1.561 . S
C1890 C1893 1.526 . S
C1891 H1875 0.959 . S
C1891 H1876 0.959 . S
C1891 H1877 0.961 . S
C1891 C1890 1.502 . S
C1892 H1878 0.960 . S
C1892 H1879 0.961 . S
C1892 H1880 0.959 . S
C1892 C1890 1.561 . S
C1893 C1890 1.526 . S
C1893 C1894 1.396 . S
C1893 C1898 1.390 . S
C1894 C1888 1.465 . S
C1894 C1893 1.396 . S
C1894 C1895 1.399 . S
C1895 H1881 0.929 . S
C1895 C1894 1.399 . S
C1895 C1896 1.385 . S
C1896 H1882 0.931 . S
C1896 C1895 1.385 . S
C1896 C1897 1.389 . S
C1897 C1896 1.389 . S
C1897 C1898 1.387 . S
C1898 H1883 0.930 . S
C1898 C1893 1.390 . S
C1898 C1897 1.387 . S
H1899 C1911 0.930 . S
H1900 C1913 0.930 . S
H1901 C1914 0.930 . S
H1902 C1918 0.959 . S
H1903 C1918 0.959 . S
H1904 C1918 0.961 . S
H1905 C1919 0.960 . S
H1906 C1919 0.961 . S
H1907 C1919 0.959 . S
H1908 C1922 0.929 . S
H1909 C1923 0.931 . S
H1910 C1925 0.930 . S
C1911 H1899 0.930 . S
C1911 C1912 1.399 . S
C1911 C1916 1.399 . S
C1912 C1911 1.399 . S
C1912 C1913 1.376 . S
C1913 H1900 0.930 . S
C1913 C1912 1.376 . S
C1913 C1914 1.388 . S
C1914 H1901 0.930 . S
C1914 C1913 1.388 . S
C1914 C1915 1.390 . S
C1915 C1914 1.390 . S
C1915 C1916 1.394 . S
C1915 C1921 1.465 . S
C1916 C1911 1.399 . S
C1916 C1915 1.394 . S
C1916 C1917 1.516 . S
C1917 C1916 1.516 . S
C1917 C1918 1.502 . S
C1917 C1919 1.561 . S
C1917 C1920 1.526 . S
C1918 H1902 0.959 . S
C1918 H1903 0.959 . S
C1918 H1904 0.961 . S
C1918 C1917 1.502 . S
C1919 H1905 0.960 . S
C1919 H1906 0.961 . S
C1919 H1907 0.959 . S
C1919 C1917 1.561 . S
C1920 C1917 1.526 . S
C1920 C1921 1.396 . S
C1920 C1925 1.390 . S
C1921 C1915 1.465 . S
C1921 C1920 1.396 . S
C1921 C1922 1.399 . S
C1922 H1908 0.929 . S
C1922 C1921 1.399 . S
C1922 C1923 1.385 . S
C1923 H1909 0.931 . S
C1923 C1922 1.385 . S
C1923 C1924 1.389 . S
C1924 C1923 1.389 . S
C1924 C1925 1.387 . S
C1925 H1910 0.930 . S
C1925 C1920 1.390 . S
C1925 C1924 1.387 . S
H1926 C1938 0.930 . S
H1927 C1940 0.930 . S
H1928 C1941 0.930 . S
H1929 C1945 0.959 1_545 S
H1930 C1945 0.959 . S
H1931 C1945 0.961 . S
H1932 C1946 0.960 . S
H1933 C1946 0.961 . S
H1934 C1946 0.959 . S
H1935 C1949 0.929 . S
H1936 C1950 0.931 . S
H1937 C1952 0.921 1_565 S
C1938 H1926 0.930 . S
C1938 C1939 1.399 . S
C1938 C1943 1.399 . S
C1939 C1938 1.399 . S
C1939 C1940 1.376 . S
C1940 H1927 0.930 . S
C1940 C1939 1.376 . S
C1940 C1941 1.388 1_565 S
C1941 H1928 0.930 . S
C1941 C1940 1.388 1_545 S
C1941 C1942 1.390 1_545 S
C1942 C1941 1.390 1_565 S
C1942 C1943 1.394 . S
C1942 C1948 1.465 1_565 S
C1943 C1938 1.399 . S
C1943 C1942 1.394 . S
C1943 C1944 1.516 . S
C1944 C1943 1.516 . S
C1944 C1945 1.502 . S
C1944 C1946 1.561 . S
C1944 C1947 1.526 . S
C1945 H1929 0.959 1_565 S
C1945 H1930 0.959 . S
C1945 H1931 0.961 . S
C1945 C1944 1.502 . S
C1946 H1932 0.960 . S
C1946 H1933 0.961 . S
C1946 H1934 0.959 . S
C1946 C1944 1.561 . S
C1947 C1944 1.526 . S
C1947 C1948 1.396 1_565 S
C1947 C1952 1.384 1_565 S
C1948 C1942 1.465 1_545 S
C1948 C1947 1.396 1_545 S
C1948 C1949 1.399 . S
C1949 H1935 0.929 . S
C1949 C1948 1.399 . S
C1949 C1950 1.385 . S
C1950 H1936 0.931 . S
C1950 C1949 1.385 . S
C1950 C1951 1.389 . S
C1951 C1950 1.389 . S
C1951 C1952 1.402 . S
C1952 H1937 0.921 1_545 S
C1952 C1947 1.384 1_545 S
C1952 C1951 1.402 . S
H1953 C1965 0.930 . S
H1954 C1967 0.930 . S
H1955 C1968 0.930 . S
H1956 C1972 0.959 . S
H1957 C1972 0.959 . S
H1958 C1972 0.961 . S
H1959 C1973 0.960 . S
H1960 C1973 0.961 . S
H1961 C1973 0.959 . S
H1962 C1976 0.929 . S
H1963 C1977 0.931 . S
H1964 C1979 0.930 . S
C1965 H1953 0.930 . S
C1965 C1966 1.399 . S
C1965 C1970 1.399 . S
C1966 C1965 1.399 . S
C1966 C1967 1.376 1_545 S
C1967 H1954 0.930 . S
C1967 C1966 1.376 1_565 S
C1967 C1968 1.388 . S
C1968 H1955 0.930 . S
C1968 C1967 1.388 . S
C1968 C1969 1.390 1_565 S
C1969 C1968 1.390 1_545 S
C1969 C1970 1.394 . S
C1969 C1975 1.464 1_545 S
C1970 C1965 1.399 . S
C1970 C1969 1.394 . S
C1970 C1971 1.516 . S
C1971 C1970 1.516 . S
C1971 C1972 1.502 . S
C1971 C1973 1.561 . S
C1971 C1974 1.526 . S
C1972 H1956 0.959 . S
C1972 H1957 0.959 . S
C1972 H1958 0.961 . S
C1972 C1971 1.502 . S
C1973 H1959 0.960 . S
C1973 H1960 0.961 . S
C1973 H1961 0.959 . S
C1973 C1971 1.561 . S
C1974 C1971 1.526 . S
C1974 C1975 1.337 1_545 S
C1974 C1979 1.390 . S
C1975 C1969 1.464 1_565 S
C1975 C1974 1.337 1_565 S
C1975 C1976 1.450 . S
C1976 H1962 0.929 . S
C1976 C1975 1.450 . S
C1976 C1977 1.385 . S
C1977 H1963 0.931 . S
C1977 C1976 1.385 . S
C1977 C1978 1.389 1_565 S
C1978 C1977 1.389 1_545 S
C1978 C1979 1.387 . S
C1979 H1964 0.930 . S
C1979 C1974 1.390 . S
C1979 C1978 1.387 . S
H1980 C1992 0.930 . S
H1981 C1994 0.930 . S
H1982 C1995 0.930 . S
H1983 C1999 0.959 . S
H1984 C1999 0.959 . S
H1985 C1999 0.961 . S
H1986 C2000 0.960 . S
H1987 C2000 0.961 . S
H1988 C2000 0.959 . S
H1989 C2003 0.929 . S
H1990 C2004 0.931 . S
H1991 C2006 0.930 . S
C1992 H1980 0.930 . S
C1992 C1993 1.399 . S
C1992 C1997 1.399 . S
C1993 C1992 1.399 . S
C1993 C1994 1.376 . S
C1994 H1981 0.930 . S
C1994 C1993 1.376 . S
C1994 C1995 1.388 . S
C1995 H1982 0.930 . S
C1995 C1994 1.388 . S
C1995 C1996 1.390 . S
C1996 C1995 1.390 . S
C1996 C1997 1.394 . S
C1996 C2002 1.465 . S
C1997 C1992 1.399 . S
C1997 C1996 1.394 . S
C1997 C1998 1.516 . S
C1998 C1997 1.516 . S
C1998 C1999 1.502 . S
C1998 C2000 1.561 . S
C1998 C2001 1.526 . S
C1999 H1983 0.959 . S
C1999 H1984 0.959 . S
C1999 H1985 0.961 . S
C1999 C1998 1.502 . S
C2000 H1986 0.960 . S
C2000 H1987 0.961 . S
C2000 H1988 0.959 . S
C2000 C1998 1.561 . S
C2001 C1998 1.526 . S
C2001 C2002 1.396 . S
C2001 C2006 1.390 . S
C2002 C1996 1.465 . S
C2002 C2001 1.396 . S
C2002 C2003 1.399 . S
C2003 H1989 0.929 . S
C2003 C2002 1.399 . S
C2003 C2004 1.385 . S
C2004 H1990 0.931 . S
C2004 C2003 1.385 . S
C2004 C2005 1.389 . S
C2005 C2004 1.389 . S
C2005 C2006 1.387 . S
C2006 H1991 0.930 . S
C2006 C2001 1.390 . S
C2006 C2005 1.387 . S
H2007 C2019 0.930 . S
H2008 C2021 0.930 . S
H2009 C2022 0.930 . S
H2010 C2026 0.959 1_556 S
H2011 C2026 0.959 . S
H2012 C2026 0.961 . S
H2013 C2027 0.960 . S
H2014 C2027 0.961 . S
H2015 C2027 0.959 . S
H2016 C2030 0.929 . S
H2017 C2031 0.923 1_556 S
H2018 C2033 0.930 . S
C2019 H2007 0.930 . S
C2019 C2020 1.399 . S
C2019 C2024 1.399 . S
C2020 C2019 1.399 . S
C2020 C2021 1.376 . S
C2021 H2008 0.930 . S
C2021 C2020 1.376 . S
C2021 C2022 1.388 . S
C2022 H2009 0.930 . S
C2022 C2021 1.388 . S
C2022 C2023 1.390 . S
C2023 C2022 1.390 . S
C2023 C2024 1.394 . S
C2023 C2029 1.465 . S
C2024 C2019 1.399 . S
C2024 C2023 1.394 . S
C2024 C2025 1.516 . S
C2025 C2024 1.516 . S
C2025 C2026 1.502 . S
C2025 C2027 1.561 . S
C2025 C2028 1.526 . S
C2026 H2010 0.959 1_554 S
C2026 H2011 0.959 . S
C2026 H2012 0.961 . S
C2026 C2025 1.502 . S
C2027 H2013 0.960 . S
C2027 H2014 0.961 . S
C2027 H2015 0.959 . S
C2027 C2025 1.561 . S
C2028 C2025 1.526 . S
C2028 C2029 1.396 . S
C2028 C2033 1.390 . S
C2029 C2023 1.465 . S
C2029 C2028 1.396 . S
C2029 C2030 1.399 . S
C2030 H2016 0.929 . S
C2030 C2029 1.399 . S
C2030 C2031 1.385 . S
C2031 H2017 0.923 1_554 S
C2031 C2030 1.385 . S
C2031 C2032 1.389 . S
C2032 C2031 1.389 . S
C2032 C2033 1.387 . S
C2033 H2018 0.930 . S
C2033 C2028 1.390 . S
C2033 C2032 1.387 . S
H2034 C2046 0.930 . S
H2035 C2048 0.930 . S
H2036 C2049 0.930 . S
H2037 C2053 0.959 . S
H2038 C2053 0.959 . S
H2039 C2053 0.961 . S
H2040 C2054 0.960 . S
H2041 C2054 0.961 . S
H2042 C2054 0.959 . S
H2043 C2057 0.929 . S
H2044 C2058 0.931 . S
H2045 C2060 0.930 . S
C2046 H2034 0.930 . S
C2046 C2047 1.399 . S
C2046 C2051 1.399 . S
C2047 C2046 1.399 . S
C2047 C2048 1.376 . S
C2048 H2035 0.930 . S
C2048 C2047 1.376 . S
C2048 C2049 1.388 . S
C2049 H2036 0.930 . S
C2049 C2048 1.388 . S
C2049 C2050 1.390 . S
C2050 C2049 1.390 . S
C2050 C2051 1.394 . S
C2050 C2056 1.465 . S
C2051 C2046 1.399 . S
C2051 C2050 1.394 . S
C2051 C2052 1.516 . S
C2052 C2051 1.516 . S
C2052 C2053 1.502 . S
C2052 C2054 1.561 . S
C2052 C2055 1.526 . S
C2053 H2037 0.959 . S
C2053 H2038 0.959 . S
C2053 H2039 0.961 . S
C2053 C2052 1.502 . S
C2054 H2040 0.960 . S
C2054 H2041 0.961 . S
C2054 H2042 0.959 . S
C2054 C2052 1.561 . S
C2055 C2052 1.526 . S
C2055 C2056 1.396 . S
C2055 C2060 1.390 . S
C2056 C2050 1.465 . S
C2056 C2055 1.396 . S
C2056 C2057 1.399 . S
C2057 H2043 0.929 . S
C2057 C2056 1.399 . S
C2057 C2058 1.385 . S
C2058 H2044 0.931 . S
C2058 C2057 1.385 . S
C2058 C2059 1.389 . S
C2059 C2058 1.389 . S
C2059 C2060 1.387 . S
C2060 H2045 0.930 . S
C2060 C2055 1.390 . S
C2060 C2059 1.387 . S
H2061 C2073 0.930 . S
H2062 C2075 0.930 . S
H2063 C2076 0.930 . S
H2064 C2080 0.959 . S
H2065 C2080 0.959 . S
H2066 C2080 0.961 . S
H2067 C2081 0.960 . S
H2068 C2081 0.961 . S
H2069 C2081 0.959 1_554 S
H2070 C2084 0.929 . S
H2071 C2085 0.931 . S
H2072 C2087 0.930 . S
C2073 H2061 0.930 . S
C2073 C2074 1.399 . S
C2073 C2078 1.399 . S
C2074 C2073 1.399 . S
C2074 C2075 1.376 1_556 S
C2075 H2062 0.930 . S
C2075 C2074 1.376 1_554 S
C2075 C2076 1.388 . S
C2076 H2063 0.930 . S
C2076 C2075 1.388 . S
C2076 C2077 1.390 . S
C2077 C2076 1.390 . S
C2077 C2078 1.394 1_554 S
C2077 C2083 1.465 . S
C2078 C2073 1.399 . S
C2078 C2077 1.394 1_556 S
C2078 C2079 1.516 . S
C2079 C2078 1.516 . S
C2079 C2080 1.502 . S
C2079 C2081 1.561 . S
C2079 C2082 1.526 . S
C2080 H2064 0.959 . S
C2080 H2065 0.959 . S
C2080 H2066 0.961 . S
C2080 C2079 1.502 . S
C2081 H2067 0.960 . S
C2081 H2068 0.961 . S
C2081 H2069 0.959 1_556 S
C2081 C2079 1.561 . S
C2082 C2079 1.526 . S
C2082 C2083 1.396 1_556 S
C2082 C2087 1.390 . S
C2083 C2077 1.465 . S
C2083 C2082 1.396 1_554 S
C2083 C2084 1.399 . S
C2084 H2070 0.929 . S
C2084 C2083 1.399 . S
C2084 C2085 1.385 . S
C2085 H2071 0.931 . S
C2085 C2084 1.385 . S
C2085 C2086 1.389 . S
C2086 C2085 1.389 . S
C2086 C2087 1.387 1_554 S
C2087 H2072 0.930 . S
C2087 C2082 1.390 . S
C2087 C2086 1.387 1_556 S
H2088 C2100 0.930 . S
H2089 C2102 0.930 . S
H2090 C2103 0.930 . S
H2091 C2107 0.959 . S
H2092 C2107 0.959 . S
H2093 C2107 0.961 . S
H2094 C2108 0.960 . S
H2095 C2108 0.961 . S
H2096 C2108 0.959 . S
H2097 C2111 0.929 . S
H2098 C2112 0.931 . S
H2099 C2114 0.930 . S
C2100 H2088 0.930 . S
C2100 C2101 1.399 . S
C2100 C2105 1.399 . S
C2101 C2100 1.399 . S
C2101 C2102 1.376 . S
C2102 H2089 0.930 . S
C2102 C2101 1.376 . S
C2102 C2103 1.388 . S
C2103 H2090 0.930 . S
C2103 C2102 1.388 . S
C2103 C2104 1.390 . S
C2104 C2103 1.390 . S
C2104 C2105 1.394 . S
C2104 C2110 1.465 . S
C2105 C2100 1.399 . S
C2105 C2104 1.394 . S
C2105 C2106 1.516 . S
C2106 C2105 1.516 . S
C2106 C2107 1.502 . S
C2106 C2108 1.561 . S
C2106 C2109 1.526 . S
C2107 H2091 0.959 . S
C2107 H2092 0.959 . S
C2107 H2093 0.961 . S
C2107 C2106 1.502 . S
C2108 H2094 0.960 . S
C2108 H2095 0.961 . S
C2108 H2096 0.959 . S
C2108 C2106 1.561 . S
C2109 C2106 1.526 . S
C2109 C2110 1.396 . S
C2109 C2114 1.390 . S
C2110 C2104 1.465 . S
C2110 C2109 1.396 . S
C2110 C2111 1.399 . S
C2111 H2097 0.929 . S
C2111 C2110 1.399 . S
C2111 C2112 1.385 . S
C2112 H2098 0.931 . S
C2112 C2111 1.385 . S
C2112 C2113 1.389 . S
C2113 C2112 1.389 . S
C2113 C2114 1.387 . S
C2114 H2099 0.930 . S
C2114 C2109 1.390 . S
C2114 C2113 1.387 . S
H2115 C2127 0.930 . S
H2116 C2129 0.930 . S
H2117 C2130 0.930 . S
H2118 C2134 0.959 . S
H2119 C2134 0.959 . S
H2120 C2134 0.961 . S
H2121 C2135 0.960 . S
H2122 C2135 0.961 . S
H2123 C2135 0.959 . S
H2124 C2138 0.929 . S
H2125 C2139 0.931 . S
H2126 C2141 0.930 . S
C2127 H2115 0.930 . S
C2127 C2128 1.399 . S
C2127 C2132 1.399 . S
C2128 C2127 1.399 . S
C2128 C2129 1.376 . S
C2129 H2116 0.930 . S
C2129 C2128 1.376 . S
C2129 C2130 1.388 . S
C2130 H2117 0.930 . S
C2130 C2129 1.388 . S
C2130 C2131 1.390 . S
C2131 C2130 1.390 . S
C2131 C2132 1.394 . S
C2131 C2137 1.465 . S
C2132 C2127 1.399 . S
C2132 C2131 1.394 . S
C2132 C2133 1.516 . S
C2133 C2132 1.516 . S
C2133 C2134 1.502 1_455 S
C2133 C2135 1.561 . S
C2133 C2136 1.526 . S
C2134 H2118 0.959 . S
C2134 H2119 0.959 . S
C2134 H2120 0.961 . S
C2134 C2133 1.502 1_655 S
C2135 H2121 0.960 . S
C2135 H2122 0.961 . S
C2135 H2123 0.959 . S
C2135 C2133 1.561 . S
C2136 C2133 1.526 . S
C2136 C2137 1.396 . S
C2136 C2141 1.390 . S
C2137 C2131 1.465 . S
C2137 C2136 1.396 . S
C2137 C2138 1.399 . S
C2138 H2124 0.929 . S
C2138 C2137 1.399 . S
C2138 C2139 1.385 . S
C2139 H2125 0.931 . S
C2139 C2138 1.385 . S
C2139 C2140 1.389 . S
C2140 C2139 1.389 . S
C2140 C2141 1.387 . S
C2141 H2126 0.930 . S
C2141 C2136 1.390 . S
C2141 C2140 1.387 . S
H2142 C2154 0.930 . S
H2143 C2156 0.930 . S
H2144 C2157 0.930 . S
H2145 C2161 0.959 . S
H2146 C2161 0.959 . S
H2147 C2161 0.961 . S
H2148 C2162 0.960 . S
H2149 C2162 0.961 . S
H2150 C2162 0.959 . S
H2151 C2165 0.929 . S
H2152 C2166 0.931 . S
H2153 C2168 0.930 . S
C2154 H2142 0.930 . S
C2154 C2155 1.399 . S
C2154 C2159 1.399 . S
C2155 C2154 1.399 . S
C2155 C2156 1.376 . S
C2156 H2143 0.930 . S
C2156 C2155 1.376 . S
C2156 C2157 1.388 . S
C2157 H2144 0.930 . S
C2157 C2156 1.388 . S
C2157 C2158 1.390 . S
C2158 C2157 1.390 . S
C2158 C2159 1.394 . S
C2158 C2164 1.465 . S
C2159 C2154 1.399 . S
C2159 C2158 1.394 . S
C2159 C2160 1.516 . S
C2160 C2159 1.516 . S
C2160 C2161 1.502 . S
C2160 C2162 1.561 . S
C2160 C2163 1.526 . S
C2161 H2145 0.959 . S
C2161 H2146 0.959 . S
C2161 H2147 0.961 . S
C2161 C2160 1.502 . S
C2162 H2148 0.960 . S
C2162 H2149 0.961 . S
C2162 H2150 0.959 . S
C2162 C2160 1.561 . S
C2163 C2160 1.526 . S
C2163 C2164 1.396 . S
C2163 C2168 1.390 . S
C2164 C2158 1.465 . S
C2164 C2163 1.396 . S
C2164 C2165 1.399 . S
C2165 H2151 0.929 . S
C2165 C2164 1.399 . S
C2165 C2166 1.385 . S
C2166 H2152 0.931 . S
C2166 C2165 1.385 . S
C2166 C2167 1.389 . S
C2167 C2166 1.389 . S
C2167 C2168 1.387 . S
C2168 H2153 0.930 . S
C2168 C2163 1.390 . S
C2168 C2167 1.387 . S
H2169 C2181 0.930 . S
H2170 C2183 0.930 . S
H2171 C2184 0.930 . S
H2172 C2188 0.959 . S
H2173 C2188 0.959 . S
H2174 C2188 0.961 . S
H2175 C2189 0.962 . S
H2176 C2189 0.961 . S
H2177 C2189 0.954 1_455 S
H2178 C2192 0.929 . S
H2179 C2193 0.931 . S
H2180 C2195 0.929 . S
C2181 H2169 0.930 . S
C2181 C2182 1.399 . S
C2181 C2186 1.399 . S
C2182 C2181 1.399 . S
C2182 C2183 1.376 1_655 S
C2183 H2170 0.930 . S
C2183 C2182 1.376 1_455 S
C2183 C2184 1.388 . S
C2184 H2171 0.930 . S
C2184 C2183 1.388 . S
C2184 C2185 1.390 . S
C2185 C2184 1.390 . S
C2185 C2186 1.394 1_455 S
C2185 C2191 1.465 . S
C2186 C2181 1.399 . S
C2186 C2185 1.394 1_655 S
C2186 C2187 1.516 . S
C2187 C2186 1.516 . S
C2187 C2188 1.502 . S
C2187 C2189 1.564 . S
C2187 C2190 1.526 . S
C2188 H2172 0.959 . S
C2188 H2173 0.959 . S
C2188 H2174 0.961 . S
C2188 C2187 1.502 . S
C2189 H2175 0.962 . S
C2189 H2176 0.961 . S
C2189 H2177 0.954 1_655 S
C2189 C2187 1.564 . S
C2190 C2187 1.526 . S
C2190 C2191 1.396 1_655 S
C2190 C2195 1.389 . S
C2191 C2185 1.465 . S
C2191 C2190 1.396 1_455 S
C2191 C2192 1.399 . S
C2192 H2178 0.929 . S
C2192 C2191 1.399 . S
C2192 C2193 1.385 . S
C2193 H2179 0.931 . S
C2193 C2192 1.385 . S
C2193 C2194 1.389 . S
C2194 C2193 1.389 . S
C2194 C2195 1.387 1_455 S
C2195 H2180 0.929 . S
C2195 C2190 1.389 . S
C2195 C2194 1.387 1_655 S
H2196 C2208 0.930 . S
H2197 C2210 0.930 . S
H2198 C2211 0.930 . S
H2199 C2215 0.959 . S
H2200 C2215 0.959 . S
H2201 C2215 0.961 . S
H2202 C2216 0.960 . S
H2203 C2216 0.961 . S
H2204 C2216 0.959 . S
H2205 C2219 0.929 . S
H2206 C2220 0.931 . S
H2207 C2222 0.930 . S
C2208 H2196 0.930 . S
C2208 C2209 1.399 . S
C2208 C2213 1.399 . S
C2209 C2208 1.399 . S
C2209 C2210 1.376 . S
C2210 H2197 0.930 . S
C2210 C2209 1.376 . S
C2210 C2211 1.388 . S
C2211 H2198 0.930 . S
C2211 C2210 1.388 . S
C2211 C2212 1.390 . S
C2212 C2211 1.390 . S
C2212 C2213 1.394 . S
C2212 C2218 1.465 . S
C2213 C2208 1.399 . S
C2213 C2212 1.394 . S
C2213 C2214 1.516 . S
C2214 C2213 1.516 . S
C2214 C2215 1.502 . S
C2214 C2216 1.561 . S
C2214 C2217 1.526 . S
C2215 H2199 0.959 . S
C2215 H2200 0.959 . S
C2215 H2201 0.961 . S
C2215 C2214 1.502 . S
C2216 H2202 0.960 . S
C2216 H2203 0.961 . S
C2216 H2204 0.959 . S
C2216 C2214 1.561 . S
C2217 C2214 1.526 . S
C2217 C2218 1.396 . S
C2217 C2222 1.390 . S
C2218 C2212 1.465 . S
C2218 C2217 1.396 . S
C2218 C2219 1.399 . S
C2219 H2205 0.929 . S
C2219 C2218 1.399 . S
C2219 C2220 1.385 . S
C2220 H2206 0.931 . S
C2220 C2219 1.385 . S
C2220 C2221 1.389 . S
C2221 C2220 1.389 . S
C2221 C2222 1.387 . S
C2222 H2207 0.930 . S
C2222 C2217 1.390 . S
C2222 C2221 1.387 . S
H2223 C2235 0.930 . S
H2224 C2237 0.930 . S
H2225 C2238 0.930 . S
H2226 C2242 0.959 . S
H2227 C2242 0.959 . S
H2228 C2242 0.961 . S
H2229 C2243 0.960 . S
H2230 C2243 0.961 . S
H2231 C2243 0.959 . S
H2232 C2246 0.929 . S
H2233 C2247 0.931 . S
H2234 C2249 0.930 . S
C2235 H2223 0.930 . S
C2235 C2236 1.399 . S
C2235 C2240 1.399 . S
C2236 C2235 1.399 . S
C2236 C2237 1.376 . S
C2237 H2224 0.930 . S
C2237 C2236 1.376 . S
C2237 C2238 1.388 . S
C2238 H2225 0.930 . S
C2238 C2237 1.388 . S
C2238 C2239 1.390 . S
C2239 C2238 1.390 . S
C2239 C2240 1.394 . S
C2239 C2245 1.465 . S
C2240 C2235 1.399 . S
C2240 C2239 1.394 . S
C2240 C2241 1.516 . S
C2241 C2240 1.516 . S
C2241 C2242 1.502 . S
C2241 C2243 1.561 . S
C2241 C2244 1.526 . S
C2242 H2226 0.959 . S
C2242 H2227 0.959 . S
C2242 H2228 0.961 . S
C2242 C2241 1.502 . S
C2243 H2229 0.960 . S
C2243 H2230 0.961 . S
C2243 H2231 0.959 . S
C2243 C2241 1.561 . S
C2244 C2241 1.526 . S
C2244 C2245 1.396 . S
C2244 C2249 1.390 . S
C2245 C2239 1.465 . S
C2245 C2244 1.396 . S
C2245 C2246 1.399 . S
C2246 H2232 0.929 . S
C2246 C2245 1.399 . S
C2246 C2247 1.385 . S
C2247 H2233 0.931 . S
C2247 C2246 1.385 . S
C2247 C2248 1.389 . S
C2248 C2247 1.389 . S
C2248 C2249 1.387 . S
C2249 H2234 0.930 . S
C2249 C2244 1.390 . S
C2249 C2248 1.387 . S
H2250 C2262 0.930 . S
H2251 C2264 0.930 . S
H2252 C2265 0.930 . S
H2253 C2269 0.959 . S
H2254 C2269 0.959 . S
H2255 C2269 0.961 . S
H2256 C2270 0.960 . S
H2257 C2270 0.961 . S
H2258 C2270 0.959 . S
H2259 C2273 0.929 . S
H2260 C2274 0.931 . S
H2261 C2276 0.930 . S
C2262 H2250 0.930 . S
C2262 C2263 1.399 . S
C2262 C2267 1.399 . S
C2263 C2262 1.399 . S
C2263 C2264 1.376 1_545 S
C2264 H2251 0.930 . S
C2264 C2263 1.376 1_565 S
C2264 C2265 1.388 . S
C2265 H2252 0.930 . S
C2265 C2264 1.388 . S
C2265 C2266 1.390 . S
C2266 C2265 1.390 . S
C2266 C2267 1.394 1_565 S
C2266 C2272 1.465 . S
C2267 C2262 1.399 . S
C2267 C2266 1.394 1_545 S
C2267 C2268 1.516 . S
C2268 C2267 1.516 . S
C2268 C2269 1.502 . S
C2268 C2270 1.561 . S
C2268 C2271 1.526 . S
C2269 H2253 0.959 . S
C2269 H2254 0.959 . S
C2269 H2255 0.961 . S
C2269 C2268 1.502 . S
C2270 H2256 0.960 . S
C2270 H2257 0.961 . S
C2270 H2258 0.959 . S
C2270 C2268 1.561 . S
C2271 C2268 1.526 . S
C2271 C2272 1.396 1_545 S
C2271 C2276 1.390 . S
C2272 C2266 1.465 . S
C2272 C2271 1.396 1_565 S
C2272 C2273 1.399 . S
C2273 H2259 0.929 . S
C2273 C2272 1.399 . S
C2273 C2274 1.385 . S
C2274 H2260 0.931 . S
C2274 C2273 1.385 . S
C2274 C2275 1.389 . S
C2275 C2274 1.389 . S
C2275 C2276 1.387 1_565 S
C2276 H2261 0.930 . S
C2276 C2271 1.390 . S
C2276 C2275 1.387 1_545 S
H2277 C2289 0.930 . S
H2278 C2291 0.930 . S
H2279 C2292 0.930 . S
H2280 C2296 0.959 . S
H2281 C2296 0.959 . S
H2282 C2296 0.961 . S
H2283 C2297 0.960 . S
H2284 C2297 0.961 . S
H2285 C2297 0.959 . S
H2286 C2300 0.929 . S
H2287 C2301 0.931 . S
H2288 C2303 0.930 . S
C2289 H2277 0.930 . S
C2289 C2290 1.399 . S
C2289 C2294 1.399 . S
C2290 C2289 1.399 . S
C2290 C2291 1.376 1_565 S
C2291 H2278 0.930 . S
C2291 C2290 1.376 1_545 S
C2291 C2292 1.388 . S
C2292 H2279 0.930 . S
C2292 C2291 1.388 . S
C2292 C2293 1.390 1_545 S
C2293 C2292 1.390 1_565 S
C2293 C2294 1.394 . S
C2293 C2299 1.464 1_565 S
C2294 C2289 1.399 . S
C2294 C2293 1.394 . S
C2294 C2295 1.516 . S
C2295 C2294 1.516 . S
C2295 C2296 1.502 . S
C2295 C2297 1.561 . S
C2295 C2298 1.526 . S
C2296 H2280 0.959 . S
C2296 H2281 0.959 . S
C2296 H2282 0.961 . S
C2296 C2295 1.502 . S
C2297 H2283 0.960 . S
C2297 H2284 0.961 . S
C2297 H2285 0.959 . S
C2297 C2295 1.561 . S
C2298 C2295 1.526 . S
C2298 C2299 1.371 1_565 S
C2298 C2303 1.390 . S
C2299 C2293 1.464 1_545 S
C2299 C2298 1.371 1_545 S
C2299 C2300 1.420 . S
C2300 H2286 0.929 . S
C2300 C2299 1.420 . S
C2300 C2301 1.385 . S
C2301 H2287 0.931 . S
C2301 C2300 1.385 . S
C2301 C2302 1.389 1_545 S
C2302 C2301 1.389 1_565 S
C2302 C2303 1.387 . S
C2303 H2288 0.930 . S
C2303 C2298 1.390 . S
C2303 C2302 1.387 . S
H2304 C2316 0.930 . S
H2305 C2318 0.930 . S
H2306 C2319 0.930 . S
H2307 C2323 0.959 . S
H2308 C2323 0.959 . S
H2309 C2323 0.961 . S
H2310 C2324 0.960 . S
H2311 C2324 0.961 . S
H2312 C2324 0.959 . S
H2313 C2327 0.929 . S
H2314 C2328 0.931 . S
H2315 C2330 0.930 . S
C2316 H2304 0.930 . S
C2316 C2317 1.399 . S
C2316 C2321 1.399 . S
C2317 C2316 1.399 . S
C2317 C2318 1.376 . S
C2318 H2305 0.930 . S
C2318 C2317 1.376 . S
C2318 C2319 1.388 . S
C2319 H2306 0.930 . S
C2319 C2318 1.388 . S
C2319 C2320 1.390 . S
C2320 C2319 1.390 . S
C2320 C2321 1.394 . S
C2320 C2326 1.465 . S
C2321 C2316 1.399 . S
C2321 C2320 1.394 . S
C2321 C2322 1.516 . S
C2322 C2321 1.516 . S
C2322 C2323 1.502 . S
C2322 C2324 1.561 . S
C2322 C2325 1.526 . S
C2323 H2307 0.959 . S
C2323 H2308 0.959 . S
C2323 H2309 0.961 . S
C2323 C2322 1.502 . S
C2324 H2310 0.960 . S
C2324 H2311 0.961 . S
C2324 H2312 0.959 . S
C2324 C2322 1.561 . S
C2325 C2322 1.526 . S
C2325 C2326 1.396 . S
C2325 C2330 1.390 . S
C2326 C2320 1.465 . S
C2326 C2325 1.396 . S
C2326 C2327 1.399 . S
C2327 H2313 0.929 . S
C2327 C2326 1.399 . S
C2327 C2328 1.385 . S
C2328 H2314 0.931 . S
C2328 C2327 1.385 . S
C2328 C2329 1.389 . S
C2329 C2328 1.389 . S
C2329 C2330 1.387 . S
C2330 H2315 0.930 . S
C2330 C2325 1.390 . S
C2330 C2329 1.387 . S
H2331 C2343 0.915 1_554 S
H2332 C2345 0.930 . S
H2333 C2346 0.930 . S
H2334 C2350 0.959 . S
H2335 C2350 0.959 . S
H2336 C2350 0.961 . S
H2337 C2351 0.960 . S
H2338 C2351 0.961 . S
H2339 C2351 0.959 . S
H2340 C2354 0.929 . S
H2341 C2355 0.931 . S
H2342 C2357 0.930 . S
C2343 H2331 0.915 1_556 S
C2343 C2344 1.412 . S
C2343 C2348 1.402 . S
C2344 C2343 1.412 . S
C2344 C2345 1.376 . S
C2345 H2332 0.930 . S
C2345 C2344 1.376 . S
C2345 C2346 1.388 . S
C2346 H2333 0.930 . S
C2346 C2345 1.388 . S
C2346 C2347 1.390 . S
C2347 C2346 1.390 . S
C2347 C2348 1.394 . S
C2347 C2353 1.465 . S
C2348 C2343 1.402 . S
C2348 C2347 1.394 . S
C2348 C2349 1.516 1_556 S
C2349 C2348 1.516 1_554 S
C2349 C2350 1.502 . S
C2349 C2351 1.561 . S
C2349 C2352 1.526 . S
C2350 H2334 0.959 . S
C2350 H2335 0.959 . S
C2350 H2336 0.961 . S
C2350 C2349 1.502 . S
C2351 H2337 0.960 . S
C2351 H2338 0.961 . S
C2351 H2339 0.959 . S
C2351 C2349 1.561 . S
C2352 C2349 1.526 . S
C2352 C2353 1.396 1_554 S
C2352 C2357 1.390 . S
C2353 C2347 1.465 . S
C2353 C2352 1.396 1_556 S
C2353 C2354 1.399 . S
C2354 H2340 0.929 . S
C2354 C2353 1.399 . S
C2354 C2355 1.385 . S
C2355 H2341 0.931 . S
C2355 C2354 1.385 . S
C2355 C2356 1.389 . S
C2356 C2355 1.389 . S
C2356 C2357 1.387 1_556 S
C2357 H2342 0.930 . S
C2357 C2352 1.390 . S
C2357 C2356 1.387 1_554 S
H2358 C2370 0.930 . S
H2359 C2372 0.930 . S
H2360 C2373 0.930 . S
H2361 C2377 0.959 . S
H2362 C2377 0.959 . S
H2363 C2377 0.961 . S
H2364 C2378 0.960 . S
H2365 C2378 0.961 . S
H2366 C2378 0.959 . S
H2367 C2381 0.929 . S
H2368 C2382 0.931 . S
H2369 C2384 0.930 . S
C2370 H2358 0.930 . S
C2370 C2371 1.399 . S
C2370 C2375 1.399 . S
C2371 C2370 1.399 . S
C2371 C2372 1.376 . S
C2372 H2359 0.930 . S
C2372 C2371 1.376 . S
C2372 C2373 1.388 . S
C2373 H2360 0.930 . S
C2373 C2372 1.388 . S
C2373 C2374 1.390 . S
C2374 C2373 1.390 . S
C2374 C2375 1.394 . S
C2374 C2380 1.465 . S
C2375 C2370 1.399 . S
C2375 C2374 1.394 . S
C2375 C2376 1.516 . S
C2376 C2375 1.516 . S
C2376 C2377 1.502 . S
C2376 C2378 1.561 . S
C2376 C2379 1.526 . S
C2377 H2361 0.959 . S
C2377 H2362 0.959 . S
C2377 H2363 0.961 . S
C2377 C2376 1.502 . S
C2378 H2364 0.960 . S
C2378 H2365 0.961 . S
C2378 H2366 0.959 . S
C2378 C2376 1.561 . S
C2379 C2376 1.526 . S
C2379 C2380 1.396 . S
C2379 C2384 1.390 . S
C2380 C2374 1.465 . S
C2380 C2379 1.396 . S
C2380 C2381 1.399 . S
C2381 H2367 0.929 . S
C2381 C2380 1.399 . S
C2381 C2382 1.385 . S
C2382 H2368 0.931 . S
C2382 C2381 1.385 . S
C2382 C2383 1.389 . S
C2383 C2382 1.389 . S
C2383 C2384 1.387 . S
C2384 H2369 0.930 . S
C2384 C2379 1.390 . S
C2384 C2383 1.387 . S
H2385 C2397 0.930 . S
H2386 C2399 0.930 . S
H2387 C2400 0.931 . S
H2388 C2404 0.959 . S
H2389 C2404 0.959 . S
H2390 C2404 0.961 . S
H2391 C2405 0.960 . S
H2392 C2405 0.961 . S
H2393 C2405 0.959 . S
H2394 C2408 0.929 . S
H2395 C2409 0.931 . S
H2396 C2411 0.930 . S
C2397 H2385 0.930 . S
C2397 C2398 1.399 . S
C2397 C2402 1.399 . S
C2398 C2397 1.399 . S
C2398 C2399 1.376 . S
C2399 H2386 0.930 . S
C2399 C2398 1.376 . S
C2399 C2400 1.388 . S
C2400 H2387 0.931 . S
C2400 C2399 1.388 . S
C2400 C2401 1.391 . S
C2401 C2400 1.391 . S
C2401 C2402 1.398 . S
C2401 C2407 1.461 1_554 S
C2402 C2397 1.399 . S
C2402 C2401 1.398 . S
C2402 C2403 1.513 1_554 S
C2403 C2402 1.513 1_556 S
C2403 C2404 1.487 1_556 S
C2403 C2405 1.577 . S
C2403 C2406 1.530 . S
C2404 H2388 0.959 . S
C2404 H2389 0.959 . S
C2404 H2390 0.961 . S
C2404 C2403 1.487 1_554 S
C2405 H2391 0.960 . S
C2405 H2392 0.961 . S
C2405 H2393 0.959 . S
C2405 C2403 1.577 . S
C2406 C2403 1.530 . S
C2406 C2407 1.396 . S
C2406 C2411 1.390 . S
C2407 C2401 1.461 1_556 S
C2407 C2406 1.396 . S
C2407 C2408 1.399 . S
C2408 H2394 0.929 . S
C2408 C2407 1.399 . S
C2408 C2409 1.385 . S
C2409 H2395 0.931 . S
C2409 C2408 1.385 . S
C2409 C2410 1.389 . S
C2410 C2409 1.389 . S
C2410 C2411 1.387 . S
C2411 H2396 0.930 . S
C2411 C2406 1.390 . S
C2411 C2410 1.387 . S
H2412 C2424 0.930 . S
H2413 C2426 0.930 . S
H2414 C2427 0.930 . S
H2415 C2431 0.959 . S
H2416 C2431 0.959 . S
H2417 C2431 0.961 . S
H2418 C2432 0.960 . S
H2419 C2432 0.961 . S
H2420 C2432 0.959 . S
H2421 C2435 0.929 . S
H2422 C2436 0.931 . S
H2423 C2438 0.930 . S
C2424 H2412 0.930 . S
C2424 C2425 1.399 . S
C2424 C2429 1.399 . S
C2425 C2424 1.399 . S
C2425 C2426 1.376 . S
C2426 H2413 0.930 . S
C2426 C2425 1.376 . S
C2426 C2427 1.388 . S
C2427 H2414 0.930 . S
C2427 C2426 1.388 . S
C2427 C2428 1.390 . S
C2428 C2427 1.390 . S
C2428 C2429 1.394 . S
C2428 C2434 1.465 . S
C2429 C2424 1.399 . S
C2429 C2428 1.394 . S
C2429 C2430 1.516 . S
C2430 C2429 1.516 . S
C2430 C2431 1.502 . S
C2430 C2432 1.561 . S
C2430 C2433 1.526 . S
C2431 H2415 0.959 . S
C2431 H2416 0.959 . S
C2431 H2417 0.961 . S
C2431 C2430 1.502 . S
C2432 H2418 0.960 . S
C2432 H2419 0.961 . S
C2432 H2420 0.959 . S
C2432 C2430 1.561 . S
C2433 C2430 1.526 . S
C2433 C2434 1.396 . S
C2433 C2438 1.390 . S
C2434 C2428 1.465 . S
C2434 C2433 1.396 . S
C2434 C2435 1.399 . S
C2435 H2421 0.929 . S
C2435 C2434 1.399 . S
C2435 C2436 1.385 . S
C2436 H2422 0.931 . S
C2436 C2435 1.385 . S
C2436 C2437 1.389 . S
C2437 C2436 1.389 . S
C2437 C2438 1.387 . S
C2438 H2423 0.930 . S
C2438 C2433 1.390 . S
C2438 C2437 1.387 . S
H2439 C2451 0.940 . S
H2440 C2453 0.930 . S
H2441 C2454 0.930 . S
H2442 C2458 0.959 . S
H2443 C2458 0.959 . S
H2444 C2458 0.961 . S
H2445 C2459 0.960 . S
H2446 C2459 0.961 . S
H2447 C2459 0.959 . S
H2448 C2462 0.929 . S
H2449 C2463 0.931 . S
H2450 C2465 0.957 . S
C2451 H2439 0.940 . S
C2451 C2452 1.399 . S
C2451 C2456 1.399 . S
C2452 C2451 1.399 . S
C2452 C2453 1.376 . S
C2453 H2440 0.930 . S
C2453 C2452 1.376 . S
C2453 C2454 1.388 . S
C2454 H2441 0.930 . S
C2454 C2453 1.388 . S
C2454 C2455 1.390 . S
C2455 C2454 1.390 . S
C2455 C2456 1.394 . S
C2455 C2461 1.465 . S
C2456 C2451 1.399 . S
C2456 C2455 1.394 . S
C2456 C2457 1.510 1_655 S
C2457 C2456 1.510 1_455 S
C2457 C2458 1.519 . S
C2457 C2459 1.552 1_455 S
C2457 C2460 1.521 1_455 S
C2458 H2442 0.959 . S
C2458 H2443 0.959 . S
C2458 H2444 0.961 . S
C2458 C2457 1.519 . S
C2459 H2445 0.960 . S
C2459 H2446 0.961 . S
C2459 H2447 0.959 . S
C2459 C2457 1.552 1_655 S
C2460 C2457 1.521 1_655 S
C2460 C2461 1.396 . S
C2460 C2465 1.382 1_655 S
C2461 C2455 1.465 . S
C2461 C2460 1.396 . S
C2461 C2462 1.399 . S
C2462 H2448 0.929 . S
C2462 C2461 1.399 . S
C2462 C2463 1.385 . S
C2463 H2449 0.931 . S
C2463 C2462 1.385 . S
C2463 C2464 1.389 . S
C2464 C2463 1.389 . S
C2464 C2465 1.369 1_655 S
C2465 H2450 0.957 . S
C2465 C2460 1.382 1_455 S
C2465 C2464 1.369 1_455 S
H2466 C2478 0.930 . S
H2467 C2480 0.930 . S
H2468 C2481 0.930 . S
H2469 C2485 0.959 . S
H2470 C2485 0.959 . S
H2471 C2485 0.961 . S
H2472 C2486 0.960 . S
H2473 C2486 0.961 . S
H2474 C2486 0.959 . S
H2475 C2489 0.929 . S
H2476 C2490 0.931 . S
H2477 C2492 0.930 . S
C2478 H2466 0.930 . S
C2478 C2479 1.399 . S
C2478 C2483 1.399 . S
C2479 C2478 1.399 . S
C2479 C2480 1.376 . S
C2480 H2467 0.930 . S
C2480 C2479 1.376 . S
C2480 C2481 1.388 . S
C2481 H2468 0.930 . S
C2481 C2480 1.388 . S
C2481 C2482 1.390 . S
C2482 C2481 1.390 . S
C2482 C2483 1.394 . S
C2482 C2488 1.465 . S
C2483 C2478 1.399 . S
C2483 C2482 1.394 . S
C2483 C2484 1.516 . S
C2484 C2483 1.516 . S
C2484 C2485 1.502 . S
C2484 C2486 1.561 . S
C2484 C2487 1.526 . S
C2485 H2469 0.959 . S
C2485 H2470 0.959 . S
C2485 H2471 0.961 . S
C2485 C2484 1.502 . S
C2486 H2472 0.960 . S
C2486 H2473 0.961 . S
C2486 H2474 0.959 . S
C2486 C2484 1.561 . S
C2487 C2484 1.526 . S
C2487 C2488 1.396 . S
C2487 C2492 1.390 . S
C2488 C2482 1.465 . S
C2488 C2487 1.396 . S
C2488 C2489 1.399 . S
C2489 H2475 0.929 . S
C2489 C2488 1.399 . S
C2489 C2490 1.385 . S
C2490 H2476 0.931 . S
C2490 C2489 1.385 . S
C2490 C2491 1.389 . S
C2491 C2490 1.389 . S
C2491 C2492 1.387 . S
C2492 H2477 0.930 . S
C2492 C2487 1.390 . S
C2492 C2491 1.387 . S
H2493 C2505 0.930 . S
H2494 C2507 0.930 . S
H2495 C2508 0.930 . S
H2496 C2512 0.959 . S
H2497 C2512 0.959 . S
H2498 C2512 0.961 . S
H2499 C2513 0.960 . S
H2500 C2513 0.961 . S
H2501 C2513 0.959 . S
H2502 C2516 0.929 . S
H2503 C2517 0.931 . S
H2504 C2519 0.930 . S
C2505 H2493 0.930 . S
C2505 C2506 1.399 . S
C2505 C2510 1.399 . S
C2506 C2505 1.399 . S
C2506 C2507 1.376 . S
C2507 H2494 0.930 . S
C2507 C2506 1.376 . S
C2507 C2508 1.388 . S
C2508 H2495 0.930 . S
C2508 C2507 1.388 . S
C2508 C2509 1.390 . S
C2509 C2508 1.390 . S
C2509 C2510 1.394 . S
C2509 C2515 1.465 1_455 S
C2510 C2505 1.399 . S
C2510 C2509 1.394 . S
C2510 C2511 1.516 1_455 S
C2511 C2510 1.516 1_655 S
C2511 C2512 1.502 1_655 S
C2511 C2513 1.561 . S
C2511 C2514 1.526 . S
C2512 H2496 0.959 . S
C2512 H2497 0.959 . S
C2512 H2498 0.961 . S
C2512 C2511 1.502 1_455 S
C2513 H2499 0.960 . S
C2513 H2500 0.961 . S
C2513 H2501 0.959 . S
C2513 C2511 1.561 . S
C2514 C2511 1.526 . S
C2514 C2515 1.396 . S
C2514 C2519 1.390 . S
C2515 C2509 1.465 1_655 S
C2515 C2514 1.396 . S
C2515 C2516 1.399 . S
C2516 H2502 0.929 . S
C2516 C2515 1.399 . S
C2516 C2517 1.385 . S
C2517 H2503 0.931 . S
C2517 C2516 1.385 . S
C2517 C2518 1.389 . S
C2518 C2517 1.389 . S
C2518 C2519 1.387 . S
C2519 H2504 0.930 . S
C2519 C2514 1.390 . S
C2519 C2518 1.387 . S
H2520 C2532 0.930 . S
H2521 C2534 0.930 . S
H2522 C2535 0.930 . S
H2523 C2539 0.959 . S
H2524 C2539 0.959 . S
H2525 C2539 0.961 . S
H2526 C2540 0.960 . S
H2527 C2540 0.961 . S
H2528 C2540 0.959 . S
H2529 C2543 0.929 . S
H2530 C2544 0.931 . S
H2531 C2546 0.930 . S
C2532 H2520 0.930 . S
C2532 C2533 1.399 . S
C2532 C2537 1.399 . S
C2533 C2532 1.399 . S
C2533 C2534 1.376 . S
C2534 H2521 0.930 . S
C2534 C2533 1.376 . S
C2534 C2535 1.388 . S
C2535 H2522 0.930 . S
C2535 C2534 1.388 . S
C2535 C2536 1.390 . S
C2536 C2535 1.390 . S
C2536 C2537 1.394 . S
C2536 C2542 1.465 . S
C2537 C2532 1.399 . S
C2537 C2536 1.394 . S
C2537 C2538 1.516 . S
C2538 C2537 1.516 . S
C2538 C2539 1.502 . S
C2538 C2540 1.561 . S
C2538 C2541 1.526 . S
C2539 H2523 0.959 . S
C2539 H2524 0.959 . S
C2539 H2525 0.961 . S
C2539 C2538 1.502 . S
C2540 H2526 0.960 . S
C2540 H2527 0.961 . S
C2540 H2528 0.959 . S
C2540 C2538 1.561 . S
C2541 C2538 1.526 . S
C2541 C2542 1.396 . S
C2541 C2546 1.390 . S
C2542 C2536 1.465 . S
C2542 C2541 1.396 . S
C2542 C2543 1.399 . S
C2543 H2529 0.929 . S
C2543 C2542 1.399 . S
C2543 C2544 1.385 . S
C2544 H2530 0.931 . S
C2544 C2543 1.385 . S
C2544 C2545 1.389 . S
C2545 C2544 1.389 . S
C2545 C2546 1.387 . S
C2546 H2531 0.930 . S
C2546 C2541 1.390 . S
C2546 C2545 1.387 . S
H2547 C2559 0.930 . S
H2548 C2561 0.930 . S
H2549 C2562 0.930 . S
H2550 C2566 0.959 . S
H2551 C2566 0.959 . S
H2552 C2566 0.961 . S
H2553 C2567 0.960 . S
H2554 C2567 0.961 . S
H2555 C2567 0.959 . S
H2556 C2570 0.929 . S
H2557 C2571 0.931 . S
H2558 C2573 0.930 . S
C2559 H2547 0.930 . S
C2559 C2560 1.399 . S
C2559 C2564 1.399 . S
C2560 C2559 1.399 . S
C2560 C2561 1.376 . S
C2561 H2548 0.930 . S
C2561 C2560 1.376 . S
C2561 C2562 1.388 . S
C2562 H2549 0.930 . S
C2562 C2561 1.388 . S
C2562 C2563 1.390 . S
C2563 C2562 1.390 . S
C2563 C2564 1.394 . S
C2563 C2569 1.465 . S
C2564 C2559 1.399 . S
C2564 C2563 1.394 . S
C2564 C2565 1.516 . S
C2565 C2564 1.516 . S
C2565 C2566 1.502 . S
C2565 C2567 1.561 . S
C2565 C2568 1.526 . S
C2566 H2550 0.959 . S
C2566 H2551 0.959 . S
C2566 H2552 0.961 . S
C2566 C2565 1.502 . S
C2567 H2553 0.960 . S
C2567 H2554 0.961 . S
C2567 H2555 0.959 . S
C2567 C2565 1.561 . S
C2568 C2565 1.526 . S
C2568 C2569 1.396 . S
C2568 C2573 1.390 . S
C2569 C2563 1.465 . S
C2569 C2568 1.396 . S
C2569 C2570 1.399 . S
C2570 H2556 0.929 . S
C2570 C2569 1.399 . S
C2570 C2571 1.385 . S
C2571 H2557 0.931 . S
C2571 C2570 1.385 . S
C2571 C2572 1.389 . S
C2572 C2571 1.389 . S
C2572 C2573 1.387 . S
C2573 H2558 0.930 . S
C2573 C2568 1.390 . S
C2573 C2572 1.387 . S
H2574 C2586 0.930 . S
H2575 C2588 0.930 . S
H2576 C2589 0.930 . S
H2577 C2593 0.959 . S
H2578 C2593 0.959 . S
H2579 C2593 0.961 . S
H2580 C2594 0.960 . S
H2581 C2594 0.961 . S
H2582 C2594 0.959 . S
H2583 C2597 0.929 . S
H2584 C2598 0.931 . S
H2585 C2600 0.930 1_565 S
C2586 H2574 0.930 . S
C2586 C2587 1.399 1_565 S
C2586 C2591 1.399 1_565 S
C2587 C2586 1.399 1_545 S
C2587 C2588 1.376 . S
C2588 H2575 0.930 . S
C2588 C2587 1.376 . S
C2588 C2589 1.388 . S
C2589 H2576 0.930 . S
C2589 C2588 1.388 . S
C2589 C2590 1.390 . S
C2590 C2589 1.390 . S
C2590 C2591 1.394 . S
C2590 C2596 1.465 . S
C2591 C2586 1.399 1_545 S
C2591 C2590 1.394 . S
C2591 C2592 1.516 1_545 S
C2592 C2591 1.516 1_565 S
C2592 C2593 1.502 . S
C2592 C2594 1.561 . S
C2592 C2595 1.526 1_565 S
C2593 H2577 0.959 . S
C2593 H2578 0.959 . S
C2593 H2579 0.961 . S
C2593 C2592 1.502 . S
C2594 H2580 0.960 . S
C2594 H2581 0.961 . S
C2594 H2582 0.959 . S
C2594 C2592 1.561 . S
C2595 C2592 1.526 1_545 S
C2595 C2596 1.396 . S
C2595 C2600 1.390 . S
C2596 C2590 1.465 . S
C2596 C2595 1.396 . S
C2596 C2597 1.399 . S
C2597 H2583 0.929 . S
C2597 C2596 1.399 . S
C2597 C2598 1.385 . S
C2598 H2584 0.931 . S
C2598 C2597 1.385 . S
C2598 C2599 1.389 . S
C2599 C2598 1.389 . S
C2599 C2600 1.387 . S
C2600 H2585 0.930 1_545 S
C2600 C2595 1.390 . S
C2600 C2599 1.387 . S
H2601 C2613 0.930 1_545 S
H2602 C2615 0.930 . S
H2603 C2616 0.930 . S
H2604 C2620 0.946 1_565 S
H2605 C2620 0.959 . S
H2606 C2620 0.961 . S
H2607 C2621 0.960 . S
H2608 C2621 0.961 . S
H2609 C2621 0.959 . S
H2610 C2624 0.929 . S
H2611 C2625 0.931 . S
H2612 C2627 0.930 . S
C2613 H2601 0.930 1_565 S
C2613 C2614 1.399 . S
C2613 C2618 1.399 . S
C2614 C2613 1.399 . S
C2614 C2615 1.376 . S
C2615 H2602 0.930 . S
C2615 C2614 1.376 . S
C2615 C2616 1.388 . S
C2616 H2603 0.930 . S
C2616 C2615 1.388 . S
C2616 C2617 1.390 . S
C2617 C2616 1.390 . S
C2617 C2618 1.394 . S
C2617 C2623 1.465 . S
C2618 C2613 1.399 . S
C2618 C2617 1.394 . S
C2618 C2619 1.516 . S
C2619 C2618 1.516 . S
C2619 C2620 1.502 1_565 S
C2619 C2621 1.561 1_565 S
C2619 C2622 1.526 . S
C2620 H2604 0.946 1_545 S
C2620 H2605 0.959 . S
C2620 H2606 0.961 . S
C2620 C2619 1.502 1_545 S
C2621 H2607 0.960 . S
C2621 H2608 0.961 . S
C2621 H2609 0.959 . S
C2621 C2619 1.561 1_545 S
C2622 C2619 1.526 . S
C2622 C2623 1.396 . S
C2622 C2627 1.390 . S
C2623 C2617 1.465 . S
C2623 C2622 1.396 . S
C2623 C2624 1.399 . S
C2624 H2610 0.929 . S
C2624 C2623 1.399 . S
C2624 C2625 1.385 . S
C2625 H2611 0.931 . S
C2625 C2624 1.385 . S
C2625 C2626 1.389 . S
C2626 C2625 1.389 . S
C2626 C2627 1.387 . S
C2627 H2612 0.930 . S
C2627 C2622 1.390 . S
C2627 C2626 1.387 . S
H2628 C2640 0.930 . S
H2629 C2642 0.930 . S
H2630 C2643 0.930 . S
H2631 C2647 0.959 . S
H2632 C2647 0.959 . S
H2633 C2647 0.961 . S
H2634 C2648 0.960 . S
H2635 C2648 0.961 . S
H2636 C2648 0.959 . S
H2637 C2651 0.929 . S
H2638 C2652 0.931 . S
H2639 C2654 0.930 . S
C2640 H2628 0.930 . S
C2640 C2641 1.399 . S
C2640 C2645 1.399 . S
C2641 C2640 1.399 . S
C2641 C2642 1.376 . S
C2642 H2629 0.930 . S
C2642 C2641 1.376 . S
C2642 C2643 1.388 . S
C2643 H2630 0.930 . S
C2643 C2642 1.388 . S
C2643 C2644 1.390 . S
C2644 C2643 1.390 . S
C2644 C2645 1.394 . S
C2644 C2650 1.465 . S
C2645 C2640 1.399 . S
C2645 C2644 1.394 . S
C2645 C2646 1.516 . S
C2646 C2645 1.516 . S
C2646 C2647 1.502 . S
C2646 C2648 1.561 . S
C2646 C2649 1.526 . S
C2647 H2631 0.959 . S
C2647 H2632 0.959 . S
C2647 H2633 0.961 . S
C2647 C2646 1.502 . S
C2648 H2634 0.960 . S
C2648 H2635 0.961 . S
C2648 H2636 0.959 . S
C2648 C2646 1.561 . S
C2649 C2646 1.526 . S
C2649 C2650 1.396 . S
C2649 C2654 1.390 . S
C2650 C2644 1.465 . S
C2650 C2649 1.396 . S
C2650 C2651 1.399 . S
C2651 H2637 0.929 . S
C2651 C2650 1.399 . S
C2651 C2652 1.385 . S
C2652 H2638 0.931 . S
C2652 C2651 1.385 . S
C2652 C2653 1.389 . S
C2653 C2652 1.389 . S
C2653 C2654 1.387 . S
C2654 H2639 0.930 . S
C2654 C2649 1.390 . S
C2654 C2653 1.387 . S
H2655 C2667 0.930 1_554 S
H2656 C2669 0.930 . S
H2657 C2670 0.930 . S
H2658 C2674 1.017 . S
H2659 C2674 0.933 1_554 S
H2660 C2674 0.927 1_554 S
H2661 C2675 0.960 . S
H2662 C2675 0.961 . S
H2663 C2675 0.959 . S
H2664 C2678 0.929 . S
H2665 C2679 0.931 . S
H2666 C2681 0.930 . S
C2667 H2655 0.930 1_556 S
C2667 C2668 1.399 . S
C2667 C2672 1.399 . S
C2668 C2667 1.399 . S
C2668 C2669 1.376 . S
C2669 H2656 0.930 . S
C2669 C2668 1.376 . S
C2669 C2670 1.388 . S
C2670 H2657 0.930 . S
C2670 C2669 1.388 . S
C2670 C2671 1.390 . S
C2671 C2670 1.390 . S
C2671 C2672 1.394 . S
C2671 C2677 1.465 . S
C2672 C2667 1.399 . S
C2672 C2671 1.394 . S
C2672 C2673 1.516 . S
C2673 C2672 1.516 . S
C2673 C2674 1.512 . S
C2673 C2675 1.561 1_556 S
C2673 C2676 1.526 . S
C2674 H2658 1.017 . S
C2674 H2659 0.933 1_556 S
C2674 H2660 0.927 1_556 S
C2674 C2673 1.512 . S
C2675 H2661 0.960 . S
C2675 H2662 0.961 . S
C2675 H2663 0.959 . S
C2675 C2673 1.561 1_554 S
C2676 C2673 1.526 . S
C2676 C2677 1.396 . S
C2676 C2681 1.390 . S
C2677 C2671 1.465 . S
C2677 C2676 1.396 . S
C2677 C2678 1.399 . S
C2678 H2664 0.929 . S
C2678 C2677 1.399 . S
C2678 C2679 1.385 . S
C2679 H2665 0.931 . S
C2679 C2678 1.385 . S
C2679 C2680 1.389 . S
C2680 C2679 1.389 . S
C2680 C2681 1.387 . S
C2681 H2666 0.930 . S
C2681 C2676 1.390 . S
C2681 C2680 1.387 . S
H2682 C2694 0.930 . S
H2683 C2696 0.930 . S
H2684 C2697 0.930 . S
H2685 C2701 0.959 . S
H2686 C2701 0.959 . S
H2687 C2701 0.961 . S
H2688 C2702 0.960 . S
H2689 C2702 0.961 . S
H2690 C2702 0.959 . S
H2691 C2705 0.929 . S
H2692 C2706 0.931 . S
H2693 C2708 0.930 . S
C2694 H2682 0.930 . S
C2694 C2695 1.399 . S
C2694 C2699 1.399 . S
C2695 C2694 1.399 . S
C2695 C2696 1.376 . S
C2696 H2683 0.930 . S
C2696 C2695 1.376 . S
C2696 C2697 1.388 . S
C2697 H2684 0.930 . S
C2697 C2696 1.388 . S
C2697 C2698 1.390 . S
C2698 C2697 1.390 . S
C2698 C2699 1.394 . S
C2698 C2704 1.465 . S
C2699 C2694 1.399 . S
C2699 C2698 1.394 . S
C2699 C2700 1.516 . S
C2700 C2699 1.516 . S
C2700 C2701 1.502 . S
C2700 C2702 1.561 . S
C2700 C2703 1.526 . S
C2701 H2685 0.959 . S
C2701 H2686 0.959 . S
C2701 H2687 0.961 . S
C2701 C2700 1.502 . S
C2702 H2688 0.960 . S
C2702 H2689 0.961 . S
C2702 H2690 0.959 . S
C2702 C2700 1.561 . S
C2703 C2700 1.526 . S
C2703 C2704 1.396 . S
C2703 C2708 1.390 . S
C2704 C2698 1.465 . S
C2704 C2703 1.396 . S
C2704 C2705 1.399 . S
C2705 H2691 0.929 . S
C2705 C2704 1.399 . S
C2705 C2706 1.385 . S
C2706 H2692 0.931 . S
C2706 C2705 1.385 . S
C2706 C2707 1.389 . S
C2707 C2706 1.389 . S
C2707 C2708 1.387 . S
C2708 H2693 0.930 . S
C2708 C2703 1.390 . S
C2708 C2707 1.387 . S
H2709 C2721 0.930 . S
H2710 C2723 0.930 . S
H2711 C2724 0.930 . S
H2712 C2728 0.959 . S
H2713 C2728 0.959 . S
H2714 C2728 0.961 . S
H2715 C2729 0.960 . S
H2716 C2729 0.961 . S
H2717 C2729 0.959 . S
H2718 C2732 0.929 . S
H2719 C2733 0.968 . S
H2720 C2735 0.930 . S
C2721 H2709 0.930 . S
C2721 C2722 1.399 . S
C2721 C2726 1.399 . S
C2722 C2721 1.399 . S
C2722 C2723 1.376 1_554 S
C2723 H2710 0.930 . S
C2723 C2722 1.376 1_556 S
C2723 C2724 1.388 . S
C2724 H2711 0.930 . S
C2724 C2723 1.388 . S
C2724 C2725 1.390 1_556 S
C2725 C2724 1.390 1_554 S
C2725 C2726 1.394 . S
C2725 C2731 1.465 . S
C2726 C2721 1.399 . S
C2726 C2725 1.394 . S
C2726 C2727 1.516 . S
C2727 C2726 1.516 . S
C2727 C2728 1.502 . S
C2727 C2729 1.561 . S
C2727 C2730 1.526 . S
C2728 H2712 0.959 . S
C2728 H2713 0.959 . S
C2728 H2714 0.961 . S
C2728 C2727 1.502 . S
C2729 H2715 0.960 . S
C2729 H2716 0.961 . S
C2729 H2717 0.959 . S
C2729 C2727 1.561 . S
C2730 C2727 1.526 . S
C2730 C2731 1.396 . S
C2730 C2735 1.390 . S
C2731 C2725 1.465 . S
C2731 C2730 1.396 . S
C2731 C2732 1.399 1_554 S
C2732 H2718 0.929 . S
C2732 C2731 1.399 1_556 S
C2732 C2733 1.402 . S
C2733 H2719 0.968 . S
C2733 C2732 1.402 . S
C2733 C2734 1.337 1_556 S
C2734 C2733 1.337 1_554 S
C2734 C2735 1.387 . S
C2735 H2720 0.930 . S
C2735 C2730 1.390 . S
C2735 C2734 1.387 . S
H2736 C2748 0.930 . S
H2737 C2750 0.930 . S
H2738 C2751 0.930 . S
H2739 C2755 0.959 . S
H2740 C2755 0.959 . S
H2741 C2755 0.961 . S
H2742 C2756 0.960 . S
H2743 C2756 0.961 . S
H2744 C2756 0.959 . S
H2745 C2759 0.929 . S
H2746 C2760 0.931 . S
H2747 C2762 0.930 . S
C2748 H2736 0.930 . S
C2748 C2749 1.399 . S
C2748 C2753 1.399 . S
C2749 C2748 1.399 . S
C2749 C2750 1.376 . S
C2750 H2737 0.930 . S
C2750 C2749 1.376 . S
C2750 C2751 1.388 . S
C2751 H2738 0.930 . S
C2751 C2750 1.388 . S
C2751 C2752 1.390 . S
C2752 C2751 1.390 . S
C2752 C2753 1.394 . S
C2752 C2758 1.465 . S
C2753 C2748 1.399 . S
C2753 C2752 1.394 . S
C2753 C2754 1.516 . S
C2754 C2753 1.516 . S
C2754 C2755 1.502 . S
C2754 C2756 1.561 . S
C2754 C2757 1.526 . S
C2755 H2739 0.959 . S
C2755 H2740 0.959 . S
C2755 H2741 0.961 . S
C2755 C2754 1.502 . S
C2756 H2742 0.960 . S
C2756 H2743 0.961 . S
C2756 H2744 0.959 . S
C2756 C2754 1.561 . S
C2757 C2754 1.526 . S
C2757 C2758 1.396 . S
C2757 C2762 1.390 . S
C2758 C2752 1.465 . S
C2758 C2757 1.396 . S
C2758 C2759 1.399 . S
C2759 H2745 0.929 . S
C2759 C2758 1.399 . S
C2759 C2760 1.385 . S
C2760 H2746 0.931 . S
C2760 C2759 1.385 . S
C2760 C2761 1.389 . S
C2761 C2760 1.389 . S
C2761 C2762 1.387 . S
C2762 H2747 0.930 . S
C2762 C2757 1.390 . S
C2762 C2761 1.387 . S
H2763 C2775 0.930 1_455 S
H2764 C2777 0.930 . S
H2765 C2778 0.930 . S
H2766 C2782 0.959 . S
H2767 C2782 0.959 . S
H2768 C2782 0.961 . S
H2769 C2783 0.960 . S
H2770 C2783 0.961 . S
H2771 C2783 0.959 . S
H2772 C2786 0.929 . S
H2773 C2787 0.931 . S
H2774 C2789 0.930 . S
C2775 H2763 0.930 1_655 S
C2775 C2776 1.399 . S
C2775 C2780 1.399 . S
C2776 C2775 1.399 . S
C2776 C2777 1.376 . S
C2777 H2764 0.930 . S
C2777 C2776 1.376 . S
C2777 C2778 1.388 . S
C2778 H2765 0.930 . S
C2778 C2777 1.388 . S
C2778 C2779 1.390 . S
C2779 C2778 1.390 . S
C2779 C2780 1.394 . S
C2779 C2785 1.465 . S
C2780 C2775 1.399 . S
C2780 C2779 1.394 . S
C2780 C2781 1.516 . S
C2781 C2780 1.516 . S
C2781 C2782 1.502 1_655 S
C2781 C2783 1.561 . S
C2781 C2784 1.526 . S
C2782 H2766 0.959 . S
C2782 H2767 0.959 . S
C2782 H2768 0.961 . S
C2782 C2781 1.502 1_455 S
C2783 H2769 0.960 . S
C2783 H2770 0.961 . S
C2783 H2771 0.959 . S
C2783 C2781 1.561 . S
C2784 C2781 1.526 . S
C2784 C2785 1.396 . S
C2784 C2789 1.390 . S
C2785 C2779 1.465 . S
C2785 C2784 1.396 . S
C2785 C2786 1.399 . S
C2786 H2772 0.929 . S
C2786 C2785 1.399 . S
C2786 C2787 1.385 . S
C2787 H2773 0.931 . S
C2787 C2786 1.385 . S
C2787 C2788 1.389 . S
C2788 C2787 1.389 . S
C2788 C2789 1.387 . S
C2789 H2774 0.930 . S
C2789 C2784 1.390 . S
C2789 C2788 1.387 . S
H2790 C2802 0.930 . S
H2791 C2804 0.930 . S
H2792 C2805 0.930 . S
H2793 C2809 0.959 . S
H2794 C2809 0.959 . S
H2795 C2809 0.961 . S
H2796 C2810 0.960 . S
H2797 C2810 0.961 . S
H2798 C2810 0.959 . S
H2799 C2813 0.929 . S
H2800 C2814 0.931 . S
H2801 C2816 0.930 . S
C2802 H2790 0.930 . S
C2802 C2803 1.399 . S
C2802 C2807 1.399 . S
C2803 C2802 1.399 . S
C2803 C2804 1.376 . S
C2804 H2791 0.930 . S
C2804 C2803 1.376 . S
C2804 C2805 1.388 . S
C2805 H2792 0.930 . S
C2805 C2804 1.388 . S
C2805 C2806 1.390 . S
C2806 C2805 1.390 . S
C2806 C2807 1.394 . S
C2806 C2812 1.465 . S
C2807 C2802 1.399 . S
C2807 C2806 1.394 . S
C2807 C2808 1.516 . S
C2808 C2807 1.516 . S
C2808 C2809 1.502 . S
C2808 C2810 1.561 . S
C2808 C2811 1.526 . S
C2809 H2793 0.959 . S
C2809 H2794 0.959 . S
C2809 H2795 0.961 . S
C2809 C2808 1.502 . S
C2810 H2796 0.960 . S
C2810 H2797 0.961 . S
C2810 H2798 0.959 . S
C2810 C2808 1.561 . S
C2811 C2808 1.526 . S
C2811 C2812 1.396 . S
C2811 C2816 1.390 . S
C2812 C2806 1.465 . S
C2812 C2811 1.396 . S
C2812 C2813 1.399 . S
C2813 H2799 0.929 . S
C2813 C2812 1.399 . S
C2813 C2814 1.385 . S
C2814 H2800 0.931 . S
C2814 C2813 1.385 . S
C2814 C2815 1.389 . S
C2815 C2814 1.389 . S
C2815 C2816 1.387 . S
C2816 H2801 0.930 . S
C2816 C2811 1.390 . S
C2816 C2815 1.387 . S
H2817 C2829 0.930 . S
H2818 C2831 0.930 . S
H2819 C2832 0.930 . S
H2820 C2836 0.959 . S
H2821 C2836 0.959 . S
H2822 C2836 0.961 . S
H2823 C2837 0.960 . S
H2824 C2837 0.961 . S
H2825 C2837 0.959 . S
H2826 C2840 0.929 . S
H2827 C2841 0.931 . S
H2828 C2843 0.930 . S
C2829 H2817 0.930 . S
C2829 C2830 1.399 . S
C2829 C2834 1.399 . S
C2830 C2829 1.399 . S
C2830 C2831 1.376 1_455 S
C2831 H2818 0.930 . S
C2831 C2830 1.376 1_655 S
C2831 C2832 1.388 . S
C2832 H2819 0.930 . S
C2832 C2831 1.388 . S
C2832 C2833 1.390 1_655 S
C2833 C2832 1.390 1_455 S
C2833 C2834 1.394 . S
C2833 C2839 1.465 . S
C2834 C2829 1.399 . S
C2834 C2833 1.394 . S
C2834 C2835 1.516 . S
C2835 C2834 1.516 . S
C2835 C2836 1.502 . S
C2835 C2837 1.561 . S
C2835 C2838 1.526 . S
C2836 H2820 0.959 . S
C2836 H2821 0.959 . S
C2836 H2822 0.961 . S
C2836 C2835 1.502 . S
C2837 H2823 0.960 . S
C2837 H2824 0.961 . S
C2837 H2825 0.959 . S
C2837 C2835 1.561 . S
C2838 C2835 1.526 . S
C2838 C2839 1.396 . S
C2838 C2843 1.390 . S
C2839 C2833 1.465 . S
C2839 C2838 1.396 . S
C2839 C2840 1.399 1_455 S
C2840 H2826 0.929 . S
C2840 C2839 1.399 1_655 S
C2840 C2841 1.385 . S
C2841 H2827 0.931 . S
C2841 C2840 1.385 . S
C2841 C2842 1.389 1_655 S
C2842 C2841 1.389 1_455 S
C2842 C2843 1.387 . S
C2843 H2828 0.930 . S
C2843 C2838 1.390 . S
C2843 C2842 1.387 . S
H2844 C2856 0.930 . S
H2845 C2858 0.930 . S
H2846 C2859 0.930 . S
H2847 C2863 0.959 . S
H2848 C2863 0.959 . S
H2849 C2863 0.961 . S
H2850 C2864 0.960 . S
H2851 C2864 0.961 . S
H2852 C2864 0.959 . S
H2853 C2867 0.929 . S
H2854 C2868 0.931 . S
H2855 C2870 0.930 . S
C2856 H2844 0.930 . S
C2856 C2857 1.399 . S
C2856 C2861 1.399 . S
C2857 C2856 1.399 . S
C2857 C2858 1.376 . S
C2858 H2845 0.930 . S
C2858 C2857 1.376 . S
C2858 C2859 1.388 . S
C2859 H2846 0.930 . S
C2859 C2858 1.388 . S
C2859 C2860 1.390 . S
C2860 C2859 1.390 . S
C2860 C2861 1.394 . S
C2860 C2866 1.465 . S
C2861 C2856 1.399 . S
C2861 C2860 1.394 . S
C2861 C2862 1.516 . S
C2862 C2861 1.516 . S
C2862 C2863 1.502 . S
C2862 C2864 1.561 . S
C2862 C2865 1.526 . S
C2863 H2847 0.959 . S
C2863 H2848 0.959 . S
C2863 H2849 0.961 . S
C2863 C2862 1.502 . S
C2864 H2850 0.960 . S
C2864 H2851 0.961 . S
C2864 H2852 0.959 . S
C2864 C2862 1.561 . S
C2865 C2862 1.526 . S
C2865 C2866 1.396 . S
C2865 C2870 1.390 . S
C2866 C2860 1.465 . S
C2866 C2865 1.396 . S
C2866 C2867 1.399 . S
C2867 H2853 0.929 . S
C2867 C2866 1.399 . S
C2867 C2868 1.385 . S
C2868 H2854 0.931 . S
C2868 C2867 1.385 . S
C2868 C2869 1.389 . S
C2869 C2868 1.389 . S
C2869 C2870 1.387 . S
C2870 H2855 0.930 . S
C2870 C2865 1.390 . S
C2870 C2869 1.387 . S
H2871 C2883 0.930 . S
H2872 C2885 0.930 . S
H2873 C2886 0.930 . S
H2874 C2890 0.959 . S
H2875 C2890 0.959 . S
H2876 C2890 0.961 . S
H2877 C2891 0.960 . S
H2878 C2891 0.961 . S
H2879 C2891 0.959 . S
H2880 C2894 0.929 . S
H2881 C2895 0.931 . S
H2882 C2897 0.930 . S
C2883 H2871 0.930 . S
C2883 C2884 1.399 . S
C2883 C2888 1.399 . S
C2884 C2883 1.399 . S
C2884 C2885 1.376 . S
C2885 H2872 0.930 . S
C2885 C2884 1.376 . S
C2885 C2886 1.388 . S
C2886 H2873 0.930 . S
C2886 C2885 1.388 . S
C2886 C2887 1.390 . S
C2887 C2886 1.390 . S
C2887 C2888 1.394 . S
C2887 C2893 1.465 . S
C2888 C2883 1.399 . S
C2888 C2887 1.394 . S
C2888 C2889 1.516 . S
C2889 C2888 1.516 . S
C2889 C2890 1.502 . S
C2889 C2891 1.561 . S
C2889 C2892 1.526 . S
C2890 H2874 0.959 . S
C2890 H2875 0.959 . S
C2890 H2876 0.961 . S
C2890 C2889 1.502 . S
C2891 H2877 0.960 . S
C2891 H2878 0.961 . S
C2891 H2879 0.959 . S
C2891 C2889 1.561 . S
C2892 C2889 1.526 . S
C2892 C2893 1.396 . S
C2892 C2897 1.390 . S
C2893 C2887 1.465 . S
C2893 C2892 1.396 . S
C2893 C2894 1.399 . S
C2894 H2880 0.929 . S
C2894 C2893 1.399 . S
C2894 C2895 1.385 . S
C2895 H2881 0.931 . S
C2895 C2894 1.385 . S
C2895 C2896 1.389 . S
C2896 C2895 1.389 . S
C2896 C2897 1.387 . S
C2897 H2882 0.930 . S
C2897 C2892 1.390 . S
C2897 C2896 1.387 . S
H2898 C2910 0.930 . S
H2899 C2912 0.930 . S
H2900 C2913 0.930 . S
H2901 C2917 0.959 . S
H2902 C2917 0.959 . S
H2903 C2917 0.961 . S
H2904 C2918 0.960 . S
H2905 C2918 0.961 . S
H2906 C2918 0.959 . S
H2907 C2921 0.929 . S
H2908 C2922 0.931 . S
H2909 C2924 0.930 1_545 S
C2910 H2898 0.930 . S
C2910 C2911 1.399 1_545 S
C2910 C2915 1.399 1_545 S
C2911 C2910 1.399 1_565 S
C2911 C2912 1.376 . S
C2912 H2899 0.930 . S
C2912 C2911 1.376 . S
C2912 C2913 1.388 . S
C2913 H2900 0.930 . S
C2913 C2912 1.388 . S
C2913 C2914 1.390 . S
C2914 C2913 1.390 . S
C2914 C2915 1.394 . S
C2914 C2920 1.465 . S
C2915 C2910 1.399 1_565 S
C2915 C2914 1.394 . S
C2915 C2916 1.516 1_565 S
C2916 C2915 1.516 1_545 S
C2916 C2917 1.502 . S
C2916 C2918 1.561 . S
C2916 C2919 1.526 1_545 S
C2917 H2901 0.959 . S
C2917 H2902 0.959 . S
C2917 H2903 0.961 . S
C2917 C2916 1.502 . S
C2918 H2904 0.960 . S
C2918 H2905 0.961 . S
C2918 H2906 0.959 . S
C2918 C2916 1.561 . S
C2919 C2916 1.526 1_565 S
C2919 C2920 1.396 . S
C2919 C2924 1.390 . S
C2920 C2914 1.465 . S
C2920 C2919 1.396 . S
C2920 C2921 1.399 . S
C2921 H2907 0.929 . S
C2921 C2920 1.399 . S
C2921 C2922 1.385 . S
C2922 H2908 0.931 . S
C2922 C2921 1.385 . S
C2922 C2923 1.389 . S
C2923 C2922 1.389 . S
C2923 C2924 1.387 . S
C2924 H2909 0.930 1_565 S
C2924 C2919 1.390 . S
C2924 C2923 1.387 . S
H2925 C2937 0.930 1_565 S
H2926 C2939 0.930 . S
H2927 C2940 0.930 . S
H2928 C2944 0.992 . S
H2929 C2944 0.943 1_565 S
H2930 C2944 0.940 1_565 S
H2931 C2945 0.960 . S
H2932 C2945 0.961 . S
H2933 C2945 0.959 . S
H2934 C2948 0.929 . S
H2935 C2949 0.931 . S
H2936 C2951 0.930 . S
C2937 H2925 0.930 1_545 S
C2937 C2938 1.399 . S
C2937 C2942 1.399 . S
C2938 C2937 1.399 . S
C2938 C2939 1.376 . S
C2939 H2926 0.930 . S
C2939 C2938 1.376 . S
C2939 C2940 1.388 . S
C2940 H2927 0.930 . S
C2940 C2939 1.388 . S
C2940 C2941 1.390 . S
C2941 C2940 1.390 . S
C2941 C2942 1.394 . S
C2941 C2947 1.465 . S
C2942 C2937 1.399 . S
C2942 C2941 1.394 . S
C2942 C2943 1.516 . S
C2943 C2942 1.516 . S
C2943 C2944 1.510 . S
C2943 C2945 1.561 1_545 S
C2943 C2946 1.526 . S
C2944 H2928 0.992 . S
C2944 H2929 0.943 1_545 S
C2944 H2930 0.940 1_545 S
C2944 C2943 1.510 . S
C2945 H2931 0.960 . S
C2945 H2932 0.961 . S
C2945 H2933 0.959 . S
C2945 C2943 1.561 1_565 S
C2946 C2943 1.526 . S
C2946 C2947 1.396 . S
C2946 C2951 1.390 . S
C2947 C2941 1.465 . S
C2947 C2946 1.396 . S
C2947 C2948 1.399 . S
C2948 H2934 0.929 . S
C2948 C2947 1.399 . S
C2948 C2949 1.385 . S
C2949 H2935 0.931 . S
C2949 C2948 1.385 . S
C2949 C2950 1.389 . S
C2950 C2949 1.389 . S
C2950 C2951 1.387 . S
C2951 H2936 0.930 . S
C2951 C2946 1.390 . S
C2951 C2950 1.387 . S
H2952 C2964 0.930 . S
H2953 C2966 0.930 . S
H2954 C2967 0.930 . S
H2955 C2971 0.959 . S
H2956 C2971 0.959 . S
H2957 C2971 0.961 . S
H2958 C2972 0.960 . S
H2959 C2972 0.961 . S
H2960 C2972 0.959 . S
H2961 C2975 0.929 . S
H2962 C2976 0.931 . S
H2963 C2978 0.930 . S
C2964 H2952 0.930 . S
C2964 C2965 1.399 . S
C2964 C2969 1.399 . S
C2965 C2964 1.399 . S
C2965 C2966 1.376 . S
C2966 H2953 0.930 . S
C2966 C2965 1.376 . S
C2966 C2967 1.388 . S
C2967 H2954 0.930 . S
C2967 C2966 1.388 . S
C2967 C2968 1.390 . S
C2968 C2967 1.390 . S
C2968 C2969 1.394 . S
C2968 C2974 1.465 . S
C2969 C2964 1.399 . S
C2969 C2968 1.394 . S
C2969 C2970 1.516 . S
C2970 C2969 1.516 . S
C2970 C2971 1.502 . S
C2970 C2972 1.561 . S
C2970 C2973 1.526 . S
C2971 H2955 0.959 . S
C2971 H2956 0.959 . S
C2971 H2957 0.961 . S
C2971 C2970 1.502 . S
C2972 H2958 0.960 . S
C2972 H2959 0.961 . S
C2972 H2960 0.959 . S
C2972 C2970 1.561 . S
C2973 C2970 1.526 . S
C2973 C2974 1.396 . S
C2973 C2978 1.390 . S
C2974 C2968 1.465 . S
C2974 C2973 1.396 . S
C2974 C2975 1.399 . S
C2975 H2961 0.929 . S
C2975 C2974 1.399 . S
C2975 C2976 1.385 . S
C2976 H2962 0.931 . S
C2976 C2975 1.385 . S
C2976 C2977 1.389 . S
C2977 C2976 1.389 . S
C2977 C2978 1.387 . S
C2978 H2963 0.930 . S
C2978 C2973 1.390 . S
C2978 C2977 1.387 . S
H2979 C2991 0.930 . S
H2980 C2993 0.922 1_556 S
H2981 C2994 0.930 . S
H2982 C2998 0.959 . S
H2983 C2998 0.959 . S
H2984 C2998 0.961 . S
H2985 C2999 0.960 . S
H2986 C2999 0.961 . S
H2987 C2999 0.959 . S
H2988 C3002 0.929 . S
H2989 C3003 0.931 . S
H2990 C3005 0.930 . S
C2991 H2979 0.930 . S
C2991 C2992 1.399 . S
C2991 C2996 1.399 . S
C2992 C2991 1.399 . S
C2992 C2993 1.376 . S
C2993 H2980 0.922 1_554 S
C2993 C2992 1.376 . S
C2993 C2994 1.388 . S
C2994 H2981 0.930 . S
C2994 C2993 1.388 . S
C2994 C2995 1.390 . S
C2995 C2994 1.390 . S
C2995 C2996 1.394 . S
C2995 C3001 1.465 . S
C2996 C2991 1.399 . S
C2996 C2995 1.394 . S
C2996 C2997 1.516 . S
C2997 C2996 1.516 . S
C2997 C2998 1.502 . S
C2997 C2999 1.561 . S
C2997 C3000 1.526 . S
C2998 H2982 0.959 . S
C2998 H2983 0.959 . S
C2998 H2984 0.961 . S
C2998 C2997 1.502 . S
C2999 H2985 0.960 . S
C2999 H2986 0.961 . S
C2999 H2987 0.959 . S
C2999 C2997 1.561 . S
C3000 C2997 1.526 . S
C3000 C3001 1.396 . S
C3000 C3005 1.390 . S
C3001 C2995 1.465 . S
C3001 C3000 1.396 . S
C3001 C3002 1.399 . S
C3002 H2988 0.929 . S
C3002 C3001 1.399 . S
C3002 C3003 1.385 . S
C3003 H2989 0.931 . S
C3003 C3002 1.385 . S
C3003 C3004 1.389 . S
C3004 C3003 1.389 . S
C3004 C3005 1.387 . S
C3005 H2990 0.930 . S
C3005 C3000 1.390 . S
C3005 C3004 1.387 . S
H3006 C3018 0.930 . S
H3007 C3020 0.930 . S
H3008 C3021 0.930 . S
H3009 C3025 0.959 . S
H3010 C3025 0.959 . S
H3011 C3025 0.961 . S
H3012 C3026 0.960 . S
H3013 C3026 0.961 . S
H3014 C3026 0.959 . S
H3015 C3029 0.929 . S
H3016 C3030 0.931 . S
H3017 C3032 0.930 . S
C3018 H3006 0.930 . S
C3018 C3019 1.399 . S
C3018 C3023 1.399 . S
C3019 C3018 1.399 . S
C3019 C3020 1.376 . S
C3020 H3007 0.930 . S
C3020 C3019 1.376 . S
C3020 C3021 1.388 . S
C3021 H3008 0.930 . S
C3021 C3020 1.388 . S
C3021 C3022 1.390 . S
C3022 C3021 1.390 . S
C3022 C3023 1.394 . S
C3022 C3028 1.465 . S
C3023 C3018 1.399 . S
C3023 C3022 1.394 . S
C3023 C3024 1.516 . S
C3024 C3023 1.516 . S
C3024 C3025 1.502 . S
C3024 C3026 1.561 . S
C3024 C3027 1.526 . S
C3025 H3009 0.959 . S
C3025 H3010 0.959 . S
C3025 H3011 0.961 . S
C3025 C3024 1.502 . S
C3026 H3012 0.960 . S
C3026 H3013 0.961 . S
C3026 H3014 0.959 . S
C3026 C3024 1.561 . S
C3027 C3024 1.526 . S
C3027 C3028 1.396 . S
C3027 C3032 1.390 . S
C3028 C3022 1.465 . S
C3028 C3027 1.396 . S
C3028 C3029 1.399 . S
C3029 H3015 0.929 . S
C3029 C3028 1.399 . S
C3029 C3030 1.385 . S
C3030 H3016 0.931 . S
C3030 C3029 1.385 . S
C3030 C3031 1.389 . S
C3031 C3030 1.389 . S
C3031 C3032 1.387 . S
C3032 H3017 0.930 . S
C3032 C3027 1.390 . S
C3032 C3031 1.387 . S
H3033 C3045 0.930 . S
H3034 C3047 0.930 . S
H3035 C3048 0.930 . S
H3036 C3052 0.959 . S
H3037 C3052 0.959 . S
H3038 C3052 0.961 . S
H3039 C3053 0.960 . S
H3040 C3053 0.961 . S
H3041 C3053 0.959 . S
H3042 C3056 0.929 . S
H3043 C3057 0.931 . S
H3044 C3059 0.930 1_554 S
C3045 H3033 0.930 . S
C3045 C3046 1.399 1_554 S
C3045 C3050 1.399 1_554 S
C3046 C3045 1.399 1_556 S
C3046 C3047 1.376 . S
C3047 H3034 0.930 . S
C3047 C3046 1.376 . S
C3047 C3048 1.388 . S
C3048 H3035 0.930 . S
C3048 C3047 1.388 . S
C3048 C3049 1.390 . S
C3049 C3048 1.390 . S
C3049 C3050 1.394 . S
C3049 C3055 1.465 . S
C3050 C3045 1.399 1_556 S
C3050 C3049 1.394 . S
C3050 C3051 1.516 1_556 S
C3051 C3050 1.516 1_554 S
C3051 C3052 1.502 . S
C3051 C3053 1.561 . S
C3051 C3054 1.526 1_554 S
C3052 H3036 0.959 . S
C3052 H3037 0.959 . S
C3052 H3038 0.961 . S
C3052 C3051 1.502 . S
C3053 H3039 0.960 . S
C3053 H3040 0.961 . S
C3053 H3041 0.959 . S
C3053 C3051 1.561 . S
C3054 C3051 1.526 1_556 S
C3054 C3055 1.396 . S
C3054 C3059 1.390 . S
C3055 C3049 1.465 . S
C3055 C3054 1.396 . S
C3055 C3056 1.399 . S
C3056 H3042 0.929 . S
C3056 C3055 1.399 . S
C3056 C3057 1.385 . S
C3057 H3043 0.931 . S
C3057 C3056 1.385 . S
C3057 C3058 1.389 . S
C3058 C3057 1.389 . S
C3058 C3059 1.387 . S
C3059 H3044 0.930 1_556 S
C3059 C3054 1.390 . S
C3059 C3058 1.387 . S
H3060 C3072 0.930 . S
H3061 C3074 0.930 . S
H3062 C3075 0.930 . S
H3063 C3079 0.959 . S
H3064 C3079 0.959 . S
H3065 C3079 0.961 . S
H3066 C3080 0.960 . S
H3067 C3080 0.961 . S
H3068 C3080 0.959 . S
H3069 C3083 0.929 . S
H3070 C3084 0.931 . S
H3071 C3086 0.930 . S
C3072 H3060 0.930 . S
C3072 C3073 1.399 . S
C3072 C3077 1.399 . S
C3073 C3072 1.399 . S
C3073 C3074 1.376 . S
C3074 H3061 0.930 . S
C3074 C3073 1.376 . S
C3074 C3075 1.388 . S
C3075 H3062 0.930 . S
C3075 C3074 1.388 . S
C3075 C3076 1.390 . S
C3076 C3075 1.390 . S
C3076 C3077 1.394 . S
C3076 C3082 1.465 . S
C3077 C3072 1.399 . S
C3077 C3076 1.394 . S
C3077 C3078 1.516 . S
C3078 C3077 1.516 . S
C3078 C3079 1.502 . S
C3078 C3080 1.561 . S
C3078 C3081 1.526 . S
C3079 H3063 0.959 . S
C3079 H3064 0.959 . S
C3079 H3065 0.961 . S
C3079 C3078 1.502 . S
C3080 H3066 0.960 . S
C3080 H3067 0.961 . S
C3080 H3068 0.959 . S
C3080 C3078 1.561 . S
C3081 C3078 1.526 . S
C3081 C3082 1.396 . S
C3081 C3086 1.390 . S
C3082 C3076 1.465 . S
C3082 C3081 1.396 . S
C3082 C3083 1.399 . S
C3083 H3069 0.929 . S
C3083 C3082 1.399 . S
C3083 C3084 1.385 . S
C3084 H3070 0.931 . S
C3084 C3083 1.385 . S
C3084 C3085 1.389 . S
C3085 C3084 1.389 . S
C3085 C3086 1.387 . S
C3086 H3071 0.930 . S
C3086 C3081 1.390 . S
C3086 C3085 1.387 . S
H3087 C3099 0.930 . S
H3088 C3101 0.924 1_655 S
H3089 C3102 0.930 1_655 S
H3090 C3106 0.959 . S
H3091 C3106 0.959 . S
H3092 C3106 0.961 . S
H3093 C3107 0.960 . S
H3094 C3107 0.961 . S
H3095 C3107 0.959 . S
H3096 C3110 0.929 . S
H3097 C3111 0.931 . S
H3098 C3113 0.930 . S
C3099 H3087 0.930 . S
C3099 C3100 1.399 . S
C3099 C3104 1.399 . S
C3100 C3099 1.399 . S
C3100 C3101 1.383 . S
C3101 H3088 0.924 1_455 S
C3101 C3100 1.383 . S
C3101 C3102 1.388 . S
C3102 H3089 0.930 1_455 S
C3102 C3101 1.388 . S
C3102 C3103 1.390 . S
C3103 C3102 1.390 . S
C3103 C3104 1.394 . S
C3103 C3109 1.465 . S
C3104 C3099 1.399 . S
C3104 C3103 1.394 . S
C3104 C3105 1.516 . S
C3105 C3104 1.516 . S
C3105 C3106 1.502 . S
C3105 C3107 1.561 . S
C3105 C3108 1.526 . S
C3106 H3090 0.959 . S
C3106 H3091 0.959 . S
C3106 H3092 0.961 . S
C3106 C3105 1.502 . S
C3107 H3093 0.960 . S
C3107 H3094 0.961 . S
C3107 H3095 0.959 . S
C3107 C3105 1.561 . S
C3108 C3105 1.526 . S
C3108 C3109 1.396 . S
C3108 C3113 1.390 . S
C3109 C3103 1.465 . S
C3109 C3108 1.396 . S
C3109 C3110 1.399 . S
C3110 H3096 0.929 . S
C3110 C3109 1.399 . S
C3110 C3111 1.385 . S
C3111 H3097 0.931 . S
C3111 C3110 1.385 . S
C3111 C3112 1.389 . S
C3112 C3111 1.389 . S
C3112 C3113 1.387 . S
C3113 H3098 0.930 . S
C3113 C3108 1.390 . S
C3113 C3112 1.387 . S
H3114 C3126 0.930 . S
H3115 C3128 0.930 . S
H3116 C3129 0.930 . S
H3117 C3133 0.959 . S
H3118 C3133 0.959 . S
H3119 C3133 0.961 . S
H3120 C3134 0.960 . S
H3121 C3134 0.961 . S
H3122 C3134 0.959 . S
H3123 C3137 0.929 . S
H3124 C3138 0.931 . S
H3125 C3140 0.930 . S
C3126 H3114 0.930 . S
C3126 C3127 1.399 . S
C3126 C3131 1.399 . S
C3127 C3126 1.399 . S
C3127 C3128 1.376 . S
C3128 H3115 0.930 . S
C3128 C3127 1.376 . S
C3128 C3129 1.388 . S
C3129 H3116 0.930 . S
C3129 C3128 1.388 . S
C3129 C3130 1.390 . S
C3130 C3129 1.390 . S
C3130 C3131 1.394 . S
C3130 C3136 1.465 . S
C3131 C3126 1.399 . S
C3131 C3130 1.394 . S
C3131 C3132 1.516 . S
C3132 C3131 1.516 . S
C3132 C3133 1.502 . S
C3132 C3134 1.561 . S
C3132 C3135 1.526 . S
C3133 H3117 0.959 . S
C3133 H3118 0.959 . S
C3133 H3119 0.961 . S
C3133 C3132 1.502 . S
C3134 H3120 0.960 . S
C3134 H3121 0.961 . S
C3134 H3122 0.959 . S
C3134 C3132 1.561 . S
C3135 C3132 1.526 . S
C3135 C3136 1.396 . S
C3135 C3140 1.390 . S
C3136 C3130 1.465 . S
C3136 C3135 1.396 . S
C3136 C3137 1.399 . S
C3137 H3123 0.929 . S
C3137 C3136 1.399 . S
C3137 C3138 1.385 . S
C3138 H3124 0.931 . S
C3138 C3137 1.385 . S
C3138 C3139 1.389 . S
C3139 C3138 1.389 . S
C3139 C3140 1.387 . S
C3140 H3125 0.930 . S
C3140 C3135 1.390 . S
C3140 C3139 1.387 . S
H3141 C3153 0.930 . S
H3142 C3155 0.930 1_455 S
H3143 C3156 0.930 1_455 S
H3144 C3160 0.959 . S
H3145 C3160 0.959 . S
H3146 C3160 0.961 . S
H3147 C3161 0.962 1_455 S
H3148 C3161 0.967 . S
H3149 C3161 0.938 1_455 S
H3150 C3164 0.929 . S
H3151 C3165 0.931 . S
H3152 C3167 0.930 . S
C3153 H3141 0.930 . S
C3153 C3154 1.399 . S
C3153 C3158 1.399 . S
C3154 C3153 1.399 . S
C3154 C3155 1.377 . S
C3155 H3142 0.930 1_655 S
C3155 C3154 1.377 . S
C3155 C3156 1.388 . S
C3156 H3143 0.930 1_655 S
C3156 C3155 1.388 . S
C3156 C3157 1.390 . S
C3157 C3156 1.390 . S
C3157 C3158 1.394 . S
C3157 C3163 1.465 . S
C3158 C3153 1.399 . S
C3158 C3157 1.394 . S
C3158 C3159 1.516 . S
C3159 C3158 1.516 . S
C3159 C3160 1.502 . S
C3159 C3161 1.577 . S
C3159 C3162 1.526 . S
C3160 H3144 0.959 . S
C3160 H3145 0.959 . S
C3160 H3146 0.961 . S
C3160 C3159 1.502 . S
C3161 H3147 0.962 1_655 S
C3161 H3148 0.967 . S
C3161 H3149 0.938 1_655 S
C3161 C3159 1.577 . S
C3162 C3159 1.526 . S
C3162 C3163 1.396 . S
C3162 C3167 1.390 . S
C3163 C3157 1.465 . S
C3163 C3162 1.396 . S
C3163 C3164 1.399 . S
C3164 H3150 0.929 . S
C3164 C3163 1.399 . S
C3164 C3165 1.385 . S
C3165 H3151 0.931 . S
C3165 C3164 1.385 . S
C3165 C3166 1.389 . S
C3166 C3165 1.389 . S
C3166 C3167 1.387 . S
C3167 H3152 0.930 . S
C3167 C3162 1.390 . S
C3167 C3166 1.387 . S
C1249 C1186 1.913 . S
C1237 C8 1.963 . S
C1276 C1066 1.520 . S
C1264 C19 1.479 . S
C1303 C1146 1.402 . S
C1291 C30 1.414 . S
C1330 C1106 2.106 . S
C1318 C41 2.088 . S
C1357 C826 1.936 . S
C1345 C52 1.930 . S
C1372 C63 2.087 . S
C1384 C866 2.100 . S
C1411 C746 1.552 . S
C1399 C74 1.484 . S
C1426 C85 1.416 . S
C1438 C786 1.439 . S
C1465 C1026 1.904 . S
C1453 C96 1.945 . S
C1480 C107 2.068 . S
C1492 C946 2.112 . S
C1507 C118 1.490 . S
C1519 C906 1.514 . S
C1546 C986 1.444 . S
C1534 C129 1.415 . S
C1573 C706 1.964 . S
C1561 C140 1.961 . S
C1588 C151 1.512 . S
C1600 C586 1.519 . S
C1627 C666 1.426 . S
C1615 C162 1.391 . S
C1642 C173 2.027 . S
C1654 C626 2.086 . S
C1681 C346 1.956 . S
C1669 C184 1.959 . S
C1708 C386 2.082 . S
C1696 C195 2.019 . S
C1723 C206 1.438 . S
C1735 C266 1.513 . S
C1750 C217 1.396 . S
C1762 C306 1.422 . S
C1777 C228 1.929 . S
C1789 C546 1.975 . S
C1804 C239 2.032 . S
C1816 C466 2.086 . S
C1843 C426 1.561 . S
C1831 C250 1.495 . S
C1858 C261 1.432 . S
C1870 C506 1.422 . S
C1897 C285 1.249 . S
C1885 C7 1.218 . S
C1924 C325 1.229 . S
C1912 C18 1.233 . S
C1939 C29 1.145 . S
C1951 C365 1.155 . S
C1966 C40 0.797 . S
C1978 C405 0.831 . S
C2005 C445 1.206 . S
C1993 C51 1.227 . S
C2020 C62 0.803 . S
C2032 C485 0.820 . S
C2059 C525 1.173 . S
C2047 C73 1.271 . S
C2086 C565 1.179 . S
C2074 C84 1.157 . S
C2113 C605 1.200 . S
C2101 C95 1.230 . S
C2128 C106 0.805 . S
C2140 C645 0.819 . S
C2155 C117 1.250 . S
C2167 C685 1.238 . S
C2182 C128 1.161 . S
C2194 C725 1.177 . S
C2209 C139 1.199 . S
C2221 C765 1.150 . S
C2236 C150 1.101 . S
C2248 C805 1.231 . S
C2263 C161 1.016 . S
C2275 C845 1.139 . S
C2290 C172 0.769 . S
C2302 C885 0.856 . S
C2317 C183 1.104 . S
C2329 C925 1.229 . S
C2356 C965 0.767 . S
C2344 C194 0.837 . S
C2383 C1005 1.197 . S
C2371 C205 1.191 . S
C2410 C1045 1.068 . S
C2398 C216 1.024 . S
C2437 C1085 1.233 . S
C2425 C227 1.173 . S
C2452 C238 0.892 . S
C2464 C1125 0.851 . S
C2479 C249 1.171 . S
C2491 C1165 1.217 . S
C2506 C260 1.031 . S
C2518 C1205 1.064 . S
C2533 C5 1.384 . S
C2545 C599 1.724 . S
C2572 C719 1.587 . S
C2560 C16 1.417 . S
C2587 C27 1.286 1_545 S
C2599 C639 1.351 . S
C2626 C679 2.158 . S
C2614 C38 1.951 1_565 S
C2641 C49 1.465 . S
C2653 C279 1.701 . S
C2668 C60 1.938 1_556 S
C2680 C319 2.164 . S
C2695 C71 1.409 . S
C2707 C359 1.585 . S
C2722 C82 1.181 1_554 S
C2734 C399 1.402 . S
C2761 C439 1.724 . S
C2749 C93 1.379 . S
C2788 C519 2.143 . S
C2776 C104 1.971 1_655 S
C2803 C115 1.309 . S
C2815 C559 1.628 . S
C2830 C126 1.170 1_455 S
C2842 C479 1.407 . S
C2869 C1079 1.676 . S
C2857 C137 1.377 . S
C2896 C1199 1.569 . S
C2884 C148 1.208 . S
C2911 C159 1.101 . S
C2923 C1119 1.337 . S
C2950 C1159 2.129 . S
C2938 C170 1.616 . S
C2965 C181 1.386 . S
C2977 C759 1.715 . S
C2992 C192 1.536 . S
C3004 C799 2.171 . S
C3019 C203 1.164 . S
C3031 C839 1.562 . S
C3058 C879 1.346 . S
C3046 C214 1.098 . S
C3085 C919 1.687 . S
C3073 C225 1.414 . S
C3112 C999 2.142 . S
C3100 C236 1.650 . S
C3127 C247 1.262 . S
C3139 C1039 1.598 . S
C3166 C959 1.376 . S
C3154 C258 1.196 . S
