# Generated by pormake.
# Topology zzz, (3,6)-cn, num edge types: 1
# Building blocks:
#     Node 0, Type 0, BuildingBlock: OLANEW_clean_sbu_2, # of connection points: 3
#     Node 1, Type 0, BuildingBlock: OLANEW_clean_sbu_2, # of connection points: 3
#     Node 2, Type 0, BuildingBlock: OLANEW_clean_sbu_2, # of connection points: 3
#     Node 3, Type 0, BuildingBlock: OLANEW_clean_sbu_2, # of connection points: 3
#     Node 4, Type 0, BuildingBlock: OLANEW_clean_sbu_2, # of connection points: 3
#     Node 5, Type 0, BuildingBlock: OLANEW_clean_sbu_2, # of connection points: 3
#     Node 6, Type 0, BuildingBlock: OLANEW_clean_sbu_2, # of connection points: 3
#     Node 7, Type 0, BuildingBlock: OLANEW_clean_sbu_2, # of connection points: 3
#     Node 8, Type 1, BuildingBlock: JUFBIX_clean_sbu_0, # of connection points: 6
#     Node 9, Type 1, BuildingBlock: JUFBIX_clean_sbu_0, # of connection points: 6
#     Node 10, Type 1, BuildingBlock: JUFBIX_clean_sbu_0, # of connection points: 6
#     Node 11, Type 1, BuildingBlock: JUFBIX_clean_sbu_0, # of connection points: 6
#     Edge 12, Type (0, 1), BuildingBlock: CIFDUS_clean_linker_0, # of connection points: 2
#     Edge 13, Type (0, 1), BuildingBlock: CIFDUS_clean_linker_0, # of connection points: 2
#     Edge 14, Type (0, 1), BuildingBlock: CIFDUS_clean_linker_0, # of connection points: 2
#     Edge 15, Type (0, 1), BuildingBlock: CIFDUS_clean_linker_0, # of connection points: 2
#     Edge 16, Type (0, 1), BuildingBlock: CIFDUS_clean_linker_0, # of connection points: 2
#     Edge 17, Type (0, 1), BuildingBlock: CIFDUS_clean_linker_0, # of connection points: 2
#     Edge 18, Type (0, 1), BuildingBlock: CIFDUS_clean_linker_0, # of connection points: 2
#     Edge 19, Type (0, 1), BuildingBlock: CIFDUS_clean_linker_0, # of connection points: 2
#     Edge 20, Type (0, 1), BuildingBlock: CIFDUS_clean_linker_0, # of connection points: 2
#     Edge 21, Type (0, 1), BuildingBlock: CIFDUS_clean_linker_0, # of connection points: 2
#     Edge 22, Type (0, 1), BuildingBlock: CIFDUS_clean_linker_0, # of connection points: 2
#     Edge 23, Type (0, 1), BuildingBlock: CIFDUS_clean_linker_0, # of connection points: 2
#     Edge 24, Type (0, 1), BuildingBlock: CIFDUS_clean_linker_0, # of connection points: 2
#     Edge 25, Type (0, 1), BuildingBlock: CIFDUS_clean_linker_0, # of connection points: 2
#     Edge 26, Type (0, 1), BuildingBlock: CIFDUS_clean_linker_0, # of connection points: 2
#     Edge 27, Type (0, 1), BuildingBlock: CIFDUS_clean_linker_0, # of connection points: 2
#     Edge 28, Type (0, 1), BuildingBlock: CIFDUS_clean_linker_0, # of connection points: 2
#     Edge 29, Type (0, 1), BuildingBlock: CIFDUS_clean_linker_0, # of connection points: 2
#     Edge 30, Type (0, 1), BuildingBlock: CIFDUS_clean_linker_0, # of connection points: 2
#     Edge 31, Type (0, 1), BuildingBlock: CIFDUS_clean_linker_0, # of connection points: 2
#     Edge 32, Type (0, 1), BuildingBlock: CIFDUS_clean_linker_0, # of connection points: 2
#     Edge 33, Type (0, 1), BuildingBlock: CIFDUS_clean_linker_0, # of connection points: 2
#     Edge 34, Type (0, 1), BuildingBlock: CIFDUS_clean_linker_0, # of connection points: 2
#     Edge 35, Type (0, 1), BuildingBlock: CIFDUS_clean_linker_0, # of connection points: 2
# Relax obj value: 0.112
# Max RMSD: 0.176
# Mean RMSD: 0.088
data_MOF--net-zzz--node1-OLANEW_clean_sbu_2--node2-JUFBIX_clean_sbu_0--edge1-CIFDUS_clean_linker_0
_symmetry_space_group_name_H-M    P1
_symmetry_Int_Tables_number       1
_symmetry_cell_setting            triclinic
loop_
_symmetry_equiv_pos_as_xyz
'x, y, z'
_cell_length_a     49.160017
_cell_length_b     48.692145
_cell_length_c     17.215599
_cell_angle_alpha  81.115483
_cell_angle_beta   90.089809
_cell_angle_gamma 91.928154
loop_
_atom_site_label
_atom_site_type_symbol
_atom_site_fract_x
_atom_site_fract_y
_atom_site_fract_z
_atom_type_partial_charge
O0 O 0.82012 0.56409 0.04477 0.0
Cd1 Cd 0.77598 0.57209 0.09961 0.0
O2 O 0.82961 0.54273 0.16259 0.0
Cd3 Cd 0.85818 0.52459 0.25133 0.0
O4 O 0.88673 0.51764 0.34856 0.0
C5 C 0.89975 0.53858 0.36758 0.0
O6 O 0.89586 0.56329 0.32707 0.0
C7 C 0.83674 0.55075 0.09161 0.0
C8 C 0.73299 0.55331 0.01423 0.0
O9 O 0.74523 0.53665 0.06677 0.0
O10 O 0.74121 0.57887 0.00167 0.0
O11 O 0.90855 0.78445 0.00134 0.0
Cd12 Cd 0.9222 0.78544 0.86422 0.0
O13 O 0.91203 0.80123 0.1124 0.0
Cd14 Cd 0.9271 0.83261 0.18212 0.0
O15 O 0.94841 0.86303 0.24352 0.0
C16 C 0.93699 0.87223 0.3 0.0
O17 O 0.91208 0.86342 0.32034 0.0
C18 C 0.91854 0.80246 0.04042 0.0
C19 C 0.95523 0.74116 0.85091 0.0
O20 O 0.9295 0.73938 0.83958 0.0
O21 O 0.96542 0.76409 0.86772 0.0
O22 O 0.72849 0.94909 0.92695 0.0
Cd23 Cd 0.76765 0.92074 0.96326 0.0
O24 O 0.72263 0.9499 0.05231 0.0
Cd25 Cd 0.70133 0.95536 0.15995 0.0
O26 O 0.67666 0.96319 0.25876 0.0
C27 C 0.65129 0.96585 0.24747 0.0
O28 O 0.64127 0.96337 0.17802 0.0
C29 C 0.71451 0.95642 0.98177 0.0
C30 C 0.81714 0.94688 0.91452 0.0
O31 O 0.80354 0.93281 0.86967 0.0
O32 O 0.80701 0.94895 0.98187 0.0
O33 O 0.58296 0.70339 0.94161 0.0
Cd34 Cd 0.6052 0.74613 0.97011 0.0
O35 O 0.55909 0.70041 0.05028 0.0
Cd36 Cd 0.53331 0.67629 0.14075 0.0
O37 O 0.51824 0.64707 0.24128 0.0
C38 C 0.53384 0.62793 0.27077 0.0
O39 O 0.55786 0.62637 0.23863 0.0
C40 C 0.5653 0.69056 0.98873 0.0
C41 C 0.57431 0.79267 0.92352 0.0
O42 O 0.5904 0.78366 0.87535 0.0
O43 O 0.57263 0.77947 0.99388 0.0
O44 O 0.19992 0.51784 0.47132 0.0
Cd45 Cd 0.23679 0.52107 0.37521 0.0
O46 O 0.19968 0.4723 0.50225 0.0
Cd47 Cd 0.22122 0.47077 0.39302 0.0
O48 O 0.19798 0.47891 0.28468 0.0
C49 C 0.17408 0.468 0.29147 0.0
O50 O 0.16716 0.45214 0.35782 0.0
C51 C 0.19129 0.49567 0.51444 0.0
C52 C 0.28585 0.52003 0.4565 0.0
O53 O 0.27373 0.54287 0.43562 0.0
O54 O 0.27511 0.49771 0.43713 0.0
O55 O 0.12155 0.19235 0.72251 0.0
Cd56 Cd 0.1425 0.23863 0.68901 0.0
O57 O 0.12101 0.18866 0.59716 0.0
Cd58 Cd 0.10998 0.16892 0.49447 0.0
O59 O 0.09755 0.1454 0.40087 0.0
C60 C 0.10097 0.11933 0.41037 0.0
O61 O 0.11258 0.10738 0.47501 0.0
C62 C 0.11536 0.1784 0.66813 0.0
C63 C 0.113 0.27606 0.75893 0.0
O64 O 0.10578 0.26918 0.69282 0.0
O65 O 0.1345 0.26554 0.79168 0.0
O66 O 0.30605 0.06705 0.73161 0.0
Cd67 Cd 0.2617 0.08671 0.7033 0.0
O68 O 0.31034 0.06382 0.60642 0.0
Cd69 Cd 0.33262 0.05197 0.50679 0.0
O70 O 0.36462 0.04346 0.42627 0.0
C71 C 0.38132 0.02445 0.44857 0.0
O72 O 0.37833 0.00965 0.51878 0.0
C73 C 0.32012 0.06068 0.67565 0.0
C74 C 0.21963 0.05276 0.7766 0.0
O75 O 0.22791 0.05008 0.70768 0.0
O76 O 0.2315 0.07136 0.81114 0.0
O77 O 0.44569 0.28703 0.69389 0.0
Cd78 Cd 0.42468 0.2452 0.65498 0.0
O79 O 0.43455 0.30997 0.57911 0.0
Cd80 Cd 0.43688 0.34676 0.48849 0.0
O81 O 0.44756 0.37778 0.38667 0.0
C82 C 0.43096 0.39548 0.35443 0.0
O83 O 0.40637 0.39571 0.38406 0.0
C84 C 0.44537 0.30971 0.64632 0.0
C85 C 0.45198 0.19727 0.71455 0.0
O86 O 0.45767 0.21062 0.64605 0.0
O87 O 0.43357 0.20676 0.75487 0.0
Co88 Co 0.02663 0.98954 0.93797 0.0
C89 C 0.97323 0.99265 0.88642 0.0
Co90 Co 0.0215 0.98378 0.81404 0.0
C91 C 0.04576 0.01189 0.07565 0.0
C92 C 0.01696 0.97787 0.10408 0.0
N93 N 0.03021 0.99336 0.04302 0.0
N94 N 0.04279 0.00845 0.15457 0.0
C95 C 0.02476 0.98699 0.17268 0.0
H96 H 0.05908 0.02753 0.04223 0.0
H97 H 0.00227 0.9612 0.09903 0.0
C98 C 0.07493 0.98114 0.86482 0.0
N99 N 0.01748 0.97954 0.70949 0.0
C100 C -0.00144 0.96354 0.67921 0.0
C101 C 0.03288 0.99115 0.64753 0.0
N102 N 0.0015 0.96454 0.6008 0.0
C103 C 0.02314 0.98195 0.58066 0.0
C104 C 0.03291 0.03845 0.83491 0.0
O105 O 0.06476 0.98601 0.92904 0.0
O106 O 0.05922 0.9779 0.80798 0.0
O107 O 0.02883 0.02243 0.78404 0.0
O108 O 0.03149 0.02854 0.90756 0.0
O109 O 0.98377 0.98973 0.82099 0.0
H110 H 0.05018 0.00524 0.65088 0.0
H111 H 0.98328 0.95087 0.71467 0.0
O112 O 0.98853 0.9933 0.94569 0.0
O113 O 0.02177 0.95043 0.96731 0.0
O114 O 0.01427 0.94524 0.84494 0.0
C115 C 0.01534 0.93483 0.91709 0.0
H116 H 0.01722 0.97894 0.23112 0.0
H117 H 0.03132 0.98775 0.52187 0.0
Co118 Co 0.51028 0.99639 0.89616 0.0
C119 C 0.51127 0.94194 0.87008 0.0
Co120 Co 0.51449 0.99261 0.77056 0.0
C121 C 0.48709 0.01262 0.03506 0.0
C122 C 0.52199 0.98786 0.06189 0.0
N123 N 0.50695 -5e-05 0.00138 0.0
N124 N 0.48879 0.0086 0.11434 0.0
C125 C 0.51086 0.99308 0.13125 0.0
H126 H 0.47084 0.02336 0.00201 0.0
H127 H 0.53926 0.97512 0.05616 0.0
C128 C 0.51349 0.04702 0.79602 0.0
N129 N 0.517 0.98831 0.66541 0.0
C130 C 0.53841 0.99399 0.61577 0.0
C131 C 0.49785 0.97643 0.6238 0.0
N132 N 0.53336 0.98602 0.54523 0.0
C133 C 0.50777 0.97513 0.55002 0.0
C134 C 0.46115 0.99587 0.81899 0.0
O135 O 0.51062 0.03566 0.86739 0.0
O136 O 0.5168 0.03182 0.74316 0.0
O137 O 0.47651 0.99424 0.76107 0.0
O138 O 0.47154 0.99558 0.88658 0.0
O139 O 0.51224 0.95342 0.79861 0.0
H140 H 0.47823 0.9682 0.6464 0.0
H141 H 0.55754 0.00327 0.63151 0.0
O142 O 0.50988 0.9571 0.92367 0.0
O143 O 0.54921 0.99727 0.90451 0.0
O144 O 0.5525 0.99131 0.78123 0.0
C145 C 0.56386 0.99379 0.84612 0.0
H146 H 0.51806 0.9853 0.18951 0.0
H147 H 0.49744 0.9656 0.50487 0.0
Co148 Co 0.52518 0.4918 0.8184 0.0
C149 C 0.49274 0.47712 0.95235 0.0
Co150 Co 0.48443 0.50966 0.80949 0.0
C151 C 0.58338 0.49211 0.82685 0.0
C152 C 0.56595 0.45121 0.86057 0.0
N153 N 0.55956 0.47741 0.83098 0.0
N154 N 0.60445 0.47649 0.85557 0.0
C155 C 0.59343 0.45057 0.87579 0.0
H156 H 0.58469 0.51427 0.80728 0.0
H157 H 0.5513 0.43414 0.87555 0.0
C158 C 0.51677 0.52447 0.67576 0.0
N159 N 0.45016 0.52414 0.79752 0.0
C160 C 0.43293 0.52244 0.73728 0.0
C161 C 0.43702 0.5388 0.84534 0.0
N162 N 0.40955 0.53542 0.74543 0.0
C163 C 0.41204 0.54586 0.81325 0.0
C164 C 0.52268 0.54382 0.86676 0.0
O165 O 0.53415 0.50919 0.7146 0.0
O166 O 0.49379 0.5273 0.70677 0.0
O167 O 0.49757 0.54185 0.85029 0.0
O168 O 0.53796 0.52409 0.85766 0.0
O169 O 0.47526 0.49192 0.91252 0.0
H170 H 0.44506 0.54395 0.90001 0.0
H171 H 0.43764 0.51216 0.68773 0.0
O172 O 0.51593 0.4746 0.92216 0.0
O173 O 0.51216 0.45971 0.779 0.0
O174 O 0.47164 0.47739 0.76841 0.0
C175 C 0.48728 0.45778 0.76007 0.0
H176 H 0.60383 0.43267 0.90506 0.0
H177 H 0.39673 0.55734 0.8385 0.0
Co178 Co 0.02404 0.51303 0.86528 0.0
C179 C 0.04898 0.48355 0.99526 0.0
Co180 Co 0.01413 0.46795 0.88306 0.0
C181 C 0.0121 0.57055 0.8395 0.0
C182 C 0.05485 0.56519 0.85544 0.0
N183 N 0.03097 0.55095 0.85268 0.0
N184 N 0.02306 0.59655 0.83422 0.0
C185 C 0.05005 0.59327 0.84423 0.0
H186 H 0.99055 0.56566 0.83586 0.0
H187 H 0.07442 0.55576 0.8655 0.0
C188 C 0.98965 0.49688 0.75171 0.0
N189 N 0.00678 0.43001 0.89409 0.0
C190 C 0.02496 0.41007 0.89097 0.0
C191 C 0.98222 0.41686 0.89316 0.0
N192 N 0.01282 0.38516 0.88593 0.0
C193 C 0.98587 0.38929 0.88778 0.0
C194 C 0.97753 0.49704 0.95609 0.0
O195 O 0.00188 0.51777 0.77364 0.0
O196 O 0.99239 0.47297 0.79168 0.0
O197 O 0.98298 0.47254 0.94554 0.0
O198 O 0.9933 0.5172 0.92743 0.0
O199 O 0.03594 0.46299 0.97409 0.0
H200 H 0.96294 0.42701 0.89123 0.0
H201 H 0.04671 0.4142 0.88601 0.0
O202 O 0.04645 0.50777 0.95641 0.0
O203 O 0.05447 0.50891 0.80337 0.0
O204 O 0.0455 0.46405 0.81978 0.0
C205 C 0.06057 0.48486 0.79107 0.0
H206 H 0.06527 0.60987 0.8435 0.0
H207 H 0.96996 0.37387 0.88155 0.0
H208 H 0.18942 0.01355 0.71546 0.0
H209 H 0.19652 0.05475 0.91974 0.0
H210 H 0.154 0.03196 0.97213 0.0
H211 H 0.11215 0.00533 0.95156 0.0
H212 H 0.10386 0.96633 0.74359 0.0
H213 H 0.1498 0.98273 0.70204 0.0
C214 C 0.18188 0.01726 0.77197 0.0
C215 C 0.19592 0.03615 0.81302 0.0
C216 C 0.15718 0.00448 0.80113 0.0
C217 C 0.18598 0.04052 0.88649 0.0
C218 C 0.16164 0.0275 0.91654 0.0
C219 C 0.12065 -0.00025 0.89824 0.0
C220 C 0.10453 0.9848 0.85045 0.0
C221 C 0.14668 0.0101 0.87324 0.0
C222 C 0.11581 0.97791 0.78127 0.0
C223 C 0.14201 0.98745 0.75718 0.0
H224 H 0.48493 0.1674 0.63477 0.0
H225 H 0.44895 0.16813 0.86302 0.0
H226 H 0.46782 0.12297 0.91103 0.0
H227 H 0.49111 0.08167 0.88517 0.0
H228 H 0.52486 0.07953 0.65495 0.0
H229 H 0.51066 0.12703 0.61116 0.0
C230 C 0.48147 0.15783 0.69527 0.0
C231 C 0.46539 0.17104 0.74505 0.0
C232 C 0.49197 0.13159 0.72215 0.0
C233 C 0.46108 0.15832 0.82326 0.0
C234 C 0.47188 0.1325 0.85083 0.0
C235 C 0.49585 0.09176 0.82584 0.0
C236 C 0.50901 0.07707 0.77339 0.0
C237 C 0.48691 0.11871 0.80038 0.0
C238 C 0.51473 0.09038 0.69648 0.0
C239 C 0.50651 0.1175 0.67129 0.0
H240 H 0.30597 0.56001 0.53653 0.0
H241 H 0.32173 0.47808 0.4846 0.0
H242 H 0.36209 0.47599 0.56811 0.0
H243 H 0.39204 0.49686 0.65909 0.0
H244 H 0.37533 0.57796 0.7148 0.0
H245 H 0.33599 0.5809 0.62711 0.0
C246 C 0.31835 0.54178 0.54299 0.0
C247 C 0.31092 0.51928 0.5042 0.0
C248 C 0.34121 0.5405 0.59223 0.0
C249 C 0.32701 0.49568 0.51387 0.0
C250 C 0.35007 0.49445 0.56164 0.0
C251 C 0.37994 0.51528 0.65134 0.0
C252 C 0.38658 0.5372 0.69316 0.0
C253 C 0.35724 0.51666 0.6015 0.0
C254 C 0.37044 0.56073 0.68377 0.0
C255 C 0.34805 0.56247 0.63339 0.0
H256 H 0.06059 0.28954 0.72931 0.0
H257 H 0.1295 0.30633 0.87236 0.0
H258 H 0.10368 0.34055 0.92886 0.0
H259 H 0.06225 0.36741 0.93224 0.0
H260 H 0.99335 0.35002 0.79024 0.0
H261 H 0.01817 0.31386 0.74005 0.0
C262 C 0.06993 0.30066 0.77297 0.0
C263 C 0.097 0.29571 0.79592 0.0
C264 C 0.0549 0.32004 0.80576 0.0
C265 C 0.10871 0.30989 0.85351 0.0
C266 C 0.09397 0.32945 0.8858 0.0
C267 C 0.05268 0.35553 0.89073 0.0
C268 C 0.02608 0.36147 0.86474 0.0
C269 C 0.06717 0.33493 0.86161 0.0
C270 C 0.01368 0.34568 0.81181 0.0
C271 C 0.02797 0.32518 0.78247 0.0
H272 H 0.852 0.97413 0.0012 0.0
H273 H 0.8438 0.94636 0.77569 0.0
H274 H 0.89083 0.96141 0.74316 0.0
H275 H 0.93537 0.97809 0.78402 0.0
H276 H 0.94413 0.00376 0.01214 0.0
H277 H 0.89563 0.99427 0.03781 0.0
C278 C 0.86037 0.97167 0.94452 0.0
C279 C 0.84449 0.95889 0.89132 0.0
C280 C 0.88755 0.97993 0.92672 0.0
C281 C 0.85564 0.95597 0.81799 0.0
C282 C 0.88254 0.96454 0.79933 0.0
C283 C 0.92659 0.98214 0.83874 0.0
C284 C 0.94336 0.99149 0.89624 0.0
C285 C 0.89886 0.97595 0.85399 0.0
C286 C 0.93168 0.99646 0.96701 0.0
C287 C 0.90397 0.99094 0.98188 0.0
H288 H 0.54644 0.82221 0.01731 0.0
H289 H 0.56841 0.82086 0.77525 0.0
H290 H 0.54737 0.86552 0.73615 0.0
H291 H 0.5268 0.9068 0.77209 0.0
H292 H 0.50723 0.90976 0.01497 0.0
H293 H 0.52282 0.8624 0.05208 0.0
C294 C 0.54632 0.83153 0.95587 0.0
C295 C 0.55919 0.81833 0.89939 0.0
C296 C 0.53465 0.85752 0.93393 0.0
C297 C 0.55886 0.83068 0.82003 0.0
C298 C 0.54682 0.85622 0.79756 0.0
C299 C 0.52544 0.89693 0.83299 0.0
C300 C 0.51597 0.91185 0.89071 0.0
C301 C 0.53521 0.8701 0.85423 0.0
C302 C 0.51449 0.89876 0.96938 0.0
C303 C 0.52353 0.87173 0.99071 0.0
H304 H 0.71872 0.50001 0.9993 0.0
H305 H 0.69427 0.58471 0.93351 0.0
H306 H 0.65306 0.56842 0.87298 0.0
H307 H 0.62284 0.53035 0.84778 0.0
H308 H 0.64778 0.44539 0.90925 0.0
H309 H 0.69011 0.46181 0.96179 0.0
C310 C 0.70444 0.5149 0.97126 0.0
C311 C 0.70936 0.54349 0.9717 0.0
C312 C 0.68086 0.50541 0.93612 0.0
C313 C 0.69091 0.56258 0.93414 0.0
C314 C 0.66731 0.55328 0.89966 0.0
C315 C 0.63738 0.51516 0.87155 0.0
C316 C 0.63127 0.48642 0.87598 0.0
C317 C 0.66188 0.52471 0.9015 0.0
C318 C 0.65116 0.46755 0.90661 0.0
C319 C 0.67559 0.47693 0.93663 0.0
H320 H 0.9414 0.69379 0.79359 0.0
H321 H 0.00787 0.73464 0.89956 0.0
H322 H 0.03537 0.6937 0.90072 0.0
H323 H 0.03951 0.64542 0.87823 0.0
H324 H 0.97338 0.6054 0.76819 0.0
H325 H 0.94676 0.64685 0.7627 0.0
C326 C 0.96195 0.6938 0.81666 0.0
C327 C 0.97249 0.71713 0.84699 0.0
C328 C 0.97766 0.67027 0.81697 0.0
C329 C -0.00075 0.71692 0.87593 0.0
C330 C 0.01498 0.69349 0.87678 0.0
C331 C 0.01948 0.64585 0.85191 0.0
C332 C 0.00842 0.62204 0.82479 0.0
C333 C 0.00427 0.66993 0.84824 0.0
C334 C 0.98225 0.62308 0.79135 0.0
C335 C 0.96701 0.64688 0.78768 0.0
H336 H 0.07959 0.16211 0.78736 0.0
H337 H 0.12079 0.13275 0.59698 0.0
H338 H 0.09604 0.08794 0.62607 0.0
H339 H 0.06401 0.05676 0.70805 0.0
H340 H 0.0268 0.08367 0.90883 0.0
H341 H 0.04859 0.12998 0.87337 0.0
C342 C 0.08303 0.1459 0.75212 0.0
C343 C 0.10108 0.15105 0.68777 0.0
C344 C 0.0694 0.1199 0.77101 0.0
C345 C 0.10581 0.12976 0.64364 0.0
C346 C 0.09199 0.10405 0.66106 0.0
C347 C 0.06028 0.07294 0.74321 0.0
C348 C 0.04347 0.06711 0.81001 0.0
C349 C 0.07367 0.09896 0.72431 0.0
C350 C 0.03945 0.0879 0.85658 0.0
C351 C 0.05199 0.11426 0.83655 0.0
H352 H 0.33755 0.02751 0.80647 0.0
H353 H 0.36493 0.07201 0.58258 0.0
H354 H 0.40995 0.05301 0.60432 0.0
H355 H 0.44171 0.02483 0.68734 0.0
H356 H 0.41729 0.98486 0.91899 0.0
H357 H 0.37076 0.00096 0.8942 0.0
C358 C 0.35341 0.0329 0.76251 0.0
C359 C 0.3476 0.04998 0.69119 0.0
C360 C 0.37964 0.02269 0.77685 0.0
C361 C 0.36843 0.05752 0.63563 0.0
C362 C 0.39432 0.04705 0.64865 0.0
C363 C 0.42611 0.01924 0.73206 0.0
C364 C 0.43262 0.00322 0.80423 0.0
C365 C 0.40003 0.02946 0.71862 0.0
C366 C 0.41251 0.9969 0.86262 0.0
C367 C 0.38604 0.0062 0.84854 0.0
H368 H 0.42551 0.36141 0.61789 0.0
H369 H 0.4919 0.31486 0.72884 0.0
H370 H 0.5115 0.35703 0.77103 0.0
H371 H 0.5091 0.40682 0.77875 0.0
H372 H 0.44112 0.45276 0.67465 0.0
H373 H 0.42288 0.4112 0.62654 0.0
C374 C 0.44452 0.36068 0.65012 0.0
C375 C 0.45757 0.33532 0.66914 0.0
C376 C 0.45526 0.38482 0.67558 0.0
C377 C 0.48164 0.33429 0.71329 0.0
C378 C 0.49282 0.35834 0.73733 0.0
C379 C 0.49038 0.40776 0.74511 0.0
C380 C 0.47652 0.4328 0.72997 0.0
C381 C 0.47973 0.38368 0.71915 0.0
C382 C 0.45212 0.43367 0.6872 0.0
C383 C 0.4417 0.40995 0.6596 0.0
H384 H 0.15811 0.45349 0.58694 0.0
H385 H 0.17616 0.54151 0.57378 0.0
H386 H 0.13778 0.54553 0.66021 0.0
H387 H 0.09783 0.52483 0.73315 0.0
H388 H 0.0786 0.43709 0.74532 0.0
H389 H 0.11878 0.43221 0.66545 0.0
C390 C 0.15385 0.47346 0.60386 0.0
C391 C 0.16993 0.49718 0.57376 0.0
C392 C 0.13141 0.47575 0.6526 0.0
C393 C 0.16404 0.52296 0.59581 0.0
C394 C 0.14206 0.5253 0.64509 0.0
C395 C 0.10238 0.50459 0.7185 0.0
C396 C 0.0851 0.48142 0.74453 0.0
C397 C 0.12536 0.50196 0.67262 0.0
C398 C 0.09149 0.45531 0.72559 0.0
C399 C 0.11447 0.45249 0.68002 0.0
H400 H 0.96457 0.82335 0.09995 0.0
H401 H 0.9135 0.83209 0.89442 0.0
H402 H 0.94226 0.87121 0.83225 0.0
H403 H 0.97881 0.90583 0.84212 0.0
H404 H 0.02637 0.90096 0.05432 0.0
H405 H 0.00198 0.85763 0.1088 0.0
C406 C 0.95964 0.83403 0.04189 0.0
C407 C 0.93692 0.82502 0.00189 0.0
C408 C 0.97562 0.8572 0.00796 0.0
C409 C 0.93117 0.83841 0.92576 0.0
C410 C 0.94745 0.86092 0.89053 0.0
C411 C 0.9843 0.89492 0.8995 0.0
C412 C 0.00448 0.90638 0.94398 0.0
C413 C 0.96941 0.8708 0.93168 0.0
C414 C 0.01099 0.89238 0.01892 0.0
C415 C 0.99695 0.86773 0.0502 0.0
H416 H 0.68394 0.9537 0.85278 0.0
H417 H 0.6861 0.99022 0.06555 0.0
H418 H 0.63965 0.00572 0.04181 0.0
H419 H 0.59708 0.00567 0.96499 0.0
H420 H 0.59701 0.97213 0.74687 0.0
H421 H 0.64413 0.95924 0.76769 0.0
C422 C 0.67439 0.96526 0.8938 0.0
C423 C 0.68798 0.96943 0.96316 0.0
C424 C 0.64799 0.97467 0.87874 0.0
C425 C 0.67551 0.98507 0.01445 0.0
C426 C 0.64907 0.99436 0.00018 0.0
C427 C 0.6075 0.99582 0.92168 0.0
C428 C 0.59341 0.98957 0.85506 0.0
C429 C 0.63482 0.98857 0.9336 0.0
C430 C 0.60729 0.97712 0.79888 0.0
C431 C 0.63426 0.96961 0.8108 0.0
H432 H 0.59112 0.64902 0.93634 0.0
H433 H 0.51225 0.6727 0.00645 0.0
H434 H 0.49183 0.62901 0.97617 0.0
H435 H 0.4964 0.58459 0.92577 0.0
H436 H 0.57605 0.56036 0.86217 0.0
H437 H 0.59617 0.60359 0.89413 0.0
C438 C 0.56947 0.6445 0.94507 0.0
C439 C 0.55316 0.66386 0.97353 0.0
C440 C 0.55803 0.61927 0.92864 0.0
C441 C 0.5252 0.65784 0.98539 0.0
C442 C 0.51353 0.63297 0.96771 0.0
C443 C 0.51815 0.58877 0.91926 0.0
C444 C 0.53464 0.56937 0.89119 0.0
C445 C 0.52973 0.61359 0.93882 0.0
C446 C 0.56287 0.57491 0.88376 0.0
C447 C 0.57442 0.59969 0.90176 0.0
H448 H 0.86457 0.50328 0.12605 0.0
H449 H 0.86972 0.58607 0.9939 0.0
H450 H 0.91477 0.57718 0.94495 0.0
H451 H 0.95172 0.54554 0.93638 0.0
H452 H 0.94551 0.46135 0.05929 0.0
H453 H 0.90183 0.47113 0.11621 0.0
C454 C 0.8758 0.51943 0.08741 0.0
C455 C 0.86416 0.5454 0.06427 0.0
C456 C 0.90134 0.51389 0.05795 0.0
C457 C 0.87841 0.56596 0.01247 0.0
C458 C 0.90412 0.5609 0.98465 0.0
C459 C 0.94098 0.52937 0.97632 0.0
C460 C 0.95191 0.50282 0.99427 0.0
C461 C 0.91567 0.5349 0.0066 0.0
C462 C 0.93751 0.48196 0.04485 0.0
C463 C 0.91256 0.48755 0.07725 0.0
H464 H 0.09248 0.06345 0.43086 0.0
H465 H 0.08679 0.13721 0.25767 0.0
H466 H 0.06944 0.10901 0.16129 0.0
H467 H 0.05463 0.06344 0.12765 0.0
H468 H 0.05841 0.99027 0.30322 0.0
H469 H 0.07768 0.01818 0.39756 0.0
C470 C 0.08762 0.07336 0.37187 0.0
C471 C 0.09101 0.10236 0.35134 0.0
C472 C 0.07722 0.05712 0.31737 0.0
C473 C 0.08431 0.11491 0.27496 0.0
C474 C 0.07442 0.09881 0.21982 0.0
C475 C 0.06002 0.05363 0.18626 0.0
C476 C 0.05523 0.02486 0.20848 0.0
C477 C 0.07067 0.0699 0.24051 0.0
C478 C 0.06177 0.01242 0.28507 0.0
C479 C 0.07285 0.02834 0.33887 0.0
H480 H 0.39344 0.05139 0.30128 0.0
H481 H 0.4202 0.98549 0.47924 0.0
H482 H 0.45672 0.97567 0.39281 0.0
H483 H 0.47965 0.98427 0.26483 0.0
H484 H 0.45354 0.05071 0.08755 0.0
H485 H 0.41806 0.06161 0.17557 0.0
C486 C 0.40726 0.03489 0.32126 0.0
C487 C 0.40385 0.01904 0.39642 0.0
C488 C 0.42825 0.0293 0.27123 0.0
C489 C 0.42214 0.99789 0.42149 0.0
C490 C 0.44309 0.99225 0.3721 0.0
C491 C 0.46655 0.00141 0.24553 0.0
C492 C 0.46924 0.01641 0.16894 0.0
C493 C 0.44617 0.00765 0.29658 0.0
C494 C 0.45171 0.0384 0.14535 0.0
C495 C 0.43144 0.04476 0.19587 0.0
H496 H 0.48013 0.4003 0.28097 0.0
H497 H 0.39953 0.43326 0.26393 0.0
H498 H 0.41188 0.46236 0.13955 0.0
H499 H 0.44495 0.47686 0.03272 0.0
H500 H 0.52534 0.4433 0.05025 0.0
H501 H 0.51363 0.41613 0.1775 0.0
C502 C 0.46525 0.41393 0.25035 0.0
C503 C 0.43888 0.41442 0.28158 0.0
C504 C 0.47242 0.43046 0.17874 0.0
C505 C 0.41995 0.43236 0.24119 0.0
C506 C 0.42698 0.449 0.16994 0.0
C507 C 0.45996 0.46373 0.06456 0.0
C508 C 0.48594 0.46204 0.03166 0.0
C509 C 0.45306 0.44797 0.13771 0.0
C510 C 0.50516 0.44496 0.07393 0.0
C511 C 0.49849 0.42937 0.14676 0.0
H512 H 0.12518 0.44176 0.27981 0.0
H513 H 0.17688 0.50899 0.1633 0.0
H514 H 0.14171 0.52109 0.06441 0.0
H515 H 0.09636 0.51221 0.01048 0.0
H516 H 0.04608 0.4432 0.12312 0.0
H517 H 0.08046 0.43238 0.22502 0.0
C518 C 0.1288 0.45905 0.23275 0.0
C519 C 0.15359 0.47447 0.22895 0.0
C520 C 0.10863 0.46572 0.17593 0.0
C521 C 0.15802 0.4967 0.16731 0.0
C522 C 0.13787 0.50372 0.11101 0.0
C523 C 0.09283 0.49505 0.05803 0.0
C524 C 0.06866 0.47869 0.06009 0.0
C525 C 0.11307 0.48842 0.11488 0.0
C526 C 0.06452 0.45613 0.12078 0.0
C527 C 0.08419 0.44989 0.17877 0.0
H528 H 0.91999 0.89194 0.43046 0.0
H529 H 0.98783 0.89613 0.2696 0.0
H530 H 0.01342 0.92618 0.34687 0.0
H531 H 0.01739 0.94925 0.46382 0.0
H532 H 0.94936 0.94516 0.6239 0.0
H533 H 0.92316 0.91683 0.54361 0.0
C534 C 0.94032 0.8995 0.412 0.0
C535 C 0.952 0.89159 0.3446 0.0
C536 C 0.95503 0.91659 0.45701 0.0
C537 C 0.97837 0.90171 0.32152 0.0
C538 C 0.99305 0.9189 0.3657 0.0
C539 C 0.99673 0.94251 0.48069 0.0
C540 C 0.98554 0.94919 0.55044 0.0
C541 C 0.9817 0.92621 0.43408 0.0
C542 C 0.95875 0.93994 0.57154 0.0
C543 C 0.94366 0.92384 0.52534 0.0
H544 H 0.59754 0.9765 0.2376 0.0
H545 H 0.66441 0.96737 0.4014 0.0
H546 H 0.63391 0.97451 0.50794 0.0
H547 H 0.58776 0.98101 0.5555 0.0
H548 H 0.52115 0.99013 0.39104 0.0
H549 H 0.55224 0.98538 0.28378 0.0
C550 C 0.6055 0.97614 0.29653 0.0
C551 C 0.63316 0.9712 0.31157 0.0
C552 C 0.58791 0.98021 0.35743 0.0
C553 C 0.64316 0.97102 0.38822 0.0
C554 C 0.62574 0.9751 0.44921 0.0
C555 C 0.58012 0.98243 0.49599 0.0
C556 C 0.55216 0.9858 0.48135 0.0
C557 C 0.59802 0.97946 0.43459 0.0
C558 C 0.54251 0.98719 0.404 0.0
C559 C 0.56023 0.98451 0.34263 0.0
H560 H 0.56438 0.58843 0.35556 0.0
H561 H 0.48503 0.62421 0.34783 0.0
H562 H 0.47241 0.59426 0.47031 0.0
H563 H 0.48449 0.55955 0.5822 0.0
H564 H 0.56414 0.52439 0.59232 0.0
H565 H 0.57595 0.55241 0.46582 0.0
C566 C 0.54426 0.58958 0.38037 0.0
C567 C 0.52574 0.60866 0.3427 0.0
C568 C 0.5372 0.57248 0.45127 0.0
C569 C 0.49974 0.60983 0.37571 0.0
C570 C 0.49249 0.59271 0.44579 0.0
C571 C 0.5044 0.55785 0.55665 0.0
C572 C 0.52344 0.53997 0.5969 0.0
C573 C 0.51116 0.57421 0.48448 0.0
C574 C 0.54911 0.53802 0.5627 0.0
C575 C 0.5559 0.55407 0.49042 0.0
H576 H 0.91129 0.49083 0.46416 0.0
H577 H 0.92978 0.57921 0.42492 0.0
H578 H 0.95936 0.57414 0.53993 0.0
H579 H 0.9795 0.54469 0.65278 0.0
H580 H 0.96077 0.45632 0.69152 0.0
H581 H 0.93177 0.4614 0.5756 0.0
C582 C 0.92183 0.50899 0.48056 0.0
C583 C 0.91827 0.53535 0.43599 0.0
C584 C 0.93874 0.50597 0.54683 0.0
C585 C 0.93212 0.55865 0.45816 0.0
C586 C 0.94904 0.55579 0.524 0.0
C587 C 0.96911 0.52654 0.6358 0.0
C588 C 0.97231 0.50019 0.68086 0.0
C589 C 0.95241 0.52957 0.56896 0.0
C590 C 0.95868 0.47688 0.65798 0.0
C591 C 0.94207 0.47973 0.59165 0.0
loop_
_geom_bond_atom_site_label_1
_geom_bond_atom_site_label_2
_geom_bond_distance
_geom_bond_site_symmetry_2
_ccdc_geom_bond_type
O0 Cd1 2.300 . S
O0 C7 1.275 . S
Cd1 O0 2.300 . S
Cd1 O9 2.381 . S
Cd1 O10 2.378 . S
O2 Cd3 2.385 . S
O2 C7 1.255 . S
Cd3 O2 2.385 . S
Cd3 O4 2.317 . S
O4 Cd3 2.317 . S
O4 C5 1.232 . S
C5 O4 1.232 . S
C5 O6 1.218 . S
O6 C5 1.218 . S
C7 O0 1.275 . S
C7 O2 1.255 . S
C8 O9 1.258 . S
C8 O10 1.256 . S
O9 Cd1 2.381 . S
O9 C8 1.258 . S
O10 Cd1 2.378 . S
O10 C8 1.256 . S
O11 Cd12 2.300 . S
O11 C18 1.275 . S
Cd12 O11 2.300 . S
Cd12 O20 2.381 . S
Cd12 O21 2.378 . S
O13 Cd14 2.385 1_655 S
O13 C18 1.255 . S
Cd14 O13 2.385 1_455 S
Cd14 O15 2.317 1_455 S
O15 Cd14 2.317 1_655 S
O15 C16 1.232 . S
C16 O15 1.232 . S
C16 O17 1.218 . S
O17 C16 1.218 . S
C18 O11 1.275 . S
C18 O13 1.255 . S
C19 O20 1.258 . S
C19 O21 1.256 . S
O20 Cd12 2.381 . S
O20 C19 1.258 . S
O21 Cd12 2.378 . S
O21 C19 1.256 . S
O22 Cd23 2.300 1_566 S
O22 C29 1.281 1_565 S
Cd23 O22 2.300 1_544 S
Cd23 O31 2.381 1_544 S
Cd23 O32 2.378 . S
O24 Cd25 2.385 . S
O24 C29 1.246 1_554 S
Cd25 O24 2.385 . S
Cd25 O26 2.317 . S
O26 Cd25 2.317 . S
O26 C27 1.232 . S
C27 O26 1.232 . S
C27 O28 1.218 . S
O28 C27 1.218 . S
C29 O22 1.281 1_545 S
C29 O24 1.246 1_556 S
C30 O31 1.258 1_544 S
C30 O32 1.256 . S
O31 Cd23 2.381 1_566 S
O31 C30 1.258 1_566 S
O32 Cd23 2.378 . S
O32 C30 1.256 . S
O33 Cd34 2.300 . S
O33 C40 1.275 . S
Cd34 O33 2.300 . S
Cd34 O42 2.381 . S
Cd34 O43 2.378 . S
O35 Cd36 2.385 . S
O35 C40 1.255 . S
Cd36 O35 2.385 . S
Cd36 O37 2.317 . S
O37 Cd36 2.317 . S
O37 C38 1.232 . S
C38 O37 1.232 . S
C38 O39 1.218 . S
O39 C38 1.218 . S
C40 O33 1.275 . S
C40 O35 1.255 . S
C41 O42 1.258 . S
C41 O43 1.256 . S
O42 Cd34 2.381 . S
O42 C41 1.258 . S
O43 Cd34 2.378 . S
O43 C41 1.256 . S
O44 Cd45 2.300 . S
O44 C51 1.275 . S
Cd45 O44 2.300 . S
Cd45 O53 2.381 . S
Cd45 O54 2.378 . S
O46 Cd47 2.385 . S
O46 C51 1.255 . S
Cd47 O46 2.385 . S
Cd47 O48 2.317 . S
O48 Cd47 2.317 . S
O48 C49 1.232 . S
C49 O48 1.232 . S
C49 O50 1.218 . S
O50 C49 1.218 . S
C51 O44 1.275 . S
C51 O46 1.255 . S
C52 O53 1.258 . S
C52 O54 1.256 . S
O53 Cd45 2.381 . S
O53 C52 1.258 . S
O54 Cd45 2.378 . S
O54 C52 1.256 . S
O55 Cd56 2.300 . S
O55 C62 1.275 . S
Cd56 O55 2.300 . S
Cd56 O64 2.381 . S
Cd56 O65 2.378 . S
O57 Cd58 2.385 . S
O57 C62 1.255 . S
Cd58 O57 2.385 . S
Cd58 O59 2.317 . S
O59 Cd58 2.317 . S
O59 C60 1.232 . S
C60 O59 1.232 . S
C60 O61 1.218 . S
O61 C60 1.218 . S
C62 O55 1.275 . S
C62 O57 1.255 . S
C63 O64 1.258 . S
C63 O65 1.256 . S
O64 Cd56 2.381 . S
O64 C63 1.258 . S
O65 Cd56 2.378 . S
O65 C63 1.256 . S
O66 Cd67 2.300 1_565 S
O66 C73 1.275 1_565 S
Cd67 O66 2.300 1_545 S
Cd67 O75 2.381 1_545 S
Cd67 O76 2.378 . S
O68 Cd69 2.385 . S
O68 C73 1.255 . S
Cd69 O68 2.385 . S
Cd69 O70 2.317 . S
O70 Cd69 2.317 . S
O70 C71 1.232 . S
C71 O70 1.232 . S
C71 O72 1.218 . S
O72 C71 1.218 . S
C73 O66 1.275 1_545 S
C73 O68 1.255 . S
C74 O75 1.258 1_545 S
C74 O76 1.256 . S
O75 Cd67 2.381 1_565 S
O75 C74 1.258 1_565 S
O76 Cd67 2.378 . S
O76 C74 1.256 . S
O77 Cd78 2.300 . S
O77 C84 1.275 . S
Cd78 O77 2.300 . S
Cd78 O86 2.381 . S
Cd78 O87 2.378 . S
O79 Cd80 2.385 . S
O79 C84 1.255 . S
Cd80 O79 2.385 . S
Cd80 O81 2.317 . S
O81 Cd80 2.317 . S
O81 C82 1.232 . S
C82 O81 1.232 . S
C82 O83 1.218 . S
O83 C82 1.218 . S
C84 O77 1.275 . S
C84 O79 1.255 . S
C85 O86 1.258 . S
C85 O87 1.256 . S
O86 Cd78 2.381 . S
O86 C85 1.258 . S
O87 Cd78 2.378 . S
O87 C85 1.256 . S
Co88 N93 2.057 1_556 S
Co88 O105 2.021 . S
Co88 O108 2.062 . S
Co88 O112 2.117 1_455 S
Co88 O113 2.020 1_545 S
C89 O109 1.259 1_545 S
C89 O112 1.258 . S
Co90 N99 2.057 . S
Co90 O106 2.117 . S
Co90 O107 2.020 1_565 S
Co90 O109 2.021 1_455 S
Co90 O114 2.062 . S
C91 N93 1.316 . S
C91 N94 1.347 . S
C91 H96 0.931 . S
C92 N93 1.375 . S
C92 C95 1.350 . S
C92 H97 0.930 1_455 S
N93 Co88 2.057 1_554 S
N93 C91 1.316 . S
N93 C92 1.375 . S
N94 C91 1.347 . S
N94 C95 1.373 . S
C95 C92 1.350 . S
C95 N94 1.373 . S
C95 H116 0.931 . S
H96 C91 0.931 . S
H97 C92 0.930 1_655 S
C98 O105 1.259 1_565 S
C98 O106 1.258 . S
N99 Co90 2.057 . S
N99 C100 1.316 1_455 S
N99 C101 1.375 . S
C100 N99 1.316 1_655 S
C100 N102 1.347 . S
C100 H111 0.931 . S
C101 N99 1.375 . S
C101 C103 1.350 . S
C101 H110 0.930 . S
N102 C100 1.347 . S
N102 C103 1.373 1_655 S
C103 C101 1.350 . S
C103 N102 1.373 1_455 S
C103 H117 0.931 . S
C104 O107 1.256 . S
C104 O108 1.255 . S
O105 Co88 2.021 . S
O105 C98 1.259 1_545 S
O106 Co90 2.117 . S
O106 C98 1.258 . S
O107 Co90 2.020 1_545 S
O107 C104 1.256 . S
O108 Co88 2.062 . S
O108 C104 1.255 . S
O109 C89 1.259 1_565 S
O109 Co90 2.021 1_655 S
H110 C101 0.930 . S
H111 C100 0.931 . S
O112 Co88 2.117 1_655 S
O112 C89 1.258 . S
O113 Co88 2.020 1_565 S
O113 C115 1.256 . S
O114 Co90 2.062 . S
O114 C115 1.255 . S
C115 O113 1.256 . S
C115 O114 1.255 . S
H116 C95 0.931 . S
H117 C103 0.931 . S
Co118 N123 2.057 1_546 S
Co118 O135 2.021 . S
Co118 O138 2.065 . S
Co118 O142 2.117 1_545 S
Co118 O143 2.020 . S
C119 O139 1.259 . S
C119 O142 1.258 . S
Co120 N129 2.057 1_565 S
Co120 O136 2.117 1_565 S
Co120 O137 2.020 . S
Co120 O139 2.021 . S
Co120 O144 2.063 . S
C121 N123 1.316 1_545 S
C121 N124 1.347 . S
C121 H126 0.931 . S
C122 N123 1.375 . S
C122 C125 1.350 . S
C122 H127 0.930 . S
N123 Co118 2.057 1_564 S
N123 C121 1.316 1_565 S
N123 C122 1.375 . S
N124 C121 1.347 . S
N124 C125 1.373 1_545 S
C125 C122 1.350 . S
C125 N124 1.373 1_565 S
C125 H146 0.931 . S
H126 C121 0.931 . S
H127 C122 0.930 . S
C128 O135 1.259 . S
C128 O136 1.258 . S
N129 Co120 2.057 1_545 S
N129 C130 1.316 1_545 S
N129 C131 1.375 . S
C130 N129 1.316 1_565 S
C130 N132 1.347 . S
C130 H141 0.931 . S
C131 N129 1.375 . S
C131 C133 1.350 . S
C131 H140 0.930 . S
N132 C130 1.347 . S
N132 C133 1.373 1_565 S
C133 C131 1.350 . S
C133 N132 1.373 1_545 S
C133 H147 0.931 . S
C134 O137 1.256 . S
C134 O138 1.249 1_565 S
O135 Co118 2.021 . S
O135 C128 1.259 . S
O136 Co120 2.117 1_545 S
O136 C128 1.258 . S
O137 Co120 2.020 . S
O137 C134 1.256 . S
O138 Co118 2.065 . S
O138 C134 1.249 1_545 S
O139 C119 1.259 . S
O139 Co120 2.021 . S
H140 C131 0.930 . S
H141 C130 0.931 . S
O142 Co118 2.117 1_565 S
O142 C119 1.258 . S
O143 Co118 2.020 . S
O143 C145 1.256 . S
O144 Co120 2.063 . S
O144 C145 1.252 1_565 S
C145 O143 1.256 . S
C145 O144 1.252 1_545 S
H146 C125 0.931 . S
H147 C133 0.931 . S
Co148 N153 2.057 . S
Co148 O165 2.021 . S
Co148 O168 2.062 . S
Co148 O172 2.117 . S
Co148 O173 2.020 . S
C149 O169 1.259 . S
C149 O172 1.258 . S
Co150 N159 2.057 . S
Co150 O166 2.117 . S
Co150 O167 2.020 . S
Co150 O169 2.021 . S
Co150 O174 2.062 . S
C151 N153 1.316 . S
C151 N154 1.347 . S
C151 H156 0.931 . S
C152 N153 1.375 . S
C152 C155 1.350 . S
C152 H157 0.930 . S
N153 Co148 2.057 . S
N153 C151 1.316 . S
N153 C152 1.375 . S
N154 C151 1.347 . S
N154 C155 1.373 . S
C155 C152 1.350 . S
C155 N154 1.373 . S
C155 H176 0.931 1_556 S
H156 C151 0.931 . S
H157 C152 0.930 . S
C158 O165 1.259 . S
C158 O166 1.258 . S
N159 Co150 2.057 . S
N159 C160 1.316 . S
N159 C161 1.375 . S
C160 N159 1.316 . S
C160 N162 1.347 . S
C160 H171 0.931 . S
C161 N159 1.375 . S
C161 C163 1.350 . S
C161 H170 0.930 . S
N162 C160 1.347 . S
N162 C163 1.373 . S
C163 C161 1.350 . S
C163 N162 1.373 . S
C163 H177 0.931 . S
C164 O167 1.256 . S
C164 O168 1.255 . S
O165 Co148 2.021 . S
O165 C158 1.259 . S
O166 Co150 2.117 . S
O166 C158 1.258 . S
O167 Co150 2.020 . S
O167 C164 1.256 . S
O168 Co148 2.062 . S
O168 C164 1.255 . S
O169 C149 1.259 . S
O169 Co150 2.021 . S
H170 C161 0.930 . S
H171 C160 0.931 . S
O172 Co148 2.117 . S
O172 C149 1.258 . S
O173 Co148 2.020 . S
O173 C175 1.256 . S
O174 Co150 2.062 . S
O174 C175 1.255 . S
C175 O173 1.256 . S
C175 O174 1.255 . S
H176 C155 0.931 1_554 S
H177 C163 0.931 . S
Co178 N183 2.057 . S
Co178 O195 2.021 1_455 S
Co178 O198 2.062 1_455 S
Co178 O202 2.117 . S
Co178 O203 2.020 . S
C179 O199 1.259 . S
C179 O202 1.258 . S
Co180 N189 2.057 . S
Co180 O196 2.117 1_455 S
Co180 O197 2.020 1_455 S
Co180 O199 2.021 . S
Co180 O204 2.062 . S
C181 N183 1.316 . S
C181 N184 1.347 . S
C181 H186 0.931 1_455 S
C182 N183 1.375 . S
C182 C185 1.350 . S
C182 H187 0.930 . S
N183 Co178 2.057 . S
N183 C181 1.316 . S
N183 C182 1.375 . S
N184 C181 1.347 . S
N184 C185 1.373 . S
C185 C182 1.350 . S
C185 N184 1.373 . S
C185 H206 0.931 . S
H186 C181 0.931 1_655 S
H187 C182 0.930 . S
C188 O195 1.259 . S
C188 O196 1.258 . S
N189 Co180 2.057 . S
N189 C190 1.316 . S
N189 C191 1.375 1_455 S
C190 N189 1.316 . S
C190 N192 1.347 . S
C190 H201 0.931 . S
C191 N189 1.375 1_655 S
C191 C193 1.350 1_655 S
C191 H200 0.930 . S
N192 C190 1.347 . S
N192 C193 1.373 . S
C193 C191 1.350 1_455 S
C193 N192 1.373 . S
C193 H207 0.931 1_455 S
C194 O197 1.256 . S
C194 O198 1.255 . S
O195 Co178 2.021 1_655 S
O195 C188 1.259 . S
O196 Co180 2.117 1_655 S
O196 C188 1.258 . S
O197 Co180 2.020 1_655 S
O197 C194 1.256 . S
O198 Co178 2.062 1_655 S
O198 C194 1.255 . S
O199 C179 1.259 . S
O199 Co180 2.021 . S
H200 C191 0.930 . S
H201 C190 0.931 . S
O202 Co178 2.117 . S
O202 C179 1.258 . S
O203 Co178 2.020 . S
O203 C205 1.256 . S
O204 Co180 2.062 . S
O204 C205 1.255 . S
C205 O203 1.256 . S
C205 O204 1.255 . S
H206 C185 0.931 . S
H207 C193 0.931 1_655 S
H208 C214 0.930 . S
H209 C217 0.930 . S
H210 C218 0.930 . S
H211 C219 0.930 . S
H212 C222 0.930 . S
H213 C223 0.930 . S
C214 H208 0.930 . S
C214 C215 1.355 1_565 S
C214 C216 1.415 . S
C215 C214 1.355 1_545 S
C215 C217 1.419 . S
C216 C214 1.415 . S
C216 C221 1.425 1_565 S
C216 C223 1.409 . S
C217 H209 0.930 . S
C217 C215 1.419 . S
C217 C218 1.362 . S
C218 H210 0.930 . S
C218 C217 1.362 . S
C218 C221 1.409 . S
C219 H211 0.930 . S
C219 C220 1.355 1_545 S
C219 C221 1.415 . S
C220 C219 1.355 1_565 S
C220 C222 1.419 . S
C221 C216 1.425 1_545 S
C221 C218 1.409 . S
C221 C219 1.415 . S
C222 H212 0.930 . S
C222 C220 1.419 . S
C222 C223 1.362 . S
C223 H213 0.930 . S
C223 C216 1.409 . S
C223 C222 1.362 . S
H224 C230 0.930 . S
H225 C233 0.930 . S
H226 C234 0.930 . S
H227 C235 0.930 . S
H228 C238 0.930 . S
H229 C239 0.930 . S
C230 H224 0.930 . S
C230 C231 1.355 . S
C230 C232 1.415 . S
C231 C230 1.355 . S
C231 C233 1.419 . S
C232 C230 1.415 . S
C232 C237 1.425 . S
C232 C239 1.409 . S
C233 H225 0.930 . S
C233 C231 1.419 . S
C233 C234 1.362 . S
C234 H226 0.930 . S
C234 C233 1.362 . S
C234 C237 1.409 . S
C235 H227 0.930 . S
C235 C236 1.355 . S
C235 C237 1.415 . S
C236 C235 1.355 . S
C236 C238 1.419 . S
C237 C232 1.425 . S
C237 C234 1.409 . S
C237 C235 1.415 . S
C238 H228 0.930 . S
C238 C236 1.419 . S
C238 C239 1.362 . S
C239 H229 0.930 . S
C239 C232 1.409 . S
C239 C238 1.362 . S
H240 C246 0.930 . S
H241 C249 0.930 . S
H242 C250 0.930 . S
H243 C251 0.930 . S
H244 C254 0.930 . S
H245 C255 0.930 . S
C246 H240 0.930 . S
C246 C247 1.355 . S
C246 C248 1.415 . S
C247 C246 1.355 . S
C247 C249 1.419 . S
C248 C246 1.415 . S
C248 C253 1.425 . S
C248 C255 1.409 . S
C249 H241 0.930 . S
C249 C247 1.419 . S
C249 C250 1.362 . S
C250 H242 0.930 . S
C250 C249 1.362 . S
C250 C253 1.409 . S
C251 H243 0.930 . S
C251 C252 1.355 . S
C251 C253 1.415 . S
C252 C251 1.355 . S
C252 C254 1.419 . S
C253 C248 1.425 . S
C253 C250 1.409 . S
C253 C251 1.415 . S
C254 H244 0.930 . S
C254 C252 1.419 . S
C254 C255 1.362 . S
C255 H245 0.930 . S
C255 C248 1.409 . S
C255 C254 1.362 . S
H256 C262 0.930 . S
H257 C265 0.930 . S
H258 C266 0.930 . S
H259 C267 0.930 . S
H260 C270 0.930 1_655 S
H261 C271 0.930 . S
C262 H256 0.930 . S
C262 C263 1.355 . S
C262 C264 1.415 . S
C263 C262 1.355 . S
C263 C265 1.419 . S
C264 C262 1.415 . S
C264 C269 1.425 . S
C264 C271 1.409 . S
C265 H257 0.930 . S
C265 C263 1.419 . S
C265 C266 1.362 . S
C266 H258 0.930 . S
C266 C265 1.362 . S
C266 C269 1.409 . S
C267 H259 0.930 . S
C267 C268 1.355 . S
C267 C269 1.415 . S
C268 C267 1.355 . S
C268 C270 1.419 . S
C269 C264 1.425 . S
C269 C266 1.409 . S
C269 C267 1.415 . S
C270 H260 0.930 1_455 S
C270 C268 1.419 . S
C270 C271 1.362 . S
C271 H261 0.930 . S
C271 C264 1.409 . S
C271 C270 1.362 . S
H272 C278 0.930 . S
H273 C281 0.930 . S
H274 C282 0.930 1_554 S
H275 C283 0.930 . S
H276 C286 0.930 . S
H277 C287 0.930 . S
C278 H272 0.930 . S
C278 C279 1.355 1_545 S
C278 C280 1.415 . S
C279 C278 1.355 1_565 S
C279 C281 1.419 1_556 S
C280 C278 1.415 . S
C280 C285 1.425 1_545 S
C280 C287 1.409 . S
C281 H273 0.930 . S
C281 C279 1.419 1_554 S
C281 C282 1.362 1_554 S
C282 H274 0.930 1_556 S
C282 C281 1.362 1_556 S
C282 C285 1.409 . S
C283 H275 0.930 . S
C283 C284 1.355 1_565 S
C283 C285 1.415 . S
C284 C283 1.355 1_545 S
C284 C286 1.419 . S
C285 C280 1.425 1_565 S
C285 C282 1.409 . S
C285 C283 1.415 . S
C286 H276 0.930 . S
C286 C284 1.419 . S
C286 C287 1.362 . S
C287 H277 0.930 . S
C287 C280 1.409 . S
C287 C286 1.362 . S
H288 C294 0.930 . S
H289 C297 0.930 . S
H290 C298 0.930 . S
H291 C299 0.930 . S
H292 C302 0.930 . S
H293 C303 0.930 . S
C294 H288 0.930 . S
C294 C295 1.355 1_556 S
C294 C296 1.415 . S
C295 C294 1.355 1_554 S
C295 C297 1.419 . S
C296 C294 1.415 . S
C296 C301 1.425 . S
C296 C303 1.409 . S
C297 H289 0.930 . S
C297 C295 1.419 . S
C297 C298 1.362 . S
C298 H290 0.930 . S
C298 C297 1.362 . S
C298 C301 1.409 1_554 S
C299 H291 0.930 . S
C299 C300 1.355 . S
C299 C301 1.415 . S
C300 C299 1.355 . S
C300 C302 1.419 . S
C301 C296 1.425 . S
C301 C298 1.409 1_556 S
C301 C299 1.415 . S
C302 H292 0.930 . S
C302 C300 1.419 . S
C302 C303 1.362 . S
C303 H293 0.930 . S
C303 C296 1.409 . S
C303 C302 1.362 . S
H304 C310 0.930 1_556 S
H305 C313 0.930 . S
H306 C314 0.930 . S
H307 C315 0.930 . S
H308 C318 0.930 . S
H309 C319 0.930 . S
C310 H304 0.930 1_554 S
C310 C311 1.355 . S
C310 C312 1.415 1_554 S
C311 C310 1.355 . S
C311 C313 1.419 . S
C312 C310 1.415 1_556 S
C312 C317 1.425 1_556 S
C312 C319 1.409 . S
C313 H305 0.930 . S
C313 C311 1.419 . S
C313 C314 1.362 . S
C314 H306 0.930 . S
C314 C313 1.362 . S
C314 C317 1.409 . S
C315 H307 0.930 . S
C315 C316 1.355 1_554 S
C315 C317 1.415 . S
C316 C315 1.355 1_556 S
C316 C318 1.419 . S
C317 C312 1.425 1_554 S
C317 C314 1.409 . S
C317 C315 1.415 . S
C318 H308 0.930 . S
C318 C316 1.419 . S
C318 C319 1.362 . S
C319 H309 0.930 . S
C319 C312 1.409 . S
C319 C318 1.362 . S
H320 C326 0.930 . S
H321 C329 0.930 . S
H322 C330 0.930 1_455 S
H323 C331 0.930 . S
H324 C334 0.930 . S
H325 C335 0.930 . S
C326 H320 0.930 . S
C326 C327 1.355 1_556 S
C326 C328 1.415 . S
C327 C326 1.355 1_554 S
C327 C329 1.419 . S
C328 C326 1.415 . S
C328 C333 1.425 . S
C328 C335 1.409 . S
C329 H321 0.930 . S
C329 C327 1.419 . S
C329 C330 1.362 . S
C330 H322 0.930 1_655 S
C330 C329 1.362 . S
C330 C333 1.409 1_554 S
C331 H323 0.930 . S
C331 C332 1.355 1_455 S
C331 C333 1.415 1_455 S
C332 C331 1.355 1_655 S
C332 C334 1.419 . S
C333 C328 1.425 . S
C333 C330 1.409 1_556 S
C333 C331 1.415 1_655 S
C334 H324 0.930 . S
C334 C332 1.419 . S
C334 C335 1.362 . S
C335 H325 0.930 . S
C335 C328 1.409 . S
C335 C334 1.362 . S
H336 C342 0.930 . S
H337 C345 0.930 . S
H338 C346 0.930 . S
H339 C347 0.930 . S
H340 C350 0.930 1_655 S
H341 C351 0.930 . S
C342 H336 0.930 . S
C342 C343 1.355 . S
C342 C344 1.415 . S
C343 C342 1.355 . S
C343 C345 1.419 . S
C344 C342 1.415 . S
C344 C349 1.425 . S
C344 C351 1.409 . S
C345 H337 0.930 . S
C345 C343 1.419 . S
C345 C346 1.362 . S
C346 H338 0.930 . S
C346 C345 1.362 . S
C346 C349 1.409 . S
C347 H339 0.930 . S
C347 C348 1.355 . S
C347 C349 1.415 . S
C348 C347 1.355 . S
C348 C350 1.419 . S
C349 C344 1.425 . S
C349 C346 1.409 . S
C349 C347 1.415 . S
C350 H340 0.930 1_455 S
C350 C348 1.419 . S
C350 C351 1.362 . S
C351 H341 0.930 . S
C351 C344 1.409 . S
C351 C350 1.362 . S
H352 C358 0.930 . S
H353 C361 0.930 . S
H354 C362 0.930 . S
H355 C363 0.930 . S
H356 C366 0.930 . S
H357 C367 0.930 . S
C358 H352 0.930 . S
C358 C359 1.355 1_565 S
C358 C360 1.415 . S
C359 C358 1.355 1_545 S
C359 C361 1.419 . S
C360 C358 1.415 . S
C360 C365 1.425 1_565 S
C360 C367 1.409 . S
C361 H353 0.930 . S
C361 C359 1.419 . S
C361 C362 1.362 . S
C362 H354 0.930 . S
C362 C361 1.362 . S
C362 C365 1.409 . S
C363 H355 0.930 . S
C363 C364 1.355 1_545 S
C363 C365 1.415 . S
C364 C363 1.355 1_565 S
C364 C366 1.419 . S
C365 C360 1.425 1_545 S
C365 C362 1.409 . S
C365 C363 1.415 . S
C366 H356 0.930 . S
C366 C364 1.419 . S
C366 C367 1.362 . S
C367 H357 0.930 . S
C367 C360 1.409 . S
C367 C366 1.362 . S
H368 C374 0.930 . S
H369 C377 0.930 . S
H370 C378 0.930 . S
H371 C379 0.930 . S
H372 C382 0.930 . S
H373 C383 0.930 . S
C374 H368 0.930 . S
C374 C375 1.355 . S
C374 C376 1.415 . S
C375 C374 1.355 . S
C375 C377 1.419 . S
C376 C374 1.415 . S
C376 C381 1.425 . S
C376 C383 1.409 . S
C377 H369 0.930 . S
C377 C375 1.419 . S
C377 C378 1.362 . S
C378 H370 0.930 . S
C378 C377 1.362 . S
C378 C381 1.409 . S
C379 H371 0.930 . S
C379 C380 1.355 . S
C379 C381 1.415 . S
C380 C379 1.355 . S
C380 C382 1.419 . S
C381 C376 1.425 . S
C381 C378 1.409 . S
C381 C379 1.415 . S
C382 H372 0.930 . S
C382 C380 1.419 . S
C382 C383 1.362 . S
C383 H373 0.930 . S
C383 C376 1.409 . S
C383 C382 1.362 . S
H384 C390 0.930 . S
H385 C393 0.930 . S
H386 C394 0.930 . S
H387 C395 0.930 . S
H388 C398 0.930 . S
H389 C399 0.930 . S
C390 H384 0.930 . S
C390 C391 1.355 . S
C390 C392 1.415 . S
C391 C390 1.355 . S
C391 C393 1.419 . S
C392 C390 1.415 . S
C392 C397 1.425 . S
C392 C399 1.409 . S
C393 H385 0.930 . S
C393 C391 1.419 . S
C393 C394 1.362 . S
C394 H386 0.930 . S
C394 C393 1.362 . S
C394 C397 1.409 . S
C395 H387 0.930 . S
C395 C396 1.355 . S
C395 C397 1.415 . S
C396 C395 1.355 . S
C396 C398 1.419 . S
C397 C392 1.425 . S
C397 C394 1.409 . S
C397 C395 1.415 . S
C398 H388 0.930 . S
C398 C396 1.419 . S
C398 C399 1.362 . S
C399 H389 0.930 . S
C399 C392 1.409 . S
C399 C398 1.362 . S
H400 C406 0.930 . S
H401 C409 0.930 . S
H402 C410 0.930 . S
H403 C411 0.930 . S
H404 C414 0.931 . S
H405 C415 0.930 . S
C406 H400 0.930 . S
C406 C407 1.355 . S
C406 C408 1.415 . S
C407 C406 1.355 . S
C407 C409 1.419 1_554 S
C408 C406 1.415 . S
C408 C413 1.425 1_554 S
C408 C415 1.409 1_655 S
C409 H401 0.930 . S
C409 C407 1.419 1_556 S
C409 C410 1.362 . S
C410 H402 0.930 . S
C410 C409 1.362 . S
C410 C413 1.409 . S
C411 H403 0.930 . S
C411 C412 1.355 1_655 S
C411 C413 1.415 . S
C412 C411 1.355 1_455 S
C412 C414 1.416 1_556 S
C413 C408 1.425 1_556 S
C413 C410 1.409 . S
C413 C411 1.415 . S
C414 H404 0.931 . S
C414 C412 1.416 1_554 S
C414 C415 1.364 . S
C415 H405 0.930 . S
C415 C408 1.409 1_455 S
C415 C414 1.364 . S
H416 C422 0.930 . S
H417 C425 0.930 1_554 S
H418 C426 0.930 . S
H419 C427 0.930 . S
H420 C430 0.930 . S
H421 C431 0.930 . S
C422 H416 0.930 . S
C422 C423 1.355 1_565 S
C422 C424 1.415 . S
C423 C422 1.355 1_545 S
C423 C425 1.419 . S
C424 C422 1.415 . S
C424 C429 1.425 1_565 S
C424 C431 1.409 . S
C425 H417 0.930 1_556 S
C425 C423 1.419 . S
C425 C426 1.362 . S
C426 H418 0.930 . S
C426 C425 1.362 . S
C426 C429 1.409 . S
C427 H419 0.930 . S
C427 C428 1.355 . S
C427 C429 1.415 . S
C428 C427 1.355 . S
C428 C430 1.419 1_545 S
C429 C424 1.425 1_545 S
C429 C426 1.409 . S
C429 C427 1.415 . S
C430 H420 0.930 . S
C430 C428 1.419 1_565 S
C430 C431 1.362 . S
C431 H421 0.930 . S
C431 C424 1.409 . S
C431 C430 1.362 . S
H432 C438 0.930 . S
H433 C441 0.930 . S
H434 C442 0.930 . S
H435 C443 0.930 . S
H436 C446 0.930 . S
H437 C447 0.930 . S
C438 H432 0.930 . S
C438 C439 1.355 . S
C438 C440 1.415 1_554 S
C439 C438 1.355 . S
C439 C441 1.419 . S
C440 C438 1.415 1_556 S
C440 C445 1.425 . S
C440 C447 1.409 . S
C441 H433 0.930 . S
C441 C439 1.419 . S
C441 C442 1.362 . S
C442 H434 0.930 . S
C442 C441 1.362 . S
C442 C445 1.409 1_554 S
C443 H435 0.930 . S
C443 C444 1.355 . S
C443 C445 1.415 . S
C444 C443 1.355 . S
C444 C446 1.419 . S
C445 C440 1.425 . S
C445 C442 1.409 1_556 S
C445 C443 1.415 . S
C446 H436 0.930 . S
C446 C444 1.419 . S
C446 C447 1.362 . S
C447 H437 0.930 . S
C447 C440 1.409 . S
C447 C446 1.362 . S
H448 C454 0.930 . S
H449 C457 0.930 . S
H450 C458 0.930 . S
H451 C459 0.930 . S
H452 C462 0.930 . S
H453 C463 0.930 . S
C454 H448 0.930 . S
C454 C455 1.355 . S
C454 C456 1.415 . S
C455 C454 1.355 . S
C455 C457 1.419 . S
C456 C454 1.415 . S
C456 C461 1.425 . S
C456 C463 1.409 1_554 S
C457 H449 0.930 . S
C457 C455 1.419 . S
C457 C458 1.362 . S
C458 H450 0.930 . S
C458 C457 1.362 . S
C458 C461 1.409 . S
C459 H451 0.930 . S
C459 C460 1.355 1_554 S
C459 C461 1.415 . S
C460 C459 1.355 1_556 S
C460 C462 1.419 . S
C461 C456 1.425 . S
C461 C458 1.409 . S
C461 C459 1.415 . S
C462 H452 0.930 . S
C462 C460 1.419 . S
C462 C463 1.362 . S
C463 H453 0.930 . S
C463 C456 1.409 1_556 S
C463 C462 1.362 . S
H464 C470 0.930 . S
H465 C473 0.930 . S
H466 C474 0.930 . S
H467 C475 0.930 . S
H468 C478 0.930 . S
H469 C479 0.930 . S
C470 H464 0.930 . S
C470 C471 1.355 . S
C470 C472 1.415 . S
C471 C470 1.355 . S
C471 C473 1.419 . S
C472 C470 1.415 . S
C472 C477 1.425 . S
C472 C479 1.409 . S
C473 H465 0.930 . S
C473 C471 1.419 . S
C473 C474 1.362 . S
C474 H466 0.930 . S
C474 C473 1.362 . S
C474 C477 1.409 . S
C475 H467 0.930 . S
C475 C476 1.355 . S
C475 C477 1.415 . S
C476 C475 1.355 . S
C476 C478 1.419 . S
C477 C472 1.425 . S
C477 C474 1.409 . S
C477 C475 1.415 . S
C478 H468 0.930 . S
C478 C476 1.419 . S
C478 C479 1.362 . S
C479 H469 0.930 . S
C479 C472 1.409 . S
C479 C478 1.362 . S
H480 C486 0.930 . S
H481 C489 0.930 . S
H482 C490 0.930 . S
H483 C491 0.930 . S
H484 C494 0.930 . S
H485 C495 0.930 . S
C486 H480 0.930 . S
C486 C487 1.356 . S
C486 C488 1.415 . S
C487 C486 1.356 . S
C487 C489 1.418 1_545 S
C488 C486 1.415 . S
C488 C493 1.425 1_545 S
C488 C495 1.409 . S
C489 H481 0.930 . S
C489 C487 1.418 1_565 S
C489 C490 1.362 . S
C490 H482 0.930 . S
C490 C489 1.362 . S
C490 C493 1.409 . S
C491 H483 0.930 . S
C491 C492 1.355 1_565 S
C491 C493 1.415 . S
C492 C491 1.355 1_545 S
C492 C494 1.419 . S
C493 C488 1.425 1_565 S
C493 C490 1.409 . S
C493 C491 1.415 . S
C494 H484 0.930 . S
C494 C492 1.419 . S
C494 C495 1.362 . S
C495 H485 0.930 . S
C495 C488 1.409 . S
C495 C494 1.362 . S
H496 C502 0.930 . S
H497 C505 0.930 . S
H498 C506 0.930 . S
H499 C507 0.930 1_556 S
H500 C510 0.930 . S
H501 C511 0.930 . S
C502 H496 0.930 . S
C502 C503 1.355 . S
C502 C504 1.415 . S
C503 C502 1.355 . S
C503 C505 1.419 . S
C504 C502 1.415 . S
C504 C509 1.425 . S
C504 C511 1.409 . S
C505 H497 0.930 . S
C505 C503 1.419 . S
C505 C506 1.362 . S
C506 H498 0.930 . S
C506 C505 1.362 . S
C506 C509 1.409 . S
C507 H499 0.930 1_554 S
C507 C508 1.355 . S
C507 C509 1.415 . S
C508 C507 1.355 . S
C508 C510 1.419 . S
C509 C504 1.425 . S
C509 C506 1.409 . S
C509 C507 1.415 . S
C510 H500 0.930 . S
C510 C508 1.419 . S
C510 C511 1.362 . S
C511 H501 0.930 . S
C511 C504 1.409 . S
C511 C510 1.362 . S
H512 C518 0.930 . S
H513 C521 0.930 . S
H514 C522 0.930 . S
H515 C523 0.930 1_556 S
H516 C526 0.930 . S
H517 C527 0.930 . S
C518 H512 0.930 . S
C518 C519 1.355 . S
C518 C520 1.415 . S
C519 C518 1.355 . S
C519 C521 1.419 . S
C520 C518 1.415 . S
C520 C525 1.425 . S
C520 C527 1.409 . S
C521 H513 0.930 . S
C521 C519 1.419 . S
C521 C522 1.362 . S
C522 H514 0.930 . S
C522 C521 1.362 . S
C522 C525 1.409 . S
C523 H515 0.930 1_554 S
C523 C524 1.355 . S
C523 C525 1.415 . S
C524 C523 1.355 . S
C524 C526 1.419 . S
C525 C520 1.425 . S
C525 C522 1.409 . S
C525 C523 1.415 . S
C526 H516 0.930 . S
C526 C524 1.419 . S
C526 C527 1.362 . S
C527 H517 0.930 . S
C527 C520 1.409 . S
C527 C526 1.362 . S
H528 C534 0.930 . S
H529 C537 0.935 . S
H530 C538 0.903 1_455 S
H531 C539 0.930 1_455 S
H532 C542 0.930 . S
H533 C543 0.930 . S
C534 H528 0.930 . S
C534 C535 1.355 . S
C534 C536 1.415 . S
C535 C534 1.355 . S
C535 C537 1.419 . S
C536 C534 1.415 . S
C536 C541 1.425 . S
C536 C543 1.409 . S
C537 H529 0.935 . S
C537 C535 1.419 . S
C537 C538 1.373 . S
C538 H530 0.903 1_655 S
C538 C537 1.373 . S
C538 C541 1.426 . S
C539 H531 0.930 1_655 S
C539 C540 1.355 . S
C539 C541 1.415 . S
C540 C539 1.355 . S
C540 C542 1.419 . S
C541 C536 1.425 . S
C541 C538 1.426 . S
C541 C539 1.415 . S
C542 H532 0.930 . S
C542 C540 1.419 . S
C542 C543 1.362 . S
C543 H533 0.930 . S
C543 C536 1.409 . S
C543 C542 1.362 . S
H544 C550 0.930 . S
H545 C553 0.930 . S
H546 C554 0.930 . S
H547 C555 0.933 . S
H548 C558 0.930 . S
H549 C559 0.930 . S
C550 H544 0.930 . S
C550 C551 1.350 1_565 S
C550 C552 1.415 . S
C551 C550 1.350 1_545 S
C551 C553 1.427 . S
C552 C550 1.415 . S
C552 C557 1.425 . S
C552 C559 1.409 . S
C553 H545 0.930 . S
C553 C551 1.427 . S
C553 C554 1.362 . S
C554 H546 0.930 . S
C554 C553 1.362 . S
C554 C557 1.409 1_545 S
C555 H547 0.933 . S
C555 C556 1.355 . S
C555 C557 1.415 . S
C556 C555 1.355 . S
C556 C558 1.419 . S
C557 C552 1.425 . S
C557 C554 1.409 1_565 S
C557 C555 1.415 . S
C558 H548 0.930 . S
C558 C556 1.419 . S
C558 C559 1.362 . S
C559 H549 0.930 . S
C559 C552 1.409 . S
C559 C558 1.362 . S
H560 C566 0.930 . S
H561 C569 0.930 . S
H562 C570 0.930 . S
H563 C571 0.930 . S
H564 C574 0.930 . S
H565 C575 0.930 . S
C566 H560 0.930 . S
C566 C567 1.355 . S
C566 C568 1.415 . S
C567 C566 1.355 . S
C567 C569 1.419 . S
C568 C566 1.415 . S
C568 C573 1.425 . S
C568 C575 1.409 . S
C569 H561 0.930 . S
C569 C567 1.419 . S
C569 C570 1.362 . S
C570 H562 0.930 . S
C570 C569 1.362 . S
C570 C573 1.409 . S
C571 H563 0.930 . S
C571 C572 1.355 . S
C571 C573 1.415 . S
C572 C571 1.355 . S
C572 C574 1.419 . S
C573 C568 1.425 . S
C573 C570 1.409 . S
C573 C571 1.415 . S
C574 H564 0.930 . S
C574 C572 1.419 . S
C574 C575 1.362 . S
C575 H565 0.930 . S
C575 C568 1.409 . S
C575 C574 1.362 . S
H576 C582 0.930 . S
H577 C585 0.930 . S
H578 C586 0.930 . S
H579 C587 0.930 . S
H580 C590 0.930 . S
H581 C591 0.930 . S
C582 H576 0.930 . S
C582 C583 1.355 . S
C582 C584 1.415 . S
C583 C582 1.355 . S
C583 C585 1.419 . S
C584 C582 1.415 . S
C584 C589 1.425 . S
C584 C591 1.409 . S
C585 H577 0.930 . S
C585 C583 1.419 . S
C585 C586 1.362 . S
C586 H578 0.930 . S
C586 C585 1.362 . S
C586 C589 1.409 . S
C587 H579 0.930 . S
C587 C588 1.355 . S
C587 C589 1.415 . S
C588 C587 1.355 . S
C588 C590 1.419 . S
C589 C584 1.425 . S
C589 C586 1.409 . S
C589 C587 1.415 . S
C590 H580 0.930 . S
C590 C588 1.419 . S
C590 C591 1.362 . S
C591 H581 0.930 . S
C591 C584 1.409 . S
C591 C590 1.362 . S
C215 C74 1.643 . S
C220 C98 1.664 . S
C236 C128 1.780 . S
C231 C85 1.780 . S
C252 N162 1.335 . S
C247 C52 1.384 . S
C268 N192 1.451 . S
C263 C63 1.502 . S
C284 C89 1.665 . S
C279 C30 1.659 1_566 S
C295 C41 1.764 . S
C300 C119 1.788 . S
C311 C8 1.399 . S
C316 N154 1.360 . S
C327 C19 1.434 . S
C332 N184 1.489 1_655 S
C348 C104 0.689 . S
C343 C62 0.634 . S
C364 C134 0.957 . S
C359 C73 0.910 . S
C380 C175 1.203 . S
C375 C84 1.244 . S
C391 C51 0.677 . S
C396 C205 0.705 . S
C407 C18 0.783 . S
C412 C115 0.696 . S
C428 C145 0.919 . S
C423 C29 0.894 . S
C444 C164 1.209 . S
C439 C40 1.131 . S
C455 C7 0.731 . S
C460 C194 0.690 . S
C471 C60 1.350 . S
C476 N94 1.466 . S
C487 C71 1.248 . S
C492 N124 1.415 . S
C508 C149 1.655 1_554 S
C503 C82 1.448 . S
C524 C179 1.575 1_554 S
C519 C49 1.358 . S
C535 C16 1.094 . S
C540 N102 1.509 . S
C556 N132 1.422 . S
C551 C27 1.239 . S
C572 C158 1.645 . S
C567 C38 1.293 . S
C583 C5 1.326 . S
C588 C188 1.571 . S
