# Generated by pormake.
# Topology scu, (8,4)-cn, num edge types: 1
# Building blocks:
#     Node 0, Type 0, BuildingBlock: VETTIZ_charged_sbu_0, # of connection points: 8
#     Node 1, Type 1, BuildingBlock: NAWXER_clean_sbu_0, # of connection points: 4
#     Node 2, Type 1, BuildingBlock: NAWXER_clean_sbu_0, # of connection points: 4
#     Edge 3, Type (0, 1), BuildingBlock: ZUJKAS_clean_linker_0, # of connection points: 2
#     Edge 4, Type (0, 1), BuildingBlock: ZUJKAS_clean_linker_0, # of connection points: 2
#     Edge 5, Type (0, 1), BuildingBlock: ZUJKAS_clean_linker_0, # of connection points: 2
#     Edge 6, Type (0, 1), BuildingBlock: ZUJKAS_clean_linker_0, # of connection points: 2
#     Edge 7, Type (0, 1), BuildingBlock: ZUJKAS_clean_linker_0, # of connection points: 2
#     Edge 8, Type (0, 1), BuildingBlock: ZUJKAS_clean_linker_0, # of connection points: 2
#     Edge 9, Type (0, 1), BuildingBlock: ZUJKAS_clean_linker_0, # of connection points: 2
#     Edge 10, Type (0, 1), BuildingBlock: ZUJKAS_clean_linker_0, # of connection points: 2
# Relax obj value: 0.013
# Max RMSD: 0.059
# Mean RMSD: 0.052
data_MOF--net-scu--node1-VETTIZ_charged_sbu_0--node2-NAWXER_clean_sbu_0--edge1-ZUJKAS_clean_linker_0
_symmetry_space_group_name_H-M    P1
_symmetry_Int_Tables_number       1
_symmetry_cell_setting            triclinic
loop_
_symmetry_equiv_pos_as_xyz
'x, y, z'
_cell_length_a     30.838508
_cell_length_b     31.848733
_cell_length_c     25.561483
_cell_angle_alpha  90.273728
_cell_angle_beta   90.036244
_cell_angle_gamma 88.863378
loop_
_atom_site_label
_atom_site_type_symbol
_atom_site_fract_x
_atom_site_fract_y
_atom_site_fract_z
_atom_type_partial_charge
Fe0 Fe 1.02549 0.01104 0.06526 0.0
O1 O 1.01702 0.05161 0.00683 0.0
Fe2 Fe 0.08285 0.92887 0.0088 0.0
Fe3 Fe 0.96789 0.09164 0.00606 0.0
O4 O 0.03414 0.96928 0.00771 0.0
O5 O 0.03403 0.96917 0.00221 0.0
O6 O 1.01723 0.0516 0.00137 0.0
Fe7 Fe 1.02645 1.00985 0.9432 0.0
C8 C 0.93035 0.02364 0.07609 0.0
O9 O 1.01751 0.06158 0.11824 0.0
O10 O 1.00313 0.11852 0.06515 0.0
O11 O 0.09194 0.02249 0.94163 0.0
O12 O 0.12056 0.95837 0.95472 0.0
O13 O 0.11646 0.95913 0.06794 0.0
O14 O 0.09012 0.02432 0.06653 0.0
O15 O 0.99934 0.11698 0.94299 0.0
O16 O 1.01681 0.05986 0.8899 0.0
C17 C 0.12009 0.99814 0.07788 0.0
O18 O 0.03731 0.95889 0.89086 0.0
O19 O 0.05219 0.90264 0.94552 0.0
O20 O 0.96088 0.99754 0.0665 0.0
O21 O 0.93352 0.06235 0.06482 0.0
C22 C 1.01601 0.10185 0.10889 0.0
C23 C 1.00969 0.09998 0.89822 0.0
C24 C 0.92969 0.02333 0.93461 0.0
O25 O 0.9313 0.06084 0.95166 0.0
O26 O 0.96116 0.997 0.93895 0.0
C27 C 0.12308 0.9957 0.93762 0.0
O28 O 0.04593 0.90352 0.06704 0.0
O29 O 0.03331 0.96167 0.11951 0.0
C30 C 0.04329 0.91878 0.90004 0.0
C31 C 0.03292 0.9214 0.1101 0.0
C32 C 0.06032 0.56855 0.54829 0.0
C33 C 0.07984 0.45508 0.41983 0.0
O34 O 0.09632 0.55344 0.53174 0.0
Zn35 Zn 0.07241 0.51115 0.48505 0.0
O36 O 1.02485 0.55215 0.53308 0.0
Zn37 Zn 1.00327 0.50413 0.48171 0.0
O38 O 0.97613 0.46379 0.5275 0.0
O39 O 0.04719 0.46535 0.53671 0.0
O40 O 0.04017 0.46366 0.43122 0.0
O41 O 0.11 0.47556 0.44162 0.0
O42 O 0.03881 0.54999 0.42936 0.0
O43 O 0.96866 0.53743 0.43338 0.0
C44 C 1.01066 0.44959 0.54884 0.0
C45 C 0.99988 0.55772 0.41394 0.0
C46 C 0.5841 0.04338 0.56139 0.0
C47 C 0.47362 0.05227 0.42304 0.0
O48 O 0.56832 1.00801 0.54807 0.0
Zn49 Zn 0.52329 0.983 0.49372 0.0
O50 O 0.57146 0.07674 0.53822 0.0
Zn51 Zn 0.52919 0.05056 0.49195 0.0
O52 O 0.48236 0.02766 0.54555 0.0
O53 O 0.48066 0.95852 0.54041 0.0
O54 O 0.49259 0.08329 0.44399 0.0
O55 O 0.48276 0.01492 0.43855 0.0
O56 O 0.56088 0.94857 0.44814 0.0
O57 O 0.57028 0.01666 0.43925 0.0
C58 C 0.46659 0.99281 0.56059 0.0
C59 C 0.57983 0.97881 0.42581 0.0
H60 H 0.06757 0.08536 0.19505 0.0
H61 H 0.09646 0.13701 0.2574 0.0
H62 H 0.02808 0.2364 0.1761 0.0
H63 H 0.99906 0.18582 0.11454 0.0
H64 H 0.12728 0.24445 0.20035 0.0
H65 H 1.01621 0.21128 0.36662 0.0
H66 H 0.04173 0.16903 0.32984 0.0
H67 H 0.9996 0.20037 0.30028 0.0
C68 C 0.05828 0.11815 0.19096 0.0
C69 C 0.03095 0.13141 0.14978 0.0
C70 C 0.07505 0.14756 0.22632 0.0
C71 C 0.06456 0.19042 0.22088 0.0
C72 C 0.03682 0.20347 0.18053 0.0
H73 H 1.02633 0.42227 0.34716 0.0
H74 H 0.03398 0.35472 0.30269 0.0
C75 C 1.02016 0.17439 0.14546 0.0
C76 C 0.08139 0.22261 0.25698 0.0
H77 H 0.05265 0.27555 0.36826 0.0
C78 C 0.11215 0.25066 0.23796 0.0
C79 C 0.06125 0.23056 0.30568 0.0
C80 C 0.02782 0.20137 0.32724 0.0
C81 C 0.12102 0.28811 0.26485 0.0
C82 C 0.09839 0.29753 0.31154 0.0
C83 C 0.07002 0.26802 0.33243 0.0
C84 C 0.09758 0.34031 0.33424 0.0
C85 C 0.15181 0.31895 0.24132 0.0
C86 C 0.13161 0.35517 0.36532 0.0
C87 C 0.12747 0.39424 0.39071 0.0
C88 C 0.08907 0.41849 0.38554 0.0
C89 C 0.05619 0.40423 0.35218 0.0
C90 C 0.06043 0.36558 0.32685 0.0
H91 H 0.1676 0.30651 0.20523 0.0
H92 H 0.13396 0.34854 0.23169 0.0
H93 H 0.17734 0.32676 0.27021 0.0
H94 H 0.16051 0.33594 0.37146 0.0
H95 H 0.15313 0.4043 0.41656 0.0
H96 H 0.91648 0.94579 0.11784 0.0
H97 H 0.85425 0.92353 0.1694 0.0
H98 H 0.79493 0.04644 0.15217 0.0
H99 H 0.85657 0.06885 0.10018 0.0
H100 H 0.82567 0.95747 0.26313 0.0
H101 H 0.69553 0.96967 0.11486 0.0
H102 H 0.75235 0.96877 0.09768 0.0
H103 H 0.72617 0.01685 0.11917 0.0
C104 C 0.88994 0.96797 0.1244 0.0
C105 C 0.89156 1.00917 0.10473 0.0
C106 C 0.85442 0.95515 0.15397 0.0
C107 C 0.81961 0.98309 0.16396 0.0
C108 C 0.82094 0.02403 0.14395 0.0
H109 H 0.61116 0.03698 0.35948 0.0
H110 H 0.66809 0.02852 0.29445 0.0
C111 C 0.85642 0.0369 0.11452 0.0
C112 C 0.78315 0.97075 0.19819 0.0
H113 H 0.67259 0.97187 0.20518 0.0
C114 C 0.79219 0.95964 0.25024 0.0
C115 C 0.73952 0.97325 0.18117 0.0
C116 C 0.7278 0.98235 0.125 0.0
C117 C 0.75866 0.95408 0.28667 0.0
C118 C 0.71508 0.95933 0.27036 0.0
C119 C 0.70606 0.96794 0.21762 0.0
C120 C 0.67897 0.96228 0.30857 0.0
C121 C 0.77004 0.94534 0.34304 0.0
C122 C 0.66565 0.92753 0.33777 0.0
C123 C 0.63265 0.93222 0.37537 0.0
C124 C 0.61286 0.97179 0.38436 0.0
C125 C 0.62587 1.00609 0.35405 0.0
C126 C 0.65836 1.00134 0.31658 0.0
H127 H 0.80554 0.94622 0.35027 0.0
H128 H 0.75361 0.9687 0.36907 0.0
H129 H 0.75846 0.91379 0.35389 0.0
H130 H 0.68094 0.89699 0.33176 0.0
H131 H 0.62329 0.90521 0.39801 0.0
H132 H 0.9651 0.87121 0.09584 0.0
H133 H 0.9428 0.81343 0.15165 0.0
H134 H 0.03917 0.84794 0.26573 0.0
H135 H 0.06042 0.907 0.21034 0.0
H136 H 0.99726 0.75023 0.17053 0.0
H137 H 0.93981 0.81554 0.35977 0.0
H138 H 0.94455 0.84731 0.30176 0.0
H139 H 0.99158 0.83539 0.34112 0.0
C140 C 0.98046 0.86721 0.1337 0.0
C141 C 1.01433 0.89329 0.14912 0.0
C142 C 0.96778 0.83422 0.16547 0.0
C143 C 0.98918 0.82632 0.21296 0.0
C144 C 1.02153 0.8539 0.22981 0.0
H145 H 0.05923 0.5951 0.35219 0.0
H146 H 0.04996 0.65909 0.30134 0.0
C147 C 0.0338 0.8875 0.19819 0.0
C148 C 0.98219 0.786 0.24029 0.0
H149 H 0.96196 0.74244 0.35943 0.0
C150 C 0.98881 0.74864 0.21165 0.0
C151 C 0.97077 0.78377 0.29377 0.0
C152 C 0.96082 0.82266 0.32578 0.0
C153 C 0.9862 0.70927 0.23548 0.0
C154 C 0.97754 0.70711 0.28962 0.0
C155 C 0.96889 0.74425 0.31791 0.0
C156 C 0.98154 0.66692 0.31823 0.0
C157 C 0.99357 0.67028 0.20263 0.0
C158 C 0.94602 0.65002 0.34459 0.0
C159 C 0.95117 0.61307 0.37373 0.0
C160 C 0.9921 0.59299 0.37746 0.0
C161 C 0.02725 0.60969 0.35004 0.0
C162 C 1.02202 0.64626 0.32084 0.0
H163 H 0.98679 0.67636 0.16062 0.0
H164 H 0.028 0.65986 0.20615 0.0
H165 H 0.97284 0.64431 0.216 0.0
H166 H 0.91454 0.66568 0.34313 0.0
H167 H 0.92361 0.60118 0.39486 0.0
H168 H 0.19156 0.95216 0.10841 0.0
H169 H 0.2528 0.97567 0.16077 0.0
H170 H 0.19761 0.10109 0.1657 0.0
H171 H 0.13574 0.07779 0.11393 0.0
H172 H 0.31316 0.03858 0.14115 0.0
H173 H 0.21654 0.07401 0.32063 0.0
H174 H 0.19515 0.04394 0.26681 0.0
H175 H 0.19926 0.09992 0.26167 0.0
C176 C 0.19237 0.98477 0.12049 0.0
C177 C 0.1585 0.01296 0.10717 0.0
C178 C 0.22748 0.99819 0.15036 0.0
C179 C 0.22949 0.03998 0.16774 0.0
C180 C 0.19635 0.06852 0.1535 0.0
H181 H 0.42824 0.12423 0.39429 0.0
H182 H 0.37049 0.12992 0.32781 0.0
C183 C 0.16114 0.05514 0.1236 0.0
C184 C 0.26622 0.05301 0.20127 0.0
H185 H 0.29203 0.08153 0.32637 0.0
C186 C 0.3085 0.04851 0.18145 0.0
C187 C 0.26009 0.06642 0.2537 0.0
C188 C 0.2154 0.07117 0.27732 0.0
C189 C 0.34483 0.0553 0.21324 0.0
C190 C 0.33875 0.06626 0.26644 0.0
C191 C 0.29654 0.07317 0.28553 0.0
C192 C 0.37522 0.06462 0.30429 0.0
C193 C 0.3895 0.04951 0.18996 0.0
C194 C 0.39665 0.02613 0.31316 0.0
C195 C 0.42907 0.02276 0.35093 0.0
C196 C 0.44094 0.05784 0.38096 0.0
C197 C 0.41997 0.09672 0.37159 0.0
C198 C 0.38699 0.09999 0.33378 0.0
H199 H 0.38909 0.05474 0.14702 0.0
H200 H 0.41289 0.07126 0.2082 0.0
H201 H 0.40117 0.01682 0.19692 0.0
H202 H 0.38756 0.99827 0.29161 0.0
H203 H 0.44453 0.99232 0.35695 0.0
H204 H 1.00673 0.92729 0.80126 0.0
H205 H 1.00521 0.87319 0.73173 0.0
H206 H 0.07878 0.78844 0.83016 0.0
H207 H 0.08048 0.84102 0.89867 0.0
H208 H 0.08023 0.82313 0.68252 0.0
H209 H 0.96392 0.72669 0.79249 0.0
H210 H 0.97068 0.78203 0.80522 0.0
H211 H 1.00882 0.74409 0.83118 0.0
C212 C 1.02265 0.89716 0.8078 0.0
C213 C 0.04292 0.8883 0.85597 0.0
C214 C 1.02182 0.8664 0.76815 0.0
C215 C 0.04132 0.82669 0.77638 0.0
C216 C 0.06289 0.8186 0.82346 0.0
H217 H 0.12737 0.61304 0.59174 0.0
H218 H 0.1215 0.67826 0.64309 0.0
C219 C 0.0636 0.84885 0.86273 0.0
C220 C 0.0387 0.79238 0.73737 0.0
H221 H 1.00501 0.69145 0.72576 0.0
C222 C 0.06318 0.79455 0.69127 0.0
C223 C 1.01629 0.75527 0.74894 0.0
C224 C 0.9881 0.75187 0.79692 0.0
C225 C 0.06723 0.75973 0.65738 0.0
C226 C 0.04698 0.72171 0.67075 0.0
C227 C 1.02105 0.72035 0.7158 0.0
C228 C 0.05142 0.68293 0.63854 0.0
C229 C 0.0931 0.76401 0.60772 0.0
C230 C 1.01405 0.66316 0.62048 0.0
C231 C 1.01726 0.62568 0.59228 0.0
C232 C 0.058 0.60698 0.58121 0.0
C233 C 0.09554 0.62662 0.59957 0.0
C234 C 0.09224 0.66417 0.62833 0.0
H235 H 0.09554 0.7974 0.59585 0.0
H236 H 0.12648 0.75147 0.61425 0.0
H237 H 0.07838 0.74605 0.57511 0.0
H238 H 0.98221 0.67683 0.62812 0.0
H239 H 0.98758 0.61167 0.57862 0.0
H240 H 0.13045 0.05274 0.85792 0.0
H241 H 0.19083 0.05723 0.79564 0.0
H242 H 0.26289 0.96395 0.88343 0.0
H243 H 0.2033 0.95961 0.94575 0.0
H244 H 0.31414 0.02963 0.84662 0.0
H245 H 0.21269 0.96008 0.68981 0.0
H246 H 0.19089 1.00706 0.71989 0.0
H247 H 0.19694 0.95998 0.75781 0.0
C248 C 0.15962 0.03402 0.86462 0.0
C249 C 0.16198 1.00554 0.90644 0.0
C250 C 0.19385 0.03624 0.82872 0.0
C251 C 0.23089 1.01019 0.83433 0.0
C252 C 0.23447 0.98403 0.8781 0.0
H253 H 0.42078 0.92675 0.60075 0.0
H254 H 0.36405 0.93026 0.66829 0.0
C255 C 0.20035 0.98161 0.91368 0.0
C256 C 0.26506 1.0081 0.79353 0.0
H257 H 0.28417 0.97801 0.66695 0.0
C258 C 0.30758 0.01855 0.80726 0.0
C259 C 0.25657 0.99267 0.74258 0.0
C260 C 0.21193 0.97892 0.72651 0.0
C261 C 0.34176 0.01455 0.77117 0.0
C262 C 0.33307 1.00013 0.71984 0.0
C263 C 0.29067 0.98917 0.70628 0.0
C264 C 0.36737 0.99754 0.67924 0.0
C265 C 0.38705 0.02512 0.78854 0.0
C266 C 0.3875 0.03419 0.66267 0.0
C267 C 0.41964 0.03231 0.62433 0.0
C268 C 0.43235 0.99369 0.60139 0.0
C269 C 0.41188 0.95692 0.61772 0.0
C270 C 0.37947 0.95889 0.6562 0.0
H271 H 0.39016 0.0249 0.83185 0.0
H272 H 0.4113 1.00263 0.77175 0.0
H273 H 0.39487 0.05705 0.77467 0.0
H274 H 0.37811 0.06441 0.67918 0.0
H275 H 0.43447 0.06135 0.61268 0.0
H276 H 0.95717 0.16774 0.88649 0.0
H277 H 0.95961 0.22159 0.81978 0.0
H278 H 0.06376 0.15397 0.74196 0.0
H279 H 0.0612 0.09878 0.80944 0.0
H280 H 0.03562 0.26846 0.80298 0.0
H281 H 0.97626 0.18939 0.62249 0.0
H282 H 0.96509 0.1696 0.68713 0.0
H283 H 1.01832 0.16324 0.65976 0.0
C284 C 0.98052 0.16398 0.85507 0.0
C285 C 1.00953 0.12936 0.85363 0.0
C286 C 0.98169 0.19477 0.81683 0.0
C287 C 1.01188 0.19187 0.7761 0.0
C288 C 0.03993 0.15654 0.77296 0.0
H289 H 0.07955 0.41348 0.59927 0.0
H290 H 0.08094 0.35007 0.65206 0.0
C291 C 0.03854 0.12517 0.81144 0.0
C292 C 1.01545 0.22799 0.7402 0.0
H293 H 0.99326 0.26114 0.61599 0.0
C294 C 1.02676 0.26681 0.76195 0.0
C295 C 1.00326 0.22573 0.687 0.0
C296 C 0.98976 0.18489 0.66242 0.0
C297 C 1.02548 0.30366 0.73223 0.0
C298 C 1.01334 0.30151 0.67896 0.0
C299 C 1.00252 0.26261 0.65688 0.0
C300 C 1.01209 0.33951 0.64575 0.0
C301 C 0.03585 0.34479 0.75859 0.0
C302 C 0.97287 0.35438 0.62409 0.0
C303 C 0.97186 0.39086 0.59361 0.0
C304 C 1.01017 0.41283 0.58416 0.0
C305 C 0.04932 0.39764 0.60604 0.0
C306 C 0.05026 0.36132 0.63628 0.0
H307 H 0.03375 0.3426 0.80188 0.0
H308 H 0.06942 0.35359 0.74838 0.0
H309 H 1.01347 0.3703 0.74522 0.0
H310 H 0.94304 0.33789 0.63101 0.0
H311 H 0.94129 0.40148 0.57696 0.0
H312 H 0.84551 0.04196 0.95606 0.0
H313 H 0.78454 0.04015 0.89493 0.0
H314 H 0.86845 0.98464 0.77731 0.0
H315 H 0.92886 0.98438 0.83955 0.0
H316 H 0.77851 0.08361 0.81037 0.0
H317 H 0.76402 0.91664 0.75367 0.0
H318 H 0.79662 0.93292 0.80843 0.0
H319 H 0.8177 0.9353 0.7428 0.0
C320 C 0.85041 0.02795 0.91774 0.0
C321 C 0.89162 0.01286 0.9026 0.0
C322 C 0.8157 0.02725 0.88266 0.0
C323 C 0.82166 0.01217 0.83137 0.0
C324 C 0.86255 0.99547 0.81691 0.0
H325 H 0.65313 0.0959 0.57295 0.0
H326 H 0.71161 0.08987 0.63793 0.0
C327 C 0.89712 0.99529 0.85251 0.0
C328 C 0.78629 0.01772 0.79213 0.0
H329 H 0.72756 0.9667 0.6991 0.0
C330 C 0.76711 0.05789 0.78639 0.0
C331 C 0.77118 0.98427 0.76085 0.0
C332 C 0.78815 0.93981 0.76709 0.0
C333 C 0.73329 0.06552 0.75063 0.0
C334 C 0.71922 0.03241 0.71806 0.0
C335 C 0.7385 0.99226 0.72367 0.0
C336 C 0.68333 0.03792 0.6795 0.0
C337 C 0.71222 0.10869 0.74943 0.0
C338 C 0.64832 1.01046 0.68049 0.0
C339 C 0.61568 0.01325 0.64281 0.0
C340 C 0.61688 0.04396 0.60358 0.0
C341 C 0.65114 0.07234 0.60323 0.0
C342 C 0.68446 0.06896 0.64048 0.0
H343 H 0.71742 0.126 0.78668 0.0
H344 H 0.72686 0.12716 0.71752 0.0
H345 H 0.67679 0.10692 0.74228 0.0
H346 H 0.64647 0.98638 0.71017 0.0
H347 H 0.58956 0.99101 0.64414 0.0
loop_
_geom_bond_atom_site_label_1
_geom_bond_atom_site_label_2
_geom_bond_distance
_geom_bond_site_symmetry_2
_ccdc_geom_bond_type
Fe0 O1 1.906 . S
Fe0 O4 1.695 1_645 S
Fe0 O9 2.099 1_655 S
Fe0 O14 1.924 1_655 S
Fe0 O20 2.092 1_545 S
Fe0 O29 1.916 1_545 S
O1 Fe0 1.906 . S
O1 Fe3 1.715 1_554 S
Fe2 O4 1.886 . S
Fe2 O5 1.715 1_554 S
Fe2 O12 1.935 1_554 S
Fe2 O13 2.077 . S
Fe2 O19 1.935 1_554 S
Fe2 O28 2.077 . S
Fe3 O1 1.715 1_556 S
Fe3 O6 1.886 . S
Fe3 O10 1.935 1_556 S
Fe3 O15 2.077 . S
Fe3 O21 1.935 1_556 S
Fe3 O25 2.077 . S
O4 Fe0 1.695 1_465 S
O4 Fe2 1.886 . S
O5 Fe2 1.715 1_556 S
O5 Fe7 1.906 . S
O6 Fe3 1.886 . S
O6 Fe7 1.695 1_645 S
Fe7 O5 1.906 . S
Fe7 O6 1.695 1_465 S
Fe7 O11 2.099 1_565 S
Fe7 O16 1.924 1_565 S
Fe7 O18 2.092 1_455 S
Fe7 O26 1.916 1_455 S
C8 O20 1.381 1_545 S
C8 O21 1.421 . S
O9 Fe0 2.099 1_455 S
O9 C22 1.381 1_455 S
O10 Fe3 1.935 1_554 S
O10 C22 1.421 . S
O11 Fe7 2.099 1_545 S
O11 C27 1.381 1_545 S
O12 Fe2 1.935 1_556 S
O12 C27 1.421 . S
O13 Fe2 2.077 . S
O13 C17 1.381 . S
O14 Fe0 1.924 1_455 S
O14 C17 1.421 1_545 S
O15 Fe3 2.077 . S
O15 C23 1.381 . S
O16 Fe7 1.924 1_545 S
O16 C23 1.421 1_455 S
C17 O13 1.381 . S
C17 O14 1.421 1_565 S
O18 Fe7 2.092 1_655 S
O18 C30 1.381 1_655 S
O19 Fe2 1.935 1_556 S
O19 C30 1.421 . S
O20 Fe0 2.092 1_565 S
O20 C8 1.381 1_565 S
O21 Fe3 1.935 1_554 S
O21 C8 1.421 . S
C22 O9 1.381 1_655 S
C22 O10 1.421 . S
C23 O15 1.381 . S
C23 O16 1.421 1_655 S
C24 O25 1.381 . S
C24 O26 1.421 1_545 S
O25 Fe3 2.077 . S
O25 C24 1.381 . S
O26 Fe7 1.916 1_655 S
O26 C24 1.421 1_565 S
C27 O11 1.381 1_565 S
C27 O12 1.421 . S
O28 Fe2 2.077 . S
O28 C31 1.381 . S
O29 Fe0 1.916 1_565 S
O29 C31 1.421 1_655 S
C30 O18 1.381 1_455 S
C30 O19 1.421 . S
C31 O28 1.381 . S
C31 O29 1.421 1_455 S
C32 O34 1.251 . S
C32 O36 1.254 1_455 S
C33 O40 1.245 . S
C33 O41 1.260 1_655 S
O34 C32 1.251 . S
O34 Zn35 2.028 . S
Zn35 O34 2.028 . S
Zn35 O39 2.035 . S
Zn35 O41 2.035 . S
Zn35 O42 2.028 . S
O36 C32 1.254 1_655 S
O36 Zn37 2.035 . S
Zn37 O36 2.035 . S
Zn37 O38 2.028 . S
Zn37 O40 2.028 . S
Zn37 O43 2.035 . S
O38 Zn37 2.028 . S
O38 C44 1.245 . S
O39 Zn35 2.035 . S
O39 C44 1.260 1_455 S
O40 C33 1.245 . S
O40 Zn37 2.028 . S
O41 C33 1.260 1_455 S
O41 Zn35 2.035 . S
O42 Zn35 2.028 . S
O42 C45 1.251 . S
O43 Zn37 2.035 . S
O43 C45 1.254 1_655 S
C44 O38 1.245 . S
C44 O39 1.260 1_655 S
C45 O42 1.251 . S
C45 O43 1.254 1_455 S
C46 O48 1.245 . S
C46 O50 1.260 1_565 S
C47 O54 1.251 . S
C47 O55 1.254 1_545 S
O48 C46 1.245 . S
O48 Zn49 2.028 . S
Zn49 O48 2.028 . S
Zn49 O53 2.035 . S
Zn49 O55 2.035 . S
Zn49 O56 2.028 . S
O50 C46 1.260 1_545 S
O50 Zn51 2.035 . S
Zn51 O50 2.035 . S
Zn51 O52 2.028 . S
Zn51 O54 2.028 . S
Zn51 O57 2.035 . S
O52 Zn51 2.028 . S
O52 C58 1.251 . S
O53 Zn49 2.035 . S
O53 C58 1.254 1_565 S
O54 C47 1.251 . S
O54 Zn51 2.028 . S
O55 C47 1.254 1_565 S
O55 Zn49 2.035 . S
O56 Zn49 2.028 . S
O56 C59 1.245 . S
O57 Zn51 2.035 . S
O57 C59 1.260 1_545 S
C58 O52 1.251 . S
C58 O53 1.254 1_545 S
C59 O56 1.245 . S
C59 O57 1.260 1_565 S
H60 C68 0.929 . S
H61 C70 0.930 . S
H62 C72 0.930 . S
H63 C75 0.929 . S
H64 C78 0.930 . S
H65 C80 0.960 . S
H66 C80 0.960 . S
H67 C80 0.960 . S
C68 H60 0.929 . S
C68 C69 1.378 1_455 S
C68 C70 1.384 . S
C69 C68 1.378 1_655 S
C69 C75 1.389 . S
C70 H61 0.930 . S
C70 C68 1.384 . S
C70 C71 1.372 . S
C71 C70 1.372 . S
C71 C72 1.400 1_455 S
C71 C76 1.490 . S
C72 H62 0.930 . S
C72 C71 1.400 1_655 S
C72 C75 1.386 . S
H73 C89 0.930 . S
H74 C90 0.931 . S
C75 H63 0.929 . S
C75 C69 1.389 . S
C75 C72 1.386 . S
C76 C71 1.490 . S
C76 C78 1.395 . S
C76 C79 1.403 1_455 S
H77 C83 0.930 . S
C78 H64 0.930 . S
C78 C76 1.395 . S
C78 C81 1.403 . S
C79 C76 1.403 1_655 S
C79 C80 1.524 . S
C79 C83 1.400 . S
C80 H65 0.960 . S
C80 H66 0.960 . S
C80 H67 0.960 . S
C80 C79 1.524 . S
C81 C78 1.403 . S
C81 C82 1.392 . S
C81 C85 1.495 . S
C82 C81 1.392 . S
C82 C83 1.385 1_455 S
C82 C84 1.478 . S
C83 H77 0.930 . S
C83 C79 1.400 . S
C83 C82 1.385 1_655 S
C84 C82 1.478 . S
C84 C86 1.381 . S
C84 C90 1.383 1_455 S
C85 C81 1.495 . S
C85 H91 0.959 . S
C85 H92 0.961 . S
C85 H93 0.960 . S
C86 C84 1.381 . S
C86 C87 1.394 . S
C86 H94 0.930 . S
C87 C86 1.394 . S
C87 C88 1.383 . S
C87 H95 0.929 . S
C88 C87 1.383 . S
C88 C89 1.377 1_455 S
C89 H73 0.930 . S
C89 C88 1.377 1_655 S
C89 C90 1.379 . S
C90 H74 0.931 . S
C90 C84 1.383 1_655 S
C90 C89 1.379 . S
H91 C85 0.959 . S
H92 C85 0.961 . S
H93 C85 0.960 . S
H94 C86 0.930 . S
H95 C87 0.929 . S
H96 C104 0.929 . S
H97 C106 0.930 . S
H98 C108 0.930 . S
H99 C111 0.929 . S
H100 C114 0.930 . S
H101 C116 0.960 . S
H102 C116 0.960 1_565 S
H103 C116 0.960 . S
C104 H96 0.929 . S
C104 C105 1.388 . S
C104 C106 1.384 . S
C105 C104 1.388 . S
C105 C111 1.379 1_565 S
C106 H97 0.930 . S
C106 C104 1.384 . S
C106 C107 1.372 . S
C107 C106 1.372 . S
C107 C108 1.400 1_565 S
C107 C112 1.490 . S
C108 H98 0.930 . S
C108 C107 1.400 1_545 S
C108 C111 1.386 . S
H109 C125 0.930 . S
H110 C126 0.931 . S
C111 H99 0.929 . S
C111 C105 1.379 1_545 S
C111 C108 1.386 . S
C112 C107 1.490 . S
C112 C114 1.395 . S
C112 C115 1.403 1_565 S
H113 C119 0.930 . S
C114 H100 0.930 . S
C114 C112 1.395 . S
C114 C117 1.403 . S
C115 C112 1.403 1_545 S
C115 C116 1.524 . S
C115 C119 1.400 . S
C116 H101 0.960 . S
C116 H102 0.960 1_545 S
C116 H103 0.960 . S
C116 C115 1.524 . S
C117 C114 1.403 . S
C117 C118 1.392 . S
C117 C121 1.495 . S
C118 C117 1.392 . S
C118 C119 1.385 1_565 S
C118 C120 1.478 . S
C119 H113 0.930 . S
C119 C115 1.400 . S
C119 C118 1.385 1_545 S
C120 C118 1.478 . S
C120 C122 1.381 . S
C120 C126 1.383 1_565 S
C121 C117 1.495 . S
C121 H127 0.959 . S
C121 H128 0.975 . S
C121 H129 0.960 . S
C122 C120 1.381 . S
C122 C123 1.394 . S
C122 H130 0.930 . S
C123 C122 1.394 . S
C123 C124 1.393 . S
C123 H131 0.929 . S
C124 C123 1.393 . S
C124 C125 1.368 1_565 S
C125 H109 0.930 . S
C125 C124 1.368 1_545 S
C125 C126 1.379 . S
C126 H110 0.931 . S
C126 C120 1.383 1_545 S
C126 C125 1.379 . S
H127 C121 0.959 . S
H128 C121 0.975 . S
H129 C121 0.960 . S
H130 C122 0.930 . S
H131 C123 0.929 . S
H132 C140 0.929 . S
H133 C142 0.930 . S
H134 C144 0.930 . S
H135 C147 0.929 . S
H136 C150 0.930 . S
H137 C152 0.960 . S
H138 C152 0.960 . S
H139 C152 0.960 . S
C140 H132 0.929 . S
C140 C141 1.381 . S
C140 C142 1.384 . S
C141 C140 1.381 . S
C141 C147 1.386 1_655 S
C142 H133 0.930 . S
C142 C140 1.384 . S
C142 C143 1.378 . S
C143 C142 1.378 . S
C143 C144 1.394 1_655 S
C143 C148 1.489 1_655 S
C144 H134 0.930 . S
C144 C143 1.394 1_455 S
C144 C147 1.386 . S
H145 C161 0.930 . S
H146 C162 0.931 . S
C147 H135 0.929 . S
C147 C141 1.386 1_455 S
C147 C144 1.386 . S
C148 C143 1.489 1_455 S
C148 C150 1.395 . S
C148 C151 1.402 1_455 S
H149 C155 0.930 . S
C150 H136 0.930 . S
C150 C148 1.395 . S
C150 C153 1.403 . S
C151 C148 1.402 1_655 S
C151 C152 1.524 . S
C151 C155 1.400 . S
C152 H137 0.960 . S
C152 H138 0.960 . S
C152 H139 0.960 . S
C152 C151 1.524 . S
C153 C150 1.403 . S
C153 C154 1.392 . S
C153 C157 1.495 . S
C154 C153 1.392 . S
C154 C155 1.385 1_455 S
C154 C156 1.478 . S
C155 H149 0.930 . S
C155 C151 1.400 . S
C155 C154 1.385 1_655 S
C156 C154 1.478 . S
C156 C158 1.381 1_455 S
C156 C162 1.383 . S
C157 C153 1.495 . S
C157 H163 0.959 . S
C157 H164 0.961 . S
C157 H165 0.960 . S
C158 C156 1.381 1_655 S
C158 C159 1.394 . S
C158 H166 0.930 . S
C159 C158 1.394 . S
C159 C160 1.383 1_655 S
C159 H167 0.929 . S
C160 C159 1.383 1_455 S
C160 C161 1.377 . S
C161 H145 0.930 . S
C161 C160 1.377 . S
C161 C162 1.379 . S
C162 H146 0.931 . S
C162 C156 1.383 . S
C162 C161 1.379 . S
H163 C157 0.959 . S
H164 C157 0.961 . S
H165 C157 0.960 . S
H166 C158 0.930 . S
H167 C159 0.929 . S
H168 C176 0.929 . S
H169 C178 0.930 . S
H170 C180 0.930 . S
H171 C183 0.929 . S
H172 C186 0.930 . S
H173 C188 0.960 . S
H174 C188 0.960 1_565 S
H175 C188 0.960 . S
C176 H168 0.929 . S
C176 C177 1.384 . S
C176 C178 1.384 . S
C177 C176 1.384 . S
C177 C183 1.384 1_565 S
C178 H169 0.930 . S
C178 C176 1.384 . S
C178 C179 1.372 . S
C179 C178 1.372 . S
C179 C180 1.400 1_565 S
C179 C184 1.490 . S
C180 H170 0.930 . S
C180 C179 1.400 1_545 S
C180 C183 1.386 . S
H181 C197 0.930 . S
H182 C198 0.931 . S
C183 H171 0.929 . S
C183 C177 1.384 1_545 S
C183 C180 1.386 . S
C184 C179 1.490 . S
C184 C186 1.395 . S
C184 C187 1.403 1_565 S
H185 C191 0.930 . S
C186 H172 0.930 . S
C186 C184 1.395 . S
C186 C189 1.403 . S
C187 C184 1.403 1_545 S
C187 C188 1.524 . S
C187 C191 1.400 . S
C188 H173 0.960 . S
C188 H174 0.960 1_545 S
C188 H175 0.960 . S
C188 C187 1.524 . S
C189 C186 1.403 . S
C189 C190 1.392 . S
C189 C193 1.495 . S
C190 C189 1.392 . S
C190 C191 1.385 1_565 S
C190 C192 1.478 . S
C191 H185 0.930 . S
C191 C187 1.400 . S
C191 C190 1.385 1_545 S
C192 C190 1.478 . S
C192 C194 1.381 . S
C192 C198 1.383 1_565 S
C193 C189 1.495 . S
C193 H199 0.959 . S
C193 H200 0.961 . S
C193 H201 0.960 . S
C194 C192 1.381 . S
C194 C195 1.394 . S
C194 H202 0.930 . S
C195 C194 1.394 . S
C195 C196 1.393 . S
C195 H203 0.929 . S
C196 C195 1.393 . S
C196 C197 1.367 1_565 S
C197 H181 0.930 . S
C197 C196 1.367 1_545 S
C197 C198 1.379 . S
C198 H182 0.931 . S
C198 C192 1.383 1_545 S
C198 C197 1.379 . S
H199 C193 0.959 . S
H200 C193 0.961 . S
H201 C193 0.960 . S
H202 C194 0.930 . S
H203 C195 0.929 . S
H204 C212 0.929 . S
H205 C214 0.930 . S
H206 C216 0.930 . S
H207 C219 0.929 . S
H208 C222 0.930 . S
H209 C224 0.960 . S
H210 C224 0.960 . S
H211 C224 0.960 . S
C212 H204 0.929 . S
C212 C213 1.385 . S
C212 C214 1.384 . S
C213 C212 1.385 . S
C213 C219 1.382 1_655 S
C214 H205 0.930 . S
C214 C212 1.384 . S
C214 C215 1.372 . S
C215 C214 1.372 . S
C215 C216 1.400 1_655 S
C215 C220 1.491 . S
C216 H206 0.930 . S
C216 C215 1.400 1_455 S
C216 C219 1.386 . S
H217 C233 0.930 . S
H218 C234 0.931 . S
C219 H207 0.929 . S
C219 C213 1.382 1_455 S
C219 C216 1.386 . S
C220 C215 1.491 . S
C220 C222 1.385 1_655 S
C220 C223 1.411 . S
H221 C227 0.930 . S
C222 H208 0.930 . S
C222 C220 1.385 1_455 S
C222 C225 1.403 . S
C223 C220 1.411 . S
C223 C224 1.524 . S
C223 C227 1.400 . S
C224 H209 0.960 . S
C224 H210 0.960 . S
C224 H211 0.960 . S
C224 C223 1.524 . S
C225 C222 1.403 . S
C225 C226 1.392 . S
C225 C229 1.495 . S
C226 C225 1.392 . S
C226 C227 1.385 1_455 S
C226 C228 1.478 . S
C227 H221 0.930 . S
C227 C223 1.400 . S
C227 C226 1.385 1_655 S
C228 C226 1.478 . S
C228 C230 1.381 1_455 S
C228 C234 1.383 . S
C229 C225 1.495 . S
C229 H235 0.959 . S
C229 H236 0.961 . S
C229 H237 0.960 . S
C230 C228 1.381 1_655 S
C230 C231 1.394 . S
C230 H238 0.930 . S
C231 C230 1.394 . S
C231 C232 1.383 1_655 S
C231 H239 0.929 . S
C232 C231 1.383 1_455 S
C232 C233 1.377 . S
C233 H217 0.930 . S
C233 C232 1.377 . S
C233 C234 1.379 . S
C234 H218 0.931 . S
C234 C228 1.383 . S
C234 C233 1.379 . S
H235 C229 0.959 . S
H236 C229 0.961 . S
H237 C229 0.960 . S
H238 C230 0.930 . S
H239 C231 0.929 . S
H240 C248 0.929 . S
H241 C250 0.930 . S
H242 C252 0.930 . S
H243 C255 0.929 . S
H244 C258 0.930 . S
H245 C260 0.960 . S
H246 C260 0.960 1_545 S
H247 C260 0.960 . S
C248 H240 0.929 . S
C248 C249 1.394 . S
C248 C250 1.384 . S
C249 C248 1.394 . S
C249 C255 1.373 1_545 S
C250 H241 0.930 . S
C250 C248 1.384 . S
C250 C251 1.372 . S
C251 C250 1.372 . S
C251 C252 1.400 1_545 S
C251 C256 1.490 . S
C252 H242 0.930 . S
C252 C251 1.400 1_565 S
C252 C255 1.386 . S
H253 C269 0.930 . S
H254 C270 0.931 . S
C255 H243 0.929 . S
C255 C249 1.373 1_565 S
C255 C252 1.386 . S
C256 C251 1.490 . S
C256 C258 1.395 . S
C256 C259 1.403 1_545 S
H257 C263 0.930 . S
C258 H244 0.930 . S
C258 C256 1.395 . S
C258 C261 1.403 . S
C259 C256 1.403 1_565 S
C259 C260 1.524 . S
C259 C263 1.400 . S
C260 H245 0.960 . S
C260 H246 0.960 1_565 S
C260 H247 0.960 . S
C260 C259 1.524 . S
C261 C258 1.403 . S
C261 C262 1.392 . S
C261 C265 1.495 . S
C262 C261 1.392 . S
C262 C263 1.385 1_545 S
C262 C264 1.478 . S
C263 H257 0.930 . S
C263 C259 1.400 . S
C263 C262 1.385 1_565 S
C264 C262 1.478 . S
C264 C266 1.381 . S
C264 C270 1.383 1_545 S
C265 C261 1.495 . S
C265 H271 0.959 . S
C265 H272 0.961 1_545 S
C265 H273 0.960 . S
C266 C264 1.381 . S
C266 C267 1.394 . S
C266 H274 0.930 . S
C267 C266 1.394 . S
C267 C268 1.388 . S
C267 H275 0.929 . S
C268 C267 1.388 . S
C268 C269 1.372 1_545 S
C269 H253 0.930 . S
C269 C268 1.372 1_565 S
C269 C270 1.379 . S
C270 H254 0.931 . S
C270 C264 1.383 1_565 S
C270 C269 1.379 . S
H271 C265 0.959 . S
H272 C265 0.961 1_565 S
H273 C265 0.960 . S
H274 C266 0.930 . S
H275 C267 0.929 . S
H276 C284 0.929 . S
H277 C286 0.930 . S
H278 C288 0.930 . S
H279 C291 0.929 . S
H280 C294 0.930 . S
H281 C296 0.960 . S
H282 C296 0.960 . S
H283 C296 0.960 . S
C284 H276 0.929 . S
C284 C285 1.383 . S
C284 C286 1.384 . S
C285 C284 1.383 . S
C285 C291 1.384 1_655 S
C286 H277 0.930 . S
C286 C284 1.384 . S
C286 C287 1.372 . S
C287 C286 1.372 . S
C287 C288 1.400 1_655 S
C287 C292 1.490 . S
C288 H278 0.930 . S
C288 C287 1.400 1_455 S
C288 C291 1.386 . S
H289 C305 0.930 . S
H290 C306 0.931 . S
C291 H279 0.929 . S
C291 C285 1.384 1_455 S
C291 C288 1.386 . S
C292 C287 1.490 . S
C292 C294 1.386 1_655 S
C292 C295 1.411 . S
H293 C299 0.930 . S
C294 H280 0.930 . S
C294 C292 1.386 1_455 S
C294 C297 1.403 . S
C295 C292 1.411 . S
C295 C296 1.524 . S
C295 C299 1.400 . S
C296 H281 0.960 . S
C296 H282 0.960 . S
C296 H283 0.960 . S
C296 C295 1.524 . S
C297 C294 1.403 . S
C297 C298 1.392 . S
C297 C301 1.495 . S
C298 C297 1.392 . S
C298 C299 1.385 1_455 S
C298 C300 1.478 . S
C299 H293 0.930 . S
C299 C295 1.400 . S
C299 C298 1.385 1_655 S
C300 C298 1.478 . S
C300 C302 1.381 1_455 S
C300 C306 1.383 . S
C301 C297 1.495 . S
C301 H307 0.959 . S
C301 H308 0.961 . S
C301 H309 0.960 . S
C302 C300 1.381 1_655 S
C302 C303 1.394 . S
C302 H310 0.930 . S
C303 C302 1.394 . S
C303 C304 1.383 1_655 S
C303 H311 0.929 . S
C304 C303 1.383 1_455 S
C304 C305 1.377 . S
C305 H289 0.930 . S
C305 C304 1.377 . S
C305 C306 1.379 . S
C306 H290 0.931 . S
C306 C300 1.383 . S
C306 C305 1.379 . S
H307 C301 0.959 . S
H308 C301 0.961 . S
H309 C301 0.960 . S
H310 C302 0.930 . S
H311 C303 0.929 . S
H312 C320 0.929 . S
H313 C322 0.930 . S
H314 C324 0.930 . S
H315 C327 0.929 . S
H316 C330 0.930 . S
H317 C332 0.960 . S
H318 C332 0.960 . S
H319 C332 0.960 . S
C320 H312 0.929 . S
C320 C321 1.381 . S
C320 C322 1.384 . S
C321 C320 1.381 . S
C321 C327 1.386 1_565 S
C322 H313 0.930 . S
C322 C320 1.384 . S
C322 C323 1.379 . S
C323 C322 1.379 . S
C323 C324 1.394 1_565 S
C323 C328 1.489 1_565 S
C324 H314 0.930 . S
C324 C323 1.394 1_545 S
C324 C327 1.386 . S
H325 C341 0.930 . S
H326 C342 0.931 . S
C327 H315 0.929 . S
C327 C321 1.386 1_545 S
C327 C324 1.386 . S
C328 C323 1.489 1_545 S
C328 C330 1.394 . S
C328 C331 1.403 1_545 S
H329 C335 0.930 . S
C330 H316 0.930 . S
C330 C328 1.394 . S
C330 C333 1.403 . S
C331 C328 1.403 1_565 S
C331 C332 1.524 . S
C331 C335 1.400 . S
C332 H317 0.960 . S
C332 H318 0.960 . S
C332 H319 0.960 . S
C332 C331 1.524 . S
C333 C330 1.403 . S
C333 C334 1.392 . S
C333 C337 1.495 . S
C334 C333 1.392 . S
C334 C335 1.385 1_545 S
C334 C336 1.478 . S
C335 H329 0.930 . S
C335 C331 1.400 . S
C335 C334 1.385 1_565 S
C336 C334 1.478 . S
C336 C338 1.381 1_545 S
C336 C342 1.383 . S
C337 C333 1.495 . S
C337 H343 0.959 . S
C337 H344 0.961 . S
C337 H345 0.960 . S
C338 C336 1.381 1_565 S
C338 C339 1.394 . S
C338 H346 0.930 . S
C339 C338 1.394 . S
C339 C340 1.383 1_565 S
C339 H347 0.929 . S
C340 C339 1.383 1_545 S
C340 C341 1.377 . S
C341 H325 0.930 . S
C341 C340 1.377 . S
C341 C342 1.379 . S
C342 H326 0.931 . S
C342 C336 1.383 . S
C342 C341 1.379 . S
H343 C337 0.959 . S
H344 C337 0.961 . S
H345 C337 0.960 . S
H346 C338 0.930 . S
H347 C339 0.929 . S
C69 C22 1.391 . S
C88 C33 1.441 1_455 S
C105 C8 1.398 1_565 S
C124 C59 1.444 . S
C141 C31 1.396 1_655 S
C160 C45 1.441 . S
C177 C17 1.389 . S
C196 C47 1.439 1_565 S
C213 C30 1.397 1_655 S
C232 C32 1.446 . S
C249 C27 1.394 1_545 S
C268 C58 1.442 . S
C304 C44 1.442 1_455 S
C285 C23 1.392 . S
C321 C24 1.396 1_565 S
C340 C46 1.445 1_545 S
