# Generated by pormake.
# Topology anh, (6,3)-cn, num edge types: 1
# Building blocks:
#     Node 0, Type 0, BuildingBlock: NUHQIS_clean_sbu_0, # of connection points: 6
#     Node 1, Type 0, BuildingBlock: NUHQIS_clean_sbu_0, # of connection points: 6
#     Node 2, Type 0, BuildingBlock: NUHQIS_clean_sbu_0, # of connection points: 6
#     Node 3, Type 1, BuildingBlock: OLANEW_clean_sbu_2, # of connection points: 3
#     Node 4, Type 1, BuildingBlock: OLANEW_clean_sbu_2, # of connection points: 3
#     Node 5, Type 1, BuildingBlock: OLANEW_clean_sbu_2, # of connection points: 3
#     Node 6, Type 1, BuildingBlock: OLANEW_clean_sbu_2, # of connection points: 3
#     Node 7, Type 1, BuildingBlock: OLANEW_clean_sbu_2, # of connection points: 3
#     Node 8, Type 1, BuildingBlock: OLANEW_clean_sbu_2, # of connection points: 3
#     Edge 9, Type (0, 1), BuildingBlock: XUDNAN_clean_linker_2, # of connection points: 2
#     Edge 10, Type (0, 1), BuildingBlock: XUDNAN_clean_linker_2, # of connection points: 2
#     Edge 11, Type (0, 1), BuildingBlock: XUDNAN_clean_linker_2, # of connection points: 2
#     Edge 12, Type (0, 1), BuildingBlock: XUDNAN_clean_linker_2, # of connection points: 2
#     Edge 13, Type (0, 1), BuildingBlock: XUDNAN_clean_linker_2, # of connection points: 2
#     Edge 14, Type (0, 1), BuildingBlock: XUDNAN_clean_linker_2, # of connection points: 2
#     Edge 15, Type (0, 1), BuildingBlock: XUDNAN_clean_linker_2, # of connection points: 2
#     Edge 16, Type (0, 1), BuildingBlock: XUDNAN_clean_linker_2, # of connection points: 2
#     Edge 17, Type (0, 1), BuildingBlock: XUDNAN_clean_linker_2, # of connection points: 2
#     Edge 18, Type (0, 1), BuildingBlock: XUDNAN_clean_linker_2, # of connection points: 2
#     Edge 19, Type (0, 1), BuildingBlock: XUDNAN_clean_linker_2, # of connection points: 2
#     Edge 20, Type (0, 1), BuildingBlock: XUDNAN_clean_linker_2, # of connection points: 2
#     Edge 21, Type (0, 1), BuildingBlock: XUDNAN_clean_linker_2, # of connection points: 2
#     Edge 22, Type (0, 1), BuildingBlock: XUDNAN_clean_linker_2, # of connection points: 2
#     Edge 23, Type (0, 1), BuildingBlock: XUDNAN_clean_linker_2, # of connection points: 2
#     Edge 24, Type (0, 1), BuildingBlock: XUDNAN_clean_linker_2, # of connection points: 2
#     Edge 25, Type (0, 1), BuildingBlock: XUDNAN_clean_linker_2, # of connection points: 2
#     Edge 26, Type (0, 1), BuildingBlock: XUDNAN_clean_linker_2, # of connection points: 2
# Relax obj value: 0.222
# Max RMSD: 0.130
# Mean RMSD: 0.112
data_MOF--net-anh--node1-NUHQIS_clean_sbu_0--node2-OLANEW_clean_sbu_2--edge1-XUDNAN_clean_linker_2
_symmetry_space_group_name_H-M    P1
_symmetry_Int_Tables_number       1
_symmetry_cell_setting            triclinic
loop_
_symmetry_equiv_pos_as_xyz
'x, y, z'
_cell_length_a     37.010514
_cell_length_b     37.098849
_cell_length_c     50.340226
_cell_angle_alpha  90.376261
_cell_angle_beta   92.679454
_cell_angle_gamma 120.02974
loop_
_atom_site_label
_atom_site_type_symbol
_atom_site_fract_x
_atom_site_fract_y
_atom_site_fract_z
_atom_type_partial_charge
Tb0 Tb 0.07665 0.50737 0.15356 0.0
Eu1 Eu 0.02438 0.55437 0.16061 0.0
C2 C 0.0608 0.52844 0.20993 0.0
C3 C 0.97978 0.45372 0.16397 0.0
C4 C 0.16214 0.48317 0.14703 0.0
C5 C 0.22168 0.48854 0.17304 0.0
C6 C 0.17963 0.47757 0.17092 0.0
C7 C 0.18722 0.49923 0.12522 0.0
C8 C 0.22913 0.5102 0.12735 0.0
C9 C 0.24682 0.50507 0.15127 0.0
C10 C 0.1179 0.47191 0.1444 0.0
O11 O 0.04147 0.50137 0.11605 0.0
O12 O 0.04529 0.56394 0.11901 0.0
O13 O 0.09152 0.60568 0.17032 0.0
O14 O 0.12556 0.5734 0.15382 0.0
C15 C 0.04126 0.53279 0.1045 0.0
O16 O 0.98028 0.5713 0.14332 0.0
O17 O 1.00565 0.59135 0.18394 0.0
O18 O 0.02709 0.52704 0.19949 0.0
O19 O 0.08964 0.53023 0.19489 0.0
O20 O 1.01729 0.4581 0.16694 0.0
O21 O 0.97483 0.48507 0.15645 0.0
C22 C 0.12621 0.60655 0.16424 0.0
O23 O 0.09876 0.46768 0.16627 0.0
O24 O 0.10865 0.49205 0.12677 0.0
C25 C 0.93475 0.56858 0.1744 0.0
C26 C 0.84938 0.52749 0.18377 0.0
C27 C 0.86924 0.56801 0.17391 0.0
C28 C 0.91166 0.58838 0.16924 0.0
C29 C 0.91553 0.52869 0.18499 0.0
C30 C 0.87305 0.50822 0.18963 0.0
C31 C 0.97729 0.5871 0.16579 0.0
H32 H 0.23459 0.48453 0.1918 0.0
H33 H 0.16096 0.46487 0.188 0.0
H34 H 0.17446 0.50329 0.10641 0.0
H35 H 0.24752 0.52214 0.11009 0.0
H36 H 0.85163 0.58332 0.16868 0.0
H37 H 0.92604 0.61888 0.16068 0.0
H38 H 0.93307 0.51288 0.18883 0.0
H39 H 0.8586 0.47713 0.19732 0.0
Tb40 Tb 0.57688 0.0701 0.50372 0.0
Eu41 Eu 0.4802 0.02568 0.48442 0.0
C42 C 0.50925 0.03132 0.54596 0.0
C43 C 0.52298 0.97067 0.5001 0.0
C44 C 0.68781 0.15016 0.51519 0.0
C45 C 0.76057 0.20186 0.52388 0.0
C46 C 0.72758 0.16138 0.52617 0.0
C47 C 0.68073 0.17973 0.50248 0.0
C48 C 0.71367 0.22022 0.50019 0.0
C49 C 0.75397 0.23144 0.51059 0.0
C50 C 0.65361 0.10782 0.5176 0.0
O51 O 0.57299 0.08424 0.46156 0.0
O52 O 0.51461 0.02328 0.44977 0.0
O53 O 0.50676 0.09482 0.47879 0.0
O54 O 0.5578 0.11635 0.51199 0.0
C55 C 0.54861 0.05613 0.44309 0.0
O56 O 0.42941 0.98566 0.45586 0.0
O57 O 0.41843 0.01852 0.48739 0.0
O58 O 0.48133 0.03127 0.52895 0.0
O59 O 0.54562 0.03828 0.53866 0.0
O60 O 0.55982 1.00448 0.49834 0.0
O61 O 0.48817 0.97222 0.49861 0.0
C62 C 0.53267 0.12346 0.49642 0.0
O63 O 0.62464 0.10443 0.53278 0.0
O64 O 0.63803 0.086 0.49536 0.0
C65 C 0.36756 0.94893 0.47716 0.0
C66 C 0.30833 0.86807 0.49059 0.0
C67 C 0.30808 0.88169 0.46458 0.0
C68 C 0.33742 0.92192 0.45797 0.0
C69 C 0.3682 0.93544 0.50311 0.0
C70 C 0.33861 0.89532 0.50982 0.0
C71 C 0.40162 0.98871 0.46911 0.0
H72 H 0.79133 0.20994 0.5322 0.0
H73 H 0.73315 0.13878 0.5363 0.0
H74 H 0.64988 0.1713 0.49408 0.0
H75 H 0.70792 0.24229 0.48952 0.0
H76 H 0.28567 0.86098 0.44918 0.0
H77 H 0.33735 0.93154 0.43769 0.0
H78 H 0.39207 0.9556 0.51805 0.0
H79 H 0.33937 0.88569 0.53001 0.0
Tb80 Tb 0.55502 0.56772 0.83533 0.0
Eu81 Eu 0.49147 0.46882 0.83235 0.0
C82 C 0.51701 0.51857 0.88599 0.0
C83 C 0.59251 0.50824 0.84187 0.0
C84 C 0.58601 0.67629 0.83423 0.0
C85 C 0.58459 0.73677 0.85102 0.0
C86 C 0.60304 0.71194 0.85093 0.0
C87 C 0.55106 0.66628 0.81702 0.0
C88 C 0.53278 0.69121 0.81696 0.0
C89 C 0.54886 0.72626 0.83434 0.0
C90 C 0.59939 0.6457 0.83842 0.0
O91 O 0.53284 0.55142 0.79328 0.0
O92 O 0.52225 0.48561 0.79358 0.0
O93 O 0.44867 0.49499 0.82328 0.0
O94 O 0.49343 0.56188 0.83923 0.0
C95 C 0.52867 0.51843 0.78045 0.0
O96 O 0.44853 0.41003 0.81112 0.0
O97 O 0.46052 0.41154 0.85385 0.0
O98 O 0.48448 0.49442 0.87042 0.0
O99 O 0.55237 0.54465 0.87568 0.0
O100 O 0.59787 0.54353 0.83251 0.0
O101 O 0.55488 0.47774 0.84691 0.0
C102 C 0.45554 0.53183 0.83137 0.0
O103 O 0.58346 0.62282 0.85881 0.0
O104 O 0.59703 0.6234 0.81758 0.0
C105 C 0.45594 0.3554 0.8289 0.0
C106 C 0.48701 0.30221 0.81764 0.0
C107 C 0.45611 0.30248 0.80053 0.0
C108 C 0.44044 0.32872 0.80623 0.0
C109 C 0.48544 0.35353 0.84668 0.0
C110 C 0.50066 0.32694 0.84112 0.0
C111 C 0.44518 0.38825 0.83213 0.0
H112 H 0.59737 0.76327 0.8649 0.0
H113 H 0.62932 0.71944 0.86479 0.0
H114 H 0.53683 0.63827 0.80438 0.0
H115 H 0.5057 0.68266 0.80361 0.0
H116 H 0.44499 0.28324 0.7824 0.0
H117 H 0.41767 0.32961 0.79233 0.0
H118 H 0.49822 0.37384 0.86429 0.0
H119 H 0.52471 0.32732 0.85446 0.0
O120 O 0.5886 0.08476 0.23666 0.0
Cd121 Cd 0.63436 0.11851 0.19764 0.0
O122 O 0.53004 0.02279 0.23273 0.0
Cd123 Cd 0.46789 0.9608 0.23421 0.0
O124 O 0.41269 0.8947 0.22385 0.0
C125 C 0.37461 0.88349 0.2167 0.0
O126 O 0.36375 0.91218 0.21524 0.0
C127 C 0.55644 0.05505 0.24711 0.0
C128 C 0.71451 0.19477 0.20058 0.0
O129 O 0.68105 0.19487 0.19283 0.0
O130 O 0.71008 0.15991 0.20819 0.0
O131 O 0.5435 0.52341 0.56705 0.0
Cd132 Cd 0.56388 0.46667 0.57251 0.0
O133 O 0.53573 0.5773 0.57744 0.0
Cd134 Cd 0.5317 0.63385 0.56438 0.0
O135 O 0.52271 0.6865 0.549 0.0
C136 C 0.54627 0.72558 0.55435 0.0
O137 O 0.57968 0.73805 0.57041 0.0
C138 C 0.53803 0.5453 0.58465 0.0
C139 C 0.54344 0.38859 0.54684 0.0
O140 O 0.53557 0.39066 0.57116 0.0
O141 O 0.55811 0.42236 0.53393 0.0
O142 O 0.06931 0.51798 0.90359 0.0
Cd143 Cd 0.10653 0.51551 0.86294 0.0
O144 O 1.01108 0.51805 0.88997 0.0
Cd145 Cd 0.94839 0.51636 0.88998 0.0
O146 O 0.88209 0.50599 0.88502 0.0
C147 C 0.87089 0.53046 0.87436 0.0
O148 O 0.89977 0.56595 0.86536 0.0
C149 C 0.03597 0.51868 0.90889 0.0
C150 C 0.19015 0.52829 0.86329 0.0
O151 O 0.18293 0.55868 0.86432 0.0
O152 O 0.15833 0.49147 0.86359 0.0
O153 O 0.02725 0.53178 0.41431 0.0
Cd154 Cd 1.00692 0.52111 0.4603 0.0
O155 O 0.02388 0.58813 0.40324 0.0
Cd156 Cd 0.99024 0.58927 0.43722 0.0
O157 O 0.94184 0.53858 0.45797 0.0
C158 C 0.92637 0.5059 0.44314 0.0
O159 O 0.93746 0.50917 0.41847 0.0
C160 C 0.03324 0.56021 0.3981 0.0
C161 C 0.06955 0.5891 0.48835 0.0
O162 O 0.03678 0.5889 0.47879 0.0
O163 O 0.07143 0.55564 0.4863 0.0
O164 O 0.47915 1.00778 0.75386 0.0
Cd165 Cd 0.47638 1.01253 0.80226 0.0
O166 O 0.53657 1.00432 0.74891 0.0
Cd167 Cd 0.55854 0.0212 0.79017 0.0
O168 O 0.56988 0.07977 0.80706 0.0
C169 C 0.58699 0.10836 0.79048 0.0
O170 O 0.5995 0.09992 0.76848 0.0
C171 C 0.50388 1.00355 0.73906 0.0
C172 C 0.4737 0.94236 0.82323 0.0
O173 O 0.50756 0.9776 0.82409 0.0
O174 O 0.44009 0.94065 0.81384 0.0
O175 O 0.49603 0.48318 0.09541 0.0
Cd176 Cd 0.49864 0.47645 0.14323 0.0
O177 O 0.5418 0.55005 0.09248 0.0
Cd178 Cd 0.5508 0.55952 0.1359 0.0
O179 O 0.55689 0.55695 0.17941 0.0
C180 C 0.52554 0.54645 0.19326 0.0
O181 O 0.52783 0.53906 0.21857 0.0
C182 C 0.51652 0.51473 0.08133 0.0
C183 C 0.56501 0.46457 0.15847 0.0
O184 O 0.56932 0.50081 0.15656 0.0
O185 O 0.52884 0.43286 0.15277 0.0
H186 H 0.28133 0.46234 0.17527 0.0
H187 H 0.31282 0.57435 0.13209 0.0
H188 H 0.38697 0.59325 0.13466 0.0
H189 H 0.36861 0.50797 0.2211 0.0
H190 H 0.37546 0.46316 0.22196 0.0
H191 H 0.32442 0.45647 0.2144 0.0
H192 H 0.3185 0.41696 0.17034 0.0
H193 H 0.36975 0.42378 0.1776 0.0
H194 H 0.35837 0.44147 0.14676 0.0
H195 H 0.45723 0.60082 0.14258 0.0
H196 H 0.52088 0.60078 0.15964 0.0
H197 H 0.44462 0.48653 0.20031 0.0
C198 C 0.30384 0.49089 0.16642 0.0
C199 C 0.29133 0.5167 0.15327 0.0
C200 C 0.32166 0.55369 0.14179 0.0
C201 C 0.3638 0.5647 0.14315 0.0
C202 C 0.37502 0.53842 0.1561 0.0
C203 C 0.34606 0.50249 0.16774 0.0
C204 C 0.36672 0.48099 0.18179 0.0
C205 C 0.35831 0.47695 0.21158 0.0
C206 C 0.35249 0.43827 0.16831 0.0
C207 C 0.41211 0.51151 0.17724 0.0
C208 C 0.41599 0.54371 0.16168 0.0
C209 C 0.45469 0.57577 0.15471 0.0
C210 C 0.49055 0.57541 0.16438 0.0
C211 C 0.48734 0.54368 0.18118 0.0
C212 C 0.44768 0.51116 0.18752 0.0
H213 H 0.75854 0.30728 0.51545 0.0
H214 H 0.82863 0.24788 0.49283 0.0
H215 H 0.8846 0.31491 0.47796 0.0
H216 H 0.77811 0.36805 0.46114 0.0
H217 H 0.78357 0.41356 0.47817 0.0
H218 H 0.75208 0.36292 0.49146 0.0
H219 H 0.79584 0.38804 0.53628 0.0
H220 H 0.82742 0.43904 0.52325 0.0
H221 H 0.85184 0.411 0.53669 0.0
H222 H 0.92467 0.38217 0.45769 0.0
H223 H 0.95248 0.45062 0.43747 0.0
H224 H 0.86044 0.47002 0.47539 0.0
C225 C 0.78621 0.30878 0.50797 0.0
C226 C 0.78959 0.27267 0.50543 0.0
C227 C 0.82591 0.27542 0.49538 0.0
C228 C 0.85775 0.31328 0.48681 0.0
C229 C 0.85293 0.34803 0.48879 0.0
C230 C 0.81852 0.34648 0.49953 0.0
C231 C 0.81969 0.38776 0.49735 0.0
C232 C 0.78108 0.38274 0.48106 0.0
C233 C 0.82397 0.40764 0.52504 0.0
C234 C 0.8591 0.412 0.48254 0.0
C235 C 0.87768 0.38834 0.4779 0.0
C236 C 0.91131 0.40159 0.46184 0.0
C237 C 0.92657 0.44021 0.45027 0.0
C238 C 0.90871 0.46533 0.45527 0.0
C239 C 0.87495 0.45144 0.47184 0.0
H240 H 0.58662 0.81089 0.83886 0.0
H241 H 0.46457 0.69882 0.83184 0.0
H242 H 0.43093 0.74198 0.83219 0.0
H243 H 0.55747 0.86908 0.88371 0.0
H244 H 0.59065 0.91777 0.86842 0.0
H245 H 0.60452 0.87761 0.86903 0.0
H246 H 0.60809 0.87931 0.8177 0.0
H247 H 0.59436 0.91943 0.81689 0.0
H248 H 0.56338 0.87186 0.79728 0.0
H249 H 0.41129 0.79813 0.82991 0.0
H250 H 0.40744 0.86244 0.82474 0.0
H251 H 0.54261 0.9363 0.8359 0.0
C252 C 0.55281 0.79529 0.83795 0.0
C253 C 0.52826 0.75158 0.83531 0.0
C254 C 0.48405 0.73241 0.83351 0.0
C255 C 0.46465 0.75659 0.83397 0.0
C256 C 0.48995 0.79972 0.83657 0.0
C257 C 0.53305 0.8188 0.83865 0.0
C258 C 0.55338 0.86563 0.84006 0.0
C259 C 0.57794 0.88357 0.86691 0.0
C260 C 0.58143 0.88518 0.81658 0.0
C261 C 0.515 0.87008 0.83776 0.0
C262 C 0.47864 0.83181 0.83594 0.0
C263 C 0.43949 0.8283 0.83177 0.0
C264 C 0.43761 0.86494 0.82889 0.0
C265 C 0.47468 0.90433 0.8302 0.0
C266 C 0.51364 0.90673 0.83528 0.0
H267 H 0.80205 0.5581 0.20273 0.0
H268 H 0.79354 0.44655 0.16834 0.0
H269 H 0.71659 0.41273 0.1652 0.0
H270 H 0.70184 0.50764 0.23756 0.0
H271 H 0.69167 0.54884 0.22858 0.0
H272 H 0.74475 0.55983 0.23423 0.0
H273 H 0.76179 0.59086 0.18744 0.0
H274 H 0.70891 0.57967 0.18148 0.0
H275 H 0.73105 0.55942 0.15865 0.0
H276 H 0.64169 0.39575 0.15898 0.0
H277 H 0.57644 0.39786 0.14954 0.0
H278 H 0.63594 0.52258 0.18525 0.0
C279 C 0.78392 0.52617 0.19518 0.0
C280 C 0.80362 0.50474 0.18605 0.0
C281 C 0.77897 0.4631 0.17611 0.0
C282 C 0.73525 0.44373 0.17413 0.0
C283 C 0.71684 0.46651 0.18222 0.0
C284 C 0.74052 0.5068 0.19268 0.0
C285 C 0.71429 0.52694 0.19633 0.0
C286 C 0.71305 0.53635 0.22594 0.0
C287 C 0.72993 0.56652 0.17999 0.0
C288 C 0.67243 0.49238 0.18526 0.0
C289 C 0.67412 0.45737 0.17777 0.0
C290 C 0.63976 0.42268 0.16523 0.0
C291 C 0.60293 0.42414 0.15991 0.0
C292 C 0.60135 0.46037 0.16668 0.0
C293 C 0.63628 0.49442 0.17994 0.0
H294 H 0.22583 0.82783 0.47534 0.0
H295 H 0.3194 0.81259 0.52101 0.0
H296 H 0.26577 0.74013 0.53006 0.0
H297 H 0.13714 0.76505 0.51373 0.0
H298 H 0.10189 0.7435 0.48462 0.0
H299 H 0.14695 0.79496 0.48414 0.0
H300 H 0.17141 0.77333 0.44254 0.0
H301 H 0.12635 0.72196 0.44275 0.0
H302 H 0.178 0.7284 0.44368 0.0
H303 H 0.20303 0.66705 0.52973 0.0
H304 H 0.13686 0.60039 0.52037 0.0
H305 H 0.08619 0.66616 0.47554 0.0
C306 C 0.2351 0.80938 0.48735 0.0
C307 C 0.2766 0.82566 0.49748 0.0
C308 C 0.28749 0.80071 0.51333 0.0
C309 C 0.25734 0.75958 0.51849 0.0
C310 C 0.21671 0.7443 0.50773 0.0
C311 C 0.20572 0.76857 0.4925 0.0
C312 C 0.1611 0.74441 0.48146 0.0
C313 C 0.13525 0.7631 0.49162 0.0
C314 C 0.15912 0.74187 0.45081 0.0
C315 C 0.14828 0.70266 0.49311 0.0
C316 C 0.18072 0.70292 0.50805 0.0
C317 C 0.17713 0.66664 0.51855 0.0
C318 C 0.13956 0.62905 0.51319 0.0
C319 C 0.1063 0.62847 0.49777 0.0
C320 C 0.11059 0.66589 0.48815 0.0
H321 H 0.49713 0.24598 0.847 0.0
H322 H 0.5231 0.30652 0.77124 0.0
H323 H 0.55985 0.26932 0.7586 0.0
H324 H 0.59467 0.24326 0.85676 0.0
H325 H 0.56912 0.1923 0.87068 0.0
H326 H 0.54836 0.22664 0.87492 0.0
H327 H 0.47654 0.16997 0.85399 0.0
H328 H 0.49686 0.13536 0.8499 0.0
H329 H 0.47377 0.14752 0.82156 0.0
H330 H 0.59114 0.22458 0.75358 0.0
H331 H 0.60764 0.16809 0.75367 0.0
H332 H 0.55901 0.13411 0.83211 0.0
C333 C 0.51096 0.25154 0.82788 0.0
C334 C 0.50756 0.27891 0.81002 0.0
C335 C 0.52531 0.28528 0.78501 0.0
C336 C 0.54656 0.26473 0.77783 0.0
C337 C 0.54954 0.23796 0.7959 0.0
C338 C 0.53183 0.23088 0.82027 0.0
C339 C 0.53639 0.19782 0.83497 0.0
C340 C 0.56377 0.21611 0.86087 0.0
C341 C 0.49334 0.16046 0.8404 0.0
C342 C 0.55844 0.18663 0.8147 0.0
C343 C 0.56659 0.21093 0.79263 0.0
C344 C 0.58522 0.20548 0.77079 0.0
C345 C 0.59454 0.17333 0.77108 0.0
C346 C 0.58454 0.14666 0.79288 0.0
C347 C 0.56729 0.15419 0.81526 0.0
H348 H 0.57823 0.95447 0.52933 0.0
H349 H 0.46145 0.89391 0.48136 0.0
H350 H 0.45563 0.82542 0.48894 0.0
H351 H 0.61811 0.88724 0.51052 0.0
H352 H 0.63869 0.88653 0.54356 0.0
H353 H 0.63477 0.93098 0.53344 0.0
H354 H 0.59083 0.92345 0.57369 0.0
H355 H 0.5946 0.87897 0.58399 0.0
H356 H 0.54404 0.87451 0.57842 0.0
H357 H 0.46255 0.76292 0.50169 0.0
H358 H 0.47962 0.71141 0.52033 0.0
H359 H 0.59022 0.81155 0.56206 0.0
C360 C 0.55169 0.92679 0.52018 0.0
C361 C 0.5205 0.92968 0.50441 0.0
C362 C 0.48576 0.89258 0.49339 0.0
C363 C 0.48225 0.85349 0.49758 0.0
C364 C 0.51332 0.85162 0.5133 0.0
C365 C 0.54719 0.88726 0.52469 0.0
C366 C 0.575 0.87631 0.54194 0.0
C367 C 0.61926 0.89646 0.53174 0.0
C368 C 0.57618 0.88907 0.57124 0.0
C369 C 0.55203 0.82908 0.53797 0.0
C370 C 0.51653 0.81552 0.52137 0.0
C371 C 0.49021 0.77326 0.51479 0.0
C372 C 0.5002 0.74411 0.52551 0.0
C373 C 0.53623 0.75701 0.54278 0.0
C374 C 0.56241 0.80032 0.54895 0.0
H375 H 0.67625 0.56435 0.83436 0.0
H376 H 0.59441 0.44115 0.86338 0.0
H377 H 0.65577 0.43347 0.8748 0.0
H378 H 0.74933 0.53952 0.8052 0.0
H379 H 0.79453 0.58929 0.81445 0.0
H380 H 0.7442 0.58515 0.80846 0.0
H381 H 0.75079 0.61787 0.85524 0.0
H382 H 0.80113 0.62211 0.86141 0.0
H383 H 0.76042 0.59465 0.88407 0.0
H384 H 0.72718 0.43955 0.88394 0.0
H385 H 0.80145 0.45827 0.88887 0.0
H386 H 0.83728 0.57713 0.85357 0.0
C387 C 0.67109 0.53563 0.84302 0.0
C388 C 0.63001 0.50333 0.84789 0.0
C389 C 0.62518 0.46641 0.85934 0.0
C390 C 0.66002 0.46175 0.86596 0.0
C391 C 0.69994 0.49418 0.86103 0.0
C392 C 0.70562 0.53038 0.84972 0.0
C393 C 0.75187 0.56049 0.84642 0.0
C394 C 0.76048 0.56911 0.81688 0.0
C395 C 0.76693 0.60119 0.86276 0.0
C396 C 0.77133 0.5357 0.85775 0.0
C397 C 0.74082 0.49753 0.8661 0.0
C398 C 0.75123 0.46936 0.87739 0.0
C399 C 0.79367 0.48031 0.88015 0.0
C400 C 0.82569 0.51918 0.87166 0.0
C401 C 0.81391 0.54711 0.86031 0.0
H402 H 0.14517 0.68885 0.17299 0.0
H403 H 0.20223 0.61133 0.17178 0.0
H404 H 0.27063 0.67234 0.18544 0.0
H405 H 0.2336 0.7798 0.14601 0.0
H406 H 0.22742 0.81676 0.16586 0.0
H407 H 0.18262 0.76687 0.15635 0.0
H408 H 0.16611 0.75234 0.20577 0.0
H409 H 0.21084 0.80212 0.21551 0.0
H410 H 0.20573 0.7552 0.22936 0.0
H411 H 0.3337 0.74234 0.20073 0.0
H412 H 0.38599 0.81546 0.21352 0.0
H413 H 0.28973 0.8492 0.20318 0.0
C414 C 0.17208 0.68473 0.1755 0.0
C415 C 0.1679 0.64487 0.17114 0.0
C416 C 0.20424 0.64126 0.17465 0.0
C417 C 0.24342 0.67587 0.18258 0.0
C418 C 0.24647 0.71456 0.18672 0.0
C419 C 0.21183 0.71931 0.18301 0.0
C420 C 0.22403 0.76468 0.18807 0.0
C421 C 0.21647 0.78312 0.16256 0.0
C422 C 0.20026 0.76881 0.21105 0.0
C423 C 0.27065 0.7845 0.19568 0.0
C424 C 0.28293 0.75497 0.19483 0.0
C425 C 0.32435 0.76568 0.2013 0.0
C426 C 0.35398 0.80747 0.20863 0.0
C427 C 0.34252 0.83866 0.20943 0.0
C428 C 0.29997 0.82652 0.20282 0.0
H429 H 0.54746 0.17289 0.54174 0.0
H430 H 0.51727 0.16501 0.45689 0.0
H431 H 0.51648 0.23118 0.46042 0.0
H432 H 0.4793 0.21239 0.55961 0.0
H433 H 0.51388 0.2456 0.58668 0.0
H434 H 0.51391 0.19864 0.57735 0.0
H435 H 0.59339 0.24148 0.57109 0.0
H436 H 0.59369 0.2886 0.58039 0.0
H437 H 0.61328 0.28457 0.54905 0.0
H438 H 0.5222 0.30064 0.47301 0.0
H439 H 0.52818 0.36408 0.49402 0.0
H440 H 0.54799 0.32427 0.57143 0.0
C441 C 0.54101 0.18531 0.52388 0.0
C442 C 0.53294 0.16386 0.4989 0.0
C443 C 0.52371 0.18079 0.47617 0.0
C444 C 0.52325 0.21848 0.478 0.0
C445 C 0.53118 0.23877 0.50286 0.0
C446 C 0.53932 0.22248 0.52548 0.0
C447 C 0.54495 0.24957 0.54995 0.0
C448 C 0.51099 0.22508 0.56955 0.0
C449 C 0.58895 0.26709 0.56341 0.0
C450 C 0.53936 0.28395 0.53755 0.0
C451 C 0.53186 0.27731 0.5103 0.0
C452 C 0.52753 0.30578 0.49437 0.0
C453 C 0.53098 0.34183 0.50649 0.0
C454 C 0.5379 0.3491 0.53443 0.0
C455 C 0.54185 0.31937 0.55008 0.0
H456 H 0.3703 0.47363 0.83103 0.0
H457 H 0.45875 0.60631 0.84005 0.0
H458 H 0.4013 0.61896 0.84967 0.0
H459 H 0.28421 0.48306 0.79971 0.0
H460 H 0.24442 0.43969 0.81666 0.0
H461 H 0.29226 0.44086 0.80957 0.0
H462 H 0.305 0.4321 0.85945 0.0
H463 H 0.25737 0.4312 0.86677 0.0
H464 H 0.30615 0.46856 0.8838 0.0
H465 H 0.33467 0.61771 0.85955 0.0
H466 H 0.26328 0.60305 0.86709 0.0
H467 H 0.21615 0.47109 0.85237 0.0
C468 C 0.37753 0.50542 0.83466 0.0
C469 C 0.41944 0.53899 0.8346 0.0
C470 C 0.42724 0.57998 0.83987 0.0
C471 C 0.39468 0.58752 0.84545 0.0
C472 C 0.35404 0.55383 0.84582 0.0
C473 C 0.34521 0.51357 0.84042 0.0
C474 C 0.29864 0.48301 0.84244 0.0
C475 C 0.27871 0.46032 0.81549 0.0
C476 C 0.29138 0.45188 0.86442 0.0
C477 C 0.28278 0.51239 0.84988 0.0
C478 C 0.31542 0.55309 0.8517 0.0
C479 C 0.30889 0.58594 0.85813 0.0
C480 C 0.26805 0.57724 0.86244 0.0
C481 C 0.23369 0.53591 0.86044 0.0
C482 C 0.24153 0.50304 0.85426 0.0
H483 H 0.89348 0.42035 0.15244 0.0
H484 H 0.9832 0.39493 0.19431 0.0
H485 H 0.92585 0.32909 0.20925 0.0
H486 H 0.81305 0.37602 0.20029 0.0
H487 H 0.77034 0.35351 0.17532 0.0
H488 H 0.8189 0.39932 0.16833 0.0
H489 H 0.82386 0.36141 0.1266 0.0
H490 H 0.77576 0.31528 0.13375 0.0
H491 H 0.82248 0.31241 0.13009 0.0
H492 H 0.85933 0.26529 0.21989 0.0
H493 H 0.78798 0.20622 0.22365 0.0
H494 H 0.73856 0.26952 0.17488 0.0
C495 C 0.90102 0.40091 0.16473 0.0
C496 C 0.94335 0.41329 0.17201 0.0
C497 C 0.95145 0.38653 0.18812 0.0
C498 C 0.9189 0.34888 0.1969 0.0
C499 C 0.8778 0.33755 0.18939 0.0
C500 C 0.86859 0.36246 0.17348 0.0
C501 C 0.82141 0.34179 0.16775 0.0
C502 C 0.80489 0.36927 0.17859 0.0
C503 C 0.81022 0.33216 0.13777 0.0
C504 C 0.80571 0.30176 0.18313 0.0
C505 C 0.839 0.30018 0.19544 0.0
C506 C 0.83302 0.26622 0.21032 0.0
C507 C 0.79218 0.23266 0.21236 0.0
C508 C 0.75722 0.23281 0.19969 0.0
C509 C 0.76434 0.26834 0.18508 0.0
H510 H 0.06642 0.49929 0.06561 0.0
H511 H 0.99901 0.56519 0.07761 0.0
H512 H 0.98622 0.56495 0.02891 0.0
H513 H 0.11831 0.55668 0.009 0.0
H514 H 0.11703 0.51296 0.99222 0.0
H515 H 0.11796 0.51548 0.02799 0.0
H516 H 0.05047 0.4433 0.02732 0.0
H517 H 0.0492 0.44056 0.99152 0.0
H518 H 1.00458 0.43511 0.00797 0.0
H519 H 0.98153 0.55818 0.97851 0.0
H520 H 0.99051 0.55073 0.93078 0.0
H521 H 0.06384 0.4923 0.95166 0.0
C522 C 0.04856 0.5132 0.05793 0.0
C523 C 0.03332 0.5319 0.07533 0.0
C524 C 1.01092 0.55068 0.06459 0.0
C525 C 1.00335 0.55053 0.03697 0.0
C526 C 1.01897 0.53205 0.02028 0.0
C527 C 0.04155 0.51418 0.03036 0.0
C528 C 0.05743 0.49907 0.0081 0.0
C529 C 0.10553 0.52244 0.00941 0.0
C530 C 0.03932 0.45169 0.00877 0.0
C531 C 0.03999 0.51089 0.98397 0.0
C532 C 1.01754 0.5295 0.99138 0.0
C533 C 0.9989 0.54344 0.97249 0.0
C534 C 1.00382 0.53873 0.94535 0.0
C535 C 0.02743 0.5205 0.93733 0.0
C536 C 0.04548 0.50628 0.95706 0.0
H537 H 0.51871 0.99788 0.40161 0.0
H538 H 0.59262 0.13093 0.41929 0.0
H539 H 0.59748 0.1437 0.37111 0.0
H540 H 0.57718 0.99821 0.34528 0.0
H541 H 0.53179 0.9581 0.32662 0.0
H542 H 0.53351 0.95943 0.36246 0.0
H543 H 0.46435 0.96103 0.36106 0.0
H544 H 0.46267 0.96021 0.32521 0.0
H545 H 0.46085 1.00132 0.34331 0.0
H546 H 0.59204 0.14257 0.32182 0.0
H547 H 0.5861 0.12854 0.27375 0.0
H548 H 0.51853 0.99537 0.28615 0.0
C549 C 0.53615 0.02971 0.39531 0.0
C550 C 0.55532 0.06353 0.41428 0.0
C551 C 0.57802 0.10461 0.40523 0.0
C552 C 0.5806 0.11213 0.37788 0.0
C553 C 0.56077 0.07822 0.35977 0.0
C554 C 0.53965 0.03775 0.36802 0.0
C555 C 0.52277 1.00698 0.34423 0.0
C556 C 0.5425 0.97903 0.34467 0.0
C557 C 0.47481 0.98084 0.34341 0.0
C558 C 0.53751 0.03658 0.32124 0.0
C559 C 0.55889 0.07746 0.33091 0.0
C560 C 0.5757 0.11073 0.31404 0.0
C561 C 0.57203 0.10228 0.28664 0.0
C562 C 0.55204 0.06081 0.27594 0.0
C563 C 0.53363 0.02738 0.29356 0.0
H564 H 0.54175 0.57958 0.74377 0.0
H565 H 0.51794 0.45276 0.74975 0.0
H566 H 0.51843 0.44703 0.70126 0.0
H567 H 0.47759 0.5615 0.68315 0.0
H568 H 0.51271 0.61081 0.66923 0.0
H569 H 0.51107 0.60599 0.7048 0.0
H570 H 0.59065 0.63329 0.70852 0.0
H571 H 0.59253 0.63821 0.67295 0.0
H572 H 0.61171 0.60754 0.68938 0.0
H573 H 0.51938 0.45299 0.6524 0.0
H574 H 0.52227 0.47133 0.60543 0.0
H575 H 0.54756 0.59493 0.62904 0.0
C576 C 0.53673 0.55068 0.73486 0.0
C577 C 0.5298 0.51664 0.75086 0.0
C578 C 0.52335 0.47939 0.73823 0.0
C579 C 0.52354 0.47571 0.71056 0.0
C580 C 0.53032 0.50954 0.69543 0.0
C581 C 0.53691 0.5464 0.70698 0.0
C582 C 0.54338 0.57776 0.68568 0.0
C583 C 0.50914 0.58971 0.68572 0.0
C584 C 0.58718 0.61649 0.68936 0.0
C585 C 0.53918 0.55253 0.66053 0.0
C586 C 0.53165 0.51328 0.6668 0.0
C587 C 0.52587 0.48385 0.64723 0.0
C588 C 0.52805 0.49475 0.62051 0.0
C589 C 0.53634 0.53491 0.61334 0.0
C590 C 0.54164 0.56407 0.63377 0.0
H591 H 0.56452 0.05125 0.58881 0.0
H592 H 0.43186 0.99112 0.56632 0.0
H593 H 0.41584 0.97519 0.61339 0.0
H594 H 0.55988 0.9822 0.63927 0.0
H595 H 0.59934 0.02294 0.66117 0.0
H596 H 0.6003 0.02931 0.62573 0.0
H597 H 0.59937 0.09821 0.63205 0.0
H598 H 0.5986 0.09218 0.66753 0.0
H599 H 0.55847 0.09831 0.65008 0.0
H600 H 0.41452 0.96735 0.66292 0.0
H601 H 0.42801 0.96864 0.71162 0.0
H602 H 0.56145 0.03274 0.70126 0.0
C603 C 0.53207 0.03451 0.59375 0.0
C604 C 0.49937 0.0222 0.57398 0.0
C605 C 0.45735 1.00094 0.58124 0.0
C606 C 0.44797 0.99164 0.60786 0.0
C607 C 0.48099 1.00416 0.62688 0.0
C608 C 0.5222 0.02535 0.62018 0.0
C609 C 0.55193 0.03653 0.64447 0.0
C610 C 0.57947 0.01652 0.64253 0.0
C611 C 0.57866 0.08412 0.64878 0.0
C612 C 0.52096 0.0173 0.66583 0.0
C613 C 0.48022 0.99919 0.65533 0.0
C614 C 0.44625 0.98116 0.67137 0.0
C615 C 0.45418 0.98204 0.69893 0.0
C616 C 0.49568 1.00028 0.71001 0.0
C617 C 0.52939 0.01777 0.6932 0.0
H618 H 0.56467 0.57289 0.92825 0.0
H619 H 0.46095 0.44827 0.90879 0.0
H620 H 0.4508 0.43491 0.95615 0.0
H621 H 0.60496 0.54549 0.9877 0.0
H622 H 0.61792 0.59256 0.00624 0.0
H623 H 0.61872 0.59273 0.97048 0.0
H624 H 0.56718 0.62079 0.96815 0.0
H625 H 0.56604 0.62054 1.00389 0.0
H626 H 0.518 0.59259 0.98361 0.0
H627 H 0.44995 0.43399 1.00437 0.0
H628 H 0.45881 0.4456 0.05281 0.0
H629 H 0.56212 0.57115 0.04335 0.0
C630 C 0.54014 0.54278 0.93409 0.0
C631 C 0.51352 0.51173 0.91481 0.0
C632 C 0.4815 0.47275 0.92313 0.0
C633 C 0.47549 0.4647 0.95003 0.0
C634 C 0.5016 0.49594 0.96852 0.0
C635 C 0.5333 0.53421 0.96114 0.0
C636 C 0.55594 0.56231 0.98553 0.0
C637 C 0.60213 0.57395 0.98761 0.0
C638 C 0.55151 0.60137 0.98527 0.0
C639 C 0.53181 0.53365 0.00754 0.0
C640 C 0.50075 0.49556 0.99705 0.0
C641 C 0.47416 0.46365 0.01295 0.0
C642 C 0.47948 0.47063 0.04049 0.0
C643 C 0.51111 0.5093 0.05198 0.0
C644 C 0.53754 0.54133 0.03519 0.0
H645 H 0.99976 0.49975 0.24482 0.0
H646 H 0.13452 0.56343 0.24056 0.0
H647 H 0.14277 0.57595 0.28951 0.0
H648 H 0.99592 0.56654 0.29091 0.0
H649 H 0.95328 0.52688 0.30837 0.0
H650 H 0.95807 0.51847 0.2738 0.0
H651 H 0.95829 0.45034 0.28449 0.0
H652 H 0.9528 0.45812 0.31911 0.0
H653 H 0.99547 0.45152 0.30944 0.0
H654 H 0.13556 0.58717 0.33839 0.0
H655 H 0.11329 0.59264 0.38338 0.0
H656 H 0.98364 0.52217 0.35429 0.0
C657 C 0.03104 0.51567 0.25423 0.0
C658 C 0.06656 0.53066 0.23909 0.0
C659 C 0.10696 0.55134 0.25199 0.0
C660 C 0.11188 0.55872 0.27969 0.0
C661 C 0.07606 0.54465 0.29397 0.0
C662 C 0.03642 0.52301 0.28166 0.0
C663 C 1.00289 0.51277 0.30101 0.0
C664 C 0.97599 0.53236 0.29304 0.0
C665 C 0.97578 0.46537 0.30367 0.0
C666 C 0.02982 0.5333 0.32607 0.0
C667 C 0.07194 0.5512 0.32177 0.0
C668 C 0.1027 0.57293 0.34203 0.0
C669 C 0.08992 0.57607 0.36735 0.0
C670 C 0.04699 0.55792 0.3718 0.0
C671 C 1.01667 0.53631 0.35105 0.0
loop_
_geom_bond_atom_site_label_1
_geom_bond_atom_site_label_2
_geom_bond_distance
_geom_bond_site_symmetry_2
_ccdc_geom_bond_type
Tb0 C10 2.825 . S
Tb0 O11 2.347 . S
Tb0 O14 2.366 . S
Tb0 O19 2.418 . S
Tb0 O20 2.384 1_455 S
Tb0 O23 2.479 . S
Tb0 O24 2.471 . S
Eu1 O12 2.418 . S
Eu1 O13 2.384 1_655 S
Eu1 O16 2.479 . S
Eu1 O17 2.471 . S
Eu1 O18 2.347 1_655 S
Eu1 O21 2.366 . S
Eu1 C31 2.825 . S
C2 O18 1.259 . S
C2 O19 1.265 . S
C3 O20 1.255 . S
C3 O21 1.265 . S
C4 C6 1.380 . S
C4 C7 1.374 . S
C4 C10 1.507 . S
C5 C6 1.384 . S
C5 C9 1.387 . S
C5 H32 0.930 . S
C6 C4 1.380 . S
C6 C5 1.384 . S
C6 H33 0.931 . S
C7 C4 1.374 . S
C7 C8 1.390 . S
C7 H34 0.930 . S
C8 C7 1.390 . S
C8 C9 1.391 . S
C8 H35 0.930 . S
C9 C5 1.387 . S
C9 C8 1.391 . S
C10 Tb0 2.825 . S
C10 C4 1.507 . S
C10 O23 1.238 . S
C10 O24 1.247 . S
O11 Tb0 2.347 . S
O11 C15 1.259 . S
O12 Eu1 2.418 . S
O12 C15 1.265 1_655 S
O13 Eu1 2.384 1_455 S
O13 C22 1.255 . S
O14 Tb0 2.366 . S
O14 C22 1.265 . S
C15 O11 1.259 . S
C15 O12 1.265 1_455 S
O16 Eu1 2.479 . S
O16 C31 1.238 . S
O17 Eu1 2.471 . S
O17 C31 1.247 . S
O18 Eu1 2.347 1_455 S
O18 C2 1.259 . S
O19 Tb0 2.418 . S
O19 C2 1.265 . S
O20 Tb0 2.384 1_655 S
O20 C3 1.255 . S
O21 Eu1 2.366 . S
O21 C3 1.265 . S
C22 O13 1.255 . S
C22 O14 1.265 . S
O23 Tb0 2.479 . S
O23 C10 1.238 . S
O24 Tb0 2.471 . S
O24 C10 1.247 . S
C25 C28 1.380 . S
C25 C29 1.374 . S
C25 C31 1.507 . S
C26 C27 1.387 . S
C26 C30 1.391 . S
C27 C26 1.387 . S
C27 C28 1.384 . S
C27 H36 0.930 . S
C28 C25 1.380 . S
C28 C27 1.384 . S
C28 H37 0.931 . S
C29 C25 1.374 . S
C29 C30 1.390 . S
C29 H38 0.930 . S
C30 C26 1.391 . S
C30 C29 1.390 . S
C30 H39 0.930 . S
C31 Eu1 2.825 . S
C31 O16 1.238 . S
C31 O17 1.247 . S
C31 C25 1.507 . S
H32 C5 0.930 . S
H33 C6 0.931 . S
H34 C7 0.930 . S
H35 C8 0.930 . S
H36 C27 0.930 . S
H37 C28 0.931 . S
H38 C29 0.930 . S
H39 C30 0.930 . S
Tb40 C50 2.825 . S
Tb40 O51 2.347 . S
Tb40 O54 2.366 . S
Tb40 O59 2.418 . S
Tb40 O60 2.384 1_545 S
Tb40 O63 2.479 . S
Tb40 O64 2.471 . S
Eu41 O52 2.418 . S
Eu41 O53 2.384 . S
Eu41 O56 2.479 1_545 S
Eu41 O57 2.471 1_545 S
Eu41 O58 2.347 . S
Eu41 O61 2.366 1_545 S
Eu41 C71 2.825 1_545 S
C42 O58 1.259 . S
C42 O59 1.265 . S
C43 O60 1.255 . S
C43 O61 1.265 . S
C44 C46 1.380 . S
C44 C47 1.374 . S
C44 C50 1.507 . S
C45 C46 1.384 . S
C45 C49 1.387 . S
C45 H72 0.930 . S
C46 C44 1.380 . S
C46 C45 1.384 . S
C46 H73 0.931 . S
C47 C44 1.374 . S
C47 C48 1.390 . S
C47 H74 0.930 . S
C48 C47 1.390 . S
C48 C49 1.391 . S
C48 H75 0.930 . S
C49 C45 1.387 . S
C49 C48 1.391 . S
C50 Tb40 2.825 . S
C50 C44 1.507 . S
C50 O63 1.238 . S
C50 O64 1.247 . S
O51 Tb40 2.347 . S
O51 C55 1.259 . S
O52 Eu41 2.418 . S
O52 C55 1.265 . S
O53 Eu41 2.384 . S
O53 C62 1.255 . S
O54 Tb40 2.366 . S
O54 C62 1.265 . S
C55 O51 1.259 . S
C55 O52 1.265 . S
O56 Eu41 2.479 1_565 S
O56 C71 1.238 . S
O57 Eu41 2.471 1_565 S
O57 C71 1.247 . S
O58 Eu41 2.347 . S
O58 C42 1.259 . S
O59 Tb40 2.418 . S
O59 C42 1.265 . S
O60 Tb40 2.384 1_565 S
O60 C43 1.255 . S
O61 Eu41 2.366 1_565 S
O61 C43 1.265 . S
C62 O53 1.255 . S
C62 O54 1.265 . S
O63 Tb40 2.479 . S
O63 C50 1.238 . S
O64 Tb40 2.471 . S
O64 C50 1.247 . S
C65 C68 1.380 . S
C65 C69 1.374 . S
C65 C71 1.507 . S
C66 C67 1.387 . S
C66 C70 1.391 . S
C67 C66 1.387 . S
C67 C68 1.384 . S
C67 H76 0.930 . S
C68 C65 1.380 . S
C68 C67 1.384 . S
C68 H77 0.931 . S
C69 C65 1.374 . S
C69 C70 1.390 . S
C69 H78 0.930 . S
C70 C66 1.391 . S
C70 C69 1.390 . S
C70 H79 0.930 . S
C71 Eu41 2.825 1_565 S
C71 O56 1.238 . S
C71 O57 1.247 . S
C71 C65 1.507 . S
H72 C45 0.930 . S
H73 C46 0.931 . S
H74 C47 0.930 . S
H75 C48 0.930 . S
H76 C67 0.930 . S
H77 C68 0.931 . S
H78 C69 0.930 . S
H79 C70 0.930 . S
Tb80 C90 2.825 . S
Tb80 O91 2.347 . S
Tb80 O94 2.366 . S
Tb80 O99 2.418 . S
Tb80 O100 2.384 . S
Tb80 O103 2.479 . S
Tb80 O104 2.471 . S
Eu81 O92 2.418 . S
Eu81 O93 2.384 . S
Eu81 O96 2.479 . S
Eu81 O97 2.471 . S
Eu81 O98 2.347 . S
Eu81 O101 2.366 . S
Eu81 C111 2.825 . S
C82 O98 1.259 . S
C82 O99 1.265 . S
C83 O100 1.255 . S
C83 O101 1.265 . S
C84 C86 1.380 . S
C84 C87 1.374 . S
C84 C90 1.507 . S
C85 C86 1.384 . S
C85 C89 1.387 . S
C85 H112 0.930 . S
C86 C84 1.380 . S
C86 C85 1.384 . S
C86 H113 0.931 . S
C87 C84 1.374 . S
C87 C88 1.390 . S
C87 H114 0.930 . S
C88 C87 1.390 . S
C88 C89 1.391 . S
C88 H115 0.930 . S
C89 C85 1.387 . S
C89 C88 1.391 . S
C90 Tb80 2.825 . S
C90 C84 1.507 . S
C90 O103 1.238 . S
C90 O104 1.247 . S
O91 Tb80 2.347 . S
O91 C95 1.259 . S
O92 Eu81 2.418 . S
O92 C95 1.265 . S
O93 Eu81 2.384 . S
O93 C102 1.255 . S
O94 Tb80 2.366 . S
O94 C102 1.265 . S
C95 O91 1.259 . S
C95 O92 1.265 . S
O96 Eu81 2.479 . S
O96 C111 1.238 . S
O97 Eu81 2.471 . S
O97 C111 1.247 . S
O98 Eu81 2.347 . S
O98 C82 1.259 . S
O99 Tb80 2.418 . S
O99 C82 1.265 . S
O100 Tb80 2.384 . S
O100 C83 1.255 . S
O101 Eu81 2.366 . S
O101 C83 1.265 . S
C102 O93 1.255 . S
C102 O94 1.265 . S
O103 Tb80 2.479 . S
O103 C90 1.238 . S
O104 Tb80 2.471 . S
O104 C90 1.247 . S
C105 C108 1.380 . S
C105 C109 1.374 . S
C105 C111 1.507 . S
C106 C107 1.387 . S
C106 C110 1.391 . S
C107 C106 1.387 . S
C107 C108 1.384 . S
C107 H116 0.930 . S
C108 C105 1.380 . S
C108 C107 1.384 . S
C108 H117 0.931 . S
C109 C105 1.374 . S
C109 C110 1.390 . S
C109 H118 0.930 . S
C110 C106 1.391 . S
C110 C109 1.390 . S
C110 H119 0.930 . S
C111 Eu81 2.825 . S
C111 O96 1.238 . S
C111 O97 1.247 . S
C111 C105 1.507 . S
H112 C85 0.930 . S
H113 C86 0.931 . S
H114 C87 0.930 . S
H115 C88 0.930 . S
H116 C107 0.930 . S
H117 C108 0.931 . S
H118 C109 0.930 . S
H119 C110 0.930 . S
O120 Cd121 2.300 . S
O120 C127 1.275 . S
Cd121 O120 2.300 . S
Cd121 O129 2.381 . S
Cd121 O130 2.378 . S
O122 Cd123 2.385 . S
O122 C127 1.255 1_565 S
Cd123 O122 2.385 . S
Cd123 O124 2.317 . S
O124 Cd123 2.317 . S
O124 C125 1.232 . S
C125 O124 1.232 . S
C125 O126 1.218 . S
O126 C125 1.218 . S
C127 O120 1.275 . S
C127 O122 1.255 1_545 S
C128 O129 1.258 . S
C128 O130 1.256 . S
O129 Cd121 2.381 . S
O129 C128 1.258 . S
O130 Cd121 2.378 . S
O130 C128 1.256 . S
O131 Cd132 2.300 . S
O131 C138 1.275 . S
Cd132 O131 2.300 . S
Cd132 O140 2.381 . S
Cd132 O141 2.378 . S
O133 Cd134 2.385 . S
O133 C138 1.255 . S
Cd134 O133 2.385 . S
Cd134 O135 2.317 . S
O135 Cd134 2.317 . S
O135 C136 1.232 . S
C136 O135 1.232 . S
C136 O137 1.218 . S
O137 C136 1.218 . S
C138 O131 1.275 . S
C138 O133 1.255 . S
C139 O140 1.258 . S
C139 O141 1.256 . S
O140 Cd132 2.381 . S
O140 C139 1.258 . S
O141 Cd132 2.378 . S
O141 C139 1.256 . S
O142 Cd143 2.300 . S
O142 C149 1.275 . S
Cd143 O142 2.300 . S
Cd143 O151 2.381 . S
Cd143 O152 2.378 . S
O144 Cd145 2.385 . S
O144 C149 1.255 1_655 S
Cd145 O144 2.385 . S
Cd145 O146 2.317 . S
O146 Cd145 2.317 . S
O146 C147 1.232 . S
C147 O146 1.232 . S
C147 O148 1.218 . S
O148 C147 1.218 . S
C149 O142 1.275 . S
C149 O144 1.255 1_455 S
C150 O151 1.258 . S
C150 O152 1.256 . S
O151 Cd143 2.381 . S
O151 C150 1.258 . S
O152 Cd143 2.378 . S
O152 C150 1.256 . S
O153 Cd154 2.300 . S
O153 C160 1.275 . S
Cd154 O153 2.300 . S
Cd154 O162 2.381 . S
Cd154 O163 2.378 . S
O155 Cd156 2.385 . S
O155 C160 1.255 1_655 S
Cd156 O155 2.385 . S
Cd156 O157 2.317 . S
O157 Cd156 2.317 . S
O157 C158 1.232 . S
C158 O157 1.232 . S
C158 O159 1.218 . S
O159 C158 1.218 . S
C160 O153 1.275 . S
C160 O155 1.255 1_455 S
C161 O162 1.258 . S
C161 O163 1.256 . S
O162 Cd154 2.381 . S
O162 C161 1.258 . S
O163 Cd154 2.378 . S
O163 C161 1.256 . S
O164 Cd165 2.300 . S
O164 C171 1.275 1_565 S
Cd165 O164 2.300 . S
Cd165 O173 2.381 . S
Cd165 O174 2.378 . S
O166 Cd167 2.385 . S
O166 C171 1.255 . S
Cd167 O166 2.385 . S
Cd167 O168 2.317 . S
O168 Cd167 2.317 . S
O168 C169 1.232 . S
C169 O168 1.232 . S
C169 O170 1.218 . S
O170 C169 1.218 . S
C171 O164 1.275 1_545 S
C171 O166 1.255 . S
C172 O173 1.258 . S
C172 O174 1.256 . S
O173 Cd165 2.381 . S
O173 C172 1.258 . S
O174 Cd165 2.378 . S
O174 C172 1.256 . S
O175 Cd176 2.300 . S
O175 C182 1.275 . S
Cd176 O175 2.300 . S
Cd176 O184 2.381 . S
Cd176 O185 2.378 . S
O177 Cd178 2.385 . S
O177 C182 1.255 . S
Cd178 O177 2.385 . S
Cd178 O179 2.317 . S
O179 Cd178 2.317 . S
O179 C180 1.232 . S
C180 O179 1.232 . S
C180 O181 1.218 . S
O181 C180 1.218 . S
C182 O175 1.275 . S
C182 O177 1.255 . S
C183 O184 1.258 . S
C183 O185 1.256 . S
O184 Cd176 2.381 . S
O184 C183 1.258 . S
O185 Cd176 2.378 . S
O185 C183 1.256 . S
H186 C198 0.930 . S
H187 C200 0.930 . S
H188 C201 0.930 . S
H189 C205 0.959 . S
H190 C205 0.959 . S
H191 C205 0.961 . S
H192 C206 0.960 . S
H193 C206 0.961 . S
H194 C206 0.959 . S
H195 C209 0.929 . S
H196 C210 0.931 . S
H197 C212 0.930 . S
C198 H186 0.930 . S
C198 C199 1.399 . S
C198 C203 1.399 . S
C199 C198 1.399 . S
C199 C200 1.376 . S
C200 H187 0.930 . S
C200 C199 1.376 . S
C200 C201 1.388 . S
C201 H188 0.930 . S
C201 C200 1.388 . S
C201 C202 1.390 . S
C202 C201 1.390 . S
C202 C203 1.394 . S
C202 C208 1.465 . S
C203 C198 1.399 . S
C203 C202 1.394 . S
C203 C204 1.516 . S
C204 C203 1.516 . S
C204 C205 1.502 . S
C204 C206 1.561 . S
C204 C207 1.526 . S
C205 H189 0.959 . S
C205 H190 0.959 . S
C205 H191 0.961 . S
C205 C204 1.502 . S
C206 H192 0.960 . S
C206 H193 0.961 . S
C206 H194 0.959 . S
C206 C204 1.561 . S
C207 C204 1.526 . S
C207 C208 1.396 . S
C207 C212 1.390 . S
C208 C202 1.465 . S
C208 C207 1.396 . S
C208 C209 1.399 . S
C209 H195 0.929 . S
C209 C208 1.399 . S
C209 C210 1.385 . S
C210 H196 0.931 . S
C210 C209 1.385 . S
C210 C211 1.389 . S
C211 C210 1.389 . S
C211 C212 1.387 . S
C212 H197 0.930 . S
C212 C207 1.390 . S
C212 C211 1.387 . S
H213 C225 0.930 . S
H214 C227 0.930 . S
H215 C228 0.930 . S
H216 C232 0.959 . S
H217 C232 0.959 . S
H218 C232 0.961 . S
H219 C233 0.960 . S
H220 C233 0.961 . S
H221 C233 0.959 . S
H222 C236 0.929 . S
H223 C237 0.931 . S
H224 C239 0.930 . S
C225 H213 0.930 . S
C225 C226 1.399 . S
C225 C230 1.399 . S
C226 C225 1.399 . S
C226 C227 1.376 . S
C227 H214 0.930 . S
C227 C226 1.376 . S
C227 C228 1.388 . S
C228 H215 0.930 . S
C228 C227 1.388 . S
C228 C229 1.390 . S
C229 C228 1.390 . S
C229 C230 1.394 . S
C229 C235 1.465 . S
C230 C225 1.399 . S
C230 C229 1.394 . S
C230 C231 1.516 . S
C231 C230 1.516 . S
C231 C232 1.502 . S
C231 C233 1.561 . S
C231 C234 1.526 . S
C232 H216 0.959 . S
C232 H217 0.959 . S
C232 H218 0.961 . S
C232 C231 1.502 . S
C233 H219 0.960 . S
C233 H220 0.961 . S
C233 H221 0.959 . S
C233 C231 1.561 . S
C234 C231 1.526 . S
C234 C235 1.396 . S
C234 C239 1.390 . S
C235 C229 1.465 . S
C235 C234 1.396 . S
C235 C236 1.399 . S
C236 H222 0.929 . S
C236 C235 1.399 . S
C236 C237 1.385 . S
C237 H223 0.931 . S
C237 C236 1.385 . S
C237 C238 1.389 . S
C238 C237 1.389 . S
C238 C239 1.387 . S
C239 H224 0.930 . S
C239 C234 1.390 . S
C239 C238 1.387 . S
H240 C252 0.930 . S
H241 C254 0.930 . S
H242 C255 0.930 . S
H243 C259 0.959 . S
H244 C259 0.959 . S
H245 C259 0.961 . S
H246 C260 0.960 . S
H247 C260 0.961 . S
H248 C260 0.959 . S
H249 C263 0.929 . S
H250 C264 0.931 . S
H251 C266 0.930 . S
C252 H240 0.930 . S
C252 C253 1.399 . S
C252 C257 1.399 . S
C253 C252 1.399 . S
C253 C254 1.376 . S
C254 H241 0.930 . S
C254 C253 1.376 . S
C254 C255 1.388 . S
C255 H242 0.930 . S
C255 C254 1.388 . S
C255 C256 1.390 . S
C256 C255 1.390 . S
C256 C257 1.394 . S
C256 C262 1.465 . S
C257 C252 1.399 . S
C257 C256 1.394 . S
C257 C258 1.516 . S
C258 C257 1.516 . S
C258 C259 1.502 . S
C258 C260 1.561 . S
C258 C261 1.526 . S
C259 H243 0.959 . S
C259 H244 0.959 . S
C259 H245 0.961 . S
C259 C258 1.502 . S
C260 H246 0.960 . S
C260 H247 0.961 . S
C260 H248 0.959 . S
C260 C258 1.561 . S
C261 C258 1.526 . S
C261 C262 1.396 . S
C261 C266 1.390 . S
C262 C256 1.465 . S
C262 C261 1.396 . S
C262 C263 1.399 . S
C263 H249 0.929 . S
C263 C262 1.399 . S
C263 C264 1.385 . S
C264 H250 0.931 . S
C264 C263 1.385 . S
C264 C265 1.389 . S
C265 C264 1.389 . S
C265 C266 1.387 . S
C266 H251 0.930 . S
C266 C261 1.390 . S
C266 C265 1.387 . S
H267 C279 0.930 . S
H268 C281 0.930 . S
H269 C282 0.930 . S
H270 C286 0.959 . S
H271 C286 0.959 . S
H272 C286 0.961 . S
H273 C287 0.960 . S
H274 C287 0.961 . S
H275 C287 0.959 . S
H276 C290 0.929 . S
H277 C291 0.931 . S
H278 C293 0.930 . S
C279 H267 0.930 . S
C279 C280 1.399 . S
C279 C284 1.399 . S
C280 C279 1.399 . S
C280 C281 1.376 . S
C281 H268 0.930 . S
C281 C280 1.376 . S
C281 C282 1.388 . S
C282 H269 0.930 . S
C282 C281 1.388 . S
C282 C283 1.390 . S
C283 C282 1.390 . S
C283 C284 1.394 . S
C283 C289 1.465 . S
C284 C279 1.399 . S
C284 C283 1.394 . S
C284 C285 1.516 . S
C285 C284 1.516 . S
C285 C286 1.502 . S
C285 C287 1.561 . S
C285 C288 1.526 . S
C286 H270 0.959 . S
C286 H271 0.959 . S
C286 H272 0.961 . S
C286 C285 1.502 . S
C287 H273 0.960 . S
C287 H274 0.961 . S
C287 H275 0.959 . S
C287 C285 1.561 . S
C288 C285 1.526 . S
C288 C289 1.396 . S
C288 C293 1.390 . S
C289 C283 1.465 . S
C289 C288 1.396 . S
C289 C290 1.399 . S
C290 H276 0.929 . S
C290 C289 1.399 . S
C290 C291 1.385 . S
C291 H277 0.931 . S
C291 C290 1.385 . S
C291 C292 1.389 . S
C292 C291 1.389 . S
C292 C293 1.387 . S
C293 H278 0.930 . S
C293 C288 1.390 . S
C293 C292 1.387 . S
H294 C306 0.930 . S
H295 C308 0.930 . S
H296 C309 0.930 . S
H297 C313 0.959 . S
H298 C313 0.959 . S
H299 C313 0.961 . S
H300 C314 0.960 . S
H301 C314 0.961 . S
H302 C314 0.959 . S
H303 C317 0.929 . S
H304 C318 0.931 . S
H305 C320 0.930 . S
C306 H294 0.930 . S
C306 C307 1.399 . S
C306 C311 1.399 . S
C307 C306 1.399 . S
C307 C308 1.376 . S
C308 H295 0.930 . S
C308 C307 1.376 . S
C308 C309 1.388 . S
C309 H296 0.930 . S
C309 C308 1.388 . S
C309 C310 1.390 . S
C310 C309 1.390 . S
C310 C311 1.394 . S
C310 C316 1.465 . S
C311 C306 1.399 . S
C311 C310 1.394 . S
C311 C312 1.516 . S
C312 C311 1.516 . S
C312 C313 1.502 . S
C312 C314 1.561 . S
C312 C315 1.526 . S
C313 H297 0.959 . S
C313 H298 0.959 . S
C313 H299 0.961 . S
C313 C312 1.502 . S
C314 H300 0.960 . S
C314 H301 0.961 . S
C314 H302 0.959 . S
C314 C312 1.561 . S
C315 C312 1.526 . S
C315 C316 1.396 . S
C315 C320 1.390 . S
C316 C310 1.465 . S
C316 C315 1.396 . S
C316 C317 1.399 . S
C317 H303 0.929 . S
C317 C316 1.399 . S
C317 C318 1.385 . S
C318 H304 0.931 . S
C318 C317 1.385 . S
C318 C319 1.389 . S
C319 C318 1.389 . S
C319 C320 1.387 . S
C320 H305 0.930 . S
C320 C315 1.390 . S
C320 C319 1.387 . S
H321 C333 0.930 . S
H322 C335 0.930 . S
H323 C336 0.930 . S
H324 C340 0.959 . S
H325 C340 0.959 . S
H326 C340 0.961 . S
H327 C341 0.960 . S
H328 C341 0.961 . S
H329 C341 0.959 . S
H330 C344 0.929 . S
H331 C345 0.931 . S
H332 C347 0.930 . S
C333 H321 0.930 . S
C333 C334 1.399 . S
C333 C338 1.399 . S
C334 C333 1.399 . S
C334 C335 1.376 . S
C335 H322 0.930 . S
C335 C334 1.376 . S
C335 C336 1.388 . S
C336 H323 0.930 . S
C336 C335 1.388 . S
C336 C337 1.390 . S
C337 C336 1.390 . S
C337 C338 1.394 . S
C337 C343 1.465 . S
C338 C333 1.399 . S
C338 C337 1.394 . S
C338 C339 1.516 . S
C339 C338 1.516 . S
C339 C340 1.502 . S
C339 C341 1.561 . S
C339 C342 1.526 . S
C340 H324 0.959 . S
C340 H325 0.959 . S
C340 H326 0.961 . S
C340 C339 1.502 . S
C341 H327 0.960 . S
C341 H328 0.961 . S
C341 H329 0.959 . S
C341 C339 1.561 . S
C342 C339 1.526 . S
C342 C343 1.396 . S
C342 C347 1.390 . S
C343 C337 1.465 . S
C343 C342 1.396 . S
C343 C344 1.399 . S
C344 H330 0.929 . S
C344 C343 1.399 . S
C344 C345 1.385 . S
C345 H331 0.931 . S
C345 C344 1.385 . S
C345 C346 1.389 . S
C346 C345 1.389 . S
C346 C347 1.387 . S
C347 H332 0.930 . S
C347 C342 1.390 . S
C347 C346 1.387 . S
H348 C360 0.930 . S
H349 C362 0.930 . S
H350 C363 0.930 . S
H351 C367 0.959 . S
H352 C367 0.959 . S
H353 C367 0.961 . S
H354 C368 0.960 . S
H355 C368 0.961 . S
H356 C368 0.959 . S
H357 C371 0.929 . S
H358 C372 0.931 . S
H359 C374 0.930 . S
C360 H348 0.930 . S
C360 C361 1.399 . S
C360 C365 1.399 . S
C361 C360 1.399 . S
C361 C362 1.376 . S
C362 H349 0.930 . S
C362 C361 1.376 . S
C362 C363 1.388 . S
C363 H350 0.930 . S
C363 C362 1.388 . S
C363 C364 1.390 . S
C364 C363 1.390 . S
C364 C365 1.394 . S
C364 C370 1.465 . S
C365 C360 1.399 . S
C365 C364 1.394 . S
C365 C366 1.516 . S
C366 C365 1.516 . S
C366 C367 1.502 . S
C366 C368 1.561 . S
C366 C369 1.526 . S
C367 H351 0.959 . S
C367 H352 0.959 . S
C367 H353 0.961 . S
C367 C366 1.502 . S
C368 H354 0.960 . S
C368 H355 0.961 . S
C368 H356 0.959 . S
C368 C366 1.561 . S
C369 C366 1.526 . S
C369 C370 1.396 . S
C369 C374 1.390 . S
C370 C364 1.465 . S
C370 C369 1.396 . S
C370 C371 1.399 . S
C371 H357 0.929 . S
C371 C370 1.399 . S
C371 C372 1.385 . S
C372 H358 0.931 . S
C372 C371 1.385 . S
C372 C373 1.389 . S
C373 C372 1.389 . S
C373 C374 1.387 . S
C374 H359 0.930 . S
C374 C369 1.390 . S
C374 C373 1.387 . S
H375 C387 0.930 . S
H376 C389 0.930 . S
H377 C390 0.930 . S
H378 C394 0.959 . S
H379 C394 0.959 . S
H380 C394 0.961 . S
H381 C395 0.960 . S
H382 C395 0.961 . S
H383 C395 0.959 . S
H384 C398 0.929 . S
H385 C399 0.931 . S
H386 C401 0.930 . S
C387 H375 0.930 . S
C387 C388 1.399 . S
C387 C392 1.399 . S
C388 C387 1.399 . S
C388 C389 1.376 . S
C389 H376 0.930 . S
C389 C388 1.376 . S
C389 C390 1.388 . S
C390 H377 0.930 . S
C390 C389 1.388 . S
C390 C391 1.390 . S
C391 C390 1.390 . S
C391 C392 1.394 . S
C391 C397 1.465 . S
C392 C387 1.399 . S
C392 C391 1.394 . S
C392 C393 1.516 . S
C393 C392 1.516 . S
C393 C394 1.502 . S
C393 C395 1.561 . S
C393 C396 1.526 . S
C394 H378 0.959 . S
C394 H379 0.959 . S
C394 H380 0.961 . S
C394 C393 1.502 . S
C395 H381 0.960 . S
C395 H382 0.961 . S
C395 H383 0.959 . S
C395 C393 1.561 . S
C396 C393 1.526 . S
C396 C397 1.396 . S
C396 C401 1.390 . S
C397 C391 1.465 . S
C397 C396 1.396 . S
C397 C398 1.399 . S
C398 H384 0.929 . S
C398 C397 1.399 . S
C398 C399 1.385 . S
C399 H385 0.931 . S
C399 C398 1.385 . S
C399 C400 1.389 . S
C400 C399 1.389 . S
C400 C401 1.387 . S
C401 H386 0.930 . S
C401 C396 1.390 . S
C401 C400 1.387 . S
H402 C414 0.930 . S
H403 C416 0.930 . S
H404 C417 0.930 . S
H405 C421 0.959 . S
H406 C421 0.959 . S
H407 C421 0.961 . S
H408 C422 0.960 . S
H409 C422 0.961 . S
H410 C422 0.959 . S
H411 C425 0.929 . S
H412 C426 0.931 . S
H413 C428 0.930 . S
C414 H402 0.930 . S
C414 C415 1.399 . S
C414 C419 1.399 . S
C415 C414 1.399 . S
C415 C416 1.376 . S
C416 H403 0.930 . S
C416 C415 1.376 . S
C416 C417 1.388 . S
C417 H404 0.930 . S
C417 C416 1.388 . S
C417 C418 1.390 . S
C418 C417 1.390 . S
C418 C419 1.394 . S
C418 C424 1.465 . S
C419 C414 1.399 . S
C419 C418 1.394 . S
C419 C420 1.516 . S
C420 C419 1.516 . S
C420 C421 1.502 . S
C420 C422 1.561 . S
C420 C423 1.526 . S
C421 H405 0.959 . S
C421 H406 0.959 . S
C421 H407 0.961 . S
C421 C420 1.502 . S
C422 H408 0.960 . S
C422 H409 0.961 . S
C422 H410 0.959 . S
C422 C420 1.561 . S
C423 C420 1.526 . S
C423 C424 1.396 . S
C423 C428 1.390 . S
C424 C418 1.465 . S
C424 C423 1.396 . S
C424 C425 1.399 . S
C425 H411 0.929 . S
C425 C424 1.399 . S
C425 C426 1.385 . S
C426 H412 0.931 . S
C426 C425 1.385 . S
C426 C427 1.389 . S
C427 C426 1.389 . S
C427 C428 1.387 . S
C428 H413 0.930 . S
C428 C423 1.390 . S
C428 C427 1.387 . S
H429 C441 0.930 . S
H430 C443 0.930 . S
H431 C444 0.930 . S
H432 C448 0.959 . S
H433 C448 0.959 . S
H434 C448 0.961 . S
H435 C449 0.960 . S
H436 C449 0.961 . S
H437 C449 0.959 . S
H438 C452 0.929 . S
H439 C453 0.931 . S
H440 C455 0.930 . S
C441 H429 0.930 . S
C441 C442 1.399 . S
C441 C446 1.399 . S
C442 C441 1.399 . S
C442 C443 1.376 . S
C443 H430 0.930 . S
C443 C442 1.376 . S
C443 C444 1.388 . S
C444 H431 0.930 . S
C444 C443 1.388 . S
C444 C445 1.390 . S
C445 C444 1.390 . S
C445 C446 1.394 . S
C445 C451 1.465 . S
C446 C441 1.399 . S
C446 C445 1.394 . S
C446 C447 1.516 . S
C447 C446 1.516 . S
C447 C448 1.502 . S
C447 C449 1.561 . S
C447 C450 1.526 . S
C448 H432 0.959 . S
C448 H433 0.959 . S
C448 H434 0.961 . S
C448 C447 1.502 . S
C449 H435 0.960 . S
C449 H436 0.961 . S
C449 H437 0.959 . S
C449 C447 1.561 . S
C450 C447 1.526 . S
C450 C451 1.396 . S
C450 C455 1.390 . S
C451 C445 1.465 . S
C451 C450 1.396 . S
C451 C452 1.399 . S
C452 H438 0.929 . S
C452 C451 1.399 . S
C452 C453 1.385 . S
C453 H439 0.931 . S
C453 C452 1.385 . S
C453 C454 1.389 . S
C454 C453 1.389 . S
C454 C455 1.387 . S
C455 H440 0.930 . S
C455 C450 1.390 . S
C455 C454 1.387 . S
H456 C468 0.930 . S
H457 C470 0.930 . S
H458 C471 0.930 . S
H459 C475 0.959 . S
H460 C475 0.959 . S
H461 C475 0.961 . S
H462 C476 0.960 . S
H463 C476 0.961 . S
H464 C476 0.959 . S
H465 C479 0.929 . S
H466 C480 0.931 . S
H467 C482 0.930 . S
C468 H456 0.930 . S
C468 C469 1.399 . S
C468 C473 1.399 . S
C469 C468 1.399 . S
C469 C470 1.376 . S
C470 H457 0.930 . S
C470 C469 1.376 . S
C470 C471 1.388 . S
C471 H458 0.930 . S
C471 C470 1.388 . S
C471 C472 1.390 . S
C472 C471 1.390 . S
C472 C473 1.394 . S
C472 C478 1.465 . S
C473 C468 1.399 . S
C473 C472 1.394 . S
C473 C474 1.516 . S
C474 C473 1.516 . S
C474 C475 1.502 . S
C474 C476 1.561 . S
C474 C477 1.526 . S
C475 H459 0.959 . S
C475 H460 0.959 . S
C475 H461 0.961 . S
C475 C474 1.502 . S
C476 H462 0.960 . S
C476 H463 0.961 . S
C476 H464 0.959 . S
C476 C474 1.561 . S
C477 C474 1.526 . S
C477 C478 1.396 . S
C477 C482 1.390 . S
C478 C472 1.465 . S
C478 C477 1.396 . S
C478 C479 1.399 . S
C479 H465 0.929 . S
C479 C478 1.399 . S
C479 C480 1.385 . S
C480 H466 0.931 . S
C480 C479 1.385 . S
C480 C481 1.389 . S
C481 C480 1.389 . S
C481 C482 1.387 . S
C482 H467 0.930 . S
C482 C477 1.390 . S
C482 C481 1.387 . S
H483 C495 0.930 . S
H484 C497 0.930 . S
H485 C498 0.930 . S
H486 C502 0.959 . S
H487 C502 0.959 . S
H488 C502 0.961 . S
H489 C503 0.960 . S
H490 C503 0.961 . S
H491 C503 0.959 . S
H492 C506 0.929 . S
H493 C507 0.931 . S
H494 C509 0.930 . S
C495 H483 0.930 . S
C495 C496 1.399 . S
C495 C500 1.399 . S
C496 C495 1.399 . S
C496 C497 1.376 . S
C497 H484 0.930 . S
C497 C496 1.376 . S
C497 C498 1.388 . S
C498 H485 0.930 . S
C498 C497 1.388 . S
C498 C499 1.390 . S
C499 C498 1.390 . S
C499 C500 1.394 . S
C499 C505 1.465 . S
C500 C495 1.399 . S
C500 C499 1.394 . S
C500 C501 1.516 . S
C501 C500 1.516 . S
C501 C502 1.502 . S
C501 C503 1.561 . S
C501 C504 1.526 . S
C502 H486 0.959 . S
C502 H487 0.959 . S
C502 H488 0.961 . S
C502 C501 1.502 . S
C503 H489 0.960 . S
C503 H490 0.961 . S
C503 H491 0.959 . S
C503 C501 1.561 . S
C504 C501 1.526 . S
C504 C505 1.396 . S
C504 C509 1.390 . S
C505 C499 1.465 . S
C505 C504 1.396 . S
C505 C506 1.399 . S
C506 H492 0.929 . S
C506 C505 1.399 . S
C506 C507 1.385 . S
C507 H493 0.931 . S
C507 C506 1.385 . S
C507 C508 1.389 . S
C508 C507 1.389 . S
C508 C509 1.387 . S
C509 H494 0.930 . S
C509 C504 1.390 . S
C509 C508 1.387 . S
H510 C522 0.930 . S
H511 C524 0.930 . S
H512 C525 0.930 . S
H513 C529 0.959 . S
H514 C529 0.957 . S
H515 C529 0.961 . S
H516 C530 0.960 . S
H517 C530 0.961 1_556 S
H518 C530 0.959 . S
H519 C533 0.929 . S
H520 C534 0.931 . S
H521 C536 0.930 . S
C522 H510 0.930 . S
C522 C523 1.399 . S
C522 C527 1.399 . S
C523 C522 1.399 . S
C523 C524 1.376 1_455 S
C524 H511 0.930 . S
C524 C523 1.376 1_655 S
C524 C525 1.388 . S
C525 H512 0.930 . S
C525 C524 1.388 . S
C525 C526 1.390 . S
C526 C525 1.390 . S
C526 C527 1.394 1_655 S
C526 C532 1.465 . S
C527 C522 1.399 . S
C527 C526 1.394 1_455 S
C527 C528 1.516 . S
C528 C527 1.516 . S
C528 C529 1.502 . S
C528 C530 1.561 . S
C528 C531 1.526 1_554 S
C529 H513 0.959 . S
C529 H514 0.957 . S
C529 H515 0.961 . S
C529 C528 1.502 . S
C530 H516 0.960 . S
C530 H517 0.961 1_554 S
C530 H518 0.959 . S
C530 C528 1.561 . S
C531 C528 1.526 1_556 S
C531 C532 1.396 1_456 S
C531 C536 1.390 . S
C532 C526 1.465 . S
C532 C531 1.396 1_654 S
C532 C533 1.399 1_554 S
C533 H519 0.929 . S
C533 C532 1.399 1_556 S
C533 C534 1.385 . S
C534 H520 0.931 . S
C534 C533 1.385 . S
C534 C535 1.389 1_655 S
C535 C534 1.389 1_455 S
C535 C536 1.387 . S
C536 H521 0.930 . S
C536 C531 1.390 . S
C536 C535 1.387 . S
H537 C549 0.930 1_565 S
H538 C551 0.930 . S
H539 C552 0.930 . S
H540 C556 0.959 . S
H541 C556 0.959 . S
H542 C556 0.961 . S
H543 C557 0.960 . S
H544 C557 0.961 . S
H545 C557 0.959 . S
H546 C560 0.929 . S
H547 C561 0.931 . S
H548 C563 0.930 . S
C549 H537 0.930 1_545 S
C549 C550 1.399 . S
C549 C554 1.399 . S
C550 C549 1.399 . S
C550 C551 1.376 . S
C551 H538 0.930 . S
C551 C550 1.376 . S
C551 C552 1.388 . S
C552 H539 0.930 . S
C552 C551 1.388 . S
C552 C553 1.390 . S
C553 C552 1.390 . S
C553 C554 1.394 . S
C553 C559 1.465 . S
C554 C549 1.399 . S
C554 C553 1.394 . S
C554 C555 1.516 1_545 S
C555 C554 1.516 1_565 S
C555 C556 1.502 . S
C555 C557 1.561 . S
C555 C558 1.526 1_565 S
C556 H540 0.959 . S
C556 H541 0.959 . S
C556 H542 0.961 . S
C556 C555 1.502 . S
C557 H543 0.960 . S
C557 H544 0.961 . S
C557 H545 0.959 . S
C557 C555 1.561 . S
C558 C555 1.526 1_545 S
C558 C559 1.396 . S
C558 C563 1.390 1_545 S
C559 C553 1.465 . S
C559 C558 1.396 . S
C559 C560 1.399 . S
C560 H546 0.929 . S
C560 C559 1.399 . S
C560 C561 1.385 . S
C561 H547 0.931 . S
C561 C560 1.385 . S
C561 C562 1.389 . S
C562 C561 1.389 . S
C562 C563 1.387 1_545 S
C563 H548 0.930 . S
C563 C558 1.390 1_565 S
C563 C562 1.387 1_565 S
H564 C576 0.930 . S
H565 C578 0.930 . S
H566 C579 0.930 . S
H567 C583 0.959 . S
H568 C583 0.959 . S
H569 C583 0.961 . S
H570 C584 0.960 . S
H571 C584 0.961 . S
H572 C584 0.959 . S
H573 C587 0.929 . S
H574 C588 0.931 . S
H575 C590 0.930 . S
C576 H564 0.930 . S
C576 C577 1.399 . S
C576 C581 1.399 . S
C577 C576 1.399 . S
C577 C578 1.376 . S
C578 H565 0.930 . S
C578 C577 1.376 . S
C578 C579 1.388 . S
C579 H566 0.930 . S
C579 C578 1.388 . S
C579 C580 1.390 . S
C580 C579 1.390 . S
C580 C581 1.394 . S
C580 C586 1.465 . S
C581 C576 1.399 . S
C581 C580 1.394 . S
C581 C582 1.516 . S
C582 C581 1.516 . S
C582 C583 1.502 . S
C582 C584 1.561 . S
C582 C585 1.526 . S
C583 H567 0.959 . S
C583 H568 0.959 . S
C583 H569 0.961 . S
C583 C582 1.502 . S
C584 H570 0.960 . S
C584 H571 0.961 . S
C584 H572 0.959 . S
C584 C582 1.561 . S
C585 C582 1.526 . S
C585 C586 1.396 . S
C585 C590 1.390 . S
C586 C580 1.465 . S
C586 C585 1.396 . S
C586 C587 1.399 . S
C587 H573 0.929 . S
C587 C586 1.399 . S
C587 C588 1.385 . S
C588 H574 0.931 . S
C588 C587 1.385 . S
C588 C589 1.389 . S
C589 C588 1.389 . S
C589 C590 1.387 . S
C590 H575 0.930 . S
C590 C585 1.390 . S
C590 C589 1.387 . S
H591 C603 0.930 . S
H592 C605 0.930 . S
H593 C606 0.930 . S
H594 C610 0.959 . S
H595 C610 0.959 . S
H596 C610 0.961 . S
H597 C611 0.960 . S
H598 C611 0.961 . S
H599 C611 0.959 . S
H600 C614 0.929 . S
H601 C615 0.931 . S
H602 C617 0.930 . S
C603 H591 0.930 . S
C603 C604 1.399 . S
C603 C608 1.399 . S
C604 C603 1.399 . S
C604 C605 1.376 1_545 S
C605 H592 0.930 . S
C605 C604 1.376 1_565 S
C605 C606 1.388 . S
C606 H593 0.930 . S
C606 C605 1.388 . S
C606 C607 1.390 1_565 S
C607 C606 1.390 1_545 S
C607 C608 1.394 . S
C607 C613 1.465 . S
C608 C603 1.399 . S
C608 C607 1.394 . S
C608 C609 1.516 . S
C609 C608 1.516 . S
C609 C610 1.502 . S
C609 C611 1.561 . S
C609 C612 1.526 . S
C610 H594 0.959 . S
C610 H595 0.959 . S
C610 H596 0.961 . S
C610 C609 1.502 . S
C611 H597 0.960 . S
C611 H598 0.961 . S
C611 H599 0.959 . S
C611 C609 1.561 . S
C612 C609 1.526 . S
C612 C613 1.396 . S
C612 C617 1.390 . S
C613 C607 1.465 . S
C613 C612 1.396 . S
C613 C614 1.399 1_545 S
C614 H600 0.929 . S
C614 C613 1.399 1_565 S
C614 C615 1.385 . S
C615 H601 0.931 . S
C615 C614 1.385 . S
C615 C616 1.389 1_565 S
C616 C615 1.389 1_545 S
C616 C617 1.387 . S
C617 H602 0.930 . S
C617 C612 1.390 . S
C617 C616 1.387 . S
H618 C630 0.930 . S
H619 C632 0.930 . S
H620 C633 0.930 . S
H621 C637 0.959 . S
H622 C637 0.959 1_554 S
H623 C637 0.961 . S
H624 C638 0.960 . S
H625 C638 0.961 1_554 S
H626 C638 0.959 . S
H627 C641 0.929 1_556 S
H628 C642 0.931 . S
H629 C644 0.930 . S
C630 H618 0.930 . S
C630 C631 1.399 . S
C630 C635 1.399 . S
C631 C630 1.399 . S
C631 C632 1.376 . S
C632 H619 0.930 . S
C632 C631 1.376 . S
C632 C633 1.388 . S
C633 H620 0.930 . S
C633 C632 1.388 . S
C633 C634 1.390 . S
C634 C633 1.390 . S
C634 C635 1.394 . S
C634 C640 1.465 . S
C635 C630 1.399 . S
C635 C634 1.394 . S
C635 C636 1.516 . S
C636 C635 1.516 . S
C636 C637 1.502 . S
C636 C638 1.561 . S
C636 C639 1.526 1_556 S
C637 H621 0.959 . S
C637 H622 0.959 1_556 S
C637 H623 0.961 . S
C637 C636 1.502 . S
C638 H624 0.960 . S
C638 H625 0.961 1_556 S
C638 H626 0.959 . S
C638 C636 1.561 . S
C639 C636 1.526 1_554 S
C639 C640 1.396 1_554 S
C639 C644 1.390 . S
C640 C634 1.465 . S
C640 C639 1.396 1_556 S
C640 C641 1.399 1_556 S
C641 H627 0.929 1_554 S
C641 C640 1.399 1_554 S
C641 C642 1.385 . S
C642 H628 0.931 . S
C642 C641 1.385 . S
C642 C643 1.389 . S
C643 C642 1.389 . S
C643 C644 1.387 . S
C644 H629 0.930 . S
C644 C639 1.390 . S
C644 C643 1.387 . S
H645 C657 0.930 . S
H646 C659 0.930 . S
H647 C660 0.930 . S
H648 C664 0.959 . S
H649 C664 0.959 . S
H650 C664 0.961 . S
H651 C665 0.960 . S
H652 C665 0.961 . S
H653 C665 0.959 . S
H654 C668 0.929 . S
H655 C669 0.931 . S
H656 C671 0.930 . S
C657 H645 0.930 . S
C657 C658 1.399 1_655 S
C657 C662 1.399 . S
C658 C657 1.399 1_455 S
C658 C659 1.376 . S
C659 H646 0.930 . S
C659 C658 1.376 . S
C659 C660 1.388 . S
C660 H647 0.930 . S
C660 C659 1.388 . S
C660 C661 1.390 . S
C661 C660 1.390 . S
C661 C662 1.394 1_455 S
C661 C667 1.465 . S
C662 C657 1.399 . S
C662 C661 1.394 1_655 S
C662 C663 1.516 . S
C663 C662 1.516 . S
C663 C664 1.502 . S
C663 C665 1.561 . S
C663 C666 1.526 . S
C664 H648 0.959 . S
C664 H649 0.959 . S
C664 H650 0.961 . S
C664 C663 1.502 . S
C665 H651 0.960 . S
C665 H652 0.961 . S
C665 H653 0.959 . S
C665 C663 1.561 . S
C666 C663 1.526 . S
C666 C667 1.396 1_655 S
C666 C671 1.390 . S
C667 C661 1.465 . S
C667 C666 1.396 1_455 S
C667 C668 1.399 . S
C668 H654 0.929 . S
C668 C667 1.399 . S
C668 C669 1.385 . S
C669 H655 0.931 . S
C669 C668 1.385 . S
C669 C670 1.389 . S
C670 C669 1.389 . S
C670 C671 1.387 1_455 S
C671 H656 0.930 . S
C671 C666 1.390 . S
C671 C670 1.387 1_655 S
C199 C9 0.600 . S
C211 C180 0.588 . S
C226 C49 0.362 . S
C238 C158 0.773 . S
C253 C89 0.227 . S
C265 C172 0.381 . S
C280 C26 0.212 . S
C292 C183 0.366 . S
C319 C161 0.317 . S
C307 C66 0.495 . S
C346 C169 0.745 . S
C334 C106 0.437 . S
C361 C43 3.147 . S
C373 C136 2.787 . S
C388 C83 3.233 . S
C400 C147 2.849 . S
C415 C22 3.281 . S
C427 C125 2.875 . S
C454 C139 2.930 . S
C442 C62 2.993 . S
C481 C150 2.809 . S
C469 C102 2.883 . S
C496 C3 2.836 . S
C508 C128 2.755 . S
C535 C149 1.692 . S
C523 C15 1.647 . S
C550 C55 1.677 . S
C562 C127 1.666 . S
C577 C95 1.694 . S
C589 C138 1.628 . S
C616 C171 1.181 . S
C604 C42 1.231 . S
C643 C182 1.229 . S
C631 C82 1.240 . S
C658 C2 1.207 . S
C670 C160 1.145 . S
