# Generated by pormake.
# Topology myd, (4,6)-cn, num edge types: 1
# Building blocks:
#     Node 0, Type 0, BuildingBlock: NAWXER_clean_sbu_0, # of connection points: 4
#     Node 1, Type 0, BuildingBlock: NAWXER_clean_sbu_0, # of connection points: 4
#     Node 2, Type 0, BuildingBlock: NAWXER_clean_sbu_0, # of connection points: 4
#     Node 3, Type 0, BuildingBlock: NAWXER_clean_sbu_0, # of connection points: 4
#     Node 4, Type 0, BuildingBlock: NAWXER_clean_sbu_0, # of connection points: 4
#     Node 5, Type 0, BuildingBlock: NAWXER_clean_sbu_0, # of connection points: 4
#     Node 6, Type 0, BuildingBlock: NAWXER_clean_sbu_0, # of connection points: 4
#     Node 7, Type 0, BuildingBlock: NAWXER_clean_sbu_0, # of connection points: 4
#     Node 8, Type 0, BuildingBlock: NAWXER_clean_sbu_0, # of connection points: 4
#     Node 9, Type 0, BuildingBlock: NAWXER_clean_sbu_0, # of connection points: 4
#     Node 10, Type 0, BuildingBlock: NAWXER_clean_sbu_0, # of connection points: 4
#     Node 11, Type 0, BuildingBlock: NAWXER_clean_sbu_0, # of connection points: 4
#     Node 12, Type 1, BuildingBlock: MIDCAF_clean_sbu_0, # of connection points: 6
#     Node 13, Type 1, BuildingBlock: MIDCAF_clean_sbu_0, # of connection points: 6
#     Node 14, Type 1, BuildingBlock: MIDCAF_clean_sbu_0, # of connection points: 6
#     Node 15, Type 1, BuildingBlock: MIDCAF_clean_sbu_0, # of connection points: 6
#     Node 16, Type 1, BuildingBlock: MIDCAF_clean_sbu_0, # of connection points: 6
#     Node 17, Type 1, BuildingBlock: MIDCAF_clean_sbu_0, # of connection points: 6
#     Node 18, Type 1, BuildingBlock: MIDCAF_clean_sbu_0, # of connection points: 6
#     Node 19, Type 1, BuildingBlock: MIDCAF_clean_sbu_0, # of connection points: 6
#     Edge 20, Type (0, 1), BuildingBlock: XUDNAN_clean_linker_2, # of connection points: 2
#     Edge 21, Type (0, 1), BuildingBlock: XUDNAN_clean_linker_2, # of connection points: 2
#     Edge 22, Type (0, 1), BuildingBlock: XUDNAN_clean_linker_2, # of connection points: 2
#     Edge 23, Type (0, 1), BuildingBlock: XUDNAN_clean_linker_2, # of connection points: 2
#     Edge 24, Type (0, 1), BuildingBlock: XUDNAN_clean_linker_2, # of connection points: 2
#     Edge 25, Type (0, 1), BuildingBlock: XUDNAN_clean_linker_2, # of connection points: 2
#     Edge 26, Type (0, 1), BuildingBlock: XUDNAN_clean_linker_2, # of connection points: 2
#     Edge 27, Type (0, 1), BuildingBlock: XUDNAN_clean_linker_2, # of connection points: 2
#     Edge 28, Type (0, 1), BuildingBlock: XUDNAN_clean_linker_2, # of connection points: 2
#     Edge 29, Type (0, 1), BuildingBlock: XUDNAN_clean_linker_2, # of connection points: 2
#     Edge 30, Type (0, 1), BuildingBlock: XUDNAN_clean_linker_2, # of connection points: 2
#     Edge 31, Type (0, 1), BuildingBlock: XUDNAN_clean_linker_2, # of connection points: 2
#     Edge 32, Type (0, 1), BuildingBlock: XUDNAN_clean_linker_2, # of connection points: 2
#     Edge 33, Type (0, 1), BuildingBlock: XUDNAN_clean_linker_2, # of connection points: 2
#     Edge 34, Type (0, 1), BuildingBlock: XUDNAN_clean_linker_2, # of connection points: 2
#     Edge 35, Type (0, 1), BuildingBlock: XUDNAN_clean_linker_2, # of connection points: 2
#     Edge 36, Type (0, 1), BuildingBlock: XUDNAN_clean_linker_2, # of connection points: 2
#     Edge 37, Type (0, 1), BuildingBlock: XUDNAN_clean_linker_2, # of connection points: 2
#     Edge 38, Type (0, 1), BuildingBlock: XUDNAN_clean_linker_2, # of connection points: 2
#     Edge 39, Type (0, 1), BuildingBlock: XUDNAN_clean_linker_2, # of connection points: 2
#     Edge 40, Type (0, 1), BuildingBlock: XUDNAN_clean_linker_2, # of connection points: 2
#     Edge 41, Type (0, 1), BuildingBlock: XUDNAN_clean_linker_2, # of connection points: 2
#     Edge 42, Type (0, 1), BuildingBlock: XUDNAN_clean_linker_2, # of connection points: 2
#     Edge 43, Type (0, 1), BuildingBlock: XUDNAN_clean_linker_2, # of connection points: 2
#     Edge 44, Type (0, 1), BuildingBlock: XUDNAN_clean_linker_2, # of connection points: 2
#     Edge 45, Type (0, 1), BuildingBlock: XUDNAN_clean_linker_2, # of connection points: 2
#     Edge 46, Type (0, 1), BuildingBlock: XUDNAN_clean_linker_2, # of connection points: 2
#     Edge 47, Type (0, 1), BuildingBlock: XUDNAN_clean_linker_2, # of connection points: 2
#     Edge 48, Type (0, 1), BuildingBlock: XUDNAN_clean_linker_2, # of connection points: 2
#     Edge 49, Type (0, 1), BuildingBlock: XUDNAN_clean_linker_2, # of connection points: 2
#     Edge 50, Type (0, 1), BuildingBlock: XUDNAN_clean_linker_2, # of connection points: 2
#     Edge 51, Type (0, 1), BuildingBlock: XUDNAN_clean_linker_2, # of connection points: 2
#     Edge 52, Type (0, 1), BuildingBlock: XUDNAN_clean_linker_2, # of connection points: 2
#     Edge 53, Type (0, 1), BuildingBlock: XUDNAN_clean_linker_2, # of connection points: 2
#     Edge 54, Type (0, 1), BuildingBlock: XUDNAN_clean_linker_2, # of connection points: 2
#     Edge 55, Type (0, 1), BuildingBlock: XUDNAN_clean_linker_2, # of connection points: 2
#     Edge 56, Type (0, 1), BuildingBlock: XUDNAN_clean_linker_2, # of connection points: 2
#     Edge 57, Type (0, 1), BuildingBlock: XUDNAN_clean_linker_2, # of connection points: 2
#     Edge 58, Type (0, 1), BuildingBlock: XUDNAN_clean_linker_2, # of connection points: 2
#     Edge 59, Type (0, 1), BuildingBlock: XUDNAN_clean_linker_2, # of connection points: 2
#     Edge 60, Type (0, 1), BuildingBlock: XUDNAN_clean_linker_2, # of connection points: 2
#     Edge 61, Type (0, 1), BuildingBlock: XUDNAN_clean_linker_2, # of connection points: 2
#     Edge 62, Type (0, 1), BuildingBlock: XUDNAN_clean_linker_2, # of connection points: 2
#     Edge 63, Type (0, 1), BuildingBlock: XUDNAN_clean_linker_2, # of connection points: 2
#     Edge 64, Type (0, 1), BuildingBlock: XUDNAN_clean_linker_2, # of connection points: 2
#     Edge 65, Type (0, 1), BuildingBlock: XUDNAN_clean_linker_2, # of connection points: 2
#     Edge 66, Type (0, 1), BuildingBlock: XUDNAN_clean_linker_2, # of connection points: 2
#     Edge 67, Type (0, 1), BuildingBlock: XUDNAN_clean_linker_2, # of connection points: 2
# Relax obj value: 0.163
# Max RMSD: 0.104
# Mean RMSD: 0.094
data_MOF--net-myd--node1-NAWXER_clean_sbu_0--node2-MIDCAF_clean_sbu_0--edge1-XUDNAN_clean_linker_2
_symmetry_space_group_name_H-M    P1
_symmetry_Int_Tables_number       1
_symmetry_cell_setting            triclinic
loop_
_symmetry_equiv_pos_as_xyz
'x, y, z'
_cell_length_a     45.030287
_cell_length_b     45.085024
_cell_length_c     45.087178
_cell_angle_alpha  90.058939
_cell_angle_beta   89.952465
_cell_angle_gamma 90.150058
loop_
_atom_site_label
_atom_site_type_symbol
_atom_site_fract_x
_atom_site_fract_y
_atom_site_fract_z
_atom_type_partial_charge
C0 C 0.04761 0.21085 0.25475 0.0
C1 C 0.01894 0.29326 0.3229 0.0
O2 O 0.06626 0.22435 0.27135 0.0
Zn3 Zn 0.0368 0.25013 0.29238 0.0
O4 O 0.02011 0.21708 0.25653 0.0
Zn5 Zn 0.99027 0.24478 0.27884 0.0
O6 O 0.97621 0.26635 0.24379 0.0
O7 O 0.02303 0.27578 0.25549 0.0
O8 O 0.9979 0.28069 0.30846 0.0
O9 O 0.04505 0.28238 0.32157 0.0
O10 O 0.01331 0.2179 0.31711 0.0
O11 O 0.96727 0.21492 0.3006 0.0
C12 C 1.00052 0.28015 0.23881 0.0
C13 C 0.98753 0.20601 0.31813 0.0
C14 C 0.98496 0.79109 0.25554 0.0
C15 C 0.98701 0.7161 0.17863 0.0
O16 O 0.01183 0.78572 0.24751 0.0
Zn17 Zn 0.03361 0.75591 0.21568 0.0
O18 O 0.96351 0.77776 0.24306 0.0
Zn19 Zn 0.98774 0.7559 0.2159 0.0
O20 O 0.00903 0.72517 0.24694 0.0
O21 O 0.05733 0.73278 0.24252 0.0
O22 O 0.96592 0.73117 0.18938 0.0
O23 O 0.0138 0.72246 0.18629 0.0
O24 O 0.05552 0.78294 0.19082 0.0
O25 O 0.00751 0.7913 0.18901 0.0
C26 C 0.03581 0.71948 0.25494 0.0
C27 C 0.03413 0.79872 0.18175 0.0
C28 C 0.32955 0.02871 0.22275 0.0
C29 C 0.25278 0.04405 0.29861 0.0
O30 O 0.31789 0.00444 0.23201 0.0
Zn31 Zn 0.28366 0.99075 0.26232 0.0
O32 O 0.32046 0.0533 0.23307 0.0
Zn33 Zn 0.29112 0.03726 0.26073 0.0
O34 O 0.31726 0.01308 0.29349 0.0
O35 O 0.30508 0.96578 0.28904 0.0
O36 O 0.26735 0.06415 0.28514 0.0
O37 O 0.25727 0.01669 0.29232 0.0
O38 O 0.25349 0.97259 0.23746 0.0
O39 O 0.25762 0.02093 0.23121 0.0
C40 C 0.32023 0.98593 0.30174 0.0
C41 C 0.24514 0.99621 0.22465 0.0
C42 C 0.75818 0.51679 0.22359 0.0
C43 C 0.67849 0.50911 0.29751 0.0
O44 O 0.75155 0.48991 0.23034 0.0
Zn45 Zn 0.71968 0.46656 0.25788 0.0
O46 O 0.74299 0.53805 0.23424 0.0
Zn47 Zn 0.71725 0.51359 0.2589 0.0
O48 O 0.75 0.49352 0.28744 0.0
O49 O 0.74621 0.44475 0.2839 0.0
O50 O 0.69014 0.53256 0.28706 0.0
O51 O 0.68733 0.48378 0.28811 0.0
O52 O 0.69607 0.44463 0.22969 0.0
O53 O 0.68924 0.49287 0.2259 0.0
C54 C 0.75894 0.46752 0.29472 0.0
C55 C 0.68344 0.46639 0.21709 0.0
C56 C 0.21149 0.33076 0.01785 0.0
C57 C 0.28663 0.25299 0.02664 0.0
O58 O 0.221 0.32217 0.99241 0.0
Zn59 Zn 0.25249 0.2901 0.97589 0.0
O60 O 0.22266 0.31987 0.04124 0.0
Zn61 Zn 0.25083 0.29305 0.02247 0.0
O62 O 0.28487 0.32055 0.00175 0.0
O63 O 0.28079 0.31271 0.9537 0.0
O64 O 0.27522 0.2679 0.04771 0.0
O65 O 0.28008 0.25921 0.9997 0.0
O66 O 0.22875 0.26244 0.95372 0.0
O67 O 0.22176 0.26018 0.00227 0.0
C68 C 0.29398 0.32533 0.97513 0.0
C69 C 0.21611 0.25075 0.976 0.0
C70 C 0.22317 0.76231 0.52774 0.0
C71 C 0.30559 0.69308 0.5327 0.0
O72 O 0.22696 0.74897 0.50279 0.0
Zn73 Zn 0.25687 0.71484 0.48511 0.0
O74 O 0.23915 0.75542 0.54986 0.0
Zn75 Zn 0.26212 0.72575 0.52994 0.0
O76 O 0.28577 0.75349 0.49886 0.0
O77 O 0.27712 0.73638 0.4537 0.0
O78 O 0.29366 0.70863 0.55283 0.0
O79 O 0.29394 0.69256 0.50669 0.0
O80 O 0.22952 0.68408 0.47299 0.0
O81 O 0.22962 0.69106 0.52135 0.0
C82 C 0.28955 0.75509 0.47073 0.0
C83 C 0.21916 0.67774 0.49837 0.0
C84 C 0.7081 0.82534 0.52968 0.0
C85 C 0.79071 0.75519 0.5221 0.0
O86 O 0.71494 0.82048 0.50241 0.0
Zn87 Zn 0.74969 0.79589 0.47932 0.0
O88 O 0.72467 0.81487 0.54984 0.0
Zn89 Zn 0.75242 0.79309 0.52531 0.0
O90 O 0.78302 0.82537 0.50635 0.0
O91 O 0.77376 0.8245 0.45857 0.0
O92 O 0.7799 0.76683 0.54539 0.0
O93 O 0.7817 0.76397 0.49655 0.0
O94 O 0.72687 0.76946 0.45484 0.0
O95 O 0.72328 0.76082 0.50307 0.0
C96 C 0.78876 0.83472 0.48005 0.0
C97 C 0.71619 0.75445 0.47617 0.0
C98 C 0.4609 0.78846 0.77353 0.0
C99 C 0.47782 0.70226 0.83866 0.0
O100 O 0.43985 0.77149 0.78223 0.0
Zn101 Zn 0.46487 0.74628 0.80796 0.0
O102 O 0.48744 0.78402 0.78232 0.0
Zn103 Zn 0.51357 0.75579 0.80836 0.0
O104 O 0.53718 0.73716 0.77539 0.0
O105 O 0.48934 0.7267 0.77405 0.0
O106 O 0.50093 0.7173 0.83181 0.0
O107 O 0.45224 0.71101 0.83039 0.0
O108 O 0.4782 0.77697 0.84017 0.0
O109 O 0.52645 0.78513 0.83911 0.0
C110 C 0.51518 0.72431 0.76278 0.0
C111 C 0.50093 0.79074 0.85015 0.0
C112 C 0.4754 0.21381 0.74873 0.0
C113 C 0.50353 0.28814 0.672 0.0
O114 O 0.45621 0.2293 0.73481 0.0
Zn115 Zn 0.48548 0.25045 0.70876 0.0
O116 O 0.50291 0.21709 0.743 0.0
Zn117 Zn 0.53273 0.24101 0.71679 0.0
O118 O 0.55292 0.26335 0.74848 0.0
O119 O 0.50623 0.27665 0.74137 0.0
O120 O 0.52491 0.2741 0.68434 0.0
O121 O 0.47683 0.28149 0.67889 0.0
O122 O 0.50278 0.21416 0.6838 0.0
O123 O 0.55004 0.20767 0.69537 0.0
C124 C 0.5309 0.27986 0.75496 0.0
C125 C 0.52702 0.19962 0.681 0.0
C126 C 0.75398 0.47242 0.71376 0.0
C127 C 0.82983 0.47816 0.78982 0.0
O128 O 0.76043 0.49955 0.71992 0.0
Zn129 Zn 0.79106 0.52257 0.75015 0.0
O130 O 0.76769 0.45135 0.72635 0.0
Zn131 Zn 0.79279 0.4764 0.74969 0.0
O132 O 0.75912 0.49595 0.77838 0.0
O133 O 0.7637 0.5446 0.77497 0.0
O134 O 0.81936 0.45609 0.77589 0.0
O135 O 0.82136 0.50433 0.78258 0.0
O136 O 0.81543 0.54531 0.72338 0.0
O137 O 0.82045 0.49735 0.71601 0.0
C138 C 0.75045 0.52211 0.78562 0.0
C139 C 0.82671 0.52417 0.70862 0.0
C140 C 0.25202 0.04191 0.71939 0.0
C141 C 0.17559 0.02076 0.79447 0.0
O142 O 0.24743 0.01413 0.72327 0.0
Zn143 Zn 0.22008 0.98596 0.75038 0.0
O144 O 0.23681 0.06079 0.7338 0.0
Zn145 Zn 0.21255 0.03198 0.75548 0.0
O146 O 0.24621 0.01307 0.78388 0.0
O147 O 0.25017 0.96547 0.77313 0.0
O148 O 0.18353 0.04602 0.78475 0.0
O149 O 0.18727 0.99733 0.78326 0.0
O150 O 0.19828 0.9633 0.72175 0.0
O151 O 0.18628 0.01065 0.72051 0.0
C152 C 0.25859 0.98782 0.78813 0.0
C153 C 0.18329 0.98414 0.71026 0.0
C154 C 0.7034 0.19228 0.9701 0.0
C155 C 0.78652 0.26144 0.97137 0.0
O156 O 0.71435 0.1943 0.99637 0.0
Zn157 Zn 0.75143 0.21793 0.01689 0.0
O158 O 0.71642 0.20544 0.94891 0.0
Zn159 Zn 0.74772 0.22428 0.97113 0.0
O160 O 0.77841 0.18974 0.98354 0.0
O161 O 0.77883 0.18875 0.03235 0.0
O162 O 0.77304 0.25077 0.94906 0.0
O163 O 0.78075 0.25161 0.9975 0.0
O164 O 0.73062 0.24131 0.04597 0.0
O165 O 0.72364 0.25542 0.99944 0.0
C166 C 0.78865 0.17908 0.00785 0.0
C167 C 0.71918 0.25904 0.02737 0.0
Zn168 Zn 0.07404 0.12019 0.06602 0.0
Zn169 Zn 0.00862 0.00856 0.01897 0.0
Zn170 Zn 0.03573 0.04879 0.03948 0.0
C171 C 0.05091 0.02161 0.97563 0.0
C172 C 0.03359 0.9857 0.06996 0.0
O173 O 0.00526 0.07849 0.06445 0.0
O174 O 0.03153 0.11603 0.05117 0.0
C175 C 0.06693 0.09884 0.00788 0.0
O176 O 0.05376 0.04436 0.99278 0.0
O177 O 0.03378 1.00083 0.98353 0.0
O178 O 0.01171 0.98107 0.05308 0.0
O179 O 0.04868 0.00989 0.06726 0.0
O180 O 0.05107 0.11188 0.027 0.0
O181 O 0.065 0.07051 0.00665 0.0
O182 O 0.06546 0.03917 0.076 0.0
O183 O 0.08895 0.08211 0.08736 0.0
C184 C 0.08496 0.05419 0.09078 0.0
O185 O 0.98795 0.06329 0.04044 0.0
O186 O 0.97042 0.02837 0.01132 0.0
C187 C 0.01475 0.10458 0.07061 0.0
C188 C 0.96656 0.05259 0.0248 0.0
Zn189 Zn 0.99358 0.5035 0.00893 0.0
Zn190 Zn 0.93334 0.43504 0.06559 0.0
Zn191 Zn 0.96496 0.46543 0.03972 0.0
C192 C 0.92691 0.48158 0.09881 0.0
C193 C 0.90709 0.43011 0.0153 0.0
O194 O 0.0121 0.44981 0.04289 0.0
O195 O 0.03059 0.47951 0.00867 0.0
C196 C 0.97366 0.53532 0.05668 0.0
O197 O 0.93887 0.49109 0.07448 0.0
O198 O 0.92712 0.45417 0.10412 0.0
O199 O 0.8973 0.43145 0.04143 0.0
O200 O 0.93317 0.44073 0.00966 0.0
O201 O 0.99282 0.53783 0.03644 0.0
O202 O 0.95914 0.51076 0.05984 0.0
O203 O 0.94964 0.46291 0.99306 0.0
O204 O 0.96776 0.50371 0.97268 0.0
C205 C 0.95169 0.48079 0.97085 0.0
O206 O 0.99315 0.43144 0.06183 0.0
O207 O 0.95725 0.39874 0.06654 0.0
C208 C 0.0341 0.45822 0.02656 0.0
C209 C 0.98433 0.40522 0.06923 0.0
Zn210 Zn 0.00838 0.00236 0.49879 0.0
Zn211 Zn 0.0691 0.94325 0.43355 0.0
Zn212 Zn 0.04042 0.96904 0.46331 0.0
C213 C 0.07944 0.91483 0.48209 0.0
C214 C 0.01838 0.93434 0.40805 0.0
O215 O 0.04137 0.01358 0.4435 0.0
O216 O 0.00777 0.03725 0.47042 0.0
C217 C 0.05607 0.97975 0.53217 0.0
O218 O 0.07228 0.94144 0.4899 0.0
O219 O 0.0729 0.90618 0.4563 0.0
O220 O 0.04336 0.94243 0.39827 0.0
O221 O 0.01243 0.93868 0.4357 0.0
O222 O 0.03762 1.00085 0.53266 0.0
O223 O 0.05866 0.96351 0.50874 0.0
O224 O 0.99487 0.95172 0.45912 0.0
O225 O 0.97344 0.97338 0.49761 0.0
C226 C 0.9723 0.95498 0.47637 0.0
O227 O 0.06793 1.00027 0.43516 0.0
O228 O 0.10471 0.96868 0.43234 0.0
C229 C 0.02474 0.03638 0.44806 0.0
C230 C 0.09536 0.99477 0.429 0.0
Zn231 Zn 0.94669 0.57103 0.43098 0.0
Zn232 Zn 0.9968 0.50651 0.49518 0.0
Zn233 Zn 0.97346 0.54359 0.46149 0.0
C234 C 0.9879 0.47407 0.4444 0.0
C235 C 0.0374 0.55507 0.48495 0.0
O236 O 0.94033 0.57188 0.48705 0.0
O237 O 0.9378 0.60717 0.45344 0.0
C238 C 0.92265 0.52014 0.41936 0.0
O239 O 0.97274 0.49803 0.43973 0.0
O240 O 0.00304 0.47198 0.46786 0.0
O241 O 0.03124 0.53401 0.50248 0.0
O242 O 0.01937 0.5613 0.46371 0.0
O243 O 0.91234 0.54587 0.42249 0.0
O244 O 0.94874 0.51426 0.42962 0.0
O245 O 0.00522 0.57404 0.43771 0.0
O246 O 0.97592 0.5739 0.39888 0.0
C247 C 1.00086 0.57989 0.41003 0.0
O248 O 0.95059 0.54771 0.50512 0.0
O249 O 0.96417 0.50543 0.52574 0.0
C250 C 0.93188 0.59814 0.4792 0.0
C251 C 0.94847 0.52863 0.5264 0.0
Zn252 Zn 0.40826 0.93222 0.56974 0.0
Zn253 Zn 0.49029 0.98798 0.5175 0.0
Zn254 Zn 0.45274 0.95646 0.54918 0.0
C255 C 0.44739 0.97221 0.47825 0.0
C256 C 0.47418 0.02337 0.56556 0.0
O257 O 0.47253 0.92205 0.5778 0.0
O258 O 0.43005 0.90676 0.59714 0.0
C259 C 0.40091 0.9165 0.51455 0.0
O260 O 0.44134 0.9558 0.50096 0.0
O261 O 0.46716 0.992 0.47996 0.0
O262 O 0.49277 0.02283 0.54459 0.0
O263 O 0.45581 0.00161 0.5692 0.0
O264 O 0.3878 0.91149 0.53863 0.0
O265 O 0.42424 0.93338 0.51405 0.0
O266 O 0.42794 0.99016 0.57741 0.0
O267 O 0.38644 0.96548 0.58589 0.0
C268 C 0.40123 0.98912 0.58788 0.0
O269 O 0.49536 0.9337 0.55789 0.0
O270 O 0.52076 0.95527 0.52179 0.0
C271 C 0.45798 0.90544 0.59596 0.0
C272 C 0.51906 0.93569 0.54189 0.0
Zn273 Zn 0.50943 0.51574 0.52057 0.0
Zn274 Zn 0.58783 0.5631 0.5661 0.0
Zn275 Zn 0.55032 0.54219 0.5439 0.0
C276 C 0.60467 0.50969 0.57165 0.0
C277 C 0.59039 0.59117 0.5161 0.0
O278 O 0.51048 0.57009 0.55407 0.0
O279 O 0.4802 0.54834 0.52235 0.0
C280 C 0.52746 0.47618 0.56217 0.0
O281 O 0.57602 0.50938 0.57076 0.0
O282 O 0.61818 0.5319 0.56122 0.0
O283 O 0.59167 0.59946 0.54271 0.0
O284 O 0.57921 0.56542 0.51007 0.0
O285 O 0.50399 0.48126 0.54779 0.0
O286 O 0.54882 0.49537 0.5616 0.0
O287 O 0.56318 0.54256 0.49594 0.0
O288 O 0.53043 0.50893 0.4821 0.0
C289 C 0.55278 0.52482 0.47597 0.0
O290 O 0.53336 0.5764 0.57611 0.0
O291 O 0.57119 0.56906 0.60595 0.0
C292 C 0.48541 0.56933 0.54017 0.0
C293 C 0.54615 0.58064 0.60147 0.0
Zn294 Zn 0.51145 0.48996 0.00342 0.0
Zn295 Zn 0.58312 0.42953 0.94625 0.0
Zn296 Zn 0.54765 0.45863 0.96912 0.0
C297 C 0.60667 0.42776 0.99748 0.0
C298 C 0.53613 0.39784 0.93434 0.0
O299 O 0.54727 0.50389 0.95013 0.0
O300 O 0.51174 0.5252 0.97644 0.0
C301 C 0.55483 0.4709 0.0409 0.0
O302 O 0.57976 0.43704 0.00096 0.0
O303 O 0.61809 0.42838 0.97201 0.0
O304 O 0.56238 0.39125 0.94128 0.0
O305 O 0.52572 0.42327 0.94234 0.0
O306 O 0.53514 0.49077 0.04099 0.0
O307 O 0.56049 0.45627 0.01693 0.0
O308 O 0.50382 0.43859 0.96181 0.0
O309 O 0.47865 0.45959 0.99836 0.0
C310 C 0.47996 0.44095 0.97737 0.0
O311 O 0.57199 0.48796 0.93664 0.0
O312 O 0.58932 0.45141 0.90942 0.0
C313 C 0.5298 0.52601 0.95496 0.0
C314 C 0.58598 0.47885 0.91334 0.0
Zn315 Zn 0.49972 0.01893 0.00154 0.0
Zn316 Zn 0.38177 0.0788 0.94846 0.0
Zn317 Zn 0.45711 0.04441 0.97792 0.0
C318 C 0.44675 0.09877 0.92946 0.0
C319 C 0.40593 0.01865 0.9453 0.0
O320 O 0.44939 0.04476 0.02697 0.0
O321 O 0.48276 0.01276 0.04237 0.0
C322 C 0.51922 0.0739 0.97546 0.0
O323 O 0.46273 0.08122 0.94575 0.0
O324 O 0.41834 0.09874 0.92968 0.0
O325 O 0.39468 0.03732 0.96305 0.0
O326 O 0.43345 0.0128 0.94887 0.0
O327 O 0.52555 0.05405 0.99422 0.0
O328 O 0.49361 0.07355 0.96281 0.0
O329 O 0.45896 0.99788 0.96016 0.0
O330 O 0.50364 0.9839 0.97453 0.0
C331 C 0.4803 0.9788 0.95988 0.0
O332 O 0.43034 0.06552 0.01365 0.0
O333 O 0.39191 0.05704 0.98653 0.0
C334 C 0.46053 0.0289 0.04791 0.0
C335 C 0.40324 0.07156 0.00776 0.0
H336 H 0.99968 0.19733 0.377 0.0
H337 H 0.97125 0.15219 0.29701 0.0
H338 H 0.9796 0.10372 0.32131 0.0
H339 H 0.05602 0.14927 0.39798 0.0
H340 H 0.04857 0.14986 0.43726 0.0
H341 H 0.03861 0.18118 0.41463 0.0
H342 H 0.98398 0.1775 0.4323 0.0
H343 H 0.99393 0.14668 0.45565 0.0
H344 H 0.96443 0.14271 0.42893 0.0
H345 H 0.99872 0.06082 0.35158 0.0
H346 H 0.01464 0.02525 0.3901 0.0
H347 H 0.02455 0.09741 0.45294 0.0
C348 C 0.99418 0.17718 0.36508 0.0
C349 C 0.98435 0.17836 0.33532 0.0
C350 C 0.97804 0.15167 0.32005 0.0
C351 C 0.98313 0.12409 0.33355 0.0
C352 C 0.99384 0.12364 0.36257 0.0
C353 C 0.99818 0.14944 0.37859 0.0
C354 C 0.00918 0.14268 0.40969 0.0
C355 C 0.03992 0.15658 0.41519 0.0
C356 C 0.98652 0.153 0.43303 0.0
C357 C 0.01102 0.1091 0.40842 0.0
C358 C 0.00274 0.09867 0.38078 0.0
C359 C 0.00461 0.06868 0.37349 0.0
C360 C 0.01402 0.04869 0.39537 0.0
C361 C 0.02078 0.05865 0.42438 0.0
C362 C 0.01945 0.08928 0.43091 0.0
H363 H 0.04093 0.31722 0.37594 0.0
H364 H 0.98178 0.33512 0.30221 0.0
H365 H 0.96795 0.38288 0.32466 0.0
H366 H 0.99228 0.34783 0.43197 0.0
H367 H 0.02176 0.36347 0.45407 0.0
H368 H 0.02859 0.33108 0.43167 0.0
H369 H 0.07209 0.35816 0.4055 0.0
H370 H 0.06545 0.39058 0.42791 0.0
H371 H 0.06557 0.39351 0.38804 0.0
H372 H 0.96071 0.42929 0.3543 0.0
H373 H 0.95916 0.47018 0.39052 0.0
H374 H 0.01963 0.42178 0.44754 0.0
C375 C 0.02532 0.33138 0.36449 0.0
C376 C 0.01251 0.32237 0.33722 0.0
C377 C 0.9918 0.34138 0.32315 0.0
C378 C 0.98382 0.36867 0.33568 0.0
C379 C 0.9964 0.3768 0.36266 0.0
C380 C 0.01656 0.35872 0.37708 0.0
C381 C 0.02567 0.37253 0.40652 0.0
C382 C 0.01653 0.35254 0.4326 0.0
C383 C 0.05919 0.37908 0.40701 0.0
C384 C 0.00764 0.40107 0.40615 0.0
C385 C 0.9911 0.40313 0.38051 0.0
C386 C 0.97329 0.42774 0.37467 0.0
C387 C 0.97231 0.45086 0.39559 0.0
C388 C 0.98856 0.44918 0.42241 0.0
C389 C 0.00651 0.42378 0.42754 0.0
H390 H 0.99421 0.84109 0.16293 0.0
H391 H 0.08819 0.81996 0.16319 0.0
H392 H 0.09912 0.86749 0.13828 0.0
H393 H 0.99294 0.87527 0.09126 0.0
H394 H 0.96641 0.90322 0.10188 0.0
H395 H 0.96642 0.86783 0.12032 0.0
H396 H 0.97196 0.89452 0.17098 0.0
H397 H 0.97241 0.92999 0.15261 0.0
H398 H 0.00256 0.91973 0.17674 0.0
H399 H 0.09971 0.91767 0.11195 0.0
H400 H 0.08892 0.96368 0.08373 0.0
H401 H 0.9951 0.95202 0.10168 0.0
C402 C 0.01709 0.84635 0.15766 0.0
C403 C 0.04029 0.8266 0.16503 0.0
C404 C 0.06994 0.83457 0.15776 0.0
C405 C 0.07644 0.86166 0.14372 0.0
C406 C 0.05309 0.88076 0.13708 0.0
C407 C 0.02399 0.87334 0.14366 0.0
C408 C 0.00286 0.89735 0.13351 0.0
C409 C 0.98087 0.88519 0.11036 0.0
C410 C 0.98649 0.91121 0.16004 0.0
C411 C 0.02452 0.9192 0.11978 0.0
C412 C 0.05347 0.90948 0.12228 0.0
C413 C 0.07712 0.92561 0.11017 0.0
C414 C 0.0709 0.95188 0.09444 0.0
C415 C 0.0413 0.96178 0.09114 0.0
C416 C 0.01802 0.9453 0.10435 0.0
H417 H 0.02406 0.67079 0.15978 0.0
H418 H 0.93363 0.70332 0.15306 0.0
H419 H 0.91997 0.65973 0.12309 0.0
H420 H 0.02855 0.64081 0.08535 0.0
H421 H 0.04998 0.60893 0.09627 0.0
H422 H 0.0528 0.64293 0.11709 0.0
H423 H 0.03882 0.61456 0.16508 0.0
H424 H 0.03565 0.58052 0.14433 0.0
H425 H 0.00481 0.59341 0.16631 0.0
H426 H 0.91588 0.61298 0.09307 0.0
H427 H 0.92276 0.56706 0.0637 0.0
H428 H 0.01473 0.56334 0.09107 0.0
C429 C 1.00148 0.66887 0.15178 0.0
C430 C 0.97998 0.69062 0.15881 0.0
C431 C 0.95057 0.68704 0.14807 0.0
C432 C 0.94251 0.66228 0.13103 0.0
C433 C 0.96403 0.64105 0.12488 0.0
C434 C 0.99295 0.6441 0.13477 0.0
C435 C 0.01171 0.61797 0.12489 0.0
C436 C 0.03727 0.62828 0.1047 0.0
C437 C 0.02343 0.60059 0.15176 0.0
C438 C 0.98888 0.6 0.10776 0.0
C439 C 0.96146 0.61365 0.10817 0.0
C440 C 0.9371 0.60177 0.0931 0.0
C441 C 0.94095 0.57538 0.07697 0.0
C442 C 0.96874 0.56097 0.07642 0.0
C443 C 0.99301 0.57356 0.09189 0.0
H444 H 0.33881 0.06431 0.17373 0.0
H445 H 0.37459 0.98919 0.22176 0.0
H446 H 0.41419 0.98394 0.18424 0.0
H447 H 0.34941 0.03278 0.10207 0.0
H448 H 0.35892 0.0672 0.08403 0.0
H449 H 0.33524 0.06739 0.11622 0.0
H450 H 0.37115 0.10405 0.14227 0.0
H451 H 0.39489 0.10382 0.11007 0.0
H452 H 0.40984 0.09453 0.14594 0.0
H453 H 0.4488 0.98552 0.14123 0.0
H454 H 0.47418 0.99118 0.09321 0.0
H455 H 0.41446 0.06309 0.07053 0.0
C456 C 0.35538 0.04718 0.17654 0.0
C457 C 0.35399 0.02737 0.20084 0.0
C458 C 0.37544 0.00465 0.20339 0.0
C459 C 0.39805 0.00157 0.18226 0.0
C460 C 0.3987 0.02112 0.15837 0.0
C461 C 0.37782 0.04334 0.15514 0.0
C462 C 0.38228 0.05967 0.12597 0.0
C463 C 0.35483 0.05656 0.10589 0.0
C464 C 0.39 0.09246 0.1314 0.0
C465 C 0.40867 0.04294 0.11333 0.0
C466 C 0.41802 0.02116 0.13266 0.0
C467 C 0.44173 0.00256 0.12591 0.0
C468 C 0.45605 0.00601 0.09851 0.0
C469 C 0.44646 0.02764 0.07783 0.0
C470 C 0.42254 0.04646 0.08564 0.0
H471 H 0.66325 0.50703 0.17648 0.0
H472 H 0.65656 0.41419 0.20107 0.0
H473 H 0.62202 0.40557 0.15936 0.0
H474 H 0.58724 0.51697 0.15354 0.0
H475 H 0.59661 0.5407 0.12275 0.0
H476 H 0.62018 0.53975 0.155 0.0
H477 H 0.66529 0.52647 0.12187 0.0
H478 H 0.64188 0.52743 0.08952 0.0
H479 H 0.66316 0.49464 0.09771 0.0
H480 H 0.58715 0.40734 0.11558 0.0
H481 H 0.55693 0.41899 0.07118 0.0
H482 H 0.5887 0.50961 0.07319 0.0
C483 C 0.65438 0.48492 0.17323 0.0
C484 C 0.66248 0.46131 0.1922 0.0
C485 C 0.65067 0.43263 0.18688 0.0
C486 C 0.63098 0.42753 0.16328 0.0
C487 C 0.62348 0.45127 0.145 0.0
C488 C 0.63497 0.47936 0.14956 0.0
C489 C 0.62409 0.50084 0.12612 0.0
C490 C 0.60595 0.52605 0.1402 0.0
C491 C 0.65016 0.51305 0.10772 0.0
C492 C 0.60455 0.48049 0.10774 0.0
C493 C 0.60439 0.45201 0.11911 0.0
C494 C 0.58754 0.42943 0.10623 0.0
C495 C 0.57081 0.43606 0.08084 0.0
C496 C 0.57155 0.46472 0.06829 0.0
C497 C 0.58817 0.48736 0.08222 0.0
H498 H 0.34615 0.02344 0.34236 0.0
H499 H 0.34019 0.93072 0.31693 0.0
H500 H 0.3733 0.91737 0.35843 0.0
H501 H 0.42309 0.02305 0.36537 0.0
H502 H 0.41697 0.04759 0.39635 0.0
H503 H 0.39363 0.05001 0.36401 0.0
H504 H 0.34696 0.04266 0.3969 0.0
H505 H 0.37014 0.04024 0.42932 0.0
H506 H 0.34453 0.01067 0.42074 0.0
H507 H 0.40757 0.9141 0.40247 0.0
H508 H 0.43868 0.92135 0.44726 0.0
H509 H 0.42001 0.01535 0.44575 0.0
C510 C 0.35201 1.00036 0.34535 0.0
C511 C 0.3407 0.97814 0.32625 0.0
C512 C 0.34859 0.94814 0.33122 0.0
C513 C 0.36744 0.94033 0.3547 0.0
C514 C 0.37811 0.96275 0.37316 0.0
C515 C 0.37058 0.99213 0.36886 0.0
C516 C 0.38423 0.01179 0.39253 0.0
C517 C 0.40576 0.03445 0.37873 0.0
C518 C 0.36002 0.02725 0.41096 0.0
C519 C 0.40069 0.98889 0.41075 0.0
C520 C 0.39696 0.96074 0.39912 0.0
C521 C 0.41024 0.93599 0.41198 0.0
C522 C 0.42741 0.94012 0.43762 0.0
C523 C 0.43063 0.96853 0.4504 0.0
C524 C 0.41758 0.9933 0.43647 0.0
H525 H 0.67216 0.54841 0.34431 0.0
H526 H 0.63181 0.47157 0.30249 0.0
H527 H 0.59376 0.46992 0.34179 0.0
H528 H 0.66338 0.5213 0.41763 0.0
H529 H 0.65614 0.55684 0.4343 0.0
H530 H 0.6782 0.55463 0.40114 0.0
H531 H 0.64271 0.59109 0.37482 0.0
H532 H 0.6203 0.59352 0.40786 0.0
H533 H 0.60356 0.58279 0.37316 0.0
H534 H 0.5617 0.4747 0.38589 0.0
H535 H 0.53811 0.48395 0.43398 0.0
H536 H 0.59902 0.55684 0.44997 0.0
C537 C 0.65487 0.53172 0.34317 0.0
C538 C 0.65466 0.5103 0.32015 0.0
C539 C 0.63228 0.48822 0.31983 0.0
C540 C 0.61052 0.48717 0.34201 0.0
C541 C 0.61156 0.50817 0.36465 0.0
C542 C 0.63314 0.53 0.36559 0.0
C543 C 0.63048 0.54814 0.39397 0.0
C544 C 0.65871 0.54503 0.41287 0.0
C545 C 0.62387 0.58082 0.38703 0.0
C546 C 0.604 0.53308 0.40867 0.0
C547 C 0.59345 0.51026 0.3911 0.0
C548 C 0.56967 0.49259 0.39981 0.0
C549 C 0.55638 0.49813 0.42731 0.0
C550 C 0.56684 0.52112 0.44619 0.0
C551 C 0.59082 0.53899 0.4364 0.0
H552 H 0.1567 0.32875 0.04543 0.0
H553 H 0.21464 0.3851 0.99312 0.0
H554 H 0.17682 0.42469 0.99393 0.0
H555 H 0.09011 0.34932 0.00714 0.0
H556 H 0.06643 0.34803 0.03938 0.0
H557 H 0.09903 0.32504 0.03759 0.0
H558 H 0.11768 0.34763 0.08707 0.0
H559 H 0.08501 0.37056 0.08881 0.0
H560 H 0.12135 0.38733 0.09047 0.0
H561 H 0.13373 0.45753 0.99948 0.0
H562 H 0.0851 0.48103 0.00437 0.0
H563 H 0.05115 0.40282 0.04941 0.0
C564 C 0.16143 0.34967 0.03461 0.0
C565 C 0.18874 0.35426 0.0196 0.0
C566 C 0.19397 0.38141 0.0049 0.0
C567 C 0.17268 0.404 0.00536 0.0
C568 C 0.14596 0.39889 0.02018 0.0
C569 C 0.13994 0.37232 0.03421 0.0
C570 C 0.10824 0.37202 0.04619 0.0
C571 C 0.08987 0.34713 0.0317 0.0
C572 C 0.10808 0.36923 0.08016 0.0
C573 C 0.09747 0.40249 0.03647 0.0
C574 C 0.11997 0.4176 0.02201 0.0
C575 C 0.1159 0.44591 0.01068 0.0
C576 C 0.08799 0.45905 0.01356 0.0
C577 C 0.06396 0.44391 0.02734 0.0
C578 C 0.06899 0.41526 0.03927 0.0
H579 H 0.18158 0.6572 0.45449 0.0
H580 H 0.19868 0.65158 0.54908 0.0
H581 H 0.15448 0.6197 0.55503 0.0
H582 H 0.10244 0.66202 0.46061 0.0
H583 H 0.09534 0.6402 0.42789 0.0
H584 H 0.12911 0.66137 0.43074 0.0
H585 H 0.15943 0.61349 0.4211 0.0
H586 H 0.12546 0.59245 0.41836 0.0
H587 H 0.15365 0.58161 0.44454 0.0
H588 H 0.10855 0.58962 0.5513 0.0
H589 H 0.06302 0.56249 0.53854 0.0
H590 H 0.07356 0.58755 0.44617 0.0
C591 C 0.17628 0.64889 0.47639 0.0
C592 C 0.1938 0.65676 0.50134 0.0
C593 C 0.18573 0.64584 0.52966 0.0
C594 C 0.16064 0.62771 0.53325 0.0
C595 C 0.14364 0.62078 0.50835 0.0
C596 C 0.15105 0.63092 0.48044 0.0
C597 C 0.12822 0.62091 0.45763 0.0
C598 C 0.11288 0.64776 0.4434 0.0
C599 C 0.14255 0.60092 0.43401 0.0
C600 C 0.10682 0.60351 0.47711 0.0
C601 C 0.11639 0.60376 0.50626 0.0
C602 C 0.10085 0.58923 0.52857 0.0
C603 C 0.07497 0.5738 0.521 0.0
C604 C 0.06449 0.57295 0.49133 0.0
C605 C 0.08064 0.58821 0.46908 0.0
H606 H 0.82784 0.86005 0.52034 0.0
H607 H 0.80761 0.85557 0.42628 0.0
H608 H 0.85174 0.88605 0.41536 0.0
H609 H 0.85511 0.93664 0.51988 0.0
H610 H 0.88387 0.92943 0.54669 0.0
H611 H 0.85004 0.90801 0.54733 0.0
H612 H 0.88065 0.8596 0.54351 0.0
H613 H 0.91455 0.88087 0.54267 0.0
H614 H 0.90645 0.85498 0.51326 0.0
H615 H 0.89958 0.915 0.41409 0.0
H616 H 0.9461 0.94291 0.42324 0.0
H617 H 0.93536 0.92971 0.51783 0.0
C618 C 0.83247 0.86577 0.49748 0.0
C619 C 0.81406 0.85533 0.4742 0.0
C620 C 0.82117 0.86326 0.44457 0.0
C621 C 0.8463 0.88056 0.43809 0.0
C622 C 0.86419 0.89007 0.46144 0.0
C623 C 0.85748 0.88324 0.49058 0.0
C624 C 0.88063 0.89612 0.51146 0.0
C625 C 0.86657 0.91891 0.53259 0.0
C626 C 0.89651 0.87141 0.52874 0.0
C627 C 0.90146 0.911 0.48949 0.0
C628 C 0.89161 0.90711 0.46073 0.0
C629 C 0.90746 0.91822 0.43654 0.0
C630 C 0.93399 0.93378 0.44188 0.0
C631 C 0.94453 0.93804 0.47112 0.0
C632 C 0.92782 0.92672 0.49521 0.0
H633 H 0.32455 0.63853 0.51304 0.0
H634 H 0.35156 0.71461 0.56539 0.0
H635 H 0.40095 0.69198 0.57321 0.0
H636 H 0.36139 0.58433 0.56009 0.0
H637 H 0.37115 0.56054 0.52946 0.0
H638 H 0.33839 0.58328 0.52739 0.0
H639 H 0.35782 0.60663 0.47854 0.0
H640 H 0.39067 0.58405 0.48054 0.0
H641 H 0.39402 0.6238 0.47793 0.0
H642 H 0.44951 0.66239 0.57112 0.0
H643 H 0.48984 0.62546 0.56517 0.0
H644 H 0.42814 0.56624 0.5208 0.0
C645 C 0.34088 0.65032 0.52619 0.0
C646 C 0.33436 0.67834 0.5385 0.0
C647 C 0.35612 0.69302 0.55588 0.0
C648 C 0.38428 0.68043 0.56031 0.0
C649 C 0.39014 0.65278 0.5478 0.0
C650 C 0.36879 0.63764 0.53162 0.0
C651 C 0.38017 0.60767 0.52171 0.0
C652 C 0.36168 0.58247 0.53549 0.0
C653 C 0.3807 0.60542 0.48766 0.0
C654 C 0.41131 0.6085 0.5344 0.0
C655 C 0.41693 0.63483 0.54899 0.0
C656 C 0.44502 0.64127 0.56058 0.0
C657 C 0.46773 0.62002 0.55752 0.0
C658 C 0.46195 0.59227 0.54398 0.0
C659 C 0.43331 0.58683 0.53208 0.0
H660 H 0.46887 0.68211 0.89582 0.0
H661 H 0.50046 0.65623 0.80881 0.0
H662 H 0.51879 0.60887 0.82926 0.0
H663 H 0.52943 0.65312 0.93625 0.0
H664 H 0.50787 0.64 0.9673 0.0
H665 H 0.49494 0.671 0.94575 0.0
H666 H 0.4452 0.64384 0.93552 0.0
H667 H 0.45774 0.61304 0.95759 0.0
H668 H 0.44573 0.607 0.91993 0.0
H669 H 0.53619 0.56566 0.85942 0.0
H670 H 0.54681 0.52701 0.89649 0.0
H671 H 0.50518 0.58084 0.96455 0.0
C672 C 0.4788 0.66597 0.88106 0.0
C673 C 0.48267 0.6723 0.85064 0.0
C674 C 0.49675 0.6513 0.83205 0.0
C675 C 0.50745 0.62451 0.8435 0.0
C676 C 0.50403 0.6191 0.8737 0.0
C677 C 0.48969 0.63898 0.89221 0.0
C678 C 0.48962 0.62783 0.92396 0.0
C679 C 0.50647 0.64927 0.94452 0.0
C680 C 0.45768 0.62261 0.93489 0.0
C681 C 0.50625 0.59879 0.92034 0.0
C682 C 0.5145 0.59428 0.89121 0.0
C683 C 0.52994 0.56898 0.88236 0.0
C684 C 0.53635 0.54729 0.90372 0.0
C685 C 0.5275 0.551 0.93362 0.0
C686 C 0.51257 0.57738 0.94195 0.0
H687 H 0.53817 0.83746 0.86768 0.0
H688 H 0.45017 0.79998 0.88112 0.0
H689 H 0.43545 0.84404 0.90923 0.0
H690 H 0.54251 0.87222 0.94252 0.0
H691 H 0.56222 0.90433 0.92903 0.0
H692 H 0.56667 0.86904 0.91078 0.0
H693 H 0.55118 0.89308 0.86101 0.0
H694 H 0.54618 0.9283 0.8792 0.0
H695 H 0.51605 0.912 0.8585 0.0
H696 H 0.42769 0.89423 0.931 0.0
H697 H 0.43079 0.94429 0.95344 0.0
H698 H 0.52422 0.94873 0.9304 0.0
C699 C 0.51609 0.83823 0.87716 0.0
C700 C 0.49536 0.81514 0.87181 0.0
C701 C 0.46654 0.8173 0.88452 0.0
C702 C 0.4578 0.84237 0.90054 0.0
C703 C 0.47819 0.86519 0.90436 0.0
C704 C 0.50698 0.86316 0.8938 0.0
C705 C 0.52437 0.89105 0.90156 0.0
C706 C 0.55049 0.88372 0.9222 0.0
C707 C 0.53507 0.90704 0.87338 0.0
C708 C 0.50069 0.90898 0.91761 0.0
C709 C 0.47409 0.89377 0.91854 0.0
C710 C 0.44853 0.90623 0.93085 0.0
C711 C 0.45038 0.93474 0.94331 0.0
C712 C 0.47768 0.95027 0.94374 0.0
C713 C 0.50308 0.93721 0.93055 0.0
H714 H 0.46755 0.33422 0.652 0.0
H715 H 0.55735 0.29967 0.64707 0.0
H716 H 0.57313 0.34373 0.61912 0.0
H717 H 0.4674 0.36787 0.5776 0.0
H718 H 0.44621 0.39966 0.58932 0.0
H719 H 0.44142 0.36459 0.60788 0.0
H720 H 0.45338 0.38982 0.65812 0.0
H721 H 0.45855 0.42487 0.63967 0.0
H722 H 0.48781 0.40988 0.66238 0.0
H723 H 0.58037 0.39279 0.59376 0.0
H724 H 0.577 0.44185 0.56937 0.0
H725 H 0.48307 0.44525 0.59013 0.0
C726 C 0.49037 0.33568 0.64456 0.0
C727 C 0.51113 0.31328 0.65184 0.0
C728 C 0.54092 0.31639 0.64194 0.0
C729 C 0.55021 0.34145 0.62602 0.0
C730 C 0.52951 0.36343 0.61989 0.0
C731 C 0.50012 0.36072 0.6285 0.0
C732 C 0.48259 0.38794 0.61926 0.0
C733 C 0.45795 0.37951 0.5972 0.0
C734 C 0.46984 0.40407 0.64648 0.0
C735 C 0.50675 0.40627 0.60438 0.0
C736 C 0.53369 0.39176 0.60511 0.0
C737 C 0.55937 0.40439 0.59308 0.0
C738 C 0.55739 0.43242 0.5796 0.0
C739 C 0.53001 0.44764 0.57839 0.0
C740 C 0.50439 0.43423 0.59091 0.0
H741 H 0.50775 0.18727 0.62465 0.0
H742 H 0.54032 0.14639 0.70518 0.0
H743 H 0.52632 0.09693 0.6857 0.0
H744 H 0.44635 0.14047 0.61186 0.0
H745 H 0.45087 0.13814 0.5722 0.0
H746 H 0.46387 0.17043 0.59191 0.0
H747 H 0.51683 0.1632 0.5706 0.0
H748 H 0.50377 0.13141 0.55016 0.0
H749 H 0.535 0.12788 0.57488 0.0
H750 H 0.50347 0.05268 0.65964 0.0
H751 H 0.48536 0.01505 0.62386 0.0
H752 H 0.47307 0.0837 0.55789 0.0
C753 C 0.51268 0.16776 0.63773 0.0
C754 C 0.52548 0.17046 0.66621 0.0
C755 C 0.53117 0.14462 0.68302 0.0
C756 C 0.52288 0.11653 0.67232 0.0
C757 C 0.5095 0.11464 0.64449 0.0
C758 C 0.50543 0.13943 0.62695 0.0
C759 C 0.49186 0.1311 0.59728 0.0
C760 C 0.46144 0.14592 0.59309 0.0
C761 C 0.51314 0.13885 0.57172 0.0
C762 C 0.48862 0.09781 0.601 0.0
C763 C 0.49819 0.08889 0.62872 0.0
C764 C 0.49629 0.05936 0.63776 0.0
C765 C 0.48564 0.03821 0.61747 0.0
C766 C 0.4776 0.04661 0.58835 0.0
C767 C 0.47878 0.07683 0.58017 0.0
H768 H 0.85324 0.48437 0.67021 0.0
H769 H 0.8423 0.57864 0.68667 0.0
H770 H 0.87101 0.58984 0.64145 0.0
H771 H 0.92849 0.48887 0.64239 0.0
H772 H 0.92304 0.46045 0.61478 0.0
H773 H 0.90162 0.4598 0.64852 0.0
H774 H 0.85305 0.45912 0.61776 0.0
H775 H 0.87432 0.45998 0.58391 0.0
H776 H 0.84657 0.48789 0.59081 0.0
H777 H 0.90075 0.59105 0.5941 0.0
H778 H 0.93134 0.58164 0.54954 0.0
H779 H 0.92281 0.48712 0.56318 0.0
C780 C 0.85701 0.50738 0.66443 0.0
C781 C 0.84546 0.5306 0.68216 0.0
C782 C 0.85089 0.5604 0.67361 0.0
C783 C 0.86714 0.56703 0.64786 0.0
C784 C 0.87794 0.54366 0.63077 0.0
C785 C 0.87328 0.51443 0.63876 0.0
C786 C 0.88752 0.4935 0.61655 0.0
C787 C 0.9116 0.47454 0.63145 0.0
C788 C 0.86395 0.47397 0.60136 0.0
C789 C 0.90099 0.51554 0.59491 0.0
C790 C 0.89502 0.54436 0.60344 0.0
C791 C 0.90529 0.56855 0.5871 0.0
C792 C 0.92229 0.56311 0.56155 0.0
C793 C 0.92884 0.53389 0.55239 0.0
C794 C 0.918 0.5098 0.56945 0.0
H795 H 0.15438 0.02389 0.67363 0.0
H796 H 0.16717 0.92969 0.68872 0.0
H797 H 0.13565 0.91834 0.64547 0.0
H798 H 0.07759 0.01923 0.6496 0.0
H799 H 0.08173 0.04758 0.62172 0.0
H800 H 0.10466 0.04838 0.65443 0.0
H801 H 0.15184 0.049 0.6215 0.0
H802 H 0.12905 0.04814 0.5887 0.0
H803 H 0.15708 0.02021 0.59422 0.0
H804 H 0.10272 0.91698 0.60018 0.0
H805 H 0.07138 0.92622 0.556 0.0
H806 H 0.08105 0.02093 0.56927 0.0
C807 C 0.15036 1.00087 0.66801 0.0
C808 C 0.16326 0.9777 0.68477 0.0
C809 C 0.15761 0.94788 0.67635 0.0
C810 C 0.13968 0.94117 0.65178 0.0
C811 C 0.1275 0.96447 0.63563 0.0
C812 C 0.13259 0.99374 0.64337 0.0
C813 C 0.11735 0.0146 0.62186 0.0
C814 C 0.09394 0.03356 0.63786 0.0
C815 C 0.1402 0.03414 0.60561 0.0
C816 C 0.10293 0.99251 0.60088 0.0
C817 C 0.10902 0.9637 0.60924 0.0
C818 C 0.09803 0.93948 0.59331 0.0
C819 C 0.08051 0.94488 0.56811 0.0
C820 C 0.07452 0.97419 0.5588 0.0
C821 C 0.08556 0.99825 0.57572 0.0
H822 H 0.84992 0.51908 0.83075 0.0
H823 H 0.85629 0.42617 0.80609 0.0
H824 H 0.88862 0.41706 0.84919 0.0
H825 H 0.92575 0.52735 0.85723 0.0
H826 H 0.91551 0.55141 0.88749 0.0
H827 H 0.89365 0.55094 0.85404 0.0
H828 H 0.84653 0.53902 0.88488 0.0
H829 H 0.86827 0.53933 0.9184 0.0
H830 H 0.84636 0.50715 0.90901 0.0
H831 H 0.91988 0.41768 0.89524 0.0
H832 H 0.94808 0.42852 0.94113 0.0
H833 H 0.92023 0.52021 0.93715 0.0
C834 C 0.85836 0.49689 0.83423 0.0
C835 C 0.8506 0.47337 0.81491 0.0
C836 C 0.8619 0.44458 0.8205 0.0
C837 C 0.88031 0.43916 0.84495 0.0
C838 C 0.88726 0.46271 0.86371 0.0
C839 C 0.87671 0.49102 0.85866 0.0
C840 C 0.88704 0.51225 0.88268 0.0
C841 C 0.90666 0.53694 0.86957 0.0
C842 C 0.86046 0.52519 0.89975 0.0
C843 C 0.90497 0.49142 0.90201 0.0
C844 C 0.9048 0.46294 0.89064 0.0
C845 C 0.91985 0.43982 0.90453 0.0
C846 C 0.93535 0.44597 0.93082 0.0
C847 C 0.93534 0.47477 0.94313 0.0
C848 C 0.92029 0.49787 0.92829 0.0
H849 H 0.15949 0.06187 0.83776 0.0
H850 H 0.14223 0.97219 0.8069 0.0
H851 H 0.10807 0.96425 0.8487 0.0
H852 H 0.16015 0.04337 0.91495 0.0
H853 H 0.14222 0.07679 0.92738 0.0
H854 H 0.16403 0.07717 0.89391 0.0
H855 H 0.11911 0.09718 0.86445 0.0
H856 H 0.09731 0.09736 0.89799 0.0
H857 H 0.08423 0.0775 0.8658 0.0
H858 H 0.0777 0.96453 0.8938 0.0
H859 H 0.05175 0.97266 0.94068 0.0
H860 H 0.08707 0.06238 0.94498 0.0
C861 C 0.14811 0.04077 0.8396 0.0
C862 C 0.15349 0.01766 0.81885 0.0
C863 C 0.13858 0.99019 0.8224 0.0
C864 C 0.11904 0.98547 0.84609 0.0
C865 C 0.11459 0.00836 0.86634 0.0
C866 C 0.12854 0.03551 0.86349 0.0
C867 C 0.12056 0.05564 0.88951 0.0
C868 C 0.14842 0.06371 0.90749 0.0
C869 C 0.10433 0.08358 0.87879 0.0
C870 C 0.0999 0.0355 0.90722 0.0
C871 C 0.09695 0.00839 0.89319 0.0
C872 C 0.07971 0.9857 0.90496 0.0
C873 C 0.06498 0.99067 0.93178 0.0
C874 C 0.06734 0.01819 0.94698 0.0
C875 C 0.08504 0.04101 0.9343 0.0
H876 H 0.67183 0.85908 0.49369 0.0
H877 H 0.68024 0.82647 0.58378 0.0
H878 H 0.63209 0.84928 0.59664 0.0
H879 H 0.63947 0.92971 0.51363 0.0
H880 H 0.61534 0.93069 0.48177 0.0
H881 H 0.6502 0.91131 0.47977 0.0
H882 H 0.62248 0.86352 0.46362 0.0
H883 H 0.58751 0.8827 0.46583 0.0
H884 H 0.59306 0.84904 0.48661 0.0
H885 H 0.58117 0.87463 0.59914 0.0
H886 H 0.53539 0.90436 0.59202 0.0
H887 H 0.56185 0.922 0.50122 0.0
C888 C 0.66363 0.85681 0.51615 0.0
C889 C 0.67996 0.84089 0.53767 0.0
C890 C 0.66834 0.83863 0.56687 0.0
C891 C 0.64085 0.8514 0.57438 0.0
C892 C 0.62519 0.8667 0.55258 0.0
C893 C 0.6364 0.86978 0.52416 0.0
C894 C 0.61568 0.88806 0.50505 0.0
C895 C 0.63109 0.91664 0.49444 0.0
C896 C 0.604 0.86973 0.47872 0.0
C897 C 0.59111 0.89475 0.52708 0.0
C898 C 0.59671 0.88198 0.55432 0.0
C899 C 0.5767 0.88486 0.57791 0.0
C900 C 0.55065 0.90165 0.57367 0.0
C901 C 0.54501 0.91569 0.54617 0.0
C902 C 0.56554 0.91181 0.52264 0.0
H903 H 0.6746 0.15267 0.00661 0.0
H904 H 0.66686 0.19705 0.92167 0.0
H905 H 0.61768 0.17377 0.91402 0.0
H906 H 0.64097 0.0839 0.98267 0.0
H907 H 0.62297 0.07746 0.0178 0.0
H908 H 0.6572 0.09813 0.01635 0.0
H909 H 0.63179 0.1419 0.04366 0.0
H910 H 0.59742 0.12145 0.04492 0.0
H911 H 0.59845 0.15784 0.02841 0.0
H912 H 0.5676 0.14566 0.91653 0.0
H913 H 0.52486 0.11233 0.92738 0.0
H914 H 0.56719 0.08639 0.00969 0.0
C915 C 0.66262 0.15747 0.98637 0.0
C916 C 0.67467 0.17675 0.9648 0.0
C917 C 0.65824 0.18223 0.93851 0.0
C918 C 0.63015 0.16923 0.934 0.0
C919 C 0.61878 0.15051 0.95586 0.0
C920 C 0.63476 0.1444 0.98135 0.0
C921 C 0.61824 0.12282 0.00103 0.0
C922 C 0.63589 0.09387 0.00466 0.0
C923 C 0.61105 0.13686 0.03129 0.0
C924 C 0.59038 0.11793 0.98285 0.0
C925 C 0.59081 0.13412 0.95692 0.0
C926 C 0.56717 0.13279 0.93677 0.0
C927 C 0.54288 0.11393 0.94311 0.0
C928 C 0.5426 0.0965 0.9692 0.0
C929 C 0.56661 0.09914 0.98935 0.0
H930 H 0.32793 0.35678 0.01538 0.0
H931 H 0.3217 0.33439 0.92188 0.0
H932 H 0.36865 0.36092 0.91242 0.0
H933 H 0.35852 0.4308 0.00464 0.0
H934 H 0.38248 0.42852 0.03655 0.0
H935 H 0.34802 0.40816 0.0359 0.0
H936 H 0.37664 0.35948 0.04627 0.0
H937 H 0.41121 0.37966 0.04672 0.0
H938 H 0.40646 0.34865 0.02189 0.0
H939 H 0.41746 0.38831 0.91323 0.0
H940 H 0.46255 0.41775 0.92406 0.0
H941 H 0.43699 0.42298 0.01653 0.0
C942 C 0.33628 0.35768 0.99287 0.0
C943 C 0.321 0.34344 0.9694 0.0
C944 C 0.33283 0.34514 0.94027 0.0
C945 C 0.3596 0.3601 0.93464 0.0
C946 C 0.37429 0.37348 0.95831 0.0
C947 C 0.36293 0.37271 0.98679 0.0
C948 C 0.38313 0.38903 0.00823 0.0
C949 C 0.36707 0.41572 0.02214 0.0
C950 C 0.39506 0.36794 0.03219 0.0
C951 C 0.40764 0.39896 0.98736 0.0
C952 C 0.40222 0.38958 0.9587 0.0
C953 C 0.42193 0.39573 0.93562 0.0
C954 C 0.4477 0.41216 0.94197 0.0
C955 C 0.45354 0.4223 0.97107 0.0
C956 C 0.43313 0.41555 0.994 0.0
H957 H 0.83395 0.17082 0.04816 0.0
H958 H 0.79785 0.13727 0.96541 0.0
H959 H 0.8386 0.10088 0.96242 0.0
H960 H 0.91045 0.16603 0.02561 0.0
H961 H 0.9242 0.15527 0.06155 0.0
H962 H 0.89115 0.17752 0.05871 0.0
H963 H 0.86192 0.13863 0.08933 0.0
H964 H 0.89492 0.1163 0.09234 0.0
H965 H 0.86134 0.10049 0.07727 0.0
H966 H 0.88207 0.06852 0.96799 0.0
H967 H 0.92846 0.04302 0.97956 0.0
H968 H 0.94035 0.09871 0.05745 0.0
C969 C 0.83448 0.15549 0.02966 0.0
C970 C 0.81252 0.15655 0.00714 0.0
C971 C 0.81432 0.13671 0.98291 0.0
C972 C 0.83735 0.11596 0.98107 0.0
C973 C 0.85873 0.11562 0.00341 0.0
C974 C 0.8578 0.13496 0.02713 0.0
C975 C 0.88473 0.13073 0.04714 0.0
C976 C 0.90375 0.15908 0.04831 0.0
C977 C 0.87515 0.12095 0.07837 0.0
C978 C 0.90082 0.10591 0.03093 0.0
C979 C 0.88504 0.0975 0.00598 0.0
C980 C 0.89466 0.07491 0.98742 0.0
C981 C 0.92113 0.06047 0.99435 0.0
C982 C 0.93822 0.06869 0.01954 0.0
C983 C 0.9279 0.09191 0.03806 0.0
H984 H 0.05409 0.22237 0.19649 0.0
H985 H 0.05357 0.15104 0.26046 0.0
H986 H 0.04623 0.11462 0.21985 0.0
H987 H 0.99682 0.19688 0.15493 0.0
H988 H 0.01093 0.20798 0.11919 0.0
H989 H 0.0223 0.22765 0.152 0.0
H990 H 0.07761 0.2176 0.14006 0.0
H991 H 0.06651 0.19866 0.10663 0.0
H992 H 0.08976 0.18012 0.13329 0.0
H993 H 0.03113 0.08687 0.17215 0.0
H994 H 0.01621 0.07026 0.12176 0.0
H995 H 0.02576 0.16045 0.08987 0.0
C996 C 0.05434 0.19891 0.20167 0.0
C997 C 0.05588 0.18936 0.23146 0.0
C998 C 0.05395 0.15865 0.23768 0.0
C999 C 0.04926 0.13788 0.21474 0.0
C1000 C 0.0464 0.1482 0.18566 0.0
C1001 C 0.04955 0.17802 0.17905 0.0
C1002 C 0.04306 0.18396 0.14661 0.0
C1003 C 0.01672 0.20537 0.143 0.0
C1004 C 0.0709 0.19577 0.13071 0.0
C1005 C 0.03511 0.15301 0.13606 0.0
C1006 C 0.03716 0.13257 0.15877 0.0
C1007 C 0.0298 0.10273 0.1542 0.0
C1008 C 0.02098 0.0935 0.12559 0.0
C1009 C 0.01964 0.11407 0.10188 0.0
C1010 C 0.02652 0.14419 0.10753 0.0
H1011 H 0.97472 0.27748 0.18341 0.0
H1012 H 0.03609 0.32854 0.23733 0.0
H1013 H 0.04715 0.36092 0.19471 0.0
H1014 H 0.01828 0.28291 0.11404 0.0
H1015 H 0.98579 0.28641 0.09099 0.0
H1016 H 0.98393 0.26544 0.12496 0.0
H1017 H 0.94035 0.29765 0.144 0.0
H1018 H 0.94113 0.3178 0.10967 0.0
H1019 H 0.94427 0.33746 0.14437 0.0
H1020 H 0.04756 0.39097 0.14834 0.0
H1021 H 0.03244 0.41914 0.10393 0.0
H1022 H 0.9745 0.34662 0.07818 0.0
C1023 C 0.99037 0.29556 0.18616 0.0
C1024 C 0.00441 0.30066 0.21363 0.0
C1025 C 0.02507 0.32428 0.21639 0.0
C1026 C 0.03175 0.34262 0.19226 0.0
C1027 C 0.01803 0.33675 0.16526 0.0
C1028 C 0.9977 0.31386 0.16207 0.0
C1029 C 0.98463 0.3136 0.13119 0.0
C1030 C 0.99372 0.28541 0.1143 0.0
C1031 C 0.9506 0.31685 0.13239 0.0
C1032 C 0.9995 0.34089 0.11817 0.0
C1033 C 0.0192 0.35359 0.13794 0.0
C1034 C 0.03268 0.38096 0.13235 0.0
C1035 C 0.02422 0.39673 0.10688 0.0
C1036 C 0.00241 0.38503 0.08758 0.0
C1037 C 0.99159 0.35592 0.09234 0.0
H1038 H 0.00659 0.84699 0.26001 0.0
H1039 H 0.95085 0.78274 0.3048 0.0
H1040 H 0.94571 0.81699 0.34763 0.0
H1041 H 0.04633 0.87104 0.31944 0.0
H1042 H 0.04766 0.90958 0.30892 0.0
H1043 H 0.0434 0.88153 0.28097 0.0
H1044 H 0.99534 0.90712 0.26248 0.0
H1045 H 0.9994 0.93526 0.29064 0.0
H1046 H 0.96548 0.91409 0.28819 0.0
H1047 H 0.9555 0.85421 0.3889 0.0
H1048 H 0.97694 0.89171 0.42292 0.0
H1049 H 0.01986 0.93454 0.34828 0.0
C1050 C 0.9928 0.84052 0.27863 0.0
C1051 C 0.97919 0.81243 0.27944 0.0
C1052 C 0.96129 0.8044 0.30395 0.0
C1053 C 0.95821 0.8237 0.32824 0.0
C1054 C 0.97236 0.85125 0.32705 0.0
C1055 C 0.98873 0.85986 0.3025 0.0
C1056 C 0.00309 0.88979 0.30715 0.0
C1057 C 0.03712 0.88784 0.30395 0.0
C1058 C 0.99003 0.91293 0.28585 0.0
C1059 C 0.99386 0.89588 0.33882 0.0
C1060 C 0.97596 0.87359 0.35001 0.0
C1061 C 0.96853 0.8724 0.3801 0.0
C1062 C 0.98053 0.89395 0.39929 0.0
C1063 C 0.99935 0.91651 0.38814 0.0
C1064 C 0.00494 0.91799 0.35736 0.0
H1065 H 0.01803 0.66191 0.26003 0.0
H1066 H 0.06529 0.7318 0.3061 0.0
H1067 H 0.06964 0.69968 0.35054 0.0
H1068 H 0.97603 0.63639 0.31796 0.0
H1069 H 0.97864 0.5976 0.30865 0.0
H1070 H 0.98248 0.62509 0.28013 0.0
H1071 H 0.03362 0.60302 0.26567 0.0
H1072 H 0.03001 0.57557 0.29451 0.0
H1073 H 0.06215 0.59946 0.29346 0.0
H1074 H 0.05946 0.66327 0.39259 0.0
H1075 H 0.03898 0.62502 0.4265 0.0
H1076 H 0.00551 0.57633 0.35071 0.0
C1077 C 0.02986 0.67008 0.2793 0.0
C1078 C 0.04134 0.69915 0.27988 0.0
C1079 C 0.05658 0.70939 0.30535 0.0
C1080 C 0.05917 0.69131 0.33061 0.0
C1081 C 0.04726 0.66272 0.32958 0.0
C1082 C 0.03353 0.65197 0.30426 0.0
C1083 C 0.02144 0.62105 0.30911 0.0
C1084 C 0.98766 0.62 0.30366 0.0
C1085 C 0.03779 0.59844 0.28952 0.0
C1086 C 0.02893 0.61671 0.34155 0.0
C1087 C 0.04391 0.64086 0.35311 0.0
C1088 C 0.04894 0.64362 0.38361 0.0
C1089 C 0.03755 0.62163 0.40277 0.0
C1090 C 0.02148 0.59725 0.39122 0.0
C1091 C 0.01849 0.59428 0.36014 0.0
H1092 H 0.23486 0.03611 0.18084 0.0
H1093 H 0.19843 0.95688 0.22157 0.0
H1094 H 0.15328 0.96159 0.19042 0.0
H1095 H 0.16948 0.0767 0.17737 0.0
H1096 H 0.17725 0.09341 0.14189 0.0
H1097 H 0.20735 0.08225 0.16555 0.0
H1098 H 0.22885 0.04943 0.12347 0.0
H1099 H 0.19899 0.06081 0.0995 0.0
H1100 H 0.20549 0.02193 0.10608 0.0
H1101 H 0.10947 0.97915 0.15843 0.0
H1102 H 0.07391 0.00499 0.12531 0.0
H1103 H 0.14154 0.07006 0.10403 0.0
C1104 C 0.21759 0.01946 0.1829 0.0
C1105 C 0.22004 0.99617 0.20359 0.0
C1106 C 0.19703 0.97478 0.20563 0.0
C1107 C 0.17129 0.97737 0.18815 0.0
C1108 C 0.16926 1.00117 0.16847 0.0
C1109 C 0.19212 0.02148 0.16543 0.0
C1110 C 0.18457 0.04538 0.14327 0.0
C1111 C 0.18466 0.07625 0.15791 0.0
C1112 C 0.20573 0.04431 0.11649 0.0
C1113 C 0.15355 0.03589 0.13478 0.0
C1114 C 0.14492 0.01038 0.14947 0.0
C1115 C 0.11636 0.99866 0.14623 0.0
C1116 C 0.0964 0.0132 0.12717 0.0
C1117 C 0.10528 0.0388 0.11135 0.0
C1118 C 0.13416 0.05028 0.11553 0.0
H1119 H 0.81042 0.4875 0.22634 0.0
H1120 H 0.76577 0.55832 0.17947 0.0
H1121 H 0.80931 0.56334 0.14589 0.0
H1122 H 0.88642 0.51903 0.2204 0.0
H1123 H 0.90315 0.48306 0.2155 0.0
H1124 H 0.87001 0.48679 0.23757 0.0
H1125 H 0.84253 0.44809 0.20564 0.0
H1126 H 0.87558 0.44309 0.18391 0.0
H1127 H 0.84119 0.45277 0.16596 0.0
H1128 H 0.85369 0.55317 0.11201 0.0
H1129 H 0.89458 0.53055 0.08332 0.0
H1130 H 0.91327 0.4716 0.15647 0.0
C1131 C 0.81004 0.50442 0.20929 0.0
C1132 C 0.78479 0.5224 0.20523 0.0
C1133 C 0.78504 0.54441 0.18289 0.0
C1134 C 0.80967 0.54741 0.16382 0.0
C1135 C 0.83412 0.52885 0.16807 0.0
C1136 C 0.83461 0.50816 0.19069 0.0
C1137 C 0.86253 0.48963 0.18974 0.0
C1138 C 0.88167 0.49499 0.21745 0.0
C1139 C 0.85499 0.45646 0.18607 0.0
C1140 C 0.87721 0.50211 0.16225 0.0
C1141 C 0.86065 0.5248 0.14999 0.0
C1142 C 0.86757 0.53643 0.12211 0.0
C1143 C 0.89131 0.52392 0.10609 0.0
C1144 C 0.90821 0.50047 0.11818 0.0
C1145 C 0.90153 0.49029 0.14707 0.0
H1146 H 0.24769 0.02003 0.35301 0.0
H1147 H 0.20559 0.08209 0.2934 0.0
H1148 H 0.16153 0.08398 0.32657 0.0
H1149 H 0.18852 0.97785 0.36722 0.0
H1150 H 0.19629 0.97084 0.40579 0.0
H1151 H 0.22611 0.9796 0.38091 0.0
H1152 H 0.24187 0.02355 0.41454 0.0
H1153 H 0.21201 0.01482 0.43976 0.0
H1154 H 0.21508 0.05156 0.42431 0.0
H1155 H 0.11818 0.07007 0.36128 0.0
H1156 H 0.08233 0.04343 0.39372 0.0
H1157 H 0.15501 0.99356 0.43175 0.0
C1158 C 0.22966 0.03495 0.34765 0.0
C1159 C 0.23 0.05119 0.32101 0.0
C1160 C 0.20587 0.06998 0.31413 0.0
C1161 C 0.18077 0.07108 0.33281 0.0
C1162 C 0.18061 0.05384 0.35858 0.0
C1163 C 0.20489 0.03668 0.36626 0.0
C1164 C 0.19856 0.01787 0.39324 0.0
C1165 C 0.20258 0.9846 0.38635 0.0
C1166 C 0.21804 0.02754 0.41952 0.0
C1167 C 0.16635 0.02557 0.39854 0.0
C1168 C 0.15625 0.04665 0.37875 0.0
C1169 C 0.12611 0.0542 0.37741 0.0
C1170 C 0.10585 0.03909 0.39599 0.0
C1171 C 0.11592 0.01656 0.41534 0.0
C1172 C 0.14667 0.0109 0.41739 0.0
H1173 H 0.8053 0.50519 0.29485 0.0
H1174 H 0.77348 0.42414 0.33559 0.0
H1175 H 0.81799 0.42359 0.36832 0.0
H1176 H 0.88506 0.48737 0.29757 0.0
H1177 H 0.89517 0.52528 0.30548 0.0
H1178 H 0.86279 0.51738 0.28339 0.0
H1179 H 0.82967 0.54767 0.31897 0.0
H1180 H 0.86176 0.55662 0.3408 0.0
H1181 H 0.83002 0.53932 0.35806 0.0
H1182 H 0.86308 0.43713 0.40151 0.0
H1183 H 0.90214 0.46334 0.43071 0.0
H1184 H 0.90405 0.53318 0.36504 0.0
C1185 C 0.80782 0.4871 0.31044 0.0
C1186 C 0.78593 0.4649 0.31305 0.0
C1187 C 0.79013 0.44138 0.33337 0.0
C1188 C 0.81535 0.44087 0.3519 0.0
C1189 C 0.83635 0.46361 0.34913 0.0
C1190 C 0.83284 0.48604 0.32851 0.0
C1191 C 0.85696 0.50915 0.33086 0.0
C1192 C 0.87614 0.50979 0.30265 0.0
C1193 C 0.84381 0.53998 0.3376 0.0
C1194 C 0.87407 0.49709 0.3569 0.0
C1195 C 0.86231 0.47063 0.36715 0.0
C1196 C 0.87286 0.45743 0.3932 0.0
C1197 C 0.89509 0.47229 0.40958 0.0
C1198 C 0.90612 0.49995 0.39974 0.0
C1199 C 0.89626 0.51172 0.37262 0.0
H1200 H 0.15723 0.24732 0.98791 0.0
H1201 H 0.23223 0.19587 0.9572 0.0
H1202 H 0.2011 0.15032 0.9574 0.0
H1203 H 0.12808 0.19581 0.03673 0.0
H1204 H 0.08967 0.2035 0.0287 0.0
H1205 H 0.11724 0.23192 0.0235 0.0
H1206 H 0.1009 0.23802 0.96869 0.0
H1207 H 0.07313 0.20963 0.97377 0.0
H1208 H 0.10027 0.20609 0.94458 0.0
H1209 H 0.16293 0.10953 0.96838 0.0
H1210 H 0.12028 0.0784 0.98457 0.0
H1211 H 0.06991 0.1582 0.00294 0.0
C1212 C 0.16676 0.22653 0.98056 0.0
C1213 C 0.19678 0.22482 0.97225 0.0
C1214 C 0.20897 0.1974 0.96317 0.0
C1215 C 0.19152 0.17151 0.96331 0.0
C1216 C 0.16187 0.17376 0.972 0.0
C1217 C 0.1495 0.20075 0.97988 0.0
C1218 C 0.11749 0.1973 0.98922 0.0
C1219 C 0.11288 0.20774 0.02144 0.0
C1220 C 0.09673 0.21373 0.96778 0.0
C1221 C 0.11402 0.16409 0.98639 0.0
C1222 C 0.13973 0.15069 0.97653 0.0
C1223 C 0.14234 0.11982 0.97519 0.0
C1224 C 0.11802 0.10229 0.98429 0.0
C1225 C 0.09159 0.11585 0.99443 0.0
C1226 C 0.08964 0.14711 0.99486 0.0
H1227 H 0.16971 0.76698 0.49973 0.0
H1228 H 0.22829 0.81288 0.56073 0.0
H1229 H 0.19437 0.85605 0.56092 0.0
H1230 H 0.15042 0.82694 0.45629 0.0
H1231 H 0.11213 0.8163 0.45131 0.0
H1232 H 0.13969 0.78843 0.45834 0.0
H1233 H 0.10944 0.76996 0.5037 0.0
H1234 H 0.08176 0.79793 0.49682 0.0
H1235 H 0.09948 0.79577 0.53259 0.0
H1236 H 0.15803 0.8971 0.54742 0.0
H1237 H 0.12093 0.93029 0.52427 0.0
H1238 H 0.0829 0.85509 0.47787 0.0
C1239 C 0.17508 0.78594 0.5135 0.0
C1240 C 0.20152 0.78672 0.53018 0.0
C1241 C 0.20794 0.81184 0.54797 0.0
C1242 C 0.18883 0.83643 0.5482 0.0
C1243 C 0.16302 0.83516 0.53117 0.0
C1244 C 0.15587 0.81027 0.51463 0.0
C1245 C 0.12742 0.81471 0.49747 0.0
C1246 C 0.13275 0.81142 0.46388 0.0
C1247 C 0.10309 0.79332 0.5083 0.0
C1248 C 0.12034 0.84642 0.50584 0.0
C1249 C 0.14104 0.85796 0.52532 0.0
C1250 C 0.14101 0.88799 0.5331 0.0
C1251 C 0.11961 0.90667 0.52021 0.0
C1252 C 0.09818 0.8951 0.50037 0.0
C1253 C 0.09837 0.86446 0.49373 0.0
H1254 H 0.79671 0.70804 0.48478 0.0
H1255 H 0.83441 0.74768 0.56388 0.0
H1256 H 0.87278 0.70826 0.56522 0.0
H1257 H 0.80872 0.63065 0.50781 0.0
H1258 H 0.81662 0.61866 0.47049 0.0
H1259 H 0.7917 0.64924 0.47681 0.0
H1260 H 0.82385 0.6827 0.44275 0.0
H1261 H 0.84867 0.65222 0.43616 0.0
H1262 H 0.86295 0.6868 0.45038 0.0
H1263 H 0.91115 0.66787 0.55314 0.0
H1264 H 0.94308 0.62892 0.53086 0.0
H1265 H 0.87633 0.61262 0.46385 0.0
C1266 C 0.81294 0.7083 0.5025 0.0
C1267 C 0.81283 0.731 0.52408 0.0
C1268 C 0.83417 0.73044 0.54713 0.0
C1269 C 0.85599 0.70814 0.54806 0.0
C1270 C 0.85563 0.68612 0.52625 0.0
C1271 C 0.83428 0.68583 0.5042 0.0
C1272 C 0.83872 0.66008 0.48314 0.0
C1273 C 0.81237 0.63837 0.48467 0.0
C1274 C 0.84387 0.67112 0.45124 0.0
C1275 C 0.86653 0.64644 0.49606 0.0
C1276 C 0.8761 0.66169 0.52091 0.0
C1277 C 0.90323 0.65505 0.53443 0.0
C1278 C 0.92108 0.63263 0.52194 0.0
C1279 C 0.9113 0.61656 0.49681 0.0
C1280 C 0.88359 0.62353 0.48402 0.0
H1281 H 0.27657 0.81316 0.47252 0.0
H1282 H 0.34442 0.7511 0.44567 0.0
H1283 H 0.38013 0.79253 0.43963 0.0
H1284 H 0.30601 0.87996 0.42498 0.0
H1285 H 0.29549 0.90511 0.45423 0.0
H1286 H 0.27342 0.87245 0.447 0.0
H1287 H 0.27911 0.85652 0.50191 0.0
H1288 H 0.30098 0.88887 0.50921 0.0
H1289 H 0.31584 0.85268 0.51735 0.0
H1290 H 0.4108 0.83655 0.45205 0.0
H1291 H 0.43249 0.87822 0.48027 0.0
H1292 H 0.34482 0.914 0.49485 0.0
C1293 C 0.29852 0.80872 0.46376 0.0
C1294 C 0.30783 0.77934 0.45894 0.0
C1295 C 0.33687 0.7737 0.44867 0.0
C1296 C 0.35721 0.79713 0.44519 0.0
C1297 C 0.34783 0.826 0.45146 0.0
C1298 C 0.31883 0.83193 0.45981 0.0
C1299 C 0.31533 0.86376 0.46988 0.0
C1300 C 0.29645 0.88136 0.44769 0.0
C1301 C 0.30209 0.86551 0.50144 0.0
C1302 C 0.34739 0.87393 0.46904 0.0
C1303 C 0.36576 0.85221 0.45745 0.0
C1304 C 0.39664 0.85431 0.45978 0.0
C1305 C 0.40889 0.87822 0.47562 0.0
C1306 C 0.39032 0.89988 0.48854 0.0
C1307 C 0.35942 0.89841 0.48385 0.0
H1308 H 0.56311 0.69318 0.73828 0.0
H1309 H 0.47075 0.71653 0.72355 0.0
H1310 H 0.4683 0.6823 0.68146 0.0
H1311 H 0.58135 0.68592 0.65796 0.0
H1312 H 0.60614 0.65521 0.66409 0.0
H1313 H 0.60134 0.68297 0.69245 0.0
H1314 H 0.58692 0.6418 0.7299 0.0
H1315 H 0.59117 0.614 0.70152 0.0
H1316 H 0.55654 0.61712 0.72134 0.0
H1317 H 0.47328 0.64086 0.64491 0.0
H1318 H 0.48897 0.60077 0.61066 0.0
H1319 H 0.57871 0.6077 0.64478 0.0
C1320 C 0.54267 0.69153 0.72576 0.0
C1321 C 0.51707 0.70728 0.73463 0.0
C1322 C 0.49061 0.70436 0.71764 0.0
C1323 C 0.48888 0.68493 0.69358 0.0
C1324 C 0.51393 0.66873 0.68616 0.0
C1325 C 0.54056 0.67228 0.70117 0.0
C1326 C 0.56404 0.65198 0.68825 0.0
C1327 C 0.58974 0.6701 0.67489 0.0
C1328 C 0.57532 0.62992 0.71165 0.0
C1329 C 0.54619 0.63632 0.66427 0.0
C1330 C 0.51726 0.64611 0.6636 0.0
C1331 C 0.49618 0.63367 0.64449 0.0
C1332 C 0.50526 0.61122 0.62482 0.0
C1333 C 0.53519 0.60208 0.62391 0.0
C1334 C 0.55566 0.61447 0.64444 0.0
H1335 H 0.4357 0.78409 0.71832 0.0
H1336 H 0.48142 0.8443 0.77785 0.0
H1337 H 0.49239 0.87786 0.73603 0.0
H1338 H 0.48471 0.79156 0.65817 0.0
H1339 H 0.45675 0.79086 0.62958 0.0
H1340 H 0.45015 0.77224 0.66432 0.0
H1341 H 0.40193 0.80248 0.67283 0.0
H1342 H 0.40768 0.82 0.63744 0.0
H1343 H 0.40324 0.84237 0.67031 0.0
H1344 H 0.50201 0.90287 0.68731 0.0
H1345 H 0.4979 0.92433 0.63698 0.0
H1346 H 0.4461 0.84826 0.60905 0.0
C1347 C 0.44678 0.805 0.72266 0.0
C1348 C 0.45722 0.81199 0.75131 0.0
C1349 C 0.47275 0.83895 0.75606 0.0
C1350 C 0.47954 0.85787 0.7324 0.0
C1351 C 0.47063 0.8495 0.70407 0.0
C1352 C 0.45377 0.82423 0.69918 0.0
C1353 C 0.44666 0.82069 0.66655 0.0
C1354 C 0.46039 0.79214 0.65393 0.0
C1355 C 0.41288 0.82146 0.66149 0.0
C1356 C 0.46189 0.84801 0.65403 0.0
C1357 C 0.4762 0.86396 0.67594 0.0
C1358 C 0.49094 0.89058 0.66989 0.0
C1359 C 0.48905 0.90235 0.64112 0.0
C1360 C 0.4722 0.88764 0.61915 0.0
C1361 C 0.45982 0.85946 0.62533 0.0
H1362 H 0.55251 0.27388 0.81178 0.0
H1363 H 0.5088 0.33511 0.75204 0.0
H1364 H 0.49912 0.36921 0.79371 0.0
H1365 H 0.50265 0.28469 0.87297 0.0
H1366 H 0.53093 0.28265 0.90116 0.0
H1367 H 0.53566 0.26304 0.86663 0.0
H1368 H 0.58585 0.28983 0.85731 0.0
H1369 H 0.58173 0.30863 0.89229 0.0
H1370 H 0.58735 0.32978 0.85883 0.0
H1371 H 0.49417 0.39662 0.8411 0.0
H1372 H 0.50125 0.41936 0.89015 0.0
H1373 H 0.54512 0.33954 0.92076 0.0
C1374 C 0.54169 0.29486 0.80748 0.0
C1375 C 0.53177 0.3022 0.77873 0.0
C1376 C 0.51684 0.32937 0.77394 0.0
C1377 C 0.51094 0.34869 0.79748 0.0
C1378 C 0.51981 0.34034 0.82579 0.0
C1379 C 0.53528 0.31437 0.83091 0.0
C1380 C 0.54256 0.31108 0.86356 0.0
C1381 C 0.52702 0.28374 0.87685 0.0
C1382 C 0.57638 0.30977 0.86827 0.0
C1383 C 0.52942 0.33959 0.87572 0.0
C1384 C 0.51597 0.35586 0.85358 0.0
C1385 C 0.50412 0.3839 0.85882 0.0
C1386 C 0.50764 0.39644 0.88705 0.0
C1387 C 0.52274 0.38087 0.9097 0.0
C1388 C 0.53265 0.3516 0.90417 0.0
H1389 H 0.44106 0.219 0.79971 0.0
H1390 H 0.49603 0.15825 0.74933 0.0
H1391 H 0.49858 0.12462 0.79223 0.0
H1392 H 0.47729 0.21056 0.86819 0.0
H1393 H 0.44445 0.21102 0.89106 0.0
H1394 H 0.44459 0.22996 0.8559 0.0
H1395 H 0.39864 0.1999 0.83853 0.0
H1396 H 0.3977 0.18169 0.87406 0.0
H1397 H 0.39936 0.15996 0.84052 0.0
H1398 H 0.49994 0.10007 0.84171 0.0
H1399 H 0.48951 0.0796 0.89149 0.0
H1400 H 0.43193 0.15428 0.91005 0.0
C1401 C 0.45252 0.19803 0.79742 0.0
C1402 C 0.46804 0.191 0.77108 0.0
C1403 C 0.48369 0.16382 0.76922 0.0
C1404 C 0.4856 0.14475 0.79358 0.0
C1405 C 0.47153 0.15296 0.81976 0.0
C1406 C 0.45447 0.1784 0.82167 0.0
C1407 C 0.44137 0.18154 0.85257 0.0
C1408 C 0.4526 0.20996 0.86782 0.0
C1409 C 0.40724 0.18071 0.85134 0.0
C1410 C 0.45382 0.15402 0.8675 0.0
C1411 C 0.47168 0.13823 0.84831 0.0
C1412 C 0.48584 0.11212 0.85695 0.0
C1413 C 0.4802 0.10088 0.88543 0.0
C1414 C 0.46034 0.11556 0.90478 0.0
C1415 C 0.44768 0.1429 0.89589 0.0
H1416 H 0.75211 0.48476 0.65505 0.0
H1417 H 0.70099 0.44688 0.727 0.0
H1418 H 0.65726 0.44234 0.69388 0.0
H1419 H 0.699 0.52865 0.62645 0.0
H1420 H 0.70824 0.52323 0.58791 0.0
H1421 H 0.7362 0.51839 0.61579 0.0
H1422 H 0.74609 0.46512 0.59646 0.0
H1423 H 0.71784 0.46979 0.56853 0.0
H1424 H 0.71582 0.439 0.59393 0.0
H1425 H 0.61716 0.45247 0.65638 0.0
H1426 H 0.58532 0.47502 0.61798 0.0
H1427 H 0.66376 0.5001 0.56817 0.0
C1428 C 0.73191 0.47466 0.66339 0.0
C1429 C 0.72963 0.46594 0.69322 0.0
C1430 C 0.70298 0.45327 0.70392 0.0
C1431 C 0.67816 0.45055 0.68528 0.0
C1432 C 0.68082 0.45984 0.65587 0.0
C1433 C 0.70727 0.47108 0.64486 0.0
C1434 C 0.70378 0.48194 0.61338 0.0
C1435 C 0.71228 0.51499 0.61076 0.0
C1436 C 0.72196 0.46281 0.5918 0.0
C1437 C 0.67081 0.47704 0.60907 0.0
C1438 C 0.65791 0.4639 0.63362 0.0
C1439 C 0.62709 0.46166 0.63654 0.0
C1440 C 0.60909 0.47427 0.61445 0.0
C1441 C 0.62203 0.48861 0.5897 0.0
C1442 C 0.65322 0.4886 0.58646 0.0
H1443 H 0.25445 0.03341 0.66021 0.0
H1444 H 0.3049 0.06728 0.73441 0.0
H1445 H 0.35025 0.06863 0.70316 0.0
H1446 H 0.30338 0.98495 0.63611 0.0
H1447 H 0.29732 0.98957 0.59687 0.0
H1448 H 0.26835 0.99865 0.62252 0.0
H1449 H 0.26565 0.05183 0.60093 0.0
H1450 H 0.29481 0.04284 0.57502 0.0
H1451 H 0.29874 0.07437 0.59933 0.0
H1452 H 0.39167 0.05385 0.66759 0.0
H1453 H 0.42299 0.02587 0.63195 0.0
H1454 H 0.34497 0.00583 0.57974 0.0
C1455 C 0.27477 0.04259 0.66928 0.0
C1456 C 0.27623 0.05093 0.69932 0.0
C1457 C 0.30329 0.06167 0.7111 0.0
C1458 C 0.32915 0.0624 0.6935 0.0
C1459 C 0.32732 0.05293 0.66403 0.0
C1460 C 0.3005 0.04392 0.65185 0.0
C1461 C 0.30471 0.03129 0.62108 0.0
C1462 C 0.29277 0.99924 0.61907 0.0
C1463 C 0.29012 0.05129 0.59771 0.0
C1464 C 0.33822 0.03239 0.61863 0.0
C1465 C 0.35106 0.04545 0.64327 0.0
C1466 C 0.38186 0.0446 0.64771 0.0
C1467 C 0.39963 0.0289 0.62724 0.0
C1468 C 0.38641 0.01423 0.60287 0.0
C1469 C 0.35566 0.01751 0.59785 0.0
H1470 H 0.70161 0.487 0.78618 0.0
H1471 H 0.73938 0.56516 0.82757 0.0
H1472 H 0.69553 0.56845 0.86093 0.0
H1473 H 0.62306 0.5121 0.79016 0.0
H1474 H 0.60993 0.47489 0.79681 0.0
H1475 H 0.64277 0.48093 0.7747 0.0
H1476 H 0.67291 0.44643 0.80941 0.0
H1477 H 0.64016 0.43999 0.83122 0.0
H1478 H 0.67341 0.45385 0.84871 0.0
H1479 H 0.65034 0.55783 0.89466 0.0
H1480 H 0.61021 0.53427 0.92433 0.0
H1481 H 0.60055 0.46664 0.8567 0.0
C1482 C 0.70049 0.505 0.80207 0.0
C1483 C 0.72389 0.52564 0.8046 0.0
C1484 C 0.72158 0.54911 0.82537 0.0
C1485 C 0.69672 0.55119 0.84428 0.0
C1486 C 0.67403 0.53017 0.84142 0.0
C1487 C 0.67563 0.50781 0.82042 0.0
C1488 C 0.64938 0.48703 0.82245 0.0
C1489 C 0.63015 0.48886 0.79436 0.0
C1490 C 0.65958 0.45496 0.82832 0.0
C1491 C 0.63346 0.50008 0.84893 0.0
C1492 C 0.64764 0.52516 0.85955 0.0
C1493 C 0.63867 0.53865 0.88607 0.0
C1494 C 0.61569 0.5253 0.90272 0.0
C1495 C 0.60218 0.49874 0.89273 0.0
C1496 C 0.61021 0.48715 0.86475 0.0
H1497 H 0.2672 0.02205 0.837 0.0
H1498 H 0.30531 0.94861 0.78802 0.0
H1499 H 0.34823 0.94808 0.82254 0.0
H1500 H 0.33397 0.06021 0.85323 0.0
H1501 H 0.3226 0.07104 0.89001 0.0
H1502 H 0.29513 0.06515 0.86162 0.0
H1503 H 0.26816 0.02672 0.89497 0.0
H1504 H 0.29539 0.03275 0.92358 0.0
H1505 H 0.28869 0.99581 0.90975 0.0
H1506 H 0.38908 0.95868 0.86154 0.0
H1507 H 0.42033 0.97572 0.90368 0.0
H1508 H 0.35215 0.03922 0.92768 0.0
C1509 C 0.2845 0.00575 0.83359 0.0
C1510 C 0.28307 0.98547 0.80981 0.0
C1511 C 0.30597 0.96427 0.80624 0.0
C1512 C 0.33048 0.96393 0.82563 0.0
C1513 C 0.3314 0.9846 0.84868 0.0
C1514 C 0.30867 0.00476 0.85293 0.0
C1515 C 0.31428 0.02426 0.87958 0.0
C1516 C 0.31664 0.0571 0.87055 0.0
C1517 C 0.29021 0.01959 0.90337 0.0
C1518 C 0.34392 0.01229 0.88954 0.0
C1519 C 0.35377 0.98964 0.87143 0.0
C1520 C 0.38132 0.97617 0.87605 0.0
C1521 C 0.39895 0.98597 0.89999 0.0
C1522 C 0.38869 0.00866 0.91913 0.0
C1523 C 0.3608 0.0218 0.91361 0.0
H1524 H 0.65911 0.74625 0.49397 0.0
H1525 H 0.73109 0.70444 0.44613 0.0
H1526 H 0.70147 0.65816 0.442 0.0
H1527 H 0.63866 0.68779 0.53655 0.0
H1528 H 0.59917 0.69402 0.53499 0.0
H1529 H 0.62435 0.72451 0.52991 0.0
H1530 H 0.59971 0.73622 0.4793 0.0
H1531 H 0.57455 0.70542 0.48418 0.0
H1532 H 0.59732 0.70769 0.45135 0.0
H1533 H 0.66901 0.61412 0.45396 0.0
H1534 H 0.63552 0.57789 0.47807 0.0
H1535 H 0.58084 0.64946 0.51043 0.0
C1536 C 0.66813 0.72755 0.48188 0.0
C1537 C 0.6971 0.72865 0.4702 0.0
C1538 C 0.70867 0.70388 0.45486 0.0
C1539 C 0.692 0.67761 0.45239 0.0
C1540 C 0.6635 0.67693 0.46459 0.0
C1541 C 0.65142 0.70153 0.47845 0.0
C1542 C 0.62129 0.69455 0.49156 0.0
C1543 C 0.62087 0.70055 0.52522 0.0
C1544 C 0.59677 0.71201 0.47563 0.0
C1545 C 0.61911 0.66173 0.48468 0.0
C1546 C 0.64354 0.65191 0.4689 0.0
C1547 C 0.64895 0.62166 0.4648 0.0
C1548 C 0.62945 0.60108 0.47793 0.0
C1549 C 0.60443 0.61081 0.4941 0.0
C1550 C 0.59885 0.64149 0.49662 0.0
H1551 H 0.731 0.31611 0.01475 0.0
H1552 H 0.6689 0.25969 0.06142 0.0
H1553 H 0.63645 0.30315 0.07078 0.0
H1554 H 0.71747 0.38617 0.062 0.0
H1555 H 0.72253 0.40876 0.0294 0.0
H1556 H 0.74287 0.37461 0.03343 0.0
H1557 H 0.7213 0.35617 0.98201 0.0
H1558 H 0.70249 0.39102 0.97906 0.0
H1559 H 0.68172 0.35685 0.97685 0.0
H1560 H 0.60574 0.34828 0.06176 0.0
H1561 H 0.58119 0.39027 0.0373 0.0
H1562 H 0.66581 0.42091 0.00393 0.0
C1563 C 0.71109 0.31327 0.02787 0.0
C1564 C 0.70227 0.28493 0.03747 0.0
C1565 C 0.67598 0.28151 0.05421 0.0
C1566 C 0.65758 0.30606 0.05969 0.0
C1567 C 0.66646 0.33384 0.04911 0.0
C1568 C 0.69303 0.33761 0.03413 0.0
C1569 C 0.69607 0.36867 0.02193 0.0
C1570 C 0.72122 0.38556 0.03762 0.0
C1571 C 0.70065 0.36814 0.988 0.0
C1572 C 0.66608 0.38122 0.03022 0.0
C1573 C 0.64939 0.36099 0.04629 0.0
C1574 C 0.619 0.36504 0.05077 0.0
C1575 C 0.60518 0.38942 0.03728 0.0
C1576 C 0.62182 0.40984 0.02021 0.0
C1577 C 0.65285 0.40641 0.01808 0.0
H1578 H 0.28407 0.2001 0.99886 0.0
H1579 H 0.33227 0.24792 0.06698 0.0
H1580 H 0.36699 0.20536 0.07205 0.0
H1581 H 0.29102 0.1267 0.03343 0.0
H1582 H 0.29406 0.10834 0.99803 0.0
H1583 H 0.27283 0.142 0.0013 0.0
H1584 H 0.30448 0.16585 0.95957 0.0
H1585 H 0.32594 0.13241 0.95631 0.0
H1586 H 0.34432 0.16726 0.96337 0.0
H1587 H 0.39968 0.15891 0.06466 0.0
H1588 H 0.42388 0.112 0.04923 0.0
H1589 H 0.35023 0.09401 0.98982 0.0
C1590 C 0.30178 0.20146 0.01508 0.0
C1591 C 0.30578 0.22718 0.03242 0.0
C1592 C 0.32891 0.22822 0.0536 0.0
C1593 C 0.3487 0.20424 0.05653 0.0
C1594 C 0.34443 0.17927 0.0386 0.0
C1595 C 0.32109 0.17761 0.01875 0.0
C1596 C 0.32105 0.14863 0.00192 0.0
C1597 C 0.29308 0.13034 0.00912 0.0
C1598 C 0.32415 0.15387 0.96832 0.0
C1599 C 0.34858 0.13446 0.01465 0.0
C1600 C 0.36198 0.15235 0.03567 0.0
C1601 C 0.389 0.14452 0.04864 0.0
C1602 C 0.4026 0.11784 0.03976 0.0
C1603 C 0.38892 0.09918 0.01842 0.0
C1604 C 0.36135 0.10761 0.00622 0.0
H1605 H 0.77982 0.31578 0.99549 0.0
H1606 H 0.83809 0.26427 0.9393 0.0
H1607 H 0.87318 0.30686 0.93663 0.0
H1608 H 0.79458 0.38903 0.95748 0.0
H1609 H 0.79127 0.40854 0.99226 0.0
H1610 H 0.77011 0.37519 0.98585 0.0
H1611 H 0.79275 0.35196 0.03406 0.0
H1612 H 0.81319 0.38572 0.03988 0.0
H1613 H 0.83255 0.35082 0.03784 0.0
H1614 H 0.90546 0.35154 0.94873 0.0
H1615 H 0.93064 0.39377 0.97286 0.0
H1616 H 0.84798 0.41928 0.0145 0.0
C1617 C 0.79972 0.31377 0.98221 0.0
C1618 C 0.80655 0.28697 0.96775 0.0
C1619 C 0.83267 0.28482 0.95049 0.0
C1620 C 0.85254 0.3089 0.94877 0.0
C1621 C 0.84531 0.33514 0.96361 0.0
C1622 C 0.81917 0.33782 0.97951 0.0
C1623 C 0.81714 0.36758 0.99482 0.0
C1624 C 0.79178 0.3862 0.98182 0.0
C1625 C 0.81372 0.36379 0.02863 0.0
C1626 C 0.847 0.38062 0.98668 0.0
C1627 C 0.86292 0.3618 0.9684 0.0
C1628 C 0.89275 0.36714 0.96182 0.0
C1629 C 0.90683 0.39164 0.97511 0.0
C1630 C 0.89094 0.41083 0.99421 0.0
C1631 C 0.86039 0.40572 0.99902 0.0
loop_
_geom_bond_atom_site_label_1
_geom_bond_atom_site_label_2
_geom_bond_distance
_geom_bond_site_symmetry_2
_ccdc_geom_bond_type
C0 O2 1.247 . S
C0 O4 1.258 1_455 S
C1 O8 1.247 . S
C1 O9 1.258 1_655 S
O2 C0 1.247 . S
O2 Zn3 2.028 . S
Zn3 O2 2.028 . S
Zn3 O7 2.035 . S
Zn3 O9 2.035 . S
Zn3 O10 2.028 . S
O4 C0 1.258 1_655 S
O4 Zn5 2.035 . S
Zn5 O4 2.035 . S
Zn5 O6 2.028 . S
Zn5 O8 2.028 . S
Zn5 O11 2.035 . S
O6 Zn5 2.028 . S
O6 C12 1.247 . S
O7 Zn3 2.035 . S
O7 C12 1.258 1_455 S
O8 C1 1.247 . S
O8 Zn5 2.028 . S
O9 C1 1.258 1_455 S
O9 Zn3 2.035 . S
O10 Zn3 2.028 . S
O10 C13 1.247 . S
O11 Zn5 2.035 . S
O11 C13 1.258 1_655 S
C12 O6 1.247 . S
C12 O7 1.258 1_655 S
C13 O10 1.247 . S
C13 O11 1.258 1_455 S
C14 O16 1.247 . S
C14 O18 1.258 1_455 S
C15 O22 1.247 . S
C15 O23 1.258 1_655 S
O16 C14 1.247 . S
O16 Zn17 2.028 . S
Zn17 O16 2.028 . S
Zn17 O21 2.035 . S
Zn17 O23 2.035 . S
Zn17 O24 2.028 . S
O18 C14 1.258 1_655 S
O18 Zn19 2.035 . S
Zn19 O18 2.035 . S
Zn19 O20 2.028 . S
Zn19 O22 2.028 . S
Zn19 O25 2.035 . S
O20 Zn19 2.028 . S
O20 C26 1.247 . S
O21 Zn17 2.035 . S
O21 C26 1.258 1_455 S
O22 C15 1.247 . S
O22 Zn19 2.028 . S
O23 C15 1.258 1_455 S
O23 Zn17 2.035 . S
O24 Zn17 2.028 . S
O24 C27 1.247 . S
O25 Zn19 2.035 . S
O25 C27 1.258 1_655 S
C26 O20 1.247 . S
C26 O21 1.258 1_655 S
C27 O24 1.247 . S
C27 O25 1.258 1_455 S
C28 O30 1.247 1_545 S
C28 O32 1.258 . S
C29 O36 1.247 1_565 S
C29 O37 1.258 . S
O30 C28 1.247 1_565 S
O30 Zn31 2.028 . S
Zn31 O30 2.028 . S
Zn31 O35 2.035 . S
Zn31 O37 2.035 . S
Zn31 O38 2.028 . S
O32 C28 1.258 . S
O32 Zn33 2.035 . S
Zn33 O32 2.035 . S
Zn33 O34 2.028 . S
Zn33 O36 2.028 . S
Zn33 O39 2.035 . S
O34 Zn33 2.028 . S
O34 C40 1.247 1_545 S
O35 Zn31 2.035 . S
O35 C40 1.258 . S
O36 C29 1.247 1_545 S
O36 Zn33 2.028 . S
O37 C29 1.258 . S
O37 Zn31 2.035 . S
O38 Zn31 2.028 . S
O38 C41 1.247 1_565 S
O39 Zn33 2.035 . S
O39 C41 1.258 . S
C40 O34 1.247 1_565 S
C40 O35 1.258 . S
C41 O38 1.247 1_545 S
C41 O39 1.258 . S
C42 O44 1.247 . S
C42 O46 1.258 . S
C43 O50 1.247 . S
C43 O51 1.258 . S
O44 C42 1.247 . S
O44 Zn45 2.028 . S
Zn45 O44 2.028 . S
Zn45 O49 2.035 . S
Zn45 O51 2.035 . S
Zn45 O52 2.028 . S
O46 C42 1.258 . S
O46 Zn47 2.035 . S
Zn47 O46 2.035 . S
Zn47 O48 2.028 . S
Zn47 O50 2.028 . S
Zn47 O53 2.035 . S
O48 Zn47 2.028 . S
O48 C54 1.247 . S
O49 Zn45 2.035 . S
O49 C54 1.258 . S
O50 C43 1.247 . S
O50 Zn47 2.028 . S
O51 C43 1.258 . S
O51 Zn45 2.035 . S
O52 Zn45 2.028 . S
O52 C55 1.247 . S
O53 Zn47 2.035 . S
O53 C55 1.258 . S
C54 O48 1.247 . S
C54 O49 1.258 . S
C55 O52 1.247 . S
C55 O53 1.258 . S
C56 O58 1.247 1_554 S
C56 O60 1.258 . S
C57 O64 1.247 1_556 S
C57 O65 1.258 . S
O58 C56 1.247 1_556 S
O58 Zn59 2.028 . S
Zn59 O58 2.028 . S
Zn59 O63 2.035 . S
Zn59 O65 2.035 . S
Zn59 O66 2.028 . S
O60 C56 1.258 . S
O60 Zn61 2.035 . S
Zn61 O60 2.035 . S
Zn61 O62 2.028 . S
Zn61 O64 2.028 . S
Zn61 O67 2.035 . S
O62 Zn61 2.028 . S
O62 C68 1.247 1_554 S
O63 Zn59 2.035 . S
O63 C68 1.258 . S
O64 C57 1.247 1_554 S
O64 Zn61 2.028 . S
O65 C57 1.258 . S
O65 Zn59 2.035 . S
O66 Zn59 2.028 . S
O66 C69 1.247 1_556 S
O67 Zn61 2.035 . S
O67 C69 1.258 . S
C68 O62 1.247 1_556 S
C68 O63 1.258 . S
C69 O66 1.247 1_554 S
C69 O67 1.258 . S
C70 O72 1.247 . S
C70 O74 1.258 . S
C71 O78 1.247 . S
C71 O79 1.258 . S
O72 C70 1.247 . S
O72 Zn73 2.028 . S
Zn73 O72 2.028 . S
Zn73 O77 2.035 . S
Zn73 O79 2.035 . S
Zn73 O80 2.028 . S
O74 C70 1.258 . S
O74 Zn75 2.035 . S
Zn75 O74 2.035 . S
Zn75 O76 2.028 . S
Zn75 O78 2.028 . S
Zn75 O81 2.035 . S
O76 Zn75 2.028 . S
O76 C82 1.247 . S
O77 Zn73 2.035 . S
O77 C82 1.258 . S
O78 C71 1.247 . S
O78 Zn75 2.028 . S
O79 C71 1.258 . S
O79 Zn73 2.035 . S
O80 Zn73 2.028 . S
O80 C83 1.247 . S
O81 Zn75 2.035 . S
O81 C83 1.258 . S
C82 O76 1.247 . S
C82 O77 1.258 . S
C83 O80 1.247 . S
C83 O81 1.258 . S
C84 O86 1.247 . S
C84 O88 1.258 . S
C85 O92 1.247 . S
C85 O93 1.258 . S
O86 C84 1.247 . S
O86 Zn87 2.028 . S
Zn87 O86 2.028 . S
Zn87 O91 2.035 . S
Zn87 O93 2.035 . S
Zn87 O94 2.028 . S
O88 C84 1.258 . S
O88 Zn89 2.035 . S
Zn89 O88 2.035 . S
Zn89 O90 2.028 . S
Zn89 O92 2.028 . S
Zn89 O95 2.035 . S
O90 Zn89 2.028 . S
O90 C96 1.247 . S
O91 Zn87 2.035 . S
O91 C96 1.258 . S
O92 C85 1.247 . S
O92 Zn89 2.028 . S
O93 C85 1.258 . S
O93 Zn87 2.035 . S
O94 Zn87 2.028 . S
O94 C97 1.247 . S
O95 Zn89 2.035 . S
O95 C97 1.258 . S
C96 O90 1.247 . S
C96 O91 1.258 . S
C97 O94 1.247 . S
C97 O95 1.258 . S
C98 O100 1.247 . S
C98 O102 1.258 . S
C99 O106 1.247 . S
C99 O107 1.258 . S
O100 C98 1.247 . S
O100 Zn101 2.028 . S
Zn101 O100 2.028 . S
Zn101 O105 2.035 . S
Zn101 O107 2.035 . S
Zn101 O108 2.028 . S
O102 C98 1.258 . S
O102 Zn103 2.035 . S
Zn103 O102 2.035 . S
Zn103 O104 2.028 . S
Zn103 O106 2.028 . S
Zn103 O109 2.035 . S
O104 Zn103 2.028 . S
O104 C110 1.247 . S
O105 Zn101 2.035 . S
O105 C110 1.258 . S
O106 C99 1.247 . S
O106 Zn103 2.028 . S
O107 C99 1.258 . S
O107 Zn101 2.035 . S
O108 Zn101 2.028 . S
O108 C111 1.247 . S
O109 Zn103 2.035 . S
O109 C111 1.258 . S
C110 O104 1.247 . S
C110 O105 1.258 . S
C111 O108 1.247 . S
C111 O109 1.258 . S
C112 O114 1.247 . S
C112 O116 1.258 . S
C113 O120 1.247 . S
C113 O121 1.258 . S
O114 C112 1.247 . S
O114 Zn115 2.028 . S
Zn115 O114 2.028 . S
Zn115 O119 2.035 . S
Zn115 O121 2.035 . S
Zn115 O122 2.028 . S
O116 C112 1.258 . S
O116 Zn117 2.035 . S
Zn117 O116 2.035 . S
Zn117 O118 2.028 . S
Zn117 O120 2.028 . S
Zn117 O123 2.035 . S
O118 Zn117 2.028 . S
O118 C124 1.247 . S
O119 Zn115 2.035 . S
O119 C124 1.258 . S
O120 C113 1.247 . S
O120 Zn117 2.028 . S
O121 C113 1.258 . S
O121 Zn115 2.035 . S
O122 Zn115 2.028 . S
O122 C125 1.247 . S
O123 Zn117 2.035 . S
O123 C125 1.258 . S
C124 O118 1.247 . S
C124 O119 1.258 . S
C125 O122 1.247 . S
C125 O123 1.258 . S
C126 O128 1.247 . S
C126 O130 1.258 . S
C127 O134 1.247 . S
C127 O135 1.258 . S
O128 C126 1.247 . S
O128 Zn129 2.028 . S
Zn129 O128 2.028 . S
Zn129 O133 2.035 . S
Zn129 O135 2.035 . S
Zn129 O136 2.028 . S
O130 C126 1.258 . S
O130 Zn131 2.035 . S
Zn131 O130 2.035 . S
Zn131 O132 2.028 . S
Zn131 O134 2.028 . S
Zn131 O137 2.035 . S
O132 Zn131 2.028 . S
O132 C138 1.247 . S
O133 Zn129 2.035 . S
O133 C138 1.258 . S
O134 C127 1.247 . S
O134 Zn131 2.028 . S
O135 C127 1.258 . S
O135 Zn129 2.035 . S
O136 Zn129 2.028 . S
O136 C139 1.247 . S
O137 Zn131 2.035 . S
O137 C139 1.258 . S
C138 O132 1.247 . S
C138 O133 1.258 . S
C139 O136 1.247 . S
C139 O137 1.258 . S
C140 O142 1.247 . S
C140 O144 1.258 1_565 S
C141 O148 1.247 . S
C141 O149 1.258 1_545 S
O142 C140 1.247 . S
O142 Zn143 2.028 . S
Zn143 O142 2.028 . S
Zn143 O147 2.035 . S
Zn143 O149 2.035 . S
Zn143 O150 2.028 . S
O144 C140 1.258 1_545 S
O144 Zn145 2.035 . S
Zn145 O144 2.035 . S
Zn145 O146 2.028 . S
Zn145 O148 2.028 . S
Zn145 O151 2.035 . S
O146 Zn145 2.028 . S
O146 C152 1.247 . S
O147 Zn143 2.035 . S
O147 C152 1.258 1_565 S
O148 C141 1.247 . S
O148 Zn145 2.028 . S
O149 C141 1.258 1_565 S
O149 Zn143 2.035 . S
O150 Zn143 2.028 . S
O150 C153 1.247 . S
O151 Zn145 2.035 . S
O151 C153 1.258 1_545 S
C152 O146 1.247 . S
C152 O147 1.258 1_545 S
C153 O150 1.247 . S
C153 O151 1.258 1_565 S
C154 O156 1.247 1_556 S
C154 O158 1.258 . S
C155 O162 1.247 1_554 S
C155 O163 1.258 . S
O156 C154 1.247 1_554 S
O156 Zn157 2.028 . S
Zn157 O156 2.028 . S
Zn157 O161 2.035 . S
Zn157 O163 2.035 . S
Zn157 O164 2.028 . S
O158 C154 1.258 . S
O158 Zn159 2.035 . S
Zn159 O158 2.035 . S
Zn159 O160 2.028 . S
Zn159 O162 2.028 . S
Zn159 O165 2.035 . S
O160 Zn159 2.028 . S
O160 C166 1.247 1_556 S
O161 Zn157 2.035 . S
O161 C166 1.258 . S
O162 C155 1.247 1_556 S
O162 Zn159 2.028 . S
O163 C155 1.258 . S
O163 Zn157 2.035 . S
O164 Zn157 2.028 . S
O164 C167 1.247 1_554 S
O165 Zn159 2.035 . S
O165 C167 1.258 . S
C166 O160 1.247 1_554 S
C166 O161 1.258 . S
C167 O164 1.247 1_556 S
C167 O165 1.258 . S
Zn168 O174 1.920 . S
Zn168 O180 1.898 . S
Zn168 O183 1.905 . S
Zn169 O177 1.905 1_554 S
Zn169 O178 1.898 1_545 S
Zn169 O186 1.920 1_455 S
Zn170 O173 2.080 . S
Zn170 O176 2.114 . S
Zn170 O179 2.120 . S
Zn170 O181 2.120 . S
Zn170 O182 2.114 . S
Zn170 O185 2.080 . S
C171 O176 1.166 1_556 S
C171 O177 1.182 . S
C172 O178 1.167 . S
C172 O179 1.299 1_565 S
O173 Zn170 2.080 . S
O173 C187 1.305 . S
O174 Zn168 1.920 . S
O174 C187 1.234 . S
C175 O180 1.167 . S
C175 O181 1.299 . S
O176 Zn170 2.114 . S
O176 C171 1.166 1_554 S
O177 Zn169 1.905 1_556 S
O177 C171 1.182 . S
O178 Zn169 1.898 1_565 S
O178 C172 1.167 . S
O179 Zn170 2.120 . S
O179 C172 1.299 1_545 S
O180 Zn168 1.898 . S
O180 C175 1.167 . S
O181 Zn170 2.120 . S
O181 C175 1.299 . S
O182 Zn170 2.114 . S
O182 C184 1.166 . S
O183 Zn168 1.905 . S
O183 C184 1.182 . S
C184 O182 1.166 . S
C184 O183 1.182 . S
O185 Zn170 2.080 . S
O185 C188 1.305 1_455 S
O186 Zn169 1.920 1_655 S
O186 C188 1.234 . S
C187 O173 1.305 . S
C187 O174 1.234 . S
C188 O185 1.305 1_655 S
C188 O186 1.234 . S
Zn189 O195 1.920 1_655 S
Zn189 O201 1.898 . S
Zn189 O204 1.905 1_554 S
Zn190 O198 1.905 . S
Zn190 O199 1.898 . S
Zn190 O207 1.920 . S
Zn191 O194 2.080 . S
Zn191 O197 2.114 . S
Zn191 O200 2.120 . S
Zn191 O202 2.120 . S
Zn191 O203 2.114 . S
Zn191 O206 2.080 . S
C192 O197 1.166 . S
C192 O198 1.182 . S
C193 O199 1.167 . S
C193 O200 1.299 . S
O194 Zn191 2.080 . S
O194 C208 1.305 1_655 S
O195 Zn189 1.920 1_455 S
O195 C208 1.234 . S
C196 O201 1.167 . S
C196 O202 1.299 . S
O197 Zn191 2.114 . S
O197 C192 1.166 . S
O198 Zn190 1.905 . S
O198 C192 1.182 . S
O199 Zn190 1.898 . S
O199 C193 1.167 . S
O200 Zn191 2.120 . S
O200 C193 1.299 . S
O201 Zn189 1.898 . S
O201 C196 1.167 . S
O202 Zn191 2.120 . S
O202 C196 1.299 . S
O203 Zn191 2.114 . S
O203 C205 1.166 1_554 S
O204 Zn189 1.905 1_556 S
O204 C205 1.182 . S
C205 O203 1.166 1_556 S
C205 O204 1.182 . S
O206 Zn191 2.080 . S
O206 C209 1.305 . S
O207 Zn190 1.920 . S
O207 C209 1.234 . S
C208 O194 1.305 1_455 S
C208 O195 1.234 . S
C209 O206 1.305 . S
C209 O207 1.234 . S
Zn210 O216 1.918 . S
Zn210 O222 1.899 1_545 S
Zn210 O225 1.906 1_445 S
Zn211 O219 1.905 . S
Zn211 O220 1.898 . S
Zn211 O228 1.920 . S
Zn212 O215 2.080 . S
Zn212 O218 2.114 . S
Zn212 O221 2.120 . S
Zn212 O223 2.120 . S
Zn212 O224 2.114 . S
Zn212 O227 2.080 . S
C213 O218 1.166 . S
C213 O219 1.182 . S
C214 O220 1.167 . S
C214 O221 1.299 . S
O215 Zn212 2.080 . S
O215 C229 1.305 1_565 S
O216 Zn210 1.918 . S
O216 C229 1.234 . S
C217 O222 1.167 . S
C217 O223 1.299 . S
O218 Zn212 2.114 . S
O218 C213 1.166 . S
O219 Zn211 1.905 . S
O219 C213 1.182 . S
O220 Zn211 1.898 . S
O220 C214 1.167 . S
O221 Zn212 2.120 . S
O221 C214 1.299 . S
O222 Zn210 1.899 1_565 S
O222 C217 1.167 . S
O223 Zn212 2.120 . S
O223 C217 1.299 . S
O224 Zn212 2.114 . S
O224 C226 1.166 1_455 S
O225 Zn210 1.906 1_665 S
O225 C226 1.182 . S
C226 O224 1.166 1_655 S
C226 O225 1.182 . S
O227 Zn212 2.080 . S
O227 C230 1.305 . S
O228 Zn211 1.920 . S
O228 C230 1.234 . S
C229 O215 1.305 1_545 S
C229 O216 1.234 . S
C230 O227 1.305 . S
C230 O228 1.234 . S
Zn231 O237 1.920 . S
Zn231 O243 1.898 . S
Zn231 O246 1.905 . S
Zn232 O240 1.905 . S
Zn232 O241 1.898 1_655 S
Zn232 O249 1.920 . S
Zn233 O236 2.080 . S
Zn233 O239 2.114 . S
Zn233 O242 2.120 . S
Zn233 O244 2.120 . S
Zn233 O245 2.114 . S
Zn233 O248 2.080 . S
C234 O239 1.166 . S
C234 O240 1.182 . S
C235 O241 1.167 . S
C235 O242 1.299 1_455 S
O236 Zn233 2.080 . S
O236 C250 1.305 . S
O237 Zn231 1.920 . S
O237 C250 1.234 . S
C238 O243 1.167 . S
C238 O244 1.299 . S
O239 Zn233 2.114 . S
O239 C234 1.166 . S
O240 Zn232 1.905 . S
O240 C234 1.182 . S
O241 Zn232 1.898 1_455 S
O241 C235 1.167 . S
O242 Zn233 2.120 . S
O242 C235 1.299 1_655 S
O243 Zn231 1.898 . S
O243 C238 1.167 . S
O244 Zn233 2.120 . S
O244 C238 1.299 . S
O245 Zn233 2.114 . S
O245 C247 1.166 . S
O246 Zn231 1.905 . S
O246 C247 1.182 . S
C247 O245 1.166 . S
C247 O246 1.182 . S
O248 Zn233 2.080 . S
O248 C251 1.305 . S
O249 Zn232 1.920 . S
O249 C251 1.234 . S
C250 O236 1.305 . S
C250 O237 1.234 . S
C251 O248 1.305 . S
C251 O249 1.234 . S
Zn252 O258 1.920 . S
Zn252 O264 1.898 . S
Zn252 O267 1.905 . S
Zn253 O261 1.898 1_545 S
Zn253 O262 1.919 . S
Zn253 O270 1.899 1_545 S
Zn254 O257 2.080 . S
Zn254 O260 2.114 . S
Zn254 O263 2.120 . S
Zn254 O265 2.120 . S
Zn254 O266 2.114 . S
Zn254 O269 2.080 . S
C255 O260 1.166 . S
C255 O261 1.182 . S
C256 O262 1.167 . S
C256 O263 1.299 1_545 S
O257 Zn254 2.080 . S
O257 C271 1.305 . S
O258 Zn252 1.920 . S
O258 C271 1.234 . S
C259 O264 1.167 . S
C259 O265 1.299 . S
O260 Zn254 2.114 . S
O260 C255 1.166 . S
O261 Zn253 1.898 1_565 S
O261 C255 1.182 . S
O262 Zn253 1.919 . S
O262 C256 1.167 . S
O263 Zn254 2.120 . S
O263 C256 1.299 1_565 S
O264 Zn252 1.898 . S
O264 C259 1.167 . S
O265 Zn254 2.120 . S
O265 C259 1.299 . S
O266 Zn254 2.114 . S
O266 C268 1.166 . S
O267 Zn252 1.905 . S
O267 C268 1.182 . S
C268 O266 1.166 . S
C268 O267 1.182 . S
O269 Zn254 2.080 . S
O269 C272 1.305 . S
O270 Zn253 1.899 1_565 S
O270 C272 1.234 . S
C271 O257 1.305 . S
C271 O258 1.234 . S
C272 O269 1.305 . S
C272 O270 1.234 . S
Zn273 O279 1.920 . S
Zn273 O285 1.898 . S
Zn273 O288 1.905 . S
Zn274 O282 1.905 . S
Zn274 O283 1.898 . S
Zn274 O291 1.920 . S
Zn275 O278 2.080 . S
Zn275 O281 2.114 . S
Zn275 O284 2.120 . S
Zn275 O286 2.120 . S
Zn275 O287 2.114 . S
Zn275 O290 2.080 . S
C276 O281 1.166 . S
C276 O282 1.182 . S
C277 O283 1.167 . S
C277 O284 1.299 . S
O278 Zn275 2.080 . S
O278 C292 1.305 . S
O279 Zn273 1.920 . S
O279 C292 1.234 . S
C280 O285 1.167 . S
C280 O286 1.299 . S
O281 Zn275 2.114 . S
O281 C276 1.166 . S
O282 Zn274 1.905 . S
O282 C276 1.182 . S
O283 Zn274 1.898 . S
O283 C277 1.167 . S
O284 Zn275 2.120 . S
O284 C277 1.299 . S
O285 Zn273 1.898 . S
O285 C280 1.167 . S
O286 Zn275 2.120 . S
O286 C280 1.299 . S
O287 Zn275 2.114 . S
O287 C289 1.166 . S
O288 Zn273 1.905 . S
O288 C289 1.182 . S
C289 O287 1.166 . S
C289 O288 1.182 . S
O290 Zn275 2.080 . S
O290 C293 1.305 . S
O291 Zn274 1.920 . S
O291 C293 1.234 . S
C292 O278 1.305 . S
C292 O279 1.234 . S
C293 O290 1.305 . S
C293 O291 1.234 . S
Zn294 O300 1.906 1_554 S
Zn294 O306 1.912 . S
Zn294 O309 1.900 1_554 S
Zn295 O303 1.905 . S
Zn295 O304 1.898 . S
Zn295 O312 1.920 . S
Zn296 O299 2.080 . S
Zn296 O302 2.114 . S
Zn296 O305 2.120 . S
Zn296 O307 2.120 . S
Zn296 O308 2.114 . S
Zn296 O311 2.080 . S
C297 O302 1.166 . S
C297 O303 1.182 . S
C298 O304 1.167 . S
C298 O305 1.299 . S
O299 Zn296 2.080 . S
O299 C313 1.305 . S
O300 Zn294 1.906 1_556 S
O300 C313 1.234 . S
C301 O306 1.167 . S
C301 O307 1.299 1_554 S
O302 Zn296 2.114 . S
O302 C297 1.166 . S
O303 Zn295 1.905 . S
O303 C297 1.182 . S
O304 Zn295 1.898 . S
O304 C298 1.167 . S
O305 Zn296 2.120 . S
O305 C298 1.299 . S
O306 Zn294 1.912 . S
O306 C301 1.167 . S
O307 Zn296 2.120 . S
O307 C301 1.299 1_556 S
O308 Zn296 2.114 . S
O308 C310 1.166 . S
O309 Zn294 1.900 1_556 S
O309 C310 1.182 . S
C310 O308 1.166 . S
C310 O309 1.182 . S
O311 Zn296 2.080 . S
O311 C314 1.305 . S
O312 Zn295 1.920 . S
O312 C314 1.234 . S
C313 O299 1.305 . S
C313 O300 1.234 . S
C314 O311 1.305 . S
C314 O312 1.234 . S
Zn315 O321 1.924 . S
Zn315 O327 1.897 1_554 S
Zn315 O330 1.900 1_544 S
Zn316 O324 1.905 . S
Zn316 O325 1.898 . S
Zn316 O333 1.920 . S
Zn317 O320 2.080 . S
Zn317 O323 2.114 . S
Zn317 O326 2.120 . S
Zn317 O328 2.120 . S
Zn317 O329 2.114 . S
Zn317 O332 2.080 . S
C318 O323 1.166 . S
C318 O324 1.182 . S
C319 O325 1.167 . S
C319 O326 1.299 . S
O320 Zn317 2.080 . S
O320 C334 1.305 1_556 S
O321 Zn315 1.924 . S
O321 C334 1.234 . S
C322 O327 1.167 . S
C322 O328 1.299 . S
O323 Zn317 2.114 . S
O323 C318 1.166 . S
O324 Zn316 1.905 . S
O324 C318 1.182 . S
O325 Zn316 1.898 . S
O325 C319 1.167 . S
O326 Zn317 2.120 . S
O326 C319 1.299 . S
O327 Zn315 1.897 1_556 S
O327 C322 1.167 . S
O328 Zn317 2.120 . S
O328 C322 1.299 . S
O329 Zn317 2.114 . S
O329 C331 1.166 1_545 S
O330 Zn315 1.900 1_566 S
O330 C331 1.182 . S
C331 O329 1.166 1_565 S
C331 O330 1.182 . S
O332 Zn317 2.080 . S
O332 C335 1.305 . S
O333 Zn316 1.920 . S
O333 C335 1.234 . S
C334 O320 1.305 1_554 S
C334 O321 1.234 . S
C335 O332 1.305 . S
C335 O333 1.234 . S
H336 C348 0.930 . S
H337 C350 0.930 . S
H338 C351 0.930 . S
H339 C355 0.959 . S
H340 C355 0.959 . S
H341 C355 0.961 . S
H342 C356 0.960 . S
H343 C356 0.962 . S
H344 C356 0.959 . S
H345 C359 0.929 . S
H346 C360 0.931 . S
H347 C362 0.930 . S
C348 H336 0.930 . S
C348 C349 1.399 . S
C348 C353 1.399 . S
C349 C348 1.399 . S
C349 C350 1.376 . S
C350 H337 0.930 . S
C350 C349 1.376 . S
C350 C351 1.388 . S
C351 H338 0.930 . S
C351 C350 1.388 . S
C351 C352 1.390 . S
C352 C351 1.390 . S
C352 C353 1.394 . S
C352 C358 1.465 . S
C353 C348 1.399 . S
C353 C352 1.394 . S
C353 C354 1.516 . S
C354 C353 1.516 . S
C354 C355 1.502 . S
C354 C356 1.561 1_455 S
C354 C357 1.526 . S
C355 H339 0.959 . S
C355 H340 0.959 . S
C355 H341 0.961 . S
C355 C354 1.502 . S
C356 H342 0.960 . S
C356 H343 0.962 . S
C356 H344 0.959 . S
C356 C354 1.561 1_655 S
C357 C354 1.526 . S
C357 C358 1.396 . S
C357 C362 1.390 . S
C358 C352 1.465 . S
C358 C357 1.396 . S
C358 C359 1.399 . S
C359 H345 0.929 . S
C359 C358 1.399 . S
C359 C360 1.385 . S
C360 H346 0.931 . S
C360 C359 1.385 . S
C360 C361 1.389 . S
C361 C360 1.389 . S
C361 C362 1.387 . S
C362 H347 0.930 . S
C362 C357 1.390 . S
C362 C361 1.387 . S
H363 C375 0.930 . S
H364 C377 0.930 1_455 S
H365 C378 0.926 1_455 S
H366 C382 0.959 . S
H367 C382 0.959 . S
H368 C382 0.961 . S
H369 C383 0.960 . S
H370 C383 0.961 1_655 S
H371 C383 0.959 . S
H372 C386 0.929 . S
H373 C387 0.931 . S
H374 C389 0.930 . S
C375 H363 0.930 . S
C375 C376 1.399 . S
C375 C380 1.399 . S
C376 C375 1.399 . S
C376 C377 1.377 . S
C377 H364 0.930 1_655 S
C377 C376 1.377 . S
C377 C378 1.388 . S
C378 H365 0.926 1_655 S
C378 C377 1.388 . S
C378 C379 1.394 . S
C379 C378 1.394 . S
C379 C380 1.394 . S
C379 C385 1.465 . S
C380 C375 1.399 . S
C380 C379 1.394 . S
C380 C381 1.516 . S
C381 C380 1.516 . S
C381 C382 1.502 . S
C381 C383 1.561 1_655 S
C381 C384 1.526 . S
C382 H366 0.959 . S
C382 H367 0.959 . S
C382 H368 0.961 . S
C382 C381 1.502 . S
C383 H369 0.960 . S
C383 H370 0.961 1_455 S
C383 H371 0.959 . S
C383 C381 1.561 1_455 S
C384 C381 1.526 . S
C384 C385 1.396 . S
C384 C389 1.390 . S
C385 C379 1.465 . S
C385 C384 1.396 . S
C385 C386 1.399 . S
C386 H372 0.929 . S
C386 C385 1.399 . S
C386 C387 1.385 . S
C387 H373 0.931 . S
C387 C386 1.385 . S
C387 C388 1.389 . S
C388 C387 1.389 . S
C388 C389 1.387 . S
C389 H374 0.930 . S
C389 C384 1.390 . S
C389 C388 1.387 . S
H390 C402 0.930 . S
H391 C404 0.930 . S
H392 C405 0.930 . S
H393 C409 0.959 1_655 S
H394 C409 0.959 . S
H395 C409 0.961 . S
H396 C410 0.960 . S
H397 C410 0.961 . S
H398 C410 0.959 . S
H399 C413 0.929 . S
H400 C414 0.931 . S
H401 C416 0.930 . S
C402 H390 0.930 . S
C402 C403 1.399 . S
C402 C407 1.399 . S
C403 C402 1.399 . S
C403 C404 1.376 . S
C404 H391 0.930 . S
C404 C403 1.376 . S
C404 C405 1.388 . S
C405 H392 0.930 . S
C405 C404 1.388 . S
C405 C406 1.390 . S
C406 C405 1.390 . S
C406 C407 1.394 . S
C406 C412 1.465 . S
C407 C402 1.399 . S
C407 C406 1.394 . S
C407 C408 1.516 . S
C408 C407 1.516 . S
C408 C409 1.502 . S
C408 C410 1.561 . S
C408 C411 1.526 . S
C409 H393 0.959 1_455 S
C409 H394 0.959 . S
C409 H395 0.961 . S
C409 C408 1.502 . S
C410 H396 0.960 . S
C410 H397 0.961 . S
C410 H398 0.959 . S
C410 C408 1.561 . S
C411 C408 1.526 . S
C411 C412 1.396 . S
C411 C416 1.390 . S
C412 C406 1.465 . S
C412 C411 1.396 . S
C412 C413 1.399 . S
C413 H399 0.929 . S
C413 C412 1.399 . S
C413 C414 1.385 . S
C414 H400 0.931 . S
C414 C413 1.385 . S
C414 C415 1.389 . S
C415 C414 1.389 . S
C415 C416 1.387 . S
C416 H401 0.930 . S
C416 C411 1.390 . S
C416 C415 1.387 . S
H417 C429 0.919 1_455 S
H418 C431 0.930 . S
H419 C432 0.930 . S
H420 C436 0.959 . S
H421 C436 0.959 . S
H422 C436 0.961 . S
H423 C437 0.960 . S
H424 C437 0.961 . S
H425 C437 0.959 . S
H426 C440 0.929 . S
H427 C441 0.931 . S
H428 C443 0.930 . S
C429 H417 0.919 1_655 S
C429 C430 1.399 . S
C429 C434 1.399 . S
C430 C429 1.399 . S
C430 C431 1.376 . S
C431 H418 0.930 . S
C431 C430 1.376 . S
C431 C432 1.388 . S
C432 H419 0.930 . S
C432 C431 1.388 . S
C432 C433 1.390 . S
C433 C432 1.390 . S
C433 C434 1.394 . S
C433 C439 1.465 . S
C434 C429 1.399 . S
C434 C433 1.394 . S
C434 C435 1.516 . S
C435 C434 1.516 . S
C435 C436 1.502 1_655 S
C435 C437 1.561 . S
C435 C438 1.526 . S
C436 H420 0.959 . S
C436 H421 0.959 . S
C436 H422 0.961 . S
C436 C435 1.502 1_455 S
C437 H423 0.960 . S
C437 H424 0.961 . S
C437 H425 0.959 . S
C437 C435 1.561 . S
C438 C435 1.526 . S
C438 C439 1.396 . S
C438 C443 1.390 . S
C439 C433 1.465 . S
C439 C438 1.396 . S
C439 C440 1.399 . S
C440 H426 0.929 . S
C440 C439 1.399 . S
C440 C441 1.385 . S
C441 H427 0.931 . S
C441 C440 1.385 . S
C441 C442 1.389 . S
C442 C441 1.389 . S
C442 C443 1.387 . S
C443 H428 0.930 . S
C443 C438 1.390 . S
C443 C442 1.387 . S
H444 C456 0.930 . S
H445 C458 0.930 . S
H446 C459 0.930 . S
H447 C463 0.959 . S
H448 C463 0.959 . S
H449 C463 0.961 . S
H450 C464 0.960 . S
H451 C464 0.961 . S
H452 C464 0.959 . S
H453 C467 0.929 . S
H454 C468 0.931 1_565 S
H455 C470 0.930 . S
C456 H444 0.930 . S
C456 C457 1.399 . S
C456 C461 1.399 . S
C457 C456 1.399 . S
C457 C458 1.376 1_545 S
C458 H445 0.930 . S
C458 C457 1.376 1_565 S
C458 C459 1.388 . S
C459 H446 0.930 . S
C459 C458 1.388 . S
C459 C460 1.390 1_565 S
C460 C459 1.390 1_545 S
C460 C461 1.394 . S
C460 C466 1.465 . S
C461 C456 1.399 . S
C461 C460 1.394 . S
C461 C462 1.516 . S
C462 C461 1.516 . S
C462 C463 1.502 . S
C462 C464 1.561 . S
C462 C465 1.526 . S
C463 H447 0.959 . S
C463 H448 0.959 . S
C463 H449 0.961 . S
C463 C462 1.502 . S
C464 H450 0.960 . S
C464 H451 0.961 . S
C464 H452 0.959 . S
C464 C462 1.561 . S
C465 C462 1.526 . S
C465 C466 1.396 . S
C465 C470 1.390 . S
C466 C460 1.465 . S
C466 C465 1.396 . S
C466 C467 1.399 1_545 S
C467 H453 0.929 . S
C467 C466 1.399 1_565 S
C467 C468 1.385 1_565 S
C468 H454 0.931 1_545 S
C468 C467 1.385 1_545 S
C468 C469 1.389 . S
C469 C468 1.389 . S
C469 C470 1.387 . S
C470 H455 0.930 . S
C470 C465 1.390 . S
C470 C469 1.387 . S
H471 C483 0.930 . S
H472 C485 0.930 . S
H473 C486 0.930 . S
H474 C490 0.959 . S
H475 C490 0.959 . S
H476 C490 0.961 . S
H477 C491 0.960 . S
H478 C491 0.961 . S
H479 C491 0.959 . S
H480 C494 0.929 . S
H481 C495 0.931 . S
H482 C497 0.930 . S
C483 H471 0.930 . S
C483 C484 1.399 . S
C483 C488 1.399 . S
C484 C483 1.399 . S
C484 C485 1.376 . S
C485 H472 0.930 . S
C485 C484 1.376 . S
C485 C486 1.388 . S
C486 H473 0.930 . S
C486 C485 1.388 . S
C486 C487 1.390 . S
C487 C486 1.390 . S
C487 C488 1.394 . S
C487 C493 1.465 . S
C488 C483 1.399 . S
C488 C487 1.394 . S
C488 C489 1.516 . S
C489 C488 1.516 . S
C489 C490 1.502 . S
C489 C491 1.561 . S
C489 C492 1.526 . S
C490 H474 0.959 . S
C490 H475 0.959 . S
C490 H476 0.961 . S
C490 C489 1.502 . S
C491 H477 0.960 . S
C491 H478 0.961 . S
C491 H479 0.959 . S
C491 C489 1.561 . S
C492 C489 1.526 . S
C492 C493 1.396 . S
C492 C497 1.390 . S
C493 C487 1.465 . S
C493 C492 1.396 . S
C493 C494 1.399 . S
C494 H480 0.929 . S
C494 C493 1.399 . S
C494 C495 1.385 . S
C495 H481 0.931 . S
C495 C494 1.385 . S
C495 C496 1.389 . S
C496 C495 1.389 . S
C496 C497 1.387 . S
C497 H482 0.930 . S
C497 C492 1.390 . S
C497 C496 1.387 . S
H498 C510 0.930 . S
H499 C512 0.930 . S
H500 C513 0.930 . S
H501 C517 0.959 . S
H502 C517 0.959 . S
H503 C517 0.961 . S
H504 C518 0.960 . S
H505 C518 0.961 . S
H506 C518 0.959 . S
H507 C521 0.929 . S
H508 C522 0.931 . S
H509 C524 0.930 1_545 S
C510 H498 0.930 . S
C510 C511 1.399 1_545 S
C510 C515 1.399 . S
C511 C510 1.399 1_565 S
C511 C512 1.376 . S
C512 H499 0.930 . S
C512 C511 1.376 . S
C512 C513 1.388 . S
C513 H500 0.930 . S
C513 C512 1.388 . S
C513 C514 1.390 . S
C514 C513 1.390 . S
C514 C515 1.394 1_565 S
C514 C520 1.465 . S
C515 C510 1.399 . S
C515 C514 1.394 1_545 S
C515 C516 1.516 . S
C516 C515 1.516 . S
C516 C517 1.502 . S
C516 C518 1.561 . S
C516 C519 1.526 1_545 S
C517 H501 0.959 . S
C517 H502 0.959 . S
C517 H503 0.961 . S
C517 C516 1.502 . S
C518 H504 0.960 . S
C518 H505 0.961 . S
C518 H506 0.959 . S
C518 C516 1.561 . S
C519 C516 1.526 1_565 S
C519 C520 1.396 . S
C519 C524 1.390 . S
C520 C514 1.465 . S
C520 C519 1.396 . S
C520 C521 1.399 . S
C521 H507 0.929 . S
C521 C520 1.399 . S
C521 C522 1.385 . S
C522 H508 0.931 . S
C522 C521 1.385 . S
C522 C523 1.389 . S
C523 C522 1.389 . S
C523 C524 1.387 . S
C524 H509 0.930 1_565 S
C524 C519 1.390 . S
C524 C523 1.387 . S
H525 C537 0.930 . S
H526 C539 0.930 . S
H527 C540 0.930 . S
H528 C544 0.959 . S
H529 C544 0.959 . S
H530 C544 0.961 . S
H531 C545 0.960 . S
H532 C545 0.961 . S
H533 C545 0.959 . S
H534 C548 0.929 . S
H535 C549 0.931 . S
H536 C551 0.930 . S
C537 H525 0.930 . S
C537 C538 1.399 . S
C537 C542 1.399 . S
C538 C537 1.399 . S
C538 C539 1.376 . S
C539 H526 0.930 . S
C539 C538 1.376 . S
C539 C540 1.388 . S
C540 H527 0.930 . S
C540 C539 1.388 . S
C540 C541 1.390 . S
C541 C540 1.390 . S
C541 C542 1.394 . S
C541 C547 1.465 . S
C542 C537 1.399 . S
C542 C541 1.394 . S
C542 C543 1.516 . S
C543 C542 1.516 . S
C543 C544 1.502 . S
C543 C545 1.561 . S
C543 C546 1.526 . S
C544 H528 0.959 . S
C544 H529 0.959 . S
C544 H530 0.961 . S
C544 C543 1.502 . S
C545 H531 0.960 . S
C545 H532 0.961 . S
C545 H533 0.959 . S
C545 C543 1.561 . S
C546 C543 1.526 . S
C546 C547 1.396 . S
C546 C551 1.390 . S
C547 C541 1.465 . S
C547 C546 1.396 . S
C547 C548 1.399 . S
C548 H534 0.929 . S
C548 C547 1.399 . S
C548 C549 1.385 . S
C549 H535 0.931 . S
C549 C548 1.385 . S
C549 C550 1.389 . S
C550 C549 1.389 . S
C550 C551 1.387 . S
C551 H536 0.930 . S
C551 C546 1.390 . S
C551 C550 1.387 . S
H552 C564 0.930 . S
H553 C566 0.930 . S
H554 C567 0.930 . S
H555 C571 0.959 . S
H556 C571 0.959 . S
H557 C571 0.961 . S
H558 C572 0.960 . S
H559 C572 0.961 . S
H560 C572 0.959 . S
H561 C575 0.929 . S
H562 C576 0.931 1_556 S
H563 C578 0.930 . S
C564 H552 0.930 . S
C564 C565 1.399 . S
C564 C569 1.399 . S
C565 C564 1.399 . S
C565 C566 1.376 1_554 S
C566 H553 0.930 . S
C566 C565 1.376 1_556 S
C566 C567 1.388 . S
C567 H554 0.930 . S
C567 C566 1.388 . S
C567 C568 1.390 1_556 S
C568 C567 1.390 1_554 S
C568 C569 1.394 . S
C568 C574 1.465 . S
C569 C564 1.399 . S
C569 C568 1.394 . S
C569 C570 1.516 . S
C570 C569 1.516 . S
C570 C571 1.502 . S
C570 C572 1.561 . S
C570 C573 1.526 . S
C571 H555 0.959 . S
C571 H556 0.959 . S
C571 H557 0.961 . S
C571 C570 1.502 . S
C572 H558 0.960 . S
C572 H559 0.961 . S
C572 H560 0.959 . S
C572 C570 1.561 . S
C573 C570 1.526 . S
C573 C574 1.396 . S
C573 C578 1.390 . S
C574 C568 1.465 . S
C574 C573 1.396 . S
C574 C575 1.399 1_554 S
C575 H561 0.929 . S
C575 C574 1.399 1_556 S
C575 C576 1.385 1_556 S
C576 H562 0.931 1_554 S
C576 C575 1.385 1_554 S
C576 C577 1.389 . S
C577 C576 1.389 . S
C577 C578 1.387 . S
C578 H563 0.930 . S
C578 C573 1.390 . S
C578 C577 1.387 . S
H579 C591 0.930 . S
H580 C593 0.930 . S
H581 C594 0.930 . S
H582 C598 0.959 . S
H583 C598 0.959 . S
H584 C598 0.961 . S
H585 C599 0.960 . S
H586 C599 0.961 . S
H587 C599 0.959 . S
H588 C602 0.929 . S
H589 C603 0.931 . S
H590 C605 0.930 . S
C591 H579 0.930 . S
C591 C592 1.399 . S
C591 C596 1.399 . S
C592 C591 1.399 . S
C592 C593 1.376 . S
C593 H580 0.930 . S
C593 C592 1.376 . S
C593 C594 1.388 . S
C594 H581 0.930 . S
C594 C593 1.388 . S
C594 C595 1.390 . S
C595 C594 1.390 . S
C595 C596 1.394 . S
C595 C601 1.465 . S
C596 C591 1.399 . S
C596 C595 1.394 . S
C596 C597 1.516 . S
C597 C596 1.516 . S
C597 C598 1.502 . S
C597 C599 1.561 . S
C597 C600 1.526 . S
C598 H582 0.959 . S
C598 H583 0.959 . S
C598 H584 0.961 . S
C598 C597 1.502 . S
C599 H585 0.960 . S
C599 H586 0.961 . S
C599 H587 0.959 . S
C599 C597 1.561 . S
C600 C597 1.526 . S
C600 C601 1.396 . S
C600 C605 1.390 . S
C601 C595 1.465 . S
C601 C600 1.396 . S
C601 C602 1.399 . S
C602 H588 0.929 . S
C602 C601 1.399 . S
C602 C603 1.385 . S
C603 H589 0.931 . S
C603 C602 1.385 . S
C603 C604 1.389 . S
C604 C603 1.389 . S
C604 C605 1.387 . S
C605 H590 0.930 . S
C605 C600 1.390 . S
C605 C604 1.387 . S
H606 C618 0.930 . S
H607 C620 0.930 . S
H608 C621 0.930 . S
H609 C625 0.959 . S
H610 C625 0.959 . S
H611 C625 0.961 . S
H612 C626 0.960 . S
H613 C626 0.961 . S
H614 C626 0.959 . S
H615 C629 0.929 . S
H616 C630 0.931 . S
H617 C632 0.930 . S
C618 H606 0.930 . S
C618 C619 1.399 . S
C618 C623 1.399 . S
C619 C618 1.399 . S
C619 C620 1.376 . S
C620 H607 0.930 . S
C620 C619 1.376 . S
C620 C621 1.388 . S
C621 H608 0.930 . S
C621 C620 1.388 . S
C621 C622 1.390 . S
C622 C621 1.390 . S
C622 C623 1.394 . S
C622 C628 1.465 . S
C623 C618 1.399 . S
C623 C622 1.394 . S
C623 C624 1.516 . S
C624 C623 1.516 . S
C624 C625 1.502 . S
C624 C626 1.561 . S
C624 C627 1.526 . S
C625 H609 0.959 . S
C625 H610 0.959 . S
C625 H611 0.961 . S
C625 C624 1.502 . S
C626 H612 0.960 . S
C626 H613 0.961 . S
C626 H614 0.959 . S
C626 C624 1.561 . S
C627 C624 1.526 . S
C627 C628 1.396 . S
C627 C632 1.390 . S
C628 C622 1.465 . S
C628 C627 1.396 . S
C628 C629 1.399 . S
C629 H615 0.929 . S
C629 C628 1.399 . S
C629 C630 1.385 . S
C630 H616 0.931 . S
C630 C629 1.385 . S
C630 C631 1.389 . S
C631 C630 1.389 . S
C631 C632 1.387 . S
C632 H617 0.930 . S
C632 C627 1.390 . S
C632 C631 1.387 . S
H633 C645 0.930 . S
H634 C647 0.930 . S
H635 C648 0.930 . S
H636 C652 0.959 . S
H637 C652 0.959 . S
H638 C652 0.961 . S
H639 C653 0.960 . S
H640 C653 0.961 . S
H641 C653 0.959 . S
H642 C656 0.929 . S
H643 C657 0.931 . S
H644 C659 0.930 . S
C645 H633 0.930 . S
C645 C646 1.399 . S
C645 C650 1.399 . S
C646 C645 1.399 . S
C646 C647 1.376 . S
C647 H634 0.930 . S
C647 C646 1.376 . S
C647 C648 1.388 . S
C648 H635 0.930 . S
C648 C647 1.388 . S
C648 C649 1.390 . S
C649 C648 1.390 . S
C649 C650 1.394 . S
C649 C655 1.465 . S
C650 C645 1.399 . S
C650 C649 1.394 . S
C650 C651 1.516 . S
C651 C650 1.516 . S
C651 C652 1.502 . S
C651 C653 1.561 . S
C651 C654 1.526 . S
C652 H636 0.959 . S
C652 H637 0.959 . S
C652 H638 0.961 . S
C652 C651 1.502 . S
C653 H639 0.960 . S
C653 H640 0.961 . S
C653 H641 0.959 . S
C653 C651 1.561 . S
C654 C651 1.526 . S
C654 C655 1.396 . S
C654 C659 1.390 . S
C655 C649 1.465 . S
C655 C654 1.396 . S
C655 C656 1.399 . S
C656 H642 0.929 . S
C656 C655 1.399 . S
C656 C657 1.385 . S
C657 H643 0.931 . S
C657 C656 1.385 . S
C657 C658 1.389 . S
C658 C657 1.389 . S
C658 C659 1.387 . S
C659 H644 0.930 . S
C659 C654 1.390 . S
C659 C658 1.387 . S
H660 C672 0.930 . S
H661 C674 0.930 . S
H662 C675 0.930 . S
H663 C679 0.959 . S
H664 C679 0.959 . S
H665 C679 0.961 . S
H666 C680 0.960 . S
H667 C680 0.961 . S
H668 C680 0.959 . S
H669 C683 0.929 . S
H670 C684 0.931 . S
H671 C686 0.930 . S
C672 H660 0.930 . S
C672 C673 1.399 . S
C672 C677 1.399 . S
C673 C672 1.399 . S
C673 C674 1.376 . S
C674 H661 0.930 . S
C674 C673 1.376 . S
C674 C675 1.388 . S
C675 H662 0.930 . S
C675 C674 1.388 . S
C675 C676 1.390 . S
C676 C675 1.390 . S
C676 C677 1.394 . S
C676 C682 1.465 . S
C677 C672 1.399 . S
C677 C676 1.394 . S
C677 C678 1.516 . S
C678 C677 1.516 . S
C678 C679 1.502 . S
C678 C680 1.561 . S
C678 C681 1.526 . S
C679 H663 0.959 . S
C679 H664 0.959 . S
C679 H665 0.961 . S
C679 C678 1.502 . S
C680 H666 0.960 . S
C680 H667 0.961 . S
C680 H668 0.959 . S
C680 C678 1.561 . S
C681 C678 1.526 . S
C681 C682 1.396 . S
C681 C686 1.390 . S
C682 C676 1.465 . S
C682 C681 1.396 . S
C682 C683 1.399 . S
C683 H669 0.929 . S
C683 C682 1.399 . S
C683 C684 1.385 . S
C684 H670 0.931 . S
C684 C683 1.385 . S
C684 C685 1.389 . S
C685 C684 1.389 . S
C685 C686 1.387 . S
C686 H671 0.930 . S
C686 C681 1.390 . S
C686 C685 1.387 . S
H687 C699 0.930 . S
H688 C701 0.930 . S
H689 C702 0.930 . S
H690 C706 0.959 . S
H691 C706 0.959 . S
H692 C706 0.961 . S
H693 C707 0.960 . S
H694 C707 0.961 . S
H695 C707 0.959 . S
H696 C710 0.929 . S
H697 C711 0.931 . S
H698 C713 0.930 . S
C699 H687 0.930 . S
C699 C700 1.399 . S
C699 C704 1.399 . S
C700 C699 1.399 . S
C700 C701 1.376 . S
C701 H688 0.930 . S
C701 C700 1.376 . S
C701 C702 1.388 . S
C702 H689 0.930 . S
C702 C701 1.388 . S
C702 C703 1.390 . S
C703 C702 1.390 . S
C703 C704 1.394 . S
C703 C709 1.465 . S
C704 C699 1.399 . S
C704 C703 1.394 . S
C704 C705 1.516 . S
C705 C704 1.516 . S
C705 C706 1.502 . S
C705 C707 1.561 . S
C705 C708 1.526 . S
C706 H690 0.959 . S
C706 H691 0.959 . S
C706 H692 0.961 . S
C706 C705 1.502 . S
C707 H693 0.960 . S
C707 H694 0.961 . S
C707 H695 0.959 . S
C707 C705 1.561 . S
C708 C705 1.526 . S
C708 C709 1.396 . S
C708 C713 1.390 . S
C709 C703 1.465 . S
C709 C708 1.396 . S
C709 C710 1.399 . S
C710 H696 0.929 . S
C710 C709 1.399 . S
C710 C711 1.385 . S
C711 H697 0.931 . S
C711 C710 1.385 . S
C711 C712 1.389 . S
C712 C711 1.389 . S
C712 C713 1.387 . S
C713 H698 0.930 . S
C713 C708 1.390 . S
C713 C712 1.387 . S
H714 C726 0.930 . S
H715 C728 0.930 . S
H716 C729 0.930 . S
H717 C733 0.959 . S
H718 C733 0.959 . S
H719 C733 0.961 . S
H720 C734 0.960 . S
H721 C734 0.961 . S
H722 C734 0.959 . S
H723 C737 0.929 . S
H724 C738 0.931 . S
H725 C740 0.930 . S
C726 H714 0.930 . S
C726 C727 1.399 . S
C726 C731 1.399 . S
C727 C726 1.399 . S
C727 C728 1.376 . S
C728 H715 0.930 . S
C728 C727 1.376 . S
C728 C729 1.388 . S
C729 H716 0.930 . S
C729 C728 1.388 . S
C729 C730 1.390 . S
C730 C729 1.390 . S
C730 C731 1.394 . S
C730 C736 1.465 . S
C731 C726 1.399 . S
C731 C730 1.394 . S
C731 C732 1.516 . S
C732 C731 1.516 . S
C732 C733 1.502 . S
C732 C734 1.561 . S
C732 C735 1.526 . S
C733 H717 0.959 . S
C733 H718 0.959 . S
C733 H719 0.961 . S
C733 C732 1.502 . S
C734 H720 0.960 . S
C734 H721 0.961 . S
C734 H722 0.959 . S
C734 C732 1.561 . S
C735 C732 1.526 . S
C735 C736 1.396 . S
C735 C740 1.390 . S
C736 C730 1.465 . S
C736 C735 1.396 . S
C736 C737 1.399 . S
C737 H723 0.929 . S
C737 C736 1.399 . S
C737 C738 1.385 . S
C738 H724 0.931 . S
C738 C737 1.385 . S
C738 C739 1.389 . S
C739 C738 1.389 . S
C739 C740 1.387 . S
C740 H725 0.930 . S
C740 C735 1.390 . S
C740 C739 1.387 . S
H741 C753 0.930 . S
H742 C755 0.930 . S
H743 C756 0.930 . S
H744 C760 0.959 . S
H745 C760 0.959 . S
H746 C760 0.961 . S
H747 C761 0.960 . S
H748 C761 0.961 . S
H749 C761 0.959 . S
H750 C764 0.929 . S
H751 C765 0.931 . S
H752 C767 0.930 . S
C753 H741 0.930 . S
C753 C754 1.399 . S
C753 C758 1.399 . S
C754 C753 1.399 . S
C754 C755 1.376 . S
C755 H742 0.930 . S
C755 C754 1.376 . S
C755 C756 1.388 . S
C756 H743 0.930 . S
C756 C755 1.388 . S
C756 C757 1.390 . S
C757 C756 1.390 . S
C757 C758 1.394 . S
C757 C763 1.465 . S
C758 C753 1.399 . S
C758 C757 1.394 . S
C758 C759 1.516 . S
C759 C758 1.516 . S
C759 C760 1.502 . S
C759 C761 1.561 . S
C759 C762 1.526 . S
C760 H744 0.959 . S
C760 H745 0.959 . S
C760 H746 0.961 . S
C760 C759 1.502 . S
C761 H747 0.960 . S
C761 H748 0.961 . S
C761 H749 0.959 . S
C761 C759 1.561 . S
C762 C759 1.526 . S
C762 C763 1.396 . S
C762 C767 1.390 . S
C763 C757 1.465 . S
C763 C762 1.396 . S
C763 C764 1.399 . S
C764 H750 0.929 . S
C764 C763 1.399 . S
C764 C765 1.385 . S
C765 H751 0.931 . S
C765 C764 1.385 . S
C765 C766 1.389 . S
C766 C765 1.389 . S
C766 C767 1.387 . S
C767 H752 0.930 . S
C767 C762 1.390 . S
C767 C766 1.387 . S
H768 C780 0.930 . S
H769 C782 0.930 . S
H770 C783 0.930 . S
H771 C787 0.959 . S
H772 C787 0.959 . S
H773 C787 0.961 . S
H774 C788 0.960 . S
H775 C788 0.961 . S
H776 C788 0.959 . S
H777 C791 0.929 . S
H778 C792 0.931 . S
H779 C794 0.930 . S
C780 H768 0.930 . S
C780 C781 1.399 . S
C780 C785 1.399 . S
C781 C780 1.399 . S
C781 C782 1.376 . S
C782 H769 0.930 . S
C782 C781 1.376 . S
C782 C783 1.388 . S
C783 H770 0.930 . S
C783 C782 1.388 . S
C783 C784 1.390 . S
C784 C783 1.390 . S
C784 C785 1.394 . S
C784 C790 1.465 . S
C785 C780 1.399 . S
C785 C784 1.394 . S
C785 C786 1.516 . S
C786 C785 1.516 . S
C786 C787 1.502 . S
C786 C788 1.561 . S
C786 C789 1.526 . S
C787 H771 0.959 . S
C787 H772 0.959 . S
C787 H773 0.961 . S
C787 C786 1.502 . S
C788 H774 0.960 . S
C788 H775 0.961 . S
C788 H776 0.959 . S
C788 C786 1.561 . S
C789 C786 1.526 . S
C789 C790 1.396 . S
C789 C794 1.390 . S
C790 C784 1.465 . S
C790 C789 1.396 . S
C790 C791 1.399 . S
C791 H777 0.929 . S
C791 C790 1.399 . S
C791 C792 1.385 . S
C792 H778 0.931 . S
C792 C791 1.385 . S
C792 C793 1.389 . S
C793 C792 1.389 . S
C793 C794 1.387 . S
C794 H779 0.930 . S
C794 C789 1.390 . S
C794 C793 1.387 . S
H795 C807 0.930 . S
H796 C809 0.930 . S
H797 C810 0.930 . S
H798 C814 0.959 . S
H799 C814 0.959 . S
H800 C814 0.961 . S
H801 C815 0.960 . S
H802 C815 0.961 . S
H803 C815 0.928 1_545 S
H804 C818 0.929 . S
H805 C819 0.931 1_545 S
H806 C821 0.930 . S
C807 H795 0.930 . S
C807 C808 1.399 . S
C807 C812 1.399 . S
C808 C807 1.399 . S
C808 C809 1.376 1_565 S
C809 H796 0.930 . S
C809 C808 1.376 1_545 S
C809 C810 1.388 . S
C810 H797 0.930 . S
C810 C809 1.388 . S
C810 C811 1.390 1_545 S
C811 C810 1.390 1_565 S
C811 C812 1.394 . S
C811 C817 1.465 . S
C812 C807 1.399 . S
C812 C811 1.394 . S
C812 C813 1.516 . S
C813 C812 1.516 . S
C813 C814 1.502 . S
C813 C815 1.561 . S
C813 C816 1.526 . S
C814 H798 0.959 . S
C814 H799 0.959 . S
C814 H800 0.961 . S
C814 C813 1.502 . S
C815 H801 0.960 . S
C815 H802 0.961 . S
C815 H803 0.928 1_565 S
C815 C813 1.561 . S
C816 C813 1.526 . S
C816 C817 1.396 . S
C816 C821 1.390 . S
C817 C811 1.465 . S
C817 C816 1.396 . S
C817 C818 1.399 1_565 S
C818 H804 0.929 . S
C818 C817 1.399 1_545 S
C818 C819 1.385 1_545 S
C819 H805 0.931 1_565 S
C819 C818 1.385 1_565 S
C819 C820 1.389 . S
C820 C819 1.389 . S
C820 C821 1.387 . S
C821 H806 0.930 . S
C821 C816 1.390 . S
C821 C820 1.387 . S
H822 C834 0.930 . S
H823 C836 0.930 . S
H824 C837 0.930 . S
H825 C841 0.959 . S
H826 C841 0.959 . S
H827 C841 0.961 . S
H828 C842 0.960 . S
H829 C842 0.961 . S
H830 C842 0.959 . S
H831 C845 0.929 . S
H832 C846 0.931 . S
H833 C848 0.930 . S
C834 H822 0.930 . S
C834 C835 1.399 . S
C834 C839 1.399 . S
C835 C834 1.399 . S
C835 C836 1.376 . S
C836 H823 0.930 . S
C836 C835 1.376 . S
C836 C837 1.388 . S
C837 H824 0.930 . S
C837 C836 1.388 . S
C837 C838 1.390 . S
C838 C837 1.390 . S
C838 C839 1.394 . S
C838 C844 1.465 . S
C839 C834 1.399 . S
C839 C838 1.394 . S
C839 C840 1.516 . S
C840 C839 1.516 . S
C840 C841 1.502 . S
C840 C842 1.561 . S
C840 C843 1.526 . S
C841 H825 0.959 . S
C841 H826 0.959 . S
C841 H827 0.961 . S
C841 C840 1.502 . S
C842 H828 0.960 . S
C842 H829 0.961 . S
C842 H830 0.959 . S
C842 C840 1.561 . S
C843 C840 1.526 . S
C843 C844 1.396 . S
C843 C848 1.390 . S
C844 C838 1.465 . S
C844 C843 1.396 . S
C844 C845 1.399 . S
C845 H831 0.929 . S
C845 C844 1.399 . S
C845 C846 1.385 . S
C846 H832 0.931 . S
C846 C845 1.385 . S
C846 C847 1.389 . S
C847 C846 1.389 . S
C847 C848 1.387 . S
C848 H833 0.930 . S
C848 C843 1.390 . S
C848 C847 1.387 . S
H849 C861 0.930 . S
H850 C863 0.930 . S
H851 C864 0.930 . S
H852 C868 0.959 . S
H853 C868 0.959 . S
H854 C868 0.961 . S
H855 C869 0.960 . S
H856 C869 0.961 . S
H857 C869 0.959 . S
H858 C872 0.929 . S
H859 C873 0.931 . S
H860 C875 0.930 . S
C861 H849 0.930 . S
C861 C862 1.399 . S
C861 C866 1.399 . S
C862 C861 1.399 . S
C862 C863 1.376 1_545 S
C863 H850 0.930 . S
C863 C862 1.376 1_565 S
C863 C864 1.388 . S
C864 H851 0.930 . S
C864 C863 1.388 . S
C864 C865 1.390 1_565 S
C865 C864 1.390 1_545 S
C865 C866 1.394 . S
C865 C871 1.465 . S
C866 C861 1.399 . S
C866 C865 1.394 . S
C866 C867 1.516 . S
C867 C866 1.516 . S
C867 C868 1.502 . S
C867 C869 1.561 . S
C867 C870 1.526 . S
C868 H852 0.959 . S
C868 H853 0.959 . S
C868 H854 0.961 . S
C868 C867 1.502 . S
C869 H855 0.960 . S
C869 H856 0.961 . S
C869 H857 0.959 . S
C869 C867 1.561 . S
C870 C867 1.526 . S
C870 C871 1.396 . S
C870 C875 1.390 . S
C871 C865 1.465 . S
C871 C870 1.396 . S
C871 C872 1.399 1_545 S
C872 H858 0.929 . S
C872 C871 1.399 1_565 S
C872 C873 1.385 . S
C873 H859 0.931 . S
C873 C872 1.385 . S
C873 C874 1.389 1_565 S
C874 C873 1.389 1_545 S
C874 C875 1.387 . S
C875 H860 0.930 . S
C875 C870 1.390 . S
C875 C874 1.387 . S
H876 C888 0.930 . S
H877 C890 0.930 . S
H878 C891 0.930 . S
H879 C895 0.959 . S
H880 C895 0.959 . S
H881 C895 0.961 . S
H882 C896 0.960 . S
H883 C896 0.961 . S
H884 C896 0.959 . S
H885 C899 0.929 . S
H886 C900 0.931 . S
H887 C902 0.930 . S
C888 H876 0.930 . S
C888 C889 1.399 . S
C888 C893 1.399 . S
C889 C888 1.399 . S
C889 C890 1.376 . S
C890 H877 0.930 . S
C890 C889 1.376 . S
C890 C891 1.388 . S
C891 H878 0.930 . S
C891 C890 1.388 . S
C891 C892 1.390 . S
C892 C891 1.390 . S
C892 C893 1.394 . S
C892 C898 1.465 . S
C893 C888 1.399 . S
C893 C892 1.394 . S
C893 C894 1.516 . S
C894 C893 1.516 . S
C894 C895 1.502 . S
C894 C896 1.561 . S
C894 C897 1.526 . S
C895 H879 0.959 . S
C895 H880 0.959 . S
C895 H881 0.961 . S
C895 C894 1.502 . S
C896 H882 0.960 . S
C896 H883 0.961 . S
C896 H884 0.959 . S
C896 C894 1.561 . S
C897 C894 1.526 . S
C897 C898 1.396 . S
C897 C902 1.390 . S
C898 C892 1.465 . S
C898 C897 1.396 . S
C898 C899 1.399 . S
C899 H885 0.929 . S
C899 C898 1.399 . S
C899 C900 1.385 . S
C900 H886 0.931 . S
C900 C899 1.385 . S
C900 C901 1.389 . S
C901 C900 1.389 . S
C901 C902 1.387 . S
C902 H887 0.930 . S
C902 C897 1.390 . S
C902 C901 1.387 . S
H903 C915 0.930 . S
H904 C917 0.930 . S
H905 C918 0.930 . S
H906 C922 0.959 . S
H907 C922 0.959 . S
H908 C922 0.961 . S
H909 C923 0.960 . S
H910 C923 0.961 . S
H911 C923 0.959 . S
H912 C926 0.929 . S
H913 C927 0.931 . S
H914 C929 0.930 . S
C915 H903 0.930 . S
C915 C916 1.399 . S
C915 C920 1.399 . S
C916 C915 1.399 . S
C916 C917 1.376 1_556 S
C917 H904 0.930 . S
C917 C916 1.376 1_554 S
C917 C918 1.388 . S
C918 H905 0.930 . S
C918 C917 1.388 . S
C918 C919 1.390 1_554 S
C919 C918 1.390 1_556 S
C919 C920 1.394 . S
C919 C925 1.465 . S
C920 C915 1.399 . S
C920 C919 1.394 . S
C920 C921 1.516 . S
C921 C920 1.516 . S
C921 C922 1.502 . S
C921 C923 1.561 . S
C921 C924 1.526 . S
C922 H906 0.959 . S
C922 H907 0.959 . S
C922 H908 0.961 . S
C922 C921 1.502 . S
C923 H909 0.960 . S
C923 H910 0.961 . S
C923 H911 0.959 . S
C923 C921 1.561 . S
C924 C921 1.526 . S
C924 C925 1.396 . S
C924 C929 1.390 . S
C925 C919 1.465 . S
C925 C924 1.396 . S
C925 C926 1.399 1_556 S
C926 H912 0.929 . S
C926 C925 1.399 1_554 S
C926 C927 1.385 . S
C927 H913 0.931 . S
C927 C926 1.385 . S
C927 C928 1.389 1_554 S
C928 C927 1.389 1_556 S
C928 C929 1.387 . S
C929 H914 0.930 . S
C929 C924 1.390 . S
C929 C928 1.387 . S
H930 C942 0.930 . S
H931 C944 0.930 . S
H932 C945 0.930 . S
H933 C949 0.959 . S
H934 C949 0.959 . S
H935 C949 0.961 . S
H936 C950 0.960 . S
H937 C950 0.961 . S
H938 C950 0.959 . S
H939 C953 0.929 . S
H940 C954 0.931 . S
H941 C956 0.930 1_554 S
C942 H930 0.930 . S
C942 C943 1.399 1_554 S
C942 C947 1.404 . S
C943 C942 1.399 1_556 S
C943 C944 1.376 . S
C944 H931 0.930 . S
C944 C943 1.376 . S
C944 C945 1.388 . S
C945 H932 0.930 . S
C945 C944 1.388 . S
C945 C946 1.390 . S
C946 C945 1.390 . S
C946 C947 1.378 1_556 S
C946 C952 1.465 . S
C947 C942 1.404 . S
C947 C946 1.378 1_554 S
C947 C948 1.525 . S
C948 C947 1.525 . S
C948 C949 1.502 . S
C948 C950 1.561 . S
C948 C951 1.526 1_554 S
C949 H933 0.959 . S
C949 H934 0.959 . S
C949 H935 0.961 . S
C949 C948 1.502 . S
C950 H936 0.960 . S
C950 H937 0.961 . S
C950 H938 0.959 . S
C950 C948 1.561 . S
C951 C948 1.526 1_556 S
C951 C952 1.396 . S
C951 C956 1.390 . S
C952 C946 1.465 . S
C952 C951 1.396 . S
C952 C953 1.399 . S
C953 H939 0.929 . S
C953 C952 1.399 . S
C953 C954 1.385 . S
C954 H940 0.931 . S
C954 C953 1.385 . S
C954 C955 1.389 . S
C955 C954 1.389 . S
C955 C956 1.387 . S
C956 H941 0.930 1_556 S
C956 C951 1.390 . S
C956 C955 1.387 . S
H957 C969 0.930 . S
H958 C971 0.930 . S
H959 C972 0.930 . S
H960 C976 0.959 . S
H961 C976 0.959 . S
H962 C976 0.961 . S
H963 C977 0.960 . S
H964 C977 0.961 . S
H965 C977 0.959 . S
H966 C980 0.929 . S
H967 C981 0.931 . S
H968 C983 0.930 . S
C969 H957 0.930 . S
C969 C970 1.399 . S
C969 C974 1.399 . S
C970 C969 1.399 . S
C970 C971 1.376 1_554 S
C971 H958 0.930 . S
C971 C970 1.376 1_556 S
C971 C972 1.388 . S
C972 H959 0.930 . S
C972 C971 1.388 . S
C972 C973 1.390 1_556 S
C973 C972 1.390 1_554 S
C973 C974 1.394 . S
C973 C979 1.465 . S
C974 C969 1.399 . S
C974 C973 1.394 . S
C974 C975 1.516 . S
C975 C974 1.516 . S
C975 C976 1.502 . S
C975 C977 1.561 . S
C975 C978 1.526 . S
C976 H960 0.959 . S
C976 H961 0.959 . S
C976 H962 0.961 . S
C976 C975 1.502 . S
C977 H963 0.960 . S
C977 H964 0.961 . S
C977 H965 0.959 . S
C977 C975 1.561 . S
C978 C975 1.526 . S
C978 C979 1.396 . S
C978 C983 1.390 . S
C979 C973 1.465 . S
C979 C978 1.396 . S
C979 C980 1.399 1_554 S
C980 H966 0.929 . S
C980 C979 1.399 1_556 S
C980 C981 1.385 . S
C981 H967 0.931 . S
C981 C980 1.385 . S
C981 C982 1.389 1_556 S
C982 C981 1.389 1_554 S
C982 C983 1.387 . S
C983 H968 0.930 . S
C983 C978 1.390 . S
C983 C982 1.387 . S
H984 C996 0.930 . S
H985 C998 0.930 . S
H986 C999 0.930 . S
H987 C1003 0.959 . S
H988 C1003 0.959 . S
H989 C1003 0.961 . S
H990 C1004 0.960 . S
H991 C1004 0.961 . S
H992 C1004 0.959 1_455 S
H993 C1007 0.929 . S
H994 C1008 0.931 . S
H995 C1010 0.930 1_655 S
C996 H984 0.930 . S
C996 C997 1.399 1_655 S
C996 C1001 1.399 1_655 S
C997 C996 1.399 1_455 S
C997 C998 1.376 . S
C998 H985 0.930 . S
C998 C997 1.376 . S
C998 C999 1.388 . S
C999 H986 0.930 . S
C999 C998 1.388 . S
C999 C1000 1.390 . S
C1000 C999 1.390 . S
C1000 C1001 1.394 . S
C1000 C1006 1.465 . S
C1001 C996 1.399 1_455 S
C1001 C1000 1.394 . S
C1001 C1002 1.516 1_455 S
C1002 C1001 1.516 1_655 S
C1002 C1003 1.502 . S
C1002 C1004 1.561 . S
C1002 C1005 1.526 1_655 S
C1003 H987 0.959 . S
C1003 H988 0.959 . S
C1003 H989 0.961 . S
C1003 C1002 1.502 . S
C1004 H990 0.960 . S
C1004 H991 0.961 . S
C1004 H992 0.959 1_655 S
C1004 C1002 1.561 . S
C1005 C1002 1.526 1_455 S
C1005 C1006 1.396 . S
C1005 C1010 1.390 . S
C1006 C1000 1.465 . S
C1006 C1005 1.396 . S
C1006 C1007 1.399 . S
C1007 H993 0.929 . S
C1007 C1006 1.399 . S
C1007 C1008 1.385 . S
C1008 H994 0.931 . S
C1008 C1007 1.385 . S
C1008 C1009 1.389 . S
C1009 C1008 1.389 . S
C1009 C1010 1.387 . S
C1010 H995 0.930 1_455 S
C1010 C1005 1.390 . S
C1010 C1009 1.387 . S
H1011 C1023 0.930 . S
H1012 C1025 0.930 . S
H1013 C1026 0.930 . S
H1014 C1030 0.959 . S
H1015 C1030 0.959 . S
H1016 C1030 0.961 . S
H1017 C1031 0.960 . S
H1018 C1031 0.961 . S
H1019 C1031 0.959 . S
H1020 C1034 0.929 . S
H1021 C1035 0.931 . S
H1022 C1037 0.930 . S
C1023 H1011 0.930 . S
C1023 C1024 1.399 . S
C1023 C1028 1.399 . S
C1024 C1023 1.399 . S
C1024 C1025 1.376 . S
C1025 H1012 0.930 . S
C1025 C1024 1.376 . S
C1025 C1026 1.388 . S
C1026 H1013 0.930 . S
C1026 C1025 1.388 . S
C1026 C1027 1.390 . S
C1027 C1026 1.390 . S
C1027 C1028 1.394 . S
C1027 C1033 1.465 . S
C1028 C1023 1.399 . S
C1028 C1027 1.394 . S
C1028 C1029 1.516 . S
C1029 C1028 1.516 . S
C1029 C1030 1.502 1_655 S
C1029 C1031 1.561 . S
C1029 C1032 1.526 . S
C1030 H1014 0.959 . S
C1030 H1015 0.959 . S
C1030 H1016 0.961 . S
C1030 C1029 1.502 1_455 S
C1031 H1017 0.960 . S
C1031 H1018 0.961 . S
C1031 H1019 0.959 . S
C1031 C1029 1.561 . S
C1032 C1029 1.526 . S
C1032 C1033 1.396 . S
C1032 C1037 1.390 . S
C1033 C1027 1.465 . S
C1033 C1032 1.396 . S
C1033 C1034 1.399 . S
C1034 H1020 0.929 . S
C1034 C1033 1.399 . S
C1034 C1035 1.385 . S
C1035 H1021 0.931 . S
C1035 C1034 1.385 . S
C1035 C1036 1.389 . S
C1036 C1035 1.389 . S
C1036 C1037 1.387 . S
C1037 H1022 0.930 . S
C1037 C1032 1.390 . S
C1037 C1036 1.387 . S
H1038 C1050 0.930 . S
H1039 C1052 0.930 . S
H1040 C1053 0.930 . S
H1041 C1057 0.959 . S
H1042 C1057 0.959 . S
H1043 C1057 0.961 . S
H1044 C1058 0.960 . S
H1045 C1058 0.961 . S
H1046 C1058 0.959 . S
H1047 C1061 0.929 . S
H1048 C1062 0.931 . S
H1049 C1064 0.932 . S
C1050 H1038 0.930 . S
C1050 C1051 1.399 1_655 S
C1050 C1055 1.399 1_655 S
C1051 C1050 1.399 1_455 S
C1051 C1052 1.376 . S
C1052 H1039 0.930 . S
C1052 C1051 1.376 . S
C1052 C1053 1.388 . S
C1053 H1040 0.930 . S
C1053 C1052 1.388 . S
C1053 C1054 1.390 . S
C1054 C1053 1.390 . S
C1054 C1055 1.393 . S
C1054 C1060 1.465 . S
C1055 C1050 1.399 1_455 S
C1055 C1054 1.393 . S
C1055 C1056 1.517 1_455 S
C1056 C1055 1.517 1_655 S
C1056 C1057 1.502 . S
C1056 C1058 1.561 . S
C1056 C1059 1.526 1_655 S
C1057 H1041 0.959 . S
C1057 H1042 0.959 . S
C1057 H1043 0.961 . S
C1057 C1056 1.502 . S
C1058 H1044 0.960 . S
C1058 H1045 0.961 . S
C1058 H1046 0.959 . S
C1058 C1056 1.561 . S
C1059 C1056 1.526 1_455 S
C1059 C1060 1.396 . S
C1059 C1064 1.389 1_455 S
C1060 C1054 1.465 . S
C1060 C1059 1.396 . S
C1060 C1061 1.399 . S
C1061 H1047 0.929 . S
C1061 C1060 1.399 . S
C1061 C1062 1.385 . S
C1062 H1048 0.931 . S
C1062 C1061 1.385 . S
C1062 C1063 1.389 . S
C1063 C1062 1.389 . S
C1063 C1064 1.384 1_455 S
C1064 H1049 0.932 . S
C1064 C1059 1.389 1_655 S
C1064 C1063 1.384 1_655 S
H1065 C1077 0.930 . S
H1066 C1079 0.930 . S
H1067 C1080 0.930 . S
H1068 C1084 0.959 . S
H1069 C1084 0.959 . S
H1070 C1084 0.961 . S
H1071 C1085 0.960 . S
H1072 C1085 0.961 . S
H1073 C1085 0.959 1_455 S
H1074 C1088 0.934 . S
H1075 C1089 0.932 . S
H1076 C1091 0.930 . S
C1077 H1065 0.930 . S
C1077 C1078 1.399 . S
C1077 C1082 1.399 . S
C1078 C1077 1.399 . S
C1078 C1079 1.376 1_655 S
C1079 H1066 0.930 . S
C1079 C1078 1.376 1_455 S
C1079 C1080 1.388 . S
C1080 H1067 0.930 . S
C1080 C1079 1.388 . S
C1080 C1081 1.390 1_455 S
C1081 C1080 1.390 1_655 S
C1081 C1082 1.394 . S
C1081 C1087 1.465 . S
C1082 C1077 1.399 . S
C1082 C1081 1.394 . S
C1082 C1083 1.516 . S
C1083 C1082 1.516 . S
C1083 C1084 1.502 . S
C1083 C1085 1.561 . S
C1083 C1086 1.526 . S
C1084 H1068 0.959 . S
C1084 H1069 0.959 . S
C1084 H1070 0.961 . S
C1084 C1083 1.502 . S
C1085 H1071 0.960 . S
C1085 H1072 0.961 . S
C1085 H1073 0.959 1_655 S
C1085 C1083 1.561 . S
C1086 C1083 1.526 . S
C1086 C1087 1.396 . S
C1086 C1091 1.390 . S
C1087 C1081 1.465 . S
C1087 C1086 1.396 . S
C1087 C1088 1.396 1_655 S
C1088 H1074 0.934 . S
C1088 C1087 1.396 1_455 S
C1088 C1089 1.383 1_455 S
C1089 H1075 0.932 . S
C1089 C1088 1.383 1_655 S
C1089 C1090 1.389 . S
C1090 C1089 1.389 . S
C1090 C1091 1.387 . S
C1091 H1076 0.930 . S
C1091 C1086 1.390 . S
C1091 C1090 1.387 . S
H1092 C1104 0.930 . S
H1093 C1106 0.930 . S
H1094 C1107 0.930 . S
H1095 C1111 0.959 . S
H1096 C1111 0.959 . S
H1097 C1111 0.961 . S
H1098 C1112 0.960 . S
H1099 C1112 0.961 . S
H1100 C1112 0.959 . S
H1101 C1115 0.929 . S
H1102 C1116 0.931 . S
H1103 C1118 0.930 1_565 S
C1104 H1092 0.930 . S
C1104 C1105 1.399 1_565 S
C1104 C1109 1.399 1_565 S
C1105 C1104 1.399 1_545 S
C1105 C1106 1.376 . S
C1106 H1093 0.930 . S
C1106 C1105 1.376 . S
C1106 C1107 1.388 . S
C1107 H1094 0.930 . S
C1107 C1106 1.388 . S
C1107 C1108 1.390 . S
C1108 C1107 1.390 . S
C1108 C1109 1.394 . S
C1108 C1114 1.465 . S
C1109 C1104 1.399 1_545 S
C1109 C1108 1.394 . S
C1109 C1110 1.516 1_545 S
C1110 C1109 1.516 1_565 S
C1110 C1111 1.502 . S
C1110 C1112 1.561 . S
C1110 C1113 1.526 1_565 S
C1111 H1095 0.959 . S
C1111 H1096 0.959 . S
C1111 H1097 0.961 . S
C1111 C1110 1.502 . S
C1112 H1098 0.960 . S
C1112 H1099 0.961 . S
C1112 H1100 0.959 . S
C1112 C1110 1.561 . S
C1113 C1110 1.526 1_545 S
C1113 C1114 1.396 . S
C1113 C1118 1.390 . S
C1114 C1108 1.465 . S
C1114 C1113 1.396 . S
C1114 C1115 1.399 . S
C1115 H1101 0.929 . S
C1115 C1114 1.399 . S
C1115 C1116 1.385 . S
C1116 H1102 0.931 . S
C1116 C1115 1.385 . S
C1116 C1117 1.389 . S
C1117 C1116 1.389 . S
C1117 C1118 1.387 . S
C1118 H1103 0.930 1_545 S
C1118 C1113 1.390 . S
C1118 C1117 1.387 . S
H1119 C1131 0.930 . S
H1120 C1133 0.930 . S
H1121 C1134 0.930 . S
H1122 C1138 0.959 . S
H1123 C1138 0.959 . S
H1124 C1138 0.961 . S
H1125 C1139 0.960 . S
H1126 C1139 0.961 . S
H1127 C1139 0.959 . S
H1128 C1142 0.929 . S
H1129 C1143 0.931 . S
H1130 C1145 0.930 . S
C1131 H1119 0.930 . S
C1131 C1132 1.399 . S
C1131 C1136 1.399 . S
C1132 C1131 1.399 . S
C1132 C1133 1.376 . S
C1133 H1120 0.930 . S
C1133 C1132 1.376 . S
C1133 C1134 1.388 . S
C1134 H1121 0.930 . S
C1134 C1133 1.388 . S
C1134 C1135 1.390 . S
C1135 C1134 1.390 . S
C1135 C1136 1.394 . S
C1135 C1141 1.465 . S
C1136 C1131 1.399 . S
C1136 C1135 1.394 . S
C1136 C1137 1.516 . S
C1137 C1136 1.516 . S
C1137 C1138 1.502 . S
C1137 C1139 1.561 . S
C1137 C1140 1.526 . S
C1138 H1122 0.959 . S
C1138 H1123 0.959 . S
C1138 H1124 0.961 . S
C1138 C1137 1.502 . S
C1139 H1125 0.960 . S
C1139 H1126 0.961 . S
C1139 H1127 0.959 . S
C1139 C1137 1.561 . S
C1140 C1137 1.526 . S
C1140 C1141 1.396 . S
C1140 C1145 1.390 . S
C1141 C1135 1.465 . S
C1141 C1140 1.396 . S
C1141 C1142 1.399 . S
C1142 H1128 0.929 . S
C1142 C1141 1.399 . S
C1142 C1143 1.385 . S
C1143 H1129 0.931 . S
C1143 C1142 1.385 . S
C1143 C1144 1.389 . S
C1144 C1143 1.389 . S
C1144 C1145 1.387 . S
C1145 H1130 0.930 . S
C1145 C1140 1.390 . S
C1145 C1144 1.387 . S
H1146 C1158 0.930 . S
H1147 C1160 0.930 . S
H1148 C1161 0.930 . S
H1149 C1165 0.959 . S
H1150 C1165 0.959 . S
H1151 C1165 0.961 . S
H1152 C1166 0.960 . S
H1153 C1166 0.961 . S
H1154 C1166 0.959 . S
H1155 C1169 0.929 . S
H1156 C1170 0.931 . S
H1157 C1172 0.930 . S
C1158 H1146 0.930 . S
C1158 C1159 1.399 1_545 S
C1158 C1163 1.399 . S
C1159 C1158 1.399 1_565 S
C1159 C1160 1.376 . S
C1160 H1147 0.930 . S
C1160 C1159 1.376 . S
C1160 C1161 1.388 . S
C1161 H1148 0.930 . S
C1161 C1160 1.388 . S
C1161 C1162 1.390 . S
C1162 C1161 1.390 . S
C1162 C1163 1.394 1_565 S
C1162 C1168 1.465 . S
C1163 C1158 1.399 . S
C1163 C1162 1.394 1_545 S
C1163 C1164 1.516 . S
C1164 C1163 1.516 . S
C1164 C1165 1.502 . S
C1164 C1166 1.561 . S
C1164 C1167 1.526 . S
C1165 H1149 0.959 . S
C1165 H1150 0.959 . S
C1165 H1151 0.961 . S
C1165 C1164 1.502 . S
C1166 H1152 0.960 . S
C1166 H1153 0.961 . S
C1166 H1154 0.959 . S
C1166 C1164 1.561 . S
C1167 C1164 1.526 . S
C1167 C1168 1.396 1_545 S
C1167 C1172 1.390 . S
C1168 C1162 1.465 . S
C1168 C1167 1.396 1_565 S
C1168 C1169 1.399 . S
C1169 H1155 0.929 . S
C1169 C1168 1.399 . S
C1169 C1170 1.385 . S
C1170 H1156 0.931 . S
C1170 C1169 1.385 . S
C1170 C1171 1.389 . S
C1171 C1170 1.389 . S
C1171 C1172 1.387 1_565 S
C1172 H1157 0.930 . S
C1172 C1167 1.390 . S
C1172 C1171 1.387 1_545 S
H1173 C1185 0.930 . S
H1174 C1187 0.930 . S
H1175 C1188 0.930 . S
H1176 C1192 0.959 . S
H1177 C1192 0.959 . S
H1178 C1192 0.961 . S
H1179 C1193 0.960 . S
H1180 C1193 0.961 . S
H1181 C1193 0.959 . S
H1182 C1196 0.929 . S
H1183 C1197 0.931 . S
H1184 C1199 0.930 . S
C1185 H1173 0.930 . S
C1185 C1186 1.399 . S
C1185 C1190 1.399 . S
C1186 C1185 1.399 . S
C1186 C1187 1.376 . S
C1187 H1174 0.930 . S
C1187 C1186 1.376 . S
C1187 C1188 1.388 . S
C1188 H1175 0.930 . S
C1188 C1187 1.388 . S
C1188 C1189 1.390 . S
C1189 C1188 1.390 . S
C1189 C1190 1.394 . S
C1189 C1195 1.465 . S
C1190 C1185 1.399 . S
C1190 C1189 1.394 . S
C1190 C1191 1.516 . S
C1191 C1190 1.516 . S
C1191 C1192 1.502 . S
C1191 C1193 1.561 . S
C1191 C1194 1.526 . S
C1192 H1176 0.959 . S
C1192 H1177 0.959 . S
C1192 H1178 0.961 . S
C1192 C1191 1.502 . S
C1193 H1179 0.960 . S
C1193 H1180 0.961 . S
C1193 H1181 0.959 . S
C1193 C1191 1.561 . S
C1194 C1191 1.526 . S
C1194 C1195 1.396 . S
C1194 C1199 1.390 . S
C1195 C1189 1.465 . S
C1195 C1194 1.396 . S
C1195 C1196 1.399 . S
C1196 H1182 0.929 . S
C1196 C1195 1.399 . S
C1196 C1197 1.385 . S
C1197 H1183 0.931 . S
C1197 C1196 1.385 . S
C1197 C1198 1.389 . S
C1198 C1197 1.389 . S
C1198 C1199 1.387 . S
C1199 H1184 0.930 . S
C1199 C1194 1.390 . S
C1199 C1198 1.387 . S
H1200 C1212 0.930 1_556 S
H1201 C1214 0.930 . S
H1202 C1215 0.930 . S
H1203 C1219 0.961 . S
H1204 C1219 0.959 1_556 S
H1205 C1219 0.960 1_556 S
H1206 C1220 0.960 . S
H1207 C1220 0.961 . S
H1208 C1220 0.959 . S
H1209 C1223 0.929 . S
H1210 C1224 0.931 . S
H1211 C1226 0.930 1_556 S
C1212 H1200 0.930 1_554 S
C1212 C1213 1.399 . S
C1212 C1217 1.399 . S
C1213 C1212 1.399 . S
C1213 C1214 1.376 . S
C1214 H1201 0.930 . S
C1214 C1213 1.376 . S
C1214 C1215 1.388 . S
C1215 H1202 0.930 . S
C1215 C1214 1.388 . S
C1215 C1216 1.390 . S
C1216 C1215 1.390 . S
C1216 C1217 1.394 . S
C1216 C1222 1.465 . S
C1217 C1212 1.399 . S
C1217 C1216 1.394 . S
C1217 C1218 1.516 1_554 S
C1218 C1217 1.516 1_556 S
C1218 C1219 1.502 1_556 S
C1218 C1220 1.561 . S
C1218 C1221 1.526 1_556 S
C1219 H1203 0.961 . S
C1219 H1204 0.959 1_554 S
C1219 H1205 0.960 1_554 S
C1219 C1218 1.502 1_554 S
C1220 H1206 0.960 . S
C1220 H1207 0.961 . S
C1220 H1208 0.959 . S
C1220 C1218 1.561 . S
C1221 C1218 1.526 1_554 S
C1221 C1222 1.396 . S
C1221 C1226 1.390 . S
C1222 C1216 1.465 . S
C1222 C1221 1.396 . S
C1222 C1223 1.399 . S
C1223 H1209 0.929 . S
C1223 C1222 1.399 . S
C1223 C1224 1.385 . S
C1224 H1210 0.931 . S
C1224 C1223 1.385 . S
C1224 C1225 1.389 . S
C1225 C1224 1.389 . S
C1225 C1226 1.387 . S
C1226 H1211 0.930 1_554 S
C1226 C1221 1.390 . S
C1226 C1225 1.387 . S
H1227 C1239 0.930 . S
H1228 C1241 0.930 . S
H1229 C1242 0.930 . S
H1230 C1246 0.959 . S
H1231 C1246 0.959 . S
H1232 C1246 0.961 . S
H1233 C1247 0.960 . S
H1234 C1247 0.961 . S
H1235 C1247 0.959 . S
H1236 C1250 0.929 . S
H1237 C1251 0.931 . S
H1238 C1253 0.930 . S
C1239 H1227 0.930 . S
C1239 C1240 1.399 . S
C1239 C1244 1.399 . S
C1240 C1239 1.399 . S
C1240 C1241 1.376 . S
C1241 H1228 0.930 . S
C1241 C1240 1.376 . S
C1241 C1242 1.388 . S
C1242 H1229 0.930 . S
C1242 C1241 1.388 . S
C1242 C1243 1.390 . S
C1243 C1242 1.390 . S
C1243 C1244 1.394 . S
C1243 C1249 1.465 . S
C1244 C1239 1.399 . S
C1244 C1243 1.394 . S
C1244 C1245 1.516 . S
C1245 C1244 1.516 . S
C1245 C1246 1.502 . S
C1245 C1247 1.561 . S
C1245 C1248 1.526 . S
C1246 H1230 0.959 . S
C1246 H1231 0.959 . S
C1246 H1232 0.961 . S
C1246 C1245 1.502 . S
C1247 H1233 0.960 . S
C1247 H1234 0.961 . S
C1247 H1235 0.959 . S
C1247 C1245 1.561 . S
C1248 C1245 1.526 . S
C1248 C1249 1.396 . S
C1248 C1253 1.390 . S
C1249 C1243 1.465 . S
C1249 C1248 1.396 . S
C1249 C1250 1.399 . S
C1250 H1236 0.929 . S
C1250 C1249 1.399 . S
C1250 C1251 1.385 . S
C1251 H1237 0.931 . S
C1251 C1250 1.385 . S
C1251 C1252 1.389 . S
C1252 C1251 1.389 . S
C1252 C1253 1.387 . S
C1253 H1238 0.930 . S
C1253 C1248 1.390 . S
C1253 C1252 1.387 . S
H1254 C1266 0.930 . S
H1255 C1268 0.930 . S
H1256 C1269 0.930 . S
H1257 C1273 0.959 . S
H1258 C1273 0.959 . S
H1259 C1273 0.961 . S
H1260 C1274 0.960 . S
H1261 C1274 0.961 . S
H1262 C1274 0.959 . S
H1263 C1277 0.929 . S
H1264 C1278 0.931 . S
H1265 C1280 0.930 . S
C1266 H1254 0.930 . S
C1266 C1267 1.399 . S
C1266 C1271 1.399 . S
C1267 C1266 1.399 . S
C1267 C1268 1.376 . S
C1268 H1255 0.930 . S
C1268 C1267 1.376 . S
C1268 C1269 1.388 . S
C1269 H1256 0.930 . S
C1269 C1268 1.388 . S
C1269 C1270 1.390 . S
C1270 C1269 1.390 . S
C1270 C1271 1.394 . S
C1270 C1276 1.465 . S
C1271 C1266 1.399 . S
C1271 C1270 1.394 . S
C1271 C1272 1.516 . S
C1272 C1271 1.516 . S
C1272 C1273 1.502 . S
C1272 C1274 1.561 . S
C1272 C1275 1.526 . S
C1273 H1257 0.959 . S
C1273 H1258 0.959 . S
C1273 H1259 0.961 . S
C1273 C1272 1.502 . S
C1274 H1260 0.960 . S
C1274 H1261 0.961 . S
C1274 H1262 0.959 . S
C1274 C1272 1.561 . S
C1275 C1272 1.526 . S
C1275 C1276 1.396 . S
C1275 C1280 1.390 . S
C1276 C1270 1.465 . S
C1276 C1275 1.396 . S
C1276 C1277 1.399 . S
C1277 H1263 0.929 . S
C1277 C1276 1.399 . S
C1277 C1278 1.385 . S
C1278 H1264 0.931 . S
C1278 C1277 1.385 . S
C1278 C1279 1.389 . S
C1279 C1278 1.389 . S
C1279 C1280 1.387 . S
C1280 H1265 0.930 . S
C1280 C1275 1.390 . S
C1280 C1279 1.387 . S
H1281 C1293 0.930 . S
H1282 C1295 0.930 . S
H1283 C1296 0.930 . S
H1284 C1300 0.959 . S
H1285 C1300 0.959 . S
H1286 C1300 0.961 . S
H1287 C1301 0.960 . S
H1288 C1301 0.961 . S
H1289 C1301 0.959 . S
H1290 C1304 0.929 . S
H1291 C1305 0.931 . S
H1292 C1307 0.930 . S
C1293 H1281 0.930 . S
C1293 C1294 1.399 . S
C1293 C1298 1.399 . S
C1294 C1293 1.399 . S
C1294 C1295 1.376 . S
C1295 H1282 0.930 . S
C1295 C1294 1.376 . S
C1295 C1296 1.388 . S
C1296 H1283 0.930 . S
C1296 C1295 1.388 . S
C1296 C1297 1.390 . S
C1297 C1296 1.390 . S
C1297 C1298 1.394 . S
C1297 C1303 1.465 . S
C1298 C1293 1.399 . S
C1298 C1297 1.394 . S
C1298 C1299 1.516 . S
C1299 C1298 1.516 . S
C1299 C1300 1.502 . S
C1299 C1301 1.561 . S
C1299 C1302 1.526 . S
C1300 H1284 0.959 . S
C1300 H1285 0.959 . S
C1300 H1286 0.961 . S
C1300 C1299 1.502 . S
C1301 H1287 0.960 . S
C1301 H1288 0.961 . S
C1301 H1289 0.959 . S
C1301 C1299 1.561 . S
C1302 C1299 1.526 . S
C1302 C1303 1.396 . S
C1302 C1307 1.390 . S
C1303 C1297 1.465 . S
C1303 C1302 1.396 . S
C1303 C1304 1.399 . S
C1304 H1290 0.929 . S
C1304 C1303 1.399 . S
C1304 C1305 1.385 . S
C1305 H1291 0.931 . S
C1305 C1304 1.385 . S
C1305 C1306 1.389 . S
C1306 C1305 1.389 . S
C1306 C1307 1.387 . S
C1307 H1292 0.930 . S
C1307 C1302 1.390 . S
C1307 C1306 1.387 . S
H1308 C1320 0.930 . S
H1309 C1322 0.930 . S
H1310 C1323 0.930 . S
H1311 C1327 0.959 . S
H1312 C1327 0.959 . S
H1313 C1327 0.961 . S
H1314 C1328 0.960 . S
H1315 C1328 0.961 . S
H1316 C1328 0.959 . S
H1317 C1331 0.929 . S
H1318 C1332 0.931 . S
H1319 C1334 0.930 . S
C1320 H1308 0.930 . S
C1320 C1321 1.399 . S
C1320 C1325 1.399 . S
C1321 C1320 1.399 . S
C1321 C1322 1.376 . S
C1322 H1309 0.930 . S
C1322 C1321 1.376 . S
C1322 C1323 1.388 . S
C1323 H1310 0.930 . S
C1323 C1322 1.388 . S
C1323 C1324 1.390 . S
C1324 C1323 1.390 . S
C1324 C1325 1.394 . S
C1324 C1330 1.465 . S
C1325 C1320 1.399 . S
C1325 C1324 1.394 . S
C1325 C1326 1.516 . S
C1326 C1325 1.516 . S
C1326 C1327 1.502 . S
C1326 C1328 1.561 . S
C1326 C1329 1.526 . S
C1327 H1311 0.959 . S
C1327 H1312 0.959 . S
C1327 H1313 0.961 . S
C1327 C1326 1.502 . S
C1328 H1314 0.960 . S
C1328 H1315 0.961 . S
C1328 H1316 0.959 . S
C1328 C1326 1.561 . S
C1329 C1326 1.526 . S
C1329 C1330 1.396 . S
C1329 C1334 1.390 . S
C1330 C1324 1.465 . S
C1330 C1329 1.396 . S
C1330 C1331 1.399 . S
C1331 H1317 0.929 . S
C1331 C1330 1.399 . S
C1331 C1332 1.385 . S
C1332 H1318 0.931 . S
C1332 C1331 1.385 . S
C1332 C1333 1.389 . S
C1333 C1332 1.389 . S
C1333 C1334 1.387 . S
C1334 H1319 0.930 . S
C1334 C1329 1.390 . S
C1334 C1333 1.387 . S
H1335 C1347 0.930 . S
H1336 C1349 0.930 . S
H1337 C1350 0.930 . S
H1338 C1354 0.959 . S
H1339 C1354 0.959 . S
H1340 C1354 0.961 . S
H1341 C1355 0.960 . S
H1342 C1355 0.961 . S
H1343 C1355 0.959 . S
H1344 C1358 0.929 . S
H1345 C1359 0.931 . S
H1346 C1361 0.930 . S
C1347 H1335 0.930 . S
C1347 C1348 1.399 . S
C1347 C1352 1.399 . S
C1348 C1347 1.399 . S
C1348 C1349 1.376 . S
C1349 H1336 0.930 . S
C1349 C1348 1.376 . S
C1349 C1350 1.388 . S
C1350 H1337 0.930 . S
C1350 C1349 1.388 . S
C1350 C1351 1.390 . S
C1351 C1350 1.390 . S
C1351 C1352 1.394 . S
C1351 C1357 1.465 . S
C1352 C1347 1.399 . S
C1352 C1351 1.394 . S
C1352 C1353 1.516 . S
C1353 C1352 1.516 . S
C1353 C1354 1.502 . S
C1353 C1355 1.561 . S
C1353 C1356 1.526 . S
C1354 H1338 0.959 . S
C1354 H1339 0.959 . S
C1354 H1340 0.961 . S
C1354 C1353 1.502 . S
C1355 H1341 0.960 . S
C1355 H1342 0.961 . S
C1355 H1343 0.959 . S
C1355 C1353 1.561 . S
C1356 C1353 1.526 . S
C1356 C1357 1.396 . S
C1356 C1361 1.390 . S
C1357 C1351 1.465 . S
C1357 C1356 1.396 . S
C1357 C1358 1.399 . S
C1358 H1344 0.929 . S
C1358 C1357 1.399 . S
C1358 C1359 1.385 . S
C1359 H1345 0.931 . S
C1359 C1358 1.385 . S
C1359 C1360 1.389 . S
C1360 C1359 1.389 . S
C1360 C1361 1.387 . S
C1361 H1346 0.930 . S
C1361 C1356 1.390 . S
C1361 C1360 1.387 . S
H1362 C1374 0.930 . S
H1363 C1376 0.930 . S
H1364 C1377 0.930 . S
H1365 C1381 0.959 . S
H1366 C1381 0.959 . S
H1367 C1381 0.961 . S
H1368 C1382 0.960 . S
H1369 C1382 0.961 . S
H1370 C1382 0.959 . S
H1371 C1385 0.929 . S
H1372 C1386 0.931 . S
H1373 C1388 0.930 . S
C1374 H1362 0.930 . S
C1374 C1375 1.399 . S
C1374 C1379 1.399 . S
C1375 C1374 1.399 . S
C1375 C1376 1.376 . S
C1376 H1363 0.930 . S
C1376 C1375 1.376 . S
C1376 C1377 1.388 . S
C1377 H1364 0.930 . S
C1377 C1376 1.388 . S
C1377 C1378 1.390 . S
C1378 C1377 1.390 . S
C1378 C1379 1.394 . S
C1378 C1384 1.465 . S
C1379 C1374 1.399 . S
C1379 C1378 1.394 . S
C1379 C1380 1.516 . S
C1380 C1379 1.516 . S
C1380 C1381 1.502 . S
C1380 C1382 1.561 . S
C1380 C1383 1.526 . S
C1381 H1365 0.959 . S
C1381 H1366 0.959 . S
C1381 H1367 0.961 . S
C1381 C1380 1.502 . S
C1382 H1368 0.960 . S
C1382 H1369 0.961 . S
C1382 H1370 0.959 . S
C1382 C1380 1.561 . S
C1383 C1380 1.526 . S
C1383 C1384 1.396 . S
C1383 C1388 1.390 . S
C1384 C1378 1.465 . S
C1384 C1383 1.396 . S
C1384 C1385 1.399 . S
C1385 H1371 0.929 . S
C1385 C1384 1.399 . S
C1385 C1386 1.385 . S
C1386 H1372 0.931 . S
C1386 C1385 1.385 . S
C1386 C1387 1.389 . S
C1387 C1386 1.389 . S
C1387 C1388 1.387 . S
C1388 H1373 0.930 . S
C1388 C1383 1.390 . S
C1388 C1387 1.387 . S
H1389 C1401 0.930 . S
H1390 C1403 0.930 . S
H1391 C1404 0.930 . S
H1392 C1408 0.959 . S
H1393 C1408 0.959 . S
H1394 C1408 0.961 . S
H1395 C1409 0.960 . S
H1396 C1409 0.961 . S
H1397 C1409 0.959 . S
H1398 C1412 0.929 . S
H1399 C1413 0.931 . S
H1400 C1415 0.930 . S
C1401 H1389 0.930 . S
C1401 C1402 1.399 . S
C1401 C1406 1.399 . S
C1402 C1401 1.399 . S
C1402 C1403 1.376 . S
C1403 H1390 0.930 . S
C1403 C1402 1.376 . S
C1403 C1404 1.388 . S
C1404 H1391 0.930 . S
C1404 C1403 1.388 . S
C1404 C1405 1.390 . S
C1405 C1404 1.390 . S
C1405 C1406 1.394 . S
C1405 C1411 1.465 . S
C1406 C1401 1.399 . S
C1406 C1405 1.394 . S
C1406 C1407 1.516 . S
C1407 C1406 1.516 . S
C1407 C1408 1.502 . S
C1407 C1409 1.561 . S
C1407 C1410 1.526 . S
C1408 H1392 0.959 . S
C1408 H1393 0.959 . S
C1408 H1394 0.961 . S
C1408 C1407 1.502 . S
C1409 H1395 0.960 . S
C1409 H1396 0.961 . S
C1409 H1397 0.959 . S
C1409 C1407 1.561 . S
C1410 C1407 1.526 . S
C1410 C1411 1.396 . S
C1410 C1415 1.390 . S
C1411 C1405 1.465 . S
C1411 C1410 1.396 . S
C1411 C1412 1.399 . S
C1412 H1398 0.929 . S
C1412 C1411 1.399 . S
C1412 C1413 1.385 . S
C1413 H1399 0.931 . S
C1413 C1412 1.385 . S
C1413 C1414 1.389 . S
C1414 C1413 1.389 . S
C1414 C1415 1.387 . S
C1415 H1400 0.930 . S
C1415 C1410 1.390 . S
C1415 C1414 1.387 . S
H1416 C1428 0.930 . S
H1417 C1430 0.930 . S
H1418 C1431 0.930 . S
H1419 C1435 0.959 . S
H1420 C1435 0.959 . S
H1421 C1435 0.961 . S
H1422 C1436 0.960 . S
H1423 C1436 0.961 . S
H1424 C1436 0.959 . S
H1425 C1439 0.929 . S
H1426 C1440 0.931 . S
H1427 C1442 0.930 . S
C1428 H1416 0.930 . S
C1428 C1429 1.399 . S
C1428 C1433 1.399 . S
C1429 C1428 1.399 . S
C1429 C1430 1.376 . S
C1430 H1417 0.930 . S
C1430 C1429 1.376 . S
C1430 C1431 1.388 . S
C1431 H1418 0.930 . S
C1431 C1430 1.388 . S
C1431 C1432 1.390 . S
C1432 C1431 1.390 . S
C1432 C1433 1.394 . S
C1432 C1438 1.465 . S
C1433 C1428 1.399 . S
C1433 C1432 1.394 . S
C1433 C1434 1.516 . S
C1434 C1433 1.516 . S
C1434 C1435 1.502 . S
C1434 C1436 1.561 . S
C1434 C1437 1.526 . S
C1435 H1419 0.959 . S
C1435 H1420 0.959 . S
C1435 H1421 0.961 . S
C1435 C1434 1.502 . S
C1436 H1422 0.960 . S
C1436 H1423 0.961 . S
C1436 H1424 0.959 . S
C1436 C1434 1.561 . S
C1437 C1434 1.526 . S
C1437 C1438 1.396 . S
C1437 C1442 1.390 . S
C1438 C1432 1.465 . S
C1438 C1437 1.396 . S
C1438 C1439 1.399 . S
C1439 H1425 0.929 . S
C1439 C1438 1.399 . S
C1439 C1440 1.385 . S
C1440 H1426 0.931 . S
C1440 C1439 1.385 . S
C1440 C1441 1.389 . S
C1441 C1440 1.389 . S
C1441 C1442 1.387 . S
C1442 H1427 0.930 . S
C1442 C1437 1.390 . S
C1442 C1441 1.387 . S
H1443 C1455 0.930 . S
H1444 C1457 0.930 . S
H1445 C1458 0.930 . S
H1446 C1462 0.959 . S
H1447 C1462 0.959 . S
H1448 C1462 0.961 . S
H1449 C1463 0.960 . S
H1450 C1463 0.961 . S
H1451 C1463 0.959 . S
H1452 C1466 0.929 . S
H1453 C1467 0.931 . S
H1454 C1469 0.930 . S
C1455 H1443 0.930 . S
C1455 C1456 1.399 . S
C1455 C1460 1.399 . S
C1456 C1455 1.399 . S
C1456 C1457 1.376 1_565 S
C1457 H1444 0.930 . S
C1457 C1456 1.376 1_545 S
C1457 C1458 1.388 . S
C1458 H1445 0.930 . S
C1458 C1457 1.388 . S
C1458 C1459 1.391 1_545 S
C1459 C1458 1.391 1_565 S
C1459 C1460 1.393 . S
C1459 C1465 1.465 . S
C1460 C1455 1.399 . S
C1460 C1459 1.393 . S
C1460 C1461 1.516 . S
C1461 C1460 1.516 . S
C1461 C1462 1.502 . S
C1461 C1463 1.561 . S
C1461 C1464 1.526 . S
C1462 H1446 0.959 . S
C1462 H1447 0.959 . S
C1462 H1448 0.961 . S
C1462 C1461 1.502 . S
C1463 H1449 0.960 . S
C1463 H1450 0.961 . S
C1463 H1451 0.959 . S
C1463 C1461 1.561 . S
C1464 C1461 1.526 . S
C1464 C1465 1.396 . S
C1464 C1469 1.390 . S
C1465 C1459 1.465 . S
C1465 C1464 1.396 . S
C1465 C1466 1.399 1_565 S
C1466 H1452 0.929 . S
C1466 C1465 1.399 1_545 S
C1466 C1467 1.385 . S
C1467 H1453 0.931 . S
C1467 C1466 1.385 . S
C1467 C1468 1.389 1_545 S
C1468 C1467 1.389 1_565 S
C1468 C1469 1.387 . S
C1469 H1454 0.930 . S
C1469 C1464 1.390 . S
C1469 C1468 1.387 . S
H1470 C1482 0.930 . S
H1471 C1484 0.930 . S
H1472 C1485 0.930 . S
H1473 C1489 0.959 . S
H1474 C1489 0.959 . S
H1475 C1489 0.961 . S
H1476 C1490 0.960 . S
H1477 C1490 0.961 . S
H1478 C1490 0.959 . S
H1479 C1493 0.929 . S
H1480 C1494 0.931 . S
H1481 C1496 0.930 . S
C1482 H1470 0.930 . S
C1482 C1483 1.399 . S
C1482 C1487 1.399 . S
C1483 C1482 1.399 . S
C1483 C1484 1.376 . S
C1484 H1471 0.930 . S
C1484 C1483 1.376 . S
C1484 C1485 1.388 . S
C1485 H1472 0.930 . S
C1485 C1484 1.388 . S
C1485 C1486 1.390 . S
C1486 C1485 1.390 . S
C1486 C1487 1.394 . S
C1486 C1492 1.465 . S
C1487 C1482 1.399 . S
C1487 C1486 1.394 . S
C1487 C1488 1.516 . S
C1488 C1487 1.516 . S
C1488 C1489 1.502 . S
C1488 C1490 1.561 . S
C1488 C1491 1.526 . S
C1489 H1473 0.959 . S
C1489 H1474 0.959 . S
C1489 H1475 0.961 . S
C1489 C1488 1.502 . S
C1490 H1476 0.960 . S
C1490 H1477 0.961 . S
C1490 H1478 0.959 . S
C1490 C1488 1.561 . S
C1491 C1488 1.526 . S
C1491 C1492 1.396 . S
C1491 C1496 1.390 . S
C1492 C1486 1.465 . S
C1492 C1491 1.396 . S
C1492 C1493 1.399 . S
C1493 H1479 0.929 . S
C1493 C1492 1.399 . S
C1493 C1494 1.385 . S
C1494 H1480 0.931 . S
C1494 C1493 1.385 . S
C1494 C1495 1.389 . S
C1495 C1494 1.389 . S
C1495 C1496 1.387 . S
C1496 H1481 0.930 . S
C1496 C1491 1.390 . S
C1496 C1495 1.387 . S
H1497 C1509 0.930 . S
H1498 C1511 0.930 . S
H1499 C1512 0.930 . S
H1500 C1516 0.959 . S
H1501 C1516 0.959 . S
H1502 C1516 0.961 . S
H1503 C1517 0.960 . S
H1504 C1517 0.961 . S
H1505 C1517 0.959 . S
H1506 C1520 0.929 . S
H1507 C1521 0.931 . S
H1508 C1523 0.903 1_565 S
C1509 H1497 0.930 . S
C1509 C1510 1.399 1_565 S
C1509 C1514 1.395 1_565 S
C1510 C1509 1.399 1_545 S
C1510 C1511 1.376 . S
C1511 H1498 0.930 . S
C1511 C1510 1.376 . S
C1511 C1512 1.388 . S
C1512 H1499 0.930 . S
C1512 C1511 1.388 . S
C1512 C1513 1.390 . S
C1513 C1512 1.390 . S
C1513 C1514 1.411 . S
C1513 C1519 1.465 . S
C1514 C1509 1.395 1_545 S
C1514 C1513 1.411 . S
C1514 C1515 1.506 1_545 S
C1515 C1514 1.506 1_565 S
C1515 C1516 1.502 . S
C1515 C1517 1.561 . S
C1515 C1518 1.526 1_565 S
C1516 H1500 0.959 . S
C1516 H1501 0.959 . S
C1516 H1502 0.961 . S
C1516 C1515 1.502 . S
C1517 H1503 0.960 . S
C1517 H1504 0.961 . S
C1517 H1505 0.959 . S
C1517 C1515 1.561 . S
C1518 C1515 1.526 1_545 S
C1518 C1519 1.396 . S
C1518 C1523 1.393 . S
C1519 C1513 1.465 . S
C1519 C1518 1.396 . S
C1519 C1520 1.399 . S
C1520 H1506 0.929 . S
C1520 C1519 1.399 . S
C1520 C1521 1.385 . S
C1521 H1507 0.931 . S
C1521 C1520 1.385 . S
C1521 C1522 1.389 . S
C1522 C1521 1.389 . S
C1522 C1523 1.411 . S
C1523 H1508 0.903 1_545 S
C1523 C1518 1.393 . S
C1523 C1522 1.411 . S
H1524 C1536 0.930 . S
H1525 C1538 0.930 . S
H1526 C1539 0.930 . S
H1527 C1543 0.959 . S
H1528 C1543 0.959 . S
H1529 C1543 0.961 . S
H1530 C1544 0.960 . S
H1531 C1544 0.961 . S
H1532 C1544 0.959 . S
H1533 C1547 0.929 . S
H1534 C1548 0.931 . S
H1535 C1550 0.930 . S
C1536 H1524 0.930 . S
C1536 C1537 1.399 . S
C1536 C1541 1.399 . S
C1537 C1536 1.399 . S
C1537 C1538 1.376 . S
C1538 H1525 0.930 . S
C1538 C1537 1.376 . S
C1538 C1539 1.388 . S
C1539 H1526 0.930 . S
C1539 C1538 1.388 . S
C1539 C1540 1.390 . S
C1540 C1539 1.390 . S
C1540 C1541 1.394 . S
C1540 C1546 1.465 . S
C1541 C1536 1.399 . S
C1541 C1540 1.394 . S
C1541 C1542 1.516 . S
C1542 C1541 1.516 . S
C1542 C1543 1.502 . S
C1542 C1544 1.561 . S
C1542 C1545 1.526 . S
C1543 H1527 0.959 . S
C1543 H1528 0.959 . S
C1543 H1529 0.961 . S
C1543 C1542 1.502 . S
C1544 H1530 0.960 . S
C1544 H1531 0.961 . S
C1544 H1532 0.959 . S
C1544 C1542 1.561 . S
C1545 C1542 1.526 . S
C1545 C1546 1.396 . S
C1545 C1550 1.390 . S
C1546 C1540 1.465 . S
C1546 C1545 1.396 . S
C1546 C1547 1.399 . S
C1547 H1533 0.929 . S
C1547 C1546 1.399 . S
C1547 C1548 1.385 . S
C1548 H1534 0.931 . S
C1548 C1547 1.385 . S
C1548 C1549 1.389 . S
C1549 C1548 1.389 . S
C1549 C1550 1.387 . S
C1550 H1535 0.930 . S
C1550 C1545 1.390 . S
C1550 C1549 1.387 . S
H1551 C1563 0.944 . S
H1552 C1565 0.930 . S
H1553 C1566 0.930 . S
H1554 C1570 0.959 . S
H1555 C1570 0.959 . S
H1556 C1570 0.961 . S
H1557 C1571 0.966 . S
H1558 C1571 0.949 1_554 S
H1559 C1571 0.959 . S
H1560 C1574 0.929 . S
H1561 C1575 0.931 . S
H1562 C1577 0.930 1_554 S
C1563 H1551 0.944 . S
C1563 C1564 1.390 1_554 S
C1563 C1568 1.395 1_554 S
C1564 C1563 1.390 1_556 S
C1564 C1565 1.376 . S
C1565 H1552 0.930 . S
C1565 C1564 1.376 . S
C1565 C1566 1.388 . S
C1566 H1553 0.930 . S
C1566 C1565 1.388 . S
C1566 C1567 1.390 . S
C1567 C1566 1.390 . S
C1567 C1568 1.394 . S
C1567 C1573 1.465 . S
C1568 C1563 1.395 1_556 S
C1568 C1567 1.394 . S
C1568 C1569 1.516 1_556 S
C1569 C1568 1.516 1_554 S
C1569 C1570 1.502 . S
C1569 C1571 1.561 1_554 S
C1569 C1572 1.526 1_554 S
C1570 H1554 0.959 . S
C1570 H1555 0.959 . S
C1570 H1556 0.961 . S
C1570 C1569 1.502 . S
C1571 H1557 0.966 . S
C1571 H1558 0.949 1_556 S
C1571 H1559 0.959 . S
C1571 C1569 1.561 1_556 S
C1572 C1569 1.526 1_556 S
C1572 C1573 1.396 . S
C1572 C1577 1.390 . S
C1573 C1567 1.465 . S
C1573 C1572 1.396 . S
C1573 C1574 1.399 . S
C1574 H1560 0.929 . S
C1574 C1573 1.399 . S
C1574 C1575 1.385 . S
C1575 H1561 0.931 . S
C1575 C1574 1.385 . S
C1575 C1576 1.389 . S
C1576 C1575 1.389 . S
C1576 C1577 1.387 . S
C1577 H1562 0.930 1_556 S
C1577 C1572 1.390 . S
C1577 C1576 1.387 . S
H1578 C1590 0.930 . S
H1579 C1592 0.930 . S
H1580 C1593 0.930 . S
H1581 C1597 0.959 . S
H1582 C1597 0.959 . S
H1583 C1597 0.961 . S
H1584 C1598 0.960 . S
H1585 C1598 0.961 . S
H1586 C1598 0.959 . S
H1587 C1601 0.929 . S
H1588 C1602 0.931 . S
H1589 C1604 0.930 . S
C1590 H1578 0.930 . S
C1590 C1591 1.399 1_554 S
C1590 C1595 1.399 . S
C1591 C1590 1.399 1_556 S
C1591 C1592 1.376 . S
C1592 H1579 0.930 . S
C1592 C1591 1.376 . S
C1592 C1593 1.388 . S
C1593 H1580 0.930 . S
C1593 C1592 1.388 . S
C1593 C1594 1.390 . S
C1594 C1593 1.390 . S
C1594 C1595 1.394 1_556 S
C1594 C1600 1.465 . S
C1595 C1590 1.399 . S
C1595 C1594 1.394 1_554 S
C1595 C1596 1.516 . S
C1596 C1595 1.516 . S
C1596 C1597 1.502 . S
C1596 C1598 1.561 . S
C1596 C1599 1.526 . S
C1597 H1581 0.959 . S
C1597 H1582 0.959 . S
C1597 H1583 0.961 . S
C1597 C1596 1.502 . S
C1598 H1584 0.960 . S
C1598 H1585 0.961 . S
C1598 H1586 0.959 . S
C1598 C1596 1.561 . S
C1599 C1596 1.526 . S
C1599 C1600 1.396 1_554 S
C1599 C1604 1.390 . S
C1600 C1594 1.465 . S
C1600 C1599 1.396 1_556 S
C1600 C1601 1.399 . S
C1601 H1587 0.929 . S
C1601 C1600 1.399 . S
C1601 C1602 1.385 . S
C1602 H1588 0.931 . S
C1602 C1601 1.385 . S
C1602 C1603 1.389 . S
C1603 C1602 1.389 . S
C1603 C1604 1.387 1_556 S
C1604 H1589 0.930 . S
C1604 C1599 1.390 . S
C1604 C1603 1.387 1_554 S
H1605 C1617 0.930 . S
H1606 C1619 0.930 . S
H1607 C1620 0.930 . S
H1608 C1624 0.959 . S
H1609 C1624 0.959 . S
H1610 C1624 0.961 . S
H1611 C1625 0.960 . S
H1612 C1625 0.961 . S
H1613 C1625 0.959 . S
H1614 C1628 0.929 . S
H1615 C1629 0.931 . S
H1616 C1631 0.930 . S
C1617 H1605 0.930 . S
C1617 C1618 1.399 . S
C1617 C1622 1.399 . S
C1618 C1617 1.399 . S
C1618 C1619 1.376 1_554 S
C1619 H1606 0.930 . S
C1619 C1618 1.376 1_556 S
C1619 C1620 1.388 . S
C1620 H1607 0.930 . S
C1620 C1619 1.388 . S
C1620 C1621 1.390 1_556 S
C1621 C1620 1.390 1_554 S
C1621 C1622 1.394 . S
C1621 C1627 1.465 . S
C1622 C1617 1.399 . S
C1622 C1621 1.394 . S
C1622 C1623 1.516 . S
C1623 C1622 1.516 . S
C1623 C1624 1.502 . S
C1623 C1625 1.561 . S
C1623 C1626 1.526 . S
C1624 H1608 0.959 . S
C1624 H1609 0.959 . S
C1624 H1610 0.961 . S
C1624 C1623 1.502 . S
C1625 H1611 0.960 . S
C1625 H1612 0.961 . S
C1625 H1613 0.959 . S
C1625 C1623 1.561 . S
C1626 C1623 1.526 . S
C1626 C1627 1.396 . S
C1626 C1631 1.390 . S
C1627 C1621 1.465 . S
C1627 C1626 1.396 . S
C1627 C1628 1.399 1_554 S
C1628 H1614 0.929 . S
C1628 C1627 1.399 1_556 S
C1628 C1629 1.385 . S
C1629 H1615 0.931 . S
C1629 C1628 1.385 . S
C1629 C1630 1.389 1_556 S
C1630 C1629 1.389 1_554 S
C1630 C1631 1.387 . S
C1631 H1616 0.930 . S
C1631 C1626 1.390 . S
C1631 C1630 1.387 . S
C349 C13 1.583 . S
C361 C229 1.563 . S
C388 C234 1.573 . S
C376 C1 1.597 . S
C415 C172 1.514 . S
C403 C27 1.620 . S
C430 C15 1.579 . S
C442 C196 1.491 . S
C457 C28 1.589 . S
C469 C334 1.492 . S
C484 C55 1.571 . S
C496 C301 1.555 . S
C523 C255 1.593 . S
C511 C40 1.606 . S
C538 C43 1.637 . S
C550 C289 1.539 . S
C577 C208 1.522 . S
C565 C56 1.622 . S
C604 C235 1.473 . S
C592 C83 1.579 . S
C619 C96 1.599 . S
C631 C226 1.584 . S
C646 C71 1.600 . S
C658 C292 1.587 . S
C685 C313 1.570 . S
C673 C99 1.583 . S
C712 C331 1.549 . S
C700 C111 1.619 . S
C727 C113 1.619 . S
C739 C280 1.531 . S
C766 C256 1.517 . S
C754 C125 1.556 . S
C781 C139 1.575 . S
C793 C251 1.564 . S
C808 C153 1.566 . S
C820 C217 1.525 . S
C847 C205 1.591 . S
C835 C127 1.608 . S
C862 C141 1.634 . S
C874 C171 1.543 . S
C901 C272 1.576 . S
C889 C84 1.601 . S
C928 C322 1.497 . S
C916 C154 1.561 . S
C943 C68 1.597 . S
C955 C310 1.586 . S
C970 C166 1.607 . S
C982 C188 1.529 . S
C1009 C187 1.008 . S
C997 C0 1.288 . S
C1024 C12 1.295 . S
C1036 C209 1.073 . S
C1063 C214 1.009 . S
C1051 C14 1.263 . S
C1090 C247 1.171 . S
C1078 C26 1.287 . S
C1105 C41 1.296 . S
C1117 C184 1.040 . S
C1132 C42 1.336 . S
C1144 C192 1.193 . S
C1171 C230 1.012 . S
C1159 C29 1.250 . S
C1186 C54 1.284 . S
C1198 C238 1.156 . S
C1213 C69 1.248 . S
C1225 C175 1.040 . S
C1252 C213 1.049 . S
C1240 C70 1.294 . S
C1267 C85 1.258 . S
C1279 C250 1.001 . S
C1294 C82 1.257 . S
C1306 C259 0.996 . S
C1333 C293 1.175 . S
C1321 C110 1.267 . S
C1348 C98 1.278 . S
C1360 C271 1.003 . S
C1375 C124 1.305 . S
C1387 C298 1.066 . S
C1402 C112 1.338 . S
C1414 C318 1.118 . S
C1429 C126 1.296 . S
C1441 C276 1.040 . S
C1468 C268 1.201 . S
C1456 C140 1.302 . S
C1483 C138 1.283 . S
C1495 C314 1.164 . S
C1522 C319 0.999 . S
C1510 C152 1.253 . S
C1549 C277 1.030 . S
C1537 C97 1.251 . S
C1576 C297 1.059 . S
C1564 C167 1.328 . S
C1603 C335 0.998 . S
C1591 C57 1.261 . S
C1618 C155 1.279 . S
C1630 C193 1.163 . S
