# Generated by pormake.
# Topology zzz, (3,6)-cn, num edge types: 1
# Building blocks:
#     Node 0, Type 0, BuildingBlock: OLANEW_clean_sbu_2, # of connection points: 3
#     Node 1, Type 0, BuildingBlock: OLANEW_clean_sbu_2, # of connection points: 3
#     Node 2, Type 0, BuildingBlock: OLANEW_clean_sbu_2, # of connection points: 3
#     Node 3, Type 0, BuildingBlock: OLANEW_clean_sbu_2, # of connection points: 3
#     Node 4, Type 0, BuildingBlock: OLANEW_clean_sbu_2, # of connection points: 3
#     Node 5, Type 0, BuildingBlock: OLANEW_clean_sbu_2, # of connection points: 3
#     Node 6, Type 0, BuildingBlock: OLANEW_clean_sbu_2, # of connection points: 3
#     Node 7, Type 0, BuildingBlock: OLANEW_clean_sbu_2, # of connection points: 3
#     Node 8, Type 1, BuildingBlock: NUHQIS_clean_sbu_0, # of connection points: 6
#     Node 9, Type 1, BuildingBlock: NUHQIS_clean_sbu_0, # of connection points: 6
#     Node 10, Type 1, BuildingBlock: NUHQIS_clean_sbu_0, # of connection points: 6
#     Node 11, Type 1, BuildingBlock: NUHQIS_clean_sbu_0, # of connection points: 6
#     Edge 12, Type (0, 1), BuildingBlock: OJICUG_clean_linker_0, # of connection points: 2
#     Edge 13, Type (0, 1), BuildingBlock: OJICUG_clean_linker_0, # of connection points: 2
#     Edge 14, Type (0, 1), BuildingBlock: OJICUG_clean_linker_0, # of connection points: 2
#     Edge 15, Type (0, 1), BuildingBlock: OJICUG_clean_linker_0, # of connection points: 2
#     Edge 16, Type (0, 1), BuildingBlock: OJICUG_clean_linker_0, # of connection points: 2
#     Edge 17, Type (0, 1), BuildingBlock: OJICUG_clean_linker_0, # of connection points: 2
#     Edge 18, Type (0, 1), BuildingBlock: OJICUG_clean_linker_0, # of connection points: 2
#     Edge 19, Type (0, 1), BuildingBlock: OJICUG_clean_linker_0, # of connection points: 2
#     Edge 20, Type (0, 1), BuildingBlock: OJICUG_clean_linker_0, # of connection points: 2
#     Edge 21, Type (0, 1), BuildingBlock: OJICUG_clean_linker_0, # of connection points: 2
#     Edge 22, Type (0, 1), BuildingBlock: OJICUG_clean_linker_0, # of connection points: 2
#     Edge 23, Type (0, 1), BuildingBlock: OJICUG_clean_linker_0, # of connection points: 2
#     Edge 24, Type (0, 1), BuildingBlock: OJICUG_clean_linker_0, # of connection points: 2
#     Edge 25, Type (0, 1), BuildingBlock: OJICUG_clean_linker_0, # of connection points: 2
#     Edge 26, Type (0, 1), BuildingBlock: OJICUG_clean_linker_0, # of connection points: 2
#     Edge 27, Type (0, 1), BuildingBlock: OJICUG_clean_linker_0, # of connection points: 2
#     Edge 28, Type (0, 1), BuildingBlock: OJICUG_clean_linker_0, # of connection points: 2
#     Edge 29, Type (0, 1), BuildingBlock: OJICUG_clean_linker_0, # of connection points: 2
#     Edge 30, Type (0, 1), BuildingBlock: OJICUG_clean_linker_0, # of connection points: 2
#     Edge 31, Type (0, 1), BuildingBlock: OJICUG_clean_linker_0, # of connection points: 2
#     Edge 32, Type (0, 1), BuildingBlock: OJICUG_clean_linker_0, # of connection points: 2
#     Edge 33, Type (0, 1), BuildingBlock: OJICUG_clean_linker_0, # of connection points: 2
#     Edge 34, Type (0, 1), BuildingBlock: OJICUG_clean_linker_0, # of connection points: 2
#     Edge 35, Type (0, 1), BuildingBlock: OJICUG_clean_linker_0, # of connection points: 2
# Relax obj value: 0.282
# Max RMSD: 0.176
# Mean RMSD: 0.150
data_MOF--net-zzz--node1-OLANEW_clean_sbu_2--node2-NUHQIS_clean_sbu_0--edge1-OJICUG_clean_linker_0
_symmetry_space_group_name_H-M    P1
_symmetry_Int_Tables_number       1
_symmetry_cell_setting            triclinic
loop_
_symmetry_equiv_pos_as_xyz
'x, y, z'
_cell_length_a     42.400621
_cell_length_b     42.412056
_cell_length_c     12.057742
_cell_angle_alpha  89.682749
_cell_angle_beta   89.978515
_cell_angle_gamma 89.981949
loop_
_atom_site_label
_atom_site_type_symbol
_atom_site_fract_x
_atom_site_fract_y
_atom_site_fract_z
_atom_type_partial_charge
O0 O 0.73091 0.43452 0.42193 0.0
Cd1 Cd 0.67762 0.43352 0.49867 0.0
O2 O 0.74595 0.47591 0.51603 0.0
Cd3 Cd 0.7748 0.51639 0.56487 0.0
O4 O 0.77942 0.56504 0.64343 0.0
C5 C 0.8019 0.57413 0.70647 0.0
O6 O 0.77849 0.56597 0.64273 0.0
C7 C 0.75209 0.45461 0.44541 0.0
C8 C 0.6329 0.44567 0.33367 0.0
O9 O 0.64262 0.46769 0.39749 0.0
O10 O 0.64434 0.41798 0.34783 0.0
O11 O 0.04671 0.71976 0.34335 0.0
Cd12 Cd 0.03689 0.6682 0.42488 0.0
O13 O 0.01121 0.73954 0.4547 0.0
Cd14 Cd 0.97582 0.77308 0.51281 0.0
O15 O 0.92542 0.78192 0.57252 0.0
C16 C 0.91199 0.80806 0.59683 0.0
O17 O 0.92477 0.78101 0.5729 0.0
C18 C 0.03051 0.74323 0.375 0.0
C19 C 0.02188 0.62621 0.25629 0.0
O20 O 0.0005 0.64341 0.30049 0.0
O21 O 0.0502 0.62877 0.29207 0.0
O22 O 0.7735 0.02622 0.2877 0.0
Cd23 Cd 0.82679 0.02244 0.36141 0.0
O24 O 0.76546 0.06156 0.41654 0.0
Cd25 Cd 0.73054 0.0866 0.51343 0.0
O26 O 0.68349 0.07126 0.55824 0.0
C27 C 0.68061 0.0488 0.62766 0.0
O28 O 0.70581 0.03761 0.67753 0.0
C29 C 0.75524 0.04564 0.33511 0.0
C30 C 0.86989 0.01197 0.19231 0.0
O31 O 0.85876 0.98886 0.249 0.0
O32 O 0.8607 0.03991 0.21627 0.0
O33 O 0.46524 0.76394 0.29895 0.0
Cd34 Cd 0.4859 0.81549 0.35112 0.0
O35 O 0.5069 0.74711 0.38799 0.0
Cd36 Cd 0.5398 0.71171 0.45075 0.0
O37 O 0.55161 0.6682 0.5371 0.0
C38 C 0.54023 0.665 0.63394 0.0
O39 O 0.52446 0.68861 0.67728 0.0
C40 C 0.4818 0.74103 0.33423 0.0
C41 C 0.48169 0.86169 0.18703 0.0
O42 O 0.5044 0.84174 0.18758 0.0
O43 O 0.4606 0.8594 0.26288 0.0
O44 O 0.26319 0.54554 0.24991 0.0
Cd45 Cd 0.31536 0.52927 0.18668 0.0
O46 O 0.24818 0.5009 0.17695 0.0
Cd47 Cd 0.21385 0.4647 0.13345 0.0
O48 O 0.17076 0.44906 0.05321 0.0
C49 C 0.16766 0.45774 0.95285 0.0
O50 O 0.19109 0.47285 0.90486 0.0
C51 C 0.24119 0.52641 0.22636 0.0
C52 C 0.35789 0.52004 0.35934 0.0
O53 O 0.35771 0.54589 0.30374 0.0
O54 O 0.3378 0.49871 0.33392 0.0
O55 O 0.93833 0.26853 0.14194 0.0
Cd56 Cd 0.93859 0.32215 0.06916 0.0
O57 O 0.98553 0.25796 0.07629 0.0
Cd58 Cd 0.02158 0.22289 0.03639 0.0
O59 O 0.03648 0.17587 0.98599 0.0
C60 C 0.03739 0.16975 0.88303 0.0
O61 O 0.03157 0.19253 0.81161 0.0
C62 C 0.96111 0.24941 0.1299 0.0
C63 C 0.95153 0.36445 0.23859 0.0
O64 O 0.92371 0.35342 0.22439 0.0
O65 O 0.97335 0.35549 0.17226 0.0
O66 O 0.23291 0.98755 0.07436 0.0
Cd67 Cd 0.1803 0.00094 0.00906 0.0
O68 O 0.2353 0.03814 0.10851 0.0
Cd69 Cd 0.26341 0.08015 0.1398 0.0
O70 O 0.31041 0.08671 0.0728 0.0
C71 C 0.31384 0.07281 0.98049 0.0
O72 O 0.28919 0.05915 0.93544 0.0
C73 C 0.24822 0.01103 0.11081 0.0
C74 C 0.13748 0.99185 0.18025 0.0
O75 O 0.13996 0.97162 0.10217 0.0
O76 O 0.15484 0.01653 0.17649 0.0
O77 O 0.60842 0.22039 0.1904 0.0
Cd78 Cd 0.60854 0.16584 0.12886 0.0
O79 O 0.55801 0.22154 0.15017 0.0
Cd80 Cd 0.51178 0.24429 0.14738 0.0
O81 O 0.48443 0.2862 0.10714 0.0
C82 C 0.48063 0.29262 0.00501 0.0
O83 O 0.49017 0.27209 0.93098 0.0
C84 C 0.58239 0.2352 0.1884 0.0
C85 C 0.57628 0.13222 0.29131 0.0
O86 O 0.60609 0.13675 0.29804 0.0
O87 O 0.56184 0.1425 0.20502 0.0
Tb88 Tb 0.0271 0.96723 0.77961 0.0
Eu89 Eu 0.98149 0.0004 0.59223 0.0
C90 C 0.04877 0.97575 0.53757 0.0
C91 C 0.02866 0.04102 0.73843 0.0
C92 C 0.05524 0.91188 0.99291 0.0
C93 C 0.07123 0.87721 0.14348 0.0
C94 C 0.07697 0.90337 0.07534 0.0
C95 C 0.02786 0.89377 0.97818 0.0
C96 C 0.02249 0.86721 0.04448 0.0
C97 C 0.04408 0.85887 0.12776 0.0
C98 C 0.06077 0.9398 0.9233 0.0
O99 O 0.97966 0.96765 0.84775 0.0
O100 O 0.96267 0.01255 0.76101 0.0
O101 O 0.96041 0.95275 0.62062 0.0
O102 O 0.00447 0.92821 0.69187 0.0
C103 C 0.96085 0.99221 0.84311 0.0
O104 O 0.93833 0.02415 0.53871 0.0
O105 O 0.97528 0.01459 0.41973 0.0
O106 O 0.0192 0.97161 0.51111 0.0
O107 O 0.05645 0.98185 0.64052 0.0
O108 O 0.02993 0.01781 0.81123 0.0
O109 O 0.01729 0.03689 0.63844 0.0
C110 C 0.97597 0.92714 0.64839 0.0
O111 O 0.06285 0.93459 0.81704 0.0
O112 O 0.04267 0.96386 0.94448 0.0
C113 C 0.94799 0.06206 0.39912 0.0
C114 C 0.95083 0.12387 0.31386 0.0
C115 C 0.93628 0.09975 0.25288 0.0
C116 C 0.93513 0.06903 0.29502 0.0
C117 C 0.96215 0.08611 0.46109 0.0
C118 C 0.96362 0.11679 0.41867 0.0
C119 C 0.94888 0.02932 0.4386 0.0
H120 H 0.08835 0.87077 0.20631 0.0
H121 H 0.09843 0.91681 0.08661 0.0
H122 H 0.01082 0.90004 0.91483 0.0
H123 H 0.00155 0.85313 0.03071 0.0
H124 H 0.92663 0.10444 0.17125 0.0
H125 H 0.9249 0.05055 0.24538 0.0
H126 H 0.97251 0.08104 0.54134 0.0
H127 H 0.97479 0.13496 0.46772 0.0
Tb128 Tb 0.50877 0.03608 0.88172 0.0
Eu129 Eu 0.48199 0.00093 0.65462 0.0
C130 C 0.51035 0.06891 0.64723 0.0
C131 C 0.43768 0.04315 0.81586 0.0
C132 C 0.56382 0.05994 0.10701 0.0
C133 C 0.61848 0.07736 0.09981 0.0
C134 C 0.58775 0.07817 0.0575 0.0
C135 C 0.57101 0.04178 0.2015 0.0
C136 C 0.60179 0.04052 0.24233 0.0
C137 C 0.62589 0.05798 0.19109 0.0
C138 C 0.53181 0.05791 0.05879 0.0
O139 O 0.4802 0.99514 0.92405 0.0
O140 O 0.49532 0.96415 0.78083 0.0
O141 O 0.53461 0.00348 0.63657 0.0
O142 O 0.54715 0.00662 0.82133 0.0
C143 C 0.48604 0.96711 0.88376 0.0
O144 O 0.4517 0.96517 0.58013 0.0
O145 O 0.48051 0.99513 0.47504 0.0
O146 O 0.48486 0.05296 0.62196 0.0
O147 O 0.52588 0.06294 0.73944 0.0
O148 O 0.46254 0.05683 0.85935 0.0
O149 O 0.43984 0.01876 0.74925 0.0
C150 C 0.55554 0.00385 0.71681 0.0
O151 O 0.52547 0.07516 0.9716 0.0
O152 O 0.52076 0.02942 0.04872 0.0
C153 C 0.42997 0.98084 0.40904 0.0
C154 C 0.37331 0.99217 0.29233 0.0
C155 C 0.38466 0.96123 0.30713 0.0
C156 C 0.41269 0.95566 0.36523 0.0
C157 C 0.41926 0.01181 0.39174 0.0
C158 C 0.3913 0.01742 0.33352 0.0
C159 C 0.45775 0.97444 0.47897 0.0
H160 H 0.6367 0.09103 0.05883 0.0
H161 H 0.58296 0.09251 0.98484 0.0
H162 H 0.55294 0.02779 0.24197 0.0
H163 H 0.60684 0.02559 0.31327 0.0
H164 H 0.37126 0.94122 0.27778 0.0
H165 H 0.42042 0.93159 0.37873 0.0
H166 H 0.43213 0.03165 0.42535 0.0
H167 H 0.38351 0.04155 0.32223 0.0
Tb168 Tb 0.47412 0.49497 0.9351 0.0
Eu169 Eu 0.51987 0.46752 0.73552 0.0
C170 C 0.45197 0.49433 0.69267 0.0
C171 C 0.47461 0.42251 0.87711 0.0
C172 C 0.44334 0.55029 0.14242 0.0
C173 C 0.42272 0.60286 0.17691 0.0
C174 C 0.41871 0.57234 0.13594 0.0
C175 C 0.47156 0.55881 0.19564 0.0
C176 C 0.47545 0.58923 0.23765 0.0
C177 C 0.45138 0.61182 0.22608 0.0
C178 C 0.44044 0.52005 0.08296 0.0
O179 O 0.52218 0.49488 0.99811 0.0
O180 O 0.54062 0.45279 0.89987 0.0
O181 O 0.53844 0.51606 0.76848 0.0
O182 O 0.49421 0.53625 0.85379 0.0
C183 C 0.54173 0.47108 0.9873 0.0
O184 O 0.56373 0.44702 0.67146 0.0
O185 O 0.525 0.45732 0.56004 0.0
O186 O 0.48147 0.49772 0.66371 0.0
O187 O 0.44475 0.48398 0.79214 0.0
O188 O 0.47282 0.44401 0.9551 0.0
O189 O 0.48525 0.42913 0.77727 0.0
C190 C 0.52154 0.53997 0.80359 0.0
O191 O 0.43485 0.52264 0.97707 0.0
O192 O 0.46169 0.49852 0.10351 0.0
C193 C 0.55724 0.41346 0.51507 0.0
C194 C 0.56764 0.35639 0.40025 0.0
C195 C 0.59249 0.37152 0.45603 0.0
C196 C 0.58733 0.39974 0.51271 0.0
C197 C 0.53231 0.39834 0.45969 0.0
C198 C 0.53746 0.37015 0.40301 0.0
C199 C 0.55255 0.44405 0.57117 0.0
H200 H 0.40363 0.61966 0.16811 0.0
H201 H 0.39674 0.5663 0.09538 0.0
H202 H 0.49111 0.54243 0.20124 0.0
H203 H 0.49787 0.5955 0.27444 0.0
H204 H 0.61611 0.36181 0.45456 0.0
H205 H 0.60699 0.41106 0.55379 0.0
H206 H 0.50876 0.40824 0.45984 0.0
H207 H 0.51765 0.35891 0.36265 0.0
Tb208 Tb 0.9717 0.46948 0.84698 0.0
Eu209 Eu 0.99582 0.52023 0.65764 0.0
C210 C 0.9775 0.45086 0.59571 0.0
C211 C 0.04268 0.47195 0.78316 0.0
C212 C 0.92434 0.43553 0.07657 0.0
C213 C 0.87605 0.41395 0.1532 0.0
C214 C 0.90241 0.411 0.08491 0.0
C215 C 0.92 0.4629 0.14012 0.0
C216 C 0.89345 0.46596 0.20829 0.0
C217 C 0.87079 0.4418 0.2133 0.0
C218 C 0.94992 0.43297 0.99458 0.0
O219 O 0.99521 0.50798 0.93216 0.0
O220 O 0.98413 0.54804 0.81072 0.0
O221 O 0.94279 0.51866 0.64737 0.0
O222 O 0.93435 0.50437 0.82887 0.0
C223 C 0.99197 0.5381 0.91005 0.0
O224 O 0.02299 0.56234 0.61646 0.0
O225 O -0.00089 0.53676 0.48604 0.0
O226 O -0.00051 0.47218 0.58281 0.0
O227 O 0.95973 0.45033 0.68486 0.0
O228 O 0.01892 0.45322 0.80703 0.0
O229 O 0.03846 0.50051 0.74335 0.0
C230 C 0.92418 0.51596 0.73402 0.0
O231 O 0.94089 0.43276 0.89149 0.0
O232 O 0.97452 0.45085 0.00867 0.0
C233 C 0.05082 0.55602 0.44974 0.0
C234 C 0.11224 0.54986 0.36113 0.0
C235 C 0.10317 0.57752 0.41653 0.0
C236 C 0.07283 0.58049 0.46068 0.0
C237 C 0.05952 0.52868 0.3917 0.0
C238 C 0.08986 0.5257 0.34755 0.0
C239 C 0.02051 0.55783 0.5099 0.0
H240 H 0.85939 0.39462 0.15703 0.0
H241 H 0.90532 0.38974 0.03649 0.0
H242 H 0.93649 0.48235 0.13432 0.0
H243 H 0.88998 0.48776 0.25301 0.0
H244 H 0.11968 0.59675 0.42713 0.0
H245 H 0.06676 0.60167 0.5058 0.0
H246 H 0.04326 0.50915 0.38327 0.0
H247 H 0.09615 0.50393 0.30657 0.0
C248 C 0.0864 0.97175 0.25402 0.0
C249 C 0.11533 0.98679 0.27251 0.0
H250 H 0.0427 0.95618 0.3237 0.0
C251 C 0.12286 0.99714 0.37964 0.0
H252 H 0.07978 0.96438 0.17154 0.0
C253 C 0.10172 0.99245 0.46714 0.0
C254 C 0.0725 0.97782 0.44833 0.0
H255 H 0.14512 0.00878 0.39577 0.0
H256 H 0.10794 0.00104 0.5487 0.0
C257 C 0.06513 0.96734 0.34102 0.0
C258 C 0.5738 0.11147 0.48524 0.0
C259 C 0.55892 0.11672 0.38278 0.0
H260 H 0.56988 0.09325 0.65001 0.0
C261 C 0.52719 0.10792 0.37003 0.0
H262 H 0.5982 0.11811 0.49788 0.0
C263 C 0.51085 0.09355 0.45753 0.0
C264 C 0.52587 0.08799 0.55978 0.0
H265 H 0.51509 0.1117 0.29196 0.0
H266 H 0.48668 0.08624 0.44421 0.0
C267 C 0.5574 0.09751 0.57298 0.0
C268 C 0.41 0.53087 0.4474 0.0
C269 C 0.38119 0.51457 0.44819 0.0
H270 H 0.45517 0.53681 0.52361 0.0
C271 C 0.37529 0.49234 0.53259 0.0
H272 H 0.41518 0.5481 0.38331 0.0
C273 C 0.39792 0.48638 0.61448 0.0
C274 C 0.4271 0.50196 0.61144 0.0
H275 H 0.35319 0.47955 0.53528 0.0
H276 H 0.39293 0.46897 0.67818 0.0
C277 C 0.4329 0.52433 0.52745 0.0
C278 C 0.93579 0.39176 0.41328 0.0
C279 C 0.95819 0.38674 0.32932 0.0
H280 H 0.92452 0.41559 0.56405 0.0
C281 C 0.98702 0.40302 0.33345 0.0
H282 H 0.9133 0.37967 0.41212 0.0
C283 C 0.99335 0.42386 0.42006 0.0
C284 C 0.97113 0.42849 0.50495 0.0
H285 H 0.00465 0.3998 0.26947 0.0
H286 H 0.01572 0.43618 0.42082 0.0
C287 C 0.94229 0.41223 0.50064 0.0
C288 C 0.9001 0.03106 0.0271 0.0
C289 C 0.89285 0.00667 0.10222 0.0
H290 H 0.92712 0.04555 0.88601 0.0
C291 C 0.90802 0.9774 0.09122 0.0
H292 H 0.88883 0.0539 0.03364 0.0
C293 C 0.9302 0.9727 0.00717 0.0
C294 C 0.93733 0.99705 0.93174 0.0
H295 H 0.90302 0.95822 0.14823 0.0
H296 H 0.94162 0.94992 0.00107 0.0
C297 C 0.92199 0.02625 0.94238 0.0
C298 C 0.46289 0.9148 0.12518 0.0
C299 C 0.48076 0.88756 0.10456 0.0
H300 H 0.4508 0.96149 0.07191 0.0
C301 C 0.49898 0.886 0.00736 0.0
H302 H 0.44867 0.91667 0.19941 0.0
C303 C 0.49979 0.91146 0.93325 0.0
C304 C 0.4829 0.93915 0.95624 0.0
H305 H 0.5129 0.86524 0.98915 0.0
H306 H 0.51446 0.90984 0.85994 0.0
C307 C 0.46421 0.94048 0.05235 0.0
C308 C 0.59355 0.48116 0.24089 0.0
C309 C 0.60929 0.45202 0.24589 0.0
H310 H 0.55979 0.50999 0.15572 0.0
C311 C 0.60245 0.4291 0.16563 0.0
H312 H 0.59814 0.49924 0.3019 0.0
C313 C 0.58076 0.4354 0.08102 0.0
C314 C 0.5651 0.4646 0.07576 0.0
H315 H 0.61406 0.40635 0.1675 0.0
H316 H 0.57606 0.41726 0.02034 0.0
C317 C 0.57155 0.48731 0.15714 0.0
C318 C 0.98792 0.60906 0.09781 0.0
C319 C 0.01415 0.60391 0.16688 0.0
H320 H 0.96078 0.59247 0.95944 0.0
C321 C 0.03311 0.57725 0.14966 0.0
H322 H 0.97305 0.62957 0.10896 0.0
C323 C 0.02553 0.55567 0.06688 0.0
C324 C -0.00044 0.561 0.99713 0.0
H325 H 0.0536 0.57286 0.20102 0.0
H326 H 0.04031 0.53505 0.05617 0.0
C327 C 0.98098 0.58801 0.01223 0.0
C328 C 0.92971 0.20108 0.17259 0.0
C329 C 0.9586 0.21722 0.17565 0.0
H330 H 0.90466 0.15869 0.21339 0.0
C331 C 0.98474 0.20276 0.22607 0.0
H332 H 0.90915 0.21188 0.13494 0.0
C333 C 0.98216 0.1725 0.27141 0.0
C334 C 0.95339 0.15612 0.26696 0.0
H335 H 0.00703 0.21507 0.2323 0.0
H336 H 0.00276 0.16179 0.30909 0.0
C337 C 0.92719 0.17067 0.21695 0.0
C338 C 0.3011 0.98456 0.1067 0.0
C339 C 0.28069 0.007 0.15314 0.0
H340 H 0.34676 0.96286 0.11194 0.0
C341 C 0.29111 0.0248 0.24375 0.0
H342 H 0.29361 0.97048 0.03683 0.0
C343 C 0.32134 0.02042 0.287 0.0
C344 C 0.34188 0.99795 0.24106 0.0
H345 H 0.27551 0.04147 0.2837 0.0
H346 H 0.3282 0.03396 0.35894 0.0
C347 C 0.33147 0.98018 0.14987 0.0
C348 C 0.56141 0.29048 0.18862 0.0
C349 C 0.58022 0.26697 0.23727 0.0
H350 H 0.54298 0.33736 0.20077 0.0
C351 C 0.59638 0.27363 0.33595 0.0
H352 H 0.54974 0.28636 0.11022 0.0
C353 C 0.59264 0.30276 0.3879 0.0
C354 C 0.57291 0.32603 0.3416 0.0
H355 H 0.6111 0.25589 0.37503 0.0
H356 H 0.6045 0.30666 0.46616 0.0
C357 C 0.5577 0.31971 0.24032 0.0
C358 C 0.20184 0.54926 0.3576 0.0
C359 C 0.20827 0.53356 0.25795 0.0
H360 H 0.16654 0.56616 0.46933 0.0
C361 C 0.18303 0.5249 0.18915 0.0
H362 H 0.22088 0.55637 0.41188 0.0
C363 C 0.15188 0.53062 0.22153 0.0
C364 C 0.14533 0.54543 0.32306 0.0
H365 H 0.18734 0.51413 0.10946 0.0
H366 H 0.13293 0.52359 0.16675 0.0
C367 C 0.17071 0.555 0.3901 0.0
C368 C 0.0299 0.80239 0.36685 0.0
C369 C 0.03265 0.7732 0.31313 0.0
H370 H 0.03205 0.85287 0.34949 0.0
C371 C 0.03851 0.77257 0.19849 0.0
H372 H 0.02573 0.80346 0.45537 0.0
C373 C 0.04153 0.80056 0.13836 0.0
C374 C 0.03947 0.82966 0.19217 0.0
H375 H 0.04062 0.75037 0.15509 0.0
H376 H 0.04607 0.7995 0.05 0.0
C377 C 0.03368 0.83051 0.30679 0.0
C378 C 0.70409 0.02186 0.27552 0.0
C379 C 0.72209 0.04871 0.29942 0.0
H380 H 0.65916 0.00383 0.22447 0.0
C381 C 0.70832 0.07868 0.28779 0.0
H382 H 0.71425 0.99852 0.28373 0.0
C383 C 0.67705 0.08176 0.25249 0.0
C384 C 0.65889 0.05489 0.22989 0.0
H385 H 0.72191 0.09975 0.30451 0.0
H386 H 0.66698 0.10512 0.24356 0.0
C387 C 0.67262 0.0249 0.24235 0.0
C388 C 0.45667 0.70102 0.21095 0.0
C389 C 0.47242 0.70815 0.31012 0.0
H390 H 0.43791 0.66494 0.10634 0.0
C391 C 0.47912 0.68361 0.38528 0.0
H392 H 0.45094 0.71949 0.15186 0.0
C393 C 0.47186 0.65236 0.35908 0.0
C394 C 0.45709 0.64509 0.25811 0.0
H395 H 0.48957 0.68855 0.46502 0.0
H396 H 0.4777 0.63387 0.41796 0.0
C397 C 0.4491 0.66981 0.18514 0.0
C398 C 0.81077 0.46401 0.43473 0.0
C399 C 0.78261 0.45326 0.38633 0.0
H400 H 0.86104 0.4684 0.41868 0.0
C401 C 0.78374 0.43946 0.28087 0.0
H402 H 0.81077 0.47404 0.517 0.0
C403 C 0.81228 0.43616 0.22514 0.0
C404 C 0.8406 0.44626 0.27377 0.0
H405 H 0.76242 0.43117 0.24097 0.0
H406 H 0.81209 0.42577 0.14327 0.0
C407 C 0.83956 0.46058 0.37876 0.0
C408 C 0.04315 0.11181 0.92136 0.0
C409 C 0.04029 0.13676 0.84471 0.0
H410 H 0.0421 0.06187 0.94786 0.0
C411 C 0.03741 0.12972 0.73143 0.0
H412 H 0.04557 0.11643 0.00921 0.0
C413 C 0.03541 0.09847 0.69627 0.0
C414 C 0.0363 0.07354 0.77358 0.0
H415 H 0.03538 0.14835 0.67005 0.0
H416 H 0.03191 0.09398 0.60878 0.0
C417 C 0.04123 0.0805 0.88611 0.0
C418 C 0.37234 0.081 0.98246 0.0
C419 C 0.34541 0.06848 0.93123 0.0
H420 H 0.42272 0.08306 0.98553 0.0
C421 C 0.34904 0.04976 0.83627 0.0
H422 H 0.3703 0.09554 0.0557 0.0
C423 C 0.37903 0.04248 0.79634 0.0
C424 C 0.40603 0.05392 0.85016 0.0
H425 H 0.32875 0.03983 0.79456 0.0
H426 H 0.38101 0.02724 0.72485 0.0
C427 C 0.40238 0.07387 0.94206 0.0
C428 C 0.46668 0.34846 0.05002 0.0
C429 C 0.47211 0.32502 0.9703 0.0
H430 H 0.46272 0.39776 0.0829 0.0
C431 C 0.47331 0.3337 0.85772 0.0
H432 H 0.4654 0.34254 0.13742 0.0
C433 C 0.47188 0.36542 0.82637 0.0
C434 C 0.46911 0.38907 0.90699 0.0
H435 H 0.47716 0.31619 0.79409 0.0
H436 H 0.47466 0.37141 0.73947 0.0
C437 C 0.46512 0.38017 0.01864 0.0
C438 C 0.1112 0.44017 0.94844 0.0
C439 C 0.13657 0.45606 0.89791 0.0
H440 H 0.06125 0.43224 0.94989 0.0
C441 C 0.13118 0.47328 0.79986 0.0
H442 H 0.11468 0.42654 0.02369 0.0
C443 C 0.10068 0.47674 0.75846 0.0
C444 C 0.07504 0.46265 0.81323 0.0
H445 H 0.15022 0.48563 0.75838 0.0
H446 H 0.09699 0.49161 0.68622 0.0
C447 C 0.08065 0.44327 0.90591 0.0
C448 C 0.91303 0.86595 0.59465 0.0
C449 C 0.92993 0.83771 0.60407 0.0
H450 H 0.91424 0.91621 0.59969 0.0
C451 C 0.96242 0.83879 0.62735 0.0
H452 H 0.88791 0.86564 0.57812 0.0
C453 C 0.97759 0.86786 0.64111 0.0
C454 C 0.96057 0.89622 0.63127 0.0
H455 H 0.97588 0.81736 0.6386 0.0
H456 H 0.00255 0.86807 0.6603 0.0
C457 C 0.92817 0.89489 0.60705 0.0
C458 C 0.64287 0.01881 0.74783 0.0
C459 C 0.64949 0.03445 0.64754 0.0
H460 H 0.6076 0.99654 0.8488 0.0
C461 C 0.62604 0.0364 0.56574 0.0
H462 H 0.66064 0.01688 0.81203 0.0
C463 C 0.59616 0.02383 0.58507 0.0
C464 C 0.58884 0.00984 0.68795 0.0
H465 H 0.63067 0.04809 0.48728 0.0
H466 H 0.5783 0.02686 0.52167 0.0
C467 C 0.61264 0.00695 0.76849 0.0
C468 C 0.52159 0.6287 0.78396 0.0
C469 C 0.54011 0.63378 0.68887 0.0
H470 H 0.50142 0.59494 0.89556 0.0
C471 C 0.5559 0.60807 0.64099 0.0
H472 H 0.5093 0.64803 0.82341 0.0
C473 C 0.55158 0.57761 0.68304 0.0
C474 C 0.53115 0.57231 0.77299 0.0
H475 H 0.57053 0.61126 0.56811 0.0
H476 H 0.56281 0.55808 0.64099 0.0
C477 C 0.51703 0.59826 0.82528 0.0
C478 C 0.84876 0.55747 0.81277 0.0
C479 C 0.83152 0.55615 0.71382 0.0
H480 H 0.89139 0.54498 0.89761 0.0
C481 C 0.84439 0.54045 0.62187 0.0
H482 H 0.83938 0.56974 0.88416 0.0
C483 C 0.87456 0.52714 0.62841 0.0
C484 C 0.89188 0.52867 0.72762 0.0
H485 H 0.83178 0.53962 0.54386 0.0
H486 H 0.88442 0.51581 0.55591 0.0
C487 C 0.87845 0.54336 0.82037 0.0
loop_
_geom_bond_atom_site_label_1
_geom_bond_atom_site_label_2
_geom_bond_distance
_geom_bond_site_symmetry_2
_ccdc_geom_bond_type
O0 Cd1 2.300 . S
O0 C7 1.275 . S
Cd1 O0 2.300 . S
Cd1 O9 2.381 . S
Cd1 O10 2.378 . S
O2 Cd3 2.385 . S
O2 C7 1.255 . S
Cd3 O2 2.385 . S
Cd3 O4 2.317 . S
O4 Cd3 2.317 . S
O4 C5 1.232 . S
C5 O4 1.232 . S
C5 O6 1.218 . S
O6 C5 1.218 . S
C7 O0 1.275 . S
C7 O2 1.255 . S
C8 O9 1.258 . S
C8 O10 1.256 . S
O9 Cd1 2.381 . S
O9 C8 1.258 . S
O10 Cd1 2.378 . S
O10 C8 1.256 . S
O11 Cd12 2.300 1_655 S
O11 C18 1.275 1_655 S
Cd12 O11 2.300 1_455 S
Cd12 O20 2.381 1_455 S
Cd12 O21 2.378 . S
O13 Cd14 2.385 . S
O13 C18 1.255 . S
Cd14 O13 2.385 . S
Cd14 O15 2.317 . S
O15 Cd14 2.317 . S
O15 C16 1.232 . S
C16 O15 1.232 . S
C16 O17 1.218 . S
O17 C16 1.218 . S
C18 O11 1.275 1_455 S
C18 O13 1.255 . S
C19 O20 1.258 1_455 S
C19 O21 1.256 . S
O20 Cd12 2.381 1_655 S
O20 C19 1.258 1_655 S
O21 Cd12 2.378 . S
O21 C19 1.256 . S
O22 Cd23 2.300 1_565 S
O22 C29 1.275 1_565 S
Cd23 O22 2.300 1_545 S
Cd23 O31 2.381 1_545 S
Cd23 O32 2.378 . S
O24 Cd25 2.385 . S
O24 C29 1.255 . S
Cd25 O24 2.385 . S
Cd25 O26 2.317 . S
O26 Cd25 2.317 . S
O26 C27 1.232 . S
C27 O26 1.232 . S
C27 O28 1.218 . S
O28 C27 1.218 . S
C29 O22 1.275 1_545 S
C29 O24 1.255 . S
C30 O31 1.258 1_545 S
C30 O32 1.256 . S
O31 Cd23 2.381 1_565 S
O31 C30 1.258 1_565 S
O32 Cd23 2.378 . S
O32 C30 1.256 . S
O33 Cd34 2.300 . S
O33 C40 1.275 . S
Cd34 O33 2.300 . S
Cd34 O42 2.381 . S
Cd34 O43 2.378 . S
O35 Cd36 2.385 . S
O35 C40 1.255 . S
Cd36 O35 2.385 . S
Cd36 O37 2.317 . S
O37 Cd36 2.317 . S
O37 C38 1.232 . S
C38 O37 1.232 . S
C38 O39 1.218 . S
O39 C38 1.218 . S
C40 O33 1.275 . S
C40 O35 1.255 . S
C41 O42 1.258 . S
C41 O43 1.256 . S
O42 Cd34 2.381 . S
O42 C41 1.258 . S
O43 Cd34 2.378 . S
O43 C41 1.256 . S
O44 Cd45 2.300 . S
O44 C51 1.275 . S
Cd45 O44 2.300 . S
Cd45 O53 2.381 . S
Cd45 O54 2.378 . S
O46 Cd47 2.385 1_554 S
O46 C51 1.255 . S
Cd47 O46 2.385 1_556 S
Cd47 O48 2.317 . S
O48 Cd47 2.317 . S
O48 C49 1.232 . S
C49 O48 1.232 . S
C49 O50 1.218 . S
O50 C49 1.218 . S
C51 O44 1.275 . S
C51 O46 1.255 . S
C52 O53 1.258 . S
C52 O54 1.256 . S
O53 Cd45 2.381 . S
O53 C52 1.258 . S
O54 Cd45 2.378 . S
O54 C52 1.256 . S
O55 Cd56 2.300 1_655 S
O55 C62 1.275 1_655 S
Cd56 O55 2.300 1_455 S
Cd56 O64 2.381 1_455 S
Cd56 O65 2.378 . S
O57 Cd58 2.385 1_554 S
O57 C62 1.255 . S
Cd58 O57 2.385 1_556 S
Cd58 O59 2.317 . S
O59 Cd58 2.317 . S
O59 C60 1.232 . S
C60 O59 1.232 . S
C60 O61 1.218 . S
O61 C60 1.218 . S
C62 O55 1.275 1_455 S
C62 O57 1.255 . S
C63 O64 1.258 1_455 S
C63 O65 1.256 . S
O64 Cd56 2.381 1_655 S
O64 C63 1.258 1_655 S
O65 Cd56 2.378 . S
O65 C63 1.256 . S
O66 Cd67 2.300 1_565 S
O66 C73 1.275 1_565 S
Cd67 O66 2.300 1_545 S
Cd67 O75 2.381 1_545 S
Cd67 O76 2.378 . S
O68 Cd69 2.385 1_554 S
O68 C73 1.255 . S
Cd69 O68 2.385 1_556 S
Cd69 O70 2.317 . S
O70 Cd69 2.317 . S
O70 C71 1.232 . S
C71 O70 1.232 . S
C71 O72 1.218 . S
O72 C71 1.218 . S
C73 O66 1.275 1_545 S
C73 O68 1.255 . S
C74 O75 1.258 1_545 S
C74 O76 1.256 . S
O75 Cd67 2.381 1_565 S
O75 C74 1.258 1_565 S
O76 Cd67 2.378 . S
O76 C74 1.256 . S
O77 Cd78 2.300 . S
O77 C84 1.275 . S
Cd78 O77 2.300 . S
Cd78 O86 2.381 . S
Cd78 O87 2.378 . S
O79 Cd80 2.385 1_554 S
O79 C84 1.255 . S
Cd80 O79 2.385 1_556 S
Cd80 O81 2.317 . S
O81 Cd80 2.317 . S
O81 C82 1.232 . S
C82 O81 1.232 . S
C82 O83 1.218 . S
O83 C82 1.218 . S
C84 O77 1.275 . S
C84 O79 1.255 . S
C85 O86 1.258 . S
C85 O87 1.256 . S
O86 Cd78 2.381 . S
O86 C85 1.258 . S
O87 Cd78 2.378 . S
O87 C85 1.256 . S
Tb88 C98 2.825 1_556 S
Tb88 O99 2.347 1_455 S
Tb88 O102 2.366 . S
Tb88 O107 2.418 . S
Tb88 O108 2.384 1_565 S
Tb88 O111 2.479 . S
Tb88 O112 2.471 1_556 S
Eu89 O100 2.418 . S
Eu89 O101 2.384 1_545 S
Eu89 O104 2.479 . S
Eu89 O105 2.471 . S
Eu89 O106 2.347 1_655 S
Eu89 O109 2.366 . S
Eu89 C119 2.825 . S
C90 O106 1.259 1_565 S
C90 O107 1.265 . S
C91 O108 1.255 . S
C91 O109 1.265 1_455 S
C92 C94 1.380 . S
C92 C95 1.374 . S
C92 C98 1.507 . S
C93 C94 1.384 . S
C93 C97 1.387 . S
C93 H120 0.930 . S
C94 C92 1.380 . S
C94 C93 1.384 . S
C94 H121 0.931 . S
C95 C92 1.374 . S
C95 C96 1.390 . S
C95 H122 0.930 1_455 S
C96 C95 1.390 . S
C96 C97 1.391 . S
C96 H123 0.930 1_455 S
C97 C93 1.387 . S
C97 C96 1.391 . S
C98 Tb88 2.825 1_554 S
C98 C92 1.507 . S
C98 O111 1.238 1_554 S
C98 O112 1.247 . S
O99 Tb88 2.347 1_655 S
O99 C103 1.259 1_565 S
O100 Eu89 2.418 . S
O100 C103 1.265 . S
O101 Eu89 2.384 1_565 S
O101 C110 1.255 . S
O102 Tb88 2.366 . S
O102 C110 1.265 1_455 S
C103 O99 1.259 1_545 S
C103 O100 1.265 . S
O104 Eu89 2.479 . S
O104 C119 1.238 . S
O105 Eu89 2.471 . S
O105 C119 1.247 . S
O106 Eu89 2.347 1_455 S
O106 C90 1.259 1_545 S
O107 Tb88 2.418 . S
O107 C90 1.265 . S
O108 Tb88 2.384 1_545 S
O108 C91 1.255 . S
O109 Eu89 2.366 . S
O109 C91 1.265 1_655 S
C110 O101 1.255 . S
C110 O102 1.265 1_655 S
O111 Tb88 2.479 . S
O111 C98 1.238 1_556 S
O112 Tb88 2.471 1_554 S
O112 C98 1.247 . S
C113 C116 1.380 . S
C113 C117 1.374 . S
C113 C119 1.507 . S
C114 C115 1.387 . S
C114 C118 1.391 . S
C115 C114 1.387 . S
C115 C116 1.384 . S
C115 H124 0.930 . S
C116 C113 1.380 . S
C116 C115 1.384 . S
C116 H125 0.931 . S
C117 C113 1.374 . S
C117 C118 1.390 . S
C117 H126 0.930 1_655 S
C118 C114 1.391 . S
C118 C117 1.390 . S
C118 H127 0.930 1_655 S
C119 Eu89 2.825 . S
C119 O104 1.238 . S
C119 O105 1.247 . S
C119 C113 1.507 . S
H120 C93 0.930 . S
H121 C94 0.931 . S
H122 C95 0.930 1_655 S
H123 C96 0.930 1_655 S
H124 C115 0.930 . S
H125 C116 0.931 . S
H126 C117 0.930 1_455 S
H127 C118 0.930 1_455 S
Tb128 C138 2.825 1_556 S
Tb128 O139 2.347 1_545 S
Tb128 O142 2.366 . S
Tb128 O147 2.418 . S
Tb128 O148 2.384 . S
Tb128 O151 2.479 . S
Tb128 O152 2.471 1_556 S
Eu129 O140 2.418 . S
Eu129 O141 2.384 . S
Eu129 O144 2.479 . S
Eu129 O145 2.471 . S
Eu129 O146 2.347 1_565 S
Eu129 O149 2.366 . S
Eu129 C159 2.825 . S
C130 O146 1.259 . S
C130 O147 1.265 . S
C131 O148 1.255 . S
C131 O149 1.265 1_545 S
C132 C134 1.380 . S
C132 C135 1.374 . S
C132 C138 1.507 . S
C133 C134 1.384 . S
C133 C137 1.387 . S
C133 H160 0.930 . S
C134 C132 1.380 . S
C134 C133 1.384 . S
C134 H161 0.931 . S
C135 C132 1.374 . S
C135 C136 1.390 . S
C135 H162 0.930 1_545 S
C136 C135 1.390 . S
C136 C137 1.391 . S
C136 H163 0.930 1_545 S
C137 C133 1.387 . S
C137 C136 1.391 . S
C138 Tb128 2.825 1_554 S
C138 C132 1.507 . S
C138 O151 1.238 1_554 S
C138 O152 1.247 . S
O139 Tb128 2.347 1_565 S
O139 C143 1.259 . S
O140 Eu129 2.418 . S
O140 C143 1.265 . S
O141 Eu129 2.384 . S
O141 C150 1.255 . S
O142 Tb128 2.366 . S
O142 C150 1.265 1_545 S
C143 O139 1.259 . S
C143 O140 1.265 . S
O144 Eu129 2.479 . S
O144 C159 1.238 . S
O145 Eu129 2.471 . S
O145 C159 1.247 . S
O146 Eu129 2.347 1_545 S
O146 C130 1.259 . S
O147 Tb128 2.418 . S
O147 C130 1.265 . S
O148 Tb128 2.384 . S
O148 C131 1.255 . S
O149 Eu129 2.366 . S
O149 C131 1.265 1_565 S
C150 O141 1.255 . S
C150 O142 1.265 1_565 S
O151 Tb128 2.479 . S
O151 C138 1.238 1_556 S
O152 Tb128 2.471 1_554 S
O152 C138 1.247 . S
C153 C156 1.380 . S
C153 C157 1.374 . S
C153 C159 1.507 . S
C154 C155 1.387 . S
C154 C158 1.391 . S
C155 C154 1.387 . S
C155 C156 1.384 . S
C155 H164 0.930 . S
C156 C153 1.380 . S
C156 C155 1.384 . S
C156 H165 0.931 . S
C157 C153 1.374 . S
C157 C158 1.390 . S
C157 H166 0.930 1_565 S
C158 C154 1.391 . S
C158 C157 1.390 . S
C158 H167 0.930 1_565 S
C159 Eu129 2.825 . S
C159 O144 1.238 . S
C159 O145 1.247 . S
C159 C153 1.507 . S
H160 C133 0.930 . S
H161 C134 0.931 . S
H162 C135 0.930 1_565 S
H163 C136 0.930 1_565 S
H164 C155 0.930 . S
H165 C156 0.931 . S
H166 C157 0.930 1_545 S
H167 C158 0.930 1_545 S
Tb168 C178 2.825 1_556 S
Tb168 O179 2.347 . S
Tb168 O182 2.366 . S
Tb168 O187 2.418 . S
Tb168 O188 2.384 . S
Tb168 O191 2.479 . S
Tb168 O192 2.471 1_556 S
Eu169 O180 2.418 . S
Eu169 O181 2.384 . S
Eu169 O184 2.479 . S
Eu169 O185 2.471 . S
Eu169 O186 2.347 . S
Eu169 O189 2.366 . S
Eu169 C199 2.825 . S
C170 O186 1.259 . S
C170 O187 1.265 . S
C171 O188 1.255 . S
C171 O189 1.265 . S
C172 C174 1.380 . S
C172 C175 1.374 . S
C172 C178 1.507 . S
C173 C174 1.384 . S
C173 C177 1.387 . S
C173 H200 0.930 . S
C174 C172 1.380 . S
C174 C173 1.384 . S
C174 H201 0.931 . S
C175 C172 1.374 . S
C175 C176 1.390 . S
C175 H202 0.930 . S
C176 C175 1.390 . S
C176 C177 1.391 . S
C176 H203 0.930 . S
C177 C173 1.387 . S
C177 C176 1.391 . S
C178 Tb168 2.825 1_554 S
C178 C172 1.507 . S
C178 O191 1.238 1_554 S
C178 O192 1.247 . S
O179 Tb168 2.347 . S
O179 C183 1.259 . S
O180 Eu169 2.418 . S
O180 C183 1.265 . S
O181 Eu169 2.384 . S
O181 C190 1.255 . S
O182 Tb168 2.366 . S
O182 C190 1.265 . S
C183 O179 1.259 . S
C183 O180 1.265 . S
O184 Eu169 2.479 . S
O184 C199 1.238 . S
O185 Eu169 2.471 . S
O185 C199 1.247 . S
O186 Eu169 2.347 . S
O186 C170 1.259 . S
O187 Tb168 2.418 . S
O187 C170 1.265 . S
O188 Tb168 2.384 . S
O188 C171 1.255 . S
O189 Eu169 2.366 . S
O189 C171 1.265 . S
C190 O181 1.255 . S
C190 O182 1.265 . S
O191 Tb168 2.479 . S
O191 C178 1.238 1_556 S
O192 Tb168 2.471 1_554 S
O192 C178 1.247 . S
C193 C196 1.380 . S
C193 C197 1.374 . S
C193 C199 1.507 . S
C194 C195 1.387 . S
C194 C198 1.391 . S
C195 C194 1.387 . S
C195 C196 1.384 . S
C195 H204 0.930 . S
C196 C193 1.380 . S
C196 C195 1.384 . S
C196 H205 0.931 . S
C197 C193 1.374 . S
C197 C198 1.390 . S
C197 H206 0.930 . S
C198 C194 1.391 . S
C198 C197 1.390 . S
C198 H207 0.930 . S
C199 Eu169 2.825 . S
C199 O184 1.238 . S
C199 O185 1.247 . S
C199 C193 1.507 . S
H200 C173 0.930 . S
H201 C174 0.931 . S
H202 C175 0.930 . S
H203 C176 0.930 . S
H204 C195 0.930 . S
H205 C196 0.931 . S
H206 C197 0.930 . S
H207 C198 0.930 . S
Tb208 C218 2.825 1_556 S
Tb208 O219 2.347 . S
Tb208 O222 2.366 . S
Tb208 O227 2.418 . S
Tb208 O228 2.384 1_655 S
Tb208 O231 2.479 . S
Tb208 O232 2.471 1_556 S
Eu209 O220 2.418 . S
Eu209 O221 2.384 1_455 S
Eu209 O224 2.479 . S
Eu209 O225 2.471 . S
Eu209 O226 2.347 . S
Eu209 O229 2.366 . S
Eu209 C239 2.825 . S
C210 O226 1.259 1_655 S
C210 O227 1.265 . S
C211 O228 1.255 . S
C211 O229 1.265 . S
C212 C214 1.380 . S
C212 C215 1.374 . S
C212 C218 1.507 . S
C213 C214 1.384 . S
C213 C217 1.387 . S
C213 H240 0.930 . S
C214 C212 1.380 . S
C214 C213 1.384 . S
C214 H241 0.931 . S
C215 C212 1.374 . S
C215 C216 1.390 . S
C215 H242 0.930 . S
C216 C215 1.390 . S
C216 C217 1.391 . S
C216 H243 0.930 . S
C217 C213 1.387 . S
C217 C216 1.391 . S
C218 Tb208 2.825 1_554 S
C218 C212 1.507 . S
C218 O231 1.238 1_554 S
C218 O232 1.247 . S
O219 Tb208 2.347 . S
O219 C223 1.259 1_655 S
O220 Eu209 2.418 . S
O220 C223 1.265 . S
O221 Eu209 2.384 1_655 S
O221 C230 1.255 . S
O222 Tb208 2.366 . S
O222 C230 1.265 . S
C223 O219 1.259 1_455 S
C223 O220 1.265 . S
O224 Eu209 2.479 . S
O224 C239 1.238 . S
O225 Eu209 2.471 . S
O225 C239 1.247 . S
O226 Eu209 2.347 . S
O226 C210 1.259 1_455 S
O227 Tb208 2.418 . S
O227 C210 1.265 . S
O228 Tb208 2.384 1_455 S
O228 C211 1.255 . S
O229 Eu209 2.366 . S
O229 C211 1.265 . S
C230 O221 1.255 . S
C230 O222 1.265 . S
O231 Tb208 2.479 . S
O231 C218 1.238 1_556 S
O232 Tb208 2.471 1_554 S
O232 C218 1.247 . S
C233 C236 1.380 . S
C233 C237 1.374 . S
C233 C239 1.507 . S
C234 C235 1.387 . S
C234 C238 1.391 . S
C235 C234 1.387 . S
C235 C236 1.384 . S
C235 H244 0.930 . S
C236 C233 1.380 . S
C236 C235 1.384 . S
C236 H245 0.931 . S
C237 C233 1.374 . S
C237 C238 1.390 . S
C237 H246 0.930 . S
C238 C234 1.391 . S
C238 C237 1.390 . S
C238 H247 0.930 . S
C239 Eu209 2.825 . S
C239 O224 1.238 . S
C239 O225 1.247 . S
C239 C233 1.507 . S
H240 C213 0.930 . S
H241 C214 0.931 . S
H242 C215 0.930 . S
H243 C216 0.930 . S
H244 C235 0.930 . S
H245 C236 0.931 . S
H246 C237 0.930 . S
H247 C238 0.930 . S
C248 C249 1.387 1_565 S
C248 H252 0.950 . S
C248 C257 1.390 . S
C249 C248 1.387 1_545 S
C249 C251 1.388 . S
H250 C257 0.950 . S
C251 C249 1.388 . S
C251 C253 1.390 . S
C251 H255 0.950 . S
H252 C248 0.950 . S
C253 C251 1.390 . S
C253 C254 1.388 . S
C253 H256 0.950 . S
C254 C253 1.388 . S
C254 C257 1.387 1_545 S
H255 C251 0.950 . S
H256 C253 0.950 . S
C257 C248 1.390 . S
C257 H250 0.950 . S
C257 C254 1.387 1_565 S
C258 C259 1.387 . S
C258 H262 0.950 . S
C258 C267 1.390 . S
C259 C258 1.387 . S
C259 C261 1.387 . S
H260 C267 0.950 . S
C261 C259 1.387 . S
C261 C263 1.390 . S
C261 H265 0.950 . S
H262 C258 0.950 . S
C263 C261 1.390 . S
C263 C264 1.387 . S
C263 H266 0.950 . S
C264 C263 1.387 . S
C264 C267 1.387 . S
H265 C261 0.950 . S
H266 C263 0.950 . S
C267 C258 1.390 . S
C267 H260 0.950 . S
C267 C264 1.387 . S
C268 C269 1.387 . S
C268 H272 0.950 . S
C268 C277 1.390 . S
C269 C268 1.387 . S
C269 C271 1.387 . S
H270 C277 0.950 . S
C271 C269 1.387 . S
C271 C273 1.390 . S
C271 H275 0.950 . S
H272 C268 0.950 . S
C273 C271 1.390 . S
C273 C274 1.387 . S
C273 H276 0.950 . S
C274 C273 1.387 . S
C274 C277 1.387 . S
H275 C271 0.950 . S
H276 C273 0.950 . S
C277 C268 1.390 . S
C277 H270 0.950 . S
C277 C274 1.387 . S
C278 C279 1.380 1_655 S
C278 H282 0.950 . S
C278 C287 1.390 . S
C279 C278 1.380 1_455 S
C279 C281 1.395 . S
H280 C287 0.950 . S
C281 C279 1.395 . S
C281 C283 1.390 . S
C281 H285 0.950 . S
H282 C278 0.950 . S
C283 C281 1.390 . S
C283 C284 1.387 . S
C283 H286 0.950 . S
C284 C283 1.387 . S
C284 C287 1.387 1_455 S
H285 C281 0.950 . S
H286 C283 0.950 . S
C287 C278 1.390 . S
C287 H280 0.950 . S
C287 C284 1.387 1_655 S
C288 C289 1.387 . S
C288 H292 0.950 . S
C288 C297 1.390 . S
C289 C288 1.387 . S
C289 C291 1.388 1_545 S
H290 C297 0.950 . S
C291 C289 1.388 1_565 S
C291 C293 1.390 . S
C291 H295 0.950 . S
H292 C288 0.950 . S
C293 C291 1.390 . S
C293 C294 1.388 1_565 S
C293 H296 0.950 . S
C294 C293 1.388 1_545 S
C294 C297 1.387 . S
H295 C291 0.950 . S
H296 C293 0.950 . S
C297 C288 1.390 . S
C297 H290 0.950 . S
C297 C294 1.387 . S
C298 C299 1.387 . S
C298 H302 0.950 . S
C298 C307 1.390 . S
C299 C298 1.387 . S
C299 C301 1.387 . S
H300 C307 0.950 . S
C301 C299 1.387 . S
C301 C303 1.390 . S
C301 H305 0.950 . S
H302 C298 0.950 . S
C303 C301 1.390 . S
C303 C304 1.387 . S
C303 H306 0.950 . S
C304 C303 1.387 . S
C304 C307 1.387 . S
H305 C301 0.950 . S
H306 C303 0.950 . S
C307 C298 1.390 . S
C307 H300 0.950 . S
C307 C304 1.387 . S
C308 C309 1.387 . S
C308 H312 0.950 . S
C308 C317 1.390 . S
C309 C308 1.387 . S
C309 C311 1.387 . S
H310 C317 0.950 . S
C311 C309 1.387 . S
C311 C313 1.390 . S
C311 H315 0.950 . S
H312 C308 0.950 . S
C313 C311 1.390 . S
C313 C314 1.387 . S
C313 H316 0.950 . S
C314 C313 1.387 . S
C314 C317 1.387 . S
H315 C311 0.950 . S
H316 C313 0.950 . S
C317 C308 1.390 . S
C317 H310 0.950 . S
C317 C314 1.387 . S
C318 C319 1.401 . S
C318 H322 0.950 . S
C318 C327 1.390 . S
C319 C318 1.401 . S
C319 C321 1.374 1_655 S
H320 C327 0.950 . S
C321 C319 1.374 1_455 S
C321 C323 1.390 . S
C321 H325 0.950 . S
H322 C318 0.950 . S
C323 C321 1.390 . S
C323 C324 1.387 1_455 S
C323 H326 0.950 . S
C324 C323 1.387 1_655 S
C324 C327 1.387 . S
H325 C321 0.950 . S
H326 C323 0.950 . S
C327 C318 1.390 . S
C327 H320 0.950 . S
C327 C324 1.387 . S
C328 C329 1.387 . S
C328 H332 0.950 . S
C328 C337 1.390 . S
C329 C328 1.387 . S
C329 C331 1.387 1_655 S
H330 C337 0.950 . S
C331 C329 1.387 1_455 S
C331 C333 1.390 1_455 S
C331 H335 0.950 . S
H332 C328 0.950 . S
C333 C331 1.390 1_655 S
C333 C334 1.387 . S
C333 H336 0.950 . S
C334 C333 1.387 . S
C334 C337 1.387 . S
H335 C331 0.950 . S
H336 C333 0.950 . S
C337 C328 1.390 . S
C337 H330 0.950 . S
C337 C334 1.387 . S
C338 C339 1.387 . S
C338 H342 0.950 . S
C338 C347 1.390 . S
C339 C338 1.387 . S
C339 C341 1.387 1_565 S
H340 C347 0.950 . S
C341 C339 1.387 1_545 S
C341 C343 1.390 1_545 S
C341 H345 0.950 . S
H342 C338 0.950 . S
C343 C341 1.390 1_565 S
C343 C344 1.387 . S
C343 H346 0.950 . S
C344 C343 1.387 . S
C344 C347 1.387 . S
H345 C341 0.950 . S
H346 C343 0.950 . S
C347 C338 1.390 . S
C347 H340 0.950 . S
C347 C344 1.387 . S
C348 C349 1.387 . S
C348 H352 0.950 . S
C348 C357 1.390 . S
C349 C348 1.387 . S
C349 C351 1.387 . S
H350 C357 0.950 . S
C351 C349 1.387 . S
C351 C353 1.390 . S
C351 H355 0.950 . S
H352 C348 0.950 . S
C353 C351 1.390 . S
C353 C354 1.387 . S
C353 H356 0.950 . S
C354 C353 1.387 . S
C354 C357 1.387 . S
H355 C351 0.950 . S
H356 C353 0.950 . S
C357 C348 1.390 . S
C357 H350 0.950 . S
C357 C354 1.387 . S
C358 C359 1.387 . S
C358 H362 0.950 . S
C358 C367 1.390 . S
C359 C358 1.387 . S
C359 C361 1.387 . S
H360 C367 0.950 . S
C361 C359 1.387 . S
C361 C363 1.390 . S
C361 H365 0.950 . S
H362 C358 0.950 . S
C363 C361 1.390 . S
C363 C364 1.387 . S
C363 H366 0.950 . S
C364 C363 1.387 . S
C364 C367 1.387 . S
H365 C361 0.950 . S
H366 C363 0.950 . S
C367 C358 1.390 . S
C367 H360 0.950 . S
C367 C364 1.387 . S
C368 C369 1.387 . S
C368 H372 0.950 . S
C368 C377 1.390 . S
C369 C368 1.387 . S
C369 C371 1.387 . S
H370 C377 0.950 . S
C371 C369 1.387 . S
C371 C373 1.390 . S
C371 H375 0.950 1_455 S
H372 C368 0.950 . S
C373 C371 1.390 . S
C373 C374 1.387 . S
C373 H376 0.950 . S
C374 C373 1.387 . S
C374 C377 1.387 . S
H375 C371 0.950 1_655 S
H376 C373 0.950 . S
C377 C368 1.390 . S
C377 H370 0.950 . S
C377 C374 1.387 . S
C378 C379 1.387 1_565 S
C378 H382 0.950 . S
C378 C387 1.390 1_565 S
C379 C378 1.387 1_545 S
C379 C381 1.387 . S
H380 C387 0.950 . S
C381 C379 1.387 . S
C381 C383 1.390 . S
C381 H385 0.950 . S
H382 C378 0.950 . S
C383 C381 1.390 . S
C383 C384 1.387 . S
C383 H386 0.950 . S
C384 C383 1.387 . S
C384 C387 1.387 . S
H385 C381 0.950 . S
H386 C383 0.950 . S
C387 C378 1.390 1_545 S
C387 H380 0.950 . S
C387 C384 1.387 . S
C388 C389 1.387 . S
C388 H392 0.950 . S
C388 C397 1.390 . S
C389 C388 1.387 . S
C389 C391 1.387 . S
H390 C397 0.950 . S
C391 C389 1.387 . S
C391 C393 1.390 . S
C391 H395 0.950 . S
H392 C388 0.950 . S
C393 C391 1.390 . S
C393 C394 1.387 . S
C393 H396 0.950 . S
C394 C393 1.387 . S
C394 C397 1.387 . S
H395 C391 0.950 . S
H396 C393 0.950 . S
C397 C388 1.390 . S
C397 H390 0.950 . S
C397 C394 1.387 . S
C398 C399 1.387 . S
C398 H402 0.950 . S
C398 C407 1.390 . S
C399 C398 1.387 . S
C399 C401 1.387 . S
H400 C407 0.950 . S
C401 C399 1.387 . S
C401 C403 1.390 . S
C401 H405 0.950 . S
H402 C398 0.950 . S
C403 C401 1.390 . S
C403 C404 1.387 . S
C403 H406 0.950 . S
C404 C403 1.387 . S
C404 C407 1.387 . S
H405 C401 0.950 . S
H406 C403 0.950 . S
C407 C398 1.390 . S
C407 H400 0.950 . S
C407 C404 1.387 . S
C408 C409 1.387 . S
C408 H412 0.950 . S
C408 C417 1.390 . S
C409 C408 1.387 . S
C409 C411 1.387 . S
H410 C417 0.950 . S
C411 C409 1.387 . S
C411 C413 1.390 . S
C411 H415 0.950 . S
H412 C408 0.950 . S
C413 C411 1.390 . S
C413 C414 1.387 . S
C413 H416 0.950 . S
C414 C413 1.387 . S
C414 C417 1.387 . S
H415 C411 0.950 . S
H416 C413 0.950 . S
C417 C408 1.390 . S
C417 H410 0.950 . S
C417 C414 1.387 . S
C418 C419 1.387 1_565 S
C418 H422 0.950 . S
C418 C427 1.390 . S
C419 C418 1.387 1_545 S
C419 C421 1.387 . S
H420 C427 0.950 . S
C421 C419 1.387 . S
C421 C423 1.390 . S
C421 H425 0.950 . S
H422 C418 0.950 . S
C423 C421 1.390 . S
C423 C424 1.387 . S
C423 H426 0.950 . S
C424 C423 1.387 . S
C424 C427 1.387 1_545 S
H425 C421 0.950 . S
H426 C423 0.950 . S
C427 C418 1.390 . S
C427 H420 0.950 . S
C427 C424 1.387 1_565 S
C428 C429 1.387 . S
C428 H432 0.950 . S
C428 C437 1.390 . S
C429 C428 1.387 . S
C429 C431 1.387 . S
H430 C437 0.950 . S
C431 C429 1.387 . S
C431 C433 1.390 . S
C431 H435 0.950 . S
H432 C428 0.950 . S
C433 C431 1.390 . S
C433 C434 1.387 . S
C433 H436 0.950 . S
C434 C433 1.387 . S
C434 C437 1.387 . S
H435 C431 0.950 . S
H436 C433 0.950 . S
C437 C428 1.390 . S
C437 H430 0.950 . S
C437 C434 1.387 . S
C438 C439 1.387 . S
C438 H442 0.950 . S
C438 C447 1.390 . S
C439 C438 1.387 . S
C439 C441 1.387 . S
H440 C447 0.950 . S
C441 C439 1.387 . S
C441 C443 1.390 . S
C441 H445 0.950 . S
H442 C438 0.950 . S
C443 C441 1.390 . S
C443 C444 1.387 . S
C443 H446 0.950 . S
C444 C443 1.387 . S
C444 C447 1.387 . S
H445 C441 0.950 . S
H446 C443 0.950 . S
C447 C438 1.390 . S
C447 H440 0.950 . S
C447 C444 1.387 . S
C448 C449 1.387 . S
C448 H452 0.950 . S
C448 C457 1.390 . S
C449 C448 1.387 . S
C449 C451 1.387 1_655 S
H450 C457 0.950 . S
C451 C449 1.387 1_455 S
C451 C453 1.390 . S
C451 H455 0.950 . S
H452 C448 0.950 . S
C453 C451 1.390 . S
C453 C454 1.387 1_455 S
C453 H456 0.950 . S
C454 C453 1.387 1_655 S
C454 C457 1.387 . S
H455 C451 0.950 . S
H456 C453 0.950 . S
C457 C448 1.390 . S
C457 H450 0.950 . S
C457 C454 1.387 . S
C458 C459 1.387 . S
C458 H462 0.950 . S
C458 C467 1.390 . S
C459 C458 1.387 . S
C459 C461 1.387 1_565 S
H460 C467 0.950 . S
C461 C459 1.387 1_545 S
C461 C463 1.390 . S
C461 H465 0.950 . S
H462 C458 0.950 . S
C463 C461 1.390 . S
C463 C464 1.387 1_545 S
C463 H466 0.950 . S
C464 C463 1.387 1_565 S
C464 C467 1.387 . S
H465 C461 0.950 . S
H466 C463 0.950 . S
C467 C458 1.390 . S
C467 H460 0.950 . S
C467 C464 1.387 . S
C468 C469 1.387 . S
C468 H472 0.950 . S
C468 C477 1.390 . S
C469 C468 1.387 . S
C469 C471 1.387 . S
H470 C477 0.950 . S
C471 C469 1.387 . S
C471 C473 1.390 . S
C471 H475 0.950 . S
H472 C468 0.950 . S
C473 C471 1.390 . S
C473 C474 1.387 . S
C473 H476 0.950 . S
C474 C473 1.387 . S
C474 C477 1.387 . S
H475 C471 0.950 . S
H476 C473 0.950 . S
C477 C468 1.390 . S
C477 H470 0.950 . S
C477 C474 1.387 . S
C478 C479 1.387 . S
C478 H482 0.950 . S
C478 C487 1.390 . S
C479 C478 1.387 . S
C479 C481 1.387 . S
H480 C487 0.950 . S
C481 C479 1.387 . S
C481 C483 1.390 . S
C481 H485 0.950 . S
H482 C478 0.950 . S
C483 C481 1.390 . S
C483 C484 1.387 . S
C483 H486 0.950 . S
C484 C483 1.387 . S
C484 C487 1.387 . S
H485 C481 0.950 . S
H486 C483 0.950 . S
C487 C478 1.390 . S
C487 H480 0.950 . S
C487 C484 1.387 . S
C249 C74 1.940 . S
C254 C90 2.137 1_545 S
C264 C130 2.151 . S
C259 C85 1.945 . S
C274 C170 2.159 . S
C269 C52 1.955 . S
C284 C210 2.145 1_455 S
C279 C63 1.948 . S
C294 C103 2.138 1_554 S
C289 C30 1.938 . S
C299 C41 1.961 . S
C304 C143 2.153 1_554 S
C309 C8 1.973 . S
C314 C183 2.158 1_554 S
C319 C19 1.949 1_655 S
C324 C223 2.145 1_654 S
C334 C114 0.834 . S
C329 C62 0.846 1_655 S
C344 C154 0.832 . S
C339 C73 0.848 1_565 S
C354 C194 0.823 . S
C349 C84 0.837 . S
C359 C51 0.837 . S
C364 C234 0.821 . S
C369 C18 0.817 . S
C374 C97 0.839 . S
C384 C137 0.832 . S
C379 C29 0.809 . S
C394 C177 0.822 . S
C389 C40 0.806 . S
C399 C7 0.809 . S
C404 C217 0.827 . S
C409 C60 1.923 . S
C414 C91 2.558 . S
C419 C71 1.889 . S
C424 C131 2.530 . S
C434 C171 2.521 . S
C429 C82 1.848 . S
C444 C211 2.552 . S
C439 C49 1.878 . S
C449 C16 2.025 1_655 S
C454 C110 2.565 . S
C464 C150 2.531 . S
C459 C27 1.997 1_565 S
C474 C190 2.521 . S
C469 C38 2.024 . S
C479 C5 2.048 . S
C484 C230 2.556 . S
