# Generated by pormake.
# Topology gar, (4,6)-cn, num edge types: 1
# Building blocks:
#     Node 0, Type 0, BuildingBlock: UXUYUI_clean_sbu_0, # of connection points: 4
#     Node 1, Type 0, BuildingBlock: UXUYUI_clean_sbu_0, # of connection points: 4
#     Node 2, Type 0, BuildingBlock: UXUYUI_clean_sbu_0, # of connection points: 4
#     Node 3, Type 0, BuildingBlock: UXUYUI_clean_sbu_0, # of connection points: 4
#     Node 4, Type 0, BuildingBlock: UXUYUI_clean_sbu_0, # of connection points: 4
#     Node 5, Type 0, BuildingBlock: UXUYUI_clean_sbu_0, # of connection points: 4
#     Node 6, Type 0, BuildingBlock: UXUYUI_clean_sbu_0, # of connection points: 4
#     Node 7, Type 0, BuildingBlock: UXUYUI_clean_sbu_0, # of connection points: 4
#     Node 8, Type 0, BuildingBlock: UXUYUI_clean_sbu_0, # of connection points: 4
#     Node 9, Type 0, BuildingBlock: UXUYUI_clean_sbu_0, # of connection points: 4
#     Node 10, Type 0, BuildingBlock: UXUYUI_clean_sbu_0, # of connection points: 4
#     Node 11, Type 0, BuildingBlock: UXUYUI_clean_sbu_0, # of connection points: 4
#     Node 12, Type 0, BuildingBlock: UXUYUI_clean_sbu_0, # of connection points: 4
#     Node 13, Type 0, BuildingBlock: UXUYUI_clean_sbu_0, # of connection points: 4
#     Node 14, Type 0, BuildingBlock: UXUYUI_clean_sbu_0, # of connection points: 4
#     Node 15, Type 0, BuildingBlock: UXUYUI_clean_sbu_0, # of connection points: 4
#     Node 16, Type 0, BuildingBlock: UXUYUI_clean_sbu_0, # of connection points: 4
#     Node 17, Type 0, BuildingBlock: UXUYUI_clean_sbu_0, # of connection points: 4
#     Node 18, Type 0, BuildingBlock: UXUYUI_clean_sbu_0, # of connection points: 4
#     Node 19, Type 0, BuildingBlock: UXUYUI_clean_sbu_0, # of connection points: 4
#     Node 20, Type 0, BuildingBlock: UXUYUI_clean_sbu_0, # of connection points: 4
#     Node 21, Type 0, BuildingBlock: UXUYUI_clean_sbu_0, # of connection points: 4
#     Node 22, Type 0, BuildingBlock: UXUYUI_clean_sbu_0, # of connection points: 4
#     Node 23, Type 0, BuildingBlock: UXUYUI_clean_sbu_0, # of connection points: 4
#     Node 24, Type 1, BuildingBlock: KUMJIN_clean_sbu_0, # of connection points: 6
#     Node 25, Type 1, BuildingBlock: KUMJIN_clean_sbu_0, # of connection points: 6
#     Node 26, Type 1, BuildingBlock: KUMJIN_clean_sbu_0, # of connection points: 6
#     Node 27, Type 1, BuildingBlock: KUMJIN_clean_sbu_0, # of connection points: 6
#     Node 28, Type 1, BuildingBlock: KUMJIN_clean_sbu_0, # of connection points: 6
#     Node 29, Type 1, BuildingBlock: KUMJIN_clean_sbu_0, # of connection points: 6
#     Node 30, Type 1, BuildingBlock: KUMJIN_clean_sbu_0, # of connection points: 6
#     Node 31, Type 1, BuildingBlock: KUMJIN_clean_sbu_0, # of connection points: 6
#     Node 32, Type 1, BuildingBlock: KUMJIN_clean_sbu_0, # of connection points: 6
#     Node 33, Type 1, BuildingBlock: KUMJIN_clean_sbu_0, # of connection points: 6
#     Node 34, Type 1, BuildingBlock: KUMJIN_clean_sbu_0, # of connection points: 6
#     Node 35, Type 1, BuildingBlock: KUMJIN_clean_sbu_0, # of connection points: 6
#     Node 36, Type 1, BuildingBlock: KUMJIN_clean_sbu_0, # of connection points: 6
#     Node 37, Type 1, BuildingBlock: KUMJIN_clean_sbu_0, # of connection points: 6
#     Node 38, Type 1, BuildingBlock: KUMJIN_clean_sbu_0, # of connection points: 6
#     Node 39, Type 1, BuildingBlock: KUMJIN_clean_sbu_0, # of connection points: 6
#     Edge 40, Type (0, 1), BuildingBlock: CIFDUS_clean_linker_0, # of connection points: 2
#     Edge 41, Type (0, 1), BuildingBlock: CIFDUS_clean_linker_0, # of connection points: 2
#     Edge 42, Type (0, 1), BuildingBlock: CIFDUS_clean_linker_0, # of connection points: 2
#     Edge 43, Type (0, 1), BuildingBlock: CIFDUS_clean_linker_0, # of connection points: 2
#     Edge 44, Type (0, 1), BuildingBlock: CIFDUS_clean_linker_0, # of connection points: 2
#     Edge 45, Type (0, 1), BuildingBlock: CIFDUS_clean_linker_0, # of connection points: 2
#     Edge 46, Type (0, 1), BuildingBlock: CIFDUS_clean_linker_0, # of connection points: 2
#     Edge 47, Type (0, 1), BuildingBlock: CIFDUS_clean_linker_0, # of connection points: 2
#     Edge 48, Type (0, 1), BuildingBlock: CIFDUS_clean_linker_0, # of connection points: 2
#     Edge 49, Type (0, 1), BuildingBlock: CIFDUS_clean_linker_0, # of connection points: 2
#     Edge 50, Type (0, 1), BuildingBlock: CIFDUS_clean_linker_0, # of connection points: 2
#     Edge 51, Type (0, 1), BuildingBlock: CIFDUS_clean_linker_0, # of connection points: 2
#     Edge 52, Type (0, 1), BuildingBlock: CIFDUS_clean_linker_0, # of connection points: 2
#     Edge 53, Type (0, 1), BuildingBlock: CIFDUS_clean_linker_0, # of connection points: 2
#     Edge 54, Type (0, 1), BuildingBlock: CIFDUS_clean_linker_0, # of connection points: 2
#     Edge 55, Type (0, 1), BuildingBlock: CIFDUS_clean_linker_0, # of connection points: 2
#     Edge 56, Type (0, 1), BuildingBlock: CIFDUS_clean_linker_0, # of connection points: 2
#     Edge 57, Type (0, 1), BuildingBlock: CIFDUS_clean_linker_0, # of connection points: 2
#     Edge 58, Type (0, 1), BuildingBlock: CIFDUS_clean_linker_0, # of connection points: 2
#     Edge 59, Type (0, 1), BuildingBlock: CIFDUS_clean_linker_0, # of connection points: 2
#     Edge 60, Type (0, 1), BuildingBlock: CIFDUS_clean_linker_0, # of connection points: 2
#     Edge 61, Type (0, 1), BuildingBlock: CIFDUS_clean_linker_0, # of connection points: 2
#     Edge 62, Type (0, 1), BuildingBlock: CIFDUS_clean_linker_0, # of connection points: 2
#     Edge 63, Type (0, 1), BuildingBlock: CIFDUS_clean_linker_0, # of connection points: 2
#     Edge 64, Type (0, 1), BuildingBlock: CIFDUS_clean_linker_0, # of connection points: 2
#     Edge 65, Type (0, 1), BuildingBlock: CIFDUS_clean_linker_0, # of connection points: 2
#     Edge 66, Type (0, 1), BuildingBlock: CIFDUS_clean_linker_0, # of connection points: 2
#     Edge 67, Type (0, 1), BuildingBlock: CIFDUS_clean_linker_0, # of connection points: 2
#     Edge 68, Type (0, 1), BuildingBlock: CIFDUS_clean_linker_0, # of connection points: 2
#     Edge 69, Type (0, 1), BuildingBlock: CIFDUS_clean_linker_0, # of connection points: 2
#     Edge 70, Type (0, 1), BuildingBlock: CIFDUS_clean_linker_0, # of connection points: 2
#     Edge 71, Type (0, 1), BuildingBlock: CIFDUS_clean_linker_0, # of connection points: 2
#     Edge 72, Type (0, 1), BuildingBlock: CIFDUS_clean_linker_0, # of connection points: 2
#     Edge 73, Type (0, 1), BuildingBlock: CIFDUS_clean_linker_0, # of connection points: 2
#     Edge 74, Type (0, 1), BuildingBlock: CIFDUS_clean_linker_0, # of connection points: 2
#     Edge 75, Type (0, 1), BuildingBlock: CIFDUS_clean_linker_0, # of connection points: 2
#     Edge 76, Type (0, 1), BuildingBlock: CIFDUS_clean_linker_0, # of connection points: 2
#     Edge 77, Type (0, 1), BuildingBlock: CIFDUS_clean_linker_0, # of connection points: 2
#     Edge 78, Type (0, 1), BuildingBlock: CIFDUS_clean_linker_0, # of connection points: 2
#     Edge 79, Type (0, 1), BuildingBlock: CIFDUS_clean_linker_0, # of connection points: 2
#     Edge 80, Type (0, 1), BuildingBlock: CIFDUS_clean_linker_0, # of connection points: 2
#     Edge 81, Type (0, 1), BuildingBlock: CIFDUS_clean_linker_0, # of connection points: 2
#     Edge 82, Type (0, 1), BuildingBlock: CIFDUS_clean_linker_0, # of connection points: 2
#     Edge 83, Type (0, 1), BuildingBlock: CIFDUS_clean_linker_0, # of connection points: 2
#     Edge 84, Type (0, 1), BuildingBlock: CIFDUS_clean_linker_0, # of connection points: 2
#     Edge 85, Type (0, 1), BuildingBlock: CIFDUS_clean_linker_0, # of connection points: 2
#     Edge 86, Type (0, 1), BuildingBlock: CIFDUS_clean_linker_0, # of connection points: 2
#     Edge 87, Type (0, 1), BuildingBlock: CIFDUS_clean_linker_0, # of connection points: 2
#     Edge 88, Type (0, 1), BuildingBlock: CIFDUS_clean_linker_0, # of connection points: 2
#     Edge 89, Type (0, 1), BuildingBlock: CIFDUS_clean_linker_0, # of connection points: 2
#     Edge 90, Type (0, 1), BuildingBlock: CIFDUS_clean_linker_0, # of connection points: 2
#     Edge 91, Type (0, 1), BuildingBlock: CIFDUS_clean_linker_0, # of connection points: 2
#     Edge 92, Type (0, 1), BuildingBlock: CIFDUS_clean_linker_0, # of connection points: 2
#     Edge 93, Type (0, 1), BuildingBlock: CIFDUS_clean_linker_0, # of connection points: 2
#     Edge 94, Type (0, 1), BuildingBlock: CIFDUS_clean_linker_0, # of connection points: 2
#     Edge 95, Type (0, 1), BuildingBlock: CIFDUS_clean_linker_0, # of connection points: 2
#     Edge 96, Type (0, 1), BuildingBlock: CIFDUS_clean_linker_0, # of connection points: 2
#     Edge 97, Type (0, 1), BuildingBlock: CIFDUS_clean_linker_0, # of connection points: 2
#     Edge 98, Type (0, 1), BuildingBlock: CIFDUS_clean_linker_0, # of connection points: 2
#     Edge 99, Type (0, 1), BuildingBlock: CIFDUS_clean_linker_0, # of connection points: 2
#     Edge 100, Type (0, 1), BuildingBlock: CIFDUS_clean_linker_0, # of connection points: 2
#     Edge 101, Type (0, 1), BuildingBlock: CIFDUS_clean_linker_0, # of connection points: 2
#     Edge 102, Type (0, 1), BuildingBlock: CIFDUS_clean_linker_0, # of connection points: 2
#     Edge 103, Type (0, 1), BuildingBlock: CIFDUS_clean_linker_0, # of connection points: 2
#     Edge 104, Type (0, 1), BuildingBlock: CIFDUS_clean_linker_0, # of connection points: 2
#     Edge 105, Type (0, 1), BuildingBlock: CIFDUS_clean_linker_0, # of connection points: 2
#     Edge 106, Type (0, 1), BuildingBlock: CIFDUS_clean_linker_0, # of connection points: 2
#     Edge 107, Type (0, 1), BuildingBlock: CIFDUS_clean_linker_0, # of connection points: 2
#     Edge 108, Type (0, 1), BuildingBlock: CIFDUS_clean_linker_0, # of connection points: 2
#     Edge 109, Type (0, 1), BuildingBlock: CIFDUS_clean_linker_0, # of connection points: 2
#     Edge 110, Type (0, 1), BuildingBlock: CIFDUS_clean_linker_0, # of connection points: 2
#     Edge 111, Type (0, 1), BuildingBlock: CIFDUS_clean_linker_0, # of connection points: 2
#     Edge 112, Type (0, 1), BuildingBlock: CIFDUS_clean_linker_0, # of connection points: 2
#     Edge 113, Type (0, 1), BuildingBlock: CIFDUS_clean_linker_0, # of connection points: 2
#     Edge 114, Type (0, 1), BuildingBlock: CIFDUS_clean_linker_0, # of connection points: 2
#     Edge 115, Type (0, 1), BuildingBlock: CIFDUS_clean_linker_0, # of connection points: 2
#     Edge 116, Type (0, 1), BuildingBlock: CIFDUS_clean_linker_0, # of connection points: 2
#     Edge 117, Type (0, 1), BuildingBlock: CIFDUS_clean_linker_0, # of connection points: 2
#     Edge 118, Type (0, 1), BuildingBlock: CIFDUS_clean_linker_0, # of connection points: 2
#     Edge 119, Type (0, 1), BuildingBlock: CIFDUS_clean_linker_0, # of connection points: 2
#     Edge 120, Type (0, 1), BuildingBlock: CIFDUS_clean_linker_0, # of connection points: 2
#     Edge 121, Type (0, 1), BuildingBlock: CIFDUS_clean_linker_0, # of connection points: 2
#     Edge 122, Type (0, 1), BuildingBlock: CIFDUS_clean_linker_0, # of connection points: 2
#     Edge 123, Type (0, 1), BuildingBlock: CIFDUS_clean_linker_0, # of connection points: 2
#     Edge 124, Type (0, 1), BuildingBlock: CIFDUS_clean_linker_0, # of connection points: 2
#     Edge 125, Type (0, 1), BuildingBlock: CIFDUS_clean_linker_0, # of connection points: 2
#     Edge 126, Type (0, 1), BuildingBlock: CIFDUS_clean_linker_0, # of connection points: 2
#     Edge 127, Type (0, 1), BuildingBlock: CIFDUS_clean_linker_0, # of connection points: 2
#     Edge 128, Type (0, 1), BuildingBlock: CIFDUS_clean_linker_0, # of connection points: 2
#     Edge 129, Type (0, 1), BuildingBlock: CIFDUS_clean_linker_0, # of connection points: 2
#     Edge 130, Type (0, 1), BuildingBlock: CIFDUS_clean_linker_0, # of connection points: 2
#     Edge 131, Type (0, 1), BuildingBlock: CIFDUS_clean_linker_0, # of connection points: 2
#     Edge 132, Type (0, 1), BuildingBlock: CIFDUS_clean_linker_0, # of connection points: 2
#     Edge 133, Type (0, 1), BuildingBlock: CIFDUS_clean_linker_0, # of connection points: 2
#     Edge 134, Type (0, 1), BuildingBlock: CIFDUS_clean_linker_0, # of connection points: 2
#     Edge 135, Type (0, 1), BuildingBlock: CIFDUS_clean_linker_0, # of connection points: 2
# Relax obj value: 0.145
# Max RMSD: 0.316
# Mean RMSD: 0.196
data_MOF--net-gar--node1-UXUYUI_clean_sbu_0--node2-KUMJIN_clean_sbu_0--edge1-CIFDUS_clean_linker_0
_symmetry_space_group_name_H-M    P1
_symmetry_Int_Tables_number       1
_symmetry_cell_setting            triclinic
loop_
_symmetry_equiv_pos_as_xyz
'x, y, z'
_cell_length_a     66.999498
_cell_length_b     62.704077
_cell_length_c     62.540973
_cell_angle_alpha  100.57525
_cell_angle_beta   93.146978
_cell_angle_gamma 102.31214
loop_
_atom_site_label
_atom_site_type_symbol
_atom_site_fract_x
_atom_site_fract_y
_atom_site_fract_z
_atom_type_partial_charge
Li0 Li 0.08789 0.31006 0.36364 0.0
Li1 Li 0.1089 0.33523 0.39407 0.0
Li2 Li 0.12339 0.31296 0.3656 0.0
Li3 Li 0.10475 0.29535 0.39143 0.0
C4 C 0.10012 0.3457 0.34791 0.0
N5 N 0.07966 0.36214 0.31738 0.0
C6 C 0.09192 0.3643 0.35447 0.0
C7 C 0.09819 0.33567 0.3258 0.0
C8 C 0.08156 0.37231 0.33879 0.0
C9 C 0.08772 0.34418 0.31061 0.0
C10 C 0.07746 0.31414 0.41546 0.0
C11 C 0.08544 0.32036 0.4545 0.0
N12 N 0.06503 0.31628 0.45704 0.0
C13 C 0.05658 0.31003 0.41845 0.0
C14 C 0.09204 0.31938 0.43362 0.0
C15 C 0.0506 0.31119 0.43961 0.0
C16 C 0.05687 0.29502 0.32665 0.0
N17 N 0.06286 0.30774 0.34698 0.0
C18 C 0.03354 0.32349 0.34597 0.0
C19 C 0.05147 0.32148 0.35683 0.0
C20 C 0.02719 0.31115 0.32472 0.0
C21 C 0.03885 0.29644 0.31513 0.0
H22 H 0.06634 0.28431 0.31921 0.0
H23 H 0.05667 0.33137 0.37299 0.0
C24 C 0.12594 0.37684 0.4252 0.0
N25 N 0.10933 0.36241 0.41319 0.0
C26 C 0.12367 0.39663 0.43818 0.0
C27 C 0.08717 0.38545 0.42728 0.0
C28 C 0.09025 0.36641 0.41405 0.0
C29 C 0.10406 0.40118 0.43917 0.0
H30 H 0.14094 0.37328 0.42471 0.0
H31 H 0.07732 0.35476 0.40431 0.0
C32 C 0.11129 0.27127 0.34647 0.0
N33 N 0.13255 0.24495 0.32077 0.0
C34 C 0.12106 0.25694 0.35549 0.0
C35 C 0.11206 0.27201 0.32434 0.0
C36 C 0.13179 0.2438 0.34223 0.0
C37 C 0.12298 0.25864 0.31163 0.0
C38 C 0.14915 0.33295 0.40456 0.0
C39 C 0.15644 0.34963 0.39295 0.0
C40 C 0.16121 0.33092 0.42271 0.0
C41 C 0.17573 0.36384 0.39961 0.0
C42 C 0.18038 0.34551 0.42889 0.0
N43 N 0.1872 0.36151 0.41729 0.0
C44 C 0.1519 0.32661 0.33574 0.0
C45 C 0.1608 0.30216 0.3575 0.0
C46 C 0.17113 0.32944 0.3277 0.0
N47 N 0.14726 0.31332 0.35052 0.0
C48 C 0.1801 0.30441 0.34984 0.0
C49 C 0.18565 0.31862 0.33515 0.0
H50 H 0.14113 0.33589 0.33104 0.0
H51 H 0.15689 0.29222 0.36973 0.0
C52 C 0.08267 0.26303 0.41174 0.0
N53 N 0.10185 0.27399 0.40906 0.0
C54 C 0.07974 0.25051 0.428 0.0
C55 C 0.11652 0.25977 0.43741 0.0
C56 C 0.1187 0.27232 0.42113 0.0
C57 C 0.0968 0.24911 0.44136 0.0
H58 H 0.06957 0.26498 0.40201 0.0
H59 H 0.13373 0.28134 0.41857 0.0
O60 O 0.1098 0.33721 0.36308 0.0
O61 O 0.08348 0.31295 0.39479 0.0
O62 O 0.1011 0.28459 0.35928 0.0
O63 O 0.1306 0.31828 0.39805 0.0
H64 H 0.09348 0.37244 0.37146 0.0
H65 H 0.1044 0.32125 0.32046 0.0
H66 H 0.07501 0.38659 0.34366 0.0
H67 H 0.08593 0.33643 0.29347 0.0
H68 H 0.09655 0.32436 0.46868 0.0
H69 H 0.04512 0.30596 0.40455 0.0
H70 H 0.10828 0.32261 0.43164 0.0
H71 H 0.03448 0.30803 0.44217 0.0
H72 H 0.0248 0.33473 0.35408 0.0
H73 H 0.03442 0.28671 0.29872 0.0
H74 H 0.13715 0.40834 0.44698 0.0
H75 H 0.07165 0.38778 0.42801 0.0
H76 H 0.12056 0.25615 0.37259 0.0
H77 H 0.10444 0.28289 0.31709 0.0
H78 H 0.13957 0.23275 0.34902 0.0
H79 H 0.12385 0.25916 0.29451 0.0
H80 H 0.14729 0.35181 0.3791 0.0
H81 H 0.15582 0.31819 0.43195 0.0
H82 H 0.18153 0.37679 0.39077 0.0
H83 H 0.18986 0.34409 0.44289 0.0
H84 H 0.1749 0.34072 0.31657 0.0
H85 H 0.19074 0.29551 0.35576 0.0
H86 H 0.06424 0.24284 0.43065 0.0
H87 H 0.1301 0.25877 0.44705 0.0
Li88 Li 0.01968 0.7912 0.65079 0.0
Li89 Li 0.03473 0.77824 0.68066 0.0
Li90 Li 0.01373 0.7512 0.65035 0.0
Li91 Li 0.998 0.77421 0.67707 0.0
C92 C 0.05973 0.78133 0.64773 0.0
N93 N 0.1007 0.79926 0.64521 0.0
C94 C 0.06782 0.80413 0.65522 0.0
C95 C 0.07245 0.76762 0.63908 0.0
C96 C 0.08858 0.81289 0.65376 0.0
C97 C 0.09314 0.77701 0.63792 0.0
C98 C 0.02389 0.81553 0.70347 0.0
C99 C 0.02211 0.81924 0.74233 0.0
N100 N 0.0321 0.84101 0.74527 0.0
C101 C 0.03419 0.8379 0.70685 0.0
C102 C 0.01783 0.80609 0.72132 0.0
C103 C 0.03818 0.85053 0.72812 0.0
C104 C 0.02385 0.83253 0.63668 0.0
N105 N 0.02404 0.8106 0.63141 0.0
C106 C 0.0331 0.8139 0.59568 0.0
C107 C 0.0284 0.8011 0.61143 0.0
C108 C 0.03329 0.83668 0.60062 0.0
C109 C 0.02841 0.84602 0.62133 0.0
H110 H 0.02044 0.83954 0.65283 0.0
H111 H 0.0284 0.78355 0.60788 0.0
C112 C 0.06393 0.76 0.69393 0.0
N113 N 0.05816 0.77962 0.69909 0.0
C114 C 0.08023 0.75603 0.70597 0.0
C115 C 0.08497 0.79297 0.72826 0.0
C116 C 0.06838 0.79624 0.71565 0.0
C117 C 0.09075 0.77245 0.7236 0.0
H118 H 0.05563 0.74732 0.68047 0.0
H119 H 0.06359 0.81179 0.71927 0.0
C120 C 0.97772 0.75545 0.62999 0.0
N121 N 0.94679 0.72821 0.59996 0.0
C122 C 0.96561 0.73637 0.63515 0.0
C123 C 0.97416 0.76069 0.60955 0.0
C124 C 0.95003 0.72281 0.61975 0.0
C125 C 0.95843 0.74669 0.59458 0.0
C126 C 0.0092 0.7378 0.69554 0.0
C127 C 0.99687 0.71639 0.68814 0.0
C128 C 0.01775 0.74426 0.71727 0.0
C129 C 0.99301 0.70193 0.70271 0.0
C130 C 0.01356 0.72929 0.73133 0.0
N131 N 1.00137 0.70863 0.72383 0.0
C132 C 0.02358 0.71103 0.64367 0.0
C133 C 1.00533 0.71642 0.61224 0.0
C134 C 0.02658 0.69093 0.63245 0.0
N135 N 0.01312 0.72325 0.63351 0.0
C136 C 0.00784 0.69624 0.60036 0.0
C137 C 0.01884 0.68343 0.61046 0.0
H138 H 0.0302 0.7173 0.66035 0.0
H139 H 0.9978 0.72688 0.60429 0.0
C140 C 0.96903 0.79341 0.7001 0.0
N141 N 0.97435 0.77395 0.69218 0.0
C142 C 0.95211 0.79339 0.71212 0.0
C143 C 0.94623 0.75329 0.70706 0.0
C144 C 0.96324 0.75411 0.69522 0.0
C145 C 0.94056 0.77311 0.71578 0.0
H146 H 0.97807 0.80894 0.69728 0.0
H147 H 0.96745 0.73886 0.6884 0.0
O148 O 0.03959 0.77229 0.64946 0.0
O149 O 0.02002 0.80294 0.68277 0.0
O150 O 0.99315 0.76888 0.64473 0.0
O151 O 0.01347 0.75201 0.68135 0.0
H152 H 0.05823 0.8149 0.66228 0.0
H153 H 0.06641 0.74989 0.63342 0.0
H154 H 0.09508 0.8305 0.65949 0.0
H155 H 0.10319 0.76661 0.63127 0.0
H156 H 0.01748 0.81215 0.75629 0.0
H157 H 0.03908 0.8454 0.69318 0.0
H158 H 0.00988 0.78881 0.71899 0.0
H159 H 0.04613 0.86788 0.731 0.0
H160 H 0.03648 0.80604 0.5798 0.0
H161 H 0.02856 0.86358 0.62575 0.0
H162 H 0.08457 0.74024 0.70147 0.0
H163 H 0.09288 0.80606 0.74169 0.0
H164 H 0.96844 0.73187 0.6507 0.0
H165 H 0.98347 0.77538 0.60529 0.0
H166 H 0.94058 0.70794 0.62351 0.0
H167 H 0.9555 0.75051 0.57869 0.0
H168 H 0.99018 0.71108 0.67134 0.0
H169 H 0.02766 0.76057 0.72323 0.0
H170 H 0.98338 0.68538 0.69722 0.0
H171 H 0.02007 0.73408 0.74819 0.0
H172 H 0.03563 0.68188 0.64066 0.0
H173 H 1.00169 0.69098 0.58337 0.0
H174 H 0.94823 0.80907 0.71866 0.0
H175 H 0.93744 0.73727 0.70908 0.0
Li176 Li 0.58651 0.81268 0.872 0.0
Li177 Li 0.60715 0.83789 0.90074 0.0
Li178 Li 0.62307 0.81775 0.87206 0.0
Li179 Li 0.60332 0.79906 0.90036 0.0
C180 C 0.59877 0.84867 0.85415 0.0
N181 N 0.58177 0.86634 0.82216 0.0
C182 C 0.58275 0.85943 0.85845 0.0
C183 C 0.60628 0.84708 0.83364 0.0
C184 C 0.57429 0.86816 0.84204 0.0
C185 C 0.59747 0.85611 0.81768 0.0
C186 C 0.57271 0.82587 0.91953 0.0
C187 C 0.56577 0.83206 0.95734 0.0
N188 N 0.55437 0.84668 0.95333 0.0
C189 C 0.56075 0.84078 0.91574 0.0
C190 C 0.57513 0.82133 0.94047 0.0
C191 C 0.55168 0.85121 0.93305 0.0
C192 C 0.54374 0.803 0.86375 0.0
N193 N 0.56134 0.80677 0.85382 0.0
C194 C 0.54269 0.80802 0.82064 0.0
C195 C 0.56101 0.80815 0.83236 0.0
C196 C 0.52457 0.80558 0.83098 0.0
C197 C 0.52499 0.80227 0.85251 0.0
H198 H 0.54433 0.80142 0.88067 0.0
H199 H 0.57507 0.81039 0.82458 0.0
C200 C 0.61204 0.88394 0.90947 0.0
N201 N 0.61051 0.86616 0.91932 0.0
C202 C 0.61147 0.90469 0.92157 0.0
C203 C 0.60977 0.88894 0.95414 0.0
C204 C 0.61016 0.86842 0.94133 0.0
C205 C 0.60975 0.9071 0.94404 0.0
H206 H 0.61309 0.88193 0.89211 0.0
H207 H 0.60942 0.85417 0.94889 0.0
C208 C 0.59085 0.77467 0.85032 0.0
N209 N 0.56656 0.74679 0.81474 0.0
C210 C 0.57353 0.75908 0.85344 0.0
C211 C 0.59591 0.77604 0.82917 0.0
C212 C 0.56141 0.74515 0.83521 0.0
C213 C 0.58341 0.7618 0.81137 0.0
C214 C 0.6424 0.83695 0.92074 0.0
C215 C 0.65571 0.8554 0.91576 0.0
C216 C 0.64212 0.83417 0.9424 0.0
C217 C 0.66846 0.87087 0.93259 0.0
C218 C 0.6551 0.85002 0.95877 0.0
N219 N 0.66788 0.86789 0.95357 0.0
C220 C 0.65587 0.83948 0.85286 0.0
C221 C 0.65193 0.8003 0.84775 0.0
C222 C 0.6731 0.84138 0.84125 0.0
N223 N 0.64578 0.81919 0.85587 0.0
C224 C 0.66906 0.8014 0.83598 0.0
C225 C 0.67994 0.82218 0.83275 0.0
H226 H 0.65054 0.85419 0.85957 0.0
H227 H 0.64353 0.78443 0.85048 0.0
C228 C 0.58195 0.76711 0.92086 0.0
N229 N 0.60113 0.77735 0.91737 0.0
C230 C 0.57931 0.75319 0.93593 0.0
C231 C 0.61628 0.75979 0.9426 0.0
C232 C 0.61818 0.7737 0.92747 0.0
C233 C 0.59663 0.74968 0.94728 0.0
H234 H 0.56872 0.7706 0.91266 0.0
H235 H 0.63322 0.78215 0.92425 0.0
O236 O 0.60727 0.84003 0.87003 0.0
O237 O 0.58177 0.81554 0.90278 0.0
O238 O 0.60269 0.78873 0.86789 0.0
O239 O 0.62961 0.8218 0.90452 0.0
H240 H 0.57687 0.86097 0.87426 0.0
H241 H 0.61854 0.83865 0.82993 0.0
H242 H 0.56179 0.87639 0.8451 0.0
H243 H 0.60304 0.85488 0.8017 0.0
H244 H 0.56769 0.82887 0.97366 0.0
H245 H 0.55846 0.84426 0.89961 0.0
H246 H 0.58453 0.81008 0.94383 0.0
H247 H 0.54248 0.86288 0.93036 0.0
H248 H 0.54274 0.81049 0.80394 0.0
H249 H 0.51117 0.80038 0.86088 0.0
H250 H 0.61173 0.91853 0.91338 0.0
H251 H 0.60838 0.89029 0.97149 0.0
H252 H 0.5694 0.7579 0.86974 0.0
H253 H 0.60917 0.78819 0.82651 0.0
H254 H 0.54789 0.73306 0.83734 0.0
H255 H 0.58706 0.76276 0.79489 0.0
H256 H 0.65603 0.85788 0.89913 0.0
H257 H 0.63171 0.82018 0.94661 0.0
H258 H 0.67876 0.88528 0.92898 0.0
H259 H 0.65493 0.84817 0.97562 0.0
H260 H 0.68123 0.85771 0.83937 0.0
H261 H 0.67374 0.78618 0.82948 0.0
H262 H 0.5639 0.74597 0.93923 0.0
H263 H 0.63 0.75721 0.95072 0.0
Li264 Li 0.51899 0.29067 0.16139 0.0
Li265 Li 0.53611 0.27964 0.19135 0.0
Li266 Li 0.51539 0.25268 0.16147 0.0
Li267 Li 0.49789 0.27356 0.18688 0.0
C268 C 0.55429 0.28468 0.14836 0.0
N269 N 0.58106 0.30685 0.12341 0.0
C270 C 0.57077 0.30194 0.15849 0.0
C271 C 0.55154 0.27853 0.12557 0.0
C272 C 0.58412 0.31297 0.14557 0.0
C273 C 0.5652 0.29001 0.11324 0.0
C274 C 0.5202 0.31326 0.21457 0.0
C275 C 0.51771 0.31182 0.25261 0.0
N276 N 0.52173 0.33446 0.25762 0.0
C277 C 0.52432 0.33649 0.22008 0.0
C278 C 0.5169 0.30079 0.23094 0.0
C279 C 0.52503 0.3469 0.24194 0.0
C280 C 0.51183 0.30624 0.12336 0.0
N281 N 0.52222 0.31203 0.14357 0.0
C282 C 0.54124 0.34584 0.13549 0.0
C283 C 0.53631 0.33162 0.1501 0.0
C284 C 0.5315 0.33967 0.1141 0.0
C285 C 0.51629 0.31987 0.10823 0.0
H286 H 0.50058 0.2907 0.11873 0.0
H287 H 0.54439 0.33565 0.1663 0.0
C288 C 0.57068 0.26721 0.19977 0.0
N289 N 0.56079 0.28289 0.20884 0.0
C290 C 0.58908 0.26554 0.20981 0.0
C291 C 0.58737 0.29676 0.23827 0.0
C292 C 0.56878 0.29783 0.22757 0.0
C293 C 0.59752 0.28018 0.22948 0.0
H294 H 0.56407 0.2558 0.1847 0.0
H295 H 0.56079 0.3104 0.23427 0.0
C296 C 0.48045 0.25097 0.13948 0.0
N297 N 0.45465 0.21758 0.10895 0.0
C298 C 0.46146 0.24017 0.14488 0.0
C299 C 0.48627 0.24483 0.11849 0.0
C300 C 0.44866 0.22333 0.12923 0.0
C301 C 0.47302 0.2279 0.10331 0.0
C302 C 0.50955 0.23083 0.19388 0.0
C303 C 0.48907 0.21905 0.18983 0.0
C304 C 0.52488 0.21969 0.19801 0.0
C305 C 0.48426 0.19628 0.18992 0.0
C306 C 0.51946 0.19688 0.19787 0.0
N307 N 0.49944 0.18574 0.19387 0.0
C308 C 0.53597 0.22297 0.14056 0.0
C309 C 0.50062 0.20631 0.13993 0.0
C310 C 0.53988 0.20283 0.1306 0.0
N311 N 0.51663 0.22441 0.14504 0.0
C312 C 0.50387 0.18569 0.13001 0.0
C313 C 0.52379 0.18381 0.12548 0.0
H314 H 0.54856 0.23735 0.14518 0.0
H315 H 0.48546 0.20764 0.14406 0.0
C316 C 0.46069 0.28474 0.19241 0.0
N317 N 0.4736 0.27369 0.20077 0.0
C318 C 0.44106 0.28323 0.19912 0.0
C319 C 0.44872 0.25985 0.22377 0.0
C320 C 0.46832 0.26192 0.21663 0.0
C321 C 0.43464 0.2701 0.21452 0.0
H322 H 0.46541 0.294 0.17985 0.0
H323 H 0.47899 0.25342 0.22309 0.0
O324 O 0.54073 0.27403 0.16067 0.0
O325 O 0.51949 0.30299 0.1932 0.0
O326 O 0.4931 0.2677 0.15452 0.0
O327 O 0.51458 0.25309 0.19357 0.0
H328 H 0.57305 0.30699 0.1761 0.0
H329 H 0.53888 0.26518 0.11751 0.0
H330 H 0.59686 0.32646 0.15316 0.0
H331 H 0.56316 0.28556 0.09558 0.0
H332 H 0.5152 0.30238 0.26545 0.0
H333 H 0.52696 0.34636 0.20757 0.0
H334 H 0.51389 0.28282 0.22707 0.0
H335 H 0.52821 0.36488 0.24645 0.0
H336 H 0.55316 0.36093 0.14053 0.0
H337 H 0.50824 0.31475 0.09198 0.0
H338 H 0.59665 0.25286 0.20221 0.0
H339 H 0.59351 0.30839 0.25341 0.0
H340 H 0.45666 0.24464 0.16099 0.0
H341 H 0.501 0.25275 0.11408 0.0
H342 H 0.43396 0.21479 0.13323 0.0
H343 H 0.4774 0.22289 0.08708 0.0
H344 H 0.47705 0.22726 0.18616 0.0
H345 H 0.54079 0.2285 0.20125 0.0
H346 H 0.46849 0.18694 0.18664 0.0
H347 H 0.53118 0.18803 0.20096 0.0
H348 H 0.5554 0.20219 0.12703 0.0
H349 H 0.49107 0.17132 0.12646 0.0
H350 H 0.43086 0.29186 0.19197 0.0
H351 H 0.44438 0.24958 0.23567 0.0
Li352 Li 0.09609 0.83749 0.10819 0.0
Li353 Li 0.1183 0.8203 0.13688 0.0
Li354 Li 0.09361 0.79495 0.10602 0.0
Li355 Li 0.07949 0.81581 0.13569 0.0
C356 C 0.12678 0.80889 0.08661 0.0
N357 N 0.14185 0.78605 0.05144 0.0
C358 C 0.14087 0.79605 0.09004 0.0
C359 C 0.1205 0.81034 0.06537 0.0
C360 C 0.14826 0.78455 0.07202 0.0
C361 C 0.12826 0.79862 0.04778 0.0
C362 C 0.09479 0.85543 0.15954 0.0
C363 C 0.09394 0.86492 0.19854 0.0
N364 N 0.07922 0.87632 0.19547 0.0
C365 C 0.07969 0.86723 0.15673 0.0
C366 C 0.10202 0.85423 0.18056 0.0
C367 C 0.072 0.87769 0.17512 0.0
C368 C 0.08303 0.8653 0.07673 0.0
N369 N 0.0944 0.8656 0.09573 0.0
C370 C 0.10168 0.906 0.10283 0.0
C371 C 0.10381 0.88573 0.10852 0.0
C372 C 0.08959 0.90631 0.08365 0.0
C373 C 0.08057 0.88531 0.07036 0.0
H374 H 0.07524 0.84956 0.0666 0.0
H375 H 0.11269 0.88616 0.12363 0.0
C376 C 0.14855 0.80091 0.15583 0.0
N377 N 0.14407 0.82102 0.15516 0.0
C378 C 0.16554 0.79924 0.16921 0.0
C379 C 0.17375 0.8391 0.18077 0.0
C380 C 0.15644 0.84 0.1673 0.0
C381 C 0.17856 0.81846 0.18221 0.0
H382 H 0.13862 0.78591 0.14623 0.0
H383 H 0.15283 0.85591 0.16673 0.0
C384 C 0.05681 0.79941 0.08771 0.0
N385 N 0.02772 0.77413 0.05458 0.0
C386 C 0.0396 0.78475 0.09256 0.0
C387 C 0.05927 0.8011 0.066 0.0
C388 C 0.02507 0.77211 0.07558 0.0
C389 C 0.04436 0.78825 0.04949 0.0
C390 C 0.08759 0.77688 0.14633 0.0
C391 C 0.06945 0.7622 0.13617 0.0
C392 C 0.09639 0.77384 0.16599 0.0
C393 C 0.06039 0.74465 0.14587 0.0
C394 C 0.08685 0.75609 0.1752 0.0
N395 N 0.0692 0.74198 0.16503 0.0
C396 C 0.10451 0.75309 0.09935 0.0
C397 C 0.07682 0.75088 0.07348 0.0
C398 C 0.10301 0.73005 0.0933 0.0
N399 N 0.0913 0.76323 0.08987 0.0
C400 C 0.07484 0.72762 0.06681 0.0
C401 C 0.08769 0.71665 0.07718 0.0
H402 H 0.1158 0.76279 0.11247 0.0
H403 H 0.06616 0.75866 0.06607 0.0
C404 C 0.03827 0.81659 0.14708 0.0
N405 N 0.05697 0.81402 0.15444 0.0
C406 C 0.02149 0.81305 0.15955 0.0
C407 C 0.04369 0.80538 0.18744 0.0
C408 C 0.05999 0.80911 0.1745 0.0
C409 C 0.02394 0.80681 0.17985 0.0
H410 H 0.03621 0.82084 0.13123 0.0
H411 H 0.07503 0.80772 0.18038 0.0
O412 O 0.11895 0.81975 0.10397 0.0
O413 O 0.10199 0.84446 0.14175 0.0
O414 O 0.07108 0.81217 0.10412 0.0
O415 O 0.09667 0.79422 0.13714 0.0
H416 H 0.1459 0.79484 0.10642 0.0
H417 H 0.10973 0.8204 0.06253 0.0
H418 H 0.15907 0.77441 0.07439 0.0
H419 H 0.12349 0.79951 0.03122 0.0
H420 H 0.09931 0.86407 0.21493 0.0
H421 H 0.07381 0.86808 0.1405 0.0
H422 H 0.11356 0.84493 0.18294 0.0
H423 H 0.06024 0.88682 0.17321 0.0
H424 H 0.10941 0.92143 0.11369 0.0
H425 H 0.07097 0.88422 0.05552 0.0
H426 H 0.16802 0.78283 0.16968 0.0
H427 H 0.18327 0.8546 0.18992 0.0
H428 H 0.03743 0.78312 0.10923 0.0
H429 H 0.07268 0.81194 0.0619 0.0
H430 H 0.01169 0.7607 0.07911 0.0
H431 H 0.0461 0.78939 0.03261 0.0
H432 H 0.0625 0.76429 0.12092 0.0
H433 H 0.11032 0.7852 0.17418 0.0
H434 H 0.04636 0.73314 0.13817 0.0
H435 H 0.09346 0.75356 0.19045 0.0
H436 H 0.11354 0.7227 0.1017 0.0
H437 H 0.06268 0.71817 0.05442 0.0
H438 H 0.00661 0.81438 0.15298 0.0
H439 H 0.04652 0.80116 0.20319 0.0
Li440 Li 0.53098 0.79589 0.44421 0.0
Li441 Li 0.50523 0.7696 0.41373 0.0
Li442 Li 0.52807 0.7531 0.44128 0.0
Li443 Li 0.54352 0.77235 0.41334 0.0
C444 C 0.4963 0.78133 0.46315 0.0
N445 N 0.47751 0.80235 0.4963 0.0
C446 C 0.48272 0.79431 0.45846 0.0
C447 C 0.50017 0.77879 0.4846 0.0
C448 C 0.47343 0.80489 0.47548 0.0
C449 C 0.49055 0.78961 0.50116 0.0
C450 C 0.53878 0.80786 0.39964 0.0
C451 C 0.54711 0.81427 0.36399 0.0
N452 N 0.56297 0.83143 0.37354 0.0
C453 C 0.55522 0.82548 0.40911 0.0
C454 C 0.53473 0.80212 0.3769 0.0
C455 C 0.56723 0.83723 0.39563 0.0
C456 C 0.5484 0.83999 0.47614 0.0
N457 N 0.53377 0.82767 0.45988 0.0
C458 C 0.5221 0.86083 0.45645 0.0
C459 C 0.5206 0.8378 0.45037 0.0
C460 C 0.53736 0.87419 0.47264 0.0
C461 C 0.55032 0.86326 0.48292 0.0
H462 H 0.55925 0.83213 0.48328 0.0
H463 H 0.50934 0.8281 0.43719 0.0
C464 C 0.46097 0.75424 0.39463 0.0
N465 N 0.4791 0.76964 0.39643 0.0
C466 C 0.44357 0.75596 0.38171 0.0
C467 C 0.46364 0.78918 0.37268 0.0
C468 C 0.48036 0.78714 0.38606 0.0
C469 C 0.44487 0.77346 0.37018 0.0
H470 H 0.45995 0.74052 0.40309 0.0
H471 H 0.49445 0.79974 0.38813 0.0
C472 C 0.56454 0.77805 0.46336 0.0
N473 N 0.58727 0.77594 0.50077 0.0
C474 C 0.58206 0.76935 0.46181 0.0
C475 C 0.55857 0.7857 0.48388 0.0
C476 C 0.59333 0.76838 0.48093 0.0
C477 C 0.57028 0.78452 0.50262 0.0
C478 C 0.52182 0.7312 0.38905 0.0
C479 C 0.53594 0.71762 0.3876 0.0
C480 C 0.50883 0.73065 0.37058 0.0
C481 C 0.53697 0.70385 0.36762 0.0
C482 C 0.51031 0.71662 0.3509 0.0
N483 N 0.52424 0.70364 0.34983 0.0
C484 C 0.51898 0.71577 0.46788 0.0
C485 C 0.54815 0.71798 0.44832 0.0
C486 C 0.52244 0.69621 0.47457 0.0
N487 N 0.53165 0.72624 0.45464 0.0
C488 C 0.55194 0.69849 0.45431 0.0
C489 C 0.53893 0.68687 0.4674 0.0
H490 H 0.50587 0.7222 0.47297 0.0
H491 H 0.55837 0.72634 0.43814 0.0
C492 C 0.58524 0.78462 0.40314 0.0
N493 N 0.56595 0.77345 0.39435 0.0
C494 C 0.60155 0.78718 0.38994 0.0
C495 C 0.57807 0.7662 0.35896 0.0
C496 C 0.56222 0.76441 0.37262 0.0
C497 C 0.5981 0.77806 0.36737 0.0
H498 H 0.58789 0.79212 0.42035 0.0
H499 H 0.54683 0.75629 0.36561 0.0
O500 O 0.5058 0.77119 0.44679 0.0
O501 O 0.52733 0.79563 0.41253 0.0
O502 O 0.55314 0.77882 0.44485 0.0
O503 O 0.52047 0.74478 0.40843 0.0
H504 H 0.47951 0.7963 0.44187 0.0
H505 H 0.51052 0.7686 0.4884 0.0
H506 H 0.46297 0.81512 0.47214 0.0
H507 H 0.49344 0.78788 0.51787 0.0
H508 H 0.54422 0.80994 0.34637 0.0
H509 H 0.55886 0.82984 0.42665 0.0
H510 H 0.52241 0.78814 0.36928 0.0
H511 H 0.58002 0.85088 0.40273 0.0
H512 H 0.51167 0.86825 0.44799 0.0
H513 H 0.56253 0.87276 0.49524 0.0
H514 H 0.42942 0.74342 0.38031 0.0
H515 H 0.46538 0.80313 0.36444 0.0
H516 H 0.58682 0.76329 0.44601 0.0
H517 H 0.54503 0.79245 0.4853 0.0
H518 H 0.60689 0.76161 0.48 0.0
H519 H 0.56585 0.7904 0.51863 0.0
H520 H 0.54617 0.71788 0.40163 0.0
H521 H 0.49782 0.74104 0.37138 0.0
H522 H 0.54792 0.69336 0.36624 0.0
H523 H 0.5004 0.7161 0.33647 0.0
H524 H 0.5118 0.68799 0.48453 0.0
H525 H 0.565 0.69239 0.44843 0.0
H526 H 0.61652 0.79681 0.39729 0.0
H527 H 0.57446 0.75847 0.34184 0.0
Li528 Li 0.59439 0.3359 0.60539 0.0
Li529 Li 0.61754 0.31872 0.63278 0.0
Li530 Li 0.5925 0.29348 0.60218 0.0
Li531 Li 0.57872 0.31364 0.63285 0.0
C532 C 0.62409 0.30793 0.58157 0.0
N533 N 0.63669 0.28517 0.5446 0.0
C534 C 0.63851 0.2951 0.58351 0.0
C535 C 0.61616 0.30934 0.56089 0.0
C536 C 0.64466 0.28365 0.5646 0.0
C537 C 0.62272 0.29768 0.54238 0.0
C538 C 0.59594 0.35157 0.65917 0.0
C539 C 0.59812 0.35449 0.69824 0.0
N540 N 0.58498 0.3684 0.69967 0.0
C541 C 0.58249 0.36589 0.66101 0.0
C542 C 0.60384 0.3458 0.6779 0.0
C543 C 0.57712 0.37422 0.68164 0.0
C544 C 0.57437 0.37137 0.59862 0.0
N545 N 0.59072 0.36285 0.59223 0.0
C546 C 0.59959 0.39205 0.57123 0.0
C547 C 0.60312 0.37277 0.57843 0.0
C548 C 0.58329 0.40171 0.57841 0.0
C549 C 0.57054 0.39066 0.59214 0.0
H550 H 0.56426 0.3633 0.60909 0.0
H551 H 0.61602 0.36603 0.57319 0.0
C552 C 0.64781 0.29811 0.64817 0.0
N553 N 0.64378 0.31872 0.64989 0.0
C554 C 0.66506 0.29482 0.65982 0.0
C555 C 0.67437 0.33409 0.67507 0.0
C556 C 0.65672 0.33664 0.66315 0.0
C557 C 0.67894 0.31288 0.67352 0.0
H558 H 0.63737 0.28395 0.63788 0.0
H559 H 0.65337 0.35295 0.66463 0.0
C560 C 0.55513 0.29957 0.58506 0.0
N561 N 0.52515 0.27766 0.55152 0.0
C562 C 0.5389 0.2829 0.58865 0.0
C563 C 0.55601 0.30529 0.56452 0.0
C564 C 0.52392 0.27197 0.57146 0.0
C565 C 0.54074 0.29395 0.54774 0.0
C566 C 0.58816 0.27501 0.64282 0.0
C567 C 0.57029 0.25949 0.6332 0.0
C568 C 0.59759 0.27299 0.66259 0.0
C569 C 0.56211 0.24214 0.64358 0.0
C570 C 0.58893 0.25541 0.67247 0.0
N571 N 0.57152 0.24047 0.66284 0.0
C572 C 0.60296 0.25095 0.59282 0.0
C573 C 0.57543 0.25152 0.56797 0.0
C574 C 0.60144 0.22819 0.58438 0.0
N575 N 0.58997 0.26231 0.58482 0.0
C576 C 0.57326 0.22863 0.55912 0.0
C577 C 0.58621 0.21632 0.56741 0.0
H578 H 0.61437 0.25948 0.60627 0.0
H579 H 0.56506 0.26037 0.56163 0.0
C580 C 0.53737 0.31353 0.64372 0.0
N581 N 0.55594 0.31083 0.65135 0.0
C582 C 0.52022 0.30936 0.65558 0.0
C583 C 0.54168 0.30051 0.68335 0.0
C584 C 0.55839 0.30496 0.67106 0.0
C585 C 0.5221 0.30224 0.6755 0.0
H586 H 0.53571 0.31836 0.62811 0.0
H587 H 0.57326 0.3033 0.67714 0.0
O588 O 0.61737 0.31864 0.59984 0.0
O589 O 0.60093 0.34265 0.6391 0.0
O590 O 0.56993 0.3105 0.60165 0.0
O591 O 0.59634 0.2922 0.63301 0.0
H592 H 0.64474 0.29383 0.59944 0.0
H593 H 0.60502 0.31927 0.55918 0.0
H594 H 0.65572 0.27353 0.56583 0.0
H595 H 0.61667 0.29856 0.52624 0.0
H596 H 0.60403 0.35009 0.71287 0.0
H597 H 0.57619 0.37046 0.64668 0.0
H598 H 0.61403 0.33446 0.6767 0.0
H599 H 0.56668 0.38529 0.68331 0.0
H600 H 0.61002 0.39978 0.56078 0.0
H601 H 0.55761 0.39699 0.59804 0.0
H602 H 0.6672 0.278 0.65825 0.0
H603 H 0.68443 0.34871 0.68517 0.0
H604 H 0.53786 0.27846 0.60453 0.0
H605 H 0.56835 0.31835 0.56158 0.0
H606 H 0.51131 0.25897 0.57396 0.0
H607 H 0.54125 0.29813 0.53172 0.0
H608 H 0.56286 0.2608 0.61787 0.0
H609 H 0.61132 0.28501 0.67035 0.0
H610 H 0.54829 0.22999 0.63632 0.0
H611 H 0.59602 0.25367 0.68782 0.0
H612 H 0.61218 0.22002 0.59127 0.0
H613 H 0.56104 0.22058 0.5463 0.0
H614 H 0.50548 0.31089 0.6488 0.0
H615 H 0.54404 0.29552 0.6988 0.0
Li616 Li 0.02752 0.29525 0.94562 0.0
Li617 Li 1.00256 0.27008 0.91481 0.0
Li618 Li 0.02565 0.25262 0.94101 0.0
Li619 Li 0.04116 0.27418 0.91466 0.0
C620 C 0.99337 0.27824 0.96478 0.0
N621 N 0.97427 0.29525 0.99988 0.0
C622 C 0.98001 0.2921 0.96219 0.0
C623 C 0.99683 0.27278 0.98513 0.0
C624 C 0.97057 0.30062 0.98016 0.0
C625 C 0.98707 0.28161 1.0027 0.0
C626 C 0.03492 0.3156 0.9092 0.0
C627 C 0.03758 0.34471 0.88844 0.0
N628 N 0.05661 0.35437 0.89882 0.0
C629 C 0.05455 0.32574 0.9196 0.0
C630 C 0.02637 0.32507 0.89345 0.0
C631 C 0.06525 0.34537 0.91415 0.0
C632 C 0.04651 0.33775 0.97756 0.0
N633 N 0.03039 0.3267 0.9625 0.0
C634 C 0.01884 0.36098 0.9642 0.0
C635 C 0.01675 0.33807 0.95577 0.0
C636 C 0.03509 0.3727 0.98004 0.0
C637 C 0.04895 0.36056 0.98671 0.0
H638 H 0.05797 0.3292 0.98209 0.0
H639 H 1.00445 0.32951 0.94323 0.0
C640 C 0.96265 0.25258 0.88576 0.0
N641 N 0.97628 0.27051 0.89817 0.0
C642 C 0.94483 0.25533 0.87432 0.0
C643 C 0.95539 0.2948 0.88836 0.0
C644 C 0.97284 0.29132 0.89946 0.0
C645 C 0.94081 0.27673 0.87558 0.0
H646 H 0.96554 0.2361 0.88463 0.0
H647 H 0.98379 0.30546 0.90916 0.0
C648 C 0.05967 0.27771 0.966 0.0
N649 N 0.07755 0.27433 1.00577 0.0
C650 C 0.07677 0.26834 0.96687 0.0
C651 C 0.05159 0.2852 0.98535 0.0
C652 C 0.08559 0.26678 0.98712 0.0
C653 C 0.06088 0.28344 1.0053 0.0
C654 C 0.02371 0.2375 0.88754 0.0
C655 C 0.03792 0.22404 0.8853 0.0
C656 C 0.01515 0.24307 0.86903 0.0
C657 C 0.0434 0.21642 0.86452 0.0
C658 C 0.02099 0.23509 0.84853 0.0
N659 N 0.03489 0.22205 0.84672 0.0
C660 C 0.01723 0.21538 0.96779 0.0
C661 C 0.04564 0.21698 0.94711 0.0
C662 C 0.02104 0.19614 0.97484 0.0
N663 N 0.02938 0.22546 0.95389 0.0
C664 C 0.04977 0.19777 0.95348 0.0
C665 C 0.03734 0.18664 0.96738 0.0
H666 H 1.0043 0.22193 0.97323 0.0
H667 H 0.05552 0.22507 0.93648 0.0
C668 C 0.06041 0.28428 0.87659 0.0
N669 N 0.06339 0.27721 0.89557 0.0
C670 C 0.07659 0.28885 0.86365 0.0
C671 C 0.09862 0.27795 0.8894 0.0
C672 C 0.08199 0.27367 0.90192 0.0
C673 C 0.09619 0.28611 0.87015 0.0
H674 H 0.04552 0.28688 0.87168 0.0
H675 H 0.08409 0.26801 0.91698 0.0
O676 O 1.00291 0.26991 0.94745 0.0
O677 O 0.02419 0.29638 0.9143 0.0
O678 O 0.05037 0.27872 0.94629 0.0
O679 O 0.01861 0.24576 0.90777 0.0
H680 H 0.97702 0.29629 0.9465 0.0
H681 H 0.00703 0.26196 0.98737 0.0
H682 H 0.96028 0.31149 0.97842 0.0
H683 H 0.98969 0.27762 0.01858 0.0
H684 H 0.03115 0.35225 0.87628 0.0
H685 H 0.06145 0.31852 0.93173 0.0
H686 H 0.01129 0.31729 0.88509 0.0
H687 H 0.08044 0.35343 0.92209 0.0
H688 H 0.00773 0.3694 0.95841 0.0
H689 H 0.06202 0.36878 0.99849 0.0
H690 H 0.93419 0.24074 0.86488 0.0
H691 H 0.95358 0.31172 0.88965 0.0
H692 H 0.08306 0.26206 0.9521 0.0
H693 H 0.03828 0.2923 0.98499 0.0
H694 H 0.0988 0.2595 0.98801 0.0
H695 H 0.05479 0.28926 0.02039 0.0
H696 H 0.04476 0.21964 0.89943 0.0
H697 H 1.00434 0.25372 0.87051 0.0
H698 H 0.05444 0.20606 0.86256 0.0
H699 H 0.01456 0.23935 0.83407 0.0
H700 H 0.01082 0.18831 0.98542 0.0
H701 H 0.0627 0.19158 0.94735 0.0
H702 H 0.07379 0.29472 0.84877 0.0
H703 H 0.11341 0.27567 0.89518 0.0
Li704 Li 0.4283 0.05393 0.3284 0.0
Li705 Li 0.40237 0.02807 0.30089 0.0
Li706 Li 0.43242 0.05225 0.28997 0.0
Li707 Li 0.40497 0.06681 0.30592 0.0
C708 C 0.44705 0.01841 0.30236 0.0
N709 N 0.47908 0.99837 0.29198 0.0
C710 C 0.44306 0.99663 0.29028 0.0
C711 C 0.46727 0.02995 0.30935 0.0
C712 C 0.45948 0.9868 0.28514 0.0
C713 C 0.48327 0.01954 0.30388 0.0
C714 C 0.38336 0.03492 0.33673 0.0
C715 C 0.34904 0.01236 0.33464 0.0
N716 N 0.35385 1.00678 0.35398 0.0
C717 C 0.38791 0.02913 0.35667 0.0
C718 C 0.36372 0.02662 0.32569 0.0
C719 C 0.37281 0.01482 0.36509 0.0
C720 C 0.45195 0.07412 0.36992 0.0
N721 N 0.44298 0.05526 0.35514 0.0
C722 C 0.45637 0.03273 0.37635 0.0
C723 C 0.44466 0.03482 0.35822 0.0
C724 C 0.46639 0.05192 0.39144 0.0
C725 C 0.4641 0.07284 0.38824 0.0
H726 H 0.44982 0.0901 0.36759 0.0
H727 H 0.43695 0.02008 0.34645 0.0
C728 C 0.37925 0.99119 0.27146 0.0
N729 N 0.38667 0.99874 0.29278 0.0
C730 C 0.36972 0.96882 0.26395 0.0
C731 C 0.37516 0.96265 0.30068 0.0
C732 C 0.38505 0.985 0.30733 0.0
C733 C 0.36769 0.95416 0.27861 0.0
H734 H 0.38138 1.0024 0.26012 0.0
H735 H 0.39176 0.99131 0.32401 0.0
C736 C 0.44698 0.09728 0.32598 0.0
N737 N 0.47138 0.13427 0.35354 0.0
C738 C 0.43809 0.11357 0.3375 0.0
C739 C 0.46827 0.09981 0.32843 0.0
C740 C 0.4507 0.13216 0.35136 0.0
C741 C 0.48034 0.11863 0.34246 0.0
C742 C 0.39248 0.05345 0.26383 0.0
C743 C 0.40248 0.06735 0.25076 0.0
C744 C 0.37107 0.04857 0.26295 0.0
C745 C 0.39084 0.07649 0.2372 0.0
C746 C 0.35999 0.05809 0.24924 0.0
N747 N 0.37002 0.07175 0.23677 0.0
C748 C 0.44964 0.03272 0.25523 0.0
C749 C 0.46713 0.07013 0.26975 0.0
C750 C 0.46465 0.03001 0.24121 0.0
N751 N 0.45148 0.05229 0.26947 0.0
C752 C 0.48233 0.06834 0.25562 0.0
C753 C 0.48135 0.04794 0.24135 0.0
H754 H 0.4368 0.01897 0.25534 0.0
H755 H 0.4679 0.08561 0.28105 0.0
C756 C 0.3706 0.08433 0.31218 0.0
N757 N 0.38938 0.08786 0.30465 0.0
C758 C 0.3568 0.09687 0.3074 0.0
C759 C 0.38261 0.11744 0.28858 0.0
C760 C 0.39593 0.10451 0.29378 0.0
C761 C 0.36254 0.11307 0.29478 0.0
H762 H 0.36597 0.07107 0.32093 0.0
H763 H 0.41101 0.10674 0.288 0.0
O764 O 0.43119 0.02847 0.30709 0.0
O765 O 0.39797 0.0489 0.32824 0.0
O766 O 0.43493 0.07913 0.31212 0.0
O767 O 0.40363 0.04487 0.27764 0.0
H768 H 0.42745 0.98753 0.28474 0.0
H769 H 0.47055 0.04682 0.31875 0.0
H770 H 0.45666 0.97 0.27568 0.0
H771 H 0.49902 0.0283 0.30907 0.0
H772 H 0.33384 1.00567 0.32619 0.0
H773 H 0.40293 0.03563 0.36558 0.0
H774 H 0.35995 0.03087 0.3102 0.0
H775 H 0.37615 0.01012 0.38046 0.0
H776 H 0.45785 0.01633 0.37839 0.0
H777 H 0.47141 0.08792 0.39986 0.0
H778 H 0.36462 0.963 0.24673 0.0
H779 H 0.37363 0.95214 0.31271 0.0
H780 H 0.42164 0.11182 0.33591 0.0
H781 H 0.4754 0.08731 0.31976 0.0
H782 H 0.44404 0.14487 0.36043 0.0
H783 H 0.49683 0.12077 0.34458 0.0
H784 H 0.41906 0.07127 0.2513 0.0
H785 H 0.36314 0.03777 0.27294 0.0
H786 H 0.39837 0.08743 0.22711 0.0
H787 H 0.34342 0.05468 0.24856 0.0
H788 H 0.46336 0.01388 0.23077 0.0
H789 H 0.49465 0.08274 0.25589 0.0
H790 H 0.34152 0.09329 0.31269 0.0
H791 H 0.3875 0.12967 0.27863 0.0
Li792 Li 0.30277 0.20674 0.52985 0.0
Li793 Li 0.31782 0.17782 0.50884 0.0
Li794 Li 0.3027 0.20359 0.48832 0.0
Li795 Li 0.28038 0.17342 0.50377 0.0
C796 C 0.34078 0.22998 0.52134 0.0
N797 N 0.36908 0.26842 0.54113 0.0
C798 C 0.35284 0.23046 0.54045 0.0
C799 C 0.34315 0.24903 0.51225 0.0
C800 C 0.36707 0.25005 0.55021 0.0
C801 C 0.35752 0.26832 0.52253 0.0
C802 C 0.3053 0.1621 0.54336 0.0
C803 C 0.30849 0.12628 0.55007 0.0
N804 N 0.32147 0.13661 0.56826 0.0
C805 C 0.3186 0.17238 0.56215 0.0
C806 C 0.30013 0.13889 0.53728 0.0
C807 C 0.32663 0.15919 0.57452 0.0
C808 C 0.29044 0.21397 0.57283 0.0
N809 N 0.30267 0.22458 0.55947 0.0
C810 C 0.31438 0.25619 0.589 0.0
C811 C 0.31427 0.24555 0.56713 0.0
C812 C 0.3021 0.24551 0.60335 0.0
C813 C 0.2899 0.22407 0.59473 0.0
H814 H 0.28115 0.19739 0.56653 0.0
H815 H 0.32364 0.2541 0.55641 0.0
C816 C 0.33874 0.14388 0.49307 0.0
N817 N 0.33928 0.16137 0.50972 0.0
C818 C 0.3527 0.13027 0.49379 0.0
C819 C 0.36822 0.15334 0.52839 0.0
C820 C 0.35393 0.16651 0.52699 0.0
C821 C 0.36752 0.13467 0.51181 0.0
H822 H 0.32727 0.14025 0.4793 0.0
H823 H 0.35422 0.18042 0.54008 0.0
C824 C 0.27199 0.22392 0.50762 0.0
N825 N 0.25663 0.26141 0.50787 0.0
C826 C 0.25123 0.22177 0.50128 0.0
C827 C 0.28495 0.24505 0.51413 0.0
C828 C 0.24376 0.24095 0.50149 0.0
C829 C 0.27688 0.26383 0.51416 0.0
C830 C 0.28854 0.15328 0.46504 0.0
C831 C 0.28113 0.15734 0.44521 0.0
C832 C 0.28424 0.13159 0.46892 0.0
C833 C 0.26936 0.13961 0.42962 0.0
C834 C 0.27241 0.11431 0.45294 0.0
N835 N 0.26527 0.11865 0.43378 0.0
C836 C 0.32165 0.22015 0.45185 0.0
C837 C 0.28693 0.22207 0.45359 0.0
C838 C 0.32195 0.2272 0.43171 0.0
N839 N 0.30423 0.21751 0.46234 0.0
C840 C 0.28658 0.22918 0.43359 0.0
C841 C 0.30411 0.23147 0.42198 0.0
H842 H 0.33518 0.21608 0.45877 0.0
H843 H 0.27307 0.21945 0.46173 0.0
C844 C 0.24772 0.1445 0.51816 0.0
N845 N 0.25352 0.15323 0.50049 0.0
C846 C 0.22821 0.13077 0.51764 0.0
C847 C 0.22082 0.13488 0.48061 0.0
C848 C 0.24044 0.14882 0.48195 0.0
C849 C 0.21437 0.12583 0.49873 0.0
H850 H 0.25815 0.14853 0.53289 0.0
H851 H 0.24507 0.1564 0.46829 0.0
O852 O 0.3269 0.21093 0.51138 0.0
O853 O 0.29758 0.17471 0.53082 0.0
O854 O 0.27955 0.20533 0.50729 0.0
O855 O 0.29989 0.17046 0.48061 0.0
H856 H 0.35093 0.21607 0.54796 0.0
H857 H 0.33395 0.24894 0.49745 0.0
H858 H 0.37641 0.25069 0.56509 0.0
H859 H 0.35947 0.2832 0.51571 0.0
H860 H 0.30468 0.10829 0.54552 0.0
H861 H 0.32298 0.19034 0.56693 0.0
H862 H 0.2898 0.13069 0.52283 0.0
H863 H 0.33705 0.16691 0.58902 0.0
H864 H 0.32434 0.27254 0.5946 0.0
H865 H 0.27983 0.21513 0.60469 0.0
H866 H 0.35179 0.11633 0.48039 0.0
H867 H 0.37921 0.15731 0.5427 0.0
H868 H 0.24106 0.20545 0.49616 0.0
H869 H 0.30102 0.24692 0.51912 0.0
H870 H 0.22773 0.23958 0.49656 0.0
H871 H 0.28673 0.28033 0.51917 0.0
H872 H 0.28435 0.17399 0.44189 0.0
H873 H 0.28985 0.12816 0.48418 0.0
H874 H 0.26347 0.14252 0.41422 0.0
H875 H 0.26888 0.09746 0.45577 0.0
H876 H 0.33583 0.22842 0.42347 0.0
H877 H 0.27249 0.23256 0.42717 0.0
H878 H 0.22395 0.12413 0.53198 0.0
H879 H 0.21057 0.13182 0.46583 0.0
Li880 Li 0.19924 0.04022 0.77486 0.0
Li881 Li 0.17093 0.01859 0.79378 0.0
Li882 Li 0.19727 0.99584 0.77122 0.0
Li883 Li 0.16782 0.01552 0.74845 0.0
C884 C 0.2193 0.03412 0.81068 0.0
N885 N 0.25459 0.06061 0.83469 0.0
C886 C 0.21855 0.05398 0.82469 0.0
C887 C 0.23798 0.02776 0.80877 0.0
C888 C 0.23657 0.06714 0.83671 0.0
C889 C 0.25566 0.04136 0.82109 0.0
C890 C 0.15679 0.05294 0.7845 0.0
C891 C 0.12267 0.05733 0.79111 0.0
N892 N 0.1308 0.0755 0.80708 0.0
C893 C 0.16483 0.07153 0.80108 0.0
C894 C 0.13556 0.04564 0.77955 0.0
C895 C 0.15142 0.08276 0.81226 0.0
C896 C 0.20869 0.08764 0.76971 0.0
N897 N 0.21807 0.07185 0.77544 0.0
C898 C 0.25074 0.09904 0.7798 0.0
C899 C 0.23892 0.07742 0.78034 0.0
C900 C 0.24147 0.11579 0.77402 0.0
C901 C 0.21991 0.1094 0.76897 0.0
H902 H 0.19228 0.08336 0.76538 0.0
H903 H 0.24664 0.06508 0.78458 0.0
C904 C 0.16462 0.02897 0.84395 0.0
N905 N 0.15435 0.02031 0.82347 0.0
C906 C 0.15431 0.03056 0.86358 0.0
C907 C 0.12258 0.01436 0.84178 0.0
C908 C 0.13341 0.01319 0.82257 0.0
C909 C 0.13271 0.02307 0.86323 0.0
H910 H 0.18112 0.03474 0.84539 0.0
H911 H 0.12473 1.00653 0.80679 0.0
C912 C 0.21506 0.0267 0.73819 0.0
N913 N 0.24775 0.05039 0.721 0.0
C914 C 0.2349 0.02403 0.74293 0.0
C915 C 0.2118 0.04137 0.72474 0.0
C916 C 0.25124 0.03616 0.73405 0.0
C917 C 0.22854 0.05321 0.7162 0.0
C918 C 0.14836 0.97603 0.77335 0.0
C919 C 0.15168 0.96186 0.78732 0.0
C920 C 0.12836 0.9759 0.76564 0.0
C921 C 0.13481 0.9477 0.79339 0.0
C922 C 0.1119 0.96149 0.77208 0.0
N923 N 0.11544 0.94782 0.78571 0.0
C924 C 0.21898 0.96315 0.79092 0.0
C925 C 0.2182 0.95459 0.75292 0.0
C926 C 0.22928 0.94562 0.79284 0.0
N927 N 0.21327 0.96778 0.77117 0.0
C928 C 0.22849 0.93667 0.75417 0.0
C929 C 0.2343 0.93128 0.77442 0.0
H930 H 0.21564 0.9732 0.8057 0.0
H931 H 0.21413 0.95769 0.73698 0.0
C932 C 0.1374 0.02982 0.71588 0.0
N933 N 0.15158 0.01699 0.71733 0.0
C934 C 0.12848 0.0324 0.69528 0.0
C935 C 0.14835 0.00864 0.67717 0.0
C936 C 0.15681 1.00642 0.69796 0.0
C937 C 0.13397 0.02209 0.675 0.0
H938 H 0.13316 0.03879 0.73075 0.0
H939 H 0.16806 0.99639 0.69841 0.0
O940 O 0.20192 0.02124 0.79847 0.0
O941 O 0.1696 0.04126 0.77394 0.0
O942 O 0.19904 0.01574 0.74748 0.0
O943 O 0.16461 0.99034 0.76764 0.0
H944 H 0.20424 0.05927 0.8261 0.0
H945 H 0.23883 0.01256 0.79778 0.0
H946 H 0.23624 0.08258 0.84759 0.0
H947 H 0.27024 0.03667 0.81978 0.0
H948 H 0.10619 0.05187 0.78747 0.0
H949 H 0.18123 0.07716 0.80531 0.0
H950 H 0.12912 0.03091 0.76715 0.0
H951 H 0.15742 0.09721 0.82512 0.0
H952 H 0.26713 0.10253 0.78414 0.0
H953 H 0.2116 0.12095 0.76396 0.0
H954 H 0.16351 0.03734 0.87907 0.0
H955 H 0.10607 0.0086 0.83951 0.0
H956 H 0.23764 0.01288 0.75352 0.0
H957 H 0.19653 0.04378 0.72117 0.0
H958 H 0.2667 0.03435 0.73762 0.0
H959 H 0.22629 0.06471 0.70585 0.0
H960 H 0.16711 0.96189 0.79349 0.0
H961 H 0.1256 0.9869 0.75489 0.0
H962 H 0.13711 0.93664 0.80422 0.0
H963 H 0.09632 0.96123 0.7663 0.0
H964 H 0.23345 0.9437 0.8092 0.0
H965 H 0.23156 0.92688 0.7391 0.0
H966 H 0.11777 0.04313 0.6954 0.0
H967 H 0.15329 0.99964 0.66273 0.0
Li968 Li 0.30386 0.93507 0.03221 0.0
Li969 Li 0.32264 0.90951 0.0481 0.0
Li970 Li 0.33943 0.93646 0.02722 0.0
Li971 Li 0.31492 0.90497 0.00942 0.0
C972 C 0.34019 0.96276 0.0644 0.0
N973 N 0.36746 1.00291 0.08118 0.0
C974 C 0.35683 0.96369 0.07929 0.0
C975 C 0.33734 0.98228 0.05814 0.0
C976 C 0.37048 0.98413 0.08755 0.0
C977 C 0.3513 1.00241 0.0668 0.0
C978 C 0.28085 0.88416 0.02049 0.0
C979 C 0.26798 0.84437 0.01047 0.0
N980 N 0.25333 0.8474 0.99611 0.0
C981 C 0.26565 0.8869 1.0057 0.0
C982 C 0.28204 0.86275 0.02295 0.0
C983 C 0.25189 0.8681 0.9935 0.0
C984 C 0.27051 0.95303 0.02129 0.0
N985 N 0.284 0.95149 0.03763 0.0
C986 C 0.27072 0.9762 0.06362 0.0
C987 C 0.28415 0.96235 0.05853 0.0
C988 C 0.25691 0.97856 0.04703 0.0
C989 C 0.25659 0.96654 0.0257 0.0
H990 H 0.27091 0.9442 1.00481 0.0
H991 H 0.29499 0.96054 0.07116 0.0
C992 C 0.34604 0.90043 0.08116 0.0
N993 N 0.32646 0.89654 0.07194 0.0
C994 C 0.35017 0.89189 0.09949 0.0
C995 C 0.31395 0.87477 0.09787 0.0
C996 C 0.31045 0.88413 0.07984 0.0
C997 C 0.33399 0.87884 0.10788 0.0
H998 H 0.3584 0.91013 0.07418 0.0
H999 H 0.29503 0.88155 0.07217 0.0
C1000 C 0.32413 0.95065 0.99273 0.0
N1001 N 0.33887 0.98118 0.96742 0.0
C1002 C 0.33715 0.94563 0.97677 0.0
C1003 C 0.3184 0.97108 0.99565 0.0
C1004 C 0.34451 0.96133 0.9642 0.0
C1005 C 0.32606 0.98632 0.98272 0.0
C1006 C 0.34986 0.88978 0.01499 0.0
C1007 C 0.35983 0.8933 0.99648 0.0
C1008 C 0.34925 0.87005 0.02255 0.0
C1009 C 0.36865 0.87671 0.98548 0.0
C1010 C 0.35829 0.85387 0.01111 0.0
N1011 N 0.36769 0.85749 0.99294 0.0
C1012 C 0.38138 0.94543 0.03302 0.0
C1013 C 0.37021 0.97443 0.01983 0.0
C1014 C 0.40178 0.95591 0.03259 0.0
N1015 N 0.36606 0.95446 0.02622 0.0
C1016 C 0.3905 0.98545 0.01891 0.0
C1017 C 0.40658 0.97596 0.02502 0.0
H1018 H 0.37775 0.93003 0.0389 0.0
H1019 H 0.3579 0.98189 0.01546 0.0
C1020 C 0.30368 0.89198 0.9647 0.0
N1021 N 0.30851 0.88389 0.98253 0.0
C1022 C 0.3025 0.8791 0.94385 0.0
C1023 C 0.30963 0.84905 0.96011 0.0
C1024 C 0.31063 0.86255 0.98069 0.0
C1025 C 0.30623 0.85763 0.94138 0.0
H1026 H 0.30144 0.90874 0.96661 0.0
H1027 H 0.31393 0.85627 0.99512 0.0
O1028 O 0.32705 0.9428 0.05549 0.0
O1029 O 0.29472 0.90234 0.03223 0.0
O1030 O 0.31657 0.93541 1.00501 0.0
O1031 O 0.34106 0.90574 0.02594 0.0
H1032 H 0.35929 0.94879 0.08432 0.0
H1033 H 0.32467 0.98184 0.04647 0.0
H1034 H 0.38349 0.98507 0.09899 0.0
H1035 H 0.34935 0.01761 0.06199 0.0
H1036 H 0.26879 0.82769 0.01209 0.0
H1037 H 0.26461 0.90336 1.00352 0.0
H1038 H 0.29391 0.86033 0.03409 0.0
H1039 H 0.2401 0.86995 0.98192 0.0
H1040 H 0.27115 0.98502 0.08031 0.0
H1041 H 0.24615 0.9681 0.01252 0.0
H1042 H 0.36583 0.89505 0.1068 0.0
H1043 H 0.30121 0.86472 0.10407 0.0
H1044 H 0.34151 0.92979 0.97412 0.0
H1045 H 0.30827 0.9752 0.00784 0.0
H1046 H 0.35468 0.95771 0.95187 0.0
H1047 H 0.32185 1.00224 0.98487 0.0
H1048 H 0.36072 0.90866 0.99068 0.0
H1049 H 0.34167 0.86716 0.03694 0.0
H1050 H 0.37629 0.87912 0.97102 0.0
H1051 H 0.3578 0.83842 0.01665 0.0
H1052 H 0.41367 0.9484 0.03827 0.0
H1053 H 0.39353 1.00101 0.0132 0.0
H1054 H 0.29928 0.88609 0.92979 0.0
H1055 H 0.31249 0.83253 0.95888 0.0
Li1056 Li 0.30127 0.40908 0.03473 0.0
Li1057 Li 0.31482 0.38355 0.05285 0.0
Li1058 Li 0.3401 0.41222 0.03897 0.0
Li1059 Li 0.31635 0.38007 0.01289 0.0
C1060 C 0.32046 0.42074 0.08338 0.0
N1061 N 0.31981 0.42625 0.12813 0.0
C1062 C 0.30234 0.42261 0.09285 0.0
C1063 C 0.33829 0.42186 0.09662 0.0
C1064 C 0.30233 0.42538 0.11552 0.0
C1065 C 0.33762 0.42458 0.11922 0.0
C1066 C 0.27597 0.36205 0.03606 0.0
C1067 C 0.26017 0.32504 0.04058 0.0
N1068 N 0.24492 0.33307 0.05042 0.0
C1069 C 0.26007 0.36993 0.04607 0.0
C1070 C 0.27597 0.33942 0.03313 0.0
C1071 C 0.24454 0.35501 0.05327 0.0
C1072 C 0.26406 0.41833 0.01824 0.0
N1073 N 0.28103 0.42646 0.03281 0.0
C1074 C 0.27105 0.46107 0.04303 0.0
C1075 C 0.28463 0.44731 0.04526 0.0
C1076 C 0.25367 0.45346 0.02761 0.0
C1077 C 0.25016 0.4316 0.01532 0.0
H1078 H 0.26161 0.40171 0.00843 0.0
H1079 H 0.29826 0.45341 0.05667 0.0
C1080 C 0.32934 0.36393 0.08713 0.0
N1081 N 0.31232 0.36958 0.07906 0.0
C1082 C 0.32991 0.357 0.10723 0.0
C1083 C 0.29534 0.36142 0.11063 0.0
C1084 C 0.29543 0.36829 0.09044 0.0
C1085 C 0.31289 0.35598 0.1196 0.0
H1086 H 0.34283 0.36552 0.0783 0.0
H1087 H 0.28231 0.37368 0.08451 0.0
C1088 C 0.31426 0.4237 0.99917 0.0
N1089 N 0.29698 0.44714 0.97282 0.0
C1090 C 0.29884 0.41245 0.9825 0.0
C1091 C 0.32088 0.44684 1.00248 0.0
C1092 C 0.2903 0.42461 0.96934 0.0
C1093 C 0.31195 0.4584 0.98898 0.0
C1094 C 0.34387 0.36067 0.02573 0.0
C1095 C 0.35797 0.36186 0.0101 0.0
C1096 C 0.33451 0.33999 0.03009 0.0
C1097 C 0.36247 0.34225 0.99904 0.0
C1098 C 0.33947 0.32077 0.01873 0.0
N1099 N 0.35322 0.32229 1.00356 0.0
C1100 C 0.38357 0.42198 0.04117 0.0
C1101 C 0.36989 0.45416 0.04639 0.0
C1102 C 0.40347 0.43501 0.0421 0.0
N1103 N 0.36722 0.43161 0.04291 0.0
C1104 C 0.38959 0.46789 0.04755 0.0
C1105 C 0.40672 0.45832 0.04503 0.0
H1106 H 0.38117 0.40408 0.03883 0.0
H1107 H 0.35669 0.4615 0.04793 0.0
C1108 C 0.30202 0.34324 0.97501 0.0
N1109 N 0.31568 0.36291 0.98304 0.0
C1110 C 0.30142 0.3325 0.95309 0.0
C1111 C 0.32889 0.36232 0.94795 0.0
C1112 C 0.32894 0.37249 0.96991 0.0
C1113 C 0.31498 0.34198 0.93907 0.0
H1114 H 0.29134 0.33603 0.98549 0.0
H1115 H 0.33956 0.38825 0.97649 0.0
O1116 O 0.32066 0.4174 0.06122 0.0
O1117 O 0.29125 0.37635 0.02881 0.0
O1118 O 0.32236 0.41219 0.01265 0.0
O1119 O 0.33873 0.37958 0.03619 0.0
H1120 H 0.28839 0.42162 0.08275 0.0
H1121 H 0.3524 0.42036 0.08945 0.0
H1122 H 0.28839 0.42669 0.12309 0.0
H1123 H 0.35125 0.42529 0.12968 0.0
H1124 H 0.26002 0.3075 0.0385 0.0
H1125 H 0.25987 0.38741 0.04852 0.0
H1126 H 0.28803 0.33303 0.02519 0.0
H1127 H 0.23221 0.36088 0.06119 0.0
H1128 H 0.27429 0.47759 0.05319 0.0
H1129 H 0.23719 0.42503 1.00305 0.0
H1130 H 0.34376 0.35276 0.11313 0.0
H1131 H 0.28195 0.36138 0.11956 0.0
H1132 H 0.29326 0.39459 0.97999 0.0
H1133 H 0.33267 0.45579 0.01543 0.0
H1134 H 0.27829 0.41614 0.95644 0.0
H1135 H 0.31688 0.47633 0.99138 0.0
H1136 H 0.36507 0.37771 0.00624 0.0
H1137 H 0.32345 0.33877 0.04203 0.0
H1138 H 0.37325 0.3429 0.98679 0.0
H1139 H 0.33233 0.30464 0.02193 0.0
H1140 H 0.41619 0.42688 0.04051 0.0
H1141 H 0.39131 0.48574 0.04976 0.0
H1142 H 0.2901 0.3171 0.94711 0.0
H1143 H 0.33983 0.3703 0.93811 0.0
Li1144 Li 0.79746 0.14751 0.04788 0.0
Li1145 Li 0.80515 0.11478 0.026 0.0
Li1146 Li 0.79251 0.1413 0.00933 0.0
Li1147 Li 0.77026 0.11709 0.02854 0.0
C1148 C 0.835 0.16057 0.03972 0.0
N1149 N 0.86725 0.18939 0.06691 0.0
C1150 C 0.8496 0.1522 0.05039 0.0
C1151 C 0.83685 0.18358 0.04278 0.0
C1152 C 0.86579 0.16706 0.06409 0.0
C1153 C 0.85324 0.19788 0.05663 0.0
C1154 C 0.77834 0.10504 0.06499 0.0
C1155 C 0.75802 0.07058 0.07144 0.0
N1156 N 0.75159 0.08204 0.08938 0.0
C1157 C 0.77161 0.11648 0.08353 0.0
C1158 C 0.77159 0.08191 0.05892 0.0
C1159 C 0.75806 0.10455 0.09563 0.0
C1160 C 0.79286 0.18474 0.07749 0.0
N1161 N 0.8036 0.16854 0.07428 0.0
C1162 C 0.81817 0.17874 0.11136 0.0
C1163 C 0.81631 0.16546 0.09055 0.0
C1164 C 0.80668 0.19511 0.11533 0.0
C1165 C 0.79426 0.19839 0.09798 0.0
H1166 H 0.78239 0.18634 0.06447 0.0
H1167 H 0.82425 0.15204 0.08759 0.0
C1168 C 0.83581 0.0986 1.00594 0.0
N1169 N 0.82352 0.09601 0.02226 0.0
C1170 C 0.84929 0.08475 1.00106 0.0
C1171 C 0.83806 0.06671 0.03079 0.0
C1172 C 0.82447 0.08069 0.03484 0.0
C1173 C 0.85042 0.06854 0.01351 0.0
H1174 H 0.83496 0.11133 0.9966 0.0
H1175 H 0.81469 0.07932 0.04794 0.0
C1176 C 0.76356 0.1618 0.01955 0.0
N1177 N 0.74493 0.18654 0.99583 0.0
C1178 C 0.74424 0.1525 0.00806 0.0
C1179 C 0.77338 0.1837 0.01901 0.0
C1180 C 0.73508 0.16529 0.99617 0.0
C1181 C 0.76373 0.19593 0.0069 0.0
C1182 C 0.78716 0.0916 0.98745 0.0
C1183 C 0.79712 0.09574 0.96906 0.0
C1184 C 0.78218 0.06992 0.99128 0.0
C1185 C 0.80212 0.07809 0.95491 0.0
C1186 C 0.78747 0.05273 0.97676 0.0
N1187 N 0.79726 0.05714 0.95904 0.0
C1188 C 0.80859 0.17101 0.98247 0.0
C1189 C 0.7768 0.14555 0.96926 0.0
C1190 C 0.80796 0.18066 0.96417 0.0
N1191 N 0.793 0.154 0.98467 0.0
C1192 C 0.77547 0.15474 0.95082 0.0
C1193 C 0.79113 0.17261 0.94818 0.0
H1194 H 0.82135 0.17715 0.99497 0.0
H1195 H 0.76475 0.13189 0.97157 0.0
C1196 C 0.73246 0.113 0.04507 0.0
N1197 N 0.74267 0.10285 0.02957 0.0
C1198 C 0.71138 0.10544 0.04518 0.0
C1199 C 0.71172 0.07699 0.0134 0.0
C1200 C 0.73287 0.08507 0.01398 0.0
C1201 C 0.70067 0.08749 0.02893 0.0
H1202 H 0.74062 0.12753 0.05686 0.0
H1203 H 0.7413 0.07777 1.00147 0.0
O1204 O 0.81886 0.1463 0.02652 0.0
O1205 O 0.79129 0.11644 0.05269 0.0
O1206 O 0.773 0.1494 0.03088 0.0
O1207 O 0.78245 0.10871 1.00172 0.0
H1208 H 0.84836 0.13445 0.0483 0.0
H1209 H 0.82559 0.19032 0.03478 0.0
H1210 H 0.87716 0.16083 0.07254 0.0
H1211 H 0.8548 0.21572 0.05925 0.0
H1212 H 0.75259 0.05269 0.06687 0.0
H1213 H 0.77655 0.1344 0.08837 0.0
H1214 H 0.77662 0.07282 0.04459 0.0
H1215 H 0.75262 0.11319 0.10995 0.0
H1216 H 0.828 0.17581 0.12433 0.0
H1217 H 0.78487 0.21055 0.10047 0.0
H1218 H 0.85893 0.08687 0.9879 0.0
H1219 H 0.83874 0.05444 0.04079 0.0
H1220 H 0.73649 0.13551 0.00804 0.0
H1221 H 0.78846 0.19106 0.02754 0.0
H1222 H 0.72017 0.15827 0.98713 0.0
H1223 H 0.77122 0.21283 0.00621 0.0
H1224 H 0.80124 0.11243 0.96591 0.0
H1225 H 0.7745 0.06643 1.00542 0.0
H1226 H 0.80996 0.08107 0.94071 0.0
H1227 H 0.78383 0.03589 0.97961 0.0
H1228 H 0.82043 0.19428 0.96258 0.0
H1229 H 0.76206 0.14832 0.93908 0.0
H1230 H 0.70348 0.11389 0.05755 0.0
H1231 H 0.704 0.06335 1.00037 0.0
Li1232 Li 0.21226 0.56247 0.24167 0.0
Li1233 Li 0.1849 0.53932 0.25656 0.0
Li1234 Li 0.21099 0.5229 0.23817 0.0
Li1235 Li 0.18434 0.53318 0.21787 0.0
C1236 C 0.23279 0.55312 0.27803 0.0
N1237 N 0.26982 0.56761 0.30371 0.0
C1238 C 0.23327 0.56158 0.30038 0.0
C1239 C 0.2511 0.55187 0.26877 0.0
C1240 C 0.25216 0.56889 0.31308 0.0
C1241 C 0.26968 0.5593 0.28201 0.0
C1242 C 0.16797 0.57106 0.24666 0.0
C1243 C 0.13288 0.56984 0.25422 0.0
N1244 N 0.13863 0.5912 0.26561 0.0
C1245 C 0.1735 0.59307 0.25823 0.0
C1246 C 0.14746 0.55941 0.24441 0.0
C1247 C 0.15845 0.60293 0.26776 0.0
C1248 C 0.23479 0.60039 0.22849 0.0
N1249 N 0.22827 0.59151 0.24581 0.0
C1250 C 0.24075 0.62637 0.27026 0.0
C1251 C 0.23116 0.60388 0.26642 0.0
C1252 C 0.24738 0.6362 0.25268 0.0
C1253 C 0.24459 0.62287 0.23159 0.0
H1254 H 0.23185 0.59017 0.21222 0.0
H1255 H 0.22511 0.59652 0.27972 0.0
C1256 C 0.15266 0.52323 0.28033 0.0
N1257 N 0.16879 0.54035 0.27991 0.0
C1258 C 0.13909 0.52542 0.29622 0.0
C1259 C 0.1594 0.56261 0.3111 0.0
C1260 C 0.1727 0.55956 0.29511 0.0
C1261 C 0.14218 0.54549 0.31161 0.0
H1262 H 0.15011 0.5081 0.26806 0.0
H1263 H 0.18568 0.57286 0.29417 0.0
C1264 C 0.2287 0.53675 0.20118 0.0
N1265 N 0.25793 0.52857 0.17322 0.0
C1266 C 0.22315 0.52082 0.18181 0.0
C1267 C 0.24905 0.5488 0.20616 0.0
C1268 C 0.23817 0.51684 0.16793 0.0
C1269 C 0.26362 0.54434 0.19187 0.0
C1270 C 0.16859 0.49178 0.22363 0.0
C1271 C 0.17695 0.47445 0.21327 0.0
C1272 C 0.1474 0.48996 0.22083 0.0
C1273 C 0.16397 0.45568 0.20006 0.0
C1274 C 0.13495 0.47093 0.20747 0.0
N1275 N 0.14342 0.45434 0.19744 0.0
C1276 C 0.22596 0.49543 0.25995 0.0
C1277 C 0.239 0.49469 0.22539 0.0
C1278 C 0.23774 0.481 0.26506 0.0
N1279 N 0.22701 0.50219 0.24056 0.0
C1280 C 0.25103 0.48015 0.22978 0.0
C1281 C 0.2506 0.47333 0.24991 0.0
H1282 H 0.21622 0.50171 0.27164 0.0
H1283 H 0.23945 0.5 0.21 0.0
C1284 C 0.15695 0.54365 0.18939 0.0
N1285 N 0.16682 0.52736 0.19195 0.0
C1286 C 0.14313 0.54083 0.1712 0.0
C1287 C 0.15025 0.50467 0.15819 0.0
C1288 C 0.16394 0.5082 0.17674 0.0
C1289 C 0.13967 0.52114 0.15537 0.0
H1290 H 0.15998 0.55901 0.20133 0.0
H1291 H 0.17224 0.49566 0.17892 0.0
O1292 O 0.21439 0.54608 0.2654 0.0
O1293 O 0.18255 0.56096 0.23758 0.0
O1294 O 0.21417 0.54094 0.21488 0.0
O1295 O 0.18107 0.51029 0.23662 0.0
H1296 H 0.2192 0.56259 0.30782 0.0
H1297 H 0.25097 0.54509 0.25159 0.0
H1298 H 0.25277 0.57558 0.33039 0.0
H1299 H 0.28398 0.55841 0.27505 0.0
H1300 H 0.11699 0.56094 0.2528 0.0
H1301 H 0.18923 0.60241 0.25994 0.0
H1302 H 0.14292 0.54241 0.2354 0.0
H1303 H 0.16254 0.61991 0.27689 0.0
H1304 H 0.24214 0.63612 0.28669 0.0
H1305 H 0.2496 0.6298 0.21764 0.0
H1306 H 0.12626 0.51163 0.29634 0.0
H1307 H 0.16222 0.57844 0.32246 0.0
H1308 H 0.2075 0.51142 0.17765 0.0
H1309 H 0.25357 0.56152 0.22084 0.0
H1310 H 0.23413 0.50441 0.15298 0.0
H1311 H 0.27944 0.55347 0.19556 0.0
H1312 H 0.19329 0.47554 0.21523 0.0
H1313 H 0.14065 0.50317 0.22871 0.0
H1314 H 0.17024 0.44221 0.19184 0.0
H1315 H 0.11855 0.46937 0.20505 0.0
H1316 H 0.23722 0.47643 0.28094 0.0
H1317 H 0.26062 0.47439 0.21762 0.0
H1318 H 0.1357 0.55419 0.16924 0.0
H1319 H 0.14802 0.48933 0.14617 0.0
Li1320 Li 0.8052 0.90649 0.5367 0.0
Li1321 Li 0.81794 0.88057 0.55488 0.0
Li1322 Li 0.8433 0.90881 0.53919 0.0
Li1323 Li 0.81827 0.87607 0.51435 0.0
C1324 C 0.81891 0.92323 0.58229 0.0
N1325 N 0.80566 0.94254 0.62063 0.0
C1326 C 0.79813 0.91822 0.58562 0.0
C1327 C 0.83297 0.93814 0.5984 0.0
C1328 C 0.79173 0.92808 0.60513 0.0
C1329 C 0.82596 0.94773 0.61769 0.0
C1330 C 0.77884 0.85674 0.53477 0.0
C1331 C 0.76376 0.81739 0.5295 0.0
N1332 N 0.74807 0.822 0.54109 0.0
C1333 C 0.76235 0.8611 0.54624 0.0
C1334 C 0.77937 0.83472 0.52601 0.0
C1335 C 0.74704 0.84331 0.54943 0.0
C1336 C 0.76713 0.91638 0.52339 0.0
N1337 N 0.78562 0.92481 0.53541 0.0
C1338 C 0.77791 0.96074 0.54422 0.0
C1339 C 0.79112 0.94651 0.54583 0.0
C1340 C 0.75889 0.95277 0.53144 0.0
C1341 C 0.75349 0.93012 0.52114 0.0
H1342 H 0.7632 0.8991 0.51508 0.0
H1343 H 0.80596 0.95287 0.55515 0.0
C1344 C 0.83123 0.85807 0.58751 0.0
N1345 N 0.81528 0.86625 0.58057 0.0
C1346 C 0.83046 0.84846 0.60611 0.0
C1347 C 0.79731 0.85673 0.61103 0.0
C1348 C 0.79848 0.86568 0.59201 0.0
C1349 C 0.81338 0.8478 0.61826 0.0
H1350 H 0.84473 0.85915 0.57869 0.0
H1351 H 0.786 0.87241 0.58661 0.0
C1352 C 0.81852 0.92214 0.50199 0.0
N1353 N 0.80471 0.95086 0.47935 0.0
C1354 C 0.80303 0.91381 0.48475 0.0
C1355 C 0.82704 0.945 0.50772 0.0
C1356 C 0.79625 0.92863 0.4735 0.0
C1357 C 0.81983 0.95927 0.49607 0.0
C1358 C 0.84604 0.8557 0.53003 0.0
C1359 C 0.86348 0.85441 0.51902 0.0
C1360 C 0.83342 0.83624 0.53384 0.0
C1361 C 0.86784 0.83362 0.51178 0.0
C1362 C 0.83831 0.81576 0.5264 0.0
N1363 N 0.85527 0.81488 0.51558 0.0
C1364 C 0.87805 0.94722 0.55341 0.0
C1365 C 0.88116 0.91978 0.52315 0.0
C1366 C 0.89751 0.96009 0.55126 0.0
N1367 N 0.87032 0.92741 0.53942 0.0
C1368 C 0.90069 0.93176 0.52068 0.0
C1369 C 0.90918 0.95246 0.53459 0.0
H1370 H 0.86898 0.95329 0.56593 0.0
H1371 H 0.87444 0.90444 0.51178 0.0
C1372 C 0.80148 0.84463 0.47253 0.0
N1373 N 0.81779 0.85954 0.48471 0.0
C1374 C 0.80222 0.83715 0.44998 0.0
C1375 C 0.83644 0.86025 0.45313 0.0
C1376 C 0.83515 0.86702 0.47546 0.0
C1377 C 0.8197 0.8455 0.43994 0.0
H1378 H 0.78753 0.83941 0.47993 0.0
H1379 H 0.84769 0.87925 0.48529 0.0
O1380 O 0.82539 0.9143 0.56301 0.0
O1381 O 0.79392 0.87395 0.53137 0.0
O1382 O 0.82487 0.90802 0.51365 0.0
O1383 O 0.84124 0.87585 0.53688 0.0
H1384 H 0.78706 0.90699 0.57317 0.0
H1385 H 0.8491 0.94231 0.59602 0.0
H1386 H 0.77567 0.92433 0.60791 0.0
H1387 H 0.83667 0.95934 0.63029 0.0
H1388 H 0.76407 0.80027 0.52292 0.0
H1389 H 0.76133 0.87803 0.55261 0.0
H1390 H 0.79162 0.83103 0.51647 0.0
H1391 H 0.7343 0.84644 0.55846 0.0
H1392 H 0.78268 0.9779 0.55284 0.0
H1393 H 0.73918 0.92321 0.51088 0.0
H1394 H 0.84333 0.84203 0.61122 0.0
H1395 H 0.78384 0.85656 0.61987 0.0
H1396 H 0.7962 0.89614 0.48028 0.0
H1397 H 0.83894 0.95164 0.52117 0.0
H1398 H 0.78421 0.92248 0.46017 0.0
H1399 H 0.8262 0.97704 0.50036 0.0
H1400 H 0.87358 0.86923 0.51607 0.0
H1401 H 0.82005 0.83692 0.54258 0.0
H1402 H 0.88125 0.8324 0.50317 0.0
H1403 H 0.82864 0.80058 0.52924 0.0
H1404 H 0.90304 0.97605 0.56221 0.0
H1405 H 0.90897 0.92471 0.50784 0.0
H1406 H 0.78884 0.82609 0.44029 0.0
H1407 H 0.85011 0.86724 0.44602 0.0
Li1408 Li 0.95448 0.07228 0.29963 0.0
Li1409 Li 0.92342 0.04675 0.27412 0.0
Li1410 Li 0.9532 0.07013 0.25406 0.0
Li1411 Li 0.92639 0.09206 0.27704 0.0
C1412 C 0.97061 0.03873 0.27731 0.0
N1413 N 1.00525 0.0233 0.28588 0.0
C1414 C 0.96983 0.02235 0.28985 0.0
C1415 C 0.98899 0.04733 0.26917 0.0
C1416 C 0.98752 0.01476 0.29401 0.0
C1417 C 0.00633 0.03928 0.27365 0.0
C1418 C 0.90613 0.06381 0.30996 0.0
C1419 C 0.87022 0.06146 0.31415 0.0
N1420 N 0.87075 0.04686 0.32768 0.0
C1421 C 0.90635 0.04887 0.32396 0.0
C1422 C 0.88796 0.07022 0.30502 0.0
C1423 C 0.88829 0.04044 0.33273 0.0
C1424 C 0.96233 0.07087 0.34961 0.0
N1425 N 0.9717 0.07121 0.33058 0.0
C1426 C 1.00253 0.06675 0.35108 0.0
C1427 C 0.99174 0.06924 0.33152 0.0
C1428 C 0.99326 0.06611 0.37099 0.0
C1429 C 0.97257 0.06828 0.3695 0.0
H1430 H 0.94661 0.07253 0.34965 0.0
H1431 H 0.99966 0.06927 0.31692 0.0
C1432 C 0.8902 1.00421 0.25527 0.0
N1433 N 0.90503 0.01448 0.27209 0.0
C1434 C 0.8788 0.98197 0.25382 0.0
C1435 C 0.89785 0.98037 0.28675 0.0
C1436 C 0.90884 1.00263 0.28763 0.0
C1437 C 0.88236 0.9693 0.26967 0.0
H1438 H 0.88725 0.01307 0.24259 0.0
H1439 H 0.92059 0.01037 0.30094 0.0
C1440 C 0.97507 0.11327 0.27681 0.0
N1441 N 0.00804 0.14431 0.26841 0.0
C1442 C 0.97178 0.13039 0.26656 0.0
C1443 C 0.99507 0.11189 0.28283 0.0
C1444 C 0.98867 0.14595 0.26245 0.0
C1445 C 0.01156 0.12776 0.27842 0.0
C1446 C 0.90621 0.06343 0.23474 0.0
C1447 C 0.91046 0.06662 0.21379 0.0
C1448 C 0.88587 0.05813 0.23963 0.0
C1449 C 0.89419 0.06438 0.19798 0.0
C1450 C 0.87003 0.05601 0.22337 0.0
N1451 N 0.87449 0.05916 0.20305 0.0
C1452 C 0.96532 0.04687 0.21037 0.0
C1453 C 0.98053 0.08494 0.21654 0.0
C1454 C 0.97387 0.04332 0.18988 0.0
N1455 N 0.96844 0.06749 0.2237 0.0
C1456 C 0.9894 0.08207 0.19603 0.0
C1457 C 0.98618 0.06094 0.18169 0.0
H1458 H 0.95596 0.03274 0.21551 0.0
H1459 H 0.98333 0.10147 0.22658 0.0
C1460 C 0.91295 0.13717 0.29539 0.0
N1461 N 0.91044 0.12027 0.27734 0.0
C1462 C 0.90313 0.15559 0.29632 0.0
C1463 C 0.88768 0.14019 0.26014 0.0
C1464 C 0.89785 0.122 0.25983 0.0
C1465 C 0.88984 0.1579 0.27864 0.0
H1466 H 0.92279 0.13665 0.3095 0.0
H1467 H 0.89545 0.10918 0.24519 0.0
O1468 O 0.95362 0.04672 0.27336 0.0
O1469 O 0.9235 0.07191 0.30082 0.0
O1470 O 0.95876 0.09771 0.28064 0.0
O1471 O 0.92191 0.06579 0.25046 0.0
H1472 H 0.9558 0.0157 0.29645 0.0
H1473 H 0.9899 0.06021 0.25965 0.0
H1474 H 0.98716 1.00213 0.30375 0.0
H1475 H 0.02067 0.04579 0.26748 0.0
H1476 H 0.85603 0.06623 0.31045 0.0
H1477 H 0.92026 0.04363 0.32782 0.0
H1478 H 0.88756 0.08179 0.2942 0.0
H1479 H 0.88822 0.02875 0.34349 0.0
H1480 H 0.01816 0.0649 0.35022 0.0
H1481 H 0.96415 0.06828 0.38377 0.0
H1482 H 0.8675 0.97468 0.23994 0.0
H1483 H 0.90141 0.97204 0.29968 0.0
H1484 H 0.95634 0.13158 0.26175 0.0
H1485 H 0.99781 0.09867 0.29075 0.0
H1486 H 0.98639 0.15929 0.25449 0.0
H1487 H 0.02714 0.1269 0.28294 0.0
H1488 H 0.92616 0.07083 0.20982 0.0
H1489 H 0.88237 0.05562 0.2558 0.0
H1490 H 0.89724 0.0668 0.18168 0.0
H1491 H 0.8542 0.05187 0.22689 0.0
H1492 H 0.9708 0.02642 0.18064 0.0
H1493 H 0.99848 0.09663 0.19134 0.0
H1494 H 0.9064 0.16814 0.31117 0.0
H1495 H 0.87793 0.14006 0.24573 0.0
Li1496 Li 0.3043 0.67129 0.53899 0.0
Li1497 Li 0.31452 0.64287 0.51447 0.0
Li1498 Li 0.30372 0.67255 0.49982 0.0
Li1499 Li 0.27952 0.6434 0.51207 0.0
C1500 C 0.33989 0.69666 0.52618 0.0
N1501 N 0.3637 0.73963 0.536 0.0
C1502 C 0.36088 0.70051 0.53256 0.0
C1503 C 0.33102 0.71466 0.52477 0.0
C1504 C 0.37265 0.72236 0.5375 0.0
C1505 C 0.34331 0.73626 0.52977 0.0
C1506 C 0.30269 0.62465 0.54782 0.0
C1507 C 0.30447 0.5873 0.55078 0.0
N1508 N 0.31851 0.59569 0.56849 0.0
C1509 C 0.31703 0.63291 0.56615 0.0
C1510 C 0.29622 0.60167 0.54016 0.0
C1511 C 0.32488 0.61799 0.57634 0.0
C1512 C 0.29202 0.67745 0.58016 0.0
N1513 N 0.30621 0.68733 0.56819 0.0
C1514 C 0.31967 0.71686 0.59879 0.0
C1515 C 0.32006 0.7066 0.57708 0.0
C1516 C 0.30495 0.70711 0.6114 0.0
C1517 C 0.291 0.68713 0.6018 0.0
H1518 H 0.28144 0.66191 0.57286 0.0
H1519 H 0.33154 0.71401 0.5676 0.0
C1520 C 0.33108 0.60613 0.49702 0.0
N1521 N 0.33347 0.62473 0.51286 0.0
C1522 C 0.34446 0.59195 0.49761 0.0
C1523 C 0.36261 0.61671 0.53048 0.0
C1524 C 0.34915 0.63057 0.52903 0.0
C1525 C 0.36012 0.59703 0.5148 0.0
H1526 H 0.31861 0.60212 0.48421 0.0
H1527 H 0.35077 0.64569 0.54117 0.0
C1528 C 0.26948 0.68705 0.53002 0.0
N1529 N 0.24339 0.70987 0.55218 0.0
C1530 C 0.25553 0.67655 0.54275 0.0
C1531 C 0.27004 0.70909 0.5284 0.0
C1532 C 0.24251 0.68838 0.55389 0.0
C1533 C 0.25675 0.72036 0.53976 0.0
C1534 C 0.28308 0.62496 0.47212 0.0
C1535 C 0.27554 0.63125 0.45352 0.0
C1536 C 0.2761 0.6032 0.47522 0.0
C1537 C 0.2608 0.61576 0.43854 0.0
C1538 C 0.26135 0.5882 0.45987 0.0
N1539 N 0.25405 0.59474 0.44201 0.0
C1540 C 0.3209 0.69982 0.46968 0.0
C1541 C 0.28492 0.69165 0.47217 0.0
C1542 C 0.31846 0.71144 0.45299 0.0
N1543 N 0.30414 0.69016 0.47868 0.0
C1544 C 0.28176 0.7027 0.45549 0.0
C1545 C 0.29861 0.71251 0.44554 0.0
H1546 H 0.336 0.69826 0.47523 0.0
H1547 H 0.27195 0.68368 0.47963 0.0
C1548 C 0.2426 0.61384 0.51859 0.0
N1549 N 0.25152 0.62898 0.50696 0.0
C1550 C 0.22124 0.60686 0.51694 0.0
C1551 C 0.21895 0.63068 0.49095 0.0
C1552 C 0.24025 0.63715 0.49308 0.0
C1553 C 0.20919 0.6158 0.5034 0.0
H1554 H 0.25199 0.60809 0.52991 0.0
H1555 H 0.24784 0.64947 0.48438 0.0
O1556 O 0.32831 0.6753 0.52112 0.0
O1557 O 0.29511 0.639 0.53737 0.0
O1558 O 0.28237 0.67578 0.51894 0.0
O1559 O 0.29722 0.64002 0.48721 0.0
H1560 H 0.36799 0.68673 0.5337 0.0
H1561 H 0.3148 0.71204 0.52012 0.0
H1562 H 0.3889 0.72558 0.54249 0.0
H1563 H 0.33662 0.75035 0.52879 0.0
H1564 H 0.2997 0.56947 0.54493 0.0
H1565 H 0.32236 0.65065 0.5722 0.0
H1566 H 0.28502 0.59498 0.52613 0.0
H1567 H 0.33611 0.62415 0.59042 0.0
H1568 H 0.33096 0.73207 0.6057 0.0
H1569 H 0.27927 0.67914 0.61083 0.0
H1570 H 0.34225 0.5769 0.4852 0.0
H1571 H 0.37477 0.62124 0.54376 0.0
H1572 H 0.25485 0.65951 0.5442 0.0
H1573 H 0.28054 0.71741 0.51839 0.0
H1574 H 0.23172 0.68049 0.56389 0.0
H1575 H 0.25704 0.73744 0.53868 0.0
H1576 H 0.28099 0.64788 0.45064 0.0
H1577 H 0.28182 0.59804 0.48946 0.0
H1578 H 0.25475 0.62044 0.42413 0.0
H1579 H 0.25569 0.57137 0.46218 0.0
H1580 H 0.33174 0.71891 0.44559 0.0
H1581 H 0.26627 0.70347 0.4503 0.0
H1582 H 0.21422 0.59551 0.52696 0.0
H1583 H 0.21019 0.63772 0.48013 0.0
Li1584 Li 0.42239 0.54686 0.77087 0.0
Li1585 Li 0.45362 0.57157 0.7975 0.0
Li1586 Li 0.42631 0.59243 0.77409 0.0
Li1587 Li 0.45133 0.56909 0.75124 0.0
C1588 C 0.40488 0.56803 0.80732 0.0
N1589 N 0.36861 0.55997 0.82651 0.0
C1590 C 0.40527 0.56833 0.82973 0.0
C1591 C 0.38609 0.5639 0.7947 0.0
C1592 C 0.38675 0.56414 0.83912 0.0
C1593 C 0.36791 0.5598 0.8047 0.0
C1594 C 0.45324 0.52466 0.76777 0.0
C1595 C 0.45528 0.4906 0.74374 0.0
N1596 N 0.45253 0.47972 0.76065 0.0
C1597 C 0.45054 0.51321 0.78494 0.0
C1598 C 0.45568 0.51334 0.74701 0.0
C1599 C 0.45018 0.49047 0.781 0.0
C1600 C 0.40285 0.49899 0.75057 0.0
N1601 N 0.40394 0.51478 0.76912 0.0
C1602 C 0.38489 0.4857 0.78623 0.0
C1603 C 0.39496 0.50826 0.78678 0.0
C1604 C 0.38414 0.46892 0.76751 0.0
C1605 C 0.39324 0.47629 0.74947 0.0
H1606 H 0.41013 0.50378 0.73662 0.0
H1607 H 0.39611 0.52036 0.80177 0.0
C1608 C 0.48956 0.57814 0.83641 0.0
N1609 N 0.4694 0.56876 0.82838 0.0
C1610 C 0.49838 0.57461 0.85668 0.0
C1611 C 0.46613 0.55169 0.86076 0.0
C1612 C 0.45801 0.55543 0.84052 0.0
C1613 C 0.48671 0.56133 0.86977 0.0
H1614 H 0.49915 0.58856 0.82724 0.0
H1615 H 0.4423 0.54727 0.83448 0.0
C1616 C 0.41277 0.56472 0.72681 0.0
N1617 N 0.39893 0.56214 0.68383 0.0
C1618 C 0.41964 0.5825 0.71648 0.0
C1619 C 0.39886 0.54564 0.71535 0.0
C1620 C 0.41246 0.58088 0.69473 0.0
C1621 C 0.39204 0.54465 0.6936 0.0
C1622 C 0.47613 0.61041 0.77367 0.0
C1623 C 0.47514 0.62684 0.76155 0.0
C1624 C 0.49521 0.60747 0.78109 0.0
C1625 C 0.49333 0.64024 0.75718 0.0
C1626 C 0.51307 0.62124 0.77642 0.0
N1627 N 0.51177 0.6372 0.76466 0.0
C1628 C 0.4154 0.63445 0.75952 0.0
C1629 C 0.39635 0.62605 0.78823 0.0
C1630 C 0.40606 0.65279 0.75819 0.0
N1631 N 0.41075 0.62092 0.77436 0.0
C1632 C 0.38646 0.64433 0.7873 0.0
C1633 C 0.39084 0.65843 0.77189 0.0
H1634 H 0.42653 0.63116 0.74826 0.0
H1635 H 0.39213 0.61587 0.80021 0.0
C1636 C 0.45591 0.5512 0.70271 0.0
N1637 N 0.46634 0.56632 0.72061 0.0
C1638 C 0.46398 0.54799 0.68195 0.0
C1639 C 0.49404 0.57569 0.69706 0.0
C1640 C 0.48531 0.57853 0.71767 0.0
C1641 C 0.48362 0.56003 0.67826 0.0
H1642 H 0.44098 0.54124 0.70433 0.0
H1643 H 0.49405 0.59062 0.73136 0.0
O1644 O 0.42277 0.57181 0.79768 0.0
O1645 O 0.4529 0.54672 0.77111 0.0
O1646 O 0.42002 0.56583 0.7479 0.0
O1647 O 0.45852 0.59698 0.77796 0.0
H1648 H 0.41969 0.57195 0.83981 0.0
H1649 H 0.38558 0.56371 0.77733 0.0
H1650 H 0.3868 0.56426 0.85644 0.0
H1651 H 0.35324 0.55646 0.79513 0.0
H1652 H 0.45706 0.48158 0.72773 0.0
H1653 H 0.44841 0.5217 0.80102 0.0
H1654 H 0.4577 0.52197 0.73355 0.0
H1655 H 0.44793 0.48134 0.7941 0.0
H1656 H 0.37848 0.48133 0.80078 0.0
H1657 H 0.39314 0.46451 0.73444 0.0
H1658 H 0.51423 0.58273 0.86223 0.0
H1659 H 0.45606 0.54086 0.86921 0.0
H1660 H 0.43067 0.59722 0.72509 0.0
H1661 H 0.39341 0.53175 0.72316 0.0
H1662 H 0.41771 0.59447 0.68647 0.0
H1663 H 0.3813 0.52997 0.68449 0.0
H1664 H 0.4605 0.62915 0.75551 0.0
H1665 H 0.4962 0.59459 0.79021 0.0
H1666 H 0.4928 0.65302 0.74781 0.0
H1667 H 0.52796 0.61918 0.78208 0.0
H1668 H 0.4112 0.66262 0.74622 0.0
H1669 H 0.37511 0.64706 0.79852 0.0
H1670 H 0.45435 0.53602 0.66878 0.0
H1671 H 0.50914 0.58569 0.69613 0.0
Li1672 Li 0.67958 0.04796 0.77403 0.0
Li1673 Li 0.70693 0.06525 0.75628 0.0
Li1674 Li 0.67725 0.03573 0.73583 0.0
Li1675 Li 0.70096 0.02562 0.76021 0.0
C1676 C 0.6645 0.07867 0.75786 0.0
N1677 N 0.63706 0.10435 0.77147 0.0
C1678 C 0.6715 0.1015 0.76617 0.0
C1679 C 0.64354 0.06892 0.75635 0.0
C1680 C 0.65739 0.1142 0.77299 0.0
C1681 C 0.62992 0.08218 0.76337 0.0
C1682 C 0.70986 0.05858 0.80522 0.0
C1683 C 0.70555 0.04773 0.84005 0.0
N1684 N 0.71055 0.06955 0.85018 0.0
C1685 C 0.71497 0.08091 0.816 0.0
C1686 C 0.70515 0.04186 0.81736 0.0
C1687 C 0.71523 0.08611 0.83873 0.0
C1688 C 0.6488 0.0367 0.80065 0.0
N1689 N 0.6633 0.05404 0.79703 0.0
C1690 C 0.65209 0.07942 0.82441 0.0
C1691 C 0.66537 0.07506 0.8087 0.0
C1692 C 0.63662 0.06191 0.82805 0.0
C1693 C 0.63517 0.04028 0.81617 0.0
H1694 H 0.6477 0.02015 0.79131 0.0
H1695 H 0.67703 0.08855 0.80548 0.0
C1696 C 0.71736 0.10246 0.7386 0.0
N1697 N 0.72383 0.09284 0.75462 0.0
C1698 C 0.72483 0.12509 0.7393 0.0
C1699 C 0.7467 0.12698 0.77203 0.0
C1700 C 0.73883 0.10425 0.77064 0.0
C1701 C 0.73902 0.1378 0.75672 0.0
H1702 H 0.70528 0.09289 0.72619 0.0
H1703 H 0.74375 0.09605 0.78307 0.0
C1704 C 0.66361 0.9957 0.74589 0.0
N1705 N 0.64914 0.95296 0.72176 0.0
C1706 C 0.6747 0.98706 0.72941 0.0
C1707 C 0.64507 0.98261 0.74992 0.0
C1708 C 0.66717 0.9654 0.71748 0.0
C1709 C 0.63803 0.96106 0.73757 0.0
C1710 C 0.72618 0.03702 0.72706 0.0
C1711 C 0.72813 0.02374 0.70711 0.0
C1712 C 0.74376 0.04934 0.74047 0.0
C1713 C 0.74772 0.02295 0.7009 0.0
C1714 C 0.76307 0.04816 0.73365 0.0
N1715 N 0.76463 0.03509 0.71418 0.0
C1716 C 0.63974 0.0202 0.70981 0.0
C1717 C 0.66907 0.03091 0.69124 0.0
C1718 C 0.62679 0.01735 0.69081 0.0
N1719 N 0.66033 0.02752 0.70973 0.0
C1720 C 0.65677 0.02797 0.67184 0.0
C1721 C 0.63531 0.02194 0.67171 0.0
H1722 H 0.63332 0.01747 0.72483 0.0
H1723 H 0.68553 0.03672 0.69182 0.0
C1724 C 0.70092 0.98839 0.77744 0.0
N1725 N 0.71263 1.00211 0.76616 0.0
C1726 C 0.7079 0.97095 0.78374 0.0
C1727 C 0.73898 0.9819 0.76669 0.0
C1728 C 0.73133 0.99915 0.76063 0.0
C1729 C 0.72721 0.96765 0.77848 0.0
H1730 H 0.68628 0.99132 0.78203 0.0
H1731 H 0.74048 0.01017 0.75181 0.0
O1732 O 0.67812 0.06593 0.75136 0.0
O1733 O 0.70959 0.05311 0.78295 0.0
O1734 O 0.67018 0.01715 0.75743 0.0
O1735 O 0.7071 0.03822 0.73311 0.0
H1736 H 0.68768 0.10929 0.76773 0.0
H1737 H 0.6379 0.05125 0.75028 0.0
H1738 H 0.66261 0.13185 0.77959 0.0
H1739 H 0.61367 0.07482 0.76248 0.0
H1740 H 0.70187 0.03493 0.8496 0.0
H1741 H 0.71818 0.09414 0.80694 0.0
H1742 H 0.70108 0.02455 0.80938 0.0
H1743 H 0.71901 0.10332 0.84724 0.0
H1744 H 0.65358 0.09634 0.83321 0.0
H1745 H 0.62363 0.02629 0.81885 0.0
H1746 H 0.71883 0.13275 0.72696 0.0
H1747 H 0.75764 0.13619 0.78572 0.0
H1748 H 0.68892 0.99691 0.72579 0.0
H1749 H 0.63606 0.98909 0.7623 0.0
H1750 H 0.67563 0.9585 0.70474 0.0
H1751 H 0.62368 0.95081 0.74051 0.0
H1752 H 0.71465 0.01413 0.69654 0.0
H1753 H 0.74255 0.05926 0.75619 0.0
H1754 H 0.74947 0.01271 0.68551 0.0
H1755 H 0.77682 0.05751 0.74392 0.0
H1756 H 0.61033 0.0128 0.69139 0.0
H1757 H 0.66393 0.03124 0.6573 0.0
H1758 H 0.69854 0.96059 0.7932 0.0
H1759 H 0.75395 0.97979 0.76227 0.0
Li1760 Li 0.80201 0.71347 0.03283 0.0
Li1761 Li 0.81593 0.68444 0.01118 0.0
Li1762 Li 0.80066 0.70954 0.99243 0.0
Li1763 Li 0.77777 0.68065 0.00841 0.0
C1764 C 0.83814 0.73752 0.02264 0.0
N1765 N 0.86336 0.77871 0.04024 0.0
C1766 C 0.85745 0.73901 0.03326 0.0
C1767 C 0.83165 0.75694 0.02099 0.0
C1768 C 0.86998 0.76 0.04205 0.0
C1769 C 0.84462 0.77762 0.02997 0.0
C1770 C 0.80566 0.67768 0.05275 0.0
C1771 C 0.80366 0.65969 0.08369 0.0
N1772 N 0.82305 0.67131 0.09144 0.0
C1773 C 0.82558 0.6894 0.06094 0.0
C1774 C 0.7946 0.66267 0.06413 0.0
C1775 C 0.83409 0.68597 0.08056 0.0
C1776 C 0.78526 0.72261 0.07168 0.0
N1777 N 0.80264 0.73021 0.0625 0.0
C1778 C 0.81837 0.75185 0.09747 0.0
C1779 C 0.81897 0.74495 0.07484 0.0
C1780 C 0.801 0.74315 0.10745 0.0
C1781 C 0.78414 0.72876 0.09414 0.0
H1782 H 0.77262 0.71065 0.06168 0.0
H1783 H 0.83287 0.75044 0.06755 0.0
C1784 C 0.85619 0.67755 0.00645 0.0
N1785 N 0.83722 0.66826 0.0115 0.0
C1786 C 0.87234 0.66677 0.00794 0.0
C1787 C 0.84901 0.63681 0.0193 0.0
C1788 C 0.83339 0.64825 0.01779 0.0
C1789 C 0.86886 0.64612 0.01449 0.0
H1790 H 0.85885 0.69347 1.00148 0.0
H1791 H 0.81827 0.64132 0.02201 0.0
C1792 C 0.76648 0.72464 1.00308 0.0
N1793 N 0.74273 0.74844 0.98417 0.0
C1794 C 0.75062 0.71358 0.98685 0.0
C1795 C 0.77014 0.74773 0.00993 0.0
C1796 C 0.73883 0.72593 0.9774 0.0
C1797 C 0.75798 0.75948 1.00012 0.0
C1798 C 0.79432 0.65472 0.97431 0.0
C1799 C 0.79976 0.64982 0.95302 0.0
C1800 C 0.78764 0.63749 0.98539 0.0
C1801 C 0.79842 0.62762 0.94313 0.0
C1802 C 0.78652 0.61552 0.97494 0.0
N1803 N 0.79188 0.61108 0.9542 0.0
C1804 C 0.81773 0.73875 0.96287 0.0
C1805 C 0.78631 0.71288 0.95005 0.0
C1806 C 0.81851 0.74573 0.94274 0.0
N1807 N 0.80174 0.72258 0.96621 0.0
C1808 C 0.78643 0.71939 0.9298 0.0
C1809 C 0.80282 0.73584 0.92567 0.0
H1810 H 0.83027 0.74578 0.9755 0.0
H1811 H 0.77407 0.69958 0.95268 0.0
C1812 C 0.7438 0.6624 0.02803 0.0
N1813 N 0.75083 0.66184 0.00801 0.0
C1814 C 0.72415 0.65048 0.03026 0.0
C1815 C 0.7191 0.63731 0.99116 0.0
C1816 C 0.739 0.64951 0.98968 0.0
C1817 C 0.7113 0.63788 0.01169 0.0
H1818 H 0.75345 0.67238 0.04233 0.0
H1819 H 0.74485 0.64944 0.97389 0.0
O1820 O 0.82561 0.71713 0.01404 0.0
O1821 O 0.79688 0.68111 0.03381 0.0
O1822 O 0.77828 0.71289 0.01237 0.0
O1823 O 0.79564 0.67635 0.98423 0.0
H1824 H 0.86268 0.72413 0.03481 0.0
H1825 H 0.81676 0.75603 0.01281 0.0
H1826 H 0.88494 0.76143 0.05035 0.0
H1827 H 0.8398 0.7928 0.0288 0.0
H1828 H 0.79528 0.64814 0.09272 0.0
H1829 H 0.83431 0.7011 0.05231 0.0
H1830 H 0.77918 0.65344 0.05794 0.0
H1831 H 0.84947 0.69498 0.08715 0.0
H1832 H 0.83181 0.7627 0.10723 0.0
H1833 H 0.77051 0.72157 0.1012 0.0
H1834 H 0.88734 0.67445 1.00388 0.0
H1835 H 0.84568 0.62109 0.02471 0.0
H1836 H 0.7476 0.69569 0.98144 0.0
H1837 H 0.78218 0.75645 0.02273 0.0
H1838 H 0.7266 0.71762 0.96469 0.0
H1839 H 0.76065 0.77738 1.0052 0.0
H1840 H 0.80498 0.66303 0.94426 0.0
H1841 H 0.78349 0.64103 1.00194 0.0
H1842 H 0.80257 0.62355 0.92665 0.0
H1843 H 0.78141 0.602 0.98334 0.0
H1844 H 0.83168 0.75817 0.94036 0.0
H1845 H 0.7738 0.71138 0.91742 0.0
H1846 H 0.7191 0.65118 0.04648 0.0
H1847 H 0.70977 0.62803 0.97634 0.0
Li1848 Li 0.91478 0.53189 0.79106 0.0
Li1849 Li 0.94083 0.55909 0.81311 0.0
Li1850 Li 0.91585 0.57019 0.79039 0.0
Li1851 Li 0.94346 0.55146 0.77443 0.0
C1852 C 0.89397 0.54808 0.82528 0.0
N1853 N 0.85925 0.53326 0.84516 0.0
C1854 C 0.8954 0.53801 0.84332 0.0
C1855 C 0.87488 0.55077 0.81749 0.0
C1856 C 0.87767 0.53056 0.85308 0.0
C1857 C 0.85751 0.54314 0.82774 0.0
C1858 C 0.95222 0.51897 0.80626 0.0
C1859 C 0.97986 0.50188 0.81471 0.0
N1860 N 0.96942 0.49378 0.83065 0.0
C1861 C 0.94171 0.51041 0.82262 0.0
C1862 C 0.97139 0.51461 0.80216 0.0
C1863 C 0.95068 0.49774 0.8348 0.0
C1864 C 0.90899 0.48742 0.7761 0.0
N1865 N 0.89916 0.50198 0.78752 0.0
C1866 C 0.87357 0.47188 0.79465 0.0
C1867 C 0.88137 0.49468 0.79616 0.0
C1868 C 0.88416 0.4566 0.78399 0.0
C1869 C 0.90171 0.46462 0.77405 0.0
H1870 H 0.9229 0.49359 0.76903 0.0
H1871 H 0.87344 0.50634 0.80471 0.0
C1872 C 0.95032 0.57066 0.8589 0.0
N1873 N 0.95803 0.56614 0.8394 0.0
C1874 C 0.96262 0.57298 0.87826 0.0
C1875 C 0.99077 0.56708 0.85697 0.0
C1876 C 0.97791 0.5648 0.83807 0.0
C1877 C 0.98302 0.57078 0.87736 0.0
H1878 H 0.93449 0.57186 0.85939 0.0
H1879 H 0.98361 0.56138 0.82226 0.0
C1880 C 0.89791 0.53044 0.75177 0.0
N1881 N 0.86603 0.49906 0.72651 0.0
C1882 C 0.90204 0.51338 0.73611 0.0
C1883 C 0.87761 0.53177 0.75437 0.0
C1884 C 0.8857 0.4976 0.72357 0.0
C1885 C 0.86169 0.51569 0.74149 0.0
C1886 C 0.95911 0.5985 0.80764 0.0
C1887 C 0.95087 0.61211 0.82336 0.0
C1888 C 0.98036 0.60239 0.80687 0.0
C1889 C 0.9641 0.62939 0.83819 0.0
C1890 C 0.99308 0.61983 0.82201 0.0
N1891 N 0.98475 0.63285 0.83722 0.0
C1892 C 0.89153 0.60247 0.80024 0.0
C1893 C 0.90387 0.59687 0.76524 0.0
C1894 C 0.88162 0.61842 0.79466 0.0
N1895 N 0.90208 0.59194 0.78538 0.0
C1896 C 0.89451 0.61286 0.7591 0.0
C1897 C 0.88313 0.62372 0.77386 0.0
H1898 H 0.89078 0.59848 0.81632 0.0
H1899 H 0.91258 0.58826 0.75394 0.0
C1900 C 0.96342 0.52875 0.74346 0.0
N1901 N 0.96122 0.54932 0.75285 0.0
C1902 C 0.97692 0.52645 0.7275 0.0
C1903 C 0.98578 0.56662 0.73158 0.0
C1904 C 0.97196 0.56811 0.74732 0.0
C1905 C 0.9883 0.54557 0.72147 0.0
H1906 H 0.95473 0.51419 0.74849 0.0
H1907 H 0.9698 0.58421 0.75519 0.0
O1908 O 0.91124 0.55589 0.81579 0.0
O1909 O 0.94386 0.53166 0.79432 0.0
O1910 O 0.91365 0.5457 0.76462 0.0
O1911 O 0.94641 0.58116 0.79338 0.0
H1912 H 0.91003 0.53598 0.84976 0.0
H1913 H 0.87342 0.55851 0.80361 0.0
H1914 H 0.87856 0.52268 0.867 0.0
H1915 H 0.84264 0.54504 0.82181 0.0
H1916 H 0.99474 0.49845 0.8118 0.0
H1917 H 0.92681 0.51351 0.82584 0.0
H1918 H 0.97969 0.52116 0.78952 0.0
H1919 H 0.94274 0.49104 0.84756 0.0
H1920 H 0.8599 0.46634 0.80245 0.0
H1921 H 0.91 0.45339 0.76511 0.0
H1922 H 0.956 0.57566 0.89367 0.0
H1923 H 0.0065 0.56565 0.85562 0.0
H1924 H 0.91768 0.51218 0.73385 0.0
H1925 H 0.87419 0.54507 0.76618 0.0
H1926 H 0.88865 0.48418 0.71152 0.0
H1927 H 0.84589 0.51645 0.7434 0.0
H1928 H 0.93445 0.60919 0.82424 0.0
H1929 H 0.98698 0.59186 0.79492 0.0
H1930 H 0.95796 0.64001 0.85051 0.0
H1931 H 0.00956 0.62296 0.82171 0.0
H1932 H 0.87306 0.62666 0.80646 0.0
H1933 H 0.89584 0.61641 0.74286 0.0
H1934 H 0.97866 0.50998 0.72019 0.0
H1935 H 0.99419 0.5817 0.72717 0.0
Li1936 Li 0.82268 0.42773 0.53791 0.0
Li1937 Li 0.80892 0.45578 0.52369 0.0
Li1938 Li 0.81934 0.42553 0.49903 0.0
Li1939 Li 0.84382 0.45504 0.52245 0.0
C1940 C 0.77971 0.41856 0.52934 0.0
N1941 N 0.74514 0.41058 0.55142 0.0
C1942 C 0.77956 0.4306 0.55048 0.0
C1943 C 0.76228 0.40249 0.51944 0.0
C1944 C 0.76193 0.42632 0.56136 0.0
C1945 C 0.74496 0.39869 0.53088 0.0
C1946 C 0.84369 0.47723 0.56177 0.0
C1947 C 0.86438 0.51474 0.56794 0.0
N1948 N 0.87367 0.51144 0.58656 0.0
C1949 C 0.85322 0.47433 0.58114 0.0
C1950 C 0.84911 0.4977 0.55527 0.0
C1951 C 0.86842 0.49178 0.59338 0.0
C1952 C 0.84239 0.41286 0.56909 0.0
N1953 N 0.82345 0.40993 0.5586 0.0
C1954 C 0.81034 0.37909 0.57496 0.0
C1955 C 0.80752 0.39335 0.56103 0.0
C1956 C 0.82978 0.38185 0.58607 0.0
C1957 C 0.84593 0.399 0.58309 0.0
H1958 H 0.85493 0.42551 0.56593 0.0
H1959 H 0.79287 0.39063 0.5517 0.0
C1960 C 0.77152 0.4658 0.51392 0.0
N1961 N 0.78931 0.47282 0.52725 0.0
C1962 C 0.75568 0.47684 0.51745 0.0
C1963 C 0.77716 0.50243 0.54793 0.0
C1964 C 0.79245 0.49072 0.54398 0.0
C1965 C 0.75844 0.49529 0.53473 0.0
H1966 H 0.76951 0.4513 0.50092 0.0
H1967 H 0.80661 0.49556 0.55457 0.0
C1968 C 0.84511 0.40174 0.5141 0.0
N1969 N 0.84955 0.3583 0.50751 0.0
C1970 C 0.86465 0.39728 0.5137 0.0
C1971 C 0.8278 0.38411 0.51111 0.0
C1972 C 0.86658 0.3752 0.51035 0.0
C1973 C 0.83037 0.36226 0.50781 0.0
C1974 C 0.83247 0.47391 0.4877 0.0
C1975 C 0.84377 0.46948 0.46995 0.0
C1976 C 0.82894 0.49521 0.49421 0.0
C1977 C 0.85176 0.48664 0.45925 0.0
C1978 C 0.8372 0.51193 0.4831 0.0
N1979 N 0.84836 0.50734 0.46602 0.0
C1980 C 0.79765 0.39231 0.46307 0.0
C1981 C 0.83359 0.40535 0.46278 0.0
C1982 C 0.79688 0.37695 0.44363 0.0
N1983 N 0.81584 0.40608 0.47204 0.0
C1984 C 0.83355 0.39034 0.4435 0.0
C1985 C 0.81503 0.37596 0.43365 0.0
H1986 H 0.78388 0.39311 0.47112 0.0
H1987 H 0.84786 0.41618 0.47073 0.0
C1988 C 0.88359 0.46032 0.53683 0.0
N1989 N 0.87191 0.46998 0.52488 0.0
C1990 C 0.90486 0.46657 0.53823 0.0
C1991 C 0.90186 0.49346 0.51575 0.0
C1992 C 0.88053 0.48682 0.515 0.0
C1993 C 0.91426 0.48279 0.52699 0.0
H1994 H 0.87632 0.44721 0.54478 0.0
H1995 H 0.87104 0.49475 0.5061 0.0
O1996 O 0.7967 0.42249 0.51819 0.0
O1997 O 0.82899 0.46021 0.54936 0.0
O1998 O 0.84308 0.42333 0.51741 0.0
O1999 O 0.82431 0.45729 0.49818 0.0
H2000 H 0.79288 0.44305 0.55847 0.0
H2001 H 0.76215 0.39303 0.5031 0.0
H2002 H 0.7616 0.43549 0.57772 0.0
H2003 H 0.73136 0.38628 0.52342 0.0
H2004 H 0.86887 0.53057 0.56294 0.0
H2005 H 0.84884 0.45888 0.5868 0.0
H2006 H 0.84184 0.50027 0.54041 0.0
H2007 H 0.876 0.48972 0.60834 0.0
H2008 H 0.79754 0.36597 0.57687 0.0
H2009 H 0.86124 0.40125 0.59098 0.0
H2010 H 0.74144 0.47099 0.50691 0.0
H2011 H 0.77966 0.51644 0.56157 0.0
H2012 H 0.87819 0.41075 0.51594 0.0
H2013 H 0.81254 0.3872 0.51134 0.0
H2014 H 0.88162 0.3715 0.51001 0.0
H2015 H 0.81712 0.34846 0.50549 0.0
H2016 H 0.84647 0.45304 0.46458 0.0
H2017 H 0.8199 0.49881 0.50766 0.0
H2018 H 0.86067 0.48351 0.44558 0.0
H2019 H 0.8347 0.52854 0.48804 0.0
H2020 H 0.7823 0.36617 0.4364 0.0
H2021 H 0.84793 0.38979 0.43654 0.0
H2022 H 0.91382 0.45838 0.54762 0.0
H2023 H 0.90851 0.50614 0.50691 0.0
Li2024 Li 0.67018 0.51642 0.29159 0.0
Li2025 Li 0.69856 0.53907 0.27325 0.0
Li2026 Li 0.66807 0.5137 0.24595 0.0
Li2027 Li 0.69776 0.49452 0.26856 0.0
C2028 C 0.65576 0.55071 0.28229 0.0
N2029 N 0.62957 0.57298 0.30491 0.0
C2030 C 0.66351 0.56789 0.3003 0.0
C2031 C 0.63469 0.54467 0.27592 0.0
C2032 C 0.65003 0.57901 0.31149 0.0
C2033 C 0.6217 0.55619 0.28752 0.0
C2034 C 0.71869 0.53248 0.30878 0.0
C2035 C 0.75524 0.54081 0.31838 0.0
N2036 N 0.75377 0.5593 0.33291 0.0
C2037 C 0.71751 0.55154 0.32378 0.0
C2038 C 0.73767 0.52705 0.30599 0.0
C2039 C 0.73543 0.5649 0.33583 0.0
C2040 C 0.66384 0.52412 0.34175 0.0
N2041 N 0.65351 0.51803 0.32113 0.0
C2042 C 0.62158 0.51544 0.33917 0.0
C2043 C 0.63247 0.51382 0.32003 0.0
C2044 C 0.63174 0.52151 0.36077 0.0
C2045 C 0.65348 0.52597 0.36134 0.0
H2046 H 0.68043 0.52762 0.34333 0.0
H2047 H 0.62378 0.50924 0.30415 0.0
C2048 C 0.73777 0.57681 0.27884 0.0
N2049 N 0.71682 0.57146 0.27524 0.0
C2050 C 0.74937 0.59884 0.27966 0.0
C2051 C 0.71813 0.61024 0.27299 0.0
C2052 C 0.70714 0.58796 0.27208 0.0
C2053 C 0.7398 0.61647 0.27693 0.0
H2054 H 0.74575 0.56394 0.2809 0.0
H2055 H 0.69062 0.58396 0.26876 0.0
C2056 C 0.64877 0.47118 0.2639 0.0
N2057 N 0.61545 0.43577 0.26056 0.0
C2058 C 0.65177 0.44972 0.26335 0.0
C2059 C 0.62887 0.47467 0.26272 0.0
C2060 C 0.63471 0.43202 0.26163 0.0
C2061 C 0.61221 0.45655 0.26109 0.0
C2062 C 0.7153 0.5267 0.23647 0.0
C2063 C 0.71178 0.54187 0.22372 0.0
C2064 C 0.73521 0.52402 0.2407 0.0
C2065 C 0.72836 0.55421 0.21537 0.0
C2066 C 0.75138 0.53666 0.23203 0.0
N2067 N 0.74765 0.55138 0.21967 0.0
C2068 C 0.63796 0.52735 0.21243 0.0
C2069 C 0.65695 0.50303 0.19532 0.0
C2070 C 0.62899 0.52924 0.19158 0.0
N2071 N 0.65191 0.51437 0.21442 0.0
C2072 C 0.64849 0.50461 0.17427 0.0
C2073 C 0.63427 0.5181 0.17156 0.0
H2074 H 0.63393 0.537 0.22702 0.0
H2075 H 0.66804 0.49287 0.19617 0.0
C2076 C 0.7212 0.46021 0.2858 0.0
N2077 N 0.71402 0.46638 0.26729 0.0
C2078 C 0.73154 0.44209 0.28506 0.0
C2079 C 0.72766 0.43611 0.24631 0.0
C2080 C 0.71742 0.45426 0.24773 0.0
C2081 C 0.73514 0.42905 0.26506 0.0
H2082 H 0.71895 0.4693 0.3016 0.0
H2083 H 0.7122 0.45854 0.23273 0.0
O2084 O 0.66862 0.53908 0.27169 0.0
O2085 O 0.70143 0.51952 0.29642 0.0
O2086 O 0.66525 0.48864 0.26528 0.0
O2087 O 0.69942 0.51517 0.24552 0.0
H2088 H 0.67976 0.57253 0.30565 0.0
H2089 H 0.62837 0.53099 0.26242 0.0
H2090 H 0.65581 0.59237 0.32545 0.0
H2091 H 0.60534 0.55167 0.28279 0.0
H2092 H 0.77006 0.53685 0.31638 0.0
H2093 H 0.70294 0.55605 0.32598 0.0
H2094 H 0.73883 0.51244 0.29428 0.0
H2095 H 0.73477 0.57974 0.34747 0.0
H2096 H 0.60503 0.51216 0.33673 0.0
H2097 H 0.66271 0.5306 0.37693 0.0
H2098 H 0.76589 0.60174 0.28214 0.0
H2099 H 0.70943 0.62249 0.27084 0.0
H2100 H 0.66712 0.44678 0.26415 0.0
H2101 H 0.62633 0.49119 0.26303 0.0
H2102 H 0.63678 0.41529 0.26113 0.0
H2103 H 0.5967 0.45899 0.26019 0.0
H2104 H 0.69644 0.54425 0.22052 0.0
H2105 H 0.73814 0.51245 0.25073 0.0
H2106 H 0.72591 0.56611 0.20554 0.0
H2107 H 0.7669 0.53485 0.23522 0.0
H2108 H 0.61845 0.5401 0.19127 0.0
H2109 H 0.6533 0.49508 0.16005 0.0
H2110 H 0.73647 0.43828 0.3004 0.0
H2111 H 0.7298 0.42789 0.23013 0.0
Eu2112 Eu 0.04004 0.02911 0.01081 0.0
C2113 C 0.09377 0.10888 0.07335 0.0
C2114 C 0.0956 0.13867 0.05311 0.0
C2115 C 0.09794 0.14716 0.09277 0.0
C2116 C 0.09291 0.1158 0.05346 0.0
C2117 C 0.09703 0.12467 0.09317 0.0
C2118 C 0.09725 0.15415 0.07278 0.0
C2119 C 0.10128 0.09549 0.11227 0.0
N2120 N 0.09329 0.08709 0.0733 0.0
C2121 C 0.09807 0.08045 0.09227 0.0
C2122 C 0.10031 0.11759 0.11277 0.0
Eu2123 Eu 0.08667 0.06308 0.03848 0.0
N2124 N 0.09168 0.10056 0.03462 0.0
C2125 C 0.09585 0.10739 0.01549 0.0
C2126 C 0.09778 0.14549 0.0331 0.0
C2127 C 0.09848 0.12985 0.01433 0.0
H2128 H 0.09907 0.06347 0.09208 0.0
H2129 H 0.10095 0.13506 0.99893 0.0
H2130 H 0.09895 0.17172 0.07276 0.0
H2131 H 0.10453 0.09004 0.12727 0.0
H2132 H 0.09651 0.0956 1.00082 0.0
H2133 H 0.02242 0.96359 0.05854 0.0
H2134 H 0.09988 0.1629 0.03216 0.0
H2135 H 0.03171 0.02326 0.95642 0.0
H2136 H 0.02926 1.00173 0.05223 0.0
H2137 H 0.02607 0.99366 0.92325 0.0
H2138 H 0.10012 0.15945 0.10784 0.0
H2139 H 0.02142 0.93205 0.02798 0.0
H2140 H 0.02227 0.91845 0.98778 0.0
H2141 H 0.10293 0.12924 0.1283 0.0
H2142 H 0.0233 0.92665 0.95081 0.0
N2143 N 0.03295 0.99252 0.01834 0.0
C2144 C 0.02887 0.98838 0.03857 0.0
C2145 C 0.02448 0.94889 0.02505 0.0
C2146 C 0.02713 0.95304 1.00405 0.0
C2147 C 0.02496 0.96663 0.04231 0.0
C2148 C 0.03114 0.97531 1.00115 0.0
H2149 H 0.02421 0.95458 0.92655 0.0
N2150 N 0.0337 1.00129 0.97828 0.0
C2151 C 0.02773 0.98953 0.93922 0.0
C2152 C 0.03167 0.97987 0.98043 0.0
C2153 C 0.03086 1.00623 0.95804 0.0
C2154 C 0.02679 0.96753 0.94115 0.0
C2155 C 0.0283 0.96238 0.96194 0.0
O2156 O 0.01255 0.03242 0.99253 0.0
O2157 O 0.05673 0.06509 0.02202 0.0
O2158 O 0.06376 0.066 0.06471 0.0
O2159 O 0.03503 0.03901 0.04836 0.0
O2160 O 0.04278 0.05594 0.99049 0.0
O2161 O 0.01136 0.02809 0.02595 0.0
O2162 O 0.11156 0.04542 0.03432 0.0
O2163 O 0.06991 0.02717 0.02745 0.0
O2164 O 0.06456 0.02606 0.9854 0.0
O2165 O 0.09018 0.05693 1.00101 0.0
O2166 O 0.08348 0.03669 0.05933 0.0
O2167 O 0.11865 0.08128 0.0422 0.0
C2168 C 0.05294 0.07258 1.00492 0.0
C2169 C 0.98077 0.01488 1.00264 0.0
C2170 C 0.94387 0.00962 1.00343 0.0
C2171 C 0.96373 0.02295 0.00921 0.0
C2172 C 0.94118 0.98796 0.99103 0.0
C2173 C 0.97804 0.99311 0.99054 0.0
C2174 C 0.95826 0.97971 0.98478 0.0
C2175 C 0.045 0.05404 0.06583 0.0
C2176 C 1.00107 0.02981 0.00836 0.0
C2177 C 0.02565 0.94029 0.96479 0.0
C2178 C 0.02506 0.93563 0.98584 0.0
C2179 C 0.07329 0.01991 0.04487 0.0
C2180 C 0.14222 0.06317 0.05653 0.0
C2181 C 0.15436 0.04766 0.05174 0.0
C2182 C 0.17 0.04666 0.06712 0.0
C2183 C 0.17319 0.06127 0.08759 0.0
C2184 C 0.14596 0.07807 0.07682 0.0
C2185 C 0.16126 0.07693 0.09233 0.0
C2186 C 0.08209 0.04048 0.98399 0.0
C2187 C 0.12592 0.06349 0.04001 0.0
H2188 H 0.96592 0.03988 0.01838 0.0
H2189 H 0.92594 0.97745 0.98629 0.0
H2190 H 0.99109 0.9866 0.98542 0.0
H2191 H 0.95614 0.96297 0.97533 0.0
H2192 H 0.15186 0.0367 0.03578 0.0
H2193 H 0.18493 0.06064 0.09993 0.0
H2194 H 0.13723 0.09067 0.08068 0.0
H2195 H 0.16396 0.08829 0.10801 0.0
Eu2196 Eu 0.32049 0.7798 0.25311 0.0
C2197 C 0.31982 0.86262 0.31691 0.0
C2198 C 0.34172 0.8683 0.35057 0.0
C2199 C 0.33925 0.89989 0.33406 0.0
C2200 C 0.32822 0.85403 0.33315 0.0
C2201 C 0.32457 0.88584 0.31779 0.0
C2202 C 0.34786 0.89112 0.35042 0.0
C2203 C 0.29824 0.88001 0.28816 0.0
N2204 N 0.30572 0.84855 0.30134 0.0
C2205 C 0.29423 0.85712 0.28775 0.0
C2206 C 0.31382 0.89439 0.30288 0.0
Eu2207 Eu 0.30076 0.80967 0.30155 0.0
N2208 N 0.32151 0.83208 0.33317 0.0
C2209 C 0.32555 0.82396 0.35145 0.0
C2210 C 0.34772 0.85944 0.36821 0.0
C2211 C 0.33919 0.83727 0.36889 0.0
H2212 H 0.28198 0.84669 0.27633 0.0
H2213 H 0.343 0.83046 0.38288 0.0
H2214 H 0.35849 0.90227 0.36343 0.0
H2215 H 0.28938 0.8865 0.27695 0.0
H2216 H 0.3187 0.80687 0.35212 0.0
H2217 H 0.28261 0.76549 0.17061 0.0
H2218 H 0.35809 0.86984 0.38186 0.0
H2219 H 0.33762 0.74152 0.27867 0.0
H2220 H 0.30153 0.78769 0.20536 0.0
H2221 H 0.33379 0.70158 0.2732 0.0
H2222 H 0.34342 0.91768 0.33465 0.0
H2223 H 0.27396 0.72434 0.16468 0.0
H2224 H 0.27696 0.68977 0.17811 0.0
H2225 H 0.31699 0.91211 0.30303 0.0
H2226 H 0.29119 0.6725 0.20585 0.0
N2227 N 0.30303 0.7594 0.21916 0.0
C2228 C 0.29785 0.76972 0.20288 0.0
C2229 C 0.28222 0.73402 0.17996 0.0
C2230 C 0.28869 0.72356 0.19615 0.0
C2231 C 0.28713 0.75722 0.1832 0.0
C2232 C 0.2994 0.73691 0.21579 0.0
H2233 H 0.31265 0.67676 0.24096 0.0
N2234 N 0.31833 0.74069 0.24983 0.0
C2235 C 0.32623 0.70856 0.26133 0.0
C2236 C 0.30743 0.72727 0.23145 0.0
C2237 C 0.3283 0.73158 0.26433 0.0
C2238 C 0.31429 0.69461 0.24315 0.0
C2239 C 0.30495 0.70388 0.22777 0.0
O2240 O 0.35405 0.78866 0.25802 0.0
O2241 O 0.32151 0.81212 0.27522 0.0
O2242 O 0.28078 0.80936 0.2702 0.0
O2243 O 0.28697 0.78049 0.2439 0.0
O2244 O 0.3198 0.81212 0.24209 0.0
O2245 O 0.33877 0.78244 0.22552 0.0
O2246 O 0.26718 0.80057 0.29877 0.0
O2247 O 0.29976 0.77749 0.27944 0.0
O2248 O 0.34051 0.77869 0.28357 0.0
O2249 O 0.33112 0.80198 0.31316 0.0
O2250 O 0.29872 0.77671 0.31241 0.0
O2251 O 0.28396 0.81506 0.33025 0.0
C2252 C 0.32188 0.82434 0.26137 0.0
C2253 C 0.36809 0.81237 0.23471 0.0
C2254 C 0.37224 0.84385 0.21608 0.0
C2255 C 0.36099 0.82318 0.21908 0.0
C2256 C 0.39058 0.85404 0.2295 0.0
C2257 C 0.38646 0.82279 0.2479 0.0
C2258 C 0.39754 0.84358 0.24536 0.0
C2259 C 0.27591 0.79516 0.25107 0.0
C2260 C 0.35596 0.79076 0.23789 0.0
C2261 C 0.2935 0.69047 0.20873 0.0
C2262 C 0.28535 0.70029 0.19296 0.0
C2263 C 0.29812 0.76494 0.29308 0.0
C2264 C 0.2533 0.78783 0.32905 0.0
C2265 C 0.26209 0.77583 0.34238 0.0
C2266 C 0.24967 0.75885 0.35072 0.0
C2267 C 0.22825 0.75415 0.34569 0.0
C2268 C 0.23197 0.78279 0.32408 0.0
C2269 C 0.21952 0.76604 0.33242 0.0
C2270 C 0.3432 0.78922 0.30433 0.0
C2271 C 0.26616 0.80523 0.31973 0.0
H2272 H 0.3465 0.81557 0.20933 0.0
H2273 H 0.3998 0.86982 0.22745 0.0
H2274 H 0.39215 0.81493 0.26025 0.0
H2275 H 0.41169 0.85153 0.25559 0.0
H2276 H 0.27859 0.77953 0.3461 0.0
H2277 H 0.2182 0.74152 0.35226 0.0
H2278 H 0.22496 0.7918 0.31372 0.0
H2279 H 0.20303 0.76229 0.32864 0.0
Eu2280 Eu 0.58899 0.05027 0.51467 0.0
C2281 C 0.5197 1.00688 0.56682 0.0
C2282 C 0.50306 0.9719 0.54293 0.0
C2283 C 0.50399 0.97526 0.58233 0.0
C2284 C 0.51419 0.9942 0.54602 0.0
C2285 C 0.51438 0.9977 0.58524 0.0
C2286 C 0.49834 0.96237 0.5612 0.0
C2287 C 0.52877 0.03396 0.60792 0.0
N2288 N 0.52956 0.0285 0.56902 0.0
C2289 C 0.53361 0.0423 0.58914 0.0
C2290 C 0.51929 0.01149 0.60599 0.0
Eu2291 Eu 0.53875 0.0411 0.53675 0.0
N2292 N 0.51892 1.00398 0.52878 0.0
C2293 C 0.51168 0.99286 0.50798 0.0
C2294 C 0.49659 0.96004 0.52158 0.0
C2295 C 0.50068 0.97068 0.50405 0.0
H2296 H 0.54109 0.05964 0.59077 0.0
H2297 H 0.49547 0.96179 0.48748 0.0
H2298 H 0.48996 0.94521 0.55917 0.0
H2299 H 0.53239 0.04485 0.62386 0.0
H2300 H 0.5148 1.00075 0.49423 0.0
H2301 H 0.63442 0.13054 0.55946 0.0
H2302 H 0.48807 0.94285 0.5185 0.0
H2303 H 0.58448 0.02905 0.46065 0.0
H2304 H 0.61498 0.09172 0.55484 0.0
H2305 H 0.59207 0.04193 0.42646 0.0
H2306 H 0.49991 0.96784 0.59628 0.0
H2307 H 0.64026 0.14779 0.52712 0.0
H2308 H 0.63677 0.14342 0.48623 0.0
H2309 H 0.5155 1.00507 0.62057 0.0
H2310 H 0.62552 0.1192 0.45003 0.0
N2311 N 0.60904 0.08715 0.52038 0.0
C2312 C 0.61731 0.09899 0.5406 0.0
C2313 C 0.63161 0.13072 0.52502 0.0
C2314 C 0.62425 0.11799 0.50419 0.0
C2315 C 0.62841 0.12104 0.54329 0.0
C2316 C 0.613 0.09589 0.50238 0.0
H2317 H 0.60913 0.08127 0.4276 0.0
N2318 N 0.59681 0.06085 0.48108 0.0
C2319 C 0.59624 0.05348 0.44199 0.0
C2320 C 0.60679 0.08229 0.48207 0.0
C2321 C 0.59201 0.04623 0.46145 0.0
C2322 C 0.60583 0.0757 0.4427 0.0
C2323 C 0.61146 0.09037 0.46291 0.0
O2324 O 0.60646 0.02534 0.50354 0.0
O2325 O 0.56309 0.02456 0.5229 0.0
O2326 O 0.56164 0.03296 0.56001 0.0
O2327 O 0.59143 0.05527 0.55152 0.0
O2328 O 0.57481 0.01613 0.49361 0.0
O2329 O 0.61852 0.05108 0.53203 0.0
O2330 O 0.51949 0.0638 0.54933 0.0
O2331 O 0.56514 0.06687 0.52988 0.0
O2332 O 0.56679 0.06066 0.49253 0.0
O2333 O 0.53757 0.03705 0.49996 0.0
O2334 O 0.55183 0.07512 0.55832 0.0
O2335 O 0.51125 0.04278 0.51726 0.0
C2336 C 0.56182 0.00884 0.50648 0.0
C2337 C 0.64234 0.03538 0.51141 0.0
C2338 C 0.6738 0.0214 0.50943 0.0
C2339 C 0.65431 0.02098 0.51709 0.0
C2340 C 0.68093 0.03659 0.49596 0.0
C2341 C 0.64988 0.05046 0.49821 0.0
C2342 C 0.66911 0.05104 0.49056 0.0
C2343 C 0.58106 0.04375 0.56465 0.0
C2344 C 0.62168 0.03384 0.51864 0.0
C2345 C 0.62192 0.11263 0.46457 0.0
C2346 C 0.6283 0.12642 0.48517 0.0
C2347 C 0.56576 0.08237 0.5464 0.0
C2348 C 0.48441 0.05395 0.53603 0.0
C2349 C 0.47293 0.06928 0.53155 0.0
C2350 C 0.45195 0.06592 0.53496 0.0
C2351 C 0.44278 0.047 0.54305 0.0
C2352 C 0.47493 0.03524 0.54401 0.0
C2353 C 0.45419 0.03182 0.54749 0.0
C2354 C 0.54731 0.05032 0.48788 0.0
C2355 C 0.50619 0.05763 0.53212 0.0
H2356 H 0.64842 0.00954 0.52752 0.0
H2357 H 0.69552 0.03711 0.48923 0.0
H2358 H 0.64082 0.0616 0.49365 0.0
H2359 H 0.67481 0.06258 0.48019 0.0
H2360 H 0.4803 0.0836 0.52514 0.0
H2361 H 0.42681 0.04405 0.54627 0.0
H2362 H 0.48355 0.02332 0.54754 0.0
H2363 H 0.44694 0.01738 0.55373 0.0
Eu2364 Eu 0.2824 0.29855 0.77166 0.0
C2365 C 0.34814 0.27173 0.81282 0.0
C2366 C 0.36131 0.30361 0.84222 0.0
C2367 C 0.35913 0.26629 0.84882 0.0
C2368 C 0.35282 0.29456 0.82041 0.0
C2369 C 0.35223 0.25746 0.82673 0.0
C2370 C 0.36364 0.28935 0.85656 0.0
C2371 C 0.34621 0.22746 0.79523 0.0
N2372 N 0.34175 0.26368 0.79133 0.0
C2373 C 0.34256 0.24228 0.78214 0.0
C2374 C 0.35046 0.23493 0.81775 0.0
Eu2375 Eu 0.33367 0.28987 0.77082 0.0
N2376 N 0.35036 0.30799 0.80618 0.0
C2377 C 0.35808 0.33051 0.8122 0.0
C2378 C 0.36785 0.32673 0.84879 0.0
C2379 C 0.3667 0.34018 0.83355 0.0
H2380 H 0.33957 0.23632 0.76465 0.0
H2381 H 0.37235 0.35805 0.83827 0.0
H2382 H 0.36973 0.29602 0.87344 0.0
H2383 H 0.34583 0.21032 0.78792 0.0
H2384 H 0.35776 0.34138 0.80084 0.0
H2385 H 0.24393 0.2302 0.70429 0.0
H2386 H 0.37443 0.3343 0.86537 0.0
H2387 H 0.27742 0.3523 0.7771 0.0
H2388 H 0.25847 0.24704 0.7417 0.0
H2389 H 0.27235 0.37836 0.75348 0.0
H2390 H 0.36195 0.25552 0.8598 0.0
H2391 H 0.24198 0.2538 0.67701 0.0
H2392 H 0.2471 0.292 0.66863 0.0
H2393 H 0.35349 0.22346 0.82788 0.0
H2394 H 0.25557 0.33257 0.6819 0.0
N2395 N 0.26584 0.28038 0.73624 0.0
C2396 C 0.25814 0.25785 0.73029 0.0
C2397 C 0.2485 0.26143 0.69359 0.0
C2398 C 0.25516 0.28455 0.70004 0.0
C2399 C 0.24958 0.24808 0.70893 0.0
C2400 C 0.26359 0.2937 0.72184 0.0
H2401 H 0.26469 0.36492 0.71355 0.0
N2402 N 0.2751 0.32469 0.75067 0.0
C2403 C 0.27166 0.36111 0.74632 0.0
C2404 C 0.26866 0.31653 0.72921 0.0
C2405 C 0.27478 0.34627 0.75962 0.0
C2406 C 0.26735 0.35346 0.72383 0.0
C2407 C 0.26503 0.33078 0.7151 0.0
O2408 O 0.26474 0.3175 0.79337 0.0
O2409 O 0.31271 0.30563 0.79234 0.0
O2410 O 0.3106 0.25469 0.76827 0.0
O2411 O 0.27891 0.26257 0.77449 0.0
O2412 O 0.28692 0.28967 0.80456 0.0
O2413 O 0.25101 0.28375 0.77713 0.0
O2414 O 0.35129 0.27125 0.74865 0.0
O2415 O 0.30331 0.28248 0.75019 0.0
O2416 O 0.30545 0.33328 0.77669 0.0
O2417 O 0.3371 0.32655 0.76812 0.0
O2418 O 0.32895 0.29842 0.73782 0.0
O2419 O 0.36509 0.30475 0.76561 0.0
C2420 C 0.30611 0.29861 0.80905 0.0
C2421 C 0.22815 0.30662 0.78792 0.0
C2422 C 0.1937 0.30534 0.80009 0.0
C2423 C 0.21364 0.30147 0.80285 0.0
C2424 C 0.18874 0.31447 0.78206 0.0
C2425 C 0.2227 0.31562 0.77017 0.0
C2426 C 0.20313 0.31961 0.76735 0.0
C2427 C 0.29087 0.24825 0.77194 0.0
C2428 C 0.24844 0.30126 0.79042 0.0
C2429 C 0.25807 0.32183 0.69304 0.0
C2430 C 0.25315 0.29874 0.68551 0.0
C2431 C 0.3098 0.28935 0.73337 0.0
C2432 C 0.38795 0.28195 0.75459 0.0
C2433 C 0.40255 0.28676 0.73962 0.0
C2434 C 0.42255 0.28305 0.74272 0.0
C2435 C 0.42744 0.27441 0.76112 0.0
C2436 C 0.39341 0.27346 0.7727 0.0
C2437 C 0.41299 0.2696 0.77583 0.0
C2438 C 0.32475 0.34043 0.77227 0.0
C2439 C 0.36769 0.28743 0.75201 0.0
H2440 H 0.21795 0.29447 0.81654 0.0
H2441 H 0.17353 0.31723 0.77894 0.0
H2442 H 0.23344 0.31926 0.75832 0.0
H2443 H 0.19897 0.32644 0.75351 0.0
H2444 H 0.39831 0.29346 0.72569 0.0
H2445 H 0.44267 0.27185 0.76457 0.0
H2446 H 0.38271 0.27021 0.78466 0.0
H2447 H 0.41712 0.26319 0.78997 0.0
Eu2448 Eu 0.05593 0.07157 0.53828 0.0
C2449 C 0.08799 0.00897 0.46819 0.0
C2450 C 0.06221 1.00028 0.4373 0.0
C2451 C 0.09771 1.00017 0.43127 0.0
C2452 C 0.06792 1.00661 0.46001 0.0
C2453 C 0.10308 1.0054 0.45395 0.0
C2454 C 0.0773 0.99759 0.42295 0.0
C2455 C 0.12726 0.01071 0.48561 0.0
N2456 N 0.09256 0.01378 0.49016 0.0
C2457 C 0.11174 0.01395 0.49905 0.0
C2458 C 0.12299 1.00666 0.46295 0.0
Eu2459 Eu 0.06589 0.02119 0.51185 0.0
N2460 N 0.05374 0.0091 0.47434 0.0
C2461 C 0.03334 1.00351 0.46716 0.0
C2462 C 0.04143 0.9961 0.42976 0.0
C2463 C 0.02689 0.99732 0.44481 0.0
H2464 H 0.11532 0.01721 0.51653 0.0
H2465 H 0.01071 0.99357 0.43922 0.0
H2466 H 0.07325 0.99296 0.40545 0.0
H2467 H 0.14253 0.01137 0.49275 0.0
H2468 H 0.0219 1.00434 0.47856 0.0
H2469 H 0.11095 0.09896 0.61124 0.0
H2470 H 0.0364 0.99125 0.41245 0.0
H2471 H 1.00567 0.07304 0.53334 0.0
H2472 H 0.09981 0.08611 0.5722 0.0
H2473 H 0.97876 0.08006 0.55687 0.0
H2474 H 0.10912 0.99754 0.42005 0.0
H2475 H 0.08549 0.10488 0.63756 0.0
H2476 H 0.04894 0.10501 0.64419 0.0
H2477 H 0.13503 1.00408 0.45257 0.0
H2478 H 0.01306 0.09991 0.62943 0.0
N2479 N 0.0681 0.08446 0.5758 0.0
C2480 C 0.08842 0.08876 0.58322 0.0
C2481 C 0.08047 0.0993 0.62029 0.0
C2482 C 0.05979 0.0957 0.61257 0.0
C2483 C 0.09487 0.09604 0.60549 0.0
C2484 C 0.05404 0.08838 0.58991 0.0
H2485 H 0.98683 0.09076 0.59697 0.0
N2486 N 0.02914 0.07931 0.5597 0.0
C2487 C 0.99421 0.08168 0.56406 0.0
C2488 C 0.03394 0.08569 0.58162 0.0
C2489 C 0.00964 0.07776 0.55074 0.0
C2490 C 0.99882 0.08768 0.58668 0.0
C2491 C 0.01891 0.08998 0.59572 0.0
O2492 O 0.04714 0.09862 0.52542 0.0
O2493 O 0.0557 0.05129 0.50365 0.0
O2494 O 0.09129 0.04812 0.50385 0.0
O2495 O 0.08979 0.07455 0.53413 0.0
O2496 O 0.03067 0.06439 0.5102 0.0
O2497 O 0.078 0.10317 0.54097 0.0
O2498 O 0.07482 0.99375 0.52384 0.0
O2499 O 0.06569 0.04122 0.5461 0.0
O2500 O 0.03249 0.04475 0.5484 0.0
O2501 O 0.03188 0.01833 0.51734 0.0
O2502 O 0.09056 0.02782 0.54072 0.0
O2503 O 0.04382 0.98951 0.50902 0.0
C2504 C 0.03854 0.05347 0.49474 0.0
C2505 C 0.06601 0.13547 0.53817 0.0
C2506 C 0.06855 0.17121 0.52762 0.0
C2507 C 0.06728 0.1483 0.52211 0.0
C2508 C 0.06878 0.1813 0.54968 0.0
C2509 C 0.06598 0.14542 0.56013 0.0
C2510 C 0.06741 0.16838 0.56583 0.0
C2511 C 0.09954 0.06687 0.51774 0.0
C2512 C 0.06518 0.11188 0.53097 0.0
C2513 C 0.02442 0.09665 0.61833 0.0
C2514 C 0.04483 0.09953 0.62674 0.0
C2515 C 0.08233 0.03883 0.55583 0.0
C2516 C 0.05596 0.9571 0.51025 0.0
C2517 C 0.04958 0.94245 0.5241 0.0
C2518 C 0.04879 0.9197 0.51761 0.0
C2519 C 0.05466 0.91176 0.49694 0.0
C2520 C 0.06166 0.9492 0.4896 0.0
C2521 C 0.061 0.92648 0.48299 0.0
C2522 C 0.02334 0.02617 0.53479 0.0
C2523 C 0.05677 0.98052 0.51844 0.0
H2524 H 0.06767 0.14039 0.50522 0.0
H2525 H 0.06981 0.19903 0.55436 0.0
H2526 H 0.06499 0.13554 0.5727 0.0
H2527 H 0.06748 0.17619 0.58277 0.0
H2528 H 0.04561 0.94893 0.54023 0.0
H2529 H 0.0542 0.89422 0.49152 0.0
H2530 H 0.06667 0.96052 0.47878 0.0
H2531 H 0.06544 0.92027 0.46707 0.0
Eu2532 Eu 0.33596 0.81164 0.76876 0.0
C2533 C 0.27852 0.75141 0.81637 0.0
C2534 C 0.28713 0.71551 0.80599 0.0
C2535 C 0.2735 0.72508 0.84079 0.0
C2536 C 0.28629 0.73663 0.80167 0.0
C2537 C 0.27154 0.74552 0.83583 0.0
C2538 C 0.28128 0.7101 0.82589 0.0
C2539 C 0.25902 0.77928 0.84288 0.0
N2540 N 0.2765 0.77091 0.81095 0.0
C2541 C 0.26608 0.78436 0.8234 0.0
C2542 C 0.26206 0.75996 0.84932 0.0
Eu2543 Eu 0.28946 0.77827 0.77786 0.0
N2544 N 0.29145 0.74213 0.78238 0.0
C2545 C 0.29586 0.72665 0.76602 0.0
C2546 C 0.29297 0.70009 0.78979 0.0
C2547 C 0.29696 0.70555 0.76956 0.0
H2548 H 0.26334 0.79922 0.81861 0.0
H2549 H 0.30098 0.69356 0.75671 0.0
H2550 H 0.28204 0.69406 0.8296 0.0
H2551 H 0.25122 0.79025 0.85291 0.0
H2552 H 0.2989 0.73063 0.75029 0.0
H2553 H 0.32601 0.89665 0.79338 0.0
H2554 H 0.29379 0.68371 0.79248 0.0
H2555 H 0.35771 0.78976 0.72492 0.0
H2556 H 0.32746 0.85897 0.79822 0.0
H2557 H 0.36822 0.79918 0.69015 0.0
H2558 H 0.26842 0.72038 0.85576 0.0
H2559 H 0.3328 0.9077 0.75802 0.0
H2560 H 0.34321 0.89808 0.72014 0.0
H2561 H 0.25649 0.75602 0.86439 0.0
H2562 H 0.35474 0.87161 0.6921 0.0
N2563 N 0.33449 0.84834 0.76573 0.0
C2564 C 0.33046 0.86346 0.78268 0.0
C2565 C 0.33342 0.89105 0.76003 0.0
C2566 C 0.33855 0.87586 0.74308 0.0
C2567 C 0.32965 0.88491 0.78003 0.0
C2568 C 0.33912 0.85438 0.74652 0.0
H2569 H 0.36436 0.83487 0.6809 0.0
N2570 N 0.34729 0.81952 0.73522 0.0
C2571 C 0.36186 0.81065 0.7014 0.0
C2572 C 0.34577 0.83956 0.73081 0.0
C2573 C 0.35586 0.80538 0.72119 0.0
C2574 C 0.35961 0.83078 0.69622 0.0
C2575 C 0.35179 0.84568 0.71112 0.0
O2576 O 0.36736 0.80751 0.77266 0.0
O2577 O 0.32376 0.77869 0.77965 0.0
O2578 O 0.30646 0.79073 0.81116 0.0
O2579 O 0.32817 0.82169 0.80349 0.0
O2580 O 0.34435 0.77813 0.7567 0.0
O2581 O 0.3593 0.8364 0.79151 0.0
O2582 O 0.25953 0.78384 0.76792 0.0
O2583 O 0.30175 0.81128 0.76719 0.0
O2584 O 0.31701 0.80073 0.73642 0.0
O2585 O 0.29847 0.76797 0.74362 0.0
O2586 O 0.28126 0.81184 0.79019 0.0
O2587 O 0.26534 0.75109 0.75894 0.0
C2588 C 0.33414 0.76593 0.76865 0.0
C2589 C 0.39324 0.84015 0.78136 0.0
C2590 C 0.4306 0.8473 0.78316 0.0
C2591 C 0.41182 0.83616 0.7891 0.0
C2592 C 0.4304 0.8628 0.76951 0.0
C2593 C 0.39336 0.85592 0.7681 0.0
C2594 C 0.41189 0.86718 0.76222 0.0
C2595 C 0.31918 0.8103 0.81744 0.0
C2596 C 0.37403 0.82648 0.78615 0.0
C2597 C 0.35033 0.86666 0.7072 0.0
C2598 C 0.34374 0.88173 0.72316 0.0
C2599 C 0.29154 0.82414 0.77833 0.0
C2600 C 0.23214 0.75396 0.76842 0.0
C2601 C 0.21491 0.76202 0.76335 0.0
C2602 C 0.19657 0.75567 0.77278 0.0
C2603 C 0.19575 0.74101 0.78744 0.0
C2604 C 0.2309 0.73894 0.78268 0.0
C2605 C 0.2128 0.73262 0.79221 0.0
C2606 C 0.30588 0.7804 0.72976 0.0
C2607 C 0.25157 0.76293 0.76006 0.0
H2608 H 0.4115 0.82429 0.79975 0.0
H2609 H 0.44448 0.87137 0.76422 0.0
H2610 H 0.37923 0.85941 0.76217 0.0
H2611 H 0.41189 0.87915 0.75176 0.0
H2612 H 0.21586 0.77321 0.75194 0.0
H2613 H 0.18196 0.73606 0.79528 0.0
H2614 H 0.24392 0.73228 0.78666 0.0
H2615 H 0.21201 0.72127 0.80342 0.0
Eu2616 Eu 0.56453 0.03481 0.04984 0.0
C2617 C 0.49814 0.06295 0.99367 0.0
C2618 C 0.4723 0.02936 0.97848 0.0
C2619 C 0.46267 0.06503 0.98652 0.0
C2620 C 0.49277 0.0401 0.9864 0.0
C2621 C 0.48327 0.07576 0.99333 0.0
C2622 C 0.4572 0.04187 0.97912 0.0
C2623 C 0.51052 0.10891 1.00462 0.0
N2624 N 0.51818 0.07281 0.99995 0.0
C2625 C 0.52471 0.09548 1.00461 0.0
C2626 C 0.48966 0.099 0.99924 0.0
Eu2627 Eu 0.54109 0.04907 1.00047 0.0
N2628 N 0.50776 0.02855 0.9859 0.0
C2629 C 0.50364 1.00652 0.97618 0.0
C2630 C 0.46776 1.0065 0.96962 0.0
C2631 C 0.48357 0.99511 0.96815 0.0
H2632 H 0.54081 0.10313 0.00898 0.0
H2633 H 0.48029 0.97751 0.96098 0.0
H2634 H 0.44134 0.03387 0.97339 0.0
H2635 H 0.51566 0.12686 0.00886 0.0
H2636 H 0.51568 0.99749 0.9751 0.0
H2637 H 0.6243 0.10837 0.08716 0.0
H2638 H 0.45221 0.99761 0.96345 0.0
H2639 H 0.56579 0.98117 0.04429 0.0
H2640 H 0.58933 0.08746 0.0727 0.0
H2641 H 0.59126 0.95819 0.04653 0.0
H2642 H 0.45096 0.07455 0.98637 0.0
H2643 H 0.65267 0.0888 0.08753 0.0
H2644 H 0.66413 0.05269 0.08036 0.0
H2645 H 0.4787 0.10944 0.99921 0.0
H2646 H 0.65519 0.0118 0.0691 0.0
N2647 N 0.59764 0.05623 0.06459 0.0
C2648 C 0.60144 0.07859 0.07287 0.0
C2649 C 0.63727 0.07947 0.08126 0.0
C2650 C 0.63309 0.05639 0.07376 0.0
C2651 C 0.6213 0.09057 0.0811 0.0
C2652 C 0.6128 0.04508 0.06561 0.0
H2653 H 0.62799 0.97636 0.05678 0.0
N2654 N 0.58796 0.01191 0.05271 0.0
C2655 C 0.59615 0.97617 0.05012 0.0
C2656 C 0.60782 0.02218 0.05932 0.0
C2657 C 0.58176 0.98922 0.04891 0.0
C2658 C 0.61687 0.9865 0.05583 0.0
C2659 C 0.62289 0.00979 0.06089 0.0
O2660 O 0.54961 0.01535 0.07231 0.0
O2661 O 0.53654 0.03132 0.02794 0.0
O2662 O 0.52801 0.06472 0.03003 0.0
O2663 O 0.55525 0.0682 0.05611 0.0
O2664 O 0.53904 1.0034 0.04006 0.0
O2665 O 0.56088 0.05123 0.08268 0.0
O2666 O 0.55472 0.06924 0.97794 0.0
O2667 O 0.56914 0.05159 0.02181 0.0
O2668 O 0.57584 0.01658 0.0203 0.0
O2669 O 0.5503 0.01578 0.99286 0.0
O2670 O 0.56792 0.07962 0.00968 0.0
O2671 O 0.5432 0.03341 0.9669 0.0
C2672 C 0.52761 0.01157 0.02805 0.0
C2673 C 0.55991 0.02943 0.10946 0.0
C2674 C 0.55226 0.02531 0.14605 0.0
C2675 C 0.54625 0.0286 0.12537 0.0
C2676 C 0.57242 0.02325 0.15081 0.0
C2677 C 0.57997 0.02715 0.11405 0.0
C2678 C 0.5862 0.02411 0.13478 0.0
C2679 C 0.53823 0.07361 0.04935 0.0
C2680 C 0.55247 0.03258 0.08828 0.0
C2681 C 0.64332 0.021 0.06802 0.0
C2682 C 0.6484 0.04427 0.07447 0.0
C2683 C 0.57912 0.07078 0.02125 0.0
C2684 C 0.54186 0.05616 0.94122 0.0
C2685 C 0.55405 0.05752 0.92403 0.0
C2686 C 0.5463 0.06146 0.90423 0.0
C2687 C 0.52593 0.06369 0.9017 0.0
C2688 C 0.52159 0.05859 0.93877 0.0
C2689 C 0.51365 0.0623 0.91899 0.0
C2690 C 0.56613 0.00881 1.00047 0.0
C2691 C 0.55093 0.05237 0.96146 0.0
H2692 H 0.53089 0.03083 0.12165 0.0
H2693 H 0.57743 0.02078 0.16675 0.0
H2694 H 0.59069 0.02775 0.10174 0.0
H2695 H 0.60169 0.0224 0.13841 0.0
H2696 H 0.5696 0.05522 0.92604 0.0
H2697 H 0.51962 0.06669 0.8865 0.0
H2698 H 0.51198 0.0576 0.95201 0.0
H2699 H 0.49799 0.06413 0.91708 0.0
Eu2700 Eu 0.32974 0.31872 0.28137 0.0
C2701 C 0.23906 0.27099 0.25336 0.0
C2702 C 0.22404 0.26963 0.28761 0.0
C2703 C 0.20227 0.26797 0.25481 0.0
C2704 C 0.24135 0.27092 0.27548 0.0
C2705 C 0.21939 0.2693 0.24279 0.0
C2706 C 0.20457 0.26805 0.27715 0.0
C2707 C 0.23445 0.26837 0.20868 0.0
N2708 N 0.25588 0.27246 0.24207 0.0
C2709 C 0.25347 0.26971 0.21975 0.0
C2710 C 0.21736 0.26849 0.22029 0.0
Eu2711 Eu 0.28704 0.27048 0.26109 0.0
N2712 N 0.2605 0.27305 0.28534 0.0
C2713 C 0.26321 0.27595 0.30767 0.0
C2714 C 0.22679 0.27062 0.31007 0.0
C2715 C 0.24652 0.27413 0.32018 0.0
H2716 H 0.26619 0.26825 0.21013 0.0
H2717 H 0.249 0.27624 0.33776 0.0
H2718 H 0.19122 0.26719 0.28627 0.0
H2719 H 0.23294 0.26678 0.1911 0.0
H2720 H 0.2781 0.28094 0.31651 0.0
H2721 H 0.36689 0.31087 0.20416 0.0
H2722 H 0.21392 0.26977 0.31989 0.0
H2723 H 0.35114 0.32106 0.33218 0.0
H2724 H 0.33815 0.30606 0.226 0.0
H2725 H 0.38475 0.3238 0.35105 0.0
H2726 H 0.18713 0.26674 0.24695 0.0
H2727 H 0.40231 0.31955 0.22175 0.0
H2728 H 0.42566 0.32432 0.25546 0.0
H2729 H 0.20255 0.26721 0.21164 0.0
H2730 H 0.43033 0.32582 0.29496 0.0
N2731 N 0.35619 0.31621 0.25696 0.0
C2732 C 0.35314 0.31208 0.23457 0.0
C2733 C 0.38956 0.31868 0.23175 0.0
C2734 C 0.39271 0.32074 0.25434 0.0
C2735 C 0.36964 0.31393 0.22179 0.0
C2736 C 0.37554 0.31935 0.26668 0.0
H2737 H 0.4152 0.32492 0.33041 0.0
N2738 N 0.36139 0.3178 0.30021 0.0
C2739 C 0.38313 0.32234 0.33349 0.0
C2740 C 0.37816 0.31985 0.28886 0.0
C2741 C 0.3639 0.32026 0.32249 0.0
C2742 C 0.40026 0.32312 0.32183 0.0
C2743 C 0.39801 0.32226 0.29933 0.0
O2744 O 0.33077 0.34078 0.31274 0.0
O2745 O 0.29658 0.30346 0.28307 0.0
O2746 O 0.2915 0.29448 0.23644 0.0
O2747 O 0.31879 0.3256 0.24894 0.0
O2748 O 0.30362 0.33606 0.27831 0.0
O2749 O 0.34563 0.35376 0.2862 0.0
O2750 O 0.28589 0.2477 0.23006 0.0
O2751 O 0.32017 0.28561 0.25967 0.0
O2752 O 0.32562 0.29465 0.30596 0.0
O2753 O 0.2983 0.26355 0.2934 0.0
O2754 O 0.31299 0.25269 0.26357 0.0
O2755 O 0.26967 0.23612 0.25652 0.0
C2756 C 0.28914 0.31977 0.28053 0.0
C2757 C 0.33457 0.37891 0.31381 0.0
C2758 C 0.31336 0.40483 0.30919 0.0
C2759 C 0.32094 0.38626 0.30061 0.0
C2760 C 0.31987 0.41652 0.33062 0.0
C2761 C 0.34105 0.39069 0.33525 0.0
C2762 C 0.33382 0.40953 0.34356 0.0
C2763 C 0.30362 0.31369 0.23414 0.0
C2764 C 0.34115 0.35822 0.30641 0.0
C2765 C 0.41504 0.324 0.28717 0.0
C2766 C 0.4124 0.32331 0.26473 0.0
C2767 C 0.32755 0.26917 0.26192 0.0
C2768 C 0.27958 0.20941 0.2298 0.0
C2769 C 0.29228 0.20155 0.24354 0.0
C2770 C 0.29742 0.18108 0.23639 0.0
C2771 C 0.2896 0.16844 0.2155 0.0
C2772 C 0.27191 0.19672 0.20899 0.0
C2773 C 0.27687 0.17625 0.2019 0.0
C2774 C 0.3135 0.27542 0.3082 0.0
C2775 C 0.27438 0.23095 0.23649 0.0
H2776 H 0.31597 0.37751 0.28395 0.0
H2777 H 0.31412 0.43099 0.3373 0.0
H2778 H 0.35151 0.38512 0.34566 0.0
H2779 H 0.33881 0.41853 0.36013 0.0
H2780 H 0.29794 0.2111 0.25979 0.0
H2781 H 0.29352 0.15263 0.20961 0.0
H2782 H 0.26211 0.20269 0.19821 0.0
H2783 H 0.27094 0.16649 0.18581 0.0
Eu2784 Eu 0.55509 0.56364 0.03304 0.0
C2785 C 0.58962 0.50171 0.96608 0.0
C2786 C 0.56601 0.49603 0.93359 0.0
C2787 C 0.60151 0.49403 0.92999 0.0
C2788 C 0.57017 0.50114 0.95655 0.0
C2789 C 0.60529 0.49757 0.95281 0.0
C2790 C 0.58192 0.49324 0.92041 0.0
C2791 C 0.62669 0.49823 0.9854 0.0
N2792 N 0.59285 0.5049 0.98823 0.0
C2793 C 0.61075 0.50223 0.99792 0.0
C2794 C 0.62409 0.4963 0.96279 0.0
Eu2795 Eu 0.56513 0.51324 0.00757 0.0
N2796 N 0.55492 0.50363 0.96963 0.0
C2797 C 0.53494 0.49862 0.96087 0.0
C2798 C 0.54577 0.49283 0.92451 0.0
C2799 C 0.53011 0.49359 0.93823 0.0
H2800 H 0.613 0.50332 0.01531 0.0
H2801 H 0.51432 0.49039 0.93138 0.0
H2802 H 0.57904 0.48963 0.90275 0.0
H2803 H 0.64096 0.4966 0.9932 0.0
H2804 H 0.52257 0.49897 0.97113 0.0
H2805 H 0.61308 0.59215 0.10348 0.0
H2806 H 0.54197 0.48889 0.90696 0.0
H2807 H 0.50561 0.56649 0.03033 0.0
H2808 H 0.60043 0.57943 0.06475 0.0
H2809 H 0.47953 0.57389 0.05526 0.0
H2810 H 0.61345 0.4911 0.91958 0.0
H2811 H 0.5887 0.59695 0.13129 0.0
H2812 H 0.55243 0.59634 0.13982 0.0
H2813 H 0.63647 0.49312 0.95313 0.0
H2814 H 0.51611 0.59143 0.12672 0.0
N2815 N 0.56884 0.57631 0.07013 0.0
C2816 C 0.58945 0.58141 0.07648 0.0
C2817 C 0.58298 0.59132 0.11419 0.0
C2818 C 0.56201 0.58725 0.10751 0.0
C2819 C 0.59678 0.58868 0.09855 0.0
C2820 C 0.55536 0.57989 0.08504 0.0
H2821 H 0.48886 0.58337 0.09524 0.0
N2822 N 0.52942 0.57133 0.05591 0.0
C2823 C 0.49506 0.57486 0.06181 0.0
C2824 C 0.535 0.57726 0.0777 0.0
C2825 C 0.50991 0.57073 0.04773 0.0
C2826 C 0.50038 0.58013 0.08436 0.0
C2827 C 0.52061 0.58171 0.09257 0.0
O2828 O 0.5442 0.59121 0.02335 0.0
O2829 O 0.55557 0.5436 0.99876 0.0
O2830 O 0.59275 0.53835 1.00194 0.0
O2831 O 0.58904 0.56893 0.02705 0.0
O2832 O 0.53043 0.55685 1.00428 0.0
O2833 O 0.5766 0.595 0.03317 0.0
O2834 O 0.55606 0.4889 0.0283 0.0
O2835 O 0.56528 0.53372 0.04166 0.0
O2836 O 0.5298 0.53607 0.04043 0.0
O2837 O 0.5311 0.51077 0.00927 0.0
O2838 O 0.59023 0.52015 0.03603 0.0
O2839 O 0.55728 0.47762 0.99384 0.0
C2840 C 0.53893 0.54623 0.98914 0.0
C2841 C 0.56433 0.62773 0.03499 0.0
C2842 C 0.56832 0.66479 0.02716 0.0
C2843 C 0.56581 0.64182 0.02005 0.0
C2844 C 0.56952 0.67361 0.04967 0.0
C2845 C 0.56532 0.63644 0.05741 0.0
C2846 C 0.56794 0.65943 0.06469 0.0
C2847 C 0.59975 0.55884 0.01298 0.0
C2848 C 0.56249 0.6042 0.02625 0.0
C2849 C 0.52697 0.58811 0.11503 0.0
C2850 C 0.54764 0.59089 0.12249 0.0
C2851 C 0.58221 0.5316 0.05113 0.0
C2852 C 0.56587 0.45502 0.01753 0.0
C2853 C 0.55931 0.44339 0.03389 0.0
C2854 C 0.56884 0.42671 0.03859 0.0
C2855 C 0.58521 0.42193 0.02689 0.0
C2856 C 0.58227 0.45009 1.00597 0.0
C2857 C 0.59192 0.43366 0.01073 0.0
C2858 C 0.52155 0.51753 0.02618 0.0
C2859 C 0.55514 0.47188 0.01263 0.0
H2860 H 0.56545 0.63485 1.00277 0.0
H2861 H 0.57149 0.69135 0.05558 0.0
H2862 H 0.56425 0.62559 0.06913 0.0
H2863 H 0.56879 0.66628 0.082 0.0
H2864 H 0.54645 0.44697 0.04259 0.0
H2865 H 0.59285 0.40916 0.03029 0.0
H2866 H 0.58749 0.45869 0.99311 0.0
H2867 H 0.60451 0.42988 1.00177 0.0
Eu2868 Eu 0.83542 0.30955 0.26328 0.0
C2869 C 0.78257 0.25364 0.31901 0.0
C2870 C 0.7918 0.21798 0.31029 0.0
C2871 C 0.78049 0.2299 0.34587 0.0
C2872 C 0.78983 0.23825 0.30464 0.0
C2873 C 0.77722 0.24935 0.33955 0.0
C2874 C 0.78778 0.21423 0.33126 0.0
C2875 C 0.76348 0.28232 0.34492 0.0
N2876 N 0.77926 0.27202 0.31217 0.0
C2877 C 0.76904 0.28585 0.32441 0.0
C2878 C 0.76794 0.26423 0.35272 0.0
Eu2879 Eu 0.79001 0.27728 0.27752 0.0
N2880 N 0.79294 0.24211 0.28434 0.0
C2881 C 0.79589 0.22549 0.26825 0.0
C2882 C 0.79666 0.20161 0.29433 0.0
C2883 C 0.79823 0.20519 0.27306 0.0
H2884 H 0.76529 0.29982 0.31868 0.0
H2885 H 0.80125 0.19237 0.26035 0.0
H2886 H 0.78945 0.19889 0.336 0.0
H2887 H 0.7558 0.29361 0.35472 0.0
H2888 H 0.79694 0.22802 0.25172 0.0
H2889 H 0.8283 0.39579 0.28485 0.0
H2890 H 0.79833 0.18582 0.298 0.0
H2891 H 0.85344 0.2844 0.21804 0.0
H2892 H 0.83064 0.35892 0.29152 0.0
H2893 H 0.86084 0.29101 0.18155 0.0
H2894 H 0.7767 0.22644 0.36169 0.0
H2895 H 0.83129 0.40391 0.24777 0.0
H2896 H 0.83828 0.39147 0.20895 0.0
H2897 H 0.76357 0.26151 0.3686 0.0
H2898 H 0.84743 0.36306 0.18093 0.0
N2899 N 0.83404 0.34576 0.25841 0.0
C2900 C 0.83184 0.3621 0.27523 0.0
C2901 C 0.83221 0.3876 0.25059 0.0
C2902 C 0.83583 0.37126 0.23373 0.0
C2903 C 0.83057 0.38311 0.27153 0.0
C2904 C 0.83684 0.35028 0.23826 0.0
H2905 H 0.85617 0.32574 0.17067 0.0
N2906 N 0.8441 0.31492 0.22801 0.0
C2907 C 0.85555 0.30335 0.19291 0.0
C2908 C 0.84218 0.33442 0.2226 0.0
C2909 C 0.85133 0.29969 0.21374 0.0
C2910 C 0.85284 0.32293 0.18682 0.0
C2911 C 0.84636 0.33891 0.20182 0.0
O2912 O 0.86714 0.306 0.26422 0.0
O2913 O 0.82423 0.27722 0.27606 0.0
O2914 O 0.80922 0.29216 0.30948 0.0
O2915 O 0.82974 0.32176 0.29814 0.0
O2916 O 0.84364 0.27606 0.25188 0.0
O2917 O 0.85949 0.33372 0.28558 0.0
O2918 O 0.75866 0.28132 0.27186 0.0
O2919 O 0.80147 0.30968 0.26518 0.0
O2920 O 0.81382 0.29715 0.23273 0.0
O2921 O 0.79699 0.2652 0.24288 0.0
O2922 O 0.78148 0.31077 0.28869 0.0
O2923 O 0.76635 0.25062 0.25729 0.0
C2924 C 0.83423 0.26426 0.26458 0.0
C2925 C 0.89294 0.33878 0.27403 0.0
C2926 C 0.93031 0.3486 0.27719 0.0
C2927 C 0.91186 0.33531 0.28146 0.0
C2928 C 0.92957 0.3654 0.26526 0.0
C2929 C 0.8924 0.35554 0.26208 0.0
C2930 C 0.91069 0.36878 0.25772 0.0
C2931 C 0.82205 0.31182 0.31364 0.0
C2932 C 0.87409 0.3243 0.27859 0.0
C2933 C 0.84442 0.35937 0.19686 0.0
C2934 C 0.83918 0.37552 0.2128 0.0
C2935 C 0.79152 0.32278 0.27652 0.0
C2936 C 0.73315 0.24871 0.26898 0.0
C2937 C 0.71411 0.25313 0.2634 0.0
C2938 C 0.69621 0.2422 0.27112 0.0
C2939 C 0.69765 0.22696 0.28474 0.0
C2940 C 0.73429 0.23333 0.28248 0.0
C2941 C 0.71661 0.2226 0.29037 0.0
C2942 C 0.80303 0.27653 0.22772 0.0
C2943 C 0.75168 0.26098 0.26132 0.0
H2944 H 0.91218 0.32244 0.29085 0.0
H2945 H 0.94357 0.37578 0.26161 0.0
H2946 H 0.87794 0.35841 0.25616 0.0
H2947 H 0.91023 0.38169 0.24848 0.0
H2948 H 0.71324 0.26486 0.2528 0.0
H2949 H 0.68413 0.21849 0.2911 0.0
H2950 H 0.74879 0.22961 0.28694 0.0
H2951 H 0.7176 0.21085 0.30086 0.0
Eu2952 Eu 0.07451 0.54612 0.53935 0.0
C2953 C 0.00791 0.56917 0.47768 0.0
C2954 C 0.97858 0.53796 0.47294 0.0
C2955 C 0.97352 0.57486 0.47112 0.0
C2956 C 0.99992 0.54685 0.47714 0.0
C2957 C 0.99487 0.58333 0.47411 0.0
C2958 C 0.96539 0.5522 0.47053 0.0
C2959 C 0.02507 0.61249 0.47434 0.0
N2960 N 0.02857 0.57671 0.48024 0.0
C2961 C 0.03734 0.5977 0.47762 0.0
C2962 C 1.00372 0.60537 0.4729 0.0
Eu2963 Eu 0.04843 0.5513 0.48681 0.0
N2964 N 0.01312 0.53356 0.47936 0.0
C2965 C 1.0061 0.51096 0.47583 0.0
C2966 C 0.97121 0.51495 0.4706 0.0
C2967 C 0.98508 0.50136 0.47167 0.0
H2968 H 0.05385 0.60322 0.47875 0.0
H2969 H 0.97958 0.48349 0.46946 0.0
H2970 H 0.94893 0.54574 0.46758 0.0
H2971 H 0.03207 0.62932 0.47291 0.0
H2972 H 0.01659 0.50021 0.47672 0.0
H2973 H 0.14223 0.61511 0.5588 0.0
H2974 H 0.95492 0.50748 0.46744 0.0
H2975 H 0.06981 0.49332 0.5444 0.0
H2976 H 0.10541 0.59762 0.5504 0.0
H2977 H 0.09211 0.46764 0.55003 0.0
H2978 H 0.96321 0.58553 0.46858 0.0
H2979 H 0.16739 0.59174 0.56121 0.0
H2980 H 0.17407 0.55367 0.56051 0.0
H2981 H 0.99423 0.6168 0.47021 0.0
H2982 H 0.16045 0.5135 0.55805 0.0
N2983 N 0.10955 0.5645 0.54753 0.0
C2984 C 0.11614 0.58716 0.55144 0.0
C2985 C 0.15119 0.58393 0.55755 0.0
C2986 C 0.14422 0.56081 0.55467 0.0
C2987 C 0.13704 0.59718 0.55625 0.0
C2988 C 0.123 0.55149 0.54981 0.0
H2989 H 0.12989 0.48131 0.55447 0.0
N2990 N 0.09478 0.52086 0.54511 0.0
C2991 C 0.09886 0.48482 0.54956 0.0
C2992 C 0.11537 0.52895 0.5485 0.0
C2993 C 0.08629 0.49937 0.54643 0.0
C2994 C 0.12018 0.49259 0.55198 0.0
C2995 C 0.12869 0.515 0.55186 0.0
O2996 O 0.06158 0.53497 0.56768 0.0
O2997 O 0.04529 0.5433 0.51975 0.0
O2998 O 0.04269 0.57837 0.51279 0.0
O2999 O 0.06923 0.58097 0.53998 0.0
O3000 O 0.04554 0.5191 0.53812 0.0
O3001 O 0.07698 0.56972 0.57007 0.0
O3002 O 0.06322 0.56049 0.45867 0.0
O3003 O 0.07759 0.55446 0.50667 0.0
O3004 O 0.08112 0.52035 0.51223 0.0
O3005 O 0.05265 0.51644 0.4875 0.0
O3006 O 0.0776 0.57814 0.48775 0.0
O3007 O 0.04388 0.52737 0.456 0.0
C3008 C 0.03438 0.52662 0.52518 0.0
C3009 C 0.07832 0.55463 0.60172 0.0
C3010 C 0.07529 0.55438 0.64015 0.0
C3011 C 0.06643 0.55424 0.6193 0.0
C3012 C 0.09636 0.55509 0.64328 0.0
C3013 C 0.0993 0.5551 0.60484 0.0
C3014 C 0.10828 0.55537 0.62562 0.0
C3015 C 0.05453 0.58859 0.53091 0.0
C3016 C 0.06826 0.55448 0.58041 0.0
C3017 C 0.14994 0.52398 0.55563 0.0
C3018 C 0.15769 0.54686 0.55704 0.0
C3019 C 0.08862 0.57105 0.50122 0.0
C3020 C 0.04548 0.54318 0.42462 0.0
C3021 C 0.05777 0.54267 0.40742 0.0
C3022 C 0.05065 0.54594 0.38705 0.0
C3023 C 0.03057 0.54894 0.38391 0.0
C3024 C 0.02553 0.54637 0.42153 0.0
C3025 C 0.01806 0.54908 0.40112 0.0
C3026 C 0.06873 0.50965 0.49457 0.0
C3027 C 0.05454 0.54157 0.44581 0.0
H3028 H 0.05025 0.55414 0.61674 0.0
H3029 H 0.10352 0.55516 0.65926 0.0
H3030 H 0.1087 0.55537 0.59136 0.0
H3031 H 0.12449 0.55578 0.62804 0.0
H3032 H 0.07305 0.53982 0.41004 0.0
H3033 H 0.02469 0.55155 0.36835 0.0
H3034 H 0.01585 0.54687 0.4348 0.0
H3035 H 1.00267 0.55156 0.3987 0.0
Eu3036 Eu 0.78651 0.80078 0.27055 0.0
C3037 C 0.85093 0.75891 0.31191 0.0
C3038 C 0.86317 0.78526 0.34585 0.0
C3039 C 0.86267 0.74606 0.34368 0.0
C3040 C 0.8547 0.78039 0.32389 0.0
C3041 C 0.85545 0.74158 0.32145 0.0
C3042 C 0.86652 0.76788 0.35588 0.0
C3043 C 0.84767 0.71741 0.28575 0.0
N3044 N 0.84434 0.75529 0.29044 0.0
C3045 C 0.84354 0.73519 0.27705 0.0
C3046 C 0.85332 0.72052 0.30814 0.0
Eu3047 Eu 0.83591 0.78547 0.27707 0.0
N3048 N 0.85158 0.79677 0.31356 0.0
C3049 C 0.85848 0.81862 0.32364 0.0
C3050 C 0.8688 0.80754 0.35678 0.0
C3051 C 0.86684 0.82432 0.34546 0.0
H3052 H 0.83894 0.7327 0.25977 0.0
H3053 H 0.87163 0.84164 0.35357 0.0
H3054 H 0.87276 0.77125 0.37282 0.0
H3055 H 0.84642 0.70134 0.27522 0.0
H3056 H 0.85693 0.83184 0.31531 0.0
H3057 H 0.75091 0.74704 0.19291 0.0
H3058 H 0.87529 0.81199 0.37368 0.0
H3059 H 0.78355 0.85337 0.28963 0.0
H3060 H 0.76547 0.75558 0.23125 0.0
H3061 H 0.77631 0.88547 0.27536 0.0
H3062 H 0.866 0.73292 0.3514 0.0
H3063 H 0.74767 0.77762 0.17392 0.0
H3064 H 0.75059 0.81864 0.1761 0.0
H3065 H 0.85662 0.70675 0.31484 0.0
H3066 H 0.75747 0.85647 0.19863 0.0
N3067 N 0.77114 0.79077 0.23402 0.0
C3068 C 0.76409 0.76914 0.22334 0.0
C3069 C 0.75411 0.7815 0.19083 0.0
C3070 C 0.75989 0.80355 0.20239 0.0
C3071 C 0.75582 0.76419 0.20151 0.0
C3072 C 0.76828 0.80767 0.22433 0.0
H3073 H 0.76661 0.88149 0.23582 0.0
N3074 N 0.77868 0.83183 0.25837 0.0
C3075 C 0.77523 0.86971 0.26434 0.0
C3076 C 0.77219 0.82892 0.23692 0.0
C3077 C 0.77927 0.85152 0.27237 0.0
C3078 C 0.76984 0.86741 0.242 0.0
C3079 C 0.7678 0.84669 0.22805 0.0
O3080 O 0.76707 0.80967 0.29628 0.0
O3081 O 0.80973 0.79456 0.29441 0.0
O3082 O 0.81166 0.75485 0.2823 0.0
O3083 O 0.78172 0.76247 0.2679 0.0
O3084 O 0.79886 0.82331 0.30296 0.0
O3085 O 0.75519 0.78118 0.27055 0.0
O3086 O 0.8566 0.7745 0.25353 0.0
O3087 O 0.81258 0.79136 0.25332 0.0
O3088 O 0.81055 0.83133 0.26494 0.0
O3089 O 0.84056 0.82368 0.27914 0.0
O3090 O 0.82383 0.76302 0.24443 0.0
O3091 O 0.86555 0.80705 0.27419 0.0
C3092 C 0.8105 0.81138 0.30947 0.0
C3093 C 0.73128 0.80044 0.28689 0.0
C3094 C 0.69782 0.80145 0.30092 0.0
C3095 C 0.71654 0.79437 0.30133 0.0
C3096 C 0.69451 0.81498 0.28597 0.0
C3097 C 0.72714 0.81333 0.27186 0.0
C3098 C 0.70894 0.82064 0.27151 0.0
C3099 C 0.79178 0.74849 0.27506 0.0
C3100 C 0.75115 0.79388 0.28793 0.0
C3101 C 0.76068 0.84297 0.20584 0.0
C3102 C 0.75676 0.82143 0.19302 0.0
C3103 C 0.81194 0.77476 0.23809 0.0
C3104 C 0.8922 0.7896 0.26269 0.0
C3105 C 0.90635 0.79397 0.24721 0.0
C3106 C 0.92673 0.79143 0.25057 0.0
C3107 C 0.93251 0.78463 0.26981 0.0
C3108 C 0.89845 0.78267 0.28152 0.0
C3109 C 0.91848 0.78023 0.28502 0.0
C3110 C 0.83047 0.83764 0.27199 0.0
C3111 C 0.87104 0.79254 0.25935 0.0
H3112 H 0.71965 0.78405 0.31266 0.0
H3113 H 0.68083 0.82152 0.28554 0.0
H3114 H 0.73805 0.81791 0.26049 0.0
H3115 H 0.70604 0.8309 0.26006 0.0
H3116 H 0.90142 0.79914 0.23257 0.0
H3117 H 0.94806 0.78304 0.27338 0.0
H3118 H 0.88787 0.77932 0.29359 0.0
H3119 H 0.92322 0.77504 0.2997 0.0
Eu3120 Eu 0.81877 0.28487 0.75064 0.0
C3121 C 0.79366 0.35984 0.81603 0.0
C3122 C 0.82619 0.3857 0.82929 0.0
C3123 C 0.79505 0.39944 0.82724 0.0
C3124 C 0.81473 0.36375 0.82091 0.0
C3125 C 0.78355 0.37757 0.81977 0.0
C3126 C 0.81633 0.4035 0.83194 0.0
C3127 C 0.75116 0.35066 0.81044 0.0
N3128 N 0.78286 0.33861 0.80872 0.0
C3129 C 0.76183 0.33368 0.80686 0.0
C3130 C 0.76209 0.37276 0.81653 0.0
Eu3131 Eu 0.80182 0.31066 0.80242 0.0
N3132 N 0.82394 0.3462 0.81798 0.0
C3133 C 0.84444 0.34961 0.82464 0.0
C3134 C 0.84723 0.38918 0.8351 0.0
C3135 C 0.8563 0.37102 0.83307 0.0
H3136 H 0.75334 0.31653 0.80209 0.0
H3137 H 0.87255 0.3735 0.83775 0.0
H3138 H 0.82496 0.42043 0.83808 0.0
H3139 H 0.73455 0.34668 0.80842 0.0
H3140 H 0.85235 0.33635 0.82307 0.0
H3141 H 0.75724 0.2125 0.71464 0.0
H3142 H 0.85654 0.40577 0.84147 0.0
H3143 H 0.86943 0.28953 0.75151 0.0
H3144 H 0.77258 0.25209 0.72929 0.0
H3145 H 0.89401 0.26514 0.74601 0.0
H3146 H 0.78757 0.41328 0.82992 0.0
H3147 H 0.77873 0.18479 0.71268 0.0
H3148 H 0.81379 0.17699 0.7174 0.0
H3149 H 0.7538 0.38593 0.81928 0.0
H3150 H 0.85109 0.19132 0.72593 0.0
N3151 N 0.80255 0.24709 0.73624 0.0
C3152 C 0.78226 0.24033 0.72852 0.0
C3153 C 0.78561 0.20223 0.71912 0.0
C3154 C 0.80664 0.20944 0.72576 0.0
C3155 C 0.77345 0.21782 0.72015 0.0
C3156 C 0.81481 0.23232 0.73414 0.0
H3157 H 0.88119 0.22421 0.73612 0.0
N3158 N 0.84312 0.26261 0.74539 0.0
C3159 C 0.87767 0.25793 0.74408 0.0
C3160 C 0.83576 0.24033 0.73892 0.0
C3161 C 0.86374 0.27168 0.74713 0.0
C3162 C 0.87037 0.23484 0.73857 0.0
C3163 C 0.84918 0.22578 0.73552 0.0
O3164 O 0.83731 0.29971 0.7273 0.0
O3165 O 0.81696 0.31624 0.77285 0.0
O3166 O 0.78117 0.31594 0.77421 0.0
O3167 O 0.78652 0.29094 0.74368 0.0
O3168 O 0.84477 0.31561 0.76025 0.0
O3169 O 0.80501 0.2839 0.71811 0.0
O3170 O 0.78394 0.3114 0.83048 0.0
O3171 O 0.80224 0.27968 0.77945 0.0
O3172 O 0.83709 0.27595 0.77817 0.0
O3173 O 0.83324 0.30206 0.80867 0.0
O3174 O 0.77444 0.28122 0.79137 0.0
O3175 O 0.80854 0.29409 0.82901 0.0
C3176 C 0.83465 0.32764 0.77224 0.0
C3177 C 0.82712 0.28335 0.69037 0.0
C3178 C 0.83214 0.28705 0.65306 0.0
C3179 C 0.82772 0.29574 0.67406 0.0
C3180 C 0.8356 0.26545 0.64838 0.0
C3181 C 0.83073 0.26184 0.6858 0.0
C3182 C 0.83494 0.25292 0.66479 0.0
C3183 C 0.77628 0.30531 0.75353 0.0
C3184 C 0.82228 0.29343 0.71174 0.0
C3185 C 0.84105 0.20281 0.7284 0.0
C3186 C 0.81981 0.19466 0.72354 0.0
C3187 C 0.78432 0.26869 0.77963 0.0
C3188 C 0.77873 0.2782 0.84388 0.0
C3189 C 0.78594 0.26721 0.85911 0.0
C3190 C 0.77326 0.24828 0.86408 0.0
C3191 C 0.75339 0.24005 0.85326 0.0
C3192 C 0.7586 0.27018 0.83359 0.0
C3193 C 0.74614 0.251 0.83808 0.0
C3194 C 0.84261 0.28679 0.79868 0.0
C3195 C 0.79256 0.29772 0.83876 0.0
H3196 H 0.82443 0.31218 0.67773 0.0
H3197 H 0.839 0.25841 0.63222 0.0
H3198 H 0.83018 0.25198 0.69829 0.0
H3199 H 0.83768 0.23629 0.66121 0.0
H3200 H 0.80143 0.27339 0.86708 0.0
H3201 H 0.7433 0.22552 0.85697 0.0
H3202 H 0.75239 0.27868 0.82217 0.0
H3203 H 0.73073 0.24479 0.83 0.0
Eu3204 Eu 0.82832 0.82753 0.78845 0.0
C3205 C 0.7457 0.7683 0.76557 0.0
C3206 C 0.73403 0.7422 0.78888 0.0
C3207 C 0.71025 0.76158 0.7746 0.0
C3208 C 0.74979 0.75367 0.77832 0.0
C3209 C 0.72572 0.77215 0.76332 0.0
C3210 C 0.71439 0.74661 0.78734 0.0
C3211 C 0.73745 0.7961 0.73841 0.0
N3212 N 0.76113 0.77861 0.75521 0.0
C3213 C 0.75699 0.79193 0.74123 0.0
C3214 C 0.7218 0.7864 0.7497 0.0
Eu3215 Eu 0.79452 0.77186 0.76277 0.0
N3216 N 0.76896 0.74998 0.77976 0.0
C3217 C 0.77272 0.73311 0.78939 0.0
C3218 C 0.73834 0.72623 0.80027 0.0
C3219 C 0.75769 0.72137 0.80017 0.0
H3220 H 0.76849 0.79988 0.73224 0.0
H3221 H 0.76104 0.70856 0.80834 0.0
H3222 H 0.7022 0.73821 0.79559 0.0
H3223 H 0.73452 0.80696 0.72759 0.0
H3224 H 0.78761 0.72902 0.78917 0.0
H3225 H 0.85981 0.88945 0.74044 0.0
H3226 H 0.72667 0.7171 0.80861 0.0
H3227 H 0.8552 0.8003 0.81874 0.0
H3228 H 0.83393 0.86943 0.76057 0.0
H3229 H 0.88942 0.79363 0.82289 0.0
H3230 H 0.69495 0.76462 0.77329 0.0
H3231 H 0.89436 0.8814 0.73988 0.0
H3232 H 0.91944 0.86105 0.75299 0.0
H3233 H 0.70671 0.78983 0.74761 0.0
H3234 H 0.92754 0.83534 0.77571 0.0
N3235 N 0.85312 0.84908 0.77032 0.0
C3236 C 0.84887 0.86547 0.76022 0.0
C3237 C 0.88299 0.87243 0.74864 0.0
C3238 C 0.88778 0.85693 0.76037 0.0
C3239 C 0.86353 0.877 0.74889 0.0
C3240 C 0.87241 0.84565 0.77151 0.0
H3241 H 0.91663 0.81059 0.80206 0.0
N3242 N 0.86192 0.82119 0.79531 0.0
C3243 C 0.88614 0.80425 0.81196 0.0
C3244 C 0.87699 0.83141 0.78449 0.0
C3245 C 0.86648 0.8082 0.80944 0.0
C3246 C 0.90145 0.81384 0.8002 0.0
C3247 C 0.89706 0.82777 0.78642 0.0
O3248 O 0.83214 0.84085 0.82364 0.0
O3249 O 0.79765 0.80477 0.78447 0.0
O3250 O 0.80075 0.79318 0.73653 0.0
O3251 O 0.81847 0.82925 0.75374 0.0
O3252 O 0.79794 0.83759 0.78377 0.0
O3253 O 0.83034 0.86275 0.80107 0.0
O3254 O 0.79118 0.75805 0.72763 0.0
O3255 O 0.82519 0.79457 0.76688 0.0
O3256 O 0.8227 0.806 0.8142 0.0
O3257 O 0.80233 0.77067 0.79855 0.0
O3258 O 0.82477 0.76194 0.76855 0.0
O3259 O 0.79297 0.73669 0.75074 0.0
C3260 C 0.7864 0.81829 0.78383 0.0
C3261 C 0.81128 0.86697 0.83134 0.0
C3262 C 0.78554 0.88913 0.83113 0.0
C3263 C 0.80436 0.88478 0.82524 0.0
C3264 C 0.77385 0.87599 0.84395 0.0
C3265 C 0.79951 0.85411 0.84442 0.0
C3266 C 0.78096 0.85873 0.85074 0.0
C3267 C 0.80907 0.8144 0.73637 0.0
C3268 C 0.82885 0.86003 0.82111 0.0
C3269 C 0.91216 0.8382 0.77464 0.0
C3270 C 0.90754 0.85277 0.76166 0.0
C3271 C 0.83637 0.78108 0.76803 0.0
C3272 C 0.81084 0.73079 0.71946 0.0
C3273 C 0.82262 0.71868 0.72958 0.0
C3274 C 0.83894 0.71147 0.71958 0.0
C3275 C 0.84357 0.7168 0.69927 0.0
C3276 C 0.8157 0.73585 0.69915 0.0
C3277 C 0.83203 0.72895 0.6892 0.0
C3278 C 0.81305 0.7855 0.81542 0.0
C3279 C 0.7941 0.73883 0.73051 0.0
H3280 H 0.81303 0.89442 0.81469 0.0
H3281 H 0.75922 0.87904 0.84863 0.0
H3282 H 0.80423 0.84003 0.84915 0.0
H3283 H 0.77183 0.84855 0.8605 0.0
H3284 H 0.8193 0.71511 0.74548 0.0
H3285 H 0.85584 0.71122 0.69095 0.0
H3286 H 0.80697 0.74527 0.69104 0.0
H3287 H 0.8357 0.73293 0.67354 0.0
Eu3288 Eu 0.53805 0.52791 0.50771 0.0
C3289 C 0.59318 0.60736 0.5707 0.0
C3290 C 0.59741 0.63669 0.54986 0.0
C3291 C 0.59909 0.64603 0.58948 0.0
C3292 C 0.59352 0.61388 0.55077 0.0
C3293 C 0.59662 0.6234 0.59032 0.0
C3294 C 0.59948 0.65267 0.56927 0.0
C3295 C 0.59762 0.59387 0.61005 0.0
N3296 N 0.59126 0.58545 0.57091 0.0
C3297 C 0.59434 0.57862 0.59015 0.0
C3298 C 0.59841 0.61632 0.61016 0.0
Eu3299 Eu 0.58489 0.56045 0.5366 0.0
N3300 N 0.59189 0.59805 0.5324 0.0
C3301 C 0.5962 0.60406 0.51293 0.0
C3302 C 0.6001 0.64281 0.52961 0.0
C3303 C 0.59994 0.62643 0.51114 0.0
H3304 H 0.59372 0.56128 0.59021 0.0
H3305 H 0.60262 0.631 0.4955 0.0
H3306 H 0.60219 0.67025 0.56888 0.0
H3307 H 0.59953 0.58829 0.62526 0.0
H3308 H 0.59609 0.59159 0.4985 0.0
H3309 H 0.51809 0.46443 0.55844 0.0
H3310 H 0.60308 0.66014 0.5282 0.0
H3311 H 0.53011 0.51906 0.45272 0.0
H3312 H 0.5245 0.50166 0.55098 0.0
H3313 H 0.52629 0.48807 0.42098 0.0
H3314 H 0.6015 0.65859 0.60437 0.0
H3315 H 0.51914 0.43233 0.52942 0.0
H3316 H 0.52213 0.41749 0.49019 0.0
H3317 H 0.60108 0.62813 0.62559 0.0
H3318 H 0.52447 0.42387 0.45274 0.0
N3319 N 0.53006 0.49204 0.51748 0.0
C3320 C 0.52516 0.4884 0.53773 0.0
C3321 C 0.52202 0.44891 0.52583 0.0
C3322 C 0.52552 0.45234 0.50479 0.0
C3323 C 0.52137 0.46696 0.54222 0.0
C3324 C 0.52924 0.47432 0.50093 0.0
H3325 H 0.52551 0.44996 0.42676 0.0
N3326 N 0.53245 0.49884 0.47624 0.0
C3327 C 0.52768 0.48497 0.43739 0.0
C3328 C 0.53061 0.47785 0.47977 0.0
C3329 C 0.52985 0.50244 0.45539 0.0
C3330 C 0.52732 0.46352 0.44074 0.0
C3331 C 0.52826 0.45963 0.46207 0.0
O3332 O 0.50772 0.51775 0.48957 0.0
O3333 O 0.55574 0.56323 0.51902 0.0
O3334 O 0.5606 0.56594 0.56074 0.0
O3335 O 0.5331 0.53677 0.54536 0.0
O3336 O 0.54307 0.55439 0.48688 0.0
O3337 O 0.51315 0.54364 0.51844 0.0
O3338 O 0.61064 0.5501 0.55126 0.0
O3339 O 0.56769 0.52468 0.52381 0.0
O3340 O 0.56182 0.52742 0.48127 0.0
O3341 O 0.59084 0.55219 0.49985 0.0
O3342 O 0.58011 0.53292 0.55601 0.0
O3343 O 0.61535 0.56891 0.52551 0.0
C3344 C 0.55299 0.57089 0.50178 0.0
C3345 C 0.47945 0.52212 0.50898 0.0
C3346 C 0.44384 0.52441 0.51056 0.0
C3347 C 0.46363 0.53266 0.50512 0.0
C3348 C 0.44004 0.50546 0.52004 0.0
C3349 C 0.47554 0.50309 0.51825 0.0
C3350 C 0.45585 0.49482 0.52378 0.0
C3351 C 0.54241 0.55295 0.56233 0.0
C3352 C 0.49975 0.53127 0.50286 0.0
C3353 C 0.52599 0.438 0.46609 0.0
C3354 C 0.52463 0.43437 0.48742 0.0
C3355 C 0.5704 0.51668 0.54087 0.0
C3356 C 0.64361 0.57227 0.55099 0.0
C3357 C 0.66047 0.56274 0.54786 0.0
C3358 C 0.67972 0.57327 0.55924 0.0
C3359 C 0.68193 0.59396 0.57348 0.0
C3360 C 0.64593 0.59293 0.56513 0.0
C3361 C 0.6651 0.60375 0.57629 0.0
C3362 C 0.58114 0.53875 0.48149 0.0
C3363 C 0.62382 0.55978 0.53956 0.0
H3364 H 0.46681 0.54751 0.49814 0.0
H3365 H 0.42485 0.49881 0.52437 0.0
H3366 H 0.48761 0.49464 0.52112 0.0
H3367 H 0.45283 0.48014 0.53094 0.0
H3368 H 0.65849 0.54701 0.53642 0.0
H3369 H 0.69652 0.60241 0.58266 0.0
H3370 H 0.63305 0.60063 0.56756 0.0
H3371 H 0.66688 0.61966 0.58729 0.0
Eu3372 Eu 0.08302 0.54643 0.01141 0.0
C3373 C 0.00716 0.5011 0.04339 0.0
C3374 C 0.99335 0.47243 0.01131 0.0
C3375 C 0.98786 0.46481 0.04752 0.0
C3376 C 1.00475 0.49404 0.02089 0.0
C3377 C 0.99803 0.48683 0.0569 0.0
C3378 C 0.98554 0.45761 0.02476 0.0
C3379 C 0.00682 0.5181 0.08743 0.0
N3380 N 0.01664 0.52262 0.05191 0.0
C3381 C 0.0154 0.53165 0.07332 0.0
C3382 C 0.99846 0.49547 0.07926 0.0
Eu3383 Eu 0.03146 0.54407 0.02691 0.0
N3384 N 0.01225 0.50882 0.00833 0.0
C3385 C 0.00755 0.50374 0.98621 0.0
C3386 C 0.98938 0.46669 0.98853 0.0
C3387 C 0.99613 0.48259 0.97596 0.0
H3388 H 0.02182 0.54919 0.07959 0.0
H3389 H 0.99273 0.47851 0.95838 0.0
H3390 H 0.977 0.44084 0.0177 0.0
H3391 H 0.00657 0.52512 0.10453 0.0
H3392 H 0.01269 0.51592 0.97641 0.0
H3393 H 0.12867 0.61426 0.07554 0.0
H3394 H 0.98063 0.45028 0.98055 0.0
H3395 H 0.08657 0.54234 0.95648 0.0
H3396 H 0.11117 0.57592 0.05976 0.0
H3397 H 0.09446 0.56738 0.93068 0.0
H3398 H 0.98101 0.4535 0.05766 0.0
H3399 H 0.13324 0.64285 0.05273 0.0
H3400 H 0.12964 0.65214 0.01572 0.0
H3401 H 0.99161 0.48505 0.09017 0.0
H3402 H 0.1201 0.63942 0.97621 0.0
N3403 N 0.10369 0.58233 0.0281 0.0
C3404 C 0.11213 0.58798 0.04942 0.0
C3405 C 0.12515 0.62591 0.04561 0.0
C3406 C 0.11814 0.61969 0.02341 0.0
C3407 C 0.12255 0.60985 0.05853 0.0
C3408 C 0.10754 0.59742 0.01493 0.0
H3409 H 0.10736 0.60786 0.94436 0.0
N3410 N 0.09322 0.56849 0.98487 0.0
C3411 C 0.09638 0.57415 0.94807 0.0
C3412 C 0.10199 0.59033 0.9927 0.0
C3413 C 0.09174 0.56004 0.96286 0.0
C3414 C 0.10362 0.59695 0.95585 0.0
C3415 C 0.10711 0.60524 0.97839 0.0
O3416 O 0.09985 0.52747 0.98893 0.0
O3417 O 0.05127 0.52342 0.00829 0.0
O3418 O 0.0491 0.53389 0.05363 0.0
O3419 O 0.08282 0.54792 0.04743 0.0
O3420 O 0.07584 0.51211 0.01951 0.0
O3421 O 0.11134 0.53855 0.02309 0.0
O3422 O 0.01248 0.56551 0.04285 0.0
O3423 O 0.06078 0.56769 0.02293 0.0
O3424 O 0.06034 0.53859 0.98118 0.0
O3425 O 0.03631 0.55678 0.99579 0.0
O3426 O 0.04773 0.57464 0.05198 0.0
O3427 O 1.00424 0.54907 0.00924 0.0
C3428 C 0.05644 0.50664 0.01393 0.0
C3429 C 0.13552 0.53105 0.99837 0.0
C3430 C 0.16808 0.5192 0.99908 0.0
C3431 C 0.14761 0.51685 1.00428 0.0
C3432 C 0.17614 0.53615 0.98785 0.0
C3433 C 0.14396 0.54796 0.98748 0.0
C3434 C 0.1642 0.55043 0.98223 0.0
C3435 C 0.06897 0.53917 0.05936 0.0
C3436 C 0.11423 0.52788 1.00403 0.0
C3437 C 0.11639 0.62769 0.98694 0.0
C3438 C 0.12188 0.63491 0.00942 0.0
C3439 C 0.06223 0.58205 0.0406 0.0
C3440 C 0.97726 0.5563 0.03002 0.0
C3441 C 0.96401 0.56949 0.02432 0.0
C3442 C 0.94301 0.56396 0.02758 0.0
C3443 C 0.93569 0.54547 0.03708 0.0
C3444 C 0.96946 0.53778 0.03914 0.0
C3445 C 0.94884 0.53252 0.04279 0.0
C3446 C 0.04559 0.5492 0.97904 0.0
C3447 C 0.99904 0.56162 0.02596 0.0
H3448 H 0.14106 0.50414 0.01315 0.0
H3449 H 0.19162 0.53825 0.98308 0.0
H3450 H 0.13493 0.55916 0.98302 0.0
H3451 H 0.17064 0.56339 0.97365 0.0
H3452 H 0.9699 0.58364 0.01696 0.0
H3453 H 0.91973 0.54104 0.04016 0.0
H3454 H 0.97923 0.52732 0.04341 0.0
H3455 H 0.94299 0.51826 0.04996 0.0
H3456 H 0.03707 0.17081 0.00691 0.0
H3457 H 0.04522 0.15192 0.93859 0.0
H3458 H 0.05135 0.11649 0.94447 0.0
H3459 H 0.05403 0.08996 0.96836 0.0
H3460 H 0.04678 0.10755 0.03683 0.0
H3461 H 0.04093 0.14387 0.03166 0.0
C3462 C 0.04013 0.15894 0.99329 0.0
C3463 C 0.0407 0.16454 0.9722 0.0
C3464 C 0.04396 0.13815 0.99684 0.0
C3465 C 0.04488 0.14864 0.95499 0.0
C3466 C 0.04835 0.12814 0.95833 0.0
C3467 C 0.05131 0.10178 0.98226 0.0
C3468 C 0.05113 0.09588 1.00304 0.0
C3469 C 0.04795 0.12265 0.9791 0.0
C3470 C 0.04736 0.11153 0.02072 0.0
C3471 C 0.04386 0.13235 0.01767 0.0
H3472 H 0.2027 0.78706 0.17807 0.0
H3473 H 0.19536 0.84631 0.2216 0.0
H3474 H 0.22417 0.84452 0.2461 0.0
H3475 H 0.2516 0.82614 0.25583 0.0
H3476 H 0.25743 0.76559 0.21367 0.0
H3477 H 0.22912 0.76778 0.18862 0.0
C3478 C 0.20711 0.79953 0.19298 0.0
C3479 C 0.19654 0.81698 0.19746 0.0
C3480 C 0.22367 0.79821 0.20751 0.0
C3481 C 0.20315 0.83295 0.21701 0.0
C3482 C 0.21965 0.83184 0.23133 0.0
C3483 C 0.24684 0.81343 0.24116 0.0
C3484 C 0.25744 0.79608 0.23654 0.0
C3485 C 0.2301 0.81458 0.22679 0.0
C3486 C 0.25035 0.7796 0.21751 0.0
C3487 C 0.23389 0.78073 0.20316 0.0
H3488 H 0.54395 0.90562 0.512 0.0
H3489 H 0.53882 0.89983 0.44197 0.0
H3490 H 0.54421 0.94006 0.44645 0.0
H3491 H 0.55162 0.9773 0.46975 0.0
H3492 H 0.55685 0.98472 0.53975 0.0
H3493 H 0.54985 0.94393 0.53588 0.0
C3494 C 0.54401 0.91318 0.49774 0.0
C3495 C 0.54084 0.89934 0.47658 0.0
C3496 C 0.54698 0.93679 0.50043 0.0
C3497 C 0.54091 0.9097 0.45841 0.0
C3498 C 0.54407 0.93286 0.46095 0.0
C3499 C 0.55097 0.97 0.48421 0.0
C3500 C 0.55454 0.98418 0.50501 0.0
C3501 C 0.54719 0.94659 0.4818 0.0
C3502 C 0.55382 0.97433 0.52353 0.0
C3503 C 0.55001 0.95092 0.52127 0.0
H3504 H 0.48981 0.32273 0.68337 0.0
H3505 H 0.51284 0.26602 0.69447 0.0
H3506 H 0.4838 0.25461 0.71481 0.0
H3507 H 0.45224 0.26071 0.73003 0.0
H3508 H 0.42947 0.31816 0.72093 0.0
H3509 H 0.45743 0.32866 0.69863 0.0
C3510 C 0.4884 0.3078 0.69013 0.0
C3511 C 0.50376 0.29544 0.68752 0.0
C3512 C 0.47154 0.30128 0.70205 0.0
C3513 C 0.5016 0.27617 0.69651 0.0
C3514 C 0.48487 0.2695 0.70806 0.0
C3515 C 0.45339 0.27569 0.72342 0.0
C3516 C 0.43867 0.28866 0.72751 0.0
C3517 C 0.46985 0.28201 0.71111 0.0
C3518 C 0.44032 0.30763 0.71804 0.0
C3519 C 0.45649 0.3138 0.7054 0.0
H3520 H 0.01413 0.86764 0.58967 0.0
H3521 H 0.06463 0.83655 0.57468 0.0
H3522 H 0.07331 0.8588 0.54689 0.0
H3523 H 0.06702 0.88765 0.52748 0.0
H3524 H 0.01654 0.91878 0.54249 0.0
H3525 H 0.00758 0.89621 0.56994 0.0
C3526 C 0.02713 0.86591 0.58044 0.0
C3527 C 0.03872 0.85053 0.58417 0.0
C3528 C 0.03204 0.87874 0.56454 0.0
C3529 C 0.05535 0.84816 0.5719 0.0
C3530 C 0.06037 0.8609 0.55608 0.0
C3531 C 0.05385 0.8892 0.5365 0.0
C3532 C 0.04242 0.90474 0.53293 0.0
C3533 C 0.0488 0.87621 0.55225 0.0
C3534 C 0.02565 0.90696 0.54506 0.0
C3535 C 0.0205 0.89407 0.56073 0.0
H3536 H 0.51916 0.84342 0.82011 0.0
H3537 H 0.48814 0.77552 0.81894 0.0
H3538 H 0.45634 0.78215 0.80278 0.0
H3539 H 0.43763 0.80749 0.78962 0.0
H3540 H 0.46791 0.87667 0.79482 0.0
H3541 H 0.50001 0.86917 0.80822 0.0
C3542 C 0.50543 0.83009 0.81605 0.0
C3543 C 0.50579 0.80899 0.82028 0.0
C3544 C 0.48722 0.83425 0.80748 0.0
C3545 C 0.48801 0.79183 0.81554 0.0
C3546 C 0.46993 0.79565 0.80639 0.0
C3547 C 0.45111 0.82107 0.79397 0.0
C3548 C 0.45023 0.84264 0.79115 0.0
C3549 C 0.46935 0.81686 0.80246 0.0
C3550 C 0.46812 0.85981 0.7964 0.0
C3551 C 0.48648 0.8556 0.80427 0.0
H3552 H 0.50077 0.15274 0.09239 0.0
H3553 H 0.5563 0.16665 0.13592 0.0
H3554 H 0.56528 0.13306 0.11665 0.0
H3555 H 0.55838 0.10119 0.08624 0.0
H3556 H 0.5021 0.08623 0.04367 0.0
H3557 H 0.49225 0.11874 0.06404 0.0
C3558 C 0.51463 0.14819 0.09792 0.0
C3559 C 0.52799 0.16227 0.11531 0.0
C3560 C 0.51963 0.12882 0.08689 0.0
C3561 C 0.54599 0.15628 0.12222 0.0
C3562 C 0.55109 0.13705 0.11131 0.0
C3563 C 0.54388 0.1049 0.08151 0.0
C3564 C 0.53129 0.09173 0.0631 0.0
C3565 C 0.53821 0.12344 0.0934 0.0
C3566 C 0.51238 0.09654 0.05741 0.0
C3567 C 0.50665 0.11504 0.06912 0.0
H3568 H 0.19762 0.32142 0.29452 0.0
H3569 H 0.22122 0.3256 0.36118 0.0
H3570 H 0.2559 0.32886 0.35025 0.0
H3571 H 0.2789 0.32656 0.32129 0.0
H3572 H 0.25598 0.32209 0.25463 0.0
H3573 H 0.22168 0.32373 0.266 0.0
C3574 C 0.21041 0.32349 0.3067 0.0
C3575 C 0.2068 0.32277 0.32853 0.0
C3576 C 0.23037 0.32537 0.3003 0.0
C3577 C 0.22353 0.32545 0.34415 0.0
C3578 C 0.24339 0.32756 0.33798 0.0
C3579 C 0.26634 0.32615 0.30938 0.0
C3580 C 0.26934 0.32319 0.28718 0.0
C3581 C 0.24687 0.32685 0.31603 0.0
C3582 C 0.25354 0.32364 0.27178 0.0
C3583 C 0.23404 0.3246 0.27829 0.0
H3584 H 0.02016 0.08628 0.16415 0.0
H3585 H 0.97199 0.02661 0.14502 0.0
H3586 H 0.9849 0.01907 0.10953 0.0
H3587 H 0.01014 0.02873 0.08221 0.0
H3588 H 0.05737 0.08905 0.10097 0.0
H3589 H 0.04473 0.09641 0.13673 0.0
C3590 C 0.01222 0.07159 0.1524 0.0
C3591 C 0.99484 0.05706 0.15865 0.0
C3592 C 0.01977 0.06716 0.13108 0.0
C3593 C 0.9855 0.03821 0.14211 0.0
C3594 C 0.99288 0.03382 0.12121 0.0
C3595 C 0.01775 0.04357 0.09398 0.0
C3596 C 0.03532 0.05803 0.08805 0.0
C3597 C 0.01009 0.04805 0.11527 0.0
C3598 C 0.04435 0.07709 0.10434 0.0
C3599 C 0.03691 0.0815 0.12516 0.0
H3600 H 0.27263 0.69461 0.40942 0.0
H3601 H 0.31623 0.75467 0.44106 0.0
H3602 H 0.30586 0.77424 0.41328 0.0
H3603 H 0.2817 0.77498 0.38253 0.0
H3604 H 0.23858 0.71436 0.35068 0.0
H3605 H 0.25122 0.69429 0.37639 0.0
C3606 C 0.27999 0.71193 0.41002 0.0
C3607 C 0.29494 0.72337 0.42722 0.0
C3608 C 0.27379 0.72299 0.39428 0.0
C3609 C 0.30467 0.74564 0.42784 0.0
C3610 C 0.29864 0.75681 0.4121 0.0
C3611 C 0.27534 0.75729 0.38089 0.0
C3612 C 0.25892 0.74629 0.36495 0.0
C3613 C 0.28283 0.74577 0.39559 0.0
C3614 C 0.25081 0.72337 0.36319 0.0
C3615 C 0.25814 0.71183 0.37776 0.0
H3616 H 0.64146 0.05326 0.64724 0.0
H3617 H 0.59894 0.99304 0.65359 0.0
H3618 H 0.57716 0.99546 0.62173 0.0
H3619 H 0.57137 0.01391 0.59107 0.0
H3620 H 0.6154 0.07326 0.58483 0.0
H3621 H 0.63566 0.07168 0.61755 0.0
C3622 C 0.62762 0.0404 0.64147 0.0
C3623 C 0.62201 0.02277 0.65243 0.0
C3624 C 0.61549 0.04173 0.62318 0.0
C3625 C 0.60361 1.00674 0.64529 0.0
C3626 C 0.59121 1.00809 0.6271 0.0
C3627 C 0.58529 0.02658 0.59705 0.0
C3628 C 0.59198 0.04355 0.5855 0.0
C3629 C 0.59712 0.02543 0.61581 0.0
C3630 C 0.61004 0.05987 0.5933 0.0
C3631 C 0.62166 0.05903 0.61204 0.0
H3632 H 0.32176 0.36114 0.90283 0.0
H3633 H 0.30753 0.29715 0.9218 0.0
H3634 H 0.30523 0.27844 0.88372 0.0
H3635 H 0.3055 0.27987 0.84459 0.0
H3636 H 0.31931 0.34344 0.82526 0.0
H3637 H 0.32413 0.36256 0.86371 0.0
C3638 C 0.31846 0.3431 0.89877 0.0
C3639 C 0.31459 0.33072 0.9155 0.0
C3640 C 0.31727 0.33228 0.87663 0.0
C3641 C 0.3101 0.30729 0.90952 0.0
C3642 C 0.30895 0.29649 0.88765 0.0
C3643 C 0.31001 0.29791 0.84889 0.0
C3644 C 0.31273 0.31019 0.83212 0.0
C3645 C 0.31227 0.30877 0.87103 0.0
C3646 C 0.31787 0.33357 0.83785 0.0
C3647 C 0.32036 0.34451 0.85986 0.0
H3648 H 0.97872 0.0498 0.40854 0.0
H3649 H 0.03563 0.07698 0.38413 0.0
H3650 H 0.05468 0.07369 0.41725 0.0
H3651 H 0.05607 0.06477 0.45545 0.0
H3652 H 0.99877 0.03851 0.47946 0.0
H3653 H 0.98006 0.03979 0.44537 0.0
C3654 C 0.99529 0.05515 0.41018 0.0
C3655 C 1.00511 0.06366 0.39265 0.0
C3656 C 0.00664 0.05327 0.42991 0.0
C3657 C 0.0269 0.07003 0.39626 0.0
C3658 C 0.0381 0.06826 0.41568 0.0
C3659 C 0.03955 0.05876 0.45313 0.0
C3660 C 0.02924 0.05094 0.47072 0.0
C3661 C 0.02831 0.05995 0.4329 0.0
C3662 C 0.00758 0.04421 0.46675 0.0
C3663 C 0.99664 0.0451 0.447 0.0
H3664 H 0.30974 0.75118 0.62864 0.0
H3665 H 0.29829 0.68637 0.64595 0.0
H3666 H 0.29604 0.70329 0.6838 0.0
H3667 H 0.29825 0.73643 0.71206 0.0
H3668 H 0.31137 0.80148 0.69539 0.0
H3669 H 0.31229 0.7845 0.65715 0.0
C3670 C 0.30697 0.74078 0.64074 0.0
C3671 C 0.30412 0.71755 0.63446 0.0
C3672 C 0.30597 0.75063 0.66253 0.0
C3673 C 0.30022 0.70427 0.65027 0.0
C3674 C 0.29903 0.71393 0.67194 0.0
C3675 C 0.30105 0.74689 0.70004 0.0
C3676 C 0.30466 0.77014 0.70648 0.0
C3677 C 0.30188 0.73707 0.67823 0.0
C3678 C 0.30855 0.7835 0.69077 0.0
C3679 C 0.30911 0.77382 0.66894 0.0
H3680 H 0.59551 0.04618 0.82253 0.0
H3681 H 0.64487 0.08725 0.86917 0.0
H3682 H 0.62057 0.09275 0.89626 0.0
H3683 H 0.5858 0.08391 0.90723 0.0
H3684 H 0.53675 0.04095 0.86143 0.0
H3685 H 0.56043 0.03844 0.83315 0.0
C3686 C 0.60091 0.05627 0.83866 0.0
C3687 C 0.62188 0.06614 0.84401 0.0
C3688 C 0.58695 0.05911 0.85415 0.0
C3689 C 0.62873 0.07959 0.86473 0.0
C3690 C 0.61489 0.08266 0.88021 0.0
C3691 C 0.5803 0.07409 0.891 0.0
C3692 C 0.55966 0.06251 0.88635 0.0
C3693 C 0.59404 0.07223 0.87516 0.0
C3694 C 0.55256 0.05015 0.86524 0.0
C3695 C 0.56611 0.04854 0.84919 0.0
H3696 H 0.28231 0.33203 0.13958 0.0
H3697 H 0.34583 0.36769 0.15082 0.0
H3698 H 0.34828 0.35856 0.18692 0.0
H3699 H 0.33269 0.34044 0.21553 0.0
H3700 H 0.26912 0.30566 0.2051 0.0
H3701 H 0.26635 0.31476 0.16897 0.0
C3702 C 0.29667 0.33798 0.14993 0.0
C3703 C 0.31392 0.35038 0.14204 0.0
C3704 C 0.29801 0.33278 0.171 0.0
C3705 C 0.33238 0.35771 0.15594 0.0
C3706 C 0.33377 0.35266 0.1768 0.0
C3707 C 0.31821 0.33469 0.2054 0.0
C3708 C 0.30133 0.32138 0.21293 0.0
C3709 C 0.31674 0.34014 0.18451 0.0
C3710 C 0.28265 0.3148 0.19953 0.0
C3711 C 0.28099 0.32033 0.17885 0.0
H3712 H 0.216 0.97025 0.03585 0.0
H3713 H 0.26759 0.0213 0.06937 0.0
H3714 H 0.24514 0.04695 0.07842 0.0
H3715 H 0.21109 0.05481 0.07662 0.0
H3716 H 0.15901 1.00342 0.04457 0.0
H3717 H 0.18155 0.97805 0.03456 0.0
C3718 C 0.22226 0.98705 0.045 0.0
C3719 C 0.24329 0.99398 0.052 0.0
C3720 C 0.20926 1.0016 0.05028 0.0
C3721 C 0.25134 0.01564 0.06403 0.0
C3722 C 0.23857 0.03029 0.06913 0.0
C3723 C 0.2046 0.03795 0.06776 0.0
C3724 C 0.18343 0.03098 0.06148 0.0
C3725 C 0.21752 0.02339 0.06243 0.0
C3726 C 0.17532 0.00926 0.04946 0.0
C3727 C 0.18815 0.99471 0.04382 0.0
H3728 H 0.68967 0.59676 0.98932 0.0
H3729 H 0.68431 0.65235 0.03908 0.0
H3730 H 0.64989 0.63288 0.04413 0.0
H3731 H 0.62118 0.60004 0.03473 0.0
H3732 H 0.62578 0.54507 0.98387 0.0
H3733 H 0.66035 0.56431 0.97899 0.0
C3734 C 0.68093 0.60474 1.00112 0.0
C3735 C 0.68984 0.62599 0.01393 0.0
C3736 C 0.66091 0.59349 1.00387 0.0
C3737 C 0.67818 0.63586 0.02927 0.0
C3738 C 0.65836 0.62478 0.03211 0.0
C3739 C 0.62969 0.59221 0.02255 0.0
C3740 C 0.62081 0.57089 0.00991 0.0
C3741 C 0.64958 0.60354 0.01959 0.0
C3742 C 0.6322 0.56122 0.99415 0.0
C3743 C 0.65202 0.57231 0.99122 0.0
H3744 H 0.75994 0.41507 0.297 0.0
H3745 H 0.73547 0.39432 0.22926 0.0
H3746 H 0.75171 0.36291 0.22555 0.0
H3747 H 0.77212 0.33849 0.24141 0.0
H3748 H 0.79486 0.35834 0.30946 0.0
H3749 H 0.78056 0.39136 0.31257 0.0
C3750 C 0.75795 0.40391 0.28125 0.0
C3751 C 0.74601 0.40856 0.26346 0.0
C3752 C 0.76752 0.38488 0.279 0.0
C3753 C 0.74443 0.39276 0.24354 0.0
C3754 C 0.75384 0.37415 0.2413 0.0
C3755 C 0.77466 0.35033 0.2568 0.0
C3756 C 0.78594 0.3456 0.27497 0.0
C3757 C 0.76554 0.36975 0.25883 0.0
C3758 C 0.78732 0.36122 0.29482 0.0
C3759 C 0.77878 0.38033 0.29674 0.0
H3760 H 0.9403 0.5232 0.52943 0.0
H3761 H 0.93872 0.45301 0.52234 0.0
H3762 H 0.97583 0.46055 0.52171 0.0
H3763 H 0.00881 0.48699 0.52304 0.0
H3764 H 0.01044 0.55687 0.52866 0.0
H3765 H 0.97324 0.54958 0.52978 0.0
C3766 C 0.94806 0.50955 0.52758 0.0
C3767 C 0.93678 0.48764 0.52622 0.0
C3768 C 0.96939 0.51393 0.52693 0.0
C3769 C 0.94709 0.47012 0.52395 0.0
C3770 C 0.9683 0.47436 0.52343 0.0
C3771 C 1.00091 0.50053 0.52447 0.0
C3772 C 0.01205 0.52227 0.52522 0.0
C3773 C 0.97959 0.49618 0.52499 0.0
C3774 C 1.00195 0.53988 0.52744 0.0
C3775 C 0.98074 0.53575 0.52824 0.0
H3776 H 0.36679 0.15658 0.29245 0.0
H3777 H 0.32385 0.09263 0.27696 0.0
H3778 H 0.29918 0.10871 0.25906 0.0
H3779 H 0.29086 0.14007 0.24545 0.0
H3780 H 0.33399 0.2038 0.25927 0.0
H3781 H 0.3576 0.18874 0.28037 0.0
C3782 C 0.35197 0.14627 0.28525 0.0
C3783 C 0.34708 0.12355 0.28605 0.0
C3784 C 0.33801 0.15551 0.27462 0.0
C3785 C 0.3278 0.11028 0.27685 0.0
C3786 C 0.31377 0.11939 0.26644 0.0
C3787 C 0.30544 0.15061 0.2531 0.0
C3788 C 0.31091 0.17279 0.25063 0.0
C3789 C 0.31889 0.14183 0.26488 0.0
C3790 C 0.32956 0.18658 0.261 0.0
C3791 C 0.34305 0.17798 0.27294 0.0
H3792 H 0.4084 0.14505 0.52705 0.0
H3793 H 0.35768 0.08927 0.5012 0.0
H3794 H 0.37956 0.06347 0.50481 0.0
H3795 H 0.41264 0.05645 0.51617 0.0
H3796 H 0.4633 0.11171 0.54343 0.0
H3797 H 0.44201 0.1379 0.53812 0.0
C3798 C 0.40211 0.12725 0.52228 0.0
C3799 C 0.38137 0.1192 0.51374 0.0
C3800 C 0.41479 0.11236 0.52459 0.0
C3801 C 0.37362 0.09604 0.50744 0.0
C3802 C 0.38609 0.08121 0.50964 0.0
C3803 C 0.41903 0.07422 0.5211 0.0
C3804 C 0.43952 0.08201 0.5304 0.0
C3805 C 0.40664 0.08916 0.51831 0.0
C3806 C 0.44764 0.10516 0.53612 0.0
C3807 C 0.43541 0.12018 0.53324 0.0
H3808 H 0.72935 0.65208 0.26005 0.0
H3809 H 0.77899 0.63743 0.29764 0.0
H3810 H 0.79905 0.67505 0.2998 0.0
H3811 H 0.80311 0.71341 0.29184 0.0
H3812 H 0.75278 0.72828 0.25578 0.0
H3813 H 0.73297 0.69033 0.25293 0.0
C3814 C 0.74444 0.65686 0.26897 0.0
C3815 C 0.75219 0.64076 0.27839 0.0
C3816 C 0.75616 0.67923 0.27064 0.0
C3817 C 0.77218 0.64835 0.28956 0.0
C3818 C 0.78385 0.67033 0.29106 0.0
C3819 C 0.78786 0.70844 0.28324 0.0
C3820 C 0.77987 0.72438 0.27394 0.0
C3821 C 0.77611 0.68607 0.28169 0.0
C3822 C 0.75978 0.71699 0.26316 0.0
C3823 C 0.74826 0.69499 0.26147 0.0
H3824 H 0.84521 0.43066 0.77755 0.0
H3825 H 0.90866 0.42855 0.79058 0.0
H3826 H 0.89877 0.38847 0.7882 0.0
H3827 H 0.87237 0.35382 0.78131 0.0
H3828 H 0.80885 0.35544 0.76907 0.0
H3829 H 0.81841 0.39594 0.77245 0.0
C3830 C 0.85682 0.42144 0.7801 0.0
C3831 C 0.87765 0.43249 0.78385 0.0
C3832 C 0.85103 0.39835 0.77882 0.0
C3833 C 0.89255 0.42033 0.7871 0.0
C3834 C 0.88693 0.39744 0.78587 0.0
C3835 C 0.86068 0.36315 0.77949 0.0
C3836 C 0.84002 0.35197 0.77537 0.0
C3837 C 0.86628 0.38626 0.78147 0.0
C3838 C 0.82488 0.36394 0.7727 0.0
C3839 C 0.83034 0.38702 0.77453 0.0
H3840 H 0.08451 0.91988 0.04329 0.0
H3841 H 0.08505 0.94294 0.11284 0.0
H3842 H 0.07978 0.97854 0.10676 0.0
H3843 H 0.07539 1.00414 0.08235 0.0
H3844 H 0.07544 0.98299 0.01289 0.0
H3845 H 0.07959 0.94614 0.01823 0.0
C3846 C 0.08338 0.93259 0.05717 0.0
C3847 C 0.08564 0.92824 0.0787 0.0
C3848 C 0.08024 0.95365 0.05356 0.0
C3849 C 0.08404 0.94541 0.09617 0.0
C3850 C 0.08081 0.96597 0.0927 0.0
C3851 C 0.07618 0.99146 0.06827 0.0
C3852 C 0.07461 0.99649 0.04714 0.0
C3853 C 0.079 0.97041 0.07156 0.0
C3854 C 0.07606 0.97971 0.02929 0.0
C3855 C 0.07862 0.95857 0.03242 0.0
H3856 H 0.91922 0.25413 0.83571 0.0
H3857 H 0.91847 0.30789 0.88961 0.0
H3858 H 0.88882 0.31578 0.87105 0.0
H3859 H 0.86283 0.30791 0.83935 0.0
H3860 H 0.86235 0.25302 0.7863 0.0
H3861 H 0.89217 0.24518 0.80467 0.0
C3862 C 0.91252 0.26744 0.84359 0.0
C3863 C 0.92165 0.28051 0.86413 0.0
C3864 C 0.89504 0.27186 0.83285 0.0
C3865 C 0.91246 0.29777 0.87369 0.0
C3866 C 0.89524 0.30226 0.86311 0.0
C3867 C 0.86921 0.29425 0.8317 0.0
C3868 C 0.86038 0.28153 0.81097 0.0
C3869 C 0.88642 0.28954 0.84261 0.0
C3870 C 0.86893 0.26364 0.8018 0.0
C3871 C 0.88602 0.25897 0.81246 0.0
H3872 H 0.594 0.18408 0.58958 0.0
H3873 H 0.57245 0.19155 0.52565 0.0
H3874 H 0.56665 0.15137 0.51243 0.0
H3875 H 0.56549 0.11308 0.51954 0.0
H3876 H 0.58649 0.10655 0.58384 0.0
H3877 H 0.59545 0.14698 0.59584 0.0
C3878 C 0.58843 0.1772 0.5726 0.0
C3879 C 0.58363 0.19141 0.55886 0.0
C3880 C 0.58522 0.15388 0.56493 0.0
C3881 C 0.57598 0.18145 0.53699 0.0
C3882 C 0.5728 0.15828 0.52925 0.0
C3883 C 0.57266 0.12059 0.53593 0.0
C3884 C 0.57582 0.10665 0.5506 0.0
C3885 C 0.57713 0.14418 0.5431 0.0
C3886 C 0.58431 0.11678 0.57208 0.0
C3887 C 0.58924 0.13997 0.57904 0.0
H3888 H 0.63987 0.78155 0.37581 0.0
H3889 H 0.59425 0.78343 0.32494 0.0
H3890 H 0.62046 0.78848 0.29998 0.0
H3891 H 0.65612 0.79307 0.29229 0.0
H3892 H 0.70292 0.79561 0.34358 0.0
H3893 H 0.67646 0.78777 0.36831 0.0
C3894 C 0.63562 0.78325 0.35934 0.0
C3895 C 0.61479 0.78167 0.35241 0.0
C3896 C 0.65102 0.78686 0.34496 0.0
C3897 C 0.60985 0.7838 0.33082 0.0
C3898 C 0.62493 0.78695 0.31645 0.0
C3899 C 0.66074 0.7923 0.30896 0.0
C3900 C 0.68172 0.79525 0.31593 0.0
C3901 C 0.64554 0.78857 0.32333 0.0
C3902 C 0.687 0.79327 0.33749 0.0
C3903 C 0.67183 0.78898 0.35178 0.0
H3904 H 0.06961 0.2104 0.44202 0.0
H3905 H 0.11746 0.2615 0.48224 0.0
H3906 H 0.11262 0.24217 0.51268 0.0
H3907 H 0.09495 0.21058 0.52779 0.0
H3908 H 0.0461 0.16053 0.48796 0.0
H3909 H 0.05093 0.1799 0.45755 0.0
C3910 C 0.07882 0.21747 0.45752 0.0
C3911 C 0.09393 0.23729 0.45979 0.0
C3912 C 0.0757 0.20656 0.47507 0.0
C3913 C 0.10598 0.24602 0.47989 0.0
C3914 C 0.10309 0.23511 0.49739 0.0
C3915 C 0.08514 0.20418 0.51259 0.0
C3916 C 0.07021 0.18424 0.51011 0.0
C3917 C 0.08799 0.21538 0.49516 0.0
C3918 C 0.05782 0.17583 0.49018 0.0
C3919 C 0.06055 0.18687 0.4728 0.0
H3920 H 0.60626 0.24184 0.23631 0.0
H3921 H 0.63162 0.31263 0.24729 0.0
H3922 H 0.66448 0.30726 0.26201 0.0
H3923 H 0.68639 0.28197 0.26976 0.0
H3924 H 0.66074 0.21109 0.25727 0.0
H3925 H 0.62753 0.21695 0.24496 0.0
C3926 C 0.619 0.2561 0.24192 0.0
C3927 C 0.61667 0.27756 0.24053 0.0
C3928 C 0.63776 0.25284 0.24994 0.0
C3929 C 0.63309 0.29596 0.2483 0.0
C3930 C 0.65188 0.29286 0.25654 0.0
C3931 C 0.67351 0.26784 0.2643 0.0
C3932 C 0.67599 0.24613 0.26441 0.0
C3933 C 0.65447 0.27132 0.25709 0.0
C3934 C 0.65914 0.22797 0.25757 0.0
C3935 C 0.6402 0.23129 0.25043 0.0
H3936 H 0.58047 0.92738 0.93319 0.0
H3937 H 0.62946 0.9321 0.98272 0.0
H3938 H 0.62094 0.96528 1.00409 0.0
H3939 H 0.59918 0.99207 0.00863 0.0
H3940 H 0.54836 0.98532 0.96033 0.0
H3941 H 0.55851 0.95408 0.93794 0.0
C3942 C 0.58945 0.93594 0.94851 0.0
C3943 C 0.60567 0.92771 0.95639 0.0
C3944 C 0.58419 0.95451 0.96076 0.0
C3945 C 0.61695 0.93839 0.97645 0.0
C3946 C 0.6121 0.95726 0.98858 0.0
C3947 C 0.5901 0.9836 0.9934 0.0
C3948 C 0.57277 0.99069 0.98643 0.0
C3949 C 0.59563 0.96529 0.98095 0.0
C3950 C 0.56166 0.98005 0.9662 0.0
C3951 C 0.56741 0.96216 0.95339 0.0
H3952 H 0.9111 0.79599 0.7121 0.0
H3953 H 0.92894 0.74834 0.7466 0.0
H3954 H 0.89804 0.74643 0.76588 0.0
H3955 H 0.86589 0.75849 0.77292 0.0
H3956 H 0.84846 0.80583 0.7378 0.0
H3957 H 0.87934 0.80788 0.71895 0.0
C3958 C 0.90838 0.78543 0.72406 0.0
C3959 C 0.92229 0.77245 0.72803 0.0
C3960 C 0.89069 0.7844 0.73501 0.0
C3961 C 0.91834 0.75842 0.7432 0.0
C3962 C 0.90075 0.75738 0.75428 0.0
C3963 C 0.86903 0.7693 0.76123 0.0
C3964 C 0.85535 0.78248 0.75723 0.0
C3965 C 0.8868 0.77028 0.75028 0.0
C3966 C 0.85909 0.79598 0.74159 0.0
C3967 C 0.87669 0.79709 0.73071 0.0
H3968 H 0.14268 0.05075 0.90621 0.0
H3969 H 0.09518 0.99647 0.8699 0.0
H3970 H 0.07597 0.99674 0.90183 0.0
H3971 H 0.07176 0.01186 0.94131 0.0
H3972 H 0.11922 0.06622 0.97737 0.0
H3973 H 0.13844 0.06591 0.94539 0.0
C3974 C 0.12819 0.03878 0.905 0.0
C3975 C 0.1209 0.0237 0.88446 0.0
C3976 C 0.11673 0.03888 0.92405 0.0
C3977 C 0.1017 0.00875 0.88446 0.0
C3978 C 0.09048 0.00873 0.90317 0.0
C3979 C 0.08626 0.02376 0.94237 0.0
C3980 C 0.0935 0.03913 0.9627 0.0
C3981 C 0.09767 0.0237 0.92324 0.0
C3982 C 0.11265 0.0541 0.96268 0.0
C3983 C 0.12391 0.05396 0.94405 0.0
H3984 H 0.81676 0.33697 0.57773 0.0
H3985 H 0.85105 0.3928 0.62625 0.0
H3986 H 0.85684 0.36769 0.65024 0.0
H3987 H 0.85075 0.33035 0.65803 0.0
H3988 H 0.81428 0.27465 0.61103 0.0
H3989 H 0.81108 0.29925 0.58543 0.0
C3990 C 0.82537 0.3436 0.59363 0.0
C3991 C 0.83338 0.36661 0.60035 0.0
C3992 C 0.8284 0.32914 0.6074 0.0
C3993 C 0.84488 0.37507 0.62074 0.0
C3994 C 0.84814 0.36077 0.63445 0.0
C3995 C 0.84215 0.3236 0.64214 0.0
C3996 C 0.83264 0.30085 0.63637 0.0
C3997 C 0.83981 0.33785 0.628 0.0
C3998 C 0.82187 0.29213 0.61565 0.0
C3999 C 0.81986 0.30619 0.60117 0.0
H4000 H 0.50548 0.0743 0.40556 0.0
H4001 H 0.45531 0.02463 0.41957 0.0
H4002 H 0.4765 0.01929 0.45023 0.0
H4003 H 0.50876 0.0284 0.47244 0.0
H4004 H 0.55952 0.0783 0.45966 0.0
H4005 H 0.53856 0.08372 0.42862 0.0
C4006 C 0.49924 0.0625 0.41552 0.0
C4007 C 0.47899 0.04984 0.41051 0.0
C4008 C 0.51155 0.05941 0.433 0.0
C4009 C 0.47096 0.03438 0.4232 0.0
C4010 C 0.48302 0.03134 0.44065 0.0
C4011 C 0.51538 0.04051 0.46297 0.0
C4012 C 0.53564 0.05298 0.46837 0.0
C4013 C 0.5033 0.04368 0.44556 0.0
C4014 C 0.54394 0.06844 0.45574 0.0
C4015 C 0.53195 0.07162 0.43811 0.0
H4016 H 0.8082 0.78235 0.13819 0.0
H4017 H 0.79446 0.71085 0.13105 0.0
H4018 H 0.79539 0.7145 0.1706 0.0
H4019 H 0.80142 0.7377 0.20727 0.0
H4020 H 0.81419 0.80916 0.21567 0.0
H4021 H 0.81198 0.80597 0.17576 0.0
C4022 C 0.80537 0.76765 0.14539 0.0
C4023 C 0.80128 0.74633 0.13169 0.0
C4024 C 0.80562 0.76987 0.16834 0.0
C4025 C 0.7975 0.7274 0.1412 0.0
C4026 C 0.79807 0.72947 0.16382 0.0
C4027 C 0.80348 0.75257 0.20032 0.0
C4028 C 0.80777 0.7736 0.21432 0.0
C4029 C 0.80223 0.75056 0.17753 0.0
C4030 C 0.81055 0.79277 0.20519 0.0
C4031 C 0.80946 0.79092 0.18238 0.0
H4032 H 0.09612 0.03208 0.65901 0.0
H4033 H 0.15415 0.02169 0.63756 0.0
H4034 H 0.14369 0.0262 0.60129 0.0
H4035 H 0.11851 0.03273 0.57418 0.0
H4036 H 0.05991 0.04259 0.5933 0.0
H4037 H 0.07022 0.03928 0.63087 0.0
C4038 C 0.10664 0.03082 0.64655 0.0
C4039 C 0.12619 0.02591 0.65205 0.0
C4040 C 0.10041 0.03362 0.62472 0.0
C4041 C 0.13898 0.02463 0.63477 0.0
C4042 C 0.13302 0.02749 0.61362 0.0
C4043 C 0.10784 0.03432 0.58647 0.0
C4044 C 0.08833 0.03837 0.58019 0.0
C4045 C 0.1138 0.03187 0.6082 0.0
C4046 C 0.07507 0.03995 0.59698 0.0
C4047 C 0.08103 0.03786 0.61873 0.0
H4048 H 0.83453 0.38525 0.39883 0.0
H4049 H 0.7951 0.33201 0.42184 0.0
H4050 H 0.79544 0.30654 0.38717 0.0
H4051 H 0.80681 0.29984 0.35034 0.0
H4052 H 0.84517 0.35405 0.32749 0.0
H4053 H 0.84639 0.37839 0.3627 0.0
C4054 C 0.8262 0.368 0.39637 0.0
C4055 C 0.81486 0.36045 0.4128 0.0
C4056 C 0.82652 0.35358 0.37661 0.0
C4057 C 0.80379 0.3382 0.40927 0.0
C4058 C 0.80411 0.32363 0.38957 0.0
C4059 C 0.81523 0.317 0.35298 0.0
C4060 C 0.82528 0.3252 0.33603 0.0
C4061 C 0.81537 0.3312 0.3731 0.0
C4062 C 0.83695 0.34729 0.34007 0.0
C4063 C 0.83762 0.36132 0.3602 0.0
H4064 H 0.4763 0.02405 0.19991 0.0
H4065 H 0.52278 0.06585 0.24951 0.0
H4066 H 0.54914 0.06171 0.22462 0.0
H4067 H 0.55871 0.04695 0.18838 0.0
H4068 H 0.51223 1.00306 0.14016 0.0
H4069 H 0.48612 1.00672 0.16534 0.0
C4070 C 0.49222 0.03191 0.20554 0.0
C4071 C 0.49751 0.04527 0.22653 0.0
C4072 C 0.5073 0.02895 0.19147 0.0
C4073 C 0.51821 0.05579 0.23326 0.0
C4074 C 0.53333 0.05326 0.21914 0.0
C4075 C 0.54295 0.0378 0.18363 0.0
C4076 C 0.53734 0.0249 0.1625 0.0
C4077 C 0.52802 0.03993 0.19819 0.0
C4078 C 0.51683 0.01333 0.15633 0.0
C4079 C 0.50191 0.01542 0.17067 0.0
H4080 H 0.81742 0.77687 0.9152 0.0
H4081 H 0.79074 0.70805 0.88565 0.0
H4082 H 0.7915 0.71719 0.84949 0.0
H4083 H 0.80013 0.74443 0.826 0.0
H4084 H 0.82708 0.81318 0.85513 0.0
H4085 H 0.82644 0.80416 0.89138 0.0
C4086 C 0.81193 0.76379 0.90089 0.0
C4087 C 0.80382 0.74178 0.90345 0.0
C4088 C 0.81261 0.76909 0.87989 0.0
C4089 C 0.79664 0.72522 0.88449 0.0
C4090 C 0.79724 0.73039 0.86366 0.0
C4091 C 0.80564 0.75753 0.84017 0.0
C4092 C 0.81335 0.77952 0.83752 0.0
C4093 C 0.80514 0.75226 0.86114 0.0
C4094 C 0.82096 0.79608 0.85639 0.0
C4095 C 0.82057 0.79095 0.87727 0.0
H4096 H 0.87917 0.06177 0.04181 0.0
H4097 H 0.85423 0.04363 0.97427 0.0
H4098 H 0.8802 0.0221 0.96545 0.0
H4099 H 0.91125 0.01049 0.97661 0.0
H4100 H 0.93736 0.03036 0.04374 0.0
H4101 H 0.90962 0.04914 0.05322 0.0
C4102 C 0.8793 0.05277 0.02527 0.0
C4103 C 0.86493 0.05411 0.00869 0.0
C4104 C 0.89449 0.04089 0.02028 0.0
C4105 C 0.8653 0.04279 0.98721 0.0
C4106 C 0.88009 0.03052 0.98219 0.0
C4107 C 0.91059 0.01859 0.99336 0.0
C4108 C 0.92611 0.01899 0.00951 0.0
C4109 C 0.89492 0.02972 0.99854 0.0
C4110 C 0.92546 0.02991 0.0311 0.0
C4111 C 0.90967 0.04062 0.0365 0.0
H4112 H 0.43552 0.44971 0.01775 0.0
H4113 H 0.42525 0.49868 0.07155 0.0
H4114 H 0.45982 0.52134 0.07094 0.0
H4115 H 0.49338 0.52691 0.05525 0.0
H4116 H 0.5024 0.47766 1.00078 0.0
H4117 H 0.4683 0.45539 1.00198 0.0
C4118 C 0.44087 0.46523 0.02952 0.0
C4119 C 0.42777 0.47233 0.04477 0.0
C4120 C 0.46069 0.47817 0.02903 0.0
C4121 C 0.43491 0.4928 0.05954 0.0
C4122 C 0.45474 0.50573 0.05927 0.0
C4123 C 0.48784 0.51143 0.04354 0.0
C4124 C 0.50057 0.50428 0.0278 0.0
C4125 C 0.46783 0.49858 0.04408 0.0
C4126 C 0.49307 0.48387 0.013 0.0
C4127 C 0.47347 0.47099 0.01364 0.0
H4128 H 0.36875 0.68506 0.80134 0.0
H4129 H 0.38631 0.67726 0.73536 0.0
H4130 H 0.37138 0.70772 0.72947 0.0
H4131 H 0.35318 0.73773 0.74176 0.0
H4132 H 0.33418 0.74679 0.80675 0.0
H4133 H 0.34893 0.71548 0.81361 0.0
C4134 C 0.36939 0.68978 0.78555 0.0
C4135 C 0.37981 0.67802 0.76915 0.0
C4136 C 0.36004 0.70802 0.78177 0.0
C4137 C 0.37965 0.68541 0.74899 0.0
C4138 C 0.37066 0.70312 0.74533 0.0
C4139 C 0.35203 0.73295 0.75752 0.0
C4140 C 0.34192 0.74519 0.77348 0.0
C4141 C 0.36087 0.71474 0.76147 0.0
C4142 C 0.34127 0.73813 0.79376 0.0
C4143 C 0.34998 0.72 0.79774 0.0
H4144 H 0.18332 0.57543 0.50089 0.0
H4145 H 0.18452 0.64523 0.50574 0.0
H4146 H 0.14722 0.63746 0.5052 0.0
H4147 H 0.11419 0.61083 0.50354 0.0
H4148 H 0.11295 0.54111 0.49851 0.0
H4149 H 0.15023 0.54874 0.49899 0.0
C4150 C 0.17539 0.58891 0.50192 0.0
C4151 C 0.18659 0.61081 0.50318 0.0
C4152 C 0.15394 0.58434 0.50159 0.0
C4153 C 0.17615 0.62815 0.50437 0.0
C4154 C 0.15486 0.62376 0.50417 0.0
C4155 C 0.12218 0.5974 0.5026 0.0
C4156 C 0.11106 0.57562 0.50177 0.0
C4157 C 0.1436 0.60193 0.50275 0.0
C4158 C 0.12133 0.55815 0.5 0.0
C4159 C 0.14263 0.56248 0.50006 0.0
H4160 H 0.76554 0.97121 0.79688 0.0
H4161 H 0.70691 0.92492 0.77782 0.0
H4162 H 0.71972 0.89662 0.79303 0.0
H4163 H 0.74751 0.88528 0.81193 0.0
H4164 H 0.80622 0.9314 0.83054 0.0
H4165 H 0.79355 0.95955 0.8149 0.0
C4166 C 0.75568 0.95481 0.79575 0.0
C4167 C 0.73536 0.95009 0.78628 0.0
C4168 C 0.76312 0.9387 0.80448 0.0
C4169 C 0.72259 0.92894 0.78526 0.0
C4170 C 0.72989 0.91278 0.79389 0.0
C4171 C 0.7574 0.90159 0.81277 0.0
C4172 C 0.77763 0.90642 0.82254 0.0
C4173 C 0.75007 0.91756 0.8037 0.0
C4174 C 0.79054 0.92739 0.8231 0.0
C4175 C 0.78333 0.94345 0.81419 0.0
H4176 H 0.71663 0.94444 0.52769 0.0
H4177 H 0.77067 0.99622 0.52733 0.0
H4178 H 0.74927 0.02201 0.52227 0.0
H4179 H 0.7155 0.03001 0.51728 0.0
H4180 H 0.66109 0.97781 0.51425 0.0
H4181 H 0.68236 0.95233 0.52163 0.0
C4182 C 0.72376 0.9613 0.52634 0.0
C4183 C 0.74537 0.96829 0.52817 0.0
C4184 C 0.71129 0.97611 0.52292 0.0
C4185 C 0.75418 0.99037 0.52657 0.0
C4186 C 0.74193 1.00516 0.52347 0.0
C4187 C 0.70819 0.01299 0.51792 0.0
C4188 C 0.68662 1.00596 0.51499 0.0
C4189 C 0.7205 0.99821 0.52154 0.0
C4190 C 0.67759 0.98393 0.51663 0.0
C4191 C 0.68978 0.96922 0.52066 0.0
H4192 H 0.34962 0.44786 0.78599 0.0
H4193 H 0.39843 0.43273 0.74793 0.0
H4194 H 0.38504 0.39304 0.7461 0.0
H4195 H 0.35938 0.36163 0.75505 0.0
H4196 H 0.3102 0.37632 0.79258 0.0
H4197 H 0.32364 0.4162 0.79473 0.0
C4198 C 0.35745 0.43598 0.77732 0.0
C4199 C 0.37519 0.444 0.76695 0.0
C4200 C 0.34945 0.41259 0.77612 0.0
C4201 C 0.38468 0.42771 0.75578 0.0
C4202 C 0.37704 0.40472 0.75482 0.0
C4203 C 0.35151 0.37348 0.76372 0.0
C4204 C 0.33342 0.36536 0.77343 0.0
C4205 C 0.35938 0.39681 0.76484 0.0
C4206 C 0.32378 0.38149 0.78454 0.0
C4207 C 0.33163 0.40457 0.78591 0.0
H4208 H 0.27413 0.66163 0.28645 0.0
H4209 H 0.23992 0.66525 0.22718 0.0
H4210 H 0.25266 0.70563 0.23447 0.0
H4211 H 0.2729 0.74 0.25822 0.0
H4212 H 0.30636 0.73636 0.31779 0.0
H4213 H 0.29388 0.69582 0.31031 0.0
C4214 C 0.26934 0.67127 0.27521 0.0
C4215 C 0.2561 0.66047 0.25634 0.0
C4216 C 0.27636 0.69443 0.2797 0.0
C4217 C 0.25032 0.67313 0.2417 0.0
C4218 C 0.25737 0.69624 0.24598 0.0
C4219 C 0.27755 0.73021 0.26938 0.0
C4220 C 0.29095 0.74075 0.28813 0.0
C4221 C 0.27033 0.70704 0.26496 0.0
C4222 C 0.29637 0.72827 0.30301 0.0
C4223 C 0.28926 0.7052 0.29875 0.0
H4224 H 0.53845 0.66997 0.50627 0.0
H4225 H 0.54618 0.65252 0.4377 0.0
H4226 H 0.5517 0.6165 0.4425 0.0
H4227 H 0.55404 0.5891 0.46557 0.0
H4228 H 0.54741 0.60548 0.53431 0.0
H4229 H 0.54207 0.64224 0.53016 0.0
C4230 C 0.54128 0.65827 0.49236 0.0
C4231 C 0.54187 0.66441 0.47153 0.0
C4232 C 0.54481 0.63718 0.4953 0.0
C4233 C 0.54577 0.64876 0.45392 0.0
C4234 C 0.54891 0.62795 0.45664 0.0
C4235 C 0.55154 0.60074 0.47974 0.0
C4236 C 0.55135 0.59435 0.5003 0.0
C4237 C 0.54849 0.62191 0.47717 0.0
C4238 C 0.54794 0.60981 0.51834 0.0
C4239 C 0.54474 0.6309 0.51589 0.0
H4240 H 0.69942 0.33575 0.71391 0.0
H4241 H 0.70202 0.28198 0.66073 0.0
H4242 H 0.73122 0.27453 0.68047 0.0
H4243 H 0.75648 0.28287 0.71303 0.0
H4244 H 0.75565 0.33849 0.76472 0.0
H4245 H 0.72583 0.34541 0.74552 0.0
C4246 C 0.70641 0.32253 0.70641 0.0
C4247 C 0.69787 0.30932 0.68573 0.0
C4248 C 0.72372 0.31843 0.71778 0.0
C4249 C 0.70748 0.29219 0.67674 0.0
C4250 C 0.72448 0.28795 0.688 0.0
C4251 C 0.74982 0.29653 0.72016 0.0
C4252 C 0.75824 0.30969 0.74086 0.0
C4253 C 0.73274 0.30086 0.70861 0.0
C4254 C 0.7493 0.32746 0.7494 0.0
C4255 C 0.73225 0.33164 0.7382 0.0
H4256 H 0.0304 0.40721 0.95935 0.0
H4257 H 0.04555 0.39385 0.02279 0.0
H4258 H 0.05105 0.43339 0.03898 0.0
H4259 H 0.05353 0.47237 0.03517 0.0
H4260 H 0.04152 0.48654 0.9716 0.0
H4261 H 0.03231 0.44653 0.95568 0.0
C4262 C 0.03467 0.41287 0.97677 0.0
C4263 C 0.03761 0.39723 0.98971 0.0
C4264 C 0.03813 0.43598 0.98608 0.0
C4265 C 0.04342 0.40525 0.01224 0.0
C4266 C 0.04647 0.42796 0.0216 0.0
C4267 C 0.04834 0.46663 0.01792 0.0
C4268 C 0.04712 0.48251 1.00485 0.0
C4269 C 0.04408 0.44355 0.0087 0.0
C4270 C 0.04145 0.47477 0.98231 0.0
C4271 C 0.03656 0.45182 0.97312 0.0
H4272 H 0.99156 0.82725 0.18719 0.0
H4273 H 0.01569 0.77213 0.20106 0.0
H4274 H 0.98746 0.76201 0.22283 0.0
H4275 H 0.95635 0.7689 0.23861 0.0
H4276 H 0.93225 0.82453 0.22631 0.0
H4277 H 0.95944 0.83371 0.20268 0.0
C4278 C 0.99055 0.81293 0.19485 0.0
C4279 C 1.00602 0.80069 0.19263 0.0
C4280 C 0.97413 0.80712 0.20753 0.0
C4281 C 1.00438 0.78221 0.20279 0.0
C4282 C 0.98811 0.77627 0.21516 0.0
C4283 C 0.95706 0.78319 0.23096 0.0
C4284 C 0.94225 0.7961 0.23458 0.0
C4285 C 0.97301 0.7887 0.21782 0.0
C4286 C 0.94324 0.81412 0.22383 0.0
C4287 C 0.95895 0.81953 0.21042 0.0
H4288 H 0.53822 0.38463 0.11848 0.0
H4289 H 0.53941 0.32447 0.07268 0.0
H4290 H 0.5506 0.34617 0.04514 0.0
H4291 H 0.56056 0.3821 0.03428 0.0
H4292 H 0.55978 0.44253 0.07976 0.0
H4293 H 0.54778 0.42086 0.10728 0.0
C4294 C 0.54101 0.37635 0.10248 0.0
C4295 C 0.53795 0.35305 0.09754 0.0
C4296 C 0.5475 0.38893 0.08674 0.0
C4297 C 0.5414 0.34241 0.07672 0.0
C4298 C 0.54791 0.35478 0.06103 0.0
C4299 C 0.55793 0.39051 0.05029 0.0
C4300 C 0.56127 0.41379 0.05515 0.0
C4301 C 0.55108 0.37802 0.0659 0.0
C4302 C 0.5573 0.42455 0.07572 0.0
C4303 C 0.55052 0.4122 0.09144 0.0
H4304 H 0.01734 0.35014 0.32176 0.0
H4305 H 0.99567 0.27901 0.30089 0.0
H4306 H 0.9639 0.28434 0.28355 0.0
H4307 H 0.94176 0.30931 0.27586 0.0
H4308 H 0.96346 0.38039 0.29768 0.0
H4309 H 0.99583 0.375 0.3132 0.0
C4310 C 1.00562 0.3358 0.31346 0.0
C4311 C 0.00868 0.31421 0.31276 0.0
C4312 C 0.98744 0.339 0.30378 0.0
C4313 C 0.99364 0.29579 0.30154 0.0
C4314 C 0.97545 0.29883 0.29177 0.0
C4315 C 0.95358 0.32359 0.28406 0.0
C4316 C 0.95024 0.34521 0.28567 0.0
C4317 C 0.9721 0.32036 0.29305 0.0
C4318 C 0.96577 0.36361 0.29604 0.0
C4319 C 0.98421 0.36054 0.30501 0.0
H4320 H 0.03067 0.67789 0.56956 0.0
H4321 H 0.01862 0.64412 0.62339 0.0
H4322 H 0.03011 0.6122 0.60383 0.0
H4323 H 0.04354 0.59401 0.57142 0.0
H4324 H 0.05403 0.62694 0.51704 0.0
H4325 H 0.04287 0.65919 0.5367 0.0
C4326 C 0.03016 0.66337 0.57683 0.0
C4327 C 0.02381 0.6633 0.59783 0.0
C4328 C 0.03659 0.6451 0.56547 0.0
C4329 C 0.02365 0.64459 0.60728 0.0
C4330 C 0.03018 0.62636 0.59613 0.0
C4331 C 0.04355 0.60843 0.5641 0.0
C4332 C 0.04955 0.60849 0.54305 0.0
C4333 C 0.03682 0.62655 0.57532 0.0
C4334 C 0.04924 0.62677 0.53325 0.0
C4335 C 0.04293 0.64511 0.54448 0.0
H4336 H 0.7104 0.80089 0.83766 0.0
H4337 H 0.69184 0.8477 0.80251 0.0
H4338 H 0.72342 0.85088 0.78429 0.0
H4339 H 0.75638 0.84014 0.77835 0.0
H4340 H 0.77408 0.79308 0.81365 0.0
H4341 H 0.74277 0.79014 0.83173 0.0
C4342 C 0.71312 0.81158 0.82581 0.0
C4343 C 0.69878 0.82391 0.82132 0.0
C4344 C 0.73118 0.81332 0.81545 0.0
C4345 C 0.70275 0.83812 0.80632 0.0
C4346 C 0.72075 0.8399 0.79586 0.0
C4347 C 0.75321 0.8292 0.78992 0.0
C4348 C 0.76714 0.81636 0.79419 0.0
C4349 C 0.73508 0.82758 0.80032 0.0
C4350 C 0.76331 0.80267 0.80964 0.0
C4351 C 0.74544 0.80105 0.82009 0.0
H4352 H 0.51616 0.5866 0.65971 0.0
H4353 H 0.47269 0.523 0.64347 0.0
H4354 H 0.48524 0.51574 0.60787 0.0
H4355 H 0.50915 0.52639 0.57979 0.0
H4356 H 0.55318 0.58938 0.59634 0.0
H4357 H 0.5403 0.59703 0.63198 0.0
C4358 C 0.50928 0.571 0.64866 0.0
C4359 C 0.49273 0.55579 0.65546 0.0
C4360 C 0.51698 0.56643 0.62743 0.0
C4361 C 0.48475 0.53582 0.63974 0.0
C4362 C 0.4922 0.53136 0.6189 0.0
C4363 C 0.51601 0.54189 0.59104 0.0
C4364 C 0.53265 0.55708 0.58449 0.0
C4365 C 0.50833 0.54645 0.61229 0.0
C4366 C 0.54079 0.57693 0.60016 0.0
C4367 C 0.53323 0.58148 0.62091 0.0
H4368 H 0.80012 0.21681 0.9484 0.0
H4369 H 0.77773 0.15247 0.90583 0.0
H4370 H 0.77117 0.17043 0.87556 0.0
H4371 H 0.77012 0.20431 0.86184 0.0
H4372 H 0.79249 0.26857 0.90439 0.0
H4373 H 0.80158 0.25069 0.93391 0.0
C4374 C 0.79426 0.20671 0.93238 0.0
C4375 C 0.78929 0.18339 0.92935 0.0
C4376 C 0.7906 0.2171 0.91509 0.0
C4377 C 0.78136 0.1705 0.90861 0.0
C4378 C 0.7777 0.18072 0.89129 0.0
C4379 C 0.77701 0.21434 0.87759 0.0
C4380 C 0.78044 0.23759 0.88112 0.0
C4381 C 0.78192 0.20399 0.89448 0.0
C4382 C 0.78978 0.25057 0.90137 0.0
C4383 C 0.79485 0.24038 0.91825 0.0
H4384 H 0.10199 0.53024 0.152 0.0
H4385 H 0.14789 0.50736 0.11381 0.0
H4386 H 0.12842 0.50887 0.08026 0.0
H4387 H 0.10063 0.52046 0.06241 0.0
H4388 H 0.05509 0.5447 0.0999 0.0
H4389 H 0.07209 0.53877 0.13341 0.0
C4390 C 0.10755 0.52538 0.13627 0.0
C4391 C 0.12634 0.51884 0.13525 0.0
C4392 C 0.09649 0.52669 0.11714 0.0
C4393 C 0.13336 0.51225 0.1149 0.0
C4394 C 0.12235 0.51329 0.09577 0.0
C4395 C 0.09436 0.52426 0.07794 0.0
C4396 C 0.07693 0.53323 0.07903 0.0
C4397 C 0.10426 0.52106 0.09681 0.0
C4398 C 0.06853 0.53772 0.09892 0.0
C4399 C 0.07831 0.53447 0.11798 0.0
H4400 H 0.8131 0.80574 0.4099 0.0
H4401 H 0.82628 0.87707 0.41555 0.0
H4402 H 0.82606 0.87262 0.37601 0.0
H4403 H 0.82075 0.84881 0.33973 0.0
H4404 H 0.80843 0.7775 0.33265 0.0
H4405 H 0.81008 0.78146 0.37266 0.0
C4406 C 0.81594 0.82023 0.40238 0.0
C4407 C 0.81965 0.84174 0.41568 0.0
C4408 C 0.81611 0.81755 0.3794 0.0
C4409 C 0.82348 0.86039 0.40574 0.0
C4410 C 0.82334 0.85786 0.38311 0.0
C4411 C 0.81868 0.83413 0.34699 0.0
C4412 C 0.81463 0.81293 0.33333 0.0
C4413 C 0.81955 0.83659 0.3698 0.0
C4414 C 0.81187 0.79402 0.34287 0.0
C4415 C 0.81263 0.79631 0.36573 0.0
H4416 H 0.52675 0.55844 0.88759 0.0
H4417 H 0.46535 0.55742 0.90581 0.0
H4418 H 0.47554 0.55176 0.94177 0.0
H4419 H 0.50148 0.54757 0.96956 0.0
H4420 H 0.56321 0.54858 0.95342 0.0
H4421 H 0.5534 0.55344 0.91628 0.0
C4422 C 0.51548 0.55703 0.89933 0.0
C4423 C 0.49481 0.55822 0.89283 0.0
C4424 C 0.52157 0.5536 0.92093 0.0
C4425 C 0.48104 0.5562 0.90913 0.0
C4426 C 0.48697 0.55305 0.93018 0.0
C4427 C 0.51293 0.54867 0.95797 0.0
C4428 C 0.53323 0.54733 0.96494 0.0
C4429 C 0.50711 0.55167 0.93642 0.0
C4430 C 0.54748 0.54914 0.94912 0.0
C4431 C 0.54178 0.5521 0.92764 0.0
H4432 H 0.80796 0.23922 0.12821 0.0
H4433 H 0.80393 0.17847 0.15257 0.0
H4434 H 0.80124 0.19821 0.18934 0.0
H4435 H 0.79987 0.23246 0.21433 0.0
H4436 H 0.80459 0.29358 0.19059 0.0
H4437 H 0.80659 0.27376 0.15351 0.0
C4438 C 0.80642 0.23032 0.14158 0.0
C4439 C 0.80624 0.20748 0.13774 0.0
C4440 C 0.80469 0.24171 0.16262 0.0
C4441 C 0.80446 0.19616 0.1552 0.0
C4442 C 0.8027 0.20735 0.17616 0.0
C4443 C 0.80105 0.24141 0.20102 0.0
C4444 C 0.80194 0.26438 0.20509 0.0
C4445 C 0.80269 0.23008 0.18 0.0
C4446 C 0.80378 0.27583 0.18775 0.0
C4447 C 0.80503 0.26455 0.16662 0.0
H4448 H 0.10061 0.53175 0.30538 0.0
H4449 H 0.15055 0.5666 0.35442 0.0
H4450 H 0.1262 0.57192 0.38131 0.0
H4451 H 0.09112 0.56545 0.39121 0.0
H4452 H 0.04135 0.5271 0.34357 0.0
H4453 H 0.06532 0.52468 0.31557 0.0
C4454 C 0.1062 0.54027 0.32201 0.0
C4455 C 0.12737 0.54869 0.32789 0.0
C4456 C 0.09218 0.54278 0.33754 0.0
C4457 C 0.13432 0.56019 0.34938 0.0
C4458 C 0.12043 0.56314 0.3648 0.0
C4459 C 0.0855 0.55639 0.37474 0.0
C4460 C 0.06453 0.54625 0.3695 0.0
C4461 C 0.09938 0.55433 0.35908 0.0
C4462 C 0.0574 0.53518 0.34795 0.0
C4463 C 0.07111 0.53361 0.33202 0.0
H4464 H 0.80448 0.86594 0.65877 0.0
H4465 H 0.82046 0.80743 0.62287 0.0
H4466 H 0.81934 0.79112 0.65564 0.0
H4467 H 0.8145 0.79382 0.6951 0.0
H4468 H 0.80109 0.85373 0.73127 0.0
H4469 H 0.8004 0.869 0.69808 0.0
C4470 C 0.80757 0.84955 0.6581 0.0
C4471 C 0.81244 0.83789 0.63832 0.0
C4472 C 0.80735 0.84048 0.67717 0.0
C4473 C 0.81674 0.81681 0.63787 0.0
C4474 C 0.81605 0.80744 0.65661 0.0
C4475 C 0.81122 0.8101 0.69558 0.0
C4476 C 0.80768 0.82256 0.7156 0.0
C4477 C 0.81143 0.81913 0.67643 0.0
C4478 C 0.80386 0.84382 0.71608 0.0
C4479 C 0.80346 0.85258 0.69709 0.0
H4480 H 0.76082 0.53966 0.54217 0.0
H4481 H 0.71864 0.47621 0.53785 0.0
H4482 H 0.69073 0.49496 0.54613 0.0
H4483 H 0.6786 0.52918 0.55483 0.0
H4484 H 0.72006 0.59271 0.55685 0.0
H4485 H 0.74832 0.57413 0.55015 0.0
C4486 C 0.74551 0.53002 0.54316 0.0
C4487 C 0.74166 0.50668 0.53941 0.0
C4488 C 0.72958 0.54088 0.54778 0.0
C4489 C 0.72181 0.49423 0.54047 0.0
C4490 C 0.70593 0.50492 0.54532 0.0
C4491 C 0.69374 0.53901 0.55351 0.0
C4492 C 0.69716 0.56231 0.55619 0.0
C4493 C 0.70967 0.52822 0.54896 0.0
C4494 C 0.71704 0.57478 0.55509 0.0
C4495 C 0.73315 0.56416 0.55106 0.0
H4496 H 0.18843 0.12972 0.53021 0.0
H4497 H 0.1923 0.09166 0.46643 0.0
H4498 H 0.15733 0.0695 0.46648 0.0
H4499 H 0.12532 0.06106 0.48497 0.0
H4500 H 0.12239 0.10106 0.54834 0.0
H4501 H 0.15708 0.12191 0.54811 0.0
C4502 C 0.18172 0.11644 0.51638 0.0
C4503 C 0.19307 0.11227 0.49844 0.0
C4504 C 0.16163 0.10399 0.51643 0.0
C4505 C 0.18389 0.0953 0.48044 0.0
C4506 C 0.16391 0.08257 0.4805 0.0
C4507 C 0.13232 0.07427 0.49873 0.0
C4508 C 0.12104 0.07919 0.5167 0.0
C4509 C 0.15256 0.08676 0.49844 0.0
C4510 C 0.13044 0.0966 0.53428 0.0
C4511 C 0.15043 0.1087 0.53421 0.0
H4512 H 0.25811 0.90594 0.7459 0.0
H4513 H 0.23394 0.90852 0.80877 0.0
H4514 H 0.24966 0.87876 0.81519 0.0
H4515 H 0.27003 0.85051 0.80404 0.0
H4516 H 0.29332 0.84471 0.74102 0.0
H4517 H 0.27869 0.87608 0.73412 0.0
C4518 C 0.25614 0.90018 0.7611 0.0
C4519 C 0.24462 0.9111 0.77694 0.0
C4520 C 0.26538 0.88187 0.76492 0.0
C4521 C 0.24281 0.90216 0.79622 0.0
C4522 C 0.25183 0.88449 0.79998 0.0
C4523 C 0.27217 0.85603 0.78872 0.0
C4524 C 0.28358 0.84478 0.77341 0.0
C4525 C 0.26322 0.87413 0.78464 0.0
C4526 C 0.28534 0.85268 0.75361 0.0
C4527 C 0.27667 0.87082 0.74957 0.0
H4528 H 0.43692 0.9557 0.01182 0.0
H4529 H 0.42505 0.02052 0.03544 0.0
H4530 H 0.46158 0.03762 0.03666 0.0
H4531 H 0.49712 0.03352 0.03445 0.0
H4532 H 0.50901 0.96847 0.01288 0.0
H4533 H 0.47211 0.95181 0.00822 0.0
C4534 C 0.44232 0.97356 0.0174 0.0
C4535 C 0.42833 0.98676 0.02388 0.0
C4536 C 0.46331 0.98312 0.01875 0.0
C4537 C 0.43548 0.00997 0.03034 0.0
C4538 C 0.45638 0.01973 0.03126 0.0
C4539 C 0.49157 0.01579 0.02831 0.0
C4540 C 0.50553 1.0022 0.02347 0.0
C4541 C 0.47045 1.00639 0.02598 0.0
C4542 C 0.49834 0.97915 0.01636 0.0
C4543 C 0.47734 0.96968 0.01372 0.0
H4544 H 0.89917 0.65819 0.75498 0.0
H4545 H 0.84327 0.62549 0.77759 0.0
H4546 H 0.82472 0.6503 0.76328 0.0
H4547 H 0.82402 0.67924 0.7421 0.0
H4548 H 0.88025 0.71327 0.72086 0.0
H4549 H 0.89902 0.68948 0.73644 0.0
C4550 C 0.88294 0.65663 0.75683 0.0
C4551 C 0.87249 0.64005 0.76714 0.0
C4552 C 0.87244 0.67088 0.74856 0.0
C4553 C 0.85158 0.63826 0.76978 0.0
C4554 C 0.84098 0.65232 0.76149 0.0
C4555 C 0.84046 0.68184 0.74123 0.0
C4556 C 0.85065 0.69794 0.73013 0.0
C4557 C 0.85121 0.66844 0.75056 0.0
C4558 C 0.87191 0.7007 0.72887 0.0
C4559 C 0.8827 0.68723 0.73792 0.0
H4560 H 0.86736 0.60196 1.00151 0.0
H4561 H 0.90856 0.66413 0.03231 0.0
H4562 H 0.93587 0.64461 0.03751 0.0
H4563 H 0.94734 0.60927 0.03544 0.0
H4564 H 0.90558 0.54739 1.00478 0.0
H4565 H 0.87927 0.56733 0.99753 0.0
C4566 C 0.8823 0.61125 0.00941 0.0
C4567 C 0.88583 0.63445 0.01664 0.0
C4568 C 0.89786 0.59992 0.01246 0.0
C4569 C 0.90544 0.64627 0.02646 0.0
C4570 C 0.92105 0.6351 0.02954 0.0
C4571 C 0.93259 0.60025 0.02687 0.0
C4572 C 0.92833 0.57685 0.02092 0.0
C4573 C 0.91737 0.61186 0.02284 0.0
C4574 C 0.90912 0.56536 0.00987 0.0
C4575 C 0.89406 0.57675 1.00568 0.0
H4576 H 0.22964 0.1566 0.78012 0.0
H4577 H 0.28231 0.12926 0.76538 0.0
H4578 H 0.30225 0.16629 0.76366 0.0
H4579 H 0.3051 0.20755 0.76564 0.0
H4580 H 0.25139 0.23329 0.78032 0.0
H4581 H 0.23228 0.19659 0.78208 0.0
C4582 C 0.2454 0.1584 0.77629 0.0
C4583 C 0.25401 0.13931 0.77296 0.0
C4584 C 0.25703 0.18005 0.77512 0.0
C4585 C 0.27484 0.14305 0.76844 0.0
C4586 C 0.28642 0.1645 0.76725 0.0
C4587 C 0.28929 0.20528 0.76933 0.0
C4588 C 0.28021 0.2241 0.77281 0.0
C4589 C 0.27777 0.18335 0.77054 0.0
C4590 C 0.2594 0.2199 0.77744 0.0
C4591 C 0.24815 0.19856 0.77852 0.0
H4592 H 0.37865 0.91939 0.29277 0.0
H4593 H 0.33579 0.93461 0.24682 0.0
H4594 H 0.31975 0.89511 0.23524 0.0
H4595 H 0.31567 0.85665 0.24074 0.0
H4596 H 0.35546 0.84255 0.29023 0.0
H4597 H 0.3749 0.88126 0.29801 0.0
C4598 C 0.36564 0.9142 0.28041 0.0
C4599 C 0.35834 0.93008 0.2709 0.0
C4600 C 0.35592 0.89164 0.2745 0.0
C4601 C 0.3419 0.92281 0.25434 0.0
C4602 C 0.33261 0.90022 0.24777 0.0
C4603 C 0.32866 0.8622 0.25314 0.0
C4604 C 0.33382 0.8473 0.26545 0.0
C4605 C 0.33921 0.88458 0.25808 0.0
C4606 C 0.35091 0.85415 0.28112 0.0
C4607 C 0.36206 0.87617 0.28546 0.0
H4608 H 0.58396 0.41748 0.53882 0.0
H4609 H 0.57578 0.4367 0.60708 0.0
H4610 H 0.57037 0.4724 0.60115 0.0
H4611 H 0.56848 0.49909 0.57728 0.0
H4612 H 0.57573 0.48125 0.50884 0.0
H4613 H 0.58066 0.44458 0.51401 0.0
C4614 C 0.58103 0.42948 0.55241 0.0
C4615 C 0.58028 0.42391 0.57352 0.0
C4616 C 0.5776 0.45043 0.54882 0.0
C4617 C 0.57627 0.43997 0.59068 0.0
C4618 C 0.57322 0.46061 0.58731 0.0
C4619 C 0.57099 0.48714 0.56338 0.0
C4620 C 0.57142 0.49309 0.54259 0.0
C4621 C 0.57385 0.4661 0.56654 0.0
C4622 C 0.57491 0.47725 0.52494 0.0
C4623 C 0.57791 0.45623 0.52799 0.0
H4624 H 0.40474 0.77344 0.37835 0.0
H4625 H 0.44559 0.77797 0.32769 0.0
H4626 H 0.41806 0.78247 0.30273 0.0
H4627 H 0.38227 0.78595 0.29522 0.0
H4628 H 0.34192 0.78331 0.34643 0.0
H4629 H 0.36901 0.77747 0.37097 0.0
C4630 C 0.40755 0.77523 0.3618 0.0
C4631 C 0.42731 0.77523 0.35497 0.0
C4632 C 0.39165 0.7784 0.34756 0.0
C4633 C 0.43064 0.77793 0.33348 0.0
C4634 C 0.41485 0.78051 0.31914 0.0
C4635 C 0.3794 0.78405 0.31174 0.0
C4636 C 0.36003 0.78541 0.31898 0.0
C4637 C 0.39529 0.78091 0.32598 0.0
C4638 C 0.35673 0.78295 0.34051 0.0
C4639 C 0.37223 0.77938 0.35455 0.0
H4640 H 0.0785 0.68565 0.03767 0.0
H4641 H 0.08892 0.69041 0.10728 0.0
H4642 H 0.08364 0.65011 0.10194 0.0
H4643 H 0.07474 0.61293 0.07798 0.0
H4644 H 0.06388 0.60706 0.00846 0.0
H4645 H 0.07076 0.64782 0.0132 0.0
C4646 C 0.07962 0.67789 0.05167 0.0
C4647 C 0.08432 0.69148 0.07292 0.0
C4648 C 0.07658 0.65428 0.04849 0.0
C4649 C 0.08573 0.68078 0.09073 0.0
C4650 C 0.08259 0.65756 0.08771 0.0
C4651 C 0.07419 0.6206 0.06382 0.0
C4652 C 0.06926 0.60683 0.04285 0.0
C4653 C 0.07794 0.6441 0.06674 0.0
C4654 C 0.06816 0.61714 0.02475 0.0
C4655 C 0.0719 0.64053 0.02751 0.0
H4656 H 0.12763 0.26495 0.8601 0.0
H4657 H 0.10528 0.32293 0.85195 0.0
H4658 H 0.13366 0.3343 0.83075 0.0
H4659 H 0.16456 0.32789 0.8141 0.0
H4660 H 0.18675 0.26944 0.82072 0.0
H4661 H 0.1593 0.25875 0.84354 0.0
C4662 C 0.12904 0.28014 0.85381 0.0
C4663 C 0.11405 0.29288 0.85749 0.0
C4664 C 0.14554 0.28668 0.84148 0.0
C4665 C 0.11621 0.31248 0.84906 0.0
C4666 C 0.13258 0.31913 0.83704 0.0
C4667 C 0.16337 0.31266 0.8203 0.0
C4668 C 0.17778 0.29947 0.81538 0.0
C4669 C 0.14724 0.3063 0.83299 0.0
C4670 C 0.17613 0.28014 0.82427 0.0
C4671 C 0.16026 0.27387 0.83721 0.0
H4672 H 0.56848 0.71125 0.94623 0.0
H4673 H 0.61915 0.75792 0.98691 0.0
H4674 H 0.61461 0.73598 0.01545 0.0
H4675 H 0.59623 0.7035 0.02883 0.0
H4676 H 0.54474 0.65784 0.98858 0.0
H4677 H 0.54942 0.67969 0.96 0.0
C4678 C 0.5784 0.71677 0.96143 0.0
C4679 C 0.59414 0.73614 0.9644 0.0
C4680 C 0.57548 0.70436 0.97789 0.0
C4681 C 0.60711 0.74284 0.98405 0.0
C4682 C 0.60442 0.73044 1.00046 0.0
C4683 C 0.58584 0.6986 0.01395 0.0
C4684 C 0.57016 0.67919 0.01082 0.0
C4685 C 0.58862 0.71121 0.99758 0.0
C4686 C 0.55702 0.6727 0.99129 0.0
C4687 C 0.55967 0.68515 0.97496 0.0
H4688 H 0.12852 0.79941 0.73705 0.0
H4689 H 0.09098 0.73484 0.73911 0.0
H4690 H 0.12034 0.72435 0.75552 0.0
H4691 H 0.15707 0.73218 0.76596 0.0
H4692 H 0.19479 0.79719 0.76559 0.0
H4693 H 0.16492 0.8088 0.75164 0.0
C4694 C 0.12672 0.78326 0.74156 0.0
C4695 C 0.10777 0.7678 0.73663 0.0
C4696 C 0.1437 0.77729 0.75094 0.0
C4697 C 0.10558 0.74685 0.74241 0.0
C4698 C 0.12232 0.74085 0.75181 0.0
C4699 C 0.15874 0.74908 0.76338 0.0
C4700 C 0.17819 0.76367 0.76662 0.0
C4701 C 0.14154 0.75573 0.75564 0.0
C4702 C 0.18005 0.78541 0.76278 0.0
C4703 C 0.16297 0.79214 0.75494 0.0
H4704 H 0.07705 0.42488 0.42849 0.0
H4705 H 0.12444 0.42533 0.47844 0.0
H4706 H 0.11835 0.4598 0.49952 0.0
H4707 H 0.0989 0.48897 0.50396 0.0
H4708 H 0.0485 0.48499 0.45604 0.0
H4709 H 0.05624 0.45218 0.43409 0.0
C4710 C 0.0858 0.43213 0.44421 0.0
C4711 C 0.10102 0.42234 0.45195 0.0
C4712 C 0.08161 0.45118 0.45664 0.0
C4713 C 0.11275 0.43261 0.47195 0.0
C4714 C 0.10916 0.45219 0.48412 0.0
C4715 C 0.08935 0.48073 0.48896 0.0
C4716 C 0.07301 0.4893 0.48185 0.0
C4717 C 0.09348 0.46146 0.47668 0.0
C4718 C 0.06113 0.47871 0.46202 0.0
C4719 C 0.06554 0.45995 0.4494 0.0
H4720 H 0.42055 0.26942 0.25466 0.0
H4721 H 0.40025 0.2621 0.18642 0.0
H4722 H 0.36491 0.25898 0.1951 0.0
H4723 H 0.3402 0.26159 0.22226 0.0
H4724 H 0.35972 0.26902 0.29042 0.0
H4725 H 0.39489 0.26798 0.28164 0.0
C4726 C 0.40834 0.26674 0.24167 0.0
C4727 C 0.41309 0.26646 0.21999 0.0
C4728 C 0.38796 0.26489 0.24677 0.0
C4729 C 0.39709 0.26302 0.20333 0.0
C4730 C 0.37684 0.26098 0.20821 0.0
C4731 C 0.35223 0.26284 0.23509 0.0
C4732 C 0.34799 0.26643 0.25692 0.0
C4733 C 0.3722 0.26248 0.2299 0.0
C4734 C 0.36312 0.26703 0.27353 0.0
C4735 C 0.38311 0.26639 0.26849 0.0
H4736 H 0.64385 0.54509 0.40519 0.0
H4737 H 0.59153 0.50002 0.36572 0.0
H4738 H 0.57196 0.5013 0.39734 0.0
H4739 H 0.56864 0.51475 0.4373 0.0
H4740 H 0.62098 0.55946 0.47681 0.0
H4741 H 0.64061 0.55836 0.44508 0.0
C4742 C 0.62821 0.53535 0.4032 0.0
C4743 C 0.61974 0.52261 0.38188 0.0
C4744 C 0.61652 0.53597 0.42211 0.0
C4745 C 0.59909 0.51051 0.38092 0.0
C4746 C 0.58762 0.51105 0.39944 0.0
C4747 C 0.58432 0.52432 0.4392 0.0
C4748 C 0.59282 0.53722 0.46039 0.0
C4749 C 0.596 0.52372 0.42028 0.0
C4750 C 0.61344 0.54929 0.46143 0.0
C4751 C 0.62492 0.54869 0.44295 0.0
H4752 H 0.35084 0.90078 0.14814 0.0
H4753 H 0.32674 0.83506 0.10918 0.0
H4754 H 0.33643 0.81834 0.13947 0.0
H4755 H 0.35356 0.82265 0.17583 0.0
H4756 H 0.37485 0.88827 0.21645 0.0
H4757 H 0.36489 0.90497 0.18636 0.0
C4758 C 0.34763 0.88281 0.14649 0.0
C4759 C 0.33827 0.86903 0.12667 0.0
C4760 C 0.35296 0.87342 0.16401 0.0
C4761 C 0.33392 0.84582 0.12446 0.0
C4762 C 0.33952 0.83633 0.14167 0.0
C4763 C 0.35562 0.84059 0.17842 0.0
C4764 C 0.36514 0.85416 0.19839 0.0
C4765 C 0.34926 0.85 0.1614 0.0
C4766 C 0.36804 0.87742 0.2011 0.0
C4767 C 0.36218 0.88698 0.18398 0.0
H4768 H 0.00862 0.54364 0.88331 0.0
H4769 H 0.98587 0.59898 0.91668 0.0
H4770 H 1.00462 0.59789 0.95083 0.0
H4771 H 0.02578 0.5802 0.97134 0.0
H4772 H 0.04855 0.52463 0.93876 0.0
H4773 H 0.03205 0.5274 0.9037 0.0
C4774 C 0.0081 0.55575 0.89796 0.0
C4775 C 0.99579 0.5713 0.89754 0.0
C4776 C 0.01895 0.55506 0.91751 0.0
C4777 C 0.99499 0.58665 0.9167 0.0
C4778 C 1.00578 0.58612 0.93617 0.0
C4779 C 0.02723 0.56873 0.95654 0.0
C4780 C 0.03814 0.5521 0.95752 0.0
C4781 C 0.0175 0.5702 0.93678 0.0
C4782 C 0.04024 0.53761 0.93828 0.0
C4783 C 0.0307 0.5391 0.91833 0.0
H4784 H 0.29621 0.22641 0.63992 0.0
H4785 H 0.30732 0.29029 0.6205 0.0
H4786 H 0.30923 0.30898 0.65845 0.0
H4787 H 0.30956 0.30774 0.69764 0.0
H4788 H 0.29762 0.24436 0.71741 0.0
H4789 H 0.29355 0.22506 0.67902 0.0
C4790 C 0.2987 0.2444 0.64379 0.0
C4791 C 0.30197 0.25673 0.62692 0.0
C4792 C 0.29943 0.25524 0.66589 0.0
C4793 C 0.30537 0.28013 0.6328 0.0
C4794 C 0.30626 0.29095 0.65464 0.0
C4795 C 0.3056 0.28968 0.69345 0.0
C4796 C 0.30331 0.27751 0.71033 0.0
C4797 C 0.30358 0.27874 0.67135 0.0
C4798 C 0.2988 0.25412 0.70473 0.0
C4799 C 0.29671 0.24309 0.68275 0.0
H4800 H 0.59627 0.52717 0.15492 0.0
H4801 H 0.65446 0.51674 0.13409 0.0
H4802 H 0.64397 0.52031 0.09744 0.0
H4803 H 0.61866 0.52608 0.06984 0.0
H4804 H 0.55975 0.53533 0.08843 0.0
H4805 H 0.57017 0.53312 0.12628 0.0
C4806 C 0.60682 0.52571 0.14251 0.0
C4807 C 0.62644 0.52116 0.14832 0.0
C4808 C 0.60053 0.52784 0.12046 0.0
C4809 C 0.63926 0.51952 0.13109 0.0
C4810 C 0.63326 0.52181 0.10971 0.0
C4811 C 0.60795 0.52778 0.08207 0.0
C4812 C 0.58834 0.53146 0.07556 0.0
C4813 C 0.61396 0.52587 0.104 0.0
C4814 C 0.57502 0.5331 0.09229 0.0
C4815 C 0.58104 0.53161 0.11421 0.0
H4816 H 0.32605 0.87347 0.90915 0.0
H4817 H 0.29042 0.81332 0.92464 0.0
H4818 H 0.29305 0.79275 0.88805 0.0
H4819 H 0.30445 0.79238 0.85144 0.0
H4820 H 0.33843 0.85327 0.83564 0.0
H4821 H 0.33782 0.87298 0.87284 0.0
C4822 C 0.31867 0.85591 0.90444 0.0
C4823 C 0.30783 0.84496 0.91941 0.0
C4824 C 0.32009 0.84432 0.88345 0.0
C4825 C 0.29886 0.82207 0.91335 0.0
C4826 C 0.30033 0.81034 0.89246 0.0
C4827 C 0.3116 0.80998 0.85607 0.0
C4828 C 0.32103 0.8214 0.84061 0.0
C4829 C 0.31075 0.82137 0.87734 0.0
C4830 C 0.33086 0.84406 0.84711 0.0
C4831 C 0.33046 0.85541 0.86837 0.0
H4832 H 0.02731 0.56945 0.72328 0.0
H4833 H 0.98134 0.51717 0.68198 0.0
H4834 H 1.00477 0.51446 0.65353 0.0
H4835 H 0.03785 0.52774 0.64012 0.0
H4836 H 0.08364 0.58059 0.68093 0.0
H4837 H 0.0608 0.58216 0.71011 0.0
C4838 C 0.02245 0.55754 0.708 0.0
C4839 C 1.00268 0.54359 0.7046 0.0
C4840 C 0.03595 0.55612 0.69177 0.0
C4841 C 0.99658 0.52795 0.68495 0.0
C4842 C 0.00991 0.52646 0.66869 0.0
C4843 C 0.04281 0.53959 0.65543 0.0
C4844 C 0.06231 0.55408 0.65844 0.0
C4845 C 0.02956 0.54056 0.6719 0.0
C4846 C 0.06874 0.56914 0.6784 0.0
C4847 C 0.05565 0.57015 0.69497 0.0
H4848 H 0.33441 0.25709 0.40293 0.0
H4849 H 0.27193 0.21834 0.38979 0.0
H4850 H 0.26965 0.22776 0.35384 0.0
H4851 H 0.28501 0.24704 0.32589 0.0
H4852 H 0.34764 0.2848 0.33808 0.0
H4853 H 0.35028 0.27541 0.37409 0.0
C4854 C 0.32032 0.25051 0.3922 0.0
C4855 C 0.30329 0.23718 0.39955 0.0
C4856 C 0.31908 0.25586 0.37118 0.0
C4857 C 0.28519 0.22906 0.38514 0.0
C4858 C 0.28389 0.23427 0.36434 0.0
C4859 C 0.29927 0.25336 0.33636 0.0
C4860 C 0.31586 0.26757 0.32934 0.0
C4861 C 0.30068 0.24773 0.35718 0.0
C4862 C 0.33427 0.2749 0.34321 0.0
C4863 C 0.33587 0.26923 0.36384 0.0
H4864 H 0.38245 0.58054 0.48386 0.0
H4865 H 0.36811 0.5798 0.55011 0.0
H4866 H 0.39199 0.55594 0.55422 0.0
H4867 H 0.41808 0.5369 0.53953 0.0
H4868 H 0.43355 0.53876 0.47376 0.0
H4869 H 0.4081 0.56067 0.46881 0.0
C4870 C 0.38447 0.57491 0.49907 0.0
C4871 C 0.37372 0.5818 0.51668 0.0
C4872 C 0.39844 0.56156 0.5014 0.0
C4873 C 0.37647 0.57473 0.53644 0.0
C4874 C 0.39003 0.5611 0.53877 0.0
C4875 C 0.41561 0.54181 0.52402 0.0
C4876 C 0.42749 0.53621 0.50701 0.0
C4877 C 0.40125 0.55463 0.52144 0.0
C4878 C 0.42453 0.54301 0.4871 0.0
C4879 C 0.41001 0.55548 0.48426 0.0
H4880 H 0.93863 0.98135 0.56534 0.0
H4881 H 0.92637 0.95465 0.49589 0.0
H4882 H 0.96043 0.97402 0.49015 0.0
H4883 H 0.99402 0.99838 0.5045 0.0
H4884 H 1.00545 0.02829 0.57313 0.0
H4885 H 0.97134 0.00835 0.57931 0.0
C4886 C 0.94319 0.97994 0.54887 0.0
C4887 C 0.92979 0.96591 0.53122 0.0
C4888 C 0.96277 0.99181 0.54545 0.0
C4889 C 0.93635 0.96449 0.51005 0.0
C4890 C 0.95587 0.97582 0.50663 0.0
C4891 C 0.98909 1.00049 0.52083 0.0
C4892 C 1.00242 0.01455 0.53837 0.0
C4893 C 0.96929 0.98935 0.5242 0.0
C4894 C 0.99556 0.01746 0.55934 0.0
C4895 C 0.97604 1.00603 0.56289 0.0
H4896 H 0.86904 0.17399 0.24519 0.0
H4897 H 0.88394 0.18928 0.31515 0.0
H4898 H 0.868 0.22087 0.31795 0.0
H4899 H 0.84996 0.24665 0.30089 0.0
H4900 H 0.83541 0.23091 0.23105 0.0
H4901 H 0.85009 0.19829 0.22853 0.0
C4902 C 0.86887 0.18388 0.26126 0.0
C4903 C 0.87865 0.1781 0.27982 0.0
C4904 C 0.85912 0.20273 0.26305 0.0
C4905 C 0.87754 0.19235 0.30009 0.0
C4906 C 0.868 0.21086 0.30187 0.0
C4907 C 0.84942 0.23587 0.28512 0.0
C4908 C 0.84047 0.24174 0.26617 0.0
C4909 C 0.85868 0.21655 0.28352 0.0
C4910 C 0.84131 0.22726 0.24612 0.0
C4911 C 0.85005 0.20835 0.24457 0.0
H4912 H 0.67378 0.11448 0.03443 0.0
H4913 H 0.67662 0.04522 0.01966 0.0
H4914 H 0.63918 0.03411 0.01529 0.0
H4915 H 0.606 0.04417 0.01512 0.0
H4916 H 0.6026 0.11298 0.03168 0.0
H4917 H 0.64024 0.1244 0.03563 0.0
C4918 C 0.66623 0.09694 0.03057 0.0
C4919 C 0.67797 0.08069 0.02736 0.0
C4920 C 0.64474 0.09069 0.02822 0.0
C4921 C 0.66793 0.05805 0.02193 0.0
C4922 C 0.64656 0.05169 0.01945 0.0
C4923 C 0.61343 0.0616 0.02002 0.0
C4924 C 0.60165 0.07769 0.02387 0.0
C4925 C 0.63486 0.06788 0.02248 0.0
C4926 C 0.61149 0.10034 0.02906 0.0
C4927 C 0.63293 0.10682 0.03133 0.0
H4928 H 0.2409 0.43853 0.27029 0.0
H4929 H 0.2908 0.47672 0.24267 0.0
H4930 H 0.31439 0.45647 0.2564 0.0
H4931 H 0.32154 0.43107 0.27998 0.0
H4932 H 0.27219 0.39486 0.30962 0.0
H4933 H 0.24752 0.41124 0.29153 0.0
C4934 C 0.25693 0.44234 0.26723 0.0
C4935 C 0.26418 0.45919 0.25573 0.0
C4936 C 0.27046 0.43113 0.27568 0.0
C4937 C 0.28486 0.46368 0.2514 0.0
C4938 C 0.29838 0.45226 0.25938 0.0
C4939 C 0.30531 0.42659 0.28206 0.0
C4940 C 0.29843 0.41207 0.29597 0.0
C4941 C 0.29145 0.43641 0.27204 0.0
C4942 C 0.27754 0.40617 0.29888 0.0
C4943 C 0.26355 0.41553 0.28863 0.0
H4944 H 0.21173 0.44305 0.01782 0.0
H4945 H 0.26471 0.4982 0.0283 0.0
H4946 H 0.24289 0.52323 0.02188 0.0
H4947 H 0.20908 0.52964 0.01256 0.0
H4948 H 0.15621 0.47435 0.99924 0.0
H4949 H 0.17764 0.44943 0.00773 0.0
C4950 C 0.21856 0.4605 0.01855 0.0
C4951 C 0.23994 0.46861 0.02376 0.0
C4952 C 0.20592 0.4749 0.01438 0.0
C4953 C 0.24834 0.49142 0.02485 0.0
C4954 C 0.23587 0.5058 0.02098 0.0
C4955 C 0.2022 0.5121 0.01122 0.0
C4956 C 0.18099 0.50401 1.00508 0.0
C4957 C 0.21468 0.49772 0.01563 0.0
C4958 C 0.1724 0.48125 1.00412 0.0
C4959 C 0.1847 0.46689 0.00881 0.0
H4960 H 0.89371 0.93339 0.28467 0.0
H4961 H 0.84217 0.94966 0.25204 0.0
H4962 H 0.82217 0.91178 0.24949 0.0
H4963 H 0.81859 0.87309 0.25643 0.0
H4964 H 0.87015 0.85728 0.28944 0.0
H4965 H 0.89009 0.89509 0.29185 0.0
C4966 C 0.87806 0.92893 0.27711 0.0
C4967 C 0.86993 0.9452 0.26846 0.0
C4968 C 0.86627 0.90666 0.2757 0.0
C4969 C 0.84948 0.9381 0.25856 0.0
C4970 C 0.83777 0.91617 0.2572 0.0
C4971 C 0.83412 0.87783 0.26429 0.0
C4972 C 0.84243 0.86166 0.27285 0.0
C4973 C 0.84591 0.90014 0.26567 0.0
C4974 C 0.86289 0.86874 0.28266 0.0
C4975 C 0.8745 0.89066 0.28409 0.0
H4976 H 0.77659 0.16559 0.76896 0.0
H4977 H 0.71312 0.16513 0.75222 0.0
H4978 H 0.72136 0.20573 0.75863 0.0
H4979 H 0.74671 0.24152 0.76887 0.0
H4980 H 0.81003 0.24174 0.78559 0.0
H4981 H 0.8017 0.20122 0.77994 0.0
C4982 C 0.76456 0.1744 0.76685 0.0
C4983 C 0.74435 0.16239 0.75996 0.0
C4984 C 0.76934 0.19772 0.77077 0.0
C4985 C 0.72892 0.174 0.75708 0.0
C4986 C 0.73355 0.19722 0.76097 0.0
C4987 C 0.75857 0.23258 0.77133 0.0
C4988 C 0.77897 0.24437 0.77702 0.0
C4989 C 0.7537 0.20925 0.76781 0.0
C4990 C 0.79429 0.23287 0.78059 0.0
C4991 C 0.78953 0.20972 0.77746 0.0
loop_
_geom_bond_atom_site_label_1
_geom_bond_atom_site_label_2
_geom_bond_distance
_geom_bond_site_symmetry_2
_ccdc_geom_bond_type
Li0 N17 1.990 . S
Li0 O60 1.956 . S
Li0 O61 1.970 . S
Li0 O62 1.961 . S
Li1 N25 1.990 . S
Li1 O60 1.970 . S
Li1 O61 1.956 . S
Li1 O63 1.961 . S
Li2 N47 1.990 . S
Li2 O60 1.961 . S
Li2 O62 1.956 . S
Li2 O63 1.970 . S
Li3 N53 1.990 . S
Li3 O61 1.961 . S
Li3 O62 1.970 . S
Li3 O63 1.956 . S
C4 C6 1.348 . S
C4 C7 1.356 . S
C4 O60 1.325 . S
N5 C8 1.314 . S
N5 C9 1.279 . S
C6 C4 1.348 . S
C6 C8 1.353 . S
C6 H64 0.929 . S
C7 C4 1.356 . S
C7 C9 1.358 . S
C7 H65 0.930 . S
C8 N5 1.314 . S
C8 C6 1.353 . S
C8 H66 0.930 . S
C9 N5 1.279 . S
C9 C7 1.358 . S
C9 H67 0.930 . S
C10 C13 1.348 . S
C10 C14 1.356 . S
C10 O61 1.325 . S
C11 N12 1.279 . S
C11 C14 1.358 . S
C11 H68 0.930 . S
N12 C11 1.279 . S
N12 C15 1.314 . S
C13 C10 1.348 . S
C13 C15 1.353 . S
C13 H69 0.929 . S
C14 C10 1.356 . S
C14 C11 1.358 . S
C14 H70 0.930 . S
C15 N12 1.314 . S
C15 C13 1.353 . S
C15 H71 0.930 . S
C16 N17 1.314 . S
C16 C21 1.353 . S
C16 H22 0.930 . S
N17 Li0 1.990 . S
N17 C16 1.314 . S
N17 C19 1.279 . S
C18 C19 1.358 . S
C18 C20 1.356 . S
C18 H72 0.930 . S
C19 N17 1.279 . S
C19 C18 1.358 . S
C19 H23 0.930 . S
C20 C18 1.356 . S
C20 C21 1.348 . S
C21 C16 1.353 . S
C21 C20 1.348 . S
C21 H73 0.929 . S
H22 C16 0.930 . S
H23 C19 0.930 . S
C24 N25 1.314 . S
C24 C26 1.353 . S
C24 H30 0.930 . S
N25 Li1 1.990 . S
N25 C24 1.314 . S
N25 C28 1.279 . S
C26 C24 1.353 . S
C26 C29 1.348 . S
C26 H74 0.929 . S
C27 C28 1.358 . S
C27 C29 1.356 . S
C27 H75 0.930 . S
C28 N25 1.279 . S
C28 C27 1.358 . S
C28 H31 0.930 . S
C29 C26 1.348 . S
C29 C27 1.356 . S
H30 C24 0.930 . S
H31 C28 0.930 . S
C32 C34 1.348 . S
C32 C35 1.356 . S
C32 O62 1.325 . S
N33 C36 1.314 . S
N33 C37 1.279 . S
C34 C32 1.348 . S
C34 C36 1.353 . S
C34 H76 0.929 . S
C35 C32 1.356 . S
C35 C37 1.358 . S
C35 H77 0.930 . S
C36 N33 1.314 . S
C36 C34 1.353 . S
C36 H78 0.930 . S
C37 N33 1.279 . S
C37 C35 1.358 . S
C37 H79 0.930 . S
C38 C39 1.348 . S
C38 C40 1.356 . S
C38 O63 1.325 . S
C39 C38 1.348 . S
C39 C41 1.353 . S
C39 H80 0.929 . S
C40 C38 1.356 . S
C40 C42 1.358 . S
C40 H81 0.930 . S
C41 C39 1.353 . S
C41 N43 1.314 . S
C41 H82 0.930 . S
C42 C40 1.358 . S
C42 N43 1.279 . S
C42 H83 0.930 . S
N43 C41 1.314 . S
N43 C42 1.279 . S
C44 C46 1.353 . S
C44 N47 1.314 . S
C44 H50 0.930 . S
C45 N47 1.279 . S
C45 C48 1.358 . S
C45 H51 0.930 . S
C46 C44 1.353 . S
C46 C49 1.348 . S
C46 H84 0.929 . S
N47 Li2 1.990 . S
N47 C44 1.314 . S
N47 C45 1.279 . S
C48 C45 1.358 . S
C48 C49 1.356 . S
C48 H85 0.930 . S
C49 C46 1.348 . S
C49 C48 1.356 . S
H50 C44 0.930 . S
H51 C45 0.930 . S
C52 N53 1.314 . S
C52 C54 1.353 . S
C52 H58 0.930 . S
N53 Li3 1.990 . S
N53 C52 1.314 . S
N53 C56 1.279 . S
C54 C52 1.353 . S
C54 C57 1.348 . S
C54 H86 0.929 . S
C55 C56 1.358 . S
C55 C57 1.356 . S
C55 H87 0.930 . S
C56 N53 1.279 . S
C56 C55 1.358 . S
C56 H59 0.930 . S
C57 C54 1.348 . S
C57 C55 1.356 . S
H58 C52 0.930 . S
H59 C56 0.930 . S
O60 Li0 1.956 . S
O60 Li1 1.970 . S
O60 Li2 1.961 . S
O60 C4 1.325 . S
O61 Li0 1.970 . S
O61 Li1 1.956 . S
O61 Li3 1.961 . S
O61 C10 1.325 . S
O62 Li0 1.961 . S
O62 Li2 1.956 . S
O62 Li3 1.970 . S
O62 C32 1.325 . S
O63 Li1 1.961 . S
O63 Li2 1.970 . S
O63 Li3 1.956 . S
O63 C38 1.325 . S
H64 C6 0.929 . S
H65 C7 0.930 . S
H66 C8 0.930 . S
H67 C9 0.930 . S
H68 C11 0.930 . S
H69 C13 0.929 . S
H70 C14 0.930 . S
H71 C15 0.930 . S
H72 C18 0.930 . S
H73 C21 0.929 . S
H74 C26 0.929 . S
H75 C27 0.930 . S
H76 C34 0.929 . S
H77 C35 0.930 . S
H78 C36 0.930 . S
H79 C37 0.930 . S
H80 C39 0.929 . S
H81 C40 0.930 . S
H82 C41 0.930 . S
H83 C42 0.930 . S
H84 C46 0.929 . S
H85 C48 0.930 . S
H86 C54 0.929 . S
H87 C55 0.930 . S
Li88 N105 1.990 . S
Li88 O148 1.956 . S
Li88 O149 1.970 . S
Li88 O150 1.961 1_455 S
Li89 N113 1.990 . S
Li89 O148 1.970 . S
Li89 O149 1.956 . S
Li89 O151 1.934 1_455 S
Li90 N135 1.990 . S
Li90 O148 1.961 1_655 S
Li90 O150 1.956 . S
Li90 O151 1.972 . S
Li91 N141 1.990 . S
Li91 O149 1.961 1_655 S
Li91 O150 1.970 . S
Li91 O151 1.994 . S
C92 C94 1.348 . S
C92 C95 1.356 . S
C92 O148 1.325 . S
N93 C96 1.314 . S
N93 C97 1.279 . S
C94 C92 1.348 . S
C94 C96 1.353 . S
C94 H152 0.929 . S
C95 C92 1.356 . S
C95 C97 1.358 . S
C95 H153 0.930 . S
C96 N93 1.314 . S
C96 C94 1.353 . S
C96 H154 0.930 . S
C97 N93 1.279 . S
C97 C95 1.358 . S
C97 H155 0.930 . S
C98 C101 1.348 . S
C98 C102 1.356 . S
C98 O149 1.325 . S
C99 N100 1.279 . S
C99 C102 1.358 . S
C99 H156 0.930 . S
N100 C99 1.279 . S
N100 C103 1.314 . S
C101 C98 1.348 . S
C101 C103 1.353 . S
C101 H157 0.929 . S
C102 C98 1.356 . S
C102 C99 1.358 . S
C102 H158 0.929 1_455 S
C103 N100 1.314 . S
C103 C101 1.353 . S
C103 H159 0.930 . S
C104 N105 1.314 1_655 S
C104 C109 1.353 . S
C104 H110 0.930 . S
N105 Li88 1.990 . S
N105 C104 1.314 1_455 S
N105 C107 1.279 . S
C106 C107 1.358 . S
C106 C108 1.356 . S
C106 H160 0.930 . S
C107 N105 1.279 . S
C107 C106 1.358 . S
C107 H111 0.930 . S
C108 C106 1.356 . S
C108 C109 1.348 1_455 S
C109 C104 1.353 . S
C109 C108 1.348 1_655 S
C109 H161 0.929 . S
H110 C104 0.930 . S
H111 C107 0.930 . S
C112 N113 1.314 . S
C112 C114 1.353 . S
C112 H118 0.930 . S
N113 Li89 1.990 . S
N113 C112 1.314 . S
N113 C116 1.279 . S
C114 C112 1.353 . S
C114 C117 1.348 . S
C114 H162 0.929 . S
C115 C116 1.358 . S
C115 C117 1.356 . S
C115 H163 0.930 . S
C116 N113 1.279 . S
C116 C115 1.358 . S
C116 H119 0.930 . S
C117 C114 1.348 . S
C117 C115 1.356 . S
H118 C112 0.930 . S
H119 C116 0.930 . S
C120 C122 1.348 . S
C120 C123 1.356 . S
C120 O150 1.325 . S
N121 C124 1.314 . S
N121 C125 1.279 . S
C122 C120 1.348 . S
C122 C124 1.353 . S
C122 H164 0.929 . S
C123 C120 1.356 . S
C123 C125 1.358 . S
C123 H165 0.930 . S
C124 N121 1.314 . S
C124 C122 1.353 . S
C124 H166 0.930 . S
C125 N121 1.279 . S
C125 C123 1.358 . S
C125 H167 0.930 . S
C126 C127 1.348 . S
C126 C128 1.356 1_655 S
C126 O151 1.323 . S
C127 C126 1.348 . S
C127 C129 1.353 . S
C127 H168 0.929 . S
C128 C126 1.356 1_455 S
C128 C130 1.358 . S
C128 H169 0.930 . S
C129 C127 1.353 . S
C129 N131 1.314 . S
C129 H170 0.930 . S
C130 C128 1.358 . S
C130 N131 1.277 1_455 S
C130 H171 0.933 . S
N131 C129 1.314 . S
N131 C130 1.277 1_655 S
C132 C134 1.353 . S
C132 N135 1.314 1_455 S
C132 H138 0.930 . S
C133 N135 1.279 . S
C133 C136 1.358 . S
C133 H139 0.930 . S
C134 C132 1.353 . S
C134 C137 1.348 1_455 S
C134 H172 0.929 . S
N135 Li90 1.990 . S
N135 C132 1.314 1_655 S
N135 C133 1.279 . S
C136 C133 1.358 . S
C136 C137 1.356 . S
C136 H173 0.930 . S
C137 C134 1.348 1_655 S
C137 C136 1.356 . S
H138 C132 0.930 . S
H139 C133 0.930 . S
C140 N141 1.314 . S
C140 C142 1.353 . S
C140 H146 0.930 . S
N141 Li91 1.990 . S
N141 C140 1.314 . S
N141 C144 1.279 . S
C142 C140 1.353 . S
C142 C145 1.348 . S
C142 H174 0.929 . S
C143 C144 1.358 . S
C143 C145 1.356 . S
C143 H175 0.930 . S
C144 N141 1.279 . S
C144 C143 1.358 . S
C144 H147 0.930 . S
C145 C142 1.348 . S
C145 C143 1.356 . S
H146 C140 0.930 . S
H147 C144 0.930 . S
O148 Li88 1.956 . S
O148 Li89 1.970 . S
O148 Li90 1.961 1_455 S
O148 C92 1.325 . S
O149 Li88 1.970 . S
O149 Li89 1.956 . S
O149 Li91 1.961 1_455 S
O149 C98 1.325 . S
O150 Li88 1.961 1_655 S
O150 Li90 1.956 . S
O150 Li91 1.970 . S
O150 C120 1.325 . S
O151 Li89 1.934 1_655 S
O151 Li90 1.972 . S
O151 Li91 1.994 . S
O151 C126 1.323 . S
H152 C94 0.929 . S
H153 C95 0.930 . S
H154 C96 0.930 . S
H155 C97 0.930 . S
H156 C99 0.930 . S
H157 C101 0.929 . S
H158 C102 0.929 1_655 S
H159 C103 0.930 . S
H160 C106 0.930 . S
H161 C109 0.929 . S
H162 C114 0.929 . S
H163 C115 0.930 . S
H164 C122 0.929 . S
H165 C123 0.930 . S
H166 C124 0.930 . S
H167 C125 0.930 . S
H168 C127 0.929 . S
H169 C128 0.930 . S
H170 C129 0.930 . S
H171 C130 0.933 . S
H172 C134 0.929 . S
H173 C136 0.930 . S
H174 C142 0.929 . S
H175 C143 0.930 . S
Li176 N193 1.990 . S
Li176 O236 1.956 . S
Li176 O237 1.970 . S
Li176 O238 1.961 . S
Li177 N201 1.990 . S
Li177 O236 1.970 . S
Li177 O237 1.956 . S
Li177 O239 1.961 . S
Li178 N223 1.990 . S
Li178 O236 1.961 . S
Li178 O238 1.956 . S
Li178 O239 1.970 . S
Li179 N229 1.990 . S
Li179 O237 1.961 . S
Li179 O238 1.970 . S
Li179 O239 1.956 . S
C180 C182 1.348 . S
C180 C183 1.356 . S
C180 O236 1.325 . S
N181 C184 1.314 . S
N181 C185 1.279 . S
C182 C180 1.348 . S
C182 C184 1.353 . S
C182 H240 0.929 . S
C183 C180 1.356 . S
C183 C185 1.358 . S
C183 H241 0.930 . S
C184 N181 1.314 . S
C184 C182 1.353 . S
C184 H242 0.930 . S
C185 N181 1.279 . S
C185 C183 1.358 . S
C185 H243 0.930 . S
C186 C189 1.348 . S
C186 C190 1.356 . S
C186 O237 1.325 . S
C187 N188 1.279 . S
C187 C190 1.358 . S
C187 H244 0.930 . S
N188 C187 1.279 . S
N188 C191 1.314 . S
C189 C186 1.348 . S
C189 C191 1.353 . S
C189 H245 0.929 . S
C190 C186 1.356 . S
C190 C187 1.358 . S
C190 H246 0.930 . S
C191 N188 1.314 . S
C191 C189 1.353 . S
C191 H247 0.930 . S
C192 N193 1.314 . S
C192 C197 1.353 . S
C192 H198 0.930 . S
N193 Li176 1.990 . S
N193 C192 1.314 . S
N193 C195 1.279 . S
C194 C195 1.358 . S
C194 C196 1.356 . S
C194 H248 0.930 . S
C195 N193 1.279 . S
C195 C194 1.358 . S
C195 H199 0.930 . S
C196 C194 1.356 . S
C196 C197 1.348 . S
C197 C192 1.353 . S
C197 C196 1.348 . S
C197 H249 0.929 . S
H198 C192 0.930 . S
H199 C195 0.930 . S
C200 N201 1.314 . S
C200 C202 1.353 . S
C200 H206 0.930 . S
N201 Li177 1.990 . S
N201 C200 1.314 . S
N201 C204 1.279 . S
C202 C200 1.353 . S
C202 C205 1.348 . S
C202 H250 0.929 . S
C203 C204 1.358 . S
C203 C205 1.356 . S
C203 H251 0.930 . S
C204 N201 1.279 . S
C204 C203 1.358 . S
C204 H207 0.930 . S
C205 C202 1.348 . S
C205 C203 1.356 . S
H206 C200 0.930 . S
H207 C204 0.930 . S
C208 C210 1.348 . S
C208 C211 1.356 . S
C208 O238 1.325 . S
N209 C212 1.314 . S
N209 C213 1.279 . S
C210 C208 1.348 . S
C210 C212 1.353 . S
C210 H252 0.929 . S
C211 C208 1.356 . S
C211 C213 1.358 . S
C211 H253 0.930 . S
C212 N209 1.314 . S
C212 C210 1.353 . S
C212 H254 0.930 . S
C213 N209 1.279 . S
C213 C211 1.358 . S
C213 H255 0.930 . S
C214 C215 1.348 . S
C214 C216 1.356 . S
C214 O239 1.325 . S
C215 C214 1.348 . S
C215 C217 1.353 . S
C215 H256 0.929 . S
C216 C214 1.356 . S
C216 C218 1.358 . S
C216 H257 0.930 . S
C217 C215 1.353 . S
C217 N219 1.314 . S
C217 H258 0.930 . S
C218 C216 1.358 . S
C218 N219 1.279 . S
C218 H259 0.930 . S
N219 C217 1.314 . S
N219 C218 1.279 . S
C220 C222 1.353 . S
C220 N223 1.314 . S
C220 H226 0.930 . S
C221 N223 1.279 . S
C221 C224 1.358 . S
C221 H227 0.930 . S
C222 C220 1.353 . S
C222 C225 1.348 . S
C222 H260 0.929 . S
N223 Li178 1.990 . S
N223 C220 1.314 . S
N223 C221 1.279 . S
C224 C221 1.358 . S
C224 C225 1.356 . S
C224 H261 0.930 . S
C225 C222 1.348 . S
C225 C224 1.356 . S
H226 C220 0.930 . S
H227 C221 0.930 . S
C228 N229 1.314 . S
C228 C230 1.353 . S
C228 H234 0.930 . S
N229 Li179 1.990 . S
N229 C228 1.314 . S
N229 C232 1.279 . S
C230 C228 1.353 . S
C230 C233 1.348 . S
C230 H262 0.929 . S
C231 C232 1.358 . S
C231 C233 1.356 . S
C231 H263 0.930 . S
C232 N229 1.279 . S
C232 C231 1.358 . S
C232 H235 0.930 . S
C233 C230 1.348 . S
C233 C231 1.356 . S
H234 C228 0.930 . S
H235 C232 0.930 . S
O236 Li176 1.956 . S
O236 Li177 1.970 . S
O236 Li178 1.961 . S
O236 C180 1.325 . S
O237 Li176 1.970 . S
O237 Li177 1.956 . S
O237 Li179 1.961 . S
O237 C186 1.325 . S
O238 Li176 1.961 . S
O238 Li178 1.956 . S
O238 Li179 1.970 . S
O238 C208 1.325 . S
O239 Li177 1.961 . S
O239 Li178 1.970 . S
O239 Li179 1.956 . S
O239 C214 1.325 . S
H240 C182 0.929 . S
H241 C183 0.930 . S
H242 C184 0.930 . S
H243 C185 0.930 . S
H244 C187 0.930 . S
H245 C189 0.929 . S
H246 C190 0.930 . S
H247 C191 0.930 . S
H248 C194 0.930 . S
H249 C197 0.929 . S
H250 C202 0.929 . S
H251 C203 0.930 . S
H252 C210 0.929 . S
H253 C211 0.930 . S
H254 C212 0.930 . S
H255 C213 0.930 . S
H256 C215 0.929 . S
H257 C216 0.930 . S
H258 C217 0.930 . S
H259 C218 0.930 . S
H260 C222 0.929 . S
H261 C224 0.930 . S
H262 C230 0.929 . S
H263 C231 0.930 . S
Li264 N281 1.990 . S
Li264 O324 1.956 . S
Li264 O325 1.970 . S
Li264 O326 1.961 . S
Li265 N289 1.990 . S
Li265 O324 1.970 . S
Li265 O325 1.956 . S
Li265 O327 1.961 . S
Li266 N311 1.990 . S
Li266 O324 1.961 . S
Li266 O326 1.956 . S
Li266 O327 1.970 . S
Li267 N317 1.990 . S
Li267 O325 1.961 . S
Li267 O326 1.970 . S
Li267 O327 1.956 . S
C268 C270 1.348 . S
C268 C271 1.356 . S
C268 O324 1.325 . S
N269 C272 1.314 . S
N269 C273 1.279 . S
C270 C268 1.348 . S
C270 C272 1.353 . S
C270 H328 0.929 . S
C271 C268 1.356 . S
C271 C273 1.358 . S
C271 H329 0.930 . S
C272 N269 1.314 . S
C272 C270 1.353 . S
C272 H330 0.930 . S
C273 N269 1.279 . S
C273 C271 1.358 . S
C273 H331 0.930 . S
C274 C277 1.348 . S
C274 C278 1.356 . S
C274 O325 1.325 . S
C275 N276 1.279 . S
C275 C278 1.358 . S
C275 H332 0.930 . S
N276 C275 1.279 . S
N276 C279 1.314 . S
C277 C274 1.348 . S
C277 C279 1.353 . S
C277 H333 0.929 . S
C278 C274 1.356 . S
C278 C275 1.358 . S
C278 H334 0.930 . S
C279 N276 1.314 . S
C279 C277 1.353 . S
C279 H335 0.930 . S
C280 N281 1.314 . S
C280 C285 1.353 . S
C280 H286 0.930 . S
N281 Li264 1.990 . S
N281 C280 1.314 . S
N281 C283 1.279 . S
C282 C283 1.358 . S
C282 C284 1.356 . S
C282 H336 0.930 . S
C283 N281 1.279 . S
C283 C282 1.358 . S
C283 H287 0.930 . S
C284 C282 1.356 . S
C284 C285 1.348 . S
C285 C280 1.353 . S
C285 C284 1.348 . S
C285 H337 0.929 . S
H286 C280 0.930 . S
H287 C283 0.930 . S
C288 N289 1.314 . S
C288 C290 1.353 . S
C288 H294 0.930 . S
N289 Li265 1.990 . S
N289 C288 1.314 . S
N289 C292 1.279 . S
C290 C288 1.353 . S
C290 C293 1.348 . S
C290 H338 0.929 . S
C291 C292 1.358 . S
C291 C293 1.356 . S
C291 H339 0.930 . S
C292 N289 1.279 . S
C292 C291 1.358 . S
C292 H295 0.930 . S
C293 C290 1.348 . S
C293 C291 1.356 . S
H294 C288 0.930 . S
H295 C292 0.930 . S
C296 C298 1.348 . S
C296 C299 1.356 . S
C296 O326 1.325 . S
N297 C300 1.314 . S
N297 C301 1.279 . S
C298 C296 1.348 . S
C298 C300 1.353 . S
C298 H340 0.929 . S
C299 C296 1.356 . S
C299 C301 1.358 . S
C299 H341 0.930 . S
C300 N297 1.314 . S
C300 C298 1.353 . S
C300 H342 0.930 . S
C301 N297 1.279 . S
C301 C299 1.358 . S
C301 H343 0.930 . S
C302 C303 1.348 . S
C302 C304 1.356 . S
C302 O327 1.325 . S
C303 C302 1.348 . S
C303 C305 1.353 . S
C303 H344 0.929 . S
C304 C302 1.356 . S
C304 C306 1.358 . S
C304 H345 0.930 . S
C305 C303 1.353 . S
C305 N307 1.314 . S
C305 H346 0.930 . S
C306 C304 1.358 . S
C306 N307 1.279 . S
C306 H347 0.930 . S
N307 C305 1.314 . S
N307 C306 1.279 . S
C308 C310 1.353 . S
C308 N311 1.314 . S
C308 H314 0.930 . S
C309 N311 1.279 . S
C309 C312 1.358 . S
C309 H315 0.930 . S
C310 C308 1.353 . S
C310 C313 1.348 . S
C310 H348 0.929 . S
N311 Li266 1.990 . S
N311 C308 1.314 . S
N311 C309 1.279 . S
C312 C309 1.358 . S
C312 C313 1.356 . S
C312 H349 0.930 . S
C313 C310 1.348 . S
C313 C312 1.356 . S
H314 C308 0.930 . S
H315 C309 0.930 . S
C316 N317 1.314 . S
C316 C318 1.353 . S
C316 H322 0.930 . S
N317 Li267 1.990 . S
N317 C316 1.314 . S
N317 C320 1.279 . S
C318 C316 1.353 . S
C318 C321 1.348 . S
C318 H350 0.929 . S
C319 C320 1.358 . S
C319 C321 1.356 . S
C319 H351 0.930 . S
C320 N317 1.279 . S
C320 C319 1.358 . S
C320 H323 0.930 . S
C321 C318 1.348 . S
C321 C319 1.356 . S
H322 C316 0.930 . S
H323 C320 0.930 . S
O324 Li264 1.956 . S
O324 Li265 1.970 . S
O324 Li266 1.961 . S
O324 C268 1.325 . S
O325 Li264 1.970 . S
O325 Li265 1.956 . S
O325 Li267 1.961 . S
O325 C274 1.325 . S
O326 Li264 1.961 . S
O326 Li266 1.956 . S
O326 Li267 1.970 . S
O326 C296 1.325 . S
O327 Li265 1.961 . S
O327 Li266 1.970 . S
O327 Li267 1.956 . S
O327 C302 1.325 . S
H328 C270 0.929 . S
H329 C271 0.930 . S
H330 C272 0.930 . S
H331 C273 0.930 . S
H332 C275 0.930 . S
H333 C277 0.929 . S
H334 C278 0.930 . S
H335 C279 0.930 . S
H336 C282 0.930 . S
H337 C285 0.929 . S
H338 C290 0.929 . S
H339 C291 0.930 . S
H340 C298 0.929 . S
H341 C299 0.930 . S
H342 C300 0.930 . S
H343 C301 0.930 . S
H344 C303 0.929 . S
H345 C304 0.930 . S
H346 C305 0.930 . S
H347 C306 0.930 . S
H348 C310 0.929 . S
H349 C312 0.930 . S
H350 C318 0.929 . S
H351 C319 0.930 . S
Li352 N369 1.990 . S
Li352 O412 1.956 . S
Li352 O413 1.970 . S
Li352 O414 1.961 . S
Li353 N377 1.990 . S
Li353 O412 1.970 . S
Li353 O413 1.956 . S
Li353 O415 1.961 . S
Li354 N399 1.990 . S
Li354 O412 1.961 . S
Li354 O414 1.956 . S
Li354 O415 1.970 . S
Li355 N405 1.990 . S
Li355 O413 1.961 . S
Li355 O414 1.970 . S
Li355 O415 1.956 . S
C356 C358 1.348 . S
C356 C359 1.356 . S
C356 O412 1.325 . S
N357 C360 1.314 . S
N357 C361 1.279 . S
C358 C356 1.348 . S
C358 C360 1.353 . S
C358 H416 0.929 . S
C359 C356 1.356 . S
C359 C361 1.358 . S
C359 H417 0.930 . S
C360 N357 1.314 . S
C360 C358 1.353 . S
C360 H418 0.930 . S
C361 N357 1.279 . S
C361 C359 1.358 . S
C361 H419 0.930 . S
C362 C365 1.348 . S
C362 C366 1.356 . S
C362 O413 1.325 . S
C363 N364 1.279 . S
C363 C366 1.358 . S
C363 H420 0.930 . S
N364 C363 1.279 . S
N364 C367 1.314 . S
C365 C362 1.348 . S
C365 C367 1.353 . S
C365 H421 0.929 . S
C366 C362 1.356 . S
C366 C363 1.358 . S
C366 H422 0.930 . S
C367 N364 1.314 . S
C367 C365 1.353 . S
C367 H423 0.930 . S
C368 N369 1.314 . S
C368 C373 1.353 . S
C368 H374 0.930 . S
N369 Li352 1.990 . S
N369 C368 1.314 . S
N369 C371 1.279 . S
C370 C371 1.358 . S
C370 C372 1.356 . S
C370 H424 0.930 . S
C371 N369 1.279 . S
C371 C370 1.358 . S
C371 H375 0.930 . S
C372 C370 1.356 . S
C372 C373 1.348 . S
C373 C368 1.353 . S
C373 C372 1.348 . S
C373 H425 0.929 . S
H374 C368 0.930 . S
H375 C371 0.930 . S
C376 N377 1.314 . S
C376 C378 1.353 . S
C376 H382 0.930 . S
N377 Li353 1.990 . S
N377 C376 1.314 . S
N377 C380 1.279 . S
C378 C376 1.353 . S
C378 C381 1.348 . S
C378 H426 0.929 . S
C379 C380 1.358 . S
C379 C381 1.356 . S
C379 H427 0.930 . S
C380 N377 1.279 . S
C380 C379 1.358 . S
C380 H383 0.930 . S
C381 C378 1.348 . S
C381 C379 1.356 . S
H382 C376 0.930 . S
H383 C380 0.930 . S
C384 C386 1.348 . S
C384 C387 1.356 . S
C384 O414 1.325 . S
N385 C388 1.314 . S
N385 C389 1.279 . S
C386 C384 1.348 . S
C386 C388 1.353 . S
C386 H428 0.929 . S
C387 C384 1.356 . S
C387 C389 1.358 . S
C387 H429 0.930 . S
C388 N385 1.314 . S
C388 C386 1.353 . S
C388 H430 0.892 1_455 S
C389 N385 1.279 . S
C389 C387 1.358 . S
C389 H431 0.930 . S
C390 C391 1.348 . S
C390 C392 1.356 . S
C390 O415 1.325 . S
C391 C390 1.348 . S
C391 C393 1.353 . S
C391 H432 0.929 . S
C392 C390 1.356 . S
C392 C394 1.358 . S
C392 H433 0.930 . S
C393 C391 1.353 . S
C393 N395 1.314 . S
C393 H434 0.930 . S
C394 C392 1.358 . S
C394 N395 1.279 . S
C394 H435 0.930 . S
N395 C393 1.314 . S
N395 C394 1.279 . S
C396 C398 1.353 . S
C396 N399 1.314 . S
C396 H402 0.930 . S
C397 N399 1.279 . S
C397 C400 1.358 . S
C397 H403 0.930 . S
C398 C396 1.353 . S
C398 C401 1.348 . S
C398 H436 0.929 . S
N399 Li354 1.990 . S
N399 C396 1.314 . S
N399 C397 1.279 . S
C400 C397 1.358 . S
C400 C401 1.356 . S
C400 H437 0.930 . S
C401 C398 1.348 . S
C401 C400 1.356 . S
H402 C396 0.930 . S
H403 C397 0.930 . S
C404 N405 1.314 . S
C404 C406 1.353 . S
C404 H410 0.930 . S
N405 Li355 1.990 . S
N405 C404 1.314 . S
N405 C408 1.279 . S
C406 C404 1.353 . S
C406 C409 1.348 . S
C406 H438 0.929 . S
C407 C408 1.358 . S
C407 C409 1.356 . S
C407 H439 0.930 . S
C408 N405 1.279 . S
C408 C407 1.358 . S
C408 H411 0.930 . S
C409 C406 1.348 . S
C409 C407 1.356 . S
H410 C404 0.930 . S
H411 C408 0.930 . S
O412 Li352 1.956 . S
O412 Li353 1.970 . S
O412 Li354 1.961 . S
O412 C356 1.325 . S
O413 Li352 1.970 . S
O413 Li353 1.956 . S
O413 Li355 1.961 . S
O413 C362 1.325 . S
O414 Li352 1.961 . S
O414 Li354 1.956 . S
O414 Li355 1.970 . S
O414 C384 1.325 . S
O415 Li353 1.961 . S
O415 Li354 1.970 . S
O415 Li355 1.956 . S
O415 C390 1.325 . S
H416 C358 0.929 . S
H417 C359 0.930 . S
H418 C360 0.930 . S
H419 C361 0.930 . S
H420 C363 0.930 . S
H421 C365 0.929 . S
H422 C366 0.930 . S
H423 C367 0.930 . S
H424 C370 0.930 . S
H425 C373 0.929 . S
H426 C378 0.929 . S
H427 C379 0.930 . S
H428 C386 0.929 . S
H429 C387 0.930 . S
H430 C388 0.892 1_655 S
H431 C389 0.930 . S
H432 C391 0.929 . S
H433 C392 0.930 . S
H434 C393 0.930 . S
H435 C394 0.930 . S
H436 C398 0.929 . S
H437 C400 0.930 . S
H438 C406 0.929 . S
H439 C407 0.930 . S
Li440 N457 1.990 . S
Li440 O500 1.956 . S
Li440 O501 1.970 . S
Li440 O502 1.961 . S
Li441 N465 1.990 . S
Li441 O500 1.970 . S
Li441 O501 1.956 . S
Li441 O503 1.961 . S
Li442 N487 1.990 . S
Li442 O500 1.961 . S
Li442 O502 1.956 . S
Li442 O503 1.970 . S
Li443 N493 1.990 . S
Li443 O501 1.961 . S
Li443 O502 1.970 . S
Li443 O503 1.956 . S
C444 C446 1.348 . S
C444 C447 1.356 . S
C444 O500 1.325 . S
N445 C448 1.314 . S
N445 C449 1.279 . S
C446 C444 1.348 . S
C446 C448 1.353 . S
C446 H504 0.929 . S
C447 C444 1.356 . S
C447 C449 1.358 . S
C447 H505 0.930 . S
C448 N445 1.314 . S
C448 C446 1.353 . S
C448 H506 0.930 . S
C449 N445 1.279 . S
C449 C447 1.358 . S
C449 H507 0.930 . S
C450 C453 1.348 . S
C450 C454 1.356 . S
C450 O501 1.325 . S
C451 N452 1.279 . S
C451 C454 1.358 . S
C451 H508 0.930 . S
N452 C451 1.279 . S
N452 C455 1.314 . S
C453 C450 1.348 . S
C453 C455 1.353 . S
C453 H509 0.929 . S
C454 C450 1.356 . S
C454 C451 1.358 . S
C454 H510 0.930 . S
C455 N452 1.314 . S
C455 C453 1.353 . S
C455 H511 0.930 . S
C456 N457 1.314 . S
C456 C461 1.353 . S
C456 H462 0.930 . S
N457 Li440 1.990 . S
N457 C456 1.314 . S
N457 C459 1.279 . S
C458 C459 1.358 . S
C458 C460 1.356 . S
C458 H512 0.930 . S
C459 N457 1.279 . S
C459 C458 1.358 . S
C459 H463 0.930 . S
C460 C458 1.356 . S
C460 C461 1.348 . S
C461 C456 1.353 . S
C461 C460 1.348 . S
C461 H513 0.929 . S
H462 C456 0.930 . S
H463 C459 0.930 . S
C464 N465 1.314 . S
C464 C466 1.353 . S
C464 H470 0.930 . S
N465 Li441 1.990 . S
N465 C464 1.314 . S
N465 C468 1.279 . S
C466 C464 1.353 . S
C466 C469 1.348 . S
C466 H514 0.929 . S
C467 C468 1.358 . S
C467 C469 1.356 . S
C467 H515 0.930 . S
C468 N465 1.279 . S
C468 C467 1.358 . S
C468 H471 0.930 . S
C469 C466 1.348 . S
C469 C467 1.356 . S
H470 C464 0.930 . S
H471 C468 0.930 . S
C472 C474 1.348 . S
C472 C475 1.356 . S
C472 O502 1.325 . S
N473 C476 1.314 . S
N473 C477 1.279 . S
C474 C472 1.348 . S
C474 C476 1.353 . S
C474 H516 0.929 . S
C475 C472 1.356 . S
C475 C477 1.358 . S
C475 H517 0.930 . S
C476 N473 1.314 . S
C476 C474 1.353 . S
C476 H518 0.930 . S
C477 N473 1.279 . S
C477 C475 1.358 . S
C477 H519 0.930 . S
C478 C479 1.348 . S
C478 C480 1.356 . S
C478 O503 1.325 . S
C479 C478 1.348 . S
C479 C481 1.353 . S
C479 H520 0.929 . S
C480 C478 1.356 . S
C480 C482 1.358 . S
C480 H521 0.930 . S
C481 C479 1.353 . S
C481 N483 1.314 . S
C481 H522 0.930 . S
C482 C480 1.358 . S
C482 N483 1.279 . S
C482 H523 0.930 . S
N483 C481 1.314 . S
N483 C482 1.279 . S
C484 C486 1.353 . S
C484 N487 1.314 . S
C484 H490 0.930 . S
C485 N487 1.279 . S
C485 C488 1.358 . S
C485 H491 0.930 . S
C486 C484 1.353 . S
C486 C489 1.348 . S
C486 H524 0.929 . S
N487 Li442 1.990 . S
N487 C484 1.314 . S
N487 C485 1.279 . S
C488 C485 1.358 . S
C488 C489 1.356 . S
C488 H525 0.930 . S
C489 C486 1.348 . S
C489 C488 1.356 . S
H490 C484 0.930 . S
H491 C485 0.930 . S
C492 N493 1.314 . S
C492 C494 1.353 . S
C492 H498 0.930 . S
N493 Li443 1.990 . S
N493 C492 1.314 . S
N493 C496 1.279 . S
C494 C492 1.353 . S
C494 C497 1.348 . S
C494 H526 0.929 . S
C495 C496 1.358 . S
C495 C497 1.356 . S
C495 H527 0.930 . S
C496 N493 1.279 . S
C496 C495 1.358 . S
C496 H499 0.930 . S
C497 C494 1.348 . S
C497 C495 1.356 . S
H498 C492 0.930 . S
H499 C496 0.930 . S
O500 Li440 1.956 . S
O500 Li441 1.970 . S
O500 Li442 1.961 . S
O500 C444 1.325 . S
O501 Li440 1.970 . S
O501 Li441 1.956 . S
O501 Li443 1.961 . S
O501 C450 1.325 . S
O502 Li440 1.961 . S
O502 Li442 1.956 . S
O502 Li443 1.970 . S
O502 C472 1.325 . S
O503 Li441 1.961 . S
O503 Li442 1.970 . S
O503 Li443 1.956 . S
O503 C478 1.325 . S
H504 C446 0.929 . S
H505 C447 0.930 . S
H506 C448 0.930 . S
H507 C449 0.930 . S
H508 C451 0.930 . S
H509 C453 0.929 . S
H510 C454 0.930 . S
H511 C455 0.930 . S
H512 C458 0.930 . S
H513 C461 0.929 . S
H514 C466 0.929 . S
H515 C467 0.930 . S
H516 C474 0.929 . S
H517 C475 0.930 . S
H518 C476 0.930 . S
H519 C477 0.930 . S
H520 C479 0.929 . S
H521 C480 0.930 . S
H522 C481 0.930 . S
H523 C482 0.930 . S
H524 C486 0.929 . S
H525 C488 0.930 . S
H526 C494 0.929 . S
H527 C495 0.930 . S
Li528 N545 1.990 . S
Li528 O588 1.956 . S
Li528 O589 1.970 . S
Li528 O590 1.961 . S
Li529 N553 1.990 . S
Li529 O588 1.970 . S
Li529 O589 1.956 . S
Li529 O591 1.961 . S
Li530 N575 1.990 . S
Li530 O588 1.961 . S
Li530 O590 1.956 . S
Li530 O591 1.970 . S
Li531 N581 1.990 . S
Li531 O589 1.961 . S
Li531 O590 1.970 . S
Li531 O591 1.956 . S
C532 C534 1.348 . S
C532 C535 1.356 . S
C532 O588 1.325 . S
N533 C536 1.314 . S
N533 C537 1.279 . S
C534 C532 1.348 . S
C534 C536 1.353 . S
C534 H592 0.929 . S
C535 C532 1.356 . S
C535 C537 1.358 . S
C535 H593 0.930 . S
C536 N533 1.314 . S
C536 C534 1.353 . S
C536 H594 0.930 . S
C537 N533 1.279 . S
C537 C535 1.358 . S
C537 H595 0.930 . S
C538 C541 1.348 . S
C538 C542 1.356 . S
C538 O589 1.325 . S
C539 N540 1.279 . S
C539 C542 1.358 . S
C539 H596 0.930 . S
N540 C539 1.279 . S
N540 C543 1.314 . S
C541 C538 1.348 . S
C541 C543 1.353 . S
C541 H597 0.929 . S
C542 C538 1.356 . S
C542 C539 1.358 . S
C542 H598 0.930 . S
C543 N540 1.314 . S
C543 C541 1.353 . S
C543 H599 0.930 . S
C544 N545 1.314 . S
C544 C549 1.353 . S
C544 H550 0.930 . S
N545 Li528 1.990 . S
N545 C544 1.314 . S
N545 C547 1.279 . S
C546 C547 1.358 . S
C546 C548 1.356 . S
C546 H600 0.930 . S
C547 N545 1.279 . S
C547 C546 1.358 . S
C547 H551 0.930 . S
C548 C546 1.356 . S
C548 C549 1.348 . S
C549 C544 1.353 . S
C549 C548 1.348 . S
C549 H601 0.929 . S
H550 C544 0.930 . S
H551 C547 0.930 . S
C552 N553 1.314 . S
C552 C554 1.353 . S
C552 H558 0.930 . S
N553 Li529 1.990 . S
N553 C552 1.314 . S
N553 C556 1.279 . S
C554 C552 1.353 . S
C554 C557 1.348 . S
C554 H602 0.929 . S
C555 C556 1.358 . S
C555 C557 1.356 . S
C555 H603 0.930 . S
C556 N553 1.279 . S
C556 C555 1.358 . S
C556 H559 0.930 . S
C557 C554 1.348 . S
C557 C555 1.356 . S
H558 C552 0.930 . S
H559 C556 0.930 . S
C560 C562 1.348 . S
C560 C563 1.356 . S
C560 O590 1.325 . S
N561 C564 1.314 . S
N561 C565 1.279 . S
C562 C560 1.348 . S
C562 C564 1.353 . S
C562 H604 0.929 . S
C563 C560 1.356 . S
C563 C565 1.358 . S
C563 H605 0.930 . S
C564 N561 1.314 . S
C564 C562 1.353 . S
C564 H606 0.930 . S
C565 N561 1.279 . S
C565 C563 1.358 . S
C565 H607 0.930 . S
C566 C567 1.348 . S
C566 C568 1.356 . S
C566 O591 1.325 . S
C567 C566 1.348 . S
C567 C569 1.353 . S
C567 H608 0.929 . S
C568 C566 1.356 . S
C568 C570 1.358 . S
C568 H609 0.930 . S
C569 C567 1.353 . S
C569 N571 1.314 . S
C569 H610 0.930 . S
C570 C568 1.358 . S
C570 N571 1.279 . S
C570 H611 0.930 . S
N571 C569 1.314 . S
N571 C570 1.279 . S
C572 C574 1.353 . S
C572 N575 1.314 . S
C572 H578 0.930 . S
C573 N575 1.279 . S
C573 C576 1.358 . S
C573 H579 0.930 . S
C574 C572 1.353 . S
C574 C577 1.348 . S
C574 H612 0.929 . S
N575 Li530 1.990 . S
N575 C572 1.314 . S
N575 C573 1.279 . S
C576 C573 1.358 . S
C576 C577 1.356 . S
C576 H613 0.930 . S
C577 C574 1.348 . S
C577 C576 1.356 . S
H578 C572 0.930 . S
H579 C573 0.930 . S
C580 N581 1.314 . S
C580 C582 1.353 . S
C580 H586 0.930 . S
N581 Li531 1.990 . S
N581 C580 1.314 . S
N581 C584 1.279 . S
C582 C580 1.353 . S
C582 C585 1.348 . S
C582 H614 0.929 . S
C583 C584 1.358 . S
C583 C585 1.356 . S
C583 H615 0.930 . S
C584 N581 1.279 . S
C584 C583 1.358 . S
C584 H587 0.930 . S
C585 C582 1.348 . S
C585 C583 1.356 . S
H586 C580 0.930 . S
H587 C584 0.930 . S
O588 Li528 1.956 . S
O588 Li529 1.970 . S
O588 Li530 1.961 . S
O588 C532 1.325 . S
O589 Li528 1.970 . S
O589 Li529 1.956 . S
O589 Li531 1.961 . S
O589 C538 1.325 . S
O590 Li528 1.961 . S
O590 Li530 1.956 . S
O590 Li531 1.970 . S
O590 C560 1.325 . S
O591 Li529 1.961 . S
O591 Li530 1.970 . S
O591 Li531 1.956 . S
O591 C566 1.325 . S
H592 C534 0.929 . S
H593 C535 0.930 . S
H594 C536 0.930 . S
H595 C537 0.930 . S
H596 C539 0.930 . S
H597 C541 0.929 . S
H598 C542 0.930 . S
H599 C543 0.930 . S
H600 C546 0.930 . S
H601 C549 0.929 . S
H602 C554 0.929 . S
H603 C555 0.930 . S
H604 C562 0.929 . S
H605 C563 0.930 . S
H606 C564 0.930 . S
H607 C565 0.930 . S
H608 C567 0.929 . S
H609 C568 0.930 . S
H610 C569 0.930 . S
H611 C570 0.930 . S
H612 C574 0.929 . S
H613 C576 0.930 . S
H614 C582 0.929 . S
H615 C583 0.930 . S
Li616 N633 1.990 . S
Li616 O676 1.947 1_455 S
Li616 O677 1.970 . S
Li616 O678 1.961 . S
Li617 N641 1.970 1_455 S
Li617 O676 1.967 1_455 S
Li617 O677 1.972 . S
Li617 O679 1.981 . S
Li618 N663 1.990 . S
Li618 O676 1.949 1_455 S
Li618 O678 1.956 . S
Li618 O679 1.970 . S
Li619 N669 1.990 . S
Li619 O677 1.961 . S
Li619 O678 1.970 . S
Li619 O679 1.956 . S
C620 C622 1.348 . S
C620 C623 1.356 . S
C620 O676 1.336 . S
N621 C624 1.314 . S
N621 C625 1.279 . S
C622 C620 1.348 . S
C622 C624 1.353 . S
C622 H680 0.929 . S
C623 C620 1.356 . S
C623 C625 1.358 . S
C623 H681 0.930 . S
C624 N621 1.314 . S
C624 C622 1.353 . S
C624 H682 0.930 . S
C625 N621 1.279 . S
C625 C623 1.358 . S
C625 H683 0.930 1_556 S
C626 C629 1.348 . S
C626 C630 1.356 . S
C626 O677 1.325 . S
C627 N628 1.279 . S
C627 C630 1.358 . S
C627 H684 0.930 . S
N628 C627 1.279 . S
N628 C631 1.314 . S
C629 C626 1.348 . S
C629 C631 1.353 . S
C629 H685 0.929 . S
C630 C626 1.356 . S
C630 C627 1.358 . S
C630 H686 0.930 . S
C631 N628 1.314 . S
C631 C629 1.353 . S
C631 H687 0.930 . S
C632 N633 1.314 . S
C632 C637 1.353 . S
C632 H638 0.930 . S
N633 Li616 1.990 . S
N633 C632 1.314 . S
N633 C635 1.279 . S
C634 C635 1.358 1_554 S
C634 C636 1.356 . S
C634 H688 0.930 . S
C635 N633 1.279 . S
C635 C634 1.358 1_556 S
C635 H639 0.939 . S
C636 C634 1.356 . S
C636 C637 1.348 1_554 S
C637 C632 1.353 . S
C637 C636 1.348 1_556 S
C637 H689 0.929 . S
H638 C632 0.930 . S
H639 C635 0.939 . S
C640 N641 1.314 . S
C640 C642 1.353 . S
C640 H646 0.930 . S
N641 Li617 1.970 1_655 S
N641 C640 1.314 . S
N641 C644 1.279 . S
C642 C640 1.353 . S
C642 C645 1.348 . S
C642 H690 0.929 . S
C643 C644 1.358 . S
C643 C645 1.356 . S
C643 H691 0.930 . S
C644 N641 1.279 . S
C644 C643 1.358 . S
C644 H647 0.930 . S
C645 C642 1.348 . S
C645 C643 1.356 . S
H646 C640 0.930 . S
H647 C644 0.930 . S
C648 C650 1.348 . S
C648 C651 1.356 . S
C648 O678 1.325 . S
N649 C652 1.314 . S
N649 C653 1.279 1_556 S
C650 C648 1.348 . S
C650 C652 1.353 . S
C650 H692 0.929 . S
C651 C648 1.356 . S
C651 C653 1.358 1_556 S
C651 H693 0.930 . S
C652 N649 1.314 . S
C652 C650 1.353 . S
C652 H694 0.930 . S
C653 N649 1.279 1_554 S
C653 C651 1.358 1_554 S
C653 H695 0.930 . S
C654 C655 1.348 . S
C654 C656 1.356 . S
C654 O679 1.325 . S
C655 C654 1.348 . S
C655 C657 1.353 . S
C655 H696 0.929 . S
C656 C654 1.356 . S
C656 C658 1.358 . S
C656 H697 0.930 . S
C657 C655 1.353 . S
C657 N659 1.314 . S
C657 H698 0.930 . S
C658 C656 1.358 . S
C658 N659 1.279 . S
C658 H699 0.930 . S
N659 C657 1.314 . S
N659 C658 1.279 . S
C660 C662 1.353 1_455 S
C660 N663 1.314 . S
C660 H666 0.930 1_455 S
C661 N663 1.279 . S
C661 C664 1.358 . S
C661 H667 0.930 . S
C662 C660 1.353 1_655 S
C662 C665 1.348 1_655 S
C662 H700 0.929 . S
N663 Li618 1.990 . S
N663 C660 1.314 . S
N663 C661 1.279 . S
C664 C661 1.358 . S
C664 C665 1.356 . S
C664 H701 0.956 . S
C665 C662 1.348 1_455 S
C665 C664 1.356 . S
H666 C660 0.930 1_655 S
H667 C661 0.930 . S
C668 N669 1.314 . S
C668 C670 1.353 . S
C668 H674 0.930 . S
N669 Li619 1.990 . S
N669 C668 1.314 . S
N669 C672 1.279 . S
C670 C668 1.353 . S
C670 C673 1.348 . S
C670 H702 0.929 . S
C671 C672 1.358 . S
C671 C673 1.356 . S
C671 H703 0.930 . S
C672 N669 1.279 . S
C672 C671 1.358 . S
C672 H675 0.930 . S
C673 C670 1.348 . S
C673 C671 1.356 . S
H674 C668 0.930 . S
H675 C672 0.930 . S
O676 Li616 1.947 1_655 S
O676 Li617 1.967 1_655 S
O676 Li618 1.949 1_655 S
O676 C620 1.336 . S
O677 Li616 1.970 . S
O677 Li617 1.972 . S
O677 Li619 1.961 . S
O677 C626 1.325 . S
O678 Li616 1.961 . S
O678 Li618 1.956 . S
O678 Li619 1.970 . S
O678 C648 1.325 . S
O679 Li617 1.981 . S
O679 Li618 1.970 . S
O679 Li619 1.956 . S
O679 C654 1.325 . S
H680 C622 0.929 . S
H681 C623 0.930 . S
H682 C624 0.930 . S
H683 C625 0.930 1_554 S
H684 C627 0.930 . S
H685 C629 0.929 . S
H686 C630 0.930 . S
H687 C631 0.930 . S
H688 C634 0.930 . S
H689 C637 0.929 . S
H690 C642 0.929 . S
H691 C643 0.930 . S
H692 C650 0.929 . S
H693 C651 0.930 . S
H694 C652 0.930 . S
H695 C653 0.930 . S
H696 C655 0.929 . S
H697 C656 0.930 . S
H698 C657 0.930 . S
H699 C658 0.930 . S
H700 C662 0.929 . S
H701 C664 0.956 . S
H702 C670 0.929 . S
H703 C671 0.930 . S
Li704 N721 1.990 . S
Li704 O764 1.956 . S
Li704 O765 1.970 . S
Li704 O766 1.961 . S
Li705 N729 1.999 . S
Li705 O764 1.972 1_565 S
Li705 O765 1.948 1_565 S
Li705 O767 1.952 1_565 S
Li706 N751 1.990 . S
Li706 O764 1.961 . S
Li706 O766 1.956 . S
Li706 O767 1.970 . S
Li707 N757 1.990 . S
Li707 O765 1.961 . S
Li707 O766 1.970 . S
Li707 O767 1.956 . S
C708 C710 1.348 . S
C708 C711 1.356 . S
C708 O764 1.325 1_565 S
N709 C712 1.314 . S
N709 C713 1.279 . S
C710 C708 1.348 . S
C710 C712 1.353 . S
C710 H768 0.929 . S
C711 C708 1.356 . S
C711 C713 1.358 . S
C711 H769 0.930 1_565 S
C712 N709 1.314 . S
C712 C710 1.353 . S
C712 H770 0.930 . S
C713 N709 1.279 . S
C713 C711 1.358 . S
C713 H771 0.930 . S
C714 C717 1.348 . S
C714 C718 1.356 . S
C714 O765 1.325 . S
C715 N716 1.279 . S
C715 C718 1.358 . S
C715 H772 0.930 . S
N716 C715 1.279 . S
N716 C719 1.314 . S
C717 C714 1.348 . S
C717 C719 1.353 . S
C717 H773 0.929 . S
C718 C714 1.356 . S
C718 C715 1.358 . S
C718 H774 0.930 . S
C719 N716 1.314 . S
C719 C717 1.353 . S
C719 H775 0.930 . S
C720 N721 1.314 . S
C720 C725 1.353 . S
C720 H726 0.930 . S
N721 Li704 1.990 . S
N721 C720 1.314 . S
N721 C723 1.279 . S
C722 C723 1.358 . S
C722 C724 1.356 . S
C722 H776 0.930 . S
C723 N721 1.279 . S
C723 C722 1.358 . S
C723 H727 0.930 . S
C724 C722 1.356 . S
C724 C725 1.348 . S
C725 C720 1.353 . S
C725 C724 1.348 . S
C725 H777 0.929 . S
H726 C720 0.930 . S
H727 C723 0.930 . S
C728 N729 1.314 . S
C728 C730 1.353 . S
C728 H734 0.930 . S
N729 Li705 1.999 . S
N729 C728 1.314 . S
N729 C732 1.279 . S
C730 C728 1.353 . S
C730 C733 1.348 . S
C730 H778 0.929 . S
C731 C732 1.358 . S
C731 C733 1.356 . S
C731 H779 0.930 . S
C732 N729 1.279 . S
C732 C731 1.358 . S
C732 H735 0.930 . S
C733 C730 1.348 . S
C733 C731 1.356 . S
H734 C728 0.930 . S
H735 C732 0.930 . S
C736 C738 1.348 . S
C736 C739 1.356 . S
C736 O766 1.325 . S
N737 C740 1.314 . S
N737 C741 1.279 . S
C738 C736 1.348 . S
C738 C740 1.353 . S
C738 H780 0.929 . S
C739 C736 1.356 . S
C739 C741 1.358 . S
C739 H781 0.930 . S
C740 N737 1.314 . S
C740 C738 1.353 . S
C740 H782 0.930 . S
C741 N737 1.279 . S
C741 C739 1.358 . S
C741 H783 0.930 . S
C742 C743 1.348 . S
C742 C744 1.356 . S
C742 O767 1.325 . S
C743 C742 1.348 . S
C743 C745 1.353 . S
C743 H784 0.929 . S
C744 C742 1.356 . S
C744 C746 1.358 . S
C744 H785 0.930 . S
C745 C743 1.353 . S
C745 N747 1.314 . S
C745 H786 0.930 . S
C746 C744 1.358 . S
C746 N747 1.279 . S
C746 H787 0.923 1_545 S
N747 C745 1.314 . S
N747 C746 1.279 . S
C748 C750 1.353 . S
C748 N751 1.314 . S
C748 H754 0.930 1_545 S
C749 N751 1.279 . S
C749 C752 1.358 . S
C749 H755 0.930 . S
C750 C748 1.353 . S
C750 C753 1.348 . S
C750 H788 0.929 1_545 S
N751 Li706 1.990 . S
N751 C748 1.314 . S
N751 C749 1.279 . S
C752 C749 1.358 . S
C752 C753 1.356 . S
C752 H789 0.930 . S
C753 C750 1.348 . S
C753 C752 1.356 . S
H754 C748 0.930 1_565 S
H755 C749 0.930 . S
C756 N757 1.314 . S
C756 C758 1.353 . S
C756 H762 0.930 . S
N757 Li707 1.990 . S
N757 C756 1.314 . S
N757 C760 1.279 . S
C758 C756 1.353 . S
C758 C761 1.348 . S
C758 H790 0.929 . S
C759 C760 1.358 . S
C759 C761 1.356 . S
C759 H791 0.930 . S
C760 N757 1.279 . S
C760 C759 1.358 . S
C760 H763 0.930 . S
C761 C758 1.348 . S
C761 C759 1.356 . S
H762 C756 0.930 . S
H763 C760 0.930 . S
O764 Li704 1.956 . S
O764 Li705 1.972 1_545 S
O764 Li706 1.961 . S
O764 C708 1.325 1_545 S
O765 Li704 1.970 . S
O765 Li705 1.948 1_545 S
O765 Li707 1.961 . S
O765 C714 1.325 . S
O766 Li704 1.961 . S
O766 Li706 1.956 . S
O766 Li707 1.970 . S
O766 C736 1.325 . S
O767 Li705 1.952 1_545 S
O767 Li706 1.970 . S
O767 Li707 1.956 . S
O767 C742 1.325 . S
H768 C710 0.929 . S
H769 C711 0.930 1_545 S
H770 C712 0.930 . S
H771 C713 0.930 . S
H772 C715 0.930 . S
H773 C717 0.929 . S
H774 C718 0.930 . S
H775 C719 0.930 . S
H776 C722 0.930 . S
H777 C725 0.929 . S
H778 C730 0.929 . S
H779 C731 0.930 . S
H780 C738 0.929 . S
H781 C739 0.930 . S
H782 C740 0.930 . S
H783 C741 0.930 . S
H784 C743 0.929 . S
H785 C744 0.930 . S
H786 C745 0.930 . S
H787 C746 0.923 1_565 S
H788 C750 0.929 1_565 S
H789 C752 0.930 . S
H790 C758 0.929 . S
H791 C759 0.930 . S
Li792 N809 1.990 . S
Li792 O852 1.956 . S
Li792 O853 1.970 . S
Li792 O854 1.961 . S
Li793 N817 1.990 . S
Li793 O852 1.970 . S
Li793 O853 1.956 . S
Li793 O855 1.961 . S
Li794 N839 1.990 . S
Li794 O852 1.961 . S
Li794 O854 1.956 . S
Li794 O855 1.970 . S
Li795 N845 1.990 . S
Li795 O853 1.961 . S
Li795 O854 1.970 . S
Li795 O855 1.956 . S
C796 C798 1.348 . S
C796 C799 1.356 . S
C796 O852 1.325 . S
N797 C800 1.314 . S
N797 C801 1.279 . S
C798 C796 1.348 . S
C798 C800 1.353 . S
C798 H856 0.929 . S
C799 C796 1.356 . S
C799 C801 1.358 . S
C799 H857 0.930 . S
C800 N797 1.314 . S
C800 C798 1.353 . S
C800 H858 0.930 . S
C801 N797 1.279 . S
C801 C799 1.358 . S
C801 H859 0.930 . S
C802 C805 1.348 . S
C802 C806 1.356 . S
C802 O853 1.325 . S
C803 N804 1.279 . S
C803 C806 1.358 . S
C803 H860 0.930 . S
N804 C803 1.279 . S
N804 C807 1.314 . S
C805 C802 1.348 . S
C805 C807 1.353 . S
C805 H861 0.929 . S
C806 C802 1.356 . S
C806 C803 1.358 . S
C806 H862 0.930 . S
C807 N804 1.314 . S
C807 C805 1.353 . S
C807 H863 0.930 . S
C808 N809 1.314 . S
C808 C813 1.353 . S
C808 H814 0.930 . S
N809 Li792 1.990 . S
N809 C808 1.314 . S
N809 C811 1.279 . S
C810 C811 1.358 . S
C810 C812 1.356 . S
C810 H864 0.930 . S
C811 N809 1.279 . S
C811 C810 1.358 . S
C811 H815 0.930 . S
C812 C810 1.356 . S
C812 C813 1.348 . S
C813 C808 1.353 . S
C813 C812 1.348 . S
C813 H865 0.929 . S
H814 C808 0.930 . S
H815 C811 0.930 . S
C816 N817 1.314 . S
C816 C818 1.353 . S
C816 H822 0.930 . S
N817 Li793 1.990 . S
N817 C816 1.314 . S
N817 C820 1.279 . S
C818 C816 1.353 . S
C818 C821 1.348 . S
C818 H866 0.929 . S
C819 C820 1.358 . S
C819 C821 1.356 . S
C819 H867 0.930 . S
C820 N817 1.279 . S
C820 C819 1.358 . S
C820 H823 0.930 . S
C821 C818 1.348 . S
C821 C819 1.356 . S
H822 C816 0.930 . S
H823 C820 0.930 . S
C824 C826 1.348 . S
C824 C827 1.356 . S
C824 O854 1.325 . S
N825 C828 1.314 . S
N825 C829 1.279 . S
C826 C824 1.348 . S
C826 C828 1.353 . S
C826 H868 0.929 . S
C827 C824 1.356 . S
C827 C829 1.358 . S
C827 H869 0.930 . S
C828 N825 1.314 . S
C828 C826 1.353 . S
C828 H870 0.930 . S
C829 N825 1.279 . S
C829 C827 1.358 . S
C829 H871 0.930 . S
C830 C831 1.348 . S
C830 C832 1.356 . S
C830 O855 1.325 . S
C831 C830 1.348 . S
C831 C833 1.353 . S
C831 H872 0.929 . S
C832 C830 1.356 . S
C832 C834 1.358 . S
C832 H873 0.930 . S
C833 C831 1.353 . S
C833 N835 1.314 . S
C833 H874 0.930 . S
C834 C832 1.358 . S
C834 N835 1.279 . S
C834 H875 0.930 . S
N835 C833 1.314 . S
N835 C834 1.279 . S
C836 C838 1.353 . S
C836 N839 1.314 . S
C836 H842 0.930 . S
C837 N839 1.279 . S
C837 C840 1.358 . S
C837 H843 0.930 . S
C838 C836 1.353 . S
C838 C841 1.348 . S
C838 H876 0.929 . S
N839 Li794 1.990 . S
N839 C836 1.314 . S
N839 C837 1.279 . S
C840 C837 1.358 . S
C840 C841 1.356 . S
C840 H877 0.930 . S
C841 C838 1.348 . S
C841 C840 1.356 . S
H842 C836 0.930 . S
H843 C837 0.930 . S
C844 N845 1.314 . S
C844 C846 1.353 . S
C844 H850 0.930 . S
N845 Li795 1.990 . S
N845 C844 1.314 . S
N845 C848 1.279 . S
C846 C844 1.353 . S
C846 C849 1.348 . S
C846 H878 0.929 . S
C847 C848 1.358 . S
C847 C849 1.356 . S
C847 H879 0.930 . S
C848 N845 1.279 . S
C848 C847 1.358 . S
C848 H851 0.930 . S
C849 C846 1.348 . S
C849 C847 1.356 . S
H850 C844 0.930 . S
H851 C848 0.930 . S
O852 Li792 1.956 . S
O852 Li793 1.970 . S
O852 Li794 1.961 . S
O852 C796 1.325 . S
O853 Li792 1.970 . S
O853 Li793 1.956 . S
O853 Li795 1.961 . S
O853 C802 1.325 . S
O854 Li792 1.961 . S
O854 Li794 1.956 . S
O854 Li795 1.970 . S
O854 C824 1.325 . S
O855 Li793 1.961 . S
O855 Li794 1.970 . S
O855 Li795 1.956 . S
O855 C830 1.325 . S
H856 C798 0.929 . S
H857 C799 0.930 . S
H858 C800 0.930 . S
H859 C801 0.930 . S
H860 C803 0.930 . S
H861 C805 0.929 . S
H862 C806 0.930 . S
H863 C807 0.930 . S
H864 C810 0.930 . S
H865 C813 0.929 . S
H866 C818 0.929 . S
H867 C819 0.930 . S
H868 C826 0.929 . S
H869 C827 0.930 . S
H870 C828 0.930 . S
H871 C829 0.930 . S
H872 C831 0.929 . S
H873 C832 0.930 . S
H874 C833 0.930 . S
H875 C834 0.930 . S
H876 C838 0.929 . S
H877 C840 0.930 . S
H878 C846 0.929 . S
H879 C847 0.930 . S
Li880 N897 1.990 . S
Li880 O940 1.956 . S
Li880 O941 1.970 . S
Li880 O942 1.979 . S
Li881 N905 1.990 . S
Li881 O940 1.967 . S
Li881 O941 1.980 . S
Li881 O943 1.940 1_545 S
Li882 N927 1.990 . S
Li882 O940 1.961 1_565 S
Li882 O942 1.932 1_565 S
Li882 O943 1.970 . S
Li883 N933 1.990 . S
Li883 O941 1.961 1_565 S
Li883 O942 1.972 1_565 S
Li883 O943 1.956 . S
C884 C886 1.348 . S
C884 C887 1.356 . S
C884 O940 1.325 . S
N885 C888 1.314 . S
N885 C889 1.279 . S
C886 C884 1.348 . S
C886 C888 1.353 . S
C886 H944 0.929 . S
C887 C884 1.356 . S
C887 C889 1.358 . S
C887 H945 0.930 . S
C888 N885 1.314 . S
C888 C886 1.353 . S
C888 H946 0.930 . S
C889 N885 1.279 . S
C889 C887 1.358 . S
C889 H947 0.930 . S
C890 C893 1.348 . S
C890 C894 1.356 . S
C890 O941 1.325 . S
C891 N892 1.279 . S
C891 C894 1.358 . S
C891 H948 0.930 . S
N892 C891 1.279 . S
N892 C895 1.314 . S
C893 C890 1.348 . S
C893 C895 1.353 . S
C893 H949 0.929 . S
C894 C890 1.356 . S
C894 C891 1.358 . S
C894 H950 0.930 . S
C895 N892 1.314 . S
C895 C893 1.353 . S
C895 H951 0.930 . S
C896 N897 1.314 . S
C896 C901 1.353 . S
C896 H902 0.930 . S
N897 Li880 1.990 . S
N897 C896 1.314 . S
N897 C899 1.279 . S
C898 C899 1.358 . S
C898 C900 1.356 . S
C898 H952 0.930 . S
C899 N897 1.279 . S
C899 C898 1.358 . S
C899 H903 0.930 . S
C900 C898 1.356 . S
C900 C901 1.348 . S
C901 C896 1.353 . S
C901 C900 1.348 . S
C901 H953 0.929 . S
H902 C896 0.930 . S
H903 C899 0.930 . S
C904 N905 1.286 1_565 S
C904 C906 1.353 . S
C904 H910 0.930 . S
N905 Li881 1.990 . S
N905 C904 1.286 1_545 S
N905 C908 1.306 . S
C906 C904 1.353 . S
C906 C909 1.345 1_565 S
C906 H954 0.929 . S
C907 C908 1.358 . S
C907 C909 1.359 . S
C907 H955 0.930 . S
C908 N905 1.306 . S
C908 C907 1.358 . S
C908 H911 0.930 . S
C909 C906 1.345 1_545 S
C909 C907 1.359 . S
H910 C904 0.930 . S
H911 C908 0.930 . S
C912 C914 1.347 1_545 S
C912 C915 1.356 . S
C912 O942 1.325 . S
N913 C916 1.314 . S
N913 C917 1.279 1_565 S
C914 C912 1.347 1_565 S
C914 C916 1.353 . S
C914 H956 0.929 . S
C915 C912 1.356 . S
C915 C917 1.358 . S
C915 H957 0.930 . S
C916 N913 1.314 . S
C916 C914 1.353 . S
C916 H958 0.930 . S
C917 N913 1.279 1_545 S
C917 C915 1.358 . S
C917 H959 0.930 . S
C918 C919 1.348 . S
C918 C920 1.356 . S
C918 O943 1.325 . S
C919 C918 1.348 . S
C919 C921 1.353 . S
C919 H960 0.929 . S
C920 C918 1.356 . S
C920 C922 1.358 . S
C920 H961 0.930 . S
C921 C919 1.353 . S
C921 N923 1.314 . S
C921 H962 0.930 . S
C922 C920 1.358 . S
C922 N923 1.279 . S
C922 H963 0.930 . S
N923 C921 1.314 . S
N923 C922 1.279 . S
C924 C926 1.353 . S
C924 N927 1.314 . S
C924 H930 0.930 . S
C925 N927 1.279 . S
C925 C928 1.358 . S
C925 H931 0.930 . S
C926 C924 1.353 . S
C926 C929 1.348 . S
C926 H964 0.929 . S
N927 Li882 1.990 . S
N927 C924 1.314 . S
N927 C925 1.279 . S
C928 C925 1.358 . S
C928 C929 1.356 . S
C928 H965 0.930 . S
C929 C926 1.348 . S
C929 C928 1.356 . S
H930 C924 0.930 . S
H931 C925 0.930 . S
C932 N933 1.314 1_545 S
C932 C934 1.353 . S
C932 H938 0.930 . S
N933 Li883 1.990 . S
N933 C932 1.314 1_565 S
N933 C936 1.279 . S
C934 C932 1.353 . S
C934 C937 1.348 1_545 S
C934 H966 0.929 . S
C935 C936 1.358 . S
C935 C937 1.356 . S
C935 H967 0.930 . S
C936 N933 1.279 . S
C936 C935 1.358 . S
C936 H939 0.930 . S
C937 C934 1.348 1_565 S
C937 C935 1.356 . S
H938 C932 0.930 . S
H939 C936 0.930 . S
O940 Li880 1.956 . S
O940 Li881 1.967 . S
O940 Li882 1.961 1_545 S
O940 C884 1.325 . S
O941 Li880 1.970 . S
O941 Li881 1.980 . S
O941 Li883 1.961 1_545 S
O941 C890 1.325 . S
O942 Li880 1.979 . S
O942 Li882 1.932 1_545 S
O942 Li883 1.972 1_545 S
O942 C912 1.325 . S
O943 Li881 1.940 1_565 S
O943 Li882 1.970 . S
O943 Li883 1.956 . S
O943 C918 1.325 . S
H944 C886 0.929 . S
H945 C887 0.930 . S
H946 C888 0.930 . S
H947 C889 0.930 . S
H948 C891 0.930 . S
H949 C893 0.929 . S
H950 C894 0.930 . S
H951 C895 0.930 . S
H952 C898 0.930 . S
H953 C901 0.929 . S
H954 C906 0.929 . S
H955 C907 0.930 . S
H956 C914 0.929 . S
H957 C915 0.930 . S
H958 C916 0.930 . S
H959 C917 0.930 . S
H960 C919 0.929 . S
H961 C920 0.930 . S
H962 C921 0.930 . S
H963 C922 0.930 . S
H964 C926 0.929 . S
H965 C928 0.930 . S
H966 C934 0.929 . S
H967 C935 0.930 . S
Li968 N985 1.990 . S
Li968 O1028 1.956 . S
Li968 O1029 1.970 . S
Li968 O1030 1.961 1_554 S
Li969 N993 1.990 . S
Li969 O1028 1.970 . S
Li969 O1029 1.956 . S
Li969 O1031 1.961 . S
Li970 N1015 1.990 . S
Li970 O1028 1.961 . S
Li970 O1030 1.956 1_554 S
Li970 O1031 1.970 . S
Li971 N1021 1.990 . S
Li971 O1029 1.961 1_556 S
Li971 O1030 1.970 . S
Li971 O1031 1.956 1_556 S
C972 C974 1.348 . S
C972 C975 1.356 . S
C972 O1028 1.325 . S
N973 C976 1.314 . S
N973 C977 1.299 . S
C974 C972 1.348 . S
C974 C976 1.353 . S
C974 H1032 0.929 . S
C975 C972 1.356 . S
C975 C977 1.382 . S
C975 H1033 0.930 . S
C976 N973 1.314 . S
C976 C974 1.353 . S
C976 H1034 0.930 . S
C977 N973 1.299 . S
C977 C975 1.382 . S
C977 H1035 0.884 1_565 S
C978 C981 1.348 . S
C978 C982 1.351 1_554 S
C978 O1029 1.325 . S
C979 N980 1.279 1_556 S
C979 C982 1.355 . S
C979 H1036 0.930 . S
N980 C979 1.279 1_554 S
N980 C983 1.314 . S
C981 C978 1.348 . S
C981 C983 1.353 . S
C981 H1037 0.929 . S
C982 C978 1.351 1_556 S
C982 C979 1.355 . S
C982 H1038 0.942 . S
C983 N980 1.314 . S
C983 C981 1.353 . S
C983 H1039 0.930 . S
C984 N985 1.314 1_556 S
C984 C989 1.353 . S
C984 H990 0.930 . S
N985 Li968 1.990 . S
N985 C984 1.314 1_554 S
N985 C987 1.279 . S
C986 C987 1.358 . S
C986 C988 1.356 . S
C986 H1040 0.930 . S
C987 N985 1.279 . S
C987 C986 1.358 . S
C987 H991 0.930 . S
C988 C986 1.356 . S
C988 C989 1.348 1_554 S
C989 C984 1.353 . S
C989 C988 1.348 1_556 S
C989 H1041 0.929 . S
H990 C984 0.930 . S
H991 C987 0.930 . S
C992 N993 1.314 . S
C992 C994 1.353 . S
C992 H998 0.930 . S
N993 Li969 1.990 . S
N993 C992 1.314 . S
N993 C996 1.279 . S
C994 C992 1.353 . S
C994 C997 1.348 . S
C994 H1042 0.929 . S
C995 C996 1.358 . S
C995 C997 1.356 . S
C995 H1043 0.930 . S
C996 N993 1.279 . S
C996 C995 1.358 . S
C996 H999 0.930 . S
C997 C994 1.348 . S
C997 C995 1.356 . S
H998 C992 0.930 . S
H999 C996 0.930 . S
C1000 C1002 1.348 . S
C1000 C1003 1.356 . S
C1000 O1030 1.325 . S
N1001 C1004 1.314 . S
N1001 C1005 1.279 . S
C1002 C1000 1.348 . S
C1002 C1004 1.353 . S
C1002 H1044 0.929 . S
C1003 C1000 1.356 . S
C1003 C1005 1.358 . S
C1003 H1045 0.930 . S
C1004 N1001 1.314 . S
C1004 C1002 1.353 . S
C1004 H1046 0.930 . S
C1005 N1001 1.279 . S
C1005 C1003 1.358 . S
C1005 H1047 0.930 1_565 S
C1006 C1007 1.348 . S
C1006 C1008 1.356 . S
C1006 O1031 1.325 . S
C1007 C1006 1.348 . S
C1007 C1009 1.353 . S
C1007 H1048 0.929 . S
C1008 C1006 1.356 . S
C1008 C1010 1.358 . S
C1008 H1049 0.930 . S
C1009 C1007 1.353 . S
C1009 N1011 1.314 . S
C1009 H1050 0.930 . S
C1010 C1008 1.358 . S
C1010 N1011 1.279 . S
C1010 H1051 0.930 . S
N1011 C1009 1.314 . S
N1011 C1010 1.279 . S
C1012 C1014 1.353 . S
C1012 N1015 1.314 . S
C1012 H1018 0.930 . S
C1013 N1015 1.279 . S
C1013 C1016 1.358 . S
C1013 H1019 0.930 1_554 S
C1014 C1012 1.353 . S
C1014 C1017 1.348 . S
C1014 H1052 0.929 . S
N1015 Li970 1.990 . S
N1015 C1012 1.314 . S
N1015 C1013 1.279 . S
C1016 C1013 1.358 . S
C1016 C1017 1.356 . S
C1016 H1053 0.930 1_564 S
C1017 C1014 1.348 . S
C1017 C1016 1.356 . S
H1018 C1012 0.930 . S
H1019 C1013 0.930 1_556 S
C1020 N1021 1.314 . S
C1020 C1022 1.353 . S
C1020 H1026 0.930 . S
N1021 Li971 1.990 . S
N1021 C1020 1.314 . S
N1021 C1024 1.279 . S
C1022 C1020 1.353 . S
C1022 C1025 1.348 . S
C1022 H1054 0.929 . S
C1023 C1024 1.358 . S
C1023 C1025 1.356 . S
C1023 H1055 0.930 . S
C1024 N1021 1.279 . S
C1024 C1023 1.358 . S
C1024 H1027 0.930 . S
C1025 C1022 1.348 . S
C1025 C1023 1.356 . S
H1026 C1020 0.930 . S
H1027 C1024 0.930 . S
O1028 Li968 1.956 . S
O1028 Li969 1.970 . S
O1028 Li970 1.961 . S
O1028 C972 1.325 . S
O1029 Li968 1.970 . S
O1029 Li969 1.956 . S
O1029 Li971 1.961 1_554 S
O1029 C978 1.325 . S
O1030 Li968 1.961 1_556 S
O1030 Li970 1.956 1_556 S
O1030 Li971 1.970 . S
O1030 C1000 1.325 . S
O1031 Li969 1.961 . S
O1031 Li970 1.970 . S
O1031 Li971 1.956 1_554 S
O1031 C1006 1.325 . S
H1032 C974 0.929 . S
H1033 C975 0.930 . S
H1034 C976 0.930 . S
H1035 C977 0.884 1_545 S
H1036 C979 0.930 . S
H1037 C981 0.929 . S
H1038 C982 0.942 . S
H1039 C983 0.930 . S
H1040 C986 0.930 . S
H1041 C989 0.929 . S
H1042 C994 0.929 . S
H1043 C995 0.930 . S
H1044 C1002 0.929 . S
H1045 C1003 0.930 . S
H1046 C1004 0.930 . S
H1047 C1005 0.930 1_545 S
H1048 C1007 0.929 . S
H1049 C1008 0.930 . S
H1050 C1009 0.930 . S
H1051 C1010 0.930 . S
H1052 C1014 0.929 . S
H1053 C1016 0.930 1_546 S
H1054 C1022 0.929 . S
H1055 C1023 0.930 . S
Li1056 N1073 1.990 . S
Li1056 O1116 1.956 . S
Li1056 O1117 1.970 . S
Li1056 O1118 1.961 . S
Li1057 N1081 1.990 . S
Li1057 O1116 1.970 . S
Li1057 O1117 1.956 . S
Li1057 O1119 1.961 . S
Li1058 N1103 1.990 . S
Li1058 O1116 1.961 . S
Li1058 O1118 1.956 . S
Li1058 O1119 1.970 . S
Li1059 N1109 1.990 1_554 S
Li1059 O1117 1.961 . S
Li1059 O1118 1.970 . S
Li1059 O1119 1.956 . S
C1060 C1062 1.348 . S
C1060 C1063 1.356 . S
C1060 O1116 1.325 . S
N1061 C1064 1.314 . S
N1061 C1065 1.279 . S
C1062 C1060 1.348 . S
C1062 C1064 1.353 . S
C1062 H1120 0.929 . S
C1063 C1060 1.356 . S
C1063 C1065 1.358 . S
C1063 H1121 0.930 . S
C1064 N1061 1.314 . S
C1064 C1062 1.353 . S
C1064 H1122 0.930 . S
C1065 N1061 1.279 . S
C1065 C1063 1.358 . S
C1065 H1123 0.930 . S
C1066 C1069 1.348 . S
C1066 C1070 1.356 . S
C1066 O1117 1.325 . S
C1067 N1068 1.279 . S
C1067 C1070 1.358 . S
C1067 H1124 0.930 . S
N1068 C1067 1.279 . S
N1068 C1071 1.314 . S
C1069 C1066 1.348 . S
C1069 C1071 1.353 . S
C1069 H1125 0.929 . S
C1070 C1066 1.356 . S
C1070 C1067 1.358 . S
C1070 H1126 0.930 . S
C1071 N1068 1.314 . S
C1071 C1069 1.353 . S
C1071 H1127 0.930 . S
C1072 N1073 1.314 . S
C1072 C1077 1.353 . S
C1072 H1078 0.930 . S
N1073 Li1056 1.990 . S
N1073 C1072 1.314 . S
N1073 C1075 1.279 . S
C1074 C1075 1.358 . S
C1074 C1076 1.356 . S
C1074 H1128 0.930 . S
C1075 N1073 1.279 . S
C1075 C1074 1.358 . S
C1075 H1079 0.930 . S
C1076 C1074 1.356 . S
C1076 C1077 1.348 . S
C1077 C1072 1.353 . S
C1077 C1076 1.348 . S
C1077 H1129 0.929 . S
H1078 C1072 0.930 . S
H1079 C1075 0.930 . S
C1080 N1081 1.314 . S
C1080 C1082 1.353 . S
C1080 H1086 0.930 . S
N1081 Li1057 1.990 . S
N1081 C1080 1.314 . S
N1081 C1084 1.279 . S
C1082 C1080 1.353 . S
C1082 C1085 1.348 . S
C1082 H1130 0.929 . S
C1083 C1084 1.358 . S
C1083 C1085 1.356 . S
C1083 H1131 0.930 . S
C1084 N1081 1.279 . S
C1084 C1083 1.358 . S
C1084 H1087 0.930 . S
C1085 C1082 1.348 . S
C1085 C1083 1.356 . S
H1086 C1080 0.930 . S
H1087 C1084 0.930 . S
C1088 C1090 1.384 . S
C1088 C1091 1.357 1_556 S
C1088 O1118 1.291 1_556 S
N1089 C1092 1.314 . S
N1089 C1093 1.279 . S
C1090 C1088 1.384 . S
C1090 C1092 1.353 . S
C1090 H1132 0.929 . S
C1091 C1088 1.357 1_554 S
C1091 C1093 1.358 1_554 S
C1091 H1133 0.930 . S
C1092 N1089 1.314 . S
C1092 C1090 1.353 . S
C1092 H1134 0.930 . S
C1093 N1089 1.279 . S
C1093 C1091 1.358 1_556 S
C1093 H1135 0.930 . S
C1094 C1095 1.348 . S
C1094 C1096 1.356 . S
C1094 O1119 1.325 . S
C1095 C1094 1.348 . S
C1095 C1097 1.353 . S
C1095 H1136 0.929 . S
C1096 C1094 1.356 . S
C1096 C1098 1.358 . S
C1096 H1137 0.930 . S
C1097 C1095 1.353 . S
C1097 N1099 1.314 . S
C1097 H1138 0.930 . S
C1098 C1096 1.358 . S
C1098 N1099 1.279 . S
C1098 H1139 0.930 . S
N1099 C1097 1.314 . S
N1099 C1098 1.279 . S
C1100 C1102 1.353 . S
C1100 N1103 1.314 . S
C1100 H1106 0.930 . S
C1101 N1103 1.279 . S
C1101 C1104 1.358 . S
C1101 H1107 0.930 . S
C1102 C1100 1.353 . S
C1102 C1105 1.348 . S
C1102 H1140 0.929 . S
N1103 Li1058 1.990 . S
N1103 C1100 1.314 . S
N1103 C1101 1.279 . S
C1104 C1101 1.358 . S
C1104 C1105 1.356 . S
C1104 H1141 0.930 . S
C1105 C1102 1.348 . S
C1105 C1104 1.356 . S
H1106 C1100 0.930 . S
H1107 C1101 0.930 . S
C1108 N1109 1.314 . S
C1108 C1110 1.353 . S
C1108 H1114 0.930 . S
N1109 Li1059 1.990 1_556 S
N1109 C1108 1.314 . S
N1109 C1112 1.279 . S
C1110 C1108 1.353 . S
C1110 C1113 1.348 . S
C1110 H1142 0.929 . S
C1111 C1112 1.358 . S
C1111 C1113 1.356 . S
C1111 H1143 0.930 . S
C1112 N1109 1.279 . S
C1112 C1111 1.358 . S
C1112 H1115 0.930 . S
C1113 C1110 1.348 . S
C1113 C1111 1.356 . S
H1114 C1108 0.930 . S
H1115 C1112 0.930 . S
O1116 Li1056 1.956 . S
O1116 Li1057 1.970 . S
O1116 Li1058 1.961 . S
O1116 C1060 1.325 . S
O1117 Li1056 1.970 . S
O1117 Li1057 1.956 . S
O1117 Li1059 1.961 . S
O1117 C1066 1.325 . S
O1118 Li1056 1.961 . S
O1118 Li1058 1.956 . S
O1118 Li1059 1.970 . S
O1118 C1088 1.291 1_554 S
O1119 Li1057 1.961 . S
O1119 Li1058 1.970 . S
O1119 Li1059 1.956 . S
O1119 C1094 1.325 . S
H1120 C1062 0.929 . S
H1121 C1063 0.930 . S
H1122 C1064 0.930 . S
H1123 C1065 0.930 . S
H1124 C1067 0.930 . S
H1125 C1069 0.929 . S
H1126 C1070 0.930 . S
H1127 C1071 0.930 . S
H1128 C1074 0.930 . S
H1129 C1077 0.929 . S
H1130 C1082 0.929 . S
H1131 C1083 0.930 . S
H1132 C1090 0.929 . S
H1133 C1091 0.930 . S
H1134 C1092 0.930 . S
H1135 C1093 0.930 . S
H1136 C1095 0.929 . S
H1137 C1096 0.930 . S
H1138 C1097 0.930 . S
H1139 C1098 0.930 . S
H1140 C1102 0.929 . S
H1141 C1104 0.930 . S
H1142 C1110 0.929 . S
H1143 C1111 0.930 . S
Li1144 N1161 1.990 . S
Li1144 O1204 1.956 . S
Li1144 O1205 1.970 . S
Li1144 O1206 1.961 . S
Li1145 N1169 1.990 . S
Li1145 O1204 1.970 . S
Li1145 O1205 1.956 . S
Li1145 O1207 1.961 1_554 S
Li1146 N1191 1.990 1_554 S
Li1146 O1204 1.961 . S
Li1146 O1206 1.956 . S
Li1146 O1207 1.970 1_554 S
Li1147 N1197 1.990 . S
Li1147 O1205 1.961 . S
Li1147 O1206 1.970 . S
Li1147 O1207 1.956 1_554 S
C1148 C1150 1.348 . S
C1148 C1151 1.356 . S
C1148 O1204 1.325 . S
N1149 C1152 1.314 . S
N1149 C1153 1.279 . S
C1150 C1148 1.348 . S
C1150 C1152 1.353 . S
C1150 H1208 0.929 . S
C1151 C1148 1.356 . S
C1151 C1153 1.358 . S
C1151 H1209 0.930 . S
C1152 N1149 1.314 . S
C1152 C1150 1.353 . S
C1152 H1210 0.930 . S
C1153 N1149 1.279 . S
C1153 C1151 1.358 . S
C1153 H1211 0.930 . S
C1154 C1157 1.348 . S
C1154 C1158 1.356 . S
C1154 O1205 1.325 . S
C1155 N1156 1.279 . S
C1155 C1158 1.358 . S
C1155 H1212 0.930 . S
N1156 C1155 1.279 . S
N1156 C1159 1.314 . S
C1157 C1154 1.348 . S
C1157 C1159 1.353 . S
C1157 H1213 0.929 . S
C1158 C1154 1.356 . S
C1158 C1155 1.358 . S
C1158 H1214 0.930 . S
C1159 N1156 1.314 . S
C1159 C1157 1.353 . S
C1159 H1215 0.930 . S
C1160 N1161 1.314 . S
C1160 C1165 1.353 . S
C1160 H1166 0.930 . S
N1161 Li1144 1.990 . S
N1161 C1160 1.314 . S
N1161 C1163 1.279 . S
C1162 C1163 1.358 . S
C1162 C1164 1.356 . S
C1162 H1216 0.930 . S
C1163 N1161 1.279 . S
C1163 C1162 1.358 . S
C1163 H1167 0.930 . S
C1164 C1162 1.356 . S
C1164 C1165 1.348 . S
C1165 C1160 1.353 . S
C1165 C1164 1.348 . S
C1165 H1217 0.929 . S
H1166 C1160 0.930 . S
H1167 C1163 0.930 . S
C1168 N1169 1.314 . S
C1168 C1170 1.353 . S
C1168 H1174 0.930 1_554 S
N1169 Li1145 1.990 . S
N1169 C1168 1.314 . S
N1169 C1172 1.279 . S
C1170 C1168 1.353 . S
C1170 C1173 1.348 . S
C1170 H1218 0.929 1_554 S
C1171 C1172 1.358 . S
C1171 C1173 1.356 . S
C1171 H1219 0.930 . S
C1172 N1169 1.279 . S
C1172 C1171 1.358 . S
C1172 H1175 0.930 . S
C1173 C1170 1.348 . S
C1173 C1171 1.356 . S
H1174 C1168 0.930 1_556 S
H1175 C1172 0.930 . S
C1176 C1178 1.348 . S
C1176 C1179 1.356 . S
C1176 O1206 1.325 . S
N1177 C1180 1.314 . S
N1177 C1181 1.279 . S
C1178 C1176 1.348 . S
C1178 C1180 1.353 . S
C1178 H1220 0.929 . S
C1179 C1176 1.356 . S
C1179 C1181 1.358 . S
C1179 H1221 0.930 . S
C1180 N1177 1.314 . S
C1180 C1178 1.353 . S
C1180 H1222 0.930 . S
C1181 N1177 1.279 . S
C1181 C1179 1.358 . S
C1181 H1223 0.930 . S
C1182 C1183 1.348 . S
C1182 C1184 1.356 . S
C1182 O1207 1.325 . S
C1183 C1182 1.348 . S
C1183 C1185 1.353 . S
C1183 H1224 0.929 . S
C1184 C1182 1.356 . S
C1184 C1186 1.358 . S
C1184 H1225 0.930 . S
C1185 C1183 1.353 . S
C1185 N1187 1.314 . S
C1185 H1226 0.930 . S
C1186 C1184 1.358 . S
C1186 N1187 1.279 . S
C1186 H1227 0.930 . S
N1187 C1185 1.314 . S
N1187 C1186 1.279 . S
C1188 C1190 1.353 . S
C1188 N1191 1.314 . S
C1188 H1194 0.930 . S
C1189 N1191 1.279 . S
C1189 C1192 1.358 . S
C1189 H1195 0.930 . S
C1190 C1188 1.353 . S
C1190 C1193 1.348 . S
C1190 H1228 0.929 . S
N1191 Li1146 1.990 1_556 S
N1191 C1188 1.314 . S
N1191 C1189 1.279 . S
C1192 C1189 1.358 . S
C1192 C1193 1.356 . S
C1192 H1229 0.930 . S
C1193 C1190 1.348 . S
C1193 C1192 1.356 . S
H1194 C1188 0.930 . S
H1195 C1189 0.930 . S
C1196 N1197 1.314 . S
C1196 C1198 1.353 . S
C1196 H1202 0.930 . S
N1197 Li1147 1.990 . S
N1197 C1196 1.314 . S
N1197 C1200 1.279 1_554 S
C1198 C1196 1.353 . S
C1198 C1201 1.348 . S
C1198 H1230 0.929 . S
C1199 C1200 1.358 . S
C1199 C1201 1.356 1_556 S
C1199 H1231 0.930 . S
C1200 N1197 1.279 1_556 S
C1200 C1199 1.358 . S
C1200 H1203 0.930 . S
C1201 C1198 1.348 . S
C1201 C1199 1.356 1_554 S
H1202 C1196 0.930 . S
H1203 C1200 0.930 . S
O1204 Li1144 1.956 . S
O1204 Li1145 1.970 . S
O1204 Li1146 1.961 . S
O1204 C1148 1.325 . S
O1205 Li1144 1.970 . S
O1205 Li1145 1.956 . S
O1205 Li1147 1.961 . S
O1205 C1154 1.325 . S
O1206 Li1144 1.961 . S
O1206 Li1146 1.956 . S
O1206 Li1147 1.970 . S
O1206 C1176 1.325 . S
O1207 Li1145 1.961 1_556 S
O1207 Li1146 1.970 1_556 S
O1207 Li1147 1.956 1_556 S
O1207 C1182 1.325 . S
H1208 C1150 0.929 . S
H1209 C1151 0.930 . S
H1210 C1152 0.930 . S
H1211 C1153 0.930 . S
H1212 C1155 0.930 . S
H1213 C1157 0.929 . S
H1214 C1158 0.930 . S
H1215 C1159 0.930 . S
H1216 C1162 0.930 . S
H1217 C1165 0.929 . S
H1218 C1170 0.929 1_556 S
H1219 C1171 0.930 . S
H1220 C1178 0.929 . S
H1221 C1179 0.930 . S
H1222 C1180 0.930 . S
H1223 C1181 0.930 . S
H1224 C1183 0.929 . S
H1225 C1184 0.930 . S
H1226 C1185 0.930 . S
H1227 C1186 0.930 . S
H1228 C1190 0.929 . S
H1229 C1192 0.930 . S
H1230 C1198 0.929 . S
H1231 C1199 0.930 . S
Li1232 N1249 1.990 . S
Li1232 O1292 1.956 . S
Li1232 O1293 1.970 . S
Li1232 O1294 1.961 . S
Li1233 N1257 1.990 . S
Li1233 O1292 1.970 . S
Li1233 O1293 1.956 . S
Li1233 O1295 1.961 . S
Li1234 N1279 1.990 . S
Li1234 O1292 1.961 . S
Li1234 O1294 1.956 . S
Li1234 O1295 1.970 . S
Li1235 N1285 1.990 . S
Li1235 O1293 1.961 . S
Li1235 O1294 1.970 . S
Li1235 O1295 1.956 . S
C1236 C1238 1.348 . S
C1236 C1239 1.356 . S
C1236 O1292 1.325 . S
N1237 C1240 1.314 . S
N1237 C1241 1.279 . S
C1238 C1236 1.348 . S
C1238 C1240 1.353 . S
C1238 H1296 0.929 . S
C1239 C1236 1.356 . S
C1239 C1241 1.358 . S
C1239 H1297 0.930 . S
C1240 N1237 1.314 . S
C1240 C1238 1.353 . S
C1240 H1298 0.930 . S
C1241 N1237 1.279 . S
C1241 C1239 1.358 . S
C1241 H1299 0.930 . S
C1242 C1245 1.348 . S
C1242 C1246 1.356 . S
C1242 O1293 1.325 . S
C1243 N1244 1.279 . S
C1243 C1246 1.358 . S
C1243 H1300 0.930 . S
N1244 C1243 1.279 . S
N1244 C1247 1.314 . S
C1245 C1242 1.348 . S
C1245 C1247 1.353 . S
C1245 H1301 0.929 . S
C1246 C1242 1.356 . S
C1246 C1243 1.358 . S
C1246 H1302 0.930 . S
C1247 N1244 1.314 . S
C1247 C1245 1.353 . S
C1247 H1303 0.930 . S
C1248 N1249 1.314 . S
C1248 C1253 1.353 . S
C1248 H1254 0.930 . S
N1249 Li1232 1.990 . S
N1249 C1248 1.314 . S
N1249 C1251 1.279 . S
C1250 C1251 1.358 . S
C1250 C1252 1.356 . S
C1250 H1304 0.930 . S
C1251 N1249 1.279 . S
C1251 C1250 1.358 . S
C1251 H1255 0.930 . S
C1252 C1250 1.356 . S
C1252 C1253 1.348 . S
C1253 C1248 1.353 . S
C1253 C1252 1.348 . S
C1253 H1305 0.929 . S
H1254 C1248 0.930 . S
H1255 C1251 0.930 . S
C1256 N1257 1.314 . S
C1256 C1258 1.353 . S
C1256 H1262 0.930 . S
N1257 Li1233 1.990 . S
N1257 C1256 1.314 . S
N1257 C1260 1.279 . S
C1258 C1256 1.353 . S
C1258 C1261 1.348 . S
C1258 H1306 0.929 . S
C1259 C1260 1.358 . S
C1259 C1261 1.356 . S
C1259 H1307 0.930 . S
C1260 N1257 1.279 . S
C1260 C1259 1.358 . S
C1260 H1263 0.930 . S
C1261 C1258 1.348 . S
C1261 C1259 1.356 . S
H1262 C1256 0.930 . S
H1263 C1260 0.930 . S
C1264 C1266 1.348 . S
C1264 C1267 1.356 . S
C1264 O1294 1.325 . S
N1265 C1268 1.314 . S
N1265 C1269 1.279 . S
C1266 C1264 1.348 . S
C1266 C1268 1.353 . S
C1266 H1308 0.929 . S
C1267 C1264 1.356 . S
C1267 C1269 1.358 . S
C1267 H1309 0.930 . S
C1268 N1265 1.314 . S
C1268 C1266 1.353 . S
C1268 H1310 0.930 . S
C1269 N1265 1.279 . S
C1269 C1267 1.358 . S
C1269 H1311 0.930 . S
C1270 C1271 1.348 . S
C1270 C1272 1.356 . S
C1270 O1295 1.325 . S
C1271 C1270 1.348 . S
C1271 C1273 1.353 . S
C1271 H1312 0.929 . S
C1272 C1270 1.356 . S
C1272 C1274 1.358 . S
C1272 H1313 0.930 . S
C1273 C1271 1.353 . S
C1273 N1275 1.314 . S
C1273 H1314 0.930 . S
C1274 C1272 1.358 . S
C1274 N1275 1.279 . S
C1274 H1315 0.930 . S
N1275 C1273 1.314 . S
N1275 C1274 1.279 . S
C1276 C1278 1.353 . S
C1276 N1279 1.314 . S
C1276 H1282 0.930 . S
C1277 N1279 1.279 . S
C1277 C1280 1.358 . S
C1277 H1283 0.930 . S
C1278 C1276 1.353 . S
C1278 C1281 1.348 . S
C1278 H1316 0.929 . S
N1279 Li1234 1.990 . S
N1279 C1276 1.314 . S
N1279 C1277 1.279 . S
C1280 C1277 1.358 . S
C1280 C1281 1.356 . S
C1280 H1317 0.930 . S
C1281 C1278 1.348 . S
C1281 C1280 1.356 . S
H1282 C1276 0.930 . S
H1283 C1277 0.930 . S
C1284 N1285 1.314 . S
C1284 C1286 1.353 . S
C1284 H1290 0.930 . S
N1285 Li1235 1.990 . S
N1285 C1284 1.314 . S
N1285 C1288 1.279 . S
C1286 C1284 1.353 . S
C1286 C1289 1.348 . S
C1286 H1318 0.929 . S
C1287 C1288 1.358 . S
C1287 C1289 1.356 . S
C1287 H1319 0.930 . S
C1288 N1285 1.279 . S
C1288 C1287 1.358 . S
C1288 H1291 0.930 . S
C1289 C1286 1.348 . S
C1289 C1287 1.356 . S
H1290 C1284 0.930 . S
H1291 C1288 0.930 . S
O1292 Li1232 1.956 . S
O1292 Li1233 1.970 . S
O1292 Li1234 1.961 . S
O1292 C1236 1.325 . S
O1293 Li1232 1.970 . S
O1293 Li1233 1.956 . S
O1293 Li1235 1.961 . S
O1293 C1242 1.325 . S
O1294 Li1232 1.961 . S
O1294 Li1234 1.956 . S
O1294 Li1235 1.970 . S
O1294 C1264 1.325 . S
O1295 Li1233 1.961 . S
O1295 Li1234 1.970 . S
O1295 Li1235 1.956 . S
O1295 C1270 1.325 . S
H1296 C1238 0.929 . S
H1297 C1239 0.930 . S
H1298 C1240 0.930 . S
H1299 C1241 0.930 . S
H1300 C1243 0.930 . S
H1301 C1245 0.929 . S
H1302 C1246 0.930 . S
H1303 C1247 0.930 . S
H1304 C1250 0.930 . S
H1305 C1253 0.929 . S
H1306 C1258 0.929 . S
H1307 C1259 0.930 . S
H1308 C1266 0.929 . S
H1309 C1267 0.930 . S
H1310 C1268 0.930 . S
H1311 C1269 0.930 . S
H1312 C1271 0.929 . S
H1313 C1272 0.930 . S
H1314 C1273 0.930 . S
H1315 C1274 0.930 . S
H1316 C1278 0.929 . S
H1317 C1280 0.930 . S
H1318 C1286 0.929 . S
H1319 C1287 0.930 . S
Li1320 N1337 1.990 . S
Li1320 O1380 1.956 . S
Li1320 O1381 1.970 . S
Li1320 O1382 1.961 . S
Li1321 N1345 1.990 . S
Li1321 O1380 1.970 . S
Li1321 O1381 1.956 . S
Li1321 O1383 1.961 . S
Li1322 N1367 1.990 . S
Li1322 O1380 1.961 . S
Li1322 O1382 1.956 . S
Li1322 O1383 1.970 . S
Li1323 N1373 1.990 . S
Li1323 O1381 1.961 . S
Li1323 O1382 1.970 . S
Li1323 O1383 1.956 . S
C1324 C1326 1.348 . S
C1324 C1327 1.356 . S
C1324 O1380 1.325 . S
N1325 C1328 1.314 . S
N1325 C1329 1.279 . S
C1326 C1324 1.348 . S
C1326 C1328 1.353 . S
C1326 H1384 0.929 . S
C1327 C1324 1.356 . S
C1327 C1329 1.358 . S
C1327 H1385 0.930 . S
C1328 N1325 1.314 . S
C1328 C1326 1.353 . S
C1328 H1386 0.930 . S
C1329 N1325 1.279 . S
C1329 C1327 1.358 . S
C1329 H1387 0.930 . S
C1330 C1333 1.348 . S
C1330 C1334 1.356 . S
C1330 O1381 1.325 . S
C1331 N1332 1.279 . S
C1331 C1334 1.358 . S
C1331 H1388 0.930 . S
N1332 C1331 1.279 . S
N1332 C1335 1.314 . S
C1333 C1330 1.348 . S
C1333 C1335 1.353 . S
C1333 H1389 0.929 . S
C1334 C1330 1.356 . S
C1334 C1331 1.358 . S
C1334 H1390 0.930 . S
C1335 N1332 1.314 . S
C1335 C1333 1.353 . S
C1335 H1391 0.930 . S
C1336 N1337 1.314 . S
C1336 C1341 1.353 . S
C1336 H1342 0.930 . S
N1337 Li1320 1.990 . S
N1337 C1336 1.314 . S
N1337 C1339 1.279 . S
C1338 C1339 1.358 . S
C1338 C1340 1.356 . S
C1338 H1392 0.930 . S
C1339 N1337 1.279 . S
C1339 C1338 1.358 . S
C1339 H1343 0.930 . S
C1340 C1338 1.356 . S
C1340 C1341 1.348 . S
C1341 C1336 1.353 . S
C1341 C1340 1.348 . S
C1341 H1393 0.929 . S
H1342 C1336 0.930 . S
H1343 C1339 0.930 . S
C1344 N1345 1.314 . S
C1344 C1346 1.353 . S
C1344 H1350 0.930 . S
N1345 Li1321 1.990 . S
N1345 C1344 1.314 . S
N1345 C1348 1.279 . S
C1346 C1344 1.353 . S
C1346 C1349 1.348 . S
C1346 H1394 0.929 . S
C1347 C1348 1.358 . S
C1347 C1349 1.356 . S
C1347 H1395 0.930 . S
C1348 N1345 1.279 . S
C1348 C1347 1.358 . S
C1348 H1351 0.930 . S
C1349 C1346 1.348 . S
C1349 C1347 1.356 . S
H1350 C1344 0.930 . S
H1351 C1348 0.930 . S
C1352 C1354 1.348 . S
C1352 C1355 1.356 . S
C1352 O1382 1.325 . S
N1353 C1356 1.314 . S
N1353 C1357 1.279 . S
C1354 C1352 1.348 . S
C1354 C1356 1.353 . S
C1354 H1396 0.929 . S
C1355 C1352 1.356 . S
C1355 C1357 1.358 . S
C1355 H1397 0.930 . S
C1356 N1353 1.314 . S
C1356 C1354 1.353 . S
C1356 H1398 0.930 . S
C1357 N1353 1.279 . S
C1357 C1355 1.358 . S
C1357 H1399 0.930 . S
C1358 C1359 1.348 . S
C1358 C1360 1.356 . S
C1358 O1383 1.325 . S
C1359 C1358 1.348 . S
C1359 C1361 1.353 . S
C1359 H1400 0.929 . S
C1360 C1358 1.356 . S
C1360 C1362 1.358 . S
C1360 H1401 0.930 . S
C1361 C1359 1.353 . S
C1361 N1363 1.314 . S
C1361 H1402 0.930 . S
C1362 C1360 1.358 . S
C1362 N1363 1.279 . S
C1362 H1403 0.930 . S
N1363 C1361 1.314 . S
N1363 C1362 1.279 . S
C1364 C1366 1.353 . S
C1364 N1367 1.314 . S
C1364 H1370 0.930 . S
C1365 N1367 1.279 . S
C1365 C1368 1.358 . S
C1365 H1371 0.930 . S
C1366 C1364 1.353 . S
C1366 C1369 1.348 . S
C1366 H1404 0.929 . S
N1367 Li1322 1.990 . S
N1367 C1364 1.314 . S
N1367 C1365 1.279 . S
C1368 C1365 1.358 . S
C1368 C1369 1.356 . S
C1368 H1405 0.930 . S
C1369 C1366 1.348 . S
C1369 C1368 1.356 . S
H1370 C1364 0.930 . S
H1371 C1365 0.930 . S
C1372 N1373 1.314 . S
C1372 C1374 1.353 . S
C1372 H1378 0.930 . S
N1373 Li1323 1.990 . S
N1373 C1372 1.314 . S
N1373 C1376 1.279 . S
C1374 C1372 1.353 . S
C1374 C1377 1.348 . S
C1374 H1406 0.929 . S
C1375 C1376 1.358 . S
C1375 C1377 1.356 . S
C1375 H1407 0.930 . S
C1376 N1373 1.279 . S
C1376 C1375 1.358 . S
C1376 H1379 0.930 . S
C1377 C1374 1.348 . S
C1377 C1375 1.356 . S
H1378 C1372 0.930 . S
H1379 C1376 0.930 . S
O1380 Li1320 1.956 . S
O1380 Li1321 1.970 . S
O1380 Li1322 1.961 . S
O1380 C1324 1.325 . S
O1381 Li1320 1.970 . S
O1381 Li1321 1.956 . S
O1381 Li1323 1.961 . S
O1381 C1330 1.325 . S
O1382 Li1320 1.961 . S
O1382 Li1322 1.956 . S
O1382 Li1323 1.970 . S
O1382 C1352 1.325 . S
O1383 Li1321 1.961 . S
O1383 Li1322 1.970 . S
O1383 Li1323 1.956 . S
O1383 C1358 1.325 . S
H1384 C1326 0.929 . S
H1385 C1327 0.930 . S
H1386 C1328 0.930 . S
H1387 C1329 0.930 . S
H1388 C1331 0.930 . S
H1389 C1333 0.929 . S
H1390 C1334 0.930 . S
H1391 C1335 0.930 . S
H1392 C1338 0.930 . S
H1393 C1341 0.929 . S
H1394 C1346 0.929 . S
H1395 C1347 0.930 . S
H1396 C1354 0.929 . S
H1397 C1355 0.930 . S
H1398 C1356 0.930 . S
H1399 C1357 0.930 . S
H1400 C1359 0.929 . S
H1401 C1360 0.930 . S
H1402 C1361 0.930 . S
H1403 C1362 0.930 . S
H1404 C1366 0.929 . S
H1405 C1368 0.930 . S
H1406 C1374 0.929 . S
H1407 C1375 0.930 . S
Li1408 N1425 1.990 . S
Li1408 O1468 1.956 . S
Li1408 O1469 1.970 . S
Li1408 O1470 1.961 . S
Li1409 N1433 1.990 . S
Li1409 O1468 1.970 . S
Li1409 O1469 1.956 . S
Li1409 O1471 1.961 . S
Li1410 N1455 1.990 . S
Li1410 O1468 1.961 . S
Li1410 O1470 1.956 . S
Li1410 O1471 1.970 . S
Li1411 N1461 1.990 . S
Li1411 O1469 1.961 . S
Li1411 O1470 1.970 . S
Li1411 O1471 1.956 . S
C1412 C1414 1.348 . S
C1412 C1415 1.356 . S
C1412 O1468 1.325 . S
N1413 C1416 1.315 1_545 S
N1413 C1417 1.279 . S
C1414 C1412 1.348 . S
C1414 C1416 1.337 1_545 S
C1414 H1472 0.929 . S
C1415 C1412 1.356 . S
C1415 C1417 1.358 . S
C1415 H1473 0.930 . S
C1416 N1413 1.315 1_565 S
C1416 C1414 1.337 1_565 S
C1416 H1474 0.947 . S
C1417 N1413 1.279 . S
C1417 C1415 1.358 . S
C1417 H1475 0.930 1_655 S
C1418 C1421 1.348 . S
C1418 C1422 1.356 . S
C1418 O1469 1.325 . S
C1419 N1420 1.279 . S
C1419 C1422 1.358 . S
C1419 H1476 0.930 . S
N1420 C1419 1.279 . S
N1420 C1423 1.314 . S
C1421 C1418 1.348 . S
C1421 C1423 1.353 . S
C1421 H1477 0.929 . S
C1422 C1418 1.356 . S
C1422 C1419 1.358 . S
C1422 H1478 0.930 . S
C1423 N1420 1.314 . S
C1423 C1421 1.353 . S
C1423 H1479 0.930 . S
C1424 N1425 1.314 . S
C1424 C1429 1.353 . S
C1424 H1430 0.930 . S
N1425 Li1408 1.990 . S
N1425 C1424 1.314 . S
N1425 C1427 1.279 . S
C1426 C1427 1.358 1_455 S
C1426 C1428 1.356 . S
C1426 H1480 0.930 . S
C1427 N1425 1.279 . S
C1427 C1426 1.358 1_655 S
C1427 H1431 0.930 . S
C1428 C1426 1.356 . S
C1428 C1429 1.348 1_455 S
C1429 C1424 1.353 . S
C1429 C1428 1.348 1_655 S
C1429 H1481 0.929 . S
H1430 C1424 0.930 . S
H1431 C1427 0.930 . S
C1432 N1433 1.314 . S
C1432 C1434 1.353 1_545 S
C1432 H1438 0.930 . S
N1433 Li1409 1.990 . S
N1433 C1432 1.314 . S
N1433 C1436 1.279 . S
C1434 C1432 1.353 1_565 S
C1434 C1437 1.348 . S
C1434 H1482 0.929 . S
C1435 C1436 1.358 1_565 S
C1435 C1437 1.356 . S
C1435 H1483 0.930 . S
C1436 N1433 1.279 . S
C1436 C1435 1.358 1_545 S
C1436 H1439 0.930 . S
C1437 C1434 1.348 . S
C1437 C1435 1.356 . S
H1438 C1432 0.930 . S
H1439 C1436 0.930 . S
C1440 C1442 1.348 . S
C1440 C1443 1.356 . S
C1440 O1470 1.325 . S
N1441 C1444 1.314 1_455 S
N1441 C1445 1.279 . S
C1442 C1440 1.348 . S
C1442 C1444 1.353 . S
C1442 H1484 0.929 . S
C1443 C1440 1.356 . S
C1443 C1445 1.358 1_655 S
C1443 H1485 0.927 1_655 S
C1444 N1441 1.314 1_655 S
C1444 C1442 1.353 . S
C1444 H1486 0.930 . S
C1445 N1441 1.279 . S
C1445 C1443 1.358 1_455 S
C1445 H1487 0.930 . S
C1446 C1447 1.348 . S
C1446 C1448 1.356 . S
C1446 O1471 1.325 . S
C1447 C1446 1.348 . S
C1447 C1449 1.353 . S
C1447 H1488 0.929 . S
C1448 C1446 1.356 . S
C1448 C1450 1.358 . S
C1448 H1489 0.930 . S
C1449 C1447 1.353 . S
C1449 N1451 1.314 . S
C1449 H1490 0.930 . S
C1450 C1448 1.358 . S
C1450 N1451 1.279 . S
C1450 H1491 0.930 . S
N1451 C1449 1.314 . S
N1451 C1450 1.279 . S
C1452 C1454 1.353 . S
C1452 N1455 1.314 . S
C1452 H1458 0.930 . S
C1453 N1455 1.279 . S
C1453 C1456 1.358 . S
C1453 H1459 0.930 . S
C1454 C1452 1.353 . S
C1454 C1457 1.348 . S
C1454 H1492 0.929 . S
N1455 Li1410 1.990 . S
N1455 C1452 1.314 . S
N1455 C1453 1.279 . S
C1456 C1453 1.358 . S
C1456 C1457 1.356 . S
C1456 H1493 0.930 1_655 S
C1457 C1454 1.348 . S
C1457 C1456 1.356 . S
H1458 C1452 0.930 . S
H1459 C1453 0.930 . S
C1460 N1461 1.314 . S
C1460 C1462 1.353 . S
C1460 H1466 0.930 . S
N1461 Li1411 1.990 . S
N1461 C1460 1.314 . S
N1461 C1464 1.279 . S
C1462 C1460 1.353 . S
C1462 C1465 1.348 . S
C1462 H1494 0.929 . S
C1463 C1464 1.358 . S
C1463 C1465 1.356 . S
C1463 H1495 0.930 . S
C1464 N1461 1.279 . S
C1464 C1463 1.358 . S
C1464 H1467 0.930 . S
C1465 C1462 1.348 . S
C1465 C1463 1.356 . S
H1466 C1460 0.930 . S
H1467 C1464 0.930 . S
O1468 Li1408 1.956 . S
O1468 Li1409 1.970 . S
O1468 Li1410 1.961 . S
O1468 C1412 1.325 . S
O1469 Li1408 1.970 . S
O1469 Li1409 1.956 . S
O1469 Li1411 1.961 . S
O1469 C1418 1.325 . S
O1470 Li1408 1.961 . S
O1470 Li1410 1.956 . S
O1470 Li1411 1.970 . S
O1470 C1440 1.325 . S
O1471 Li1409 1.961 . S
O1471 Li1410 1.970 . S
O1471 Li1411 1.956 . S
O1471 C1446 1.325 . S
H1472 C1414 0.929 . S
H1473 C1415 0.930 . S
H1474 C1416 0.947 . S
H1475 C1417 0.930 1_455 S
H1476 C1419 0.930 . S
H1477 C1421 0.929 . S
H1478 C1422 0.930 . S
H1479 C1423 0.930 . S
H1480 C1426 0.930 . S
H1481 C1429 0.929 . S
H1482 C1434 0.929 . S
H1483 C1435 0.930 . S
H1484 C1442 0.929 . S
H1485 C1443 0.927 1_455 S
H1486 C1444 0.930 . S
H1487 C1445 0.930 . S
H1488 C1447 0.929 . S
H1489 C1448 0.930 . S
H1490 C1449 0.930 . S
H1491 C1450 0.930 . S
H1492 C1454 0.929 . S
H1493 C1456 0.930 1_455 S
H1494 C1462 0.929 . S
H1495 C1463 0.930 . S
Li1496 N1513 1.990 . S
Li1496 O1556 1.956 . S
Li1496 O1557 1.970 . S
Li1496 O1558 1.961 . S
Li1497 N1521 1.990 . S
Li1497 O1556 1.970 . S
Li1497 O1557 1.956 . S
Li1497 O1559 1.961 . S
Li1498 N1543 1.990 . S
Li1498 O1556 1.961 . S
Li1498 O1558 1.956 . S
Li1498 O1559 1.970 . S
Li1499 N1549 1.990 . S
Li1499 O1557 1.961 . S
Li1499 O1558 1.970 . S
Li1499 O1559 1.956 . S
C1500 C1502 1.348 . S
C1500 C1503 1.356 . S
C1500 O1556 1.325 . S
N1501 C1504 1.314 . S
N1501 C1505 1.279 . S
C1502 C1500 1.348 . S
C1502 C1504 1.353 . S
C1502 H1560 0.929 . S
C1503 C1500 1.356 . S
C1503 C1505 1.358 . S
C1503 H1561 0.930 . S
C1504 N1501 1.314 . S
C1504 C1502 1.353 . S
C1504 H1562 0.930 . S
C1505 N1501 1.279 . S
C1505 C1503 1.358 . S
C1505 H1563 0.930 . S
C1506 C1509 1.348 . S
C1506 C1510 1.356 . S
C1506 O1557 1.325 . S
C1507 N1508 1.279 . S
C1507 C1510 1.358 . S
C1507 H1564 0.930 . S
N1508 C1507 1.279 . S
N1508 C1511 1.314 . S
C1509 C1506 1.348 . S
C1509 C1511 1.353 . S
C1509 H1565 0.929 . S
C1510 C1506 1.356 . S
C1510 C1507 1.358 . S
C1510 H1566 0.930 . S
C1511 N1508 1.314 . S
C1511 C1509 1.353 . S
C1511 H1567 0.930 . S
C1512 N1513 1.314 . S
C1512 C1517 1.353 . S
C1512 H1518 0.930 . S
N1513 Li1496 1.990 . S
N1513 C1512 1.314 . S
N1513 C1515 1.279 . S
C1514 C1515 1.358 . S
C1514 C1516 1.356 . S
C1514 H1568 0.930 . S
C1515 N1513 1.279 . S
C1515 C1514 1.358 . S
C1515 H1519 0.930 . S
C1516 C1514 1.356 . S
C1516 C1517 1.348 . S
C1517 C1512 1.353 . S
C1517 C1516 1.348 . S
C1517 H1569 0.929 . S
H1518 C1512 0.930 . S
H1519 C1515 0.930 . S
C1520 N1521 1.314 . S
C1520 C1522 1.353 . S
C1520 H1526 0.930 . S
N1521 Li1497 1.990 . S
N1521 C1520 1.314 . S
N1521 C1524 1.279 . S
C1522 C1520 1.353 . S
C1522 C1525 1.348 . S
C1522 H1570 0.929 . S
C1523 C1524 1.358 . S
C1523 C1525 1.356 . S
C1523 H1571 0.930 . S
C1524 N1521 1.279 . S
C1524 C1523 1.358 . S
C1524 H1527 0.930 . S
C1525 C1522 1.348 . S
C1525 C1523 1.356 . S
H1526 C1520 0.930 . S
H1527 C1524 0.930 . S
C1528 C1530 1.348 . S
C1528 C1531 1.356 . S
C1528 O1558 1.325 . S
N1529 C1532 1.314 . S
N1529 C1533 1.279 . S
C1530 C1528 1.348 . S
C1530 C1532 1.353 . S
C1530 H1572 0.929 . S
C1531 C1528 1.356 . S
C1531 C1533 1.358 . S
C1531 H1573 0.930 . S
C1532 N1529 1.314 . S
C1532 C1530 1.353 . S
C1532 H1574 0.930 . S
C1533 N1529 1.279 . S
C1533 C1531 1.358 . S
C1533 H1575 0.930 . S
C1534 C1535 1.348 . S
C1534 C1536 1.356 . S
C1534 O1559 1.325 . S
C1535 C1534 1.348 . S
C1535 C1537 1.353 . S
C1535 H1576 0.929 . S
C1536 C1534 1.356 . S
C1536 C1538 1.358 . S
C1536 H1577 0.930 . S
C1537 C1535 1.353 . S
C1537 N1539 1.314 . S
C1537 H1578 0.930 . S
C1538 C1536 1.358 . S
C1538 N1539 1.279 . S
C1538 H1579 0.930 . S
N1539 C1537 1.314 . S
N1539 C1538 1.279 . S
C1540 C1542 1.353 . S
C1540 N1543 1.314 . S
C1540 H1546 0.930 . S
C1541 N1543 1.279 . S
C1541 C1544 1.358 . S
C1541 H1547 0.930 . S
C1542 C1540 1.353 . S
C1542 C1545 1.348 . S
C1542 H1580 0.929 . S
N1543 Li1498 1.990 . S
N1543 C1540 1.314 . S
N1543 C1541 1.279 . S
C1544 C1541 1.358 . S
C1544 C1545 1.356 . S
C1544 H1581 0.930 . S
C1545 C1542 1.348 . S
C1545 C1544 1.356 . S
H1546 C1540 0.930 . S
H1547 C1541 0.930 . S
C1548 N1549 1.314 . S
C1548 C1550 1.353 . S
C1548 H1554 0.930 . S
N1549 Li1499 1.990 . S
N1549 C1548 1.314 . S
N1549 C1552 1.279 . S
C1550 C1548 1.353 . S
C1550 C1553 1.348 . S
C1550 H1582 0.929 . S
C1551 C1552 1.358 . S
C1551 C1553 1.356 . S
C1551 H1583 0.930 . S
C1552 N1549 1.279 . S
C1552 C1551 1.358 . S
C1552 H1555 0.930 . S
C1553 C1550 1.348 . S
C1553 C1551 1.356 . S
H1554 C1548 0.930 . S
H1555 C1552 0.930 . S
O1556 Li1496 1.956 . S
O1556 Li1497 1.970 . S
O1556 Li1498 1.961 . S
O1556 C1500 1.325 . S
O1557 Li1496 1.970 . S
O1557 Li1497 1.956 . S
O1557 Li1499 1.961 . S
O1557 C1506 1.325 . S
O1558 Li1496 1.961 . S
O1558 Li1498 1.956 . S
O1558 Li1499 1.970 . S
O1558 C1528 1.325 . S
O1559 Li1497 1.961 . S
O1559 Li1498 1.970 . S
O1559 Li1499 1.956 . S
O1559 C1534 1.325 . S
H1560 C1502 0.929 . S
H1561 C1503 0.930 . S
H1562 C1504 0.930 . S
H1563 C1505 0.930 . S
H1564 C1507 0.930 . S
H1565 C1509 0.929 . S
H1566 C1510 0.930 . S
H1567 C1511 0.930 . S
H1568 C1514 0.930 . S
H1569 C1517 0.929 . S
H1570 C1522 0.929 . S
H1571 C1523 0.930 . S
H1572 C1530 0.929 . S
H1573 C1531 0.930 . S
H1574 C1532 0.930 . S
H1575 C1533 0.930 . S
H1576 C1535 0.929 . S
H1577 C1536 0.930 . S
H1578 C1537 0.930 . S
H1579 C1538 0.930 . S
H1580 C1542 0.929 . S
H1581 C1544 0.930 . S
H1582 C1550 0.929 . S
H1583 C1551 0.930 . S
Li1584 N1601 1.990 . S
Li1584 O1644 1.956 . S
Li1584 O1645 1.970 . S
Li1584 O1646 1.961 . S
Li1585 N1609 1.990 . S
Li1585 O1644 1.970 . S
Li1585 O1645 1.956 . S
Li1585 O1647 1.961 . S
Li1586 N1631 1.990 . S
Li1586 O1644 1.961 . S
Li1586 O1646 1.956 . S
Li1586 O1647 1.970 . S
Li1587 N1637 1.990 . S
Li1587 O1645 1.961 . S
Li1587 O1646 1.970 . S
Li1587 O1647 1.956 . S
C1588 C1590 1.348 . S
C1588 C1591 1.356 . S
C1588 O1644 1.325 . S
N1589 C1592 1.314 . S
N1589 C1593 1.279 . S
C1590 C1588 1.348 . S
C1590 C1592 1.353 . S
C1590 H1648 0.929 . S
C1591 C1588 1.356 . S
C1591 C1593 1.358 . S
C1591 H1649 0.930 . S
C1592 N1589 1.314 . S
C1592 C1590 1.353 . S
C1592 H1650 0.930 . S
C1593 N1589 1.279 . S
C1593 C1591 1.358 . S
C1593 H1651 0.930 . S
C1594 C1597 1.348 . S
C1594 C1598 1.356 . S
C1594 O1645 1.325 . S
C1595 N1596 1.279 . S
C1595 C1598 1.358 . S
C1595 H1652 0.930 . S
N1596 C1595 1.279 . S
N1596 C1599 1.314 . S
C1597 C1594 1.348 . S
C1597 C1599 1.353 . S
C1597 H1653 0.929 . S
C1598 C1594 1.356 . S
C1598 C1595 1.358 . S
C1598 H1654 0.930 . S
C1599 N1596 1.314 . S
C1599 C1597 1.353 . S
C1599 H1655 0.930 . S
C1600 N1601 1.314 . S
C1600 C1605 1.353 . S
C1600 H1606 0.930 . S
N1601 Li1584 1.990 . S
N1601 C1600 1.314 . S
N1601 C1603 1.279 . S
C1602 C1603 1.358 . S
C1602 C1604 1.356 . S
C1602 H1656 0.930 . S
C1603 N1601 1.279 . S
C1603 C1602 1.358 . S
C1603 H1607 0.930 . S
C1604 C1602 1.356 . S
C1604 C1605 1.348 . S
C1605 C1600 1.353 . S
C1605 C1604 1.348 . S
C1605 H1657 0.929 . S
H1606 C1600 0.930 . S
H1607 C1603 0.930 . S
C1608 N1609 1.314 . S
C1608 C1610 1.353 . S
C1608 H1614 0.930 . S
N1609 Li1585 1.990 . S
N1609 C1608 1.314 . S
N1609 C1612 1.279 . S
C1610 C1608 1.353 . S
C1610 C1613 1.348 . S
C1610 H1658 0.929 . S
C1611 C1612 1.358 . S
C1611 C1613 1.356 . S
C1611 H1659 0.930 . S
C1612 N1609 1.279 . S
C1612 C1611 1.358 . S
C1612 H1615 0.930 . S
C1613 C1610 1.348 . S
C1613 C1611 1.356 . S
H1614 C1608 0.930 . S
H1615 C1612 0.930 . S
C1616 C1618 1.348 . S
C1616 C1619 1.356 . S
C1616 O1646 1.325 . S
N1617 C1620 1.314 . S
N1617 C1621 1.279 . S
C1618 C1616 1.348 . S
C1618 C1620 1.353 . S
C1618 H1660 0.929 . S
C1619 C1616 1.356 . S
C1619 C1621 1.358 . S
C1619 H1661 0.930 . S
C1620 N1617 1.314 . S
C1620 C1618 1.353 . S
C1620 H1662 0.930 . S
C1621 N1617 1.279 . S
C1621 C1619 1.358 . S
C1621 H1663 0.930 . S
C1622 C1623 1.348 . S
C1622 C1624 1.356 . S
C1622 O1647 1.325 . S
C1623 C1622 1.348 . S
C1623 C1625 1.353 . S
C1623 H1664 0.929 . S
C1624 C1622 1.356 . S
C1624 C1626 1.358 . S
C1624 H1665 0.930 . S
C1625 C1623 1.353 . S
C1625 N1627 1.314 . S
C1625 H1666 0.930 . S
C1626 C1624 1.358 . S
C1626 N1627 1.279 . S
C1626 H1667 0.930 . S
N1627 C1625 1.314 . S
N1627 C1626 1.279 . S
C1628 C1630 1.353 . S
C1628 N1631 1.314 . S
C1628 H1634 0.930 . S
C1629 N1631 1.279 . S
C1629 C1632 1.358 . S
C1629 H1635 0.930 . S
C1630 C1628 1.353 . S
C1630 C1633 1.348 . S
C1630 H1668 0.929 . S
N1631 Li1586 1.990 . S
N1631 C1628 1.314 . S
N1631 C1629 1.279 . S
C1632 C1629 1.358 . S
C1632 C1633 1.356 . S
C1632 H1669 0.930 . S
C1633 C1630 1.348 . S
C1633 C1632 1.356 . S
H1634 C1628 0.930 . S
H1635 C1629 0.930 . S
C1636 N1637 1.314 . S
C1636 C1638 1.353 . S
C1636 H1642 0.930 . S
N1637 Li1587 1.990 . S
N1637 C1636 1.314 . S
N1637 C1640 1.279 . S
C1638 C1636 1.353 . S
C1638 C1641 1.348 . S
C1638 H1670 0.929 . S
C1639 C1640 1.358 . S
C1639 C1641 1.356 . S
C1639 H1671 0.930 . S
C1640 N1637 1.279 . S
C1640 C1639 1.358 . S
C1640 H1643 0.930 . S
C1641 C1638 1.348 . S
C1641 C1639 1.356 . S
H1642 C1636 0.930 . S
H1643 C1640 0.930 . S
O1644 Li1584 1.956 . S
O1644 Li1585 1.970 . S
O1644 Li1586 1.961 . S
O1644 C1588 1.325 . S
O1645 Li1584 1.970 . S
O1645 Li1585 1.956 . S
O1645 Li1587 1.961 . S
O1645 C1594 1.325 . S
O1646 Li1584 1.961 . S
O1646 Li1586 1.956 . S
O1646 Li1587 1.970 . S
O1646 C1616 1.325 . S
O1647 Li1585 1.961 . S
O1647 Li1586 1.970 . S
O1647 Li1587 1.956 . S
O1647 C1622 1.325 . S
H1648 C1590 0.929 . S
H1649 C1591 0.930 . S
H1650 C1592 0.930 . S
H1651 C1593 0.930 . S
H1652 C1595 0.930 . S
H1653 C1597 0.929 . S
H1654 C1598 0.930 . S
H1655 C1599 0.930 . S
H1656 C1602 0.930 . S
H1657 C1605 0.929 . S
H1658 C1610 0.929 . S
H1659 C1611 0.930 . S
H1660 C1618 0.929 . S
H1661 C1619 0.930 . S
H1662 C1620 0.930 . S
H1663 C1621 0.930 . S
H1664 C1623 0.929 . S
H1665 C1624 0.930 . S
H1666 C1625 0.930 . S
H1667 C1626 0.930 . S
H1668 C1630 0.929 . S
H1669 C1632 0.930 . S
H1670 C1638 0.929 . S
H1671 C1639 0.930 . S
Li1672 N1689 1.990 . S
Li1672 O1732 1.956 . S
Li1672 O1733 1.970 . S
Li1672 O1734 1.961 . S
Li1673 N1697 1.990 . S
Li1673 O1732 1.970 . S
Li1673 O1733 1.956 . S
Li1673 O1735 1.961 . S
Li1674 N1719 1.990 . S
Li1674 O1732 1.961 . S
Li1674 O1734 1.956 . S
Li1674 O1735 1.970 . S
Li1675 N1725 1.990 . S
Li1675 O1733 1.961 . S
Li1675 O1734 1.970 . S
Li1675 O1735 1.956 . S
C1676 C1678 1.348 . S
C1676 C1679 1.356 . S
C1676 O1732 1.325 . S
N1677 C1680 1.314 . S
N1677 C1681 1.279 . S
C1678 C1676 1.348 . S
C1678 C1680 1.353 . S
C1678 H1736 0.929 . S
C1679 C1676 1.356 . S
C1679 C1681 1.358 . S
C1679 H1737 0.930 . S
C1680 N1677 1.314 . S
C1680 C1678 1.353 . S
C1680 H1738 0.930 . S
C1681 N1677 1.279 . S
C1681 C1679 1.358 . S
C1681 H1739 0.930 . S
C1682 C1685 1.348 . S
C1682 C1686 1.356 . S
C1682 O1733 1.325 . S
C1683 N1684 1.279 . S
C1683 C1686 1.358 . S
C1683 H1740 0.930 . S
N1684 C1683 1.279 . S
N1684 C1687 1.314 . S
C1685 C1682 1.348 . S
C1685 C1687 1.353 . S
C1685 H1741 0.929 . S
C1686 C1682 1.356 . S
C1686 C1683 1.358 . S
C1686 H1742 0.930 . S
C1687 N1684 1.314 . S
C1687 C1685 1.353 . S
C1687 H1743 0.930 . S
C1688 N1689 1.314 . S
C1688 C1693 1.353 . S
C1688 H1694 0.930 . S
N1689 Li1672 1.990 . S
N1689 C1688 1.314 . S
N1689 C1691 1.279 . S
C1690 C1691 1.358 . S
C1690 C1692 1.356 . S
C1690 H1744 0.930 . S
C1691 N1689 1.279 . S
C1691 C1690 1.358 . S
C1691 H1695 0.930 . S
C1692 C1690 1.356 . S
C1692 C1693 1.348 . S
C1693 C1688 1.353 . S
C1693 C1692 1.348 . S
C1693 H1745 0.929 . S
H1694 C1688 0.930 . S
H1695 C1691 0.930 . S
C1696 N1697 1.314 . S
C1696 C1698 1.353 . S
C1696 H1702 0.930 . S
N1697 Li1673 1.990 . S
N1697 C1696 1.314 . S
N1697 C1700 1.279 . S
C1698 C1696 1.353 . S
C1698 C1701 1.348 . S
C1698 H1746 0.929 . S
C1699 C1700 1.358 . S
C1699 C1701 1.356 . S
C1699 H1747 0.930 . S
C1700 N1697 1.279 . S
C1700 C1699 1.358 . S
C1700 H1703 0.930 . S
C1701 C1698 1.348 . S
C1701 C1699 1.356 . S
H1702 C1696 0.930 . S
H1703 C1700 0.930 . S
C1704 C1706 1.348 1_545 S
C1704 C1707 1.356 . S
C1704 O1734 1.325 . S
N1705 C1708 1.314 . S
N1705 C1709 1.279 . S
C1706 C1704 1.348 1_565 S
C1706 C1708 1.353 . S
C1706 H1748 0.929 . S
C1707 C1704 1.356 . S
C1707 C1709 1.358 1_545 S
C1707 H1749 0.930 . S
C1708 N1705 1.314 . S
C1708 C1706 1.353 . S
C1708 H1750 0.930 . S
C1709 N1705 1.279 . S
C1709 C1707 1.358 1_565 S
C1709 H1751 0.930 . S
C1710 C1711 1.348 . S
C1710 C1712 1.356 . S
C1710 O1735 1.325 . S
C1711 C1710 1.348 . S
C1711 C1713 1.353 . S
C1711 H1752 0.929 . S
C1712 C1710 1.356 . S
C1712 C1714 1.358 . S
C1712 H1753 0.930 . S
C1713 C1711 1.353 . S
C1713 N1715 1.314 . S
C1713 H1754 0.930 . S
C1714 C1712 1.358 . S
C1714 N1715 1.279 . S
C1714 H1755 0.930 . S
N1715 C1713 1.314 . S
N1715 C1714 1.279 . S
C1716 C1718 1.353 . S
C1716 N1719 1.314 . S
C1716 H1722 0.930 . S
C1717 N1719 1.279 . S
C1717 C1720 1.358 . S
C1717 H1723 0.930 . S
C1718 C1716 1.353 . S
C1718 C1721 1.348 . S
C1718 H1756 0.929 . S
N1719 Li1674 1.990 . S
N1719 C1716 1.314 . S
N1719 C1717 1.279 . S
C1720 C1717 1.358 . S
C1720 C1721 1.356 . S
C1720 H1757 0.920 1_545 S
C1721 C1718 1.348 . S
C1721 C1720 1.356 . S
H1722 C1716 0.930 . S
H1723 C1717 0.930 . S
C1724 N1725 1.314 1_565 S
C1724 C1726 1.353 . S
C1724 H1730 0.930 1_565 S
N1725 Li1675 1.990 . S
N1725 C1724 1.314 1_545 S
N1725 C1728 1.279 1_545 S
C1726 C1724 1.353 . S
C1726 C1729 1.348 . S
C1726 H1758 0.929 . S
C1727 C1728 1.358 . S
C1727 C1729 1.356 . S
C1727 H1759 0.930 . S
C1728 N1725 1.279 1_565 S
C1728 C1727 1.358 . S
C1728 H1731 0.930 1_565 S
C1729 C1726 1.348 . S
C1729 C1727 1.356 . S
H1730 C1724 0.930 1_545 S
H1731 C1728 0.930 1_545 S
O1732 Li1672 1.956 . S
O1732 Li1673 1.970 . S
O1732 Li1674 1.961 . S
O1732 C1676 1.325 . S
O1733 Li1672 1.970 . S
O1733 Li1673 1.956 . S
O1733 Li1675 1.961 . S
O1733 C1682 1.325 . S
O1734 Li1672 1.961 . S
O1734 Li1674 1.956 . S
O1734 Li1675 1.970 . S
O1734 C1704 1.325 . S
O1735 Li1673 1.961 . S
O1735 Li1674 1.970 . S
O1735 Li1675 1.956 . S
O1735 C1710 1.325 . S
H1736 C1678 0.929 . S
H1737 C1679 0.930 . S
H1738 C1680 0.930 . S
H1739 C1681 0.930 . S
H1740 C1683 0.930 . S
H1741 C1685 0.929 . S
H1742 C1686 0.930 . S
H1743 C1687 0.930 . S
H1744 C1690 0.930 . S
H1745 C1693 0.929 . S
H1746 C1698 0.929 . S
H1747 C1699 0.930 . S
H1748 C1706 0.929 . S
H1749 C1707 0.930 . S
H1750 C1708 0.930 . S
H1751 C1709 0.930 . S
H1752 C1711 0.929 . S
H1753 C1712 0.930 . S
H1754 C1713 0.930 . S
H1755 C1714 0.930 . S
H1756 C1718 0.929 . S
H1757 C1720 0.920 1_565 S
H1758 C1726 0.929 . S
H1759 C1727 0.930 . S
Li1760 N1777 1.990 . S
Li1760 O1820 1.956 . S
Li1760 O1821 1.970 . S
Li1760 O1822 1.961 . S
Li1761 N1785 1.989 . S
Li1761 O1820 1.974 1_556 S
Li1761 O1821 1.934 1_556 S
Li1761 O1823 1.983 . S
Li1762 N1807 1.990 . S
Li1762 O1820 1.961 1_556 S
Li1762 O1822 1.956 1_556 S
Li1762 O1823 1.970 . S
Li1763 N1813 1.990 . S
Li1763 O1821 1.961 1_556 S
Li1763 O1822 1.970 1_556 S
Li1763 O1823 1.956 . S
C1764 C1766 1.348 . S
C1764 C1767 1.356 . S
C1764 O1820 1.325 . S
N1765 C1768 1.314 . S
N1765 C1769 1.279 . S
C1766 C1764 1.348 . S
C1766 C1768 1.353 . S
C1766 H1824 0.929 . S
C1767 C1764 1.356 . S
C1767 C1769 1.358 . S
C1767 H1825 0.930 . S
C1768 N1765 1.314 . S
C1768 C1766 1.353 . S
C1768 H1826 0.930 . S
C1769 N1765 1.279 . S
C1769 C1767 1.358 . S
C1769 H1827 0.930 . S
C1770 C1773 1.348 . S
C1770 C1774 1.356 . S
C1770 O1821 1.325 . S
C1771 N1772 1.279 . S
C1771 C1774 1.358 . S
C1771 H1828 0.930 . S
N1772 C1771 1.279 . S
N1772 C1775 1.314 . S
C1773 C1770 1.348 . S
C1773 C1775 1.353 . S
C1773 H1829 0.929 . S
C1774 C1770 1.356 . S
C1774 C1771 1.358 . S
C1774 H1830 0.930 . S
C1775 N1772 1.314 . S
C1775 C1773 1.353 . S
C1775 H1831 0.930 . S
C1776 N1777 1.314 . S
C1776 C1781 1.353 . S
C1776 H1782 0.930 . S
N1777 Li1760 1.990 . S
N1777 C1776 1.314 . S
N1777 C1779 1.279 . S
C1778 C1779 1.358 . S
C1778 C1780 1.356 . S
C1778 H1832 0.930 . S
C1779 N1777 1.279 . S
C1779 C1778 1.358 . S
C1779 H1783 0.930 . S
C1780 C1778 1.356 . S
C1780 C1781 1.348 . S
C1781 C1776 1.353 . S
C1781 C1780 1.348 . S
C1781 H1833 0.929 . S
H1782 C1776 0.930 . S
H1783 C1779 0.930 . S
C1784 N1785 1.314 . S
C1784 C1786 1.353 . S
C1784 H1790 0.930 . S
N1785 Li1761 1.989 . S
N1785 C1784 1.314 . S
N1785 C1788 1.279 1_556 S
C1786 C1784 1.353 . S
C1786 C1789 1.348 . S
C1786 H1834 0.929 . S
C1787 C1788 1.358 . S
C1787 C1789 1.356 1_554 S
C1787 H1835 0.930 . S
C1788 N1785 1.279 1_554 S
C1788 C1787 1.358 . S
C1788 H1791 0.930 . S
C1789 C1786 1.348 . S
C1789 C1787 1.356 1_556 S
H1790 C1784 0.930 . S
H1791 C1788 0.930 . S
C1792 C1794 1.348 1_554 S
C1792 C1795 1.356 . S
C1792 O1822 1.325 . S
N1793 C1796 1.314 1_554 S
N1793 C1797 1.279 . S
C1794 C1792 1.348 1_556 S
C1794 C1796 1.353 . S
C1794 H1836 0.929 . S
C1795 C1792 1.356 . S
C1795 C1797 1.358 . S
C1795 H1837 0.930 . S
C1796 N1793 1.314 1_556 S
C1796 C1794 1.353 . S
C1796 H1838 0.930 . S
C1797 N1793 1.279 . S
C1797 C1795 1.358 . S
C1797 H1839 0.930 . S
C1798 C1799 1.348 . S
C1798 C1800 1.356 . S
C1798 O1823 1.325 . S
C1799 C1798 1.348 . S
C1799 C1801 1.353 . S
C1799 H1840 0.929 . S
C1800 C1798 1.356 . S
C1800 C1802 1.358 . S
C1800 H1841 0.930 . S
C1801 C1799 1.353 . S
C1801 N1803 1.314 . S
C1801 H1842 0.930 . S
C1802 C1800 1.358 . S
C1802 N1803 1.279 . S
C1802 H1843 0.930 . S
N1803 C1801 1.314 . S
N1803 C1802 1.279 . S
C1804 C1806 1.353 . S
C1804 N1807 1.314 . S
C1804 H1810 0.930 . S
C1805 N1807 1.279 . S
C1805 C1808 1.358 . S
C1805 H1811 0.930 . S
C1806 C1804 1.353 . S
C1806 C1809 1.348 . S
C1806 H1844 0.929 . S
N1807 Li1762 1.990 . S
N1807 C1804 1.314 . S
N1807 C1805 1.279 . S
C1808 C1805 1.358 . S
C1808 C1809 1.356 . S
C1808 H1845 0.930 . S
C1809 C1806 1.348 . S
C1809 C1808 1.356 . S
H1810 C1804 0.930 . S
H1811 C1805 0.930 . S
C1812 N1813 1.314 1_554 S
C1812 C1814 1.353 . S
C1812 H1818 0.930 . S
N1813 Li1763 1.990 . S
N1813 C1812 1.314 1_556 S
N1813 C1816 1.279 . S
C1814 C1812 1.353 . S
C1814 C1817 1.348 1_554 S
C1814 H1846 0.929 . S
C1815 C1816 1.358 . S
C1815 C1817 1.356 . S
C1815 H1847 0.930 . S
C1816 N1813 1.279 . S
C1816 C1815 1.358 . S
C1816 H1819 0.930 . S
C1817 C1814 1.348 1_556 S
C1817 C1815 1.356 . S
H1818 C1812 0.930 . S
H1819 C1816 0.930 . S
O1820 Li1760 1.956 . S
O1820 Li1761 1.974 1_554 S
O1820 Li1762 1.961 1_554 S
O1820 C1764 1.325 . S
O1821 Li1760 1.970 . S
O1821 Li1761 1.934 1_554 S
O1821 Li1763 1.961 1_554 S
O1821 C1770 1.325 . S
O1822 Li1760 1.961 . S
O1822 Li1762 1.956 1_554 S
O1822 Li1763 1.970 1_554 S
O1822 C1792 1.325 . S
O1823 Li1761 1.983 . S
O1823 Li1762 1.970 . S
O1823 Li1763 1.956 . S
O1823 C1798 1.325 . S
H1824 C1766 0.929 . S
H1825 C1767 0.930 . S
H1826 C1768 0.930 . S
H1827 C1769 0.930 . S
H1828 C1771 0.930 . S
H1829 C1773 0.929 . S
H1830 C1774 0.930 . S
H1831 C1775 0.930 . S
H1832 C1778 0.930 . S
H1833 C1781 0.929 . S
H1834 C1786 0.929 . S
H1835 C1787 0.930 . S
H1836 C1794 0.929 . S
H1837 C1795 0.930 . S
H1838 C1796 0.930 . S
H1839 C1797 0.930 . S
H1840 C1799 0.929 . S
H1841 C1800 0.930 . S
H1842 C1801 0.930 . S
H1843 C1802 0.930 . S
H1844 C1806 0.929 . S
H1845 C1808 0.930 . S
H1846 C1814 0.929 . S
H1847 C1815 0.930 . S
Li1848 N1865 1.990 . S
Li1848 O1908 1.956 . S
Li1848 O1909 1.970 . S
Li1848 O1910 1.961 . S
Li1849 N1873 1.990 . S
Li1849 O1908 1.970 . S
Li1849 O1909 1.956 . S
Li1849 O1911 1.961 . S
Li1850 N1895 1.990 . S
Li1850 O1908 1.961 . S
Li1850 O1910 1.956 . S
Li1850 O1911 1.970 . S
Li1851 N1901 1.990 . S
Li1851 O1909 1.961 . S
Li1851 O1910 1.970 . S
Li1851 O1911 1.956 . S
C1852 C1854 1.348 . S
C1852 C1855 1.356 . S
C1852 O1908 1.325 . S
N1853 C1856 1.314 . S
N1853 C1857 1.279 . S
C1854 C1852 1.348 . S
C1854 C1856 1.353 . S
C1854 H1912 0.929 . S
C1855 C1852 1.356 . S
C1855 C1857 1.358 . S
C1855 H1913 0.930 . S
C1856 N1853 1.314 . S
C1856 C1854 1.353 . S
C1856 H1914 0.930 . S
C1857 N1853 1.279 . S
C1857 C1855 1.358 . S
C1857 H1915 0.930 . S
C1858 C1861 1.348 . S
C1858 C1862 1.356 . S
C1858 O1909 1.325 . S
C1859 N1860 1.279 . S
C1859 C1862 1.358 . S
C1859 H1916 0.930 . S
N1860 C1859 1.279 . S
N1860 C1863 1.314 . S
C1861 C1858 1.348 . S
C1861 C1863 1.353 . S
C1861 H1917 0.929 . S
C1862 C1858 1.356 . S
C1862 C1859 1.358 . S
C1862 H1918 0.930 . S
C1863 N1860 1.314 . S
C1863 C1861 1.353 . S
C1863 H1919 0.930 . S
C1864 N1865 1.314 . S
C1864 C1869 1.353 . S
C1864 H1870 0.930 . S
N1865 Li1848 1.990 . S
N1865 C1864 1.314 . S
N1865 C1867 1.279 . S
C1866 C1867 1.358 . S
C1866 C1868 1.356 . S
C1866 H1920 0.930 . S
C1867 N1865 1.279 . S
C1867 C1866 1.358 . S
C1867 H1871 0.930 . S
C1868 C1866 1.356 . S
C1868 C1869 1.348 . S
C1869 C1864 1.353 . S
C1869 C1868 1.348 . S
C1869 H1921 0.929 . S
H1870 C1864 0.930 . S
H1871 C1867 0.930 . S
C1872 N1873 1.314 . S
C1872 C1874 1.353 . S
C1872 H1878 0.930 . S
N1873 Li1849 1.990 . S
N1873 C1872 1.314 . S
N1873 C1876 1.279 . S
C1874 C1872 1.353 . S
C1874 C1877 1.348 . S
C1874 H1922 0.929 . S
C1875 C1876 1.358 . S
C1875 C1877 1.356 . S
C1875 H1923 0.930 . S
C1876 N1873 1.279 . S
C1876 C1875 1.358 . S
C1876 H1879 0.930 . S
C1877 C1874 1.348 . S
C1877 C1875 1.356 . S
H1878 C1872 0.930 . S
H1879 C1876 0.930 . S
C1880 C1882 1.348 . S
C1880 C1883 1.356 . S
C1880 O1910 1.325 . S
N1881 C1884 1.314 . S
N1881 C1885 1.279 . S
C1882 C1880 1.348 . S
C1882 C1884 1.353 . S
C1882 H1924 0.929 . S
C1883 C1880 1.356 . S
C1883 C1885 1.358 . S
C1883 H1925 0.930 . S
C1884 N1881 1.314 . S
C1884 C1882 1.353 . S
C1884 H1926 0.930 . S
C1885 N1881 1.279 . S
C1885 C1883 1.358 . S
C1885 H1927 0.930 . S
C1886 C1887 1.348 . S
C1886 C1888 1.356 . S
C1886 O1911 1.325 . S
C1887 C1886 1.348 . S
C1887 C1889 1.353 . S
C1887 H1928 0.929 . S
C1888 C1886 1.356 . S
C1888 C1890 1.358 . S
C1888 H1929 0.930 . S
C1889 C1887 1.353 . S
C1889 N1891 1.314 . S
C1889 H1930 0.930 . S
C1890 C1888 1.358 . S
C1890 N1891 1.279 . S
C1890 H1931 0.930 . S
N1891 C1889 1.314 . S
N1891 C1890 1.279 . S
C1892 C1894 1.353 . S
C1892 N1895 1.314 . S
C1892 H1898 0.930 . S
C1893 N1895 1.279 . S
C1893 C1896 1.358 . S
C1893 H1899 0.930 . S
C1894 C1892 1.353 . S
C1894 C1897 1.348 . S
C1894 H1932 0.929 . S
N1895 Li1850 1.990 . S
N1895 C1892 1.314 . S
N1895 C1893 1.279 . S
C1896 C1893 1.358 . S
C1896 C1897 1.356 . S
C1896 H1933 0.930 . S
C1897 C1894 1.348 . S
C1897 C1896 1.356 . S
H1898 C1892 0.930 . S
H1899 C1893 0.930 . S
C1900 N1901 1.314 . S
C1900 C1902 1.353 . S
C1900 H1906 0.930 . S
N1901 Li1851 1.990 . S
N1901 C1900 1.314 . S
N1901 C1904 1.279 . S
C1902 C1900 1.353 . S
C1902 C1905 1.348 . S
C1902 H1934 0.929 . S
C1903 C1904 1.358 . S
C1903 C1905 1.356 . S
C1903 H1935 0.930 . S
C1904 N1901 1.279 . S
C1904 C1903 1.358 . S
C1904 H1907 0.930 . S
C1905 C1902 1.348 . S
C1905 C1903 1.356 . S
H1906 C1900 0.930 . S
H1907 C1904 0.930 . S
O1908 Li1848 1.956 . S
O1908 Li1849 1.970 . S
O1908 Li1850 1.961 . S
O1908 C1852 1.325 . S
O1909 Li1848 1.970 . S
O1909 Li1849 1.956 . S
O1909 Li1851 1.961 . S
O1909 C1858 1.325 . S
O1910 Li1848 1.961 . S
O1910 Li1850 1.956 . S
O1910 Li1851 1.970 . S
O1910 C1880 1.325 . S
O1911 Li1849 1.961 . S
O1911 Li1850 1.970 . S
O1911 Li1851 1.956 . S
O1911 C1886 1.325 . S
H1912 C1854 0.929 . S
H1913 C1855 0.930 . S
H1914 C1856 0.930 . S
H1915 C1857 0.930 . S
H1916 C1859 0.930 . S
H1917 C1861 0.929 . S
H1918 C1862 0.930 . S
H1919 C1863 0.930 . S
H1920 C1866 0.930 . S
H1921 C1869 0.929 . S
H1922 C1874 0.929 . S
H1923 C1875 0.930 . S
H1924 C1882 0.929 . S
H1925 C1883 0.930 . S
H1926 C1884 0.930 . S
H1927 C1885 0.930 . S
H1928 C1887 0.929 . S
H1929 C1888 0.930 . S
H1930 C1889 0.930 . S
H1931 C1890 0.930 . S
H1932 C1894 0.929 . S
H1933 C1896 0.930 . S
H1934 C1902 0.929 . S
H1935 C1903 0.930 . S
Li1936 N1953 1.990 . S
Li1936 O1996 1.956 . S
Li1936 O1997 1.970 . S
Li1936 O1998 1.961 . S
Li1937 N1961 1.990 . S
Li1937 O1996 1.970 . S
Li1937 O1997 1.956 . S
Li1937 O1999 1.961 . S
Li1938 N1983 1.990 . S
Li1938 O1996 1.961 . S
Li1938 O1998 1.956 . S
Li1938 O1999 1.970 . S
Li1939 N1989 1.990 . S
Li1939 O1997 1.961 . S
Li1939 O1998 1.970 . S
Li1939 O1999 1.956 . S
C1940 C1942 1.348 . S
C1940 C1943 1.356 . S
C1940 O1996 1.325 . S
N1941 C1944 1.314 . S
N1941 C1945 1.279 . S
C1942 C1940 1.348 . S
C1942 C1944 1.353 . S
C1942 H2000 0.929 . S
C1943 C1940 1.356 . S
C1943 C1945 1.358 . S
C1943 H2001 0.930 . S
C1944 N1941 1.314 . S
C1944 C1942 1.353 . S
C1944 H2002 0.930 . S
C1945 N1941 1.279 . S
C1945 C1943 1.358 . S
C1945 H2003 0.930 . S
C1946 C1949 1.348 . S
C1946 C1950 1.356 . S
C1946 O1997 1.325 . S
C1947 N1948 1.279 . S
C1947 C1950 1.358 . S
C1947 H2004 0.930 . S
N1948 C1947 1.279 . S
N1948 C1951 1.314 . S
C1949 C1946 1.348 . S
C1949 C1951 1.353 . S
C1949 H2005 0.929 . S
C1950 C1946 1.356 . S
C1950 C1947 1.358 . S
C1950 H2006 0.930 . S
C1951 N1948 1.314 . S
C1951 C1949 1.353 . S
C1951 H2007 0.930 . S
C1952 N1953 1.314 . S
C1952 C1957 1.353 . S
C1952 H1958 0.930 . S
N1953 Li1936 1.990 . S
N1953 C1952 1.314 . S
N1953 C1955 1.279 . S
C1954 C1955 1.358 . S
C1954 C1956 1.356 . S
C1954 H2008 0.930 . S
C1955 N1953 1.279 . S
C1955 C1954 1.358 . S
C1955 H1959 0.930 . S
C1956 C1954 1.356 . S
C1956 C1957 1.348 . S
C1957 C1952 1.353 . S
C1957 C1956 1.348 . S
C1957 H2009 0.929 . S
H1958 C1952 0.930 . S
H1959 C1955 0.930 . S
C1960 N1961 1.314 . S
C1960 C1962 1.353 . S
C1960 H1966 0.930 . S
N1961 Li1937 1.990 . S
N1961 C1960 1.314 . S
N1961 C1964 1.279 . S
C1962 C1960 1.353 . S
C1962 C1965 1.348 . S
C1962 H2010 0.929 . S
C1963 C1964 1.358 . S
C1963 C1965 1.356 . S
C1963 H2011 0.930 . S
C1964 N1961 1.279 . S
C1964 C1963 1.358 . S
C1964 H1967 0.930 . S
C1965 C1962 1.348 . S
C1965 C1963 1.356 . S
H1966 C1960 0.930 . S
H1967 C1964 0.930 . S
C1968 C1970 1.348 . S
C1968 C1971 1.356 . S
C1968 O1998 1.325 . S
N1969 C1972 1.314 . S
N1969 C1973 1.279 . S
C1970 C1968 1.348 . S
C1970 C1972 1.353 . S
C1970 H2012 0.929 . S
C1971 C1968 1.356 . S
C1971 C1973 1.358 . S
C1971 H2013 0.930 . S
C1972 N1969 1.314 . S
C1972 C1970 1.353 . S
C1972 H2014 0.930 . S
C1973 N1969 1.279 . S
C1973 C1971 1.358 . S
C1973 H2015 0.930 . S
C1974 C1975 1.348 . S
C1974 C1976 1.356 . S
C1974 O1999 1.325 . S
C1975 C1974 1.348 . S
C1975 C1977 1.353 . S
C1975 H2016 0.929 . S
C1976 C1974 1.356 . S
C1976 C1978 1.358 . S
C1976 H2017 0.930 . S
C1977 C1975 1.353 . S
C1977 N1979 1.314 . S
C1977 H2018 0.930 . S
C1978 C1976 1.358 . S
C1978 N1979 1.279 . S
C1978 H2019 0.930 . S
N1979 C1977 1.314 . S
N1979 C1978 1.279 . S
C1980 C1982 1.353 . S
C1980 N1983 1.314 . S
C1980 H1986 0.930 . S
C1981 N1983 1.279 . S
C1981 C1984 1.358 . S
C1981 H1987 0.930 . S
C1982 C1980 1.353 . S
C1982 C1985 1.348 . S
C1982 H2020 0.929 . S
N1983 Li1938 1.990 . S
N1983 C1980 1.314 . S
N1983 C1981 1.279 . S
C1984 C1981 1.358 . S
C1984 C1985 1.356 . S
C1984 H2021 0.930 . S
C1985 C1982 1.348 . S
C1985 C1984 1.356 . S
H1986 C1980 0.930 . S
H1987 C1981 0.930 . S
C1988 N1989 1.314 . S
C1988 C1990 1.353 . S
C1988 H1994 0.930 . S
N1989 Li1939 1.990 . S
N1989 C1988 1.314 . S
N1989 C1992 1.279 . S
C1990 C1988 1.353 . S
C1990 C1993 1.348 . S
C1990 H2022 0.929 . S
C1991 C1992 1.358 . S
C1991 C1993 1.356 . S
C1991 H2023 0.930 . S
C1992 N1989 1.279 . S
C1992 C1991 1.358 . S
C1992 H1995 0.930 . S
C1993 C1990 1.348 . S
C1993 C1991 1.356 . S
H1994 C1988 0.930 . S
H1995 C1992 0.930 . S
O1996 Li1936 1.956 . S
O1996 Li1937 1.970 . S
O1996 Li1938 1.961 . S
O1996 C1940 1.325 . S
O1997 Li1936 1.970 . S
O1997 Li1937 1.956 . S
O1997 Li1939 1.961 . S
O1997 C1946 1.325 . S
O1998 Li1936 1.961 . S
O1998 Li1938 1.956 . S
O1998 Li1939 1.970 . S
O1998 C1968 1.325 . S
O1999 Li1937 1.961 . S
O1999 Li1938 1.970 . S
O1999 Li1939 1.956 . S
O1999 C1974 1.325 . S
H2000 C1942 0.929 . S
H2001 C1943 0.930 . S
H2002 C1944 0.930 . S
H2003 C1945 0.930 . S
H2004 C1947 0.930 . S
H2005 C1949 0.929 . S
H2006 C1950 0.930 . S
H2007 C1951 0.930 . S
H2008 C1954 0.930 . S
H2009 C1957 0.929 . S
H2010 C1962 0.929 . S
H2011 C1963 0.930 . S
H2012 C1970 0.929 . S
H2013 C1971 0.930 . S
H2014 C1972 0.930 . S
H2015 C1973 0.930 . S
H2016 C1975 0.929 . S
H2017 C1976 0.930 . S
H2018 C1977 0.930 . S
H2019 C1978 0.930 . S
H2020 C1982 0.929 . S
H2021 C1984 0.930 . S
H2022 C1990 0.929 . S
H2023 C1991 0.930 . S
Li2024 N2041 1.990 . S
Li2024 O2084 1.956 . S
Li2024 O2085 1.970 . S
Li2024 O2086 1.961 . S
Li2025 N2049 1.990 . S
Li2025 O2084 1.970 . S
Li2025 O2085 1.956 . S
Li2025 O2087 1.961 . S
Li2026 N2071 1.990 . S
Li2026 O2084 1.961 . S
Li2026 O2086 1.956 . S
Li2026 O2087 1.970 . S
Li2027 N2077 1.990 . S
Li2027 O2085 1.961 . S
Li2027 O2086 1.970 . S
Li2027 O2087 1.956 . S
C2028 C2030 1.348 . S
C2028 C2031 1.356 . S
C2028 O2084 1.325 . S
N2029 C2032 1.314 . S
N2029 C2033 1.279 . S
C2030 C2028 1.348 . S
C2030 C2032 1.353 . S
C2030 H2088 0.929 . S
C2031 C2028 1.356 . S
C2031 C2033 1.358 . S
C2031 H2089 0.930 . S
C2032 N2029 1.314 . S
C2032 C2030 1.353 . S
C2032 H2090 0.930 . S
C2033 N2029 1.279 . S
C2033 C2031 1.358 . S
C2033 H2091 0.930 . S
C2034 C2037 1.348 . S
C2034 C2038 1.356 . S
C2034 O2085 1.325 . S
C2035 N2036 1.279 . S
C2035 C2038 1.358 . S
C2035 H2092 0.930 . S
N2036 C2035 1.279 . S
N2036 C2039 1.314 . S
C2037 C2034 1.348 . S
C2037 C2039 1.353 . S
C2037 H2093 0.929 . S
C2038 C2034 1.356 . S
C2038 C2035 1.358 . S
C2038 H2094 0.930 . S
C2039 N2036 1.314 . S
C2039 C2037 1.353 . S
C2039 H2095 0.930 . S
C2040 N2041 1.314 . S
C2040 C2045 1.353 . S
C2040 H2046 0.930 . S
N2041 Li2024 1.990 . S
N2041 C2040 1.314 . S
N2041 C2043 1.279 . S
C2042 C2043 1.358 . S
C2042 C2044 1.356 . S
C2042 H2096 0.930 . S
C2043 N2041 1.279 . S
C2043 C2042 1.358 . S
C2043 H2047 0.930 . S
C2044 C2042 1.356 . S
C2044 C2045 1.348 . S
C2045 C2040 1.353 . S
C2045 C2044 1.348 . S
C2045 H2097 0.929 . S
H2046 C2040 0.930 . S
H2047 C2043 0.930 . S
C2048 N2049 1.314 . S
C2048 C2050 1.353 . S
C2048 H2054 0.930 . S
N2049 Li2025 1.990 . S
N2049 C2048 1.314 . S
N2049 C2052 1.279 . S
C2050 C2048 1.353 . S
C2050 C2053 1.348 . S
C2050 H2098 0.929 . S
C2051 C2052 1.358 . S
C2051 C2053 1.356 . S
C2051 H2099 0.930 . S
C2052 N2049 1.279 . S
C2052 C2051 1.358 . S
C2052 H2055 0.930 . S
C2053 C2050 1.348 . S
C2053 C2051 1.356 . S
H2054 C2048 0.930 . S
H2055 C2052 0.930 . S
C2056 C2058 1.348 . S
C2056 C2059 1.356 . S
C2056 O2086 1.325 . S
N2057 C2060 1.314 . S
N2057 C2061 1.279 . S
C2058 C2056 1.348 . S
C2058 C2060 1.353 . S
C2058 H2100 0.929 . S
C2059 C2056 1.356 . S
C2059 C2061 1.358 . S
C2059 H2101 0.930 . S
C2060 N2057 1.314 . S
C2060 C2058 1.353 . S
C2060 H2102 0.930 . S
C2061 N2057 1.279 . S
C2061 C2059 1.358 . S
C2061 H2103 0.930 . S
C2062 C2063 1.348 . S
C2062 C2064 1.356 . S
C2062 O2087 1.325 . S
C2063 C2062 1.348 . S
C2063 C2065 1.353 . S
C2063 H2104 0.929 . S
C2064 C2062 1.356 . S
C2064 C2066 1.358 . S
C2064 H2105 0.930 . S
C2065 C2063 1.353 . S
C2065 N2067 1.314 . S
C2065 H2106 0.930 . S
C2066 C2064 1.358 . S
C2066 N2067 1.279 . S
C2066 H2107 0.930 . S
N2067 C2065 1.314 . S
N2067 C2066 1.279 . S
C2068 C2070 1.353 . S
C2068 N2071 1.314 . S
C2068 H2074 0.930 . S
C2069 N2071 1.279 . S
C2069 C2072 1.358 . S
C2069 H2075 0.930 . S
C2070 C2068 1.353 . S
C2070 C2073 1.348 . S
C2070 H2108 0.929 . S
N2071 Li2026 1.990 . S
N2071 C2068 1.314 . S
N2071 C2069 1.279 . S
C2072 C2069 1.358 . S
C2072 C2073 1.356 . S
C2072 H2109 0.930 . S
C2073 C2070 1.348 . S
C2073 C2072 1.356 . S
H2074 C2068 0.930 . S
H2075 C2069 0.930 . S
C2076 N2077 1.314 . S
C2076 C2078 1.353 . S
C2076 H2082 0.930 . S
N2077 Li2027 1.990 . S
N2077 C2076 1.314 . S
N2077 C2080 1.279 . S
C2078 C2076 1.353 . S
C2078 C2081 1.348 . S
C2078 H2110 0.929 . S
C2079 C2080 1.358 . S
C2079 C2081 1.356 . S
C2079 H2111 0.930 . S
C2080 N2077 1.279 . S
C2080 C2079 1.358 . S
C2080 H2083 0.930 . S
C2081 C2078 1.348 . S
C2081 C2079 1.356 . S
H2082 C2076 0.930 . S
H2083 C2080 0.930 . S
O2084 Li2024 1.956 . S
O2084 Li2025 1.970 . S
O2084 Li2026 1.961 . S
O2084 C2028 1.325 . S
O2085 Li2024 1.970 . S
O2085 Li2025 1.956 . S
O2085 Li2027 1.961 . S
O2085 C2034 1.325 . S
O2086 Li2024 1.961 . S
O2086 Li2026 1.956 . S
O2086 Li2027 1.970 . S
O2086 C2056 1.325 . S
O2087 Li2025 1.961 . S
O2087 Li2026 1.970 . S
O2087 Li2027 1.956 . S
O2087 C2062 1.325 . S
H2088 C2030 0.929 . S
H2089 C2031 0.930 . S
H2090 C2032 0.930 . S
H2091 C2033 0.930 . S
H2092 C2035 0.930 . S
H2093 C2037 0.929 . S
H2094 C2038 0.930 . S
H2095 C2039 0.930 . S
H2096 C2042 0.930 . S
H2097 C2045 0.929 . S
H2098 C2050 0.929 . S
H2099 C2051 0.930 . S
H2100 C2058 0.929 . S
H2101 C2059 0.930 . S
H2102 C2060 0.930 . S
H2103 C2061 0.930 . S
H2104 C2063 0.929 . S
H2105 C2064 0.930 . S
H2106 C2065 0.930 . S
H2107 C2066 0.930 . S
H2108 C2070 0.929 . S
H2109 C2072 0.930 . S
H2110 C2078 0.929 . S
H2111 C2079 0.930 . S
Eu2112 N2143 2.657 1_545 S
Eu2112 N2150 2.609 1_544 S
Eu2112 O2156 2.558 1_454 S
Eu2112 O2157 2.612 . S
Eu2112 O2159 2.339 . S
Eu2112 O2160 2.563 . S
Eu2112 O2161 2.419 1_455 S
Eu2112 O2163 2.380 . S
Eu2112 O2164 2.432 1_554 S
Eu2112 C2176 2.848 1_454 S
C2113 C2116 1.429 . S
C2113 C2117 1.411 . S
C2113 N2120 1.377 . S
C2114 C2116 1.420 . S
C2114 C2118 1.423 . S
C2114 C2126 1.373 1_554 S
C2115 C2117 1.420 . S
C2115 C2118 1.351 . S
C2115 H2138 0.931 . S
C2116 C2113 1.429 . S
C2116 C2114 1.420 . S
C2116 N2124 1.362 . S
C2117 C2113 1.411 . S
C2117 C2115 1.420 . S
C2117 C2122 1.395 . S
C2118 C2114 1.423 . S
C2118 C2115 1.351 . S
C2118 H2130 0.930 . S
C2119 C2121 1.400 . S
C2119 C2122 1.386 . S
C2119 H2131 0.930 . S
N2120 C2113 1.377 . S
N2120 C2121 1.321 . S
N2120 Eu2123 2.609 . S
C2121 C2119 1.400 . S
C2121 N2120 1.321 . S
C2121 H2128 0.930 . S
C2122 C2117 1.395 . S
C2122 C2119 1.386 . S
C2122 H2141 0.930 . S
Eu2123 N2120 2.609 . S
Eu2123 N2124 2.657 . S
Eu2123 O2157 2.380 . S
Eu2123 O2158 2.432 . S
Eu2123 O2162 2.558 . S
Eu2123 O2163 2.612 . S
Eu2123 O2165 2.339 1_554 S
Eu2123 O2166 2.563 . S
Eu2123 O2167 2.419 . S
Eu2123 C2187 2.848 . S
N2124 C2116 1.362 . S
N2124 Eu2123 2.657 . S
N2124 C2125 1.334 1_554 S
C2125 N2124 1.334 1_556 S
C2125 C2127 1.413 . S
C2125 H2132 0.929 . S
C2126 C2114 1.373 1_556 S
C2126 C2127 1.376 . S
C2126 H2134 0.941 . S
C2127 C2125 1.413 . S
C2127 C2126 1.376 . S
C2127 H2129 0.930 . S
H2128 C2121 0.930 . S
H2129 C2127 0.930 . S
H2130 C2118 0.930 . S
H2131 C2119 0.930 . S
H2132 C2125 0.929 . S
H2133 C2147 0.930 . S
H2134 C2126 0.941 . S
H2135 C2153 0.930 . S
H2136 C2144 0.929 1_545 S
H2137 C2151 0.929 . S
H2138 C2115 0.931 . S
H2139 C2145 0.930 . S
H2140 C2178 0.930 1_554 S
H2141 C2122 0.930 . S
H2142 C2177 0.931 . S
N2143 Eu2112 2.657 1_565 S
N2143 C2144 1.334 . S
N2143 C2148 1.368 . S
C2144 H2136 0.929 1_565 S
C2144 N2143 1.334 . S
C2144 C2147 1.413 . S
C2145 H2139 0.930 . S
C2145 C2146 1.392 . S
C2145 C2147 1.367 1_655 S
C2146 C2145 1.392 . S
C2146 C2148 1.414 1_655 S
C2146 C2178 1.423 1_554 S
C2147 H2133 0.930 . S
C2147 C2144 1.413 . S
C2147 C2145 1.367 1_455 S
C2148 N2143 1.368 . S
C2148 C2146 1.414 1_455 S
C2148 C2152 1.430 1_554 S
H2149 C2154 0.930 . S
N2150 Eu2112 2.609 1_566 S
N2150 C2152 1.377 . S
N2150 C2153 1.321 . S
C2151 H2137 0.929 . S
C2151 C2153 1.396 1_655 S
C2151 C2154 1.390 . S
C2152 C2148 1.430 1_556 S
C2152 N2150 1.377 . S
C2152 C2155 1.411 1_455 S
C2153 H2135 0.930 . S
C2153 N2150 1.321 . S
C2153 C2151 1.396 1_455 S
C2154 H2149 0.930 . S
C2154 C2151 1.390 . S
C2154 C2155 1.395 . S
C2155 C2152 1.411 1_655 S
C2155 C2154 1.395 . S
C2155 C2177 1.420 . S
O2156 Eu2112 2.558 1_656 S
O2156 C2176 1.257 . S
O2157 Eu2112 2.612 . S
O2157 Eu2123 2.380 . S
O2157 C2168 1.276 . S
O2158 Eu2123 2.432 . S
O2158 C2175 1.264 . S
O2159 Eu2112 2.339 . S
O2159 C2175 1.254 . S
O2160 Eu2112 2.563 . S
O2160 C2168 1.235 . S
O2161 Eu2112 2.419 1_655 S
O2161 C2176 1.249 1_554 S
O2162 Eu2123 2.558 . S
O2162 C2187 1.257 . S
O2163 Eu2112 2.380 . S
O2163 Eu2123 2.612 . S
O2163 C2179 1.238 1_545 S
O2164 Eu2112 2.432 1_556 S
O2164 C2186 1.264 . S
O2165 Eu2123 2.339 1_556 S
O2165 C2186 1.254 . S
O2166 Eu2123 2.563 . S
O2166 C2179 1.232 1_545 S
O2167 Eu2123 2.419 . S
O2167 C2187 1.249 . S
C2168 O2157 1.276 . S
C2168 O2160 1.235 . S
C2169 C2171 1.393 1_556 S
C2169 C2173 1.395 . S
C2169 C2176 1.492 . S
C2170 C2171 1.384 1_556 S
C2170 C2172 1.428 . S
C2171 C2169 1.393 1_554 S
C2171 C2170 1.384 1_554 S
C2171 H2188 0.930 . S
C2172 C2170 1.428 . S
C2172 C2174 1.395 . S
C2172 H2189 0.930 . S
C2173 C2169 1.395 . S
C2173 C2174 1.379 . S
C2173 H2190 0.930 . S
C2174 C2172 1.395 . S
C2174 C2173 1.379 . S
C2174 H2191 0.930 . S
C2175 O2158 1.264 . S
C2175 O2159 1.254 . S
C2176 Eu2112 2.848 1_656 S
C2176 O2156 1.257 . S
C2176 O2161 1.249 1_556 S
C2176 C2169 1.492 . S
C2177 H2142 0.931 . S
C2177 C2155 1.420 . S
C2177 C2178 1.351 . S
C2178 H2140 0.930 1_556 S
C2178 C2146 1.423 1_556 S
C2178 C2177 1.351 . S
C2179 O2163 1.238 1_565 S
C2179 O2166 1.232 1_565 S
C2180 C2181 1.393 . S
C2180 C2184 1.395 . S
C2180 C2187 1.492 . S
C2181 C2180 1.393 . S
C2181 C2182 1.392 . S
C2181 H2192 0.930 . S
C2182 C2181 1.392 . S
C2182 C2183 1.386 . S
C2183 C2182 1.386 . S
C2183 C2185 1.395 . S
C2183 H2193 0.930 . S
C2184 C2180 1.395 . S
C2184 C2185 1.379 . S
C2184 H2194 0.930 . S
C2185 C2183 1.395 . S
C2185 C2184 1.379 . S
C2185 H2195 0.930 . S
C2186 O2164 1.264 . S
C2186 O2165 1.254 . S
C2187 Eu2123 2.848 . S
C2187 O2162 1.257 . S
C2187 O2167 1.249 . S
C2187 C2180 1.492 . S
H2188 C2171 0.930 . S
H2189 C2172 0.930 . S
H2190 C2173 0.930 . S
H2191 C2174 0.930 . S
H2192 C2181 0.930 . S
H2193 C2183 0.930 . S
H2194 C2184 0.930 . S
H2195 C2185 0.930 . S
Eu2196 N2227 2.657 . S
Eu2196 N2234 2.609 . S
Eu2196 O2240 2.558 . S
Eu2196 O2241 2.612 . S
Eu2196 O2243 2.339 . S
Eu2196 O2244 2.563 . S
Eu2196 O2245 2.419 . S
Eu2196 O2247 2.380 . S
Eu2196 O2248 2.432 . S
Eu2196 C2260 2.848 . S
C2197 C2200 1.429 . S
C2197 C2201 1.411 . S
C2197 N2204 1.377 . S
C2198 C2200 1.420 . S
C2198 C2202 1.423 . S
C2198 C2210 1.392 . S
C2199 C2201 1.420 . S
C2199 C2202 1.351 . S
C2199 H2222 0.931 . S
C2200 C2197 1.429 . S
C2200 C2198 1.420 . S
C2200 N2208 1.362 . S
C2201 C2197 1.411 . S
C2201 C2199 1.420 . S
C2201 C2206 1.395 . S
C2202 C2198 1.423 . S
C2202 C2199 1.351 . S
C2202 H2214 0.930 . S
C2203 C2205 1.400 . S
C2203 C2206 1.386 . S
C2203 H2215 0.930 . S
N2204 C2197 1.377 . S
N2204 C2205 1.321 . S
N2204 Eu2207 2.609 . S
C2205 C2203 1.400 . S
C2205 N2204 1.321 . S
C2205 H2212 0.930 . S
C2206 C2201 1.395 . S
C2206 C2203 1.386 . S
C2206 H2225 0.930 . S
Eu2207 N2204 2.609 . S
Eu2207 N2208 2.657 . S
Eu2207 O2241 2.380 . S
Eu2207 O2242 2.432 . S
Eu2207 O2246 2.558 . S
Eu2207 O2247 2.612 . S
Eu2207 O2249 2.339 . S
Eu2207 O2250 2.563 . S
Eu2207 O2251 2.419 . S
Eu2207 C2271 2.848 . S
N2208 C2200 1.362 . S
N2208 Eu2207 2.657 . S
N2208 C2209 1.334 . S
C2209 N2208 1.334 . S
C2209 C2211 1.413 . S
C2209 H2216 0.929 . S
C2210 C2198 1.392 . S
C2210 C2211 1.367 . S
C2210 H2218 0.930 . S
C2211 C2209 1.413 . S
C2211 C2210 1.367 . S
C2211 H2213 0.930 . S
H2212 C2205 0.930 . S
H2213 C2211 0.930 . S
H2214 C2202 0.930 . S
H2215 C2203 0.930 . S
H2216 C2209 0.929 . S
H2217 C2231 0.930 . S
H2218 C2210 0.930 . S
H2219 C2237 0.930 . S
H2220 C2228 0.929 . S
H2221 C2235 0.930 . S
H2222 C2199 0.931 . S
H2223 C2229 0.930 . S
H2224 C2262 0.930 . S
H2225 C2206 0.930 . S
H2226 C2261 0.931 . S
N2227 Eu2196 2.657 . S
N2227 C2228 1.334 . S
N2227 C2232 1.362 . S
C2228 H2220 0.929 . S
C2228 N2227 1.334 . S
C2228 C2231 1.413 . S
C2229 H2223 0.930 . S
C2229 C2230 1.392 . S
C2229 C2231 1.367 . S
C2230 C2229 1.392 . S
C2230 C2232 1.420 . S
C2230 C2262 1.423 . S
C2231 H2217 0.930 . S
C2231 C2228 1.413 . S
C2231 C2229 1.367 . S
C2232 N2227 1.362 . S
C2232 C2230 1.420 . S
C2232 C2236 1.429 . S
H2233 C2238 0.930 . S
N2234 Eu2196 2.609 . S
N2234 C2236 1.377 . S
N2234 C2237 1.321 . S
C2235 H2221 0.930 . S
C2235 C2237 1.400 . S
C2235 C2238 1.386 . S
C2236 C2232 1.429 . S
C2236 N2234 1.377 . S
C2236 C2239 1.411 . S
C2237 H2219 0.930 . S
C2237 N2234 1.321 . S
C2237 C2235 1.400 . S
C2238 H2233 0.930 . S
C2238 C2235 1.386 . S
C2238 C2239 1.395 . S
C2239 C2236 1.411 . S
C2239 C2238 1.395 . S
C2239 C2261 1.420 . S
O2240 Eu2196 2.558 . S
O2240 C2260 1.257 . S
O2241 Eu2196 2.612 . S
O2241 Eu2207 2.380 . S
O2241 C2252 1.276 . S
O2242 Eu2207 2.432 . S
O2242 C2259 1.264 . S
O2243 Eu2196 2.339 . S
O2243 C2259 1.254 . S
O2244 Eu2196 2.563 . S
O2244 C2252 1.235 . S
O2245 Eu2196 2.419 . S
O2245 C2260 1.249 . S
O2246 Eu2207 2.558 . S
O2246 C2271 1.257 . S
O2247 Eu2196 2.380 . S
O2247 Eu2207 2.612 . S
O2247 C2263 1.276 . S
O2248 Eu2196 2.432 . S
O2248 C2270 1.264 . S
O2249 Eu2207 2.339 . S
O2249 C2270 1.254 . S
O2250 Eu2207 2.563 . S
O2250 C2263 1.235 . S
O2251 Eu2207 2.419 . S
O2251 C2271 1.249 . S
C2252 O2241 1.276 . S
C2252 O2244 1.235 . S
C2253 C2255 1.393 . S
C2253 C2257 1.395 . S
C2253 C2260 1.492 . S
C2254 C2255 1.392 . S
C2254 C2256 1.386 . S
C2255 C2253 1.393 . S
C2255 C2254 1.392 . S
C2255 H2272 0.930 . S
C2256 C2254 1.386 . S
C2256 C2258 1.395 . S
C2256 H2273 0.930 . S
C2257 C2253 1.395 . S
C2257 C2258 1.379 . S
C2257 H2274 0.930 . S
C2258 C2256 1.395 . S
C2258 C2257 1.379 . S
C2258 H2275 0.930 . S
C2259 O2242 1.264 . S
C2259 O2243 1.254 . S
C2260 Eu2196 2.848 . S
C2260 O2240 1.257 . S
C2260 O2245 1.249 . S
C2260 C2253 1.492 . S
C2261 H2226 0.931 . S
C2261 C2239 1.420 . S
C2261 C2262 1.351 . S
C2262 H2224 0.930 . S
C2262 C2230 1.423 . S
C2262 C2261 1.351 . S
C2263 O2247 1.276 . S
C2263 O2250 1.235 . S
C2264 C2265 1.393 . S
C2264 C2268 1.395 . S
C2264 C2271 1.492 . S
C2265 C2264 1.393 . S
C2265 C2266 1.392 . S
C2265 H2276 0.930 . S
C2266 C2265 1.392 . S
C2266 C2267 1.386 . S
C2267 C2266 1.386 . S
C2267 C2269 1.395 . S
C2267 H2277 0.930 . S
C2268 C2264 1.395 . S
C2268 C2269 1.379 . S
C2268 H2278 0.930 . S
C2269 C2267 1.395 . S
C2269 C2268 1.379 . S
C2269 H2279 0.930 . S
C2270 O2248 1.264 . S
C2270 O2249 1.254 . S
C2271 Eu2207 2.848 . S
C2271 O2246 1.257 . S
C2271 O2251 1.249 . S
C2271 C2264 1.492 . S
H2272 C2255 0.930 . S
H2273 C2256 0.930 . S
H2274 C2257 0.930 . S
H2275 C2258 0.930 . S
H2276 C2265 0.930 . S
H2277 C2267 0.930 . S
H2278 C2268 0.930 . S
H2279 C2269 0.930 . S
Eu2280 N2311 2.657 . S
Eu2280 N2318 2.609 . S
Eu2280 O2324 2.558 . S
Eu2280 O2325 2.612 . S
Eu2280 O2327 2.339 . S
Eu2280 O2328 2.563 1_545 S
Eu2280 O2329 2.419 . S
Eu2280 O2331 2.380 . S
Eu2280 O2332 2.432 . S
Eu2280 C2344 2.848 . S
C2281 C2284 1.429 . S
C2281 C2285 1.411 . S
C2281 N2288 1.377 1_565 S
C2282 C2284 1.420 . S
C2282 C2286 1.423 . S
C2282 C2294 1.392 . S
C2283 C2285 1.420 . S
C2283 C2286 1.351 . S
C2283 H2306 0.931 . S
C2284 C2281 1.429 . S
C2284 C2282 1.420 . S
C2284 N2292 1.362 . S
C2285 C2281 1.411 . S
C2285 C2283 1.420 . S
C2285 C2290 1.395 . S
C2286 C2282 1.423 . S
C2286 C2283 1.351 . S
C2286 H2298 0.930 . S
C2287 C2289 1.400 . S
C2287 C2290 1.386 1_545 S
C2287 H2299 0.930 . S
N2288 C2281 1.377 1_545 S
N2288 C2289 1.321 . S
N2288 Eu2291 2.609 . S
C2289 C2287 1.400 . S
C2289 N2288 1.321 . S
C2289 H2296 0.930 . S
C2290 C2285 1.395 . S
C2290 C2287 1.386 1_565 S
C2290 H2309 0.930 . S
Eu2291 N2288 2.609 . S
Eu2291 N2292 2.657 1_545 S
Eu2291 O2325 2.380 . S
Eu2291 O2326 2.432 . S
Eu2291 O2330 2.558 . S
Eu2291 O2331 2.612 . S
Eu2291 O2333 2.339 . S
Eu2291 O2334 2.563 . S
Eu2291 O2335 2.419 . S
Eu2291 C2355 2.848 . S
N2292 C2284 1.362 . S
N2292 Eu2291 2.657 1_565 S
N2292 C2293 1.334 . S
C2293 N2292 1.334 . S
C2293 C2295 1.413 . S
C2293 H2300 0.929 . S
C2294 C2282 1.392 . S
C2294 C2295 1.367 . S
C2294 H2302 0.930 . S
C2295 C2293 1.413 . S
C2295 C2294 1.367 . S
C2295 H2297 0.930 . S
H2296 C2289 0.930 . S
H2297 C2295 0.930 . S
H2298 C2286 0.930 . S
H2299 C2287 0.930 . S
H2300 C2293 0.929 . S
H2301 C2315 0.930 . S
H2302 C2294 0.930 . S
H2303 C2321 0.930 . S
H2304 C2312 0.929 . S
H2305 C2319 0.930 . S
H2306 C2283 0.931 . S
H2307 C2313 0.930 . S
H2308 C2346 0.930 . S
H2309 C2290 0.930 . S
H2310 C2345 0.931 . S
N2311 Eu2280 2.657 . S
N2311 C2312 1.334 . S
N2311 C2316 1.362 . S
C2312 H2304 0.929 . S
C2312 N2311 1.334 . S
C2312 C2315 1.413 . S
C2313 H2307 0.930 . S
C2313 C2314 1.392 . S
C2313 C2315 1.367 . S
C2314 C2313 1.392 . S
C2314 C2316 1.420 . S
C2314 C2346 1.423 . S
C2315 H2301 0.930 . S
C2315 C2312 1.413 . S
C2315 C2313 1.367 . S
C2316 N2311 1.362 . S
C2316 C2314 1.420 . S
C2316 C2320 1.429 . S
H2317 C2322 0.930 . S
N2318 Eu2280 2.609 . S
N2318 C2320 1.377 . S
N2318 C2321 1.321 . S
C2319 H2305 0.930 . S
C2319 C2321 1.400 . S
C2319 C2322 1.386 . S
C2320 C2316 1.429 . S
C2320 N2318 1.377 . S
C2320 C2323 1.411 . S
C2321 H2303 0.930 . S
C2321 N2318 1.321 . S
C2321 C2319 1.400 . S
C2322 H2317 0.930 . S
C2322 C2319 1.386 . S
C2322 C2323 1.395 . S
C2323 C2320 1.411 . S
C2323 C2322 1.395 . S
C2323 C2345 1.420 . S
O2324 Eu2280 2.558 . S
O2324 C2344 1.257 . S
O2325 Eu2280 2.612 . S
O2325 Eu2291 2.380 . S
O2325 C2336 1.276 1_545 S
O2326 Eu2291 2.432 . S
O2326 C2343 1.264 . S
O2327 Eu2280 2.339 . S
O2327 C2343 1.254 . S
O2328 Eu2280 2.563 1_565 S
O2328 C2336 1.235 . S
O2329 Eu2280 2.419 . S
O2329 C2344 1.249 . S
O2330 Eu2291 2.558 . S
O2330 C2355 1.257 . S
O2331 Eu2280 2.380 . S
O2331 Eu2291 2.612 . S
O2331 C2347 1.276 . S
O2332 Eu2280 2.432 . S
O2332 C2354 1.264 . S
O2333 Eu2291 2.339 . S
O2333 C2354 1.254 . S
O2334 Eu2291 2.563 . S
O2334 C2347 1.235 . S
O2335 Eu2291 2.419 . S
O2335 C2355 1.249 . S
C2336 O2325 1.276 1_565 S
C2336 O2328 1.235 . S
C2337 C2339 1.393 1_545 S
C2337 C2341 1.395 . S
C2337 C2344 1.492 . S
C2338 C2339 1.392 . S
C2338 C2340 1.386 . S
C2339 C2337 1.393 1_565 S
C2339 C2338 1.392 . S
C2339 H2356 0.929 . S
C2340 C2338 1.386 . S
C2340 C2342 1.395 . S
C2340 H2357 0.930 . S
C2341 C2337 1.395 . S
C2341 C2342 1.379 1_545 S
C2341 H2358 0.930 . S
C2342 C2340 1.395 . S
C2342 C2341 1.379 1_565 S
C2342 H2359 0.930 . S
C2343 O2326 1.264 . S
C2343 O2327 1.254 . S
C2344 Eu2280 2.848 . S
C2344 O2324 1.257 . S
C2344 O2329 1.249 . S
C2344 C2337 1.492 . S
C2345 H2310 0.931 . S
C2345 C2323 1.420 . S
C2345 C2346 1.351 . S
C2346 H2308 0.930 . S
C2346 C2314 1.423 . S
C2346 C2345 1.351 . S
C2347 O2331 1.276 . S
C2347 O2334 1.235 . S
C2348 C2349 1.393 . S
C2348 C2352 1.395 . S
C2348 C2355 1.492 . S
C2349 C2348 1.393 . S
C2349 C2350 1.392 . S
C2349 H2360 0.930 . S
C2350 C2349 1.392 . S
C2350 C2351 1.386 . S
C2351 C2350 1.386 . S
C2351 C2353 1.395 . S
C2351 H2361 0.930 . S
C2352 C2348 1.395 . S
C2352 C2353 1.379 . S
C2352 H2362 0.930 . S
C2353 C2351 1.395 . S
C2353 C2352 1.379 . S
C2353 H2363 0.930 . S
C2354 O2332 1.264 . S
C2354 O2333 1.254 . S
C2355 Eu2291 2.848 . S
C2355 O2330 1.257 . S
C2355 O2335 1.249 . S
C2355 C2348 1.492 . S
H2356 C2339 0.929 . S
H2357 C2340 0.930 . S
H2358 C2341 0.930 . S
H2359 C2342 0.930 . S
H2360 C2349 0.930 . S
H2361 C2351 0.930 . S
H2362 C2352 0.930 . S
H2363 C2353 0.930 . S
Eu2364 N2395 2.657 . S
Eu2364 N2402 2.609 . S
Eu2364 O2408 2.558 . S
Eu2364 O2409 2.612 . S
Eu2364 O2411 2.339 . S
Eu2364 O2412 2.563 . S
Eu2364 O2413 2.419 . S
Eu2364 O2415 2.380 . S
Eu2364 O2416 2.432 . S
Eu2364 C2428 2.848 . S
C2365 C2368 1.429 . S
C2365 C2369 1.411 . S
C2365 N2372 1.377 . S
C2366 C2368 1.420 . S
C2366 C2370 1.423 . S
C2366 C2378 1.392 . S
C2367 C2369 1.420 . S
C2367 C2370 1.351 . S
C2367 H2390 0.931 . S
C2368 C2365 1.429 . S
C2368 C2366 1.420 . S
C2368 N2376 1.362 . S
C2369 C2365 1.411 . S
C2369 C2367 1.420 . S
C2369 C2374 1.395 . S
C2370 C2366 1.423 . S
C2370 C2367 1.351 . S
C2370 H2382 0.930 . S
C2371 C2373 1.400 . S
C2371 C2374 1.386 . S
C2371 H2383 0.930 . S
N2372 C2365 1.377 . S
N2372 C2373 1.321 . S
N2372 Eu2375 2.609 . S
C2373 C2371 1.400 . S
C2373 N2372 1.321 . S
C2373 H2380 0.930 . S
C2374 C2369 1.395 . S
C2374 C2371 1.386 . S
C2374 H2393 0.930 . S
Eu2375 N2372 2.609 . S
Eu2375 N2376 2.657 . S
Eu2375 O2409 2.380 . S
Eu2375 O2410 2.432 . S
Eu2375 O2414 2.558 . S
Eu2375 O2415 2.612 . S
Eu2375 O2417 2.339 . S
Eu2375 O2418 2.563 . S
Eu2375 O2419 2.419 . S
Eu2375 C2439 2.848 . S
N2376 C2368 1.362 . S
N2376 Eu2375 2.657 . S
N2376 C2377 1.334 . S
C2377 N2376 1.334 . S
C2377 C2379 1.413 . S
C2377 H2384 0.929 . S
C2378 C2366 1.392 . S
C2378 C2379 1.367 . S
C2378 H2386 0.930 . S
C2379 C2377 1.413 . S
C2379 C2378 1.367 . S
C2379 H2381 0.930 . S
H2380 C2373 0.930 . S
H2381 C2379 0.930 . S
H2382 C2370 0.930 . S
H2383 C2371 0.930 . S
H2384 C2377 0.929 . S
H2385 C2399 0.930 . S
H2386 C2378 0.930 . S
H2387 C2405 0.930 . S
H2388 C2396 0.929 . S
H2389 C2403 0.930 . S
H2390 C2367 0.931 . S
H2391 C2397 0.930 . S
H2392 C2430 0.930 . S
H2393 C2374 0.930 . S
H2394 C2429 0.931 . S
N2395 Eu2364 2.657 . S
N2395 C2396 1.334 . S
N2395 C2400 1.362 . S
C2396 H2388 0.929 . S
C2396 N2395 1.334 . S
C2396 C2399 1.413 . S
C2397 H2391 0.930 . S
C2397 C2398 1.392 . S
C2397 C2399 1.367 . S
C2398 C2397 1.392 . S
C2398 C2400 1.420 . S
C2398 C2430 1.423 . S
C2399 H2385 0.930 . S
C2399 C2396 1.413 . S
C2399 C2397 1.367 . S
C2400 N2395 1.362 . S
C2400 C2398 1.420 . S
C2400 C2404 1.429 . S
H2401 C2406 0.930 . S
N2402 Eu2364 2.609 . S
N2402 C2404 1.377 . S
N2402 C2405 1.321 . S
C2403 H2389 0.930 . S
C2403 C2405 1.400 . S
C2403 C2406 1.386 . S
C2404 C2400 1.429 . S
C2404 N2402 1.377 . S
C2404 C2407 1.411 . S
C2405 H2387 0.930 . S
C2405 N2402 1.321 . S
C2405 C2403 1.400 . S
C2406 H2401 0.930 . S
C2406 C2403 1.386 . S
C2406 C2407 1.395 . S
C2407 C2404 1.411 . S
C2407 C2406 1.395 . S
C2407 C2429 1.420 . S
O2408 Eu2364 2.558 . S
O2408 C2428 1.257 . S
O2409 Eu2364 2.612 . S
O2409 Eu2375 2.380 . S
O2409 C2420 1.276 . S
O2410 Eu2375 2.432 . S
O2410 C2427 1.264 . S
O2411 Eu2364 2.339 . S
O2411 C2427 1.254 . S
O2412 Eu2364 2.563 . S
O2412 C2420 1.235 . S
O2413 Eu2364 2.419 . S
O2413 C2428 1.249 . S
O2414 Eu2375 2.558 . S
O2414 C2439 1.257 . S
O2415 Eu2364 2.380 . S
O2415 Eu2375 2.612 . S
O2415 C2431 1.276 . S
O2416 Eu2364 2.432 . S
O2416 C2438 1.264 . S
O2417 Eu2375 2.339 . S
O2417 C2438 1.254 . S
O2418 Eu2375 2.563 . S
O2418 C2431 1.235 . S
O2419 Eu2375 2.419 . S
O2419 C2439 1.249 . S
C2420 O2409 1.276 . S
C2420 O2412 1.235 . S
C2421 C2423 1.393 . S
C2421 C2425 1.395 . S
C2421 C2428 1.492 . S
C2422 C2423 1.392 . S
C2422 C2424 1.386 . S
C2423 C2421 1.393 . S
C2423 C2422 1.392 . S
C2423 H2440 0.930 . S
C2424 C2422 1.386 . S
C2424 C2426 1.395 . S
C2424 H2441 0.930 . S
C2425 C2421 1.395 . S
C2425 C2426 1.379 . S
C2425 H2442 0.930 . S
C2426 C2424 1.395 . S
C2426 C2425 1.379 . S
C2426 H2443 0.930 . S
C2427 O2410 1.264 . S
C2427 O2411 1.254 . S
C2428 Eu2364 2.848 . S
C2428 O2408 1.257 . S
C2428 O2413 1.249 . S
C2428 C2421 1.492 . S
C2429 H2394 0.931 . S
C2429 C2407 1.420 . S
C2429 C2430 1.351 . S
C2430 H2392 0.930 . S
C2430 C2398 1.423 . S
C2430 C2429 1.351 . S
C2431 O2415 1.276 . S
C2431 O2418 1.235 . S
C2432 C2433 1.393 . S
C2432 C2436 1.395 . S
C2432 C2439 1.492 . S
C2433 C2432 1.393 . S
C2433 C2434 1.392 . S
C2433 H2444 0.930 . S
C2434 C2433 1.392 . S
C2434 C2435 1.386 . S
C2435 C2434 1.386 . S
C2435 C2437 1.395 . S
C2435 H2445 0.930 . S
C2436 C2432 1.395 . S
C2436 C2437 1.379 . S
C2436 H2446 0.930 . S
C2437 C2435 1.395 . S
C2437 C2436 1.379 . S
C2437 H2447 0.930 . S
C2438 O2416 1.264 . S
C2438 O2417 1.254 . S
C2439 Eu2375 2.848 . S
C2439 O2414 1.257 . S
C2439 O2419 1.249 . S
C2439 C2432 1.492 . S
H2440 C2423 0.930 . S
H2441 C2424 0.930 . S
H2442 C2425 0.930 . S
H2443 C2426 0.930 . S
H2444 C2433 0.930 . S
H2445 C2435 0.930 . S
H2446 C2436 0.930 . S
H2447 C2437 0.930 . S
Eu2448 N2479 2.657 . S
Eu2448 N2486 2.609 . S
Eu2448 O2492 2.558 . S
Eu2448 O2493 2.612 . S
Eu2448 O2495 2.339 . S
Eu2448 O2496 2.563 . S
Eu2448 O2497 2.419 . S
Eu2448 O2499 2.380 . S
Eu2448 O2500 2.432 . S
Eu2448 C2512 2.848 . S
C2449 C2452 1.429 . S
C2449 C2453 1.411 . S
C2449 N2456 1.377 . S
C2450 C2452 1.420 . S
C2450 C2454 1.423 . S
C2450 C2462 1.392 . S
C2451 C2453 1.420 . S
C2451 C2454 1.351 . S
C2451 H2474 0.931 . S
C2452 C2449 1.429 . S
C2452 C2450 1.420 . S
C2452 N2460 1.362 . S
C2453 C2449 1.411 . S
C2453 C2451 1.420 . S
C2453 C2458 1.395 . S
C2454 C2450 1.423 . S
C2454 C2451 1.351 . S
C2454 H2466 0.930 . S
C2455 C2457 1.400 . S
C2455 C2458 1.386 . S
C2455 H2467 0.930 . S
N2456 C2449 1.377 . S
N2456 C2457 1.321 . S
N2456 Eu2459 2.609 1_565 S
C2457 C2455 1.400 . S
C2457 N2456 1.321 . S
C2457 H2464 0.930 1_565 S
C2458 C2453 1.395 . S
C2458 C2455 1.386 . S
C2458 H2477 0.930 . S
Eu2459 N2456 2.609 1_545 S
Eu2459 N2460 2.657 1_545 S
Eu2459 O2493 2.380 . S
Eu2459 O2494 2.432 . S
Eu2459 O2498 2.558 1_545 S
Eu2459 O2499 2.612 . S
Eu2459 O2501 2.339 . S
Eu2459 O2502 2.563 . S
Eu2459 O2503 2.419 1_545 S
Eu2459 C2523 2.848 1_545 S
N2460 C2452 1.362 . S
N2460 Eu2459 2.657 1_565 S
N2460 C2461 1.334 . S
C2461 N2460 1.334 . S
C2461 C2463 1.413 . S
C2461 H2468 0.929 . S
C2462 C2450 1.392 . S
C2462 C2463 1.367 . S
C2462 H2470 0.930 . S
C2463 C2461 1.413 . S
C2463 C2462 1.367 . S
C2463 H2465 0.930 1_455 S
H2464 C2457 0.930 1_545 S
H2465 C2463 0.930 1_655 S
H2466 C2454 0.930 . S
H2467 C2455 0.930 . S
H2468 C2461 0.929 . S
H2469 C2483 0.930 . S
H2470 C2462 0.930 . S
H2471 C2489 0.930 . S
H2472 C2480 0.929 . S
H2473 C2487 0.896 1_655 S
H2474 C2451 0.931 . S
H2475 C2481 0.930 . S
H2476 C2514 0.930 . S
H2477 C2458 0.930 . S
H2478 C2513 0.931 . S
N2479 Eu2448 2.657 . S
N2479 C2480 1.334 . S
N2479 C2484 1.362 . S
C2480 H2472 0.929 . S
C2480 N2479 1.334 . S
C2480 C2483 1.413 . S
C2481 H2475 0.930 . S
C2481 C2482 1.392 . S
C2481 C2483 1.367 . S
C2482 C2481 1.392 . S
C2482 C2484 1.420 . S
C2482 C2514 1.423 . S
C2483 H2469 0.930 . S
C2483 C2480 1.413 . S
C2483 C2481 1.367 . S
C2484 N2479 1.362 . S
C2484 C2482 1.420 . S
C2484 C2488 1.429 . S
H2485 C2490 0.930 . S
N2486 Eu2448 2.609 . S
N2486 C2488 1.377 . S
N2486 C2489 1.321 . S
C2487 H2473 0.896 1_455 S
C2487 C2489 1.421 . S
C2487 C2490 1.399 . S
C2488 C2484 1.429 . S
C2488 N2486 1.377 . S
C2488 C2491 1.411 . S
C2489 H2471 0.930 . S
C2489 N2486 1.321 . S
C2489 C2487 1.421 . S
C2490 H2485 0.930 . S
C2490 C2487 1.399 . S
C2490 C2491 1.395 . S
C2491 C2488 1.411 . S
C2491 C2490 1.395 . S
C2491 C2513 1.420 . S
O2492 Eu2448 2.558 . S
O2492 C2512 1.257 . S
O2493 Eu2448 2.612 . S
O2493 Eu2459 2.380 . S
O2493 C2504 1.276 . S
O2494 Eu2459 2.432 . S
O2494 C2511 1.264 . S
O2495 Eu2448 2.339 . S
O2495 C2511 1.254 . S
O2496 Eu2448 2.563 . S
O2496 C2504 1.235 . S
O2497 Eu2448 2.419 . S
O2497 C2512 1.249 . S
O2498 Eu2459 2.558 1_565 S
O2498 C2523 1.257 . S
O2499 Eu2448 2.380 . S
O2499 Eu2459 2.612 . S
O2499 C2515 1.276 . S
O2500 Eu2448 2.432 . S
O2500 C2522 1.264 . S
O2501 Eu2459 2.339 . S
O2501 C2522 1.254 . S
O2502 Eu2459 2.563 . S
O2502 C2515 1.235 . S
O2503 Eu2459 2.419 1_565 S
O2503 C2523 1.249 . S
C2504 O2493 1.276 . S
C2504 O2496 1.235 . S
C2505 C2507 1.393 . S
C2505 C2509 1.395 . S
C2505 C2512 1.492 . S
C2506 C2507 1.392 . S
C2506 C2508 1.386 . S
C2507 C2505 1.393 . S
C2507 C2506 1.392 . S
C2507 H2524 0.930 . S
C2508 C2506 1.386 . S
C2508 C2510 1.395 . S
C2508 H2525 0.930 . S
C2509 C2505 1.395 . S
C2509 C2510 1.379 . S
C2509 H2526 0.930 . S
C2510 C2508 1.395 . S
C2510 C2509 1.379 . S
C2510 H2527 0.930 . S
C2511 O2494 1.264 . S
C2511 O2495 1.254 . S
C2512 Eu2448 2.848 . S
C2512 O2492 1.257 . S
C2512 O2497 1.249 . S
C2512 C2505 1.492 . S
C2513 H2478 0.931 . S
C2513 C2491 1.420 . S
C2513 C2514 1.351 . S
C2514 H2476 0.930 . S
C2514 C2482 1.423 . S
C2514 C2513 1.351 . S
C2515 O2499 1.276 . S
C2515 O2502 1.235 . S
C2516 C2517 1.393 . S
C2516 C2520 1.395 . S
C2516 C2523 1.492 . S
C2517 C2516 1.393 . S
C2517 C2518 1.392 . S
C2517 H2528 0.930 . S
C2518 C2517 1.392 . S
C2518 C2519 1.386 . S
C2519 C2518 1.386 . S
C2519 C2521 1.395 . S
C2519 H2529 0.930 . S
C2520 C2516 1.395 . S
C2520 C2521 1.379 . S
C2520 H2530 0.930 . S
C2521 C2519 1.395 . S
C2521 C2520 1.379 . S
C2521 H2531 0.930 . S
C2522 O2500 1.264 . S
C2522 O2501 1.254 . S
C2523 Eu2459 2.848 1_565 S
C2523 O2498 1.257 . S
C2523 O2503 1.249 . S
C2523 C2516 1.492 . S
H2524 C2507 0.930 . S
H2525 C2508 0.930 . S
H2526 C2509 0.930 . S
H2527 C2510 0.930 . S
H2528 C2517 0.930 . S
H2529 C2519 0.930 . S
H2530 C2520 0.930 . S
H2531 C2521 0.930 . S
Eu2532 N2563 2.657 . S
Eu2532 N2570 2.609 . S
Eu2532 O2576 2.558 . S
Eu2532 O2577 2.612 . S
Eu2532 O2579 2.339 . S
Eu2532 O2580 2.563 . S
Eu2532 O2581 2.419 . S
Eu2532 O2583 2.380 . S
Eu2532 O2584 2.432 . S
Eu2532 C2596 2.848 . S
C2533 C2536 1.429 . S
C2533 C2537 1.411 . S
C2533 N2540 1.377 . S
C2534 C2536 1.420 . S
C2534 C2538 1.423 . S
C2534 C2546 1.392 . S
C2535 C2537 1.420 . S
C2535 C2538 1.351 . S
C2535 H2558 0.931 . S
C2536 C2533 1.429 . S
C2536 C2534 1.420 . S
C2536 N2544 1.362 . S
C2537 C2533 1.411 . S
C2537 C2535 1.420 . S
C2537 C2542 1.395 . S
C2538 C2534 1.423 . S
C2538 C2535 1.351 . S
C2538 H2550 0.930 . S
C2539 C2541 1.400 . S
C2539 C2542 1.386 . S
C2539 H2551 0.930 . S
N2540 C2533 1.377 . S
N2540 C2541 1.321 . S
N2540 Eu2543 2.609 . S
C2541 C2539 1.400 . S
C2541 N2540 1.321 . S
C2541 H2548 0.930 . S
C2542 C2537 1.395 . S
C2542 C2539 1.386 . S
C2542 H2561 0.930 . S
Eu2543 N2540 2.609 . S
Eu2543 N2544 2.657 . S
Eu2543 O2577 2.380 . S
Eu2543 O2578 2.432 . S
Eu2543 O2582 2.558 . S
Eu2543 O2583 2.612 . S
Eu2543 O2585 2.339 . S
Eu2543 O2586 2.563 . S
Eu2543 O2587 2.419 . S
Eu2543 C2607 2.848 . S
N2544 C2536 1.362 . S
N2544 Eu2543 2.657 . S
N2544 C2545 1.334 . S
C2545 N2544 1.334 . S
C2545 C2547 1.413 . S
C2545 H2552 0.929 . S
C2546 C2534 1.392 . S
C2546 C2547 1.367 . S
C2546 H2554 0.930 . S
C2547 C2545 1.413 . S
C2547 C2546 1.367 . S
C2547 H2549 0.930 . S
H2548 C2541 0.930 . S
H2549 C2547 0.930 . S
H2550 C2538 0.930 . S
H2551 C2539 0.930 . S
H2552 C2545 0.929 . S
H2553 C2567 0.930 . S
H2554 C2546 0.930 . S
H2555 C2573 0.930 . S
H2556 C2564 0.929 . S
H2557 C2571 0.930 . S
H2558 C2535 0.931 . S
H2559 C2565 0.930 . S
H2560 C2598 0.930 . S
H2561 C2542 0.930 . S
H2562 C2597 0.931 . S
N2563 Eu2532 2.657 . S
N2563 C2564 1.334 . S
N2563 C2568 1.362 . S
C2564 H2556 0.929 . S
C2564 N2563 1.334 . S
C2564 C2567 1.413 . S
C2565 H2559 0.930 . S
C2565 C2566 1.392 . S
C2565 C2567 1.367 . S
C2566 C2565 1.392 . S
C2566 C2568 1.420 . S
C2566 C2598 1.423 . S
C2567 H2553 0.930 . S
C2567 C2564 1.413 . S
C2567 C2565 1.367 . S
C2568 N2563 1.362 . S
C2568 C2566 1.420 . S
C2568 C2572 1.429 . S
H2569 C2574 0.930 . S
N2570 Eu2532 2.609 . S
N2570 C2572 1.377 . S
N2570 C2573 1.321 . S
C2571 H2557 0.930 . S
C2571 C2573 1.400 . S
C2571 C2574 1.386 . S
C2572 C2568 1.429 . S
C2572 N2570 1.377 . S
C2572 C2575 1.411 . S
C2573 H2555 0.930 . S
C2573 N2570 1.321 . S
C2573 C2571 1.400 . S
C2574 H2569 0.930 . S
C2574 C2571 1.386 . S
C2574 C2575 1.395 . S
C2575 C2572 1.411 . S
C2575 C2574 1.395 . S
C2575 C2597 1.420 . S
O2576 Eu2532 2.558 . S
O2576 C2596 1.257 . S
O2577 Eu2532 2.612 . S
O2577 Eu2543 2.380 . S
O2577 C2588 1.276 . S
O2578 Eu2543 2.432 . S
O2578 C2595 1.264 . S
O2579 Eu2532 2.339 . S
O2579 C2595 1.254 . S
O2580 Eu2532 2.563 . S
O2580 C2588 1.235 . S
O2581 Eu2532 2.419 . S
O2581 C2596 1.249 . S
O2582 Eu2543 2.558 . S
O2582 C2607 1.257 . S
O2583 Eu2532 2.380 . S
O2583 Eu2543 2.612 . S
O2583 C2599 1.276 . S
O2584 Eu2532 2.432 . S
O2584 C2606 1.264 . S
O2585 Eu2543 2.339 . S
O2585 C2606 1.254 . S
O2586 Eu2543 2.563 . S
O2586 C2599 1.235 . S
O2587 Eu2543 2.419 . S
O2587 C2607 1.249 . S
C2588 O2577 1.276 . S
C2588 O2580 1.235 . S
C2589 C2591 1.393 . S
C2589 C2593 1.395 . S
C2589 C2596 1.492 . S
C2590 C2591 1.392 . S
C2590 C2592 1.386 . S
C2591 C2589 1.393 . S
C2591 C2590 1.392 . S
C2591 H2608 0.930 . S
C2592 C2590 1.386 . S
C2592 C2594 1.395 . S
C2592 H2609 0.930 . S
C2593 C2589 1.395 . S
C2593 C2594 1.379 . S
C2593 H2610 0.930 . S
C2594 C2592 1.395 . S
C2594 C2593 1.379 . S
C2594 H2611 0.930 . S
C2595 O2578 1.264 . S
C2595 O2579 1.254 . S
C2596 Eu2532 2.848 . S
C2596 O2576 1.257 . S
C2596 O2581 1.249 . S
C2596 C2589 1.492 . S
C2597 H2562 0.931 . S
C2597 C2575 1.420 . S
C2597 C2598 1.351 . S
C2598 H2560 0.930 . S
C2598 C2566 1.423 . S
C2598 C2597 1.351 . S
C2599 O2583 1.276 . S
C2599 O2586 1.235 . S
C2600 C2601 1.393 . S
C2600 C2604 1.395 . S
C2600 C2607 1.492 . S
C2601 C2600 1.393 . S
C2601 C2602 1.392 . S
C2601 H2612 0.930 . S
C2602 C2601 1.392 . S
C2602 C2603 1.386 . S
C2603 C2602 1.386 . S
C2603 C2605 1.395 . S
C2603 H2613 0.930 . S
C2604 C2600 1.395 . S
C2604 C2605 1.379 . S
C2604 H2614 0.930 . S
C2605 C2603 1.395 . S
C2605 C2604 1.379 . S
C2605 H2615 0.930 . S
C2606 O2584 1.264 . S
C2606 O2585 1.254 . S
C2607 Eu2543 2.848 . S
C2607 O2582 1.257 . S
C2607 O2587 1.249 . S
C2607 C2600 1.492 . S
H2608 C2591 0.930 . S
H2609 C2592 0.930 . S
H2610 C2593 0.930 . S
H2611 C2594 0.930 . S
H2612 C2601 0.930 . S
H2613 C2603 0.930 . S
H2614 C2604 0.930 . S
H2615 C2605 0.930 . S
Eu2616 N2647 2.657 . S
Eu2616 N2654 2.609 . S
Eu2616 O2660 2.558 1_545 S
Eu2616 O2661 2.612 . S
Eu2616 O2663 2.339 . S
Eu2616 O2664 2.563 . S
Eu2616 O2665 2.419 . S
Eu2616 O2667 2.380 . S
Eu2616 O2668 2.432 1_545 S
Eu2616 C2680 2.848 . S
C2617 C2620 1.429 . S
C2617 C2621 1.411 . S
C2617 N2624 1.377 . S
C2618 C2620 1.420 . S
C2618 C2622 1.423 . S
C2618 C2630 1.392 1_545 S
C2619 C2621 1.420 . S
C2619 C2622 1.351 . S
C2619 H2642 0.931 . S
C2620 C2617 1.429 . S
C2620 C2618 1.420 . S
C2620 N2628 1.362 . S
C2621 C2617 1.411 . S
C2621 C2619 1.420 . S
C2621 C2626 1.395 . S
C2622 C2618 1.423 . S
C2622 C2619 1.351 . S
C2622 H2634 0.930 . S
C2623 C2625 1.400 . S
C2623 C2626 1.386 . S
C2623 H2635 0.930 . S
N2624 C2617 1.377 . S
N2624 C2625 1.321 . S
N2624 Eu2627 2.609 . S
C2625 C2623 1.400 . S
C2625 N2624 1.321 . S
C2625 H2632 0.930 . S
C2626 C2621 1.395 . S
C2626 C2623 1.386 . S
C2626 H2645 0.930 . S
Eu2627 N2624 2.609 . S
Eu2627 N2628 2.657 . S
Eu2627 O2661 2.380 1_556 S
Eu2627 O2662 2.432 1_556 S
Eu2627 O2666 2.558 . S
Eu2627 O2667 2.612 1_556 S
Eu2627 O2669 2.339 . S
Eu2627 O2670 2.563 . S
Eu2627 O2671 2.419 . S
Eu2627 C2691 2.848 . S
N2628 C2620 1.362 . S
N2628 Eu2627 2.657 . S
N2628 C2629 1.334 1_545 S
C2629 N2628 1.334 1_565 S
C2629 C2631 1.413 . S
C2629 H2636 0.929 . S
C2630 C2618 1.392 1_565 S
C2630 C2631 1.367 . S
C2630 H2638 0.930 . S
C2631 C2629 1.413 . S
C2631 C2630 1.367 . S
C2631 H2633 0.930 . S
H2632 C2625 0.930 . S
H2633 C2631 0.930 . S
H2634 C2622 0.930 . S
H2635 C2623 0.930 . S
H2636 C2629 0.929 . S
H2637 C2651 0.930 . S
H2638 C2630 0.930 . S
H2639 C2657 0.930 . S
H2640 C2648 0.929 . S
H2641 C2655 0.930 . S
H2642 C2619 0.931 . S
H2643 C2649 0.930 . S
H2644 C2682 0.930 . S
H2645 C2626 0.930 . S
H2646 C2681 0.931 . S
N2647 Eu2616 2.657 . S
N2647 C2648 1.334 . S
N2647 C2652 1.362 . S
C2648 H2640 0.929 . S
C2648 N2647 1.334 . S
C2648 C2651 1.413 . S
C2649 H2643 0.930 . S
C2649 C2650 1.392 . S
C2649 C2651 1.367 . S
C2650 C2649 1.392 . S
C2650 C2652 1.420 . S
C2650 C2682 1.423 . S
C2651 H2637 0.930 . S
C2651 C2648 1.413 . S
C2651 C2649 1.367 . S
C2652 N2647 1.362 . S
C2652 C2650 1.420 . S
C2652 C2656 1.429 . S
H2653 C2658 0.930 . S
N2654 Eu2616 2.609 . S
N2654 C2656 1.377 . S
N2654 C2657 1.321 1_545 S
C2655 H2641 0.930 . S
C2655 C2657 1.400 . S
C2655 C2658 1.386 . S
C2656 C2652 1.429 . S
C2656 N2654 1.377 . S
C2656 C2659 1.411 . S
C2657 H2639 0.930 . S
C2657 N2654 1.321 1_565 S
C2657 C2655 1.400 . S
C2658 H2653 0.930 . S
C2658 C2655 1.386 . S
C2658 C2659 1.395 1_565 S
C2659 C2656 1.411 . S
C2659 C2658 1.395 1_545 S
C2659 C2681 1.420 . S
O2660 Eu2616 2.558 1_565 S
O2660 C2680 1.257 1_565 S
O2661 Eu2616 2.612 . S
O2661 Eu2627 2.380 1_554 S
O2661 C2672 1.276 . S
O2662 Eu2627 2.432 1_554 S
O2662 C2679 1.264 . S
O2663 Eu2616 2.339 . S
O2663 C2679 1.254 . S
O2664 Eu2616 2.563 . S
O2664 C2672 1.235 . S
O2665 Eu2616 2.419 . S
O2665 C2680 1.249 . S
O2666 Eu2627 2.558 . S
O2666 C2691 1.257 . S
O2667 Eu2616 2.380 . S
O2667 Eu2627 2.612 1_554 S
O2667 C2683 1.276 . S
O2668 Eu2616 2.432 1_565 S
O2668 C2690 1.264 1_554 S
O2669 Eu2627 2.339 . S
O2669 C2690 1.254 1_545 S
O2670 Eu2627 2.563 . S
O2670 C2683 1.235 1_556 S
O2671 Eu2627 2.419 . S
O2671 C2691 1.249 . S
C2672 O2661 1.276 . S
C2672 O2664 1.235 . S
C2673 C2675 1.393 . S
C2673 C2677 1.395 1_545 S
C2673 C2680 1.492 . S
C2674 C2675 1.392 . S
C2674 C2676 1.386 1_545 S
C2675 C2673 1.393 . S
C2675 C2674 1.392 . S
C2675 H2692 0.930 . S
C2676 C2674 1.386 1_565 S
C2676 C2678 1.395 . S
C2676 H2693 0.930 . S
C2677 C2673 1.395 1_565 S
C2677 C2678 1.379 . S
C2677 H2694 0.930 . S
C2678 C2676 1.395 . S
C2678 C2677 1.379 . S
C2678 H2695 0.930 . S
C2679 O2662 1.264 . S
C2679 O2663 1.254 . S
C2680 Eu2616 2.848 . S
C2680 O2660 1.257 1_545 S
C2680 O2665 1.249 . S
C2680 C2673 1.492 . S
C2681 H2646 0.931 . S
C2681 C2659 1.420 . S
C2681 C2682 1.351 . S
C2682 H2644 0.930 . S
C2682 C2650 1.423 . S
C2682 C2681 1.351 . S
C2683 O2667 1.276 . S
C2683 O2670 1.235 1_554 S
C2684 C2685 1.393 . S
C2684 C2688 1.395 . S
C2684 C2691 1.492 . S
C2685 C2684 1.393 . S
C2685 C2686 1.392 . S
C2685 H2696 0.930 . S
C2686 C2685 1.392 . S
C2686 C2687 1.386 . S
C2687 C2686 1.386 . S
C2687 C2689 1.395 . S
C2687 H2697 0.930 . S
C2688 C2684 1.395 . S
C2688 C2689 1.379 . S
C2688 H2698 0.930 . S
C2689 C2687 1.395 . S
C2689 C2688 1.379 . S
C2689 H2699 0.930 . S
C2690 O2668 1.264 1_556 S
C2690 O2669 1.254 1_565 S
C2691 Eu2627 2.848 . S
C2691 O2666 1.257 . S
C2691 O2671 1.249 . S
C2691 C2684 1.492 . S
H2692 C2675 0.930 . S
H2693 C2676 0.930 . S
H2694 C2677 0.930 . S
H2695 C2678 0.930 . S
H2696 C2685 0.930 . S
H2697 C2687 0.930 . S
H2698 C2688 0.930 . S
H2699 C2689 0.930 . S
Eu2700 N2731 2.657 . S
Eu2700 N2738 2.609 . S
Eu2700 O2744 2.558 . S
Eu2700 O2745 2.612 . S
Eu2700 O2747 2.339 . S
Eu2700 O2748 2.563 . S
Eu2700 O2749 2.419 . S
Eu2700 O2751 2.380 . S
Eu2700 O2752 2.432 . S
Eu2700 C2764 2.848 . S
C2701 C2704 1.429 . S
C2701 C2705 1.411 . S
C2701 N2708 1.377 . S
C2702 C2704 1.420 . S
C2702 C2706 1.423 . S
C2702 C2714 1.392 . S
C2703 C2705 1.420 . S
C2703 C2706 1.351 . S
C2703 H2726 0.931 . S
C2704 C2701 1.429 . S
C2704 C2702 1.420 . S
C2704 N2712 1.362 . S
C2705 C2701 1.411 . S
C2705 C2703 1.420 . S
C2705 C2710 1.395 . S
C2706 C2702 1.423 . S
C2706 C2703 1.351 . S
C2706 H2718 0.930 . S
C2707 C2709 1.400 . S
C2707 C2710 1.386 . S
C2707 H2719 0.930 . S
N2708 C2701 1.377 . S
N2708 C2709 1.321 . S
N2708 Eu2711 2.609 . S
C2709 C2707 1.400 . S
C2709 N2708 1.321 . S
C2709 H2716 0.930 . S
C2710 C2705 1.395 . S
C2710 C2707 1.386 . S
C2710 H2729 0.930 . S
Eu2711 N2708 2.609 . S
Eu2711 N2712 2.657 . S
Eu2711 O2745 2.380 . S
Eu2711 O2746 2.432 . S
Eu2711 O2750 2.558 . S
Eu2711 O2751 2.612 . S
Eu2711 O2753 2.339 . S
Eu2711 O2754 2.563 . S
Eu2711 O2755 2.419 . S
Eu2711 C2775 2.848 . S
N2712 C2704 1.362 . S
N2712 Eu2711 2.657 . S
N2712 C2713 1.334 . S
C2713 N2712 1.334 . S
C2713 C2715 1.413 . S
C2713 H2720 0.929 . S
C2714 C2702 1.392 . S
C2714 C2715 1.367 . S
C2714 H2722 0.930 . S
C2715 C2713 1.413 . S
C2715 C2714 1.367 . S
C2715 H2717 0.930 . S
H2716 C2709 0.930 . S
H2717 C2715 0.930 . S
H2718 C2706 0.930 . S
H2719 C2707 0.930 . S
H2720 C2713 0.929 . S
H2721 C2735 0.930 . S
H2722 C2714 0.930 . S
H2723 C2741 0.930 . S
H2724 C2732 0.929 . S
H2725 C2739 0.930 . S
H2726 C2703 0.931 . S
H2727 C2733 0.930 . S
H2728 C2766 0.930 . S
H2729 C2710 0.930 . S
H2730 C2765 0.931 . S
N2731 Eu2700 2.657 . S
N2731 C2732 1.334 . S
N2731 C2736 1.362 . S
C2732 H2724 0.929 . S
C2732 N2731 1.334 . S
C2732 C2735 1.413 . S
C2733 H2727 0.930 . S
C2733 C2734 1.392 . S
C2733 C2735 1.367 . S
C2734 C2733 1.392 . S
C2734 C2736 1.420 . S
C2734 C2766 1.423 . S
C2735 H2721 0.930 . S
C2735 C2732 1.413 . S
C2735 C2733 1.367 . S
C2736 N2731 1.362 . S
C2736 C2734 1.420 . S
C2736 C2740 1.429 . S
H2737 C2742 0.930 . S
N2738 Eu2700 2.609 . S
N2738 C2740 1.377 . S
N2738 C2741 1.321 . S
C2739 H2725 0.930 . S
C2739 C2741 1.400 . S
C2739 C2742 1.386 . S
C2740 C2736 1.429 . S
C2740 N2738 1.377 . S
C2740 C2743 1.411 . S
C2741 H2723 0.930 . S
C2741 N2738 1.321 . S
C2741 C2739 1.400 . S
C2742 H2737 0.930 . S
C2742 C2739 1.386 . S
C2742 C2743 1.395 . S
C2743 C2740 1.411 . S
C2743 C2742 1.395 . S
C2743 C2765 1.420 . S
O2744 Eu2700 2.558 . S
O2744 C2764 1.257 . S
O2745 Eu2700 2.612 . S
O2745 Eu2711 2.380 . S
O2745 C2756 1.276 . S
O2746 Eu2711 2.432 . S
O2746 C2763 1.264 . S
O2747 Eu2700 2.339 . S
O2747 C2763 1.254 . S
O2748 Eu2700 2.563 . S
O2748 C2756 1.235 . S
O2749 Eu2700 2.419 . S
O2749 C2764 1.249 . S
O2750 Eu2711 2.558 . S
O2750 C2775 1.257 . S
O2751 Eu2700 2.380 . S
O2751 Eu2711 2.612 . S
O2751 C2767 1.276 . S
O2752 Eu2700 2.432 . S
O2752 C2774 1.264 . S
O2753 Eu2711 2.339 . S
O2753 C2774 1.254 . S
O2754 Eu2711 2.563 . S
O2754 C2767 1.235 . S
O2755 Eu2711 2.419 . S
O2755 C2775 1.249 . S
C2756 O2745 1.276 . S
C2756 O2748 1.235 . S
C2757 C2759 1.393 . S
C2757 C2761 1.395 . S
C2757 C2764 1.492 . S
C2758 C2759 1.392 . S
C2758 C2760 1.386 . S
C2759 C2757 1.393 . S
C2759 C2758 1.392 . S
C2759 H2776 0.930 . S
C2760 C2758 1.386 . S
C2760 C2762 1.395 . S
C2760 H2777 0.930 . S
C2761 C2757 1.395 . S
C2761 C2762 1.379 . S
C2761 H2778 0.930 . S
C2762 C2760 1.395 . S
C2762 C2761 1.379 . S
C2762 H2779 0.930 . S
C2763 O2746 1.264 . S
C2763 O2747 1.254 . S
C2764 Eu2700 2.848 . S
C2764 O2744 1.257 . S
C2764 O2749 1.249 . S
C2764 C2757 1.492 . S
C2765 H2730 0.931 . S
C2765 C2743 1.420 . S
C2765 C2766 1.351 . S
C2766 H2728 0.930 . S
C2766 C2734 1.423 . S
C2766 C2765 1.351 . S
C2767 O2751 1.276 . S
C2767 O2754 1.235 . S
C2768 C2769 1.393 . S
C2768 C2772 1.395 . S
C2768 C2775 1.492 . S
C2769 C2768 1.393 . S
C2769 C2770 1.392 . S
C2769 H2780 0.930 . S
C2770 C2769 1.392 . S
C2770 C2771 1.386 . S
C2771 C2770 1.386 . S
C2771 C2773 1.395 . S
C2771 H2781 0.930 . S
C2772 C2768 1.395 . S
C2772 C2773 1.379 . S
C2772 H2782 0.930 . S
C2773 C2771 1.395 . S
C2773 C2772 1.379 . S
C2773 H2783 0.930 . S
C2774 O2752 1.264 . S
C2774 O2753 1.254 . S
C2775 Eu2711 2.848 . S
C2775 O2750 1.257 . S
C2775 O2755 1.249 . S
C2775 C2768 1.492 . S
H2776 C2759 0.930 . S
H2777 C2760 0.930 . S
H2778 C2761 0.930 . S
H2779 C2762 0.930 . S
H2780 C2769 0.930 . S
H2781 C2771 0.930 . S
H2782 C2772 0.930 . S
H2783 C2773 0.930 . S
Eu2784 N2815 2.657 . S
Eu2784 N2822 2.609 . S
Eu2784 O2828 2.558 . S
Eu2784 O2829 2.612 1_554 S
Eu2784 O2831 2.339 . S
Eu2784 O2832 2.563 1_554 S
Eu2784 O2833 2.419 . S
Eu2784 O2835 2.380 . S
Eu2784 O2836 2.432 . S
Eu2784 C2848 2.848 . S
C2785 C2788 1.429 . S
C2785 C2789 1.411 . S
C2785 N2792 1.377 . S
C2786 C2788 1.420 . S
C2786 C2790 1.423 . S
C2786 C2798 1.392 . S
C2787 C2789 1.420 . S
C2787 C2790 1.351 . S
C2787 H2810 0.931 . S
C2788 C2785 1.429 . S
C2788 C2786 1.420 . S
C2788 N2796 1.362 . S
C2789 C2785 1.411 . S
C2789 C2787 1.420 . S
C2789 C2794 1.395 . S
C2790 C2786 1.423 . S
C2790 C2787 1.351 . S
C2790 H2802 0.930 . S
C2791 C2793 1.400 . S
C2791 C2794 1.386 . S
C2791 H2803 0.930 . S
N2792 C2785 1.377 . S
N2792 C2793 1.321 . S
N2792 Eu2795 2.609 1_556 S
C2793 C2791 1.400 . S
C2793 N2792 1.321 . S
C2793 H2800 0.930 . S
C2794 C2789 1.395 . S
C2794 C2791 1.386 . S
C2794 H2813 0.930 . S
Eu2795 N2792 2.609 1_554 S
Eu2795 N2796 2.657 1_554 S
Eu2795 O2829 2.380 1_554 S
Eu2795 O2830 2.432 . S
Eu2795 O2834 2.558 . S
Eu2795 O2835 2.612 . S
Eu2795 O2837 2.339 . S
Eu2795 O2838 2.563 . S
Eu2795 O2839 2.419 . S
Eu2795 C2859 2.848 . S
N2796 C2788 1.362 . S
N2796 Eu2795 2.657 1_556 S
N2796 C2797 1.334 . S
C2797 N2796 1.334 . S
C2797 C2799 1.413 . S
C2797 H2804 0.929 . S
C2798 C2786 1.392 . S
C2798 C2799 1.367 . S
C2798 H2806 0.930 . S
C2799 C2797 1.413 . S
C2799 C2798 1.367 . S
C2799 H2801 0.930 . S
H2800 C2793 0.930 . S
H2801 C2799 0.930 . S
H2802 C2790 0.930 . S
H2803 C2791 0.930 . S
H2804 C2797 0.929 . S
H2805 C2819 0.930 . S
H2806 C2798 0.930 . S
H2807 C2825 0.930 . S
H2808 C2816 0.929 . S
H2809 C2823 0.930 . S
H2810 C2787 0.931 . S
H2811 C2817 0.930 . S
H2812 C2850 0.930 . S
H2813 C2794 0.930 . S
H2814 C2849 0.931 . S
N2815 Eu2784 2.657 . S
N2815 C2816 1.334 . S
N2815 C2820 1.362 . S
C2816 H2808 0.929 . S
C2816 N2815 1.334 . S
C2816 C2819 1.413 . S
C2817 H2811 0.930 . S
C2817 C2818 1.392 . S
C2817 C2819 1.367 . S
C2818 C2817 1.392 . S
C2818 C2820 1.420 . S
C2818 C2850 1.423 . S
C2819 H2805 0.930 . S
C2819 C2816 1.413 . S
C2819 C2817 1.367 . S
C2820 N2815 1.362 . S
C2820 C2818 1.420 . S
C2820 C2824 1.429 . S
H2821 C2826 0.930 . S
N2822 Eu2784 2.609 . S
N2822 C2824 1.377 . S
N2822 C2825 1.321 . S
C2823 H2809 0.930 . S
C2823 C2825 1.400 . S
C2823 C2826 1.386 . S
C2824 C2820 1.429 . S
C2824 N2822 1.377 . S
C2824 C2827 1.411 . S
C2825 H2807 0.930 . S
C2825 N2822 1.321 . S
C2825 C2823 1.400 . S
C2826 H2821 0.930 . S
C2826 C2823 1.386 . S
C2826 C2827 1.395 . S
C2827 C2824 1.411 . S
C2827 C2826 1.395 . S
C2827 C2849 1.420 . S
O2828 Eu2784 2.558 . S
O2828 C2848 1.257 . S
O2829 Eu2784 2.612 1_556 S
O2829 Eu2795 2.380 1_556 S
O2829 C2840 1.276 . S
O2830 Eu2795 2.432 . S
O2830 C2847 1.264 . S
O2831 Eu2784 2.339 . S
O2831 C2847 1.254 . S
O2832 Eu2784 2.563 1_556 S
O2832 C2840 1.235 . S
O2833 Eu2784 2.419 . S
O2833 C2848 1.249 . S
O2834 Eu2795 2.558 . S
O2834 C2859 1.257 . S
O2835 Eu2784 2.380 . S
O2835 Eu2795 2.612 . S
O2835 C2851 1.276 . S
O2836 Eu2784 2.432 . S
O2836 C2858 1.264 . S
O2837 Eu2795 2.339 . S
O2837 C2858 1.254 . S
O2838 Eu2795 2.563 . S
O2838 C2851 1.235 . S
O2839 Eu2795 2.419 . S
O2839 C2859 1.249 . S
C2840 O2829 1.276 . S
C2840 O2832 1.235 . S
C2841 C2843 1.393 . S
C2841 C2845 1.395 . S
C2841 C2848 1.492 . S
C2842 C2843 1.392 1_556 S
C2842 C2844 1.386 1_556 S
C2843 C2841 1.393 . S
C2843 C2842 1.392 1_554 S
C2843 H2860 0.919 1_554 S
C2844 C2842 1.386 1_554 S
C2844 C2846 1.395 . S
C2844 H2861 0.936 . S
C2845 C2841 1.395 . S
C2845 C2846 1.379 . S
C2845 H2862 0.930 . S
C2846 C2844 1.395 . S
C2846 C2845 1.379 . S
C2846 H2863 0.930 . S
C2847 O2830 1.264 . S
C2847 O2831 1.254 . S
C2848 Eu2784 2.848 . S
C2848 O2828 1.257 . S
C2848 O2833 1.249 . S
C2848 C2841 1.492 . S
C2849 H2814 0.931 . S
C2849 C2827 1.420 . S
C2849 C2850 1.351 . S
C2850 H2812 0.930 . S
C2850 C2818 1.423 . S
C2850 C2849 1.351 . S
C2851 O2835 1.276 . S
C2851 O2838 1.235 . S
C2852 C2853 1.393 . S
C2852 C2856 1.395 . S
C2852 C2859 1.492 . S
C2853 C2852 1.393 . S
C2853 C2854 1.392 . S
C2853 H2864 0.930 . S
C2854 C2853 1.392 . S
C2854 C2855 1.386 . S
C2855 C2854 1.386 . S
C2855 C2857 1.395 . S
C2855 H2865 0.930 . S
C2856 C2852 1.395 . S
C2856 C2857 1.379 . S
C2856 H2866 0.930 . S
C2857 C2855 1.395 . S
C2857 C2856 1.379 . S
C2857 H2867 0.930 . S
C2858 O2836 1.264 . S
C2858 O2837 1.254 . S
C2859 Eu2795 2.848 . S
C2859 O2834 1.257 . S
C2859 O2839 1.249 . S
C2859 C2852 1.492 . S
H2860 C2843 0.919 1_556 S
H2861 C2844 0.936 . S
H2862 C2845 0.930 . S
H2863 C2846 0.930 . S
H2864 C2853 0.930 . S
H2865 C2855 0.930 . S
H2866 C2856 0.930 . S
H2867 C2857 0.930 . S
Eu2868 N2899 2.657 . S
Eu2868 N2906 2.609 . S
Eu2868 O2912 2.558 . S
Eu2868 O2913 2.612 . S
Eu2868 O2915 2.339 . S
Eu2868 O2916 2.563 . S
Eu2868 O2917 2.419 . S
Eu2868 O2919 2.380 . S
Eu2868 O2920 2.432 . S
Eu2868 C2932 2.848 . S
C2869 C2872 1.429 . S
C2869 C2873 1.411 . S
C2869 N2876 1.377 . S
C2870 C2872 1.420 . S
C2870 C2874 1.423 . S
C2870 C2882 1.392 . S
C2871 C2873 1.420 . S
C2871 C2874 1.351 . S
C2871 H2894 0.931 . S
C2872 C2869 1.429 . S
C2872 C2870 1.420 . S
C2872 N2880 1.362 . S
C2873 C2869 1.411 . S
C2873 C2871 1.420 . S
C2873 C2878 1.395 . S
C2874 C2870 1.423 . S
C2874 C2871 1.351 . S
C2874 H2886 0.930 . S
C2875 C2877 1.400 . S
C2875 C2878 1.386 . S
C2875 H2887 0.930 . S
N2876 C2869 1.377 . S
N2876 C2877 1.321 . S
N2876 Eu2879 2.609 . S
C2877 C2875 1.400 . S
C2877 N2876 1.321 . S
C2877 H2884 0.930 . S
C2878 C2873 1.395 . S
C2878 C2875 1.386 . S
C2878 H2897 0.930 . S
Eu2879 N2876 2.609 . S
Eu2879 N2880 2.657 . S
Eu2879 O2913 2.380 . S
Eu2879 O2914 2.432 . S
Eu2879 O2918 2.558 . S
Eu2879 O2919 2.612 . S
Eu2879 O2921 2.339 . S
Eu2879 O2922 2.563 . S
Eu2879 O2923 2.419 . S
Eu2879 C2943 2.848 . S
N2880 C2872 1.362 . S
N2880 Eu2879 2.657 . S
N2880 C2881 1.334 . S
C2881 N2880 1.334 . S
C2881 C2883 1.413 . S
C2881 H2888 0.929 . S
C2882 C2870 1.392 . S
C2882 C2883 1.367 . S
C2882 H2890 0.930 . S
C2883 C2881 1.413 . S
C2883 C2882 1.367 . S
C2883 H2885 0.930 . S
H2884 C2877 0.930 . S
H2885 C2883 0.930 . S
H2886 C2874 0.930 . S
H2887 C2875 0.930 . S
H2888 C2881 0.929 . S
H2889 C2903 0.930 . S
H2890 C2882 0.930 . S
H2891 C2909 0.930 . S
H2892 C2900 0.929 . S
H2893 C2907 0.930 . S
H2894 C2871 0.931 . S
H2895 C2901 0.930 . S
H2896 C2934 0.930 . S
H2897 C2878 0.930 . S
H2898 C2933 0.931 . S
N2899 Eu2868 2.657 . S
N2899 C2900 1.334 . S
N2899 C2904 1.362 . S
C2900 H2892 0.929 . S
C2900 N2899 1.334 . S
C2900 C2903 1.413 . S
C2901 H2895 0.930 . S
C2901 C2902 1.392 . S
C2901 C2903 1.367 . S
C2902 C2901 1.392 . S
C2902 C2904 1.420 . S
C2902 C2934 1.423 . S
C2903 H2889 0.930 . S
C2903 C2900 1.413 . S
C2903 C2901 1.367 . S
C2904 N2899 1.362 . S
C2904 C2902 1.420 . S
C2904 C2908 1.429 . S
H2905 C2910 0.930 . S
N2906 Eu2868 2.609 . S
N2906 C2908 1.377 . S
N2906 C2909 1.321 . S
C2907 H2893 0.930 . S
C2907 C2909 1.400 . S
C2907 C2910 1.386 . S
C2908 C2904 1.429 . S
C2908 N2906 1.377 . S
C2908 C2911 1.411 . S
C2909 H2891 0.930 . S
C2909 N2906 1.321 . S
C2909 C2907 1.400 . S
C2910 H2905 0.930 . S
C2910 C2907 1.386 . S
C2910 C2911 1.395 . S
C2911 C2908 1.411 . S
C2911 C2910 1.395 . S
C2911 C2933 1.420 . S
O2912 Eu2868 2.558 . S
O2912 C2932 1.257 . S
O2913 Eu2868 2.612 . S
O2913 Eu2879 2.380 . S
O2913 C2924 1.276 . S
O2914 Eu2879 2.432 . S
O2914 C2931 1.264 . S
O2915 Eu2868 2.339 . S
O2915 C2931 1.254 . S
O2916 Eu2868 2.563 . S
O2916 C2924 1.235 . S
O2917 Eu2868 2.419 . S
O2917 C2932 1.249 . S
O2918 Eu2879 2.558 . S
O2918 C2943 1.257 . S
O2919 Eu2868 2.380 . S
O2919 Eu2879 2.612 . S
O2919 C2935 1.276 . S
O2920 Eu2868 2.432 . S
O2920 C2942 1.264 . S
O2921 Eu2879 2.339 . S
O2921 C2942 1.254 . S
O2922 Eu2879 2.563 . S
O2922 C2935 1.235 . S
O2923 Eu2879 2.419 . S
O2923 C2943 1.249 . S
C2924 O2913 1.276 . S
C2924 O2916 1.235 . S
C2925 C2927 1.393 . S
C2925 C2929 1.395 . S
C2925 C2932 1.492 . S
C2926 C2927 1.392 . S
C2926 C2928 1.386 . S
C2927 C2925 1.393 . S
C2927 C2926 1.392 . S
C2927 H2944 0.930 . S
C2928 C2926 1.386 . S
C2928 C2930 1.395 . S
C2928 H2945 0.930 . S
C2929 C2925 1.395 . S
C2929 C2930 1.379 . S
C2929 H2946 0.930 . S
C2930 C2928 1.395 . S
C2930 C2929 1.379 . S
C2930 H2947 0.930 . S
C2931 O2914 1.264 . S
C2931 O2915 1.254 . S
C2932 Eu2868 2.848 . S
C2932 O2912 1.257 . S
C2932 O2917 1.249 . S
C2932 C2925 1.492 . S
C2933 H2898 0.931 . S
C2933 C2911 1.420 . S
C2933 C2934 1.351 . S
C2934 H2896 0.930 . S
C2934 C2902 1.423 . S
C2934 C2933 1.351 . S
C2935 O2919 1.276 . S
C2935 O2922 1.235 . S
C2936 C2937 1.393 . S
C2936 C2940 1.395 . S
C2936 C2943 1.492 . S
C2937 C2936 1.393 . S
C2937 C2938 1.392 . S
C2937 H2948 0.930 . S
C2938 C2937 1.392 . S
C2938 C2939 1.386 . S
C2939 C2938 1.386 . S
C2939 C2941 1.395 . S
C2939 H2949 0.930 . S
C2940 C2936 1.395 . S
C2940 C2941 1.379 . S
C2940 H2950 0.930 . S
C2941 C2939 1.395 . S
C2941 C2940 1.379 . S
C2941 H2951 0.930 . S
C2942 O2920 1.264 . S
C2942 O2921 1.254 . S
C2943 Eu2879 2.848 . S
C2943 O2918 1.257 . S
C2943 O2923 1.249 . S
C2943 C2936 1.492 . S
H2944 C2927 0.930 . S
H2945 C2928 0.930 . S
H2946 C2929 0.930 . S
H2947 C2930 0.930 . S
H2948 C2937 0.930 . S
H2949 C2939 0.930 . S
H2950 C2940 0.930 . S
H2951 C2941 0.930 . S
Eu2952 N2983 2.657 . S
Eu2952 N2990 2.609 . S
Eu2952 O2996 2.558 . S
Eu2952 O2997 2.612 . S
Eu2952 O2999 2.339 . S
Eu2952 O3000 2.563 . S
Eu2952 O3001 2.419 . S
Eu2952 O3003 2.380 . S
Eu2952 O3004 2.432 . S
Eu2952 C3016 2.848 . S
C2953 C2956 1.429 . S
C2953 C2957 1.411 1_455 S
C2953 N2960 1.377 . S
C2954 C2956 1.420 1_655 S
C2954 C2958 1.423 . S
C2954 C2966 1.392 . S
C2955 C2957 1.420 . S
C2955 C2958 1.351 . S
C2955 H2978 0.931 . S
C2956 C2953 1.429 . S
C2956 C2954 1.420 1_455 S
C2956 N2964 1.362 . S
C2957 C2953 1.411 1_655 S
C2957 C2955 1.420 . S
C2957 C2962 1.395 . S
C2958 C2954 1.423 . S
C2958 C2955 1.351 . S
C2958 H2970 0.930 . S
C2959 C2961 1.400 . S
C2959 C2962 1.386 1_455 S
C2959 H2971 0.930 . S
N2960 C2953 1.377 . S
N2960 C2961 1.321 . S
N2960 Eu2963 2.609 . S
C2961 C2959 1.400 . S
C2961 N2960 1.321 . S
C2961 H2968 0.930 . S
C2962 C2957 1.395 . S
C2962 C2959 1.386 1_655 S
C2962 H2981 0.930 . S
Eu2963 N2960 2.609 . S
Eu2963 N2964 2.657 . S
Eu2963 O2997 2.380 . S
Eu2963 O2998 2.432 . S
Eu2963 O3002 2.558 . S
Eu2963 O3003 2.612 . S
Eu2963 O3005 2.339 . S
Eu2963 O3006 2.563 . S
Eu2963 O3007 2.419 . S
Eu2963 C3027 2.848 . S
N2964 C2956 1.362 . S
N2964 Eu2963 2.657 . S
N2964 C2965 1.334 . S
C2965 N2964 1.334 . S
C2965 C2967 1.413 1_455 S
C2965 H2972 0.929 . S
C2966 C2954 1.392 . S
C2966 C2967 1.367 . S
C2966 H2974 0.930 . S
C2967 C2965 1.413 1_655 S
C2967 C2966 1.367 . S
C2967 H2969 0.930 . S
H2968 C2961 0.930 . S
H2969 C2967 0.930 . S
H2970 C2958 0.930 . S
H2971 C2959 0.930 . S
H2972 C2965 0.929 . S
H2973 C2987 0.930 . S
H2974 C2966 0.930 . S
H2975 C2993 0.930 . S
H2976 C2984 0.929 . S
H2977 C2991 0.930 . S
H2978 C2955 0.931 . S
H2979 C2985 0.930 . S
H2980 C3018 0.930 . S
H2981 C2962 0.930 . S
H2982 C3017 0.931 . S
N2983 Eu2952 2.657 . S
N2983 C2984 1.334 . S
N2983 C2988 1.362 . S
C2984 H2976 0.929 . S
C2984 N2983 1.334 . S
C2984 C2987 1.413 . S
C2985 H2979 0.930 . S
C2985 C2986 1.392 . S
C2985 C2987 1.367 . S
C2986 C2985 1.392 . S
C2986 C2988 1.420 . S
C2986 C3018 1.423 . S
C2987 H2973 0.930 . S
C2987 C2984 1.413 . S
C2987 C2985 1.367 . S
C2988 N2983 1.362 . S
C2988 C2986 1.420 . S
C2988 C2992 1.429 . S
H2989 C2994 0.930 . S
N2990 Eu2952 2.609 . S
N2990 C2992 1.377 . S
N2990 C2993 1.321 . S
C2991 H2977 0.930 . S
C2991 C2993 1.400 . S
C2991 C2994 1.386 . S
C2992 C2988 1.429 . S
C2992 N2990 1.377 . S
C2992 C2995 1.411 . S
C2993 H2975 0.930 . S
C2993 N2990 1.321 . S
C2993 C2991 1.400 . S
C2994 H2989 0.930 . S
C2994 C2991 1.386 . S
C2994 C2995 1.395 . S
C2995 C2992 1.411 . S
C2995 C2994 1.395 . S
C2995 C3017 1.420 . S
O2996 Eu2952 2.558 . S
O2996 C3016 1.257 . S
O2997 Eu2952 2.612 . S
O2997 Eu2963 2.380 . S
O2997 C3008 1.276 . S
O2998 Eu2963 2.432 . S
O2998 C3015 1.264 . S
O2999 Eu2952 2.339 . S
O2999 C3015 1.254 . S
O3000 Eu2952 2.563 . S
O3000 C3008 1.235 . S
O3001 Eu2952 2.419 . S
O3001 C3016 1.249 . S
O3002 Eu2963 2.558 . S
O3002 C3027 1.257 . S
O3003 Eu2952 2.380 . S
O3003 Eu2963 2.612 . S
O3003 C3019 1.276 . S
O3004 Eu2952 2.432 . S
O3004 C3026 1.264 . S
O3005 Eu2963 2.339 . S
O3005 C3026 1.254 . S
O3006 Eu2963 2.563 . S
O3006 C3019 1.235 . S
O3007 Eu2963 2.419 . S
O3007 C3027 1.249 . S
C3008 O2997 1.276 . S
C3008 O3000 1.235 . S
C3009 C3011 1.393 . S
C3009 C3013 1.395 . S
C3009 C3016 1.492 . S
C3010 C3011 1.392 . S
C3010 C3012 1.386 . S
C3011 C3009 1.393 . S
C3011 C3010 1.392 . S
C3011 H3028 0.930 . S
C3012 C3010 1.386 . S
C3012 C3014 1.395 . S
C3012 H3029 0.930 . S
C3013 C3009 1.395 . S
C3013 C3014 1.379 . S
C3013 H3030 0.930 . S
C3014 C3012 1.395 . S
C3014 C3013 1.379 . S
C3014 H3031 0.930 . S
C3015 O2998 1.264 . S
C3015 O2999 1.254 . S
C3016 Eu2952 2.848 . S
C3016 O2996 1.257 . S
C3016 O3001 1.249 . S
C3016 C3009 1.492 . S
C3017 H2982 0.931 . S
C3017 C2995 1.420 . S
C3017 C3018 1.351 . S
C3018 H2980 0.930 . S
C3018 C2986 1.423 . S
C3018 C3017 1.351 . S
C3019 O3003 1.276 . S
C3019 O3006 1.235 . S
C3020 C3021 1.393 . S
C3020 C3024 1.395 . S
C3020 C3027 1.492 . S
C3021 C3020 1.393 . S
C3021 C3022 1.392 . S
C3021 H3032 0.930 . S
C3022 C3021 1.392 . S
C3022 C3023 1.386 . S
C3023 C3022 1.386 . S
C3023 C3025 1.395 . S
C3023 H3033 0.930 . S
C3024 C3020 1.395 . S
C3024 C3025 1.379 . S
C3024 H3034 0.930 . S
C3025 C3023 1.395 . S
C3025 C3024 1.379 . S
C3025 H3035 0.930 . S
C3026 O3004 1.264 . S
C3026 O3005 1.254 . S
C3027 Eu2963 2.848 . S
C3027 O3002 1.257 . S
C3027 O3007 1.249 . S
C3027 C3020 1.492 . S
H3028 C3011 0.930 . S
H3029 C3012 0.930 . S
H3030 C3013 0.930 . S
H3031 C3014 0.930 . S
H3032 C3021 0.930 . S
H3033 C3023 0.930 . S
H3034 C3024 0.930 . S
H3035 C3025 0.930 . S
Eu3036 N3067 2.657 . S
Eu3036 N3074 2.609 . S
Eu3036 O3080 2.558 . S
Eu3036 O3081 2.612 . S
Eu3036 O3083 2.339 . S
Eu3036 O3084 2.563 . S
Eu3036 O3085 2.419 . S
Eu3036 O3087 2.380 . S
Eu3036 O3088 2.432 . S
Eu3036 C3100 2.848 . S
C3037 C3040 1.429 . S
C3037 C3041 1.411 . S
C3037 N3044 1.377 . S
C3038 C3040 1.420 . S
C3038 C3042 1.423 . S
C3038 C3050 1.392 . S
C3039 C3041 1.420 . S
C3039 C3042 1.351 . S
C3039 H3062 0.931 . S
C3040 C3037 1.429 . S
C3040 C3038 1.420 . S
C3040 N3048 1.362 . S
C3041 C3037 1.411 . S
C3041 C3039 1.420 . S
C3041 C3046 1.395 . S
C3042 C3038 1.423 . S
C3042 C3039 1.351 . S
C3042 H3054 0.930 . S
C3043 C3045 1.400 . S
C3043 C3046 1.386 . S
C3043 H3055 0.930 . S
N3044 C3037 1.377 . S
N3044 C3045 1.321 . S
N3044 Eu3047 2.609 . S
C3045 C3043 1.400 . S
C3045 N3044 1.321 . S
C3045 H3052 0.930 . S
C3046 C3041 1.395 . S
C3046 C3043 1.386 . S
C3046 H3065 0.930 . S
Eu3047 N3044 2.609 . S
Eu3047 N3048 2.657 . S
Eu3047 O3081 2.380 . S
Eu3047 O3082 2.432 . S
Eu3047 O3086 2.558 . S
Eu3047 O3087 2.612 . S
Eu3047 O3089 2.339 . S
Eu3047 O3090 2.563 . S
Eu3047 O3091 2.419 . S
Eu3047 C3111 2.848 . S
N3048 C3040 1.362 . S
N3048 Eu3047 2.657 . S
N3048 C3049 1.334 . S
C3049 N3048 1.334 . S
C3049 C3051 1.413 . S
C3049 H3056 0.929 . S
C3050 C3038 1.392 . S
C3050 C3051 1.367 . S
C3050 H3058 0.930 . S
C3051 C3049 1.413 . S
C3051 C3050 1.367 . S
C3051 H3053 0.930 . S
H3052 C3045 0.930 . S
H3053 C3051 0.930 . S
H3054 C3042 0.930 . S
H3055 C3043 0.930 . S
H3056 C3049 0.929 . S
H3057 C3071 0.930 . S
H3058 C3050 0.930 . S
H3059 C3077 0.930 . S
H3060 C3068 0.929 . S
H3061 C3075 0.930 . S
H3062 C3039 0.931 . S
H3063 C3069 0.930 . S
H3064 C3102 0.930 . S
H3065 C3046 0.930 . S
H3066 C3101 0.931 . S
N3067 Eu3036 2.657 . S
N3067 C3068 1.334 . S
N3067 C3072 1.362 . S
C3068 H3060 0.929 . S
C3068 N3067 1.334 . S
C3068 C3071 1.413 . S
C3069 H3063 0.930 . S
C3069 C3070 1.392 . S
C3069 C3071 1.367 . S
C3070 C3069 1.392 . S
C3070 C3072 1.420 . S
C3070 C3102 1.423 . S
C3071 H3057 0.930 . S
C3071 C3068 1.413 . S
C3071 C3069 1.367 . S
C3072 N3067 1.362 . S
C3072 C3070 1.420 . S
C3072 C3076 1.429 . S
H3073 C3078 0.930 . S
N3074 Eu3036 2.609 . S
N3074 C3076 1.377 . S
N3074 C3077 1.321 . S
C3075 H3061 0.930 . S
C3075 C3077 1.400 . S
C3075 C3078 1.386 . S
C3076 C3072 1.429 . S
C3076 N3074 1.377 . S
C3076 C3079 1.411 . S
C3077 H3059 0.930 . S
C3077 N3074 1.321 . S
C3077 C3075 1.400 . S
C3078 H3073 0.930 . S
C3078 C3075 1.386 . S
C3078 C3079 1.395 . S
C3079 C3076 1.411 . S
C3079 C3078 1.395 . S
C3079 C3101 1.420 . S
O3080 Eu3036 2.558 . S
O3080 C3100 1.257 . S
O3081 Eu3036 2.612 . S
O3081 Eu3047 2.380 . S
O3081 C3092 1.276 . S
O3082 Eu3047 2.432 . S
O3082 C3099 1.264 . S
O3083 Eu3036 2.339 . S
O3083 C3099 1.254 . S
O3084 Eu3036 2.563 . S
O3084 C3092 1.235 . S
O3085 Eu3036 2.419 . S
O3085 C3100 1.249 . S
O3086 Eu3047 2.558 . S
O3086 C3111 1.257 . S
O3087 Eu3036 2.380 . S
O3087 Eu3047 2.612 . S
O3087 C3103 1.276 . S
O3088 Eu3036 2.432 . S
O3088 C3110 1.264 . S
O3089 Eu3047 2.339 . S
O3089 C3110 1.254 . S
O3090 Eu3047 2.563 . S
O3090 C3103 1.235 . S
O3091 Eu3047 2.419 . S
O3091 C3111 1.249 . S
C3092 O3081 1.276 . S
C3092 O3084 1.235 . S
C3093 C3095 1.393 . S
C3093 C3097 1.395 . S
C3093 C3100 1.492 . S
C3094 C3095 1.392 . S
C3094 C3096 1.386 . S
C3095 C3093 1.393 . S
C3095 C3094 1.392 . S
C3095 H3112 0.930 . S
C3096 C3094 1.386 . S
C3096 C3098 1.395 . S
C3096 H3113 0.930 . S
C3097 C3093 1.395 . S
C3097 C3098 1.379 . S
C3097 H3114 0.930 . S
C3098 C3096 1.395 . S
C3098 C3097 1.379 . S
C3098 H3115 0.930 . S
C3099 O3082 1.264 . S
C3099 O3083 1.254 . S
C3100 Eu3036 2.848 . S
C3100 O3080 1.257 . S
C3100 O3085 1.249 . S
C3100 C3093 1.492 . S
C3101 H3066 0.931 . S
C3101 C3079 1.420 . S
C3101 C3102 1.351 . S
C3102 H3064 0.930 . S
C3102 C3070 1.423 . S
C3102 C3101 1.351 . S
C3103 O3087 1.276 . S
C3103 O3090 1.235 . S
C3104 C3105 1.393 . S
C3104 C3108 1.395 . S
C3104 C3111 1.492 . S
C3105 C3104 1.393 . S
C3105 C3106 1.392 . S
C3105 H3116 0.930 . S
C3106 C3105 1.392 . S
C3106 C3107 1.386 . S
C3107 C3106 1.386 . S
C3107 C3109 1.395 . S
C3107 H3117 0.930 . S
C3108 C3104 1.395 . S
C3108 C3109 1.379 . S
C3108 H3118 0.930 . S
C3109 C3107 1.395 . S
C3109 C3108 1.379 . S
C3109 H3119 0.930 . S
C3110 O3088 1.264 . S
C3110 O3089 1.254 . S
C3111 Eu3047 2.848 . S
C3111 O3086 1.257 . S
C3111 O3091 1.249 . S
C3111 C3104 1.492 . S
H3112 C3095 0.930 . S
H3113 C3096 0.930 . S
H3114 C3097 0.930 . S
H3115 C3098 0.930 . S
H3116 C3105 0.930 . S
H3117 C3107 0.930 . S
H3118 C3108 0.930 . S
H3119 C3109 0.930 . S
Eu3120 N3151 2.657 . S
Eu3120 N3158 2.609 . S
Eu3120 O3164 2.558 . S
Eu3120 O3165 2.612 . S
Eu3120 O3167 2.339 . S
Eu3120 O3168 2.563 . S
Eu3120 O3169 2.419 . S
Eu3120 O3171 2.380 . S
Eu3120 O3172 2.432 . S
Eu3120 C3184 2.848 . S
C3121 C3124 1.429 . S
C3121 C3125 1.411 . S
C3121 N3128 1.377 . S
C3122 C3124 1.420 . S
C3122 C3126 1.423 . S
C3122 C3134 1.392 . S
C3123 C3125 1.420 . S
C3123 C3126 1.351 . S
C3123 H3146 0.931 . S
C3124 C3121 1.429 . S
C3124 C3122 1.420 . S
C3124 N3132 1.362 . S
C3125 C3121 1.411 . S
C3125 C3123 1.420 . S
C3125 C3130 1.395 . S
C3126 C3122 1.423 . S
C3126 C3123 1.351 . S
C3126 H3138 0.930 . S
C3127 C3129 1.400 . S
C3127 C3130 1.386 . S
C3127 H3139 0.930 . S
N3128 C3121 1.377 . S
N3128 C3129 1.321 . S
N3128 Eu3131 2.609 . S
C3129 C3127 1.400 . S
C3129 N3128 1.321 . S
C3129 H3136 0.930 . S
C3130 C3125 1.395 . S
C3130 C3127 1.386 . S
C3130 H3149 0.930 . S
Eu3131 N3128 2.609 . S
Eu3131 N3132 2.657 . S
Eu3131 O3165 2.380 . S
Eu3131 O3166 2.432 . S
Eu3131 O3170 2.558 . S
Eu3131 O3171 2.612 . S
Eu3131 O3173 2.339 . S
Eu3131 O3174 2.563 . S
Eu3131 O3175 2.419 . S
Eu3131 C3195 2.848 . S
N3132 C3124 1.362 . S
N3132 Eu3131 2.657 . S
N3132 C3133 1.334 . S
C3133 N3132 1.334 . S
C3133 C3135 1.413 . S
C3133 H3140 0.929 . S
C3134 C3122 1.392 . S
C3134 C3135 1.367 . S
C3134 H3142 0.930 . S
C3135 C3133 1.413 . S
C3135 C3134 1.367 . S
C3135 H3137 0.930 . S
H3136 C3129 0.930 . S
H3137 C3135 0.930 . S
H3138 C3126 0.930 . S
H3139 C3127 0.930 . S
H3140 C3133 0.929 . S
H3141 C3155 0.930 . S
H3142 C3134 0.930 . S
H3143 C3161 0.930 . S
H3144 C3152 0.929 . S
H3145 C3159 0.930 . S
H3146 C3123 0.931 . S
H3147 C3153 0.930 . S
H3148 C3186 0.930 . S
H3149 C3130 0.930 . S
H3150 C3185 0.931 . S
N3151 Eu3120 2.657 . S
N3151 C3152 1.334 . S
N3151 C3156 1.362 . S
C3152 H3144 0.929 . S
C3152 N3151 1.334 . S
C3152 C3155 1.413 . S
C3153 H3147 0.930 . S
C3153 C3154 1.392 . S
C3153 C3155 1.367 . S
C3154 C3153 1.392 . S
C3154 C3156 1.420 . S
C3154 C3186 1.423 . S
C3155 H3141 0.930 . S
C3155 C3152 1.413 . S
C3155 C3153 1.367 . S
C3156 N3151 1.362 . S
C3156 C3154 1.420 . S
C3156 C3160 1.429 . S
H3157 C3162 0.930 . S
N3158 Eu3120 2.609 . S
N3158 C3160 1.377 . S
N3158 C3161 1.321 . S
C3159 H3145 0.930 . S
C3159 C3161 1.400 . S
C3159 C3162 1.386 . S
C3160 C3156 1.429 . S
C3160 N3158 1.377 . S
C3160 C3163 1.411 . S
C3161 H3143 0.930 . S
C3161 N3158 1.321 . S
C3161 C3159 1.400 . S
C3162 H3157 0.930 . S
C3162 C3159 1.386 . S
C3162 C3163 1.395 . S
C3163 C3160 1.411 . S
C3163 C3162 1.395 . S
C3163 C3185 1.420 . S
O3164 Eu3120 2.558 . S
O3164 C3184 1.257 . S
O3165 Eu3120 2.612 . S
O3165 Eu3131 2.380 . S
O3165 C3176 1.276 . S
O3166 Eu3131 2.432 . S
O3166 C3183 1.264 . S
O3167 Eu3120 2.339 . S
O3167 C3183 1.254 . S
O3168 Eu3120 2.563 . S
O3168 C3176 1.235 . S
O3169 Eu3120 2.419 . S
O3169 C3184 1.249 . S
O3170 Eu3131 2.558 . S
O3170 C3195 1.257 . S
O3171 Eu3120 2.380 . S
O3171 Eu3131 2.612 . S
O3171 C3187 1.276 . S
O3172 Eu3120 2.432 . S
O3172 C3194 1.264 . S
O3173 Eu3131 2.339 . S
O3173 C3194 1.254 . S
O3174 Eu3131 2.563 . S
O3174 C3187 1.235 . S
O3175 Eu3131 2.419 . S
O3175 C3195 1.249 . S
C3176 O3165 1.276 . S
C3176 O3168 1.235 . S
C3177 C3179 1.393 . S
C3177 C3181 1.395 . S
C3177 C3184 1.492 . S
C3178 C3179 1.392 . S
C3178 C3180 1.386 . S
C3179 C3177 1.393 . S
C3179 C3178 1.392 . S
C3179 H3196 0.930 . S
C3180 C3178 1.386 . S
C3180 C3182 1.395 . S
C3180 H3197 0.930 . S
C3181 C3177 1.395 . S
C3181 C3182 1.379 . S
C3181 H3198 0.930 . S
C3182 C3180 1.395 . S
C3182 C3181 1.379 . S
C3182 H3199 0.930 . S
C3183 O3166 1.264 . S
C3183 O3167 1.254 . S
C3184 Eu3120 2.848 . S
C3184 O3164 1.257 . S
C3184 O3169 1.249 . S
C3184 C3177 1.492 . S
C3185 H3150 0.931 . S
C3185 C3163 1.420 . S
C3185 C3186 1.351 . S
C3186 H3148 0.930 . S
C3186 C3154 1.423 . S
C3186 C3185 1.351 . S
C3187 O3171 1.276 . S
C3187 O3174 1.235 . S
C3188 C3189 1.393 . S
C3188 C3192 1.395 . S
C3188 C3195 1.492 . S
C3189 C3188 1.393 . S
C3189 C3190 1.392 . S
C3189 H3200 0.930 . S
C3190 C3189 1.392 . S
C3190 C3191 1.386 . S
C3191 C3190 1.386 . S
C3191 C3193 1.395 . S
C3191 H3201 0.930 . S
C3192 C3188 1.395 . S
C3192 C3193 1.379 . S
C3192 H3202 0.930 . S
C3193 C3191 1.395 . S
C3193 C3192 1.379 . S
C3193 H3203 0.930 . S
C3194 O3172 1.264 . S
C3194 O3173 1.254 . S
C3195 Eu3131 2.848 . S
C3195 O3170 1.257 . S
C3195 O3175 1.249 . S
C3195 C3188 1.492 . S
H3196 C3179 0.930 . S
H3197 C3180 0.930 . S
H3198 C3181 0.930 . S
H3199 C3182 0.930 . S
H3200 C3189 0.930 . S
H3201 C3191 0.930 . S
H3202 C3192 0.930 . S
H3203 C3193 0.930 . S
Eu3204 N3235 2.657 . S
Eu3204 N3242 2.609 . S
Eu3204 O3248 2.558 . S
Eu3204 O3249 2.612 . S
Eu3204 O3251 2.339 . S
Eu3204 O3252 2.563 . S
Eu3204 O3253 2.419 . S
Eu3204 O3255 2.380 . S
Eu3204 O3256 2.432 . S
Eu3204 C3268 2.848 . S
C3205 C3208 1.429 . S
C3205 C3209 1.411 . S
C3205 N3212 1.377 . S
C3206 C3208 1.420 . S
C3206 C3210 1.423 . S
C3206 C3218 1.392 . S
C3207 C3209 1.420 . S
C3207 C3210 1.351 . S
C3207 H3230 0.931 . S
C3208 C3205 1.429 . S
C3208 C3206 1.420 . S
C3208 N3216 1.362 . S
C3209 C3205 1.411 . S
C3209 C3207 1.420 . S
C3209 C3214 1.395 . S
C3210 C3206 1.423 . S
C3210 C3207 1.351 . S
C3210 H3222 0.930 . S
C3211 C3213 1.400 . S
C3211 C3214 1.386 . S
C3211 H3223 0.930 . S
N3212 C3205 1.377 . S
N3212 C3213 1.321 . S
N3212 Eu3215 2.609 . S
C3213 C3211 1.400 . S
C3213 N3212 1.321 . S
C3213 H3220 0.930 . S
C3214 C3209 1.395 . S
C3214 C3211 1.386 . S
C3214 H3233 0.930 . S
Eu3215 N3212 2.609 . S
Eu3215 N3216 2.657 . S
Eu3215 O3249 2.380 . S
Eu3215 O3250 2.432 . S
Eu3215 O3254 2.558 . S
Eu3215 O3255 2.612 . S
Eu3215 O3257 2.339 . S
Eu3215 O3258 2.563 . S
Eu3215 O3259 2.419 . S
Eu3215 C3279 2.848 . S
N3216 C3208 1.362 . S
N3216 Eu3215 2.657 . S
N3216 C3217 1.334 . S
C3217 N3216 1.334 . S
C3217 C3219 1.413 . S
C3217 H3224 0.929 . S
C3218 C3206 1.392 . S
C3218 C3219 1.367 . S
C3218 H3226 0.930 . S
C3219 C3217 1.413 . S
C3219 C3218 1.367 . S
C3219 H3221 0.930 . S
H3220 C3213 0.930 . S
H3221 C3219 0.930 . S
H3222 C3210 0.930 . S
H3223 C3211 0.930 . S
H3224 C3217 0.929 . S
H3225 C3239 0.930 . S
H3226 C3218 0.930 . S
H3227 C3245 0.930 . S
H3228 C3236 0.929 . S
H3229 C3243 0.930 . S
H3230 C3207 0.931 . S
H3231 C3237 0.930 . S
H3232 C3270 0.930 . S
H3233 C3214 0.930 . S
H3234 C3269 0.931 . S
N3235 Eu3204 2.657 . S
N3235 C3236 1.334 . S
N3235 C3240 1.362 . S
C3236 H3228 0.929 . S
C3236 N3235 1.334 . S
C3236 C3239 1.413 . S
C3237 H3231 0.930 . S
C3237 C3238 1.392 . S
C3237 C3239 1.367 . S
C3238 C3237 1.392 . S
C3238 C3240 1.420 . S
C3238 C3270 1.423 . S
C3239 H3225 0.930 . S
C3239 C3236 1.413 . S
C3239 C3237 1.367 . S
C3240 N3235 1.362 . S
C3240 C3238 1.420 . S
C3240 C3244 1.429 . S
H3241 C3246 0.930 . S
N3242 Eu3204 2.609 . S
N3242 C3244 1.377 . S
N3242 C3245 1.321 . S
C3243 H3229 0.930 . S
C3243 C3245 1.400 . S
C3243 C3246 1.386 . S
C3244 C3240 1.429 . S
C3244 N3242 1.377 . S
C3244 C3247 1.411 . S
C3245 H3227 0.930 . S
C3245 N3242 1.321 . S
C3245 C3243 1.400 . S
C3246 H3241 0.930 . S
C3246 C3243 1.386 . S
C3246 C3247 1.395 . S
C3247 C3244 1.411 . S
C3247 C3246 1.395 . S
C3247 C3269 1.420 . S
O3248 Eu3204 2.558 . S
O3248 C3268 1.257 . S
O3249 Eu3204 2.612 . S
O3249 Eu3215 2.380 . S
O3249 C3260 1.276 . S
O3250 Eu3215 2.432 . S
O3250 C3267 1.264 . S
O3251 Eu3204 2.339 . S
O3251 C3267 1.254 . S
O3252 Eu3204 2.563 . S
O3252 C3260 1.235 . S
O3253 Eu3204 2.419 . S
O3253 C3268 1.249 . S
O3254 Eu3215 2.558 . S
O3254 C3279 1.257 . S
O3255 Eu3204 2.380 . S
O3255 Eu3215 2.612 . S
O3255 C3271 1.276 . S
O3256 Eu3204 2.432 . S
O3256 C3278 1.264 . S
O3257 Eu3215 2.339 . S
O3257 C3278 1.254 . S
O3258 Eu3215 2.563 . S
O3258 C3271 1.235 . S
O3259 Eu3215 2.419 . S
O3259 C3279 1.249 . S
C3260 O3249 1.276 . S
C3260 O3252 1.235 . S
C3261 C3263 1.393 . S
C3261 C3265 1.395 . S
C3261 C3268 1.492 . S
C3262 C3263 1.392 . S
C3262 C3264 1.386 . S
C3263 C3261 1.393 . S
C3263 C3262 1.392 . S
C3263 H3280 0.930 . S
C3264 C3262 1.386 . S
C3264 C3266 1.395 . S
C3264 H3281 0.930 . S
C3265 C3261 1.395 . S
C3265 C3266 1.379 . S
C3265 H3282 0.930 . S
C3266 C3264 1.395 . S
C3266 C3265 1.379 . S
C3266 H3283 0.930 . S
C3267 O3250 1.264 . S
C3267 O3251 1.254 . S
C3268 Eu3204 2.848 . S
C3268 O3248 1.257 . S
C3268 O3253 1.249 . S
C3268 C3261 1.492 . S
C3269 H3234 0.931 . S
C3269 C3247 1.420 . S
C3269 C3270 1.351 . S
C3270 H3232 0.930 . S
C3270 C3238 1.423 . S
C3270 C3269 1.351 . S
C3271 O3255 1.276 . S
C3271 O3258 1.235 . S
C3272 C3273 1.393 . S
C3272 C3276 1.395 . S
C3272 C3279 1.492 . S
C3273 C3272 1.393 . S
C3273 C3274 1.392 . S
C3273 H3284 0.930 . S
C3274 C3273 1.392 . S
C3274 C3275 1.386 . S
C3275 C3274 1.386 . S
C3275 C3277 1.395 . S
C3275 H3285 0.930 . S
C3276 C3272 1.395 . S
C3276 C3277 1.379 . S
C3276 H3286 0.930 . S
C3277 C3275 1.395 . S
C3277 C3276 1.379 . S
C3277 H3287 0.930 . S
C3278 O3256 1.264 . S
C3278 O3257 1.254 . S
C3279 Eu3215 2.848 . S
C3279 O3254 1.257 . S
C3279 O3259 1.249 . S
C3279 C3272 1.492 . S
H3280 C3263 0.930 . S
H3281 C3264 0.930 . S
H3282 C3265 0.930 . S
H3283 C3266 0.930 . S
H3284 C3273 0.930 . S
H3285 C3275 0.930 . S
H3286 C3276 0.930 . S
H3287 C3277 0.930 . S
Eu3288 N3319 2.657 . S
Eu3288 N3326 2.609 . S
Eu3288 O3332 2.558 . S
Eu3288 O3333 2.612 . S
Eu3288 O3335 2.339 . S
Eu3288 O3336 2.563 . S
Eu3288 O3337 2.419 . S
Eu3288 O3339 2.380 . S
Eu3288 O3340 2.432 . S
Eu3288 C3352 2.848 . S
C3289 C3292 1.429 . S
C3289 C3293 1.411 . S
C3289 N3296 1.377 . S
C3290 C3292 1.420 . S
C3290 C3294 1.423 . S
C3290 C3302 1.392 . S
C3291 C3293 1.420 . S
C3291 C3294 1.351 . S
C3291 H3314 0.931 . S
C3292 C3289 1.429 . S
C3292 C3290 1.420 . S
C3292 N3300 1.362 . S
C3293 C3289 1.411 . S
C3293 C3291 1.420 . S
C3293 C3298 1.395 . S
C3294 C3290 1.423 . S
C3294 C3291 1.351 . S
C3294 H3306 0.930 . S
C3295 C3297 1.400 . S
C3295 C3298 1.386 . S
C3295 H3307 0.930 . S
N3296 C3289 1.377 . S
N3296 C3297 1.321 . S
N3296 Eu3299 2.609 . S
C3297 C3295 1.400 . S
C3297 N3296 1.321 . S
C3297 H3304 0.930 . S
C3298 C3293 1.395 . S
C3298 C3295 1.386 . S
C3298 H3317 0.930 . S
Eu3299 N3296 2.609 . S
Eu3299 N3300 2.657 . S
Eu3299 O3333 2.380 . S
Eu3299 O3334 2.432 . S
Eu3299 O3338 2.558 . S
Eu3299 O3339 2.612 . S
Eu3299 O3341 2.339 . S
Eu3299 O3342 2.563 . S
Eu3299 O3343 2.419 . S
Eu3299 C3363 2.848 . S
N3300 C3292 1.362 . S
N3300 Eu3299 2.657 . S
N3300 C3301 1.334 . S
C3301 N3300 1.334 . S
C3301 C3303 1.413 . S
C3301 H3308 0.929 . S
C3302 C3290 1.392 . S
C3302 C3303 1.367 . S
C3302 H3310 0.930 . S
C3303 C3301 1.413 . S
C3303 C3302 1.367 . S
C3303 H3305 0.930 . S
H3304 C3297 0.930 . S
H3305 C3303 0.930 . S
H3306 C3294 0.930 . S
H3307 C3295 0.930 . S
H3308 C3301 0.929 . S
H3309 C3323 0.930 . S
H3310 C3302 0.930 . S
H3311 C3329 0.930 . S
H3312 C3320 0.929 . S
H3313 C3327 0.930 . S
H3314 C3291 0.931 . S
H3315 C3321 0.930 . S
H3316 C3354 0.930 . S
H3317 C3298 0.930 . S
H3318 C3353 0.931 . S
N3319 Eu3288 2.657 . S
N3319 C3320 1.334 . S
N3319 C3324 1.362 . S
C3320 H3312 0.929 . S
C3320 N3319 1.334 . S
C3320 C3323 1.413 . S
C3321 H3315 0.930 . S
C3321 C3322 1.392 . S
C3321 C3323 1.367 . S
C3322 C3321 1.392 . S
C3322 C3324 1.420 . S
C3322 C3354 1.423 . S
C3323 H3309 0.930 . S
C3323 C3320 1.413 . S
C3323 C3321 1.367 . S
C3324 N3319 1.362 . S
C3324 C3322 1.420 . S
C3324 C3328 1.429 . S
H3325 C3330 0.930 . S
N3326 Eu3288 2.609 . S
N3326 C3328 1.377 . S
N3326 C3329 1.321 . S
C3327 H3313 0.930 . S
C3327 C3329 1.400 . S
C3327 C3330 1.386 . S
C3328 C3324 1.429 . S
C3328 N3326 1.377 . S
C3328 C3331 1.411 . S
C3329 H3311 0.930 . S
C3329 N3326 1.321 . S
C3329 C3327 1.400 . S
C3330 H3325 0.930 . S
C3330 C3327 1.386 . S
C3330 C3331 1.395 . S
C3331 C3328 1.411 . S
C3331 C3330 1.395 . S
C3331 C3353 1.420 . S
O3332 Eu3288 2.558 . S
O3332 C3352 1.257 . S
O3333 Eu3288 2.612 . S
O3333 Eu3299 2.380 . S
O3333 C3344 1.276 . S
O3334 Eu3299 2.432 . S
O3334 C3351 1.264 . S
O3335 Eu3288 2.339 . S
O3335 C3351 1.254 . S
O3336 Eu3288 2.563 . S
O3336 C3344 1.235 . S
O3337 Eu3288 2.419 . S
O3337 C3352 1.249 . S
O3338 Eu3299 2.558 . S
O3338 C3363 1.257 . S
O3339 Eu3288 2.380 . S
O3339 Eu3299 2.612 . S
O3339 C3355 1.276 . S
O3340 Eu3288 2.432 . S
O3340 C3362 1.264 . S
O3341 Eu3299 2.339 . S
O3341 C3362 1.254 . S
O3342 Eu3299 2.563 . S
O3342 C3355 1.235 . S
O3343 Eu3299 2.419 . S
O3343 C3363 1.249 . S
C3344 O3333 1.276 . S
C3344 O3336 1.235 . S
C3345 C3347 1.393 . S
C3345 C3349 1.395 . S
C3345 C3352 1.492 . S
C3346 C3347 1.392 . S
C3346 C3348 1.386 . S
C3347 C3345 1.393 . S
C3347 C3346 1.392 . S
C3347 H3364 0.930 . S
C3348 C3346 1.386 . S
C3348 C3350 1.395 . S
C3348 H3365 0.930 . S
C3349 C3345 1.395 . S
C3349 C3350 1.379 . S
C3349 H3366 0.930 . S
C3350 C3348 1.395 . S
C3350 C3349 1.379 . S
C3350 H3367 0.930 . S
C3351 O3334 1.264 . S
C3351 O3335 1.254 . S
C3352 Eu3288 2.848 . S
C3352 O3332 1.257 . S
C3352 O3337 1.249 . S
C3352 C3345 1.492 . S
C3353 H3318 0.931 . S
C3353 C3331 1.420 . S
C3353 C3354 1.351 . S
C3354 H3316 0.930 . S
C3354 C3322 1.423 . S
C3354 C3353 1.351 . S
C3355 O3339 1.276 . S
C3355 O3342 1.235 . S
C3356 C3357 1.393 . S
C3356 C3360 1.395 . S
C3356 C3363 1.492 . S
C3357 C3356 1.393 . S
C3357 C3358 1.392 . S
C3357 H3368 0.930 . S
C3358 C3357 1.392 . S
C3358 C3359 1.386 . S
C3359 C3358 1.386 . S
C3359 C3361 1.395 . S
C3359 H3369 0.930 . S
C3360 C3356 1.395 . S
C3360 C3361 1.379 . S
C3360 H3370 0.930 . S
C3361 C3359 1.395 . S
C3361 C3360 1.379 . S
C3361 H3371 0.930 . S
C3362 O3340 1.264 . S
C3362 O3341 1.254 . S
C3363 Eu3299 2.848 . S
C3363 O3338 1.257 . S
C3363 O3343 1.249 . S
C3363 C3356 1.492 . S
H3364 C3347 0.930 . S
H3365 C3348 0.930 . S
H3366 C3349 0.930 . S
H3367 C3350 0.930 . S
H3368 C3357 0.930 . S
H3369 C3359 0.930 . S
H3370 C3360 0.930 . S
H3371 C3361 0.930 . S
Eu3372 N3403 2.657 . S
Eu3372 N3410 2.609 1_554 S
Eu3372 O3416 2.558 1_554 S
Eu3372 O3417 2.612 . S
Eu3372 O3419 2.339 . S
Eu3372 O3420 2.563 1_554 S
Eu3372 O3421 2.419 . S
Eu3372 O3423 2.380 . S
Eu3372 O3424 2.432 1_554 S
Eu3372 C3436 2.848 1_554 S
C3373 C3376 1.429 . S
C3373 C3377 1.411 . S
C3373 N3380 1.377 1_655 S
C3374 C3376 1.420 . S
C3374 C3378 1.423 . S
C3374 C3386 1.392 1_554 S
C3375 C3377 1.420 . S
C3375 C3378 1.351 . S
C3375 H3398 0.931 . S
C3376 C3373 1.429 . S
C3376 C3374 1.420 . S
C3376 N3384 1.362 1_655 S
C3377 C3373 1.411 . S
C3377 C3375 1.420 . S
C3377 C3382 1.395 . S
C3378 C3374 1.423 . S
C3378 C3375 1.351 . S
C3378 H3390 0.930 . S
C3379 C3381 1.400 . S
C3379 C3382 1.386 1_455 S
C3379 H3391 0.930 . S
N3380 C3373 1.377 1_455 S
N3380 C3381 1.321 . S
N3380 Eu3383 2.609 . S
C3381 C3379 1.400 . S
C3381 N3380 1.321 . S
C3381 H3388 0.930 . S
C3382 C3377 1.395 . S
C3382 C3379 1.386 1_655 S
C3382 H3401 0.930 . S
Eu3383 N3380 2.609 . S
Eu3383 N3384 2.657 . S
Eu3383 O3417 2.380 . S
Eu3383 O3418 2.432 . S
Eu3383 O3422 2.558 . S
Eu3383 O3423 2.612 . S
Eu3383 O3425 2.339 1_554 S
Eu3383 O3426 2.563 . S
Eu3383 O3427 2.419 1_455 S
Eu3383 C3447 2.848 1_455 S
N3384 C3376 1.362 1_455 S
N3384 Eu3383 2.657 . S
N3384 C3385 1.334 1_454 S
C3385 N3384 1.334 1_656 S
C3385 C3387 1.413 . S
C3385 H3392 0.929 1_655 S
C3386 C3374 1.392 1_556 S
C3386 C3387 1.367 . S
C3386 H3394 0.930 . S
C3387 C3385 1.413 . S
C3387 C3386 1.367 . S
C3387 H3389 0.930 . S
H3388 C3381 0.930 . S
H3389 C3387 0.930 . S
H3390 C3378 0.930 . S
H3391 C3379 0.930 . S
H3392 C3385 0.929 1_455 S
H3393 C3407 0.930 . S
H3394 C3386 0.930 . S
H3395 C3413 0.930 . S
H3396 C3404 0.929 . S
H3397 C3411 0.930 . S
H3398 C3375 0.931 . S
H3399 C3405 0.930 . S
H3400 C3438 0.930 . S
H3401 C3382 0.930 . S
H3402 C3437 0.931 . S
N3403 Eu3372 2.657 . S
N3403 C3404 1.334 . S
N3403 C3408 1.362 . S
C3404 H3396 0.929 . S
C3404 N3403 1.334 . S
C3404 C3407 1.413 . S
C3405 H3399 0.930 . S
C3405 C3406 1.392 . S
C3405 C3407 1.367 . S
C3406 C3405 1.392 . S
C3406 C3408 1.420 . S
C3406 C3438 1.423 . S
C3407 H3393 0.930 . S
C3407 C3404 1.413 . S
C3407 C3405 1.367 . S
C3408 N3403 1.362 . S
C3408 C3406 1.420 . S
C3408 C3412 1.429 1_554 S
H3409 C3414 0.930 . S
N3410 Eu3372 2.609 1_556 S
N3410 C3412 1.377 . S
N3410 C3413 1.321 . S
C3411 H3397 0.930 . S
C3411 C3413 1.400 . S
C3411 C3414 1.386 . S
C3412 C3408 1.429 1_556 S
C3412 N3410 1.377 . S
C3412 C3415 1.411 . S
C3413 H3395 0.930 . S
C3413 N3410 1.321 . S
C3413 C3411 1.400 . S
C3414 H3409 0.930 . S
C3414 C3411 1.386 . S
C3414 C3415 1.395 . S
C3415 C3412 1.411 . S
C3415 C3414 1.395 . S
C3415 C3437 1.420 . S
O3416 Eu3372 2.558 1_556 S
O3416 C3436 1.257 . S
O3417 Eu3372 2.612 . S
O3417 Eu3383 2.380 . S
O3417 C3428 1.276 . S
O3418 Eu3383 2.432 . S
O3418 C3435 1.264 . S
O3419 Eu3372 2.339 . S
O3419 C3435 1.254 . S
O3420 Eu3372 2.563 1_556 S
O3420 C3428 1.235 1_556 S
O3421 Eu3372 2.419 . S
O3421 C3436 1.249 1_554 S
O3422 Eu3383 2.558 . S
O3422 C3447 1.257 1_455 S
O3423 Eu3372 2.380 . S
O3423 Eu3383 2.612 . S
O3423 C3439 1.276 . S
O3424 Eu3372 2.432 1_556 S
O3424 C3446 1.264 . S
O3425 Eu3383 2.339 1_556 S
O3425 C3446 1.254 . S
O3426 Eu3383 2.563 . S
O3426 C3439 1.235 . S
O3427 Eu3383 2.419 1_655 S
O3427 C3447 1.249 . S
C3428 O3417 1.276 . S
C3428 O3420 1.235 1_554 S
C3429 C3431 1.393 1_556 S
C3429 C3433 1.395 . S
C3429 C3436 1.492 . S
C3430 C3431 1.392 1_556 S
C3430 C3432 1.386 . S
C3431 C3429 1.393 1_554 S
C3431 C3430 1.392 1_554 S
C3431 H3448 0.930 . S
C3432 C3430 1.386 . S
C3432 C3434 1.395 . S
C3432 H3449 0.930 . S
C3433 C3429 1.395 . S
C3433 C3434 1.379 . S
C3433 H3450 0.930 . S
C3434 C3432 1.395 . S
C3434 C3433 1.379 . S
C3434 H3451 0.930 . S
C3435 O3418 1.264 . S
C3435 O3419 1.254 . S
C3436 Eu3372 2.848 1_556 S
C3436 O3416 1.257 . S
C3436 O3421 1.249 1_556 S
C3436 C3429 1.492 . S
C3437 H3402 0.931 . S
C3437 C3415 1.420 . S
C3437 C3438 1.351 1_556 S
C3438 H3400 0.930 . S
C3438 C3406 1.423 . S
C3438 C3437 1.351 1_554 S
C3439 O3423 1.276 . S
C3439 O3426 1.235 . S
C3440 C3441 1.393 . S
C3440 C3444 1.395 . S
C3440 C3447 1.492 . S
C3441 C3440 1.393 . S
C3441 C3442 1.392 . S
C3441 H3452 0.930 . S
C3442 C3441 1.392 . S
C3442 C3443 1.386 . S
C3443 C3442 1.386 . S
C3443 C3445 1.395 . S
C3443 H3453 0.930 . S
C3444 C3440 1.395 . S
C3444 C3445 1.379 . S
C3444 H3454 0.930 . S
C3445 C3443 1.395 . S
C3445 C3444 1.379 . S
C3445 H3455 0.930 . S
C3446 O3424 1.264 . S
C3446 O3425 1.254 . S
C3447 Eu3383 2.848 1_655 S
C3447 O3422 1.257 1_655 S
C3447 O3427 1.249 . S
C3447 C3440 1.492 . S
H3448 C3431 0.930 . S
H3449 C3432 0.930 . S
H3450 C3433 0.930 . S
H3451 C3434 0.930 . S
H3452 C3441 0.930 . S
H3453 C3443 0.930 . S
H3454 C3444 0.930 . S
H3455 C3445 0.930 . S
H3456 C3462 0.930 1_655 S
H3457 C3465 0.929 . S
H3458 C3466 0.930 . S
H3459 C3467 0.930 . S
H3460 C3470 0.930 . S
H3461 C3471 0.930 1_655 S
C3462 H3456 0.930 1_455 S
C3462 C3463 1.355 . S
C3462 C3464 1.415 . S
C3463 C3462 1.355 . S
C3463 C3465 1.420 1_554 S
C3464 C3462 1.415 . S
C3464 C3469 1.425 . S
C3464 C3471 1.409 . S
C3465 H3457 0.929 . S
C3465 C3463 1.420 1_556 S
C3465 C3466 1.363 1_556 S
C3466 H3458 0.930 . S
C3466 C3465 1.363 1_554 S
C3466 C3469 1.409 . S
C3467 H3459 0.930 . S
C3467 C3468 1.355 . S
C3467 C3469 1.415 . S
C3468 C3467 1.355 . S
C3468 C3470 1.419 . S
C3469 C3464 1.425 . S
C3469 C3466 1.409 . S
C3469 C3467 1.415 . S
C3470 H3460 0.930 . S
C3470 C3468 1.419 . S
C3470 C3471 1.362 . S
C3471 H3461 0.930 1_455 S
C3471 C3464 1.409 . S
C3471 C3470 1.362 . S
H3472 C3478 0.930 . S
H3473 C3481 0.930 . S
H3474 C3482 0.930 . S
H3475 C3483 0.930 . S
H3476 C3486 0.930 . S
H3477 C3487 0.930 . S
C3478 H3472 0.930 . S
C3478 C3479 1.355 . S
C3478 C3480 1.415 . S
C3479 C3478 1.355 . S
C3479 C3481 1.419 . S
C3480 C3478 1.415 . S
C3480 C3485 1.425 . S
C3480 C3487 1.409 . S
C3481 H3473 0.930 . S
C3481 C3479 1.419 . S
C3481 C3482 1.362 . S
C3482 H3474 0.930 . S
C3482 C3481 1.362 . S
C3482 C3485 1.409 . S
C3483 H3475 0.930 . S
C3483 C3484 1.355 . S
C3483 C3485 1.415 . S
C3484 C3483 1.355 . S
C3484 C3486 1.419 . S
C3485 C3480 1.425 . S
C3485 C3482 1.409 . S
C3485 C3483 1.415 . S
C3486 H3476 0.930 . S
C3486 C3484 1.419 . S
C3486 C3487 1.362 . S
C3487 H3477 0.930 . S
C3487 C3480 1.409 . S
C3487 C3486 1.362 . S
H3488 C3494 0.930 . S
H3489 C3497 0.930 . S
H3490 C3498 0.930 . S
H3491 C3499 0.930 . S
H3492 C3502 0.930 . S
H3493 C3503 0.930 . S
C3494 H3488 0.930 . S
C3494 C3495 1.355 . S
C3494 C3496 1.415 . S
C3495 C3494 1.355 . S
C3495 C3497 1.419 . S
C3496 C3494 1.415 . S
C3496 C3501 1.425 . S
C3496 C3503 1.409 . S
C3497 H3489 0.930 . S
C3497 C3495 1.419 . S
C3497 C3498 1.362 . S
C3498 H3490 0.930 . S
C3498 C3497 1.362 . S
C3498 C3501 1.409 . S
C3499 H3491 0.930 . S
C3499 C3500 1.355 . S
C3499 C3501 1.415 . S
C3500 C3499 1.355 . S
C3500 C3502 1.419 . S
C3501 C3496 1.425 . S
C3501 C3498 1.409 . S
C3501 C3499 1.415 . S
C3502 H3492 0.930 . S
C3502 C3500 1.419 . S
C3502 C3503 1.362 . S
C3503 H3493 0.930 . S
C3503 C3496 1.409 . S
C3503 C3502 1.362 . S
H3504 C3510 0.930 . S
H3505 C3513 0.930 . S
H3506 C3514 0.930 . S
H3507 C3515 0.930 . S
H3508 C3518 0.930 . S
H3509 C3519 0.930 . S
C3510 H3504 0.930 . S
C3510 C3511 1.355 . S
C3510 C3512 1.415 . S
C3511 C3510 1.355 . S
C3511 C3513 1.419 . S
C3512 C3510 1.415 . S
C3512 C3517 1.425 . S
C3512 C3519 1.409 . S
C3513 H3505 0.930 . S
C3513 C3511 1.419 . S
C3513 C3514 1.362 . S
C3514 H3506 0.930 . S
C3514 C3513 1.362 . S
C3514 C3517 1.409 . S
C3515 H3507 0.930 . S
C3515 C3516 1.355 . S
C3515 C3517 1.415 . S
C3516 C3515 1.355 . S
C3516 C3518 1.419 . S
C3517 C3512 1.425 . S
C3517 C3514 1.409 . S
C3517 C3515 1.415 . S
C3518 H3508 0.930 . S
C3518 C3516 1.419 . S
C3518 C3519 1.362 . S
C3519 H3509 0.930 . S
C3519 C3512 1.409 . S
C3519 C3518 1.362 . S
H3520 C3526 0.930 1_655 S
H3521 C3529 0.930 . S
H3522 C3530 0.930 . S
H3523 C3531 0.930 . S
H3524 C3534 0.930 . S
H3525 C3535 0.930 1_655 S
C3526 H3520 0.930 1_455 S
C3526 C3527 1.355 . S
C3526 C3528 1.415 . S
C3527 C3526 1.355 . S
C3527 C3529 1.419 . S
C3528 C3526 1.415 . S
C3528 C3533 1.425 . S
C3528 C3535 1.409 . S
C3529 H3521 0.930 . S
C3529 C3527 1.419 . S
C3529 C3530 1.362 . S
C3530 H3522 0.930 . S
C3530 C3529 1.362 . S
C3530 C3533 1.409 . S
C3531 H3523 0.930 . S
C3531 C3532 1.355 . S
C3531 C3533 1.415 . S
C3532 C3531 1.355 . S
C3532 C3534 1.419 . S
C3533 C3528 1.425 . S
C3533 C3530 1.409 . S
C3533 C3531 1.415 . S
C3534 H3524 0.930 . S
C3534 C3532 1.419 . S
C3534 C3535 1.362 . S
C3535 H3525 0.930 1_455 S
C3535 C3528 1.409 . S
C3535 C3534 1.362 . S
H3536 C3542 0.930 . S
H3537 C3545 0.930 . S
H3538 C3546 0.930 . S
H3539 C3547 0.930 . S
H3540 C3550 0.930 . S
H3541 C3551 0.930 . S
C3542 H3536 0.930 . S
C3542 C3543 1.355 . S
C3542 C3544 1.415 . S
C3543 C3542 1.355 . S
C3543 C3545 1.419 . S
C3544 C3542 1.415 . S
C3544 C3549 1.425 . S
C3544 C3551 1.409 . S
C3545 H3537 0.930 . S
C3545 C3543 1.419 . S
C3545 C3546 1.362 . S
C3546 H3538 0.930 . S
C3546 C3545 1.362 . S
C3546 C3549 1.409 . S
C3547 H3539 0.930 . S
C3547 C3548 1.355 . S
C3547 C3549 1.415 . S
C3548 C3547 1.355 . S
C3548 C3550 1.419 . S
C3549 C3544 1.425 . S
C3549 C3546 1.409 . S
C3549 C3547 1.415 . S
C3550 H3540 0.930 . S
C3550 C3548 1.419 . S
C3550 C3551 1.362 . S
C3551 H3541 0.930 . S
C3551 C3544 1.409 . S
C3551 C3550 1.362 . S
H3552 C3558 0.930 . S
H3553 C3561 0.930 . S
H3554 C3562 0.930 . S
H3555 C3563 0.930 . S
H3556 C3566 0.930 . S
H3557 C3567 0.930 . S
C3558 H3552 0.930 . S
C3558 C3559 1.355 . S
C3558 C3560 1.415 . S
C3559 C3558 1.355 . S
C3559 C3561 1.419 . S
C3560 C3558 1.415 . S
C3560 C3565 1.425 . S
C3560 C3567 1.409 . S
C3561 H3553 0.930 . S
C3561 C3559 1.419 . S
C3561 C3562 1.362 . S
C3562 H3554 0.930 . S
C3562 C3561 1.362 . S
C3562 C3565 1.409 . S
C3563 H3555 0.930 . S
C3563 C3564 1.355 . S
C3563 C3565 1.415 . S
C3564 C3563 1.355 . S
C3564 C3566 1.419 . S
C3565 C3560 1.425 . S
C3565 C3562 1.409 . S
C3565 C3563 1.415 . S
C3566 H3556 0.930 . S
C3566 C3564 1.419 . S
C3566 C3567 1.362 . S
C3567 H3557 0.930 . S
C3567 C3560 1.409 . S
C3567 C3566 1.362 . S
H3568 C3574 0.930 . S
H3569 C3577 0.930 . S
H3570 C3578 0.930 . S
H3571 C3579 0.930 . S
H3572 C3582 0.930 . S
H3573 C3583 0.930 . S
C3574 H3568 0.930 . S
C3574 C3575 1.355 . S
C3574 C3576 1.415 . S
C3575 C3574 1.355 . S
C3575 C3577 1.419 . S
C3576 C3574 1.415 . S
C3576 C3581 1.425 . S
C3576 C3583 1.409 . S
C3577 H3569 0.930 . S
C3577 C3575 1.419 . S
C3577 C3578 1.362 . S
C3578 H3570 0.930 . S
C3578 C3577 1.362 . S
C3578 C3581 1.409 . S
C3579 H3571 0.930 . S
C3579 C3580 1.355 . S
C3579 C3581 1.415 . S
C3580 C3579 1.355 . S
C3580 C3582 1.419 . S
C3581 C3576 1.425 . S
C3581 C3578 1.409 . S
C3581 C3579 1.415 . S
C3582 H3572 0.930 . S
C3582 C3580 1.419 . S
C3582 C3583 1.362 . S
C3583 H3573 0.930 . S
C3583 C3576 1.409 . S
C3583 C3582 1.362 . S
H3584 C3590 0.930 . S
H3585 C3593 0.930 . S
H3586 C3594 0.930 . S
H3587 C3595 0.930 . S
H3588 C3598 0.930 . S
H3589 C3599 0.930 . S
C3590 H3584 0.930 . S
C3590 C3591 1.355 . S
C3590 C3592 1.415 . S
C3591 C3590 1.355 . S
C3591 C3593 1.419 1_455 S
C3592 C3590 1.415 . S
C3592 C3597 1.425 . S
C3592 C3599 1.409 . S
C3593 H3585 0.930 . S
C3593 C3591 1.419 1_655 S
C3593 C3594 1.362 . S
C3594 H3586 0.930 . S
C3594 C3593 1.362 . S
C3594 C3597 1.409 1_655 S
C3595 H3587 0.930 . S
C3595 C3596 1.355 . S
C3595 C3597 1.415 . S
C3596 C3595 1.355 . S
C3596 C3598 1.419 . S
C3597 C3592 1.425 . S
C3597 C3594 1.409 1_455 S
C3597 C3595 1.415 . S
C3598 H3588 0.930 . S
C3598 C3596 1.419 . S
C3598 C3599 1.362 . S
C3599 H3589 0.930 . S
C3599 C3592 1.409 . S
C3599 C3598 1.362 . S
H3600 C3606 0.930 . S
H3601 C3609 0.930 . S
H3602 C3610 0.930 . S
H3603 C3611 0.930 . S
H3604 C3614 0.930 . S
H3605 C3615 0.930 . S
C3606 H3600 0.930 . S
C3606 C3607 1.355 . S
C3606 C3608 1.415 . S
C3607 C3606 1.355 . S
C3607 C3609 1.419 . S
C3608 C3606 1.415 . S
C3608 C3613 1.425 . S
C3608 C3615 1.409 . S
C3609 H3601 0.930 . S
C3609 C3607 1.419 . S
C3609 C3610 1.362 . S
C3610 H3602 0.930 . S
C3610 C3609 1.362 . S
C3610 C3613 1.409 . S
C3611 H3603 0.930 . S
C3611 C3612 1.355 . S
C3611 C3613 1.415 . S
C3612 C3611 1.355 . S
C3612 C3614 1.419 . S
C3613 C3608 1.425 . S
C3613 C3610 1.409 . S
C3613 C3611 1.415 . S
C3614 H3604 0.930 . S
C3614 C3612 1.419 . S
C3614 C3615 1.362 . S
C3615 H3605 0.930 . S
C3615 C3608 1.409 . S
C3615 C3614 1.362 . S
H3616 C3622 0.930 . S
H3617 C3625 0.930 . S
H3618 C3626 0.930 . S
H3619 C3627 0.930 . S
H3620 C3630 0.930 . S
H3621 C3631 0.930 . S
C3622 H3616 0.930 . S
C3622 C3623 1.355 . S
C3622 C3624 1.415 . S
C3623 C3622 1.355 . S
C3623 C3625 1.419 . S
C3624 C3622 1.415 . S
C3624 C3629 1.425 . S
C3624 C3631 1.409 . S
C3625 H3617 0.930 . S
C3625 C3623 1.419 . S
C3625 C3626 1.362 . S
C3626 H3618 0.930 . S
C3626 C3625 1.362 . S
C3626 C3629 1.409 . S
C3627 H3619 0.930 . S
C3627 C3628 1.355 . S
C3627 C3629 1.415 . S
C3628 C3627 1.355 . S
C3628 C3630 1.419 . S
C3629 C3624 1.425 . S
C3629 C3626 1.409 . S
C3629 C3627 1.415 . S
C3630 H3620 0.930 . S
C3630 C3628 1.419 . S
C3630 C3631 1.362 . S
C3631 H3621 0.930 . S
C3631 C3624 1.409 . S
C3631 C3630 1.362 . S
H3632 C3638 0.930 . S
H3633 C3641 0.930 . S
H3634 C3642 0.930 . S
H3635 C3643 0.930 . S
H3636 C3646 0.930 . S
H3637 C3647 0.930 . S
C3638 H3632 0.930 . S
C3638 C3639 1.355 . S
C3638 C3640 1.415 . S
C3639 C3638 1.355 . S
C3639 C3641 1.419 . S
C3640 C3638 1.415 . S
C3640 C3645 1.425 . S
C3640 C3647 1.409 . S
C3641 H3633 0.930 . S
C3641 C3639 1.419 . S
C3641 C3642 1.362 . S
C3642 H3634 0.930 . S
C3642 C3641 1.362 . S
C3642 C3645 1.409 . S
C3643 H3635 0.930 . S
C3643 C3644 1.355 . S
C3643 C3645 1.415 . S
C3644 C3643 1.355 . S
C3644 C3646 1.419 . S
C3645 C3640 1.425 . S
C3645 C3642 1.409 . S
C3645 C3643 1.415 . S
C3646 H3636 0.930 . S
C3646 C3644 1.419 . S
C3646 C3647 1.362 . S
C3647 H3637 0.930 . S
C3647 C3640 1.409 . S
C3647 C3646 1.362 . S
H3648 C3654 0.930 . S
H3649 C3657 0.930 . S
H3650 C3658 0.930 . S
H3651 C3659 0.930 . S
H3652 C3662 0.930 . S
H3653 C3663 0.930 . S
C3654 H3648 0.930 . S
C3654 C3655 1.355 . S
C3654 C3656 1.415 . S
C3655 C3654 1.355 . S
C3655 C3657 1.419 . S
C3656 C3654 1.415 . S
C3656 C3661 1.425 . S
C3656 C3663 1.409 . S
C3657 H3649 0.930 . S
C3657 C3655 1.419 . S
C3657 C3658 1.362 . S
C3658 H3650 0.930 . S
C3658 C3657 1.362 . S
C3658 C3661 1.409 . S
C3659 H3651 0.930 . S
C3659 C3660 1.355 . S
C3659 C3661 1.415 . S
C3660 C3659 1.355 . S
C3660 C3662 1.419 . S
C3661 C3656 1.425 . S
C3661 C3658 1.409 . S
C3661 C3659 1.415 . S
C3662 H3652 0.930 . S
C3662 C3660 1.419 . S
C3662 C3663 1.362 . S
C3663 H3653 0.930 . S
C3663 C3656 1.409 . S
C3663 C3662 1.362 . S
H3664 C3670 0.930 . S
H3665 C3673 0.930 . S
H3666 C3674 0.930 . S
H3667 C3675 0.930 . S
H3668 C3678 0.930 . S
H3669 C3679 0.930 . S
C3670 H3664 0.930 . S
C3670 C3671 1.355 . S
C3670 C3672 1.415 . S
C3671 C3670 1.355 . S
C3671 C3673 1.419 . S
C3672 C3670 1.415 . S
C3672 C3677 1.425 . S
C3672 C3679 1.409 . S
C3673 H3665 0.930 . S
C3673 C3671 1.419 . S
C3673 C3674 1.362 . S
C3674 H3666 0.930 . S
C3674 C3673 1.362 . S
C3674 C3677 1.409 . S
C3675 H3667 0.930 . S
C3675 C3676 1.355 . S
C3675 C3677 1.415 . S
C3676 C3675 1.355 . S
C3676 C3678 1.419 . S
C3677 C3672 1.425 . S
C3677 C3674 1.409 . S
C3677 C3675 1.415 . S
C3678 H3668 0.930 . S
C3678 C3676 1.419 . S
C3678 C3679 1.362 . S
C3679 H3669 0.930 . S
C3679 C3672 1.409 . S
C3679 C3678 1.362 . S
H3680 C3686 0.930 . S
H3681 C3689 0.930 . S
H3682 C3690 0.930 . S
H3683 C3691 0.930 . S
H3684 C3694 0.930 . S
H3685 C3695 0.930 . S
C3686 H3680 0.930 . S
C3686 C3687 1.355 . S
C3686 C3688 1.415 . S
C3687 C3686 1.355 . S
C3687 C3689 1.419 . S
C3688 C3686 1.415 . S
C3688 C3693 1.425 . S
C3688 C3695 1.409 . S
C3689 H3681 0.930 . S
C3689 C3687 1.419 . S
C3689 C3690 1.362 . S
C3690 H3682 0.930 . S
C3690 C3689 1.362 . S
C3690 C3693 1.409 . S
C3691 H3683 0.930 . S
C3691 C3692 1.355 . S
C3691 C3693 1.415 . S
C3692 C3691 1.355 . S
C3692 C3694 1.419 . S
C3693 C3688 1.425 . S
C3693 C3690 1.409 . S
C3693 C3691 1.415 . S
C3694 H3684 0.930 . S
C3694 C3692 1.419 . S
C3694 C3695 1.362 . S
C3695 H3685 0.930 . S
C3695 C3688 1.409 . S
C3695 C3694 1.362 . S
H3696 C3702 0.930 . S
H3697 C3705 0.930 . S
H3698 C3706 0.930 . S
H3699 C3707 0.930 . S
H3700 C3710 0.930 . S
H3701 C3711 0.930 . S
C3702 H3696 0.930 . S
C3702 C3703 1.355 . S
C3702 C3704 1.415 . S
C3703 C3702 1.355 . S
C3703 C3705 1.419 . S
C3704 C3702 1.415 . S
C3704 C3709 1.425 . S
C3704 C3711 1.409 . S
C3705 H3697 0.930 . S
C3705 C3703 1.419 . S
C3705 C3706 1.362 . S
C3706 H3698 0.930 . S
C3706 C3705 1.362 . S
C3706 C3709 1.409 . S
C3707 H3699 0.930 . S
C3707 C3708 1.355 . S
C3707 C3709 1.415 . S
C3708 C3707 1.355 . S
C3708 C3710 1.419 . S
C3709 C3704 1.425 . S
C3709 C3706 1.409 . S
C3709 C3707 1.415 . S
C3710 H3700 0.930 . S
C3710 C3708 1.419 . S
C3710 C3711 1.362 . S
C3711 H3701 0.930 . S
C3711 C3704 1.409 . S
C3711 C3710 1.362 . S
H3712 C3718 0.930 1_556 S
H3713 C3721 0.930 . S
H3714 C3722 0.930 . S
H3715 C3723 0.930 . S
H3716 C3726 0.930 . S
H3717 C3727 0.930 1_556 S
C3718 H3712 0.930 1_554 S
C3718 C3719 1.355 . S
C3718 C3720 1.415 . S
C3719 C3718 1.355 . S
C3719 C3721 1.419 1_565 S
C3720 C3718 1.415 . S
C3720 C3725 1.425 1_565 S
C3720 C3727 1.409 . S
C3721 H3713 0.930 . S
C3721 C3719 1.419 1_545 S
C3721 C3722 1.362 . S
C3722 H3714 0.930 . S
C3722 C3721 1.362 . S
C3722 C3725 1.409 . S
C3723 H3715 0.930 . S
C3723 C3724 1.355 . S
C3723 C3725 1.415 . S
C3724 C3723 1.355 . S
C3724 C3726 1.419 1_545 S
C3725 C3720 1.425 1_545 S
C3725 C3722 1.409 . S
C3725 C3723 1.415 . S
C3726 H3716 0.930 . S
C3726 C3724 1.419 1_565 S
C3726 C3727 1.362 . S
C3727 H3717 0.930 1_554 S
C3727 C3720 1.409 . S
C3727 C3726 1.362 . S
H3728 C3734 0.930 . S
H3729 C3737 0.930 . S
H3730 C3738 0.930 . S
H3731 C3739 0.930 . S
H3732 C3742 0.930 . S
H3733 C3743 0.937 . S
C3734 H3728 0.930 . S
C3734 C3735 1.355 . S
C3734 C3736 1.415 . S
C3735 C3734 1.355 . S
C3735 C3737 1.419 . S
C3736 C3734 1.415 . S
C3736 C3741 1.425 . S
C3736 C3743 1.396 1_556 S
C3737 H3729 0.930 . S
C3737 C3735 1.419 . S
C3737 C3738 1.362 . S
C3738 H3730 0.930 . S
C3738 C3737 1.362 . S
C3738 C3741 1.409 . S
C3739 H3731 0.930 . S
C3739 C3740 1.342 1_556 S
C3739 C3741 1.415 . S
C3740 C3739 1.342 1_554 S
C3740 C3742 1.425 . S
C3741 C3736 1.425 . S
C3741 C3738 1.409 . S
C3741 C3739 1.415 . S
C3742 H3732 0.930 . S
C3742 C3740 1.425 . S
C3742 C3743 1.369 . S
C3743 H3733 0.937 . S
C3743 C3736 1.396 1_554 S
C3743 C3742 1.369 . S
H3744 C3750 0.930 . S
H3745 C3753 0.930 . S
H3746 C3754 0.930 . S
H3747 C3755 0.930 . S
H3748 C3758 0.930 . S
H3749 C3759 0.930 . S
C3750 H3744 0.930 . S
C3750 C3751 1.355 . S
C3750 C3752 1.415 . S
C3751 C3750 1.355 . S
C3751 C3753 1.419 . S
C3752 C3750 1.415 . S
C3752 C3757 1.425 . S
C3752 C3759 1.409 . S
C3753 H3745 0.930 . S
C3753 C3751 1.419 . S
C3753 C3754 1.362 . S
C3754 H3746 0.930 . S
C3754 C3753 1.362 . S
C3754 C3757 1.409 . S
C3755 H3747 0.930 . S
C3755 C3756 1.355 . S
C3755 C3757 1.415 . S
C3756 C3755 1.355 . S
C3756 C3758 1.419 . S
C3757 C3752 1.425 . S
C3757 C3754 1.409 . S
C3757 C3755 1.415 . S
C3758 H3748 0.930 . S
C3758 C3756 1.419 . S
C3758 C3759 1.362 . S
C3759 H3749 0.930 . S
C3759 C3752 1.409 . S
C3759 C3758 1.362 . S
H3760 C3766 0.930 . S
H3761 C3769 0.930 . S
H3762 C3770 0.930 . S
H3763 C3771 0.930 1_455 S
H3764 C3774 0.930 . S
H3765 C3775 0.930 . S
C3766 H3760 0.930 . S
C3766 C3767 1.355 . S
C3766 C3768 1.415 . S
C3767 C3766 1.355 . S
C3767 C3769 1.419 . S
C3768 C3766 1.415 . S
C3768 C3773 1.425 . S
C3768 C3775 1.409 . S
C3769 H3761 0.930 . S
C3769 C3767 1.419 . S
C3769 C3770 1.362 . S
C3770 H3762 0.930 . S
C3770 C3769 1.362 . S
C3770 C3773 1.409 . S
C3771 H3763 0.930 1_655 S
C3771 C3772 1.355 1_655 S
C3771 C3773 1.415 . S
C3772 C3771 1.355 1_455 S
C3772 C3774 1.419 . S
C3773 C3768 1.425 . S
C3773 C3770 1.409 . S
C3773 C3771 1.415 . S
C3774 H3764 0.930 . S
C3774 C3772 1.419 . S
C3774 C3775 1.362 1_455 S
C3775 H3765 0.930 . S
C3775 C3768 1.409 . S
C3775 C3774 1.362 1_655 S
H3776 C3782 0.930 . S
H3777 C3785 0.930 . S
H3778 C3786 0.930 . S
H3779 C3787 0.930 . S
H3780 C3790 0.930 . S
H3781 C3791 0.930 . S
C3782 H3776 0.930 . S
C3782 C3783 1.355 . S
C3782 C3784 1.415 . S
C3783 C3782 1.355 . S
C3783 C3785 1.419 . S
C3784 C3782 1.415 . S
C3784 C3789 1.425 . S
C3784 C3791 1.409 . S
C3785 H3777 0.930 . S
C3785 C3783 1.419 . S
C3785 C3786 1.362 . S
C3786 H3778 0.930 . S
C3786 C3785 1.362 . S
C3786 C3789 1.409 . S
C3787 H3779 0.930 . S
C3787 C3788 1.355 . S
C3787 C3789 1.415 . S
C3788 C3787 1.355 . S
C3788 C3790 1.419 . S
C3789 C3784 1.425 . S
C3789 C3786 1.409 . S
C3789 C3787 1.415 . S
C3790 H3780 0.930 . S
C3790 C3788 1.419 . S
C3790 C3791 1.362 . S
C3791 H3781 0.930 . S
C3791 C3784 1.409 . S
C3791 C3790 1.362 . S
H3792 C3798 0.930 . S
H3793 C3801 0.930 . S
H3794 C3802 0.930 . S
H3795 C3803 0.930 . S
H3796 C3806 0.930 . S
H3797 C3807 0.930 . S
C3798 H3792 0.930 . S
C3798 C3799 1.355 . S
C3798 C3800 1.415 . S
C3799 C3798 1.355 . S
C3799 C3801 1.419 . S
C3800 C3798 1.415 . S
C3800 C3805 1.425 . S
C3800 C3807 1.409 . S
C3801 H3793 0.930 . S
C3801 C3799 1.419 . S
C3801 C3802 1.362 . S
C3802 H3794 0.930 . S
C3802 C3801 1.362 . S
C3802 C3805 1.409 . S
C3803 H3795 0.930 . S
C3803 C3804 1.355 . S
C3803 C3805 1.415 . S
C3804 C3803 1.355 . S
C3804 C3806 1.419 . S
C3805 C3800 1.425 . S
C3805 C3802 1.409 . S
C3805 C3803 1.415 . S
C3806 H3796 0.930 . S
C3806 C3804 1.419 . S
C3806 C3807 1.362 . S
C3807 H3797 0.930 . S
C3807 C3800 1.409 . S
C3807 C3806 1.362 . S
H3808 C3814 0.930 . S
H3809 C3817 0.930 . S
H3810 C3818 0.930 . S
H3811 C3819 0.930 . S
H3812 C3822 0.930 . S
H3813 C3823 0.930 . S
C3814 H3808 0.930 . S
C3814 C3815 1.355 . S
C3814 C3816 1.415 . S
C3815 C3814 1.355 . S
C3815 C3817 1.419 . S
C3816 C3814 1.415 . S
C3816 C3821 1.425 . S
C3816 C3823 1.409 . S
C3817 H3809 0.930 . S
C3817 C3815 1.419 . S
C3817 C3818 1.362 . S
C3818 H3810 0.930 . S
C3818 C3817 1.362 . S
C3818 C3821 1.409 . S
C3819 H3811 0.930 . S
C3819 C3820 1.355 . S
C3819 C3821 1.415 . S
C3820 C3819 1.355 . S
C3820 C3822 1.419 . S
C3821 C3816 1.425 . S
C3821 C3818 1.409 . S
C3821 C3819 1.415 . S
C3822 H3812 0.930 . S
C3822 C3820 1.419 . S
C3822 C3823 1.362 . S
C3823 H3813 0.930 . S
C3823 C3816 1.409 . S
C3823 C3822 1.362 . S
H3824 C3830 0.930 . S
H3825 C3833 0.930 . S
H3826 C3834 0.930 . S
H3827 C3835 0.930 . S
H3828 C3838 0.930 . S
H3829 C3839 0.930 . S
C3830 H3824 0.930 . S
C3830 C3831 1.355 . S
C3830 C3832 1.415 . S
C3831 C3830 1.355 . S
C3831 C3833 1.419 . S
C3832 C3830 1.415 . S
C3832 C3837 1.425 . S
C3832 C3839 1.409 . S
C3833 H3825 0.930 . S
C3833 C3831 1.419 . S
C3833 C3834 1.362 . S
C3834 H3826 0.930 . S
C3834 C3833 1.362 . S
C3834 C3837 1.409 . S
C3835 H3827 0.930 . S
C3835 C3836 1.355 . S
C3835 C3837 1.415 . S
C3836 C3835 1.355 . S
C3836 C3838 1.419 . S
C3837 C3832 1.425 . S
C3837 C3834 1.409 . S
C3837 C3835 1.415 . S
C3838 H3828 0.930 . S
C3838 C3836 1.419 . S
C3838 C3839 1.362 . S
C3839 H3829 0.930 . S
C3839 C3832 1.409 . S
C3839 C3838 1.362 . S
H3840 C3846 0.930 . S
H3841 C3849 0.930 . S
H3842 C3850 0.930 . S
H3843 C3851 0.930 . S
H3844 C3854 0.930 . S
H3845 C3855 0.930 . S
C3846 H3840 0.930 . S
C3846 C3847 1.355 . S
C3846 C3848 1.415 . S
C3847 C3846 1.355 . S
C3847 C3849 1.419 . S
C3848 C3846 1.415 . S
C3848 C3853 1.425 . S
C3848 C3855 1.409 . S
C3849 H3841 0.930 . S
C3849 C3847 1.419 . S
C3849 C3850 1.362 . S
C3850 H3842 0.930 . S
C3850 C3849 1.362 . S
C3850 C3853 1.409 . S
C3851 H3843 0.930 . S
C3851 C3852 1.355 . S
C3851 C3853 1.415 . S
C3852 C3851 1.355 . S
C3852 C3854 1.419 . S
C3853 C3848 1.425 . S
C3853 C3850 1.409 . S
C3853 C3851 1.415 . S
C3854 H3844 0.930 . S
C3854 C3852 1.419 . S
C3854 C3855 1.362 . S
C3855 H3845 0.930 . S
C3855 C3848 1.409 . S
C3855 C3854 1.362 . S
H3856 C3862 0.930 . S
H3857 C3865 0.930 . S
H3858 C3866 0.930 . S
H3859 C3867 0.930 . S
H3860 C3870 0.930 . S
H3861 C3871 0.930 . S
C3862 H3856 0.930 . S
C3862 C3863 1.355 . S
C3862 C3864 1.415 . S
C3863 C3862 1.355 . S
C3863 C3865 1.419 . S
C3864 C3862 1.415 . S
C3864 C3869 1.425 . S
C3864 C3871 1.409 . S
C3865 H3857 0.930 . S
C3865 C3863 1.419 . S
C3865 C3866 1.362 . S
C3866 H3858 0.930 . S
C3866 C3865 1.362 . S
C3866 C3869 1.409 . S
C3867 H3859 0.930 . S
C3867 C3868 1.355 . S
C3867 C3869 1.415 . S
C3868 C3867 1.355 . S
C3868 C3870 1.419 . S
C3869 C3864 1.425 . S
C3869 C3866 1.409 . S
C3869 C3867 1.415 . S
C3870 H3860 0.930 . S
C3870 C3868 1.419 . S
C3870 C3871 1.362 . S
C3871 H3861 0.930 . S
C3871 C3864 1.409 . S
C3871 C3870 1.362 . S
H3872 C3878 0.930 . S
H3873 C3881 0.930 . S
H3874 C3882 0.930 . S
H3875 C3883 0.930 . S
H3876 C3886 0.930 . S
H3877 C3887 0.930 . S
C3878 H3872 0.930 . S
C3878 C3879 1.355 . S
C3878 C3880 1.415 . S
C3879 C3878 1.355 . S
C3879 C3881 1.419 . S
C3880 C3878 1.415 . S
C3880 C3885 1.425 . S
C3880 C3887 1.409 . S
C3881 H3873 0.930 . S
C3881 C3879 1.419 . S
C3881 C3882 1.362 . S
C3882 H3874 0.930 . S
C3882 C3881 1.362 . S
C3882 C3885 1.409 . S
C3883 H3875 0.930 . S
C3883 C3884 1.355 . S
C3883 C3885 1.415 . S
C3884 C3883 1.355 . S
C3884 C3886 1.419 . S
C3885 C3880 1.425 . S
C3885 C3882 1.409 . S
C3885 C3883 1.415 . S
C3886 H3876 0.930 . S
C3886 C3884 1.419 . S
C3886 C3887 1.362 . S
C3887 H3877 0.930 . S
C3887 C3880 1.409 . S
C3887 C3886 1.362 . S
H3888 C3894 0.930 . S
H3889 C3897 0.930 . S
H3890 C3898 0.930 . S
H3891 C3899 0.930 . S
H3892 C3902 0.930 . S
H3893 C3903 0.930 . S
C3894 H3888 0.930 . S
C3894 C3895 1.355 . S
C3894 C3896 1.415 . S
C3895 C3894 1.355 . S
C3895 C3897 1.419 . S
C3896 C3894 1.415 . S
C3896 C3901 1.425 . S
C3896 C3903 1.409 . S
C3897 H3889 0.930 . S
C3897 C3895 1.419 . S
C3897 C3898 1.362 . S
C3898 H3890 0.930 . S
C3898 C3897 1.362 . S
C3898 C3901 1.409 . S
C3899 H3891 0.930 . S
C3899 C3900 1.355 . S
C3899 C3901 1.415 . S
C3900 C3899 1.355 . S
C3900 C3902 1.419 . S
C3901 C3896 1.425 . S
C3901 C3898 1.409 . S
C3901 C3899 1.415 . S
C3902 H3892 0.930 . S
C3902 C3900 1.419 . S
C3902 C3903 1.362 . S
C3903 H3893 0.930 . S
C3903 C3896 1.409 . S
C3903 C3902 1.362 . S
H3904 C3910 0.930 . S
H3905 C3913 0.930 . S
H3906 C3914 0.930 . S
H3907 C3915 0.930 . S
H3908 C3918 0.930 . S
H3909 C3919 0.930 . S
C3910 H3904 0.930 . S
C3910 C3911 1.355 . S
C3910 C3912 1.415 . S
C3911 C3910 1.355 . S
C3911 C3913 1.419 . S
C3912 C3910 1.415 . S
C3912 C3917 1.425 . S
C3912 C3919 1.409 . S
C3913 H3905 0.930 . S
C3913 C3911 1.419 . S
C3913 C3914 1.362 . S
C3914 H3906 0.930 . S
C3914 C3913 1.362 . S
C3914 C3917 1.409 . S
C3915 H3907 0.930 . S
C3915 C3916 1.355 . S
C3915 C3917 1.415 . S
C3916 C3915 1.355 . S
C3916 C3918 1.419 . S
C3917 C3912 1.425 . S
C3917 C3914 1.409 . S
C3917 C3915 1.415 . S
C3918 H3908 0.930 . S
C3918 C3916 1.419 . S
C3918 C3919 1.362 . S
C3919 H3909 0.930 . S
C3919 C3912 1.409 . S
C3919 C3918 1.362 . S
H3920 C3926 0.930 . S
H3921 C3929 0.930 . S
H3922 C3930 0.930 . S
H3923 C3931 0.930 . S
H3924 C3934 0.930 . S
H3925 C3935 0.930 . S
C3926 H3920 0.930 . S
C3926 C3927 1.355 . S
C3926 C3928 1.415 . S
C3927 C3926 1.355 . S
C3927 C3929 1.419 . S
C3928 C3926 1.415 . S
C3928 C3933 1.425 . S
C3928 C3935 1.409 . S
C3929 H3921 0.930 . S
C3929 C3927 1.419 . S
C3929 C3930 1.362 . S
C3930 H3922 0.930 . S
C3930 C3929 1.362 . S
C3930 C3933 1.409 . S
C3931 H3923 0.930 . S
C3931 C3932 1.355 . S
C3931 C3933 1.415 . S
C3932 C3931 1.355 . S
C3932 C3934 1.419 . S
C3933 C3928 1.425 . S
C3933 C3930 1.409 . S
C3933 C3931 1.415 . S
C3934 H3924 0.930 . S
C3934 C3932 1.419 . S
C3934 C3935 1.362 . S
C3935 H3925 0.930 . S
C3935 C3928 1.409 . S
C3935 C3934 1.362 . S
H3936 C3942 0.930 . S
H3937 C3945 0.930 . S
H3938 C3946 0.930 1_554 S
H3939 C3947 0.930 1_554 S
H3940 C3950 0.930 . S
H3941 C3951 0.930 . S
C3942 H3936 0.930 . S
C3942 C3943 1.355 . S
C3942 C3944 1.415 . S
C3943 C3942 1.355 . S
C3943 C3945 1.419 . S
C3944 C3942 1.415 . S
C3944 C3949 1.425 . S
C3944 C3951 1.409 . S
C3945 H3937 0.930 . S
C3945 C3943 1.419 . S
C3945 C3946 1.362 . S
C3946 H3938 0.930 1_556 S
C3946 C3945 1.362 . S
C3946 C3949 1.409 . S
C3947 H3939 0.930 1_556 S
C3947 C3948 1.355 . S
C3947 C3949 1.415 . S
C3948 C3947 1.355 . S
C3948 C3950 1.419 . S
C3949 C3944 1.425 . S
C3949 C3946 1.409 . S
C3949 C3947 1.415 . S
C3950 H3940 0.930 . S
C3950 C3948 1.419 . S
C3950 C3951 1.362 . S
C3951 H3941 0.930 . S
C3951 C3944 1.409 . S
C3951 C3950 1.362 . S
H3952 C3958 0.930 . S
H3953 C3961 0.930 . S
H3954 C3962 0.930 . S
H3955 C3963 0.930 . S
H3956 C3966 0.930 . S
H3957 C3967 0.930 . S
C3958 H3952 0.930 . S
C3958 C3959 1.355 . S
C3958 C3960 1.415 . S
C3959 C3958 1.355 . S
C3959 C3961 1.419 . S
C3960 C3958 1.415 . S
C3960 C3965 1.425 . S
C3960 C3967 1.409 . S
C3961 H3953 0.930 . S
C3961 C3959 1.419 . S
C3961 C3962 1.362 . S
C3962 H3954 0.930 . S
C3962 C3961 1.362 . S
C3962 C3965 1.409 . S
C3963 H3955 0.930 . S
C3963 C3964 1.355 . S
C3963 C3965 1.415 . S
C3964 C3963 1.355 . S
C3964 C3966 1.419 . S
C3965 C3960 1.425 . S
C3965 C3962 1.409 . S
C3965 C3963 1.415 . S
C3966 H3956 0.930 . S
C3966 C3964 1.419 . S
C3966 C3967 1.362 . S
C3967 H3957 0.930 . S
C3967 C3960 1.409 . S
C3967 C3966 1.362 . S
H3968 C3974 0.930 . S
H3969 C3977 0.930 . S
H3970 C3978 0.930 . S
H3971 C3979 0.930 . S
H3972 C3982 0.930 . S
H3973 C3983 0.930 . S
C3974 H3968 0.930 . S
C3974 C3975 1.355 1_565 S
C3974 C3976 1.412 1_565 S
C3975 C3974 1.355 1_545 S
C3975 C3977 1.419 . S
C3976 C3974 1.412 1_545 S
C3976 C3981 1.439 . S
C3976 C3983 1.399 1_545 S
C3977 H3969 0.930 . S
C3977 C3975 1.419 . S
C3977 C3978 1.362 . S
C3978 H3970 0.930 . S
C3978 C3977 1.362 . S
C3978 C3981 1.409 . S
C3979 H3971 0.930 . S
C3979 C3980 1.355 . S
C3979 C3981 1.415 . S
C3980 C3979 1.355 . S
C3980 C3982 1.419 1_545 S
C3981 C3976 1.439 . S
C3981 C3978 1.409 . S
C3981 C3979 1.415 . S
C3982 H3972 0.930 . S
C3982 C3980 1.419 1_565 S
C3982 C3983 1.362 . S
C3983 H3973 0.930 . S
C3983 C3976 1.399 1_565 S
C3983 C3982 1.362 . S
H3984 C3990 0.930 . S
H3985 C3993 0.930 . S
H3986 C3994 0.930 . S
H3987 C3995 0.930 . S
H3988 C3998 0.930 . S
H3989 C3999 0.930 . S
C3990 H3984 0.930 . S
C3990 C3991 1.355 . S
C3990 C3992 1.415 . S
C3991 C3990 1.355 . S
C3991 C3993 1.419 . S
C3992 C3990 1.415 . S
C3992 C3997 1.425 . S
C3992 C3999 1.409 . S
C3993 H3985 0.930 . S
C3993 C3991 1.419 . S
C3993 C3994 1.362 . S
C3994 H3986 0.930 . S
C3994 C3993 1.362 . S
C3994 C3997 1.409 . S
C3995 H3987 0.930 . S
C3995 C3996 1.355 . S
C3995 C3997 1.415 . S
C3996 C3995 1.355 . S
C3996 C3998 1.419 . S
C3997 C3992 1.425 . S
C3997 C3994 1.409 . S
C3997 C3995 1.415 . S
C3998 H3988 0.930 . S
C3998 C3996 1.419 . S
C3998 C3999 1.362 . S
C3999 H3989 0.930 . S
C3999 C3992 1.409 . S
C3999 C3998 1.362 . S
H4000 C4006 0.930 . S
H4001 C4009 0.930 . S
H4002 C4010 0.926 . S
H4003 C4011 0.930 . S
H4004 C4014 0.930 . S
H4005 C4015 0.930 . S
C4006 H4000 0.930 . S
C4006 C4007 1.355 . S
C4006 C4008 1.415 . S
C4007 C4006 1.355 . S
C4007 C4009 1.419 . S
C4008 C4006 1.415 . S
C4008 C4013 1.425 . S
C4008 C4015 1.409 . S
C4009 H4001 0.930 . S
C4009 C4007 1.419 . S
C4009 C4010 1.362 . S
C4010 H4002 0.926 . S
C4010 C4009 1.362 . S
C4010 C4013 1.409 . S
C4011 H4003 0.930 . S
C4011 C4012 1.355 . S
C4011 C4013 1.415 . S
C4012 C4011 1.355 . S
C4012 C4014 1.419 . S
C4013 C4008 1.425 . S
C4013 C4010 1.409 . S
C4013 C4011 1.415 . S
C4014 H4004 0.930 . S
C4014 C4012 1.419 . S
C4014 C4015 1.362 . S
C4015 H4005 0.930 . S
C4015 C4008 1.409 . S
C4015 C4014 1.362 . S
H4016 C4022 0.930 . S
H4017 C4025 0.930 . S
H4018 C4026 0.930 . S
H4019 C4027 0.930 . S
H4020 C4030 0.930 . S
H4021 C4031 0.930 . S
C4022 H4016 0.930 . S
C4022 C4023 1.355 . S
C4022 C4024 1.415 . S
C4023 C4022 1.355 . S
C4023 C4025 1.419 . S
C4024 C4022 1.415 . S
C4024 C4029 1.425 . S
C4024 C4031 1.409 . S
C4025 H4017 0.930 . S
C4025 C4023 1.419 . S
C4025 C4026 1.362 . S
C4026 H4018 0.930 . S
C4026 C4025 1.362 . S
C4026 C4029 1.409 . S
C4027 H4019 0.930 . S
C4027 C4028 1.355 . S
C4027 C4029 1.415 . S
C4028 C4027 1.355 . S
C4028 C4030 1.419 . S
C4029 C4024 1.425 . S
C4029 C4026 1.409 . S
C4029 C4027 1.415 . S
C4030 H4020 0.930 . S
C4030 C4028 1.419 . S
C4030 C4031 1.362 . S
C4031 H4021 0.930 . S
C4031 C4024 1.409 . S
C4031 C4030 1.362 . S
H4032 C4038 0.930 . S
H4033 C4041 0.930 . S
H4034 C4042 0.930 . S
H4035 C4043 0.930 1_565 S
H4036 C4046 0.930 . S
H4037 C4047 0.930 . S
C4038 H4032 0.930 . S
C4038 C4039 1.355 1_545 S
C4038 C4040 1.415 . S
C4039 C4038 1.355 1_565 S
C4039 C4041 1.419 . S
C4040 C4038 1.415 . S
C4040 C4045 1.425 1_545 S
C4040 C4047 1.409 . S
C4041 H4033 0.930 . S
C4041 C4039 1.419 . S
C4041 C4042 1.362 . S
C4042 H4034 0.930 . S
C4042 C4041 1.362 . S
C4042 C4045 1.409 . S
C4043 H4035 0.930 1_545 S
C4043 C4044 1.355 . S
C4043 C4045 1.415 1_545 S
C4044 C4043 1.355 . S
C4044 C4046 1.419 . S
C4045 C4040 1.425 1_565 S
C4045 C4042 1.409 . S
C4045 C4043 1.415 1_565 S
C4046 H4036 0.930 . S
C4046 C4044 1.419 . S
C4046 C4047 1.362 . S
C4047 H4037 0.930 . S
C4047 C4040 1.409 . S
C4047 C4046 1.362 . S
H4048 C4054 0.930 . S
H4049 C4057 0.930 . S
H4050 C4058 0.930 . S
H4051 C4059 0.930 . S
H4052 C4062 0.930 . S
H4053 C4063 0.930 . S
C4054 H4048 0.930 . S
C4054 C4055 1.355 . S
C4054 C4056 1.415 . S
C4055 C4054 1.355 . S
C4055 C4057 1.419 . S
C4056 C4054 1.415 . S
C4056 C4061 1.425 . S
C4056 C4063 1.409 . S
C4057 H4049 0.930 . S
C4057 C4055 1.419 . S
C4057 C4058 1.362 . S
C4058 H4050 0.930 . S
C4058 C4057 1.362 . S
C4058 C4061 1.409 . S
C4059 H4051 0.930 . S
C4059 C4060 1.355 . S
C4059 C4061 1.415 . S
C4060 C4059 1.355 . S
C4060 C4062 1.419 . S
C4061 C4056 1.425 . S
C4061 C4058 1.409 . S
C4061 C4059 1.415 . S
C4062 H4052 0.930 . S
C4062 C4060 1.419 . S
C4062 C4063 1.362 . S
C4063 H4053 0.930 . S
C4063 C4056 1.409 . S
C4063 C4062 1.362 . S
H4064 C4070 0.930 . S
H4065 C4073 0.930 . S
H4066 C4074 0.930 . S
H4067 C4075 0.930 . S
H4068 C4078 0.930 . S
H4069 C4079 0.930 . S
C4070 H4064 0.930 . S
C4070 C4071 1.355 . S
C4070 C4072 1.415 . S
C4071 C4070 1.355 . S
C4071 C4073 1.419 . S
C4072 C4070 1.415 . S
C4072 C4077 1.425 . S
C4072 C4079 1.409 . S
C4073 H4065 0.930 . S
C4073 C4071 1.419 . S
C4073 C4074 1.362 . S
C4074 H4066 0.930 . S
C4074 C4073 1.362 . S
C4074 C4077 1.409 . S
C4075 H4067 0.930 . S
C4075 C4076 1.355 . S
C4075 C4077 1.415 . S
C4076 C4075 1.355 . S
C4076 C4078 1.419 . S
C4077 C4072 1.425 . S
C4077 C4074 1.409 . S
C4077 C4075 1.415 . S
C4078 H4068 0.930 . S
C4078 C4076 1.419 . S
C4078 C4079 1.362 . S
C4079 H4069 0.930 . S
C4079 C4072 1.409 . S
C4079 C4078 1.362 . S
H4080 C4086 0.930 . S
H4081 C4089 0.930 . S
H4082 C4090 0.930 . S
H4083 C4091 0.930 . S
H4084 C4094 0.930 . S
H4085 C4095 0.930 . S
C4086 H4080 0.930 . S
C4086 C4087 1.355 . S
C4086 C4088 1.415 . S
C4087 C4086 1.355 . S
C4087 C4089 1.419 . S
C4088 C4086 1.415 . S
C4088 C4093 1.425 . S
C4088 C4095 1.409 . S
C4089 H4081 0.930 . S
C4089 C4087 1.419 . S
C4089 C4090 1.362 . S
C4090 H4082 0.930 . S
C4090 C4089 1.362 . S
C4090 C4093 1.409 . S
C4091 H4083 0.930 . S
C4091 C4092 1.355 . S
C4091 C4093 1.415 . S
C4092 C4091 1.355 . S
C4092 C4094 1.419 . S
C4093 C4088 1.425 . S
C4093 C4090 1.409 . S
C4093 C4091 1.415 . S
C4094 H4084 0.930 . S
C4094 C4092 1.419 . S
C4094 C4095 1.362 . S
C4095 H4085 0.930 . S
C4095 C4088 1.409 . S
C4095 C4094 1.362 . S
H4096 C4102 0.930 . S
H4097 C4105 0.930 . S
H4098 C4106 0.930 . S
H4099 C4107 0.930 . S
H4100 C4110 0.930 . S
H4101 C4111 0.930 . S
C4102 H4096 0.930 . S
C4102 C4103 1.355 . S
C4102 C4104 1.415 . S
C4103 C4102 1.355 . S
C4103 C4105 1.419 1_554 S
C4104 C4102 1.415 . S
C4104 C4109 1.425 . S
C4104 C4111 1.409 . S
C4105 H4097 0.930 . S
C4105 C4103 1.419 1_556 S
C4105 C4106 1.362 . S
C4106 H4098 0.930 . S
C4106 C4105 1.362 . S
C4106 C4109 1.409 1_556 S
C4107 H4099 0.930 . S
C4107 C4108 1.355 1_556 S
C4107 C4109 1.415 1_556 S
C4108 C4107 1.355 1_554 S
C4108 C4110 1.419 . S
C4109 C4104 1.425 . S
C4109 C4106 1.409 1_554 S
C4109 C4107 1.415 1_554 S
C4110 H4100 0.930 . S
C4110 C4108 1.419 . S
C4110 C4111 1.362 . S
C4111 H4101 0.930 . S
C4111 C4104 1.409 . S
C4111 C4110 1.362 . S
H4112 C4118 0.930 . S
H4113 C4121 0.930 . S
H4114 C4122 0.930 . S
H4115 C4123 0.930 . S
H4116 C4126 0.930 . S
H4117 C4127 0.930 . S
C4118 H4112 0.930 . S
C4118 C4119 1.355 . S
C4118 C4120 1.415 . S
C4119 C4118 1.355 . S
C4119 C4121 1.419 . S
C4120 C4118 1.415 . S
C4120 C4125 1.425 . S
C4120 C4127 1.409 . S
C4121 H4113 0.930 . S
C4121 C4119 1.419 . S
C4121 C4122 1.362 . S
C4122 H4114 0.930 . S
C4122 C4121 1.362 . S
C4122 C4125 1.409 . S
C4123 H4115 0.930 . S
C4123 C4124 1.355 . S
C4123 C4125 1.415 . S
C4124 C4123 1.355 . S
C4124 C4126 1.419 . S
C4125 C4120 1.425 . S
C4125 C4122 1.409 . S
C4125 C4123 1.415 . S
C4126 H4116 0.930 . S
C4126 C4124 1.419 . S
C4126 C4127 1.362 . S
C4127 H4117 0.930 . S
C4127 C4120 1.409 . S
C4127 C4126 1.362 . S
H4128 C4134 0.930 . S
H4129 C4137 0.930 . S
H4130 C4138 0.930 . S
H4131 C4139 0.930 . S
H4132 C4142 0.930 . S
H4133 C4143 0.930 . S
C4134 H4128 0.930 . S
C4134 C4135 1.355 . S
C4134 C4136 1.415 . S
C4135 C4134 1.355 . S
C4135 C4137 1.419 . S
C4136 C4134 1.415 . S
C4136 C4141 1.425 . S
C4136 C4143 1.409 . S
C4137 H4129 0.930 . S
C4137 C4135 1.419 . S
C4137 C4138 1.362 . S
C4138 H4130 0.930 . S
C4138 C4137 1.362 . S
C4138 C4141 1.409 . S
C4139 H4131 0.930 . S
C4139 C4140 1.355 . S
C4139 C4141 1.415 . S
C4140 C4139 1.355 . S
C4140 C4142 1.419 . S
C4141 C4136 1.425 . S
C4141 C4138 1.409 . S
C4141 C4139 1.415 . S
C4142 H4132 0.930 . S
C4142 C4140 1.419 . S
C4142 C4143 1.362 . S
C4143 H4133 0.930 . S
C4143 C4136 1.409 . S
C4143 C4142 1.362 . S
H4144 C4150 0.930 . S
H4145 C4153 0.930 . S
H4146 C4154 0.930 . S
H4147 C4155 0.930 . S
H4148 C4158 0.930 . S
H4149 C4159 0.930 . S
C4150 H4144 0.930 . S
C4150 C4151 1.355 . S
C4150 C4152 1.415 . S
C4151 C4150 1.355 . S
C4151 C4153 1.419 . S
C4152 C4150 1.415 . S
C4152 C4157 1.425 . S
C4152 C4159 1.409 . S
C4153 H4145 0.930 . S
C4153 C4151 1.419 . S
C4153 C4154 1.362 . S
C4154 H4146 0.930 . S
C4154 C4153 1.362 . S
C4154 C4157 1.409 . S
C4155 H4147 0.930 . S
C4155 C4156 1.355 . S
C4155 C4157 1.415 . S
C4156 C4155 1.355 . S
C4156 C4158 1.419 . S
C4157 C4152 1.425 . S
C4157 C4154 1.409 . S
C4157 C4155 1.415 . S
C4158 H4148 0.930 . S
C4158 C4156 1.419 . S
C4158 C4159 1.362 . S
C4159 H4149 0.930 . S
C4159 C4152 1.409 . S
C4159 C4158 1.362 . S
H4160 C4166 0.930 . S
H4161 C4169 0.930 . S
H4162 C4170 0.930 . S
H4163 C4171 0.930 . S
H4164 C4174 0.930 . S
H4165 C4175 0.930 . S
C4166 H4160 0.930 . S
C4166 C4167 1.355 . S
C4166 C4168 1.415 . S
C4167 C4166 1.355 . S
C4167 C4169 1.419 . S
C4168 C4166 1.415 . S
C4168 C4173 1.425 . S
C4168 C4175 1.409 . S
C4169 H4161 0.930 . S
C4169 C4167 1.419 . S
C4169 C4170 1.362 . S
C4170 H4162 0.930 . S
C4170 C4169 1.362 . S
C4170 C4173 1.409 . S
C4171 H4163 0.930 . S
C4171 C4172 1.355 . S
C4171 C4173 1.415 . S
C4172 C4171 1.355 . S
C4172 C4174 1.419 . S
C4173 C4168 1.425 . S
C4173 C4170 1.409 . S
C4173 C4171 1.415 . S
C4174 H4164 0.930 . S
C4174 C4172 1.419 . S
C4174 C4175 1.362 . S
C4175 H4165 0.930 . S
C4175 C4168 1.409 . S
C4175 C4174 1.362 . S
H4176 C4182 0.930 . S
H4177 C4185 0.930 . S
H4178 C4186 0.930 . S
H4179 C4187 0.930 . S
H4180 C4190 0.930 . S
H4181 C4191 0.930 . S
C4182 H4176 0.930 . S
C4182 C4183 1.355 . S
C4182 C4184 1.415 . S
C4183 C4182 1.355 . S
C4183 C4185 1.419 . S
C4184 C4182 1.415 . S
C4184 C4189 1.425 . S
C4184 C4191 1.409 . S
C4185 H4177 0.930 . S
C4185 C4183 1.419 . S
C4185 C4186 1.362 . S
C4186 H4178 0.930 . S
C4186 C4185 1.362 . S
C4186 C4189 1.409 . S
C4187 H4179 0.930 . S
C4187 C4188 1.355 . S
C4187 C4189 1.415 . S
C4188 C4187 1.355 . S
C4188 C4190 1.419 . S
C4189 C4184 1.425 . S
C4189 C4186 1.409 . S
C4189 C4187 1.415 . S
C4190 H4180 0.930 . S
C4190 C4188 1.419 . S
C4190 C4191 1.362 . S
C4191 H4181 0.930 . S
C4191 C4184 1.409 . S
C4191 C4190 1.362 . S
H4192 C4198 0.930 . S
H4193 C4201 0.930 . S
H4194 C4202 0.930 . S
H4195 C4203 0.930 . S
H4196 C4206 0.930 . S
H4197 C4207 0.930 . S
C4198 H4192 0.930 . S
C4198 C4199 1.355 . S
C4198 C4200 1.415 . S
C4199 C4198 1.355 . S
C4199 C4201 1.419 . S
C4200 C4198 1.415 . S
C4200 C4205 1.425 . S
C4200 C4207 1.409 . S
C4201 H4193 0.930 . S
C4201 C4199 1.419 . S
C4201 C4202 1.362 . S
C4202 H4194 0.930 . S
C4202 C4201 1.362 . S
C4202 C4205 1.409 . S
C4203 H4195 0.930 . S
C4203 C4204 1.355 . S
C4203 C4205 1.415 . S
C4204 C4203 1.355 . S
C4204 C4206 1.419 . S
C4205 C4200 1.425 . S
C4205 C4202 1.409 . S
C4205 C4203 1.415 . S
C4206 H4196 0.930 . S
C4206 C4204 1.419 . S
C4206 C4207 1.362 . S
C4207 H4197 0.930 . S
C4207 C4200 1.409 . S
C4207 C4206 1.362 . S
H4208 C4214 0.930 . S
H4209 C4217 0.930 . S
H4210 C4218 0.930 . S
H4211 C4219 0.930 . S
H4212 C4222 0.930 . S
H4213 C4223 0.930 . S
C4214 H4208 0.930 . S
C4214 C4215 1.355 . S
C4214 C4216 1.415 . S
C4215 C4214 1.355 . S
C4215 C4217 1.419 . S
C4216 C4214 1.415 . S
C4216 C4221 1.425 . S
C4216 C4223 1.409 . S
C4217 H4209 0.930 . S
C4217 C4215 1.419 . S
C4217 C4218 1.362 . S
C4218 H4210 0.930 . S
C4218 C4217 1.362 . S
C4218 C4221 1.409 . S
C4219 H4211 0.930 . S
C4219 C4220 1.355 . S
C4219 C4221 1.415 . S
C4220 C4219 1.355 . S
C4220 C4222 1.419 . S
C4221 C4216 1.425 . S
C4221 C4218 1.409 . S
C4221 C4219 1.415 . S
C4222 H4212 0.930 . S
C4222 C4220 1.419 . S
C4222 C4223 1.362 . S
C4223 H4213 0.930 . S
C4223 C4216 1.409 . S
C4223 C4222 1.362 . S
H4224 C4230 0.930 . S
H4225 C4233 0.930 . S
H4226 C4234 0.930 . S
H4227 C4235 0.930 . S
H4228 C4238 0.930 . S
H4229 C4239 0.930 . S
C4230 H4224 0.930 . S
C4230 C4231 1.355 . S
C4230 C4232 1.415 . S
C4231 C4230 1.355 . S
C4231 C4233 1.419 . S
C4232 C4230 1.415 . S
C4232 C4237 1.425 . S
C4232 C4239 1.409 . S
C4233 H4225 0.930 . S
C4233 C4231 1.419 . S
C4233 C4234 1.362 . S
C4234 H4226 0.930 . S
C4234 C4233 1.362 . S
C4234 C4237 1.409 . S
C4235 H4227 0.930 . S
C4235 C4236 1.355 . S
C4235 C4237 1.415 . S
C4236 C4235 1.355 . S
C4236 C4238 1.419 . S
C4237 C4232 1.425 . S
C4237 C4234 1.409 . S
C4237 C4235 1.415 . S
C4238 H4228 0.930 . S
C4238 C4236 1.419 . S
C4238 C4239 1.362 . S
C4239 H4229 0.930 . S
C4239 C4232 1.409 . S
C4239 C4238 1.362 . S
H4240 C4246 0.930 . S
H4241 C4249 0.930 . S
H4242 C4250 0.930 . S
H4243 C4251 0.930 . S
H4244 C4254 0.930 . S
H4245 C4255 0.930 . S
C4246 H4240 0.930 . S
C4246 C4247 1.355 . S
C4246 C4248 1.415 . S
C4247 C4246 1.355 . S
C4247 C4249 1.419 . S
C4248 C4246 1.415 . S
C4248 C4253 1.425 . S
C4248 C4255 1.409 . S
C4249 H4241 0.930 . S
C4249 C4247 1.419 . S
C4249 C4250 1.362 . S
C4250 H4242 0.930 . S
C4250 C4249 1.362 . S
C4250 C4253 1.409 . S
C4251 H4243 0.930 . S
C4251 C4252 1.355 . S
C4251 C4253 1.415 . S
C4252 C4251 1.355 . S
C4252 C4254 1.419 . S
C4253 C4248 1.425 . S
C4253 C4250 1.409 . S
C4253 C4251 1.415 . S
C4254 H4244 0.930 . S
C4254 C4252 1.419 . S
C4254 C4255 1.362 . S
C4255 H4245 0.930 . S
C4255 C4248 1.409 . S
C4255 C4254 1.362 . S
H4256 C4262 0.930 1_556 S
H4257 C4265 0.930 . S
H4258 C4266 0.930 . S
H4259 C4267 0.930 . S
H4260 C4270 0.930 . S
H4261 C4271 0.930 . S
C4262 H4256 0.930 1_554 S
C4262 C4263 1.355 . S
C4262 C4264 1.415 . S
C4263 C4262 1.355 . S
C4263 C4265 1.419 . S
C4264 C4262 1.415 . S
C4264 C4269 1.425 . S
C4264 C4271 1.409 1_554 S
C4265 H4257 0.930 . S
C4265 C4263 1.419 . S
C4265 C4266 1.362 . S
C4266 H4258 0.930 . S
C4266 C4265 1.362 . S
C4266 C4269 1.409 . S
C4267 H4259 0.930 . S
C4267 C4268 1.355 . S
C4267 C4269 1.415 . S
C4268 C4267 1.355 . S
C4268 C4270 1.419 1_554 S
C4269 C4264 1.425 . S
C4269 C4266 1.409 . S
C4269 C4267 1.415 . S
C4270 H4260 0.930 . S
C4270 C4268 1.419 1_556 S
C4270 C4271 1.362 . S
C4271 H4261 0.930 . S
C4271 C4264 1.409 1_556 S
C4271 C4270 1.362 . S
H4272 C4278 0.930 . S
H4273 C4281 0.930 . S
H4274 C4282 0.930 . S
H4275 C4283 0.930 . S
H4276 C4286 0.930 . S
H4277 C4287 0.930 . S
C4278 H4272 0.930 . S
C4278 C4279 1.355 . S
C4278 C4280 1.415 . S
C4279 C4278 1.355 . S
C4279 C4281 1.419 . S
C4280 C4278 1.415 . S
C4280 C4285 1.425 . S
C4280 C4287 1.409 . S
C4281 H4273 0.930 . S
C4281 C4279 1.419 . S
C4281 C4282 1.362 . S
C4282 H4274 0.930 . S
C4282 C4281 1.362 . S
C4282 C4285 1.409 . S
C4283 H4275 0.930 . S
C4283 C4284 1.355 . S
C4283 C4285 1.415 . S
C4284 C4283 1.355 . S
C4284 C4286 1.419 . S
C4285 C4280 1.425 . S
C4285 C4282 1.409 . S
C4285 C4283 1.415 . S
C4286 H4276 0.930 . S
C4286 C4284 1.419 . S
C4286 C4287 1.362 . S
C4287 H4277 0.930 . S
C4287 C4280 1.409 . S
C4287 C4286 1.362 . S
H4288 C4294 0.930 . S
H4289 C4297 0.930 . S
H4290 C4298 0.930 . S
H4291 C4299 0.930 . S
H4292 C4302 0.930 . S
H4293 C4303 0.930 . S
C4294 H4288 0.930 . S
C4294 C4295 1.355 . S
C4294 C4296 1.415 . S
C4295 C4294 1.355 . S
C4295 C4297 1.419 . S
C4296 C4294 1.415 . S
C4296 C4301 1.425 . S
C4296 C4303 1.409 . S
C4297 H4289 0.930 . S
C4297 C4295 1.419 . S
C4297 C4298 1.362 . S
C4298 H4290 0.930 . S
C4298 C4297 1.362 . S
C4298 C4301 1.409 . S
C4299 H4291 0.930 . S
C4299 C4300 1.355 . S
C4299 C4301 1.415 . S
C4300 C4299 1.355 . S
C4300 C4302 1.419 . S
C4301 C4296 1.425 . S
C4301 C4298 1.409 . S
C4301 C4299 1.415 . S
C4302 H4292 0.930 . S
C4302 C4300 1.419 . S
C4302 C4303 1.362 . S
C4303 H4293 0.930 . S
C4303 C4296 1.409 . S
C4303 C4302 1.362 . S
H4304 C4310 0.930 1_455 S
H4305 C4313 0.941 . S
H4306 C4314 0.930 . S
H4307 C4315 0.930 . S
H4308 C4318 0.930 . S
H4309 C4319 0.930 . S
C4310 H4304 0.930 1_655 S
C4310 C4311 1.355 1_655 S
C4310 C4312 1.415 . S
C4311 C4310 1.355 1_455 S
C4311 C4313 1.428 . S
C4312 C4310 1.415 . S
C4312 C4317 1.425 . S
C4312 C4319 1.409 . S
C4313 H4305 0.941 . S
C4313 C4311 1.428 . S
C4313 C4314 1.343 1_455 S
C4314 H4306 0.930 . S
C4314 C4313 1.343 1_655 S
C4314 C4317 1.409 . S
C4315 H4307 0.930 . S
C4315 C4316 1.355 . S
C4315 C4317 1.415 . S
C4316 C4315 1.355 . S
C4316 C4318 1.419 . S
C4317 C4312 1.425 . S
C4317 C4314 1.409 . S
C4317 C4315 1.415 . S
C4318 H4308 0.930 . S
C4318 C4316 1.419 . S
C4318 C4319 1.362 . S
C4319 H4309 0.930 . S
C4319 C4312 1.409 . S
C4319 C4318 1.362 . S
H4320 C4326 0.930 . S
H4321 C4329 0.930 . S
H4322 C4330 0.930 . S
H4323 C4331 0.930 . S
H4324 C4334 0.930 . S
H4325 C4335 0.930 . S
C4326 H4320 0.930 . S
C4326 C4327 1.355 1_455 S
C4326 C4328 1.415 . S
C4327 C4326 1.355 1_655 S
C4327 C4329 1.419 . S
C4328 C4326 1.415 . S
C4328 C4333 1.425 . S
C4328 C4335 1.409 . S
C4329 H4321 0.930 . S
C4329 C4327 1.419 . S
C4329 C4330 1.362 . S
C4330 H4322 0.930 . S
C4330 C4329 1.362 . S
C4330 C4333 1.409 1_655 S
C4331 H4323 0.930 . S
C4331 C4332 1.355 . S
C4331 C4333 1.415 . S
C4332 C4331 1.355 . S
C4332 C4334 1.419 . S
C4333 C4328 1.425 . S
C4333 C4330 1.409 1_455 S
C4333 C4331 1.415 . S
C4334 H4324 0.930 . S
C4334 C4332 1.419 . S
C4334 C4335 1.362 . S
C4335 H4325 0.930 . S
C4335 C4328 1.409 . S
C4335 C4334 1.362 . S
H4336 C4342 0.930 . S
H4337 C4345 0.930 . S
H4338 C4346 0.930 . S
H4339 C4347 0.930 . S
H4340 C4350 0.930 . S
H4341 C4351 0.930 . S
C4342 H4336 0.930 . S
C4342 C4343 1.355 . S
C4342 C4344 1.415 . S
C4343 C4342 1.355 . S
C4343 C4345 1.419 . S
C4344 C4342 1.415 . S
C4344 C4349 1.425 . S
C4344 C4351 1.409 . S
C4345 H4337 0.930 . S
C4345 C4343 1.419 . S
C4345 C4346 1.362 . S
C4346 H4338 0.930 . S
C4346 C4345 1.362 . S
C4346 C4349 1.409 . S
C4347 H4339 0.930 . S
C4347 C4348 1.355 . S
C4347 C4349 1.415 . S
C4348 C4347 1.355 . S
C4348 C4350 1.419 . S
C4349 C4344 1.425 . S
C4349 C4346 1.409 . S
C4349 C4347 1.415 . S
C4350 H4340 0.930 . S
C4350 C4348 1.419 . S
C4350 C4351 1.362 . S
C4351 H4341 0.930 . S
C4351 C4344 1.409 . S
C4351 C4350 1.362 . S
H4352 C4358 0.930 . S
H4353 C4361 0.930 . S
H4354 C4362 0.930 . S
H4355 C4363 0.930 . S
H4356 C4366 0.930 . S
H4357 C4367 0.930 . S
C4358 H4352 0.930 . S
C4358 C4359 1.355 . S
C4358 C4360 1.415 . S
C4359 C4358 1.355 . S
C4359 C4361 1.419 . S
C4360 C4358 1.415 . S
C4360 C4365 1.425 . S
C4360 C4367 1.409 . S
C4361 H4353 0.930 . S
C4361 C4359 1.419 . S
C4361 C4362 1.362 . S
C4362 H4354 0.930 . S
C4362 C4361 1.362 . S
C4362 C4365 1.409 . S
C4363 H4355 0.930 . S
C4363 C4364 1.355 . S
C4363 C4365 1.415 . S
C4364 C4363 1.355 . S
C4364 C4366 1.419 . S
C4365 C4360 1.425 . S
C4365 C4362 1.409 . S
C4365 C4363 1.415 . S
C4366 H4356 0.930 . S
C4366 C4364 1.419 . S
C4366 C4367 1.362 . S
C4367 H4357 0.930 . S
C4367 C4360 1.409 . S
C4367 C4366 1.362 . S
H4368 C4374 0.930 . S
H4369 C4377 0.930 . S
H4370 C4378 0.930 . S
H4371 C4379 0.930 . S
H4372 C4382 0.930 . S
H4373 C4383 0.930 . S
C4374 H4368 0.930 . S
C4374 C4375 1.355 . S
C4374 C4376 1.415 . S
C4375 C4374 1.355 . S
C4375 C4377 1.419 . S
C4376 C4374 1.415 . S
C4376 C4381 1.425 . S
C4376 C4383 1.409 . S
C4377 H4369 0.930 . S
C4377 C4375 1.419 . S
C4377 C4378 1.362 . S
C4378 H4370 0.930 . S
C4378 C4377 1.362 . S
C4378 C4381 1.409 . S
C4379 H4371 0.930 . S
C4379 C4380 1.355 . S
C4379 C4381 1.415 . S
C4380 C4379 1.355 . S
C4380 C4382 1.419 . S
C4381 C4376 1.425 . S
C4381 C4378 1.409 . S
C4381 C4379 1.415 . S
C4382 H4372 0.930 . S
C4382 C4380 1.419 . S
C4382 C4383 1.362 . S
C4383 H4373 0.930 . S
C4383 C4376 1.409 . S
C4383 C4382 1.362 . S
H4384 C4390 0.930 . S
H4385 C4393 0.930 . S
H4386 C4394 0.930 . S
H4387 C4395 0.930 . S
H4388 C4398 0.930 . S
H4389 C4399 0.930 . S
C4390 H4384 0.930 . S
C4390 C4391 1.355 . S
C4390 C4392 1.415 . S
C4391 C4390 1.355 . S
C4391 C4393 1.419 . S
C4392 C4390 1.415 . S
C4392 C4397 1.425 . S
C4392 C4399 1.409 . S
C4393 H4385 0.930 . S
C4393 C4391 1.419 . S
C4393 C4394 1.362 . S
C4394 H4386 0.930 . S
C4394 C4393 1.362 . S
C4394 C4397 1.409 . S
C4395 H4387 0.930 . S
C4395 C4396 1.355 . S
C4395 C4397 1.415 . S
C4396 C4395 1.355 . S
C4396 C4398 1.419 . S
C4397 C4392 1.425 . S
C4397 C4394 1.409 . S
C4397 C4395 1.415 . S
C4398 H4388 0.930 . S
C4398 C4396 1.419 . S
C4398 C4399 1.362 . S
C4399 H4389 0.930 . S
C4399 C4392 1.409 . S
C4399 C4398 1.362 . S
H4400 C4406 0.930 . S
H4401 C4409 0.930 . S
H4402 C4410 0.930 . S
H4403 C4411 0.930 . S
H4404 C4414 0.930 . S
H4405 C4415 0.930 . S
C4406 H4400 0.930 . S
C4406 C4407 1.355 . S
C4406 C4408 1.415 . S
C4407 C4406 1.355 . S
C4407 C4409 1.419 . S
C4408 C4406 1.415 . S
C4408 C4413 1.425 . S
C4408 C4415 1.409 . S
C4409 H4401 0.930 . S
C4409 C4407 1.419 . S
C4409 C4410 1.362 . S
C4410 H4402 0.930 . S
C4410 C4409 1.362 . S
C4410 C4413 1.409 . S
C4411 H4403 0.930 . S
C4411 C4412 1.355 . S
C4411 C4413 1.415 . S
C4412 C4411 1.355 . S
C4412 C4414 1.419 . S
C4413 C4408 1.425 . S
C4413 C4410 1.409 . S
C4413 C4411 1.415 . S
C4414 H4404 0.930 . S
C4414 C4412 1.419 . S
C4414 C4415 1.362 . S
C4415 H4405 0.930 . S
C4415 C4408 1.409 . S
C4415 C4414 1.362 . S
H4416 C4422 0.930 . S
H4417 C4425 0.930 . S
H4418 C4426 0.930 . S
H4419 C4427 0.930 . S
H4420 C4430 0.930 . S
H4421 C4431 0.930 . S
C4422 H4416 0.930 . S
C4422 C4423 1.355 . S
C4422 C4424 1.415 . S
C4423 C4422 1.355 . S
C4423 C4425 1.419 . S
C4424 C4422 1.415 . S
C4424 C4429 1.425 . S
C4424 C4431 1.409 . S
C4425 H4417 0.930 . S
C4425 C4423 1.419 . S
C4425 C4426 1.362 . S
C4426 H4418 0.930 . S
C4426 C4425 1.362 . S
C4426 C4429 1.409 . S
C4427 H4419 0.930 . S
C4427 C4428 1.355 . S
C4427 C4429 1.415 . S
C4428 C4427 1.355 . S
C4428 C4430 1.419 . S
C4429 C4424 1.425 . S
C4429 C4426 1.409 . S
C4429 C4427 1.415 . S
C4430 H4420 0.930 . S
C4430 C4428 1.419 . S
C4430 C4431 1.362 . S
C4431 H4421 0.930 . S
C4431 C4424 1.409 . S
C4431 C4430 1.362 . S
H4432 C4438 0.930 . S
H4433 C4441 0.930 . S
H4434 C4442 0.930 . S
H4435 C4443 0.930 . S
H4436 C4446 0.930 . S
H4437 C4447 0.930 . S
C4438 H4432 0.930 . S
C4438 C4439 1.355 . S
C4438 C4440 1.415 . S
C4439 C4438 1.355 . S
C4439 C4441 1.419 . S
C4440 C4438 1.415 . S
C4440 C4445 1.425 . S
C4440 C4447 1.409 . S
C4441 H4433 0.930 . S
C4441 C4439 1.419 . S
C4441 C4442 1.362 . S
C4442 H4434 0.930 . S
C4442 C4441 1.362 . S
C4442 C4445 1.409 . S
C4443 H4435 0.930 . S
C4443 C4444 1.355 . S
C4443 C4445 1.415 . S
C4444 C4443 1.355 . S
C4444 C4446 1.419 . S
C4445 C4440 1.425 . S
C4445 C4442 1.409 . S
C4445 C4443 1.415 . S
C4446 H4436 0.930 . S
C4446 C4444 1.419 . S
C4446 C4447 1.362 . S
C4447 H4437 0.930 . S
C4447 C4440 1.409 . S
C4447 C4446 1.362 . S
H4448 C4454 0.930 . S
H4449 C4457 0.930 . S
H4450 C4458 0.930 . S
H4451 C4459 0.930 . S
H4452 C4462 0.930 . S
H4453 C4463 0.930 . S
C4454 H4448 0.930 . S
C4454 C4455 1.355 . S
C4454 C4456 1.415 . S
C4455 C4454 1.355 . S
C4455 C4457 1.419 . S
C4456 C4454 1.415 . S
C4456 C4461 1.425 . S
C4456 C4463 1.409 . S
C4457 H4449 0.930 . S
C4457 C4455 1.419 . S
C4457 C4458 1.362 . S
C4458 H4450 0.930 . S
C4458 C4457 1.362 . S
C4458 C4461 1.409 . S
C4459 H4451 0.930 . S
C4459 C4460 1.355 . S
C4459 C4461 1.415 . S
C4460 C4459 1.355 . S
C4460 C4462 1.419 . S
C4461 C4456 1.425 . S
C4461 C4458 1.409 . S
C4461 C4459 1.415 . S
C4462 H4452 0.930 . S
C4462 C4460 1.419 . S
C4462 C4463 1.362 . S
C4463 H4453 0.930 . S
C4463 C4456 1.409 . S
C4463 C4462 1.362 . S
H4464 C4470 0.930 . S
H4465 C4473 0.930 . S
H4466 C4474 0.930 . S
H4467 C4475 0.930 . S
H4468 C4478 0.930 . S
H4469 C4479 0.930 . S
C4470 H4464 0.930 . S
C4470 C4471 1.355 . S
C4470 C4472 1.415 . S
C4471 C4470 1.355 . S
C4471 C4473 1.419 . S
C4472 C4470 1.415 . S
C4472 C4477 1.425 . S
C4472 C4479 1.409 . S
C4473 H4465 0.930 . S
C4473 C4471 1.419 . S
C4473 C4474 1.362 . S
C4474 H4466 0.930 . S
C4474 C4473 1.362 . S
C4474 C4477 1.409 . S
C4475 H4467 0.930 . S
C4475 C4476 1.355 . S
C4475 C4477 1.415 . S
C4476 C4475 1.355 . S
C4476 C4478 1.419 . S
C4477 C4472 1.425 . S
C4477 C4474 1.409 . S
C4477 C4475 1.415 . S
C4478 H4468 0.930 . S
C4478 C4476 1.419 . S
C4478 C4479 1.362 . S
C4479 H4469 0.930 . S
C4479 C4472 1.409 . S
C4479 C4478 1.362 . S
H4480 C4486 0.930 . S
H4481 C4489 0.930 . S
H4482 C4490 0.930 . S
H4483 C4491 0.930 . S
H4484 C4494 0.930 . S
H4485 C4495 0.930 . S
C4486 H4480 0.930 . S
C4486 C4487 1.355 . S
C4486 C4488 1.415 . S
C4487 C4486 1.355 . S
C4487 C4489 1.419 . S
C4488 C4486 1.415 . S
C4488 C4493 1.425 . S
C4488 C4495 1.409 . S
C4489 H4481 0.930 . S
C4489 C4487 1.419 . S
C4489 C4490 1.362 . S
C4490 H4482 0.930 . S
C4490 C4489 1.362 . S
C4490 C4493 1.409 . S
C4491 H4483 0.930 . S
C4491 C4492 1.355 . S
C4491 C4493 1.415 . S
C4492 C4491 1.355 . S
C4492 C4494 1.419 . S
C4493 C4488 1.425 . S
C4493 C4490 1.409 . S
C4493 C4491 1.415 . S
C4494 H4484 0.930 . S
C4494 C4492 1.419 . S
C4494 C4495 1.362 . S
C4495 H4485 0.930 . S
C4495 C4488 1.409 . S
C4495 C4494 1.362 . S
H4496 C4502 0.930 . S
H4497 C4505 0.930 . S
H4498 C4506 0.930 . S
H4499 C4507 0.930 . S
H4500 C4510 0.930 . S
H4501 C4511 0.930 . S
C4502 H4496 0.930 . S
C4502 C4503 1.355 . S
C4502 C4504 1.415 . S
C4503 C4502 1.355 . S
C4503 C4505 1.419 . S
C4504 C4502 1.415 . S
C4504 C4509 1.425 . S
C4504 C4511 1.409 . S
C4505 H4497 0.930 . S
C4505 C4503 1.419 . S
C4505 C4506 1.362 . S
C4506 H4498 0.930 . S
C4506 C4505 1.362 . S
C4506 C4509 1.409 . S
C4507 H4499 0.930 . S
C4507 C4508 1.355 . S
C4507 C4509 1.415 . S
C4508 C4507 1.355 . S
C4508 C4510 1.419 . S
C4509 C4504 1.425 . S
C4509 C4506 1.409 . S
C4509 C4507 1.415 . S
C4510 H4500 0.930 . S
C4510 C4508 1.419 . S
C4510 C4511 1.362 . S
C4511 H4501 0.930 . S
C4511 C4504 1.409 . S
C4511 C4510 1.362 . S
H4512 C4518 0.930 . S
H4513 C4521 0.930 . S
H4514 C4522 0.930 . S
H4515 C4523 0.930 . S
H4516 C4526 0.930 . S
H4517 C4527 0.930 . S
C4518 H4512 0.930 . S
C4518 C4519 1.355 . S
C4518 C4520 1.415 . S
C4519 C4518 1.355 . S
C4519 C4521 1.419 . S
C4520 C4518 1.415 . S
C4520 C4525 1.425 . S
C4520 C4527 1.409 . S
C4521 H4513 0.930 . S
C4521 C4519 1.419 . S
C4521 C4522 1.362 . S
C4522 H4514 0.930 . S
C4522 C4521 1.362 . S
C4522 C4525 1.409 . S
C4523 H4515 0.930 . S
C4523 C4524 1.355 . S
C4523 C4525 1.415 . S
C4524 C4523 1.355 . S
C4524 C4526 1.419 . S
C4525 C4520 1.425 . S
C4525 C4522 1.409 . S
C4525 C4523 1.415 . S
C4526 H4516 0.930 . S
C4526 C4524 1.419 . S
C4526 C4527 1.362 . S
C4527 H4517 0.930 . S
C4527 C4520 1.409 . S
C4527 C4526 1.362 . S
H4528 C4534 0.928 1_566 S
H4529 C4537 0.930 . S
H4530 C4538 0.930 . S
H4531 C4539 0.930 . S
H4532 C4542 0.930 . S
H4533 C4543 0.930 1_565 S
C4534 H4528 0.928 1_544 S
C4534 C4535 1.356 . S
C4534 C4536 1.415 . S
C4535 C4534 1.356 . S
C4535 C4537 1.419 . S
C4536 C4534 1.415 . S
C4536 C4541 1.425 . S
C4536 C4543 1.409 1_554 S
C4537 H4529 0.930 . S
C4537 C4535 1.419 . S
C4537 C4538 1.362 . S
C4538 H4530 0.930 . S
C4538 C4537 1.362 . S
C4538 C4541 1.409 . S
C4539 H4531 0.930 . S
C4539 C4540 1.355 . S
C4539 C4541 1.415 . S
C4540 C4539 1.355 . S
C4540 C4542 1.419 1_554 S
C4541 C4536 1.425 . S
C4541 C4538 1.409 . S
C4541 C4539 1.415 . S
C4542 H4532 0.930 . S
C4542 C4540 1.419 1_556 S
C4542 C4543 1.362 . S
C4543 H4533 0.930 1_545 S
C4543 C4536 1.409 1_556 S
C4543 C4542 1.362 . S
H4544 C4550 0.930 . S
H4545 C4553 0.930 . S
H4546 C4554 0.930 . S
H4547 C4555 0.930 . S
H4548 C4558 0.930 . S
H4549 C4559 0.930 . S
C4550 H4544 0.930 . S
C4550 C4551 1.355 . S
C4550 C4552 1.415 . S
C4551 C4550 1.355 . S
C4551 C4553 1.419 . S
C4552 C4550 1.415 . S
C4552 C4557 1.425 . S
C4552 C4559 1.409 . S
C4553 H4545 0.930 . S
C4553 C4551 1.419 . S
C4553 C4554 1.362 . S
C4554 H4546 0.930 . S
C4554 C4553 1.362 . S
C4554 C4557 1.409 . S
C4555 H4547 0.930 . S
C4555 C4556 1.355 . S
C4555 C4557 1.415 . S
C4556 C4555 1.355 . S
C4556 C4558 1.419 . S
C4557 C4552 1.425 . S
C4557 C4554 1.409 . S
C4557 C4555 1.415 . S
C4558 H4548 0.930 . S
C4558 C4556 1.419 . S
C4558 C4559 1.362 . S
C4559 H4549 0.930 . S
C4559 C4552 1.409 . S
C4559 C4558 1.362 . S
H4560 C4566 0.930 . S
H4561 C4569 0.930 . S
H4562 C4570 0.930 . S
H4563 C4571 0.930 . S
H4564 C4574 0.930 . S
H4565 C4575 0.930 . S
C4566 H4560 0.930 . S
C4566 C4567 1.355 1_554 S
C4566 C4568 1.415 . S
C4567 C4566 1.355 1_556 S
C4567 C4569 1.419 . S
C4568 C4566 1.415 . S
C4568 C4573 1.425 . S
C4568 C4575 1.409 . S
C4569 H4561 0.930 . S
C4569 C4567 1.419 . S
C4569 C4570 1.362 . S
C4570 H4562 0.930 . S
C4570 C4569 1.362 . S
C4570 C4573 1.409 1_556 S
C4571 H4563 0.930 . S
C4571 C4572 1.355 . S
C4571 C4573 1.415 . S
C4572 C4571 1.355 . S
C4572 C4574 1.419 . S
C4573 C4568 1.425 . S
C4573 C4570 1.409 1_554 S
C4573 C4571 1.415 . S
C4574 H4564 0.930 . S
C4574 C4572 1.419 . S
C4574 C4575 1.362 . S
C4575 H4565 0.930 . S
C4575 C4568 1.409 . S
C4575 C4574 1.362 . S
H4576 C4582 0.930 . S
H4577 C4585 0.930 . S
H4578 C4586 0.930 . S
H4579 C4587 0.930 . S
H4580 C4590 0.930 . S
H4581 C4591 0.930 . S
C4582 H4576 0.930 . S
C4582 C4583 1.355 . S
C4582 C4584 1.415 . S
C4583 C4582 1.355 . S
C4583 C4585 1.419 . S
C4584 C4582 1.415 . S
C4584 C4589 1.425 . S
C4584 C4591 1.409 . S
C4585 H4577 0.930 . S
C4585 C4583 1.419 . S
C4585 C4586 1.362 . S
C4586 H4578 0.930 . S
C4586 C4585 1.362 . S
C4586 C4589 1.409 . S
C4587 H4579 0.930 . S
C4587 C4588 1.355 . S
C4587 C4589 1.415 . S
C4588 C4587 1.355 . S
C4588 C4590 1.419 . S
C4589 C4584 1.425 . S
C4589 C4586 1.409 . S
C4589 C4587 1.415 . S
C4590 H4580 0.930 . S
C4590 C4588 1.419 . S
C4590 C4591 1.362 . S
C4591 H4581 0.930 . S
C4591 C4584 1.409 . S
C4591 C4590 1.362 . S
H4592 C4598 0.930 . S
H4593 C4601 0.930 . S
H4594 C4602 0.930 . S
H4595 C4603 0.930 . S
H4596 C4606 0.930 . S
H4597 C4607 0.930 . S
C4598 H4592 0.930 . S
C4598 C4599 1.355 . S
C4598 C4600 1.415 . S
C4599 C4598 1.355 . S
C4599 C4601 1.419 . S
C4600 C4598 1.415 . S
C4600 C4605 1.425 . S
C4600 C4607 1.409 . S
C4601 H4593 0.930 . S
C4601 C4599 1.419 . S
C4601 C4602 1.362 . S
C4602 H4594 0.930 . S
C4602 C4601 1.362 . S
C4602 C4605 1.409 . S
C4603 H4595 0.930 . S
C4603 C4604 1.355 . S
C4603 C4605 1.415 . S
C4604 C4603 1.355 . S
C4604 C4606 1.419 . S
C4605 C4600 1.425 . S
C4605 C4602 1.409 . S
C4605 C4603 1.415 . S
C4606 H4596 0.930 . S
C4606 C4604 1.419 . S
C4606 C4607 1.362 . S
C4607 H4597 0.930 . S
C4607 C4600 1.409 . S
C4607 C4606 1.362 . S
H4608 C4614 0.930 . S
H4609 C4617 0.930 . S
H4610 C4618 0.930 . S
H4611 C4619 0.930 . S
H4612 C4622 0.930 . S
H4613 C4623 0.930 . S
C4614 H4608 0.930 . S
C4614 C4615 1.355 . S
C4614 C4616 1.415 . S
C4615 C4614 1.355 . S
C4615 C4617 1.419 . S
C4616 C4614 1.415 . S
C4616 C4621 1.425 . S
C4616 C4623 1.409 . S
C4617 H4609 0.930 . S
C4617 C4615 1.419 . S
C4617 C4618 1.362 . S
C4618 H4610 0.930 . S
C4618 C4617 1.362 . S
C4618 C4621 1.409 . S
C4619 H4611 0.930 . S
C4619 C4620 1.355 . S
C4619 C4621 1.415 . S
C4620 C4619 1.355 . S
C4620 C4622 1.419 . S
C4621 C4616 1.425 . S
C4621 C4618 1.409 . S
C4621 C4619 1.415 . S
C4622 H4612 0.930 . S
C4622 C4620 1.419 . S
C4622 C4623 1.362 . S
C4623 H4613 0.930 . S
C4623 C4616 1.409 . S
C4623 C4622 1.362 . S
H4624 C4630 0.930 . S
H4625 C4633 0.930 . S
H4626 C4634 0.930 . S
H4627 C4635 0.930 . S
H4628 C4638 0.930 . S
H4629 C4639 0.930 . S
C4630 H4624 0.930 . S
C4630 C4631 1.355 . S
C4630 C4632 1.415 . S
C4631 C4630 1.355 . S
C4631 C4633 1.419 . S
C4632 C4630 1.415 . S
C4632 C4637 1.425 . S
C4632 C4639 1.409 . S
C4633 H4625 0.930 . S
C4633 C4631 1.419 . S
C4633 C4634 1.362 . S
C4634 H4626 0.930 . S
C4634 C4633 1.362 . S
C4634 C4637 1.409 . S
C4635 H4627 0.930 . S
C4635 C4636 1.355 . S
C4635 C4637 1.415 . S
C4636 C4635 1.355 . S
C4636 C4638 1.419 . S
C4637 C4632 1.425 . S
C4637 C4634 1.409 . S
C4637 C4635 1.415 . S
C4638 H4628 0.930 . S
C4638 C4636 1.419 . S
C4638 C4639 1.362 . S
C4639 H4629 0.930 . S
C4639 C4632 1.409 . S
C4639 C4638 1.362 . S
H4640 C4646 0.930 1_556 S
H4641 C4649 0.930 . S
H4642 C4650 0.930 . S
H4643 C4651 0.930 . S
H4644 C4654 0.926 1_556 S
H4645 C4655 0.930 . S
C4646 H4640 0.930 1_554 S
C4646 C4647 1.355 . S
C4646 C4648 1.415 . S
C4647 C4646 1.355 . S
C4647 C4649 1.419 . S
C4648 C4646 1.415 . S
C4648 C4653 1.425 . S
C4648 C4655 1.409 1_554 S
C4649 H4641 0.930 . S
C4649 C4647 1.419 . S
C4649 C4650 1.362 . S
C4650 H4642 0.930 . S
C4650 C4649 1.362 . S
C4650 C4653 1.409 . S
C4651 H4643 0.930 . S
C4651 C4652 1.355 . S
C4651 C4653 1.415 . S
C4652 C4651 1.355 . S
C4652 C4654 1.425 . S
C4653 C4648 1.425 . S
C4653 C4650 1.409 . S
C4653 C4651 1.415 . S
C4654 H4644 0.926 1_554 S
C4654 C4652 1.425 . S
C4654 C4655 1.360 1_554 S
C4655 H4645 0.930 . S
C4655 C4648 1.409 1_556 S
C4655 C4654 1.360 1_556 S
H4656 C4662 0.930 . S
H4657 C4665 0.930 . S
H4658 C4666 0.930 . S
H4659 C4667 0.930 . S
H4660 C4670 0.930 . S
H4661 C4671 0.930 . S
C4662 H4656 0.930 . S
C4662 C4663 1.355 . S
C4662 C4664 1.415 . S
C4663 C4662 1.355 . S
C4663 C4665 1.419 . S
C4664 C4662 1.415 . S
C4664 C4669 1.425 . S
C4664 C4671 1.409 . S
C4665 H4657 0.930 . S
C4665 C4663 1.419 . S
C4665 C4666 1.362 . S
C4666 H4658 0.930 . S
C4666 C4665 1.362 . S
C4666 C4669 1.409 . S
C4667 H4659 0.930 . S
C4667 C4668 1.355 . S
C4667 C4669 1.415 . S
C4668 C4667 1.355 . S
C4668 C4670 1.419 . S
C4669 C4664 1.425 . S
C4669 C4666 1.409 . S
C4669 C4667 1.415 . S
C4670 H4660 0.930 . S
C4670 C4668 1.419 . S
C4670 C4671 1.362 . S
C4671 H4661 0.930 . S
C4671 C4664 1.409 . S
C4671 C4670 1.362 . S
H4672 C4678 0.930 . S
H4673 C4681 0.930 . S
H4674 C4682 0.930 . S
H4675 C4683 0.930 1_554 S
H4676 C4686 0.930 . S
H4677 C4687 0.930 . S
C4678 H4672 0.930 . S
C4678 C4679 1.355 . S
C4678 C4680 1.415 . S
C4679 C4678 1.355 . S
C4679 C4681 1.419 . S
C4680 C4678 1.415 . S
C4680 C4685 1.425 . S
C4680 C4687 1.409 . S
C4681 H4673 0.930 . S
C4681 C4679 1.419 . S
C4681 C4682 1.362 . S
C4682 H4674 0.930 . S
C4682 C4681 1.362 . S
C4682 C4685 1.409 . S
C4683 H4675 0.930 1_556 S
C4683 C4684 1.355 . S
C4683 C4685 1.415 . S
C4684 C4683 1.355 . S
C4684 C4686 1.419 . S
C4685 C4680 1.425 . S
C4685 C4682 1.409 . S
C4685 C4683 1.415 . S
C4686 H4676 0.930 . S
C4686 C4684 1.419 . S
C4686 C4687 1.362 . S
C4687 H4677 0.930 . S
C4687 C4680 1.409 . S
C4687 C4686 1.362 . S
H4688 C4694 0.930 . S
H4689 C4697 0.930 . S
H4690 C4698 0.930 . S
H4691 C4699 0.930 . S
H4692 C4702 0.930 . S
H4693 C4703 0.930 . S
C4694 H4688 0.930 . S
C4694 C4695 1.355 . S
C4694 C4696 1.415 . S
C4695 C4694 1.355 . S
C4695 C4697 1.419 . S
C4696 C4694 1.415 . S
C4696 C4701 1.425 . S
C4696 C4703 1.409 . S
C4697 H4689 0.930 . S
C4697 C4695 1.419 . S
C4697 C4698 1.362 . S
C4698 H4690 0.930 . S
C4698 C4697 1.362 . S
C4698 C4701 1.409 . S
C4699 H4691 0.930 . S
C4699 C4700 1.355 . S
C4699 C4701 1.415 . S
C4700 C4699 1.355 . S
C4700 C4702 1.419 . S
C4701 C4696 1.425 . S
C4701 C4698 1.409 . S
C4701 C4699 1.415 . S
C4702 H4692 0.930 . S
C4702 C4700 1.419 . S
C4702 C4703 1.362 . S
C4703 H4693 0.930 . S
C4703 C4696 1.409 . S
C4703 C4702 1.362 . S
H4704 C4710 0.930 . S
H4705 C4713 0.930 . S
H4706 C4714 0.930 . S
H4707 C4715 0.930 . S
H4708 C4718 0.930 . S
H4709 C4719 0.930 . S
C4710 H4704 0.930 . S
C4710 C4711 1.355 . S
C4710 C4712 1.415 . S
C4711 C4710 1.355 . S
C4711 C4713 1.419 . S
C4712 C4710 1.415 . S
C4712 C4717 1.425 . S
C4712 C4719 1.409 . S
C4713 H4705 0.930 . S
C4713 C4711 1.419 . S
C4713 C4714 1.362 . S
C4714 H4706 0.930 . S
C4714 C4713 1.362 . S
C4714 C4717 1.409 . S
C4715 H4707 0.930 . S
C4715 C4716 1.355 . S
C4715 C4717 1.415 . S
C4716 C4715 1.355 . S
C4716 C4718 1.419 . S
C4717 C4712 1.425 . S
C4717 C4714 1.409 . S
C4717 C4715 1.415 . S
C4718 H4708 0.930 . S
C4718 C4716 1.419 . S
C4718 C4719 1.362 . S
C4719 H4709 0.930 . S
C4719 C4712 1.409 . S
C4719 C4718 1.362 . S
H4720 C4726 0.930 . S
H4721 C4729 0.930 . S
H4722 C4730 0.930 . S
H4723 C4731 0.930 . S
H4724 C4734 0.930 . S
H4725 C4735 0.930 . S
C4726 H4720 0.930 . S
C4726 C4727 1.355 . S
C4726 C4728 1.415 . S
C4727 C4726 1.355 . S
C4727 C4729 1.419 . S
C4728 C4726 1.415 . S
C4728 C4733 1.425 . S
C4728 C4735 1.409 . S
C4729 H4721 0.930 . S
C4729 C4727 1.419 . S
C4729 C4730 1.362 . S
C4730 H4722 0.930 . S
C4730 C4729 1.362 . S
C4730 C4733 1.409 . S
C4731 H4723 0.930 . S
C4731 C4732 1.355 . S
C4731 C4733 1.415 . S
C4732 C4731 1.355 . S
C4732 C4734 1.419 . S
C4733 C4728 1.425 . S
C4733 C4730 1.409 . S
C4733 C4731 1.415 . S
C4734 H4724 0.930 . S
C4734 C4732 1.419 . S
C4734 C4735 1.362 . S
C4735 H4725 0.930 . S
C4735 C4728 1.409 . S
C4735 C4734 1.362 . S
H4736 C4742 0.930 . S
H4737 C4745 0.930 . S
H4738 C4746 0.930 . S
H4739 C4747 0.930 . S
H4740 C4750 0.930 . S
H4741 C4751 0.930 . S
C4742 H4736 0.930 . S
C4742 C4743 1.355 . S
C4742 C4744 1.415 . S
C4743 C4742 1.355 . S
C4743 C4745 1.419 . S
C4744 C4742 1.415 . S
C4744 C4749 1.425 . S
C4744 C4751 1.409 . S
C4745 H4737 0.930 . S
C4745 C4743 1.419 . S
C4745 C4746 1.362 . S
C4746 H4738 0.930 . S
C4746 C4745 1.362 . S
C4746 C4749 1.409 . S
C4747 H4739 0.930 . S
C4747 C4748 1.355 . S
C4747 C4749 1.415 . S
C4748 C4747 1.355 . S
C4748 C4750 1.419 . S
C4749 C4744 1.425 . S
C4749 C4746 1.409 . S
C4749 C4747 1.415 . S
C4750 H4740 0.930 . S
C4750 C4748 1.419 . S
C4750 C4751 1.362 . S
C4751 H4741 0.930 . S
C4751 C4744 1.409 . S
C4751 C4750 1.362 . S
H4752 C4758 0.930 . S
H4753 C4761 0.930 . S
H4754 C4762 0.930 . S
H4755 C4763 0.930 . S
H4756 C4766 0.930 . S
H4757 C4767 0.930 . S
C4758 H4752 0.930 . S
C4758 C4759 1.355 . S
C4758 C4760 1.415 . S
C4759 C4758 1.355 . S
C4759 C4761 1.419 . S
C4760 C4758 1.415 . S
C4760 C4765 1.425 . S
C4760 C4767 1.409 . S
C4761 H4753 0.930 . S
C4761 C4759 1.419 . S
C4761 C4762 1.362 . S
C4762 H4754 0.930 . S
C4762 C4761 1.362 . S
C4762 C4765 1.409 . S
C4763 H4755 0.930 . S
C4763 C4764 1.355 . S
C4763 C4765 1.415 . S
C4764 C4763 1.355 . S
C4764 C4766 1.419 . S
C4765 C4760 1.425 . S
C4765 C4762 1.409 . S
C4765 C4763 1.415 . S
C4766 H4756 0.930 . S
C4766 C4764 1.419 . S
C4766 C4767 1.362 . S
C4767 H4757 0.930 . S
C4767 C4760 1.409 . S
C4767 C4766 1.362 . S
H4768 C4774 0.930 . S
H4769 C4777 0.930 . S
H4770 C4778 0.930 . S
H4771 C4779 0.930 . S
H4772 C4782 0.930 . S
H4773 C4783 0.930 1_655 S
C4774 H4768 0.930 . S
C4774 C4775 1.355 . S
C4774 C4776 1.415 . S
C4775 C4774 1.355 . S
C4775 C4777 1.419 . S
C4776 C4774 1.415 . S
C4776 C4781 1.425 1_655 S
C4776 C4783 1.409 1_655 S
C4777 H4769 0.930 . S
C4777 C4775 1.419 . S
C4777 C4778 1.362 1_655 S
C4778 H4770 0.930 . S
C4778 C4777 1.362 1_455 S
C4778 C4781 1.409 . S
C4779 H4771 0.930 . S
C4779 C4780 1.355 . S
C4779 C4781 1.415 . S
C4780 C4779 1.355 . S
C4780 C4782 1.419 . S
C4781 C4776 1.425 1_455 S
C4781 C4778 1.409 . S
C4781 C4779 1.415 . S
C4782 H4772 0.930 . S
C4782 C4780 1.419 . S
C4782 C4783 1.362 . S
C4783 H4773 0.930 1_455 S
C4783 C4776 1.409 1_455 S
C4783 C4782 1.362 . S
H4784 C4790 0.930 . S
H4785 C4793 0.930 . S
H4786 C4794 0.930 . S
H4787 C4795 0.930 . S
H4788 C4798 0.930 . S
H4789 C4799 0.930 . S
C4790 H4784 0.930 . S
C4790 C4791 1.355 . S
C4790 C4792 1.415 . S
C4791 C4790 1.355 . S
C4791 C4793 1.419 . S
C4792 C4790 1.415 . S
C4792 C4797 1.425 . S
C4792 C4799 1.409 . S
C4793 H4785 0.930 . S
C4793 C4791 1.419 . S
C4793 C4794 1.362 . S
C4794 H4786 0.930 . S
C4794 C4793 1.362 . S
C4794 C4797 1.409 . S
C4795 H4787 0.930 . S
C4795 C4796 1.355 . S
C4795 C4797 1.415 . S
C4796 C4795 1.355 . S
C4796 C4798 1.419 . S
C4797 C4792 1.425 . S
C4797 C4794 1.409 . S
C4797 C4795 1.415 . S
C4798 H4788 0.930 . S
C4798 C4796 1.419 . S
C4798 C4799 1.362 . S
C4799 H4789 0.930 . S
C4799 C4792 1.409 . S
C4799 C4798 1.362 . S
H4800 C4806 0.930 . S
H4801 C4809 0.930 . S
H4802 C4810 0.930 . S
H4803 C4811 0.930 . S
H4804 C4814 0.930 . S
H4805 C4815 0.930 . S
C4806 H4800 0.930 . S
C4806 C4807 1.355 . S
C4806 C4808 1.415 . S
C4807 C4806 1.355 . S
C4807 C4809 1.419 . S
C4808 C4806 1.415 . S
C4808 C4813 1.425 . S
C4808 C4815 1.409 . S
C4809 H4801 0.930 . S
C4809 C4807 1.419 . S
C4809 C4810 1.362 . S
C4810 H4802 0.930 . S
C4810 C4809 1.362 . S
C4810 C4813 1.409 . S
C4811 H4803 0.930 . S
C4811 C4812 1.355 . S
C4811 C4813 1.415 . S
C4812 C4811 1.355 . S
C4812 C4814 1.419 . S
C4813 C4808 1.425 . S
C4813 C4810 1.409 . S
C4813 C4811 1.415 . S
C4814 H4804 0.930 . S
C4814 C4812 1.419 . S
C4814 C4815 1.362 . S
C4815 H4805 0.930 . S
C4815 C4808 1.409 . S
C4815 C4814 1.362 . S
H4816 C4822 0.930 . S
H4817 C4825 0.930 . S
H4818 C4826 0.930 . S
H4819 C4827 0.930 . S
H4820 C4830 0.930 . S
H4821 C4831 0.930 . S
C4822 H4816 0.930 . S
C4822 C4823 1.355 . S
C4822 C4824 1.415 . S
C4823 C4822 1.355 . S
C4823 C4825 1.419 . S
C4824 C4822 1.415 . S
C4824 C4829 1.425 . S
C4824 C4831 1.409 . S
C4825 H4817 0.930 . S
C4825 C4823 1.419 . S
C4825 C4826 1.362 . S
C4826 H4818 0.930 . S
C4826 C4825 1.362 . S
C4826 C4829 1.409 . S
C4827 H4819 0.930 . S
C4827 C4828 1.355 . S
C4827 C4829 1.415 . S
C4828 C4827 1.355 . S
C4828 C4830 1.419 . S
C4829 C4824 1.425 . S
C4829 C4826 1.409 . S
C4829 C4827 1.415 . S
C4830 H4820 0.930 . S
C4830 C4828 1.419 . S
C4830 C4831 1.362 . S
C4831 H4821 0.930 . S
C4831 C4824 1.409 . S
C4831 C4830 1.362 . S
H4832 C4838 0.930 . S
H4833 C4841 0.930 . S
H4834 C4842 0.930 . S
H4835 C4843 0.930 . S
H4836 C4846 0.930 . S
H4837 C4847 0.930 . S
C4838 H4832 0.930 . S
C4838 C4839 1.355 . S
C4838 C4840 1.415 . S
C4839 C4838 1.355 . S
C4839 C4841 1.419 . S
C4840 C4838 1.415 . S
C4840 C4845 1.425 . S
C4840 C4847 1.409 1_655 S
C4841 H4833 0.930 . S
C4841 C4839 1.419 . S
C4841 C4842 1.362 . S
C4842 H4834 0.930 . S
C4842 C4841 1.362 . S
C4842 C4845 1.409 . S
C4843 H4835 0.930 . S
C4843 C4844 1.355 1_655 S
C4843 C4845 1.415 . S
C4844 C4843 1.355 1_455 S
C4844 C4846 1.419 . S
C4845 C4840 1.425 . S
C4845 C4842 1.409 . S
C4845 C4843 1.415 . S
C4846 H4836 0.930 . S
C4846 C4844 1.419 . S
C4846 C4847 1.362 . S
C4847 H4837 0.930 . S
C4847 C4840 1.409 1_455 S
C4847 C4846 1.362 . S
H4848 C4854 0.930 . S
H4849 C4857 0.930 . S
H4850 C4858 0.930 . S
H4851 C4859 0.930 . S
H4852 C4862 0.930 . S
H4853 C4863 0.930 . S
C4854 H4848 0.930 . S
C4854 C4855 1.355 . S
C4854 C4856 1.415 . S
C4855 C4854 1.355 . S
C4855 C4857 1.419 . S
C4856 C4854 1.415 . S
C4856 C4861 1.425 . S
C4856 C4863 1.409 . S
C4857 H4849 0.930 . S
C4857 C4855 1.419 . S
C4857 C4858 1.362 . S
C4858 H4850 0.930 . S
C4858 C4857 1.362 . S
C4858 C4861 1.409 . S
C4859 H4851 0.930 . S
C4859 C4860 1.355 . S
C4859 C4861 1.415 . S
C4860 C4859 1.355 . S
C4860 C4862 1.419 . S
C4861 C4856 1.425 . S
C4861 C4858 1.409 . S
C4861 C4859 1.415 . S
C4862 H4852 0.930 . S
C4862 C4860 1.419 . S
C4862 C4863 1.362 . S
C4863 H4853 0.930 . S
C4863 C4856 1.409 . S
C4863 C4862 1.362 . S
H4864 C4870 0.930 . S
H4865 C4873 0.930 . S
H4866 C4874 0.930 . S
H4867 C4875 0.930 . S
H4868 C4878 0.930 . S
H4869 C4879 0.930 . S
C4870 H4864 0.930 . S
C4870 C4871 1.355 . S
C4870 C4872 1.415 . S
C4871 C4870 1.355 . S
C4871 C4873 1.419 . S
C4872 C4870 1.415 . S
C4872 C4877 1.425 . S
C4872 C4879 1.409 . S
C4873 H4865 0.930 . S
C4873 C4871 1.419 . S
C4873 C4874 1.362 . S
C4874 H4866 0.930 . S
C4874 C4873 1.362 . S
C4874 C4877 1.409 . S
C4875 H4867 0.930 . S
C4875 C4876 1.355 . S
C4875 C4877 1.415 . S
C4876 C4875 1.355 . S
C4876 C4878 1.419 . S
C4877 C4872 1.425 . S
C4877 C4874 1.409 . S
C4877 C4875 1.415 . S
C4878 H4868 0.930 . S
C4878 C4876 1.419 . S
C4878 C4879 1.362 . S
C4879 H4869 0.930 . S
C4879 C4872 1.409 . S
C4879 C4878 1.362 . S
H4880 C4886 0.930 . S
H4881 C4889 0.930 . S
H4882 C4890 0.930 . S
H4883 C4891 0.930 1_545 S
H4884 C4894 0.930 1_455 S
H4885 C4895 0.930 . S
C4886 H4880 0.930 . S
C4886 C4887 1.355 . S
C4886 C4888 1.415 . S
C4887 C4886 1.355 . S
C4887 C4889 1.419 . S
C4888 C4886 1.415 . S
C4888 C4893 1.425 . S
C4888 C4895 1.409 . S
C4889 H4881 0.930 . S
C4889 C4887 1.419 . S
C4889 C4890 1.362 . S
C4890 H4882 0.930 . S
C4890 C4889 1.362 . S
C4890 C4893 1.409 . S
C4891 H4883 0.930 1_565 S
C4891 C4892 1.359 1_565 S
C4891 C4893 1.415 . S
C4892 C4891 1.359 1_545 S
C4892 C4894 1.400 1_545 S
C4893 C4888 1.425 . S
C4893 C4890 1.409 . S
C4893 C4891 1.415 . S
C4894 H4884 0.930 1_655 S
C4894 C4892 1.400 1_565 S
C4894 C4895 1.362 . S
C4895 H4885 0.930 . S
C4895 C4888 1.409 . S
C4895 C4894 1.362 . S
H4896 C4902 0.930 . S
H4897 C4905 0.930 . S
H4898 C4906 0.930 . S
H4899 C4907 0.930 . S
H4900 C4910 0.930 . S
H4901 C4911 0.930 . S
C4902 H4896 0.930 . S
C4902 C4903 1.355 . S
C4902 C4904 1.415 . S
C4903 C4902 1.355 . S
C4903 C4905 1.419 . S
C4904 C4902 1.415 . S
C4904 C4909 1.425 . S
C4904 C4911 1.409 . S
C4905 H4897 0.930 . S
C4905 C4903 1.419 . S
C4905 C4906 1.362 . S
C4906 H4898 0.930 . S
C4906 C4905 1.362 . S
C4906 C4909 1.409 . S
C4907 H4899 0.930 . S
C4907 C4908 1.355 . S
C4907 C4909 1.415 . S
C4908 C4907 1.355 . S
C4908 C4910 1.419 . S
C4909 C4904 1.425 . S
C4909 C4906 1.409 . S
C4909 C4907 1.415 . S
C4910 H4900 0.930 . S
C4910 C4908 1.419 . S
C4910 C4911 1.362 . S
C4911 H4901 0.930 . S
C4911 C4904 1.409 . S
C4911 C4910 1.362 . S
H4912 C4918 0.969 . S
H4913 C4921 0.930 . S
H4914 C4922 0.930 . S
H4915 C4923 0.930 . S
H4916 C4926 0.930 . S
H4917 C4927 0.930 . S
C4918 H4912 0.969 . S
C4918 C4919 1.330 1_556 S
C4918 C4920 1.402 1_556 S
C4919 C4918 1.330 1_554 S
C4919 C4921 1.419 . S
C4920 C4918 1.402 1_554 S
C4920 C4925 1.425 . S
C4920 C4927 1.409 1_554 S
C4921 H4913 0.930 . S
C4921 C4919 1.419 . S
C4921 C4922 1.362 . S
C4922 H4914 0.930 . S
C4922 C4921 1.362 . S
C4922 C4925 1.409 . S
C4923 H4915 0.930 . S
C4923 C4924 1.355 . S
C4923 C4925 1.415 . S
C4924 C4923 1.355 . S
C4924 C4926 1.419 1_554 S
C4925 C4920 1.425 . S
C4925 C4922 1.409 . S
C4925 C4923 1.415 . S
C4926 H4916 0.930 . S
C4926 C4924 1.419 1_556 S
C4926 C4927 1.362 . S
C4927 H4917 0.930 . S
C4927 C4920 1.409 1_556 S
C4927 C4926 1.362 . S
H4928 C4934 0.930 . S
H4929 C4937 0.930 . S
H4930 C4938 0.930 . S
H4931 C4939 0.930 . S
H4932 C4942 0.930 . S
H4933 C4943 0.930 . S
C4934 H4928 0.930 . S
C4934 C4935 1.355 . S
C4934 C4936 1.415 . S
C4935 C4934 1.355 . S
C4935 C4937 1.419 . S
C4936 C4934 1.415 . S
C4936 C4941 1.425 . S
C4936 C4943 1.409 . S
C4937 H4929 0.930 . S
C4937 C4935 1.419 . S
C4937 C4938 1.362 . S
C4938 H4930 0.930 . S
C4938 C4937 1.362 . S
C4938 C4941 1.409 . S
C4939 H4931 0.930 . S
C4939 C4940 1.355 . S
C4939 C4941 1.415 . S
C4940 C4939 1.355 . S
C4940 C4942 1.419 . S
C4941 C4936 1.425 . S
C4941 C4938 1.409 . S
C4941 C4939 1.415 . S
C4942 H4932 0.930 . S
C4942 C4940 1.419 . S
C4942 C4943 1.362 . S
C4943 H4933 0.930 . S
C4943 C4936 1.409 . S
C4943 C4942 1.362 . S
H4944 C4950 0.930 . S
H4945 C4953 0.930 . S
H4946 C4954 0.930 . S
H4947 C4955 0.930 . S
H4948 C4958 0.930 1_556 S
H4949 C4959 0.930 . S
C4950 H4944 0.930 . S
C4950 C4951 1.355 . S
C4950 C4952 1.415 . S
C4951 C4950 1.355 . S
C4951 C4953 1.419 . S
C4952 C4950 1.415 . S
C4952 C4957 1.425 . S
C4952 C4959 1.409 . S
C4953 H4945 0.930 . S
C4953 C4951 1.419 . S
C4953 C4954 1.362 . S
C4954 H4946 0.930 . S
C4954 C4953 1.362 . S
C4954 C4957 1.409 . S
C4955 H4947 0.930 . S
C4955 C4956 1.355 . S
C4955 C4957 1.415 . S
C4956 C4955 1.355 . S
C4956 C4958 1.419 . S
C4957 C4952 1.425 . S
C4957 C4954 1.409 . S
C4957 C4955 1.415 . S
C4958 H4948 0.930 1_554 S
C4958 C4956 1.419 . S
C4958 C4959 1.362 . S
C4959 H4949 0.930 . S
C4959 C4952 1.409 . S
C4959 C4958 1.362 . S
H4960 C4966 0.930 . S
H4961 C4969 0.930 . S
H4962 C4970 0.930 . S
H4963 C4971 0.930 . S
H4964 C4974 0.930 . S
H4965 C4975 0.930 . S
C4966 H4960 0.930 . S
C4966 C4967 1.355 . S
C4966 C4968 1.415 . S
C4967 C4966 1.355 . S
C4967 C4969 1.419 . S
C4968 C4966 1.415 . S
C4968 C4973 1.425 . S
C4968 C4975 1.409 . S
C4969 H4961 0.930 . S
C4969 C4967 1.419 . S
C4969 C4970 1.362 . S
C4970 H4962 0.930 . S
C4970 C4969 1.362 . S
C4970 C4973 1.409 . S
C4971 H4963 0.930 . S
C4971 C4972 1.355 . S
C4971 C4973 1.415 . S
C4972 C4971 1.355 . S
C4972 C4974 1.419 . S
C4973 C4968 1.425 . S
C4973 C4970 1.409 . S
C4973 C4971 1.415 . S
C4974 H4964 0.930 . S
C4974 C4972 1.419 . S
C4974 C4975 1.362 . S
C4975 H4965 0.930 . S
C4975 C4968 1.409 . S
C4975 C4974 1.362 . S
H4976 C4982 0.930 . S
H4977 C4985 0.930 . S
H4978 C4986 0.930 . S
H4979 C4987 0.930 . S
H4980 C4990 0.930 . S
H4981 C4991 0.930 . S
C4982 H4976 0.930 . S
C4982 C4983 1.355 . S
C4982 C4984 1.415 . S
C4983 C4982 1.355 . S
C4983 C4985 1.419 . S
C4984 C4982 1.415 . S
C4984 C4989 1.425 . S
C4984 C4991 1.409 . S
C4985 H4977 0.930 . S
C4985 C4983 1.419 . S
C4985 C4986 1.362 . S
C4986 H4978 0.930 . S
C4986 C4985 1.362 . S
C4986 C4989 1.409 . S
C4987 H4979 0.930 . S
C4987 C4988 1.355 . S
C4987 C4989 1.415 . S
C4988 C4987 1.355 . S
C4988 C4990 1.419 . S
C4989 C4984 1.425 . S
C4989 C4986 1.409 . S
C4989 C4987 1.415 . S
C4990 H4980 0.930 . S
C4990 C4988 1.419 . S
C4990 C4991 1.362 . S
C4991 H4981 0.930 . S
C4991 C4984 1.409 . S
C4991 C4990 1.362 . S
C3463 C665 1.777 1_554 S
C3468 C2168 1.679 . S
C3479 C381 2.176 . S
C3484 C2259 2.201 . S
C3495 C460 1.677 . S
C3500 C2336 1.715 . S
C3516 C2434 1.474 . S
C3511 C585 1.596 . S
C3527 C108 1.542 . S
C3532 C2518 1.559 . S
C3548 C2590 0.924 . S
C3543 C196 1.077 . S
C3564 C2679 1.044 . S
C3559 C313 0.942 . S
C3575 C49 1.402 . S
C3580 C2756 1.317 . S
C3596 C2175 1.971 . S
C3591 C1457 2.068 1_455 S
C3607 C1545 0.578 . S
C3612 C2266 0.621 . S
C3628 C2343 1.150 . S
C3623 C1721 1.168 . S
C3644 C2420 1.771 . S
C3639 C1113 1.794 . S
C3655 C1428 2.188 . S
C3660 C2504 2.029 . S
C3676 C2606 1.104 . S
C3671 C1516 1.123 . S
C3692 C2686 0.664 . S
C3687 C1692 0.685 . S
C3708 C2763 1.474 . S
C3703 C1085 1.569 . S
C3724 C2182 1.426 . S
C3719 C988 1.497 . S
C3735 C1817 1.951 . S
C3740 C2847 1.888 . S
C3756 C2935 2.100 . S
C3751 C2081 2.303 . S
C3772 C3008 0.598 . S
C3767 C1993 0.440 . S
C3783 C761 0.896 . S
C3788 C2770 0.944 . S
C3799 C821 1.455 . S
C3804 C2350 1.455 . S
C3815 C2053 2.322 . S
C3820 C3099 2.268 . S
C3836 C3176 0.675 . S
C3831 C1868 0.697 . S
C3852 C2179 1.784 . S
C3847 C372 1.821 . S
C3868 C3194 2.193 . S
C3863 C645 2.180 . S
C3879 C577 1.722 . S
C3884 C2347 1.698 . S
C3895 C497 1.598 . S
C3900 C3094 1.505 . S
C3916 C2506 1.555 . S
C3911 C57 1.555 . S
C3927 C293 1.113 . S
C3932 C2938 1.004 . S
C3948 C2690 1.041 . S
C3943 C205 1.050 . S
C3964 C3271 1.187 . S
C3959 C145 1.388 . S
C3980 C2186 2.010 . S
C3975 C909 2.082 . S
C3996 C3178 0.660 . S
C3991 C1956 0.564 . S
C4007 C724 1.156 . S
C4012 C2354 1.182 . S
C4023 C1780 1.733 . S
C4028 C3103 1.745 . S
C4039 C937 2.220 . S
C4044 C2515 2.093 . S
C4060 C2931 1.089 . S
C4055 C1985 1.127 . S
C4071 C753 0.717 . S
C4076 C2674 0.818 . S
C4087 C1809 1.564 . S
C4092 C3278 1.474 . S
C4103 C1173 1.466 . S
C4108 C2170 1.374 1_554 S
C4119 C1105 1.950 . S
C4124 C2858 1.904 . S
C4135 C1633 2.306 . S
C4140 C2588 2.158 . S
C4151 C1553 0.525 . S
C4156 C3019 0.623 . S
C4172 C3262 0.897 . S
C4167 C1729 0.844 . S
C4183 C1340 1.444 . S
C4188 C2338 1.466 . S
C4204 C2438 2.230 . S
C4199 C1604 2.300 . S
C4220 C2263 0.704 . S
C4215 C1252 0.676 . S
C4231 C489 1.773 . S
C4236 C3344 1.681 . S
C4252 C3183 2.178 . S
C4247 C557 2.201 . S
C4263 C636 1.706 . S
C4268 C3428 1.748 . S
C4279 C409 1.595 1_655 S
C4284 C3106 1.485 . S
C4295 C284 1.549 . S
C4300 C2854 1.559 . S
C4316 C2926 0.873 . S
C4311 C20 1.032 . S
C4332 C3015 1.038 . S
C4327 C137 1.058 . S
C4348 C3260 1.195 . S
C4343 C225 1.390 . S
C4364 C3351 2.016 . S
C4359 C1641 2.074 . S
C4375 C1193 0.563 . S
C4380 C3190 0.674 . S
C4396 C3435 1.119 . S
C4391 C1289 1.186 . S
C4412 C3092 1.739 . S
C4407 C1377 1.743 . S
C4428 C2840 2.044 . S
C4423 C1613 2.168 . S
C4439 C1164 1.124 . S
C4444 C2942 1.122 . S
C4460 C3022 0.672 . S
C4455 C1261 0.685 . S
C4471 C1349 1.607 . S
C4476 C3267 1.496 . S
C4492 C3358 1.354 . S
C4487 C1965 1.461 . S
C4503 C849 1.956 . S
C4508 C2511 1.904 . S
C4524 C2599 2.159 . S
C4519 C929 2.315 . S
C4540 C2672 0.622 . S
C4535 C1017 0.551 1_545 S
C4556 C3274 0.928 . S
C4551 C1897 0.930 . S
C4567 C1789 1.468 . S
C4572 C3442 1.406 . S
C4588 C2427 2.242 . S
C4583 C900 2.323 . S
C4604 C2252 0.635 . S
C4599 C733 0.748 . S
C4615 C548 1.765 . S
C4620 C3355 1.704 . S
C4636 C2270 2.180 . S
C4631 C469 2.182 . S
C4647 C401 1.660 . S
C4652 C3439 1.751 . S
C4663 C673 1.599 . S
C4668 C2422 1.426 . S
C4679 C233 1.570 . S
C4684 C2842 1.535 . S
C4700 C2602 0.928 . S
C4695 C117 1.039 . S
C4711 C29 0.935 . S
C4716 C3026 1.055 . S
C4727 C321 1.426 . S
C4732 C2767 1.314 . S
C4748 C3362 1.979 . S
C4743 C2044 2.087 . S
C4759 C997 0.573 . S
C4764 C2254 0.654 . S
C4780 C3446 1.101 . S
C4775 C1877 1.188 . S
C4791 C812 1.782 . S
C4796 C2431 1.720 . S
C4807 C2073 2.218 . S
C4812 C2851 2.098 . S
C4828 C2595 1.113 . S
C4823 C1025 1.124 . S
C4839 C1905 0.688 . S
C4844 C3010 0.608 . S
C4860 C2774 1.500 . S
C4855 C841 1.579 . S
C4876 C3346 1.419 . S
C4871 C1525 1.498 . S
C4892 C2522 1.936 1_655 S
C4887 C1369 1.940 . S
C4903 C1465 2.306 . S
C4908 C2924 2.151 . S
C4924 C2683 0.421 . S
C4919 C1201 0.476 . S
C4935 C1281 0.903 . S
C4940 C2758 0.941 . S
C4951 C1076 1.454 . S
C4956 C3430 1.457 1_554 S
C4972 C3110 2.218 . S
C4967 C1437 2.316 . S
C4988 C3187 0.777 . S
C4983 C1701 0.653 . S
