# Generated by pormake.
# Topology ocu, (6,8)-cn, num edge types: 1
# Building blocks:
#     Node 0, Type 0, BuildingBlock: FUNLAD_clean_sbu_0, # of connection points: 6
#     Node 1, Type 0, BuildingBlock: FUNLAD_clean_sbu_0, # of connection points: 6
#     Node 2, Type 0, BuildingBlock: FUNLAD_clean_sbu_0, # of connection points: 6
#     Node 3, Type 0, BuildingBlock: FUNLAD_clean_sbu_0, # of connection points: 6
#     Node 4, Type 0, BuildingBlock: FUNLAD_clean_sbu_0, # of connection points: 6
#     Node 5, Type 0, BuildingBlock: FUNLAD_clean_sbu_0, # of connection points: 6
#     Node 6, Type 0, BuildingBlock: FUNLAD_clean_sbu_0, # of connection points: 6
#     Node 7, Type 0, BuildingBlock: FUNLAD_clean_sbu_0, # of connection points: 6
#     Node 8, Type 1, BuildingBlock: TAGTUT_clean_sbu_1, # of connection points: 8
#     Node 9, Type 1, BuildingBlock: TAGTUT_clean_sbu_1, # of connection points: 8
#     Node 10, Type 1, BuildingBlock: TAGTUT_clean_sbu_1, # of connection points: 8
#     Node 11, Type 1, BuildingBlock: TAGTUT_clean_sbu_1, # of connection points: 8
#     Node 12, Type 1, BuildingBlock: TAGTUT_clean_sbu_1, # of connection points: 8
#     Node 13, Type 1, BuildingBlock: TAGTUT_clean_sbu_1, # of connection points: 8
#     Edge 14, Type (0, 1), BuildingBlock: TEMPAE_clean_linker_10, # of connection points: 2
#     Edge 15, Type (0, 1), BuildingBlock: TEMPAE_clean_linker_10, # of connection points: 2
#     Edge 16, Type (0, 1), BuildingBlock: TEMPAE_clean_linker_10, # of connection points: 2
#     Edge 17, Type (0, 1), BuildingBlock: TEMPAE_clean_linker_10, # of connection points: 2
#     Edge 18, Type (0, 1), BuildingBlock: TEMPAE_clean_linker_10, # of connection points: 2
#     Edge 19, Type (0, 1), BuildingBlock: TEMPAE_clean_linker_10, # of connection points: 2
#     Edge 20, Type (0, 1), BuildingBlock: TEMPAE_clean_linker_10, # of connection points: 2
#     Edge 21, Type (0, 1), BuildingBlock: TEMPAE_clean_linker_10, # of connection points: 2
#     Edge 22, Type (0, 1), BuildingBlock: TEMPAE_clean_linker_10, # of connection points: 2
#     Edge 23, Type (0, 1), BuildingBlock: TEMPAE_clean_linker_10, # of connection points: 2
#     Edge 24, Type (0, 1), BuildingBlock: TEMPAE_clean_linker_10, # of connection points: 2
#     Edge 25, Type (0, 1), BuildingBlock: TEMPAE_clean_linker_10, # of connection points: 2
#     Edge 26, Type (0, 1), BuildingBlock: TEMPAE_clean_linker_10, # of connection points: 2
#     Edge 27, Type (0, 1), BuildingBlock: TEMPAE_clean_linker_10, # of connection points: 2
#     Edge 28, Type (0, 1), BuildingBlock: TEMPAE_clean_linker_10, # of connection points: 2
#     Edge 29, Type (0, 1), BuildingBlock: TEMPAE_clean_linker_10, # of connection points: 2
#     Edge 30, Type (0, 1), BuildingBlock: TEMPAE_clean_linker_10, # of connection points: 2
#     Edge 31, Type (0, 1), BuildingBlock: TEMPAE_clean_linker_10, # of connection points: 2
#     Edge 32, Type (0, 1), BuildingBlock: TEMPAE_clean_linker_10, # of connection points: 2
#     Edge 33, Type (0, 1), BuildingBlock: TEMPAE_clean_linker_10, # of connection points: 2
#     Edge 34, Type (0, 1), BuildingBlock: TEMPAE_clean_linker_10, # of connection points: 2
#     Edge 35, Type (0, 1), BuildingBlock: TEMPAE_clean_linker_10, # of connection points: 2
#     Edge 36, Type (0, 1), BuildingBlock: TEMPAE_clean_linker_10, # of connection points: 2
#     Edge 37, Type (0, 1), BuildingBlock: TEMPAE_clean_linker_10, # of connection points: 2
#     Edge 38, Type (0, 1), BuildingBlock: TEMPAE_clean_linker_10, # of connection points: 2
#     Edge 39, Type (0, 1), BuildingBlock: TEMPAE_clean_linker_10, # of connection points: 2
#     Edge 40, Type (0, 1), BuildingBlock: TEMPAE_clean_linker_10, # of connection points: 2
#     Edge 41, Type (0, 1), BuildingBlock: TEMPAE_clean_linker_10, # of connection points: 2
#     Edge 42, Type (0, 1), BuildingBlock: TEMPAE_clean_linker_10, # of connection points: 2
#     Edge 43, Type (0, 1), BuildingBlock: TEMPAE_clean_linker_10, # of connection points: 2
#     Edge 44, Type (0, 1), BuildingBlock: TEMPAE_clean_linker_10, # of connection points: 2
#     Edge 45, Type (0, 1), BuildingBlock: TEMPAE_clean_linker_10, # of connection points: 2
#     Edge 46, Type (0, 1), BuildingBlock: TEMPAE_clean_linker_10, # of connection points: 2
#     Edge 47, Type (0, 1), BuildingBlock: TEMPAE_clean_linker_10, # of connection points: 2
#     Edge 48, Type (0, 1), BuildingBlock: TEMPAE_clean_linker_10, # of connection points: 2
#     Edge 49, Type (0, 1), BuildingBlock: TEMPAE_clean_linker_10, # of connection points: 2
#     Edge 50, Type (0, 1), BuildingBlock: TEMPAE_clean_linker_10, # of connection points: 2
#     Edge 51, Type (0, 1), BuildingBlock: TEMPAE_clean_linker_10, # of connection points: 2
#     Edge 52, Type (0, 1), BuildingBlock: TEMPAE_clean_linker_10, # of connection points: 2
#     Edge 53, Type (0, 1), BuildingBlock: TEMPAE_clean_linker_10, # of connection points: 2
#     Edge 54, Type (0, 1), BuildingBlock: TEMPAE_clean_linker_10, # of connection points: 2
#     Edge 55, Type (0, 1), BuildingBlock: TEMPAE_clean_linker_10, # of connection points: 2
#     Edge 56, Type (0, 1), BuildingBlock: TEMPAE_clean_linker_10, # of connection points: 2
#     Edge 57, Type (0, 1), BuildingBlock: TEMPAE_clean_linker_10, # of connection points: 2
#     Edge 58, Type (0, 1), BuildingBlock: TEMPAE_clean_linker_10, # of connection points: 2
#     Edge 59, Type (0, 1), BuildingBlock: TEMPAE_clean_linker_10, # of connection points: 2
#     Edge 60, Type (0, 1), BuildingBlock: TEMPAE_clean_linker_10, # of connection points: 2
#     Edge 61, Type (0, 1), BuildingBlock: TEMPAE_clean_linker_10, # of connection points: 2
# Relax obj value: 0.204
# Max RMSD: 0.257
# Mean RMSD: 0.202
data_MOF--net-ocu--node1-FUNLAD_clean_sbu_0--node2-TAGTUT_clean_sbu_1--edge1-TEMPAE_clean_linker_10
_symmetry_space_group_name_H-M    P1
_symmetry_Int_Tables_number       1
_symmetry_cell_setting            triclinic
loop_
_symmetry_equiv_pos_as_xyz
'x, y, z'
_cell_length_a     39.456543
_cell_length_b     37.161669
_cell_length_c     41.047536
_cell_angle_alpha  85.516569
_cell_angle_beta   87.732803
_cell_angle_gamma 92.124653
loop_
_atom_site_label
_atom_site_type_symbol
_atom_site_fract_x
_atom_site_fract_y
_atom_site_fract_z
_atom_type_partial_charge
C0 C 0.23841 0.27634 0.31389 0.0
N1 N 0.20385 0.19917 0.2531 0.0
C2 C 0.19855 0.17391 0.27872 0.0
C3 C 0.16887 0.15234 0.2815 0.0
C4 C 0.14399 0.15758 0.25826 0.0
C5 C 0.1507 0.18242 0.23117 0.0
C6 C 0.18139 0.20262 0.22873 0.0
Zn7 Zn 0.24276 0.23645 0.25471 0.0
C8 C 0.22073 0.30842 0.22567 0.0
N9 N 0.32136 0.3179 0.25564 0.0
C10 C 0.34406 0.31395 0.27978 0.0
C11 C 0.32581 0.34457 0.23114 0.0
C12 C 0.35501 0.36684 0.22898 0.0
C13 C 0.38062 0.36055 0.25134 0.0
C14 C 0.37448 0.33459 0.27768 0.0
Zn15 Zn 0.28273 0.28027 0.25337 0.0
O16 O 0.22495 0.24924 0.30152 0.0
C17 C 0.30438 0.20812 0.28252 0.0
O18 O 0.26326 0.29385 0.29878 0.0
H19 H 0.30775 0.34731 0.21208 0.0
H20 H 0.21638 0.1719 0.29804 0.0
H21 H 0.33966 0.29333 0.2997 0.0
O22 O 0.27457 0.19725 0.27652 0.0
O23 O 0.31352 0.24099 0.27578 0.0
H24 H 0.1863 0.22253 0.20829 0.0
O25 O 0.30204 0.26621 0.20801 0.0
O26 O 0.26125 0.2243 0.20769 0.0
O27 O 0.25112 0.31896 0.22982 0.0
O28 O 0.21125 0.27597 0.23401 0.0
C29 C 0.28762 0.24073 0.19416 0.0
H30 H 0.1643 0.13375 0.30301 0.0
H31 H 0.13188 0.18724 0.213 0.0
H32 H 0.35876 0.38661 0.20823 0.0
H33 H 0.39369 0.32902 0.29532 0.0
C34 C 0.70278 0.28683 0.21367 0.0
N35 N 0.74439 0.18674 0.2014 0.0
C36 C 0.71161 0.17658 0.19679 0.0
C37 C 0.70406 0.14894 0.1772 0.0
C38 C 0.7304 0.1316 0.16168 0.0
C39 C 0.76413 0.14286 0.16608 0.0
C40 C 0.77065 0.17058 0.18658 0.0
Zn41 Zn 0.75022 0.22678 0.23202 0.0
C42 C 0.80209 0.28318 0.20959 0.0
N43 N 0.75445 0.3095 0.29728 0.0
C44 C 0.72846 0.32788 0.31005 0.0
C45 C 0.78731 0.31829 0.30292 0.0
C46 C 0.79528 0.34697 0.32117 0.0
C47 C 0.76927 0.36693 0.33411 0.0
C48 C 0.73537 0.35685 0.32907 0.0
Zn49 Zn 0.74848 0.26933 0.26683 0.0
O50 O 0.71427 0.25717 0.20551 0.0
C51 C 0.6968 0.21291 0.28967 0.0
O52 O 0.71269 0.29959 0.23968 0.0
H53 H 0.80764 0.3033 0.29286 0.0
H54 H 0.69105 0.19011 0.20822 0.0
H55 H 0.7025 0.32034 0.30521 0.0
O56 O 0.70995 0.20048 0.26424 0.0
O57 O 0.70799 0.24338 0.29779 0.0
H58 H 0.79653 0.17925 0.19056 0.0
O59 O 0.78393 0.23832 0.2937 0.0
O60 O 0.78667 0.19708 0.25844 0.0
O61 O 0.78943 0.29503 0.23547 0.0
O62 O 0.79017 0.25342 0.20058 0.0
C63 C 0.79618 0.2093 0.28481 0.0
H64 H 0.67767 0.14174 0.17357 0.0
H65 H 0.785 0.13035 0.15399 0.0
H66 H 0.82171 0.35337 0.32534 0.0
H67 H 0.71474 0.37149 0.33919 0.0
C68 C 0.80286 0.71892 0.2806 0.0
N69 N 0.80084 0.82507 0.23845 0.0
C70 C 0.8347 0.82326 0.243 0.0
C71 C 0.85105 0.8487 0.26088 0.0
C72 C 0.83218 0.87601 0.27382 0.0
C73 C 0.79884 0.88047 0.26406 0.0
C74 C 0.78354 0.8545 0.24614 0.0
Zn75 Zn 0.77233 0.77814 0.23807 0.0
C76 C 0.78561 0.73259 0.18761 0.0
N77 N 0.70853 0.68342 0.24913 0.0
C78 C 0.72537 0.65353 0.24192 0.0
C79 C 0.6745 0.68521 0.24555 0.0
C80 C 0.65724 0.65879 0.22951 0.0
C81 C 0.67528 0.6303 0.21752 0.0
C82 C 0.70904 0.62634 0.22621 0.0
Zn83 Zn 0.73738 0.7301 0.24941 0.0
O84 O 0.80856 0.75064 0.26722 0.0
C85 C 0.72402 0.77588 0.29982 0.0
O86 O 0.77436 0.70289 0.27731 0.0
H87 H 0.66154 0.70912 0.25155 0.0
H88 H 0.848 0.79969 0.23663 0.0
H89 H 0.75247 0.65268 0.24458 0.0
O90 O 0.74637 0.79325 0.28107 0.0
O91 O 0.71377 0.74458 0.29316 0.0
H92 H 0.75658 0.85537 0.24258 0.0
O93 O 0.7004 0.75859 0.22211 0.0
O94 O 0.73595 0.8045 0.20833 0.0
O95 O 0.76152 0.71607 0.20483 0.0
O96 O 0.79786 0.76241 0.19602 0.0
C97 C 0.70667 0.78937 0.20697 0.0
H98 H 0.87689 0.84438 0.26777 0.0
H99 H 0.78367 0.90155 0.27316 0.0
H100 H 0.63114 0.66293 0.22345 0.0
H101 H 0.72363 0.60434 0.21807 0.0
C102 C 0.22822 0.81449 0.27023 0.0
N103 N 0.30465 0.75193 0.30582 0.0
C104 C 0.32326 0.78361 0.3053 0.0
C105 C 0.33585 0.79529 0.33385 0.0
C106 C 0.32859 0.77476 0.36338 0.0
C107 C 0.31156 0.74106 0.36344 0.0
C108 C 0.30008 0.72977 0.33389 0.0
Zn109 Zn 0.27303 0.7481 0.26775 0.0
C110 C 0.20576 0.71218 0.29109 0.0
N111 N 0.20251 0.75233 0.19248 0.0
C112 C 0.20637 0.77488 0.16459 0.0
C113 C 0.1841 0.72053 0.19302 0.0
C114 C 0.17078 0.70923 0.16468 0.0
C115 C 0.1771 0.73026 0.13527 0.0
C116 C 0.19407 0.764 0.13519 0.0
Zn117 Zn 0.23422 0.75615 0.23041 0.0
O118 O 0.25208 0.79624 0.28202 0.0
C119 C 0.30137 0.79212 0.20695 0.0
O120 O 0.21362 0.80422 0.24526 0.0
H121 H 0.18234 0.70187 0.2145 0.0
H122 H 0.32568 0.80194 0.28362 0.0
H123 H 0.22121 0.79992 0.16441 0.0
O124 O 0.30943 0.77855 0.23479 0.0
O125 O 0.27109 0.78698 0.19836 0.0
H126 H 0.28519 0.70476 0.33406 0.0
O127 O 0.25517 0.70794 0.21615 0.0
O128 O 0.29358 0.69997 0.25296 0.0
O129 O 0.19785 0.72581 0.26323 0.0
O130 O 0.236 0.71724 0.2998 0.0
C131 C 0.27895 0.68963 0.22804 0.0
H132 H 0.34873 0.82164 0.33328 0.0
H133 H 0.30569 0.72471 0.38611 0.0
H134 H 0.15799 0.68284 0.16523 0.0
H135 H 0.19928 0.78069 0.11259 0.0
C136 C 0.20356 0.78716 0.71538 0.0
N137 N 0.24411 0.68681 0.70217 0.0
C138 C 0.21125 0.6773 0.69719 0.0
C139 C 0.20347 0.64966 0.67768 0.0
C140 C 0.22966 0.63167 0.66265 0.0
C141 C 0.26349 0.64235 0.6673 0.0
C142 C 0.27023 0.67008 0.68771 0.0
Zn143 Zn 0.2503 0.7264 0.73312 0.0
C144 C 0.30279 0.78235 0.71091 0.0
N145 N 0.25567 0.80853 0.79905 0.0
C146 C 0.22971 0.82676 0.81205 0.0
C147 C 0.28855 0.81728 0.80467 0.0
C148 C 0.29654 0.84577 0.82318 0.0
C149 C 0.27054 0.86561 0.83637 0.0
C150 C 0.23665 0.85554 0.83129 0.0
Zn151 Zn 0.2494 0.76867 0.76824 0.0
O152 O 0.21488 0.75762 0.70675 0.0
C153 C 0.19707 0.71255 0.79056 0.0
O154 O 0.21361 0.79939 0.74157 0.0
H155 H 0.30885 0.80239 0.79441 0.0
H156 H 0.19082 0.69123 0.70839 0.0
H157 H 0.20374 0.81928 0.8072 0.0
O158 O 0.20967 0.70045 0.76476 0.0
O159 O 0.20894 0.74251 0.79922 0.0
H160 H 0.29617 0.67823 0.69199 0.0
O161 O 0.28474 0.73719 0.79467 0.0
O162 O 0.28611 0.69578 0.75949 0.0
O163 O 0.29032 0.79445 0.73677 0.0
O164 O 0.29061 0.75261 0.7021 0.0
C165 C 0.29612 0.70776 0.78578 0.0
H166 H 0.17705 0.64285 0.67384 0.0
H167 H 0.28424 0.62929 0.65555 0.0
H168 H 0.32298 0.85211 0.82736 0.0
H169 H 0.216 0.87005 0.84154 0.0
C170 C 0.2975 0.21965 0.7848 0.0
N171 N 0.29523 0.32409 0.73857 0.0
C172 C 0.27844 0.35398 0.74593 0.0
C173 C 0.29426 0.38 0.76344 0.0
C174 C 0.32752 0.37504 0.77322 0.0
C175 C 0.34594 0.34734 0.76036 0.0
C176 C 0.32913 0.32194 0.74278 0.0
Zn177 Zn 0.26603 0.27732 0.74066 0.0
C178 C 0.27727 0.22872 0.69238 0.0
N179 N 0.2021 0.1831 0.75786 0.0
C180 C 0.21917 0.15309 0.7514 0.0
C181 C 0.16824 0.18486 0.75324 0.0
C182 C 0.15178 0.15872 0.73621 0.0
C183 C 0.17051 0.13071 0.72433 0.0
C184 C 0.20369 0.12632 0.73452 0.0
Zn185 Zn 0.23111 0.22999 0.75563 0.0
O186 O 0.30357 0.24999 0.76875 0.0
C187 C 0.22047 0.27824 0.80427 0.0
O188 O 0.26822 0.20444 0.78427 0.0
H189 H 0.15507 0.20882 0.75871 0.0
H190 H 0.25145 0.35515 0.7427 0.0
H191 H 0.24613 0.1522 0.75488 0.0
O192 O 0.24278 0.29415 0.78448 0.0
O193 O 0.20845 0.24724 0.79861 0.0
H194 H 0.34206 0.29808 0.7366 0.0
O195 O 0.19369 0.25705 0.72723 0.0
O196 O 0.22861 0.30313 0.71221 0.0
O197 O 0.25482 0.21289 0.71209 0.0
O198 O 0.2887 0.26007 0.69767 0.0
C199 C 0.19947 0.28757 0.7114 0.0
H200 H 0.27943 0.40142 0.77239 0.0
H201 H 0.37174 0.34265 0.76719 0.0
H202 H 0.12603 0.16298 0.729 0.0
H203 H 0.21875 0.10471 0.72629 0.0
C204 C 0.71944 0.31502 0.76228 0.0
N205 N 0.79707 0.25585 0.80003 0.0
C206 C 0.81391 0.28862 0.79903 0.0
C207 C 0.82868 0.30015 0.82663 0.0
C208 C 0.82547 0.27829 0.85586 0.0
C209 C 0.80934 0.24402 0.85646 0.0
C210 C 0.79538 0.23304 0.82779 0.0
Zn211 Zn 0.7659 0.24966 0.7621 0.0
C212 C 0.69928 0.21255 0.78535 0.0
N213 N 0.69704 0.25027 0.68557 0.0
C214 C 0.70108 0.27262 0.65757 0.0
C215 C 0.68012 0.21764 0.68582 0.0
C216 C 0.66896 0.20517 0.65702 0.0
C217 C 0.6758 0.22605 0.62757 0.0
C218 C 0.69089 0.26069 0.62781 0.0
Zn219 Zn 0.72762 0.25585 0.72409 0.0
O220 O 0.74361 0.29775 0.77467 0.0
C221 C 0.79441 0.29272 0.70106 0.0
O222 O 0.70523 0.30355 0.73759 0.0
H223 H 0.67814 0.19937 0.70759 0.0
H224 H 0.81373 0.30742 0.77768 0.0
H225 H 0.71466 0.2984 0.65768 0.0
O226 O 0.80216 0.2797 0.72916 0.0
O227 O 0.76432 0.28716 0.69214 0.0
H228 H 0.78143 0.2074 0.82836 0.0
O229 O 0.75033 0.20812 0.71106 0.0
O230 O 0.78788 0.20158 0.74885 0.0
O231 O 0.69152 0.22486 0.75697 0.0
O232 O 0.7292 0.21897 0.79445 0.0
C233 C 0.77421 0.19058 0.72368 0.0
H234 H 0.84066 0.32697 0.82569 0.0
H235 H 0.80644 0.22672 0.87896 0.0
H236 H 0.65747 0.17817 0.65737 0.0
H237 H 0.69635 0.27733 0.60522 0.0
C238 C 0.72904 0.76773 0.81126 0.0
N239 N 0.69532 0.68765 0.75241 0.0
C240 C 0.68962 0.66312 0.77851 0.0
C241 C 0.66022 0.64111 0.78101 0.0
C242 C 0.63598 0.6452 0.75696 0.0
C243 C 0.64321 0.66926 0.72943 0.0
C244 C 0.67363 0.6899 0.72732 0.0
Zn245 Zn 0.73391 0.72532 0.75349 0.0
C246 C 0.71166 0.79604 0.72231 0.0
N247 N 0.81226 0.80729 0.752 0.0
C248 C 0.83494 0.80482 0.77624 0.0
C249 C 0.81684 0.83238 0.72617 0.0
C250 C 0.84597 0.85475 0.72303 0.0
C251 C 0.87121 0.85038 0.74602 0.0
C252 C 0.86522 0.82574 0.77335 0.0
Zn253 Zn 0.77375 0.76933 0.75115 0.0
O254 O 0.71555 0.74006 0.79978 0.0
C255 C 0.79553 0.69808 0.78227 0.0
O256 O 0.7542 0.78442 0.7959 0.0
H257 H 0.79891 0.83371 0.70693 0.0
H258 H 0.70692 0.66199 0.7983 0.0
H259 H 0.83057 0.78519 0.79696 0.0
O260 O 0.76568 0.68705 0.7766 0.0
O261 O 0.8048 0.73079 0.77468 0.0
H262 H 0.67893 0.70916 0.70646 0.0
O263 O 0.7931 0.75406 0.70655 0.0
O264 O 0.75285 0.71151 0.707 0.0
O265 O 0.7419 0.8071 0.72649 0.0
O266 O 0.70245 0.76372 0.73142 0.0
C267 C 0.77907 0.728 0.69325 0.0
H268 H 0.65531 0.62307 0.80284 0.0
H269 H 0.62495 0.67317 0.71058 0.0
H270 H 0.84993 0.87322 0.70137 0.0
H271 H 0.88432 0.82158 0.79136 0.0
C272 C 0.90383 0.06789 0.55632 0.0
C273 C 0.93202 0.07509 0.45246 0.0
C274 C 0.9577 0.93846 0.46584 0.0
Mg275 Mg 0.97194 0.07897 0.51448 0.0
O276 O 0.96879 0.02844 0.52205 0.0
Mg277 Mg 0.92701 0.0023 0.50854 0.0
Mg278 Mg 0.00317 0.00084 0.49903 0.0
O279 O 0.03752 0.97322 0.47602 0.0
Mg280 Mg 0.03415 0.92262 0.48299 0.0
Mg281 Mg 0.07922 0.99896 0.4902 0.0
C282 C 0.04841 0.06324 0.53191 0.0
C283 C 0.03852 0.05298 0.4405 0.0
O284 O 0.89806 0.03709 0.5448 0.0
O285 O 0.93028 0.08807 0.54782 0.0
O286 O 0.9188 0.04534 0.46592 0.0
O287 O 0.95629 0.09193 0.46527 0.0
O288 O 0.02455 0.08592 0.52958 0.0
O289 O 0.04448 0.03104 0.5231 0.0
C290 C 0.96857 0.94906 0.55819 0.0
O291 O 0.99626 0.95992 0.54272 0.0
O292 O 0.93966 0.96065 0.54984 0.0
O293 O 0.10836 0.96443 0.4539 0.0
O294 O 0.07599 0.91378 0.44983 0.0
O295 O 0.08678 0.95548 0.53275 0.0
C296 C 0.1026 0.93393 0.44186 0.0
O297 O 0.04933 0.90897 0.53219 0.0
O298 O 0.98163 0.91582 0.46762 0.0
C299 C 0.07334 0.92554 0.54564 0.0
O300 O 0.96169 0.9704 0.47529 0.0
O301 O 0.01046 0.04203 0.45529 0.0
O302 O 0.06718 0.04105 0.44925 0.0
C303 C 0.41694 0.10345 0.03508 0.0
C304 C 0.45239 0.09348 0.9372 0.0
C305 C 0.44269 0.95073 0.96734 0.0
Mg306 Mg 0.48751 0.0909 0.00279 0.0
O307 O 0.4722 0.04259 0.01315 0.0
Mg308 Mg 0.42723 0.02773 0.99608 0.0
Mg309 Mg 0.49998 0.00328 0.99678 0.0
O310 O 0.52763 0.96393 0.98058 0.0
Mg311 Mg 0.51216 0.91567 0.99031 0.0
Mg312 Mg 0.57248 0.97827 0.99795 0.0
C313 C 0.557 0.05596 0.02641 0.0
C314 C 0.55598 0.03912 0.93995 0.0
O315 O 0.40531 0.07386 0.02467 0.0
O316 O 0.44794 0.1149 0.03035 0.0
O317 O 0.43346 0.06704 0.94993 0.0
O318 O 0.47721 0.10639 0.95227 0.0
O319 O 0.53942 0.08405 0.01991 0.0
O320 O 0.54527 0.02378 0.02304 0.0
C321 C 0.44434 0.96677 0.05361 0.0
O322 O 0.47512 0.96649 0.04181 0.0
O323 O 0.42283 0.98815 0.04105 0.0
O324 O 0.59437 0.93096 0.97059 0.0
O325 O 0.55063 0.89293 0.96076 0.0
O326 O 0.56595 0.93964 0.04416 0.0
C327 C 0.58217 0.90275 0.95816 0.0
O328 O 0.52368 0.89883 0.04052 0.0
O329 O 0.46014 0.92261 0.97397 0.0
C330 C 0.54771 0.91241 0.05624 0.0
O331 O 0.45465 0.98287 0.97045 0.0
O332 O 0.52519 0.03987 0.95171 0.0
O333 O 0.57723 0.01746 0.95262 0.0
C334 C 0.90577 0.58828 0.02776 0.0
C335 C 0.94775 0.57106 0.93265 0.0
C336 C 0.9554 0.43213 0.98301 0.0
Mg337 Mg 0.9784 0.58178 0.99853 0.0
O338 O 0.96907 0.53354 0.01414 0.0
Mg339 Mg 0.92758 0.50999 0.99668 0.0
Mg340 Mg 0.00345 0.49754 0.00391 0.0
O341 O 0.03772 0.46158 0.99393 0.0
Mg342 Mg 0.02872 0.41322 0.00924 0.0
Mg343 Mg 0.07982 0.48498 0.0102 0.0
C344 C 0.05155 0.56263 0.02524 0.0
C345 C 0.05912 0.53592 0.94663 0.0
O346 O 0.89809 0.55617 0.0199 0.0
O347 O 0.93543 0.60334 0.02253 0.0
O348 O 0.9313 0.54374 0.94707 0.0
O349 O 0.9698 0.58898 0.94728 0.0
O350 O 0.03033 0.58561 0.01431 0.0
O351 O 0.04448 0.52847 0.02955 0.0
C352 C 0.94746 0.45941 0.06068 0.0
O353 O 0.9793 0.4624 0.05152 0.0
O354 O 0.92509 0.47599 0.04431 0.0
O355 O 0.10885 0.43888 0.98563 0.0
O356 O 0.06958 0.39398 0.98093 0.0
O357 O 0.07732 0.4513 0.05951 0.0
C358 C 0.09953 0.40821 0.97545 0.0
O359 O 0.0403 0.40461 0.0601 0.0
O360 O 0.97653 0.40928 0.99437 0.0
C361 C 0.06213 0.42342 0.07424 0.0
O362 O 0.96279 0.46623 0.97824 0.0
O363 O 0.02737 0.53277 0.95606 0.0
O364 O 0.08158 0.51928 0.96279 0.0
C365 C 0.40187 0.56319 0.05905 0.0
C366 C 0.42755 0.57009 0.95459 0.0
C367 C 0.45285 0.43412 0.96625 0.0
Mg368 Mg 0.46894 0.57411 0.01567 0.0
O369 O 0.46585 0.52361 0.02304 0.0
Mg370 Mg 0.42361 0.49744 0.01081 0.0
Mg371 Mg 0.49932 0.49633 0.9985 0.0
O372 O 0.53285 0.4691 0.97409 0.0
Mg373 Mg 0.52999 0.41845 0.98067 0.0
Mg374 Mg 0.57499 0.49516 0.98689 0.0
C375 C 0.54569 0.55831 0.03077 0.0
C376 C 0.53189 0.54883 0.93908 0.0
O377 O 0.39571 0.53229 0.04785 0.0
O378 O 0.42817 0.58327 0.04983 0.0
O379 O 0.41416 0.5405 0.96833 0.0
O380 O 0.45221 0.58674 0.96697 0.0
O381 O 0.52188 0.58109 0.02957 0.0
O382 O 0.5414 0.5265 0.02125 0.0
C383 C 0.46768 0.44474 0.05884 0.0
O384 O 0.49448 0.45556 0.04193 0.0
O385 O 0.4382 0.45599 0.05189 0.0
O386 O 0.60275 0.46138 0.9492 0.0
O387 O 0.57058 0.41043 0.94583 0.0
O388 O 0.58437 0.45159 0.02896 0.0
C389 C 0.59665 0.43104 0.93701 0.0
O390 O 0.54706 0.40483 0.02921 0.0
O391 O 0.47689 0.41158 0.96686 0.0
C392 C 0.5714 0.42153 0.04207 0.0
O393 O 0.45708 0.46573 0.9763 0.0
O394 O 0.50452 0.53749 0.95487 0.0
O395 O 0.56107 0.53735 0.94668 0.0
C396 C 0.91425 0.60006 0.53179 0.0
C397 C 0.95509 0.5929 0.43514 0.0
C398 C 0.9449 0.44972 0.46274 0.0
Mg399 Mg 0.98652 0.58929 0.50261 0.0
O400 O 0.97138 0.54069 0.51125 0.0
Mg401 Mg 0.92766 0.52587 0.49181 0.0
Mg402 Mg 1.00019 0.50174 0.49582 0.0
O403 O 0.02874 0.4627 0.48055 0.0
Mg404 Mg 0.01299 0.41432 0.48875 0.0
Mg405 Mg 0.07227 0.4768 0.5005 0.0
C406 C 0.05501 0.55414 0.52876 0.0
C407 C 0.05874 0.53831 0.44209 0.0
O408 O 0.90376 0.57084 0.51999 0.0
O409 O 0.94524 0.61198 0.52901 0.0
O410 O 0.93597 0.56598 0.44646 0.0
O411 O 0.97868 0.60585 0.45176 0.0
O412 O 0.03755 0.58223 0.52186 0.0
O413 O 0.04369 0.52199 0.5246 0.0
C414 C 0.94218 0.46451 0.5497 0.0
O415 O 0.97348 0.46445 0.5394 0.0
O416 O 0.9212 0.48578 0.53614 0.0
O417 O 0.0959 0.43013 0.4738 0.0
O418 O 0.05325 0.39225 0.46095 0.0
O419 O 0.06322 0.43735 0.54604 0.0
C420 C 0.08474 0.40219 0.4603 0.0
O421 O 0.02166 0.39656 0.53945 0.0
O422 O 0.96198 0.42143 0.46978 0.0
C423 C 0.04453 0.40986 0.55673 0.0
O424 O 0.95662 0.48167 0.46695 0.0
O425 O 0.02741 0.53885 0.4523 0.0
O426 O 0.07938 0.51659 0.45569 0.0
C427 C 0.41132 0.08996 0.53641 0.0
C428 C 0.45074 0.07966 0.43768 0.0
C429 C 0.45077 0.93662 0.47891 0.0
Mg430 Mg 0.48246 0.08254 0.50462 0.0
O431 O 0.4711 0.03369 0.51562 0.0
Mg432 Mg 0.42799 0.01477 0.49742 0.0
Mg433 Mg 0.50295 0.9965 0.50246 0.0
O434 O 0.53472 0.95915 0.48949 0.0
Mg435 Mg 0.52336 0.91044 0.50185 0.0
Mg436 Mg 0.5782 0.9784 0.50664 0.0
C437 C 0.55525 0.05628 0.5265 0.0
C438 C 0.55953 0.0352 0.44626 0.0
O439 O 0.40113 0.06101 0.5237 0.0
O440 O 0.44216 0.10225 0.53359 0.0
O441 O 0.43374 0.05158 0.44983 0.0
O442 O 0.47242 0.09597 0.4541 0.0
O443 O 0.53502 0.08142 0.51825 0.0
O444 O 0.54622 0.02254 0.52896 0.0
C445 C 0.44586 0.95828 0.55834 0.0
O446 O 0.47762 0.95988 0.54877 0.0
O447 O 0.42426 0.97745 0.54323 0.0
O448 O 0.60429 0.93216 0.47969 0.0
O449 O 0.56284 0.89045 0.4721 0.0
O450 O 0.57388 0.94199 0.55425 0.0
C451 C 0.59354 0.90293 0.46777 0.0
O452 O 0.53491 0.89746 0.55228 0.0
O453 O 0.4707 0.91153 0.48814 0.0
C454 C 0.55736 0.91418 0.56751 0.0
O455 O 0.46007 0.9703 0.47585 0.0
O456 O 0.52787 0.03337 0.45609 0.0
O457 O 0.58119 0.01577 0.46095 0.0
C458 C 0.08384 0.16517 0.27442 0.0
C459 C 0.10957 0.14195 0.2664 0.0
C460 C 0.05764 0.15315 0.29723 0.0
C461 C 0.05797 0.11755 0.31208 0.0
C462 C 0.07953 0.09238 0.29858 0.0
C463 C 0.1055 0.10506 0.27592 0.0
C464 C 0.03348 0.18006 0.30943 0.0
C465 C 0.0794 0.05352 0.31236 0.0
C466 C 0.06614 0.10071 0.40234 0.0
C467 C 0.03807 0.07744 0.41068 0.0
C468 C 0.07075 0.11763 0.37085 0.0
C469 C 0.04682 0.11046 0.34699 0.0
C470 C 0.01629 0.09054 0.35646 0.0
C471 C 0.01223 0.07411 0.38845 0.0
C472 C 0.10325 0.13986 0.36246 0.0
C473 C 0.98929 0.08367 0.33244 0.0
H474 H 0.08668 0.1937 0.2665 0.0
H475 H 0.12509 0.08704 0.26902 0.0
H476 H 0.00834 0.16688 0.31664 0.0
H477 H 0.04376 0.19163 0.3313 0.0
H478 H 0.03019 0.20259 0.29053 0.0
H479 H 0.09273 0.0363 0.29544 0.0
H480 H 0.09252 0.05195 0.33584 0.0
H481 H 0.05305 0.04248 0.31732 0.0
H482 H 0.08562 0.10394 0.41993 0.0
H483 H 0.99012 0.05648 0.39515 0.0
H484 H 0.09804 0.16561 0.34841 0.0
H485 H 0.12042 0.12454 0.34714 0.0
H486 H 0.11681 0.14632 0.38462 0.0
H487 H 0.98967 0.10513 0.31205 0.0
H488 H 0.96369 0.08168 0.34486 0.0
H489 H 0.99358 0.05751 0.32197 0.0
C490 C 0.82475 0.19915 0.33775 0.0
C491 C 0.82041 0.18967 0.30572 0.0
C492 C 0.84603 0.17988 0.35874 0.0
C493 C 0.86394 0.15068 0.34735 0.0
C494 C 0.86073 0.14178 0.31466 0.0
C495 C 0.83873 0.16118 0.29428 0.0
C496 C 0.84839 0.19004 0.39354 0.0
C497 C 0.87988 0.11124 0.30148 0.0
C498 C 0.9337 0.11987 0.40317 0.0
C499 C 0.91675 0.0916 0.42271 0.0
C500 C 0.91762 0.13796 0.37702 0.0
C501 C 0.88364 0.12795 0.37073 0.0
C502 C 0.86705 0.09835 0.38945 0.0
C503 C 0.88384 0.08049 0.41506 0.0
C504 C 0.93657 0.16857 0.35689 0.0
C505 C 0.83076 0.08686 0.38378 0.0
H506 H 0.81075 0.22112 0.34683 0.0
H507 H 0.83576 0.1539 0.26947 0.0
H508 H 0.83847 0.16717 0.41071 0.0
H509 H 0.87528 0.19551 0.39914 0.0
H510 H 0.83381 0.21425 0.39822 0.0
H511 H 0.87761 0.11032 0.27466 0.0
H512 H 0.90716 0.11392 0.30685 0.0
H513 H 0.8699 0.0851 0.31371 0.0
H514 H 0.95929 0.12831 0.40867 0.0
H515 H 0.87044 0.05889 0.43016 0.0
H516 H 0.92405 0.19433 0.36036 0.0
H517 H 0.93593 0.16405 0.33052 0.0
H518 H 0.96347 0.17152 0.36363 0.0
H519 H 0.81369 0.10862 0.39001 0.0
H520 H 0.82242 0.06167 0.39877 0.0
H521 H 0.82765 0.08247 0.35764 0.0
C522 C 0.82342 0.89327 0.33091 0.0
C523 C 0.84448 0.89381 0.30243 0.0
C524 C 0.83628 0.90307 0.36044 0.0
C525 C 0.87095 0.91367 0.36146 0.0
C526 C 0.89168 0.91682 0.33231 0.0
C527 C 0.87826 0.90653 0.30313 0.0
C528 C 0.81322 0.90045 0.39084 0.0
C529 C 0.92846 0.92959 0.33226 0.0
C530 C 0.90983 0.95848 0.43163 0.0
C531 C 0.92842 0.93024 0.44578 0.0
C532 C 0.88899 0.95314 0.40541 0.0
C533 C 0.88651 0.9186 0.39324 0.0
C534 C 0.90235 0.88918 0.40962 0.0
C535 C 0.92319 0.89537 0.43566 0.0
C536 C 0.87205 0.98546 0.38965 0.0
C537 C 0.89942 0.85163 0.39805 0.0
H538 H 0.79733 0.88308 0.33064 0.0
H539 H 0.89445 0.90728 0.28111 0.0
H540 H 0.82176 0.87895 0.40861 0.0
H541 H 0.81464 0.92624 0.40275 0.0
H542 H 0.78634 0.8942 0.38548 0.0
H543 H 0.94039 0.93315 0.30719 0.0
H544 H 0.93061 0.9557 0.34361 0.0
H545 H 0.94292 0.9097 0.34711 0.0
H546 H 0.91348 0.98552 0.43923 0.0
H547 H 0.93705 0.87325 0.44673 0.0
H548 H 0.85919 1.00017 0.40882 0.0
H549 H 0.85305 0.97838 0.37178 0.0
H550 H 0.89171 0.00433 0.37701 0.0
H551 H 0.8725 0.84397 0.39427 0.0
H552 H 0.90982 0.83106 0.41564 0.0
H553 H 0.91357 0.85111 0.37419 0.0
C554 C 0.2333 0.85489 0.31547 0.0
C555 C 0.21524 0.84397 0.28887 0.0
C556 C 0.21823 0.87559 0.33871 0.0
C557 C 0.1844 0.88598 0.33506 0.0
C558 C 0.16734 0.87833 0.30647 0.0
C559 C 0.18297 0.85724 0.28367 0.0
C560 C 0.2374 0.88309 0.36875 0.0
C561 C 0.13146 0.8896 0.30141 0.0
C562 C 0.12805 0.88523 0.4119 0.0
C563 C 0.1262 0.92211 0.41635 0.0
C564 C 0.14746 0.8733 0.38589 0.0
C565 C 0.1651 0.89892 0.36339 0.0
C566 C 0.16396 0.93621 0.36808 0.0
C567 C 0.14467 0.94739 0.39474 0.0
C568 C 0.1486 0.83319 0.3822 0.0
C569 C 0.1822 0.96425 0.34443 0.0
H570 H 0.25853 0.84524 0.31943 0.0
H571 H 0.16898 0.84918 0.26305 0.0
H572 H 0.23393 0.91112 0.37536 0.0
H573 H 0.22736 0.86457 0.38972 0.0
H574 H 0.26501 0.87888 0.36525 0.0
H575 H 0.12401 0.88721 0.27582 0.0
H576 H 0.11373 0.87209 0.31792 0.0
H577 H 0.12842 0.91787 0.30757 0.0
H578 H 0.11398 0.86561 0.42869 0.0
H579 H 0.14299 0.97597 0.39792 0.0
H580 H 0.17529 0.82479 0.38157 0.0
H581 H 0.13763 0.82686 0.35874 0.0
H582 H 0.13433 0.81684 0.40243 0.0
H583 H 0.20937 0.95805 0.34134 0.0
H584 H 0.18045 0.99195 0.35259 0.0
H585 H 0.17109 0.96371 0.32005 0.0
C586 C 0.16189 0.83609 0.70538 0.0
C587 C 0.18019 0.80753 0.69408 0.0
C588 C 0.14081 0.8562 0.68455 0.0
C589 C 0.13863 0.848 0.65155 0.0
C590 C 0.15662 0.81882 0.64026 0.0
C591 C 0.17688 0.7988 0.6617 0.0
C592 C 0.12138 0.88661 0.69763 0.0
C593 C 0.15543 0.80944 0.60514 0.0
C594 C 0.07052 0.87994 0.59432 0.0
C595 C 0.08792 0.9085 0.57553 0.0
C596 C 0.08589 0.86137 0.62064 0.0
C597 C 0.11963 0.8712 0.62793 0.0
C598 C 0.1367 0.90102 0.60994 0.0
C599 C 0.12061 0.91931 0.58407 0.0
C600 C 0.06655 0.83031 0.63974 0.0
C601 C 0.17278 0.91227 0.61665 0.0
H602 H 0.1641 0.8428 0.73046 0.0
H603 H 0.19095 0.77683 0.65271 0.0
H604 H 0.13095 0.9128 0.68518 0.0
H605 H 0.09411 0.88343 0.69237 0.0
H606 H 0.12371 0.88777 0.72441 0.0
H607 H 0.17012 0.7853 0.60049 0.0
H608 H 0.12878 0.80422 0.59862 0.0
H609 H 0.1659 0.83259 0.58861 0.0
H610 H 0.04512 0.87163 0.58808 0.0
H611 H 0.13442 0.94103 0.56947 0.0
H612 H 0.06795 0.83304 0.66638 0.0
H613 H 0.07821 0.80453 0.6346 0.0
H614 H 0.03945 0.82865 0.63341 0.0
H615 H 0.17529 0.91583 0.64302 0.0
H616 H 0.18137 0.93786 0.6024 0.0
H617 H 0.19001 0.89075 0.61019 0.0
C618 C 0.1801 0.1114 0.66805 0.0
C619 C 0.1585 0.11212 0.69604 0.0
C620 C 0.16775 0.1008 0.63859 0.0
C621 C 0.13301 0.09067 0.63712 0.0
C622 C 0.11162 0.08898 0.66582 0.0
C623 C 0.12459 0.09998 0.69494 0.0
C624 C 0.19143 0.10226 0.60866 0.0
C625 C 0.07462 0.07717 0.66537 0.0
C626 C 0.08307 0.10705 0.56112 0.0
C627 C 0.07738 0.07174 0.55223 0.0
C628 C 0.10333 0.11394 0.58741 0.0
C629 C 0.11811 0.08478 0.60523 0.0
C630 C 0.11521 0.04966 0.59438 0.0
C631 C 0.09494 0.04358 0.56791 0.0
C632 C 0.10661 0.15201 0.59771 0.0
C633 C 0.13076 0.01769 0.61227 0.0
H634 H 0.20627 0.12126 0.66855 0.0
H635 H 0.10796 0.10029 0.71658 0.0
H636 H 0.18954 0.07639 0.59693 0.0
H637 H 0.18393 0.12391 0.59051 0.0
H638 H 0.2183 0.10768 0.61454 0.0
H639 H 0.06207 0.07487 0.69019 0.0
H640 H 0.06102 0.09696 0.64957 0.0
H641 H 0.07205 0.05064 0.65483 0.0
H642 H 0.06994 0.12904 0.5489 0.0
H643 H 0.09076 0.01616 0.56135 0.0
H644 H 0.13349 0.15933 0.602 0.0
H645 H 0.09185 0.1538 0.62107 0.0
H646 H 0.09709 0.17212 0.57915 0.0
H647 H 0.15358 0.02555 0.62539 0.0
H648 H 0.13795 0.99747 0.59501 0.0
H649 H 0.11172 0.00448 0.63043 0.0
C650 C 0.77095 0.14918 0.67905 0.0
C651 C 0.78817 0.16096 0.70583 0.0
C652 C 0.78684 0.12813 0.65658 0.0
C653 C 0.82067 0.11823 0.66121 0.0
C654 C 0.83692 0.12683 0.68997 0.0
C655 C 0.82048 0.14829 0.71197 0.0
C656 C 0.76851 0.1197 0.6263 0.0
C657 C 0.87276 0.11608 0.69608 0.0
C658 C 0.86165 0.05539 0.60354 0.0
C659 C 0.88025 0.08024 0.58163 0.0
C660 C 0.84206 0.06717 0.62975 0.0
C661 C 0.84072 0.10463 0.63364 0.0
C662 C 0.8586 0.12979 0.6109 0.0
C663 C 0.87834 0.11726 0.58538 0.0
C664 C 0.82355 0.03962 0.65368 0.0
C665 C 0.85725 0.17003 0.61371 0.0
H666 H 0.7457 0.15837 0.67435 0.0
H667 H 0.83383 0.15704 0.73272 0.0
H668 H 0.7789 0.13784 0.60522 0.0
H669 H 0.7724 0.09151 0.62034 0.0
H670 H 0.7408 0.12371 0.62907 0.0
H671 H 0.87954 0.11923 0.72175 0.0
H672 H 0.87622 0.08765 0.69062 0.0
H673 H 0.8907 0.13337 0.6796 0.0
H674 H 0.86336 0.0267 0.6009 0.0
H675 H 0.89249 0.13657 0.56836 0.0
H676 H 0.82613 0.0116 0.64653 0.0
H677 H 0.79619 0.04536 0.65563 0.0
H678 H 0.83372 0.04138 0.67835 0.0
H679 H 0.83054 0.17836 0.61356 0.0
H680 H 0.87192 0.18596 0.59348 0.0
H681 H 0.86762 0.17701 0.63725 0.0
C682 C 0.93095 0.84292 0.72874 0.0
C683 C 0.90539 0.8662 0.73705 0.0
C684 C 0.95601 0.85436 0.70458 0.0
C685 C 0.95479 0.88946 0.68882 0.0
C686 C 0.93381 0.915 0.70254 0.0
C687 C 0.90894 0.90289 0.72654 0.0
C688 C 0.97975 0.82722 0.6921 0.0
C689 C 0.93318 0.95344 0.68779 0.0
C690 C 0.99696 0.93006 0.60961 0.0
C691 C 0.97007 0.92581 0.58866 0.0
C692 C 0.99435 0.91495 0.6421 0.0
C693 C 0.96419 0.89536 0.65342 0.0
C694 C 0.93907 0.88726 0.63092 0.0
C695 C 0.94224 0.90294 0.59889 0.0
C696 C 0.02249 0.92294 0.66461 0.0
C697 C 0.90686 0.86539 0.64133 0.0
H698 H 0.92857 0.81459 0.73745 0.0
H699 H 0.88952 0.92099 0.73368 0.0
H700 H 0.96963 0.81651 0.66978 0.0
H701 H 0.00509 0.84018 0.68544 0.0
H702 H 0.98259 0.80417 0.71059 0.0
H703 H 0.92075 0.97122 0.70482 0.0
H704 H 0.95928 0.96444 0.68126 0.0
H705 H 0.91875 0.95413 0.66508 0.0
H706 H 0.01885 0.94745 0.6015 0.0
H707 H 0.92189 0.89904 0.58234 0.0
H708 H 0.02297 0.90242 0.68569 0.0
H709 H 0.01879 0.94969 0.67417 0.0
H710 H 0.04756 0.92431 0.65116 0.0
H711 H 0.91246 0.84051 0.65651 0.0
H712 H 0.89259 0.85743 0.62005 0.0
H713 H 0.8902 0.88181 0.6561 0.0
C714 C 0.33983 0.22696 0.16282 0.0
C715 C 0.30431 0.22666 0.16537 0.0
C716 C 0.3566 0.20833 0.13903 0.0
C717 C 0.33734 0.19011 0.11652 0.0
C718 C 0.30152 0.19183 0.1176 0.0
C719 C 0.28532 0.20949 0.14254 0.0
C720 C 0.39476 0.20628 0.13935 0.0
C721 C 0.28028 0.174 0.09314 0.0
C722 C 0.38995 0.16123 0.04454 0.0
C723 C 0.39405 0.12474 0.05412 0.0
C724 C 0.36975 0.18246 0.06367 0.0
C725 C 0.35473 0.16703 0.09369 0.0
C726 C 0.35854 0.12994 0.10316 0.0
C727 C 0.37768 0.10903 0.08285 0.0
C728 C 0.36515 0.22149 0.05217 0.0
C729 C 0.34385 0.11278 0.13548 0.0
H730 H 0.35451 0.23989 0.18075 0.0
H731 H 0.25783 0.20942 0.1445 0.0
H732 H 0.40163 0.17779 0.1447 0.0
H733 H 0.40645 0.21565 0.11502 0.0
H734 H 0.40598 0.2228 0.15794 0.0
H735 H 0.2535 0.18221 0.0944 0.0
H736 H 0.29103 0.18088 0.06793 0.0
H737 H 0.28052 0.14423 0.09792 0.0
H738 H 0.40256 0.17311 0.02208 0.0
H739 H 0.38121 0.08077 0.09015 0.0
H740 H 0.37897 0.23935 0.06801 0.0
H741 H 0.33791 0.22786 0.05406 0.0
H742 H 0.37474 0.22795 0.02649 0.0
H743 H 0.35503 0.12651 0.15583 0.0
H744 H 0.34879 0.08351 0.13894 0.0
H745 H 0.31605 0.11608 0.13724 0.0
C746 C 0.83427 0.30245 0.15628 0.0
C747 C 0.82977 0.3047 0.19014 0.0
C748 C 0.85793 0.32562 0.13733 0.0
C749 C 0.87836 0.35113 0.15262 0.0
C750 C 0.87538 0.35182 0.1871 0.0
C751 C 0.85087 0.32911 0.2053 0.0
C752 C 0.85964 0.32423 0.10066 0.0
C753 C 0.89714 0.37765 0.20471 0.0
C754 C 0.94984 0.40234 0.09907 0.0
C755 C 0.9339 0.43419 0.08883 0.0
C756 C 0.93279 0.37551 0.1209 0.0
C757 C 0.89885 0.38035 0.13227 0.0
C758 C 0.88346 0.41322 0.12312 0.0
C759 C 0.9012 0.43963 0.10207 0.0
C760 C 0.95065 0.34142 0.13072 0.0
C761 C 0.84741 0.41991 0.13423 0.0
H762 H 0.81813 0.28374 0.14432 0.0
H763 H 0.84796 0.33078 0.23151 0.0
H764 H 0.85043 0.34976 0.08891 0.0
H765 H 0.88628 0.32183 0.09169 0.0
H766 H 0.84406 0.30129 0.09265 0.0
H767 H 0.8956 0.37114 0.23162 0.0
H768 H 0.92406 0.37715 0.19588 0.0
H769 H 0.88872 0.40559 0.19951 0.0
H770 H 0.97489 0.3976 0.08893 0.0
H771 H 0.88861 0.46423 0.09473 0.0
H772 H 0.93996 0.31887 0.11765 0.0
H773 H 0.94659 0.33397 0.15734 0.0
H774 H 0.97837 0.34427 0.12469 0.0
H775 H 0.82984 0.3992 0.12529 0.0
H776 H 0.83921 0.44704 0.12519 0.0
H777 H 0.84483 0.41752 0.16132 0.0
C778 C 0.64589 0.80346 0.19935 0.0
C779 C 0.67996 0.80726 0.18809 0.0
C780 C 0.62019 0.82029 0.1817 0.0
C781 C 0.62863 0.84017 0.15144 0.0
C782 C 0.66303 0.84366 0.13981 0.0
C783 C 0.68835 0.82775 0.1586 0.0
C784 C 0.5841 0.81715 0.19558 0.0
C785 C 0.67308 0.86372 0.10723 0.0
C786 C 0.5637 0.85517 0.08617 0.0
C787 C 0.55999 0.89255 0.0858 0.0
C788 C 0.58483 0.8373 0.10845 0.0
C789 C 0.6017 0.85716 0.13156 0.0
C790 C 0.59537 0.89427 0.13323 0.0
C791 C 0.57509 0.91166 0.10994 0.0
C792 C 0.59149 0.79797 0.10518 0.0
C793 C 0.61181 0.91624 0.15817 0.0
H794 H 0.63942 0.78786 0.22233 0.0
H795 H 0.71466 0.83047 0.14978 0.0
H796 H 0.57425 0.84449 0.19775 0.0
H797 H 0.56757 0.80329 0.17883 0.0
H798 H 0.58195 0.80196 0.22004 0.0
H799 H 0.70064 0.86244 0.10099 0.0
H800 H 0.65864 0.85219 0.08756 0.0
H801 H 0.66668 0.89249 0.10756 0.0
H802 H 0.55261 0.84046 0.06715 0.0
H803 H 0.5724 0.94062 0.10959 0.0
H804 H 0.58897 0.78234 0.12934 0.0
H805 H 0.61794 0.79554 0.09559 0.0
H806 H 0.57396 0.78555 0.08832 0.0
H807 H 0.61037 0.90114 0.18263 0.0
H808 H 0.59972 0.94258 0.16004 0.0
H809 H 0.63904 0.92168 0.15107 0.0
C810 C 0.13544 0.71202 0.09615 0.0
C811 C 0.16912 0.71371 0.10516 0.0
C812 C 0.12414 0.68538 0.07641 0.0
C813 C 0.14724 0.65987 0.06585 0.0
C814 C 0.18209 0.66395 0.07212 0.0
C815 C 0.19265 0.69089 0.092 0.0
C816 C 0.08681 0.68245 0.06964 0.0
C817 C 0.20764 0.63804 0.06052 0.0
C818 C 0.09676 0.57278 0.06379 0.0
C819 C 0.0852 0.57727 0.03208 0.0
C820 C 0.12083 0.59753 0.07437 0.0
C821 C 0.1335 0.62676 0.05239 0.0
C822 C 0.12577 0.62769 0.01905 0.0
C823 C 0.10126 0.60306 0.0093 0.0
C824 C 0.12907 0.59515 0.11005 0.0
C825 C 0.13991 0.65724 0.99448 0.0
H826 H 0.11738 0.72945 0.10691 0.0
H827 H 0.21866 0.69201 0.09963 0.0
H828 H 0.08335 0.68056 0.04315 0.0
H829 H 0.07519 0.65751 0.08281 0.0
H830 H 0.07288 0.70593 0.07756 0.0
H831 H 0.23387 0.65012 0.05974 0.0
H832 H 0.20671 0.61338 0.07766 0.0
H833 H 0.2019 0.6297 0.03589 0.0
H834 H 0.08428 0.55265 0.08125 0.0
H835 H 0.0925 0.60601 0.98454 0.0
H836 H 0.1152 0.61599 0.12253 0.0
H837 H 0.15658 0.6005 0.11288 0.0
H838 H 0.1216 0.56824 0.12252 0.0
H839 H 0.12281 0.68031 0.99398 0.0
H840 H 0.14135 0.64751 0.96962 0.0
H841 H 0.16555 0.66714 0.00068 0.0
C842 C 0.30619 0.92007 0.84444 0.0
C843 C 0.28016 0.89532 0.85644 0.0
C844 C 0.32594 0.93836 0.8659 0.0
C845 C 0.31885 0.93203 0.89997 0.0
C846 C 0.28863 0.91265 0.91152 0.0
C847 C 0.26971 0.89383 0.88953 0.0
C848 C 0.35716 0.9601 0.85238 0.0
C849 C 0.27868 0.9082 0.94748 0.0
C850 C 0.3983 0.91153 0.94485 0.0
C851 C 0.40846 0.94552 0.95441 0.0
C852 C 0.36831 0.90663 0.92843 0.0
C853 C 0.34716 0.93624 0.9223 0.0
C854 C 0.35593 0.97003 0.93399 0.0
C855 C 0.38682 0.97444 0.94936 0.0
C856 C 0.36051 0.87015 0.91583 0.0
C857 C 0.33387 0.00218 0.92924 0.0
H858 H 0.31353 0.92192 0.81859 0.0
H859 H 0.24907 0.87527 0.89876 0.0
H860 H 0.3587 0.98652 0.86313 0.0
H861 H 0.38022 0.94539 0.85898 0.0
H862 H 0.35732 0.96504 0.82532 0.0
H863 H 0.25112 0.90132 0.95155 0.0
H864 H 0.29291 0.88601 0.95949 0.0
H865 H 0.28502 0.93328 0.95938 0.0
H866 H 0.41467 0.88893 0.94867 0.0
H867 H 0.39418 0.00084 0.9566 0.0
H868 H 0.35888 0.87301 0.88882 0.0
H869 H 0.33565 0.85892 0.92628 0.0
H870 H 0.38007 0.85029 0.9221 0.0
H871 H 0.34496 0.02089 0.90887 0.0
H872 H 0.33335 0.01735 0.95152 0.0
H873 H 0.30741 0.99444 0.9237 0.0
C874 C 0.19128 0.27758 0.8597 0.0
C875 C 0.2084 0.29678 0.83286 0.0
C876 C 0.17844 0.29565 0.88607 0.0
C877 C 0.18199 0.33382 0.88502 0.0
C878 C 0.20055 0.35312 0.85862 0.0
C879 C 0.21381 0.33431 0.83304 0.0
C880 C 0.15972 0.27404 0.91432 0.0
C881 C 0.20436 0.39385 0.85609 0.0
C882 C 0.10822 0.37898 0.9241 0.0
C883 C 0.12197 0.39058 0.9526 0.0
C884 C 0.1278 0.3612 0.90176 0.0
C885 C 0.16183 0.35379 0.90853 0.0
C886 C 0.17602 0.36548 0.93732 0.0
C887 C 0.15596 0.38437 0.9589 0.0
C888 C 0.11194 0.35034 0.87087 0.0
C889 C 0.21198 0.35728 0.94564 0.0
H890 H 0.18761 0.2485 0.85996 0.0
H891 H 0.22721 0.34934 0.81243 0.0
H892 H 0.1679 0.2833 0.93794 0.0
H893 H 0.13209 0.27821 0.91303 0.0
H894 H 0.16388 0.24466 0.91407 0.0
H895 H 0.22354 0.40424 0.83675 0.0
H896 H 0.17959 0.40541 0.85019 0.0
H897 H 0.21176 0.40377 0.87968 0.0
H898 H 0.08198 0.38422 0.9191 0.0
H899 H 0.16644 0.39325 0.98108 0.0
H900 H 0.11101 0.3205 0.87059 0.0
H901 H 0.12759 0.36151 0.8491 0.0
H902 H 0.08573 0.3599 0.86854 0.0
H903 H 0.21455 0.32758 0.94879 0.0
H904 H 0.21954 0.36913 0.96842 0.0
H905 H 0.22993 0.36776 0.92535 0.0
C906 C 0.68066 0.18096 0.84003 0.0
C907 C 0.67405 0.19014 0.80713 0.0
C908 C 0.65783 0.15848 0.86044 0.0
C909 C 0.62768 0.14427 0.84769 0.0
C910 C 0.62048 0.1541 0.81469 0.0
C911 C 0.64359 0.17699 0.79492 0.0
C912 C 0.66646 0.14914 0.89552 0.0
C913 C 0.58891 0.13943 0.79993 0.0
C914 C 0.59519 0.05462 0.89127 0.0
C915 C 0.56926 0.06511 0.91252 0.0
C916 C 0.61313 0.07981 0.86905 0.0
C917 C 0.60544 0.1168 0.86816 0.0
C918 C 0.57814 0.12737 0.88843 0.0
C919 C 0.56029 0.10137 0.91029 0.0
C920 C 0.64147 0.06697 0.84759 0.0
C921 C 0.56904 0.16643 0.88844 0.0
H922 H 0.70392 0.19113 0.84986 0.0
H923 H 0.63814 0.18384 0.76956 0.0
H924 H 0.64486 0.15479 0.91224 0.0
H925 H 0.67103 0.11986 0.8993 0.0
H926 H 0.68941 0.16451 0.90245 0.0
H927 H 0.58562 0.15168 0.77474 0.0
H928 H 0.59027 0.10975 0.79904 0.0
H929 H 0.5661 0.1444 0.81535 0.0
H930 H 0.60227 0.02664 0.89278 0.0
H931 H 0.54076 0.10985 0.92698 0.0
H932 H 0.6662 0.07809 0.8551 0.0
H933 H 0.63851 0.07693 0.82171 0.0
H934 H 0.64232 0.03704 0.8491 0.0
H935 H 0.58942 0.18185 0.89983 0.0
H936 H 0.54469 0.16966 0.90225 0.0
H937 H 0.56708 0.17858 0.86306 0.0
C938 C 0.85175 0.67031 0.78386 0.0
C939 C 0.81937 0.67375 0.79823 0.0
C940 C 0.8761 0.65004 0.8003 0.0
C941 C 0.86824 0.63452 0.83243 0.0
C942 C 0.83518 0.63739 0.84667 0.0
C943 C 0.81088 0.65643 0.82905 0.0
C944 C 0.91045 0.64621 0.7837 0.0
C945 C 0.82601 0.6221 0.88121 0.0
C946 C 0.91739 0.56471 0.88099 0.0
C947 C 0.9354 0.58656 0.90128 0.0
C948 C 0.89772 0.58011 0.85617 0.0
C949 C 0.8951 0.61809 0.85249 0.0
C950 C 0.91531 0.64027 0.87123 0.0
C951 C 0.93574 0.62419 0.89499 0.0
C952 C 0.87793 0.55562 0.83551 0.0
C953 C 0.91286 0.68086 0.86857 0.0
H954 H 0.85806 0.6837 0.75984 0.0
H955 H 0.78583 0.65951 0.84008 0.0
H956 H 0.92965 0.66355 0.79468 0.0
H957 H 0.91848 0.61791 0.78726 0.0
H958 H 0.91045 0.65425 0.75705 0.0
H959 H 0.79917 0.62648 0.88855 0.0
H960 H 0.83017 0.59269 0.88373 0.0
H961 H 0.84269 0.63498 0.8985 0.0
H962 H 0.91732 0.53557 0.88559 0.0
H963 H 0.94951 0.64123 0.91066 0.0
H964 H 0.8787 0.56681 0.8096 0.0
H965 H 0.85096 0.55351 0.84439 0.0
H966 H 0.88788 0.52799 0.83667 0.0
H967 H 0.9161 0.6919 0.84273 0.0
H968 H 0.93213 0.69433 0.88302 0.0
H969 H 0.88726 0.68794 0.87763 0.0
C970 C 0.16372 0.33435 0.22408 0.0
C971 C 0.19647 0.33254 0.20999 0.0
C972 C 0.13846 0.35273 0.20723 0.0
C973 C 0.14584 0.36805 0.17496 0.0
C974 C 0.17933 0.36729 0.16113 0.0
C975 C 0.20446 0.35004 0.17913 0.0
C976 C 0.1036 0.35434 0.22344 0.0
C977 C 0.18811 0.38262 0.12653 0.0
C978 C 0.07826 0.37181 0.11192 0.0
C979 C 0.07561 0.40916 0.10554 0.0
C980 C 0.09979 0.35788 0.13579 0.0
C981 C 0.11819 0.38189 0.15439 0.0
C982 C 0.11272 0.41937 0.15043 0.0
C983 C 0.09189 0.43265 0.12565 0.0
C984 C 0.10515 0.31774 0.13896 0.0
C985 C 0.1306 0.44569 0.17082 0.0
H986 H 0.15772 0.32077 0.24809 0.0
H987 H 0.22977 0.34817 0.16824 0.0
H988 H 0.09342 0.38163 0.21884 0.0
H989 H 0.08594 0.33481 0.21303 0.0
H990 H 0.10386 0.34757 0.25027 0.0
H991 H 0.21548 0.38064 0.11974 0.0
H992 H 0.17301 0.36784 0.10922 0.0
H993 H 0.18153 0.41139 0.12343 0.0
H994 H 0.0659 0.35356 0.09632 0.0
H995 H 0.08969 0.46158 0.12093 0.0
H996 H 0.10199 0.30692 0.16488 0.0
H997 H 0.13148 0.31263 0.1305 0.0
H998 H 0.08727 0.30255 0.12432 0.0
H999 H 0.13014 0.43505 0.19687 0.0
H1000 H 0.11889 0.47247 0.16914 0.0
H1001 H 0.15757 0.44955 0.16218 0.0
C1002 C 0.15122 0.66314 0.79724 0.0
C1003 C 0.16994 0.69086 0.8107 0.0
C1004 C 0.12783 0.64012 0.81658 0.0
C1005 C 0.12341 0.64415 0.85054 0.0
C1006 C 0.14113 0.67315 0.86391 0.0
C1007 C 0.16388 0.69623 0.84385 0.0
C1008 C 0.10909 0.61029 0.80091 0.0
C1009 C 0.13837 0.67821 0.89998 0.0
C1010 C 0.05426 0.59047 0.90532 0.0
C1011 C 0.07246 0.56133 0.91837 0.0
C1012 C 0.06998 0.6172 0.88246 0.0
C1013 C 0.10481 0.61502 0.8727 0.0
C1014 C 0.12276 0.58498 0.88498 0.0
C1015 C 0.1064 0.5586 0.90709 0.0
C1016 C 0.04967 0.64842 0.86964 0.0
C1017 C 0.15988 0.58127 0.87577 0.0
H1018 H 0.15531 0.65893 0.77156 0.0
H1019 H 0.17819 0.71743 0.85461 0.0
H1020 H 0.11979 0.58395 0.80869 0.0
H1021 H 0.08186 0.60888 0.80896 0.0
H1022 H 0.11111 0.61408 0.77377 0.0
H1023 H 0.14644 0.70605 0.90522 0.0
H1024 H 0.11211 0.67232 0.91016 0.0
H1025 H 0.15526 0.65911 0.91282 0.0
H1026 H 0.02823 0.59315 0.91376 0.0
H1027 H 0.12091 0.53616 0.9165 0.0
H1028 H 0.05247 0.65203 0.84256 0.0
H1029 H 0.05955 0.67369 0.87922 0.0
H1030 H 0.02227 0.64455 0.8769 0.0
H1031 H 0.16357 0.58116 0.84885 0.0
H1032 H 0.1702 0.55617 0.8873 0.0
H1033 H 0.17494 0.60473 0.88342 0.0
C1034 C 0.31557 0.1834 0.83428 0.0
C1035 C 0.32414 0.2023 0.80407 0.0
C1036 C 0.34052 0.16707 0.85319 0.0
C1037 C 0.37472 0.16845 0.84098 0.0
C1038 C 0.38338 0.18697 0.81012 0.0
C1039 C 0.35806 0.20433 0.79231 0.0
C1040 C 0.33028 0.14861 0.88641 0.0
C1041 C 0.41921 0.18784 0.79568 0.0
C1042 C 0.43934 0.15105 0.906 0.0
C1043 C 0.4406 0.11332 0.90742 0.0
C1044 C 0.4193 0.16977 0.88328 0.0
C1045 C 0.40106 0.15034 0.86079 0.0
C1046 C 0.40499 0.11265 0.86013 0.0
C1047 C 0.42419 0.09449 0.88388 0.0
C1048 C 0.41512 0.20974 0.88553 0.0
C1049 C 0.38703 0.09104 0.83585 0.0
H1050 H 0.28937 0.18206 0.84347 0.0
H1051 H 0.36462 0.2187 0.76876 0.0
H1052 H 0.33487 0.11933 0.88671 0.0
H1053 H 0.34597 0.15977 0.9054 0.0
H1054 H 0.30309 0.1519 0.89316 0.0
H1055 H 0.42167 0.20282 0.77115 0.0
H1056 H 0.43688 0.20068 0.81208 0.0
H1057 H 0.42738 0.15984 0.7935 0.0
H1058 H 0.45154 0.16561 0.92451 0.0
H1059 H 0.42507 0.06528 0.885 0.0
H1060 H 0.38922 0.21418 0.89561 0.0
H1061 H 0.41778 0.22451 0.86098 0.0
H1062 H 0.43386 0.22156 0.90159 0.0
H1063 H 0.35967 0.08757 0.84316 0.0
H1064 H 0.39749 0.0638 0.83461 0.0
H1065 H 0.38909 0.10542 0.81108 0.0
C1066 C 0.81364 0.31291 0.90374 0.0
C1067 C 0.83663 0.29383 0.88554 0.0
C1068 C 0.82525 0.33724 0.9257 0.0
C1069 C 0.8606 0.34256 0.92899 0.0
C1070 C 0.88367 0.32137 0.91217 0.0
C1071 C 0.87132 0.29731 0.89048 0.0
C1072 C 0.79981 0.35903 0.94324 0.0
C1073 C 0.92161 0.32593 0.91523 0.0
C1074 C 0.90851 0.42814 0.94474 0.0
C1075 C 0.92219 0.41721 0.97463 0.0
C1076 C 0.88459 0.40564 0.93093 0.0
C1077 C 0.87437 0.37193 0.94772 0.0
C1078 C 0.88428 0.3637 0.98005 0.0
C1079 C 0.9083 0.38648 0.99314 0.0
C1080 C 0.8737 0.41586 0.89672 0.0
C1081 C 0.87295 0.32872 -0.00078 0.0
H1082 H 0.78679 0.31068 0.89911 0.0
H1083 H 0.8889 0.28295 0.87574 0.0
H1084 H 0.80778 0.36403 0.96816 0.0
H1085 H 0.79777 0.38563 0.92933 0.0
H1086 H 0.77422 0.34531 0.94513 0.0
H1087 H 0.9358 0.3059 0.90195 0.0
H1088 H 0.93041 0.35343 0.90519 0.0
H1089 H 0.92808 0.32303 0.94133 0.0
H1090 H 0.91905 0.45214 0.93064 0.0
H1091 H 0.9184 0.37858 0.01674 0.0
H1092 H 0.84625 0.40935 0.8946 0.0
H1093 H 0.88789 0.40007 0.87922 0.0
H1094 H 0.87879 0.44506 0.88949 0.0
H1095 H 0.84574 0.32215 0.99575 0.0
H1096 H 0.87696 0.32984 0.02576 0.0
H1097 H 0.88782 0.30642 0.99029 0.0
C1098 C 0.68944 0.76379 0.86075 0.0
C1099 C 0.71261 0.78395 0.83918 0.0
C1100 C 0.67012 0.78073 0.88416 0.0
C1101 C 0.67333 0.81873 0.88507 0.0
C1102 C 0.69771 0.8389 0.86423 0.0
C1103 C 0.71743 0.82116 0.84192 0.0
C1104 C 0.64521 0.75821 0.90685 0.0
C1105 C 0.70128 0.87958 0.86375 0.0
C1106 C 0.59597 0.86894 0.90999 0.0
C1107 C 0.60523 0.88063 0.94007 0.0
C1108 C 0.61782 0.84835 0.89201 0.0
C1109 C 0.64902 0.83809 0.90516 0.0
C1110 C 0.65785 0.84869 0.93621 0.0
C1111 C 0.63607 0.87055 0.95306 0.0
C1112 C 0.608 0.83861 0.85849 0.0
C1113 C 0.69031 0.83714 0.95146 0.0
H1114 H 0.68583 0.73498 0.85881 0.0
H1115 H 0.73515 0.83695 0.82515 0.0
H1116 H 0.6469 0.76617 0.93226 0.0
H1117 H 0.61898 0.7629 0.89923 0.0
H1118 H 0.64965 0.72887 0.90669 0.0
H1119 H 0.72268 0.89099 0.84728 0.0
H1120 H 0.6775 0.89164 0.85536 0.0
H1121 H 0.70529 0.88795 0.88869 0.0
H1122 H 0.57204 0.87688 0.90008 0.0
H1123 H 0.64283 0.87924 0.97666 0.0
H1124 H 0.60717 0.80887 0.85744 0.0
H1125 H 0.62737 0.85007 0.8398 0.0
H1126 H 0.58288 0.84883 0.85185 0.0
H1127 H 0.69243 0.80746 0.95122 0.0
H1128 H 0.69175 0.84461 0.97707 0.0
H1129 H 0.71247 0.85 0.93699 0.0
C1130 C 0.83542 0.71579 0.1538 0.0
C1131 C 0.80022 0.71537 0.15948 0.0
C1132 C 0.84988 0.69498 0.13018 0.0
C1133 C 0.82848 0.67439 0.11107 0.0
C1134 C 0.7928 0.67546 0.11563 0.0
C1135 C 0.7791 0.6954 0.14027 0.0
C1136 C 0.88806 0.6937 0.12677 0.0
C1137 C 0.76917 0.65513 0.09485 0.0
C1138 C 0.87394 0.64355 0.03569 0.0
C1139 C 0.88075 0.6079 0.04616 0.0
C1140 C 0.8548 0.66483 0.05573 0.0
C1141 C 0.84367 0.6505 0.08749 0.0
C1142 C 0.84959 0.61401 0.09767 0.0
C1143 C 0.86762 0.59291 0.07657 0.0
C1144 C 0.84781 0.70308 0.04346 0.0
C1145 C 0.83893 0.59798 0.13164 0.0
H1146 H 0.85169 0.73085 0.16903 0.0
H1147 H 0.75181 0.6952 0.14471 0.0
H1148 H 0.89588 0.66551 0.13199 0.0
H1149 H 0.89696 0.70247 0.10133 0.0
H1150 H 0.90106 0.71115 0.1436 0.0
H1151 H 0.74206 0.66 0.10064 0.0
H1152 H 0.77496 0.66332 0.06858 0.0
H1153 H 0.77305 0.62572 0.09854 0.0
H1154 H 0.88428 0.65502 0.01211 0.0
H1155 H 0.87346 0.56545 0.08472 0.0
H1156 H 0.86362 0.72228 0.05634 0.0
H1157 H 0.82084 0.7089 0.04868 0.0
H1158 H 0.85357 0.7082 0.01674 0.0
H1159 H 0.85286 0.61248 0.14997 0.0
H1160 H 0.8441 0.56878 0.13521 0.0
H1161 H 0.81147 0.60138 0.13665 0.0
C1162 C 0.35748 0.82683 0.19735 0.0
C1163 C 0.32661 0.81461 0.18529 0.0
C1164 C 0.38059 0.84991 0.17776 0.0
C1165 C 0.37296 0.86086 0.1451 0.0
C1166 C 0.34239 0.84758 0.13246 0.0
C1167 C 0.31957 0.82491 0.15269 0.0
C1168 C 0.41261 0.86362 0.19241 0.0
C1169 C 0.33331 0.8581 0.09771 0.0
C1170 C 0.40602 0.95092 0.10281 0.0
C1171 C 0.4314 0.94052 0.08092 0.0
C1172 C 0.38816 0.92553 0.12489 0.0
C1173 C 0.39531 0.88845 0.12491 0.0
C1174 C 0.42209 0.87794 0.10397 0.0
C1175 C 0.43993 0.90415 0.08233 0.0
C1176 C 0.36042 0.93828 0.14711 0.0
C1177 C 0.43055 0.83879 0.10298 0.0
H1178 H 0.36325 0.81913 0.22248 0.0
H1179 H 0.29597 0.81548 0.14299 0.0
H1180 H 0.43509 0.85873 0.17651 0.0
H1181 H 0.4117 0.89324 0.19402 0.0
H1182 H 0.41612 0.8506 0.21728 0.0
H1183 H 0.31002 0.84335 0.09076 0.0
H1184 H 0.32912 0.88751 0.09472 0.0
H1185 H 0.35454 0.85262 0.08049 0.0
H1186 H 0.39929 0.979 0.1019 0.0
H1187 H 0.45903 0.89579 0.06511 0.0
H1188 H 0.36359 0.92748 0.17273 0.0
H1189 H 0.33537 0.92795 0.13967 0.0
H1190 H 0.36013 0.96822 0.14634 0.0
H1191 H 0.43275 0.82595 0.12808 0.0
H1192 H 0.4546 0.8355 0.0887 0.0
H1193 H 0.40972 0.82406 0.09157 0.0
C1194 C 0.73008 0.11012 0.1058 0.0
C1195 C 0.72115 0.10411 0.13919 0.0
C1196 C 0.71062 0.09384 0.08266 0.0
C1197 C 0.68146 0.0722 0.0935 0.0
C1198 C 0.67605 0.06143 0.12718 0.0
C1199 C 0.69629 0.0774 0.14972 0.0
C1200 C 0.7187 0.10335 0.04675 0.0
C1201 C 0.646 0.03724 0.13975 0.0
C1202 C 0.59956 0.09365 0.05306 0.0
C1203 C 0.59105 0.06114 0.0397 0.0
C1204 C 0.62965 0.09791 0.06951 0.0
C1205 C 0.65248 0.0693 0.07178 0.0
C1206 C 0.6452 0.0373 0.05646 0.0
C1207 C 0.61424 0.03335 0.04116 0.0
C1208 C 0.63596 0.13238 0.08606 0.0
C1209 C 0.66905 0.00645 0.05714 0.0
H1210 H 0.74976 0.13033 0.09764 0.0
H1211 H 0.69008 0.07218 0.17568 0.0
H1212 H 0.71292 0.07994 0.03238 0.0
H1213 H 0.70285 0.12584 0.03787 0.0
H1214 H 0.7458 0.11215 0.04214 0.0
H1215 H 0.64743 0.02858 0.16617 0.0
H1216 H 0.62225 0.05191 0.13617 0.0
H1217 H 0.64439 0.01283 0.12592 0.0
H1218 H 0.58187 0.11531 0.05215 0.0
H1219 H 0.60823 0.00815 0.03093 0.0
H1220 H 0.6602 0.14598 0.07646 0.0
H1221 H 0.63812 0.12605 0.11276 0.0
H1222 H 0.61536 0.15167 0.08229 0.0
H1223 H 0.69552 0.01519 0.0617 0.0
H1224 H 0.66891 0.99353 0.03363 0.0
H1225 H 0.66016 0.98553 0.07669 0.0
C1226 C 0.57504 0.65272 0.76995 0.0
C1227 C 0.60151 0.62942 0.76454 0.0
C1228 C 0.54817 0.64183 0.79239 0.0
C1229 C 0.5487 0.60744 0.80962 0.0
C1230 C 0.57106 0.58157 0.79852 0.0
C1231 C 0.5976 0.59306 0.77609 0.0
C1232 C 0.52286 0.66904 0.80169 0.0
C1233 C 0.57106 0.54368 0.81472 0.0
C1234 C 0.55672 0.59723 0.89998 0.0
C1235 C 0.52984 0.57267 0.90911 0.0
C1236 C 0.56051 0.61299 0.86801 0.0
C1237 C 0.53706 0.60313 0.84453 0.0
C1238 C 0.50729 0.58227 0.85486 0.0
C1239 C 0.50402 0.5671 0.8873 0.0
C1240 C 0.592 0.63655 0.85876 0.0
C1241 C 0.48048 0.57294 0.83139 0.0
H1242 H 0.57765 0.68075 0.76034 0.0
H1243 H 0.61769 0.57486 0.77106 0.0
H1244 H 0.49767 0.65564 0.80831 0.0
H1245 H 0.53155 0.68238 0.82331 0.0
H1246 H 0.52016 0.69023 0.78143 0.0
H1247 H 0.5829 0.54423 0.83879 0.0
H1248 H 0.54475 0.53231 0.81905 0.0
H1249 H 0.58563 0.52547 0.7997 0.0
H1250 H 0.57612 0.60218 0.91728 0.0
H1251 H 0.48274 0.54853 0.89466 0.0
H1252 H 0.58573 0.66109 0.84344 0.0
H1253 H 0.61012 0.62123 0.84448 0.0
H1254 H 0.60495 0.64519 0.88057 0.0
H1255 H 0.45483 0.57248 0.84365 0.0
H1256 H 0.48451 0.54546 0.82355 0.0
H1257 H 0.48112 0.59224 0.80933 0.0
C1258 C 0.32424 0.69656 0.83881 0.0
C1259 C 0.31962 0.68721 0.80679 0.0
C1260 C 0.34461 0.67633 0.85998 0.0
C1261 C 0.36129 0.64625 0.84878 0.0
C1262 C 0.35779 0.63738 0.81612 0.0
C1263 C 0.33672 0.6578 0.79555 0.0
C1264 C 0.34735 0.68651 0.89474 0.0
C1265 C 0.37577 0.60596 0.80315 0.0
C1266 C 0.43015 0.61396 0.90478 0.0
C1267 C 0.4125 0.58649 0.92472 0.0
C1268 C 0.41462 0.63202 0.87833 0.0
C1269 C 0.38038 0.62298 0.87223 0.0
C1270 C 0.36303 0.59413 0.89133 0.0
C1271 C 0.37937 0.57614 0.91719 0.0
C1272 C 0.43437 0.6618 0.85786 0.0
C1273 C 0.32647 0.58367 0.88579 0.0
H1274 H 0.31115 0.71921 0.84774 0.0
H1275 H 0.3335 0.65059 0.77074 0.0
H1276 H 0.33686 0.66398 0.91199 0.0
H1277 H 0.37437 0.69115 0.90029 0.0
H1278 H 0.33349 0.71122 0.89935 0.0
H1279 H 0.3726 0.60434 0.77653 0.0
H1280 H 0.40328 0.60824 0.80768 0.0
H1281 H 0.36569 0.5803 0.81624 0.0
H1282 H 0.45592 0.62184 0.91021 0.0
H1283 H 0.36549 0.55506 0.93255 0.0
H1284 H 0.42419 0.68829 0.863 0.0
H1285 H 0.43154 0.65858 0.83145 0.0
H1286 H 0.46182 0.66226 0.86298 0.0
H1287 H 0.31005 0.60603 0.89188 0.0
H1288 H 0.31753 0.55882 0.90098 0.0
H1289 H 0.32313 0.57918 0.85971 0.0
C1290 C 0.37414 0.40417 0.80295 0.0
C1291 C 0.34004 0.39265 0.80187 0.0
C1292 C 0.38757 0.41404 0.83225 0.0
C1293 C 0.36649 0.41176 0.86117 0.0
C1294 C 0.33157 0.40253 0.85975 0.0
C1295 C 0.31873 0.39303 0.83011 0.0
C1296 C 0.42466 0.42548 0.83261 0.0
C1297 C 0.30815 0.4011 0.88984 0.0
C1298 C 0.41726 0.39192 0.93615 0.0
C1299 C 0.42338 0.42668 0.94619 0.0
C1300 C 0.39652 0.38635 0.90988 0.0
C1301 C 0.38183 0.41632 0.89312 0.0
C1302 C 0.38528 0.45087 0.90512 0.0
C1303 C 0.40585 0.45554 0.93167 0.0
C1304 C 0.39249 0.34881 0.8985 0.0
C1305 C 0.36956 0.48383 0.88907 0.0
H1306 H 0.39054 0.40427 0.78111 0.0
H1307 H 0.29238 0.38379 0.82961 0.0
H1308 H 0.4275 0.45163 0.84378 0.0
H1309 H 0.43829 0.40515 0.84782 0.0
H1310 H 0.43697 0.42841 0.80768 0.0
H1311 H 0.28122 0.39566 0.88419 0.0
H1312 H 0.31582 0.37955 0.90801 0.0
H1313 H 0.31018 0.42708 0.90139 0.0
H1314 H 0.43036 0.36938 0.94747 0.0
H1315 H 0.41027 0.48252 0.93914 0.0
H1316 H 0.40683 0.34762 0.87482 0.0
H1317 H 0.36542 0.34213 0.89444 0.0
H1318 H 0.40202 0.32793 0.91635 0.0
H1319 H 0.35293 0.4779 0.86886 0.0
H1320 H 0.38998 0.50366 0.87944 0.0
H1321 H 0.3543 0.49699 0.90772 0.0
C1322 C 0.72436 0.35808 0.80533 0.0
C1323 C 0.70575 0.34475 0.78007 0.0
C1324 C 0.70905 0.37857 0.82857 0.0
C1325 C 0.67438 0.38633 0.82622 0.0
C1326 C 0.65656 0.37647 0.79873 0.0
C1327 C 0.67247 0.35559 0.77592 0.0
C1328 C 0.72905 0.3885 0.85743 0.0
C1329 C 0.61974 0.38495 0.79504 0.0
C1330 C 0.62229 0.38347 0.90585 0.0
C1331 C 0.61901 0.42019 0.91015 0.0
C1332 C 0.64062 0.3723 0.87881 0.0
C1333 C 0.65552 0.39855 0.85511 0.0
C1334 C 0.65261 0.43574 0.85944 0.0
C1335 C 0.6346 0.44617 0.88718 0.0
C1336 C 0.64371 0.33231 0.87547 0.0
C1337 C 0.66767 0.46441 0.8344 0.0
H1338 H 0.75035 0.35034 0.80837 0.0
H1339 H 0.65804 0.34563 0.75633 0.0
H1340 H 0.72443 0.41659 0.86324 0.0
H1341 H 0.7207 0.37037 0.87927 0.0
H1342 H 0.75677 0.38577 0.85301 0.0
H1343 H 0.61153 0.38164 0.76983 0.0
H1344 H 0.6037 0.36641 0.81227 0.0
H1345 H 0.6151 0.41296 0.80115 0.0
H1346 H 0.6103 0.36337 0.92364 0.0
H1347 H 0.63162 0.47461 0.89023 0.0
H1348 H 0.67087 0.32566 0.87354 0.0
H1349 H 0.63188 0.3248 0.85276 0.0
H1350 H 0.63135 0.31549 0.89651 0.0
H1351 H 0.66423 0.49214 0.84199 0.0
H1352 H 0.6555 0.46201 0.81072 0.0
H1353 H 0.69518 0.46051 0.83013 0.0
C1354 C 0.66055 0.33505 0.20285 0.0
C1355 C 0.67952 0.30678 0.19192 0.0
C1356 C 0.63953 0.35472 0.18161 0.0
C1357 C 0.63804 0.34633 0.1486 0.0
C1358 C 0.65677 0.31749 0.13766 0.0
C1359 C 0.67697 0.29792 0.15948 0.0
C1360 C 0.61904 0.38452 0.19438 0.0
C1361 C 0.6563 0.30794 0.10257 0.0
C1362 C 0.56969 0.37581 0.09064 0.0
C1363 C 0.58646 0.40481 0.07188 0.0
C1364 C 0.58525 0.35792 0.1172 0.0
C1365 C 0.61866 0.36878 0.12469 0.0
C1366 C 0.63508 0.39902 0.10672 0.0
C1367 C 0.61875 0.4167 0.08067 0.0
C1368 C 0.56645 0.32644 0.13623 0.0
C1369 C 0.6707 0.41154 0.11381 0.0
H1370 H 0.66212 0.34179 0.22798 0.0
H1371 H 0.69158 0.27619 0.15078 0.0
H1372 H 0.62568 0.41051 0.17998 0.0
H1373 H 0.59163 0.37849 0.19145 0.0
H1374 H 0.62318 0.38791 0.22059 0.0
H1375 H 0.67189 0.28438 0.09809 0.0
H1376 H 0.62989 0.30165 0.0959 0.0
H1377 H 0.66614 0.33138 0.08602 0.0
H1378 H 0.54455 0.36669 0.0843 0.0
H1379 H 0.63195 0.43908 0.06637 0.0
H1380 H 0.57664 0.30083 0.12861 0.0
H1381 H 0.53882 0.32616 0.13194 0.0
H1382 H 0.57011 0.32717 0.16283 0.0
H1383 H 0.67262 0.41551 0.14018 0.0
H1384 H 0.67878 0.43722 0.09944 0.0
H1385 H 0.68869 0.39052 0.10783 0.0
C1386 C 0.62672 0.59974 0.19154 0.0
C1387 C 0.66129 0.6099 0.19106 0.0
C1388 C 0.612 0.58749 0.16368 0.0
C1389 C 0.63241 0.58525 0.13478 0.0
C1390 C 0.66776 0.59272 0.13493 0.0
C1391 C 0.68175 0.60526 0.16298 0.0
C1392 C 0.57425 0.57884 0.16463 0.0
C1393 C 0.69052 0.59008 0.10485 0.0
C1394 C 0.58966 0.53685 0.06873 0.0
C1395 C 0.57476 0.5657 0.05117 0.0
C1396 C 0.60988 0.5428 0.09528 0.0
C1397 C 0.61602 0.57851 0.1038 0.0
C1398 C 0.60366 0.60793 0.0843 0.0
C1399 C 0.58294 0.60114 0.05832 0.0
C1400 C 0.62305 0.51078 0.11521 0.0
C1401 C 0.61024 0.64647 0.09233 0.0
H1402 H 0.61091 0.60277 0.21328 0.0
H1403 H 0.70842 0.61356 0.16206 0.0
H1404 H 0.56177 0.59891 0.14814 0.0
H1405 H 0.56911 0.55183 0.15571 0.0
H1406 H 0.56248 0.57922 0.18964 0.0
H1407 H 0.71752 0.58784 0.11116 0.0
H1408 H 0.68296 0.56647 0.09145 0.0
H1409 H 0.68842 0.61474 0.0881 0.0
H1410 H 0.58334 0.50935 0.06351 0.0
H1411 H 0.57163 0.62351 0.04473 0.0
H1412 H 0.65107 0.51062 0.11169 0.0
H1413 H 0.61203 0.48475 0.10815 0.0
H1414 H 0.61718 0.51259 0.14168 0.0
H1415 H 0.5969 0.65091 0.11591 0.0
H1416 H 0.60139 0.6663 0.07316 0.0
H1417 H 0.63776 0.65183 0.09526 0.0
C1418 C 0.27342 0.64857 0.18331 0.0
C1419 C 0.29153 0.65963 0.20982 0.0
C1420 C 0.28806 0.62678 0.16071 0.0
C1421 C 0.32153 0.61547 0.1649 0.0
C1422 C 0.3386 0.62342 0.1934 0.0
C1423 C 0.3234 0.64557 0.21556 0.0
C1424 C 0.26887 0.619 0.13073 0.0
C1425 C 0.37412 0.61127 0.19901 0.0
C1426 C 0.35998 0.55156 0.10669 0.0
C1427 C 0.37889 0.57598 0.08463 0.0
C1428 C 0.34098 0.56383 0.13307 0.0
C1429 C 0.34065 0.60134 0.13703 0.0
C1430 C 0.35884 0.62608 0.11416 0.0
C1431 C 0.37786 0.61308 0.08842 0.0
C1432 C 0.32207 0.53672 0.15712 0.0
C1433 C 0.35866 0.66637 0.1171 0.0
H1434 H 0.24848 0.65882 0.17894 0.0
H1435 H 0.33742 0.65373 0.23613 0.0
H1436 H 0.27947 0.63671 0.10945 0.0
H1437 H 0.27166 0.59062 0.12483 0.0
H1438 H 0.2414 0.6241 0.13388 0.0
H1439 H 0.38146 0.6141 0.22456 0.0
H1440 H 0.3765 0.58271 0.19348 0.0
H1441 H 0.39234 0.62793 0.18231 0.0
H1442 H 0.36097 0.52282 0.10401 0.0
H1443 H 0.39222 0.63209 0.07128 0.0
H1444 H 0.29502 0.54357 0.15975 0.0
H1445 H 0.33296 0.53769 0.18156 0.0
H1446 H 0.32338 0.50871 0.14962 0.0
H1447 H 0.33221 0.67553 0.11729 0.0
H1448 H 0.37346 0.68196 0.09675 0.0
H1449 H 0.36957 0.67293 0.14053 0.0
C1450 C 0.4197 0.41119 0.22981 0.0
C1451 C 0.41525 0.37506 0.24204 0.0
C1452 C 0.44378 0.42098 0.20443 0.0
C1453 C 0.46331 0.39375 0.19151 0.0
C1454 C 0.46461 0.3598 0.20935 0.0
C1455 C 0.44012 0.35057 0.23462 0.0
C1456 C 0.44347 0.45852 0.18756 0.0
C1457 C 0.48748 0.33127 0.19802 0.0
C1458 C 0.44439 0.40041 0.10279 0.0
C1459 C 0.47141 0.42289 0.08976 0.0
C1460 C 0.44368 0.38662 0.13544 0.0
C1461 C 0.47041 0.39647 0.15565 0.0
C1462 C 0.49978 0.41537 0.14144 0.0
C1463 C 0.49994 0.42845 0.10844 0.0
C1464 C 0.41229 0.3651 0.14889 0.0
C1465 C 0.5297 0.42486 0.16134 0.0
H1466 H 0.40112 0.43041 0.23649 0.0
H1467 H 0.4374 0.32275 0.24482 0.0
H1468 H 0.4696 0.46856 0.17989 0.0
H1469 H 0.42842 0.45787 0.16531 0.0
H1470 H 0.43192 0.47784 0.20366 0.0
H1471 H 0.49143 0.31015 0.21805 0.0
H1472 H 0.47582 0.31808 0.17761 0.0
H1473 H 0.51245 0.34353 0.18888 0.0
H1474 H 0.42278 0.39545 0.088 0.0
H1475 H 0.52126 0.44548 0.09816 0.0
H1476 H 0.39658 0.38246 0.1636 0.0
H1477 H 0.41902 0.34124 0.16486 0.0
H1478 H 0.39657 0.35554 0.12916 0.0
H1479 H 0.55382 0.42368 0.14662 0.0
H1480 H 0.5309 0.4067 0.18399 0.0
H1481 H 0.52778 0.45301 0.16825 0.0
C1482 C 0.77743 0.69721 0.64133 0.0
C1483 C 0.79606 0.71386 0.66472 0.0
C1484 C 0.79408 0.68074 0.61589 0.0
C1485 C 0.82996 0.67966 0.61493 0.0
C1486 C 0.84878 0.69701 0.63827 0.0
C1487 C 0.83158 0.7145 0.66251 0.0
C1488 C 0.77334 0.66377 0.59059 0.0
C1489 C 0.88699 0.69548 0.63876 0.0
C1490 C 0.87326 0.602 0.57864 0.0
C1491 C 0.89006 0.61963 0.55095 0.0
C1492 C 0.85273 0.62109 0.5993 0.0
C1493 C 0.84799 0.65827 0.59117 0.0
C1494 C 0.86335 0.67559 0.56204 0.0
C1495 C 0.88494 0.65616 0.54257 0.0
C1496 C 0.83777 0.60196 0.63072 0.0
C1497 C 0.8578 0.7148 0.55197 0.0
H1498 H 0.74993 0.69692 0.64306 0.0
H1499 H 0.84594 0.72703 0.6809 0.0
H1500 H 0.78398 0.67228 0.56563 0.0
H1501 H 0.77436 0.63394 0.594 0.0
H1502 H 0.74632 0.67112 0.59224 0.0
H1503 H 0.89775 0.71062 0.6585 0.0
H1504 H 0.8943 0.66694 0.64239 0.0
H1505 H 0.89876 0.70681 0.61501 0.0
H1506 H 0.87756 0.57369 0.58496 0.0
H1507 H 0.89787 0.66948 0.52085 0.0
H1508 H 0.80991 0.60485 0.63239 0.0
H1509 H 0.84852 0.61452 0.65192 0.0
H1510 H 0.84303 0.57272 0.63284 0.0
H1511 H 0.83039 0.72037 0.55406 0.0
H1512 H 0.86736 0.72261 0.52648 0.0
H1513 H 0.87115 0.7322 0.56853 0.0
C1514 C 0.33603 0.79874 0.65768 0.0
C1515 C 0.33031 0.80364 0.69097 0.0
C1516 C 0.35941 0.82137 0.6379 0.0
C1517 C 0.37813 0.84936 0.65173 0.0
C1518 C 0.374 0.85283 0.68581 0.0
C1519 C 0.34994 0.83034 0.70485 0.0
C1520 C 0.36187 0.81701 0.60169 0.0
C1521 C 0.39379 0.88155 0.70195 0.0
C1522 C 0.44874 0.90187 0.59786 0.0
C1523 C 0.43149 0.93209 0.58556 0.0
C1524 C 0.43221 0.87506 0.62011 0.0
C1525 C 0.39754 0.87826 0.62998 0.0
C1526 C 0.38053 0.90923 0.61834 0.0
C1527 C 0.39766 0.93564 0.59683 0.0
C1528 C 0.4515 0.84278 0.63226 0.0
C1529 C 0.34362 0.91404 0.62771 0.0
H1530 H 0.32102 0.7783 0.64662 0.0
H1531 H 0.34611 0.83413 0.73065 0.0
H1532 H 0.34604 0.83737 0.58908 0.0
H1533 H 0.38834 0.82162 0.59168 0.0
H1534 H 0.35244 0.78979 0.59593 0.0
H1535 H 0.39178 0.87724 0.72906 0.0
H1536 H 0.42098 0.88207 0.69384 0.0
H1537 H 0.38399 0.90846 0.69463 0.0
H1538 H 0.4747 0.89858 0.5894 0.0
H1539 H 0.38386 0.95886 0.58799 0.0
H1540 H 0.44064 0.81812 0.62237 0.0
H1541 H 0.44887 0.83872 0.65933 0.0
H1542 H 0.47892 0.84569 0.62483 0.0
H1543 H 0.32782 0.89125 0.61977 0.0
H1544 H 0.33402 0.93969 0.61655 0.0
H1545 H 0.34006 0.91378 0.65466 0.0
C1546 C 0.18131 0.32578 0.66291 0.0
C1547 C 0.17265 0.30452 0.69193 0.0
C1548 C 0.15617 0.34122 0.64361 0.0
C1549 C 0.12152 0.3364 0.6542 0.0
C1550 C 0.11269 0.31558 0.68391 0.0
C1551 C 0.13833 0.29931 0.70212 0.0
C1552 C 0.16671 0.36235 0.61165 0.0
C1553 C 0.07626 0.31093 0.69667 0.0
C1554 C 0.06849 0.40786 0.61209 0.0
C1555 C 0.0552 0.38935 0.58666 0.0
C1556 C 0.0877 0.39009 0.63607 0.0
C1557 C 0.09486 0.35325 0.63385 0.0
C1558 C 0.07959 0.33389 0.60947 0.0
C1559 C 0.05946 0.35209 0.58646 0.0
C1560 C 0.10239 0.4115 0.66232 0.0
C1561 C 0.08715 0.29488 0.60561 0.0
H1562 H 0.20779 0.32962 0.65485 0.0
H1563 H 0.13159 0.28309 0.72472 0.0
H1564 H 0.15319 0.35108 0.59129 0.0
H1565 H 0.1596 0.39087 0.61246 0.0
H1566 H 0.19447 0.36193 0.60609 0.0
H1567 H 0.0737 0.29471 0.72061 0.0
H1568 H 0.06562 0.3378 0.6995 0.0
H1569 H 0.06068 0.29747 0.6789 0.0
H1570 H 0.06534 0.43672 0.61222 0.0
H1571 H 0.04975 0.33783 0.56651 0.0
H1572 H 0.12973 0.41785 0.65639 0.0
H1573 H 0.10028 0.39559 0.68639 0.0
H1574 H 0.0895 0.43736 0.66442 0.0
H1575 H 0.11386 0.29324 0.59648 0.0
H1576 H 0.07031 0.28257 0.5881 0.0
H1577 H 0.08437 0.27865 0.62946 0.0
C1578 C 0.63712 0.20581 0.58662 0.0
C1579 C 0.67013 0.20882 0.59727 0.0
C1580 C 0.62781 0.17831 0.56695 0.0
C1581 C 0.65225 0.15328 0.55818 0.0
C1582 C 0.6866 0.15908 0.56557 0.0
C1583 C 0.69516 0.18682 0.58542 0.0
C1584 C 0.59099 0.17379 0.55867 0.0
C1585 C 0.71361 0.13409 0.55533 0.0
C1586 C 0.60262 0.06571 0.56245 0.0
C1587 C 0.59038 0.06799 0.53098 0.0
C1588 C 0.6275 0.09087 0.57086 0.0
C1589 C 0.64004 0.11833 0.54695 0.0
C1590 C 0.63214 0.11622 0.51389 0.0
C1591 C 0.60689 0.09119 0.50631 0.0
C1592 C 0.63617 0.09144 0.60631 0.0
C1593 C 0.64635 0.14341 0.48719 0.0
H1594 H 0.61792 0.22277 0.59621 0.0
H1595 H 0.72071 0.18915 0.5941 0.0
H1596 H 0.58891 0.17051 0.5322 0.0
H1597 H 0.57946 0.14909 0.57233 0.0
H1598 H 0.57601 0.1972 0.56497 0.0
H1599 H 0.73928 0.14752 0.55477 0.0
H1600 H 0.71332 0.10999 0.57309 0.0
H1601 H 0.70895 0.12461 0.53087 0.0
H1602 H 0.5898 0.04756 0.58139 0.0
H1603 H 0.59748 0.09257 0.4818 0.0
H1604 H 0.62227 0.11316 0.61747 0.0
H1605 H 0.6637 0.09729 0.60854 0.0
H1606 H 0.62901 0.06537 0.62046 0.0
H1607 H 0.62815 0.16523 0.48319 0.0
H1608 H 0.64969 0.13042 0.46385 0.0
H1609 H 0.67105 0.15575 0.49341 0.0
C1610 C 0.77017 0.39443 0.38741 0.0
C1611 C 0.77898 0.39676 0.35392 0.0
C1612 C 0.79024 0.4127 0.40886 0.0
C1613 C 0.81992 0.43241 0.39628 0.0
C1614 C 0.82528 0.43964 0.36208 0.0
C1615 C 0.80438 0.42189 0.3412 0.0
C1616 C 0.78217 0.40724 0.44514 0.0
C1617 C 0.85591 0.46169 0.34758 0.0
C1618 C 0.88927 0.4739 0.44461 0.0
C1619 C 0.91101 0.44496 0.44894 0.0
C1620 C 0.85814 0.46979 0.42966 0.0
C1621 C 0.84926 0.43636 0.41741 0.0
C1622 C 0.8708 0.40684 0.42222 0.0
C1623 C 0.90101 0.41137 0.4384 0.0
C1624 C 0.83582 0.50187 0.42614 0.0
C1625 C 0.86292 0.37083 0.40879 0.0
H1626 H 0.75006 0.37548 0.39719 0.0
H1627 H 0.81051 0.42424 0.31511 0.0
H1628 H 0.79726 0.38504 0.45592 0.0
H1629 H 0.7889 0.43207 0.45726 0.0
H1630 H 0.75485 0.39987 0.45043 0.0
H1631 H 0.85464 0.46743 0.32069 0.0
H1632 H 0.85819 0.48771 0.35894 0.0
H1633 H 0.87925 0.44677 0.35262 0.0
H1634 H 0.89659 0.50009 0.45225 0.0
H1635 H 0.91755 0.38882 0.44149 0.0
H1636 H 0.80918 0.49413 0.42125 0.0
H1637 H 0.84623 0.521 0.40577 0.0
H1638 H 0.83594 0.51658 0.44869 0.0
H1639 H 0.8385 0.35896 0.41975 0.0
H1640 H 0.88292 0.35111 0.4138 0.0
H1641 H 0.8603 0.37458 0.38192 0.0
C1642 C 0.69155 0.77316 0.35383 0.0
C1643 C 0.70943 0.79337 0.32802 0.0
C1644 C 0.67636 0.79029 0.3797 0.0
C1645 C 0.67832 0.82851 0.37913 0.0
C1646 C 0.69733 0.84888 0.35365 0.0
C1647 C 0.71295 0.83103 0.32864 0.0
C1648 C 0.65718 0.76761 0.40701 0.0
C1649 C 0.69945 0.88968 0.35162 0.0
C1650 C 0.60281 0.87205 0.41714 0.0
C1651 C 0.61604 0.88438 0.4456 0.0
C1652 C 0.62299 0.85419 0.39528 0.0
C1653 C 0.65703 0.84737 0.40259 0.0
C1654 C 0.67051 0.85936 0.43157 0.0
C1655 C 0.64994 0.87839 0.45255 0.0
C1656 C 0.60794 0.84304 0.36412 0.0
C1657 C 0.7064 0.85166 0.44054 0.0
H1658 H 0.68922 0.74401 0.35371 0.0
H1659 H 0.72682 0.84687 0.30879 0.0
H1660 H 0.66418 0.77658 0.4311 0.0
H1661 H 0.62953 0.77102 0.4049 0.0
H1662 H 0.6622 0.73844 0.40644 0.0
H1663 H 0.71775 0.90128 0.33196 0.0
H1664 H 0.67404 0.90019 0.34668 0.0
H1665 H 0.70714 0.89945 0.37518 0.0
H1666 H 0.57666 0.87705 0.41163 0.0
H1667 H 0.66002 0.88776 0.47472 0.0
H1668 H 0.60811 0.81327 0.36351 0.0
H1669 H 0.62352 0.85504 0.34261 0.0
H1670 H 0.58142 0.85158 0.36161 0.0
H1671 H 0.71002 0.82212 0.44177 0.0
H1672 H 0.71267 0.86178 0.46443 0.0
H1673 H 0.72466 0.86438 0.42144 0.0
C1674 C 0.14999 0.67684 0.29989 0.0
C1675 C 0.18033 0.68972 0.31253 0.0
C1676 C 0.12667 0.65382 0.31925 0.0
C1677 C 0.13345 0.6437 0.35229 0.0
C1678 C 0.16346 0.65767 0.36549 0.0
C1679 C 0.18659 0.68019 0.34544 0.0
C1680 C 0.09534 0.63927 0.30397 0.0
C1681 C 0.17158 0.6481 0.40067 0.0
C1682 C 0.06443 0.6008 0.41314 0.0
C1683 C 0.07317 0.56447 0.41536 0.0
C1684 C 0.08306 0.62687 0.39199 0.0
C1685 C 0.11082 0.61626 0.37233 0.0
C1686 C 0.11836 0.57923 0.37321 0.0
C1687 C 0.09972 0.55399 0.39483 0.0
C1688 C 0.07421 0.666 0.39207 0.0
C1689 C 0.14714 0.56637 0.3523 0.0
H1690 H 0.14486 0.68392 0.27449 0.0
H1691 H 0.20977 0.69017 0.35556 0.0
H1692 H 0.09665 0.60958 0.30312 0.0
H1693 H 0.0723 0.64432 0.31903 0.0
H1694 H 0.0925 0.65154 0.27872 0.0
H1695 H 0.19439 0.66342 0.40798 0.0
H1696 H 0.14973 0.65362 0.41714 0.0
H1697 H 0.17613 0.61881 0.40436 0.0
H1698 H 0.04439 0.60923 0.42931 0.0
H1699 H 0.10661 0.52595 0.39636 0.0
H1700 H 0.07252 0.67826 0.3667 0.0
H1701 H 0.09461 0.68121 0.40364 0.0
H1702 H 0.0498 0.66938 0.40572 0.0
H1703 H 0.14479 0.57649 0.32637 0.0
H1704 H 0.14786 0.53643 0.35372 0.0
H1705 H 0.17169 0.57731 0.36038 0.0
C1706 C 0.36217 0.1845 0.2873 0.0
C1707 C 0.32815 0.18371 0.29857 0.0
C1708 C 0.38622 0.16479 0.30466 0.0
C1709 C 0.37617 0.1454 0.33473 0.0
C1710 C 0.34153 0.14377 0.34567 0.0
C1711 C 0.31777 0.16244 0.32703 0.0
C1712 C 0.42252 0.16584 0.29142 0.0
C1713 C 0.32989 0.12415 0.37803 0.0
C1714 C 0.42638 0.07624 0.38284 0.0
C1715 C 0.43988 0.09714 0.40657 0.0
C1716 C 0.40804 0.09219 0.35728 0.0
C1717 C 0.40198 0.12955 0.3564 0.0
C1718 C 0.41759 0.15111 0.37901 0.0
C1719 C 0.43694 0.13467 0.40349 0.0
C1720 C 0.3933 0.06864 0.33261 0.0
C1721 C 0.41125 0.19092 0.37937 0.0
H1722 H 0.37001 0.20091 0.26507 0.0
H1723 H 0.29145 0.16224 0.33576 0.0
H1724 H 0.43843 0.1835 0.30574 0.0
H1725 H 0.43292 0.13846 0.29378 0.0
H1726 H 0.42484 0.17645 0.26533 0.0
H1727 H 0.30203 0.12509 0.38273 0.0
H1728 H 0.33683 0.09548 0.37872 0.0
H1729 H 0.34288 0.13648 0.39819 0.0
H1730 H 0.42886 0.04719 0.38511 0.0
H1731 H 0.44713 0.15082 0.42198 0.0
H1732 H 0.39589 0.08249 0.30763 0.0
H1733 H 0.36584 0.06317 0.33854 0.0
H1734 H 0.40581 0.04235 0.33259 0.0
H1735 H 0.41662 0.20492 0.35477 0.0
H1736 H 0.42701 0.20424 0.39716 0.0
H1737 H 0.3841 0.1945 0.386 0.0
C1738 C 0.65329 0.81797 0.71761 0.0
C1739 C 0.6872 0.81937 0.70587 0.0
C1740 C 0.62835 0.83583 0.69991 0.0
C1741 C 0.6374 0.85417 0.66912 0.0
C1742 C 0.6719 0.85659 0.6577 0.0
C1743 C 0.69655 0.83963 0.67657 0.0
C1744 C 0.59218 0.83387 0.71357 0.0
C1745 C 0.6825 0.87526 0.62467 0.0
C1746 C 0.5743 0.86051 0.6019 0.0
C1747 C 0.56966 0.89776 0.59845 0.0
C1748 C 0.59516 0.8456 0.62591 0.0
C1749 C 0.61072 0.8684 0.64758 0.0
C1750 C 0.60322 0.90542 0.64627 0.0
C1751 C 0.58325 0.91982 0.62128 0.0
C1752 C 0.60292 0.80608 0.62612 0.0
C1753 C 0.61804 0.93027 0.66987 0.0
H1754 H 0.6462 0.80233 0.74045 0.0
H1755 H 0.72276 0.8403 0.66744 0.0
H1756 H 0.58104 0.86088 0.71097 0.0
H1757 H 0.57656 0.81548 0.69968 0.0
H1758 H 0.59038 0.8237 0.73979 0.0
H1759 H 0.71039 0.8754 0.61971 0.0
H1760 H 0.6698 0.86139 0.60519 0.0
H1761 H 0.6744 0.90357 0.62304 0.0
H1762 H 0.56413 0.8435 0.58402 0.0
H1763 H 0.57957 0.94867 0.61864 0.0
H1764 H 0.59875 0.79256 0.65107 0.0
H1765 H 0.63005 0.80348 0.61879 0.0
H1766 H 0.58709 0.79161 0.60912 0.0
H1767 H 0.61617 0.91728 0.69519 0.0
H1768 H 0.60507 0.95633 0.66938 0.0
H1769 H 0.64534 0.93611 0.66332 0.0
C1770 C 0.65397 0.16058 0.29812 0.0
C1771 C 0.66976 0.19117 0.31 0.0
C1772 C 0.63077 0.1378 0.3179 0.0
C1773 C 0.62328 0.14523 0.35073 0.0
C1774 C 0.63778 0.17713 0.36231 0.0
C1775 C 0.66066 0.19968 0.34185 0.0
C1776 C 0.61575 0.10454 0.30415 0.0
C1777 C 0.63128 0.18629 0.3971 0.0
C1778 C 0.55432 0.0887 0.40364 0.0
C1779 C 0.57376 0.06229 0.4196 0.0
C1780 C 0.56975 0.11576 0.38087 0.0
C1781 C 0.60546 0.11674 0.37417 0.0
C1782 C 0.62493 0.08999 0.39005 0.0
C1783 C 0.60898 0.06323 0.41201 0.0
C1784 C 0.54796 0.14365 0.36442 0.0
C1785 C 0.66304 0.08991 0.38438 0.0
H1786 H 0.66035 0.15385 0.27345 0.0
H1787 H 0.67253 0.22321 0.3514 0.0
H1788 H 0.6277 0.08021 0.31524 0.0
H1789 H 0.58811 0.10156 0.31033 0.0
H1790 H 0.61982 0.10533 0.27716 0.0
H1791 H 0.63574 0.21563 0.39959 0.0
H1792 H 0.60501 0.17827 0.40614 0.0
H1793 H 0.64901 0.17141 0.41301 0.0
H1794 H 0.52726 0.08859 0.40923 0.0
H1795 H 0.6247 0.0433 0.42391 0.0
H1796 H 0.55174 0.14404 0.33746 0.0
H1797 H 0.55573 0.17088 0.37148 0.0
H1798 H 0.52054 0.13848 0.37107 0.0
H1799 H 0.66952 0.08768 0.35809 0.0
H1800 H 0.6746 0.06733 0.39878 0.0
H1801 H 0.67476 0.11572 0.39118 0.0
C1802 C 0.8199 0.67954 0.32866 0.0
C1803 C 0.82913 0.70099 0.29991 0.0
C1804 C 0.84463 0.66328 0.34791 0.0
C1805 C 0.87934 0.66737 0.33742 0.0
C1806 C 0.88868 0.68824 0.30786 0.0
C1807 C 0.86349 0.70545 0.28979 0.0
C1808 C 0.8336 0.64219 0.37976 0.0
C1809 C 0.92516 0.69198 0.29514 0.0
C1810 C 0.94096 0.65071 0.40522 0.0
C1811 C 0.94445 0.61333 0.40522 0.0
C1812 C 0.92117 0.66921 0.38216 0.0
C1813 C 0.90558 0.65001 0.35786 0.0
C1814 C 0.91198 0.61296 0.35583 0.0
C1815 C 0.93076 0.59488 0.37997 0.0
C1816 C 0.91428 0.70842 0.38587 0.0
C1817 C 0.89701 0.59175 0.3296 0.0
H1818 H 0.79333 0.67632 0.33657 0.0
H1819 H 0.87056 0.7218 0.26733 0.0
H1820 H 0.84009 0.6135 0.37884 0.0
H1821 H 0.84732 0.653 0.40021 0.0
H1822 H 0.80587 0.64326 0.38524 0.0
H1823 H 0.92804 0.70792 0.27107 0.0
H1824 H 0.94098 0.70533 0.31279 0.0
H1825 H 0.9353 0.66483 0.29259 0.0
H1826 H 0.95101 0.66489 0.42507 0.0
H1827 H 0.93335 0.56592 0.38002 0.0
H1828 H 0.88753 0.71064 0.39466 0.0
H1829 H 0.91763 0.72458 0.36202 0.0
H1830 H 0.93112 0.72041 0.40357 0.0
H1831 H 0.86962 0.58571 0.33556 0.0
H1832 H 0.90961 0.56573 0.3275 0.0
H1833 H 0.89924 0.60764 0.30552 0.0
C1834 C 0.36908 0.79435 0.40308 0.0
C1835 C 0.33563 0.79168 0.39355 0.0
C1836 C 0.37908 0.8206 0.42376 0.0
C1837 C 0.35489 0.84481 0.43474 0.0
C1838 C 0.32034 0.83984 0.42766 0.0
C1839 C 0.31109 0.81329 0.40683 0.0
C1840 C 0.41616 0.82445 0.43133 0.0
C1841 C 0.29367 0.86432 0.43961 0.0
C1842 C 0.39933 0.89871 0.49406 0.0
C1843 C 0.41616 0.92486 0.47215 0.0
C1844 C 0.37455 0.87507 0.48325 0.0
C1845 C 0.36729 0.87754 0.44976 0.0
C1846 C 0.38018 0.90767 0.42899 0.0
C1847 C 0.40462 0.93129 0.44059 0.0
C1848 C 0.36011 0.84453 0.50662 0.0
C1849 C 0.37217 0.91189 0.39328 0.0
H1850 H 0.38792 0.77784 0.39225 0.0
H1851 H 0.28526 0.81143 0.3988 0.0
H1852 H 0.42725 0.85025 0.4193 0.0
H1853 H 0.41896 0.82518 0.45804 0.0
H1854 H 0.43106 0.80197 0.42273 0.0
H1855 H 0.26791 0.8511 0.44007 0.0
H1856 H 0.29883 0.87243 0.46444 0.0
H1857 H 0.29375 0.88923 0.42285 0.0
H1858 H 0.40804 0.89428 0.51875 0.0
H1859 H 0.41762 0.95176 0.42382 0.0
H1860 H 0.37704 0.82137 0.50619 0.0
H1861 H 0.33447 0.83526 0.49986 0.0
H1862 H 0.3586 0.85293 0.53197 0.0
H1863 H 0.38663 0.89222 0.37985 0.0
H1864 H 0.37919 0.9395 0.38212 0.0
H1865 H 0.34479 0.90616 0.39003 0.0
C1866 C 0.19919 0.26946 0.3635 0.0
C1867 C 0.22209 0.29092 0.34266 0.0
C1868 C 0.1792 0.28495 0.38731 0.0
C1869 C 0.18151 0.32281 0.38937 0.0
C1870 C 0.20594 0.34422 0.3696 0.0
C1871 C 0.22632 0.32787 0.34683 0.0
C1872 C 0.15427 0.26113 0.40887 0.0
C1873 C 0.20863 0.38481 0.37046 0.0
C1874 C 0.1016 0.36975 0.41216 0.0
C1875 C 0.10904 0.38082 0.44295 0.0
C1876 C 0.12492 0.35041 0.39464 0.0
C1877 C 0.15575 0.3408 0.40892 0.0
C1878 C 0.16272 0.35066 0.44067 0.0
C1879 C 0.13948 0.3713 0.4571 0.0
C1880 C 0.11703 0.34136 0.36041 0.0
C1881 C 0.19474 0.33969 0.45707 0.0
H1882 H 0.19611 0.2408 0.3605 0.0
H1883 H 0.24392 0.34461 0.33068 0.0
H1884 H 0.15457 0.26863 0.4345 0.0
H1885 H 0.12823 0.26488 0.40032 0.0
H1886 H 0.15987 0.23209 0.40842 0.0
H1887 H 0.23067 0.39712 0.35534 0.0
H1888 H 0.18514 0.39668 0.36113 0.0
H1889 H 0.21099 0.39234 0.39589 0.0
H1890 H 0.07799 0.3773 0.40135 0.0
H1891 H 0.14483 0.37955 0.4812 0.0
H1892 H 0.1171 0.31173 0.35873 0.0
H1893 H 0.13693 0.35379 0.34273 0.0
H1894 H 0.09199 0.35105 0.35289 0.0
H1895 H 0.19794 0.31024 0.4561 0.0
H1896 H 0.19462 0.34624 0.48302 0.0
H1897 H 0.21712 0.35376 0.44389 0.0
C1898 C 0.3116 0.22712 0.63976 0.0
C1899 C 0.29115 0.20918 0.6651 0.0
C1900 C 0.32717 0.20781 0.61556 0.0
C1901 C 0.32285 0.16966 0.6173 0.0
C1902 C 0.30094 0.15165 0.64195 0.0
C1903 C 0.28511 0.17167 0.66533 0.0
C1904 C 0.34952 0.22808 0.58902 0.0
C1905 C 0.29605 0.111 0.64515 0.0
C1906 C 0.35475 0.11625 0.54741 0.0
C1907 C 0.38758 0.10887 0.55709 0.0
C1908 C 0.33329 0.13647 0.56652 0.0
C1909 C 0.34474 0.14834 0.59635 0.0
C1910 C 0.37754 0.1398 0.60657 0.0
C1911 C 0.39871 0.12072 0.58655 0.0
C1912 C 0.29881 0.14587 0.55449 0.0
C1913 C 0.39035 0.15082 0.6387 0.0
H1914 H 0.31596 0.25614 0.63918 0.0
H1915 H 0.2692 0.15755 0.68475 0.0
H1916 H 0.37653 0.22299 0.59351 0.0
H1917 H 0.34399 0.21843 0.5648 0.0
H1918 H 0.34613 0.25768 0.58807 0.0
H1919 H 0.27504 0.10163 0.66298 0.0
H1920 H 0.29065 0.10066 0.6212 0.0
H1921 H 0.31981 0.09885 0.65348 0.0
H1922 H 0.34632 0.10726 0.52446 0.0
H1923 H 0.42404 0.11465 0.59414 0.0
H1924 H 0.29719 0.17567 0.55108 0.0
H1925 H 0.27864 0.13588 0.57292 0.0
H1926 H 0.29358 0.1343 0.53097 0.0
H1927 H 0.39201 0.1807 0.63847 0.0
H1928 H 0.41577 0.14036 0.6438 0.0
H1929 H 0.37232 0.14067 0.65908 0.0
C1930 C 0.81327 0.32518 0.64685 0.0
C1931 C 0.81993 0.31489 0.67953 0.0
C1932 C 0.83659 0.34737 0.62675 0.0
C1933 C 0.86725 0.36008 0.63963 0.0
C1934 C 0.87444 0.34914 0.67239 0.0
C1935 C 0.85084 0.32659 0.69184 0.0
C1936 C 0.82799 0.35798 0.59188 0.0
C1937 C 0.90654 0.36228 0.68728 0.0
C1938 C 0.93593 0.40188 0.57802 0.0
C1939 C 0.92818 0.43847 0.5766 0.0
C1940 C 0.91711 0.37603 0.59919 0.0
C1941 C 0.89021 0.38715 0.61964 0.0
C1942 C 0.88379 0.4244 0.61958 0.0
C1943 C 0.90258 0.44943 0.59794 0.0
C1944 C 0.92473 0.33664 0.59825 0.0
C1945 C 0.85594 0.43775 0.64132 0.0
H1946 H 0.78963 0.31613 0.63698 0.0
H1947 H 0.85631 0.31886 0.71705 0.0
H1948 H 0.82432 0.38749 0.58876 0.0
H1949 H 0.84925 0.35205 0.57487 0.0
H1950 H 0.80454 0.34365 0.58476 0.0
H1951 H 0.90956 0.3494 0.71229 0.0
H1952 H 0.92904 0.35671 0.67168 0.0
H1953 H 0.90621 0.39197 0.68861 0.0
H1954 H 0.9552 0.39316 0.56116 0.0
H1955 H 0.89647 0.4777 0.59693 0.0
H1956 H 0.90367 0.32242 0.58672 0.0
H1957 H 0.92652 0.32372 0.62338 0.0
H1958 H 0.94875 0.33276 0.58412 0.0
H1959 H 0.83089 0.42786 0.63353 0.0
H1960 H 0.85613 0.46771 0.64045 0.0
H1961 H 0.85856 0.42696 0.66703 0.0
C1962 C 0.19559 0.57718 0.6517 0.0
C1963 C 0.22019 0.60392 0.64055 0.0
C1964 C 0.17487 0.56099 0.62969 0.0
C1965 C 0.17949 0.57162 0.59591 0.0
C1966 C 0.20831 0.59344 0.58437 0.0
C1967 C 0.22831 0.60987 0.60701 0.0
C1968 C 0.14512 0.53678 0.64296 0.0
C1969 C 0.21542 0.60301 0.54832 0.0
C1970 C 0.11218 0.53186 0.54424 0.0
C1971 C 0.0887 0.55938 0.5428 0.0
C1972 C 0.14313 0.53616 0.55943 0.0
C1973 C 0.1501 0.56819 0.57479 0.0
C1974 C 0.12685 0.59642 0.57283 0.0
C1975 C 0.09677 0.59185 0.55644 0.0
C1976 C 0.16741 0.50569 0.5599 0.0
C1977 C 0.13286 0.63088 0.58945 0.0
H1978 H 0.18994 0.57214 0.67778 0.0
H1979 H 0.24773 0.63019 0.59841 0.0
H1980 H 0.12132 0.55156 0.64027 0.0
H1981 H 0.14289 0.51252 0.629 0.0
H1982 H 0.14741 0.52789 0.66924 0.0
H1983 H 0.24231 0.61227 0.54307 0.0
H1984 H 0.20961 0.57947 0.53412 0.0
H1985 H 0.19901 0.62516 0.53983 0.0
H1986 H 0.10649 0.50666 0.53393 0.0
H1987 H 0.07884 0.61327 0.55561 0.0
H1988 H 0.15951 0.48517 0.58013 0.0
H1989 H 0.19395 0.51505 0.5634 0.0
H1990 H 0.16664 0.49209 0.53677 0.0
H1991 H 0.13528 0.6245 0.61611 0.0
H1992 H 0.11199 0.64988 0.58591 0.0
H1993 H 0.1569 0.64484 0.57973 0.0
loop_
_geom_bond_atom_site_label_1
_geom_bond_atom_site_label_2
_geom_bond_distance
_geom_bond_site_symmetry_2
_ccdc_geom_bond_type
C0 O16 1.251 . S
C0 O18 1.254 . S
N1 C2 1.333 . S
N1 C6 1.307 . S
N1 Zn7 2.020 . S
C2 N1 1.333 . S
C2 C3 1.379 . S
C2 H20 0.952 . S
C3 C2 1.379 . S
C3 C4 1.390 . S
C3 H30 0.949 . S
C4 C3 1.390 . S
C4 C5 1.357 . S
C5 C4 1.357 . S
C5 C6 1.370 . S
C5 H31 0.950 . S
C6 N1 1.307 . S
C6 C5 1.370 . S
C6 H24 0.948 . S
Zn7 N1 2.020 . S
Zn7 O16 2.039 . S
Zn7 O22 2.034 . S
Zn7 O26 2.025 . S
Zn7 O28 2.024 . S
C8 O27 1.246 . S
C8 O28 1.249 . S
N9 C10 1.307 . S
N9 C11 1.333 . S
N9 Zn15 2.020 . S
C10 N9 1.307 . S
C10 C14 1.370 . S
C10 H21 0.948 . S
C11 N9 1.333 . S
C11 C12 1.379 . S
C11 H19 0.952 . S
C12 C11 1.379 . S
C12 C13 1.390 . S
C12 H32 0.949 . S
C13 C12 1.390 . S
C13 C14 1.357 . S
C14 C10 1.370 . S
C14 C13 1.357 . S
C14 H33 0.950 . S
Zn15 N9 2.020 . S
Zn15 O18 2.025 . S
Zn15 O23 2.024 . S
Zn15 O25 2.039 . S
Zn15 O27 2.034 . S
O16 C0 1.251 . S
O16 Zn7 2.039 . S
C17 O22 1.246 . S
C17 O23 1.249 . S
O18 C0 1.254 . S
O18 Zn15 2.025 . S
H19 C11 0.952 . S
H20 C2 0.952 . S
H21 C10 0.948 . S
O22 Zn7 2.034 . S
O22 C17 1.246 . S
O23 Zn15 2.024 . S
O23 C17 1.249 . S
H24 C6 0.948 . S
O25 Zn15 2.039 . S
O25 C29 1.251 . S
O26 Zn7 2.025 . S
O26 C29 1.254 . S
O27 C8 1.246 . S
O27 Zn15 2.034 . S
O28 Zn7 2.024 . S
O28 C8 1.249 . S
C29 O25 1.251 . S
C29 O26 1.254 . S
H30 C3 0.949 . S
H31 C5 0.950 . S
H32 C12 0.949 . S
H33 C14 0.950 . S
C34 O50 1.251 . S
C34 O52 1.254 . S
N35 C36 1.333 . S
N35 C40 1.307 . S
N35 Zn41 2.020 . S
C36 N35 1.333 . S
C36 C37 1.379 . S
C36 H54 0.952 . S
C37 C36 1.379 . S
C37 C38 1.390 . S
C37 H64 0.949 . S
C38 C37 1.390 . S
C38 C39 1.357 . S
C39 C38 1.357 . S
C39 C40 1.370 . S
C39 H65 0.950 . S
C40 N35 1.307 . S
C40 C39 1.370 . S
C40 H58 0.948 . S
Zn41 N35 2.020 . S
Zn41 O50 2.039 . S
Zn41 O56 2.034 . S
Zn41 O60 2.025 . S
Zn41 O62 2.024 . S
C42 O61 1.246 . S
C42 O62 1.249 . S
N43 C44 1.307 . S
N43 C45 1.333 . S
N43 Zn49 2.020 . S
C44 N43 1.307 . S
C44 C48 1.370 . S
C44 H55 0.948 . S
C45 N43 1.333 . S
C45 C46 1.379 . S
C45 H53 0.952 . S
C46 C45 1.379 . S
C46 C47 1.390 . S
C46 H66 0.949 . S
C47 C46 1.390 . S
C47 C48 1.357 . S
C48 C44 1.370 . S
C48 C47 1.357 . S
C48 H67 0.950 . S
Zn49 N43 2.020 . S
Zn49 O52 2.025 . S
Zn49 O57 2.024 . S
Zn49 O59 2.039 . S
Zn49 O61 2.034 . S
O50 C34 1.251 . S
O50 Zn41 2.039 . S
C51 O56 1.246 . S
C51 O57 1.249 . S
O52 C34 1.254 . S
O52 Zn49 2.025 . S
H53 C45 0.952 . S
H54 C36 0.952 . S
H55 C44 0.948 . S
O56 Zn41 2.034 . S
O56 C51 1.246 . S
O57 Zn49 2.024 . S
O57 C51 1.249 . S
H58 C40 0.948 . S
O59 Zn49 2.039 . S
O59 C63 1.251 . S
O60 Zn41 2.025 . S
O60 C63 1.254 . S
O61 C42 1.246 . S
O61 Zn49 2.034 . S
O62 Zn41 2.024 . S
O62 C42 1.249 . S
C63 O59 1.251 . S
C63 O60 1.254 . S
H64 C37 0.949 . S
H65 C39 0.950 . S
H66 C46 0.949 . S
H67 C48 0.950 . S
C68 O84 1.251 . S
C68 O86 1.254 . S
N69 C70 1.333 . S
N69 C74 1.307 . S
N69 Zn75 2.020 . S
C70 N69 1.333 . S
C70 C71 1.379 . S
C70 H88 0.952 . S
C71 C70 1.379 . S
C71 C72 1.390 . S
C71 H98 0.949 . S
C72 C71 1.390 . S
C72 C73 1.357 . S
C73 C72 1.357 . S
C73 C74 1.370 . S
C73 H99 0.950 . S
C74 N69 1.307 . S
C74 C73 1.370 . S
C74 H92 0.948 . S
Zn75 N69 2.020 . S
Zn75 O84 2.039 . S
Zn75 O90 2.034 . S
Zn75 O94 2.025 . S
Zn75 O96 2.024 . S
C76 O95 1.246 . S
C76 O96 1.249 . S
N77 C78 1.307 . S
N77 C79 1.333 . S
N77 Zn83 2.020 . S
C78 N77 1.307 . S
C78 C82 1.370 . S
C78 H89 0.948 . S
C79 N77 1.333 . S
C79 C80 1.379 . S
C79 H87 0.952 . S
C80 C79 1.379 . S
C80 C81 1.390 . S
C80 H100 0.949 . S
C81 C80 1.390 . S
C81 C82 1.357 . S
C82 C78 1.370 . S
C82 C81 1.357 . S
C82 H101 0.950 . S
Zn83 N77 2.020 . S
Zn83 O86 2.025 . S
Zn83 O91 2.024 . S
Zn83 O93 2.039 . S
Zn83 O95 2.034 . S
O84 C68 1.251 . S
O84 Zn75 2.039 . S
C85 O90 1.246 . S
C85 O91 1.249 . S
O86 C68 1.254 . S
O86 Zn83 2.025 . S
H87 C79 0.952 . S
H88 C70 0.952 . S
H89 C78 0.948 . S
O90 Zn75 2.034 . S
O90 C85 1.246 . S
O91 Zn83 2.024 . S
O91 C85 1.249 . S
H92 C74 0.948 . S
O93 Zn83 2.039 . S
O93 C97 1.251 . S
O94 Zn75 2.025 . S
O94 C97 1.254 . S
O95 C76 1.246 . S
O95 Zn83 2.034 . S
O96 Zn75 2.024 . S
O96 C76 1.249 . S
C97 O93 1.251 . S
C97 O94 1.254 . S
H98 C71 0.949 . S
H99 C73 0.950 . S
H100 C80 0.949 . S
H101 C82 0.950 . S
C102 O118 1.251 . S
C102 O120 1.254 . S
N103 C104 1.333 . S
N103 C108 1.307 . S
N103 Zn109 2.020 . S
C104 N103 1.333 . S
C104 C105 1.379 . S
C104 H122 0.952 . S
C105 C104 1.379 . S
C105 C106 1.390 . S
C105 H132 0.949 . S
C106 C105 1.390 . S
C106 C107 1.357 . S
C107 C106 1.357 . S
C107 C108 1.370 . S
C107 H133 0.950 . S
C108 N103 1.307 . S
C108 C107 1.370 . S
C108 H126 0.948 . S
Zn109 N103 2.020 . S
Zn109 O118 2.039 . S
Zn109 O124 2.034 . S
Zn109 O128 2.025 . S
Zn109 O130 2.024 . S
C110 O129 1.246 . S
C110 O130 1.249 . S
N111 C112 1.307 . S
N111 C113 1.333 . S
N111 Zn117 2.020 . S
C112 N111 1.307 . S
C112 C116 1.370 . S
C112 H123 0.948 . S
C113 N111 1.333 . S
C113 C114 1.379 . S
C113 H121 0.952 . S
C114 C113 1.379 . S
C114 C115 1.390 . S
C114 H134 0.949 . S
C115 C114 1.390 . S
C115 C116 1.357 . S
C116 C112 1.370 . S
C116 C115 1.357 . S
C116 H135 0.950 . S
Zn117 N111 2.020 . S
Zn117 O120 2.025 . S
Zn117 O125 2.024 . S
Zn117 O127 2.039 . S
Zn117 O129 2.034 . S
O118 C102 1.251 . S
O118 Zn109 2.039 . S
C119 O124 1.246 . S
C119 O125 1.249 . S
O120 C102 1.254 . S
O120 Zn117 2.025 . S
H121 C113 0.952 . S
H122 C104 0.952 . S
H123 C112 0.948 . S
O124 Zn109 2.034 . S
O124 C119 1.246 . S
O125 Zn117 2.024 . S
O125 C119 1.249 . S
H126 C108 0.948 . S
O127 Zn117 2.039 . S
O127 C131 1.251 . S
O128 Zn109 2.025 . S
O128 C131 1.254 . S
O129 C110 1.246 . S
O129 Zn117 2.034 . S
O130 Zn109 2.024 . S
O130 C110 1.249 . S
C131 O127 1.251 . S
C131 O128 1.254 . S
H132 C105 0.949 . S
H133 C107 0.950 . S
H134 C114 0.949 . S
H135 C116 0.950 . S
C136 O152 1.251 . S
C136 O154 1.254 . S
N137 C138 1.333 . S
N137 C142 1.307 . S
N137 Zn143 2.020 . S
C138 N137 1.333 . S
C138 C139 1.379 . S
C138 H156 0.952 . S
C139 C138 1.379 . S
C139 C140 1.390 . S
C139 H166 0.949 . S
C140 C139 1.390 . S
C140 C141 1.357 . S
C141 C140 1.357 . S
C141 C142 1.370 . S
C141 H167 0.950 . S
C142 N137 1.307 . S
C142 C141 1.370 . S
C142 H160 0.948 . S
Zn143 N137 2.020 . S
Zn143 O152 2.039 . S
Zn143 O158 2.034 . S
Zn143 O162 2.025 . S
Zn143 O164 2.024 . S
C144 O163 1.246 . S
C144 O164 1.249 . S
N145 C146 1.307 . S
N145 C147 1.333 . S
N145 Zn151 2.020 . S
C146 N145 1.307 . S
C146 C150 1.370 . S
C146 H157 0.948 . S
C147 N145 1.333 . S
C147 C148 1.379 . S
C147 H155 0.952 . S
C148 C147 1.379 . S
C148 C149 1.390 . S
C148 H168 0.949 . S
C149 C148 1.390 . S
C149 C150 1.357 . S
C150 C146 1.370 . S
C150 C149 1.357 . S
C150 H169 0.950 . S
Zn151 N145 2.020 . S
Zn151 O154 2.025 . S
Zn151 O159 2.024 . S
Zn151 O161 2.039 . S
Zn151 O163 2.034 . S
O152 C136 1.251 . S
O152 Zn143 2.039 . S
C153 O158 1.246 . S
C153 O159 1.249 . S
O154 C136 1.254 . S
O154 Zn151 2.025 . S
H155 C147 0.952 . S
H156 C138 0.952 . S
H157 C146 0.948 . S
O158 Zn143 2.034 . S
O158 C153 1.246 . S
O159 Zn151 2.024 . S
O159 C153 1.249 . S
H160 C142 0.948 . S
O161 Zn151 2.039 . S
O161 C165 1.251 . S
O162 Zn143 2.025 . S
O162 C165 1.254 . S
O163 C144 1.246 . S
O163 Zn151 2.034 . S
O164 Zn143 2.024 . S
O164 C144 1.249 . S
C165 O161 1.251 . S
C165 O162 1.254 . S
H166 C139 0.949 . S
H167 C141 0.950 . S
H168 C148 0.949 . S
H169 C150 0.950 . S
C170 O186 1.251 . S
C170 O188 1.254 . S
N171 C172 1.333 . S
N171 C176 1.307 . S
N171 Zn177 2.020 . S
C172 N171 1.333 . S
C172 C173 1.379 . S
C172 H190 0.952 . S
C173 C172 1.379 . S
C173 C174 1.390 . S
C173 H200 0.949 . S
C174 C173 1.390 . S
C174 C175 1.357 . S
C175 C174 1.357 . S
C175 C176 1.370 . S
C175 H201 0.950 . S
C176 N171 1.307 . S
C176 C175 1.370 . S
C176 H194 0.948 . S
Zn177 N171 2.020 . S
Zn177 O186 2.039 . S
Zn177 O192 2.034 . S
Zn177 O196 2.025 . S
Zn177 O198 2.024 . S
C178 O197 1.246 . S
C178 O198 1.249 . S
N179 C180 1.307 . S
N179 C181 1.333 . S
N179 Zn185 2.020 . S
C180 N179 1.307 . S
C180 C184 1.370 . S
C180 H191 0.948 . S
C181 N179 1.333 . S
C181 C182 1.379 . S
C181 H189 0.952 . S
C182 C181 1.379 . S
C182 C183 1.390 . S
C182 H202 0.949 . S
C183 C182 1.390 . S
C183 C184 1.357 . S
C184 C180 1.370 . S
C184 C183 1.357 . S
C184 H203 0.950 . S
Zn185 N179 2.020 . S
Zn185 O188 2.025 . S
Zn185 O193 2.024 . S
Zn185 O195 2.039 . S
Zn185 O197 2.034 . S
O186 C170 1.251 . S
O186 Zn177 2.039 . S
C187 O192 1.246 . S
C187 O193 1.249 . S
O188 C170 1.254 . S
O188 Zn185 2.025 . S
H189 C181 0.952 . S
H190 C172 0.952 . S
H191 C180 0.948 . S
O192 Zn177 2.034 . S
O192 C187 1.246 . S
O193 Zn185 2.024 . S
O193 C187 1.249 . S
H194 C176 0.948 . S
O195 Zn185 2.039 . S
O195 C199 1.251 . S
O196 Zn177 2.025 . S
O196 C199 1.254 . S
O197 C178 1.246 . S
O197 Zn185 2.034 . S
O198 Zn177 2.024 . S
O198 C178 1.249 . S
C199 O195 1.251 . S
C199 O196 1.254 . S
H200 C173 0.949 . S
H201 C175 0.950 . S
H202 C182 0.949 . S
H203 C184 0.950 . S
C204 O220 1.251 . S
C204 O222 1.254 . S
N205 C206 1.333 . S
N205 C210 1.307 . S
N205 Zn211 2.020 . S
C206 N205 1.333 . S
C206 C207 1.379 . S
C206 H224 0.952 . S
C207 C206 1.379 . S
C207 C208 1.390 . S
C207 H234 0.949 . S
C208 C207 1.390 . S
C208 C209 1.357 . S
C209 C208 1.357 . S
C209 C210 1.370 . S
C209 H235 0.950 . S
C210 N205 1.307 . S
C210 C209 1.370 . S
C210 H228 0.948 . S
Zn211 N205 2.020 . S
Zn211 O220 2.039 . S
Zn211 O226 2.034 . S
Zn211 O230 2.025 . S
Zn211 O232 2.024 . S
C212 O231 1.246 . S
C212 O232 1.249 . S
N213 C214 1.307 . S
N213 C215 1.333 . S
N213 Zn219 2.020 . S
C214 N213 1.307 . S
C214 C218 1.370 . S
C214 H225 0.948 . S
C215 N213 1.333 . S
C215 C216 1.379 . S
C215 H223 0.952 . S
C216 C215 1.379 . S
C216 C217 1.390 . S
C216 H236 0.949 . S
C217 C216 1.390 . S
C217 C218 1.357 . S
C218 C214 1.370 . S
C218 C217 1.357 . S
C218 H237 0.950 . S
Zn219 N213 2.020 . S
Zn219 O222 2.025 . S
Zn219 O227 2.024 . S
Zn219 O229 2.039 . S
Zn219 O231 2.034 . S
O220 C204 1.251 . S
O220 Zn211 2.039 . S
C221 O226 1.246 . S
C221 O227 1.249 . S
O222 C204 1.254 . S
O222 Zn219 2.025 . S
H223 C215 0.952 . S
H224 C206 0.952 . S
H225 C214 0.948 . S
O226 Zn211 2.034 . S
O226 C221 1.246 . S
O227 Zn219 2.024 . S
O227 C221 1.249 . S
H228 C210 0.948 . S
O229 Zn219 2.039 . S
O229 C233 1.251 . S
O230 Zn211 2.025 . S
O230 C233 1.254 . S
O231 C212 1.246 . S
O231 Zn219 2.034 . S
O232 Zn211 2.024 . S
O232 C212 1.249 . S
C233 O229 1.251 . S
C233 O230 1.254 . S
H234 C207 0.949 . S
H235 C209 0.950 . S
H236 C216 0.949 . S
H237 C218 0.950 . S
C238 O254 1.251 . S
C238 O256 1.254 . S
N239 C240 1.333 . S
N239 C244 1.307 . S
N239 Zn245 2.020 . S
C240 N239 1.333 . S
C240 C241 1.379 . S
C240 H258 0.952 . S
C241 C240 1.379 . S
C241 C242 1.390 . S
C241 H268 0.949 . S
C242 C241 1.390 . S
C242 C243 1.357 . S
C243 C242 1.357 . S
C243 C244 1.370 . S
C243 H269 0.950 . S
C244 N239 1.307 . S
C244 C243 1.370 . S
C244 H262 0.948 . S
Zn245 N239 2.020 . S
Zn245 O254 2.039 . S
Zn245 O260 2.034 . S
Zn245 O264 2.025 . S
Zn245 O266 2.024 . S
C246 O265 1.246 . S
C246 O266 1.249 . S
N247 C248 1.307 . S
N247 C249 1.333 . S
N247 Zn253 2.020 . S
C248 N247 1.307 . S
C248 C252 1.370 . S
C248 H259 0.948 . S
C249 N247 1.333 . S
C249 C250 1.379 . S
C249 H257 0.952 . S
C250 C249 1.379 . S
C250 C251 1.390 . S
C250 H270 0.949 . S
C251 C250 1.390 . S
C251 C252 1.357 . S
C252 C248 1.370 . S
C252 C251 1.357 . S
C252 H271 0.950 . S
Zn253 N247 2.020 . S
Zn253 O256 2.025 . S
Zn253 O261 2.024 . S
Zn253 O263 2.039 . S
Zn253 O265 2.034 . S
O254 C238 1.251 . S
O254 Zn245 2.039 . S
C255 O260 1.246 . S
C255 O261 1.249 . S
O256 C238 1.254 . S
O256 Zn253 2.025 . S
H257 C249 0.952 . S
H258 C240 0.952 . S
H259 C248 0.948 . S
O260 Zn245 2.034 . S
O260 C255 1.246 . S
O261 Zn253 2.024 . S
O261 C255 1.249 . S
H262 C244 0.948 . S
O263 Zn253 2.039 . S
O263 C267 1.251 . S
O264 Zn245 2.025 . S
O264 C267 1.254 . S
O265 C246 1.246 . S
O265 Zn253 2.034 . S
O266 Zn245 2.024 . S
O266 C246 1.249 . S
C267 O263 1.251 . S
C267 O264 1.254 . S
H268 C241 0.949 . S
H269 C243 0.950 . S
H270 C250 0.949 . S
H271 C252 0.950 . S
C272 O284 1.241 . S
C272 O285 1.280 . S
C273 O286 1.277 . S
C273 O287 1.245 . S
C274 O298 1.247 . S
C274 O300 1.289 . S
Mg275 O276 1.926 . S
Mg275 O285 1.984 . S
Mg275 O287 1.988 . S
Mg275 O288 2.061 1_655 S
O276 Mg275 1.926 . S
O276 Mg277 1.986 . S
O276 Mg278 1.917 1_655 S
Mg277 O276 1.986 . S
Mg277 O284 2.042 . S
Mg277 O286 2.041 . S
Mg277 O292 2.038 1_545 S
Mg277 O300 2.238 1_545 S
Mg278 O276 1.917 1_455 S
Mg278 O279 1.917 1_545 S
Mg278 O289 2.106 . S
Mg278 O291 2.079 1_445 S
Mg278 O300 2.106 1_445 S
Mg278 O301 2.079 . S
O279 Mg278 1.917 1_565 S
O279 Mg280 1.926 . S
O279 Mg281 1.986 . S
Mg280 O279 1.926 . S
Mg280 O294 1.984 . S
Mg280 O297 1.988 . S
Mg280 O298 2.061 1_455 S
Mg281 O279 1.986 . S
Mg281 O289 2.238 1_565 S
Mg281 O293 2.042 . S
Mg281 O295 2.041 . S
Mg281 O302 2.038 1_565 S
C282 O288 1.247 . S
C282 O289 1.289 . S
C283 O301 1.245 . S
C283 O302 1.274 . S
O284 C272 1.241 . S
O284 Mg277 2.042 . S
O285 C272 1.280 . S
O285 Mg275 1.984 . S
O286 C273 1.277 . S
O286 Mg277 2.041 . S
O287 C273 1.245 . S
O287 Mg275 1.988 . S
O288 Mg275 2.061 1_455 S
O288 C282 1.247 . S
O289 Mg278 2.106 . S
O289 Mg281 2.238 1_545 S
O289 C282 1.289 . S
C290 O291 1.245 . S
C290 O292 1.274 . S
O291 Mg278 2.079 1_665 S
O291 C290 1.245 . S
O292 Mg277 2.038 1_565 S
O292 C290 1.274 . S
O293 Mg281 2.042 . S
O293 C296 1.241 . S
O294 Mg280 1.984 . S
O294 C296 1.280 . S
O295 Mg281 2.041 . S
O295 C299 1.277 . S
C296 O293 1.241 . S
C296 O294 1.280 . S
O297 Mg280 1.988 . S
O297 C299 1.245 . S
O298 C274 1.247 . S
O298 Mg280 2.061 1_655 S
C299 O295 1.277 . S
C299 O297 1.245 . S
O300 C274 1.289 . S
O300 Mg277 2.238 1_565 S
O300 Mg278 2.106 1_665 S
O301 Mg278 2.079 . S
O301 C283 1.245 . S
O302 Mg281 2.038 1_545 S
O302 C283 1.274 . S
C303 O315 1.241 . S
C303 O316 1.280 . S
C304 O317 1.277 . S
C304 O318 1.245 . S
C305 O329 1.247 . S
C305 O331 1.289 . S
Mg306 O307 1.926 . S
Mg306 O316 1.984 . S
Mg306 O318 1.988 1_554 S
Mg306 O319 2.061 . S
O307 Mg306 1.926 . S
O307 Mg308 1.986 . S
O307 Mg309 1.917 . S
Mg308 O307 1.986 . S
Mg308 O315 2.042 . S
Mg308 O317 2.041 1_554 S
Mg308 O323 2.038 1_545 S
Mg308 O331 2.238 1_544 S
Mg309 O307 1.917 . S
Mg309 O310 1.917 1_544 S
Mg309 O320 2.106 . S
Mg309 O322 2.079 1_545 S
Mg309 O331 2.106 1_544 S
Mg309 O332 2.079 1_554 S
O310 Mg309 1.917 1_566 S
O310 Mg311 1.926 . S
O310 Mg312 1.986 . S
Mg311 O310 1.926 . S
Mg311 O325 1.984 . S
Mg311 O328 1.988 1_556 S
Mg311 O329 2.061 . S
Mg312 O310 1.986 . S
Mg312 O320 2.238 1_566 S
Mg312 O324 2.042 . S
Mg312 O326 2.041 1_556 S
Mg312 O333 2.038 1_565 S
C313 O319 1.247 . S
C313 O320 1.289 . S
C314 O332 1.245 . S
C314 O333 1.274 . S
O315 C303 1.241 . S
O315 Mg308 2.042 . S
O316 C303 1.280 . S
O316 Mg306 1.984 . S
O317 C304 1.277 . S
O317 Mg308 2.041 1_556 S
O318 C304 1.245 . S
O318 Mg306 1.988 1_556 S
O319 Mg306 2.061 . S
O319 C313 1.247 . S
O320 Mg309 2.106 . S
O320 Mg312 2.238 1_544 S
O320 C313 1.289 . S
C321 O322 1.245 . S
C321 O323 1.274 . S
O322 Mg309 2.079 1_565 S
O322 C321 1.245 . S
O323 Mg308 2.038 1_565 S
O323 C321 1.274 . S
O324 Mg312 2.042 . S
O324 C327 1.241 . S
O325 Mg311 1.984 . S
O325 C327 1.280 . S
O326 Mg312 2.041 1_554 S
O326 C330 1.277 . S
C327 O324 1.241 . S
C327 O325 1.280 . S
O328 Mg311 1.988 1_554 S
O328 C330 1.245 . S
O329 C305 1.247 . S
O329 Mg311 2.061 . S
C330 O326 1.277 . S
C330 O328 1.245 . S
O331 C305 1.289 . S
O331 Mg308 2.238 1_566 S
O331 Mg309 2.106 1_566 S
O332 Mg309 2.079 1_556 S
O332 C314 1.245 . S
O333 Mg312 2.038 1_545 S
O333 C314 1.274 . S
C334 O346 1.241 . S
C334 O347 1.280 . S
C335 O348 1.277 . S
C335 O349 1.245 . S
C336 O360 1.247 . S
C336 O362 1.289 . S
Mg337 O338 1.926 . S
Mg337 O347 1.984 . S
Mg337 O349 1.988 1_554 S
Mg337 O350 2.061 1_655 S
O338 Mg337 1.926 . S
O338 Mg339 1.986 . S
O338 Mg340 1.917 1_655 S
Mg339 O338 1.986 . S
Mg339 O346 2.042 . S
Mg339 O348 2.041 1_554 S
Mg339 O354 2.038 . S
Mg339 O362 2.238 1_554 S
Mg340 O338 1.917 1_455 S
Mg340 O341 1.917 1_554 S
Mg340 O351 2.106 . S
Mg340 O353 2.079 1_455 S
Mg340 O362 2.106 1_454 S
Mg340 O363 2.079 1_554 S
O341 Mg340 1.917 1_556 S
O341 Mg342 1.926 . S
O341 Mg343 1.986 . S
Mg342 O341 1.926 . S
Mg342 O356 1.984 . S
Mg342 O359 1.988 1_556 S
Mg342 O360 2.061 1_455 S
Mg343 O341 1.986 . S
Mg343 O351 2.238 1_556 S
Mg343 O355 2.042 . S
Mg343 O357 2.041 1_556 S
Mg343 O364 2.038 . S
C344 O350 1.247 . S
C344 O351 1.289 . S
C345 O363 1.245 . S
C345 O364 1.274 . S
O346 C334 1.241 . S
O346 Mg339 2.042 . S
O347 C334 1.280 . S
O347 Mg337 1.984 . S
O348 C335 1.277 . S
O348 Mg339 2.041 1_556 S
O349 C335 1.245 . S
O349 Mg337 1.988 1_556 S
O350 Mg337 2.061 1_455 S
O350 C344 1.247 . S
O351 Mg340 2.106 . S
O351 Mg343 2.238 1_554 S
O351 C344 1.289 . S
C352 O353 1.245 . S
C352 O354 1.274 . S
O353 Mg340 2.079 1_655 S
O353 C352 1.245 . S
O354 Mg339 2.038 . S
O354 C352 1.274 . S
O355 Mg343 2.042 . S
O355 C358 1.241 . S
O356 Mg342 1.984 . S
O356 C358 1.280 . S
O357 Mg343 2.041 1_554 S
O357 C361 1.277 . S
C358 O355 1.241 . S
C358 O356 1.280 . S
O359 Mg342 1.988 1_554 S
O359 C361 1.245 . S
O360 C336 1.247 . S
O360 Mg342 2.061 1_655 S
C361 O357 1.277 . S
C361 O359 1.245 . S
O362 C336 1.289 . S
O362 Mg339 2.238 1_556 S
O362 Mg340 2.106 1_656 S
O363 Mg340 2.079 1_556 S
O363 C345 1.245 . S
O364 Mg343 2.038 . S
O364 C345 1.274 . S
C365 O377 1.241 . S
C365 O378 1.280 . S
C366 O379 1.277 . S
C366 O380 1.245 . S
C367 O391 1.247 . S
C367 O393 1.289 . S
Mg368 O369 1.926 . S
Mg368 O378 1.984 . S
Mg368 O380 1.988 1_554 S
Mg368 O381 2.061 . S
O369 Mg368 1.926 . S
O369 Mg370 1.986 . S
O369 Mg371 1.917 . S
Mg370 O369 1.986 . S
Mg370 O377 2.042 . S
Mg370 O379 2.041 1_554 S
Mg370 O385 2.038 . S
Mg370 O393 2.238 1_554 S
Mg371 O369 1.917 . S
Mg371 O372 1.917 1_554 S
Mg371 O382 2.106 . S
Mg371 O384 2.079 . S
Mg371 O393 2.106 1_554 S
Mg371 O394 2.079 1_554 S
O372 Mg371 1.917 1_556 S
O372 Mg373 1.926 . S
O372 Mg374 1.986 . S
Mg373 O372 1.926 . S
Mg373 O387 1.984 . S
Mg373 O390 1.988 1_556 S
Mg373 O391 2.061 . S
Mg374 O372 1.986 . S
Mg374 O382 2.238 1_556 S
Mg374 O386 2.042 . S
Mg374 O388 2.041 1_556 S
Mg374 O395 2.038 . S
C375 O381 1.247 . S
C375 O382 1.289 . S
C376 O394 1.245 . S
C376 O395 1.274 . S
O377 C365 1.241 . S
O377 Mg370 2.042 . S
O378 C365 1.280 . S
O378 Mg368 1.984 . S
O379 C366 1.277 . S
O379 Mg370 2.041 1_556 S
O380 C366 1.245 . S
O380 Mg368 1.988 1_556 S
O381 Mg368 2.061 . S
O381 C375 1.247 . S
O382 Mg371 2.106 . S
O382 Mg374 2.238 1_554 S
O382 C375 1.289 . S
C383 O384 1.245 . S
C383 O385 1.274 . S
O384 Mg371 2.079 . S
O384 C383 1.245 . S
O385 Mg370 2.038 . S
O385 C383 1.274 . S
O386 Mg374 2.042 . S
O386 C389 1.241 . S
O387 Mg373 1.984 . S
O387 C389 1.280 . S
O388 Mg374 2.041 1_554 S
O388 C392 1.277 . S
C389 O386 1.241 . S
C389 O387 1.280 . S
O390 Mg373 1.988 1_554 S
O390 C392 1.245 . S
O391 C367 1.247 . S
O391 Mg373 2.061 . S
C392 O388 1.277 . S
C392 O390 1.245 . S
O393 C367 1.289 . S
O393 Mg370 2.238 1_556 S
O393 Mg371 2.106 1_556 S
O394 Mg371 2.079 1_556 S
O394 C376 1.245 . S
O395 Mg374 2.038 . S
O395 C376 1.274 . S
C396 O408 1.241 . S
C396 O409 1.280 . S
C397 O410 1.277 . S
C397 O411 1.245 . S
C398 O422 1.247 . S
C398 O424 1.289 . S
Mg399 O400 1.926 . S
Mg399 O409 1.984 . S
Mg399 O411 1.988 . S
Mg399 O412 2.061 1_655 S
O400 Mg399 1.926 . S
O400 Mg401 1.986 . S
O400 Mg402 1.917 1_655 S
Mg401 O400 1.986 . S
Mg401 O408 2.042 . S
Mg401 O410 2.041 . S
Mg401 O416 2.038 . S
Mg401 O424 2.238 . S
Mg402 O400 1.917 1_455 S
Mg402 O403 1.917 . S
Mg402 O413 2.106 . S
Mg402 O415 2.079 1_455 S
Mg402 O424 2.106 1_455 S
Mg402 O425 2.079 . S
O403 Mg402 1.917 . S
O403 Mg404 1.926 . S
O403 Mg405 1.986 . S
Mg404 O403 1.926 . S
Mg404 O418 1.984 . S
Mg404 O421 1.988 . S
Mg404 O422 2.061 1_455 S
Mg405 O403 1.986 . S
Mg405 O413 2.238 . S
Mg405 O417 2.042 . S
Mg405 O419 2.041 . S
Mg405 O426 2.038 . S
C406 O412 1.247 . S
C406 O413 1.289 . S
C407 O425 1.245 . S
C407 O426 1.274 . S
O408 C396 1.241 . S
O408 Mg401 2.042 . S
O409 C396 1.280 . S
O409 Mg399 1.984 . S
O410 C397 1.277 . S
O410 Mg401 2.041 . S
O411 C397 1.245 . S
O411 Mg399 1.988 . S
O412 Mg399 2.061 1_455 S
O412 C406 1.247 . S
O413 Mg402 2.106 . S
O413 Mg405 2.238 . S
O413 C406 1.289 . S
C414 O415 1.245 . S
C414 O416 1.274 . S
O415 Mg402 2.079 1_655 S
O415 C414 1.245 . S
O416 Mg401 2.038 . S
O416 C414 1.274 . S
O417 Mg405 2.042 . S
O417 C420 1.241 . S
O418 Mg404 1.984 . S
O418 C420 1.280 . S
O419 Mg405 2.041 . S
O419 C423 1.277 . S
C420 O417 1.241 . S
C420 O418 1.280 . S
O421 Mg404 1.988 . S
O421 C423 1.245 . S
O422 C398 1.247 . S
O422 Mg404 2.061 1_655 S
C423 O419 1.277 . S
C423 O421 1.245 . S
O424 C398 1.289 . S
O424 Mg401 2.238 . S
O424 Mg402 2.106 1_655 S
O425 Mg402 2.079 . S
O425 C407 1.245 . S
O426 Mg405 2.038 . S
O426 C407 1.274 . S
C427 O439 1.241 . S
C427 O440 1.280 . S
C428 O441 1.277 . S
C428 O442 1.245 . S
C429 O453 1.247 . S
C429 O455 1.289 . S
Mg430 O431 1.926 . S
Mg430 O440 1.984 . S
Mg430 O442 1.988 . S
Mg430 O443 2.061 . S
O431 Mg430 1.926 . S
O431 Mg432 1.986 . S
O431 Mg433 1.917 . S
Mg432 O431 1.986 . S
Mg432 O439 2.042 . S
Mg432 O441 2.041 . S
Mg432 O447 2.038 1_545 S
Mg432 O455 2.238 1_545 S
Mg433 O431 1.917 . S
Mg433 O434 1.917 1_545 S
Mg433 O444 2.106 . S
Mg433 O446 2.079 1_545 S
Mg433 O455 2.106 1_545 S
Mg433 O456 2.079 . S
O434 Mg433 1.917 1_565 S
O434 Mg435 1.926 . S
O434 Mg436 1.986 . S
Mg435 O434 1.926 . S
Mg435 O449 1.984 . S
Mg435 O452 1.988 . S
Mg435 O453 2.061 . S
Mg436 O434 1.986 . S
Mg436 O444 2.238 1_565 S
Mg436 O448 2.042 . S
Mg436 O450 2.041 . S
Mg436 O457 2.038 1_565 S
C437 O443 1.247 . S
C437 O444 1.289 . S
C438 O456 1.245 . S
C438 O457 1.274 . S
O439 C427 1.241 . S
O439 Mg432 2.042 . S
O440 C427 1.280 . S
O440 Mg430 1.984 . S
O441 C428 1.277 . S
O441 Mg432 2.041 . S
O442 C428 1.245 . S
O442 Mg430 1.988 . S
O443 Mg430 2.061 . S
O443 C437 1.247 . S
O444 Mg433 2.106 . S
O444 Mg436 2.238 1_545 S
O444 C437 1.289 . S
C445 O446 1.245 . S
C445 O447 1.274 . S
O446 Mg433 2.079 1_565 S
O446 C445 1.245 . S
O447 Mg432 2.038 1_565 S
O447 C445 1.274 . S
O448 Mg436 2.042 . S
O448 C451 1.241 . S
O449 Mg435 1.984 . S
O449 C451 1.280 . S
O450 Mg436 2.041 . S
O450 C454 1.277 . S
C451 O448 1.241 . S
C451 O449 1.280 . S
O452 Mg435 1.988 . S
O452 C454 1.245 . S
O453 C429 1.247 . S
O453 Mg435 2.061 . S
C454 O450 1.277 . S
C454 O452 1.245 . S
O455 C429 1.289 . S
O455 Mg432 2.238 1_565 S
O455 Mg433 2.106 1_565 S
O456 Mg433 2.079 . S
O456 C438 1.245 . S
O457 Mg436 2.038 1_545 S
O457 C438 1.274 . S
C458 C459 1.391 . S
C458 C460 1.394 . S
C458 H474 0.931 . S
C459 C458 1.391 . S
C459 C463 1.376 . S
C460 C458 1.394 . S
C460 C461 1.369 . S
C460 C464 1.531 . S
C461 C460 1.369 . S
C461 C462 1.410 . S
C461 C469 1.503 . S
C462 C461 1.410 . S
C462 C463 1.392 . S
C462 C465 1.511 . S
C463 C459 1.376 . S
C463 C462 1.392 . S
C463 H475 0.929 . S
C464 C460 1.531 . S
C464 H476 0.960 . S
C464 H477 0.962 . S
C464 H478 0.960 . S
C465 C462 1.511 . S
C465 H479 0.961 . S
C465 H480 0.961 . S
C465 H481 0.961 . S
C466 C467 1.370 . S
C466 C468 1.363 . S
C466 H482 0.931 . S
C467 C466 1.370 . S
C467 C471 1.408 . S
C468 C466 1.363 . S
C468 C469 1.370 . S
C468 C472 1.524 . S
C469 C461 1.503 . S
C469 C468 1.370 . S
C469 C470 1.403 . S
C470 C469 1.403 . S
C470 C471 1.404 . S
C470 C473 1.539 . S
C471 C467 1.408 . S
C471 C470 1.404 . S
C471 H483 0.930 1_455 S
C472 C468 1.524 . S
C472 H484 0.956 . S
C472 H485 0.961 . S
C472 H486 0.961 . S
C473 C470 1.539 . S
C473 H487 0.958 . S
C473 H488 0.961 1_455 S
C473 H489 0.960 . S
H474 C458 0.931 . S
H475 C463 0.929 . S
H476 C464 0.960 . S
H477 C464 0.962 . S
H478 C464 0.960 . S
H479 C465 0.961 . S
H480 C465 0.961 . S
H481 C465 0.961 . S
H482 C466 0.931 . S
H483 C471 0.930 1_655 S
H484 C472 0.956 . S
H485 C472 0.961 . S
H486 C472 0.961 . S
H487 C473 0.958 . S
H488 C473 0.961 1_655 S
H489 C473 0.960 . S
C490 C491 1.391 . S
C490 C492 1.394 . S
C490 H506 0.931 . S
C491 C490 1.391 . S
C491 C495 1.376 . S
C492 C490 1.394 . S
C492 C493 1.369 . S
C492 C496 1.531 . S
C493 C492 1.369 . S
C493 C494 1.410 . S
C493 C501 1.503 . S
C494 C493 1.410 . S
C494 C495 1.392 . S
C494 C497 1.511 . S
C495 C491 1.376 . S
C495 C494 1.392 . S
C495 H507 0.929 . S
C496 C492 1.531 . S
C496 H508 0.960 . S
C496 H509 0.962 . S
C496 H510 0.960 . S
C497 C494 1.511 . S
C497 H511 0.961 . S
C497 H512 0.961 . S
C497 H513 0.961 . S
C498 C499 1.370 . S
C498 C500 1.363 . S
C498 H514 0.931 . S
C499 C498 1.370 . S
C499 C503 1.408 . S
C500 C498 1.363 . S
C500 C501 1.370 . S
C500 C504 1.524 . S
C501 C493 1.503 . S
C501 C500 1.370 . S
C501 C502 1.403 . S
C502 C501 1.403 . S
C502 C503 1.404 . S
C502 C505 1.539 . S
C503 C499 1.408 . S
C503 C502 1.404 . S
C503 H515 0.930 . S
C504 C500 1.524 . S
C504 H516 0.956 . S
C504 H517 0.961 . S
C504 H518 0.961 . S
C505 C502 1.539 . S
C505 H519 0.958 . S
C505 H520 0.961 . S
C505 H521 0.960 . S
H506 C490 0.931 . S
H507 C495 0.929 . S
H508 C496 0.960 . S
H509 C496 0.962 . S
H510 C496 0.960 . S
H511 C497 0.961 . S
H512 C497 0.961 . S
H513 C497 0.961 . S
H514 C498 0.931 . S
H515 C503 0.930 . S
H516 C504 0.956 . S
H517 C504 0.961 . S
H518 C504 0.961 . S
H519 C505 0.958 . S
H520 C505 0.961 . S
H521 C505 0.960 . S
C522 C523 1.391 . S
C522 C524 1.394 . S
C522 H538 0.931 . S
C523 C522 1.391 . S
C523 C527 1.376 . S
C524 C522 1.394 . S
C524 C525 1.369 . S
C524 C528 1.531 . S
C525 C524 1.369 . S
C525 C526 1.410 . S
C525 C533 1.503 . S
C526 C525 1.410 . S
C526 C527 1.392 . S
C526 C529 1.511 . S
C527 C523 1.376 . S
C527 C526 1.392 . S
C527 H539 0.929 . S
C528 C524 1.531 . S
C528 H540 0.960 . S
C528 H541 0.962 . S
C528 H542 0.960 . S
C529 C526 1.511 . S
C529 H543 0.961 . S
C529 H544 0.961 . S
C529 H545 0.961 . S
C530 C531 1.370 . S
C530 C532 1.363 . S
C530 H546 0.931 . S
C531 C530 1.370 . S
C531 C535 1.408 . S
C532 C530 1.363 . S
C532 C533 1.370 . S
C532 C536 1.524 . S
C533 C525 1.503 . S
C533 C532 1.370 . S
C533 C534 1.403 . S
C534 C533 1.403 . S
C534 C535 1.404 . S
C534 C537 1.539 . S
C535 C531 1.408 . S
C535 C534 1.404 . S
C535 H547 0.930 . S
C536 C532 1.524 . S
C536 H548 0.956 . S
C536 H549 0.961 . S
C536 H550 0.961 . S
C537 C534 1.539 . S
C537 H551 0.958 . S
C537 H552 0.961 . S
C537 H553 0.960 . S
H538 C522 0.931 . S
H539 C527 0.929 . S
H540 C528 0.960 . S
H541 C528 0.962 . S
H542 C528 0.960 . S
H543 C529 0.961 . S
H544 C529 0.961 . S
H545 C529 0.961 . S
H546 C530 0.931 . S
H547 C535 0.930 . S
H548 C536 0.956 . S
H549 C536 0.961 . S
H550 C536 0.961 . S
H551 C537 0.958 . S
H552 C537 0.961 . S
H553 C537 0.960 . S
C554 C555 1.391 . S
C554 C556 1.394 . S
C554 H570 0.931 . S
C555 C554 1.391 . S
C555 C559 1.376 . S
C556 C554 1.394 . S
C556 C557 1.369 . S
C556 C560 1.531 . S
C557 C556 1.369 . S
C557 C558 1.410 . S
C557 C565 1.503 . S
C558 C557 1.410 . S
C558 C559 1.392 . S
C558 C561 1.511 . S
C559 C555 1.376 . S
C559 C558 1.392 . S
C559 H571 0.929 . S
C560 C556 1.531 . S
C560 H572 0.960 . S
C560 H573 0.962 . S
C560 H574 0.960 . S
C561 C558 1.511 . S
C561 H575 0.961 . S
C561 H576 0.961 . S
C561 H577 0.961 . S
C562 C563 1.370 . S
C562 C564 1.363 . S
C562 H578 0.931 . S
C563 C562 1.370 . S
C563 C567 1.408 . S
C564 C562 1.363 . S
C564 C565 1.370 . S
C564 C568 1.524 . S
C565 C557 1.503 . S
C565 C564 1.370 . S
C565 C566 1.403 . S
C566 C565 1.403 . S
C566 C567 1.404 . S
C566 C569 1.539 . S
C567 C563 1.408 . S
C567 C566 1.404 . S
C567 H579 0.930 . S
C568 C564 1.524 . S
C568 H580 0.956 . S
C568 H581 0.961 . S
C568 H582 0.961 . S
C569 C566 1.539 . S
C569 H583 0.958 . S
C569 H584 0.961 . S
C569 H585 0.960 . S
H570 C554 0.931 . S
H571 C559 0.929 . S
H572 C560 0.960 . S
H573 C560 0.962 . S
H574 C560 0.960 . S
H575 C561 0.961 . S
H576 C561 0.961 . S
H577 C561 0.961 . S
H578 C562 0.931 . S
H579 C567 0.930 . S
H580 C568 0.956 . S
H581 C568 0.961 . S
H582 C568 0.961 . S
H583 C569 0.958 . S
H584 C569 0.961 . S
H585 C569 0.960 . S
C586 C587 1.391 . S
C586 C588 1.394 . S
C586 H602 0.931 . S
C587 C586 1.391 . S
C587 C591 1.376 . S
C588 C586 1.394 . S
C588 C589 1.369 . S
C588 C592 1.531 . S
C589 C588 1.369 . S
C589 C590 1.410 . S
C589 C597 1.503 . S
C590 C589 1.410 . S
C590 C591 1.392 . S
C590 C593 1.511 . S
C591 C587 1.376 . S
C591 C590 1.392 . S
C591 H603 0.929 . S
C592 C588 1.531 . S
C592 H604 0.960 . S
C592 H605 0.962 . S
C592 H606 0.960 . S
C593 C590 1.511 . S
C593 H607 0.961 . S
C593 H608 0.961 . S
C593 H609 0.961 . S
C594 C595 1.370 . S
C594 C596 1.363 . S
C594 H610 0.931 . S
C595 C594 1.370 . S
C595 C599 1.408 . S
C596 C594 1.363 . S
C596 C597 1.370 . S
C596 C600 1.524 . S
C597 C589 1.503 . S
C597 C596 1.370 . S
C597 C598 1.403 . S
C598 C597 1.403 . S
C598 C599 1.404 . S
C598 C601 1.539 . S
C599 C595 1.408 . S
C599 C598 1.404 . S
C599 H611 0.930 . S
C600 C596 1.524 . S
C600 H612 0.956 . S
C600 H613 0.961 . S
C600 H614 0.961 . S
C601 C598 1.539 . S
C601 H615 0.958 . S
C601 H616 0.961 . S
C601 H617 0.960 . S
H602 C586 0.931 . S
H603 C591 0.929 . S
H604 C592 0.960 . S
H605 C592 0.962 . S
H606 C592 0.960 . S
H607 C593 0.961 . S
H608 C593 0.961 . S
H609 C593 0.961 . S
H610 C594 0.931 . S
H611 C599 0.930 . S
H612 C600 0.956 . S
H613 C600 0.961 . S
H614 C600 0.961 . S
H615 C601 0.958 . S
H616 C601 0.961 . S
H617 C601 0.960 . S
C618 C619 1.391 . S
C618 C620 1.394 . S
C618 H634 0.931 . S
C619 C618 1.391 . S
C619 C623 1.376 . S
C620 C618 1.394 . S
C620 C621 1.369 . S
C620 C624 1.531 . S
C621 C620 1.369 . S
C621 C622 1.410 . S
C621 C629 1.503 . S
C622 C621 1.410 . S
C622 C623 1.392 . S
C622 C625 1.511 . S
C623 C619 1.376 . S
C623 C622 1.392 . S
C623 H635 0.929 . S
C624 C620 1.531 . S
C624 H636 0.960 . S
C624 H637 0.962 . S
C624 H638 0.960 . S
C625 C622 1.511 . S
C625 H639 0.961 . S
C625 H640 0.961 . S
C625 H641 0.961 . S
C626 C627 1.370 . S
C626 C628 1.363 . S
C626 H642 0.931 . S
C627 C626 1.370 . S
C627 C631 1.408 . S
C628 C626 1.363 . S
C628 C629 1.370 . S
C628 C632 1.524 . S
C629 C621 1.503 . S
C629 C628 1.370 . S
C629 C630 1.403 . S
C630 C629 1.403 . S
C630 C631 1.404 . S
C630 C633 1.539 . S
C631 C627 1.408 . S
C631 C630 1.404 . S
C631 H643 0.930 . S
C632 C628 1.524 . S
C632 H644 0.956 . S
C632 H645 0.961 . S
C632 H646 0.961 . S
C633 C630 1.539 . S
C633 H647 0.958 . S
C633 H648 0.961 . S
C633 H649 0.960 . S
H634 C618 0.931 . S
H635 C623 0.929 . S
H636 C624 0.960 . S
H637 C624 0.962 . S
H638 C624 0.960 . S
H639 C625 0.961 . S
H640 C625 0.961 . S
H641 C625 0.961 . S
H642 C626 0.931 . S
H643 C631 0.930 . S
H644 C632 0.956 . S
H645 C632 0.961 . S
H646 C632 0.961 . S
H647 C633 0.958 . S
H648 C633 0.961 . S
H649 C633 0.960 . S
C650 C651 1.391 . S
C650 C652 1.394 . S
C650 H666 0.931 . S
C651 C650 1.391 . S
C651 C655 1.376 . S
C652 C650 1.394 . S
C652 C653 1.369 . S
C652 C656 1.531 . S
C653 C652 1.369 . S
C653 C654 1.410 . S
C653 C661 1.503 . S
C654 C653 1.410 . S
C654 C655 1.392 . S
C654 C657 1.511 . S
C655 C651 1.376 . S
C655 C654 1.392 . S
C655 H667 0.929 . S
C656 C652 1.531 . S
C656 H668 0.960 . S
C656 H669 0.962 . S
C656 H670 0.960 . S
C657 C654 1.511 . S
C657 H671 0.961 . S
C657 H672 0.961 . S
C657 H673 0.961 . S
C658 C659 1.370 . S
C658 C660 1.363 . S
C658 H674 0.931 . S
C659 C658 1.370 . S
C659 C663 1.408 . S
C660 C658 1.363 . S
C660 C661 1.370 . S
C660 C664 1.524 . S
C661 C653 1.503 . S
C661 C660 1.370 . S
C661 C662 1.403 . S
C662 C661 1.403 . S
C662 C663 1.404 . S
C662 C665 1.539 . S
C663 C659 1.408 . S
C663 C662 1.404 . S
C663 H675 0.930 . S
C664 C660 1.524 . S
C664 H676 0.956 . S
C664 H677 0.961 . S
C664 H678 0.961 . S
C665 C662 1.539 . S
C665 H679 0.958 . S
C665 H680 0.961 . S
C665 H681 0.960 . S
H666 C650 0.931 . S
H667 C655 0.929 . S
H668 C656 0.960 . S
H669 C656 0.962 . S
H670 C656 0.960 . S
H671 C657 0.961 . S
H672 C657 0.961 . S
H673 C657 0.961 . S
H674 C658 0.931 . S
H675 C663 0.930 . S
H676 C664 0.956 . S
H677 C664 0.961 . S
H678 C664 0.961 . S
H679 C665 0.958 . S
H680 C665 0.961 . S
H681 C665 0.960 . S
C682 C683 1.391 . S
C682 C684 1.394 . S
C682 H698 0.931 . S
C683 C682 1.391 . S
C683 C687 1.376 . S
C684 C682 1.394 . S
C684 C685 1.369 . S
C684 C688 1.531 . S
C685 C684 1.369 . S
C685 C686 1.410 . S
C685 C693 1.503 . S
C686 C685 1.410 . S
C686 C687 1.392 . S
C686 C689 1.511 . S
C687 C683 1.376 . S
C687 C686 1.392 . S
C687 H699 0.929 . S
C688 C684 1.531 . S
C688 H700 0.960 . S
C688 H701 0.962 . S
C688 H702 0.960 . S
C689 C686 1.511 . S
C689 H703 0.961 . S
C689 H704 0.961 . S
C689 H705 0.961 . S
C690 C691 1.370 . S
C690 C692 1.363 . S
C690 H706 0.931 . S
C691 C690 1.370 . S
C691 C695 1.408 . S
C692 C690 1.363 . S
C692 C693 1.370 . S
C692 C696 1.524 . S
C693 C685 1.503 . S
C693 C692 1.370 . S
C693 C694 1.403 . S
C694 C693 1.403 . S
C694 C695 1.404 . S
C694 C697 1.539 . S
C695 C691 1.408 . S
C695 C694 1.404 . S
C695 H707 0.930 . S
C696 C692 1.524 . S
C696 H708 0.956 . S
C696 H709 0.961 . S
C696 H710 0.961 . S
C697 C694 1.539 . S
C697 H711 0.958 . S
C697 H712 0.961 . S
C697 H713 0.960 . S
H698 C682 0.931 . S
H699 C687 0.929 . S
H700 C688 0.960 . S
H701 C688 0.962 . S
H702 C688 0.960 . S
H703 C689 0.961 . S
H704 C689 0.961 . S
H705 C689 0.961 . S
H706 C690 0.931 . S
H707 C695 0.930 . S
H708 C696 0.956 . S
H709 C696 0.961 . S
H710 C696 0.961 . S
H711 C697 0.958 . S
H712 C697 0.961 . S
H713 C697 0.960 . S
C714 C715 1.391 . S
C714 C716 1.394 . S
C714 H730 0.931 . S
C715 C714 1.391 . S
C715 C719 1.376 . S
C716 C714 1.394 . S
C716 C717 1.369 . S
C716 C720 1.531 . S
C717 C716 1.369 . S
C717 C718 1.410 . S
C717 C725 1.503 . S
C718 C717 1.410 . S
C718 C719 1.392 . S
C718 C721 1.511 . S
C719 C715 1.376 . S
C719 C718 1.392 . S
C719 H731 0.929 . S
C720 C716 1.531 . S
C720 H732 0.960 . S
C720 H733 0.962 . S
C720 H734 0.960 . S
C721 C718 1.511 . S
C721 H735 0.961 . S
C721 H736 0.961 . S
C721 H737 0.961 . S
C722 C723 1.370 . S
C722 C724 1.363 . S
C722 H738 0.931 . S
C723 C722 1.370 . S
C723 C727 1.408 . S
C724 C722 1.363 . S
C724 C725 1.370 . S
C724 C728 1.524 . S
C725 C717 1.503 . S
C725 C724 1.370 . S
C725 C726 1.403 . S
C726 C725 1.403 . S
C726 C727 1.404 . S
C726 C729 1.539 . S
C727 C723 1.408 . S
C727 C726 1.404 . S
C727 H739 0.930 . S
C728 C724 1.524 . S
C728 H740 0.956 . S
C728 H741 0.961 . S
C728 H742 0.961 . S
C729 C726 1.539 . S
C729 H743 0.958 . S
C729 H744 0.961 . S
C729 H745 0.960 . S
H730 C714 0.931 . S
H731 C719 0.929 . S
H732 C720 0.960 . S
H733 C720 0.962 . S
H734 C720 0.960 . S
H735 C721 0.961 . S
H736 C721 0.961 . S
H737 C721 0.961 . S
H738 C722 0.931 . S
H739 C727 0.930 . S
H740 C728 0.956 . S
H741 C728 0.961 . S
H742 C728 0.961 . S
H743 C729 0.958 . S
H744 C729 0.961 . S
H745 C729 0.960 . S
C746 C747 1.391 . S
C746 C748 1.394 . S
C746 H762 0.931 . S
C747 C746 1.391 . S
C747 C751 1.376 . S
C748 C746 1.394 . S
C748 C749 1.369 . S
C748 C752 1.531 . S
C749 C748 1.369 . S
C749 C750 1.410 . S
C749 C757 1.503 . S
C750 C749 1.410 . S
C750 C751 1.392 . S
C750 C753 1.511 . S
C751 C747 1.376 . S
C751 C750 1.392 . S
C751 H763 0.929 . S
C752 C748 1.531 . S
C752 H764 0.960 . S
C752 H765 0.962 . S
C752 H766 0.960 . S
C753 C750 1.511 . S
C753 H767 0.961 . S
C753 H768 0.961 . S
C753 H769 0.961 . S
C754 C755 1.370 . S
C754 C756 1.363 . S
C754 H770 0.931 . S
C755 C754 1.370 . S
C755 C759 1.408 . S
C756 C754 1.363 . S
C756 C757 1.370 . S
C756 C760 1.524 . S
C757 C749 1.503 . S
C757 C756 1.370 . S
C757 C758 1.403 . S
C758 C757 1.403 . S
C758 C759 1.404 . S
C758 C761 1.539 . S
C759 C755 1.408 . S
C759 C758 1.404 . S
C759 H771 0.930 . S
C760 C756 1.524 . S
C760 H772 0.956 . S
C760 H773 0.961 . S
C760 H774 0.961 . S
C761 C758 1.539 . S
C761 H775 0.958 . S
C761 H776 0.961 . S
C761 H777 0.960 . S
H762 C746 0.931 . S
H763 C751 0.929 . S
H764 C752 0.960 . S
H765 C752 0.962 . S
H766 C752 0.960 . S
H767 C753 0.961 . S
H768 C753 0.961 . S
H769 C753 0.961 . S
H770 C754 0.931 . S
H771 C759 0.930 . S
H772 C760 0.956 . S
H773 C760 0.961 . S
H774 C760 0.961 . S
H775 C761 0.958 . S
H776 C761 0.961 . S
H777 C761 0.960 . S
C778 C779 1.391 . S
C778 C780 1.394 . S
C778 H794 0.931 . S
C779 C778 1.391 . S
C779 C783 1.376 . S
C780 C778 1.394 . S
C780 C781 1.369 . S
C780 C784 1.531 . S
C781 C780 1.369 . S
C781 C782 1.410 . S
C781 C789 1.503 . S
C782 C781 1.410 . S
C782 C783 1.392 . S
C782 C785 1.511 . S
C783 C779 1.376 . S
C783 C782 1.392 . S
C783 H795 0.929 . S
C784 C780 1.531 . S
C784 H796 0.960 . S
C784 H797 0.962 . S
C784 H798 0.960 . S
C785 C782 1.511 . S
C785 H799 0.961 . S
C785 H800 0.961 . S
C785 H801 0.961 . S
C786 C787 1.370 . S
C786 C788 1.363 . S
C786 H802 0.931 . S
C787 C786 1.370 . S
C787 C791 1.408 . S
C788 C786 1.363 . S
C788 C789 1.370 . S
C788 C792 1.524 . S
C789 C781 1.503 . S
C789 C788 1.370 . S
C789 C790 1.403 . S
C790 C789 1.403 . S
C790 C791 1.404 . S
C790 C793 1.539 . S
C791 C787 1.408 . S
C791 C790 1.404 . S
C791 H803 0.930 . S
C792 C788 1.524 . S
C792 H804 0.956 . S
C792 H805 0.961 . S
C792 H806 0.961 . S
C793 C790 1.539 . S
C793 H807 0.958 . S
C793 H808 0.961 . S
C793 H809 0.960 . S
H794 C778 0.931 . S
H795 C783 0.929 . S
H796 C784 0.960 . S
H797 C784 0.962 . S
H798 C784 0.960 . S
H799 C785 0.961 . S
H800 C785 0.961 . S
H801 C785 0.961 . S
H802 C786 0.931 . S
H803 C791 0.930 . S
H804 C792 0.956 . S
H805 C792 0.961 . S
H806 C792 0.961 . S
H807 C793 0.958 . S
H808 C793 0.961 . S
H809 C793 0.960 . S
C810 C811 1.391 . S
C810 C812 1.394 . S
C810 H826 0.931 . S
C811 C810 1.391 . S
C811 C815 1.376 . S
C812 C810 1.394 . S
C812 C813 1.369 . S
C812 C816 1.531 . S
C813 C812 1.369 . S
C813 C814 1.410 . S
C813 C821 1.503 . S
C814 C813 1.410 . S
C814 C815 1.392 . S
C814 C817 1.511 . S
C815 C811 1.376 . S
C815 C814 1.392 . S
C815 H827 0.929 . S
C816 C812 1.531 . S
C816 H828 0.960 . S
C816 H829 0.962 . S
C816 H830 0.960 . S
C817 C814 1.511 . S
C817 H831 0.961 . S
C817 H832 0.961 . S
C817 H833 0.961 . S
C818 C819 1.370 . S
C818 C820 1.363 . S
C818 H834 0.931 . S
C819 C818 1.370 . S
C819 C823 1.408 . S
C820 C818 1.363 . S
C820 C821 1.370 . S
C820 C824 1.524 . S
C821 C813 1.503 . S
C821 C820 1.370 . S
C821 C822 1.403 . S
C822 C821 1.403 . S
C822 C823 1.404 . S
C822 C825 1.539 . S
C823 C819 1.408 . S
C823 C822 1.404 . S
C823 H835 0.930 . S
C824 C820 1.524 . S
C824 H836 0.956 . S
C824 H837 0.961 . S
C824 H838 0.961 . S
C825 C822 1.539 . S
C825 H839 0.958 . S
C825 H840 0.961 . S
C825 H841 0.960 . S
H826 C810 0.931 . S
H827 C815 0.929 . S
H828 C816 0.960 . S
H829 C816 0.962 . S
H830 C816 0.960 . S
H831 C817 0.961 . S
H832 C817 0.961 . S
H833 C817 0.961 . S
H834 C818 0.931 . S
H835 C823 0.930 . S
H836 C824 0.956 . S
H837 C824 0.961 . S
H838 C824 0.961 . S
H839 C825 0.958 . S
H840 C825 0.961 . S
H841 C825 0.960 . S
C842 C843 1.391 . S
C842 C844 1.394 . S
C842 H858 0.931 . S
C843 C842 1.391 . S
C843 C847 1.376 . S
C844 C842 1.394 . S
C844 C845 1.369 . S
C844 C848 1.531 . S
C845 C844 1.369 . S
C845 C846 1.410 . S
C845 C853 1.503 . S
C846 C845 1.410 . S
C846 C847 1.392 . S
C846 C849 1.511 . S
C847 C843 1.376 . S
C847 C846 1.392 . S
C847 H859 0.929 . S
C848 C844 1.531 . S
C848 H860 0.960 . S
C848 H861 0.962 . S
C848 H862 0.960 . S
C849 C846 1.511 . S
C849 H863 0.961 . S
C849 H864 0.961 . S
C849 H865 0.961 . S
C850 C851 1.370 . S
C850 C852 1.363 . S
C850 H866 0.931 . S
C851 C850 1.370 . S
C851 C855 1.408 . S
C852 C850 1.363 . S
C852 C853 1.370 . S
C852 C856 1.524 . S
C853 C845 1.503 . S
C853 C852 1.370 . S
C853 C854 1.403 . S
C854 C853 1.403 . S
C854 C855 1.404 . S
C854 C857 1.539 . S
C855 C851 1.408 . S
C855 C854 1.404 . S
C855 H867 0.921 1_565 S
C856 C852 1.524 . S
C856 H868 0.956 . S
C856 H869 0.961 . S
C856 H870 0.961 . S
C857 C854 1.539 . S
C857 H871 0.958 . S
C857 H872 0.961 1_565 S
C857 H873 0.960 . S
H858 C842 0.931 . S
H859 C847 0.929 . S
H860 C848 0.960 . S
H861 C848 0.962 . S
H862 C848 0.960 . S
H863 C849 0.961 . S
H864 C849 0.961 . S
H865 C849 0.961 . S
H866 C850 0.931 . S
H867 C855 0.921 1_545 S
H868 C856 0.956 . S
H869 C856 0.961 . S
H870 C856 0.961 . S
H871 C857 0.958 . S
H872 C857 0.961 1_545 S
H873 C857 0.960 . S
C874 C875 1.391 . S
C874 C876 1.394 . S
C874 H890 0.931 . S
C875 C874 1.391 . S
C875 C879 1.376 . S
C876 C874 1.394 . S
C876 C877 1.369 . S
C876 C880 1.531 . S
C877 C876 1.369 . S
C877 C878 1.410 . S
C877 C885 1.503 . S
C878 C877 1.410 . S
C878 C879 1.392 . S
C878 C881 1.511 . S
C879 C875 1.376 . S
C879 C878 1.392 . S
C879 H891 0.929 . S
C880 C876 1.531 . S
C880 H892 0.960 . S
C880 H893 0.962 . S
C880 H894 0.960 . S
C881 C878 1.511 . S
C881 H895 0.961 . S
C881 H896 0.961 . S
C881 H897 0.961 . S
C882 C883 1.370 . S
C882 C884 1.363 . S
C882 H898 0.931 . S
C883 C882 1.370 . S
C883 C887 1.408 . S
C884 C882 1.363 . S
C884 C885 1.370 . S
C884 C888 1.524 . S
C885 C877 1.503 . S
C885 C884 1.370 . S
C885 C886 1.403 . S
C886 C885 1.403 . S
C886 C887 1.404 . S
C886 C889 1.539 . S
C887 C883 1.408 . S
C887 C886 1.404 . S
C887 H899 0.930 . S
C888 C884 1.524 . S
C888 H900 0.956 . S
C888 H901 0.961 . S
C888 H902 0.961 . S
C889 C886 1.539 . S
C889 H903 0.958 . S
C889 H904 0.961 . S
C889 H905 0.960 . S
H890 C874 0.931 . S
H891 C879 0.929 . S
H892 C880 0.960 . S
H893 C880 0.962 . S
H894 C880 0.960 . S
H895 C881 0.961 . S
H896 C881 0.961 . S
H897 C881 0.961 . S
H898 C882 0.931 . S
H899 C887 0.930 . S
H900 C888 0.956 . S
H901 C888 0.961 . S
H902 C888 0.961 . S
H903 C889 0.958 . S
H904 C889 0.961 . S
H905 C889 0.960 . S
C906 C907 1.391 . S
C906 C908 1.394 . S
C906 H922 0.931 . S
C907 C906 1.391 . S
C907 C911 1.376 . S
C908 C906 1.394 . S
C908 C909 1.369 . S
C908 C912 1.531 . S
C909 C908 1.369 . S
C909 C910 1.410 . S
C909 C917 1.503 . S
C910 C909 1.410 . S
C910 C911 1.392 . S
C910 C913 1.511 . S
C911 C907 1.376 . S
C911 C910 1.392 . S
C911 H923 0.929 . S
C912 C908 1.531 . S
C912 H924 0.960 . S
C912 H925 0.962 . S
C912 H926 0.960 . S
C913 C910 1.511 . S
C913 H927 0.961 . S
C913 H928 0.961 . S
C913 H929 0.961 . S
C914 C915 1.370 . S
C914 C916 1.363 . S
C914 H930 0.931 . S
C915 C914 1.370 . S
C915 C919 1.408 . S
C916 C914 1.363 . S
C916 C917 1.370 . S
C916 C920 1.524 . S
C917 C909 1.503 . S
C917 C916 1.370 . S
C917 C918 1.403 . S
C918 C917 1.403 . S
C918 C919 1.404 . S
C918 C921 1.539 . S
C919 C915 1.408 . S
C919 C918 1.404 . S
C919 H931 0.930 . S
C920 C916 1.524 . S
C920 H932 0.956 . S
C920 H933 0.961 . S
C920 H934 0.961 . S
C921 C918 1.539 . S
C921 H935 0.958 . S
C921 H936 0.961 . S
C921 H937 0.960 . S
H922 C906 0.931 . S
H923 C911 0.929 . S
H924 C912 0.960 . S
H925 C912 0.962 . S
H926 C912 0.960 . S
H927 C913 0.961 . S
H928 C913 0.961 . S
H929 C913 0.961 . S
H930 C914 0.931 . S
H931 C919 0.930 . S
H932 C920 0.956 . S
H933 C920 0.961 . S
H934 C920 0.961 . S
H935 C921 0.958 . S
H936 C921 0.961 . S
H937 C921 0.960 . S
C938 C939 1.391 . S
C938 C940 1.394 . S
C938 H954 0.931 . S
C939 C938 1.391 . S
C939 C943 1.376 . S
C940 C938 1.394 . S
C940 C941 1.369 . S
C940 C944 1.531 . S
C941 C940 1.369 . S
C941 C942 1.410 . S
C941 C949 1.503 . S
C942 C941 1.410 . S
C942 C943 1.392 . S
C942 C945 1.511 . S
C943 C939 1.376 . S
C943 C942 1.392 . S
C943 H955 0.929 . S
C944 C940 1.531 . S
C944 H956 0.960 . S
C944 H957 0.962 . S
C944 H958 0.960 . S
C945 C942 1.511 . S
C945 H959 0.961 . S
C945 H960 0.961 . S
C945 H961 0.961 . S
C946 C947 1.370 . S
C946 C948 1.363 . S
C946 H962 0.931 . S
C947 C946 1.370 . S
C947 C951 1.408 . S
C948 C946 1.363 . S
C948 C949 1.370 . S
C948 C952 1.524 . S
C949 C941 1.503 . S
C949 C948 1.370 . S
C949 C950 1.403 . S
C950 C949 1.403 . S
C950 C951 1.404 . S
C950 C953 1.539 . S
C951 C947 1.408 . S
C951 C950 1.404 . S
C951 H963 0.930 . S
C952 C948 1.524 . S
C952 H964 0.956 . S
C952 H965 0.961 . S
C952 H966 0.961 . S
C953 C950 1.539 . S
C953 H967 0.958 . S
C953 H968 0.961 . S
C953 H969 0.960 . S
H954 C938 0.931 . S
H955 C943 0.929 . S
H956 C944 0.960 . S
H957 C944 0.962 . S
H958 C944 0.960 . S
H959 C945 0.961 . S
H960 C945 0.961 . S
H961 C945 0.961 . S
H962 C946 0.931 . S
H963 C951 0.930 . S
H964 C952 0.956 . S
H965 C952 0.961 . S
H966 C952 0.961 . S
H967 C953 0.958 . S
H968 C953 0.961 . S
H969 C953 0.960 . S
C970 C971 1.391 . S
C970 C972 1.394 . S
C970 H986 0.931 . S
C971 C970 1.391 . S
C971 C975 1.376 . S
C972 C970 1.394 . S
C972 C973 1.369 . S
C972 C976 1.531 . S
C973 C972 1.369 . S
C973 C974 1.410 . S
C973 C981 1.503 . S
C974 C973 1.410 . S
C974 C975 1.392 . S
C974 C977 1.511 . S
C975 C971 1.376 . S
C975 C974 1.392 . S
C975 H987 0.929 . S
C976 C972 1.531 . S
C976 H988 0.960 . S
C976 H989 0.962 . S
C976 H990 0.960 . S
C977 C974 1.511 . S
C977 H991 0.961 . S
C977 H992 0.961 . S
C977 H993 0.961 . S
C978 C979 1.370 . S
C978 C980 1.363 . S
C978 H994 0.931 . S
C979 C978 1.370 . S
C979 C983 1.408 . S
C980 C978 1.363 . S
C980 C981 1.370 . S
C980 C984 1.524 . S
C981 C973 1.503 . S
C981 C980 1.370 . S
C981 C982 1.403 . S
C982 C981 1.403 . S
C982 C983 1.404 . S
C982 C985 1.539 . S
C983 C979 1.408 . S
C983 C982 1.404 . S
C983 H995 0.930 . S
C984 C980 1.524 . S
C984 H996 0.956 . S
C984 H997 0.961 . S
C984 H998 0.961 . S
C985 C982 1.539 . S
C985 H999 0.958 . S
C985 H1000 0.961 . S
C985 H1001 0.960 . S
H986 C970 0.931 . S
H987 C975 0.929 . S
H988 C976 0.960 . S
H989 C976 0.962 . S
H990 C976 0.960 . S
H991 C977 0.961 . S
H992 C977 0.961 . S
H993 C977 0.961 . S
H994 C978 0.931 . S
H995 C983 0.930 . S
H996 C984 0.956 . S
H997 C984 0.961 . S
H998 C984 0.961 . S
H999 C985 0.958 . S
H1000 C985 0.961 . S
H1001 C985 0.960 . S
C1002 C1003 1.391 . S
C1002 C1004 1.394 . S
C1002 H1018 0.931 . S
C1003 C1002 1.391 . S
C1003 C1007 1.376 . S
C1004 C1002 1.394 . S
C1004 C1005 1.369 . S
C1004 C1008 1.531 . S
C1005 C1004 1.369 . S
C1005 C1006 1.410 . S
C1005 C1013 1.503 . S
C1006 C1005 1.410 . S
C1006 C1007 1.392 . S
C1006 C1009 1.511 . S
C1007 C1003 1.376 . S
C1007 C1006 1.392 . S
C1007 H1019 0.929 . S
C1008 C1004 1.531 . S
C1008 H1020 0.960 . S
C1008 H1021 0.962 . S
C1008 H1022 0.960 . S
C1009 C1006 1.511 . S
C1009 H1023 0.961 . S
C1009 H1024 0.961 . S
C1009 H1025 0.961 . S
C1010 C1011 1.370 . S
C1010 C1012 1.363 . S
C1010 H1026 0.931 . S
C1011 C1010 1.370 . S
C1011 C1015 1.408 . S
C1012 C1010 1.363 . S
C1012 C1013 1.370 . S
C1012 C1016 1.524 . S
C1013 C1005 1.503 . S
C1013 C1012 1.370 . S
C1013 C1014 1.403 . S
C1014 C1013 1.403 . S
C1014 C1015 1.404 . S
C1014 C1017 1.539 . S
C1015 C1011 1.408 . S
C1015 C1014 1.404 . S
C1015 H1027 0.930 . S
C1016 C1012 1.524 . S
C1016 H1028 0.956 . S
C1016 H1029 0.961 . S
C1016 H1030 0.961 . S
C1017 C1014 1.539 . S
C1017 H1031 0.958 . S
C1017 H1032 0.961 . S
C1017 H1033 0.960 . S
H1018 C1002 0.931 . S
H1019 C1007 0.929 . S
H1020 C1008 0.960 . S
H1021 C1008 0.962 . S
H1022 C1008 0.960 . S
H1023 C1009 0.961 . S
H1024 C1009 0.961 . S
H1025 C1009 0.961 . S
H1026 C1010 0.931 . S
H1027 C1015 0.930 . S
H1028 C1016 0.956 . S
H1029 C1016 0.961 . S
H1030 C1016 0.961 . S
H1031 C1017 0.958 . S
H1032 C1017 0.961 . S
H1033 C1017 0.960 . S
C1034 C1035 1.391 . S
C1034 C1036 1.394 . S
C1034 H1050 0.931 . S
C1035 C1034 1.391 . S
C1035 C1039 1.376 . S
C1036 C1034 1.394 . S
C1036 C1037 1.369 . S
C1036 C1040 1.531 . S
C1037 C1036 1.369 . S
C1037 C1038 1.410 . S
C1037 C1045 1.503 . S
C1038 C1037 1.410 . S
C1038 C1039 1.392 . S
C1038 C1041 1.511 . S
C1039 C1035 1.376 . S
C1039 C1038 1.392 . S
C1039 H1051 0.929 . S
C1040 C1036 1.531 . S
C1040 H1052 0.960 . S
C1040 H1053 0.962 . S
C1040 H1054 0.960 . S
C1041 C1038 1.511 . S
C1041 H1055 0.961 . S
C1041 H1056 0.961 . S
C1041 H1057 0.961 . S
C1042 C1043 1.370 . S
C1042 C1044 1.363 . S
C1042 H1058 0.931 . S
C1043 C1042 1.370 . S
C1043 C1047 1.408 . S
C1044 C1042 1.363 . S
C1044 C1045 1.370 . S
C1044 C1048 1.524 . S
C1045 C1037 1.503 . S
C1045 C1044 1.370 . S
C1045 C1046 1.403 . S
C1046 C1045 1.403 . S
C1046 C1047 1.404 . S
C1046 C1049 1.539 . S
C1047 C1043 1.408 . S
C1047 C1046 1.404 . S
C1047 H1059 0.930 . S
C1048 C1044 1.524 . S
C1048 H1060 0.956 . S
C1048 H1061 0.961 . S
C1048 H1062 0.961 . S
C1049 C1046 1.539 . S
C1049 H1063 0.958 . S
C1049 H1064 0.961 . S
C1049 H1065 0.960 . S
H1050 C1034 0.931 . S
H1051 C1039 0.929 . S
H1052 C1040 0.960 . S
H1053 C1040 0.962 . S
H1054 C1040 0.960 . S
H1055 C1041 0.961 . S
H1056 C1041 0.961 . S
H1057 C1041 0.961 . S
H1058 C1042 0.931 . S
H1059 C1047 0.930 . S
H1060 C1048 0.956 . S
H1061 C1048 0.961 . S
H1062 C1048 0.961 . S
H1063 C1049 0.958 . S
H1064 C1049 0.961 . S
H1065 C1049 0.960 . S
C1066 C1067 1.391 . S
C1066 C1068 1.394 . S
C1066 H1082 0.931 . S
C1067 C1066 1.391 . S
C1067 C1071 1.376 . S
C1068 C1066 1.394 . S
C1068 C1069 1.369 . S
C1068 C1072 1.531 . S
C1069 C1068 1.369 . S
C1069 C1070 1.410 . S
C1069 C1077 1.503 . S
C1070 C1069 1.410 . S
C1070 C1071 1.392 . S
C1070 C1073 1.511 . S
C1071 C1067 1.376 . S
C1071 C1070 1.392 . S
C1071 H1083 0.929 . S
C1072 C1068 1.531 . S
C1072 H1084 0.960 . S
C1072 H1085 0.962 . S
C1072 H1086 0.960 . S
C1073 C1070 1.511 . S
C1073 H1087 0.961 . S
C1073 H1088 0.961 . S
C1073 H1089 0.961 . S
C1074 C1075 1.370 . S
C1074 C1076 1.363 . S
C1074 H1090 0.931 . S
C1075 C1074 1.370 . S
C1075 C1079 1.408 . S
C1076 C1074 1.363 . S
C1076 C1077 1.370 . S
C1076 C1080 1.524 . S
C1077 C1069 1.503 . S
C1077 C1076 1.370 . S
C1077 C1078 1.403 . S
C1078 C1077 1.403 . S
C1078 C1079 1.404 . S
C1078 C1081 1.539 . S
C1079 C1075 1.408 . S
C1079 C1078 1.404 . S
C1079 H1091 0.930 . S
C1080 C1076 1.524 . S
C1080 H1092 0.956 . S
C1080 H1093 0.961 . S
C1080 H1094 0.961 . S
C1081 C1078 1.539 . S
C1081 H1095 0.958 . S
C1081 H1096 0.939 1_655 S
C1081 H1097 0.960 . S
H1082 C1066 0.931 . S
H1083 C1071 0.929 . S
H1084 C1072 0.960 . S
H1085 C1072 0.962 . S
H1086 C1072 0.960 . S
H1087 C1073 0.961 . S
H1088 C1073 0.961 . S
H1089 C1073 0.961 . S
H1090 C1074 0.931 . S
H1091 C1079 0.930 . S
H1092 C1080 0.956 . S
H1093 C1080 0.961 . S
H1094 C1080 0.961 . S
H1095 C1081 0.958 . S
H1096 C1081 0.939 1_455 S
H1097 C1081 0.960 . S
C1098 C1099 1.391 . S
C1098 C1100 1.394 . S
C1098 H1114 0.931 . S
C1099 C1098 1.391 . S
C1099 C1103 1.376 . S
C1100 C1098 1.394 . S
C1100 C1101 1.369 . S
C1100 C1104 1.531 . S
C1101 C1100 1.369 . S
C1101 C1102 1.410 . S
C1101 C1109 1.503 . S
C1102 C1101 1.410 . S
C1102 C1103 1.392 . S
C1102 C1105 1.511 . S
C1103 C1099 1.376 . S
C1103 C1102 1.392 . S
C1103 H1115 0.929 . S
C1104 C1100 1.531 . S
C1104 H1116 0.960 . S
C1104 H1117 0.962 . S
C1104 H1118 0.960 . S
C1105 C1102 1.511 . S
C1105 H1119 0.961 . S
C1105 H1120 0.961 . S
C1105 H1121 0.961 . S
C1106 C1107 1.370 . S
C1106 C1108 1.363 . S
C1106 H1122 0.931 . S
C1107 C1106 1.370 . S
C1107 C1111 1.408 . S
C1108 C1106 1.363 . S
C1108 C1109 1.370 . S
C1108 C1112 1.524 . S
C1109 C1101 1.503 . S
C1109 C1108 1.370 . S
C1109 C1110 1.403 . S
C1110 C1109 1.403 . S
C1110 C1111 1.404 . S
C1110 C1113 1.539 . S
C1111 C1107 1.408 . S
C1111 C1110 1.404 . S
C1111 H1123 0.930 . S
C1112 C1108 1.524 . S
C1112 H1124 0.956 . S
C1112 H1125 0.961 . S
C1112 H1126 0.961 . S
C1113 C1110 1.539 . S
C1113 H1127 0.958 . S
C1113 H1128 0.961 . S
C1113 H1129 0.960 . S
H1114 C1098 0.931 . S
H1115 C1103 0.929 . S
H1116 C1104 0.960 . S
H1117 C1104 0.962 . S
H1118 C1104 0.960 . S
H1119 C1105 0.961 . S
H1120 C1105 0.961 . S
H1121 C1105 0.961 . S
H1122 C1106 0.931 . S
H1123 C1111 0.930 . S
H1124 C1112 0.956 . S
H1125 C1112 0.961 . S
H1126 C1112 0.961 . S
H1127 C1113 0.958 . S
H1128 C1113 0.961 . S
H1129 C1113 0.960 . S
C1130 C1131 1.391 . S
C1130 C1132 1.394 . S
C1130 H1146 0.931 . S
C1131 C1130 1.391 . S
C1131 C1135 1.376 . S
C1132 C1130 1.394 . S
C1132 C1133 1.369 . S
C1132 C1136 1.531 . S
C1133 C1132 1.369 . S
C1133 C1134 1.410 . S
C1133 C1141 1.503 . S
C1134 C1133 1.410 . S
C1134 C1135 1.392 . S
C1134 C1137 1.511 . S
C1135 C1131 1.376 . S
C1135 C1134 1.392 . S
C1135 H1147 0.929 . S
C1136 C1132 1.531 . S
C1136 H1148 0.960 . S
C1136 H1149 0.962 . S
C1136 H1150 0.960 . S
C1137 C1134 1.511 . S
C1137 H1151 0.961 . S
C1137 H1152 0.961 . S
C1137 H1153 0.961 . S
C1138 C1139 1.370 . S
C1138 C1140 1.363 . S
C1138 H1154 0.931 . S
C1139 C1138 1.370 . S
C1139 C1143 1.408 . S
C1140 C1138 1.363 . S
C1140 C1141 1.370 . S
C1140 C1144 1.524 . S
C1141 C1133 1.503 . S
C1141 C1140 1.370 . S
C1141 C1142 1.403 . S
C1142 C1141 1.403 . S
C1142 C1143 1.404 . S
C1142 C1145 1.539 . S
C1143 C1139 1.408 . S
C1143 C1142 1.404 . S
C1143 H1155 0.930 . S
C1144 C1140 1.524 . S
C1144 H1156 0.956 . S
C1144 H1157 0.961 . S
C1144 H1158 0.961 . S
C1145 C1142 1.539 . S
C1145 H1159 0.958 . S
C1145 H1160 0.961 . S
C1145 H1161 0.960 . S
H1146 C1130 0.931 . S
H1147 C1135 0.929 . S
H1148 C1136 0.960 . S
H1149 C1136 0.962 . S
H1150 C1136 0.960 . S
H1151 C1137 0.961 . S
H1152 C1137 0.961 . S
H1153 C1137 0.961 . S
H1154 C1138 0.931 . S
H1155 C1143 0.930 . S
H1156 C1144 0.956 . S
H1157 C1144 0.961 . S
H1158 C1144 0.961 . S
H1159 C1145 0.958 . S
H1160 C1145 0.961 . S
H1161 C1145 0.960 . S
C1162 C1163 1.391 . S
C1162 C1164 1.394 . S
C1162 H1178 0.931 . S
C1163 C1162 1.391 . S
C1163 C1167 1.376 . S
C1164 C1162 1.394 . S
C1164 C1165 1.369 . S
C1164 C1168 1.531 . S
C1165 C1164 1.369 . S
C1165 C1166 1.410 . S
C1165 C1173 1.503 . S
C1166 C1165 1.410 . S
C1166 C1167 1.392 . S
C1166 C1169 1.511 . S
C1167 C1163 1.376 . S
C1167 C1166 1.392 . S
C1167 H1179 0.929 . S
C1168 C1164 1.531 . S
C1168 H1180 0.960 . S
C1168 H1181 0.962 . S
C1168 H1182 0.960 . S
C1169 C1166 1.511 . S
C1169 H1183 0.961 . S
C1169 H1184 0.961 . S
C1169 H1185 0.961 . S
C1170 C1171 1.370 . S
C1170 C1172 1.363 . S
C1170 H1186 0.931 . S
C1171 C1170 1.370 . S
C1171 C1175 1.408 . S
C1172 C1170 1.363 . S
C1172 C1173 1.370 . S
C1172 C1176 1.524 . S
C1173 C1165 1.503 . S
C1173 C1172 1.370 . S
C1173 C1174 1.403 . S
C1174 C1173 1.403 . S
C1174 C1175 1.404 . S
C1174 C1177 1.539 . S
C1175 C1171 1.408 . S
C1175 C1174 1.404 . S
C1175 H1187 0.930 . S
C1176 C1172 1.524 . S
C1176 H1188 0.956 . S
C1176 H1189 0.961 . S
C1176 H1190 0.961 . S
C1177 C1174 1.539 . S
C1177 H1191 0.958 . S
C1177 H1192 0.961 . S
C1177 H1193 0.960 . S
H1178 C1162 0.931 . S
H1179 C1167 0.929 . S
H1180 C1168 0.960 . S
H1181 C1168 0.962 . S
H1182 C1168 0.960 . S
H1183 C1169 0.961 . S
H1184 C1169 0.961 . S
H1185 C1169 0.961 . S
H1186 C1170 0.931 . S
H1187 C1175 0.930 . S
H1188 C1176 0.956 . S
H1189 C1176 0.961 . S
H1190 C1176 0.961 . S
H1191 C1177 0.958 . S
H1192 C1177 0.961 . S
H1193 C1177 0.960 . S
C1194 C1195 1.391 . S
C1194 C1196 1.394 . S
C1194 H1210 0.931 . S
C1195 C1194 1.391 . S
C1195 C1199 1.376 . S
C1196 C1194 1.394 . S
C1196 C1197 1.369 . S
C1196 C1200 1.531 . S
C1197 C1196 1.369 . S
C1197 C1198 1.410 . S
C1197 C1205 1.503 . S
C1198 C1197 1.410 . S
C1198 C1199 1.392 . S
C1198 C1201 1.511 . S
C1199 C1195 1.376 . S
C1199 C1198 1.392 . S
C1199 H1211 0.929 . S
C1200 C1196 1.531 . S
C1200 H1212 0.960 . S
C1200 H1213 0.962 . S
C1200 H1214 0.960 . S
C1201 C1198 1.511 . S
C1201 H1215 0.961 . S
C1201 H1216 0.961 . S
C1201 H1217 0.961 . S
C1202 C1203 1.370 . S
C1202 C1204 1.363 . S
C1202 H1218 0.931 . S
C1203 C1202 1.370 . S
C1203 C1207 1.408 . S
C1204 C1202 1.363 . S
C1204 C1205 1.370 . S
C1204 C1208 1.524 . S
C1205 C1197 1.503 . S
C1205 C1204 1.370 . S
C1205 C1206 1.403 . S
C1206 C1205 1.403 . S
C1206 C1207 1.404 . S
C1206 C1209 1.539 . S
C1207 C1203 1.408 . S
C1207 C1206 1.404 . S
C1207 H1219 0.930 . S
C1208 C1204 1.524 . S
C1208 H1220 0.956 . S
C1208 H1221 0.961 . S
C1208 H1222 0.961 . S
C1209 C1206 1.539 . S
C1209 H1223 0.958 . S
C1209 H1224 0.961 . S
C1209 H1225 0.960 . S
H1210 C1194 0.931 . S
H1211 C1199 0.929 . S
H1212 C1200 0.960 . S
H1213 C1200 0.962 . S
H1214 C1200 0.960 . S
H1215 C1201 0.961 . S
H1216 C1201 0.961 . S
H1217 C1201 0.961 . S
H1218 C1202 0.931 . S
H1219 C1207 0.930 . S
H1220 C1208 0.956 . S
H1221 C1208 0.961 . S
H1222 C1208 0.961 . S
H1223 C1209 0.958 . S
H1224 C1209 0.961 . S
H1225 C1209 0.960 . S
C1226 C1227 1.391 . S
C1226 C1228 1.394 . S
C1226 H1242 0.931 . S
C1227 C1226 1.391 . S
C1227 C1231 1.376 . S
C1228 C1226 1.394 . S
C1228 C1229 1.369 . S
C1228 C1232 1.531 . S
C1229 C1228 1.369 . S
C1229 C1230 1.410 . S
C1229 C1237 1.503 . S
C1230 C1229 1.410 . S
C1230 C1231 1.392 . S
C1230 C1233 1.511 . S
C1231 C1227 1.376 . S
C1231 C1230 1.392 . S
C1231 H1243 0.929 . S
C1232 C1228 1.531 . S
C1232 H1244 0.960 . S
C1232 H1245 0.962 . S
C1232 H1246 0.960 . S
C1233 C1230 1.511 . S
C1233 H1247 0.961 . S
C1233 H1248 0.961 . S
C1233 H1249 0.961 . S
C1234 C1235 1.370 . S
C1234 C1236 1.363 . S
C1234 H1250 0.931 . S
C1235 C1234 1.370 . S
C1235 C1239 1.408 . S
C1236 C1234 1.363 . S
C1236 C1237 1.370 . S
C1236 C1240 1.524 . S
C1237 C1229 1.503 . S
C1237 C1236 1.370 . S
C1237 C1238 1.403 . S
C1238 C1237 1.403 . S
C1238 C1239 1.404 . S
C1238 C1241 1.539 . S
C1239 C1235 1.408 . S
C1239 C1238 1.404 . S
C1239 H1251 0.930 . S
C1240 C1236 1.524 . S
C1240 H1252 0.956 . S
C1240 H1253 0.961 . S
C1240 H1254 0.961 . S
C1241 C1238 1.539 . S
C1241 H1255 0.958 . S
C1241 H1256 0.961 . S
C1241 H1257 0.960 . S
H1242 C1226 0.931 . S
H1243 C1231 0.929 . S
H1244 C1232 0.960 . S
H1245 C1232 0.962 . S
H1246 C1232 0.960 . S
H1247 C1233 0.961 . S
H1248 C1233 0.961 . S
H1249 C1233 0.961 . S
H1250 C1234 0.931 . S
H1251 C1239 0.930 . S
H1252 C1240 0.956 . S
H1253 C1240 0.961 . S
H1254 C1240 0.961 . S
H1255 C1241 0.958 . S
H1256 C1241 0.961 . S
H1257 C1241 0.960 . S
C1258 C1259 1.391 . S
C1258 C1260 1.394 . S
C1258 H1274 0.931 . S
C1259 C1258 1.391 . S
C1259 C1263 1.376 . S
C1260 C1258 1.394 . S
C1260 C1261 1.369 . S
C1260 C1264 1.531 . S
C1261 C1260 1.369 . S
C1261 C1262 1.410 . S
C1261 C1269 1.503 . S
C1262 C1261 1.410 . S
C1262 C1263 1.392 . S
C1262 C1265 1.511 . S
C1263 C1259 1.376 . S
C1263 C1262 1.392 . S
C1263 H1275 0.929 . S
C1264 C1260 1.531 . S
C1264 H1276 0.960 . S
C1264 H1277 0.962 . S
C1264 H1278 0.960 . S
C1265 C1262 1.511 . S
C1265 H1279 0.961 . S
C1265 H1280 0.961 . S
C1265 H1281 0.961 . S
C1266 C1267 1.370 . S
C1266 C1268 1.363 . S
C1266 H1282 0.931 . S
C1267 C1266 1.370 . S
C1267 C1271 1.408 . S
C1268 C1266 1.363 . S
C1268 C1269 1.370 . S
C1268 C1272 1.524 . S
C1269 C1261 1.503 . S
C1269 C1268 1.370 . S
C1269 C1270 1.403 . S
C1270 C1269 1.403 . S
C1270 C1271 1.404 . S
C1270 C1273 1.539 . S
C1271 C1267 1.408 . S
C1271 C1270 1.404 . S
C1271 H1283 0.930 . S
C1272 C1268 1.524 . S
C1272 H1284 0.956 . S
C1272 H1285 0.961 . S
C1272 H1286 0.961 . S
C1273 C1270 1.539 . S
C1273 H1287 0.958 . S
C1273 H1288 0.961 . S
C1273 H1289 0.960 . S
H1274 C1258 0.931 . S
H1275 C1263 0.929 . S
H1276 C1264 0.960 . S
H1277 C1264 0.962 . S
H1278 C1264 0.960 . S
H1279 C1265 0.961 . S
H1280 C1265 0.961 . S
H1281 C1265 0.961 . S
H1282 C1266 0.931 . S
H1283 C1271 0.930 . S
H1284 C1272 0.956 . S
H1285 C1272 0.961 . S
H1286 C1272 0.961 . S
H1287 C1273 0.958 . S
H1288 C1273 0.961 . S
H1289 C1273 0.960 . S
C1290 C1291 1.391 . S
C1290 C1292 1.394 . S
C1290 H1306 0.931 . S
C1291 C1290 1.391 . S
C1291 C1295 1.376 . S
C1292 C1290 1.394 . S
C1292 C1293 1.369 . S
C1292 C1296 1.531 . S
C1293 C1292 1.369 . S
C1293 C1294 1.410 . S
C1293 C1301 1.503 . S
C1294 C1293 1.410 . S
C1294 C1295 1.392 . S
C1294 C1297 1.511 . S
C1295 C1291 1.376 . S
C1295 C1294 1.392 . S
C1295 H1307 0.929 . S
C1296 C1292 1.531 . S
C1296 H1308 0.960 . S
C1296 H1309 0.962 . S
C1296 H1310 0.960 . S
C1297 C1294 1.511 . S
C1297 H1311 0.961 . S
C1297 H1312 0.961 . S
C1297 H1313 0.961 . S
C1298 C1299 1.370 . S
C1298 C1300 1.363 . S
C1298 H1314 0.931 . S
C1299 C1298 1.370 . S
C1299 C1303 1.408 . S
C1300 C1298 1.363 . S
C1300 C1301 1.370 . S
C1300 C1304 1.524 . S
C1301 C1293 1.503 . S
C1301 C1300 1.370 . S
C1301 C1302 1.403 . S
C1302 C1301 1.403 . S
C1302 C1303 1.404 . S
C1302 C1305 1.539 . S
C1303 C1299 1.408 . S
C1303 C1302 1.404 . S
C1303 H1315 0.930 . S
C1304 C1300 1.524 . S
C1304 H1316 0.956 . S
C1304 H1317 0.961 . S
C1304 H1318 0.961 . S
C1305 C1302 1.539 . S
C1305 H1319 0.958 . S
C1305 H1320 0.961 . S
C1305 H1321 0.960 . S
H1306 C1290 0.931 . S
H1307 C1295 0.929 . S
H1308 C1296 0.960 . S
H1309 C1296 0.962 . S
H1310 C1296 0.960 . S
H1311 C1297 0.961 . S
H1312 C1297 0.961 . S
H1313 C1297 0.961 . S
H1314 C1298 0.931 . S
H1315 C1303 0.930 . S
H1316 C1304 0.956 . S
H1317 C1304 0.961 . S
H1318 C1304 0.961 . S
H1319 C1305 0.958 . S
H1320 C1305 0.961 . S
H1321 C1305 0.960 . S
C1322 C1323 1.391 . S
C1322 C1324 1.394 . S
C1322 H1338 0.931 . S
C1323 C1322 1.391 . S
C1323 C1327 1.376 . S
C1324 C1322 1.394 . S
C1324 C1325 1.369 . S
C1324 C1328 1.531 . S
C1325 C1324 1.369 . S
C1325 C1326 1.410 . S
C1325 C1333 1.503 . S
C1326 C1325 1.410 . S
C1326 C1327 1.392 . S
C1326 C1329 1.511 . S
C1327 C1323 1.376 . S
C1327 C1326 1.392 . S
C1327 H1339 0.929 . S
C1328 C1324 1.531 . S
C1328 H1340 0.960 . S
C1328 H1341 0.962 . S
C1328 H1342 0.960 . S
C1329 C1326 1.511 . S
C1329 H1343 0.961 . S
C1329 H1344 0.961 . S
C1329 H1345 0.961 . S
C1330 C1331 1.370 . S
C1330 C1332 1.363 . S
C1330 H1346 0.931 . S
C1331 C1330 1.370 . S
C1331 C1335 1.408 . S
C1332 C1330 1.363 . S
C1332 C1333 1.370 . S
C1332 C1336 1.524 . S
C1333 C1325 1.503 . S
C1333 C1332 1.370 . S
C1333 C1334 1.403 . S
C1334 C1333 1.403 . S
C1334 C1335 1.404 . S
C1334 C1337 1.539 . S
C1335 C1331 1.408 . S
C1335 C1334 1.404 . S
C1335 H1347 0.930 . S
C1336 C1332 1.524 . S
C1336 H1348 0.956 . S
C1336 H1349 0.961 . S
C1336 H1350 0.961 . S
C1337 C1334 1.539 . S
C1337 H1351 0.958 . S
C1337 H1352 0.961 . S
C1337 H1353 0.960 . S
H1338 C1322 0.931 . S
H1339 C1327 0.929 . S
H1340 C1328 0.960 . S
H1341 C1328 0.962 . S
H1342 C1328 0.960 . S
H1343 C1329 0.961 . S
H1344 C1329 0.961 . S
H1345 C1329 0.961 . S
H1346 C1330 0.931 . S
H1347 C1335 0.930 . S
H1348 C1336 0.956 . S
H1349 C1336 0.961 . S
H1350 C1336 0.961 . S
H1351 C1337 0.958 . S
H1352 C1337 0.961 . S
H1353 C1337 0.960 . S
C1354 C1355 1.391 . S
C1354 C1356 1.394 . S
C1354 H1370 0.931 . S
C1355 C1354 1.391 . S
C1355 C1359 1.376 . S
C1356 C1354 1.394 . S
C1356 C1357 1.369 . S
C1356 C1360 1.531 . S
C1357 C1356 1.369 . S
C1357 C1358 1.410 . S
C1357 C1365 1.503 . S
C1358 C1357 1.410 . S
C1358 C1359 1.392 . S
C1358 C1361 1.511 . S
C1359 C1355 1.376 . S
C1359 C1358 1.392 . S
C1359 H1371 0.929 . S
C1360 C1356 1.531 . S
C1360 H1372 0.960 . S
C1360 H1373 0.962 . S
C1360 H1374 0.960 . S
C1361 C1358 1.511 . S
C1361 H1375 0.961 . S
C1361 H1376 0.961 . S
C1361 H1377 0.961 . S
C1362 C1363 1.370 . S
C1362 C1364 1.363 . S
C1362 H1378 0.931 . S
C1363 C1362 1.370 . S
C1363 C1367 1.408 . S
C1364 C1362 1.363 . S
C1364 C1365 1.370 . S
C1364 C1368 1.524 . S
C1365 C1357 1.503 . S
C1365 C1364 1.370 . S
C1365 C1366 1.403 . S
C1366 C1365 1.403 . S
C1366 C1367 1.404 . S
C1366 C1369 1.539 . S
C1367 C1363 1.408 . S
C1367 C1366 1.404 . S
C1367 H1379 0.930 . S
C1368 C1364 1.524 . S
C1368 H1380 0.956 . S
C1368 H1381 0.961 . S
C1368 H1382 0.961 . S
C1369 C1366 1.539 . S
C1369 H1383 0.958 . S
C1369 H1384 0.961 . S
C1369 H1385 0.960 . S
H1370 C1354 0.931 . S
H1371 C1359 0.929 . S
H1372 C1360 0.960 . S
H1373 C1360 0.962 . S
H1374 C1360 0.960 . S
H1375 C1361 0.961 . S
H1376 C1361 0.961 . S
H1377 C1361 0.961 . S
H1378 C1362 0.931 . S
H1379 C1367 0.930 . S
H1380 C1368 0.956 . S
H1381 C1368 0.961 . S
H1382 C1368 0.961 . S
H1383 C1369 0.958 . S
H1384 C1369 0.961 . S
H1385 C1369 0.960 . S
C1386 C1387 1.391 . S
C1386 C1388 1.394 . S
C1386 H1402 0.931 . S
C1387 C1386 1.391 . S
C1387 C1391 1.376 . S
C1388 C1386 1.394 . S
C1388 C1389 1.369 . S
C1388 C1392 1.531 . S
C1389 C1388 1.369 . S
C1389 C1390 1.410 . S
C1389 C1397 1.503 . S
C1390 C1389 1.410 . S
C1390 C1391 1.392 . S
C1390 C1393 1.511 . S
C1391 C1387 1.376 . S
C1391 C1390 1.392 . S
C1391 H1403 0.929 . S
C1392 C1388 1.531 . S
C1392 H1404 0.960 . S
C1392 H1405 0.962 . S
C1392 H1406 0.960 . S
C1393 C1390 1.511 . S
C1393 H1407 0.961 . S
C1393 H1408 0.961 . S
C1393 H1409 0.961 . S
C1394 C1395 1.370 . S
C1394 C1396 1.363 . S
C1394 H1410 0.931 . S
C1395 C1394 1.370 . S
C1395 C1399 1.408 . S
C1396 C1394 1.363 . S
C1396 C1397 1.370 . S
C1396 C1400 1.524 . S
C1397 C1389 1.503 . S
C1397 C1396 1.370 . S
C1397 C1398 1.403 . S
C1398 C1397 1.403 . S
C1398 C1399 1.404 . S
C1398 C1401 1.539 . S
C1399 C1395 1.408 . S
C1399 C1398 1.404 . S
C1399 H1411 0.930 . S
C1400 C1396 1.524 . S
C1400 H1412 0.956 . S
C1400 H1413 0.961 . S
C1400 H1414 0.961 . S
C1401 C1398 1.539 . S
C1401 H1415 0.958 . S
C1401 H1416 0.961 . S
C1401 H1417 0.960 . S
H1402 C1386 0.931 . S
H1403 C1391 0.929 . S
H1404 C1392 0.960 . S
H1405 C1392 0.962 . S
H1406 C1392 0.960 . S
H1407 C1393 0.961 . S
H1408 C1393 0.961 . S
H1409 C1393 0.961 . S
H1410 C1394 0.931 . S
H1411 C1399 0.930 . S
H1412 C1400 0.956 . S
H1413 C1400 0.961 . S
H1414 C1400 0.961 . S
H1415 C1401 0.958 . S
H1416 C1401 0.961 . S
H1417 C1401 0.960 . S
C1418 C1419 1.391 . S
C1418 C1420 1.394 . S
C1418 H1434 0.931 . S
C1419 C1418 1.391 . S
C1419 C1423 1.376 . S
C1420 C1418 1.394 . S
C1420 C1421 1.369 . S
C1420 C1424 1.531 . S
C1421 C1420 1.369 . S
C1421 C1422 1.410 . S
C1421 C1429 1.503 . S
C1422 C1421 1.410 . S
C1422 C1423 1.392 . S
C1422 C1425 1.511 . S
C1423 C1419 1.376 . S
C1423 C1422 1.392 . S
C1423 H1435 0.929 . S
C1424 C1420 1.531 . S
C1424 H1436 0.960 . S
C1424 H1437 0.962 . S
C1424 H1438 0.960 . S
C1425 C1422 1.511 . S
C1425 H1439 0.961 . S
C1425 H1440 0.961 . S
C1425 H1441 0.961 . S
C1426 C1427 1.370 . S
C1426 C1428 1.363 . S
C1426 H1442 0.931 . S
C1427 C1426 1.370 . S
C1427 C1431 1.408 . S
C1428 C1426 1.363 . S
C1428 C1429 1.370 . S
C1428 C1432 1.524 . S
C1429 C1421 1.503 . S
C1429 C1428 1.370 . S
C1429 C1430 1.403 . S
C1430 C1429 1.403 . S
C1430 C1431 1.404 . S
C1430 C1433 1.539 . S
C1431 C1427 1.408 . S
C1431 C1430 1.404 . S
C1431 H1443 0.930 . S
C1432 C1428 1.524 . S
C1432 H1444 0.956 . S
C1432 H1445 0.961 . S
C1432 H1446 0.961 . S
C1433 C1430 1.539 . S
C1433 H1447 0.958 . S
C1433 H1448 0.961 . S
C1433 H1449 0.960 . S
H1434 C1418 0.931 . S
H1435 C1423 0.929 . S
H1436 C1424 0.960 . S
H1437 C1424 0.962 . S
H1438 C1424 0.960 . S
H1439 C1425 0.961 . S
H1440 C1425 0.961 . S
H1441 C1425 0.961 . S
H1442 C1426 0.931 . S
H1443 C1431 0.930 . S
H1444 C1432 0.956 . S
H1445 C1432 0.961 . S
H1446 C1432 0.961 . S
H1447 C1433 0.958 . S
H1448 C1433 0.961 . S
H1449 C1433 0.960 . S
C1450 C1451 1.391 . S
C1450 C1452 1.394 . S
C1450 H1466 0.931 . S
C1451 C1450 1.391 . S
C1451 C1455 1.376 . S
C1452 C1450 1.394 . S
C1452 C1453 1.369 . S
C1452 C1456 1.531 . S
C1453 C1452 1.369 . S
C1453 C1454 1.410 . S
C1453 C1461 1.503 . S
C1454 C1453 1.410 . S
C1454 C1455 1.392 . S
C1454 C1457 1.511 . S
C1455 C1451 1.376 . S
C1455 C1454 1.392 . S
C1455 H1467 0.929 . S
C1456 C1452 1.531 . S
C1456 H1468 0.960 . S
C1456 H1469 0.962 . S
C1456 H1470 0.960 . S
C1457 C1454 1.511 . S
C1457 H1471 0.961 . S
C1457 H1472 0.961 . S
C1457 H1473 0.961 . S
C1458 C1459 1.370 . S
C1458 C1460 1.363 . S
C1458 H1474 0.931 . S
C1459 C1458 1.370 . S
C1459 C1463 1.408 . S
C1460 C1458 1.363 . S
C1460 C1461 1.370 . S
C1460 C1464 1.524 . S
C1461 C1453 1.503 . S
C1461 C1460 1.370 . S
C1461 C1462 1.403 . S
C1462 C1461 1.403 . S
C1462 C1463 1.404 . S
C1462 C1465 1.539 . S
C1463 C1459 1.408 . S
C1463 C1462 1.404 . S
C1463 H1475 0.930 . S
C1464 C1460 1.524 . S
C1464 H1476 0.956 . S
C1464 H1477 0.961 . S
C1464 H1478 0.961 . S
C1465 C1462 1.539 . S
C1465 H1479 0.958 . S
C1465 H1480 0.961 . S
C1465 H1481 0.960 . S
H1466 C1450 0.931 . S
H1467 C1455 0.929 . S
H1468 C1456 0.960 . S
H1469 C1456 0.962 . S
H1470 C1456 0.960 . S
H1471 C1457 0.961 . S
H1472 C1457 0.961 . S
H1473 C1457 0.961 . S
H1474 C1458 0.931 . S
H1475 C1463 0.930 . S
H1476 C1464 0.956 . S
H1477 C1464 0.961 . S
H1478 C1464 0.961 . S
H1479 C1465 0.958 . S
H1480 C1465 0.961 . S
H1481 C1465 0.960 . S
C1482 C1483 1.391 . S
C1482 C1484 1.394 . S
C1482 H1498 0.931 . S
C1483 C1482 1.391 . S
C1483 C1487 1.376 . S
C1484 C1482 1.394 . S
C1484 C1485 1.369 . S
C1484 C1488 1.531 . S
C1485 C1484 1.369 . S
C1485 C1486 1.410 . S
C1485 C1493 1.503 . S
C1486 C1485 1.410 . S
C1486 C1487 1.392 . S
C1486 C1489 1.511 . S
C1487 C1483 1.376 . S
C1487 C1486 1.392 . S
C1487 H1499 0.929 . S
C1488 C1484 1.531 . S
C1488 H1500 0.960 . S
C1488 H1501 0.962 . S
C1488 H1502 0.960 . S
C1489 C1486 1.511 . S
C1489 H1503 0.961 . S
C1489 H1504 0.961 . S
C1489 H1505 0.961 . S
C1490 C1491 1.370 . S
C1490 C1492 1.363 . S
C1490 H1506 0.931 . S
C1491 C1490 1.370 . S
C1491 C1495 1.408 . S
C1492 C1490 1.363 . S
C1492 C1493 1.370 . S
C1492 C1496 1.524 . S
C1493 C1485 1.503 . S
C1493 C1492 1.370 . S
C1493 C1494 1.403 . S
C1494 C1493 1.403 . S
C1494 C1495 1.404 . S
C1494 C1497 1.539 . S
C1495 C1491 1.408 . S
C1495 C1494 1.404 . S
C1495 H1507 0.930 . S
C1496 C1492 1.524 . S
C1496 H1508 0.956 . S
C1496 H1509 0.961 . S
C1496 H1510 0.961 . S
C1497 C1494 1.539 . S
C1497 H1511 0.958 . S
C1497 H1512 0.961 . S
C1497 H1513 0.960 . S
H1498 C1482 0.931 . S
H1499 C1487 0.929 . S
H1500 C1488 0.960 . S
H1501 C1488 0.962 . S
H1502 C1488 0.960 . S
H1503 C1489 0.961 . S
H1504 C1489 0.961 . S
H1505 C1489 0.961 . S
H1506 C1490 0.931 . S
H1507 C1495 0.930 . S
H1508 C1496 0.956 . S
H1509 C1496 0.961 . S
H1510 C1496 0.961 . S
H1511 C1497 0.958 . S
H1512 C1497 0.961 . S
H1513 C1497 0.960 . S
C1514 C1515 1.391 . S
C1514 C1516 1.394 . S
C1514 H1530 0.931 . S
C1515 C1514 1.391 . S
C1515 C1519 1.376 . S
C1516 C1514 1.394 . S
C1516 C1517 1.369 . S
C1516 C1520 1.531 . S
C1517 C1516 1.369 . S
C1517 C1518 1.410 . S
C1517 C1525 1.503 . S
C1518 C1517 1.410 . S
C1518 C1519 1.392 . S
C1518 C1521 1.511 . S
C1519 C1515 1.376 . S
C1519 C1518 1.392 . S
C1519 H1531 0.929 . S
C1520 C1516 1.531 . S
C1520 H1532 0.960 . S
C1520 H1533 0.962 . S
C1520 H1534 0.960 . S
C1521 C1518 1.511 . S
C1521 H1535 0.961 . S
C1521 H1536 0.961 . S
C1521 H1537 0.961 . S
C1522 C1523 1.370 . S
C1522 C1524 1.363 . S
C1522 H1538 0.931 . S
C1523 C1522 1.370 . S
C1523 C1527 1.408 . S
C1524 C1522 1.363 . S
C1524 C1525 1.370 . S
C1524 C1528 1.524 . S
C1525 C1517 1.503 . S
C1525 C1524 1.370 . S
C1525 C1526 1.403 . S
C1526 C1525 1.403 . S
C1526 C1527 1.404 . S
C1526 C1529 1.539 . S
C1527 C1523 1.408 . S
C1527 C1526 1.404 . S
C1527 H1539 0.930 . S
C1528 C1524 1.524 . S
C1528 H1540 0.956 . S
C1528 H1541 0.961 . S
C1528 H1542 0.961 . S
C1529 C1526 1.539 . S
C1529 H1543 0.958 . S
C1529 H1544 0.961 . S
C1529 H1545 0.960 . S
H1530 C1514 0.931 . S
H1531 C1519 0.929 . S
H1532 C1520 0.960 . S
H1533 C1520 0.962 . S
H1534 C1520 0.960 . S
H1535 C1521 0.961 . S
H1536 C1521 0.961 . S
H1537 C1521 0.961 . S
H1538 C1522 0.931 . S
H1539 C1527 0.930 . S
H1540 C1528 0.956 . S
H1541 C1528 0.961 . S
H1542 C1528 0.961 . S
H1543 C1529 0.958 . S
H1544 C1529 0.961 . S
H1545 C1529 0.960 . S
C1546 C1547 1.391 . S
C1546 C1548 1.394 . S
C1546 H1562 0.931 . S
C1547 C1546 1.391 . S
C1547 C1551 1.376 . S
C1548 C1546 1.394 . S
C1548 C1549 1.369 . S
C1548 C1552 1.531 . S
C1549 C1548 1.369 . S
C1549 C1550 1.410 . S
C1549 C1557 1.503 . S
C1550 C1549 1.410 . S
C1550 C1551 1.392 . S
C1550 C1553 1.511 . S
C1551 C1547 1.376 . S
C1551 C1550 1.392 . S
C1551 H1563 0.929 . S
C1552 C1548 1.531 . S
C1552 H1564 0.960 . S
C1552 H1565 0.962 . S
C1552 H1566 0.960 . S
C1553 C1550 1.511 . S
C1553 H1567 0.961 . S
C1553 H1568 0.961 . S
C1553 H1569 0.961 . S
C1554 C1555 1.370 . S
C1554 C1556 1.363 . S
C1554 H1570 0.931 . S
C1555 C1554 1.370 . S
C1555 C1559 1.408 . S
C1556 C1554 1.363 . S
C1556 C1557 1.370 . S
C1556 C1560 1.524 . S
C1557 C1549 1.503 . S
C1557 C1556 1.370 . S
C1557 C1558 1.403 . S
C1558 C1557 1.403 . S
C1558 C1559 1.404 . S
C1558 C1561 1.539 . S
C1559 C1555 1.408 . S
C1559 C1558 1.404 . S
C1559 H1571 0.930 . S
C1560 C1556 1.524 . S
C1560 H1572 0.956 . S
C1560 H1573 0.961 . S
C1560 H1574 0.961 . S
C1561 C1558 1.539 . S
C1561 H1575 0.958 . S
C1561 H1576 0.961 . S
C1561 H1577 0.960 . S
H1562 C1546 0.931 . S
H1563 C1551 0.929 . S
H1564 C1552 0.960 . S
H1565 C1552 0.962 . S
H1566 C1552 0.960 . S
H1567 C1553 0.961 . S
H1568 C1553 0.961 . S
H1569 C1553 0.961 . S
H1570 C1554 0.931 . S
H1571 C1559 0.930 . S
H1572 C1560 0.956 . S
H1573 C1560 0.961 . S
H1574 C1560 0.961 . S
H1575 C1561 0.958 . S
H1576 C1561 0.961 . S
H1577 C1561 0.960 . S
C1578 C1579 1.391 . S
C1578 C1580 1.394 . S
C1578 H1594 0.931 . S
C1579 C1578 1.391 . S
C1579 C1583 1.376 . S
C1580 C1578 1.394 . S
C1580 C1581 1.369 . S
C1580 C1584 1.531 . S
C1581 C1580 1.369 . S
C1581 C1582 1.410 . S
C1581 C1589 1.503 . S
C1582 C1581 1.410 . S
C1582 C1583 1.392 . S
C1582 C1585 1.511 . S
C1583 C1579 1.376 . S
C1583 C1582 1.392 . S
C1583 H1595 0.929 . S
C1584 C1580 1.531 . S
C1584 H1596 0.960 . S
C1584 H1597 0.962 . S
C1584 H1598 0.960 . S
C1585 C1582 1.511 . S
C1585 H1599 0.961 . S
C1585 H1600 0.961 . S
C1585 H1601 0.961 . S
C1586 C1587 1.370 . S
C1586 C1588 1.363 . S
C1586 H1602 0.931 . S
C1587 C1586 1.370 . S
C1587 C1591 1.408 . S
C1588 C1586 1.363 . S
C1588 C1589 1.370 . S
C1588 C1592 1.524 . S
C1589 C1581 1.503 . S
C1589 C1588 1.370 . S
C1589 C1590 1.403 . S
C1590 C1589 1.403 . S
C1590 C1591 1.404 . S
C1590 C1593 1.539 . S
C1591 C1587 1.408 . S
C1591 C1590 1.404 . S
C1591 H1603 0.930 . S
C1592 C1588 1.524 . S
C1592 H1604 0.956 . S
C1592 H1605 0.961 . S
C1592 H1606 0.961 . S
C1593 C1590 1.539 . S
C1593 H1607 0.958 . S
C1593 H1608 0.961 . S
C1593 H1609 0.960 . S
H1594 C1578 0.931 . S
H1595 C1583 0.929 . S
H1596 C1584 0.960 . S
H1597 C1584 0.962 . S
H1598 C1584 0.960 . S
H1599 C1585 0.961 . S
H1600 C1585 0.961 . S
H1601 C1585 0.961 . S
H1602 C1586 0.931 . S
H1603 C1591 0.930 . S
H1604 C1592 0.956 . S
H1605 C1592 0.961 . S
H1606 C1592 0.961 . S
H1607 C1593 0.958 . S
H1608 C1593 0.961 . S
H1609 C1593 0.960 . S
C1610 C1611 1.391 . S
C1610 C1612 1.394 . S
C1610 H1626 0.931 . S
C1611 C1610 1.391 . S
C1611 C1615 1.376 . S
C1612 C1610 1.394 . S
C1612 C1613 1.369 . S
C1612 C1616 1.531 . S
C1613 C1612 1.369 . S
C1613 C1614 1.410 . S
C1613 C1621 1.503 . S
C1614 C1613 1.410 . S
C1614 C1615 1.392 . S
C1614 C1617 1.511 . S
C1615 C1611 1.376 . S
C1615 C1614 1.392 . S
C1615 H1627 0.929 . S
C1616 C1612 1.531 . S
C1616 H1628 0.960 . S
C1616 H1629 0.962 . S
C1616 H1630 0.960 . S
C1617 C1614 1.511 . S
C1617 H1631 0.961 . S
C1617 H1632 0.961 . S
C1617 H1633 0.961 . S
C1618 C1619 1.370 . S
C1618 C1620 1.363 . S
C1618 H1634 0.931 . S
C1619 C1618 1.370 . S
C1619 C1623 1.408 . S
C1620 C1618 1.363 . S
C1620 C1621 1.370 . S
C1620 C1624 1.524 . S
C1621 C1613 1.503 . S
C1621 C1620 1.370 . S
C1621 C1622 1.403 . S
C1622 C1621 1.403 . S
C1622 C1623 1.404 . S
C1622 C1625 1.539 . S
C1623 C1619 1.408 . S
C1623 C1622 1.404 . S
C1623 H1635 0.930 . S
C1624 C1620 1.524 . S
C1624 H1636 0.956 . S
C1624 H1637 0.961 . S
C1624 H1638 0.961 . S
C1625 C1622 1.539 . S
C1625 H1639 0.958 . S
C1625 H1640 0.961 . S
C1625 H1641 0.960 . S
H1626 C1610 0.931 . S
H1627 C1615 0.929 . S
H1628 C1616 0.960 . S
H1629 C1616 0.962 . S
H1630 C1616 0.960 . S
H1631 C1617 0.961 . S
H1632 C1617 0.961 . S
H1633 C1617 0.961 . S
H1634 C1618 0.931 . S
H1635 C1623 0.930 . S
H1636 C1624 0.956 . S
H1637 C1624 0.961 . S
H1638 C1624 0.961 . S
H1639 C1625 0.958 . S
H1640 C1625 0.961 . S
H1641 C1625 0.960 . S
C1642 C1643 1.391 . S
C1642 C1644 1.394 . S
C1642 H1658 0.931 . S
C1643 C1642 1.391 . S
C1643 C1647 1.376 . S
C1644 C1642 1.394 . S
C1644 C1645 1.369 . S
C1644 C1648 1.531 . S
C1645 C1644 1.369 . S
C1645 C1646 1.410 . S
C1645 C1653 1.503 . S
C1646 C1645 1.410 . S
C1646 C1647 1.392 . S
C1646 C1649 1.511 . S
C1647 C1643 1.376 . S
C1647 C1646 1.392 . S
C1647 H1659 0.929 . S
C1648 C1644 1.531 . S
C1648 H1660 0.960 . S
C1648 H1661 0.962 . S
C1648 H1662 0.960 . S
C1649 C1646 1.511 . S
C1649 H1663 0.961 . S
C1649 H1664 0.961 . S
C1649 H1665 0.961 . S
C1650 C1651 1.370 . S
C1650 C1652 1.363 . S
C1650 H1666 0.931 . S
C1651 C1650 1.370 . S
C1651 C1655 1.408 . S
C1652 C1650 1.363 . S
C1652 C1653 1.370 . S
C1652 C1656 1.524 . S
C1653 C1645 1.503 . S
C1653 C1652 1.370 . S
C1653 C1654 1.403 . S
C1654 C1653 1.403 . S
C1654 C1655 1.404 . S
C1654 C1657 1.539 . S
C1655 C1651 1.408 . S
C1655 C1654 1.404 . S
C1655 H1667 0.930 . S
C1656 C1652 1.524 . S
C1656 H1668 0.956 . S
C1656 H1669 0.961 . S
C1656 H1670 0.961 . S
C1657 C1654 1.539 . S
C1657 H1671 0.958 . S
C1657 H1672 0.961 . S
C1657 H1673 0.960 . S
H1658 C1642 0.931 . S
H1659 C1647 0.929 . S
H1660 C1648 0.960 . S
H1661 C1648 0.962 . S
H1662 C1648 0.960 . S
H1663 C1649 0.961 . S
H1664 C1649 0.961 . S
H1665 C1649 0.961 . S
H1666 C1650 0.931 . S
H1667 C1655 0.930 . S
H1668 C1656 0.956 . S
H1669 C1656 0.961 . S
H1670 C1656 0.961 . S
H1671 C1657 0.958 . S
H1672 C1657 0.961 . S
H1673 C1657 0.960 . S
C1674 C1675 1.391 . S
C1674 C1676 1.394 . S
C1674 H1690 0.931 . S
C1675 C1674 1.391 . S
C1675 C1679 1.376 . S
C1676 C1674 1.394 . S
C1676 C1677 1.369 . S
C1676 C1680 1.531 . S
C1677 C1676 1.369 . S
C1677 C1678 1.410 . S
C1677 C1685 1.503 . S
C1678 C1677 1.410 . S
C1678 C1679 1.392 . S
C1678 C1681 1.511 . S
C1679 C1675 1.376 . S
C1679 C1678 1.392 . S
C1679 H1691 0.929 . S
C1680 C1676 1.531 . S
C1680 H1692 0.960 . S
C1680 H1693 0.962 . S
C1680 H1694 0.960 . S
C1681 C1678 1.511 . S
C1681 H1695 0.961 . S
C1681 H1696 0.961 . S
C1681 H1697 0.961 . S
C1682 C1683 1.370 . S
C1682 C1684 1.363 . S
C1682 H1698 0.931 . S
C1683 C1682 1.370 . S
C1683 C1687 1.408 . S
C1684 C1682 1.363 . S
C1684 C1685 1.370 . S
C1684 C1688 1.524 . S
C1685 C1677 1.503 . S
C1685 C1684 1.370 . S
C1685 C1686 1.403 . S
C1686 C1685 1.403 . S
C1686 C1687 1.404 . S
C1686 C1689 1.539 . S
C1687 C1683 1.408 . S
C1687 C1686 1.404 . S
C1687 H1699 0.930 . S
C1688 C1684 1.524 . S
C1688 H1700 0.956 . S
C1688 H1701 0.961 . S
C1688 H1702 0.961 . S
C1689 C1686 1.539 . S
C1689 H1703 0.958 . S
C1689 H1704 0.961 . S
C1689 H1705 0.960 . S
H1690 C1674 0.931 . S
H1691 C1679 0.929 . S
H1692 C1680 0.960 . S
H1693 C1680 0.962 . S
H1694 C1680 0.960 . S
H1695 C1681 0.961 . S
H1696 C1681 0.961 . S
H1697 C1681 0.961 . S
H1698 C1682 0.931 . S
H1699 C1687 0.930 . S
H1700 C1688 0.956 . S
H1701 C1688 0.961 . S
H1702 C1688 0.961 . S
H1703 C1689 0.958 . S
H1704 C1689 0.961 . S
H1705 C1689 0.960 . S
C1706 C1707 1.391 . S
C1706 C1708 1.394 . S
C1706 H1722 0.931 . S
C1707 C1706 1.391 . S
C1707 C1711 1.376 . S
C1708 C1706 1.394 . S
C1708 C1709 1.369 . S
C1708 C1712 1.531 . S
C1709 C1708 1.369 . S
C1709 C1710 1.410 . S
C1709 C1717 1.503 . S
C1710 C1709 1.410 . S
C1710 C1711 1.392 . S
C1710 C1713 1.511 . S
C1711 C1707 1.376 . S
C1711 C1710 1.392 . S
C1711 H1723 0.929 . S
C1712 C1708 1.531 . S
C1712 H1724 0.960 . S
C1712 H1725 0.962 . S
C1712 H1726 0.960 . S
C1713 C1710 1.511 . S
C1713 H1727 0.961 . S
C1713 H1728 0.961 . S
C1713 H1729 0.961 . S
C1714 C1715 1.370 . S
C1714 C1716 1.363 . S
C1714 H1730 0.931 . S
C1715 C1714 1.370 . S
C1715 C1719 1.408 . S
C1716 C1714 1.363 . S
C1716 C1717 1.370 . S
C1716 C1720 1.524 . S
C1717 C1709 1.503 . S
C1717 C1716 1.370 . S
C1717 C1718 1.403 . S
C1718 C1717 1.403 . S
C1718 C1719 1.404 . S
C1718 C1721 1.539 . S
C1719 C1715 1.408 . S
C1719 C1718 1.404 . S
C1719 H1731 0.930 . S
C1720 C1716 1.524 . S
C1720 H1732 0.956 . S
C1720 H1733 0.961 . S
C1720 H1734 0.961 . S
C1721 C1718 1.539 . S
C1721 H1735 0.958 . S
C1721 H1736 0.961 . S
C1721 H1737 0.960 . S
H1722 C1706 0.931 . S
H1723 C1711 0.929 . S
H1724 C1712 0.960 . S
H1725 C1712 0.962 . S
H1726 C1712 0.960 . S
H1727 C1713 0.961 . S
H1728 C1713 0.961 . S
H1729 C1713 0.961 . S
H1730 C1714 0.931 . S
H1731 C1719 0.930 . S
H1732 C1720 0.956 . S
H1733 C1720 0.961 . S
H1734 C1720 0.961 . S
H1735 C1721 0.958 . S
H1736 C1721 0.961 . S
H1737 C1721 0.960 . S
C1738 C1739 1.391 . S
C1738 C1740 1.394 . S
C1738 H1754 0.931 . S
C1739 C1738 1.391 . S
C1739 C1743 1.376 . S
C1740 C1738 1.394 . S
C1740 C1741 1.369 . S
C1740 C1744 1.531 . S
C1741 C1740 1.369 . S
C1741 C1742 1.410 . S
C1741 C1749 1.503 . S
C1742 C1741 1.410 . S
C1742 C1743 1.392 . S
C1742 C1745 1.511 . S
C1743 C1739 1.376 . S
C1743 C1742 1.392 . S
C1743 H1755 0.929 . S
C1744 C1740 1.531 . S
C1744 H1756 0.960 . S
C1744 H1757 0.962 . S
C1744 H1758 0.960 . S
C1745 C1742 1.511 . S
C1745 H1759 0.961 . S
C1745 H1760 0.961 . S
C1745 H1761 0.961 . S
C1746 C1747 1.370 . S
C1746 C1748 1.363 . S
C1746 H1762 0.931 . S
C1747 C1746 1.370 . S
C1747 C1751 1.408 . S
C1748 C1746 1.363 . S
C1748 C1749 1.370 . S
C1748 C1752 1.524 . S
C1749 C1741 1.503 . S
C1749 C1748 1.370 . S
C1749 C1750 1.403 . S
C1750 C1749 1.403 . S
C1750 C1751 1.404 . S
C1750 C1753 1.539 . S
C1751 C1747 1.408 . S
C1751 C1750 1.404 . S
C1751 H1763 0.930 . S
C1752 C1748 1.524 . S
C1752 H1764 0.956 . S
C1752 H1765 0.961 . S
C1752 H1766 0.961 . S
C1753 C1750 1.539 . S
C1753 H1767 0.958 . S
C1753 H1768 0.961 . S
C1753 H1769 0.960 . S
H1754 C1738 0.931 . S
H1755 C1743 0.929 . S
H1756 C1744 0.960 . S
H1757 C1744 0.962 . S
H1758 C1744 0.960 . S
H1759 C1745 0.961 . S
H1760 C1745 0.961 . S
H1761 C1745 0.961 . S
H1762 C1746 0.931 . S
H1763 C1751 0.930 . S
H1764 C1752 0.956 . S
H1765 C1752 0.961 . S
H1766 C1752 0.961 . S
H1767 C1753 0.958 . S
H1768 C1753 0.961 . S
H1769 C1753 0.960 . S
C1770 C1771 1.391 . S
C1770 C1772 1.394 . S
C1770 H1786 0.931 . S
C1771 C1770 1.391 . S
C1771 C1775 1.376 . S
C1772 C1770 1.394 . S
C1772 C1773 1.369 . S
C1772 C1776 1.531 . S
C1773 C1772 1.369 . S
C1773 C1774 1.410 . S
C1773 C1781 1.503 . S
C1774 C1773 1.410 . S
C1774 C1775 1.392 . S
C1774 C1777 1.511 . S
C1775 C1771 1.376 . S
C1775 C1774 1.392 . S
C1775 H1787 0.929 . S
C1776 C1772 1.531 . S
C1776 H1788 0.960 . S
C1776 H1789 0.962 . S
C1776 H1790 0.960 . S
C1777 C1774 1.511 . S
C1777 H1791 0.961 . S
C1777 H1792 0.961 . S
C1777 H1793 0.961 . S
C1778 C1779 1.370 . S
C1778 C1780 1.363 . S
C1778 H1794 0.931 . S
C1779 C1778 1.370 . S
C1779 C1783 1.408 . S
C1780 C1778 1.363 . S
C1780 C1781 1.370 . S
C1780 C1784 1.524 . S
C1781 C1773 1.503 . S
C1781 C1780 1.370 . S
C1781 C1782 1.403 . S
C1782 C1781 1.403 . S
C1782 C1783 1.404 . S
C1782 C1785 1.539 . S
C1783 C1779 1.408 . S
C1783 C1782 1.404 . S
C1783 H1795 0.930 . S
C1784 C1780 1.524 . S
C1784 H1796 0.956 . S
C1784 H1797 0.961 . S
C1784 H1798 0.961 . S
C1785 C1782 1.539 . S
C1785 H1799 0.958 . S
C1785 H1800 0.961 . S
C1785 H1801 0.960 . S
H1786 C1770 0.931 . S
H1787 C1775 0.929 . S
H1788 C1776 0.960 . S
H1789 C1776 0.962 . S
H1790 C1776 0.960 . S
H1791 C1777 0.961 . S
H1792 C1777 0.961 . S
H1793 C1777 0.961 . S
H1794 C1778 0.931 . S
H1795 C1783 0.930 . S
H1796 C1784 0.956 . S
H1797 C1784 0.961 . S
H1798 C1784 0.961 . S
H1799 C1785 0.958 . S
H1800 C1785 0.961 . S
H1801 C1785 0.960 . S
C1802 C1803 1.391 . S
C1802 C1804 1.394 . S
C1802 H1818 0.931 . S
C1803 C1802 1.391 . S
C1803 C1807 1.376 . S
C1804 C1802 1.394 . S
C1804 C1805 1.369 . S
C1804 C1808 1.531 . S
C1805 C1804 1.369 . S
C1805 C1806 1.410 . S
C1805 C1813 1.503 . S
C1806 C1805 1.410 . S
C1806 C1807 1.392 . S
C1806 C1809 1.511 . S
C1807 C1803 1.376 . S
C1807 C1806 1.392 . S
C1807 H1819 0.929 . S
C1808 C1804 1.531 . S
C1808 H1820 0.960 . S
C1808 H1821 0.962 . S
C1808 H1822 0.960 . S
C1809 C1806 1.511 . S
C1809 H1823 0.961 . S
C1809 H1824 0.961 . S
C1809 H1825 0.961 . S
C1810 C1811 1.370 . S
C1810 C1812 1.363 . S
C1810 H1826 0.931 . S
C1811 C1810 1.370 . S
C1811 C1815 1.408 . S
C1812 C1810 1.363 . S
C1812 C1813 1.370 . S
C1812 C1816 1.524 . S
C1813 C1805 1.503 . S
C1813 C1812 1.370 . S
C1813 C1814 1.403 . S
C1814 C1813 1.403 . S
C1814 C1815 1.404 . S
C1814 C1817 1.539 . S
C1815 C1811 1.408 . S
C1815 C1814 1.404 . S
C1815 H1827 0.930 . S
C1816 C1812 1.524 . S
C1816 H1828 0.956 . S
C1816 H1829 0.961 . S
C1816 H1830 0.961 . S
C1817 C1814 1.539 . S
C1817 H1831 0.958 . S
C1817 H1832 0.961 . S
C1817 H1833 0.960 . S
H1818 C1802 0.931 . S
H1819 C1807 0.929 . S
H1820 C1808 0.960 . S
H1821 C1808 0.962 . S
H1822 C1808 0.960 . S
H1823 C1809 0.961 . S
H1824 C1809 0.961 . S
H1825 C1809 0.961 . S
H1826 C1810 0.931 . S
H1827 C1815 0.930 . S
H1828 C1816 0.956 . S
H1829 C1816 0.961 . S
H1830 C1816 0.961 . S
H1831 C1817 0.958 . S
H1832 C1817 0.961 . S
H1833 C1817 0.960 . S
C1834 C1835 1.391 . S
C1834 C1836 1.394 . S
C1834 H1850 0.931 . S
C1835 C1834 1.391 . S
C1835 C1839 1.376 . S
C1836 C1834 1.394 . S
C1836 C1837 1.369 . S
C1836 C1840 1.531 . S
C1837 C1836 1.369 . S
C1837 C1838 1.410 . S
C1837 C1845 1.503 . S
C1838 C1837 1.410 . S
C1838 C1839 1.392 . S
C1838 C1841 1.511 . S
C1839 C1835 1.376 . S
C1839 C1838 1.392 . S
C1839 H1851 0.929 . S
C1840 C1836 1.531 . S
C1840 H1852 0.960 . S
C1840 H1853 0.962 . S
C1840 H1854 0.960 . S
C1841 C1838 1.511 . S
C1841 H1855 0.961 . S
C1841 H1856 0.961 . S
C1841 H1857 0.961 . S
C1842 C1843 1.370 . S
C1842 C1844 1.363 . S
C1842 H1858 0.931 . S
C1843 C1842 1.370 . S
C1843 C1847 1.408 . S
C1844 C1842 1.363 . S
C1844 C1845 1.370 . S
C1844 C1848 1.524 . S
C1845 C1837 1.503 . S
C1845 C1844 1.370 . S
C1845 C1846 1.403 . S
C1846 C1845 1.403 . S
C1846 C1847 1.404 . S
C1846 C1849 1.539 . S
C1847 C1843 1.408 . S
C1847 C1846 1.404 . S
C1847 H1859 0.930 . S
C1848 C1844 1.524 . S
C1848 H1860 0.956 . S
C1848 H1861 0.961 . S
C1848 H1862 0.961 . S
C1849 C1846 1.539 . S
C1849 H1863 0.958 . S
C1849 H1864 0.961 . S
C1849 H1865 0.960 . S
H1850 C1834 0.931 . S
H1851 C1839 0.929 . S
H1852 C1840 0.960 . S
H1853 C1840 0.962 . S
H1854 C1840 0.960 . S
H1855 C1841 0.961 . S
H1856 C1841 0.961 . S
H1857 C1841 0.961 . S
H1858 C1842 0.931 . S
H1859 C1847 0.930 . S
H1860 C1848 0.956 . S
H1861 C1848 0.961 . S
H1862 C1848 0.961 . S
H1863 C1849 0.958 . S
H1864 C1849 0.961 . S
H1865 C1849 0.960 . S
C1866 C1867 1.391 . S
C1866 C1868 1.394 . S
C1866 H1882 0.931 . S
C1867 C1866 1.391 . S
C1867 C1871 1.376 . S
C1868 C1866 1.394 . S
C1868 C1869 1.369 . S
C1868 C1872 1.531 . S
C1869 C1868 1.369 . S
C1869 C1870 1.410 . S
C1869 C1877 1.503 . S
C1870 C1869 1.410 . S
C1870 C1871 1.392 . S
C1870 C1873 1.511 . S
C1871 C1867 1.376 . S
C1871 C1870 1.392 . S
C1871 H1883 0.929 . S
C1872 C1868 1.531 . S
C1872 H1884 0.960 . S
C1872 H1885 0.962 . S
C1872 H1886 0.960 . S
C1873 C1870 1.511 . S
C1873 H1887 0.961 . S
C1873 H1888 0.961 . S
C1873 H1889 0.961 . S
C1874 C1875 1.370 . S
C1874 C1876 1.363 . S
C1874 H1890 0.931 . S
C1875 C1874 1.370 . S
C1875 C1879 1.408 . S
C1876 C1874 1.363 . S
C1876 C1877 1.370 . S
C1876 C1880 1.524 . S
C1877 C1869 1.503 . S
C1877 C1876 1.370 . S
C1877 C1878 1.403 . S
C1878 C1877 1.403 . S
C1878 C1879 1.404 . S
C1878 C1881 1.539 . S
C1879 C1875 1.408 . S
C1879 C1878 1.404 . S
C1879 H1891 0.930 . S
C1880 C1876 1.524 . S
C1880 H1892 0.956 . S
C1880 H1893 0.961 . S
C1880 H1894 0.961 . S
C1881 C1878 1.539 . S
C1881 H1895 0.958 . S
C1881 H1896 0.961 . S
C1881 H1897 0.960 . S
H1882 C1866 0.931 . S
H1883 C1871 0.929 . S
H1884 C1872 0.960 . S
H1885 C1872 0.962 . S
H1886 C1872 0.960 . S
H1887 C1873 0.961 . S
H1888 C1873 0.961 . S
H1889 C1873 0.961 . S
H1890 C1874 0.931 . S
H1891 C1879 0.930 . S
H1892 C1880 0.956 . S
H1893 C1880 0.961 . S
H1894 C1880 0.961 . S
H1895 C1881 0.958 . S
H1896 C1881 0.961 . S
H1897 C1881 0.960 . S
C1898 C1899 1.391 . S
C1898 C1900 1.394 . S
C1898 H1914 0.931 . S
C1899 C1898 1.391 . S
C1899 C1903 1.376 . S
C1900 C1898 1.394 . S
C1900 C1901 1.369 . S
C1900 C1904 1.531 . S
C1901 C1900 1.369 . S
C1901 C1902 1.410 . S
C1901 C1909 1.503 . S
C1902 C1901 1.410 . S
C1902 C1903 1.392 . S
C1902 C1905 1.511 . S
C1903 C1899 1.376 . S
C1903 C1902 1.392 . S
C1903 H1915 0.929 . S
C1904 C1900 1.531 . S
C1904 H1916 0.960 . S
C1904 H1917 0.962 . S
C1904 H1918 0.960 . S
C1905 C1902 1.511 . S
C1905 H1919 0.961 . S
C1905 H1920 0.961 . S
C1905 H1921 0.961 . S
C1906 C1907 1.370 . S
C1906 C1908 1.363 . S
C1906 H1922 0.931 . S
C1907 C1906 1.370 . S
C1907 C1911 1.408 . S
C1908 C1906 1.363 . S
C1908 C1909 1.370 . S
C1908 C1912 1.524 . S
C1909 C1901 1.503 . S
C1909 C1908 1.370 . S
C1909 C1910 1.403 . S
C1910 C1909 1.403 . S
C1910 C1911 1.404 . S
C1910 C1913 1.539 . S
C1911 C1907 1.408 . S
C1911 C1910 1.404 . S
C1911 H1923 0.930 . S
C1912 C1908 1.524 . S
C1912 H1924 0.956 . S
C1912 H1925 0.961 . S
C1912 H1926 0.961 . S
C1913 C1910 1.539 . S
C1913 H1927 0.958 . S
C1913 H1928 0.961 . S
C1913 H1929 0.960 . S
H1914 C1898 0.931 . S
H1915 C1903 0.929 . S
H1916 C1904 0.960 . S
H1917 C1904 0.962 . S
H1918 C1904 0.960 . S
H1919 C1905 0.961 . S
H1920 C1905 0.961 . S
H1921 C1905 0.961 . S
H1922 C1906 0.931 . S
H1923 C1911 0.930 . S
H1924 C1912 0.956 . S
H1925 C1912 0.961 . S
H1926 C1912 0.961 . S
H1927 C1913 0.958 . S
H1928 C1913 0.961 . S
H1929 C1913 0.960 . S
C1930 C1931 1.391 . S
C1930 C1932 1.394 . S
C1930 H1946 0.931 . S
C1931 C1930 1.391 . S
C1931 C1935 1.376 . S
C1932 C1930 1.394 . S
C1932 C1933 1.369 . S
C1932 C1936 1.531 . S
C1933 C1932 1.369 . S
C1933 C1934 1.410 . S
C1933 C1941 1.503 . S
C1934 C1933 1.410 . S
C1934 C1935 1.392 . S
C1934 C1937 1.511 . S
C1935 C1931 1.376 . S
C1935 C1934 1.392 . S
C1935 H1947 0.929 . S
C1936 C1932 1.531 . S
C1936 H1948 0.960 . S
C1936 H1949 0.962 . S
C1936 H1950 0.960 . S
C1937 C1934 1.511 . S
C1937 H1951 0.961 . S
C1937 H1952 0.961 . S
C1937 H1953 0.961 . S
C1938 C1939 1.370 . S
C1938 C1940 1.363 . S
C1938 H1954 0.931 . S
C1939 C1938 1.370 . S
C1939 C1943 1.408 . S
C1940 C1938 1.363 . S
C1940 C1941 1.370 . S
C1940 C1944 1.524 . S
C1941 C1933 1.503 . S
C1941 C1940 1.370 . S
C1941 C1942 1.403 . S
C1942 C1941 1.403 . S
C1942 C1943 1.404 . S
C1942 C1945 1.539 . S
C1943 C1939 1.408 . S
C1943 C1942 1.404 . S
C1943 H1955 0.930 . S
C1944 C1940 1.524 . S
C1944 H1956 0.956 . S
C1944 H1957 0.961 . S
C1944 H1958 0.961 . S
C1945 C1942 1.539 . S
C1945 H1959 0.958 . S
C1945 H1960 0.961 . S
C1945 H1961 0.960 . S
H1946 C1930 0.931 . S
H1947 C1935 0.929 . S
H1948 C1936 0.960 . S
H1949 C1936 0.962 . S
H1950 C1936 0.960 . S
H1951 C1937 0.961 . S
H1952 C1937 0.961 . S
H1953 C1937 0.961 . S
H1954 C1938 0.931 . S
H1955 C1943 0.930 . S
H1956 C1944 0.956 . S
H1957 C1944 0.961 . S
H1958 C1944 0.961 . S
H1959 C1945 0.958 . S
H1960 C1945 0.961 . S
H1961 C1945 0.960 . S
C1962 C1963 1.391 . S
C1962 C1964 1.394 . S
C1962 H1978 0.931 . S
C1963 C1962 1.391 . S
C1963 C1967 1.376 . S
C1964 C1962 1.394 . S
C1964 C1965 1.369 . S
C1964 C1968 1.531 . S
C1965 C1964 1.369 . S
C1965 C1966 1.410 . S
C1965 C1973 1.503 . S
C1966 C1965 1.410 . S
C1966 C1967 1.392 . S
C1966 C1969 1.511 . S
C1967 C1963 1.376 . S
C1967 C1966 1.392 . S
C1967 H1979 0.929 . S
C1968 C1964 1.531 . S
C1968 H1980 0.960 . S
C1968 H1981 0.962 . S
C1968 H1982 0.960 . S
C1969 C1966 1.511 . S
C1969 H1983 0.961 . S
C1969 H1984 0.961 . S
C1969 H1985 0.961 . S
C1970 C1971 1.370 . S
C1970 C1972 1.363 . S
C1970 H1986 0.931 . S
C1971 C1970 1.370 . S
C1971 C1975 1.408 . S
C1972 C1970 1.363 . S
C1972 C1973 1.370 . S
C1972 C1976 1.524 . S
C1973 C1965 1.503 . S
C1973 C1972 1.370 . S
C1973 C1974 1.403 . S
C1974 C1973 1.403 . S
C1974 C1975 1.404 . S
C1974 C1977 1.539 . S
C1975 C1971 1.408 . S
C1975 C1974 1.404 . S
C1975 H1987 0.930 . S
C1976 C1972 1.524 . S
C1976 H1988 0.956 . S
C1976 H1989 0.961 . S
C1976 H1990 0.961 . S
C1977 C1974 1.539 . S
C1977 H1991 0.958 . S
C1977 H1992 0.961 . S
C1977 H1993 0.960 . S
H1978 C1962 0.931 . S
H1979 C1967 0.929 . S
H1980 C1968 0.960 . S
H1981 C1968 0.962 . S
H1982 C1968 0.960 . S
H1983 C1969 0.961 . S
H1984 C1969 0.961 . S
H1985 C1969 0.961 . S
H1986 C1970 0.931 . S
H1987 C1975 0.930 . S
H1988 C1976 0.956 . S
H1989 C1976 0.961 . S
H1990 C1976 0.961 . S
H1991 C1977 0.958 . S
H1992 C1977 0.961 . S
H1993 C1977 0.960 . S
C467 C283 0.426 . S
C459 C4 0.357 . S
C499 C273 1.721 . S
C491 C63 1.726 . S
C531 C274 0.826 . S
C523 C72 0.803 . S
C555 C102 1.660 . S
C563 C296 1.646 . S
C587 C136 1.691 . S
C595 C299 1.714 . S
C627 C282 0.847 . S
C619 C183 0.881 . S
C651 C233 1.620 . S
C659 C272 1.636 . S
C683 C251 0.309 . S
C691 C290 0.398 . S
C723 C303 1.570 . S
C715 C29 1.596 . S
C747 C42 1.987 . S
C755 C352 1.875 . S
C787 C330 1.701 . S
C779 C97 1.703 . S
C819 C344 0.762 . S
C811 C115 0.837 . S
C843 C149 0.831 . S
C851 C305 0.835 . S
C883 C358 1.607 . S
C875 C187 1.638 . S
C907 C212 1.987 . S
C915 C314 1.887 . S
C939 C255 1.684 . S
C947 C335 1.652 . S
C971 C8 1.670 . S
C979 C361 1.643 . S
C1003 C153 1.985 . S
C1011 C345 1.875 . S
C1043 C304 1.695 . S
C1035 C170 1.721 . S
C1075 C336 0.779 . S
C1067 C208 0.828 . S
C1099 C238 1.595 . S
C1107 C327 1.560 . S
C1131 C76 1.636 . S
C1139 C334 1.623 . S
C1171 C321 1.869 . S
C1163 C119 2.001 . S
C1195 C38 0.860 . S
C1203 C313 0.802 . S
C1227 C242 0.373 . S
C1235 C376 0.378 . S
C1259 C165 1.717 . S
C1267 C366 1.719 . S
C1299 C367 0.833 . S
C1291 C174 0.863 . S
C1331 C389 1.650 . S
C1323 C204 1.659 . S
C1355 C34 1.696 . S
C1363 C392 1.712 . S
C1395 C375 0.833 . S
C1387 C81 0.793 . S
C1419 C131 1.636 . S
C1427 C365 1.634 . S
C1451 C13 0.378 . S
C1459 C383 0.424 . S
C1483 C267 1.580 . S
C1491 C396 1.555 . S
C1523 C445 1.877 . S
C1515 C144 1.981 . S
C1547 C199 1.691 . S
C1555 C423 1.693 . S
C1579 C217 0.824 . S
C1587 C437 0.777 . S
C1619 C398 0.810 . S
C1611 C47 0.787 . S
C1643 C85 1.641 . S
C1651 C451 1.606 . S
C1683 C407 1.873 . S
C1675 C110 1.996 . S
C1715 C428 1.644 . S
C1707 C17 1.679 . S
C1747 C454 1.651 . S
C1739 C246 1.673 . S
C1771 C51 1.985 . S
C1779 C438 1.875 . S
C1803 C68 1.714 . S
C1811 C397 1.701 . S
C1843 C429 0.821 . S
C1835 C106 0.757 . S
C1867 C0 1.594 . S
C1875 C420 1.555 . S
C1899 C178 1.653 . S
C1907 C427 1.619 . S
C1939 C414 1.871 . S
C1931 C221 2.002 . S
C1971 C406 0.816 . S
C1963 C140 0.772 . S
