# Generated by pormake.
# Topology anh, (6,3)-cn, num edge types: 1
# Building blocks:
#     Node 0, Type 0, BuildingBlock: PAMTUU_clean_sbu_0, # of connection points: 6
#     Node 1, Type 0, BuildingBlock: PAMTUU_clean_sbu_0, # of connection points: 6
#     Node 2, Type 0, BuildingBlock: PAMTUU_clean_sbu_0, # of connection points: 6
#     Node 3, Type 1, BuildingBlock: OLANEW_clean_sbu_2, # of connection points: 3
#     Node 4, Type 1, BuildingBlock: OLANEW_clean_sbu_2, # of connection points: 3
#     Node 5, Type 1, BuildingBlock: OLANEW_clean_sbu_2, # of connection points: 3
#     Node 6, Type 1, BuildingBlock: OLANEW_clean_sbu_2, # of connection points: 3
#     Node 7, Type 1, BuildingBlock: OLANEW_clean_sbu_2, # of connection points: 3
#     Node 8, Type 1, BuildingBlock: OLANEW_clean_sbu_2, # of connection points: 3
#     Edge 9, Type (0, 1), BuildingBlock: CIFDUS_clean_linker_0, # of connection points: 2
#     Edge 10, Type (0, 1), BuildingBlock: CIFDUS_clean_linker_0, # of connection points: 2
#     Edge 11, Type (0, 1), BuildingBlock: CIFDUS_clean_linker_0, # of connection points: 2
#     Edge 12, Type (0, 1), BuildingBlock: CIFDUS_clean_linker_0, # of connection points: 2
#     Edge 13, Type (0, 1), BuildingBlock: CIFDUS_clean_linker_0, # of connection points: 2
#     Edge 14, Type (0, 1), BuildingBlock: CIFDUS_clean_linker_0, # of connection points: 2
#     Edge 15, Type (0, 1), BuildingBlock: CIFDUS_clean_linker_0, # of connection points: 2
#     Edge 16, Type (0, 1), BuildingBlock: CIFDUS_clean_linker_0, # of connection points: 2
#     Edge 17, Type (0, 1), BuildingBlock: CIFDUS_clean_linker_0, # of connection points: 2
#     Edge 18, Type (0, 1), BuildingBlock: CIFDUS_clean_linker_0, # of connection points: 2
#     Edge 19, Type (0, 1), BuildingBlock: CIFDUS_clean_linker_0, # of connection points: 2
#     Edge 20, Type (0, 1), BuildingBlock: CIFDUS_clean_linker_0, # of connection points: 2
#     Edge 21, Type (0, 1), BuildingBlock: CIFDUS_clean_linker_0, # of connection points: 2
#     Edge 22, Type (0, 1), BuildingBlock: CIFDUS_clean_linker_0, # of connection points: 2
#     Edge 23, Type (0, 1), BuildingBlock: CIFDUS_clean_linker_0, # of connection points: 2
#     Edge 24, Type (0, 1), BuildingBlock: CIFDUS_clean_linker_0, # of connection points: 2
#     Edge 25, Type (0, 1), BuildingBlock: CIFDUS_clean_linker_0, # of connection points: 2
#     Edge 26, Type (0, 1), BuildingBlock: CIFDUS_clean_linker_0, # of connection points: 2
# Relax obj value: 0.271
# Max RMSD: 0.143
# Mean RMSD: 0.114
data_MOF--net-anh--node1-PAMTUU_clean_sbu_0--node2-OLANEW_clean_sbu_2--edge1-CIFDUS_clean_linker_0
_symmetry_space_group_name_H-M    P1
_symmetry_Int_Tables_number       1
_symmetry_cell_setting            triclinic
loop_
_symmetry_equiv_pos_as_xyz
'x, y, z'
_cell_length_a     33.146828
_cell_length_b     33.242374
_cell_length_c     44.19771
_cell_angle_alpha  93.509566
_cell_angle_beta   90.769689
_cell_angle_gamma 120.11919
loop_
_atom_site_label
_atom_site_type_symbol
_atom_site_fract_x
_atom_site_fract_y
_atom_site_fract_z
_atom_type_partial_charge
Tb0 Tb 0.03704 0.59351 0.17012 0.0
Tb1 Tb 0.09708 0.54081 0.1699 0.0
C2 C 0.0618 0.55941 0.11013 0.0
C3 C 0.93678 0.60968 0.18012 0.0
C4 C 0.84009 0.56385 0.18788 0.0
C5 C 0.86236 0.60625 0.17398 0.0
C6 C 0.91039 0.62891 0.17006 0.0
C7 C 0.91526 0.56885 0.19552 0.0
C8 C 0.86728 0.54614 0.19942 0.0
C9 C 0.98498 0.62855 0.17116 0.0
O10 O 0.98494 0.51897 0.16544 0.0
O11 O 0.02747 0.48766 0.18372 0.0
O12 O 0.10933 0.57682 0.21404 0.0
O13 O 0.03865 0.5723 0.21588 0.0
O14 O 0.13735 0.52083 0.14404 0.0
O15 O 0.12118 0.50038 0.18987 0.0
O16 O 0.15127 0.61518 0.16819 0.0
O17 O 0.1084 0.65148 0.17797 0.0
O18 O 0.06188 0.59534 0.12421 0.0
O19 O 0.06106 0.52701 0.12586 0.0
C20 C 0.98684 0.48422 0.17691 0.0
O21 O 1.01584 0.63671 0.19282 0.0
O22 O 0.98948 0.60651 0.14722 0.0
C23 C 0.07553 0.57525 0.22967 0.0
C24 C 0.19554 0.51684 0.17266 0.0
C25 C 0.2901 0.54268 0.18227 0.0
C26 C 0.26163 0.53522 0.20703 0.0
C27 C 0.21472 0.52254 0.20229 0.0
C28 C 0.22411 0.52422 0.14803 0.0
C29 C 0.27082 0.53719 0.15277 0.0
C30 C 0.14594 0.50232 0.16667 0.0
C31 C 0.1487 0.65326 0.17458 0.0
H32 H 0.8423 0.62044 0.16448 0.0
H33 H 0.92648 0.66017 0.15788 0.0
H34 H 0.93519 0.55341 0.20331 0.0
H35 H 0.85118 0.51378 0.21043 0.0
H36 H 0.27559 0.53903 0.23 0.0
H37 H 0.19352 0.51687 0.22176 0.0
H38 H 0.21017 0.51947 0.12494 0.0
H39 H 0.29151 0.54153 0.13317 0.0
Tb40 Tb 0.47627 0.01543 0.50073 0.0
Tb41 Tb 0.58523 0.08613 0.5233 0.0
C42 C 0.55307 0.0631 0.45319 0.0
C43 C 0.36189 0.91147 0.49536 0.0
C44 C 0.31003 0.81809 0.5097 0.0
C45 C 0.29302 0.83477 0.48714 0.0
C46 C 0.31887 0.88121 0.48001 0.0
C47 C 0.37812 0.89543 0.5186 0.0
C48 C 0.35236 0.84922 0.52581 0.0
C49 C 0.39177 0.95862 0.48589 0.0
O50 O 0.50586 0.96925 0.50405 0.0
O51 O 0.57434 0.01779 0.53231 0.0
O52 O 0.54572 0.07149 0.56444 0.0
O53 O 0.48092 1.00239 0.54744 0.0
O54 O 0.65584 0.10484 0.52247 0.0
O55 O 0.63431 0.14643 0.54952 0.0
O56 O 0.55918 0.1306 0.50853 0.0
O57 O 0.48224 0.08231 0.51673 0.0
O58 O 0.50967 0.04845 0.45997 0.0
O59 O 0.5856 0.07243 0.4743 0.0
C60 C 0.54287 0.97616 0.52029 0.0
O61 O 0.40555 0.99213 0.50736 0.0
O62 O 0.42619 0.9635 0.46955 0.0
C63 C 0.50741 0.03264 0.56959 0.0
C64 C 0.70436 0.18585 0.52417 0.0
C65 C 0.76909 0.25923 0.49154 0.0
C66 C 0.78156 0.22936 0.50478 0.0
C67 C 0.74944 0.19303 0.52106 0.0
C68 C 0.6921 0.21623 0.51143 0.0
C69 C 0.72438 0.25289 0.49544 0.0
C70 C 0.66939 0.14431 0.53824 0.0
C71 C 0.51793 0.12458 0.51446 0.0
H72 H 0.26087 0.81145 0.47401 0.0
H73 H 0.30606 0.89303 0.46187 0.0
H74 H 0.41146 0.91825 0.53057 0.0
H75 H 0.36618 0.83755 0.54344 0.0
H76 H 0.81604 0.2339 0.50229 0.0
H77 H 0.75939 0.16977 0.53055 0.0
H78 H 0.65725 0.21098 0.51316 0.0
H79 H 0.7139 0.27528 0.48524 0.0
Tb80 Tb 0.53975 0.5001 0.82362 0.0
Tb81 Tb 0.58598 0.60981 0.84744 0.0
C82 C 0.56133 0.57515 0.77863 0.0
C83 C 0.51762 0.37972 0.80632 0.0
C84 C 0.54239 0.3108 0.81091 0.0
C85 C 0.51714 0.31063 0.78503 0.0
C86 C 0.50486 0.3448 0.7828 0.0
C87 C 0.54296 0.38031 0.83223 0.0
C88 C 0.55498 0.34579 0.83461 0.0
C89 C 0.50646 0.41658 0.8025 0.0
O90 O 0.61085 0.52015 0.84025 0.0
O91 O 0.64486 0.59934 0.83737 0.0
O92 O 0.5909 0.57649 0.88745 0.0
O93 O 0.53825 0.49945 0.87224 0.0
O94 O 0.62918 0.67978 0.8382 0.0
O95 O 0.59524 0.66211 0.88058 0.0
O96 O 0.512 0.58015 0.85523 0.0
O97 O 0.48136 0.51431 0.82239 0.0
O98 O 0.56793 0.54112 0.78522 0.0
O99 O 0.55881 0.60227 0.80047 0.0
C100 C 0.64838 0.56198 0.84067 0.0
O101 O 0.4904 0.42904 0.82578 0.0
O102 O 0.53798 0.45244 0.78956 0.0
C103 C 0.56521 0.53237 0.89305 0.0
C104 C 0.59561 0.72311 0.8572 0.0
C105 C 0.54683 0.77136 0.85041 0.0
C106 C 0.58631 0.7898 0.87064 0.0
C107 C 0.61048 0.76569 0.87407 0.0
C108 C 0.55676 0.70508 0.83671 0.0
C109 C 0.5328 0.72904 0.83322 0.0
C110 C 0.61746 0.69506 0.86249 0.0
C111 C 0.47613 0.54476 0.8401 0.0
H112 H 0.50625 0.28362 0.76666 0.0
H113 H 0.48558 0.3441 0.76258 0.0
H114 H 0.55366 0.40754 0.85044 0.0
H115 H 0.57451 0.34674 0.85475 0.0
H116 H 0.59777 0.82219 0.88432 0.0
H117 H 0.64007 0.77974 0.89027 0.0
H118 H 0.54444 0.67197 0.82372 0.0
H119 H 0.50315 0.71429 0.81702 0.0
O120 O 0.62477 0.11476 0.26812 0.0
Cd121 Cd 0.67315 0.15465 0.22244 0.0
O122 O 0.56076 0.04898 0.25031 0.0
Cd123 Cd 0.49208 0.97822 0.24552 0.0
O124 O 0.42888 0.90479 0.23353 0.0
C125 C 0.39034 0.89584 0.22013 0.0
O126 O 0.38573 0.93108 0.21279 0.0
C127 C 0.58608 0.07748 0.27286 0.0
C128 C 0.76189 0.24099 0.21993 0.0
O129 O 0.7228 0.23987 0.21661 0.0
O130 O 0.75963 0.20277 0.22631 0.0
O131 O 0.53324 0.51734 0.58154 0.0
Cd132 Cd 0.53597 0.44718 0.59985 0.0
O133 O 0.53103 0.58262 0.58266 0.0
Cd134 Cd 0.52613 0.64835 0.58774 0.0
O135 O 0.5143 0.70716 0.57504 0.0
C136 C 0.54679 0.74689 0.56782 0.0
O137 O 0.58987 0.75492 0.56851 0.0
C138 C 0.53088 0.5501 0.59705 0.0
C139 C 0.53728 0.37139 0.56586 0.0
O140 O 0.57452 0.41106 0.5719 0.0
O141 O 0.49872 0.36801 0.57392 0.0
O142 O 0.10925 0.55616 0.92146 0.0
Cd143 Cd 0.15326 0.55419 0.87457 0.0
O144 O 0.04461 0.55657 0.90713 0.0
Cd145 Cd 0.97432 0.55432 0.90639 0.0
O146 O 0.90107 0.54318 0.89668 0.0
C147 C 0.89217 0.57145 0.88358 0.0
O148 O 0.92742 0.61038 0.8753 0.0
C149 C 0.072 0.55711 0.92826 0.0
C150 C 0.24271 0.55832 0.87326 0.0
O151 O 0.23933 0.59482 0.87893 0.0
O152 O 0.20425 0.51921 0.8698 0.0
O153 O 0.12136 0.48547 0.40199 0.0
Cd154 Cd 0.11393 0.46217 0.45399 0.0
O155 O 0.08824 0.52503 0.41762 0.0
Cd156 Cd 0.05266 0.56535 0.41662 0.0
O157 O 0.98026 0.52654 0.4288 0.0
C158 C 0.96105 0.48434 0.418 0.0
O159 O 0.98436 0.47232 0.39931 0.0
C160 C 0.10583 0.51242 0.39629 0.0
C161 C 0.14977 0.54545 0.48962 0.0
O162 O 0.17567 0.52851 0.48179 0.0
O163 O 0.10597 0.5212 0.48232 0.0
O164 O 0.34736 0.91073 0.72898 0.0
Cd165 Cd 0.32261 0.89569 0.78087 0.0
O166 O 0.41919 0.94446 0.74813 0.0
Cd167 Cd 0.49523 0.98527 0.74762 0.0
O168 O 0.54484 0.05951 0.75458 0.0
C169 C 0.54687 0.07816 0.78094 0.0
O170 O 0.52473 0.05085 0.80251 0.0
C171 C 0.39099 0.93303 0.72517 0.0
C172 C 0.3687 0.85572 0.80797 0.0
O173 O 0.38728 0.90015 0.80868 0.0
O174 O 0.32785 0.83033 0.7951 0.0
O175 O 0.51281 0.40063 0.05568 0.0
Cd176 Cd 0.49295 0.35871 0.10167 0.0
O177 O 0.54446 0.46506 0.08542 0.0
Cd178 Cd 0.57691 0.53945 0.09895 0.0
O179 O 0.55027 0.58102 0.12096 0.0
C180 C 0.5312 0.56705 0.14588 0.0
O181 O 0.53461 0.53361 0.15791 0.0
C182 C 0.53402 0.44495 0.05874 0.0
C183 C 0.57547 0.39278 0.13647 0.0
O184 O 0.56045 0.35631 0.11804 0.0
O185 O 0.55033 0.41194 0.13934 0.0
H186 H 0.36649 0.60687 0.15526 0.0
H187 H 0.32256 0.50005 0.21822 0.0
H188 H 0.39841 0.50465 0.21669 0.0
H189 H 0.47126 0.52934 0.19084 0.0
H190 H 0.51278 0.6323 0.1251 0.0
H191 H 0.44415 0.63933 0.13461 0.0
C192 C 0.37385 0.5851 0.16896 0.0
C193 C 0.33878 0.5526 0.18639 0.0
C194 C 0.41691 0.5869 0.16721 0.0
C195 C 0.34899 0.52534 0.20461 0.0
C196 C 0.39222 0.52767 0.20353 0.0
C197 C 0.46591 0.55409 0.17905 0.0
C198 C 0.49659 0.57952 0.15681 0.0
C199 C 0.42563 0.5569 0.18393 0.0
C200 C 0.48937 0.61181 0.14203 0.0
C201 C 0.45001 0.61572 0.14736 0.0
H202 H 0.79395 0.35079 0.49504 0.0
H203 H 0.81794 0.2491 0.44596 0.0
H204 H 0.87574 0.30959 0.4163 0.0
H205 H 0.92293 0.39139 0.40691 0.0
H206 H 0.90334 0.49493 0.45766 0.0
H207 H 0.83932 0.43343 0.48362 0.0
C208 C 0.81159 0.34199 0.47761 0.0
C209 C 0.80224 0.29584 0.47282 0.0
C210 C 0.8453 0.3771 0.46097 0.0
C211 C 0.82527 0.28463 0.45032 0.0
C212 C 0.85806 0.31908 0.43328 0.0
C213 C 0.90436 0.40065 0.42335 0.0
C214 C 0.91808 0.44769 0.43049 0.0
C215 C 0.86889 0.36548 0.43879 0.0
C216 C 0.89352 0.45894 0.45184 0.0
C217 C 0.85711 0.42384 0.46678 0.0
H218 H 0.45263 0.73226 0.84573 0.0
H219 H 0.58059 0.86497 0.84756 0.0
H220 H 0.53609 0.90359 0.83742 0.0
H221 H 0.46138 0.89845 0.82377 0.0
H222 H 0.3342 0.76465 0.81886 0.0
H223 H 0.37797 0.72755 0.83421 0.0
C224 C 0.47085 0.76963 0.8438 0.0
C225 C 0.5199 0.7956 0.84701 0.0
C226 C 0.4452 0.79133 0.83722 0.0
C227 C 0.54286 0.84418 0.8453 0.0
C228 C 0.51745 0.86623 0.83928 0.0
C229 C 0.44317 0.86127 0.82641 0.0
C230 C 0.39465 0.83429 0.82004 0.0
C231 C 0.46869 0.83999 0.83462 0.0
C232 C 0.37157 0.78613 0.82344 0.0
C233 C 0.39656 0.76489 0.8322 0.0
H234 H 0.78646 0.47108 0.17295 0.0
H235 H 0.77779 0.59353 0.19944 0.0
H236 H 0.69314 0.54912 0.18922 0.0
H237 H 0.62354 0.47816 0.16726 0.0
H238 H 0.63345 0.3569 0.13896 0.0
H239 H 0.71565 0.39796 0.15621 0.0
C240 C 0.76595 0.48779 0.17731 0.0
C241 C 0.78838 0.5356 0.18677 0.0
C242 C 0.7176 0.46233 0.17088 0.0
C243 C 0.76135 0.55688 0.1918 0.0
C244 C 0.713 0.53152 0.18599 0.0
C245 C 0.64344 0.4604 0.16538 0.0
C246 C 0.62255 0.41472 0.15155 0.0
C247 C 0.69099 0.4846 0.17464 0.0
C248 C 0.64881 0.3922 0.14929 0.0
C249 C 0.69585 0.41568 0.15907 0.0
H250 H 0.21659 0.75772 0.51239 0.0
H251 H 0.3503 0.76494 0.51653 0.0
H252 H 0.31163 0.68038 0.51619 0.0
H253 H 0.24056 0.60446 0.5072 0.0
H254 H 0.10663 0.59638 0.50014 0.0
H255 H 0.14458 0.681 0.50957 0.0
C256 C 0.23718 0.74072 0.5135 0.0
C257 C 0.28619 0.76755 0.51412 0.0
C258 C 0.2147 0.69189 0.51259 0.0
C259 C 0.31251 0.7452 0.51619 0.0
C260 C 0.29043 0.69675 0.51577 0.0
C261 C 0.21954 0.62107 0.50834 0.0
C262 C 0.17097 0.59425 0.50248 0.0
C263 C 0.24163 0.66974 0.51293 0.0
C264 C 0.14416 0.61625 0.50439 0.0
C265 C 0.16586 0.6647 0.50956 0.0
H266 H 0.57857 0.27794 0.76803 0.0
H267 H 0.53066 0.25908 0.85911 0.0
H268 H 0.53593 0.18837 0.85974 0.0
H269 H 0.54254 0.12622 0.83156 0.0
H270 H 0.58651 0.14325 0.73939 0.0
H271 H 0.59515 0.22071 0.74222 0.0
C272 C 0.56981 0.25856 0.78812 0.0
C273 C 0.55347 0.27311 0.81327 0.0
C274 C 0.57194 0.2175 0.78805 0.0
C275 C 0.54325 0.24846 0.83945 0.0
C276 C 0.54597 0.20789 0.83974 0.0
C277 C 0.55496 0.14722 0.81229 0.0
C278 C 0.56293 0.12855 0.7851 0.0
C279 C 0.55859 0.1912 0.81376 0.0
C280 C 0.57958 0.15652 0.76049 0.0
C281 C 0.5843 0.20075 0.76201 0.0
H282 H 0.47619 0.88376 0.52675 0.0
H283 H 0.62503 0.97849 0.52932 0.0
H284 H 0.63896 0.91673 0.54366 0.0
H285 H 0.60986 0.83665 0.55691 0.0
H286 H 0.46151 0.74107 0.55682 0.0
H287 H 0.44661 0.80186 0.54039 0.0
C288 C 0.51164 0.89066 0.5301 0.0
C289 C 0.54954 0.93601 0.5267 0.0
C290 C 0.5196 0.85479 0.53915 0.0
C291 C 0.59517 0.94424 0.53172 0.0
C292 C 0.60323 0.90883 0.54 0.0
C293 C 0.57414 0.82883 0.55331 0.0
C294 C 0.53694 0.78392 0.5582 0.0
C295 C 0.56584 0.86411 0.54407 0.0
C296 C 0.49099 0.7751 0.5534 0.0
C297 C 0.48242 0.80997 0.54389 0.0
H298 H 0.67404 0.50139 0.86358 0.0
H299 H 0.73193 0.63777 0.8298 0.0
H300 H 0.81061 0.65207 0.8398 0.0
H301 H 0.86406 0.6274 0.85877 0.0
H302 H 0.80846 0.49229 0.89382 0.0
H303 H 0.72876 0.47633 0.88283 0.0
C304 C 0.70384 0.5341 0.85817 0.0
C305 C 0.6964 0.56835 0.84576 0.0
C306 C 0.74986 0.54261 0.86441 0.0
C307 C 0.73593 0.61065 0.83934 0.0
C308 C 0.78127 0.61898 0.84509 0.0
C309 C 0.83466 0.59433 0.86406 0.0
C310 C 0.84289 0.56118 0.87721 0.0
C311 C 0.78878 0.58544 0.85777 0.0
C312 C 0.80374 0.51866 0.88379 0.0
C313 C 0.75793 0.50946 0.87744 0.0
H314 H 0.23855 0.67777 0.1957 0.0
H315 H 0.15686 0.73659 0.16435 0.0
H316 H 0.22323 0.81497 0.17509 0.0
H317 H 0.30362 0.86795 0.1948 0.0
H318 H 0.38661 0.81185 0.22806 0.0
H319 H 0.32127 0.73231 0.21538 0.0
C320 C 0.23549 0.70773 0.19087 0.0
C321 C 0.19222 0.70067 0.17901 0.0
C322 C 0.27417 0.75366 0.19777 0.0
C323 C 0.18921 0.74038 0.17344 0.0
C324 C 0.22734 0.78553 0.17965 0.0
C325 C 0.30776 0.8385 0.19931 0.0
C326 C 0.35056 0.84656 0.21252 0.0
C327 C 0.26984 0.79274 0.19211 0.0
C328 C 0.35444 0.80729 0.21805 0.0
C329 C 0.3169 0.76156 0.21071 0.0
H330 H 0.58515 0.21746 0.51574 0.0
H331 H 0.43866 0.12675 0.52903 0.0
H332 H 0.43097 0.1944 0.54432 0.0
H333 H 0.46661 0.27959 0.55672 0.0
H334 H 0.61347 0.36974 0.54421 0.0
H335 H 0.61992 0.30251 0.52586 0.0
C336 C 0.55137 0.21232 0.5217 0.0
C337 C 0.51259 0.16653 0.52118 0.0
C338 C 0.5472 0.2516 0.53083 0.0
C339 C 0.46923 0.16119 0.52911 0.0
C340 C 0.46479 0.20005 0.53798 0.0
C341 C 0.49995 0.28468 0.54967 0.0
C342 C 0.5395 0.33014 0.55197 0.0
C343 C 0.50363 0.24547 0.53933 0.0
C344 C 0.58236 0.33553 0.5428 0.0
C345 C 0.58615 0.29692 0.53231 0.0
H346 H 0.4549 0.60947 0.86458 0.0
H347 H 0.38954 0.46856 0.82344 0.0
H348 H 0.31236 0.45955 0.83085 0.0
H349 H 0.26265 0.49164 0.8493 0.0
H350 H 0.32915 0.63367 0.88858 0.0
H351 H 0.40585 0.64196 0.8817 0.0
C352 C 0.42387 0.57664 0.8572 0.0
C353 C 0.42859 0.53965 0.84352 0.0
C354 C 0.37935 0.57178 0.86135 0.0
C355 C 0.38749 0.49774 0.83395 0.0
C356 C 0.34313 0.4925 0.8383 0.0
C357 C 0.29388 0.52432 0.85657 0.0
C358 C 0.28956 0.56184 0.86977 0.0
C359 C 0.33848 0.52921 0.85208 0.0
C360 C 0.33086 0.60404 0.87854 0.0
C361 C 0.375 0.60888 0.87457 0.0
H362 H 0.97157 0.40246 0.20108 0.0
H363 H 0.89814 0.46868 0.16759 0.0
H364 H 0.82388 0.40188 0.17878 0.0
H365 H 0.77815 0.32345 0.19764 0.0
H366 H 0.85046 0.25591 0.2304 0.0
H367 H 0.92544 0.32353 0.22013 0.0
C368 C 0.93939 0.4023 0.19608 0.0
C369 C 0.94131 0.44122 0.18323 0.0
C370 C 0.89591 0.3631 0.2026 0.0
C371 C 0.89861 0.43974 0.17723 0.0
C372 C 0.85569 0.40128 0.18373 0.0
C373 C 0.81026 0.32351 0.20277 0.0
C374 C 0.80802 0.28411 0.21501 0.0
C375 C 0.8537 0.36265 0.19642 0.0
C376 C 0.85051 0.28533 0.22111 0.0
C377 C 0.89369 0.32418 0.21514 0.0
H378 H 0.03015 0.5925 0.06477 0.0
H379 H 0.10228 0.51707 0.07998 0.0
H380 H 0.11054 0.50897 0.02574 0.0
H381 H 0.09883 0.52377 0.97392 0.0
H382 H 0.02364 0.59527 0.95655 0.0
H383 H 1.01443 0.60374 0.01123 0.0
C384 C 0.0477 0.57439 0.05613 0.0
C385 C 0.06574 0.55561 0.07661 0.0
C386 C 0.05152 0.56879 0.0244 0.0
C387 C 0.08788 0.53175 0.06492 0.0
C388 C 0.09272 0.52709 0.0338 0.0
C389 C 0.08018 0.54106 0.982 0.0
C390 C 0.06203 0.55889 0.96102 0.0
C391 C 0.07479 0.54547 0.01334 0.0
C392 C 0.0376 0.58076 0.97205 0.0
C393 C 0.03266 0.58594 1.00341 0.0
H394 H 0.49561 0.02689 0.4013 0.0
H395 H 0.64029 0.11415 0.43197 0.0
H396 H 0.66281 0.1258 0.3795 0.0
H397 H 0.64193 0.11194 0.32474 0.0
H398 H 0.49791 0.02325 0.29344 0.0
H399 H 0.47492 1.01119 0.34598 0.0
C400 C 0.53207 0.04855 0.39653 0.0
C401 C 0.56611 0.06972 0.42082 0.0
C402 C 0.54504 0.05467 0.36603 0.0
C403 C 0.61323 0.09726 0.41397 0.0
C404 C 0.62621 0.10404 0.38386 0.0
C405 C 0.60545 0.08986 0.32932 0.0
C406 C 0.5718 0.06833 0.30488 0.0
C407 C 0.59248 0.08298 0.35969 0.0
C408 C 0.52477 0.03969 0.31152 0.0
C409 C 0.51152 0.03307 0.3417 0.0
H410 H 0.52135 0.50597 0.73423 0.0
H411 H 0.58543 0.65518 0.74961 0.0
H412 H 0.57967 0.66133 0.69462 0.0
H413 H 0.56067 0.62353 0.64138 0.0
H414 H 0.49213 0.47346 0.62866 0.0
H415 H 0.49544 0.46846 0.68313 0.0
C416 C 0.53399 0.53995 0.72563 0.0
C417 C 0.55448 0.58013 0.74597 0.0
C418 C 0.53006 0.54301 0.69427 0.0
C419 C 0.56967 0.6237 0.73444 0.0
C420 C 0.56649 0.62718 0.70297 0.0
C421 C 0.54603 0.58979 0.65062 0.0
C422 C 0.52775 0.54892 0.6307 0.0
C423 C 0.54734 0.58702 0.68251 0.0
C424 C 0.50835 0.50553 0.64319 0.0
C425 C 0.50975 0.50256 0.67447 0.0
H426 H 0.43296 0.95408 0.587 0.0
H427 H 0.54958 0.08585 0.62303 0.0
H428 H 0.52409 0.06658 0.67459 0.0
H429 H 0.46703 1.01292 0.70909 0.0
H430 H 0.35141 0.8814 0.67223 0.0
H431 H 0.37768 0.90058 0.62099 0.0
C432 C 0.45305 0.97876 0.60602 0.0
C433 C 0.49319 0.02145 0.60105 0.0
C434 C 0.43819 0.96755 0.63541 0.0
C435 C 0.51858 0.05276 0.62615 0.0
C436 C 0.50399 0.04177 0.65563 0.0
C437 C 0.44839 0.98796 0.68994 0.0
C438 C 0.40801 0.94527 0.69448 0.0
C439 C 0.46377 0.99925 0.66051 0.0
C440 C 0.38274 0.91434 0.66928 0.0
C441 C 0.39778 0.92523 0.64002 0.0
H442 H 0.56207 0.56966 0.94938 0.0
H443 H 0.57537 0.45918 0.90309 0.0
H444 H 0.56996 0.42412 0.95078 0.0
H445 H 0.55489 0.42091 1.00463 0.0
H446 H 0.53663 0.52786 0.05139 0.0
H447 H 0.55097 0.56846 1.00494 0.0
C448 C 0.56466 0.53846 0.95002 0.0
C449 C 0.56889 0.51682 0.92291 0.0
C450 C 0.56028 0.51767 0.97757 0.0
C451 C 0.57173 0.47613 0.92376 0.0
C452 C 0.56856 0.45602 0.95097 0.0
C453 C 0.55439 0.45331 1.00471 0.0
C454 C 0.54537 0.47165 0.0315 0.0
C455 C 0.56163 0.47579 0.97783 0.0
C456 C 0.54486 0.51367 0.03132 0.0
C457 C 0.55251 0.53664 1.00461 0.0
H458 H 0.14033 0.56627 0.26152 0.0
H459 H 1.01337 0.57108 0.27168 0.0
H460 H 1.01274 0.55428 0.32494 0.0
H461 H 0.04572 0.53317 0.36717 0.0
H462 H 0.17044 0.52492 0.35551 0.0
H463 H 0.17406 0.54757 0.30371 0.0
C464 C 0.11264 0.56418 0.27534 0.0
C465 C 0.07689 0.56993 0.26259 0.0
C466 C 0.11189 0.55341 0.3055 0.0
C467 C 0.04131 0.56684 0.28093 0.0
C468 C 0.04086 0.55706 0.31133 0.0
C469 C 0.07417 0.53718 0.35364 0.0
C470 C 0.108 0.52777 0.36537 0.0
C471 C 0.07563 0.5496 0.3237 0.0
C472 C 0.14388 0.53182 0.34698 0.0
C473 C 0.14606 0.5449 0.31742 0.0
loop_
_geom_bond_atom_site_label_1
_geom_bond_atom_site_label_2
_geom_bond_distance
_geom_bond_site_symmetry_2
_ccdc_geom_bond_type
Tb0 C9 2.764 . S
Tb0 O10 2.325 . S
Tb0 O13 2.303 1_655 S
Tb0 O17 2.322 1_655 S
Tb0 O18 2.349 1_655 S
Tb0 O21 2.415 . S
Tb0 O22 2.399 . S
Tb1 O11 2.322 1_455 S
Tb1 O12 2.349 . S
Tb1 O14 2.415 . S
Tb1 O15 2.399 . S
Tb1 O16 2.325 . S
Tb1 O19 2.303 . S
Tb1 C30 2.764 . S
C2 O18 1.261 . S
C2 O19 1.257 . S
C3 C6 1.358 . S
C3 C7 1.332 . S
C3 C9 1.504 . S
C4 C5 1.373 . S
C4 C8 1.308 . S
C5 C4 1.373 . S
C5 C6 1.429 . S
C5 H32 0.932 . S
C6 C3 1.358 . S
C6 C5 1.429 . S
C6 H33 0.930 . S
C7 C3 1.332 . S
C7 C8 1.394 . S
C7 H34 0.932 . S
C8 C4 1.308 . S
C8 C7 1.394 . S
C8 H35 0.929 . S
C9 Tb0 2.764 . S
C9 C3 1.504 . S
C9 O21 1.239 . S
C9 O22 1.263 . S
O10 Tb0 2.325 . S
O10 C20 1.236 . S
O11 Tb1 2.322 1_655 S
O11 C20 1.257 . S
O12 Tb1 2.349 . S
O12 C23 1.261 . S
O13 Tb0 2.303 1_455 S
O13 C23 1.257 . S
O14 Tb1 2.415 . S
O14 C30 1.239 . S
O15 Tb1 2.399 . S
O15 C30 1.263 . S
O16 Tb1 2.325 . S
O16 C31 1.236 . S
O17 Tb0 2.322 1_455 S
O17 C31 1.257 . S
O18 Tb0 2.349 1_455 S
O18 C2 1.261 . S
O19 Tb1 2.303 . S
O19 C2 1.257 . S
C20 O10 1.236 . S
C20 O11 1.257 . S
O21 Tb0 2.415 . S
O21 C9 1.239 . S
O22 Tb0 2.399 . S
O22 C9 1.263 . S
C23 O12 1.261 . S
C23 O13 1.257 . S
C24 C27 1.358 . S
C24 C28 1.332 . S
C24 C30 1.504 . S
C25 C26 1.373 . S
C25 C29 1.308 . S
C26 C25 1.373 . S
C26 C27 1.429 . S
C26 H36 0.932 . S
C27 C24 1.358 . S
C27 C26 1.429 . S
C27 H37 0.930 . S
C28 C24 1.332 . S
C28 C29 1.394 . S
C28 H38 0.932 . S
C29 C25 1.308 . S
C29 C28 1.394 . S
C29 H39 0.929 . S
C30 Tb1 2.764 . S
C30 O14 1.239 . S
C30 O15 1.263 . S
C30 C24 1.504 . S
C31 O16 1.236 . S
C31 O17 1.257 . S
H32 C5 0.932 . S
H33 C6 0.930 . S
H34 C7 0.932 . S
H35 C8 0.929 . S
H36 C26 0.932 . S
H37 C27 0.930 . S
H38 C28 0.932 . S
H39 C29 0.929 . S
Tb40 C49 2.769 . S
Tb40 O50 2.332 . S
Tb40 O53 2.303 1_565 S
Tb40 O57 2.315 1_565 S
Tb40 O58 2.349 1_565 S
Tb40 O61 2.420 . S
Tb40 O62 2.403 . S
Tb41 O51 2.322 1_545 S
Tb41 O52 2.349 . S
Tb41 O54 2.415 . S
Tb41 O55 2.399 . S
Tb41 O56 2.325 . S
Tb41 O59 2.303 . S
Tb41 C70 2.764 . S
C42 O58 1.261 . S
C42 O59 1.257 . S
C43 C46 1.358 . S
C43 C47 1.332 . S
C43 C49 1.504 . S
C44 C45 1.373 . S
C44 C48 1.308 . S
C45 C44 1.373 . S
C45 C46 1.429 . S
C45 H72 0.932 . S
C46 C43 1.358 . S
C46 C45 1.429 . S
C46 H73 0.930 . S
C47 C43 1.332 . S
C47 C48 1.394 . S
C47 H74 0.932 . S
C48 C44 1.308 . S
C48 C47 1.394 . S
C48 H75 0.929 . S
C49 Tb40 2.769 . S
C49 C43 1.504 . S
C49 O61 1.239 . S
C49 O62 1.263 . S
O50 Tb40 2.332 . S
O50 C60 1.236 . S
O51 Tb41 2.322 1_565 S
O51 C60 1.257 . S
O52 Tb41 2.349 . S
O52 C63 1.261 . S
O53 Tb40 2.303 1_545 S
O53 C63 1.257 . S
O54 Tb41 2.415 . S
O54 C70 1.239 . S
O55 Tb41 2.399 . S
O55 C70 1.263 . S
O56 Tb41 2.325 . S
O56 C71 1.236 . S
O57 Tb40 2.315 1_545 S
O57 C71 1.257 . S
O58 Tb40 2.349 1_545 S
O58 C42 1.261 . S
O59 Tb41 2.303 . S
O59 C42 1.257 . S
C60 O50 1.236 . S
C60 O51 1.257 . S
O61 Tb40 2.420 . S
O61 C49 1.239 . S
O62 Tb40 2.403 . S
O62 C49 1.263 . S
C63 O52 1.261 . S
C63 O53 1.257 . S
C64 C67 1.358 . S
C64 C68 1.332 . S
C64 C70 1.504 . S
C65 C66 1.373 . S
C65 C69 1.308 . S
C66 C65 1.373 . S
C66 C67 1.429 . S
C66 H76 0.932 . S
C67 C64 1.358 . S
C67 C66 1.429 . S
C67 H77 0.930 . S
C68 C64 1.332 . S
C68 C69 1.394 . S
C68 H78 0.932 . S
C69 C65 1.308 . S
C69 C68 1.394 . S
C69 H79 0.929 . S
C70 Tb41 2.764 . S
C70 O54 1.239 . S
C70 O55 1.263 . S
C70 C64 1.504 . S
C71 O56 1.236 . S
C71 O57 1.257 . S
H72 C45 0.932 . S
H73 C46 0.930 . S
H74 C47 0.932 . S
H75 C48 0.929 . S
H76 C66 0.932 . S
H77 C67 0.930 . S
H78 C68 0.932 . S
H79 C69 0.929 . S
Tb80 C89 2.764 . S
Tb80 O90 2.325 . S
Tb80 O93 2.303 . S
Tb80 O97 2.322 . S
Tb80 O98 2.349 . S
Tb80 O101 2.415 . S
Tb80 O102 2.399 . S
Tb81 O91 2.322 . S
Tb81 O92 2.349 . S
Tb81 O94 2.415 . S
Tb81 O95 2.399 . S
Tb81 O96 2.325 . S
Tb81 O99 2.303 . S
Tb81 C110 2.764 . S
C82 O98 1.261 . S
C82 O99 1.257 . S
C83 C86 1.358 . S
C83 C87 1.332 . S
C83 C89 1.504 . S
C84 C85 1.373 . S
C84 C88 1.308 . S
C85 C84 1.373 . S
C85 C86 1.429 . S
C85 H112 0.932 . S
C86 C83 1.358 . S
C86 C85 1.429 . S
C86 H113 0.930 . S
C87 C83 1.332 . S
C87 C88 1.394 . S
C87 H114 0.932 . S
C88 C84 1.308 . S
C88 C87 1.394 . S
C88 H115 0.929 . S
C89 Tb80 2.764 . S
C89 C83 1.504 . S
C89 O101 1.239 . S
C89 O102 1.263 . S
O90 Tb80 2.325 . S
O90 C100 1.236 . S
O91 Tb81 2.322 . S
O91 C100 1.257 . S
O92 Tb81 2.349 . S
O92 C103 1.261 . S
O93 Tb80 2.303 . S
O93 C103 1.257 . S
O94 Tb81 2.415 . S
O94 C110 1.239 . S
O95 Tb81 2.399 . S
O95 C110 1.263 . S
O96 Tb81 2.325 . S
O96 C111 1.236 . S
O97 Tb80 2.322 . S
O97 C111 1.257 . S
O98 Tb80 2.349 . S
O98 C82 1.261 . S
O99 Tb81 2.303 . S
O99 C82 1.257 . S
C100 O90 1.236 . S
C100 O91 1.257 . S
O101 Tb80 2.415 . S
O101 C89 1.239 . S
O102 Tb80 2.399 . S
O102 C89 1.263 . S
C103 O92 1.261 . S
C103 O93 1.257 . S
C104 C107 1.358 . S
C104 C108 1.332 . S
C104 C110 1.504 . S
C105 C106 1.373 . S
C105 C109 1.308 . S
C106 C105 1.373 . S
C106 C107 1.429 . S
C106 H116 0.932 . S
C107 C104 1.358 . S
C107 C106 1.429 . S
C107 H117 0.930 . S
C108 C104 1.332 . S
C108 C109 1.394 . S
C108 H118 0.932 . S
C109 C105 1.308 . S
C109 C108 1.394 . S
C109 H119 0.929 . S
C110 Tb81 2.764 . S
C110 O94 1.239 . S
C110 O95 1.263 . S
C110 C104 1.504 . S
C111 O96 1.236 . S
C111 O97 1.257 . S
H112 C85 0.932 . S
H113 C86 0.930 . S
H114 C87 0.932 . S
H115 C88 0.929 . S
H116 C106 0.932 . S
H117 C107 0.930 . S
H118 C108 0.932 . S
H119 C109 0.929 . S
O120 Cd121 2.300 . S
O120 C127 1.275 . S
Cd121 O120 2.300 . S
Cd121 O129 2.381 . S
Cd121 O130 2.378 . S
O122 Cd123 2.385 . S
O122 C127 1.255 1_565 S
Cd123 O122 2.385 . S
Cd123 O124 2.317 . S
O124 Cd123 2.317 . S
O124 C125 1.232 . S
C125 O124 1.232 . S
C125 O126 1.218 . S
O126 C125 1.218 . S
C127 O120 1.275 . S
C127 O122 1.255 1_545 S
C128 O129 1.258 . S
C128 O130 1.256 . S
O129 Cd121 2.381 . S
O129 C128 1.258 . S
O130 Cd121 2.378 . S
O130 C128 1.256 . S
O131 Cd132 2.300 . S
O131 C138 1.275 . S
Cd132 O131 2.300 . S
Cd132 O140 2.381 . S
Cd132 O141 2.378 . S
O133 Cd134 2.385 . S
O133 C138 1.255 . S
Cd134 O133 2.385 . S
Cd134 O135 2.317 . S
O135 Cd134 2.317 . S
O135 C136 1.232 . S
C136 O135 1.232 . S
C136 O137 1.218 . S
O137 C136 1.218 . S
C138 O131 1.275 . S
C138 O133 1.255 . S
C139 O140 1.258 . S
C139 O141 1.256 . S
O140 Cd132 2.381 . S
O140 C139 1.258 . S
O141 Cd132 2.378 . S
O141 C139 1.256 . S
O142 Cd143 2.300 . S
O142 C149 1.275 . S
Cd143 O142 2.300 . S
Cd143 O151 2.381 . S
Cd143 O152 2.378 . S
O144 Cd145 2.385 1_455 S
O144 C149 1.255 . S
Cd145 O144 2.385 1_655 S
Cd145 O146 2.317 . S
O146 Cd145 2.317 . S
O146 C147 1.232 . S
C147 O146 1.232 . S
C147 O148 1.218 . S
O148 C147 1.218 . S
C149 O142 1.275 . S
C149 O144 1.255 . S
C150 O151 1.258 . S
C150 O152 1.256 . S
O151 Cd143 2.381 . S
O151 C150 1.258 . S
O152 Cd143 2.378 . S
O152 C150 1.256 . S
O153 Cd154 2.300 . S
O153 C160 1.275 1_455 S
Cd154 O153 2.300 . S
Cd154 O162 2.381 . S
Cd154 O163 2.378 . S
O155 Cd156 2.385 . S
O155 C160 1.255 . S
Cd156 O155 2.385 . S
Cd156 O157 2.317 . S
O157 Cd156 2.317 . S
O157 C158 1.232 . S
C158 O157 1.232 . S
C158 O159 1.218 . S
O159 C158 1.218 . S
C160 O153 1.275 1_655 S
C160 O155 1.255 . S
C161 O162 1.258 . S
C161 O163 1.256 . S
O162 Cd154 2.381 . S
O162 C161 1.258 . S
O163 Cd154 2.378 . S
O163 C161 1.256 . S
O164 Cd165 2.300 . S
O164 C171 1.275 1_565 S
Cd165 O164 2.300 . S
Cd165 O173 2.381 . S
Cd165 O174 2.378 . S
O166 Cd167 2.385 . S
O166 C171 1.255 . S
Cd167 O166 2.385 . S
Cd167 O168 2.317 . S
O168 Cd167 2.317 . S
O168 C169 1.232 . S
C169 O168 1.232 . S
C169 O170 1.218 . S
O170 C169 1.218 . S
C171 O164 1.275 1_545 S
C171 O166 1.255 . S
C172 O173 1.258 . S
C172 O174 1.256 . S
O173 Cd165 2.381 . S
O173 C172 1.258 . S
O174 Cd165 2.378 . S
O174 C172 1.256 . S
O175 Cd176 2.300 . S
O175 C182 1.275 . S
Cd176 O175 2.300 . S
Cd176 O184 2.381 . S
Cd176 O185 2.378 . S
O177 Cd178 2.385 . S
O177 C182 1.255 . S
Cd178 O177 2.385 . S
Cd178 O179 2.317 . S
O179 Cd178 2.317 . S
O179 C180 1.232 . S
C180 O179 1.232 . S
C180 O181 1.218 . S
O181 C180 1.218 . S
C182 O175 1.275 . S
C182 O177 1.255 . S
C183 O184 1.258 . S
C183 O185 1.256 . S
O184 Cd176 2.381 . S
O184 C183 1.258 . S
O185 Cd176 2.378 . S
O185 C183 1.256 . S
H186 C192 0.930 . S
H187 C195 0.930 . S
H188 C196 0.930 . S
H189 C197 0.930 . S
H190 C200 0.930 . S
H191 C201 0.930 . S
C192 H186 0.930 . S
C192 C193 1.355 . S
C192 C194 1.415 . S
C193 C192 1.355 . S
C193 C195 1.419 . S
C194 C192 1.415 . S
C194 C199 1.425 . S
C194 C201 1.409 . S
C195 H187 0.930 . S
C195 C193 1.419 . S
C195 C196 1.362 . S
C196 H188 0.930 . S
C196 C195 1.362 . S
C196 C199 1.409 . S
C197 H189 0.930 . S
C197 C198 1.355 . S
C197 C199 1.415 . S
C198 C197 1.355 . S
C198 C200 1.419 . S
C199 C194 1.425 . S
C199 C196 1.409 . S
C199 C197 1.415 . S
C200 H190 0.930 . S
C200 C198 1.419 . S
C200 C201 1.362 . S
C201 H191 0.930 . S
C201 C194 1.409 . S
C201 C200 1.362 . S
H202 C208 0.930 . S
H203 C211 0.930 . S
H204 C212 0.930 . S
H205 C213 0.930 . S
H206 C216 0.930 . S
H207 C217 0.930 . S
C208 H202 0.930 . S
C208 C209 1.355 . S
C208 C210 1.415 . S
C209 C208 1.355 . S
C209 C211 1.419 . S
C210 C208 1.415 . S
C210 C215 1.425 . S
C210 C217 1.409 . S
C211 H203 0.930 . S
C211 C209 1.419 . S
C211 C212 1.362 . S
C212 H204 0.930 . S
C212 C211 1.362 . S
C212 C215 1.409 . S
C213 H205 0.930 . S
C213 C214 1.355 . S
C213 C215 1.415 . S
C214 C213 1.355 . S
C214 C216 1.419 . S
C215 C210 1.425 . S
C215 C212 1.409 . S
C215 C213 1.415 . S
C216 H206 0.930 . S
C216 C214 1.419 . S
C216 C217 1.362 . S
C217 H207 0.930 . S
C217 C210 1.409 . S
C217 C216 1.362 . S
H218 C224 0.930 . S
H219 C227 0.930 . S
H220 C228 0.930 . S
H221 C229 0.930 . S
H222 C232 0.930 . S
H223 C233 0.930 . S
C224 H218 0.930 . S
C224 C225 1.355 . S
C224 C226 1.415 . S
C225 C224 1.355 . S
C225 C227 1.419 . S
C226 C224 1.415 . S
C226 C231 1.425 . S
C226 C233 1.409 . S
C227 H219 0.930 . S
C227 C225 1.419 . S
C227 C228 1.362 . S
C228 H220 0.930 . S
C228 C227 1.362 . S
C228 C231 1.409 . S
C229 H221 0.930 . S
C229 C230 1.355 . S
C229 C231 1.415 . S
C230 C229 1.355 . S
C230 C232 1.419 . S
C231 C226 1.425 . S
C231 C228 1.409 . S
C231 C229 1.415 . S
C232 H222 0.930 . S
C232 C230 1.419 . S
C232 C233 1.362 . S
C233 H223 0.930 . S
C233 C226 1.409 . S
C233 C232 1.362 . S
H234 C240 0.930 . S
H235 C243 0.930 . S
H236 C244 0.930 . S
H237 C245 0.930 . S
H238 C248 0.930 . S
H239 C249 0.930 . S
C240 H234 0.930 . S
C240 C241 1.355 . S
C240 C242 1.415 . S
C241 C240 1.355 . S
C241 C243 1.419 . S
C242 C240 1.415 . S
C242 C247 1.425 . S
C242 C249 1.409 . S
C243 H235 0.930 . S
C243 C241 1.419 . S
C243 C244 1.362 . S
C244 H236 0.930 . S
C244 C243 1.362 . S
C244 C247 1.409 . S
C245 H237 0.930 . S
C245 C246 1.355 . S
C245 C247 1.415 . S
C246 C245 1.355 . S
C246 C248 1.419 . S
C247 C242 1.425 . S
C247 C244 1.409 . S
C247 C245 1.415 . S
C248 H238 0.930 . S
C248 C246 1.419 . S
C248 C249 1.362 . S
C249 H239 0.930 . S
C249 C242 1.409 . S
C249 C248 1.362 . S
H250 C256 0.930 . S
H251 C259 0.930 . S
H252 C260 0.930 . S
H253 C261 0.930 . S
H254 C264 0.930 . S
H255 C265 0.930 . S
C256 H250 0.930 . S
C256 C257 1.355 . S
C256 C258 1.415 . S
C257 C256 1.355 . S
C257 C259 1.419 . S
C258 C256 1.415 . S
C258 C263 1.425 . S
C258 C265 1.409 . S
C259 H251 0.930 . S
C259 C257 1.419 . S
C259 C260 1.362 . S
C260 H252 0.930 . S
C260 C259 1.362 . S
C260 C263 1.409 . S
C261 H253 0.930 . S
C261 C262 1.355 . S
C261 C263 1.415 . S
C262 C261 1.355 . S
C262 C264 1.419 . S
C263 C258 1.425 . S
C263 C260 1.409 . S
C263 C261 1.415 . S
C264 H254 0.930 . S
C264 C262 1.419 . S
C264 C265 1.362 . S
C265 H255 0.930 . S
C265 C258 1.409 . S
C265 C264 1.362 . S
H266 C272 0.930 . S
H267 C275 0.930 . S
H268 C276 0.930 . S
H269 C277 0.930 . S
H270 C280 0.930 . S
H271 C281 0.930 . S
C272 H266 0.930 . S
C272 C273 1.355 . S
C272 C274 1.415 . S
C273 C272 1.355 . S
C273 C275 1.419 . S
C274 C272 1.415 . S
C274 C279 1.425 . S
C274 C281 1.409 . S
C275 H267 0.930 . S
C275 C273 1.419 . S
C275 C276 1.362 . S
C276 H268 0.930 . S
C276 C275 1.362 . S
C276 C279 1.409 . S
C277 H269 0.930 . S
C277 C278 1.355 . S
C277 C279 1.415 . S
C278 C277 1.355 . S
C278 C280 1.419 . S
C279 C274 1.425 . S
C279 C276 1.409 . S
C279 C277 1.415 . S
C280 H270 0.930 . S
C280 C278 1.419 . S
C280 C281 1.362 . S
C281 H271 0.930 . S
C281 C274 1.409 . S
C281 C280 1.362 . S
H282 C288 0.930 . S
H283 C291 0.930 . S
H284 C292 0.930 . S
H285 C293 0.930 . S
H286 C296 0.930 . S
H287 C297 0.930 . S
C288 H282 0.930 . S
C288 C289 1.355 . S
C288 C290 1.415 . S
C289 C288 1.355 . S
C289 C291 1.419 . S
C290 C288 1.415 . S
C290 C295 1.425 . S
C290 C297 1.409 . S
C291 H283 0.930 . S
C291 C289 1.419 . S
C291 C292 1.362 . S
C292 H284 0.930 . S
C292 C291 1.362 . S
C292 C295 1.409 . S
C293 H285 0.930 . S
C293 C294 1.355 . S
C293 C295 1.415 . S
C294 C293 1.355 . S
C294 C296 1.419 . S
C295 C290 1.425 . S
C295 C292 1.409 . S
C295 C293 1.415 . S
C296 H286 0.930 . S
C296 C294 1.419 . S
C296 C297 1.362 . S
C297 H287 0.930 . S
C297 C290 1.409 . S
C297 C296 1.362 . S
H298 C304 0.930 . S
H299 C307 0.930 . S
H300 C308 0.930 . S
H301 C309 0.930 . S
H302 C312 0.930 . S
H303 C313 0.930 . S
C304 H298 0.930 . S
C304 C305 1.355 . S
C304 C306 1.415 . S
C305 C304 1.355 . S
C305 C307 1.419 . S
C306 C304 1.415 . S
C306 C311 1.425 . S
C306 C313 1.409 . S
C307 H299 0.930 . S
C307 C305 1.419 . S
C307 C308 1.362 . S
C308 H300 0.930 . S
C308 C307 1.362 . S
C308 C311 1.409 . S
C309 H301 0.930 . S
C309 C310 1.355 . S
C309 C311 1.415 . S
C310 C309 1.355 . S
C310 C312 1.419 . S
C311 C306 1.425 . S
C311 C308 1.409 . S
C311 C309 1.415 . S
C312 H302 0.930 . S
C312 C310 1.419 . S
C312 C313 1.362 . S
C313 H303 0.930 . S
C313 C306 1.409 . S
C313 C312 1.362 . S
H314 C320 0.930 . S
H315 C323 0.930 . S
H316 C324 0.930 . S
H317 C325 0.930 . S
H318 C328 0.930 . S
H319 C329 0.930 . S
C320 H314 0.930 . S
C320 C321 1.355 . S
C320 C322 1.415 . S
C321 C320 1.355 . S
C321 C323 1.419 . S
C322 C320 1.415 . S
C322 C327 1.425 . S
C322 C329 1.409 . S
C323 H315 0.930 . S
C323 C321 1.419 . S
C323 C324 1.362 . S
C324 H316 0.930 . S
C324 C323 1.362 . S
C324 C327 1.409 . S
C325 H317 0.930 . S
C325 C326 1.355 . S
C325 C327 1.415 . S
C326 C325 1.355 . S
C326 C328 1.419 . S
C327 C322 1.425 . S
C327 C324 1.409 . S
C327 C325 1.415 . S
C328 H318 0.930 . S
C328 C326 1.419 . S
C328 C329 1.362 . S
C329 H319 0.930 . S
C329 C322 1.409 . S
C329 C328 1.362 . S
H330 C336 0.930 . S
H331 C339 0.930 . S
H332 C340 0.930 . S
H333 C341 0.930 . S
H334 C344 0.930 . S
H335 C345 0.930 . S
C336 H330 0.930 . S
C336 C337 1.355 . S
C336 C338 1.415 . S
C337 C336 1.355 . S
C337 C339 1.419 . S
C338 C336 1.415 . S
C338 C343 1.425 . S
C338 C345 1.409 . S
C339 H331 0.930 . S
C339 C337 1.419 . S
C339 C340 1.362 . S
C340 H332 0.930 . S
C340 C339 1.362 . S
C340 C343 1.409 . S
C341 H333 0.930 . S
C341 C342 1.355 . S
C341 C343 1.415 . S
C342 C341 1.355 . S
C342 C344 1.419 . S
C343 C338 1.425 . S
C343 C340 1.409 . S
C343 C341 1.415 . S
C344 H334 0.930 . S
C344 C342 1.419 . S
C344 C345 1.362 . S
C345 H335 0.930 . S
C345 C338 1.409 . S
C345 C344 1.362 . S
H346 C352 0.930 . S
H347 C355 0.930 . S
H348 C356 0.930 . S
H349 C357 0.930 . S
H350 C360 0.930 . S
H351 C361 0.930 . S
C352 H346 0.930 . S
C352 C353 1.355 . S
C352 C354 1.415 . S
C353 C352 1.355 . S
C353 C355 1.419 . S
C354 C352 1.415 . S
C354 C359 1.425 . S
C354 C361 1.409 . S
C355 H347 0.930 . S
C355 C353 1.419 . S
C355 C356 1.362 . S
C356 H348 0.930 . S
C356 C355 1.362 . S
C356 C359 1.409 . S
C357 H349 0.930 . S
C357 C358 1.355 . S
C357 C359 1.415 . S
C358 C357 1.355 . S
C358 C360 1.419 . S
C359 C354 1.425 . S
C359 C356 1.409 . S
C359 C357 1.415 . S
C360 H350 0.930 . S
C360 C358 1.419 . S
C360 C361 1.362 . S
C361 H351 0.930 . S
C361 C354 1.409 . S
C361 C360 1.362 . S
H362 C368 0.930 . S
H363 C371 0.930 . S
H364 C372 0.930 . S
H365 C373 0.930 . S
H366 C376 0.930 . S
H367 C377 0.930 . S
C368 H362 0.930 . S
C368 C369 1.355 . S
C368 C370 1.415 . S
C369 C368 1.355 . S
C369 C371 1.419 . S
C370 C368 1.415 . S
C370 C375 1.425 . S
C370 C377 1.409 . S
C371 H363 0.930 . S
C371 C369 1.419 . S
C371 C372 1.362 . S
C372 H364 0.930 . S
C372 C371 1.362 . S
C372 C375 1.409 . S
C373 H365 0.930 . S
C373 C374 1.355 . S
C373 C375 1.415 . S
C374 C373 1.355 . S
C374 C376 1.419 . S
C375 C370 1.425 . S
C375 C372 1.409 . S
C375 C373 1.415 . S
C376 H366 0.930 . S
C376 C374 1.419 . S
C376 C377 1.362 . S
C377 H367 0.930 . S
C377 C370 1.409 . S
C377 C376 1.362 . S
H378 C384 0.930 . S
H379 C387 0.930 . S
H380 C388 0.930 . S
H381 C389 0.930 . S
H382 C392 0.931 . S
H383 C393 0.930 1_655 S
C384 H378 0.930 . S
C384 C385 1.355 . S
C384 C386 1.415 . S
C385 C384 1.355 . S
C385 C387 1.419 . S
C386 C384 1.415 . S
C386 C391 1.425 . S
C386 C393 1.409 . S
C387 H379 0.930 . S
C387 C385 1.419 . S
C387 C388 1.362 . S
C388 H380 0.930 . S
C388 C387 1.362 . S
C388 C391 1.409 . S
C389 H381 0.930 . S
C389 C390 1.355 . S
C389 C391 1.415 1_556 S
C390 C389 1.355 . S
C390 C392 1.419 . S
C391 C386 1.425 . S
C391 C388 1.409 . S
C391 C389 1.415 1_554 S
C392 H382 0.931 . S
C392 C390 1.419 . S
C392 C393 1.362 1_556 S
C393 H383 0.930 1_455 S
C393 C386 1.409 . S
C393 C392 1.362 1_554 S
H394 C400 0.930 . S
H395 C403 0.930 . S
H396 C404 0.930 . S
H397 C405 0.930 . S
H398 C408 0.930 . S
H399 C409 0.930 . S
C400 H394 0.930 . S
C400 C401 1.355 . S
C400 C402 1.415 . S
C401 C400 1.355 . S
C401 C403 1.419 . S
C402 C400 1.415 . S
C402 C407 1.425 . S
C402 C409 1.409 . S
C403 H395 0.930 . S
C403 C401 1.419 . S
C403 C404 1.362 . S
C404 H396 0.930 . S
C404 C403 1.362 . S
C404 C407 1.409 . S
C405 H397 0.930 . S
C405 C406 1.355 . S
C405 C407 1.415 . S
C406 C405 1.355 . S
C406 C408 1.419 . S
C407 C402 1.425 . S
C407 C404 1.409 . S
C407 C405 1.415 . S
C408 H398 0.930 . S
C408 C406 1.419 . S
C408 C409 1.362 . S
C409 H399 0.930 . S
C409 C402 1.409 . S
C409 C408 1.362 . S
H410 C416 0.930 . S
H411 C419 0.930 . S
H412 C420 0.930 . S
H413 C421 0.930 . S
H414 C424 0.930 . S
H415 C425 0.930 . S
C416 H410 0.930 . S
C416 C417 1.355 . S
C416 C418 1.415 . S
C417 C416 1.355 . S
C417 C419 1.419 . S
C418 C416 1.415 . S
C418 C423 1.425 . S
C418 C425 1.409 . S
C419 H411 0.930 . S
C419 C417 1.419 . S
C419 C420 1.362 . S
C420 H412 0.930 . S
C420 C419 1.362 . S
C420 C423 1.409 . S
C421 H413 0.930 . S
C421 C422 1.355 . S
C421 C423 1.415 . S
C422 C421 1.355 . S
C422 C424 1.419 . S
C423 C418 1.425 . S
C423 C420 1.409 . S
C423 C421 1.415 . S
C424 H414 0.930 . S
C424 C422 1.419 . S
C424 C425 1.362 . S
C425 H415 0.930 . S
C425 C418 1.409 . S
C425 C424 1.362 . S
H426 C432 0.930 . S
H427 C435 0.930 . S
H428 C436 0.930 . S
H429 C437 0.930 . S
H430 C440 0.930 . S
H431 C441 0.930 . S
C432 H426 0.930 . S
C432 C433 1.355 . S
C432 C434 1.415 . S
C433 C432 1.355 . S
C433 C435 1.419 1_545 S
C434 C432 1.415 . S
C434 C439 1.425 . S
C434 C441 1.409 . S
C435 H427 0.930 . S
C435 C433 1.419 1_565 S
C435 C436 1.362 . S
C436 H428 0.930 . S
C436 C435 1.362 . S
C436 C439 1.409 1_565 S
C437 H429 0.930 . S
C437 C438 1.355 1_565 S
C437 C439 1.415 1_565 S
C438 C437 1.355 1_545 S
C438 C440 1.419 . S
C439 C434 1.425 . S
C439 C436 1.409 1_545 S
C439 C437 1.415 1_545 S
C440 H430 0.930 . S
C440 C438 1.419 . S
C440 C441 1.362 . S
C441 H431 0.930 . S
C441 C434 1.409 . S
C441 C440 1.362 . S
H442 C448 0.930 . S
H443 C451 0.930 . S
H444 C452 0.930 . S
H445 C453 0.930 . S
H446 C456 0.930 . S
H447 C457 0.930 . S
C448 H442 0.930 . S
C448 C449 1.355 . S
C448 C450 1.415 . S
C449 C448 1.355 . S
C449 C451 1.419 . S
C450 C448 1.415 . S
C450 C455 1.425 . S
C450 C457 1.409 . S
C451 H443 0.930 . S
C451 C449 1.419 . S
C451 C452 1.362 . S
C452 H444 0.930 . S
C452 C451 1.362 . S
C452 C455 1.409 . S
C453 H445 0.930 . S
C453 C454 1.355 . S
C453 C455 1.415 1_554 S
C454 C453 1.355 . S
C454 C456 1.419 . S
C455 C450 1.425 . S
C455 C452 1.409 . S
C455 C453 1.415 1_556 S
C456 H446 0.930 . S
C456 C454 1.419 . S
C456 C457 1.362 1_554 S
C457 H447 0.930 . S
C457 C450 1.409 . S
C457 C456 1.362 1_556 S
H458 C464 0.930 . S
H459 C467 0.930 . S
H460 C468 0.930 . S
H461 C469 0.930 . S
H462 C472 0.930 . S
H463 C473 0.930 . S
C464 H458 0.930 . S
C464 C465 1.355 . S
C464 C466 1.415 . S
C465 C464 1.355 . S
C465 C467 1.419 1_455 S
C466 C464 1.415 . S
C466 C471 1.425 1_455 S
C466 C473 1.409 . S
C467 H459 0.930 . S
C467 C465 1.419 1_655 S
C467 C468 1.362 . S
C468 H460 0.930 . S
C468 C467 1.362 . S
C468 C471 1.409 . S
C469 H461 0.930 . S
C469 C470 1.355 . S
C469 C471 1.415 . S
C470 C469 1.355 . S
C470 C472 1.419 1_655 S
C471 C466 1.425 1_655 S
C471 C468 1.409 . S
C471 C469 1.415 . S
C472 H462 0.930 . S
C472 C470 1.419 1_455 S
C472 C473 1.362 . S
C473 H463 0.930 . S
C473 C466 1.409 . S
C473 C472 1.362 . S
C193 C25 0.428 . S
C198 C180 0.781 . S
C209 C65 0.364 . S
C214 C158 0.566 . S
C225 C105 0.404 . S
C230 C172 0.492 . S
C241 C4 0.554 . S
C246 C183 0.462 . S
C262 C161 0.140 . S
C257 C44 0.406 . S
C278 C169 0.653 . S
C273 C84 0.427 . S
C289 C60 3.142 . S
C294 C136 2.795 . S
C305 C100 3.250 . S
C310 C147 2.858 . S
C321 C31 3.236 . S
C326 C125 2.838 . S
C342 C139 2.924 . S
C337 C71 2.989 . S
C358 C150 2.788 . S
C353 C111 2.867 . S
C369 C20 2.869 . S
C374 C128 2.782 . S
C390 C149 1.675 . S
C385 C2 1.696 . S
C401 C42 1.712 . S
C406 C127 1.712 . S
C417 C82 1.773 . S
C422 C138 1.655 . S
C438 C171 1.160 . S
C433 C63 1.127 . S
C454 C182 1.167 . S
C449 C103 1.223 . S
C465 C23 1.217 . S
C470 C160 1.163 . S
