# Generated by pormake.
# Topology zzz, (3,6)-cn, num edge types: 1
# Building blocks:
#     Node 0, Type 0, BuildingBlock: OLANEW_clean_sbu_2, # of connection points: 3
#     Node 1, Type 0, BuildingBlock: OLANEW_clean_sbu_2, # of connection points: 3
#     Node 2, Type 0, BuildingBlock: OLANEW_clean_sbu_2, # of connection points: 3
#     Node 3, Type 0, BuildingBlock: OLANEW_clean_sbu_2, # of connection points: 3
#     Node 4, Type 0, BuildingBlock: OLANEW_clean_sbu_2, # of connection points: 3
#     Node 5, Type 0, BuildingBlock: OLANEW_clean_sbu_2, # of connection points: 3
#     Node 6, Type 0, BuildingBlock: OLANEW_clean_sbu_2, # of connection points: 3
#     Node 7, Type 0, BuildingBlock: OLANEW_clean_sbu_2, # of connection points: 3
#     Node 8, Type 1, BuildingBlock: BETGAK_clean_sbu_0, # of connection points: 6
#     Node 9, Type 1, BuildingBlock: BETGAK_clean_sbu_0, # of connection points: 6
#     Node 10, Type 1, BuildingBlock: BETGAK_clean_sbu_0, # of connection points: 6
#     Node 11, Type 1, BuildingBlock: BETGAK_clean_sbu_0, # of connection points: 6
#     Edge 12, Type (0, 1), BuildingBlock: KIFKEQ_clean_linker_1, # of connection points: 2
#     Edge 13, Type (0, 1), BuildingBlock: KIFKEQ_clean_linker_1, # of connection points: 2
#     Edge 14, Type (0, 1), BuildingBlock: KIFKEQ_clean_linker_1, # of connection points: 2
#     Edge 15, Type (0, 1), BuildingBlock: KIFKEQ_clean_linker_1, # of connection points: 2
#     Edge 16, Type (0, 1), BuildingBlock: KIFKEQ_clean_linker_1, # of connection points: 2
#     Edge 17, Type (0, 1), BuildingBlock: KIFKEQ_clean_linker_1, # of connection points: 2
#     Edge 18, Type (0, 1), BuildingBlock: KIFKEQ_clean_linker_1, # of connection points: 2
#     Edge 19, Type (0, 1), BuildingBlock: KIFKEQ_clean_linker_1, # of connection points: 2
#     Edge 20, Type (0, 1), BuildingBlock: KIFKEQ_clean_linker_1, # of connection points: 2
#     Edge 21, Type (0, 1), BuildingBlock: KIFKEQ_clean_linker_1, # of connection points: 2
#     Edge 22, Type (0, 1), BuildingBlock: KIFKEQ_clean_linker_1, # of connection points: 2
#     Edge 23, Type (0, 1), BuildingBlock: KIFKEQ_clean_linker_1, # of connection points: 2
#     Edge 24, Type (0, 1), BuildingBlock: KIFKEQ_clean_linker_1, # of connection points: 2
#     Edge 25, Type (0, 1), BuildingBlock: KIFKEQ_clean_linker_1, # of connection points: 2
#     Edge 26, Type (0, 1), BuildingBlock: KIFKEQ_clean_linker_1, # of connection points: 2
#     Edge 27, Type (0, 1), BuildingBlock: KIFKEQ_clean_linker_1, # of connection points: 2
#     Edge 28, Type (0, 1), BuildingBlock: KIFKEQ_clean_linker_1, # of connection points: 2
#     Edge 29, Type (0, 1), BuildingBlock: KIFKEQ_clean_linker_1, # of connection points: 2
#     Edge 30, Type (0, 1), BuildingBlock: KIFKEQ_clean_linker_1, # of connection points: 2
#     Edge 31, Type (0, 1), BuildingBlock: KIFKEQ_clean_linker_1, # of connection points: 2
#     Edge 32, Type (0, 1), BuildingBlock: KIFKEQ_clean_linker_1, # of connection points: 2
#     Edge 33, Type (0, 1), BuildingBlock: KIFKEQ_clean_linker_1, # of connection points: 2
#     Edge 34, Type (0, 1), BuildingBlock: KIFKEQ_clean_linker_1, # of connection points: 2
#     Edge 35, Type (0, 1), BuildingBlock: KIFKEQ_clean_linker_1, # of connection points: 2
# Relax obj value: 0.253
# Max RMSD: 0.193
# Mean RMSD: 0.171
data_MOF--net-zzz--node1-OLANEW_clean_sbu_2--node2-BETGAK_clean_sbu_0--edge1-KIFKEQ_clean_linker_1
_symmetry_space_group_name_H-M    P1
_symmetry_Int_Tables_number       1
_symmetry_cell_setting            triclinic
loop_
_symmetry_equiv_pos_as_xyz
'x, y, z'
_cell_length_a     57.723027
_cell_length_b     57.649236
_cell_length_c     15.48627
_cell_angle_alpha  89.863318
_cell_angle_beta   89.963797
_cell_angle_gamma 89.99136
loop_
_atom_site_label
_atom_site_type_symbol
_atom_site_fract_x
_atom_site_fract_y
_atom_site_fract_z
_atom_type_partial_charge
O0 O 0.73327 0.52444 0.30515 0.0
Cd1 Cd 0.69616 0.5278 0.37978 0.0
O2 O 0.73365 0.48754 0.3401 0.0
Cd3 Cd 0.75453 0.45655 0.36093 0.0
O4 O 0.79063 0.45885 0.39929 0.0
C5 C 0.79457 0.47631 0.44704 0.0
O6 O 0.77704 0.48926 0.47157 0.0
C7 C 0.74333 0.50485 0.30388 0.0
C8 C 0.65973 0.52239 0.26436 0.0
O9 O 0.66822 0.54248 0.28014 0.0
O10 O 0.66833 0.50487 0.30409 0.0
O11 O 0.97171 0.72922 0.25544 0.0
Cd12 Cd 0.96622 0.69271 0.33281 0.0
O13 O 0.0042 0.73271 0.32681 0.0
Cd14 Cd 0.03155 0.75423 0.38004 0.0
O15 O 0.03038 0.79041 0.41613 0.0
C16 C 0.0278 0.79599 0.49471 0.0
O17 O 0.02848 0.77979 0.55445 0.0
C18 C 0.98974 0.74092 0.27275 0.0
C19 C 0.97161 0.65537 0.22185 0.0
O20 O 0.95174 0.66482 0.23322 0.0
O21 O 0.98892 0.66347 0.26396 0.0
O22 O 0.77018 0.97246 0.26155 0.0
Cd23 Cd 0.80653 0.96729 0.33985 0.0
O24 O 0.76723 0.00606 0.32595 0.0
Cd25 Cd 0.74625 0.03459 0.3736 0.0
O26 O 0.71007 0.03411 0.4096 0.0
C27 C 0.70451 0.03139 0.48821 0.0
O28 O 0.72076 0.03161 0.54759 0.0
C29 C 0.75878 0.99094 0.27512 0.0
C30 C 0.84425 0.9735 0.23094 0.0
O31 O 0.83494 0.95348 0.24088 0.0
O32 O 0.8358 0.99059 0.27341 0.0
O33 O 0.52 0.76454 0.26411 0.0
Cd34 Cd 0.52496 0.80249 0.33155 0.0
O35 O 0.48619 0.76245 0.32787 0.0
Cd36 Cd 0.45834 0.74129 0.38003 0.0
O37 O 0.46298 0.70652 0.42975 0.0
C38 C 0.46095 0.70132 0.50905 0.0
O39 O 0.45327 0.71691 0.56379 0.0
C40 C 0.50167 0.75319 0.28062 0.0
C41 C 0.52049 0.83879 0.21426 0.0
O42 O 0.54016 0.82914 0.22775 0.0
O43 O 0.5029 0.83123 0.25635 0.0
O44 O 0.27713 0.52963 0.16265 0.0
Cd45 Cd 0.31537 0.52603 0.09722 0.0
O46 O 0.27145 0.49398 0.11902 0.0
Cd47 Cd 0.2477 0.46581 0.08929 0.0
O48 O 0.21254 0.45867 0.04807 0.0
C49 C 0.20808 0.45766 0.9679 0.0
O50 O 0.22522 0.45887 0.91221 0.0
C51 C 0.264 0.51203 0.15713 0.0
C52 C 0.34878 0.51686 0.22194 0.0
O53 O 0.3443 0.53769 0.19804 0.0
O54 O 0.3375 0.5003 0.18633 0.0
O55 O 0.96506 0.27408 0.12121 0.0
Cd56 Cd 0.96524 0.31277 0.05752 0.0
O57 O 0.00251 0.272 0.09852 0.0
Cd58 Cd 0.03357 0.25076 0.08721 0.0
O59 O 0.04223 0.21544 0.05149 0.0
C60 C 0.04357 0.21063 0.97168 0.0
O61 O 0.04205 0.22752 0.91485 0.0
C62 C 0.98393 0.26286 0.12691 0.0
C63 C 0.97542 0.34512 0.18467 0.0
O64 O 0.95452 0.33871 0.17024 0.0
O65 O 0.99155 0.33651 0.13772 0.0
O66 O 0.22569 0.97456 0.12704 0.0
Cd67 Cd 0.18793 0.97909 0.05893 0.0
O68 O 0.22883 0.01221 0.11212 0.0
Cd69 Cd 0.25068 0.04291 0.10359 0.0
O70 O 0.28493 0.04828 0.04954 0.0
C71 C 0.29032 0.03269 0.99528 0.0
O72 O 0.27499 0.01658 0.97698 0.0
C73 C 0.23742 0.99298 0.13695 0.0
C74 C 0.15431 0.98674 0.18396 0.0
O75 O 0.15851 0.96626 0.1559 0.0
O76 O 0.16586 0.00369 0.15196 0.0
O77 O 0.5111 0.23538 0.14341 0.0
Cd78 Cd 0.50701 0.19671 0.08105 0.0
O79 O 0.48949 0.2473 0.03686 0.0
Cd80 Cd 0.46775 0.26871 0.95293 0.0
O81 O 0.44427 0.26894 0.83473 0.0
C82 C 0.44542 0.28348 0.77235 0.0
O83 O 0.44356 0.26825 0.8343 0.0
C84 C 0.50081 0.25194 0.1051 0.0
C85 C 0.5028 0.16255 0.2077 0.0
O86 O 0.5226 0.16784 0.1757 0.0
O87 O 0.48494 0.17343 0.17974 0.0
La88 La 0.01217 0.99433 0.80044 0.0
La89 La 0.98962 0.01294 0.63694 0.0
C90 C 0.02045 0.9727 0.93867 0.0
C91 C 0.01651 0.94901 0.97217 0.0
C92 C 0.03506 0.93681 0.00889 0.0
C93 C 0.03194 0.9143 0.04064 0.0
C94 C 0.01007 0.90352 0.03709 0.0
C95 C 0.99147 0.91586 1.00006 0.0
C96 C 0.99466 0.93831 0.96759 0.0
C97 C 0.04024 0.00279 0.67022 0.0
C98 C 0.99087 0.95961 0.6612 0.0
C99 C 0.98063 0.0334 0.49679 0.0
C100 C 0.98127 0.0572 0.46206 0.0
C101 C 0.96371 0.06446 0.40571 0.0
C102 C 0.96406 0.08679 0.37043 0.0
C103 C 0.98208 0.10226 0.39055 0.0
C104 C -0.00037 0.09498 0.44752 0.0
C105 C 0.99919 0.07266 0.4833 0.0
C106 C 0.96142 0.00325 0.76452 0.0
C107 C 0.01314 0.04748 0.77471 0.0
O108 O 0.03529 0.97453 0.87512 0.0
O109 O 0.00217 0.98582 0.92689 0.0
O110 O 0.04611 0.00534 0.75051 0.0
O111 O 0.02023 0.99443 0.66655 0.0
O112 O 0.99557 0.96363 0.74358 0.0
O113 O 0.99051 0.97649 0.60324 0.0
O114 O 0.96516 0.0293 0.55671 0.0
O115 O 0.00061 0.02366 0.51417 0.0
O116 O 0.9562 0.00036 0.68383 0.0
O117 O 0.9811 0.01244 0.77084 0.0
O118 O 0.0054 0.04398 0.69502 0.0
O119 O 0.01484 0.03058 0.83213 0.0
H120 H 0.05209 0.94466 0.0126 0.0
H121 H 0.04679 0.90527 0.06697 0.0
H122 H 0.97431 0.90831 0.99707 0.0
H123 H 0.98003 0.94729 0.9392 0.0
H124 H 0.94976 0.05277 0.3885 0.0
H125 H 0.95042 0.09181 0.32616 0.0
H126 H 0.01358 0.10661 0.46504 0.0
H127 H 0.01286 0.0675 0.52721 0.0
La128 La 0.50589 0.01179 0.80034 0.0
La129 La 0.48811 0.99055 0.63394 0.0
C130 C 0.52725 0.01918 0.93954 0.0
C131 C 0.55105 0.01566 0.9724 0.0
C132 C 0.56341 0.03468 0.00482 0.0
C133 C 0.58592 0.0319 0.03653 0.0
C134 C 0.59656 0.00992 0.03739 0.0
C135 C 0.58409 0.99085 0.00475 0.0
C136 C 0.56164 0.99369 0.97229 0.0
C137 C 0.49611 0.04124 0.67548 0.0
C138 C 0.54124 0.99328 0.65748 0.0
C139 C 0.46769 0.98228 0.4934 0.0
C140 C 0.4439 0.98349 0.45925 0.0
C141 C 0.43617 0.96616 0.40286 0.0
C142 C 0.41379 0.96702 0.36853 0.0
C143 C 0.39874 0.98533 0.38973 0.0
C144 C 0.4065 0.00263 0.44679 0.0
C145 C 0.42886 0.00168 0.48149 0.0
C146 C 0.49877 0.96117 0.75722 0.0
C147 C 0.45284 0.01101 0.77563 0.0
O148 O 0.52485 0.03472 0.87848 0.0
O149 O 0.51477 0.00061 0.92502 0.0
O150 O 0.49332 0.04584 0.75681 0.0
O151 O 0.50533 0.02165 0.66786 0.0
O152 O 0.53711 0.99703 0.74048 0.0
O153 O 0.5244 0.99284 0.59972 0.0
O154 O 0.47149 0.96656 0.55279 0.0
O155 O 0.47779 0.00203 0.5113 0.0
O156 O 0.50191 0.95702 0.67579 0.0
O157 O 0.4889 0.98045 0.76632 0.0
O158 O 0.45672 0.00503 0.69413 0.0
O159 O 0.46963 0.01219 0.83336 0.0
H160 H 0.55565 0.0518 0.00532 0.0
H161 H 0.59505 0.04708 0.05948 0.0
H162 H 0.59151 0.9736 0.00532 0.0
H163 H 0.55257 0.97866 0.94756 0.0
H164 H 0.44752 0.95199 0.38492 0.0
H165 H 0.40842 0.95356 0.32417 0.0
H166 H 0.39521 0.01678 0.46524 0.0
H167 H 0.43438 0.01519 0.5254 0.0
La168 La 0.49467 0.50065 0.82337 0.0
La169 La 0.51807 0.4904 0.65163 0.0
C170 C 0.48702 0.51758 0.9706 0.0
C171 C 0.48779 0.5414 0.00708 0.0
C172 C 0.46751 0.55482 0.01307 0.0
C173 C 0.46828 0.57746 0.04547 0.0
C174 C 0.48933 0.58718 0.07337 0.0
C175 C 0.50956 0.57362 0.06858 0.0
C176 C 0.5088 0.55102 0.03598 0.0
C177 C 0.46647 0.49389 0.69263 0.0
C178 C 0.51061 0.54217 0.69589 0.0
C179 C 0.52888 0.47467 0.50555 0.0
C180 C 0.52382 0.45317 0.45838 0.0
C181 C 0.5405 0.44394 0.40247 0.0
C182 C 0.53643 0.42295 0.36017 0.0
C183 C 0.51555 0.41081 0.37309 0.0
C184 C 0.49875 0.42031 0.42864 0.0
C185 C 0.50287 0.44128 0.47101 0.0
C186 C 0.54574 0.49861 0.78206 0.0
C187 C 0.4971 0.4495 0.76825 0.0
O188 O 0.47069 0.51328 0.91413 0.0
O189 O 0.50685 0.50845 0.94754 0.0
O190 O 0.46134 0.48849 0.77193 0.0
O191 O 0.48568 0.50407 0.6911 0.0
O192 O 0.50498 0.53531 0.77519 0.0
O193 O 0.51473 0.52724 0.63318 0.0
O194 O 0.54185 0.47228 0.57431 0.0
O195 O 0.51132 0.4886 0.51888 0.0
O196 O 0.55018 0.5049 0.70338 0.0
O197 O 0.52722 0.48717 0.78418 0.0
O198 O 0.50206 0.45751 0.69011 0.0
O199 O 0.49637 0.46317 0.83674 0.0
H200 H 0.45099 0.54785 0.99237 0.0
H201 H 0.45232 0.58728 0.04942 0.0
H202 H 0.5261 0.58062 0.08863 0.0
H203 H 0.52477 0.54118 0.03284 0.0
H204 H 0.55684 0.45282 0.39248 0.0
H205 H 0.54989 0.41597 0.31898 0.0
H206 H 0.48238 0.41158 0.4393 0.0
H207 H 0.48974 0.44811 0.51403 0.0
La208 La 0.99208 0.48672 0.79075 0.0
La209 La 0.01048 0.50995 0.62889 0.0
C210 C 0.97099 0.47904 0.93083 0.0
C211 C 0.9474 0.48228 0.96699 0.0
C212 C 0.93067 0.46468 0.95964 0.0
C213 C 0.90873 0.46732 0.99661 0.0
C214 C 0.90301 0.48756 0.04247 0.0
C215 C 0.91977 0.50513 0.05023 0.0
C216 C 0.94172 0.50252 0.01301 0.0
C217 C 0.00348 0.45793 0.666 0.0
C218 C 0.9572 0.50541 0.64578 0.0
C219 C 0.03169 0.52279 0.49444 0.0
C220 C 0.05514 0.52056 0.45802 0.0
C221 C 0.06428 0.53901 0.4098 0.0
C222 C 0.08675 0.53779 0.37661 0.0
C223 C 0.10048 0.518 0.39072 0.0
C224 C 0.0912 0.4994 0.43855 0.0
C225 C 0.06874 0.50072 0.47237 0.0
C226 C 0.99826 0.53754 0.75558 0.0
C227 C 0.04514 0.48687 0.76573 0.0
O228 O 0.9734 0.46364 0.86945 0.0
O229 O 0.98314 0.49777 0.91549 0.0
O230 O 0.00437 0.45288 0.74764 0.0
O231 O 0.99428 0.47762 0.65706 0.0
O232 O 0.96075 0.50036 0.72831 0.0
O233 O 0.9745 0.50754 0.59034 0.0
O234 O 0.03002 0.53536 0.56426 0.0
O235 O 0.01917 0.50392 0.49925 0.0
O236 O 0.99486 0.54227 0.67484 0.0
O237 O 0.00876 0.51856 0.76233 0.0
O238 O 0.0414 0.49356 0.68491 0.0
O239 O 0.02835 0.48565 0.82354 0.0
H240 H 0.93457 0.4487 0.92595 0.0
H241 H 0.89635 0.4533 0.99055 0.0
H242 H 0.91587 0.52102 0.08446 0.0
H243 H 0.95427 0.51633 0.02073 0.0
H244 H 0.05405 0.55447 0.39821 0.0
H245 H 0.09333 0.55228 0.33931 0.0
H246 H 0.10147 0.48404 0.45121 0.0
H247 H 0.06208 0.48635 0.51017 0.0
H248 H 0.14627 0.02651 0.27528 0.0
H249 H 0.12313 0.9556 0.2477 0.0
H250 H 0.11811 0.03233 0.39136 0.0
H251 H 0.09514 0.96145 0.36342 0.0
H252 H 0.03206 0.98671 0.50881 0.0
H253 H 0.05911 0.98456 0.38844 0.0
H254 H 0.11182 0.01725 0.54415 0.0
H255 H 0.08449 0.0196 0.66523 0.0
C256 C 0.13513 0.01221 0.29373 0.0
C257 C 0.1369 0.99059 0.25239 0.0
C258 C 0.11913 0.01552 0.36041 0.0
C259 C 0.10445 0.99736 0.38618 0.0
C260 C 0.10607 0.97584 0.3442 0.0
C261 C 0.12218 0.97246 0.27825 0.0
C262 C 0.04932 0.99372 0.51712 0.0
C263 C 0.05626 0.00329 0.59629 0.0
C264 C 0.06484 0.99232 0.44837 0.0
C265 C 0.08759 0.00057 0.45723 0.0
C266 C 0.09432 0.01088 0.53553 0.0
C267 C 0.07878 0.01213 0.60476 0.0
H268 H 0.46449 0.15126 0.30325 0.0
H269 H 0.53632 0.13283 0.26435 0.0
H270 H 0.46125 0.12138 0.41497 0.0
H271 H 0.53304 0.10311 0.37586 0.0
H272 H 0.51243 0.03646 0.5121 0.0
H273 H 0.51266 0.0654 0.39714 0.0
H274 H 0.47722 0.11368 0.56429 0.0
H275 H 0.47683 0.08449 0.67968 0.0
C276 C 0.47956 0.14083 0.31844 0.0
C277 C 0.50067 0.14441 0.27498 0.0
C278 C 0.47772 0.12382 0.38264 0.0
C279 C 0.49687 0.1099 0.40391 0.0
C280 C 0.51791 0.1134 0.36011 0.0
C281 C 0.51982 0.13052 0.29659 0.0
C282 C 0.50444 0.05316 0.52403 0.0
C283 C 0.49464 0.0583 0.60476 0.0
C284 C 0.50474 0.06977 0.45842 0.0
C285 C 0.49512 0.09184 0.47198 0.0
C286 C 0.48465 0.09676 0.55192 0.0
C287 C 0.48451 0.08014 0.61797 0.0
H288 H 0.3587 0.47542 0.30035 0.0
H289 H 0.37859 0.5477 0.29545 0.0
H290 H 0.38771 0.46795 0.41211 0.0
H291 H 0.40735 0.54022 0.40702 0.0
H292 H 0.42333 0.47442 0.6848 0.0
H293 H 0.39493 0.47861 0.56797 0.0
H294 H 0.44442 0.51875 0.42102 0.0
H295 H 0.47243 0.51489 0.53747 0.0
C296 C 0.36926 0.48969 0.323 0.0
C297 C 0.36638 0.51215 0.28901 0.0
C298 C 0.38576 0.48541 0.38723 0.0
C299 C 0.39983 0.50347 0.41796 0.0
C300 C 0.39696 0.52589 0.38375 0.0
C301 C 0.38039 0.5302 0.32017 0.0
C302 C 0.42811 0.48393 0.62707 0.0
C303 C 0.44999 0.49437 0.62013 0.0
C304 C 0.41195 0.48625 0.5602 0.0
C305 C 0.41742 0.49919 0.4858 0.0
C306 C 0.4396 0.50897 0.47809 0.0
C307 C 0.45571 0.50657 0.54449 0.0
H308 H 0.01687 0.3661 0.21983 0.0
H309 H 0.94603 0.3612 0.3087 0.0
H310 H 0.02567 0.39259 0.33858 0.0
H311 H 0.95491 0.38754 0.42708 0.0
H312 H 0.98575 0.41451 0.6791 0.0
H313 H 0.98008 0.38654 0.56237 0.0
H314 H 0.01352 0.4335 0.38389 0.0
H315 H 0.01926 0.46127 0.50101 0.0
C316 C 0.0032 0.37068 0.26457 0.0
C317 C 0.98076 0.36156 0.25496 0.0
C318 C 0.00824 0.38586 0.3323 0.0
C319 C 0.991 0.39194 0.39218 0.0
C320 C 0.96859 0.38286 0.38246 0.0
C321 C 0.96348 0.36792 0.31432 0.0
C322 C 0.99215 0.41866 0.61512 0.0
C323 C 0.00265 0.44015 0.59831 0.0
C324 C 0.98875 0.40278 0.54835 0.0
C325 C 0.99614 0.408 0.46404 0.0
C326 C 0.00762 0.42907 0.44827 0.0
C327 C 0.0107 0.44507 0.51489 0.0
H328 H 0.8638 0.94131 0.12448 0.0
H329 H 0.86847 0.01337 0.19905 0.0
H330 H 0.89399 0.94747 0.01668 0.0
H331 H 0.89852 0.01953 0.09046 0.0
H332 H 0.96561 0.01702 0.93218 0.0
H333 H 0.93905 0.00861 0.05157 0.0
H334 H 0.89571 0.9691 0.87845 0.0
H335 H 0.92239 0.97723 0.75996 0.0
C336 C 0.87136 0.95843 0.11826 0.0
C337 C 0.86363 0.9769 0.16986 0.0
C338 C 0.88857 0.96196 0.05628 0.0
C339 C 0.89849 0.98401 0.04484 0.0
C340 C 0.89132 0.00231 0.09833 0.0
C341 C 0.87401 0.9988 0.16012 0.0
C342 C 0.95052 0.00633 0.9202 0.0
C343 C 0.946 0.9977 0.83724 0.0
C344 C 0.93527 0.00166 0.9882 0.0
C345 C 0.91534 0.98817 0.9743 0.0
C346 C 0.91108 0.97929 0.89138 0.0
C347 C 0.92624 0.98408 0.82345 0.0
H348 H 0.55388 0.85669 0.10829 0.0
H349 H 0.48173 0.86421 0.17768 0.0
H350 H 0.54969 0.88755 0.00138 0.0
H351 H 0.47753 0.89489 0.07008 0.0
H352 H 0.52346 0.92118 0.74765 0.0
H353 H 0.52952 0.89249 0.86172 0.0
H354 H 0.49043 0.93507 0.03896 0.0
H355 H 0.48408 0.96357 0.92422 0.0
C356 C 0.53714 0.86495 0.10086 0.0
C357 C 0.51811 0.85794 0.15119 0.0
C358 C 0.53473 0.88255 0.03938 0.0
C359 C 0.51328 0.89359 0.02723 0.0
C360 C 0.49435 0.88687 0.07861 0.0
C361 C 0.49672 0.86919 0.13983 0.0
C362 C 0.51628 0.92442 0.81115 0.0
C363 C 0.50334 0.94453 0.82737 0.0
C364 C 0.51986 0.90809 0.87655 0.0
C365 C 0.51043 0.91153 0.95926 0.0
C366 C 0.49772 0.93185 0.97564 0.0
C367 C 0.49424 0.94823 0.91027 0.0
H368 H 0.63877 0.48207 0.21456 0.0
H369 H 0.63852 0.55605 0.16843 0.0
H370 H 0.60987 0.47698 0.10144 0.0
H371 H 0.60933 0.55097 0.05639 0.0
H372 H 0.54363 0.47842 0.94119 0.0
H373 H 0.56942 0.48512 0.0638 0.0
H374 H 0.60845 0.53438 0.91124 0.0
H375 H 0.58229 0.52808 0.78982 0.0
C376 C 0.63238 0.49727 0.18091 0.0
C377 C 0.64105 0.51944 0.20003 0.0
C378 C 0.61572 0.49436 0.11644 0.0
C379 C 0.60741 0.51356 0.0697 0.0
C380 C 0.61566 0.5358 0.0904 0.0
C381 C 0.63229 0.53871 0.1549 0.0
C382 C 0.55758 0.49087 0.93448 0.0
C383 C 0.56095 0.50286 0.8565 0.0
C384 C 0.57243 0.49457 0.00429 0.0
C385 C 0.59095 0.5103 0.99722 0.0
C386 C 0.59415 0.5224 0.91916 0.0
C387 C 0.57931 0.51867 0.84944 0.0
H388 H 0.93873 0.63603 0.11787 0.0
H389 H 0.01126 0.63142 0.18511 0.0
H390 H 0.94411 0.60594 0.00936 0.0
H391 H 0.01666 0.60153 0.07575 0.0
H392 H 0.01353 0.53431 0.9215 0.0
H393 H 0.00584 0.56119 0.03993 0.0
H394 H 0.9642 0.6034 0.86904 0.0
H395 H 0.97152 0.57623 0.75138 0.0
C396 C 0.9558 0.62853 0.1098 0.0
C397 C 0.9746 0.63619 0.15975 0.0
C398 C 0.95889 0.61138 0.04736 0.0
C399 C 0.98082 0.60148 0.03379 0.0
C400 C -0.0005 0.60869 0.08531 0.0
C401 C 0.99643 0.6259 0.14759 0.0
C402 C 0.0025 0.54919 0.90978 0.0
C403 C 0.993 0.55321 0.82769 0.0
C404 C 0.99826 0.56465 0.97725 0.0
C405 C 0.98443 0.58439 0.96372 0.0
C406 C 0.97469 0.58818 0.88171 0.0
C407 C 0.97899 0.57275 0.81425 0.0
H408 H 0.01698 0.24278 0.22838 0.0
H409 H 0.95048 0.22985 0.11096 0.0
H410 H 0.01686 0.20384 0.29009 0.0
H411 H 0.95029 0.19076 0.17225 0.0
H412 H 0.94615 0.13278 0.37364 0.0
H413 H 0.94676 0.17134 0.30883 0.0
H414 H 0.01969 0.16339 0.25287 0.0
H415 H 0.0191 0.12495 0.31932 0.0
C416 C 0.00258 0.23139 0.21418 0.0
C417 C 0.98399 0.23913 0.16328 0.0
C418 C 0.00244 0.20909 0.24985 0.0
C419 C 0.98362 0.19407 0.23588 0.0
C420 C 0.96495 0.20194 0.18519 0.0
C421 C 0.96508 0.22427 0.14974 0.0
C422 C 0.96228 0.13924 0.34712 0.0
C423 C 0.98258 0.12584 0.35168 0.0
C424 C 0.96263 0.16132 0.30968 0.0
C425 C 0.98327 0.17049 0.27538 0.0
C426 C 0.00358 0.15704 0.27985 0.0
C427 C 0.00325 0.135 0.31785 0.0
H428 H 0.25868 0.02439 0.24163 0.0
H429 H 0.26931 0.95858 0.11561 0.0
H430 H 0.29779 0.02268 0.30047 0.0
H431 H 0.30859 0.9568 0.1741 0.0
H432 H 0.36756 0.94996 0.37114 0.0
H433 H 0.32879 0.95175 0.30894 0.0
H434 H 0.33794 0.02495 0.25883 0.0
H435 H 0.37657 0.02317 0.32227 0.0
C436 C 0.26958 0.00978 0.22511 0.0
C437 C 0.26114 0.99186 0.17261 0.0
C438 C 0.29198 0.00874 0.25905 0.0
C439 C 0.30644 0.98967 0.24166 0.0
C440 C 0.29786 0.97163 0.18959 0.0
C441 C 0.27541 0.97266 0.15583 0.0
C442 C 0.36132 0.9664 0.34637 0.0
C443 C 0.37511 0.98644 0.35185 0.0
C444 C 0.33912 0.96742 0.31048 0.0
C445 C 0.33021 0.9885 0.27882 0.0
C446 C 0.34408 0.00851 0.2839 0.0
C447 C 0.36623 0.00751 0.32022 0.0
H448 H 0.51115 0.26375 0.27014 0.0
H449 H 0.49349 0.2938 0.023 0.0
H450 H 0.51372 0.3023 0.33233 0.0
H451 H 0.49485 0.33241 0.08635 0.0
H452 H 0.52693 0.39791 0.20808 0.0
H453 H 0.52261 0.35982 0.14209 0.0
H454 H 0.49001 0.33437 0.37508 0.0
H455 H 0.4954 0.37205 0.44249 0.0
C456 C 0.50752 0.27858 0.22921 0.0
C457 C 0.50168 0.27561 0.14186 0.0
C458 C 0.50879 0.3007 0.26515 0.0
C459 C 0.50425 0.32048 0.21467 0.0
C460 C 0.4985 0.31755 0.12708 0.0
C461 C 0.49731 0.29535 0.091 0.0
C462 C 0.51899 0.38414 0.24541 0.0
C463 C 0.51164 0.38803 0.33078 0.0
C464 C 0.51623 0.36237 0.20716 0.0
C465 C 0.50603 0.34399 0.25335 0.0
C466 C 0.49824 0.34804 0.33805 0.0
C467 C 0.50106 0.36976 0.37636 0.0
H468 H 0.23997 0.4775 0.23766 0.0
H469 H 0.23446 0.54889 0.15615 0.0
H470 H 0.2004 0.47878 0.29252 0.0
H471 H 0.19471 0.55026 0.21018 0.0
H472 H 0.13365 0.55167 0.39779 0.0
H473 H 0.17304 0.55026 0.34142 0.0
H474 H 0.16077 0.48078 0.24755 0.0
H475 H 0.12149 0.48209 0.306 0.0
C476 C 0.23009 0.49334 0.22998 0.0
C477 C 0.24008 0.51294 0.19102 0.0
C478 C 0.20742 0.49411 0.26161 0.0
C479 C 0.19424 0.51457 0.25533 0.0
C480 C 0.20441 0.53428 0.21703 0.0
C481 C 0.22714 0.53351 0.18575 0.0
C482 C 0.13936 0.53615 0.36475 0.0
C483 C 0.12449 0.51699 0.35635 0.0
C484 C 0.16192 0.53535 0.33213 0.0
C485 C 0.17013 0.51542 0.28971 0.0
C486 C 0.15518 0.49627 0.2811 0.0
C487 C 0.13266 0.49701 0.3144 0.0
H488 H 0.03023 0.76331 0.23195 0.0
H489 H 0.9559 0.77132 0.22487 0.0
H490 H 0.03489 0.80295 0.17863 0.0
H491 H 0.96059 0.81062 0.16732 0.0
H492 H 0.98244 0.86877 0.97264 0.0
H493 H 0.97716 0.82962 0.02948 0.0
H494 H 0.02547 0.84427 0.23469 0.0
H495 H 0.03018 0.88373 0.18036 0.0
C496 C 0.0149 0.77367 0.22071 0.0
C497 C 0.99271 0.76448 0.23577 0.0
C498 C 0.01757 0.79627 0.18919 0.0
C499 C 0.9981 0.80992 0.16968 0.0
C500 C 0.9759 0.80046 0.1818 0.0
C501 C 0.97323 0.77799 0.21468 0.0
C502 C 0.99169 0.86385 0.03067 0.0
C503 C 0.00676 0.87955 0.0717 0.0
C504 C 0.98872 0.84136 0.06293 0.0
C505 C 0.00096 0.83391 0.13626 0.0
C506 C 0.01604 0.84948 0.17736 0.0
C507 C 0.01879 0.87207 0.14585 0.0
H508 H 0.73697 0.03118 0.22632 0.0
H509 H 0.7279 0.95688 0.23475 0.0
H510 H 0.69743 0.03565 0.17259 0.0
H511 H 0.68872 0.96131 0.17678 0.0
H512 H 0.63099 0.98102 0.9784 0.0
H513 H 0.67003 0.97612 0.03589 0.0
H514 H 0.65599 0.02769 0.23044 0.0
H515 H 0.61663 0.03204 0.17561 0.0
C516 C 0.7264 0.01584 0.2184 0.0
C517 C 0.73528 0.99374 0.2379 0.0
C518 C 0.70386 0.01839 0.18664 0.0
C519 C 0.68995 0.99884 0.17132 0.0
C520 C 0.69908 0.97668 0.18795 0.0
C521 C 0.72149 0.97416 0.22106 0.0
C522 C 0.63602 0.99108 0.03427 0.0
C523 C 0.62051 0.00694 0.07217 0.0
C524 C 0.65845 0.98832 0.0669 0.0
C525 C 0.66604 0.00156 0.13744 0.0
C526 C 0.65068 0.01745 0.1753 0.0
C527 C 0.62814 0.02 0.14348 0.0
H528 H 0.5359 0.72101 0.26407 0.0
H529 H 0.46242 0.73071 0.22788 0.0
H530 H 0.53236 0.68081 0.21622 0.0
H531 H 0.45867 0.69031 0.18254 0.0
H532 H 0.46707 0.62558 0.0097 0.0
H533 H 0.4695 0.66545 0.06128 0.0
H534 H 0.51618 0.64361 0.26361 0.0
H535 H 0.51377 0.60372 0.212 0.0
C536 C 0.51897 0.71448 0.2463 0.0
C537 C 0.49938 0.72887 0.25111 0.0
C538 C 0.51689 0.6914 0.21965 0.0
C539 C 0.4952 0.68225 0.19613 0.0
C540 C 0.47565 0.6968 0.19991 0.0
C541 C 0.47773 0.71985 0.22698 0.0
C542 C 0.47765 0.62922 0.0658 0.0
C543 C 0.49028 0.61142 0.10648 0.0
C544 C 0.47904 0.6521 0.09539 0.0
C545 C 0.49311 0.65777 0.1664 0.0
C546 C 0.50551 0.63993 0.20779 0.0
C547 C 0.50412 0.61705 0.1782 0.0
H548 H 0.77896 0.53586 0.31091 0.0
H549 H 0.76015 0.46887 0.20919 0.0
H550 H 0.81784 0.53168 0.24952 0.0
H551 H 0.79908 0.46426 0.15024 0.0
H552 H 0.86111 0.47629 0.97197 0.0
H553 H 0.8228 0.48048 0.03599 0.0
H554 H 0.85358 0.50901 0.26673 0.0
H555 H 0.89201 0.50492 0.20225 0.0
C556 C 0.7832 0.52023 0.27556 0.0
C557 C 0.76669 0.50256 0.26568 0.0
C558 C 0.8055 0.51771 0.24119 0.0
C559 C 0.81161 0.4976 0.19517 0.0
C560 C 0.79492 0.48005 0.1847 0.0
C561 C 0.7727 0.48256 0.21927 0.0
C562 C 0.85974 0.48329 0.03661 0.0
C563 C 0.87964 0.49026 0.08192 0.0
C564 C 0.83776 0.48568 0.0734 0.0
C565 C 0.8351 0.49507 0.15655 0.0
C566 C 0.85499 0.50204 0.20203 0.0
C567 C 0.87701 0.4997 0.16508 0.0
H568 H 0.05018 0.19404 0.80844 0.0
H569 H 0.03555 0.1721 0.06991 0.0
H570 H 0.04532 0.15423 0.75875 0.0
H571 H 0.02992 0.13259 0.02008 0.0
H572 H 0.03745 0.06011 0.91797 0.0
H573 H 0.04809 0.09901 0.96327 0.0
H574 H 0.01434 0.12737 0.73731 0.0
H575 H 0.00441 0.08833 0.69037 0.0
C576 C 0.04608 0.18069 0.85535 0.0
C577 C 0.04322 0.18621 0.94301 0.0
C578 C 0.04311 0.15791 0.8268 0.0
C579 C 0.03703 0.14021 0.88523 0.0
C580 C 0.0349 0.14568 0.97337 0.0
C581 C 0.03806 0.16839 0.00199 0.0
C582 C 0.03234 0.07463 0.87778 0.0
C583 C 0.01993 0.07114 0.80088 0.0
C584 C 0.03839 0.09696 0.90396 0.0
C585 C 0.03197 0.11636 0.85429 0.0
C586 C 0.01986 0.11282 0.77658 0.0
C587 C 0.014 0.09044 0.74994 0.0
H588 H 0.3063 0.00169 0.877 0.0
H589 H 0.32723 0.06127 0.02686 0.0
H590 H 0.34541 0.9982 0.82005 0.0
H591 H 0.36638 0.05801 0.96833 0.0
H592 H 0.43821 0.02392 0.93619 0.0
H593 H 0.39873 0.03096 0.98404 0.0
H594 H 0.37369 0.01726 0.72628 0.0
H595 H 0.41322 0.00973 0.6784 0.0
C596 C 0.31919 0.01421 0.89711 0.0
C597 C 0.3137 0.0317 0.95675 0.0
C598 C 0.34158 0.01229 0.86395 0.0
C599 C 0.35898 0.02781 0.88975 0.0
C600 C 0.35338 0.04563 0.94802 0.0
C601 C 0.33094 0.04757 0.98117 0.0
C602 C 0.42434 0.02247 0.88947 0.0
C603 C 0.42889 0.01613 0.80352 0.0
C604 C 0.4017 0.0267 0.91685 0.0
C605 C 0.3831 0.02468 0.85895 0.0
C606 C 0.38766 0.0187 0.77263 0.0
C607 C 0.41033 0.01448 0.74516 0.0
H608 H 0.46746 0.30635 0.64691 0.0
H609 H 0.45082 0.31055 0.91792 0.0
H610 H 0.48344 0.34533 0.6511 0.0
H611 H 0.46521 0.35038 0.92161 0.0
H612 H 0.5026 0.42051 0.90819 0.0
H613 H 0.49414 0.37886 0.91474 0.0
H614 H 0.46819 0.3819 0.65275 0.0
H615 H 0.47781 0.42259 0.6454 0.0
C616 C 0.46742 0.31567 0.70762 0.0
C617 C 0.45799 0.30553 0.78181 0.0
C618 C 0.47627 0.33816 0.71001 0.0
C619 C 0.47502 0.35146 0.7861 0.0
C620 C 0.46659 0.34078 0.86184 0.0
C621 C 0.4583 0.31793 0.85986 0.0
C622 C 0.49514 0.41209 0.85227 0.0
C623 C 0.49109 0.42469 0.77604 0.0
C624 C 0.49023 0.38825 0.85591 0.0
C625 C 0.4808 0.37672 0.78379 0.0
C626 C 0.47622 0.38974 0.70868 0.0
C627 C 0.48153 0.41326 0.7046 0.0
H628 H 0.1694 0.466 0.06405 0.0
H629 H 0.19198 0.45143 0.80361 0.0
H630 H 0.13007 0.47153 0.01272 0.0
H631 H 0.1523 0.4561 0.75238 0.0
H632 H 0.0858 0.49572 0.68097 0.0
H633 H 0.12491 0.4864 0.72879 0.0
H634 H 0.09693 0.45297 0.95632 0.0
H635 H 0.05798 0.4631 0.91026 0.0
C636 C 0.16588 0.46351 0.99599 0.0
C637 C 0.18382 0.45833 0.9378 0.0
C638 C 0.14326 0.46659 0.9665 0.0
C639 C 0.13798 0.46433 0.87826 0.0
C640 C 0.15582 0.45838 0.8205 0.0
C641 C 0.17853 0.45552 0.84993 0.0
C642 C 0.08802 0.48634 0.74111 0.0
C643 C 0.06883 0.48038 0.79232 0.0
C644 C 0.11045 0.48083 0.76825 0.0
C645 C 0.11411 0.46901 0.84669 0.0
C646 C 0.0948 0.46251 0.89651 0.0
C647 C 0.07244 0.46825 0.86991 0.0
H648 H 0.00861 0.8284 0.38872 0.0
H649 H 0.0313 0.81722 0.65127 0.0
H650 H 0.99518 0.86699 0.42676 0.0
H651 H 0.01914 0.85637 0.68871 0.0
H652 H 0.98124 0.92088 0.75631 0.0
H653 H 0.98756 0.88071 0.71378 0.0
H654 H 0.00836 0.90384 0.4592 0.0
H655 H 0.00076 0.94364 0.50042 0.0
C656 C 0.01106 0.83438 0.45437 0.0
C657 C 0.02112 0.8199 0.51706 0.0
C658 C 0.00338 0.85654 0.47625 0.0
C659 C 0.006 0.86491 0.56096 0.0
C660 C 0.0163 0.85039 0.62335 0.0
C661 C 0.02357 0.82804 0.60179 0.0
C662 C 0.98663 0.91724 0.69068 0.0
C663 C 0.99055 0.93535 0.63172 0.0
C664 C 0.99054 0.89425 0.66652 0.0
C665 C 0.99891 0.88896 0.58345 0.0
C666 C 0.00169 0.9071 0.52338 0.0
C667 C 0.99734 0.93002 0.54704 0.0
H668 H 0.67196 0.01258 0.38258 0.0
H669 H 0.68342 0.03487 0.64518 0.0
H670 H 0.63338 0.99928 0.42126 0.0
H671 H 0.6443 0.0228 0.68334 0.0
H672 H 0.58015 0.98404 0.7515 0.0
H673 H 0.62015 0.99096 0.70828 0.0
H674 H 0.59658 0.0125 0.45523 0.0
H675 H 0.55694 0.00432 0.49711 0.0
C676 C 0.66603 0.015 0.44836 0.0
C677 C 0.68059 0.0249 0.51088 0.0
C678 C 0.64388 0.00738 0.47062 0.0
C679 C 0.63562 0.00988 0.55558 0.0
C680 C 0.6502 0.02006 0.61778 0.0
C681 C 0.67254 0.02727 0.59581 0.0
C682 C 0.58365 0.98977 0.68608 0.0
C683 C 0.56546 0.99368 0.62771 0.0
C684 C 0.60654 0.99401 0.66153 0.0
C685 C 0.61166 0.0027 0.57864 0.0
C686 C 0.59344 0.00557 0.51922 0.0
C687 C 0.57063 0.00091 0.54327 0.0
H688 H 0.44982 0.6783 0.65812 0.0
H689 H 0.49284 0.67404 0.43038 0.0
H690 H 0.46472 0.64087 0.70705 0.0
H691 H 0.50883 0.63765 0.48126 0.0
H692 H 0.5091 0.56055 0.53447 0.0
H693 H 0.49832 0.59939 0.49345 0.0
H694 H 0.49597 0.61932 0.76256 0.0
H695 H 0.50557 0.57956 0.80408 0.0
C696 C 0.46261 0.66943 0.61906 0.0
C697 C 0.46989 0.67885 0.53996 0.0
C698 C 0.47138 0.64812 0.64746 0.0
C699 C 0.48795 0.63607 0.59802 0.0
C700 C 0.49568 0.64602 0.52013 0.0
C701 C 0.48655 0.66697 0.49094 0.0
C702 C 0.50668 0.57323 0.5852 0.0
C703 C 0.50814 0.5669 0.67265 0.0
C704 C 0.50056 0.59569 0.56151 0.0
C705 C 0.49618 0.61265 0.62454 0.0
C706 C 0.49876 0.60662 0.71223 0.0
C707 C 0.50453 0.58391 0.73608 0.0
H708 H 0.8076 0.50865 0.5651 0.0
H709 H 0.8353 0.45878 0.38442 0.0
H710 H 0.84676 0.51921 0.60816 0.0
H711 H 0.87457 0.4692 0.42845 0.0
H712 H 0.94248 0.50643 0.4778 0.0
H713 H 0.90288 0.5017 0.42542 0.0
H714 H 0.87804 0.49982 0.68854 0.0
H715 H 0.91741 0.50481 0.74101 0.0
C716 C 0.82206 0.49993 0.5346 0.0
C717 C 0.81838 0.48266 0.47221 0.0
C718 C 0.84448 0.50596 0.55943 0.0
C719 C 0.86371 0.49497 0.52197 0.0
C720 C 0.86007 0.4781 0.45798 0.0
C721 C 0.8376 0.47194 0.43348 0.0
C722 C 0.92853 0.50541 0.52446 0.0
C723 C 0.93312 0.50585 0.6136 0.0
C724 C 0.90589 0.50251 0.4944 0.0
C725 C 0.88742 0.50018 0.55289 0.0
C726 C 0.8919 0.50172 0.64186 0.0
C727 C 0.9145 0.50449 0.67191 0.0
loop_
_geom_bond_atom_site_label_1
_geom_bond_atom_site_label_2
_geom_bond_distance
_geom_bond_site_symmetry_2
_ccdc_geom_bond_type
O0 Cd1 2.300 . S
O0 C7 1.275 . S
Cd1 O0 2.300 . S
Cd1 O9 2.381 . S
Cd1 O10 2.378 . S
O2 Cd3 2.385 . S
O2 C7 1.255 . S
Cd3 O2 2.385 . S
Cd3 O4 2.317 . S
O4 Cd3 2.317 . S
O4 C5 1.232 . S
C5 O4 1.232 . S
C5 O6 1.218 . S
O6 C5 1.218 . S
C7 O0 1.275 . S
C7 O2 1.255 . S
C8 O9 1.258 . S
C8 O10 1.256 . S
O9 Cd1 2.381 . S
O9 C8 1.258 . S
O10 Cd1 2.378 . S
O10 C8 1.256 . S
O11 Cd12 2.300 1_655 S
O11 C18 1.275 1_655 S
Cd12 O11 2.300 1_455 S
Cd12 O20 2.381 1_455 S
Cd12 O21 2.378 . S
O13 Cd14 2.385 . S
O13 C18 1.255 . S
Cd14 O13 2.385 . S
Cd14 O15 2.317 . S
O15 Cd14 2.317 . S
O15 C16 1.232 . S
C16 O15 1.232 . S
C16 O17 1.218 . S
O17 C16 1.218 . S
C18 O11 1.275 1_455 S
C18 O13 1.255 . S
C19 O20 1.258 1_455 S
C19 O21 1.256 . S
O20 Cd12 2.381 1_655 S
O20 C19 1.258 1_655 S
O21 Cd12 2.378 . S
O21 C19 1.256 . S
O22 Cd23 2.300 1_565 S
O22 C29 1.275 1_565 S
Cd23 O22 2.300 1_545 S
Cd23 O31 2.381 1_545 S
Cd23 O32 2.378 . S
O24 Cd25 2.385 . S
O24 C29 1.255 . S
Cd25 O24 2.385 . S
Cd25 O26 2.317 . S
O26 Cd25 2.317 . S
O26 C27 1.232 . S
C27 O26 1.232 . S
C27 O28 1.218 . S
O28 C27 1.218 . S
C29 O22 1.275 1_545 S
C29 O24 1.255 . S
C30 O31 1.258 1_545 S
C30 O32 1.256 . S
O31 Cd23 2.381 1_565 S
O31 C30 1.258 1_565 S
O32 Cd23 2.378 . S
O32 C30 1.256 . S
O33 Cd34 2.300 . S
O33 C40 1.275 . S
Cd34 O33 2.300 . S
Cd34 O42 2.381 . S
Cd34 O43 2.378 . S
O35 Cd36 2.385 . S
O35 C40 1.255 . S
Cd36 O35 2.385 . S
Cd36 O37 2.317 . S
O37 Cd36 2.317 . S
O37 C38 1.232 . S
C38 O37 1.232 . S
C38 O39 1.218 . S
O39 C38 1.218 . S
C40 O33 1.275 . S
C40 O35 1.255 . S
C41 O42 1.258 . S
C41 O43 1.256 . S
O42 Cd34 2.381 . S
O42 C41 1.258 . S
O43 Cd34 2.378 . S
O43 C41 1.256 . S
O44 Cd45 2.300 . S
O44 C51 1.275 . S
Cd45 O44 2.300 . S
Cd45 O53 2.381 . S
Cd45 O54 2.378 . S
O46 Cd47 2.385 1_554 S
O46 C51 1.255 . S
Cd47 O46 2.385 1_556 S
Cd47 O48 2.317 . S
O48 Cd47 2.317 . S
O48 C49 1.232 . S
C49 O48 1.232 . S
C49 O50 1.218 . S
O50 C49 1.218 . S
C51 O44 1.275 . S
C51 O46 1.255 . S
C52 O53 1.258 . S
C52 O54 1.256 . S
O53 Cd45 2.381 . S
O53 C52 1.258 . S
O54 Cd45 2.378 . S
O54 C52 1.256 . S
O55 Cd56 2.300 1_655 S
O55 C62 1.275 1_655 S
Cd56 O55 2.300 1_455 S
Cd56 O64 2.381 1_455 S
Cd56 O65 2.378 . S
O57 Cd58 2.385 1_554 S
O57 C62 1.255 . S
Cd58 O57 2.385 1_556 S
Cd58 O59 2.317 . S
O59 Cd58 2.317 . S
O59 C60 1.232 . S
C60 O59 1.232 . S
C60 O61 1.218 . S
O61 C60 1.218 . S
C62 O55 1.275 1_455 S
C62 O57 1.255 . S
C63 O64 1.258 1_455 S
C63 O65 1.256 . S
O64 Cd56 2.381 1_655 S
O64 C63 1.258 1_655 S
O65 Cd56 2.378 . S
O65 C63 1.256 . S
O66 Cd67 2.300 1_565 S
O66 C73 1.275 1_565 S
Cd67 O66 2.300 1_545 S
Cd67 O75 2.381 1_545 S
Cd67 O76 2.378 . S
O68 Cd69 2.385 1_554 S
O68 C73 1.255 . S
Cd69 O68 2.385 1_556 S
Cd69 O70 2.317 . S
O70 Cd69 2.317 . S
O70 C71 1.232 . S
C71 O70 1.232 . S
C71 O72 1.218 . S
O72 C71 1.218 . S
C73 O66 1.275 1_545 S
C73 O68 1.255 . S
C74 O75 1.258 1_545 S
C74 O76 1.256 . S
O75 Cd67 2.381 1_565 S
O75 C74 1.258 1_565 S
O76 Cd67 2.378 . S
O76 C74 1.256 . S
O77 Cd78 2.300 . S
O77 C84 1.275 . S
Cd78 O77 2.300 . S
Cd78 O86 2.381 . S
Cd78 O87 2.378 . S
O79 Cd80 2.385 1_554 S
O79 C84 1.255 . S
Cd80 O79 2.385 1_556 S
Cd80 O81 2.317 . S
O81 Cd80 2.317 . S
O81 C82 1.232 . S
C82 O81 1.232 . S
C82 O83 1.218 . S
O83 C82 1.218 . S
C84 O77 1.275 . S
C84 O79 1.255 . S
C85 O86 1.258 . S
C85 O87 1.256 . S
O86 Cd78 2.381 . S
O86 C85 1.258 . S
O87 Cd78 2.378 . S
O87 C85 1.256 . S
La88 C90 2.928 . S
La88 O108 2.521 . S
La88 O109 2.628 . S
La88 O110 2.554 . S
La88 O111 2.757 1_565 S
La88 O112 2.470 . S
La88 O117 2.482 1_455 S
La88 O119 2.503 1_565 S
La89 C99 2.928 . S
La89 O111 2.482 1_655 S
La89 O113 2.503 1_545 S
La89 O114 2.521 . S
La89 O115 2.628 . S
La89 O116 2.554 . S
La89 O117 2.757 1_545 S
La89 O118 2.470 . S
C90 La88 2.928 . S
C90 C91 1.503 . S
C90 O108 1.261 . S
C90 O109 1.243 . S
C91 C90 1.503 . S
C91 C92 1.394 . S
C91 C96 1.373 . S
C92 C91 1.394 . S
C92 C93 1.380 . S
C92 H120 0.930 . S
C93 C92 1.380 . S
C93 C94 1.376 1_556 S
C93 H121 0.930 1_556 S
C94 C93 1.376 1_554 S
C94 C95 1.370 . S
C95 C94 1.370 . S
C95 C96 1.396 1_554 S
C95 H122 0.929 1_455 S
C96 C91 1.373 . S
C96 C95 1.396 1_556 S
C96 H123 0.929 1_455 S
C97 O110 1.267 . S
C97 O111 1.273 1_565 S
C98 O112 1.258 1_655 S
C98 O113 1.256 . S
C99 La89 2.928 . S
C99 C100 1.503 . S
C99 O114 1.261 . S
C99 O115 1.243 . S
C100 C99 1.503 . S
C100 C101 1.394 . S
C100 C105 1.373 . S
C101 C100 1.394 . S
C101 C102 1.380 . S
C101 H124 0.930 . S
C102 C101 1.380 . S
C102 C103 1.376 . S
C102 H125 0.930 . S
C103 C102 1.376 . S
C103 C104 1.370 . S
C104 C103 1.370 . S
C104 C105 1.396 . S
C104 H126 0.929 1_655 S
C105 C100 1.373 . S
C105 C104 1.396 . S
C105 H127 0.929 1_655 S
C106 O116 1.240 . S
C106 O117 1.289 1_545 S
C107 O118 1.258 1_455 S
C107 O119 1.256 . S
O108 La88 2.521 . S
O108 C90 1.261 . S
O109 La88 2.628 . S
O109 C90 1.243 . S
O110 La88 2.554 . S
O110 C97 1.267 . S
O111 La88 2.757 1_545 S
O111 La89 2.482 1_455 S
O111 C97 1.273 1_545 S
O112 La88 2.470 . S
O112 C98 1.258 1_455 S
O113 La89 2.503 1_565 S
O113 C98 1.256 . S
O114 La89 2.521 . S
O114 C99 1.261 . S
O115 La89 2.628 . S
O115 C99 1.243 . S
O116 La89 2.554 . S
O116 C106 1.240 . S
O117 La88 2.482 1_655 S
O117 La89 2.757 1_565 S
O117 C106 1.289 1_565 S
O118 La89 2.470 . S
O118 C107 1.258 1_655 S
O119 La88 2.503 1_545 S
O119 C107 1.256 . S
H120 C92 0.930 . S
H121 C93 0.930 1_554 S
H122 C95 0.929 1_655 S
H123 C96 0.929 1_655 S
H124 C101 0.930 . S
H125 C102 0.930 . S
H126 C104 0.929 1_455 S
H127 C105 0.929 1_455 S
La128 C130 2.928 . S
La128 O148 2.521 . S
La128 O149 2.628 . S
La128 O150 2.554 . S
La128 O151 2.757 . S
La128 O152 2.470 . S
La128 O157 2.482 1_545 S
La128 O159 2.503 . S
La129 C139 2.928 . S
La129 O151 2.482 1_565 S
La129 O153 2.503 . S
La129 O154 2.521 . S
La129 O155 2.628 . S
La129 O156 2.554 . S
La129 O157 2.757 . S
La129 O158 2.470 . S
C130 La128 2.928 . S
C130 C131 1.503 . S
C130 O148 1.261 . S
C130 O149 1.243 . S
C131 C130 1.503 . S
C131 C132 1.394 . S
C131 C136 1.373 . S
C132 C131 1.394 . S
C132 C133 1.380 . S
C132 H160 0.930 . S
C133 C132 1.380 . S
C133 C134 1.376 1_556 S
C133 H161 0.930 1_556 S
C134 C133 1.376 1_554 S
C134 C135 1.370 . S
C135 C134 1.370 . S
C135 C136 1.396 1_554 S
C135 H162 0.929 1_545 S
C136 C131 1.373 . S
C136 C135 1.396 1_556 S
C136 H163 0.929 1_545 S
C137 O150 1.240 . S
C137 O151 1.289 . S
C138 O152 1.258 1_565 S
C138 O153 1.256 . S
C139 La129 2.928 . S
C139 C140 1.503 . S
C139 O154 1.261 . S
C139 O155 1.243 . S
C140 C139 1.503 . S
C140 C141 1.394 . S
C140 C145 1.373 . S
C141 C140 1.394 . S
C141 C142 1.380 . S
C141 H164 0.930 . S
C142 C141 1.380 . S
C142 C143 1.376 . S
C142 H165 0.930 . S
C143 C142 1.376 . S
C143 C144 1.370 . S
C144 C143 1.370 . S
C144 C145 1.396 . S
C144 H166 0.929 1_565 S
C145 C140 1.373 . S
C145 C144 1.396 . S
C145 H167 0.929 1_565 S
C146 O156 1.240 . S
C146 O157 1.289 . S
C147 O158 1.258 1_545 S
C147 O159 1.256 . S
O148 La128 2.521 . S
O148 C130 1.261 . S
O149 La128 2.628 . S
O149 C130 1.243 . S
O150 La128 2.554 . S
O150 C137 1.240 . S
O151 La128 2.757 . S
O151 La129 2.482 1_545 S
O151 C137 1.289 . S
O152 La128 2.470 . S
O152 C138 1.258 1_545 S
O153 La129 2.503 . S
O153 C138 1.256 . S
O154 La129 2.521 . S
O154 C139 1.261 . S
O155 La129 2.628 . S
O155 C139 1.243 . S
O156 La129 2.554 . S
O156 C146 1.240 . S
O157 La128 2.482 1_565 S
O157 La129 2.757 . S
O157 C146 1.289 . S
O158 La129 2.470 . S
O158 C147 1.258 1_565 S
O159 La128 2.503 . S
O159 C147 1.256 . S
H160 C132 0.930 . S
H161 C133 0.930 1_554 S
H162 C135 0.929 1_565 S
H163 C136 0.929 1_565 S
H164 C141 0.930 . S
H165 C142 0.930 . S
H166 C144 0.929 1_545 S
H167 C145 0.929 1_545 S
La168 C170 2.928 . S
La168 O188 2.521 . S
La168 O189 2.628 . S
La168 O190 2.554 . S
La168 O191 2.757 . S
La168 O192 2.470 . S
La168 O197 2.482 . S
La168 O199 2.503 . S
La169 C179 2.928 . S
La169 O191 2.482 . S
La169 O193 2.503 . S
La169 O194 2.521 . S
La169 O195 2.628 . S
La169 O196 2.554 . S
La169 O197 2.757 . S
La169 O198 2.470 . S
C170 La168 2.928 . S
C170 C171 1.503 . S
C170 O188 1.261 . S
C170 O189 1.243 . S
C171 C170 1.503 . S
C171 C172 1.394 . S
C171 C176 1.373 . S
C172 C171 1.394 . S
C172 C173 1.380 . S
C172 H200 0.930 . S
C173 C172 1.380 . S
C173 C174 1.376 1_556 S
C173 H201 0.930 1_556 S
C174 C173 1.376 1_554 S
C174 C175 1.370 . S
C175 C174 1.370 . S
C175 C176 1.396 1_554 S
C175 H202 0.929 . S
C176 C171 1.373 . S
C176 C175 1.396 1_556 S
C176 H203 0.929 . S
C177 O190 1.240 . S
C177 O191 1.289 . S
C178 O192 1.258 . S
C178 O193 1.256 . S
C179 La169 2.928 . S
C179 C180 1.503 . S
C179 O194 1.261 . S
C179 O195 1.243 . S
C180 C179 1.503 . S
C180 C181 1.394 . S
C180 C185 1.373 . S
C181 C180 1.394 . S
C181 C182 1.380 . S
C181 H204 0.930 . S
C182 C181 1.380 . S
C182 C183 1.376 . S
C182 H205 0.930 . S
C183 C182 1.376 . S
C183 C184 1.370 . S
C184 C183 1.370 . S
C184 C185 1.396 . S
C184 H206 0.929 . S
C185 C180 1.373 . S
C185 C184 1.396 . S
C185 H207 0.929 . S
C186 O196 1.240 . S
C186 O197 1.289 . S
C187 O198 1.258 . S
C187 O199 1.256 . S
O188 La168 2.521 . S
O188 C170 1.261 . S
O189 La168 2.628 . S
O189 C170 1.243 . S
O190 La168 2.554 . S
O190 C177 1.240 . S
O191 La168 2.757 . S
O191 La169 2.482 . S
O191 C177 1.289 . S
O192 La168 2.470 . S
O192 C178 1.258 . S
O193 La169 2.503 . S
O193 C178 1.256 . S
O194 La169 2.521 . S
O194 C179 1.261 . S
O195 La169 2.628 . S
O195 C179 1.243 . S
O196 La169 2.554 . S
O196 C186 1.240 . S
O197 La168 2.482 . S
O197 La169 2.757 . S
O197 C186 1.289 . S
O198 La169 2.470 . S
O198 C187 1.258 . S
O199 La168 2.503 . S
O199 C187 1.256 . S
H200 C172 0.930 . S
H201 C173 0.930 1_554 S
H202 C175 0.929 . S
H203 C176 0.929 . S
H204 C181 0.930 . S
H205 C182 0.930 . S
H206 C184 0.929 . S
H207 C185 0.929 . S
La208 C210 2.928 . S
La208 O228 2.521 . S
La208 O229 2.628 . S
La208 O230 2.554 . S
La208 O231 2.757 1_655 S
La208 O232 2.470 . S
La208 O237 2.482 . S
La208 O239 2.503 1_655 S
La209 C219 2.928 . S
La209 O231 2.482 . S
La209 O233 2.503 1_455 S
La209 O234 2.521 . S
La209 O235 2.628 . S
La209 O236 2.554 . S
La209 O237 2.757 1_455 S
La209 O238 2.470 . S
C210 La208 2.928 . S
C210 C211 1.503 . S
C210 O228 1.261 . S
C210 O229 1.243 . S
C211 C210 1.503 . S
C211 C212 1.394 . S
C211 C216 1.373 . S
C212 C211 1.394 . S
C212 C213 1.380 . S
C212 H240 0.930 . S
C213 C212 1.380 . S
C213 C214 1.376 1_556 S
C213 H241 0.930 1_556 S
C214 C213 1.376 1_554 S
C214 C215 1.370 . S
C215 C214 1.370 . S
C215 C216 1.396 1_554 S
C215 H242 0.929 . S
C216 C211 1.373 . S
C216 C215 1.396 1_556 S
C216 H243 0.929 . S
C217 O230 1.263 . S
C217 O231 1.276 1_655 S
C218 O232 1.258 . S
C218 O233 1.256 . S
C219 La209 2.928 . S
C219 C220 1.503 . S
C219 O234 1.261 . S
C219 O235 1.243 . S
C220 C219 1.503 . S
C220 C221 1.394 . S
C220 C225 1.373 . S
C221 C220 1.394 . S
C221 C222 1.380 . S
C221 H244 0.930 . S
C222 C221 1.380 . S
C222 C223 1.376 . S
C222 H245 0.930 . S
C223 C222 1.376 . S
C223 C224 1.370 . S
C224 C223 1.370 . S
C224 C225 1.396 . S
C224 H246 0.929 . S
C225 C220 1.373 . S
C225 C224 1.396 . S
C225 H247 0.929 . S
C226 O236 1.240 . S
C226 O237 1.289 1_455 S
C227 O238 1.258 . S
C227 O239 1.256 . S
O228 La208 2.521 . S
O228 C210 1.261 . S
O229 La208 2.628 . S
O229 C210 1.243 . S
O230 La208 2.554 . S
O230 C217 1.263 . S
O231 La208 2.757 1_455 S
O231 La209 2.482 . S
O231 C217 1.276 1_455 S
O232 La208 2.470 . S
O232 C218 1.258 . S
O233 La209 2.503 1_655 S
O233 C218 1.256 . S
O234 La209 2.521 . S
O234 C219 1.261 . S
O235 La209 2.628 . S
O235 C219 1.243 . S
O236 La209 2.554 . S
O236 C226 1.240 . S
O237 La208 2.482 . S
O237 La209 2.757 1_655 S
O237 C226 1.289 1_655 S
O238 La209 2.470 . S
O238 C227 1.258 . S
O239 La208 2.503 1_455 S
O239 C227 1.256 . S
H240 C212 0.930 . S
H241 C213 0.930 1_554 S
H242 C215 0.929 . S
H243 C216 0.929 . S
H244 C221 0.930 . S
H245 C222 0.930 . S
H246 C224 0.929 . S
H247 C225 0.929 . S
H248 C256 0.950 . S
H249 C261 0.950 . S
H250 C258 0.950 . S
H251 C260 0.950 . S
H252 C262 0.950 . S
H253 C264 0.950 . S
H254 C266 0.950 . S
H255 C267 0.950 . S
C256 H248 0.950 . S
C256 C257 1.401 . S
C256 C258 1.391 . S
C257 C256 1.401 . S
C257 C261 1.378 1_545 S
C258 H250 0.950 . S
C258 C256 1.391 . S
C258 C259 1.433 . S
C259 C258 1.433 . S
C259 C260 1.365 1_545 S
C259 C265 1.491 . S
C260 H251 0.950 . S
C260 C259 1.365 1_565 S
C260 C261 1.391 . S
C261 H249 0.950 . S
C261 C257 1.378 1_565 S
C261 C260 1.391 . S
C262 H252 0.950 . S
C262 C263 1.386 1_565 S
C262 C264 1.391 . S
C263 C262 1.386 1_545 S
C263 C267 1.393 . S
C264 H253 0.950 . S
C264 C262 1.391 . S
C264 C265 1.364 1_565 S
C265 C259 1.491 . S
C265 C264 1.364 1_545 S
C265 C266 1.435 . S
C266 H254 0.950 . S
C266 C265 1.435 . S
C266 C267 1.391 . S
C267 H255 0.950 . S
C267 C263 1.393 . S
C267 C266 1.391 . S
H268 C276 0.950 . S
H269 C281 0.950 . S
H270 C278 0.950 . S
H271 C280 0.950 . S
H272 C282 0.950 . S
H273 C284 0.950 . S
H274 C286 0.950 . S
H275 C287 0.950 . S
C276 H268 0.950 . S
C276 C277 1.386 . S
C276 C278 1.391 . S
C277 C276 1.386 . S
C277 C281 1.393 . S
C278 H270 0.950 . S
C278 C276 1.391 . S
C278 C279 1.400 . S
C279 C278 1.400 . S
C279 C280 1.398 . S
C279 C285 1.491 . S
C280 H271 0.950 . S
C280 C279 1.398 . S
C280 C281 1.391 . S
C281 H269 0.950 . S
C281 C277 1.393 . S
C281 C280 1.391 . S
C282 H272 0.950 . S
C282 C283 1.386 . S
C282 C284 1.391 . S
C283 C282 1.386 . S
C283 C287 1.393 . S
C284 H273 0.950 . S
C284 C282 1.391 . S
C284 C285 1.400 . S
C285 C279 1.491 . S
C285 C284 1.400 . S
C285 C286 1.398 . S
C286 H274 0.950 . S
C286 C285 1.398 . S
C286 C287 1.391 . S
C287 H275 0.950 . S
C287 C283 1.393 . S
C287 C286 1.391 . S
H288 C296 0.950 . S
H289 C301 0.950 . S
H290 C298 0.950 . S
H291 C300 0.950 . S
H292 C302 0.950 . S
H293 C304 0.950 . S
H294 C306 0.950 . S
H295 C307 0.950 . S
C296 H288 0.950 . S
C296 C297 1.386 . S
C296 C298 1.391 . S
C297 C296 1.386 . S
C297 C301 1.393 . S
C298 H290 0.950 . S
C298 C296 1.391 . S
C298 C299 1.400 . S
C299 C298 1.400 . S
C299 C300 1.398 . S
C299 C305 1.491 . S
C300 H291 0.950 . S
C300 C299 1.398 . S
C300 C301 1.391 . S
C301 H289 0.950 . S
C301 C297 1.393 . S
C301 C300 1.391 . S
C302 H292 0.950 . S
C302 C303 1.386 . S
C302 C304 1.391 . S
C303 C302 1.386 . S
C303 C307 1.393 . S
C304 H293 0.950 . S
C304 C302 1.391 . S
C304 C305 1.400 . S
C305 C299 1.491 . S
C305 C304 1.400 . S
C305 C306 1.398 . S
C306 H294 0.950 . S
C306 C305 1.398 . S
C306 C307 1.391 . S
C307 H295 0.950 . S
C307 C303 1.393 . S
C307 C306 1.391 . S
H308 C316 0.950 . S
H309 C321 0.950 . S
H310 C318 0.950 . S
H311 C320 0.950 . S
H312 C322 0.950 . S
H313 C324 0.950 . S
H314 C326 0.950 . S
H315 C327 0.950 . S
C316 H308 0.950 . S
C316 C317 1.390 1_455 S
C316 C318 1.391 . S
C317 C316 1.390 1_655 S
C317 C321 1.389 . S
C318 H310 0.950 . S
C318 C316 1.391 . S
C318 C319 1.425 . S
C319 C318 1.425 . S
C319 C320 1.373 1_455 S
C319 C325 1.492 . S
C320 H311 0.950 . S
C320 C319 1.373 1_655 S
C320 C321 1.391 . S
C321 H309 0.950 . S
C321 C317 1.389 . S
C321 C320 1.391 . S
C322 H312 0.950 . S
C322 C323 1.386 1_655 S
C322 C324 1.391 . S
C323 C322 1.386 1_455 S
C323 C327 1.393 . S
C324 H313 0.950 . S
C324 C322 1.391 . S
C324 C325 1.400 1_655 S
C325 C319 1.492 . S
C325 C324 1.400 1_455 S
C325 C326 1.398 . S
C326 H314 0.950 . S
C326 C325 1.398 . S
C326 C327 1.391 . S
C327 H315 0.950 . S
C327 C323 1.393 . S
C327 C326 1.391 . S
H328 C336 0.950 . S
H329 C341 0.950 . S
H330 C338 0.950 . S
H331 C340 0.950 . S
H332 C342 0.950 . S
H333 C344 0.950 1_554 S
H334 C346 0.950 1_554 S
H335 C347 0.950 . S
C336 H328 0.950 . S
C336 C337 1.387 1_565 S
C336 C338 1.391 . S
C337 C336 1.387 1_545 S
C337 C341 1.391 . S
C338 H330 0.950 . S
C338 C336 1.391 . S
C338 C339 1.418 . S
C339 C338 1.418 . S
C339 C340 1.381 1_565 S
C339 C345 1.490 . S
C340 H331 0.950 . S
C340 C339 1.381 1_545 S
C340 C341 1.391 . S
C341 H329 0.950 . S
C341 C337 1.391 . S
C341 C340 1.391 . S
C342 H332 0.950 . S
C342 C343 1.386 1_545 S
C342 C344 1.391 . S
C343 C342 1.386 1_565 S
C343 C347 1.393 . S
C344 H333 0.950 1_556 S
C344 C342 1.391 . S
C344 C345 1.365 1_546 S
C345 C339 1.490 . S
C345 C344 1.365 1_564 S
C345 C346 1.434 1_554 S
C346 H334 0.950 1_556 S
C346 C345 1.434 1_556 S
C346 C347 1.391 . S
C347 H335 0.950 . S
C347 C343 1.393 . S
C347 C346 1.391 . S
H348 C356 0.950 . S
H349 C361 0.950 . S
H350 C358 0.950 . S
H351 C360 0.950 . S
H352 C362 0.950 . S
H353 C364 0.950 . S
H354 C366 0.950 . S
H355 C367 0.950 . S
C356 H348 0.950 . S
C356 C357 1.386 . S
C356 C358 1.391 . S
C357 C356 1.386 . S
C357 C361 1.393 . S
C358 H350 0.950 . S
C358 C356 1.391 . S
C358 C359 1.400 . S
C359 C358 1.400 . S
C359 C360 1.398 . S
C359 C365 1.491 . S
C360 H351 0.950 . S
C360 C359 1.398 . S
C360 C361 1.391 . S
C361 H349 0.950 . S
C361 C357 1.393 . S
C361 C360 1.391 . S
C362 H352 0.950 . S
C362 C363 1.386 . S
C362 C364 1.391 . S
C363 C362 1.386 . S
C363 C367 1.393 . S
C364 H353 0.950 . S
C364 C362 1.391 . S
C364 C365 1.400 1_556 S
C365 C359 1.491 . S
C365 C364 1.400 1_554 S
C365 C366 1.398 . S
C366 H354 0.950 . S
C366 C365 1.398 . S
C366 C367 1.391 1_554 S
C367 H355 0.950 . S
C367 C363 1.393 . S
C367 C366 1.391 1_556 S
H368 C376 0.950 . S
H369 C381 0.950 . S
H370 C378 0.950 . S
H371 C380 0.950 . S
H372 C382 0.950 . S
H373 C384 0.950 . S
H374 C386 0.950 . S
H375 C387 0.950 . S
C376 H368 0.950 . S
C376 C377 1.386 . S
C376 C378 1.391 . S
C377 C376 1.386 . S
C377 C381 1.393 . S
C378 H370 0.950 . S
C378 C376 1.391 . S
C378 C379 1.400 . S
C379 C378 1.400 . S
C379 C380 1.398 . S
C379 C385 1.491 . S
C380 H371 0.950 . S
C380 C379 1.398 . S
C380 C381 1.391 . S
C381 H369 0.950 . S
C381 C377 1.393 . S
C381 C380 1.391 . S
C382 H372 0.950 . S
C382 C383 1.386 . S
C382 C384 1.391 1_556 S
C383 C382 1.386 . S
C383 C387 1.393 . S
C384 H373 0.950 . S
C384 C382 1.391 1_554 S
C384 C385 1.400 . S
C385 C379 1.491 . S
C385 C384 1.400 . S
C385 C386 1.398 1_554 S
C386 H374 0.950 . S
C386 C385 1.398 1_556 S
C386 C387 1.391 . S
C387 H375 0.950 . S
C387 C383 1.393 . S
C387 C386 1.391 . S
H388 C396 0.950 . S
H389 C401 0.950 . S
H390 C398 0.950 . S
H391 C400 0.950 . S
H392 C402 0.950 . S
H393 C404 0.950 . S
H394 C406 0.950 . S
H395 C407 0.950 . S
C396 H388 0.950 . S
C396 C397 1.377 1_655 S
C396 C398 1.391 . S
C397 C396 1.377 1_455 S
C397 C401 1.401 . S
C398 H390 0.950 . S
C398 C396 1.391 . S
C398 C399 1.414 . S
C399 C398 1.414 . S
C399 C400 1.384 1_655 S
C399 C405 1.491 . S
C400 H391 0.950 . S
C400 C399 1.384 1_455 S
C400 C401 1.391 . S
C401 H389 0.950 . S
C401 C397 1.401 . S
C401 C400 1.391 . S
C402 H392 0.950 . S
C402 C403 1.386 1_455 S
C402 C404 1.391 1_556 S
C403 C402 1.386 1_655 S
C403 C407 1.393 . S
C404 H393 0.950 . S
C404 C402 1.391 1_554 S
C404 C405 1.400 1_455 S
C405 C399 1.491 . S
C405 C404 1.400 1_655 S
C405 C406 1.398 1_554 S
C406 H394 0.950 . S
C406 C405 1.398 1_556 S
C406 C407 1.391 . S
C407 H395 0.950 . S
C407 C403 1.393 . S
C407 C406 1.391 . S
H408 C416 0.950 . S
H409 C421 0.950 . S
H410 C418 0.950 . S
H411 C420 0.950 . S
H412 C422 0.950 . S
H413 C424 0.950 . S
H414 C426 0.950 1_455 S
H415 C427 0.957 . S
C416 H408 0.950 . S
C416 C417 1.386 . S
C416 C418 1.391 . S
C417 C416 1.386 . S
C417 C421 1.393 1_455 S
C418 H410 0.950 . S
C418 C416 1.391 . S
C418 C419 1.400 1_455 S
C419 C418 1.400 1_655 S
C419 C420 1.398 . S
C419 C425 1.491 . S
C420 H411 0.950 . S
C420 C419 1.398 . S
C420 C421 1.391 . S
C421 H409 0.950 . S
C421 C417 1.393 1_655 S
C421 C420 1.391 . S
C422 H412 0.950 . S
C422 C423 1.386 . S
C422 C424 1.391 . S
C423 C422 1.386 . S
C423 C427 1.393 . S
C424 H413 0.950 . S
C424 C422 1.391 . S
C424 C425 1.400 . S
C425 C419 1.491 . S
C425 C424 1.400 . S
C425 C426 1.398 . S
C426 H414 0.950 1_655 S
C426 C425 1.398 . S
C426 C427 1.391 . S
C427 H415 0.957 . S
C427 C423 1.393 . S
C427 C426 1.391 . S
H428 C436 0.950 . S
H429 C441 0.950 . S
H430 C438 0.950 . S
H431 C440 0.950 . S
H432 C442 0.950 . S
H433 C444 0.950 . S
H434 C446 0.950 1_545 S
H435 C447 0.968 . S
C436 H428 0.950 . S
C436 C437 1.386 . S
C436 C438 1.391 . S
C437 C436 1.386 . S
C437 C441 1.393 1_545 S
C438 H430 0.950 . S
C438 C436 1.391 . S
C438 C439 1.400 1_545 S
C439 C438 1.400 1_565 S
C439 C440 1.398 . S
C439 C445 1.491 . S
C440 H431 0.950 . S
C440 C439 1.398 . S
C440 C441 1.391 . S
C441 H429 0.950 . S
C441 C437 1.393 1_565 S
C441 C440 1.391 . S
C442 H432 0.950 . S
C442 C443 1.386 . S
C442 C444 1.391 . S
C443 C442 1.386 . S
C443 C447 1.393 . S
C444 H433 0.950 . S
C444 C442 1.391 . S
C444 C445 1.400 . S
C445 C439 1.491 . S
C445 C444 1.400 . S
C445 C446 1.398 . S
C446 H434 0.950 1_565 S
C446 C445 1.398 . S
C446 C447 1.391 . S
C447 H435 0.968 . S
C447 C443 1.393 . S
C447 C446 1.391 . S
H448 C456 0.950 . S
H449 C461 0.950 . S
H450 C458 0.950 . S
H451 C460 0.950 . S
H452 C462 0.950 . S
H453 C464 0.950 . S
H454 C466 0.950 . S
H455 C467 0.950 . S
C456 H448 0.950 . S
C456 C457 1.386 . S
C456 C458 1.391 . S
C457 C456 1.386 . S
C457 C461 1.393 . S
C458 H450 0.950 . S
C458 C456 1.391 . S
C458 C459 1.400 . S
C459 C458 1.400 . S
C459 C460 1.398 . S
C459 C465 1.491 . S
C460 H451 0.950 . S
C460 C459 1.398 . S
C460 C461 1.391 . S
C461 H449 0.950 . S
C461 C457 1.393 . S
C461 C460 1.391 . S
C462 H452 0.950 . S
C462 C463 1.386 . S
C462 C464 1.391 . S
C463 C462 1.386 . S
C463 C467 1.393 . S
C464 H453 0.950 . S
C464 C462 1.391 . S
C464 C465 1.400 . S
C465 C459 1.491 . S
C465 C464 1.400 . S
C465 C466 1.398 . S
C466 H454 0.950 . S
C466 C465 1.398 . S
C466 C467 1.391 . S
C467 H455 0.950 . S
C467 C463 1.393 . S
C467 C466 1.391 . S
H468 C476 0.950 . S
H469 C481 0.950 . S
H470 C478 0.950 . S
H471 C480 0.950 . S
H472 C482 0.950 . S
H473 C484 0.950 . S
H474 C486 0.950 . S
H475 C487 0.950 . S
C476 H468 0.950 . S
C476 C477 1.386 . S
C476 C478 1.391 . S
C477 C476 1.386 . S
C477 C481 1.393 . S
C478 H470 0.950 . S
C478 C476 1.391 . S
C478 C479 1.400 . S
C479 C478 1.400 . S
C479 C480 1.398 . S
C479 C485 1.491 . S
C480 H471 0.950 . S
C480 C479 1.398 . S
C480 C481 1.391 . S
C481 H469 0.950 . S
C481 C477 1.393 . S
C481 C480 1.391 . S
C482 H472 0.950 . S
C482 C483 1.386 . S
C482 C484 1.391 . S
C483 C482 1.386 . S
C483 C487 1.393 . S
C484 H473 0.950 . S
C484 C482 1.391 . S
C484 C485 1.400 . S
C485 C479 1.491 . S
C485 C484 1.400 . S
C485 C486 1.398 . S
C486 H474 0.950 . S
C486 C485 1.398 . S
C486 C487 1.391 . S
C487 H475 0.950 . S
C487 C483 1.393 . S
C487 C486 1.391 . S
H488 C496 0.950 . S
H489 C501 0.950 . S
H490 C498 0.950 . S
H491 C500 0.950 . S
H492 C502 0.950 1_556 S
H493 C504 0.950 1_655 S
H494 C506 0.950 . S
H495 C507 0.950 . S
C496 H488 0.950 . S
C496 C497 1.348 1_455 S
C496 C498 1.391 . S
C497 C496 1.348 1_655 S
C497 C501 1.419 . S
C498 H490 0.950 . S
C498 C496 1.391 . S
C498 C499 1.400 . S
C499 C498 1.400 . S
C499 C500 1.398 1_455 S
C499 C505 1.491 . S
C500 H491 0.950 . S
C500 C499 1.398 1_655 S
C500 C501 1.391 . S
C501 H489 0.950 . S
C501 C497 1.419 . S
C501 C500 1.391 . S
C502 H492 0.950 1_554 S
C502 C503 1.386 . S
C502 C504 1.391 . S
C503 C502 1.386 . S
C503 C507 1.393 . S
C504 H493 0.950 1_455 S
C504 C502 1.391 . S
C504 C505 1.400 . S
C505 C499 1.491 . S
C505 C504 1.400 . S
C505 C506 1.398 . S
C506 H494 0.950 . S
C506 C505 1.398 . S
C506 C507 1.391 . S
C507 H495 0.950 . S
C507 C503 1.393 . S
C507 C506 1.391 . S
H508 C516 0.950 . S
H509 C521 0.950 . S
H510 C518 0.950 . S
H511 C520 0.950 . S
H512 C522 0.950 1_556 S
H513 C524 0.950 1_565 S
H514 C526 0.950 . S
H515 C527 0.950 . S
C516 H508 0.950 . S
C516 C517 1.359 1_545 S
C516 C518 1.391 . S
C517 C516 1.359 1_565 S
C517 C521 1.411 . S
C518 H510 0.950 . S
C518 C516 1.391 . S
C518 C519 1.400 . S
C519 C518 1.400 . S
C519 C520 1.398 1_545 S
C519 C525 1.491 . S
C520 H511 0.950 . S
C520 C519 1.398 1_565 S
C520 C521 1.391 . S
C521 H509 0.950 . S
C521 C517 1.411 . S
C521 C520 1.391 . S
C522 H512 0.950 1_554 S
C522 C523 1.386 . S
C522 C524 1.391 . S
C523 C522 1.386 . S
C523 C527 1.393 . S
C524 H513 0.950 1_545 S
C524 C522 1.391 . S
C524 C525 1.400 . S
C525 C519 1.491 . S
C525 C524 1.400 . S
C525 C526 1.398 . S
C526 H514 0.950 . S
C526 C525 1.398 . S
C526 C527 1.391 . S
C527 H515 0.950 . S
C527 C523 1.393 . S
C527 C526 1.391 . S
H528 C536 0.950 . S
H529 C541 0.950 . S
H530 C538 0.950 . S
H531 C540 0.950 . S
H532 C542 0.950 1_556 S
H533 C544 0.950 . S
H534 C546 0.950 . S
H535 C547 0.950 . S
C536 H528 0.950 . S
C536 C537 1.386 . S
C536 C538 1.391 . S
C537 C536 1.386 . S
C537 C541 1.393 . S
C538 H530 0.950 . S
C538 C536 1.391 . S
C538 C539 1.400 . S
C539 C538 1.400 . S
C539 C540 1.398 . S
C539 C545 1.491 . S
C540 H531 0.950 . S
C540 C539 1.398 . S
C540 C541 1.391 . S
C541 H529 0.950 . S
C541 C537 1.393 . S
C541 C540 1.391 . S
C542 H532 0.950 1_554 S
C542 C543 1.386 . S
C542 C544 1.391 . S
C543 C542 1.386 . S
C543 C547 1.393 . S
C544 H533 0.950 . S
C544 C542 1.391 . S
C544 C545 1.400 . S
C545 C539 1.491 . S
C545 C544 1.400 . S
C545 C546 1.398 . S
C546 H534 0.950 . S
C546 C545 1.398 . S
C546 C547 1.391 . S
C547 H535 0.950 . S
C547 C543 1.393 . S
C547 C546 1.391 . S
H548 C556 0.950 . S
H549 C561 0.950 . S
H550 C558 0.950 . S
H551 C560 0.950 . S
H552 C562 0.950 1_556 S
H553 C564 0.950 . S
H554 C566 0.950 . S
H555 C567 0.950 . S
C556 H548 0.950 . S
C556 C557 1.386 . S
C556 C558 1.391 . S
C557 C556 1.386 . S
C557 C561 1.393 . S
C558 H550 0.950 . S
C558 C556 1.391 . S
C558 C559 1.400 . S
C559 C558 1.400 . S
C559 C560 1.398 . S
C559 C565 1.491 . S
C560 H551 0.950 . S
C560 C559 1.398 . S
C560 C561 1.391 . S
C561 H549 0.950 . S
C561 C557 1.393 . S
C561 C560 1.391 . S
C562 H552 0.950 1_554 S
C562 C563 1.386 . S
C562 C564 1.391 . S
C563 C562 1.386 . S
C563 C567 1.393 . S
C564 H553 0.950 . S
C564 C562 1.391 . S
C564 C565 1.400 . S
C565 C559 1.491 . S
C565 C564 1.400 . S
C565 C566 1.398 . S
C566 H554 0.950 . S
C566 C565 1.398 . S
C566 C567 1.391 . S
C567 H555 0.950 . S
C567 C563 1.393 . S
C567 C566 1.391 . S
H568 C576 0.950 . S
H569 C581 0.950 . S
H570 C578 0.950 . S
H571 C580 0.950 . S
H572 C582 0.950 . S
H573 C584 0.950 . S
H574 C586 0.950 . S
H575 C587 0.950 . S
C576 H568 0.950 . S
C576 C577 1.386 . S
C576 C578 1.391 . S
C577 C576 1.386 . S
C577 C581 1.393 1_455 S
C578 H570 0.950 . S
C578 C576 1.391 . S
C578 C579 1.400 . S
C579 C578 1.400 . S
C579 C580 1.398 1_455 S
C579 C585 1.491 . S
C580 H571 0.950 . S
C580 C579 1.398 1_655 S
C580 C581 1.391 . S
C581 H569 0.950 . S
C581 C577 1.393 1_655 S
C581 C580 1.391 . S
C582 H572 0.950 . S
C582 C583 1.386 1_655 S
C582 C584 1.391 . S
C583 C582 1.386 1_455 S
C583 C587 1.393 . S
C584 H573 0.950 . S
C584 C582 1.391 . S
C584 C585 1.400 1_655 S
C585 C579 1.491 . S
C585 C584 1.400 1_455 S
C585 C586 1.398 . S
C586 H574 0.950 . S
C586 C585 1.398 . S
C586 C587 1.391 . S
C587 H575 0.950 . S
C587 C583 1.393 . S
C587 C586 1.391 . S
H588 C596 0.950 . S
H589 C601 0.950 . S
H590 C598 0.950 . S
H591 C600 0.950 . S
H592 C602 0.950 . S
H593 C604 0.950 . S
H594 C606 0.950 . S
H595 C607 0.950 . S
C596 H588 0.950 . S
C596 C597 1.386 1_565 S
C596 C598 1.391 . S
C597 C596 1.386 1_545 S
C597 C601 1.393 . S
C598 H590 0.950 . S
C598 C596 1.391 . S
C598 C599 1.400 1_565 S
C599 C598 1.400 1_545 S
C599 C600 1.398 . S
C599 C605 1.491 . S
C600 H591 0.950 . S
C600 C599 1.398 . S
C600 C601 1.391 . S
C601 H589 0.950 . S
C601 C597 1.393 . S
C601 C600 1.391 . S
C602 H592 0.950 . S
C602 C603 1.386 . S
C602 C604 1.391 . S
C603 C602 1.386 . S
C603 C607 1.393 1_545 S
C604 H593 0.950 . S
C604 C602 1.391 . S
C604 C605 1.400 . S
C605 C599 1.491 . S
C605 C604 1.400 . S
C605 C606 1.398 1_545 S
C606 H594 0.950 . S
C606 C605 1.398 1_565 S
C606 C607 1.391 . S
C607 H595 0.950 . S
C607 C603 1.393 1_565 S
C607 C606 1.391 . S
H608 C616 0.950 . S
H609 C621 0.950 . S
H610 C618 0.950 . S
H611 C620 0.950 . S
H612 C622 0.950 . S
H613 C624 0.950 . S
H614 C626 0.950 . S
H615 C627 0.950 . S
C616 H608 0.950 . S
C616 C617 1.386 . S
C616 C618 1.391 . S
C617 C616 1.386 . S
C617 C621 1.393 . S
C618 H610 0.950 . S
C618 C616 1.391 . S
C618 C619 1.400 . S
C619 C618 1.400 . S
C619 C620 1.398 . S
C619 C625 1.491 . S
C620 H611 0.950 . S
C620 C619 1.398 . S
C620 C621 1.391 . S
C621 H609 0.950 . S
C621 C617 1.393 . S
C621 C620 1.391 . S
C622 H612 0.950 . S
C622 C623 1.386 . S
C622 C624 1.391 . S
C623 C622 1.386 . S
C623 C627 1.393 . S
C624 H613 0.950 . S
C624 C622 1.391 . S
C624 C625 1.400 . S
C625 C619 1.491 . S
C625 C624 1.400 . S
C625 C626 1.398 . S
C626 H614 0.950 . S
C626 C625 1.398 . S
C626 C627 1.391 . S
C627 H615 0.950 . S
C627 C623 1.393 . S
C627 C626 1.391 . S
H628 C636 0.950 . S
H629 C641 0.950 . S
H630 C638 0.950 . S
H631 C640 0.950 . S
H632 C642 0.950 . S
H633 C644 0.950 . S
H634 C646 0.950 . S
H635 C647 0.950 . S
C636 H628 0.950 . S
C636 C637 1.386 . S
C636 C638 1.391 . S
C637 C636 1.386 . S
C637 C641 1.393 . S
C638 H630 0.950 . S
C638 C636 1.391 . S
C638 C639 1.400 . S
C639 C638 1.400 . S
C639 C640 1.398 . S
C639 C645 1.491 . S
C640 H631 0.950 . S
C640 C639 1.398 . S
C640 C641 1.391 . S
C641 H629 0.950 . S
C641 C637 1.393 . S
C641 C640 1.391 . S
C642 H632 0.950 . S
C642 C643 1.386 . S
C642 C644 1.391 . S
C643 C642 1.386 . S
C643 C647 1.393 . S
C644 H633 0.950 . S
C644 C642 1.391 . S
C644 C645 1.400 . S
C645 C639 1.491 . S
C645 C644 1.400 . S
C645 C646 1.398 . S
C646 H634 0.950 . S
C646 C645 1.398 . S
C646 C647 1.391 . S
C647 H635 0.950 . S
C647 C643 1.393 . S
C647 C646 1.391 . S
H648 C656 0.950 . S
H649 C661 0.950 . S
H650 C658 0.950 . S
H651 C660 0.950 . S
H652 C662 0.950 . S
H653 C664 0.950 . S
H654 C666 0.942 1_455 S
H655 C667 0.950 1_455 S
C656 H648 0.950 . S
C656 C657 1.386 1_455 S
C656 C658 1.391 . S
C657 C656 1.386 1_655 S
C657 C661 1.393 . S
C658 H650 0.950 . S
C658 C656 1.391 . S
C658 C659 1.400 1_455 S
C659 C658 1.400 1_655 S
C659 C660 1.398 . S
C659 C665 1.491 . S
C660 H651 0.950 . S
C660 C659 1.398 . S
C660 C661 1.391 . S
C661 H649 0.950 . S
C661 C657 1.393 . S
C661 C660 1.391 . S
C662 H652 0.950 . S
C662 C663 1.386 . S
C662 C664 1.391 . S
C663 C662 1.386 . S
C663 C667 1.393 . S
C664 H653 0.950 . S
C664 C662 1.391 . S
C664 C665 1.400 . S
C665 C659 1.491 . S
C665 C664 1.400 . S
C665 C666 1.405 . S
C666 H654 0.942 1_655 S
C666 C665 1.405 . S
C666 C667 1.393 . S
C667 H655 0.950 1_655 S
C667 C663 1.393 . S
C667 C666 1.393 . S
H668 C676 0.950 . S
H669 C681 0.950 . S
H670 C678 0.950 . S
H671 C680 0.950 . S
H672 C682 0.950 . S
H673 C684 0.950 . S
H674 C686 0.950 . S
H675 C687 0.950 . S
C676 H668 0.950 . S
C676 C677 1.386 1_545 S
C676 C678 1.391 . S
C677 C676 1.386 1_565 S
C677 C681 1.393 . S
C678 H670 0.950 . S
C678 C676 1.391 . S
C678 C679 1.400 1_545 S
C679 C678 1.400 1_565 S
C679 C680 1.398 . S
C679 C685 1.491 . S
C680 H671 0.950 . S
C680 C679 1.398 . S
C680 C681 1.391 . S
C681 H669 0.950 . S
C681 C677 1.393 . S
C681 C680 1.391 . S
C682 H672 0.950 . S
C682 C683 1.386 . S
C682 C684 1.391 . S
C683 C682 1.386 . S
C683 C687 1.393 1_565 S
C684 H673 0.950 . S
C684 C682 1.391 . S
C684 C685 1.400 . S
C685 C679 1.491 . S
C685 C684 1.400 . S
C685 C686 1.398 1_565 S
C686 H674 0.950 . S
C686 C685 1.398 1_545 S
C686 C687 1.391 . S
C687 H675 0.950 . S
C687 C683 1.393 1_545 S
C687 C686 1.391 . S
H688 C696 0.950 . S
H689 C701 0.950 . S
H690 C698 0.950 . S
H691 C700 0.950 . S
H692 C702 0.950 . S
H693 C704 0.950 . S
H694 C706 0.950 . S
H695 C707 0.950 . S
C696 H688 0.950 . S
C696 C697 1.386 . S
C696 C698 1.391 . S
C697 C696 1.386 . S
C697 C701 1.393 . S
C698 H690 0.950 . S
C698 C696 1.391 . S
C698 C699 1.400 . S
C699 C698 1.400 . S
C699 C700 1.398 . S
C699 C705 1.491 . S
C700 H691 0.950 . S
C700 C699 1.398 . S
C700 C701 1.391 . S
C701 H689 0.950 . S
C701 C697 1.393 . S
C701 C700 1.391 . S
C702 H692 0.950 . S
C702 C703 1.386 . S
C702 C704 1.391 . S
C703 C702 1.386 . S
C703 C707 1.393 . S
C704 H693 0.950 . S
C704 C702 1.391 . S
C704 C705 1.400 . S
C705 C699 1.491 . S
C705 C704 1.400 . S
C705 C706 1.398 . S
C706 H694 0.950 . S
C706 C705 1.398 . S
C706 C707 1.391 . S
C707 H695 0.950 . S
C707 C703 1.393 . S
C707 C706 1.391 . S
H708 C716 0.950 . S
H709 C721 0.950 . S
H710 C718 0.950 . S
H711 C720 0.950 . S
H712 C722 0.950 . S
H713 C724 0.950 . S
H714 C726 0.950 . S
H715 C727 0.950 . S
C716 H708 0.950 . S
C716 C717 1.386 . S
C716 C718 1.391 . S
C717 C716 1.386 . S
C717 C721 1.393 . S
C718 H710 0.950 . S
C718 C716 1.391 . S
C718 C719 1.400 . S
C719 C718 1.400 . S
C719 C720 1.398 . S
C719 C725 1.491 . S
C720 H711 0.950 . S
C720 C719 1.398 . S
C720 C721 1.391 . S
C721 H709 0.950 . S
C721 C717 1.393 . S
C721 C720 1.391 . S
C722 H712 0.950 . S
C722 C723 1.386 . S
C722 C724 1.391 . S
C723 C722 1.386 . S
C723 C727 1.393 . S
C724 H713 0.950 . S
C724 C722 1.391 . S
C724 C725 1.400 . S
C725 C719 1.491 . S
C725 C724 1.400 . S
C725 C726 1.398 . S
C726 H714 0.950 . S
C726 C725 1.398 . S
C726 C727 1.391 . S
C727 H715 0.950 . S
C727 C723 1.393 . S
C727 C726 1.391 . S
C257 C74 1.794 . S
C263 C97 1.871 1_545 S
C283 C137 1.878 . S
C277 C85 1.789 . S
C303 C177 1.886 . S
C297 C52 1.792 . S
C323 C217 1.876 1_455 S
C317 C63 1.796 1_655 S
C343 C106 1.882 1_565 S
C337 C30 1.773 . S
C357 C41 1.785 . S
C363 C146 1.879 . S
C377 C8 1.785 . S
C383 C186 1.885 . S
C397 C19 1.775 . S
C403 C226 1.885 1_655 S
C423 C103 0.589 . S
C417 C62 0.549 . S
C443 C143 0.592 . S
C437 C73 0.556 . S
C463 C183 0.562 . S
C457 C84 0.567 . S
C477 C51 0.555 . S
C483 C223 0.599 . S
C497 C18 0.571 1_655 S
C503 C94 0.580 . S
C523 C134 0.579 . S
C517 C29 0.573 1_565 S
C543 C174 0.562 . S
C537 C40 0.580 . S
C557 C7 0.581 . S
C563 C214 0.564 . S
C577 C60 1.691 . S
C583 C107 2.219 . S
C597 C71 1.717 . S
C603 C147 2.224 . S
C623 C187 2.217 . S
C617 C82 1.695 . S
C643 C227 2.235 . S
C637 C49 1.718 . S
C657 C16 1.801 1_655 S
C663 C98 2.231 . S
C683 C138 2.220 . S
C677 C27 1.786 1_565 S
C703 C178 2.230 . S
C697 C38 1.763 . S
C717 C5 1.794 . S
C723 C218 2.233 . S
