# Generated by pormake.
# Topology gar, (4,6)-cn, num edge types: 1
# Building blocks:
#     Node 0, Type 0, BuildingBlock: QUQFOY_clean_sbu_1, # of connection points: 4
#     Node 1, Type 0, BuildingBlock: QUQFOY_clean_sbu_1, # of connection points: 4
#     Node 2, Type 0, BuildingBlock: QUQFOY_clean_sbu_1, # of connection points: 4
#     Node 3, Type 0, BuildingBlock: QUQFOY_clean_sbu_1, # of connection points: 4
#     Node 4, Type 0, BuildingBlock: QUQFOY_clean_sbu_1, # of connection points: 4
#     Node 5, Type 0, BuildingBlock: QUQFOY_clean_sbu_1, # of connection points: 4
#     Node 6, Type 0, BuildingBlock: QUQFOY_clean_sbu_1, # of connection points: 4
#     Node 7, Type 0, BuildingBlock: QUQFOY_clean_sbu_1, # of connection points: 4
#     Node 8, Type 0, BuildingBlock: QUQFOY_clean_sbu_1, # of connection points: 4
#     Node 9, Type 0, BuildingBlock: QUQFOY_clean_sbu_1, # of connection points: 4
#     Node 10, Type 0, BuildingBlock: QUQFOY_clean_sbu_1, # of connection points: 4
#     Node 11, Type 0, BuildingBlock: QUQFOY_clean_sbu_1, # of connection points: 4
#     Node 12, Type 0, BuildingBlock: QUQFOY_clean_sbu_1, # of connection points: 4
#     Node 13, Type 0, BuildingBlock: QUQFOY_clean_sbu_1, # of connection points: 4
#     Node 14, Type 0, BuildingBlock: QUQFOY_clean_sbu_1, # of connection points: 4
#     Node 15, Type 0, BuildingBlock: QUQFOY_clean_sbu_1, # of connection points: 4
#     Node 16, Type 0, BuildingBlock: QUQFOY_clean_sbu_1, # of connection points: 4
#     Node 17, Type 0, BuildingBlock: QUQFOY_clean_sbu_1, # of connection points: 4
#     Node 18, Type 0, BuildingBlock: QUQFOY_clean_sbu_1, # of connection points: 4
#     Node 19, Type 0, BuildingBlock: QUQFOY_clean_sbu_1, # of connection points: 4
#     Node 20, Type 0, BuildingBlock: QUQFOY_clean_sbu_1, # of connection points: 4
#     Node 21, Type 0, BuildingBlock: QUQFOY_clean_sbu_1, # of connection points: 4
#     Node 22, Type 0, BuildingBlock: QUQFOY_clean_sbu_1, # of connection points: 4
#     Node 23, Type 0, BuildingBlock: QUQFOY_clean_sbu_1, # of connection points: 4
#     Node 24, Type 1, BuildingBlock: MIFKUJ_clean_sbu_0, # of connection points: 6
#     Node 25, Type 1, BuildingBlock: MIFKUJ_clean_sbu_0, # of connection points: 6
#     Node 26, Type 1, BuildingBlock: MIFKUJ_clean_sbu_0, # of connection points: 6
#     Node 27, Type 1, BuildingBlock: MIFKUJ_clean_sbu_0, # of connection points: 6
#     Node 28, Type 1, BuildingBlock: MIFKUJ_clean_sbu_0, # of connection points: 6
#     Node 29, Type 1, BuildingBlock: MIFKUJ_clean_sbu_0, # of connection points: 6
#     Node 30, Type 1, BuildingBlock: MIFKUJ_clean_sbu_0, # of connection points: 6
#     Node 31, Type 1, BuildingBlock: MIFKUJ_clean_sbu_0, # of connection points: 6
#     Node 32, Type 1, BuildingBlock: MIFKUJ_clean_sbu_0, # of connection points: 6
#     Node 33, Type 1, BuildingBlock: MIFKUJ_clean_sbu_0, # of connection points: 6
#     Node 34, Type 1, BuildingBlock: MIFKUJ_clean_sbu_0, # of connection points: 6
#     Node 35, Type 1, BuildingBlock: MIFKUJ_clean_sbu_0, # of connection points: 6
#     Node 36, Type 1, BuildingBlock: MIFKUJ_clean_sbu_0, # of connection points: 6
#     Node 37, Type 1, BuildingBlock: MIFKUJ_clean_sbu_0, # of connection points: 6
#     Node 38, Type 1, BuildingBlock: MIFKUJ_clean_sbu_0, # of connection points: 6
#     Node 39, Type 1, BuildingBlock: MIFKUJ_clean_sbu_0, # of connection points: 6
#     Edge 40, Type (0, 1), None
#     Edge 41, Type (0, 1), None
#     Edge 42, Type (0, 1), None
#     Edge 43, Type (0, 1), None
#     Edge 44, Type (0, 1), None
#     Edge 45, Type (0, 1), None
#     Edge 46, Type (0, 1), None
#     Edge 47, Type (0, 1), None
#     Edge 48, Type (0, 1), None
#     Edge 49, Type (0, 1), None
#     Edge 50, Type (0, 1), None
#     Edge 51, Type (0, 1), None
#     Edge 52, Type (0, 1), None
#     Edge 53, Type (0, 1), None
#     Edge 54, Type (0, 1), None
#     Edge 55, Type (0, 1), None
#     Edge 56, Type (0, 1), None
#     Edge 57, Type (0, 1), None
#     Edge 58, Type (0, 1), None
#     Edge 59, Type (0, 1), None
#     Edge 60, Type (0, 1), None
#     Edge 61, Type (0, 1), None
#     Edge 62, Type (0, 1), None
#     Edge 63, Type (0, 1), None
#     Edge 64, Type (0, 1), None
#     Edge 65, Type (0, 1), None
#     Edge 66, Type (0, 1), None
#     Edge 67, Type (0, 1), None
#     Edge 68, Type (0, 1), None
#     Edge 69, Type (0, 1), None
#     Edge 70, Type (0, 1), None
#     Edge 71, Type (0, 1), None
#     Edge 72, Type (0, 1), None
#     Edge 73, Type (0, 1), None
#     Edge 74, Type (0, 1), None
#     Edge 75, Type (0, 1), None
#     Edge 76, Type (0, 1), None
#     Edge 77, Type (0, 1), None
#     Edge 78, Type (0, 1), None
#     Edge 79, Type (0, 1), None
#     Edge 80, Type (0, 1), None
#     Edge 81, Type (0, 1), None
#     Edge 82, Type (0, 1), None
#     Edge 83, Type (0, 1), None
#     Edge 84, Type (0, 1), None
#     Edge 85, Type (0, 1), None
#     Edge 86, Type (0, 1), None
#     Edge 87, Type (0, 1), None
#     Edge 88, Type (0, 1), None
#     Edge 89, Type (0, 1), None
#     Edge 90, Type (0, 1), None
#     Edge 91, Type (0, 1), None
#     Edge 92, Type (0, 1), None
#     Edge 93, Type (0, 1), None
#     Edge 94, Type (0, 1), None
#     Edge 95, Type (0, 1), None
#     Edge 96, Type (0, 1), None
#     Edge 97, Type (0, 1), None
#     Edge 98, Type (0, 1), None
#     Edge 99, Type (0, 1), None
#     Edge 100, Type (0, 1), None
#     Edge 101, Type (0, 1), None
#     Edge 102, Type (0, 1), None
#     Edge 103, Type (0, 1), None
#     Edge 104, Type (0, 1), None
#     Edge 105, Type (0, 1), None
#     Edge 106, Type (0, 1), None
#     Edge 107, Type (0, 1), None
#     Edge 108, Type (0, 1), None
#     Edge 109, Type (0, 1), None
#     Edge 110, Type (0, 1), None
#     Edge 111, Type (0, 1), None
#     Edge 112, Type (0, 1), None
#     Edge 113, Type (0, 1), None
#     Edge 114, Type (0, 1), None
#     Edge 115, Type (0, 1), None
#     Edge 116, Type (0, 1), None
#     Edge 117, Type (0, 1), None
#     Edge 118, Type (0, 1), None
#     Edge 119, Type (0, 1), None
#     Edge 120, Type (0, 1), None
#     Edge 121, Type (0, 1), None
#     Edge 122, Type (0, 1), None
#     Edge 123, Type (0, 1), None
#     Edge 124, Type (0, 1), None
#     Edge 125, Type (0, 1), None
#     Edge 126, Type (0, 1), None
#     Edge 127, Type (0, 1), None
#     Edge 128, Type (0, 1), None
#     Edge 129, Type (0, 1), None
#     Edge 130, Type (0, 1), None
#     Edge 131, Type (0, 1), None
#     Edge 132, Type (0, 1), None
#     Edge 133, Type (0, 1), None
#     Edge 134, Type (0, 1), None
#     Edge 135, Type (0, 1), None
# Relax obj value: 0.154
# Max RMSD: 0.376
# Mean RMSD: 0.176
data_MOF--net-gar--node1-QUQFOY_clean_sbu_1--node2-MIFKUJ_clean_sbu_0--edge1-none
_symmetry_space_group_name_H-M    P1
_symmetry_Int_Tables_number       1
_symmetry_cell_setting            triclinic
loop_
_symmetry_equiv_pos_as_xyz
'x, y, z'
_cell_length_a     27.873965
_cell_length_b     27.873834
_cell_length_c     26.03159
_cell_angle_alpha  94.534559
_cell_angle_beta   94.531193
_cell_angle_gamma 104.35648
loop_
_atom_site_label
_atom_site_type_symbol
_atom_site_fract_x
_atom_site_fract_y
_atom_site_fract_z
_atom_type_partial_charge
O0 O 0.05447 0.21997 0.42202 0.0
Cd1 Cd 0.04983 0.28125 0.38638 0.0
Cd2 Cd 0.02295 0.30448 0.48079 0.0
O3 O 0.04945 0.24671 0.50334 0.0
O4 O 0.09403 0.28293 0.32974 0.0
O5 O 0.10792 0.33862 0.39906 0.0
C6 C 0.12276 0.32125 0.35747 0.0
C7 C 0.04722 0.38614 0.51683 0.0
C8 C 0.05575 0.21386 0.46978 0.0
C9 C 0.94587 0.27777 0.38864 0.0
O10 O 0.95548 0.2814 0.43753 0.0
O11 O 0.98028 0.28417 0.35882 0.0
O12 O 0.0199 0.35257 0.54105 0.0
O13 O 0.06244 0.37267 0.47379 0.0
O14 O 0.04578 0.66243 0.64064 0.0
Cd15 Cd 0.04713 0.72435 0.69097 0.0
Cd16 Cd 0.07692 0.76662 0.60264 0.0
O17 O 0.05382 0.69562 0.56609 0.0
O18 O 0.99691 0.71331 0.74362 0.0
O19 O 0.99331 0.75813 0.67749 0.0
C20 C 0.97457 0.74068 0.71787 0.0
C21 C 0.05474 0.83438 0.57294 0.0
C22 C 0.04668 0.65796 0.5916 0.0
C23 C 0.15046 0.78285 0.69893 0.0
O24 O 0.14201 0.78532 0.6507 0.0
O25 O 0.11615 0.76246 0.72536 0.0
O26 O 0.08793 0.817 0.55146 0.0
O27 O 0.032 0.81115 0.60838 0.0
O28 O 0.64513 0.82321 0.94631 0.0
Cd29 Cd 0.58832 0.81274 0.99354 0.0
Cd30 Cd 0.53941 0.82483 0.90156 0.0
O31 O 0.60423 0.82338 0.8699 0.0
O32 O 0.59952 0.76929 0.04832 0.0
O33 O 0.53769 0.74794 0.98508 0.0
C34 C 0.56105 0.73666 0.02514 0.0
C35 C 0.46459 0.77427 0.86425 0.0
C36 C 0.64421 0.82493 0.89753 0.0
C37 C 0.55073 0.90077 0.997 0.0
O38 O 0.53663 0.88657 0.94931 0.0
O39 O 0.5722 0.87556 0.02501 0.0
O40 O 0.4844 0.81461 0.84442 0.0
O41 O 0.48794 0.76239 0.90392 0.0
O42 O 0.54193 0.17167 0.13383 0.0
Cd43 Cd 0.54548 0.23297 0.18545 0.0
Cd44 Cd 0.57487 0.2741 0.09823 0.0
O45 O 0.54819 0.20485 0.05933 0.0
O46 O 0.49882 0.21744 0.24067 0.0
O47 O 0.49034 0.26599 0.17885 0.0
C48 C 0.47421 0.24527 0.21884 0.0
C49 C 0.55349 0.34349 0.07343 0.0
C50 C 0.54104 0.16717 0.08464 0.0
C51 C 0.65008 0.28622 0.19133 0.0
O52 O 0.64156 0.28851 0.14309 0.0
O53 O 0.61527 0.26883 0.21853 0.0
O54 O 0.58491 0.32578 0.04909 0.0
O55 O 0.53219 0.31995 0.10955 0.0
O56 O 0.04312 0.68643 0.1701 0.0
Cd57 Cd 0.06182 0.75153 0.21817 0.0
Cd58 Cd 0.10409 0.78132 0.12983 0.0
O59 O 0.06598 0.7123 0.09544 0.0
O60 O 0.01143 0.74051 0.26934 0.0
O61 O 0.01729 0.79645 0.21242 0.0
C62 C 0.99406 0.77371 0.24786 0.0
C63 C 0.08776 0.85387 0.10293 0.0
C64 C 0.04559 0.67798 0.12187 0.0
C65 C 0.17048 0.78176 0.2292 0.0
O66 O 0.16601 0.78267 0.18016 0.0
O67 O 0.13282 0.77463 0.25471 0.0
O68 O 0.11513 0.83153 0.07718 0.0
O69 O 0.07032 0.83514 0.14332 0.0
O70 O 0.60846 0.77395 0.39877 0.0
Cd71 Cd 0.54717 0.77859 0.43441 0.0
Cd72 Cd 0.52395 0.80548 0.34 0.0
O73 O 0.58172 0.77898 0.31745 0.0
O74 O 0.54549 0.7344 0.49105 0.0
O75 O 0.4898 0.7205 0.42173 0.0
C76 C 0.50717 0.70567 0.46332 0.0
C77 C 0.4423 0.78121 0.30396 0.0
C78 C 0.61456 0.77267 0.35101 0.0
C79 C 0.55066 0.88255 0.43216 0.0
O80 O 0.54703 0.87295 0.38327 0.0
O81 O 0.54426 0.84815 0.46197 0.0
O82 O 0.47586 0.80853 0.27974 0.0
O83 O 0.45576 0.76599 0.347 0.0
O84 O 0.53993 0.18688 0.67771 0.0
Cd85 Cd 0.55434 0.25357 0.72257 0.0
Cd86 Cd 0.59548 0.28297 0.63536 0.0
O87 O 0.55962 0.21317 0.60228 0.0
O88 O 0.50266 0.24354 0.77172 0.0
O89 O 0.5085 0.29626 0.71126 0.0
C90 C 0.48495 0.27496 0.74737 0.0
C91 C 0.58318 0.35423 0.60196 0.0
C92 C 0.54222 0.17836 0.62948 0.0
C93 C 0.66127 0.2874 0.73616 0.0
O94 O 0.65677 0.28651 0.68697 0.0
O95 O 0.62359 0.28025 0.76147 0.0
O96 O 0.61101 0.32962 0.58013 0.0
O97 O 0.56246 0.3381 0.64195 0.0
O98 O 1.00522 0.1833 0.87449 0.0
Cd99 Cd 0.01569 0.24011 0.82726 0.0
Cd100 Cd 1.0036 0.28902 0.91924 0.0
O101 O 1.00505 0.2242 0.9509 0.0
O102 O 0.05914 0.22891 0.77247 0.0
O103 O 0.08049 0.29074 0.83572 0.0
C104 C 0.09178 0.26738 0.79566 0.0
C105 C 0.05417 0.36384 0.95655 0.0
C106 C 1.0035 0.18422 0.92326 0.0
C107 C 0.92767 0.2777 0.8238 0.0
O108 O 0.94186 0.2918 0.87149 0.0
O109 O 0.95287 0.25623 0.79579 0.0
O110 O 0.01382 0.34403 0.97638 0.0
O111 O 0.06604 0.34049 0.91688 0.0
O112 O 0.43324 0.05048 0.21898 0.0
Cd113 Cd 0.39072 0.04129 0.27923 0.0
Cd114 Cd 0.482 0.02719 0.31737 0.0
O115 O 0.50927 0.05816 0.25622 0.0
O116 O 0.33734 0.07483 0.25862 0.0
O117 O 0.39192 0.09967 0.32844 0.0
C118 C 0.35637 0.10727 0.29766 0.0
C119 C 0.53034 0.04678 0.39575 0.0
C120 C 0.47977 0.05826 0.21699 0.0
C121 C 0.39102 0.93908 0.28921 0.0
O122 O 0.43793 0.95627 0.29775 0.0
O123 O 0.36188 0.9677 0.28881 0.0
O124 O 0.54295 0.02059 0.35871 0.0
O125 O 0.49051 0.06205 0.3878 0.0
O126 O 0.31698 0.15546 0.59972 0.0
Cd127 Cd 0.30213 0.11117 0.53114 0.0
Cd128 Cd 0.26962 0.20222 0.50615 0.0
O129 O 0.30143 0.22735 0.58327 0.0
O130 O 0.33949 0.05959 0.547 0.0
O131 O 0.35829 0.11131 0.48718 0.0
C132 C 0.369 0.07729 0.51356 0.0
C133 C 0.28951 0.25186 0.43332 0.0
C134 C 0.31548 0.19941 0.61485 0.0
C135 C 0.19279 0.09782 0.51013 0.0
O136 O 0.20241 0.14495 0.5066 0.0
O137 O 0.22752 0.07555 0.51359 0.0
O138 O 0.26014 0.26156 0.46641 0.0
O139 O 0.30761 0.21422 0.44092 0.0
O140 O 0.17223 0.00852 0.72053 0.0
Cd141 Cd 0.21415 0.02607 0.79034 0.0
Cd142 Cd 0.12097 0.05372 0.81267 0.0
O143 O 0.09879 0.02118 0.73507 0.0
O144 O 0.26816 0.99102 0.77791 0.0
O145 O 0.21412 0.97069 0.83532 0.0
C146 C 0.2497 0.96108 0.81071 0.0
C147 C 0.07178 0.02992 0.88471 0.0
C148 C 0.12798 0.008 0.70441 0.0
C149 C 0.22223 0.13516 0.81203 0.0
O150 O 0.175 0.12356 0.81501 0.0
O151 O 0.24601 0.10164 0.80778 0.0
O152 O 0.0596 0.05796 0.85141 0.0
O153 O 0.11145 0.01514 0.87754 0.0
O154 O 0.28051 0.89977 0.10118 0.0
Cd155 Cd 0.28717 0.9416 0.04064 0.0
Cd156 Cd 0.3051 0.85085 0.00329 0.0
O157 O 0.26937 0.82374 0.06239 0.0
O158 O 0.25283 0.99395 0.06173 0.0
O159 O 0.22828 0.93883 0.99215 0.0
C160 C 0.22033 0.97417 0.02298 0.0
C161 C 0.29444 0.80217 0.92506 0.0
C162 C 0.27136 0.85312 0.10247 0.0
C163 C 0.38924 0.94438 0.03458 0.0
O164 O 0.37379 0.89724 0.02796 0.0
O165 O 0.35962 0.97224 0.03043 0.0
O166 O 0.31732 0.79031 0.96509 0.0
O167 O 0.27723 0.84106 0.9299 0.0
O168 O 0.31443 0.39754 0.16308 0.0
Cd169 Cd 0.32396 0.45025 0.10659 0.0
Cd170 Cd 0.34515 0.36845 0.05208 0.0
O171 O 0.33227 0.33322 0.12063 0.0
O172 O 0.28839 0.50317 0.12616 0.0
O173 O 0.26551 0.4513 0.05509 0.0
C174 C 0.25898 0.48829 0.08404 0.0
C175 C 0.29496 0.34246 0.97323 0.0
C176 C 0.31933 0.3529 0.16158 0.0
C177 C 0.42353 0.46824 0.06103 0.0
O178 O 0.41118 0.42183 0.04607 0.0
O179 O 0.39483 0.48753 0.08698 0.0
O180 O 0.33065 0.32218 0.98547 0.0
O181 O 0.2862 0.37492 0.00675 0.0
O182 O 0.79711 0.18231 0.13612 0.0
Cd183 Cd 0.78516 0.13941 0.0638 0.0
Cd184 Cd 0.76089 0.22563 0.04509 0.0
O185 O 0.78211 0.25375 0.11806 0.0
O186 O 0.81962 0.08429 0.07075 0.0
O187 O 0.84218 0.14395 0.01981 0.0
C188 C 0.84888 0.10411 0.03794 0.0
C189 C 0.79841 0.26435 0.98246 0.0
C190 C 0.79604 0.22704 0.14992 0.0
C191 C 0.6821 0.13198 0.01506 0.0
O192 O 0.6931 0.17908 0.02124 0.0
O193 O 0.71329 0.10802 0.0293 0.0
O194 O 0.76514 0.28133 0.0043 0.0
O195 O 0.81237 0.22701 0.9991 0.0
O196 O 0.14052 0.52916 0.18496 0.0
Cd197 Cd 0.18541 0.54137 0.25565 0.0
Cd198 Cd 0.10067 0.5665 0.2779 0.0
O199 O 0.07104 0.54762 0.20446 0.0
O200 O 0.24115 0.51039 0.24118 0.0
O201 O 0.18926 0.48562 0.29947 0.0
C202 C 0.22725 0.48112 0.27609 0.0
C203 C 0.0651 0.52532 0.34077 0.0
C204 C 0.09643 0.53238 0.17189 0.0
C205 C 0.19559 0.64425 0.3053 0.0
O206 O 0.14849 0.63394 0.3023 0.0
O207 O 0.21808 0.61281 0.28837 0.0
O208 O 0.04679 0.55917 0.32179 0.0
O209 O 0.10209 0.51298 0.32129 0.0
O210 O 0.80909 0.89535 0.65922 0.0
Cd211 Cd 0.81989 0.94518 0.59972 0.0
Cd212 Cd 0.84259 0.86214 0.55 0.0
O213 O 0.82597 0.82921 0.61945 0.0
O214 O 0.78753 1.00087 0.61787 0.0
O215 O 0.76191 0.94829 0.54769 0.0
C216 C 0.75775 0.98687 0.57591 0.0
C217 C 0.79799 0.83827 0.46799 0.0
C218 C 0.81326 0.85055 0.65962 0.0
C219 C 0.92206 0.95978 0.559 0.0
O220 O 0.91029 0.913 0.54641 0.0
O221 O 0.89199 0.98027 0.5813 0.0
O222 O 0.83015 0.81505 0.48408 0.0
O223 O 0.78852 0.87178 0.49986 0.0
O224 O 0.93308 0.01935 0.16158 0.0
Cd225 Cd 0.88325 0.00854 0.22108 0.0
Cd226 Cd 0.96629 0.98585 0.27079 0.0
O227 O 0.99922 1.00247 0.20134 0.0
O228 O 0.82756 0.04091 0.20293 0.0
O229 O 0.88013 0.06652 0.27311 0.0
C230 C 0.84156 0.07068 0.24489 0.0
C231 C 0.99016 0.03045 0.3528 0.0
C232 C 0.97788 0.01518 0.16117 0.0
C233 C 0.86865 0.90637 0.26179 0.0
O234 O 0.91543 0.91814 0.27438 0.0
O235 O 0.84817 0.93644 0.23949 0.0
O236 O 0.01338 0.99829 0.33671 0.0
O237 O 0.95665 0.03992 0.32095 0.0
O238 O 0.29927 0.6879 0.63583 0.0
Cd239 Cd 0.28706 0.64302 0.56515 0.0
Cd240 Cd 0.26194 0.72775 0.5429 0.0
O241 O 0.28083 0.75739 0.61634 0.0
O242 O 0.31804 0.58727 0.57961 0.0
O243 O 0.34282 0.63917 0.52133 0.0
C244 C 0.34732 0.60118 0.54471 0.0
C245 C 0.30312 0.76333 0.48002 0.0
C246 C 0.29606 0.73199 0.64891 0.0
C247 C 0.18418 0.63284 0.5155 0.0
O248 O 0.1945 0.67994 0.5185 0.0
O249 O 0.21562 0.61034 0.53242 0.0
O250 O 0.26927 0.78164 0.49901 0.0
O251 O 0.31546 0.72633 0.4995 0.0
O252 O 0.43089 0.514 0.65772 0.0
Cd253 Cd 0.37819 0.50448 0.71421 0.0
Cd254 Cd 0.45998 0.48329 0.76872 0.0
O255 O 0.49521 0.49617 0.70017 0.0
O256 O 0.32527 0.54004 0.69464 0.0
O257 O 0.37713 0.56293 0.76571 0.0
C258 C 0.34014 0.56946 0.73677 0.0
C259 C 0.48597 0.53348 0.84757 0.0
C260 C 0.47554 0.50911 0.65922 0.0
C261 C 0.36019 0.40491 0.75977 0.0
O262 O 0.40661 0.41726 0.77473 0.0
O263 O 0.3409 0.43361 0.73383 0.0
O264 O 0.50625 0.49779 0.83533 0.0
O265 O 0.45351 0.54224 0.81405 0.0
O266 O 0.64611 0.03132 0.68468 0.0
Cd267 Cd 0.68902 0.04328 0.757 0.0
Cd268 Cd 0.60279 0.06754 0.77571 0.0
O269 O 0.57468 0.04633 0.70274 0.0
O270 O 0.74413 0.00881 0.75004 0.0
O271 O 0.68448 0.98626 0.80099 0.0
C272 C 0.72432 0.97955 0.78286 0.0
C273 C 0.56408 0.03002 0.83834 0.0
C274 C 0.60138 0.03239 0.67088 0.0
C275 C 0.69644 0.14633 0.80574 0.0
O276 O 0.64935 0.13534 0.79957 0.0
O277 O 0.72041 0.11514 0.7915 0.0
O278 O 0.54709 0.0633 0.8165 0.0
O279 O 0.60141 0.01607 0.82169 0.0
O280 O 0.81991 0.65621 0.10026 0.0
Cd281 Cd 0.80236 0.61428 0.03045 0.0
Cd282 Cd 0.77471 0.70747 0.00813 0.0
O283 O 0.80725 0.72965 0.08572 0.0
O284 O 0.83742 0.56029 0.04287 0.0
O285 O 0.85775 0.61432 0.98546 0.0
C286 C 0.86736 0.57874 0.01008 0.0
C287 C 0.79852 0.75666 0.93608 0.0
C288 C 0.82043 0.70047 0.11639 0.0
C289 C 0.69328 0.60621 0.00876 0.0
O290 O 0.70487 0.65344 0.00579 0.0
O291 O 0.7268 0.58243 0.01301 0.0
O292 O 0.77047 0.76884 0.96938 0.0
O293 O 0.81329 0.71699 0.94326 0.0
O294 O 0.92868 0.54793 0.71964 0.0
Cd295 Cd 0.88685 0.54128 0.78017 0.0
Cd296 Cd 0.9776 0.52334 0.81752 0.0
O297 O 1.00471 0.55906 0.75842 0.0
O298 O 0.8345 0.57561 0.75907 0.0
O299 O 0.88961 0.60017 0.82866 0.0
C300 C 0.85427 0.60812 0.79782 0.0
C301 C 0.02628 0.53399 0.89575 0.0
C302 C 0.97533 0.55708 0.71834 0.0
C303 C 0.88407 0.4392 0.78623 0.0
O304 O 0.93121 0.45464 0.79286 0.0
O305 O 0.8562 0.46882 0.79039 0.0
O306 O 0.03814 0.51111 0.85572 0.0
O307 O 0.98739 0.55121 0.89091 0.0
O308 O 0.77796 0.3952 0.60184 0.0
Cd309 Cd 0.78716 0.43772 0.54159 0.0
Cd310 Cd 0.80125 0.34645 0.50344 0.0
O311 O 0.77028 0.31917 0.56459 0.0
O312 O 0.75361 0.4911 0.56218 0.0
O313 O 0.72877 0.43652 0.49237 0.0
C314 C 0.72118 0.47207 0.52315 0.0
C315 C 0.78166 0.29811 0.42506 0.0
C316 C 0.77018 0.34868 0.60382 0.0
C317 C 0.88936 0.43742 0.5316 0.0
O318 O 0.87217 0.39051 0.52306 0.0
O319 O 0.86074 0.46657 0.532 0.0
O320 O 0.80785 0.28549 0.46209 0.0
O321 O 0.76638 0.33793 0.43301 0.0
O322 O 0.67298 0.51145 0.22107 0.0
Cd323 Cd 0.71727 0.5263 0.28966 0.0
Cd324 Cd 0.62622 0.55881 0.31464 0.0
O325 O 0.6011 0.52701 0.23752 0.0
O326 O 0.76885 0.48894 0.27379 0.0
O327 O 0.71713 0.47015 0.33361 0.0
C328 C 0.75115 0.45943 0.30724 0.0
C329 C 0.57658 0.53891 0.38748 0.0
C330 C 0.62904 0.51295 0.20595 0.0
C331 C 0.73062 0.63564 0.31067 0.0
O332 O 0.68349 0.62602 0.3142 0.0
O333 O 0.75289 0.60091 0.3072 0.0
O334 O 0.56688 0.56829 0.35439 0.0
O335 O 0.61422 0.52082 0.37987 0.0
Zn336 Zn 0.08081 0.98811 0.04525 0.0
Zn337 Zn 0.97447 0.0587 -0.00034 0.0
C338 C 0.08266 0.90316 0.09218 0.0
O339 O 0.09291 0.93852 0.13078 0.0
C340 C 0.99067 0.13674 0.94505 0.0
O341 O 0.96101 0.09895 0.91556 0.0
O342 O 0.15601 0.00684 0.05577 0.0
O343 O 0.06726 0.00773 0.97186 0.0
O344 O 1.00195 0.02816 0.93534 0.0
C345 C 0.17198 0.98577 0.01764 0.0
O346 O 0.14031 0.96271 0.97811 0.0
O347 O 0.07166 0.9135 0.04661 0.0
C348 C 0.8955 0.08991 0.03214 0.0
O349 O 0.93381 0.11152 0.06582 0.0
O350 O 0.90119 0.06034 0.99431 0.0
O351 O 0.98323 0.03723 0.07365 0.0
O352 O 0.04323 0.00676 0.10769 0.0
O353 O 1.00471 0.13118 0.99161 0.0
C354 C 0.04481 0.01994 0.93246 0.0
C355 C 1.00356 0.02124 0.11209 0.0
Zn356 Zn 0.29437 0.7842 0.33004 0.0
Zn357 Zn 0.31173 0.79317 0.23146 0.0
C358 C 0.22385 0.69397 0.32646 0.0
O359 O 0.20102 0.72437 0.34935 0.0
C360 C 0.37272 0.88738 0.26749 0.0
O361 O 0.40089 0.86812 0.23823 0.0
O362 O 0.29252 0.79842 0.40392 0.0
O363 O 0.36801 0.79883 0.32321 0.0
O364 O 0.3681 0.76159 0.24572 0.0
C365 C 0.31922 0.77716 0.43097 0.0
O366 O 0.34864 0.75365 0.4086 0.0
O367 O 0.26836 0.71037 0.31633 0.0
C368 C 0.27609 0.83528 0.15216 0.0
O369 O 0.26142 0.85791 0.19175 0.0
O370 O 0.30456 0.80669 0.15939 0.0
O371 O 0.24285 0.75348 0.23365 0.0
O372 O 0.24047 0.81181 0.29321 0.0
O373 O 0.32898 0.86212 0.27203 0.0
C374 C 0.38981 0.77796 0.29061 0.0
C375 C 0.21889 0.78129 0.25461 0.0
Zn376 Zn 0.50696 0.04199 0.54474 0.0
Zn377 Zn 0.61893 0.015 0.51681 0.0
C378 C 0.52474 0.12737 0.60588 0.0
O379 O 0.49779 0.09369 0.63167 0.0
C380 C 0.57309 0.93344 0.4536 0.0
O381 O 0.60118 0.96308 0.42489 0.0
O382 O 0.43217 0.0376 0.54222 0.0
O383 O 0.52083 0.0195 0.47548 0.0
O384 O 0.59773 0.05412 0.45998 0.0
C385 C 0.41679 0.06413 0.50998 0.0
O386 O 0.44795 0.08769 0.47954 0.0
O387 O 0.53675 0.11441 0.56187 0.0
C388 C 0.71799 0.01215 0.5635 0.0
O389 O 0.70973 0.04442 0.59896 0.0
O390 O 0.6882 0.99926 0.52193 0.0
O391 O 0.61324 0.04525 0.58593 0.0
O392 O 0.53645 0.01057 0.6027 0.0
O393 O 0.57311 0.94724 0.50125 0.0
C394 C 0.55075 0.04599 0.44852 0.0
C395 C 0.58317 0.02491 0.61644 0.0
Zn396 Zn 0.33759 0.25868 0.77397 0.0
Zn397 Zn 0.24459 0.29449 0.81101 0.0
C398 C 0.32999 0.21528 0.67062 0.0
O399 O 0.35323 0.18823 0.69731 0.0
C400 C 0.26599 0.33084 0.92192 0.0
O401 O 0.2254 0.34621 0.91407 0.0
O402 O 0.40695 0.25151 0.77985 0.0
O403 O 0.34977 0.33089 0.802 0.0
O404 O 0.28256 0.34228 0.76181 0.0
C405 C 0.43646 0.28243 0.75626 0.0
O406 O 0.41985 0.31532 0.73162 0.0
O407 O 0.31592 0.24992 0.69507 0.0
C408 C 0.1427 0.27998 0.78157 0.0
O409 O 0.15422 0.2542 0.74213 0.0
O410 O 0.17709 0.30651 0.81444 0.0
O411 O 0.22418 0.21879 0.79663 0.0
O412 O 0.29626 0.20048 0.80879 0.0
O413 O 0.28168 0.30931 0.88417 0.0
C414 C 0.32923 0.35721 0.77447 0.0
C415 C 0.24902 0.18782 0.8075 0.0
Zn416 Zn 0.07004 0.98156 0.54417 0.0
Zn417 Zn 0.0393 0.07406 0.51638 0.0
C418 C 0.11289 0.99142 0.64884 0.0
O419 O 0.13971 0.96632 0.62418 0.0
C420 C 0.99926 0.05421 0.40663 0.0
O421 O 0.97506 0.08721 0.42039 0.0
O422 O 0.0784 0.91226 0.53972 0.0
O423 O 0.99696 0.96876 0.51851 0.0
O424 O 0.98705 0.03595 0.56058 0.0
C425 C 0.04678 0.88238 0.56228 0.0
O426 O 0.01257 0.8985 0.58505 0.0
O427 O 0.07936 0.00555 0.62259 0.0
C428 C 0.06107 0.16648 0.48464 0.0
O429 O 0.08978 0.14408 0.45954 0.0
O430 O 0.0308 0.14231 0.51315 0.0
O431 O 0.11312 0.09233 0.53963 0.0
O432 O 0.12648 0.0229 0.50649 0.0
O433 O 0.02759 0.04113 0.44076 0.0
C434 C 0.97074 0.98977 0.54581 0.0
C435 C 0.14123 0.06987 0.51721 0.0
Zn436 Zn 0.28907 0.82467 0.77892 0.0
Zn437 Zn 0.32159 0.71136 0.79959 0.0
C438 C 0.201 0.80401 0.72302 0.0
O439 O 0.23259 0.83377 0.69741 0.0
C440 C 0.41529 0.74376 0.84489 0.0
O441 O 0.39451 0.7063 0.8701 0.0
O442 O 0.29132 0.89919 0.78344 0.0
O443 O 0.32106 0.80943 0.8439 0.0
O444 O 0.29177 0.73303 0.8637 0.0
C445 C 0.26366 0.91374 0.81491 0.0
O446 O 0.23945 0.88192 0.84435 0.0
O447 O 0.21622 0.79183 0.76622 0.0
C448 C 0.31789 0.61133 0.74923 0.0
O449 O 0.28662 0.62187 0.71424 0.0
O450 O 0.33292 0.64065 0.79078 0.0
O451 O 0.28452 0.72045 0.73456 0.0
O452 O 0.31649 0.79749 0.71663 0.0
O453 O 0.39023 0.7555 0.8073 0.0
C454 C 0.29797 0.77992 0.87351 0.0
C455 C 0.30345 0.75067 0.70333 0.0
Zn456 Zn 0.53758 0.04171 0.98596 0.0
Zn457 Zn 0.53495 0.02608 0.08304 0.0
C458 C 0.63206 0.10595 0.99234 0.0
O459 O 0.60451 0.13087 0.96814 0.0
C460 C 0.44026 0.96533 0.05653 0.0
O461 O 0.46231 0.93856 0.08499 0.0
O462 O 0.52712 0.04469 0.91214 0.0
O463 O 0.51587 0.96829 0.9906 0.0
O464 O 0.56745 0.97198 0.05964 0.0
C465 C 0.54843 0.01642 0.88738 0.0
O466 O 0.57044 0.98724 0.91213 0.0
O467 O 0.61215 0.06229 0.00288 0.0
C468 C 0.49745 0.05713 0.16701 0.0
O469 O 0.47446 0.07447 0.12971 0.0
O470 O 0.52629 0.02956 0.15667 0.0
O471 O 0.57037 0.09601 0.08051 0.0
O472 O 0.51095 0.09681 0.02128 0.0
O473 O 0.46391 0.00875 0.04893 0.0
C474 C 0.54371 0.94835 0.01781 0.0
C475 C 0.54185 0.11909 0.05931 0.0
Zn476 Zn 0.3398 0.24679 0.27578 0.0
Zn477 Zn 0.26499 0.35249 0.31572 0.0
C478 C 0.42423 0.24533 0.23156 0.0
O479 O 0.38755 0.22903 0.19464 0.0
C480 C 0.17362 0.3415 0.3463 0.0
O481 O 0.20355 0.37428 0.38111 0.0
O482 O 0.32313 0.17135 0.26499 0.0
O483 O 0.31525 0.26035 0.34748 0.0
O484 O 0.28373 0.31952 0.38175 0.0
C485 C 0.34354 0.15518 0.30338 0.0
O486 O 0.36472 0.18653 0.34386 0.0
O487 O 0.41481 0.25888 0.27684 0.0
C488 C 0.24594 0.43683 0.2795 0.0
O489 O 0.23458 0.40329 0.23923 0.0
O490 O 0.26487 0.42612 0.32204 0.0
O491 O 0.29326 0.34267 0.24671 0.0
O492 O 0.32452 0.28419 0.21176 0.0
O493 O 0.19148 0.32287 0.30831 0.0
C494 C 0.29819 0.27968 0.38584 0.0
C495 C 0.31187 0.32492 0.20889 0.0
Zn496 Zn 0.56976 0.49085 0.04683 0.0
Zn497 Zn 0.53395 0.58385 0.00979 0.0
C498 C 0.61316 0.49845 0.15018 0.0
O499 O 0.64021 0.47521 0.12348 0.0
C500 C 0.49759 0.56245 0.89888 0.0
O501 O 0.48223 0.60304 0.90674 0.0
O502 O 0.57694 0.42149 0.04094 0.0
O503 O 0.49755 0.47867 0.01881 0.0
O504 O 0.48616 0.54588 0.05899 0.0
C505 C 0.54601 0.39198 0.06454 0.0
O506 O 0.51312 0.40859 0.08919 0.0
O507 O 0.57853 0.51252 0.12573 0.0
C508 C 0.54845 0.68574 0.03923 0.0
O509 O 0.57423 0.67422 0.07867 0.0
O510 O 0.52192 0.65134 0.00636 0.0
O511 O 0.60964 0.60426 0.02416 0.0
O512 O 0.62796 0.53218 0.01201 0.0
O513 O 0.51912 0.54675 0.93663 0.0
C514 C 0.47123 0.4992 0.04633 0.0
C515 C 0.64062 0.57942 0.01329 0.0
Zn516 Zn 0.78645 0.32147 0.27606 0.0
Zn517 Zn 0.81343 0.20951 0.30399 0.0
C518 C 0.70107 0.3037 0.21492 0.0
O519 O 0.73475 0.33064 0.18914 0.0
C520 C 0.89499 0.25534 0.3672 0.0
O521 O 0.86534 0.22726 0.39591 0.0
O522 O 0.79084 0.39626 0.27858 0.0
O523 O 0.80893 0.30761 0.34532 0.0
O524 O 0.77431 0.23071 0.36082 0.0
C525 C 0.76431 0.41164 0.31082 0.0
O526 O 0.74075 0.38049 0.34126 0.0
O527 O 0.71403 0.29169 0.25893 0.0
C528 C 0.81628 0.11044 0.2573 0.0
O529 O 0.78401 0.1187 0.22184 0.0
O530 O 0.82917 0.14024 0.29887 0.0
O531 O 0.78317 0.21519 0.23487 0.0
O532 O 0.81786 0.29198 0.2181 0.0
O533 O 0.88119 0.25533 0.31955 0.0
C534 C 0.78245 0.27769 0.37229 0.0
C535 C 0.80352 0.24526 0.20436 0.0
Zn536 Zn 0.04423 0.53406 0.49076 0.0
Zn537 Zn 0.03527 0.51671 0.58934 0.0
C538 C 0.13447 0.60458 0.49433 0.0
O539 O 0.10407 0.62741 0.47145 0.0
C540 C 0.94106 0.45572 0.55332 0.0
O541 O 0.96032 0.42754 0.58257 0.0
O542 O 0.03001 0.53591 0.41688 0.0
O543 O 0.0296 0.46042 0.49758 0.0
O544 O 0.06685 0.46034 0.57507 0.0
C545 C 0.05127 0.50922 0.38983 0.0
O546 O 0.07478 0.47979 0.41219 0.0
O547 O 0.11807 0.56007 0.50446 0.0
C548 C 0.99317 0.55235 0.66865 0.0
O549 O 0.97054 0.56702 0.62907 0.0
O550 O 0.02176 0.52388 0.66141 0.0
O551 O 0.07496 0.58559 0.58714 0.0
O552 O 0.01663 0.58797 0.5276 0.0
O553 O 0.96632 0.49946 0.54878 0.0
C554 C 0.05047 0.43863 0.53018 0.0
C555 C 0.04715 0.60954 0.56619 0.0
Zn556 Zn 0.84688 0.7584 0.27662 0.0
Zn557 Zn 0.75438 0.78913 0.30442 0.0
C558 C 0.83702 0.71555 0.17195 0.0
O559 O 0.86213 0.68874 0.1966 0.0
C560 C 0.77423 0.82917 0.41417 0.0
O561 O 0.74122 0.85336 0.40042 0.0
O562 O 0.91618 0.75004 0.28107 0.0
O563 O 0.85967 0.83148 0.30229 0.0
O564 O 0.79249 0.84139 0.26022 0.0
C565 C 0.94606 0.78166 0.25852 0.0
O566 O 0.92993 0.81587 0.23575 0.0
O567 O 0.82288 0.74907 0.19821 0.0
C568 C 0.66195 0.76736 0.33615 0.0
O569 O 0.68435 0.73865 0.36125 0.0
O570 O 0.68612 0.79763 0.30765 0.0
O571 O 0.7361 0.71532 0.28116 0.0
O572 O 0.80553 0.70196 0.31431 0.0
O573 O 0.7873 0.80084 0.38003 0.0
C574 C 0.83866 0.8577 0.27498 0.0
C575 C 0.75856 0.6872 0.30359 0.0
Zn576 Zn 0.78672 0.29085 0.83485 0.0
Zn577 Zn 0.80236 0.29349 0.73777 0.0
C578 C 0.72248 0.19638 0.82846 0.0
O579 O 0.69757 0.22393 0.85266 0.0
C580 C 0.86312 0.38818 0.76428 0.0
O581 O 0.88988 0.36613 0.73582 0.0
O582 O 0.78374 0.30132 0.90866 0.0
O583 O 0.86015 0.31257 0.8302 0.0
O584 O 0.85645 0.26099 0.76116 0.0
C585 C 0.81201 0.28 0.93342 0.0
O586 O 0.84119 0.25798 0.90867 0.0
O587 O 0.76614 0.21628 0.81792 0.0
C588 C 0.77131 0.331 0.6538 0.0
O589 O 0.75398 0.35399 0.69111 0.0
O590 O 0.79888 0.30215 0.66413 0.0
O591 O 0.73243 0.25807 0.74029 0.0
O592 O 0.73163 0.31749 0.79953 0.0
O593 O 0.81969 0.36453 0.77188 0.0
C594 C 0.88009 0.28472 0.80299 0.0
C595 C 0.70935 0.28659 0.76149 0.0
Zn596 Zn 0.84033 0.74763 0.77554 0.0
Zn597 Zn 0.76973 0.85396 0.82113 0.0
C598 C 0.92528 0.74579 0.72862 0.0
O599 O 0.88992 0.73553 0.69002 0.0
C600 C 0.69169 0.83776 0.87574 0.0
O601 O 0.72948 0.86743 0.90523 0.0
O602 O 0.82161 0.67243 0.76503 0.0
O603 O 0.8207 0.76118 0.84893 0.0
O604 O 0.80026 0.82649 0.88545 0.0
C605 C 0.84268 0.65646 0.80316 0.0
O606 O 0.86573 0.68814 0.84269 0.0
O607 O 0.91494 0.75679 0.77419 0.0
C608 C 0.73852 0.93294 0.78865 0.0
O609 O 0.71692 0.89463 0.75497 0.0
O610 O 0.76808 0.92724 0.82649 0.0
O611 O 0.79121 0.84521 0.74715 0.0
O612 O 0.82168 0.78521 0.71311 0.0
O613 O 0.69726 0.82372 0.82919 0.0
C614 C 0.80849 0.78363 0.88833 0.0
C615 C 0.8072 0.82488 0.70871 0.0
Zn616 Zn 0.58165 0.48863 0.54502 0.0
Zn617 Zn 0.47595 0.56344 0.50507 0.0
C618 C 0.58311 0.40421 0.58924 0.0
O619 O 0.59941 0.4409 0.62616 0.0
C620 C 0.48693 0.65481 0.4745 0.0
O621 O 0.45415 0.62487 0.43968 0.0
O622 O 0.65709 0.50531 0.55582 0.0
O623 O 0.5681 0.51318 0.47331 0.0
O624 O 0.50892 0.5447 0.43905 0.0
C625 C 0.67327 0.48489 0.51743 0.0
O626 O 0.64191 0.46371 0.47694 0.0
O627 O 0.56956 0.41362 0.54396 0.0
C628 C 0.3916 0.58249 0.5413 0.0
O629 O 0.42514 0.59385 0.58156 0.0
O630 O 0.40232 0.56356 0.49875 0.0
O631 O 0.48577 0.53517 0.57409 0.0
O632 O 0.54424 0.50392 0.60904 0.0
O633 O 0.50556 0.63695 0.51248 0.0
C634 C 0.54876 0.53024 0.43496 0.0
C635 C 0.50351 0.51657 0.61191 0.0
Zn636 Zn 1.00377 0.53937 0.04188 0.0
Zn637 Zn 0.11708 0.50684 0.02122 0.0
C638 C 0.02443 0.62744 0.09778 0.0
O639 O 0.99467 0.59586 0.12339 0.0
C640 C 0.08467 0.41314 0.97592 0.0
O641 O 0.12213 0.43392 0.95071 0.0
O642 O 0.92925 0.53712 0.03735 0.0
O643 O 0.01902 0.50738 0.9769 0.0
O644 O 0.09542 0.53666 0.9571 0.0
C645 C 0.9147 0.56478 0.00588 0.0
O646 O 0.94652 0.58899 0.97644 0.0
O647 O 0.03661 0.61222 0.05458 0.0
C648 C 0.21711 0.51054 0.07158 0.0
O649 O 0.20656 0.54181 0.10656 0.0
O650 O 0.18779 0.49551 0.03002 0.0
O651 O 0.10799 0.54392 0.08624 0.0
O652 O 0.03094 0.51195 0.10417 0.0
O653 O 0.07294 0.43821 0.0135 0.0
C654 C 0.04853 0.53046 0.9473 0.0
C655 C 0.07776 0.52499 0.11747 0.0
loop_
_geom_bond_atom_site_label_1
_geom_bond_atom_site_label_2
_geom_bond_distance
_geom_bond_site_symmetry_2
_ccdc_geom_bond_type
O0 Cd1 2.223 . S
O0 C8 1.315 . S
Cd1 O0 2.223 . S
Cd1 O4 2.297 . S
Cd1 O5 2.439 . S
Cd1 O11 2.240 1_455 S
Cd2 O3 2.240 . S
Cd2 O10 2.223 1_455 S
Cd2 O12 2.297 . S
Cd2 O13 2.439 . S
O3 Cd2 2.240 . S
O3 C8 1.279 . S
O4 Cd1 2.297 . S
O4 C6 1.247 . S
O5 Cd1 2.439 . S
O5 C6 1.208 . S
C6 O4 1.247 . S
C6 O5 1.208 . S
C7 O12 1.247 . S
C7 O13 1.208 . S
C8 O0 1.315 . S
C8 O3 1.279 . S
C9 O10 1.315 . S
C9 O11 1.279 . S
O10 Cd2 2.223 1_655 S
O10 C9 1.315 . S
O11 Cd1 2.240 1_655 S
O11 C9 1.279 . S
O12 Cd2 2.297 . S
O12 C7 1.247 . S
O13 Cd2 2.439 . S
O13 C7 1.208 . S
O14 Cd15 2.223 . S
O14 C22 1.315 . S
Cd15 O14 2.223 . S
Cd15 O18 2.297 1_455 S
Cd15 O19 2.439 1_455 S
Cd15 O25 2.240 . S
Cd16 O17 2.240 1_455 S
Cd16 O24 2.223 . S
Cd16 O26 2.297 . S
Cd16 O27 2.439 . S
O17 Cd16 2.240 1_655 S
O17 C22 1.279 1_655 S
O18 Cd15 2.297 1_655 S
O18 C20 1.247 . S
O19 Cd15 2.439 1_655 S
O19 C20 1.208 . S
C20 O18 1.247 . S
C20 O19 1.208 . S
C21 O26 1.247 . S
C21 O27 1.208 . S
C22 O14 1.315 . S
C22 O17 1.279 1_455 S
C23 O24 1.315 . S
C23 O25 1.279 . S
O24 Cd16 2.223 . S
O24 C23 1.315 . S
O25 Cd15 2.240 . S
O25 C23 1.279 . S
O26 Cd16 2.297 . S
O26 C21 1.247 . S
O27 Cd16 2.439 . S
O27 C21 1.208 . S
O28 Cd29 2.223 . S
O28 C36 1.315 . S
Cd29 O28 2.223 . S
Cd29 O32 2.297 1_556 S
Cd29 O33 2.439 . S
Cd29 O39 2.240 . S
Cd30 O31 2.240 . S
Cd30 O38 2.223 . S
Cd30 O40 2.297 . S
Cd30 O41 2.439 . S
O31 Cd30 2.240 . S
O31 C36 1.279 . S
O32 Cd29 2.297 1_554 S
O32 C34 1.247 1_554 S
O33 Cd29 2.439 . S
O33 C34 1.208 . S
C34 O32 1.247 1_556 S
C34 O33 1.208 . S
C35 O40 1.247 . S
C35 O41 1.208 . S
C36 O28 1.315 . S
C36 O31 1.279 . S
C37 O38 1.315 . S
C37 O39 1.279 . S
O38 Cd30 2.223 . S
O38 C37 1.315 . S
O39 Cd29 2.240 . S
O39 C37 1.279 . S
O40 Cd30 2.297 . S
O40 C35 1.247 . S
O41 Cd30 2.439 . S
O41 C35 1.208 . S
O42 Cd43 2.223 . S
O42 C50 1.315 . S
Cd43 O42 2.223 . S
Cd43 O46 2.297 . S
Cd43 O47 2.439 . S
Cd43 O53 2.240 . S
Cd44 O45 2.240 . S
Cd44 O52 2.223 . S
Cd44 O54 2.297 . S
Cd44 O55 2.439 . S
O45 Cd44 2.240 . S
O45 C50 1.279 . S
O46 Cd43 2.297 . S
O46 C48 1.247 . S
O47 Cd43 2.439 . S
O47 C48 1.208 . S
C48 O46 1.247 . S
C48 O47 1.208 . S
C49 O54 1.247 . S
C49 O55 1.208 . S
C50 O42 1.315 . S
C50 O45 1.279 . S
C51 O52 1.315 . S
C51 O53 1.279 . S
O52 Cd44 2.223 . S
O52 C51 1.315 . S
O53 Cd43 2.240 . S
O53 C51 1.279 . S
O54 Cd44 2.297 . S
O54 C49 1.247 . S
O55 Cd44 2.439 . S
O55 C49 1.208 . S
O56 Cd57 2.223 . S
O56 C64 1.315 . S
Cd57 O56 2.223 . S
Cd57 O60 2.297 1_455 S
Cd57 O61 2.439 1_455 S
Cd57 O67 2.240 . S
Cd58 O59 2.240 . S
Cd58 O66 2.223 . S
Cd58 O68 2.297 . S
Cd58 O69 2.439 . S
O59 Cd58 2.240 . S
O59 C64 1.279 . S
O60 Cd57 2.297 1_655 S
O60 C62 1.247 . S
O61 Cd57 2.439 1_655 S
O61 C62 1.208 . S
C62 O60 1.247 . S
C62 O61 1.208 . S
C63 O68 1.247 . S
C63 O69 1.208 . S
C64 O56 1.315 . S
C64 O59 1.279 . S
C65 O66 1.315 . S
C65 O67 1.279 . S
O66 Cd58 2.223 . S
O66 C65 1.315 . S
O67 Cd57 2.240 . S
O67 C65 1.279 . S
O68 Cd58 2.297 . S
O68 C63 1.247 . S
O69 Cd58 2.439 . S
O69 C63 1.208 . S
O70 Cd71 2.223 . S
O70 C78 1.315 . S
Cd71 O70 2.223 . S
Cd71 O74 2.297 . S
Cd71 O75 2.439 . S
Cd71 O81 2.240 . S
Cd72 O73 2.240 . S
Cd72 O80 2.223 . S
Cd72 O82 2.297 . S
Cd72 O83 2.439 . S
O73 Cd72 2.240 . S
O73 C78 1.279 . S
O74 Cd71 2.297 . S
O74 C76 1.247 . S
O75 Cd71 2.439 . S
O75 C76 1.208 . S
C76 O74 1.247 . S
C76 O75 1.208 . S
C77 O82 1.247 . S
C77 O83 1.208 . S
C78 O70 1.315 . S
C78 O73 1.279 . S
C79 O80 1.315 . S
C79 O81 1.279 . S
O80 Cd72 2.223 . S
O80 C79 1.315 . S
O81 Cd71 2.240 . S
O81 C79 1.279 . S
O82 Cd72 2.297 . S
O82 C77 1.247 . S
O83 Cd72 2.439 . S
O83 C77 1.208 . S
O84 Cd85 2.223 . S
O84 C92 1.315 . S
Cd85 O84 2.223 . S
Cd85 O88 2.297 . S
Cd85 O89 2.439 . S
Cd85 O95 2.240 . S
Cd86 O87 2.240 . S
Cd86 O94 2.223 . S
Cd86 O96 2.297 . S
Cd86 O97 2.439 . S
O87 Cd86 2.240 . S
O87 C92 1.279 . S
O88 Cd85 2.297 . S
O88 C90 1.247 . S
O89 Cd85 2.439 . S
O89 C90 1.208 . S
C90 O88 1.247 . S
C90 O89 1.208 . S
C91 O96 1.247 . S
C91 O97 1.208 . S
C92 O84 1.315 . S
C92 O87 1.279 . S
C93 O94 1.315 . S
C93 O95 1.279 . S
O94 Cd86 2.223 . S
O94 C93 1.315 . S
O95 Cd85 2.240 . S
O95 C93 1.279 . S
O96 Cd86 2.297 . S
O96 C91 1.247 . S
O97 Cd86 2.439 . S
O97 C91 1.208 . S
O98 Cd99 2.223 1_655 S
O98 C106 1.315 . S
Cd99 O98 2.223 1_455 S
Cd99 O102 2.297 . S
Cd99 O103 2.439 . S
Cd99 O109 2.240 1_455 S
Cd100 O101 2.240 1_655 S
Cd100 O108 2.223 . S
Cd100 O110 2.297 . S
Cd100 O111 2.439 1_655 S
O101 Cd100 2.240 1_455 S
O101 C106 1.279 1_455 S
O102 Cd99 2.297 . S
O102 C104 1.247 . S
O103 Cd99 2.439 . S
O103 C104 1.208 . S
C104 O102 1.247 . S
C104 O103 1.208 . S
C105 O110 1.247 1_455 S
C105 O111 1.208 . S
C106 O98 1.315 . S
C106 O101 1.279 1_655 S
C107 O108 1.315 . S
C107 O109 1.279 . S
O108 Cd100 2.223 . S
O108 C107 1.315 . S
O109 Cd99 2.240 1_655 S
O109 C107 1.279 . S
O110 Cd100 2.297 . S
O110 C105 1.247 1_655 S
O111 Cd100 2.439 1_455 S
O111 C105 1.208 . S
O112 Cd113 2.223 . S
O112 C120 1.315 . S
Cd113 O112 2.223 . S
Cd113 O116 2.297 . S
Cd113 O117 2.439 . S
Cd113 O123 2.240 1_545 S
Cd114 O115 2.240 . S
Cd114 O122 2.223 1_545 S
Cd114 O124 2.297 . S
Cd114 O125 2.439 . S
O115 Cd114 2.240 . S
O115 C120 1.279 . S
O116 Cd113 2.297 . S
O116 C118 1.247 . S
O117 Cd113 2.439 . S
O117 C118 1.208 . S
C118 O116 1.247 . S
C118 O117 1.208 . S
C119 O124 1.247 . S
C119 O125 1.208 . S
C120 O112 1.315 . S
C120 O115 1.279 . S
C121 O122 1.315 . S
C121 O123 1.279 . S
O122 Cd114 2.223 1_565 S
O122 C121 1.315 . S
O123 Cd113 2.240 1_565 S
O123 C121 1.279 . S
O124 Cd114 2.297 . S
O124 C119 1.247 . S
O125 Cd114 2.439 . S
O125 C119 1.208 . S
O126 Cd127 2.223 . S
O126 C134 1.315 . S
Cd127 O126 2.223 . S
Cd127 O130 2.297 . S
Cd127 O131 2.439 . S
Cd127 O137 2.240 . S
Cd128 O129 2.240 . S
Cd128 O136 2.223 . S
Cd128 O138 2.297 . S
Cd128 O139 2.439 . S
O129 Cd128 2.240 . S
O129 C134 1.279 . S
O130 Cd127 2.297 . S
O130 C132 1.247 . S
O131 Cd127 2.439 . S
O131 C132 1.208 . S
C132 O130 1.247 . S
C132 O131 1.208 . S
C133 O138 1.247 . S
C133 O139 1.208 . S
C134 O126 1.315 . S
C134 O129 1.279 . S
C135 O136 1.315 . S
C135 O137 1.279 . S
O136 Cd128 2.223 . S
O136 C135 1.315 . S
O137 Cd127 2.240 . S
O137 C135 1.279 . S
O138 Cd128 2.297 . S
O138 C133 1.247 . S
O139 Cd128 2.439 . S
O139 C133 1.208 . S
O140 Cd141 2.223 . S
O140 C148 1.315 . S
Cd141 O140 2.223 . S
Cd141 O144 2.297 1_545 S
Cd141 O145 2.439 1_545 S
Cd141 O151 2.240 . S
Cd142 O143 2.240 . S
Cd142 O150 2.223 . S
Cd142 O152 2.297 . S
Cd142 O153 2.439 . S
O143 Cd142 2.240 . S
O143 C148 1.279 . S
O144 Cd141 2.297 1_565 S
O144 C146 1.247 . S
O145 Cd141 2.439 1_565 S
O145 C146 1.208 . S
C146 O144 1.247 . S
C146 O145 1.208 . S
C147 O152 1.247 . S
C147 O153 1.208 . S
C148 O140 1.315 . S
C148 O143 1.279 . S
C149 O150 1.315 . S
C149 O151 1.279 . S
O150 Cd142 2.223 . S
O150 C149 1.315 . S
O151 Cd141 2.240 . S
O151 C149 1.279 . S
O152 Cd142 2.297 . S
O152 C147 1.247 . S
O153 Cd142 2.439 . S
O153 C147 1.208 . S
O154 Cd155 2.223 . S
O154 C162 1.315 . S
Cd155 O154 2.223 . S
Cd155 O158 2.297 . S
Cd155 O159 2.439 1_554 S
Cd155 O165 2.240 1_554 S
Cd156 O157 2.240 1_556 S
Cd156 O164 2.223 1_556 S
Cd156 O166 2.297 . S
Cd156 O167 2.439 . S
O157 Cd156 2.240 1_554 S
O157 C162 1.279 . S
O158 Cd155 2.297 . S
O158 C160 1.247 . S
O159 Cd155 2.439 1_556 S
O159 C160 1.208 1_556 S
C160 O158 1.247 . S
C160 O159 1.208 1_554 S
C161 O166 1.247 . S
C161 O167 1.208 . S
C162 O154 1.315 . S
C162 O157 1.279 . S
C163 O164 1.315 . S
C163 O165 1.279 1_554 S
O164 Cd156 2.223 1_554 S
O164 C163 1.315 . S
O165 Cd155 2.240 1_556 S
O165 C163 1.279 1_556 S
O166 Cd156 2.297 . S
O166 C161 1.247 . S
O167 Cd156 2.439 . S
O167 C161 1.208 . S
O168 Cd169 2.223 . S
O168 C176 1.315 . S
Cd169 O168 2.223 . S
Cd169 O172 2.297 . S
Cd169 O173 2.439 . S
Cd169 O179 2.240 . S
Cd170 O171 2.240 . S
Cd170 O178 2.223 . S
Cd170 O180 2.297 1_554 S
Cd170 O181 2.439 1_554 S
O171 Cd170 2.240 . S
O171 C176 1.279 . S
O172 Cd169 2.297 . S
O172 C174 1.247 . S
O173 Cd169 2.439 . S
O173 C174 1.208 . S
C174 O172 1.247 . S
C174 O173 1.208 . S
C175 O180 1.247 . S
C175 O181 1.208 . S
C176 O168 1.315 . S
C176 O171 1.279 . S
C177 O178 1.315 . S
C177 O179 1.279 . S
O178 Cd170 2.223 . S
O178 C177 1.315 . S
O179 Cd169 2.240 . S
O179 C177 1.279 . S
O180 Cd170 2.297 1_556 S
O180 C175 1.247 . S
O181 Cd170 2.439 1_556 S
O181 C175 1.208 . S
O182 Cd183 2.223 . S
O182 C190 1.315 . S
Cd183 O182 2.223 . S
Cd183 O186 2.297 . S
Cd183 O187 2.439 . S
Cd183 O193 2.240 . S
Cd184 O185 2.240 . S
Cd184 O192 2.223 . S
Cd184 O194 2.297 1_554 S
Cd184 O195 2.439 1_554 S
O185 Cd184 2.240 . S
O185 C190 1.279 . S
O186 Cd183 2.297 . S
O186 C188 1.247 . S
O187 Cd183 2.439 . S
O187 C188 1.208 . S
C188 O186 1.247 . S
C188 O187 1.208 . S
C189 O194 1.247 . S
C189 O195 1.208 . S
C190 O182 1.315 . S
C190 O185 1.279 . S
C191 O192 1.315 . S
C191 O193 1.279 . S
O192 Cd184 2.223 . S
O192 C191 1.315 . S
O193 Cd183 2.240 . S
O193 C191 1.279 . S
O194 Cd184 2.297 1_556 S
O194 C189 1.247 . S
O195 Cd184 2.439 1_556 S
O195 C189 1.208 . S
O196 Cd197 2.223 . S
O196 C204 1.315 . S
Cd197 O196 2.223 . S
Cd197 O200 2.297 . S
Cd197 O201 2.439 . S
Cd197 O207 2.240 . S
Cd198 O199 2.240 . S
Cd198 O206 2.223 . S
Cd198 O208 2.297 . S
Cd198 O209 2.439 . S
O199 Cd198 2.240 . S
O199 C204 1.279 . S
O200 Cd197 2.297 . S
O200 C202 1.247 . S
O201 Cd197 2.439 . S
O201 C202 1.208 . S
C202 O200 1.247 . S
C202 O201 1.208 . S
C203 O208 1.247 . S
C203 O209 1.208 . S
C204 O196 1.315 . S
C204 O199 1.279 . S
C205 O206 1.315 . S
C205 O207 1.279 . S
O206 Cd198 2.223 . S
O206 C205 1.315 . S
O207 Cd197 2.240 . S
O207 C205 1.279 . S
O208 Cd198 2.297 . S
O208 C203 1.247 . S
O209 Cd198 2.439 . S
O209 C203 1.208 . S
O210 Cd211 2.223 . S
O210 C218 1.315 . S
Cd211 O210 2.223 . S
Cd211 O214 2.297 . S
Cd211 O215 2.439 . S
Cd211 O221 2.240 . S
Cd212 O213 2.240 . S
Cd212 O220 2.223 . S
Cd212 O222 2.297 . S
Cd212 O223 2.439 . S
O213 Cd212 2.240 . S
O213 C218 1.279 . S
O214 Cd211 2.297 . S
O214 C216 1.247 . S
O215 Cd211 2.439 . S
O215 C216 1.208 . S
C216 O214 1.247 . S
C216 O215 1.208 . S
C217 O222 1.247 . S
C217 O223 1.208 . S
C218 O210 1.315 . S
C218 O213 1.279 . S
C219 O220 1.315 . S
C219 O221 1.279 . S
O220 Cd212 2.223 . S
O220 C219 1.315 . S
O221 Cd211 2.240 . S
O221 C219 1.279 . S
O222 Cd212 2.297 . S
O222 C217 1.247 . S
O223 Cd212 2.439 . S
O223 C217 1.208 . S
O224 Cd225 2.223 . S
O224 C232 1.315 . S
Cd225 O224 2.223 . S
Cd225 O228 2.297 1_565 S
Cd225 O229 2.439 1_565 S
Cd225 O235 2.240 . S
Cd226 O227 2.240 1_565 S
Cd226 O234 2.223 . S
Cd226 O236 2.297 . S
Cd226 O237 2.439 1_565 S
O227 Cd226 2.240 1_545 S
O227 C232 1.279 1_545 S
O228 Cd225 2.297 1_545 S
O228 C230 1.247 . S
O229 Cd225 2.439 1_545 S
O229 C230 1.208 . S
C230 O228 1.247 . S
C230 O229 1.208 . S
C231 O236 1.248 . S
C231 O237 1.208 1_565 S
C232 O224 1.315 . S
C232 O227 1.279 1_565 S
C233 O234 1.315 . S
C233 O235 1.279 . S
O234 Cd226 2.223 . S
O234 C233 1.315 . S
O235 Cd225 2.240 . S
O235 C233 1.279 . S
O236 Cd226 2.297 . S
O236 C231 1.248 . S
O237 Cd226 2.439 1_545 S
O237 C231 1.208 1_545 S
O238 Cd239 2.223 . S
O238 C246 1.315 . S
Cd239 O238 2.223 . S
Cd239 O242 2.297 . S
Cd239 O243 2.439 . S
Cd239 O249 2.240 . S
Cd240 O241 2.240 . S
Cd240 O248 2.223 . S
Cd240 O250 2.297 . S
Cd240 O251 2.439 . S
O241 Cd240 2.240 . S
O241 C246 1.279 . S
O242 Cd239 2.297 . S
O242 C244 1.247 . S
O243 Cd239 2.439 . S
O243 C244 1.208 . S
C244 O242 1.247 . S
C244 O243 1.208 . S
C245 O250 1.247 . S
C245 O251 1.208 . S
C246 O238 1.315 . S
C246 O241 1.279 . S
C247 O248 1.315 . S
C247 O249 1.279 . S
O248 Cd240 2.223 . S
O248 C247 1.315 . S
O249 Cd239 2.240 . S
O249 C247 1.279 . S
O250 Cd240 2.297 . S
O250 C245 1.247 . S
O251 Cd240 2.439 . S
O251 C245 1.208 . S
O252 Cd253 2.223 . S
O252 C260 1.315 . S
Cd253 O252 2.223 . S
Cd253 O256 2.297 . S
Cd253 O257 2.439 . S
Cd253 O263 2.240 . S
Cd254 O255 2.240 . S
Cd254 O262 2.223 . S
Cd254 O264 2.297 . S
Cd254 O265 2.439 . S
O255 Cd254 2.240 . S
O255 C260 1.279 . S
O256 Cd253 2.297 . S
O256 C258 1.247 . S
O257 Cd253 2.439 . S
O257 C258 1.208 . S
C258 O256 1.247 . S
C258 O257 1.208 . S
C259 O264 1.247 . S
C259 O265 1.208 . S
C260 O252 1.315 . S
C260 O255 1.279 . S
C261 O262 1.315 . S
C261 O263 1.279 . S
O262 Cd254 2.223 . S
O262 C261 1.315 . S
O263 Cd253 2.240 . S
O263 C261 1.279 . S
O264 Cd254 2.297 . S
O264 C259 1.247 . S
O265 Cd254 2.439 . S
O265 C259 1.208 . S
O266 Cd267 2.223 . S
O266 C274 1.315 . S
Cd267 O266 2.223 . S
Cd267 O270 2.297 1_545 S
Cd267 O271 2.439 1_545 S
Cd267 O277 2.240 . S
Cd268 O269 2.240 1_545 S
Cd268 O276 2.223 . S
Cd268 O278 2.297 . S
Cd268 O279 2.439 . S
O269 Cd268 2.240 1_565 S
O269 C274 1.279 1_565 S
O270 Cd267 2.297 1_565 S
O270 C272 1.247 . S
O271 Cd267 2.439 1_565 S
O271 C272 1.208 . S
C272 O270 1.247 . S
C272 O271 1.208 . S
C273 O278 1.247 . S
C273 O279 1.208 . S
C274 O266 1.315 . S
C274 O269 1.279 1_545 S
C275 O276 1.315 . S
C275 O277 1.279 . S
O276 Cd268 2.223 . S
O276 C275 1.315 . S
O277 Cd267 2.240 . S
O277 C275 1.279 . S
O278 Cd268 2.297 . S
O278 C273 1.247 . S
O279 Cd268 2.439 . S
O279 C273 1.208 . S
O280 Cd281 2.223 . S
O280 C288 1.315 . S
Cd281 O280 2.223 . S
Cd281 O284 2.297 . S
Cd281 O285 2.447 . S
Cd281 O291 2.240 1_554 S
Cd282 O283 2.240 1_556 S
Cd282 O290 2.223 1_556 S
Cd282 O292 2.297 . S
Cd282 O293 2.439 . S
O283 Cd282 2.240 1_554 S
O283 C288 1.279 . S
O284 Cd281 2.297 . S
O284 C286 1.247 . S
O285 Cd281 2.447 . S
O285 C286 1.220 . S
C286 O284 1.247 . S
C286 O285 1.220 . S
C287 O292 1.247 . S
C287 O293 1.208 . S
C288 O280 1.315 . S
C288 O283 1.279 . S
C289 O290 1.315 . S
C289 O291 1.278 1_554 S
O290 Cd282 2.223 1_554 S
O290 C289 1.315 . S
O291 Cd281 2.240 1_556 S
O291 C289 1.278 1_556 S
O292 Cd282 2.297 . S
O292 C287 1.247 . S
O293 Cd282 2.439 . S
O293 C287 1.208 . S
O294 Cd295 2.223 . S
O294 C302 1.315 . S
Cd295 O294 2.223 . S
Cd295 O298 2.297 . S
Cd295 O299 2.439 . S
Cd295 O305 2.240 . S
Cd296 O297 2.240 1_455 S
Cd296 O304 2.223 1_455 S
Cd296 O306 2.297 . S
Cd296 O307 2.439 1_455 S
O297 Cd296 2.240 1_655 S
O297 C302 1.279 . S
O298 Cd295 2.297 . S
O298 C300 1.247 . S
O299 Cd295 2.439 . S
O299 C300 1.208 . S
C300 O298 1.247 . S
C300 O299 1.208 . S
C301 O306 1.247 1_655 S
C301 O307 1.208 . S
C302 O294 1.315 . S
C302 O297 1.279 . S
C303 O304 1.315 . S
C303 O305 1.279 . S
O304 Cd296 2.223 1_655 S
O304 C303 1.315 . S
O305 Cd295 2.240 . S
O305 C303 1.279 . S
O306 Cd296 2.297 . S
O306 C301 1.247 1_455 S
O307 Cd296 2.439 1_655 S
O307 C301 1.208 . S
O308 Cd309 2.223 . S
O308 C316 1.315 . S
Cd309 O308 2.223 . S
Cd309 O312 2.297 . S
Cd309 O313 2.439 . S
Cd309 O319 2.240 . S
Cd310 O311 2.240 . S
Cd310 O318 2.223 . S
Cd310 O320 2.297 . S
Cd310 O321 2.439 . S
O311 Cd310 2.240 . S
O311 C316 1.279 . S
O312 Cd309 2.297 . S
O312 C314 1.247 . S
O313 Cd309 2.439 . S
O313 C314 1.208 . S
C314 O312 1.247 . S
C314 O313 1.208 . S
C315 O320 1.247 . S
C315 O321 1.208 . S
C316 O308 1.315 . S
C316 O311 1.279 . S
C317 O318 1.315 . S
C317 O319 1.279 . S
O318 Cd310 2.223 . S
O318 C317 1.315 . S
O319 Cd309 2.240 . S
O319 C317 1.279 . S
O320 Cd310 2.297 . S
O320 C315 1.247 . S
O321 Cd310 2.439 . S
O321 C315 1.208 . S
O322 Cd323 2.223 . S
O322 C330 1.315 . S
Cd323 O322 2.223 . S
Cd323 O326 2.297 . S
Cd323 O327 2.439 . S
Cd323 O333 2.240 . S
Cd324 O325 2.240 . S
Cd324 O332 2.223 . S
Cd324 O334 2.297 . S
Cd324 O335 2.439 . S
O325 Cd324 2.240 . S
O325 C330 1.279 . S
O326 Cd323 2.297 . S
O326 C328 1.247 . S
O327 Cd323 2.439 . S
O327 C328 1.208 . S
C328 O326 1.247 . S
C328 O327 1.208 . S
C329 O334 1.247 . S
C329 O335 1.208 . S
C330 O322 1.315 . S
C330 O325 1.279 . S
C331 O332 1.315 . S
C331 O333 1.279 . S
O332 Cd324 2.223 . S
O332 C331 1.315 . S
O333 Cd323 2.240 . S
O333 C331 1.279 . S
O334 Cd324 2.297 . S
O334 C329 1.247 . S
O335 Cd324 2.439 . S
O335 C329 1.208 . S
Zn336 O342 1.969 1_565 S
Zn336 O343 1.965 1_565 S
Zn336 O347 2.024 . S
Zn336 O352 1.969 1_565 S
Zn337 O344 1.969 1_654 S
Zn337 O350 1.969 1_554 S
Zn337 O351 1.966 . S
Zn337 O353 2.024 1_655 S
C338 O339 1.229 . S
C338 O347 1.058 . S
O339 C338 1.229 . S
C340 O341 1.229 1_554 S
C340 O353 1.058 . S
O341 C340 1.229 1_556 S
O342 Zn336 1.969 1_545 S
O342 C345 1.267 . S
O343 Zn336 1.965 1_545 S
O343 C354 1.260 1_554 S
O344 Zn337 1.969 1_456 S
O344 C354 1.258 . S
C345 O342 1.267 . S
C345 O346 1.228 1_545 S
O346 C345 1.228 1_565 S
O347 Zn336 2.024 . S
O347 C338 1.058 . S
C348 O349 1.228 . S
C348 O350 1.267 1_554 S
O349 C348 1.228 . S
O350 Zn337 1.969 1_556 S
O350 C348 1.267 1_556 S
O351 Zn337 1.966 . S
O351 C355 1.252 1_655 S
O352 Zn336 1.969 1_545 S
O352 C355 1.258 . S
O353 Zn337 2.024 1_455 S
O353 C340 1.058 . S
C354 O343 1.260 1_556 S
C354 O344 1.258 . S
C355 O351 1.252 1_455 S
C355 O352 1.258 . S
Zn356 O362 1.969 . S
Zn356 O363 1.965 . S
Zn356 O367 2.024 . S
Zn356 O372 1.969 . S
Zn357 O364 1.969 . S
Zn357 O370 1.969 . S
Zn357 O371 1.965 . S
Zn357 O373 2.024 . S
C358 O359 1.229 . S
C358 O367 1.058 . S
O359 C358 1.229 . S
C360 O361 1.229 . S
C360 O373 1.058 . S
O361 C360 1.229 . S
O362 Zn356 1.969 . S
O362 C365 1.267 . S
O363 Zn356 1.965 . S
O363 C374 1.260 . S
O364 Zn357 1.969 . S
O364 C374 1.258 . S
C365 O362 1.267 . S
C365 O366 1.228 . S
O366 C365 1.228 . S
O367 Zn356 2.024 . S
O367 C358 1.058 . S
C368 O369 1.228 . S
C368 O370 1.267 . S
O369 C368 1.228 . S
O370 Zn357 1.969 . S
O370 C368 1.267 . S
O371 Zn357 1.965 . S
O371 C375 1.260 . S
O372 Zn356 1.969 . S
O372 C375 1.258 . S
O373 Zn357 2.024 . S
O373 C360 1.058 . S
C374 O363 1.260 . S
C374 O364 1.258 . S
C375 O371 1.260 . S
C375 O372 1.258 . S
Zn376 O382 1.969 . S
Zn376 O383 1.965 . S
Zn376 O387 2.024 . S
Zn376 O392 1.969 . S
Zn377 O384 1.969 1_565 S
Zn377 O390 1.969 . S
Zn377 O391 1.965 1_565 S
Zn377 O393 2.024 . S
C378 O379 1.229 . S
C378 O387 1.058 . S
O379 C378 1.229 . S
C380 O381 1.229 . S
C380 O393 1.058 . S
O381 C380 1.229 . S
O382 Zn376 1.969 . S
O382 C385 1.267 . S
O383 Zn376 1.965 . S
O383 C394 1.260 . S
O384 Zn377 1.969 1_545 S
O384 C394 1.258 . S
C385 O382 1.267 . S
C385 O386 1.228 . S
O386 C385 1.228 . S
O387 Zn376 2.024 . S
O387 C378 1.058 . S
C388 O389 1.228 . S
C388 O390 1.267 . S
O389 C388 1.228 . S
O390 Zn377 1.969 . S
O390 C388 1.267 . S
O391 Zn377 1.965 1_545 S
O391 C395 1.260 . S
O392 Zn376 1.969 . S
O392 C395 1.258 . S
O393 Zn377 2.024 . S
O393 C380 1.058 . S
C394 O383 1.260 . S
C394 O384 1.258 . S
C395 O391 1.260 . S
C395 O392 1.258 . S
Zn396 O402 1.969 . S
Zn396 O403 1.965 . S
Zn396 O407 2.024 . S
Zn396 O412 1.969 . S
Zn397 O404 1.969 . S
Zn397 O410 1.969 . S
Zn397 O411 1.965 . S
Zn397 O413 2.024 . S
C398 O399 1.229 . S
C398 O407 1.058 . S
O399 C398 1.229 . S
C400 O401 1.229 . S
C400 O413 1.058 . S
O401 C400 1.229 . S
O402 Zn396 1.969 . S
O402 C405 1.267 . S
O403 Zn396 1.965 . S
O403 C414 1.260 . S
O404 Zn397 1.969 . S
O404 C414 1.258 . S
C405 O402 1.267 . S
C405 O406 1.228 . S
O406 C405 1.228 . S
O407 Zn396 2.024 . S
O407 C398 1.058 . S
C408 O409 1.228 . S
C408 O410 1.267 . S
O409 C408 1.228 . S
O410 Zn397 1.969 . S
O410 C408 1.267 . S
O411 Zn397 1.965 . S
O411 C415 1.260 . S
O412 Zn396 1.969 . S
O412 C415 1.258 . S
O413 Zn397 2.024 . S
O413 C400 1.058 . S
C414 O403 1.260 . S
C414 O404 1.258 . S
C415 O411 1.260 . S
C415 O412 1.258 . S
Zn416 O422 1.969 . S
Zn416 O423 1.965 . S
Zn416 O427 2.024 1_565 S
Zn416 O432 1.969 1_565 S
Zn417 O424 1.969 1_455 S
Zn417 O430 1.969 . S
Zn417 O431 1.965 . S
Zn417 O433 2.024 . S
C418 O419 1.229 . S
C418 O427 1.058 . S
O419 C418 1.229 . S
C420 O421 1.229 . S
C420 O433 1.058 1_655 S
O421 C420 1.229 . S
O422 Zn416 1.969 . S
O422 C425 1.267 . S
O423 Zn416 1.965 . S
O423 C434 1.260 1_465 S
O424 Zn417 1.969 1_655 S
O424 C434 1.258 . S
C425 O422 1.267 . S
C425 O426 1.228 . S
O426 C425 1.228 . S
O427 Zn416 2.024 1_545 S
O427 C418 1.058 . S
C428 O429 1.228 . S
C428 O430 1.267 . S
O429 C428 1.228 . S
O430 Zn417 1.969 . S
O430 C428 1.267 . S
O431 Zn417 1.965 . S
O431 C435 1.260 . S
O432 Zn416 1.969 1_545 S
O432 C435 1.258 . S
O433 Zn417 2.024 . S
O433 C420 1.058 1_455 S
C434 O423 1.260 1_645 S
C434 O424 1.258 . S
C435 O431 1.260 . S
C435 O432 1.258 . S
Zn436 O442 1.969 . S
Zn436 O443 1.965 . S
Zn436 O447 2.024 . S
Zn436 O452 1.969 . S
Zn437 O444 1.969 . S
Zn437 O450 1.969 . S
Zn437 O451 1.965 . S
Zn437 O453 2.024 . S
C438 O439 1.229 . S
C438 O447 1.058 . S
O439 C438 1.229 . S
C440 O441 1.229 . S
C440 O453 1.058 . S
O441 C440 1.229 . S
O442 Zn436 1.969 . S
O442 C445 1.267 . S
O443 Zn436 1.965 . S
O443 C454 1.260 . S
O444 Zn437 1.969 . S
O444 C454 1.258 . S
C445 O442 1.267 . S
C445 O446 1.228 . S
O446 C445 1.228 . S
O447 Zn436 2.024 . S
O447 C438 1.058 . S
C448 O449 1.228 . S
C448 O450 1.267 . S
O449 C448 1.228 . S
O450 Zn437 1.969 . S
O450 C448 1.267 . S
O451 Zn437 1.965 . S
O451 C455 1.260 . S
O452 Zn436 1.969 . S
O452 C455 1.258 . S
O453 Zn437 2.024 . S
O453 C440 1.058 . S
C454 O443 1.260 . S
C454 O444 1.258 . S
C455 O451 1.260 . S
C455 O452 1.258 . S
Zn456 O462 1.974 . S
Zn456 O463 1.964 1_545 S
Zn456 O467 2.021 1_556 S
Zn456 O472 1.967 1_556 S
Zn457 O464 1.969 . S
Zn457 O470 1.969 . S
Zn457 O471 1.965 1_565 S
Zn457 O473 2.024 . S
C458 O459 1.229 . S
C458 O467 1.058 . S
O459 C458 1.229 . S
C460 O461 1.229 . S
C460 O473 1.058 . S
O461 C460 1.229 . S
O462 Zn456 1.974 . S
O462 C465 1.267 . S
O463 Zn456 1.964 1_565 S
O463 C474 1.260 1_556 S
O464 Zn457 1.969 . S
O464 C474 1.258 . S
C465 O462 1.267 . S
C465 O466 1.228 . S
O466 C465 1.228 . S
O467 Zn456 2.021 1_554 S
O467 C458 1.058 . S
C468 O469 1.228 . S
C468 O470 1.267 1_545 S
O469 C468 1.228 . S
O470 Zn457 1.969 . S
O470 C468 1.267 1_565 S
O471 Zn457 1.965 1_545 S
O471 C475 1.260 . S
O472 Zn456 1.967 1_554 S
O472 C475 1.258 . S
O473 Zn457 2.024 . S
O473 C460 1.058 . S
C474 O463 1.260 1_554 S
C474 O464 1.258 . S
C475 O471 1.260 . S
C475 O472 1.258 . S
Zn476 O482 1.969 . S
Zn476 O483 1.965 . S
Zn476 O487 2.024 . S
Zn476 O492 1.969 . S
Zn477 O484 1.969 . S
Zn477 O490 1.969 . S
Zn477 O491 1.965 . S
Zn477 O493 2.024 . S
C478 O479 1.229 . S
C478 O487 1.058 . S
O479 C478 1.229 . S
C480 O481 1.229 . S
C480 O493 1.058 . S
O481 C480 1.229 . S
O482 Zn476 1.969 . S
O482 C485 1.267 . S
O483 Zn476 1.965 . S
O483 C494 1.260 . S
O484 Zn477 1.969 . S
O484 C494 1.258 . S
C485 O482 1.267 . S
C485 O486 1.228 . S
O486 C485 1.228 . S
O487 Zn476 2.024 . S
O487 C478 1.058 . S
C488 O489 1.228 . S
C488 O490 1.267 . S
O489 C488 1.228 . S
O490 Zn477 1.969 . S
O490 C488 1.267 . S
O491 Zn477 1.965 . S
O491 C495 1.260 . S
O492 Zn476 1.969 . S
O492 C495 1.258 . S
O493 Zn477 2.024 . S
O493 C480 1.058 . S
C494 O483 1.260 . S
C494 O484 1.258 . S
C495 O491 1.260 . S
C495 O492 1.258 . S
Zn496 O502 1.969 . S
Zn496 O503 1.965 . S
Zn496 O507 2.024 . S
Zn496 O512 1.969 . S
Zn497 O504 1.969 1_556 S
Zn497 O510 1.969 1_556 S
Zn497 O511 1.965 1_556 S
Zn497 O513 2.024 . S
C498 O499 1.229 . S
C498 O507 1.058 . S
O499 C498 1.229 . S
C500 O501 1.229 . S
C500 O513 1.058 . S
O501 C500 1.229 . S
O502 Zn496 1.969 . S
O502 C505 1.267 . S
O503 Zn496 1.965 . S
O503 C514 1.260 . S
O504 Zn497 1.969 1_554 S
O504 C514 1.258 . S
C505 O502 1.267 . S
C505 O506 1.228 . S
O506 C505 1.228 . S
O507 Zn496 2.024 . S
O507 C498 1.058 . S
C508 O509 1.228 . S
C508 O510 1.267 1_556 S
O509 C508 1.228 . S
O510 Zn497 1.969 1_554 S
O510 C508 1.267 1_554 S
O511 Zn497 1.965 1_554 S
O511 C515 1.260 . S
O512 Zn496 1.969 . S
O512 C515 1.258 . S
O513 Zn497 2.024 . S
O513 C500 1.058 . S
C514 O503 1.260 . S
C514 O504 1.258 . S
C515 O511 1.260 . S
C515 O512 1.258 . S
Zn516 O522 1.969 . S
Zn516 O523 1.965 . S
Zn516 O527 2.024 . S
Zn516 O532 1.969 . S
Zn517 O524 1.969 . S
Zn517 O530 1.969 . S
Zn517 O531 1.965 . S
Zn517 O533 2.024 . S
C518 O519 1.229 . S
C518 O527 1.058 . S
O519 C518 1.229 . S
C520 O521 1.229 . S
C520 O533 1.058 . S
O521 C520 1.229 . S
O522 Zn516 1.969 . S
O522 C525 1.267 . S
O523 Zn516 1.965 . S
O523 C534 1.260 . S
O524 Zn517 1.969 . S
O524 C534 1.258 . S
C525 O522 1.267 . S
C525 O526 1.228 . S
O526 C525 1.228 . S
O527 Zn516 2.024 . S
O527 C518 1.058 . S
C528 O529 1.228 . S
C528 O530 1.267 . S
O529 C528 1.228 . S
O530 Zn517 1.969 . S
O530 C528 1.267 . S
O531 Zn517 1.965 . S
O531 C535 1.260 . S
O532 Zn516 1.969 . S
O532 C535 1.258 . S
O533 Zn517 2.024 . S
O533 C520 1.058 . S
C534 O523 1.260 . S
C534 O524 1.258 . S
C535 O531 1.260 . S
C535 O532 1.258 . S
Zn536 O542 1.969 . S
Zn536 O543 1.965 . S
Zn536 O547 2.024 . S
Zn536 O552 1.969 . S
Zn537 O544 1.969 1_655 S
Zn537 O550 1.969 . S
Zn537 O551 1.965 1_655 S
Zn537 O553 2.024 . S
C538 O539 1.229 . S
C538 O547 1.058 . S
O539 C538 1.229 . S
C540 O541 1.229 . S
C540 O553 1.058 . S
O541 C540 1.229 . S
O542 Zn536 1.969 . S
O542 C545 1.267 . S
O543 Zn536 1.965 . S
O543 C554 1.260 . S
O544 Zn537 1.969 1_455 S
O544 C554 1.258 . S
C545 O542 1.267 . S
C545 O546 1.228 . S
O546 C545 1.228 . S
O547 Zn536 2.024 . S
O547 C538 1.058 . S
C548 O549 1.228 . S
C548 O550 1.267 . S
O549 C548 1.228 . S
O550 Zn537 1.969 . S
O550 C548 1.267 . S
O551 Zn537 1.965 1_455 S
O551 C555 1.260 . S
O552 Zn536 1.969 . S
O552 C555 1.258 . S
O553 Zn537 2.024 . S
O553 C540 1.058 . S
C554 O543 1.260 . S
C554 O544 1.258 . S
C555 O551 1.260 . S
C555 O552 1.258 . S
Zn556 O562 1.969 . S
Zn556 O563 1.965 . S
Zn556 O567 2.024 . S
Zn556 O572 1.969 . S
Zn557 O564 1.969 . S
Zn557 O570 1.969 . S
Zn557 O571 1.965 . S
Zn557 O573 2.024 . S
C558 O559 1.229 . S
C558 O567 1.058 . S
O559 C558 1.229 . S
C560 O561 1.229 . S
C560 O573 1.058 . S
O561 C560 1.229 . S
O562 Zn556 1.969 . S
O562 C565 1.267 . S
O563 Zn556 1.965 . S
O563 C574 1.260 . S
O564 Zn557 1.969 . S
O564 C574 1.258 . S
C565 O562 1.267 . S
C565 O566 1.228 . S
O566 C565 1.228 . S
O567 Zn556 2.024 . S
O567 C558 1.058 . S
C568 O569 1.228 . S
C568 O570 1.267 . S
O569 C568 1.228 . S
O570 Zn557 1.969 . S
O570 C568 1.267 . S
O571 Zn557 1.965 . S
O571 C575 1.260 . S
O572 Zn556 1.969 . S
O572 C575 1.258 . S
O573 Zn557 2.024 . S
O573 C560 1.058 . S
C574 O563 1.260 . S
C574 O564 1.258 . S
C575 O571 1.260 . S
C575 O572 1.258 . S
Zn576 O582 1.969 . S
Zn576 O583 1.965 . S
Zn576 O587 2.024 . S
Zn576 O592 1.969 . S
Zn577 O584 1.969 . S
Zn577 O590 1.969 . S
Zn577 O591 1.965 . S
Zn577 O593 2.024 . S
C578 O579 1.229 . S
C578 O587 1.058 . S
O579 C578 1.229 . S
C580 O581 1.229 . S
C580 O593 1.058 . S
O581 C580 1.229 . S
O582 Zn576 1.969 . S
O582 C585 1.267 . S
O583 Zn576 1.965 . S
O583 C594 1.260 . S
O584 Zn577 1.969 . S
O584 C594 1.258 . S
C585 O582 1.267 . S
C585 O586 1.228 . S
O586 C585 1.228 . S
O587 Zn576 2.024 . S
O587 C578 1.058 . S
C588 O589 1.228 . S
C588 O590 1.267 . S
O589 C588 1.228 . S
O590 Zn577 1.969 . S
O590 C588 1.267 . S
O591 Zn577 1.965 . S
O591 C595 1.260 . S
O592 Zn576 1.969 . S
O592 C595 1.258 . S
O593 Zn577 2.024 . S
O593 C580 1.058 . S
C594 O583 1.260 . S
C594 O584 1.258 . S
C595 O591 1.260 . S
C595 O592 1.258 . S
Zn596 O602 1.969 . S
Zn596 O603 1.965 . S
Zn596 O607 2.024 . S
Zn596 O612 1.969 . S
Zn597 O604 1.969 . S
Zn597 O610 1.969 . S
Zn597 O611 1.965 . S
Zn597 O613 2.024 . S
C598 O599 1.229 . S
C598 O607 1.058 . S
O599 C598 1.229 . S
C600 O601 1.229 . S
C600 O613 1.058 . S
O601 C600 1.229 . S
O602 Zn596 1.969 . S
O602 C605 1.267 . S
O603 Zn596 1.965 . S
O603 C614 1.260 . S
O604 Zn597 1.969 . S
O604 C614 1.258 . S
C605 O602 1.267 . S
C605 O606 1.228 . S
O606 C605 1.228 . S
O607 Zn596 2.024 . S
O607 C598 1.058 . S
C608 O609 1.228 . S
C608 O610 1.267 . S
O609 C608 1.228 . S
O610 Zn597 1.969 . S
O610 C608 1.267 . S
O611 Zn597 1.965 . S
O611 C615 1.260 . S
O612 Zn596 1.969 . S
O612 C615 1.258 . S
O613 Zn597 2.024 . S
O613 C600 1.058 . S
C614 O603 1.260 . S
C614 O604 1.258 . S
C615 O611 1.260 . S
C615 O612 1.258 . S
Zn616 O622 1.969 . S
Zn616 O623 1.965 . S
Zn616 O627 2.024 . S
Zn616 O632 1.969 . S
Zn617 O624 1.969 . S
Zn617 O630 1.969 . S
Zn617 O631 1.965 . S
Zn617 O633 2.024 . S
C618 O619 1.229 . S
C618 O627 1.058 . S
O619 C618 1.229 . S
C620 O621 1.229 . S
C620 O633 1.058 . S
O621 C620 1.229 . S
O622 Zn616 1.969 . S
O622 C625 1.267 . S
O623 Zn616 1.965 . S
O623 C634 1.260 . S
O624 Zn617 1.969 . S
O624 C634 1.258 . S
C625 O622 1.267 . S
C625 O626 1.228 . S
O626 C625 1.228 . S
O627 Zn616 2.024 . S
O627 C618 1.058 . S
C628 O629 1.228 . S
C628 O630 1.267 . S
O629 C628 1.228 . S
O630 Zn617 1.969 . S
O630 C628 1.267 . S
O631 Zn617 1.965 . S
O631 C635 1.260 . S
O632 Zn616 1.969 . S
O632 C635 1.258 . S
O633 Zn617 2.024 . S
O633 C620 1.058 . S
C634 O623 1.260 . S
C634 O624 1.258 . S
C635 O631 1.260 . S
C635 O632 1.258 . S
Zn636 O642 1.969 1_455 S
Zn636 O643 1.965 1_455 S
Zn636 O647 2.024 . S
Zn636 O652 1.969 . S
Zn637 O644 1.969 1_554 S
Zn637 O650 1.969 . S
Zn637 O651 1.965 . S
Zn637 O653 2.024 . S
C638 O639 1.229 . S
C638 O647 1.058 . S
O639 C638 1.229 . S
C640 O641 1.229 1_554 S
C640 O653 1.058 . S
O641 C640 1.229 1_556 S
O642 Zn636 1.969 1_655 S
O642 C645 1.267 . S
O643 Zn636 1.965 1_655 S
O643 C654 1.260 1_654 S
O644 Zn637 1.969 1_556 S
O644 C654 1.258 . S
C645 O642 1.267 . S
C645 O646 1.228 . S
O646 C645 1.228 . S
O647 Zn636 2.024 . S
O647 C638 1.058 . S
C648 O649 1.228 . S
C648 O650 1.267 . S
O649 C648 1.228 . S
O650 Zn637 1.969 . S
O650 C648 1.267 . S
O651 Zn637 1.965 . S
O651 C655 1.260 . S
O652 Zn636 1.969 . S
O652 C655 1.258 . S
O653 Zn637 2.024 . S
O653 C640 1.058 . S
C654 O643 1.260 1_456 S
C654 O644 1.258 . S
C655 O651 1.260 . S
C655 O652 1.258 . S
C106 C340 3.001 1_656 S
C65 C375 1.872 . S
C79 C380 1.992 . S
C405 C90 1.236 . S
C21 C425 1.265 . S
C440 C35 1.360 . S
C475 C50 1.956 . S
C6 C480 2.143 . S
C355 C232 3.118 1_445 S
C245 C365 0.850 . S
C395 C274 1.717 . S
C400 C175 1.225 . S
C231 C420 1.206 1_565 S
C455 C246 1.777 . S
C465 C273 0.786 . S
C495 C176 3.042 . S
C345 C160 2.280 1_545 S
C289 C515 2.367 . S
C525 C328 1.677 . S
C540 C317 1.778 . S
C118 C485 2.355 . S
C132 C385 1.677 . S
C331 C575 2.389 . S
C580 C303 1.602 . S
C338 C63 1.922 . S
C594 C107 2.639 . S
C92 C378 1.315 . S
C78 C568 1.650 . S
C428 C8 1.651 . S
C51 C518 1.316 . S
C474 C37 2.637 1_554 S
C598 C20 1.922 . S
C354 C147 2.107 . S
C588 C316 1.326 . S
C119 C394 1.310 . S
C288 C558 1.252 . S
C148 C418 1.252 . S
C534 C315 1.310 . S
C120 C468 1.326 . S
C287 C614 2.107 . S
C188 C348 2.387 . S
C177 C514 2.764 . S
C258 C448 2.060 . S
C247 C538 1.236 . S
C608 C272 2.387 . S
C216 C388 2.147 . S
C414 C261 2.764 . S
C358 C205 1.236 . S
C76 C620 2.143 . S
C595 C93 1.956 . S
C105 C640 1.360 1_556 S
C62 C565 1.265 . S
C49 C505 1.236 . S
C520 C9 1.992 . S
C555 C22 1.871 . S
C600 C36 3.002 . S
C635 C260 3.042 . S
C189 C585 0.786 . S
C655 C204 1.776 . S
C560 C217 1.209 . S
C500 C259 1.224 . S
C190 C535 1.718 . S
C545 C203 0.850 . S
C218 C615 3.119 . S
C625 C314 2.354 . S
C135 C435 2.389 . S
C445 C146 1.686 . S
C460 C163 1.599 . S
C605 C300 2.283 . S
C286 C645 1.687 . S
C415 C149 2.364 . S
C360 C121 1.778 . S
C91 C618 1.867 . S
C374 C77 1.603 . S
C64 C638 1.165 . S
C104 C408 1.418 . S
C34 C508 1.420 . S
C438 C23 1.165 . S
C7 C554 1.604 . S
C48 C478 1.867 . S
C634 C329 1.989 . S
C162 C368 1.218 . S
C654 C301 1.292 1_455 S
C134 C398 1.261 . S
C330 C498 1.261 . S
C454 C161 1.295 . S
C302 C548 1.220 . S
C494 C133 1.989 . S
C628 C244 2.256 . S
C434 C219 2.848 1_545 S
C230 C528 2.146 . S
C458 C191 1.457 . S
C202 C488 2.256 . S
C174 C648 2.060 . S
C574 C233 2.850 . S
C578 C275 1.458 . S
