# Generated by pormake.
# Topology ocu, (6,8)-cn, num edge types: 1
# Building blocks:
#     Node 0, Type 0, BuildingBlock: KUMJIN_clean_sbu_1, # of connection points: 6
#     Node 1, Type 0, BuildingBlock: KUMJIN_clean_sbu_1, # of connection points: 6
#     Node 2, Type 0, BuildingBlock: KUMJIN_clean_sbu_1, # of connection points: 6
#     Node 3, Type 0, BuildingBlock: KUMJIN_clean_sbu_1, # of connection points: 6
#     Node 4, Type 0, BuildingBlock: KUMJIN_clean_sbu_1, # of connection points: 6
#     Node 5, Type 0, BuildingBlock: KUMJIN_clean_sbu_1, # of connection points: 6
#     Node 6, Type 0, BuildingBlock: KUMJIN_clean_sbu_1, # of connection points: 6
#     Node 7, Type 0, BuildingBlock: KUMJIN_clean_sbu_1, # of connection points: 6
#     Node 8, Type 1, BuildingBlock: VETTIZ_charged_sbu_0, # of connection points: 8
#     Node 9, Type 1, BuildingBlock: VETTIZ_charged_sbu_0, # of connection points: 8
#     Node 10, Type 1, BuildingBlock: VETTIZ_charged_sbu_0, # of connection points: 8
#     Node 11, Type 1, BuildingBlock: VETTIZ_charged_sbu_0, # of connection points: 8
#     Node 12, Type 1, BuildingBlock: VETTIZ_charged_sbu_0, # of connection points: 8
#     Node 13, Type 1, BuildingBlock: VETTIZ_charged_sbu_0, # of connection points: 8
#     Edge 14, Type (0, 1), BuildingBlock: AJUNOK_clean_linker_0, # of connection points: 2
#     Edge 15, Type (0, 1), BuildingBlock: AJUNOK_clean_linker_0, # of connection points: 2
#     Edge 16, Type (0, 1), BuildingBlock: AJUNOK_clean_linker_0, # of connection points: 2
#     Edge 17, Type (0, 1), BuildingBlock: AJUNOK_clean_linker_0, # of connection points: 2
#     Edge 18, Type (0, 1), BuildingBlock: AJUNOK_clean_linker_0, # of connection points: 2
#     Edge 19, Type (0, 1), BuildingBlock: AJUNOK_clean_linker_0, # of connection points: 2
#     Edge 20, Type (0, 1), BuildingBlock: AJUNOK_clean_linker_0, # of connection points: 2
#     Edge 21, Type (0, 1), BuildingBlock: AJUNOK_clean_linker_0, # of connection points: 2
#     Edge 22, Type (0, 1), BuildingBlock: AJUNOK_clean_linker_0, # of connection points: 2
#     Edge 23, Type (0, 1), BuildingBlock: AJUNOK_clean_linker_0, # of connection points: 2
#     Edge 24, Type (0, 1), BuildingBlock: AJUNOK_clean_linker_0, # of connection points: 2
#     Edge 25, Type (0, 1), BuildingBlock: AJUNOK_clean_linker_0, # of connection points: 2
#     Edge 26, Type (0, 1), BuildingBlock: AJUNOK_clean_linker_0, # of connection points: 2
#     Edge 27, Type (0, 1), BuildingBlock: AJUNOK_clean_linker_0, # of connection points: 2
#     Edge 28, Type (0, 1), BuildingBlock: AJUNOK_clean_linker_0, # of connection points: 2
#     Edge 29, Type (0, 1), BuildingBlock: AJUNOK_clean_linker_0, # of connection points: 2
#     Edge 30, Type (0, 1), BuildingBlock: AJUNOK_clean_linker_0, # of connection points: 2
#     Edge 31, Type (0, 1), BuildingBlock: AJUNOK_clean_linker_0, # of connection points: 2
#     Edge 32, Type (0, 1), BuildingBlock: AJUNOK_clean_linker_0, # of connection points: 2
#     Edge 33, Type (0, 1), BuildingBlock: AJUNOK_clean_linker_0, # of connection points: 2
#     Edge 34, Type (0, 1), BuildingBlock: AJUNOK_clean_linker_0, # of connection points: 2
#     Edge 35, Type (0, 1), BuildingBlock: AJUNOK_clean_linker_0, # of connection points: 2
#     Edge 36, Type (0, 1), BuildingBlock: AJUNOK_clean_linker_0, # of connection points: 2
#     Edge 37, Type (0, 1), BuildingBlock: AJUNOK_clean_linker_0, # of connection points: 2
#     Edge 38, Type (0, 1), BuildingBlock: AJUNOK_clean_linker_0, # of connection points: 2
#     Edge 39, Type (0, 1), BuildingBlock: AJUNOK_clean_linker_0, # of connection points: 2
#     Edge 40, Type (0, 1), BuildingBlock: AJUNOK_clean_linker_0, # of connection points: 2
#     Edge 41, Type (0, 1), BuildingBlock: AJUNOK_clean_linker_0, # of connection points: 2
#     Edge 42, Type (0, 1), BuildingBlock: AJUNOK_clean_linker_0, # of connection points: 2
#     Edge 43, Type (0, 1), BuildingBlock: AJUNOK_clean_linker_0, # of connection points: 2
#     Edge 44, Type (0, 1), BuildingBlock: AJUNOK_clean_linker_0, # of connection points: 2
#     Edge 45, Type (0, 1), BuildingBlock: AJUNOK_clean_linker_0, # of connection points: 2
#     Edge 46, Type (0, 1), BuildingBlock: AJUNOK_clean_linker_0, # of connection points: 2
#     Edge 47, Type (0, 1), BuildingBlock: AJUNOK_clean_linker_0, # of connection points: 2
#     Edge 48, Type (0, 1), BuildingBlock: AJUNOK_clean_linker_0, # of connection points: 2
#     Edge 49, Type (0, 1), BuildingBlock: AJUNOK_clean_linker_0, # of connection points: 2
#     Edge 50, Type (0, 1), BuildingBlock: AJUNOK_clean_linker_0, # of connection points: 2
#     Edge 51, Type (0, 1), BuildingBlock: AJUNOK_clean_linker_0, # of connection points: 2
#     Edge 52, Type (0, 1), BuildingBlock: AJUNOK_clean_linker_0, # of connection points: 2
#     Edge 53, Type (0, 1), BuildingBlock: AJUNOK_clean_linker_0, # of connection points: 2
#     Edge 54, Type (0, 1), BuildingBlock: AJUNOK_clean_linker_0, # of connection points: 2
#     Edge 55, Type (0, 1), BuildingBlock: AJUNOK_clean_linker_0, # of connection points: 2
#     Edge 56, Type (0, 1), BuildingBlock: AJUNOK_clean_linker_0, # of connection points: 2
#     Edge 57, Type (0, 1), BuildingBlock: AJUNOK_clean_linker_0, # of connection points: 2
#     Edge 58, Type (0, 1), BuildingBlock: AJUNOK_clean_linker_0, # of connection points: 2
#     Edge 59, Type (0, 1), BuildingBlock: AJUNOK_clean_linker_0, # of connection points: 2
#     Edge 60, Type (0, 1), BuildingBlock: AJUNOK_clean_linker_0, # of connection points: 2
#     Edge 61, Type (0, 1), BuildingBlock: AJUNOK_clean_linker_0, # of connection points: 2
# Relax obj value: 0.099
# Max RMSD: 0.134
# Mean RMSD: 0.107
data_MOF--net-ocu--node1-KUMJIN_clean_sbu_1--node2-VETTIZ_charged_sbu_0--edge1-AJUNOK_clean_linker_0
_symmetry_space_group_name_H-M    P1
_symmetry_Int_Tables_number       1
_symmetry_cell_setting            triclinic
loop_
_symmetry_equiv_pos_as_xyz
'x, y, z'
_cell_length_a     29.945346
_cell_length_b     30.843937
_cell_length_c     31.346673
_cell_angle_alpha  103.66445
_cell_angle_beta   77.817381
_cell_angle_gamma 107.53765
loop_
_atom_site_label
_atom_site_type_symbol
_atom_site_fract_x
_atom_site_fract_y
_atom_site_fract_z
_atom_type_partial_charge
Eu0 Eu 0.24283 0.26542 0.24947 0.0
C1 C 0.38407 0.40453 0.38008 0.0
N2 N 0.39407 0.37777 0.34004 0.0
C3 C 0.46243 0.43811 0.3205 0.0
C4 C 0.41288 0.44972 0.39166 0.0
C5 C 0.43324 0.39329 0.31072 0.0
C6 C 0.45202 0.4666 0.36099 0.0
C7 C 0.33579 0.4122 0.45282 0.0
C8 C 0.34574 0.38619 0.41021 0.0
C9 C 0.36402 0.45747 0.46422 0.0
C10 C 0.40227 0.47627 0.43364 0.0
Eu11 Eu 0.34172 0.30342 0.32662 0.0
N12 N 0.31825 0.34274 0.39794 0.0
C13 C 0.29787 0.3918 0.48274 0.0
C14 C 0.28308 0.32162 0.4277 0.0
C15 C 0.27174 0.34612 0.47028 0.0
H16 H 0.44244 0.37097 0.27998 0.0
H17 H 0.24304 0.32973 0.49348 0.0
H18 H 0.14585 0.18606 0.28596 0.0
H19 H 0.35591 0.25904 0.08809 0.0
H20 H 0.26338 0.28618 0.41817 0.0
H21 H 0.28899 0.41072 0.51575 0.0
H22 H 0.32728 0.29459 0.16397 0.0
H23 H 0.49321 0.45048 0.297 0.0
H24 H 0.35667 0.47818 0.49666 0.0
H25 H 0.42389 0.51114 0.44304 0.0
H26 H 0.10243 0.10535 0.26106 0.0
H27 H 0.47495 0.50119 0.36862 0.0
H28 H 0.31584 0.17829 0.05727 0.0
N29 N 0.19769 0.18878 0.22836 0.0
C30 C 0.21161 0.16685 0.18692 0.0
C31 C 0.13332 0.12204 0.24002 0.0
C32 C 0.18679 0.12113 0.17056 0.0
C33 C 0.15854 0.16755 0.2545 0.0
C34 C 0.14765 0.09859 0.19792 0.0
N35 N 0.27399 0.23426 0.17711 0.0
C36 C 0.31053 0.25926 0.15137 0.0
C37 C 0.26479 0.16887 0.11684 0.0
C38 C 0.25036 0.19039 0.16037 0.0
C39 C 0.30361 0.19371 0.09086 0.0
C40 C 0.32641 0.23921 0.10816 0.0
H41 H 0.12778 0.06345 0.18657 0.0
H42 H 0.18241 0.06465 0.11405 0.0
H43 H 0.24958 0.10697 0.06687 0.0
O44 O 0.23221 0.31616 0.2174 0.0
O45 O 0.29764 0.22244 0.23482 0.0
O46 O 0.36723 0.27155 0.25621 0.0
O47 O 0.17269 0.25952 0.23629 0.0
O48 O 0.2934 0.33711 0.25623 0.0
O49 O 0.36457 0.32803 0.25978 0.0
O50 O 0.3461 0.25032 0.35973 0.0
O51 O 0.28442 0.34407 0.34658 0.0
O52 O 0.21601 0.29728 0.31989 0.0
O53 O 0.40819 0.3062 0.3469 0.0
O54 O 0.28594 0.23406 0.32892 0.0
O55 O 0.2174 0.24143 0.31419 0.0
C56 C 0.34415 0.23286 0.23327 0.0
C57 C 0.16813 0.29267 0.17723 0.0
C58 C 0.14306 0.33269 0.13282 0.0
C59 C 0.12347 0.29027 0.10669 0.0
C60 C 0.15046 0.25025 0.14983 0.0
C61 C 0.12801 0.24918 0.11463 0.0
C62 C 0.16498 0.33379 0.1682 0.0
C63 C 0.33898 0.34623 0.24328 0.0
C64 C 0.18724 0.29555 0.21717 0.0
C65 C 0.20122 0.09962 0.12729 0.0
C66 C 0.23979 0.12359 0.10046 0.0
C67 C 0.23805 0.33331 0.34691 0.0
C68 C 0.41983 0.2338 0.34794 0.0
C69 C 0.449 0.1748 0.36531 0.0
C70 C 0.47335 0.16905 0.32147 0.0
C71 C 0.44443 0.22735 0.30466 0.0
C72 C 0.42176 0.20723 0.37809 0.0
C73 C 0.47093 0.19502 0.29152 0.0
C74 C 0.23966 0.22611 0.33666 0.0
C75 C 0.39119 0.26738 0.36165 0.0
H76 H 0.10449 0.28912 0.08046 0.0
H77 H 0.15302 0.21812 0.15619 0.0
H78 H 0.1135 0.2165 0.09395 0.0
H79 H 0.17883 0.36665 0.1892 0.0
H80 H 0.49549 0.14528 0.31052 0.0
H81 H 0.44321 0.24741 0.28109 0.0
H82 H 0.40164 0.21155 0.41114 0.0
H83 H 0.49009 0.19037 0.25811 0.0
Eu84 Eu 0.75692 0.3262 0.30737 0.0
C85 C 0.87878 0.18548 0.19109 0.0
N86 N 0.83607 0.17607 0.21742 0.0
C87 C 0.80846 0.10679 0.16573 0.0
C88 C 0.88782 0.1558 0.15045 0.0
C89 C 0.80123 0.13712 0.20583 0.0
C90 C 0.85186 0.11628 0.13779 0.0
C91 C 0.95894 0.23475 0.17908 0.0
C92 C 0.91392 0.22455 0.20515 0.0
C93 C 0.96792 0.20555 0.13833 0.0
C94 C 0.93245 0.16625 0.12403 0.0
Eu95 Eu 0.82704 0.22994 0.28352 0.0
N96 N 0.90398 0.2527 0.24434 0.0
C97 C 0.99374 0.27375 0.19498 0.0
C98 C 0.93811 0.28987 0.26077 0.0
C99 C 0.98335 0.3012 0.23617 0.0
H100 H 0.76817 0.129 0.22791 0.0
H101 H 1.01022 0.33095 0.24912 0.0
H102 H 0.79466 0.40205 0.3966 0.0
H103 H 0.57934 0.21453 0.28571 0.0
H104 H 0.93045 0.31101 0.29264 0.0
H105 H 1.02887 0.28253 0.17603 0.0
H106 H 0.66173 0.2551 0.2612 0.0
H107 H 0.7807 0.07598 0.15657 0.0
H108 H 1.00228 0.21291 0.11775 0.0
H109 H 0.94002 0.14391 0.09264 0.0
H110 H 0.76486 0.42377 0.47616 0.0
H111 H 0.85743 0.09261 0.10681 0.0
H112 H 0.54609 0.227 0.36573 0.0
N113 N 0.73107 0.3508 0.38307 0.0
C114 C 0.68568 0.32989 0.39893 0.0
C115 C 0.74235 0.39713 0.45487 0.0
C116 C 0.66725 0.34116 0.44413 0.0
C117 C 0.75924 0.38459 0.4099 0.0
C118 C 0.69628 0.37509 0.47216 0.0
N119 N 0.67707 0.28544 0.32655 0.0
C120 C 0.64872 0.25853 0.29616 0.0
C121 C 0.61064 0.27477 0.38543 0.0
C122 C 0.65804 0.2963 0.36993 0.0
C123 C 0.58257 0.24404 0.3549 0.0
C124 C 0.60134 0.2367 0.30989 0.0
H125 H 0.68337 0.38476 0.50709 0.0
H126 H 0.60591 0.32624 0.49458 0.0
H127 H 0.55622 0.26864 0.44306 0.0
O128 O 0.72025 0.34842 0.26648 0.0
O129 O 0.75481 0.28693 0.36108 0.0
O130 O 0.75179 0.21688 0.3176 0.0
O131 O 0.75257 0.39749 0.3202 0.0
O132 O 0.75041 0.27196 0.24311 0.0
O133 O 0.75373 0.20633 0.26314 0.0
O134 O 0.85421 0.22468 0.34106 0.0
O135 O 0.84858 0.27717 0.23176 0.0
O136 O 0.82941 0.34551 0.26753 0.0
O137 O 0.83551 0.16408 0.29057 0.0
O138 O 0.84847 0.29221 0.33862 0.0
O139 O 0.83021 0.35623 0.32725 0.0
C140 C 0.74127 0.242 0.356 0.0
C141 C 0.74793 0.42655 0.25815 0.0
C142 C 0.73046 0.46732 0.20803 0.0
C143 C 0.77489 0.49979 0.21187 0.0
C144 C 0.79313 0.45738 0.25872 0.0
C145 C 0.8065 0.49357 0.23539 0.0
C146 C 0.7175 0.43061 0.23163 0.0
C147 C 0.73995 0.22652 0.23756 0.0
C148 C 0.73084 0.39139 0.28657 0.0
C149 C 0.62064 0.31828 0.45989 0.0
C150 C 0.59239 0.28531 0.43059 0.0
C151 C 0.85292 0.32163 0.23515 0.0
C152 C 0.82341 0.15308 0.3648 0.0
C153 C 0.82546 0.11951 0.42759 0.0
C154 C 0.77575 0.10452 0.43374 0.0
C155 C 0.77391 0.13654 0.37078 0.0
C156 C 0.84906 0.14452 0.39326 0.0
C157 C 0.75036 0.11249 0.40508 0.0
C158 C 0.85315 0.33721 0.34613 0.0
C159 C 0.84839 0.1801 0.32971 0.0
H160 H 0.78546 0.53063 0.19754 0.0
H161 H 0.81768 0.45421 0.27798 0.0
H162 H 0.84123 0.51739 0.23622 0.0
H163 H 0.68348 0.40529 0.22999 0.0
H164 H 0.75662 0.08558 0.45998 0.0
H165 H 0.75345 0.14221 0.34897 0.0
H166 H 0.88732 0.1576 0.38883 0.0
H167 H 0.7123 0.0996 0.40908 0.0
Eu168 Eu 0.77611 0.74053 0.33974 0.0
C169 C 0.91888 0.86224 0.20418 0.0
N170 N 0.89502 0.87659 0.24457 0.0
C171 C 0.96276 0.93956 0.26094 0.0
C172 C 0.96619 0.886 0.19089 0.0
C173 C 0.91582 0.91511 0.27262 0.0
C174 C 0.98813 0.92487 0.21999 0.0
C175 C 0.92006 0.80737 0.13428 0.0
C176 C 0.896 0.82344 0.17596 0.0
C177 C 0.96716 0.83107 0.12098 0.0
C178 C 0.99011 0.87029 0.14915 0.0
Eu179 Eu 0.81612 0.83265 0.26011 0.0
N180 N 0.85071 0.80038 0.19001 0.0
C181 C 0.89612 0.76762 0.10744 0.0
C182 C 0.82624 0.76372 0.16275 0.0
C183 C 0.84879 0.74616 0.12141 0.0
H184 H 0.89605 0.92775 0.30364 0.0
H185 H 0.82967 0.7162 0.10029 0.0
H186 H 0.69812 0.64667 0.29122 0.0
H187 H 0.75698 0.85007 0.50292 0.0
H188 H 0.78944 0.7481 0.17277 0.0
H189 H 0.91362 0.75323 0.07588 0.0
H190 H 0.79942 0.82222 0.42979 0.0
H191 H 0.9792 0.96997 0.28335 0.0
H192 H 0.98627 0.81922 0.08907 0.0
H193 H 1.02649 0.8881 0.13842 0.0
H194 H 0.6142 0.60471 0.30736 0.0
H195 H 1.02448 0.94399 0.21101 0.0
H196 H 0.6722 0.81193 0.52404 0.0
N197 N 0.69645 0.69712 0.35074 0.0
C198 C 0.67096 0.71058 0.39051 0.0
C199 C 0.62958 0.63469 0.33078 0.0
C200 C 0.62309 0.6868 0.40146 0.0
C201 C 0.67698 0.65909 0.32141 0.0
C202 C 0.60242 0.64877 0.37082 0.0
N203 N 0.7389 0.77101 0.40922 0.0
C204 C 0.76236 0.80621 0.43844 0.0
C205 C 0.66733 0.76234 0.46228 0.0
C206 C 0.69288 0.74799 0.42078 0.0
C207 C 0.69064 0.79985 0.49183 0.0
C208 C 0.73846 0.82163 0.47998 0.0
H209 H 0.56574 0.6296 0.37805 0.0
H210 H 0.56065 0.68353 0.45157 0.0
H211 H 0.59928 0.74957 0.50466 0.0
O212 O 0.82267 0.72998 0.37914 0.0
O213 O 0.72982 0.79109 0.34982 0.0
O214 O 0.77893 0.85816 0.32838 0.0
O215 O 0.76304 0.67403 0.35909 0.0
O216 O 0.84633 0.79523 0.34043 0.0
O217 O 0.83676 0.8617 0.32848 0.0
O218 O 0.76576 0.84143 0.22352 0.0
O219 O 0.86411 0.7829 0.24879 0.0
O220 O 0.81657 0.71599 0.27221 0.0
O221 O 0.82629 0.89827 0.23995 0.0
O222 O 0.74586 0.77702 0.25689 0.0
O223 O 0.76002 0.71322 0.27081 0.0
C224 C 0.74085 0.83626 0.35238 0.0
C225 C 0.83254 0.65492 0.35997 0.0
C226 C 0.88888 0.61861 0.37253 0.0
C227 C 0.89426 0.59839 0.32716 0.0
C228 C 0.83826 0.63447 0.31482 0.0
C229 C 0.8695 0.60689 0.29847 0.0
C230 C 0.85801 0.64712 0.38878 0.0
C231 C 0.85345 0.84021 0.35036 0.0
C232 C 0.80171 0.68599 0.37651 0.0
C233 C 0.59749 0.70134 0.44267 0.0
C234 C 0.61952 0.73894 0.47296 0.0
C235 C 0.85524 0.73824 0.24881 0.0
C236 C 0.7565 0.91695 0.23732 0.0
C237 C 0.70597 0.95596 0.21798 0.0
C238 C 0.70103 0.98011 0.26206 0.0
C239 C 0.75056 0.94072 0.28132 0.0
C240 C 0.73394 0.92439 0.20587 0.0
C241 C 0.72293 0.97217 0.29357 0.0
C242 C 0.7386 0.73205 0.25091 0.0
C243 C 0.78687 0.88508 0.22352 0.0
H244 H 0.91807 0.57641 0.3138 0.0
H245 H 0.81878 0.64006 0.29217 0.0
H246 H 0.87498 0.59262 0.26342 0.0
H247 H 0.85469 0.66411 0.42334 0.0
H248 H 0.68087 1.00564 0.27201 0.0
H249 H 0.76783 0.93543 0.30593 0.0
H250 H 0.73823 0.90564 0.17197 0.0
H251 H 0.71894 0.99084 0.32744 0.0
Eu252 Eu 0.27868 0.82119 0.30308 0.0
C253 C 0.3326 0.62609 0.30792 0.0
N254 N 0.34572 0.67115 0.32728 0.0
C255 C 0.3494 0.64938 0.39473 0.0
C256 C 0.32566 0.59047 0.33159 0.0
C257 C 0.35579 0.68335 0.36964 0.0
C258 C 0.33356 0.60269 0.37584 0.0
C259 C 0.31825 0.56977 0.24078 0.0
C260 C 0.32938 0.61598 0.26346 0.0
C261 C 0.30854 0.53376 0.26453 0.0
C262 C 0.31254 0.54411 0.30987 0.0
Eu263 Eu 0.35013 0.72708 0.2852 0.0
N264 N 0.33999 0.65171 0.24183 0.0
C265 C 0.31834 0.56144 0.19487 0.0
C266 C 0.3435 0.64392 0.19676 0.0
C267 C 0.33184 0.59872 0.17264 0.0
H268 H 0.36812 0.71938 0.38432 0.0
H269 H 0.33281 0.5926 0.13708 0.0
H270 H 0.1625 0.77568 0.30552 0.0
H271 H 0.39148 0.96761 0.22779 0.0
H272 H 0.35356 0.67286 0.17989 0.0
H273 H 0.30891 0.52656 0.17616 0.0
H274 H 0.36771 0.91303 0.28005 0.0
H275 H 0.35671 0.6592 0.42857 0.0
H276 H 0.29911 0.49796 0.24801 0.0
H277 H 0.30649 0.51609 0.32748 0.0
H278 H 0.09826 0.77517 0.26653 0.0
H279 H 0.32891 0.57649 0.39525 0.0
H280 H 0.33659 0.96536 0.17782 0.0
N281 N 0.21582 0.82034 0.26767 0.0
C282 C 0.22573 0.84789 0.23724 0.0
C283 C 0.13413 0.79522 0.25746 0.0
C284 C 0.19052 0.84887 0.21418 0.0
C285 C 0.17042 0.79546 0.27932 0.0
C286 C 0.14439 0.82145 0.22417 0.0
N287 N 0.30148 0.87825 0.25768 0.0
C288 C 0.34385 0.91123 0.25778 0.0
C289 C 0.28167 0.90905 0.20244 0.0
C290 C 0.27029 0.87773 0.23184 0.0
C291 C 0.32631 0.94092 0.20021 0.0
C292 C 0.35732 0.94237 0.22844 0.0
H293 H 0.11622 0.82149 0.20747 0.0
H294 H 0.17565 0.87941 0.16491 0.0
H295 H 0.25583 0.93194 0.15428 0.0
O296 O 0.25254 0.82646 0.37436 0.0
O297 O 0.35277 0.82652 0.2666 0.0
O298 O 0.35112 0.75646 0.22477 0.0
O299 O 0.26657 0.88551 0.34328 0.0
O300 O 0.35021 0.83906 0.32342 0.0
O301 O 0.34644 0.7772 0.35181 0.0
O302 O 0.42177 0.71705 0.269 0.0
O303 O 0.29527 0.72904 0.34733 0.0
O304 O 0.23838 0.75313 0.32714 0.0
O305 O 0.41247 0.78585 0.28683 0.0
O306 O 0.29051 0.70424 0.24148 0.0
O307 O 0.24472 0.757 0.25598 0.0
C308 C 0.3593 0.801 0.22748 0.0
C309 C 0.19246 0.86345 0.38632 0.0
C310 C 0.12444 0.87129 0.36008 0.0
C311 C 0.09442 0.84408 0.3911 0.0
C312 C 0.16221 0.8383 0.41784 0.0
C313 C 0.11332 0.82826 0.41979 0.0
C314 C 0.17321 0.8792 0.35773 0.0
C315 C 0.35633 0.82232 0.35566 0.0
C316 C 0.24297 0.86537 0.37645 0.0
C317 C 0.20206 0.87849 0.18335 0.0
C318 C 0.24767 0.90844 0.17735 0.0
C319 C 0.25179 0.7331 0.35324 0.0
C320 C 0.47731 0.77697 0.23503 0.0
C321 C 0.49994 0.77295 0.15528 0.0
C322 C 0.53816 0.81221 0.16276 0.0
C323 C 0.51563 0.81599 0.24229 0.0
C324 C 0.46922 0.75629 0.1918 0.0
C325 C 0.54579 0.83364 0.20618 0.0
C326 C 0.25403 0.71735 0.23584 0.0
C327 C 0.44253 0.76132 0.27234 0.0
H328 H 0.05624 0.83626 0.39491 0.0
H329 H 0.17634 0.82471 0.43943 0.0
H330 H 0.08992 0.80817 0.44368 0.0
H331 H 0.19652 0.89688 0.33229 0.0
H332 H 0.5632 0.82485 0.13514 0.0
H333 H 0.52169 0.83315 0.27576 0.0
H334 H 0.44002 0.72558 0.18675 0.0
H335 H 0.57572 0.86329 0.2118 0.0
Eu336 Eu 0.2656 0.83293 0.79752 0.0
C337 C 0.40948 0.73675 0.69335 0.0
N338 N 0.3625 0.7164 0.70359 0.0
C339 C 0.35807 0.68056 0.6275 0.0
C340 C 0.43217 0.7313 0.64896 0.0
C341 C 0.33693 0.68731 0.67193 0.0
C342 C 0.40576 0.70302 0.61589 0.0
C343 C 0.48309 0.78587 0.71742 0.0
C344 C 0.43441 0.76425 0.72733 0.0
C345 C 0.50564 0.78139 0.67313 0.0
C346 C 0.48024 0.75422 0.63899 0.0
Eu347 Eu 0.32953 0.73044 0.77895 0.0
N348 N 0.41148 0.76911 0.76997 0.0
C349 C 0.50797 0.81079 0.75239 0.0
C350 C 0.43652 0.79058 0.80433 0.0
C351 C 0.48482 0.81263 0.79608 0.0
H352 H 0.3 0.67018 0.68104 0.0
H353 H 0.50432 0.83033 0.82342 0.0
H354 H 0.32912 0.92688 0.8588 0.0
H355 H 0.07453 0.75604 0.81761 0.0
H356 H 0.42006 0.78963 0.83825 0.0
H357 H 0.54531 0.82735 0.74583 0.0
H358 H 0.15682 0.77029 0.77779 0.0
H359 H 0.33758 0.65821 0.60223 0.0
H360 H 0.5429 0.79837 0.66499 0.0
H361 H 0.49823 0.7508 0.60502 0.0
H362 H 0.31885 0.97604 0.93239 0.0
H363 H 0.42195 0.69797 0.58138 0.0
H364 H 0.05735 0.79973 0.89353 0.0
N365 N 0.25803 0.88498 0.86547 0.0
C366 C 0.21415 0.87906 0.88983 0.0
C367 C 0.28905 0.94888 0.92101 0.0
C368 C 0.20618 0.90736 0.93158 0.0
C369 C 0.29499 0.92035 0.87959 0.0
C370 C 0.24452 0.94213 0.94735 0.0
N371 N 0.18564 0.81989 0.83146 0.0
C372 C 0.14947 0.78935 0.81094 0.0
C373 C 0.13041 0.83921 0.89593 0.0
C374 C 0.17675 0.84566 0.87222 0.0
C375 C 0.09343 0.80598 0.87625 0.0
C376 C 0.10296 0.78127 0.83337 0.0
H377 H 0.23985 0.96435 0.97941 0.0
H378 H 0.15349 0.92173 0.98813 0.0
H379 H 0.08714 0.86184 0.95699 0.0
O380 O 0.25226 0.84372 0.73491 0.0
O381 O 0.22479 0.77526 0.83663 0.0
O382 O 0.27719 0.73507 0.84259 0.0
O383 O 0.26978 0.90173 0.78816 0.0
O384 O 0.24441 0.77017 0.74291 0.0
O385 O 0.25504 0.70613 0.76223 0.0
O386 O 0.36805 0.69205 0.80167 0.0
O387 O 0.3342 0.77183 0.72584 0.0
O388 O 0.34232 0.84068 0.77118 0.0
O389 O 0.30833 0.65466 0.76563 0.0
O390 O 0.33671 0.7821 0.84413 0.0
O391 O 0.33514 0.84874 0.82444 0.0
C392 C 0.23681 0.74669 0.85465 0.0
C393 C 0.22403 0.90918 0.73896 0.0
C394 C 0.19978 0.9443 0.68844 0.0
C395 C 0.16539 0.95755 0.72305 0.0
C396 C 0.18879 0.92196 0.77273 0.0
C397 C 0.15978 0.94615 0.76473 0.0
C398 C 0.22907 0.91989 0.6966 0.0
C399 C 0.23391 0.72514 0.74165 0.0
C400 C 0.25798 0.88807 0.74857 0.0
C401 C 0.16025 0.90049 0.95586 0.0
C402 C 0.12246 0.86643 0.93811 0.0
C403 C 0.35273 0.81643 0.73249 0.0
C404 C 0.3484 0.60805 0.78849 0.0
C405 C 0.37391 0.5619 0.82712 0.0
C406 C 0.36223 0.52354 0.79316 0.0
C407 C 0.33653 0.56924 0.75505 0.0
C408 C 0.3678 0.60449 0.82428 0.0
C409 C 0.34426 0.52746 0.75706 0.0
C410 C 0.34475 0.82743 0.85175 0.0
C411 C 0.34162 0.65227 0.78511 0.0
H412 H 0.14212 0.97596 0.71752 0.0
H413 H 0.18425 0.91397 0.80549 0.0
H414 H 0.1329 0.9562 0.79099 0.0
H415 H 0.25615 0.91002 0.67036 0.0
H416 H 0.36776 0.49074 0.79426 0.0
H417 H 0.32216 0.57144 0.72691 0.0
H418 H 0.37752 0.63443 0.85008 0.0
H419 H 0.33624 0.49803 0.73053 0.0
Eu420 Eu 0.26651 0.22481 0.83161 0.0
C421 C 0.42215 0.36906 0.72425 0.0
N422 N 0.39279 0.37794 0.76292 0.0
C423 C 0.45479 0.44112 0.79149 0.0
C424 C 0.46966 0.3956 0.71828 0.0
C425 C 0.40792 0.41408 0.79591 0.0
C426 C 0.48592 0.43159 0.75271 0.0
C427 C 0.43367 0.32529 0.64907 0.0
C428 C 0.40437 0.33423 0.68982 0.0
C429 C 0.48127 0.35104 0.64351 0.0
C430 C 0.4992 0.38603 0.67798 0.0
Eu431 Eu 0.31461 0.33057 0.76532 0.0
N432 N 0.35842 0.3089 0.69627 0.0
C433 C 0.41409 0.29095 0.61494 0.0
C434 C 0.33842 0.27709 0.66257 0.0
C435 C 0.36618 0.26705 0.62159 0.0
H436 H 0.38372 0.42295 0.82531 0.0
H437 H 0.35059 0.24112 0.59511 0.0
H438 H 0.1921 0.13562 0.77235 0.0
H439 H 0.23939 0.29924 1.00664 0.0
H440 H 0.30127 0.25925 0.6676 0.0
H441 H 0.43546 0.28323 0.58312 0.0
H442 H 0.28547 0.28139 0.93193 0.0
H443 H 0.46669 0.46964 0.81778 0.0
H444 H 0.50441 0.34446 0.61249 0.0
H445 H 0.53587 0.40593 0.67292 0.0
H446 H 0.1066 0.09756 0.77808 0.0
H447 H 0.52216 0.45282 0.7493 0.0
H448 H 0.15239 0.26771 1.0177 0.0
N449 N 0.18616 0.18145 0.83452 0.0
C450 C 0.15751 0.19159 0.87327 0.0
C451 C 0.12036 0.12434 0.80489 0.0
C452 C 0.10865 0.16921 0.8788 0.0
C453 C 0.16876 0.14676 0.80134 0.0
C454 C 0.09002 0.1361 0.84353 0.0
N455 N 0.2247 0.24387 0.90217 0.0
C456 C 0.24739 0.2692 0.93691 0.0
C457 C 0.14975 0.23164 0.95 0.0
C458 C 0.17754 0.2228 0.90842 0.0
C459 C 0.17235 0.26042 0.9853 0.0
C460 C 0.22152 0.27843 0.97907 0.0
H461 H 0.05261 0.11833 0.84634 0.0
H462 H 0.04261 0.16295 0.92444 0.0
H463 H 0.07875 0.21724 0.98695 0.0
O464 O 0.31284 0.21246 0.87002 0.0
O465 O 0.22677 0.28252 0.85392 0.0
O466 O 0.26959 0.35156 0.83025 0.0
O467 O 0.25731 0.15545 0.84325 0.0
O468 O 0.3368 0.27816 0.83626 0.0
O469 O 0.33017 0.34916 0.83659 0.0
O470 O 0.26903 0.34252 0.72542 0.0
O471 O 0.35743 0.27523 0.74685 0.0
O472 O 0.30763 0.2057 0.76343 0.0
O473 O 0.32662 0.3985 0.7491 0.0
O474 O 0.24407 0.27671 0.75758 0.0
O475 O 0.25097 0.20638 0.76146 0.0
C476 C 0.23301 0.32687 0.85358 0.0
C477 C 0.32729 0.13907 0.85054 0.0
C478 C 0.37888 0.10249 0.87182 0.0
C479 C 0.39046 0.08327 0.8269 0.0
C480 C 0.33905 0.11955 0.80592 0.0
C481 C 0.37076 0.092 0.79417 0.0
C482 C 0.34795 0.13125 0.88316 0.0
C483 C 0.34176 0.32131 0.85562 0.0
C484 C 0.2939 0.16794 0.86398 0.0
C485 C 0.08027 0.1796 0.91967 0.0
C486 C 0.10083 0.21054 0.95527 0.0
C487 C 0.34642 0.22953 0.74165 0.0
C488 C 0.25827 0.41803 0.74254 0.0
C489 C 0.20413 0.45413 0.7244 0.0
C490 C 0.20314 0.48154 0.7672 0.0
C491 C 0.25489 0.44429 0.78577 0.0
C492 C 0.23255 0.42285 0.71185 0.0
C493 C 0.22816 0.47644 0.79766 0.0
C494 C 0.23748 0.23232 0.74184 0.0
C495 C 0.28951 0.38666 0.72924 0.0
H496 H 0.41403 0.06084 0.8172 0.0
H497 H 0.3236 0.1255 0.78035 0.0
H498 H 0.37966 0.07694 0.75967 0.0
H499 H 0.33974 0.14756 0.91744 0.0
H500 H 0.18195 0.5062 0.77743 0.0
H501 H 0.27372 0.44069 0.81013 0.0
H502 H 0.23388 0.40179 0.67883 0.0
H503 H 0.22645 0.49714 0.83077 0.0
Eu504 Eu 0.73665 0.3242 0.80313 0.0
C505 C 0.76833 0.15054 0.83602 0.0
N506 N 0.78626 0.19531 0.85469 0.0
C507 C 0.77154 0.17407 0.92639 0.0
C508 C 0.74789 0.11634 0.8627 0.0
C509 C 0.79197 0.20644 0.89856 0.0
C510 C 0.74809 0.1291 0.90858 0.0
C511 C 0.76255 0.09068 0.7699 0.0
C512 C 0.77623 0.13779 0.79008 0.0
C513 C 0.73973 0.05706 0.79639 0.0
C514 C 0.7319 0.06989 0.84263 0.0
Eu515 Eu 0.8214 0.24809 0.80514 0.0
N516 N 0.80229 0.17045 0.76562 0.0
C517 C 0.77485 0.07832 0.72392 0.0
C518 C 0.81872 0.15766 0.72155 0.0
C519 C 0.80358 0.11191 0.69971 0.0
H520 H 0.811 0.24102 0.91242 0.0
H521 H 0.81493 0.10241 0.66445 0.0
H522 H 0.65475 0.25992 0.73892 0.0
H523 H 0.85851 0.49512 0.7943 0.0
H524 H 0.84196 0.18343 0.70292 0.0
H525 H 0.76433 0.04262 0.70719 0.0
H526 H 0.82268 0.42307 0.82367 0.0
H527 H 0.77428 0.18375 0.96144 0.0
H528 H 0.73022 1.0207 0.78157 0.0
H529 H 0.71606 0.04326 0.86262 0.0
H530 H 0.62225 0.26582 0.67512 0.0
H531 H 0.7331 0.10378 0.93004 0.0
H532 H 0.82886 0.50781 0.73155 0.0
N533 N 0.70492 0.32557 0.74093 0.0
C534 C 0.7215 0.36527 0.72432 0.0
C535 C 0.65035 0.29394 0.68843 0.0
C536 C 0.70279 0.37087 0.68887 0.0
C537 C 0.66949 0.29027 0.72399 0.0
C538 C 0.66701 0.33446 0.67081 0.0
N539 N 0.77496 0.39376 0.77657 0.0
C540 C 0.81019 0.42745 0.79563 0.0
C541 C 0.77636 0.44154 0.72534 0.0
C542 C 0.75762 0.40032 0.74254 0.0
C543 C 0.81338 0.47573 0.74396 0.0
C544 C 0.8303 0.46865 0.7793 0.0
H545 H 0.65189 0.33735 0.64343 0.0
H546 H 0.70673 0.41724 0.64512 0.0
H547 H 0.77145 0.47873 0.67664 0.0
O548 O 0.71221 0.37114 0.85986 0.0
O549 O 0.79872 0.32851 0.74569 0.0
O550 O 0.85065 0.2846 0.74578 0.0
O551 O 0.66218 0.32556 0.81718 0.0
O552 O 0.78568 0.35053 0.85675 0.0
O553 O 0.84797 0.32595 0.81566 0.0
O554 O 0.88279 0.2207 0.79182 0.0
O555 O 0.76698 0.26494 0.86539 0.0
O556 O 0.70604 0.25834 0.83134 0.0
O557 O 0.8766 0.27641 0.84761 0.0
O558 O 0.78055 0.22665 0.74478 0.0
O559 O 0.71369 0.24784 0.77885 0.0
C560 C 0.8368 0.31309 0.72873 0.0
C561 C 0.64154 0.32693 0.89464 0.0
C562 C 0.63317 0.32965 0.97445 0.0
C563 C 0.59907 0.28671 0.97021 0.0
C564 C 0.60774 0.28376 0.89054 0.0
C565 C 0.58715 0.26353 0.92821 0.0
C566 C 0.65512 0.34773 0.93579 0.0
C567 C 0.83084 0.35163 0.85075 0.0
C568 C 0.6678 0.34951 0.8567 0.0
C569 C 0.72067 0.41229 0.67231 0.0
C570 C 0.75756 0.44736 0.69029 0.0
C571 C 0.72137 0.25308 0.8652 0.0
C572 C 0.95226 0.2636 0.82135 0.0
C573 C 1.01334 0.22467 0.79688 0.0
C574 C 1.04162 0.26179 0.77572 0.0
C575 C 0.978 0.29925 0.79819 0.0
C576 C 0.97443 0.23244 0.82781 0.0
C577 C 1.02444 0.29995 0.77794 0.0
C578 C 0.73598 0.22483 0.74521 0.0
C579 C 0.901 0.24768 0.82611 0.0
H580 H 0.58048 0.27223 0.99935 0.0
H581 H 0.59781 0.26546 0.85851 0.0
H582 H 0.5611 0.2303 0.92499 0.0
H583 H 0.68166 0.38036 0.9374 0.0
H584 H 0.07374 0.25901 0.75306 0.0
H585 H 0.96146 0.32417 0.7934 0.0
H586 H 0.95453 0.20636 0.84754 0.0
H587 H 0.0447 0.32685 0.75937 0.0
Eu588 Eu 0.74383 0.76239 0.75062 0.0
C589 C 0.87445 0.89885 0.89099 0.0
N590 N 0.88707 0.8746 0.85027 0.0
C591 C 0.95303 0.93893 0.83515 0.0
C592 C 0.9005 0.94469 0.90512 0.0
C593 C 0.92644 0.89342 0.82279 0.0
C594 C 0.93982 0.96483 0.87635 0.0
C595 C 0.82287 0.90107 0.96213 0.0
C596 C 0.83608 0.87736 0.9192 0.0
C597 C 0.84833 0.94694 0.97606 0.0
C598 C 0.88699 0.96871 0.94761 0.0
Eu599 Eu 0.83925 0.79838 0.83243 0.0
N600 N 0.81165 0.83316 0.90463 0.0
C601 C 0.78465 0.87781 0.98988 0.0
C602 C 0.77596 0.80957 0.9322 0.0
C603 C 0.76139 0.8317 0.97498 0.0
H604 H 0.938 0.87317 0.7916 0.0
H605 H 0.73246 0.81312 0.9965 0.0
H606 H 0.6433 0.68732 0.78843 0.0
H607 H 0.85996 0.74793 0.59165 0.0
H608 H 0.7587 0.77382 0.92111 0.0
H609 H 0.77333 0.89487 1.02307 0.0
H610 H 0.83041 0.78717 0.66605 0.0
H611 H 0.984 0.95383 0.8131 0.0
H612 H 0.83857 0.96581 1.00885 0.0
H613 H 0.90648 1.00401 0.95895 0.0
H614 H 0.59836 0.6066 0.76537 0.0
H615 H 0.9607 0.99999 0.88596 0.0
H616 H 0.81951 0.66645 0.56359 0.0
N617 N 0.69672 0.68634 0.73169 0.0
C618 C 0.7113 0.66236 0.69143 0.0
C619 C 0.63027 0.62172 0.74446 0.0
C620 C 0.686 0.61646 0.67647 0.0
C621 C 0.65623 0.66726 0.75775 0.0
C622 C 0.64539 0.59608 0.70381 0.0
N623 N 0.77561 0.72796 0.68017 0.0
C624 C 0.81307 0.75156 0.65409 0.0
C625 C 0.76663 0.66029 0.6224 0.0
C626 C 0.75128 0.68397 0.66464 0.0
C627 C 0.80657 0.6835 0.59621 0.0
C628 C 0.8296 0.72947 0.61198 0.0
H629 H 0.62503 0.56086 0.69351 0.0
H630 H 0.68273 0.5572 0.62272 0.0
H631 H 0.75314 0.59557 0.5754 0.0
O632 O 0.73978 0.81166 0.7128 0.0
O633 O 0.79952 0.71993 0.73647 0.0
O634 O 0.86746 0.76863 0.76171 0.0
O635 O 0.67718 0.75763 0.72983 0.0
O636 O 0.79551 0.83383 0.75782 0.0
O637 O 0.86399 0.82276 0.76763 0.0
O638 O 0.84728 0.74526 0.86343 0.0
O639 O 0.78261 0.8396 0.85045 0.0
O640 O 0.71519 0.79597 0.81976 0.0
O641 O 0.90802 0.80149 0.84706 0.0
O642 O 0.78321 0.7296 0.82751 0.0
O643 O 0.71455 0.73897 0.81627 0.0
C644 C 0.84592 0.73101 0.73617 0.0
C645 C 0.66762 0.83129 0.73199 0.0
C646 C 0.6434 0.89648 0.7219 0.0
C647 C 0.61997 0.90034 0.76611 0.0
C648 C 0.64452 0.83615 0.77606 0.0
C649 C 0.62119 0.87079 0.79307 0.0
C650 C 0.66752 0.86181 0.70523 0.0
C651 C 0.8416 0.84265 0.74979 0.0
C652 C 0.69398 0.79612 0.71451 0.0
C653 C 0.70163 0.59255 0.63465 0.0
C654 C 0.74172 0.61442 0.60766 0.0
C655 C 0.73703 0.83104 0.84785 0.0
C656 C 0.90791 0.76907 0.90788 0.0
C657 C 0.93341 0.73301 0.95587 0.0
C658 C 0.94372 0.77547 0.98527 0.0
C659 C 0.91701 0.81121 0.93808 0.0
C660 C 0.9158 0.72997 0.91706 0.0
C661 C 0.93501 0.81431 0.97662 0.0
C662 C 0.73747 0.72406 0.83858 0.0
C663 C 0.89197 0.76528 0.86585 0.0
H664 H 0.59894 0.92486 0.77954 0.0
H665 H 0.64416 0.81298 0.79725 0.0
H666 H 0.60287 0.87394 0.82688 0.0
H667 H 0.68626 0.85851 0.67152 0.0
H668 H 0.95901 0.77865 1.01451 0.0
H669 H 0.91109 0.84178 0.93154 0.0
H670 H 0.90843 0.69726 0.89401 0.0
H671 H 0.94271 0.84694 0.99956 0.0
Fe672 Fe 0.04442 0.14282 0.55751 0.0
O673 O 1.03683 0.07593 0.53473 0.0
Fe674 Fe 0.09643 0.05154 0.53022 0.0
Fe675 Fe 0.98741 1.02705 0.56354 0.0
O676 O 0.04215 0.07794 0.53508 0.0
O677 O 0.04712 1.00302 0.56013 0.0
O678 O 1.04152 1.00084 0.55954 0.0
Fe679 Fe 1.03505 0.93534 0.5367 0.0
C680 C 1.0041 0.10383 0.64156 0.0
O681 O 0.98193 0.12643 0.5332 0.0
O682 O 0.93673 0.06168 0.56178 0.0
O683 O 0.06718 0.94256 0.47314 0.0
O684 O 0.08082 1.01675 0.46923 0.0
O685 O 0.13956 0.10506 0.49656 0.0
O686 O 0.08863 0.14918 0.49901 0.0
O687 O 0.97084 0.98936 0.50235 0.0
O688 O 0.97082 0.92321 0.51725 0.0
C689 C 0.12636 0.13499 0.48205 0.0
O690 O 0.1004 0.94773 0.55374 0.0
O691 O 0.14666 1.01529 0.53054 0.0
O692 O 1.00564 0.13387 0.61912 0.0
O693 O 1.00212 0.06217 0.62449 0.0
C694 C 0.94276 0.09494 0.54018 0.0
C695 C 0.95869 0.94542 0.49463 0.0
C696 C 0.95718 0.94385 0.61293 0.0
O697 O 0.94411 0.97307 0.5971 0.0
O698 O 0.99595 0.93096 0.59761 0.0
C699 C 0.07218 0.97446 0.45171 0.0
O700 O 0.11495 0.0908 0.59039 0.0
O701 O 0.10543 0.15759 0.58388 0.0
C702 C 0.14054 0.97781 0.54633 0.0
C703 C 0.12426 0.1349 0.60036 0.0
Fe704 Fe 0.53853 0.97484 1.03841 0.0
O705 O 0.5775 0.03239 1.01556 0.0
Fe706 Fe 0.43075 1.00185 0.08192 0.0
Fe707 Fe 0.64713 0.05367 1.01085 0.0
O708 O 0.5 1.0173 0.07576 0.0
O709 O 0.50045 1.02269 0.07772 0.0
O710 O 0.57803 0.03762 1.01758 0.0
Fe711 Fe 0.53938 0.08003 0.05427 0.0
C712 C 0.62262 0.99667 0.08502 0.0
O713 O 0.58744 0.9385 0.99514 0.0
O714 O 0.64211 0.99571 0.96156 0.0
O715 O 0.50005 0.06428 1.00353 0.0
O716 O 0.42752 0.0434 1.04074 0.0
O717 O 0.42629 0.9471 1.02897 0.0
O718 O 0.49777 0.95689 0.98759 0.0
O719 O 0.64134 0.0989 0.97491 0.0
O720 O 0.58598 0.13378 1.02188 0.0
C721 C 0.45292 0.93992 0.99209 0.0
O722 O 0.49073 0.11656 0.09648 0.0
O723 O 0.43544 0.06043 0.13106 0.0
O724 O 0.57809 0.98996 0.08861 0.0
O725 O 0.65117 1.01231 0.05238 0.0
C726 C 0.62451 0.95283 0.96593 0.0
C727 C 0.6199 0.13164 0.98803 0.0
C728 C 0.62535 0.11557 0.1006 0.0
O729 O 0.65181 0.10872 0.06358 0.0
O730 O 0.5804 0.09877 0.10516 0.0
C731 C 0.45554 0.05804 1.00755 0.0
O732 O 0.43504 0.95548 0.11744 0.0
O733 O 0.49098 0.92093 0.07074 0.0
C734 C 0.45351 0.10311 0.12572 0.0
C735 C 0.45567 0.92212 0.10358 0.0
Fe736 Fe 0.04903 0.58713 0.05225 0.0
O737 O 1.0048 0.53161 0.07556 0.0
Fe738 Fe 0.14926 0.54645 1.00487 0.0
Fe739 Fe 0.9349 0.51807 0.08095 0.0
O740 O 0.08081 0.53927 1.01361 0.0
O741 O 0.07942 0.53329 1.01087 0.0
O742 O 1.00314 0.52585 0.07244 0.0
Fe743 Fe 1.03566 0.47833 1.03526 0.0
C744 C 0.96805 0.6168 0.12809 0.0
O745 O 1.00839 0.57675 1.00377 0.0
O746 O 0.93687 0.56539 1.04356 0.0
O747 O 0.07878 0.43611 0.99256 0.0
O748 O 0.13785 0.48758 0.95533 0.0
O749 O 0.14896 0.59492 0.9701 0.0
O750 O 0.09993 0.63736 1.01722 0.0
O751 O 0.92382 0.46546 1.02661 0.0
O752 O 0.99355 0.46237 0.98502 0.0
C753 C 0.1312 0.63037 0.98172 0.0
O754 O 0.07601 0.49103 0.08453 0.0
O755 O 0.14751 0.50132 0.04455 0.0
O756 O 1.00532 0.62887 0.09794 0.0
O757 O 0.94686 0.57415 0.13177 0.0
C758 C 0.96666 0.58157 1.01199 0.0
C759 C 0.94824 0.45211 0.99011 0.0
C760 C 0.95285 0.43382 0.10356 0.0
O761 O 0.93406 0.46841 0.11438 0.0
O762 O 0.98566 0.42782 0.06954 0.0
C763 C 0.11497 0.44579 0.96125 0.0
O764 O 0.16101 0.60077 0.05806 0.0
O765 O 0.09191 0.60085 0.10156 0.0
C766 C 0.11803 0.48702 0.07719 0.0
C767 C 0.13729 0.61101 0.09603 0.0
Fe768 Fe 0.56702 0.49972 0.93725 0.0
O769 O 0.55712 0.51901 1.00372 0.0
Fe770 Fe 0.48493 0.50158 1.03461 0.0
Fe771 Fe 0.61155 0.55659 1.03879 0.0
O772 O 0.55075 0.51989 1.00074 0.0
O773 O 0.52066 0.50246 0.07967 0.0
O774 O 0.56538 0.58729 0.08399 0.0
Fe775 Fe 0.52356 0.55405 0.13105 0.0
C776 C 0.64485 0.48376 0.97485 0.0
O777 O 0.61752 0.56177 0.93263 0.0
O778 O 0.6248 0.60664 1.00082 0.0
O779 O 0.47805 0.58798 0.12154 0.0
O780 O 0.48871 0.57066 0.04942 0.0
O781 O 0.45142 0.50409 0.98321 0.0
O782 O 0.51498 0.52813 0.93146 0.0
O783 O 0.66115 0.59599 0.07755 0.0
O784 O 0.59076 0.60446 0.11011 0.0
C785 C 0.47089 0.52244 0.94831 0.0
O786 O 0.46362 0.50508 0.14941 0.0
O787 O 0.42687 0.48225 0.08616 0.0
O788 O 0.616 0.46941 0.94652 0.0
O789 O 0.65749 0.52642 0.99226 0.0
C790 C 0.63144 0.60058 0.95829 0.0
C791 C 0.63588 0.60993 0.11335 0.0
C792 C 0.59931 0.50585 0.11777 0.0
O793 O 0.60569 0.50608 0.07603 0.0
O794 O 0.56926 0.52408 0.1454 0.0
C795 C 0.47731 0.59694 0.0845 0.0
O796 O 0.4787 0.43236 1.00904 0.0
O797 O 0.51534 0.43846 0.93944 0.0
C798 C 0.42948 0.48017 0.12726 0.0
C799 C 0.48446 0.41633 0.96712 0.0
Fe800 Fe 1.04064 0.4764 0.54069 0.0
O801 O 1.00793 0.52343 0.5793 0.0
Fe802 Fe 0.08966 0.52802 0.44735 0.0
Fe803 Fe 0.99528 0.53186 0.64439 0.0
O804 O 0.078 0.53062 0.51186 0.0
O805 O 0.07812 0.53609 0.51255 0.0
O806 O 1.00816 0.52891 0.58004 0.0
Fe807 Fe 0.04552 0.58313 0.55132 0.0
C808 C 0.95827 0.42951 0.60947 0.0
O809 O 0.09034 0.49177 0.58297 0.0
O810 O 1.04131 0.49537 0.64713 0.0
O811 O 0.09115 0.63288 0.5126 0.0
O812 O 0.13775 0.59093 0.46135 0.0
O813 O 0.13077 0.48588 0.449 0.0
O814 O 0.08257 0.4352 0.49401 0.0
O815 O 0.04827 0.59208 0.65751 0.0
O816 O 0.09559 0.60229 0.59324 0.0
C817 C 0.11944 0.44762 0.46397 0.0
O818 O 0.99594 0.56726 0.50991 0.0
O819 O 0.04469 0.566 0.44571 0.0
O820 O 0.99499 0.42654 0.57868 0.0
O821 O 0.94795 0.46788 0.63022 0.0
C822 C 0.07965 0.48834 0.62388 0.0
C823 C 0.08835 0.60862 0.6355 0.0
C824 C 0.96551 0.61203 0.6269 0.0
O825 O 0.95356 0.57347 0.64161 0.0
O826 O 1.0032 0.62445 0.59762 0.0
C827 C 0.12734 0.62939 0.48116 0.0
O828 O 1.03581 0.46849 0.4341 0.0
O829 O 0.99011 0.45705 0.49881 0.0
C830 C 1.00671 0.57284 0.4698 0.0
C831 C 0.99649 0.45095 0.45655 0.0
Fe832 Fe 0.54261 0.98073 0.54176 0.0
O833 O 0.51042 1.02819 0.58045 0.0
Fe834 Fe 0.58626 1.02684 0.44617 0.0
Fe835 Fe 0.50208 0.0397 0.64563 0.0
O836 O 0.57723 0.03323 0.51056 0.0
O837 O 0.57733 0.03841 0.51127 0.0
O838 O 0.51025 0.03371 0.58103 0.0
Fe839 Fe 0.54747 0.08701 0.55123 0.0
C840 C 0.4663 0.93634 0.61486 0.0
O841 O 0.59493 0.99815 0.58047 0.0
O842 O 0.55068 1.00592 0.6472 0.0
O843 O 0.5912 0.13511 0.51206 0.0
O844 O 0.63327 0.09108 0.4577 0.0
O845 O 0.63003 0.98778 0.44862 0.0
O846 O 0.5834 0.93841 0.49522 0.0
O847 O 0.55358 0.10139 0.65444 0.0
O848 O 0.60097 0.10392 0.5902 0.0
C849 C 0.61979 0.95031 0.46467 0.0
O850 O 0.49606 0.07444 0.51158 0.0
O851 O 0.53833 0.06131 0.44425 0.0
O852 O 0.50086 0.93271 0.58211 0.0
O853 O 0.45575 0.97469 0.63527 0.0
C854 C 0.58745 0.99774 0.6218 0.0
C855 C 0.59484 0.11269 0.63245 0.0
C856 C 0.47025 0.11761 0.62872 0.0
O857 O 0.45857 0.0791 0.64344 0.0
O858 O 0.50769 0.12992 0.59913 0.0
C859 C 0.62469 0.13011 0.4786 0.0
O860 O 0.534 0.96508 0.43663 0.0
O861 O 0.48983 0.95964 0.503 0.0
C862 C 0.50373 0.07397 0.46985 0.0
C863 C 0.4955 0.94888 0.46093 0.0
C864 C 0.23059 0.17814 0.39479 0.0
C865 C 0.21065 0.2004 0.37212 0.0
C866 C 0.20321 0.15576 0.42976 0.0
C867 C 0.155 0.15478 0.44299 0.0
H868 H 0.26764 0.17853 0.38597 0.0
H869 H 0.22015 0.1401 0.44708 0.0
S870 S 0.08483 0.20526 0.39266 0.0
N871 N 0.13915 0.21954 0.36606 0.0
N872 N 0.08765 0.17464 0.42793 0.0
C873 C 0.13437 0.17524 0.41925 0.0
C874 C 0.1622 0.19886 0.38491 0.0
C875 C 0.84036 0.11706 0.50318 0.0
C876 C 0.85253 0.10836 0.45649 0.0
C877 C 0.86753 0.10949 0.53099 0.0
C878 C 0.90728 0.09239 0.51285 0.0
H879 H 0.81078 0.13155 0.5183 0.0
H880 H 0.85877 0.11911 0.56666 0.0
S881 S 0.95172 0.06005 0.39315 0.0
N882 N 0.90495 0.07813 0.39377 0.0
N883 N 0.95645 0.06517 0.44576 0.0
C884 C 0.91863 0.08185 0.46637 0.0
C885 C 0.89115 0.08945 0.43823 0.0
C886 C 0.88399 0.91436 0.40206 0.0
C887 C 0.88176 0.86716 0.386 0.0
C888 C 0.9081 0.93955 0.43776 0.0
C889 C 0.93047 0.91834 0.45892 0.0
H890 H 0.86684 0.93208 0.3872 0.0
H891 H 0.9089 0.97568 0.44899 0.0
S892 S 0.93818 0.79624 0.42735 0.0
N893 N 0.90715 0.80126 0.39207 0.0
N894 N 0.94984 0.84724 0.46023 0.0
C895 C 0.92805 0.8709 0.44335 0.0
C896 C 0.90481 0.84583 0.40636 0.0
C897 C 0.05753 0.8932 0.3469 0.0
C898 C 0.10656 0.89857 0.33637 0.0
C899 C 0.04234 0.92297 0.38469 0.0
C900 C 0.07545 0.96215 0.40352 0.0
H901 H 1.03329 0.85985 0.33708 0.0
H902 H 1.00736 0.91209 0.40203 0.0
S903 S 0.19311 1.01349 0.3444 0.0
N904 N 0.17602 0.96046 0.31572 0.0
N905 N 0.14988 1.01924 0.38622 0.0
C906 C 0.11867 0.97725 0.37693 0.0
C907 C 0.13278 0.94546 0.33956 0.0
C908 C 0.20718 0.99976 0.63872 0.0
C909 C 0.20234 0.95428 0.64369 0.0
C910 C 0.19677 1.00861 0.60044 0.0
C911 C 0.17784 0.97221 0.56748 0.0
H912 H 0.21539 1.02827 0.66607 0.0
H913 H 0.19775 0.04346 0.59916 0.0
S914 S 0.167 0.84779 0.56062 0.0
N915 N 0.18603 0.87323 0.60853 0.0
N916 N 0.16324 0.8897 0.53819 0.0
C917 C 0.1786 0.92724 0.5695 0.0
C918 C 0.19088 0.91827 0.60763 0.0
C919 C 0.20679 0.16253 0.6859 0.0
C920 C 0.20948 0.20926 0.70496 0.0
C921 C 0.17981 0.13912 0.65194 0.0
C922 C 0.15571 0.16159 0.63414 0.0
H923 H 0.22512 0.14335 0.69762 0.0
H924 H 0.17684 0.10281 0.64046 0.0
S925 S 0.14987 0.28392 0.67324 0.0
N926 N 0.18369 0.27679 0.70486 0.0
N927 N 0.1355 0.23389 0.63922 0.0
C928 C 0.15856 0.20873 0.65252 0.0
C929 C 0.1849 0.23223 0.68817 0.0
C930 C 0.05201 0.16696 0.74585 0.0
C931 C 1.01087 0.1763 0.77263 0.0
C932 C 0.04899 0.13774 0.70453 0.0
C933 C 1.00548 0.11822 0.689 0.0
H934 H 0.08673 0.18653 0.75415 0.0
H935 H 0.08076 0.1327 0.68369 0.0
S936 S 0.88783 0.10601 0.757 0.0
N937 N 0.92462 0.14357 0.78919 0.0
N938 N 0.92077 0.09227 0.7093 0.0
C939 C 0.96425 0.11785 0.71906 0.0
C940 C 0.96671 0.14591 0.76194 0.0
C941 C 0.91574 0.86825 0.69971 0.0
C942 C 0.8695 0.87165 0.71697 0.0
C943 C 0.94332 0.8925 0.66708 0.0
C944 C 0.92612 0.92132 0.64952 0.0
H945 H 0.9309 0.84574 0.71064 0.0
H946 H 0.97854 0.88774 0.6553 0.0
S947 S 0.80782 0.94462 0.6854 0.0
N948 N 0.80788 0.90783 0.71607 0.0
N949 N 0.86002 0.9535 0.65345 0.0
C950 C 0.88011 0.92608 0.66708 0.0
C951 C 0.85173 0.90115 0.70094 0.0
C952 C 0.42107 0.21505 0.19102 0.0
C953 C 0.37156 0.2 0.20446 0.0
C954 C 0.44759 0.18424 0.16521 0.0
C955 C 0.42586 0.13683 0.15206 0.0
H956 H 0.43967 0.25104 0.20057 0.0
H957 H 0.48545 0.19753 0.15619 0.0
S958 S 0.29683 0.07997 0.1759 0.0
N959 N 0.3021 0.13427 0.20099 0.0
N960 N 0.35084 0.07722 0.15228 0.0
C961 C 0.37619 0.1217 0.16439 0.0
C962 C 0.34939 0.15294 0.19049 0.0
C963 C 0.89471 0.32701 0.15658 0.0
C964 C 0.88659 0.34758 0.20182 0.0
C965 C 0.91962 0.35416 0.12405 0.0
C966 C 0.9372 0.40243 0.13615 0.0
H967 H 0.87934 0.29037 0.14597 0.0
H968 H 0.92242 0.33786 0.08933 0.0
S969 S 0.9333 0.4714 0.2504 0.0
N970 N 0.90438 0.41809 0.25689 0.0
N971 N 0.95023 0.46837 0.19653 0.0
C972 C 0.93242 0.42239 0.18146 0.0
C973 C 0.90748 0.39517 0.21412 0.0
C974 C 0.70992 0.97324 0.14303 0.0
C975 C 0.68327 0.96467 0.18425 0.0
C976 C 0.68989 0.9833 0.11124 0.0
C977 C 0.64224 0.98484 0.11922 0.0
H978 H 0.74691 0.97315 0.13558 0.0
H979 H 0.71217 0.99002 0.08019 0.0
S980 S 0.55716 0.96402 0.22212 0.0
N981 N 0.60676 0.95741 0.2313 0.0
N982 N 0.56878 0.97626 0.17175 0.0
C983 C 0.61491 0.97535 0.16012 0.0
C984 C 0.63553 0.96545 0.1926 0.0
C985 C 0.24338 0.6708 0.15923 0.0
C986 C 0.22302 0.68728 0.20234 0.0
C987 C 0.21534 0.64633 0.1258 0.0
C988 C 0.16521 0.63672 0.13366 0.0
H989 H 0.28152 0.67809 0.1508 0.0
H990 H 0.23358 0.63525 0.09318 0.0
S991 S 0.09394 0.66812 0.24283 0.0
N992 N 0.14935 0.68909 0.2523 0.0
N993 N 0.0967 0.64381 0.18973 0.0
C994 C 0.14431 0.65193 0.17722 0.0
C995 C 0.17309 0.67699 0.21132 0.0
C996 C 0.4071 0.89761 0.88108 0.0
C997 C 0.37371 0.85517 0.88691 0.0
C998 C 0.43482 0.92399 0.9142 0.0
C999 C 0.42966 0.90905 0.95445 0.0
H1000 H 0.41186 0.91054 0.85072 0.0
H1001 H 0.45911 0.95699 0.90897 0.0
S1002 S 0.34864 0.80002 0.98541 0.0
N1003 N 0.33835 0.79913 0.93549 0.0
N1004 N 0.38993 0.84857 0.99751 0.0
C1005 C 0.39708 0.86641 0.9602 0.0
C1006 C 0.36932 0.83947 0.92649 0.0
C1007 C 0.19417 0.36273 0.92811 0.0
C1008 C 0.19743 0.35131 0.88154 0.0
C1009 C 0.16438 0.39031 0.95402 0.0
C1010 C 0.13713 0.40827 0.93446 0.0
H1011 H 0.21635 0.35214 0.94453 0.0
H1012 H 0.1645 0.39951 0.98943 0.0
S1013 S 0.12878 0.38388 0.81456 0.0
N1014 N 0.16733 0.35649 0.81752 0.0
N1015 N 0.11301 0.40946 0.86578 0.0
C1016 C 0.13893 0.39571 0.88813 0.0
C1017 C 0.16863 0.36708 0.86187 0.0
C1018 C 0.6954 0.23832 0.94343 0.0
C1019 C 0.68911 0.22602 0.89842 0.0
C1020 C 0.66929 0.20969 0.97415 0.0
C1021 C 0.63595 0.16796 0.96077 0.0
H1022 H 0.72192 0.26933 0.95459 0.0
H1023 H 0.67739 0.21876 1.00775 0.0
S1024 S 0.60419 0.12121 0.84802 0.0
N1025 N 0.64518 0.17019 0.84326 0.0
N1026 N 0.59667 0.11668 0.90059 0.0
C1027 C 0.62783 0.15649 0.91663 0.0
C1028 C 0.65414 0.18551 0.88557 0.0
C1029 C 0.90822 0.66961 0.99887 0.0
C1030 C 0.94034 0.69165 0.96612 0.0
C1031 C 0.91558 0.632 1.01136 0.0
C1032 C 0.95574 0.61544 0.99187 0.0
H1033 H 0.87769 0.68216 1.01554 0.0
H1034 H 0.8905 0.61722 1.03791 0.0
S1035 S 0.04805 0.65998 0.90134 0.0
N1036 N 1.01147 0.69326 0.91198 0.0
N1037 N 1.0263 0.62271 0.93555 0.0
C1038 C 0.98707 0.63627 0.9575 0.0
C1039 C 0.97914 0.6744 0.94462 0.0
C1040 C 0.1732 0.39743 0.09138 0.0
C1041 C 0.13983 0.37598 0.12376 0.0
C1042 C 0.16835 0.43661 0.07972 0.0
C1043 C 0.12896 0.45448 0.09892 0.0
H1044 H 0.20246 0.38309 0.07419 0.0
H1045 H 0.19425 0.45117 0.05353 0.0
S1046 S 1.03801 0.41529 0.1924 0.0
N1047 N 0.07147 0.37896 0.18034 0.0
N1048 N 0.06043 0.4516 0.15732 0.0
C1049 C 0.09754 0.43519 0.13404 0.0
C1050 C 0.10332 0.39594 0.14652 0.0
C1051 C 0.18651 0.67219 0.87387 0.0
C1052 C 0.20118 0.7204 0.88635 0.0
C1053 C 0.16041 0.64429 0.90466 0.0
C1054 C 0.14856 0.66311 0.94985 0.0
H1055 H 0.19721 0.65562 0.84033 0.0
H1056 H 0.15142 0.60714 0.89319 0.0
S1057 S 0.17518 0.78834 0.99866 0.0
N1058 N 0.19885 0.78671 0.94582 0.0
N1059 N 0.15044 0.73396 1.00461 0.0
C1060 C 0.16035 0.71169 0.96235 0.0
C1061 C 0.1867 0.74039 0.93041 0.0
C1062 C 0.44624 0.09324 0.90183 0.0
C1063 C 0.39796 0.09156 0.90693 0.0
C1064 C 0.46463 0.08248 0.93447 0.0
C1065 C 0.43547 0.06957 0.97345 0.0
H1066 H 0.47011 0.10329 0.87255 0.0
H1067 H 0.50195 0.08413 0.92894 0.0
S1068 S 0.30627 0.05923 1.00222 0.0
N1069 N 0.32111 0.07502 0.95335 0.0
N1070 N 0.35558 0.05594 1.01507 0.0
C1071 C 0.38707 0.06793 0.9789 0.0
C1072 C 0.36839 0.0787 0.94563 0.0
C1073 C 0.90686 0.40581 0.87575 0.0
C1074 C 0.86119 0.37653 0.88605 0.0
C1075 C 0.93608 0.42906 0.90885 0.0
C1076 C 0.92099 0.42327 0.95339 0.0
H1077 H 0.91971 0.41151 0.842 0.0
H1078 H 0.97001 0.45263 0.89974 0.0
S1079 S 0.81011 0.34107 0.9949 0.0
N1080 N 0.80595 0.33772 0.94246 0.0
N1081 N 0.86052 0.37991 1.00394 0.0
C1082 C 0.87672 0.39165 0.9632 0.0
C1083 C 0.84696 0.36868 0.92981 0.0
C1084 C 0.65915 0.84476 0.89254 0.0
C1085 C 0.70849 0.86148 0.87912 0.0
C1086 C 0.63195 0.87344 0.92149 0.0
C1087 C 0.65279 0.92039 0.93766 0.0
H1088 H 0.64125 0.80918 0.88049 0.0
H1089 H 0.59424 0.85903 0.93031 0.0
S1090 S 0.78065 0.98148 0.91251 0.0
N1091 N 0.77645 0.92841 0.88424 0.0
N1092 N 0.72677 0.9816 0.93861 0.0
C1093 C 0.70228 0.93719 0.92474 0.0
C1094 C 0.72967 0.90807 0.89558 0.0
C1095 C 0.86684 0.66248 0.20317 0.0
C1096 C 0.88631 0.71007 0.21719 0.0
C1097 C 0.89373 0.63408 0.17455 0.0
C1098 C 0.9422 0.65114 0.15764 0.0
H1099 H 0.82998 0.64655 0.2142 0.0
H1100 H 0.87557 0.59787 0.1655 0.0
S1101 S 1.01136 0.7736 0.18387 0.0
N1102 N 0.95799 0.77339 0.21201 0.0
N1103 N 1.00834 0.71993 0.15726 0.0
C1104 C 0.96228 0.69899 0.17057 0.0
C1105 C 0.93457 0.72827 0.20042 0.0
C1106 C 0.43323 0.85144 0.19263 0.0
C1107 C 0.3867 0.82368 0.18998 0.0
C1108 C 0.45767 0.87929 0.16098 0.0
C1109 C 0.43536 0.88271 0.1273 0.0
H1110 H 0.45011 0.85318 0.22046 0.0
H1111 H 0.49296 0.90075 0.16474 0.0
S1112 S 0.31201 0.82051 0.10872 0.0
N1113 N 0.31907 0.80137 0.15115 0.0
N1114 N 0.3629 0.85768 0.0947 0.0
C1115 C 0.38858 0.8554 0.1246 0.0
C1116 C 0.36468 0.82509 0.15533 0.0
C1117 C 0.7081 0.21533 0.16643 0.0
C1118 C 0.7089 0.19789 0.20388 0.0
C1119 C 0.6795 0.1891 0.13404 0.0
C1120 C 0.64919 0.14505 0.1385 0.0
H1121 H 0.7307 0.24909 0.16147 0.0
H1122 H 0.68155 0.20317 0.1049 0.0
S1123 S 0.6367 0.08385 0.2304 0.0
N1124 N 0.6764 0.13334 0.24315 0.0
N1125 N 0.6212 0.08538 0.18336 0.0
C1126 C 0.64856 0.12769 0.17619 0.0
C1127 C 0.67876 0.15374 0.20854 0.0
C1128 C 0.73274 0.67044 0.88915 0.0
C1129 C 0.71052 0.6962 0.87293 0.0
C1130 C 0.70752 0.6421 0.91999 0.0
C1131 C 0.65947 0.63898 0.93604 0.0
H1132 H 0.76944 0.6708 0.87688 0.0
H1133 H 0.72513 0.62082 0.92978 0.0
S1134 S 0.58536 0.7016 0.90767 0.0
N1135 N 0.63793 0.7189 0.87825 0.0
N1136 N 0.59081 0.66483 0.93568 0.0
C1137 C 0.63721 0.66574 0.92182 0.0
C1138 C 0.66271 0.69463 0.89041 0.0
C1139 C 0.44198 0.58141 0.86839 0.0
C1140 C 0.39486 0.55739 0.86397 0.0
C1141 C 0.46523 0.57149 0.89779 0.0
C1142 C 0.44213 0.53738 0.9241 0.0
H1143 H 0.46175 0.60626 0.84733 0.0
H1144 H 0.50224 0.58965 0.89867 0.0
S1145 S 0.31591 0.47062 0.92933 0.0
N1146 N 0.32403 0.50221 0.89119 0.0
N1147 N 0.36737 0.48388 0.94725 0.0
C1148 C 0.39379 0.51583 0.92235 0.0
C1149 C 0.3703 0.52563 0.89193 0.0
C1150 C 0.42226 0.33597 0.8748 0.0
C1151 C 0.37608 0.34135 0.88742 0.0
C1152 C 0.45627 0.35572 0.90345 0.0
C1153 C 0.44527 0.3809 0.94631 0.0
H1154 H 0.43279 0.31811 0.84172 0.0
H1155 H 0.49239 0.35389 0.89087 0.0
S1156 S 0.32637 0.39688 0.99817 0.0
N1157 N 0.31941 0.36924 0.94701 0.0
N1158 N 0.3825 0.40427 1.00185 0.0
C1159 C 0.39792 0.38294 0.96061 0.0
C1160 C 0.36365 0.36404 0.93082 0.0
C1161 C 0.59574 0.37962 1.02912 0.0
C1162 C 0.63612 0.36283 1.01749 0.0
C1163 C 0.59855 0.42093 1.01625 0.0
C1164 C 0.64296 0.44957 1.00127 0.0
H1165 H 0.56096 0.35595 1.03488 0.0
H1166 H 0.56608 0.42886 1.01502 0.0
S1167 S 0.75962 0.43302 1.00214 0.0
N1168 N 0.72089 0.38645 1.01773 0.0
N1169 N 0.72822 0.46609 0.99552 0.0
C1170 C 0.68377 0.4402 1.00757 0.0
C1171 C 0.67965 0.39708 1.01972 0.0
C1172 C 0.64758 0.46048 0.19578 0.0
C1173 C 0.69698 0.47259 0.18124 0.0
C1174 C 0.61576 0.4686 0.17342 0.0
C1175 C 0.63185 0.48918 0.13559 0.0
H1176 H 0.6332 0.44655 0.22591 0.0
H1177 H 0.57838 0.46025 0.18684 0.0
S1178 S 0.75721 0.52985 0.08482 0.0
N1179 N 0.75978 0.50536 0.12526 0.0
N1180 N 0.70032 0.52336 0.08557 0.0
C1181 C 0.68077 0.50064 0.12006 0.0
C1182 C 0.71319 0.49181 0.14235 0.0
C1183 C 0.7227 0.66119 0.19397 0.0
C1184 C 0.7097 0.70137 0.21763 0.0
C1185 C 0.69799 0.63182 0.16069 0.0
C1186 C 0.65864 0.64074 0.15051 0.0
H1187 H 0.75312 0.65294 0.20028 0.0
H1188 H 0.71007 0.60201 0.1427 0.0
S1189 S 0.60891 0.74042 0.20384 0.0
N1190 N 0.65463 0.74857 0.22928 0.0
N1191 N 0.60676 0.69188 0.16709 0.0
C1192 C 0.64424 0.68009 0.1746 0.0
C1193 C 0.67027 0.71088 0.20803 0.0
C1194 C 0.53812 0.7226 0.09748 0.0
C1195 C 0.49897 0.74116 0.11204 0.0
C1196 C 0.53116 0.67507 0.08318 0.0
C1197 C 0.48518 0.64555 0.08215 0.0
H1198 H 0.57307 0.74299 0.10455 0.0
H1199 H 0.56163 0.66162 0.07725 0.0
S1200 S 0.37665 0.68187 0.08943 0.0
N1201 N 0.41675 0.73035 0.105 0.0
N1202 N 0.40357 0.63996 0.07804 0.0
C1203 C 0.44784 0.66509 0.0856 0.0
C1204 C 0.45511 0.71373 0.09966 0.0
C1205 C 0.33714 0.40938 0.20526 0.0
C1206 C 0.36082 0.37801 0.21052 0.0
C1207 C 0.35699 0.43998 0.1749 0.0
C1208 C 0.40059 0.43957 0.14763 0.0
H1209 H 0.30368 0.4115 0.22589 0.0
H1210 H 0.33919 0.46539 0.17416 0.0
S1211 S 0.47491 0.36148 0.14486 0.0
N1212 N 0.42912 0.34684 0.18336 0.0
N1213 N 0.46565 0.40331 0.12612 0.0
C1214 C 0.42338 0.40682 0.15102 0.0
C1215 C 0.40381 0.37644 0.18245 0.0
C1216 C 0.92449 0.71951 0.69124 0.0
C1217 C 0.8754 0.70129 0.70468 0.0
C1218 C 0.95318 0.69157 0.66348 0.0
C1219 C 0.9342 0.64396 0.6482 0.0
H1220 H 0.94118 0.75564 0.70281 0.0
H1221 H 0.99086 0.70693 0.65575 0.0
S1222 S 0.80788 0.57918 0.67209 0.0
N1223 N 0.80952 0.6323 0.69921 0.0
N1224 N 0.86251 0.58056 0.64714 0.0
C1225 C 0.88498 0.62579 0.66026 0.0
C1226 C 0.85592 0.65411 0.68834 0.0
C1227 C 0.37664 0.83311 0.65529 0.0
C1228 C 0.38702 0.83955 0.69846 0.0
C1229 C 0.4048 0.86237 0.62582 0.0
C1230 C 0.44458 0.89758 0.63863 0.0
H1231 H 0.34486 0.80773 0.6455 0.0
H1232 H 0.39386 0.85929 0.59419 0.0
S1233 S 0.49046 0.92322 0.74537 0.0
N1234 N 0.4418 0.88064 0.75085 0.0
N1235 N 0.49589 0.93348 0.69493 0.0
C1236 C 0.45733 0.90134 0.6802 0.0
C1237 C 0.42819 0.87281 0.71036 0.0
C1238 C 0.18991 0.47131 0.6541 0.0
C1239 C 0.17222 0.45653 0.69511 0.0
C1240 C 0.15975 0.4801 0.62996 0.0
C1241 C 0.11108 0.47449 0.64626 0.0
H1242 H 0.22747 0.47794 0.6416 0.0
H1243 H 0.17494 0.493 0.59935 0.0
S1244 S 0.04704 0.43042 0.74945 0.0
N1245 N 0.10281 0.43227 0.74848 0.0
N1246 N 0.04646 0.44882 0.70435 0.0
C1247 C 0.09299 0.45726 0.68615 0.0
C1248 C 0.12346 0.44828 0.71023 0.0
C1249 C 0.65905 0.1695 0.73151 0.0
C1250 C 0.7058 0.19 0.71389 0.0
C1251 C 0.62477 0.14441 0.70476 0.0
C1252 C 0.63491 0.13817 0.6582 0.0
H1253 H 0.64762 0.17513 0.76672 0.0
H1254 H 0.58941 0.13066 0.7214 0.0
S1255 S 0.75273 0.18373 0.59402 0.0
N1256 N 0.76138 0.20171 0.64641 0.0
N1257 N 0.69663 0.15366 0.59495 0.0
C1258 C 0.68218 0.15705 0.63938 0.0
C1259 C 0.71763 0.183 0.66736 0.0
C1260 C 0.90399 0.34826 0.40478 0.0
C1261 C 0.88705 0.36755 0.37674 0.0
C1262 C 0.93787 0.37564 0.43216 0.0
C1263 C 0.95696 0.42312 0.43175 0.0
H1264 H 0.89128 0.3116 0.40546 0.0
H1265 H 0.95038 0.35926 0.45259 0.0
S1266 S 0.92261 0.4916 0.36782 0.0
N1267 N 0.88954 0.4385 0.35405 0.0
N1268 N 0.95539 0.48858 0.40265 0.0
C1269 C 0.93985 0.44293 0.40473 0.0
C1270 C 0.90432 0.41557 0.37806 0.0
C1271 C 0.66287 0.84422 0.40107 0.0
C1272 C 0.71089 0.86416 0.38525 0.0
C1273 C 0.63382 0.87126 0.42966 0.0
C1274 C 0.65169 0.91932 0.44353 0.0
H1275 H 0.64706 0.80778 0.38999 0.0
H1276 H 0.59665 0.85487 0.43894 0.0
S1277 S 0.77639 0.98723 0.41713 0.0
N1278 N 0.77568 0.93428 0.39019 0.0
N1279 N 0.72175 0.98452 0.44268 0.0
C1280 C 0.70021 0.93893 0.42991 0.0
C1281 C 0.72954 0.91162 0.40114 0.0
C1282 C 0.16891 0.69967 0.39054 0.0
C1283 C 0.21796 0.71583 0.39186 0.0
C1284 C 0.13791 0.67654 0.42362 0.0
C1285 C 0.15468 0.6691 0.45937 0.0
H1286 H 0.15478 0.70219 0.36237 0.0
H1287 H 0.10122 0.66118 0.4193 0.0
S1288 S 0.27784 0.71285 0.48327 0.0
N1289 N 0.28015 0.72959 0.43636 0.0
N1290 N 0.22211 0.68459 0.49692 0.0
C1291 C 0.20271 0.68851 0.46301 0.0
C1292 C 0.23424 0.71229 0.42972 0.0
C1293 C 0.45476 0.10077 0.38093 0.0
C1294 C 0.45341 0.14713 0.39684 0.0
C1295 C 0.4674 0.076 0.40642 0.0
C1296 C 0.47735 0.09559 0.44977 0.0
H1297 H 0.44824 0.084 0.3475 0.0
H1298 H 0.47198 0.04196 0.39104 0.0
S1299 S 0.47642 0.21458 0.50879 0.0
N1300 N 0.46189 0.21122 0.45988 0.0
N1301 N 0.48324 0.16335 0.50851 0.0
C1302 C 0.47304 0.14071 0.46751 0.0
C1303 C 0.46144 0.16669 0.44099 0.0
C1304 C 0.63104 0.90726 0.64861 0.0
C1305 C 0.63987 0.92649 0.69256 0.0
C1306 C 0.61948 0.93281 0.62296 0.0
C1307 C 0.61618 0.97821 0.64059 0.0
H1308 H 0.62965 0.87125 0.63498 0.0
H1309 H 0.60893 0.91558 0.59087 0.0
S1310 S 0.64219 0.04676 0.75047 0.0
N1311 N 0.6502 0.99596 0.74982 0.0
N1312 N 0.62708 0.04293 0.70186 0.0
C1313 C 0.62846 0.9989 0.68274 0.0
C1314 C 0.64054 0.97328 0.70872 0.0
C1315 C 0.71613 0.22956 0.43445 0.0
C1316 C 0.70685 0.21997 0.3905 0.0
C1317 C 0.6868 0.20297 0.46564 0.0
C1318 C 0.6467 0.16777 0.45374 0.0
H1319 H 0.74787 0.25537 0.44376 0.0
H1320 H 0.69707 0.20794 0.49794 0.0
S1321 S 0.60368 0.13434 0.34509 0.0
N1322 N 0.65336 0.17537 0.33799 0.0
N1323 N 0.59637 0.12866 0.39725 0.0
C1324 C 0.63506 0.16119 0.4112 0.0
C1325 C 0.66572 0.18643 0.37926 0.0
C1326 C 0.96669 0.61755 0.3865 0.0
C1327 C 0.91816 0.61196 0.40161 0.0
C1328 C 0.9949 0.60622 0.40983 0.0
C1329 C 0.97599 0.58933 0.44967 0.0
H1330 H 0.98283 0.62956 0.35556 0.0
H1331 H 1.03166 0.60944 0.39546 0.0
S1332 S 0.85145 0.57256 0.50568 0.0
N1333 N 0.8524 0.59128 0.46018 0.0
N1334 N 0.90618 0.57078 0.50505 0.0
C1335 C 0.92798 0.58619 0.46674 0.0
C1336 C 0.89889 0.5974 0.4425 0.0
C1337 C 0.42152 0.83784 0.40066 0.0
C1338 C 0.3877 0.85324 0.38742 0.0
C1339 C 0.45575 0.86886 0.42573 0.0
C1340 C 0.4565 0.91587 0.43904 0.0
H1341 H 0.42302 0.8022 0.38987 0.0
H1342 H 0.48247 0.85629 0.43383 0.0
S1343 S 0.37333 0.97256 0.41669 0.0
N1344 N 0.35593 0.91821 0.39154 0.0
N1345 N 0.41902 0.97569 0.44009 0.0
C1346 C 0.4217 0.93117 0.4279 0.0
C1347 C 0.38755 0.9 0.40172 0.0
C1348 C 0.15975 0.34295 0.39334 0.0
C1349 C 0.20883 0.36163 0.38044 0.0
C1350 C 0.13128 0.36946 0.4235 0.0
C1351 C 0.15055 0.41613 0.44168 0.0
H1352 H 0.14274 0.30782 0.3792 0.0
H1353 H 0.09352 0.35405 0.43056 0.0
S1354 S 0.27637 0.48237 0.41882 0.0
N1355 N 0.27466 0.43049 0.38843 0.0
N1356 N 0.22203 0.47959 0.44519 0.0
C1357 C 0.19966 0.43486 0.42987 0.0
C1358 C 0.22849 0.40797 0.39931 0.0
C1359 C 0.42588 0.22312 0.69398 0.0
C1360 C 0.37741 0.20282 0.70808 0.0
C1361 C 0.45574 0.19665 0.66548 0.0
C1362 C 0.43828 0.14878 0.64992 0.0
H1363 H 0.4414 0.25929 0.70648 0.0
H1364 H 0.49311 0.21324 0.65762 0.0
S1365 S 0.31335 0.08006 0.67178 0.0
N1366 N 0.31308 0.13248 0.69967 0.0
N1367 N 0.36846 0.08355 0.64758 0.0
C1368 C 0.38949 0.12897 0.66179 0.0
C1369 C 0.35936 0.15564 0.69039 0.0
C1370 C 0.91795 0.34495 0.688 0.0
C1371 C 0.86829 0.33292 0.69041 0.0
C1372 C 0.94794 0.37205 0.65739 0.0
C1373 C 0.92939 0.38826 0.62839 0.0
H1374 H 0.93363 0.33607 0.71179 0.0
H1375 H 0.98559 0.38315 0.65866 0.0
S1376 S 0.80359 0.35685 0.61361 0.0
N1377 N 0.8031 0.33181 0.65491 0.0
N1378 N 0.85939 0.3844 0.59918 0.0
C1379 C 0.88041 0.37311 0.62785 0.0
C1380 C 0.84992 0.34505 0.65841 0.0
C1381 C 0.18877 0.70871 0.6778 0.0
C1382 C 0.19806 0.6941 0.71368 0.0
C1383 C 0.15445 0.68029 0.65144 0.0
C1384 C 0.12728 0.63676 0.66075 0.0
H1385 H 0.20824 0.74235 0.6699 0.0
H1386 H 0.14816 0.69302 0.62445 0.0
S1387 S 0.13866 0.58115 0.74926 0.0
N1388 N 0.17837 0.63179 0.75535 0.0
N1389 N 0.11291 0.57959 0.70706 0.0
C1390 C 0.13651 0.6215 0.69603 0.0
C1391 C 0.17214 0.64981 0.72213 0.0
loop_
_geom_bond_atom_site_label_1
_geom_bond_atom_site_label_2
_geom_bond_distance
_geom_bond_site_symmetry_2
_ccdc_geom_bond_type
Eu0 N29 2.600 . S
Eu0 N35 2.562 . S
Eu0 O44 2.462 . S
Eu0 O45 2.373 . S
Eu0 O47 2.432 . S
Eu0 O48 2.291 . S
Eu0 O52 2.335 . S
Eu0 O55 2.372 . S
Eu0 C64 2.787 . S
C1 N2 1.365 . S
C1 C4 1.405 . S
C1 C8 1.448 . S
N2 C1 1.365 . S
N2 C5 1.319 . S
N2 Eu11 2.600 . S
C3 C5 1.397 . S
C3 C6 1.367 . S
C3 H23 0.931 . S
C4 C1 1.405 . S
C4 C6 1.403 . S
C4 C10 1.439 . S
C5 N2 1.319 . S
C5 C3 1.397 . S
C5 H16 0.930 . S
C6 C3 1.367 . S
C6 C4 1.403 . S
C6 H27 0.929 . S
C7 C8 1.430 . S
C7 C9 1.387 . S
C7 C13 1.404 . S
C8 C1 1.448 . S
C8 C7 1.430 . S
C8 N12 1.351 . S
C9 C7 1.387 . S
C9 C10 1.374 . S
C9 H24 0.931 . S
C10 C4 1.439 . S
C10 C9 1.374 . S
C10 H25 0.931 . S
Eu11 N2 2.600 . S
Eu11 N12 2.562 . S
Eu11 O46 2.335 . S
Eu11 O49 2.372 . S
Eu11 O50 2.462 . S
Eu11 O51 2.373 . S
Eu11 O53 2.432 . S
Eu11 O54 2.291 . S
Eu11 C75 2.787 . S
N12 C8 1.351 . S
N12 Eu11 2.562 . S
N12 C14 1.325 . S
C13 C7 1.404 . S
C13 C15 1.366 . S
C13 H21 0.930 . S
C14 N12 1.325 . S
C14 C15 1.416 . S
C14 H20 0.929 . S
C15 C13 1.366 . S
C15 C14 1.416 . S
C15 H17 0.930 . S
H16 C5 0.930 . S
H17 C15 0.930 . S
H18 C33 0.930 . S
H19 C40 0.930 . S
H20 C14 0.929 . S
H21 C13 0.930 . S
H22 C36 0.929 . S
H23 C3 0.931 . S
H24 C9 0.931 . S
H25 C10 0.931 . S
H26 C31 0.931 . S
H27 C6 0.929 . S
H28 C39 0.930 . S
N29 Eu0 2.600 . S
N29 C30 1.365 . S
N29 C33 1.319 . S
C30 N29 1.365 . S
C30 C32 1.405 . S
C30 C38 1.448 . S
C31 H26 0.931 . S
C31 C33 1.397 . S
C31 C34 1.367 . S
C32 C30 1.405 . S
C32 C34 1.403 . S
C32 C65 1.439 . S
C33 H18 0.930 . S
C33 N29 1.319 . S
C33 C31 1.397 . S
C34 C31 1.367 . S
C34 C32 1.403 . S
C34 H41 0.929 . S
N35 Eu0 2.562 . S
N35 C36 1.325 . S
N35 C38 1.351 . S
C36 H22 0.929 . S
C36 N35 1.325 . S
C36 C40 1.416 . S
C37 C38 1.430 . S
C37 C39 1.404 . S
C37 C66 1.387 . S
C38 C30 1.448 . S
C38 N35 1.351 . S
C38 C37 1.430 . S
C39 H28 0.930 . S
C39 C37 1.404 . S
C39 C40 1.366 . S
C40 H19 0.930 . S
C40 C36 1.416 . S
C40 C39 1.366 . S
H41 C34 0.929 . S
H42 C65 0.931 . S
H43 C66 0.931 . S
O44 Eu0 2.462 . S
O44 C64 1.252 . S
O45 Eu0 2.373 . S
O45 C56 1.249 . S
O46 Eu11 2.335 . S
O46 C56 1.264 . S
O47 Eu0 2.432 . S
O47 C64 1.268 . S
O48 Eu0 2.291 . S
O48 C63 1.255 . S
O49 Eu11 2.372 . S
O49 C63 1.257 . S
O50 Eu11 2.462 . S
O50 C75 1.252 . S
O51 Eu11 2.373 . S
O51 C67 1.249 . S
O52 Eu0 2.335 . S
O52 C67 1.264 . S
O53 Eu11 2.432 . S
O53 C75 1.268 . S
O54 Eu11 2.291 . S
O54 C74 1.255 . S
O55 Eu0 2.372 . S
O55 C74 1.257 . S
C56 O45 1.249 . S
C56 O46 1.264 . S
C57 C60 1.382 . S
C57 C62 1.390 . S
C57 C64 1.506 . S
C58 C59 1.398 . S
C58 C62 1.392 . S
C59 C58 1.398 . S
C59 C61 1.372 . S
C59 H76 0.931 . S
C60 C57 1.382 . S
C60 C61 1.390 . S
C60 H77 0.931 . S
C61 C59 1.372 . S
C61 C60 1.390 . S
C61 H78 0.929 . S
C62 C57 1.390 . S
C62 C58 1.392 . S
C62 H79 0.930 . S
C63 O48 1.255 . S
C63 O49 1.257 . S
C64 Eu0 2.787 . S
C64 O44 1.252 . S
C64 O47 1.268 . S
C64 C57 1.506 . S
C65 C32 1.439 . S
C65 H42 0.931 . S
C65 C66 1.374 . S
C66 C37 1.387 . S
C66 H43 0.931 . S
C66 C65 1.374 . S
C67 O51 1.249 . S
C67 O52 1.264 . S
C68 C71 1.382 . S
C68 C72 1.390 . S
C68 C75 1.506 . S
C69 C70 1.398 . S
C69 C72 1.392 . S
C70 C69 1.398 . S
C70 C73 1.372 . S
C70 H80 0.931 . S
C71 C68 1.382 . S
C71 C73 1.390 . S
C71 H81 0.931 . S
C72 C68 1.390 . S
C72 C69 1.392 . S
C72 H82 0.930 . S
C73 C70 1.372 . S
C73 C71 1.390 . S
C73 H83 0.929 . S
C74 O54 1.255 . S
C74 O55 1.257 . S
C75 Eu11 2.787 . S
C75 O50 1.252 . S
C75 O53 1.268 . S
C75 C68 1.506 . S
H76 C59 0.931 . S
H77 C60 0.931 . S
H78 C61 0.929 . S
H79 C62 0.930 . S
H80 C70 0.931 . S
H81 C71 0.931 . S
H82 C72 0.930 . S
H83 C73 0.929 . S
Eu84 N113 2.600 . S
Eu84 N119 2.562 . S
Eu84 O128 2.462 . S
Eu84 O129 2.373 . S
Eu84 O131 2.432 . S
Eu84 O132 2.291 . S
Eu84 O136 2.335 . S
Eu84 O139 2.372 . S
Eu84 C148 2.787 . S
C85 N86 1.365 . S
C85 C88 1.405 . S
C85 C92 1.448 . S
N86 C85 1.365 . S
N86 C89 1.319 . S
N86 Eu95 2.600 . S
C87 C89 1.397 . S
C87 C90 1.367 . S
C87 H107 0.931 . S
C88 C85 1.405 . S
C88 C90 1.403 . S
C88 C94 1.439 . S
C89 N86 1.319 . S
C89 C87 1.397 . S
C89 H100 0.930 . S
C90 C87 1.367 . S
C90 C88 1.403 . S
C90 H111 0.929 . S
C91 C92 1.430 . S
C91 C93 1.387 . S
C91 C97 1.404 . S
C92 C85 1.448 . S
C92 C91 1.430 . S
C92 N96 1.351 . S
C93 C91 1.387 . S
C93 C94 1.374 . S
C93 H108 0.931 . S
C94 C88 1.439 . S
C94 C93 1.374 . S
C94 H109 0.931 . S
Eu95 N86 2.600 . S
Eu95 N96 2.562 . S
Eu95 O130 2.335 . S
Eu95 O133 2.372 . S
Eu95 O134 2.462 . S
Eu95 O135 2.373 . S
Eu95 O137 2.432 . S
Eu95 O138 2.291 . S
Eu95 C159 2.787 . S
N96 C92 1.351 . S
N96 Eu95 2.562 . S
N96 C98 1.325 . S
C97 C91 1.404 . S
C97 C99 1.366 . S
C97 H105 0.930 . S
C98 N96 1.325 . S
C98 C99 1.416 . S
C98 H104 0.929 . S
C99 C97 1.366 . S
C99 C98 1.416 . S
C99 H101 0.930 . S
H100 C89 0.930 . S
H101 C99 0.930 . S
H102 C117 0.930 . S
H103 C124 0.930 . S
H104 C98 0.929 . S
H105 C97 0.930 . S
H106 C120 0.929 . S
H107 C87 0.931 . S
H108 C93 0.931 . S
H109 C94 0.931 . S
H110 C115 0.931 . S
H111 C90 0.929 . S
H112 C123 0.930 . S
N113 Eu84 2.600 . S
N113 C114 1.365 . S
N113 C117 1.319 . S
C114 N113 1.365 . S
C114 C116 1.405 . S
C114 C122 1.448 . S
C115 H110 0.931 . S
C115 C117 1.397 . S
C115 C118 1.367 . S
C116 C114 1.405 . S
C116 C118 1.403 . S
C116 C149 1.439 . S
C117 H102 0.930 . S
C117 N113 1.319 . S
C117 C115 1.397 . S
C118 C115 1.367 . S
C118 C116 1.403 . S
C118 H125 0.929 . S
N119 Eu84 2.562 . S
N119 C120 1.325 . S
N119 C122 1.351 . S
C120 H106 0.929 . S
C120 N119 1.325 . S
C120 C124 1.416 . S
C121 C122 1.430 . S
C121 C123 1.404 . S
C121 C150 1.387 . S
C122 C114 1.448 . S
C122 N119 1.351 . S
C122 C121 1.430 . S
C123 H112 0.930 . S
C123 C121 1.404 . S
C123 C124 1.366 . S
C124 H103 0.930 . S
C124 C120 1.416 . S
C124 C123 1.366 . S
H125 C118 0.929 . S
H126 C149 0.931 . S
H127 C150 0.931 . S
O128 Eu84 2.462 . S
O128 C148 1.252 . S
O129 Eu84 2.373 . S
O129 C140 1.249 . S
O130 Eu95 2.335 . S
O130 C140 1.264 . S
O131 Eu84 2.432 . S
O131 C148 1.268 . S
O132 Eu84 2.291 . S
O132 C147 1.255 . S
O133 Eu95 2.372 . S
O133 C147 1.257 . S
O134 Eu95 2.462 . S
O134 C159 1.252 . S
O135 Eu95 2.373 . S
O135 C151 1.249 . S
O136 Eu84 2.335 . S
O136 C151 1.264 . S
O137 Eu95 2.432 . S
O137 C159 1.268 . S
O138 Eu95 2.291 . S
O138 C158 1.255 . S
O139 Eu84 2.372 . S
O139 C158 1.257 . S
C140 O129 1.249 . S
C140 O130 1.264 . S
C141 C144 1.382 . S
C141 C146 1.390 . S
C141 C148 1.506 . S
C142 C143 1.398 . S
C142 C146 1.392 . S
C143 C142 1.398 . S
C143 C145 1.372 . S
C143 H160 0.931 . S
C144 C141 1.382 . S
C144 C145 1.390 . S
C144 H161 0.931 . S
C145 C143 1.372 . S
C145 C144 1.390 . S
C145 H162 0.929 . S
C146 C141 1.390 . S
C146 C142 1.392 . S
C146 H163 0.930 . S
C147 O132 1.255 . S
C147 O133 1.257 . S
C148 Eu84 2.787 . S
C148 O128 1.252 . S
C148 O131 1.268 . S
C148 C141 1.506 . S
C149 C116 1.439 . S
C149 H126 0.931 . S
C149 C150 1.374 . S
C150 C121 1.387 . S
C150 H127 0.931 . S
C150 C149 1.374 . S
C151 O135 1.249 . S
C151 O136 1.264 . S
C152 C155 1.382 . S
C152 C156 1.390 . S
C152 C159 1.506 . S
C153 C154 1.398 . S
C153 C156 1.392 . S
C154 C153 1.398 . S
C154 C157 1.372 . S
C154 H164 0.931 . S
C155 C152 1.382 . S
C155 C157 1.390 . S
C155 H165 0.931 . S
C156 C152 1.390 . S
C156 C153 1.392 . S
C156 H166 0.930 . S
C157 C154 1.372 . S
C157 C155 1.390 . S
C157 H167 0.929 . S
C158 O138 1.255 . S
C158 O139 1.257 . S
C159 Eu95 2.787 . S
C159 O134 1.252 . S
C159 O137 1.268 . S
C159 C152 1.506 . S
H160 C143 0.931 . S
H161 C144 0.931 . S
H162 C145 0.929 . S
H163 C146 0.930 . S
H164 C154 0.931 . S
H165 C155 0.931 . S
H166 C156 0.930 . S
H167 C157 0.929 . S
Eu168 N197 2.600 . S
Eu168 N203 2.562 . S
Eu168 O212 2.462 . S
Eu168 O213 2.373 . S
Eu168 O215 2.432 . S
Eu168 O216 2.291 . S
Eu168 O220 2.335 . S
Eu168 O223 2.372 . S
Eu168 C232 2.787 . S
C169 N170 1.365 . S
C169 C172 1.405 . S
C169 C176 1.448 . S
N170 C169 1.365 . S
N170 C173 1.319 . S
N170 Eu179 2.600 . S
C171 C173 1.397 . S
C171 C174 1.367 . S
C171 H191 0.931 . S
C172 C169 1.405 . S
C172 C174 1.403 . S
C172 C178 1.439 . S
C173 N170 1.319 . S
C173 C171 1.397 . S
C173 H184 0.930 . S
C174 C171 1.367 . S
C174 C172 1.403 . S
C174 H195 0.929 . S
C175 C176 1.430 . S
C175 C177 1.387 . S
C175 C181 1.404 . S
C176 C169 1.448 . S
C176 C175 1.430 . S
C176 N180 1.351 . S
C177 C175 1.387 . S
C177 C178 1.374 . S
C177 H192 0.931 . S
C178 C172 1.439 . S
C178 C177 1.374 . S
C178 H193 0.931 . S
Eu179 N170 2.600 . S
Eu179 N180 2.562 . S
Eu179 O214 2.335 . S
Eu179 O217 2.372 . S
Eu179 O218 2.462 . S
Eu179 O219 2.373 . S
Eu179 O221 2.432 . S
Eu179 O222 2.291 . S
Eu179 C243 2.787 . S
N180 C176 1.351 . S
N180 Eu179 2.562 . S
N180 C182 1.325 . S
C181 C175 1.404 . S
C181 C183 1.366 . S
C181 H189 0.930 . S
C182 N180 1.325 . S
C182 C183 1.416 . S
C182 H188 0.929 . S
C183 C181 1.366 . S
C183 C182 1.416 . S
C183 H185 0.930 . S
H184 C173 0.930 . S
H185 C183 0.930 . S
H186 C201 0.930 . S
H187 C208 0.930 . S
H188 C182 0.929 . S
H189 C181 0.930 . S
H190 C204 0.929 . S
H191 C171 0.931 . S
H192 C177 0.931 . S
H193 C178 0.931 . S
H194 C199 0.931 . S
H195 C174 0.929 . S
H196 C207 0.930 . S
N197 Eu168 2.600 . S
N197 C198 1.365 . S
N197 C201 1.319 . S
C198 N197 1.365 . S
C198 C200 1.405 . S
C198 C206 1.448 . S
C199 H194 0.931 . S
C199 C201 1.397 . S
C199 C202 1.367 . S
C200 C198 1.405 . S
C200 C202 1.403 . S
C200 C233 1.439 . S
C201 H186 0.930 . S
C201 N197 1.319 . S
C201 C199 1.397 . S
C202 C199 1.367 . S
C202 C200 1.403 . S
C202 H209 0.929 . S
N203 Eu168 2.562 . S
N203 C204 1.325 . S
N203 C206 1.351 . S
C204 H190 0.929 . S
C204 N203 1.325 . S
C204 C208 1.416 . S
C205 C206 1.430 . S
C205 C207 1.404 . S
C205 C234 1.387 . S
C206 C198 1.448 . S
C206 N203 1.351 . S
C206 C205 1.430 . S
C207 H196 0.930 . S
C207 C205 1.404 . S
C207 C208 1.366 . S
C208 H187 0.930 . S
C208 C204 1.416 . S
C208 C207 1.366 . S
H209 C202 0.929 . S
H210 C233 0.931 . S
H211 C234 0.931 . S
O212 Eu168 2.462 . S
O212 C232 1.252 . S
O213 Eu168 2.373 . S
O213 C224 1.249 . S
O214 Eu179 2.335 . S
O214 C224 1.264 . S
O215 Eu168 2.432 . S
O215 C232 1.268 . S
O216 Eu168 2.291 . S
O216 C231 1.255 . S
O217 Eu179 2.372 . S
O217 C231 1.257 . S
O218 Eu179 2.462 . S
O218 C243 1.252 . S
O219 Eu179 2.373 . S
O219 C235 1.249 . S
O220 Eu168 2.335 . S
O220 C235 1.264 . S
O221 Eu179 2.432 . S
O221 C243 1.268 . S
O222 Eu179 2.291 . S
O222 C242 1.255 . S
O223 Eu168 2.372 . S
O223 C242 1.257 . S
C224 O213 1.249 . S
C224 O214 1.264 . S
C225 C228 1.382 . S
C225 C230 1.390 . S
C225 C232 1.506 . S
C226 C227 1.398 . S
C226 C230 1.392 . S
C227 C226 1.398 . S
C227 C229 1.372 . S
C227 H244 0.931 . S
C228 C225 1.382 . S
C228 C229 1.390 . S
C228 H245 0.931 . S
C229 C227 1.372 . S
C229 C228 1.390 . S
C229 H246 0.929 . S
C230 C225 1.390 . S
C230 C226 1.392 . S
C230 H247 0.930 . S
C231 O216 1.255 . S
C231 O217 1.257 . S
C232 Eu168 2.787 . S
C232 O212 1.252 . S
C232 O215 1.268 . S
C232 C225 1.506 . S
C233 C200 1.439 . S
C233 H210 0.931 . S
C233 C234 1.374 . S
C234 C205 1.387 . S
C234 H211 0.931 . S
C234 C233 1.374 . S
C235 O219 1.249 . S
C235 O220 1.264 . S
C236 C239 1.382 . S
C236 C240 1.390 . S
C236 C243 1.506 . S
C237 C238 1.398 . S
C237 C240 1.392 . S
C238 C237 1.398 . S
C238 C241 1.372 . S
C238 H248 0.931 . S
C239 C236 1.382 . S
C239 C241 1.390 . S
C239 H249 0.931 . S
C240 C236 1.390 . S
C240 C237 1.392 . S
C240 H250 0.930 . S
C241 C238 1.372 . S
C241 C239 1.390 . S
C241 H251 0.929 . S
C242 O222 1.255 . S
C242 O223 1.257 . S
C243 Eu179 2.787 . S
C243 O218 1.252 . S
C243 O221 1.268 . S
C243 C236 1.506 . S
H244 C227 0.931 . S
H245 C228 0.931 . S
H246 C229 0.929 . S
H247 C230 0.930 . S
H248 C238 0.931 . S
H249 C239 0.931 . S
H250 C240 0.930 . S
H251 C241 0.929 . S
Eu252 N281 2.600 . S
Eu252 N287 2.562 . S
Eu252 O296 2.462 . S
Eu252 O297 2.373 . S
Eu252 O299 2.432 . S
Eu252 O300 2.291 . S
Eu252 O304 2.335 . S
Eu252 O307 2.372 . S
Eu252 C316 2.787 . S
C253 N254 1.365 . S
C253 C256 1.405 . S
C253 C260 1.448 . S
N254 C253 1.365 . S
N254 C257 1.319 . S
N254 Eu263 2.600 . S
C255 C257 1.397 . S
C255 C258 1.367 . S
C255 H275 0.931 . S
C256 C253 1.405 . S
C256 C258 1.403 . S
C256 C262 1.439 . S
C257 N254 1.319 . S
C257 C255 1.397 . S
C257 H268 0.930 . S
C258 C255 1.367 . S
C258 C256 1.403 . S
C258 H279 0.929 . S
C259 C260 1.430 . S
C259 C261 1.387 . S
C259 C265 1.404 . S
C260 C253 1.448 . S
C260 C259 1.430 . S
C260 N264 1.351 . S
C261 C259 1.387 . S
C261 C262 1.374 . S
C261 H276 0.931 . S
C262 C256 1.439 . S
C262 C261 1.374 . S
C262 H277 0.931 . S
Eu263 N254 2.600 . S
Eu263 N264 2.562 . S
Eu263 O298 2.335 . S
Eu263 O301 2.372 . S
Eu263 O302 2.462 . S
Eu263 O303 2.373 . S
Eu263 O305 2.432 . S
Eu263 O306 2.291 . S
Eu263 C327 2.787 . S
N264 C260 1.351 . S
N264 Eu263 2.562 . S
N264 C266 1.325 . S
C265 C259 1.404 . S
C265 C267 1.366 . S
C265 H273 0.930 . S
C266 N264 1.325 . S
C266 C267 1.416 . S
C266 H272 0.929 . S
C267 C265 1.366 . S
C267 C266 1.416 . S
C267 H269 0.930 . S
H268 C257 0.930 . S
H269 C267 0.930 . S
H270 C285 0.930 . S
H271 C292 0.930 . S
H272 C266 0.929 . S
H273 C265 0.930 . S
H274 C288 0.929 . S
H275 C255 0.931 . S
H276 C261 0.931 . S
H277 C262 0.931 . S
H278 C283 0.931 . S
H279 C258 0.929 . S
H280 C291 0.930 . S
N281 Eu252 2.600 . S
N281 C282 1.365 . S
N281 C285 1.319 . S
C282 N281 1.365 . S
C282 C284 1.405 . S
C282 C290 1.448 . S
C283 H278 0.931 . S
C283 C285 1.397 . S
C283 C286 1.367 . S
C284 C282 1.405 . S
C284 C286 1.403 . S
C284 C317 1.439 . S
C285 H270 0.930 . S
C285 N281 1.319 . S
C285 C283 1.397 . S
C286 C283 1.367 . S
C286 C284 1.403 . S
C286 H293 0.929 . S
N287 Eu252 2.562 . S
N287 C288 1.325 . S
N287 C290 1.351 . S
C288 H274 0.929 . S
C288 N287 1.325 . S
C288 C292 1.416 . S
C289 C290 1.430 . S
C289 C291 1.404 . S
C289 C318 1.387 . S
C290 C282 1.448 . S
C290 N287 1.351 . S
C290 C289 1.430 . S
C291 H280 0.930 . S
C291 C289 1.404 . S
C291 C292 1.366 . S
C292 H271 0.930 . S
C292 C288 1.416 . S
C292 C291 1.366 . S
H293 C286 0.929 . S
H294 C317 0.931 . S
H295 C318 0.931 . S
O296 Eu252 2.462 . S
O296 C316 1.252 . S
O297 Eu252 2.373 . S
O297 C308 1.249 . S
O298 Eu263 2.335 . S
O298 C308 1.264 . S
O299 Eu252 2.432 . S
O299 C316 1.268 . S
O300 Eu252 2.291 . S
O300 C315 1.255 . S
O301 Eu263 2.372 . S
O301 C315 1.257 . S
O302 Eu263 2.462 . S
O302 C327 1.252 . S
O303 Eu263 2.373 . S
O303 C319 1.249 . S
O304 Eu252 2.335 . S
O304 C319 1.264 . S
O305 Eu263 2.432 . S
O305 C327 1.268 . S
O306 Eu263 2.291 . S
O306 C326 1.255 . S
O307 Eu252 2.372 . S
O307 C326 1.257 . S
C308 O297 1.249 . S
C308 O298 1.264 . S
C309 C312 1.382 . S
C309 C314 1.390 . S
C309 C316 1.506 . S
C310 C311 1.398 . S
C310 C314 1.392 . S
C311 C310 1.398 . S
C311 C313 1.372 . S
C311 H328 0.931 . S
C312 C309 1.382 . S
C312 C313 1.390 . S
C312 H329 0.931 . S
C313 C311 1.372 . S
C313 C312 1.390 . S
C313 H330 0.929 . S
C314 C309 1.390 . S
C314 C310 1.392 . S
C314 H331 0.930 . S
C315 O300 1.255 . S
C315 O301 1.257 . S
C316 Eu252 2.787 . S
C316 O296 1.252 . S
C316 O299 1.268 . S
C316 C309 1.506 . S
C317 C284 1.439 . S
C317 H294 0.931 . S
C317 C318 1.374 . S
C318 C289 1.387 . S
C318 H295 0.931 . S
C318 C317 1.374 . S
C319 O303 1.249 . S
C319 O304 1.264 . S
C320 C323 1.382 . S
C320 C324 1.390 . S
C320 C327 1.506 . S
C321 C322 1.398 . S
C321 C324 1.392 . S
C322 C321 1.398 . S
C322 C325 1.372 . S
C322 H332 0.931 . S
C323 C320 1.382 . S
C323 C325 1.390 . S
C323 H333 0.931 . S
C324 C320 1.390 . S
C324 C321 1.392 . S
C324 H334 0.930 . S
C325 C322 1.372 . S
C325 C323 1.390 . S
C325 H335 0.929 . S
C326 O306 1.255 . S
C326 O307 1.257 . S
C327 Eu263 2.787 . S
C327 O302 1.252 . S
C327 O305 1.268 . S
C327 C320 1.506 . S
H328 C311 0.931 . S
H329 C312 0.931 . S
H330 C313 0.929 . S
H331 C314 0.930 . S
H332 C322 0.931 . S
H333 C323 0.931 . S
H334 C324 0.930 . S
H335 C325 0.929 . S
Eu336 N365 2.600 . S
Eu336 N371 2.562 . S
Eu336 O380 2.462 . S
Eu336 O381 2.373 . S
Eu336 O383 2.432 . S
Eu336 O384 2.291 . S
Eu336 O388 2.335 . S
Eu336 O391 2.372 . S
Eu336 C400 2.787 . S
C337 N338 1.365 . S
C337 C340 1.405 . S
C337 C344 1.448 . S
N338 C337 1.365 . S
N338 C341 1.319 . S
N338 Eu347 2.600 . S
C339 C341 1.397 . S
C339 C342 1.367 . S
C339 H359 0.931 . S
C340 C337 1.405 . S
C340 C342 1.403 . S
C340 C346 1.439 . S
C341 N338 1.319 . S
C341 C339 1.397 . S
C341 H352 0.930 . S
C342 C339 1.367 . S
C342 C340 1.403 . S
C342 H363 0.929 . S
C343 C344 1.430 . S
C343 C345 1.387 . S
C343 C349 1.404 . S
C344 C337 1.448 . S
C344 C343 1.430 . S
C344 N348 1.351 . S
C345 C343 1.387 . S
C345 C346 1.374 . S
C345 H360 0.931 . S
C346 C340 1.439 . S
C346 C345 1.374 . S
C346 H361 0.931 . S
Eu347 N338 2.600 . S
Eu347 N348 2.562 . S
Eu347 O382 2.335 . S
Eu347 O385 2.372 . S
Eu347 O386 2.462 . S
Eu347 O387 2.373 . S
Eu347 O389 2.432 . S
Eu347 O390 2.291 . S
Eu347 C411 2.787 . S
N348 C344 1.351 . S
N348 Eu347 2.562 . S
N348 C350 1.325 . S
C349 C343 1.404 . S
C349 C351 1.366 . S
C349 H357 0.930 . S
C350 N348 1.325 . S
C350 C351 1.416 . S
C350 H356 0.929 . S
C351 C349 1.366 . S
C351 C350 1.416 . S
C351 H353 0.930 . S
H352 C341 0.930 . S
H353 C351 0.930 . S
H354 C369 0.930 . S
H355 C376 0.930 . S
H356 C350 0.929 . S
H357 C349 0.930 . S
H358 C372 0.929 . S
H359 C339 0.931 . S
H360 C345 0.931 . S
H361 C346 0.931 . S
H362 C367 0.931 . S
H363 C342 0.929 . S
H364 C375 0.930 . S
N365 Eu336 2.600 . S
N365 C366 1.365 . S
N365 C369 1.319 . S
C366 N365 1.365 . S
C366 C368 1.405 . S
C366 C374 1.448 . S
C367 H362 0.931 . S
C367 C369 1.397 . S
C367 C370 1.367 . S
C368 C366 1.405 . S
C368 C370 1.403 . S
C368 C401 1.439 . S
C369 H354 0.930 . S
C369 N365 1.319 . S
C369 C367 1.397 . S
C370 C367 1.367 . S
C370 C368 1.403 . S
C370 H377 0.929 . S
N371 Eu336 2.562 . S
N371 C372 1.325 . S
N371 C374 1.351 . S
C372 H358 0.929 . S
C372 N371 1.325 . S
C372 C376 1.416 . S
C373 C374 1.430 . S
C373 C375 1.404 . S
C373 C402 1.387 . S
C374 C366 1.448 . S
C374 N371 1.351 . S
C374 C373 1.430 . S
C375 H364 0.930 . S
C375 C373 1.404 . S
C375 C376 1.366 . S
C376 H355 0.930 . S
C376 C372 1.416 . S
C376 C375 1.366 . S
H377 C370 0.929 . S
H378 C401 0.931 . S
H379 C402 0.931 . S
O380 Eu336 2.462 . S
O380 C400 1.252 . S
O381 Eu336 2.373 . S
O381 C392 1.249 . S
O382 Eu347 2.335 . S
O382 C392 1.264 . S
O383 Eu336 2.432 . S
O383 C400 1.268 . S
O384 Eu336 2.291 . S
O384 C399 1.255 . S
O385 Eu347 2.372 . S
O385 C399 1.257 . S
O386 Eu347 2.462 . S
O386 C411 1.252 . S
O387 Eu347 2.373 . S
O387 C403 1.249 . S
O388 Eu336 2.335 . S
O388 C403 1.264 . S
O389 Eu347 2.432 . S
O389 C411 1.268 . S
O390 Eu347 2.291 . S
O390 C410 1.255 . S
O391 Eu336 2.372 . S
O391 C410 1.257 . S
C392 O381 1.249 . S
C392 O382 1.264 . S
C393 C396 1.382 . S
C393 C398 1.390 . S
C393 C400 1.506 . S
C394 C395 1.398 . S
C394 C398 1.392 . S
C395 C394 1.398 . S
C395 C397 1.372 . S
C395 H412 0.931 . S
C396 C393 1.382 . S
C396 C397 1.390 . S
C396 H413 0.931 . S
C397 C395 1.372 . S
C397 C396 1.390 . S
C397 H414 0.929 . S
C398 C393 1.390 . S
C398 C394 1.392 . S
C398 H415 0.930 . S
C399 O384 1.255 . S
C399 O385 1.257 . S
C400 Eu336 2.787 . S
C400 O380 1.252 . S
C400 O383 1.268 . S
C400 C393 1.506 . S
C401 C368 1.439 . S
C401 H378 0.931 . S
C401 C402 1.374 . S
C402 C373 1.387 . S
C402 H379 0.931 . S
C402 C401 1.374 . S
C403 O387 1.249 . S
C403 O388 1.264 . S
C404 C407 1.382 . S
C404 C408 1.390 . S
C404 C411 1.506 . S
C405 C406 1.398 . S
C405 C408 1.392 . S
C406 C405 1.398 . S
C406 C409 1.372 . S
C406 H416 0.931 . S
C407 C404 1.382 . S
C407 C409 1.390 . S
C407 H417 0.931 . S
C408 C404 1.390 . S
C408 C405 1.392 . S
C408 H418 0.930 . S
C409 C406 1.372 . S
C409 C407 1.390 . S
C409 H419 0.929 . S
C410 O390 1.255 . S
C410 O391 1.257 . S
C411 Eu347 2.787 . S
C411 O386 1.252 . S
C411 O389 1.268 . S
C411 C404 1.506 . S
H412 C395 0.931 . S
H413 C396 0.931 . S
H414 C397 0.929 . S
H415 C398 0.930 . S
H416 C406 0.931 . S
H417 C407 0.931 . S
H418 C408 0.930 . S
H419 C409 0.929 . S
Eu420 N449 2.600 . S
Eu420 N455 2.562 . S
Eu420 O464 2.462 . S
Eu420 O465 2.373 . S
Eu420 O467 2.432 . S
Eu420 O468 2.291 . S
Eu420 O472 2.335 . S
Eu420 O475 2.372 . S
Eu420 C484 2.787 . S
C421 N422 1.365 . S
C421 C424 1.405 . S
C421 C428 1.448 . S
N422 C421 1.365 . S
N422 C425 1.319 . S
N422 Eu431 2.600 . S
C423 C425 1.397 . S
C423 C426 1.367 . S
C423 H443 0.931 . S
C424 C421 1.405 . S
C424 C426 1.403 . S
C424 C430 1.439 . S
C425 N422 1.319 . S
C425 C423 1.397 . S
C425 H436 0.930 . S
C426 C423 1.367 . S
C426 C424 1.403 . S
C426 H447 0.929 . S
C427 C428 1.430 . S
C427 C429 1.387 . S
C427 C433 1.404 . S
C428 C421 1.448 . S
C428 C427 1.430 . S
C428 N432 1.351 . S
C429 C427 1.387 . S
C429 C430 1.374 . S
C429 H444 0.931 . S
C430 C424 1.439 . S
C430 C429 1.374 . S
C430 H445 0.931 . S
Eu431 N422 2.600 . S
Eu431 N432 2.562 . S
Eu431 O466 2.335 . S
Eu431 O469 2.372 . S
Eu431 O470 2.462 . S
Eu431 O471 2.373 . S
Eu431 O473 2.432 . S
Eu431 O474 2.291 . S
Eu431 C495 2.787 . S
N432 C428 1.351 . S
N432 Eu431 2.562 . S
N432 C434 1.325 . S
C433 C427 1.404 . S
C433 C435 1.366 . S
C433 H441 0.930 . S
C434 N432 1.325 . S
C434 C435 1.416 . S
C434 H440 0.929 . S
C435 C433 1.366 . S
C435 C434 1.416 . S
C435 H437 0.930 . S
H436 C425 0.930 . S
H437 C435 0.930 . S
H438 C453 0.930 . S
H439 C460 0.930 . S
H440 C434 0.929 . S
H441 C433 0.930 . S
H442 C456 0.929 . S
H443 C423 0.931 . S
H444 C429 0.931 . S
H445 C430 0.931 . S
H446 C451 0.931 . S
H447 C426 0.929 . S
H448 C459 0.930 . S
N449 Eu420 2.600 . S
N449 C450 1.365 . S
N449 C453 1.319 . S
C450 N449 1.365 . S
C450 C452 1.405 . S
C450 C458 1.448 . S
C451 H446 0.931 . S
C451 C453 1.397 . S
C451 C454 1.367 . S
C452 C450 1.405 . S
C452 C454 1.403 . S
C452 C485 1.439 . S
C453 H438 0.930 . S
C453 N449 1.319 . S
C453 C451 1.397 . S
C454 C451 1.367 . S
C454 C452 1.403 . S
C454 H461 0.929 . S
N455 Eu420 2.562 . S
N455 C456 1.325 . S
N455 C458 1.351 . S
C456 H442 0.929 . S
C456 N455 1.325 . S
C456 C460 1.416 . S
C457 C458 1.430 . S
C457 C459 1.404 . S
C457 C486 1.387 . S
C458 C450 1.448 . S
C458 N455 1.351 . S
C458 C457 1.430 . S
C459 H448 0.930 . S
C459 C457 1.404 . S
C459 C460 1.366 . S
C460 H439 0.930 . S
C460 C456 1.416 . S
C460 C459 1.366 . S
H461 C454 0.929 . S
H462 C485 0.931 . S
H463 C486 0.931 . S
O464 Eu420 2.462 . S
O464 C484 1.252 . S
O465 Eu420 2.373 . S
O465 C476 1.249 . S
O466 Eu431 2.335 . S
O466 C476 1.264 . S
O467 Eu420 2.432 . S
O467 C484 1.268 . S
O468 Eu420 2.291 . S
O468 C483 1.255 . S
O469 Eu431 2.372 . S
O469 C483 1.257 . S
O470 Eu431 2.462 . S
O470 C495 1.252 . S
O471 Eu431 2.373 . S
O471 C487 1.249 . S
O472 Eu420 2.335 . S
O472 C487 1.264 . S
O473 Eu431 2.432 . S
O473 C495 1.268 . S
O474 Eu431 2.291 . S
O474 C494 1.255 . S
O475 Eu420 2.372 . S
O475 C494 1.257 . S
C476 O465 1.249 . S
C476 O466 1.264 . S
C477 C480 1.382 . S
C477 C482 1.390 . S
C477 C484 1.506 . S
C478 C479 1.398 . S
C478 C482 1.392 . S
C479 C478 1.398 . S
C479 C481 1.372 . S
C479 H496 0.931 . S
C480 C477 1.382 . S
C480 C481 1.390 . S
C480 H497 0.931 . S
C481 C479 1.372 . S
C481 C480 1.390 . S
C481 H498 0.929 . S
C482 C477 1.390 . S
C482 C478 1.392 . S
C482 H499 0.930 . S
C483 O468 1.255 . S
C483 O469 1.257 . S
C484 Eu420 2.787 . S
C484 O464 1.252 . S
C484 O467 1.268 . S
C484 C477 1.506 . S
C485 C452 1.439 . S
C485 H462 0.931 . S
C485 C486 1.374 . S
C486 C457 1.387 . S
C486 H463 0.931 . S
C486 C485 1.374 . S
C487 O471 1.249 . S
C487 O472 1.264 . S
C488 C491 1.382 . S
C488 C492 1.390 . S
C488 C495 1.506 . S
C489 C490 1.398 . S
C489 C492 1.392 . S
C490 C489 1.398 . S
C490 C493 1.372 . S
C490 H500 0.931 . S
C491 C488 1.382 . S
C491 C493 1.390 . S
C491 H501 0.931 . S
C492 C488 1.390 . S
C492 C489 1.392 . S
C492 H502 0.930 . S
C493 C490 1.372 . S
C493 C491 1.390 . S
C493 H503 0.929 . S
C494 O474 1.255 . S
C494 O475 1.257 . S
C495 Eu431 2.787 . S
C495 O470 1.252 . S
C495 O473 1.268 . S
C495 C488 1.506 . S
H496 C479 0.931 . S
H497 C480 0.931 . S
H498 C481 0.929 . S
H499 C482 0.930 . S
H500 C490 0.931 . S
H501 C491 0.931 . S
H502 C492 0.930 . S
H503 C493 0.929 . S
Eu504 N533 2.600 . S
Eu504 N539 2.562 . S
Eu504 O548 2.462 . S
Eu504 O549 2.373 . S
Eu504 O551 2.432 . S
Eu504 O552 2.291 . S
Eu504 O556 2.335 . S
Eu504 O559 2.372 . S
Eu504 C568 2.787 . S
C505 N506 1.365 . S
C505 C508 1.405 . S
C505 C512 1.448 . S
N506 C505 1.365 . S
N506 C509 1.319 . S
N506 Eu515 2.600 . S
C507 C509 1.397 . S
C507 C510 1.367 . S
C507 H527 0.931 . S
C508 C505 1.405 . S
C508 C510 1.403 . S
C508 C514 1.439 . S
C509 N506 1.319 . S
C509 C507 1.397 . S
C509 H520 0.930 . S
C510 C507 1.367 . S
C510 C508 1.403 . S
C510 H531 0.929 . S
C511 C512 1.430 . S
C511 C513 1.387 . S
C511 C517 1.404 . S
C512 C505 1.448 . S
C512 C511 1.430 . S
C512 N516 1.351 . S
C513 C511 1.387 . S
C513 C514 1.374 . S
C513 H528 0.931 . S
C514 C508 1.439 . S
C514 C513 1.374 . S
C514 H529 0.931 . S
Eu515 N506 2.600 . S
Eu515 N516 2.562 . S
Eu515 O550 2.335 . S
Eu515 O553 2.372 . S
Eu515 O554 2.462 . S
Eu515 O555 2.373 . S
Eu515 O557 2.432 . S
Eu515 O558 2.291 . S
Eu515 C579 2.787 . S
N516 C512 1.351 . S
N516 Eu515 2.562 . S
N516 C518 1.325 . S
C517 C511 1.404 . S
C517 C519 1.366 . S
C517 H525 0.930 . S
C518 N516 1.325 . S
C518 C519 1.416 . S
C518 H524 0.929 . S
C519 C517 1.366 . S
C519 C518 1.416 . S
C519 H521 0.930 . S
H520 C509 0.930 . S
H521 C519 0.930 . S
H522 C537 0.930 . S
H523 C544 0.930 . S
H524 C518 0.929 . S
H525 C517 0.930 . S
H526 C540 0.929 . S
H527 C507 0.931 . S
H528 C513 0.931 . S
H529 C514 0.931 . S
H530 C535 0.931 . S
H531 C510 0.929 . S
H532 C543 0.930 . S
N533 Eu504 2.600 . S
N533 C534 1.365 . S
N533 C537 1.319 . S
C534 N533 1.365 . S
C534 C536 1.405 . S
C534 C542 1.448 . S
C535 H530 0.931 . S
C535 C537 1.397 . S
C535 C538 1.367 . S
C536 C534 1.405 . S
C536 C538 1.403 . S
C536 C569 1.439 . S
C537 H522 0.930 . S
C537 N533 1.319 . S
C537 C535 1.397 . S
C538 C535 1.367 . S
C538 C536 1.403 . S
C538 H545 0.929 . S
N539 Eu504 2.562 . S
N539 C540 1.325 . S
N539 C542 1.351 . S
C540 H526 0.929 . S
C540 N539 1.325 . S
C540 C544 1.416 . S
C541 C542 1.430 . S
C541 C543 1.404 . S
C541 C570 1.387 . S
C542 C534 1.448 . S
C542 N539 1.351 . S
C542 C541 1.430 . S
C543 H532 0.930 . S
C543 C541 1.404 . S
C543 C544 1.366 . S
C544 H523 0.930 . S
C544 C540 1.416 . S
C544 C543 1.366 . S
H545 C538 0.929 . S
H546 C569 0.931 . S
H547 C570 0.931 . S
O548 Eu504 2.462 . S
O548 C568 1.252 . S
O549 Eu504 2.373 . S
O549 C560 1.249 . S
O550 Eu515 2.335 . S
O550 C560 1.264 . S
O551 Eu504 2.432 . S
O551 C568 1.268 . S
O552 Eu504 2.291 . S
O552 C567 1.255 . S
O553 Eu515 2.372 . S
O553 C567 1.257 . S
O554 Eu515 2.462 . S
O554 C579 1.252 . S
O555 Eu515 2.373 . S
O555 C571 1.249 . S
O556 Eu504 2.335 . S
O556 C571 1.264 . S
O557 Eu515 2.432 . S
O557 C579 1.268 . S
O558 Eu515 2.291 . S
O558 C578 1.255 . S
O559 Eu504 2.372 . S
O559 C578 1.257 . S
C560 O549 1.249 . S
C560 O550 1.264 . S
C561 C564 1.382 . S
C561 C566 1.390 . S
C561 C568 1.506 . S
C562 C563 1.398 . S
C562 C566 1.392 . S
C563 C562 1.398 . S
C563 C565 1.372 . S
C563 H580 0.931 . S
C564 C561 1.382 . S
C564 C565 1.390 . S
C564 H581 0.931 . S
C565 C563 1.372 . S
C565 C564 1.390 . S
C565 H582 0.929 . S
C566 C561 1.390 . S
C566 C562 1.392 . S
C566 H583 0.930 . S
C567 O552 1.255 . S
C567 O553 1.257 . S
C568 Eu504 2.787 . S
C568 O548 1.252 . S
C568 O551 1.268 . S
C568 C561 1.506 . S
C569 C536 1.439 . S
C569 H546 0.931 . S
C569 C570 1.374 . S
C570 C541 1.387 . S
C570 H547 0.931 . S
C570 C569 1.374 . S
C571 O555 1.249 . S
C571 O556 1.264 . S
C572 C575 1.382 . S
C572 C576 1.390 . S
C572 C579 1.506 . S
C573 C574 1.398 . S
C573 C576 1.392 . S
C574 C573 1.398 . S
C574 C577 1.372 . S
C574 H584 0.931 . S
C575 C572 1.382 . S
C575 C577 1.390 . S
C575 H585 0.931 . S
C576 C572 1.390 . S
C576 C573 1.392 . S
C576 H586 0.930 . S
C577 C574 1.372 . S
C577 C575 1.390 . S
C577 H587 0.929 . S
C578 O558 1.255 . S
C578 O559 1.257 . S
C579 Eu515 2.787 . S
C579 O554 1.252 . S
C579 O557 1.268 . S
C579 C572 1.506 . S
H580 C563 0.931 . S
H581 C564 0.931 . S
H582 C565 0.929 . S
H583 C566 0.930 . S
H584 C574 0.931 . S
H585 C575 0.931 . S
H586 C576 0.930 . S
H587 C577 0.929 . S
Eu588 N617 2.600 . S
Eu588 N623 2.562 . S
Eu588 O632 2.462 . S
Eu588 O633 2.373 . S
Eu588 O635 2.432 . S
Eu588 O636 2.291 . S
Eu588 O640 2.335 . S
Eu588 O643 2.372 . S
Eu588 C652 2.787 . S
C589 N590 1.365 . S
C589 C592 1.405 . S
C589 C596 1.448 . S
N590 C589 1.365 . S
N590 C593 1.319 . S
N590 Eu599 2.600 . S
C591 C593 1.397 . S
C591 C594 1.367 . S
C591 H611 0.931 . S
C592 C589 1.405 . S
C592 C594 1.403 . S
C592 C598 1.439 . S
C593 N590 1.319 . S
C593 C591 1.397 . S
C593 H604 0.930 . S
C594 C591 1.367 . S
C594 C592 1.403 . S
C594 H615 0.929 . S
C595 C596 1.430 . S
C595 C597 1.387 . S
C595 C601 1.404 . S
C596 C589 1.448 . S
C596 C595 1.430 . S
C596 N600 1.351 . S
C597 C595 1.387 . S
C597 C598 1.374 . S
C597 H612 0.931 . S
C598 C592 1.439 . S
C598 C597 1.374 . S
C598 H613 0.931 . S
Eu599 N590 2.600 . S
Eu599 N600 2.562 . S
Eu599 O634 2.335 . S
Eu599 O637 2.372 . S
Eu599 O638 2.462 . S
Eu599 O639 2.373 . S
Eu599 O641 2.432 . S
Eu599 O642 2.291 . S
Eu599 C663 2.787 . S
N600 C596 1.351 . S
N600 Eu599 2.562 . S
N600 C602 1.325 . S
C601 C595 1.404 . S
C601 C603 1.366 . S
C601 H609 0.930 . S
C602 N600 1.325 . S
C602 C603 1.416 . S
C602 H608 0.929 . S
C603 C601 1.366 . S
C603 C602 1.416 . S
C603 H605 0.930 . S
H604 C593 0.930 . S
H605 C603 0.930 . S
H606 C621 0.930 . S
H607 C628 0.930 . S
H608 C602 0.929 . S
H609 C601 0.930 . S
H610 C624 0.929 . S
H611 C591 0.931 . S
H612 C597 0.931 . S
H613 C598 0.931 . S
H614 C619 0.931 . S
H615 C594 0.929 . S
H616 C627 0.930 . S
N617 Eu588 2.600 . S
N617 C618 1.365 . S
N617 C621 1.319 . S
C618 N617 1.365 . S
C618 C620 1.405 . S
C618 C626 1.448 . S
C619 H614 0.931 . S
C619 C621 1.397 . S
C619 C622 1.367 . S
C620 C618 1.405 . S
C620 C622 1.403 . S
C620 C653 1.439 . S
C621 H606 0.930 . S
C621 N617 1.319 . S
C621 C619 1.397 . S
C622 C619 1.367 . S
C622 C620 1.403 . S
C622 H629 0.929 . S
N623 Eu588 2.562 . S
N623 C624 1.325 . S
N623 C626 1.351 . S
C624 H610 0.929 . S
C624 N623 1.325 . S
C624 C628 1.416 . S
C625 C626 1.430 . S
C625 C627 1.404 . S
C625 C654 1.387 . S
C626 C618 1.448 . S
C626 N623 1.351 . S
C626 C625 1.430 . S
C627 H616 0.930 . S
C627 C625 1.404 . S
C627 C628 1.366 . S
C628 H607 0.930 . S
C628 C624 1.416 . S
C628 C627 1.366 . S
H629 C622 0.929 . S
H630 C653 0.931 . S
H631 C654 0.931 . S
O632 Eu588 2.462 . S
O632 C652 1.252 . S
O633 Eu588 2.373 . S
O633 C644 1.249 . S
O634 Eu599 2.335 . S
O634 C644 1.264 . S
O635 Eu588 2.432 . S
O635 C652 1.268 . S
O636 Eu588 2.291 . S
O636 C651 1.255 . S
O637 Eu599 2.372 . S
O637 C651 1.257 . S
O638 Eu599 2.462 . S
O638 C663 1.252 . S
O639 Eu599 2.373 . S
O639 C655 1.249 . S
O640 Eu588 2.335 . S
O640 C655 1.264 . S
O641 Eu599 2.432 . S
O641 C663 1.268 . S
O642 Eu599 2.291 . S
O642 C662 1.255 . S
O643 Eu588 2.372 . S
O643 C662 1.257 . S
C644 O633 1.249 . S
C644 O634 1.264 . S
C645 C648 1.382 . S
C645 C650 1.390 . S
C645 C652 1.506 . S
C646 C647 1.398 . S
C646 C650 1.392 . S
C647 C646 1.398 . S
C647 C649 1.372 . S
C647 H664 0.931 . S
C648 C645 1.382 . S
C648 C649 1.390 . S
C648 H665 0.931 . S
C649 C647 1.372 . S
C649 C648 1.390 . S
C649 H666 0.929 . S
C650 C645 1.390 . S
C650 C646 1.392 . S
C650 H667 0.930 . S
C651 O636 1.255 . S
C651 O637 1.257 . S
C652 Eu588 2.787 . S
C652 O632 1.252 . S
C652 O635 1.268 . S
C652 C645 1.506 . S
C653 C620 1.439 . S
C653 H630 0.931 . S
C653 C654 1.374 . S
C654 C625 1.387 . S
C654 H631 0.931 . S
C654 C653 1.374 . S
C655 O639 1.249 . S
C655 O640 1.264 . S
C656 C659 1.382 . S
C656 C660 1.390 . S
C656 C663 1.506 . S
C657 C658 1.398 . S
C657 C660 1.392 . S
C658 C657 1.398 . S
C658 C661 1.372 . S
C658 H668 0.931 . S
C659 C656 1.382 . S
C659 C661 1.390 . S
C659 H669 0.931 . S
C660 C656 1.390 . S
C660 C657 1.392 . S
C660 H670 0.930 . S
C661 C658 1.372 . S
C661 C659 1.390 . S
C661 H671 0.929 . S
C662 O642 1.255 . S
C662 O643 1.257 . S
C663 Eu599 2.787 . S
C663 O638 1.252 . S
C663 O641 1.268 . S
C663 C656 1.506 . S
H664 C647 0.931 . S
H665 C648 0.931 . S
H666 C649 0.929 . S
H667 C650 0.930 . S
H668 C658 0.931 . S
H669 C659 0.931 . S
H670 C660 0.930 . S
H671 C661 0.929 . S
Fe672 O673 1.886 1_455 S
Fe672 O676 1.715 . S
Fe672 O681 2.077 1_455 S
Fe672 O686 1.935 . S
Fe672 O692 2.077 1_455 S
Fe672 O701 1.935 . S
O673 Fe672 1.886 1_655 S
O673 Fe675 1.715 1_545 S
Fe674 O676 1.886 . S
Fe674 O677 1.715 1_545 S
Fe674 O684 1.935 1_545 S
Fe674 O685 2.077 . S
Fe674 O691 1.935 1_545 S
Fe674 O700 2.077 . S
Fe675 O673 1.715 1_565 S
Fe675 O678 1.886 . S
Fe675 O682 1.935 1_565 S
Fe675 O687 2.077 . S
Fe675 O693 1.935 1_565 S
Fe675 O697 2.077 . S
O676 Fe672 1.715 . S
O676 Fe674 1.886 . S
O677 Fe674 1.715 1_565 S
O677 Fe679 1.886 1_455 S
O678 Fe675 1.886 . S
O678 Fe679 1.715 . S
Fe679 O677 1.886 1_655 S
Fe679 O678 1.715 . S
Fe679 O683 2.077 1_655 S
Fe679 O688 1.935 . S
Fe679 O690 2.077 1_655 S
Fe679 O698 1.935 . S
C680 O692 1.381 . S
C680 O693 1.421 . S
O681 Fe672 2.077 1_655 S
O681 C694 1.381 . S
O682 Fe675 1.935 1_545 S
O682 C694 1.421 . S
O683 Fe679 2.077 1_455 S
O683 C699 1.381 . S
O684 Fe674 1.935 1_565 S
O684 C699 1.421 . S
O685 Fe674 2.077 . S
O685 C689 1.381 . S
O686 Fe672 1.935 . S
O686 C689 1.421 . S
O687 Fe675 2.077 . S
O687 C695 1.381 . S
O688 Fe679 1.935 . S
O688 C695 1.421 . S
C689 O685 1.381 . S
C689 O686 1.421 . S
O690 Fe679 2.077 1_455 S
O690 C702 1.381 . S
O691 Fe674 1.935 1_565 S
O691 C702 1.421 . S
O692 Fe672 2.077 1_655 S
O692 C680 1.381 . S
O693 Fe675 1.935 1_545 S
O693 C680 1.421 . S
C694 O681 1.381 . S
C694 O682 1.421 . S
C695 O687 1.381 . S
C695 O688 1.421 . S
C696 O697 1.381 . S
C696 O698 1.421 . S
O697 Fe675 2.077 . S
O697 C696 1.381 . S
O698 Fe679 1.935 . S
O698 C696 1.421 . S
C699 O683 1.381 . S
C699 O684 1.421 . S
O700 Fe674 2.077 . S
O700 C703 1.381 . S
O701 Fe672 1.935 . S
O701 C703 1.421 . S
C702 O690 1.381 . S
C702 O691 1.421 . S
C703 O700 1.381 . S
C703 O701 1.421 . S
Fe704 O705 1.886 . S
Fe704 O708 1.714 . S
Fe704 O713 2.077 . S
Fe704 O718 1.935 . S
Fe704 O724 2.077 1_556 S
Fe704 O733 1.935 1_556 S
O705 Fe704 1.886 . S
O705 Fe707 1.715 1_565 S
Fe706 O708 1.886 1_554 S
Fe706 O709 1.715 1_565 S
Fe706 O716 1.935 1_564 S
Fe706 O717 2.077 1_554 S
Fe706 O723 1.935 1_565 S
Fe706 O732 2.077 . S
Fe707 O705 1.715 1_545 S
Fe707 O710 1.888 1_556 S
Fe707 O714 1.935 1_545 S
Fe707 O719 2.077 . S
Fe707 O725 1.935 1_546 S
Fe707 O729 2.077 1_556 S
O708 Fe704 1.714 . S
O708 Fe706 1.886 1_556 S
O709 Fe706 1.715 1_545 S
O709 Fe711 1.886 . S
O710 Fe707 1.888 1_554 S
O710 Fe711 1.713 . S
Fe711 O709 1.886 . S
Fe711 O710 1.713 . S
Fe711 O715 2.077 1_554 S
Fe711 O720 1.935 1_554 S
Fe711 O722 2.077 . S
Fe711 O730 1.935 . S
C712 O724 1.381 . S
C712 O725 1.421 . S
O713 Fe704 2.077 . S
O713 C726 1.381 . S
O714 Fe707 1.935 1_565 S
O714 C726 1.421 . S
O715 Fe711 2.077 1_556 S
O715 C731 1.381 . S
O716 Fe706 1.935 1_546 S
O716 C731 1.421 . S
O717 Fe706 2.077 1_556 S
O717 C721 1.381 . S
O718 Fe704 1.935 . S
O718 C721 1.421 . S
O719 Fe707 2.077 . S
O719 C727 1.381 . S
O720 Fe711 1.935 1_556 S
O720 C727 1.421 . S
C721 O717 1.381 . S
C721 O718 1.421 . S
O722 Fe711 2.077 . S
O722 C734 1.381 . S
O723 Fe706 1.935 1_545 S
O723 C734 1.421 . S
O724 Fe704 2.077 1_554 S
O724 C712 1.381 . S
O725 Fe707 1.935 1_564 S
O725 C712 1.421 . S
C726 O713 1.381 . S
C726 O714 1.421 . S
C727 O719 1.381 . S
C727 O720 1.421 . S
C728 O729 1.381 . S
C728 O730 1.421 . S
O729 Fe707 2.077 1_554 S
O729 C728 1.381 . S
O730 Fe711 1.935 . S
O730 C728 1.421 . S
C731 O715 1.381 . S
C731 O716 1.421 . S
O732 Fe706 2.077 . S
O732 C735 1.381 . S
O733 Fe704 1.935 1_554 S
O733 C735 1.421 . S
C734 O722 1.381 . S
C734 O723 1.421 . S
C735 O732 1.381 . S
C735 O733 1.421 . S
Fe736 O737 1.886 1_455 S
Fe736 O740 1.713 . S
Fe736 O745 2.077 1_454 S
Fe736 O750 1.935 1_554 S
Fe736 O756 2.077 1_455 S
Fe736 O765 1.935 . S
O737 Fe736 1.886 1_655 S
O737 Fe739 1.715 . S
Fe738 O740 1.888 1_556 S
Fe738 O741 1.715 . S
Fe738 O748 1.935 . S
Fe738 O749 2.077 . S
Fe738 O755 1.935 1_556 S
Fe738 O764 2.077 1_556 S
Fe739 O737 1.715 . S
Fe739 O742 1.886 1_554 S
Fe739 O746 1.935 1_554 S
Fe739 O751 2.077 1_554 S
Fe739 O757 1.935 . S
Fe739 O761 2.077 . S
O740 Fe736 1.713 . S
O740 Fe738 1.888 1_554 S
O741 Fe738 1.715 . S
O741 Fe743 1.886 1_455 S
O742 Fe739 1.886 1_556 S
O742 Fe743 1.715 . S
Fe743 O741 1.886 1_655 S
Fe743 O742 1.715 . S
Fe743 O747 2.077 1_655 S
Fe743 O752 1.935 . S
Fe743 O754 2.077 1_656 S
Fe743 O762 1.935 1_556 S
C744 O756 1.381 . S
C744 O757 1.421 . S
O745 Fe736 2.077 1_656 S
O745 C758 1.381 . S
O746 Fe739 1.935 1_556 S
O746 C758 1.421 . S
O747 Fe743 2.077 1_455 S
O747 C763 1.381 . S
O748 Fe738 1.935 . S
O748 C763 1.421 . S
O749 Fe738 2.077 . S
O749 C753 1.381 . S
O750 Fe736 1.935 1_556 S
O750 C753 1.421 . S
O751 Fe739 2.077 1_556 S
O751 C759 1.381 . S
O752 Fe743 1.935 . S
O752 C759 1.421 . S
C753 O749 1.381 . S
C753 O750 1.421 . S
O754 Fe743 2.077 1_454 S
O754 C766 1.381 . S
O755 Fe738 1.935 1_554 S
O755 C766 1.421 . S
O756 Fe736 2.077 1_655 S
O756 C744 1.381 . S
O757 Fe739 1.935 . S
O757 C744 1.421 . S
C758 O745 1.381 . S
C758 O746 1.421 . S
C759 O751 1.381 . S
C759 O752 1.421 . S
C760 O761 1.381 . S
C760 O762 1.421 . S
O761 Fe739 2.077 . S
O761 C760 1.381 . S
O762 Fe743 1.935 1_554 S
O762 C760 1.421 . S
C763 O747 1.381 . S
C763 O748 1.421 . S
O764 Fe738 2.077 1_554 S
O764 C767 1.381 . S
O765 Fe736 1.935 . S
O765 C767 1.421 . S
C766 O754 1.381 . S
C766 O755 1.421 . S
C767 O764 1.381 . S
C767 O765 1.421 . S
Fe768 O769 1.886 . S
Fe768 O772 1.715 . S
Fe768 O777 2.077 . S
Fe768 O782 1.935 . S
Fe768 O788 2.077 . S
Fe768 O797 1.935 . S
O769 Fe768 1.886 . S
O769 Fe771 1.715 . S
Fe770 O772 1.886 1_554 S
Fe770 O773 1.715 . S
Fe770 O780 1.935 . S
Fe770 O781 2.077 1_554 S
Fe770 O787 1.935 . S
Fe770 O796 2.077 1_554 S
Fe771 O769 1.715 . S
Fe771 O774 1.886 1_556 S
Fe771 O778 1.935 . S
Fe771 O783 2.077 1_556 S
Fe771 O789 1.935 . S
Fe771 O793 2.077 1_556 S
O772 Fe768 1.715 . S
O772 Fe770 1.886 1_556 S
O773 Fe770 1.715 . S
O773 Fe775 1.886 . S
O774 Fe771 1.886 1_554 S
O774 Fe775 1.715 . S
Fe775 O773 1.886 . S
Fe775 O774 1.715 . S
Fe775 O779 2.077 . S
Fe775 O784 1.935 . S
Fe775 O786 2.077 . S
Fe775 O794 1.935 . S
C776 O788 1.381 . S
C776 O789 1.421 . S
O777 Fe768 2.077 . S
O777 C790 1.381 . S
O778 Fe771 1.935 . S
O778 C790 1.421 . S
O779 Fe775 2.077 . S
O779 C795 1.381 . S
O780 Fe770 1.935 . S
O780 C795 1.421 . S
O781 Fe770 2.077 1_556 S
O781 C785 1.381 . S
O782 Fe768 1.935 . S
O782 C785 1.421 . S
O783 Fe771 2.077 1_554 S
O783 C791 1.381 . S
O784 Fe775 1.935 . S
O784 C791 1.421 . S
C785 O781 1.381 . S
C785 O782 1.421 . S
O786 Fe775 2.077 . S
O786 C798 1.381 . S
O787 Fe770 1.935 . S
O787 C798 1.421 . S
O788 Fe768 2.077 . S
O788 C776 1.381 . S
O789 Fe771 1.935 . S
O789 C776 1.421 . S
C790 O777 1.381 . S
C790 O778 1.421 . S
C791 O783 1.381 . S
C791 O784 1.421 . S
C792 O793 1.381 . S
C792 O794 1.421 . S
O793 Fe771 2.077 1_554 S
O793 C792 1.381 . S
O794 Fe775 1.935 . S
O794 C792 1.421 . S
C795 O779 1.381 . S
C795 O780 1.421 . S
O796 Fe770 2.077 1_556 S
O796 C799 1.381 . S
O797 Fe768 1.935 . S
O797 C799 1.421 . S
C798 O786 1.381 . S
C798 O787 1.421 . S
C799 O796 1.381 . S
C799 O797 1.421 . S
Fe800 O801 1.886 . S
Fe800 O804 1.715 . S
Fe800 O809 2.077 1_655 S
Fe800 O814 1.935 1_655 S
Fe800 O820 2.077 . S
Fe800 O829 1.935 . S
O801 Fe800 1.886 . S
O801 Fe803 1.715 . S
Fe802 O804 1.886 1_455 S
Fe802 O805 1.715 . S
Fe802 O812 1.935 . S
Fe802 O813 2.077 . S
Fe802 O819 1.935 1_455 S
Fe802 O828 2.077 1_455 S
Fe803 O801 1.715 . S
Fe803 O806 1.886 1_655 S
Fe803 O810 1.935 1_655 S
Fe803 O815 2.077 1_655 S
Fe803 O821 1.935 . S
Fe803 O825 2.077 . S
O804 Fe800 1.715 . S
O804 Fe802 1.886 1_655 S
O805 Fe802 1.715 . S
O805 Fe807 1.886 . S
O806 Fe803 1.886 1_455 S
O806 Fe807 1.715 . S
Fe807 O805 1.886 . S
Fe807 O806 1.715 . S
Fe807 O811 2.077 . S
Fe807 O816 1.935 . S
Fe807 O818 2.077 1_455 S
Fe807 O826 1.935 1_455 S
C808 O820 1.381 . S
C808 O821 1.421 . S
O809 Fe800 2.077 1_455 S
O809 C822 1.381 . S
O810 Fe803 1.935 1_455 S
O810 C822 1.421 . S
O811 Fe807 2.077 . S
O811 C827 1.381 . S
O812 Fe802 1.935 . S
O812 C827 1.421 . S
O813 Fe802 2.077 . S
O813 C817 1.381 . S
O814 Fe800 1.935 1_455 S
O814 C817 1.421 . S
O815 Fe803 2.077 1_455 S
O815 C823 1.381 . S
O816 Fe807 1.935 . S
O816 C823 1.421 . S
C817 O813 1.381 . S
C817 O814 1.421 . S
O818 Fe807 2.077 1_655 S
O818 C830 1.381 . S
O819 Fe802 1.935 1_655 S
O819 C830 1.421 . S
O820 Fe800 2.077 . S
O820 C808 1.381 . S
O821 Fe803 1.935 . S
O821 C808 1.421 . S
C822 O809 1.381 . S
C822 O810 1.421 . S
C823 O815 1.381 . S
C823 O816 1.421 . S
C824 O825 1.381 . S
C824 O826 1.421 . S
O825 Fe803 2.077 . S
O825 C824 1.381 . S
O826 Fe807 1.935 1_655 S
O826 C824 1.421 . S
C827 O811 1.381 . S
C827 O812 1.421 . S
O828 Fe802 2.077 1_655 S
O828 C831 1.381 . S
O829 Fe800 1.935 . S
O829 C831 1.421 . S
C830 O818 1.381 . S
C830 O819 1.421 . S
C831 O828 1.381 . S
C831 O829 1.421 . S
Fe832 O833 1.886 . S
Fe832 O836 1.715 . S
Fe832 O841 2.077 . S
Fe832 O846 1.935 . S
Fe832 O852 2.077 . S
Fe832 O861 1.935 . S
O833 Fe832 1.886 . S
O833 Fe835 1.715 1_565 S
Fe834 O836 1.886 . S
Fe834 O837 1.715 1_565 S
Fe834 O844 1.935 1_565 S
Fe834 O845 2.077 . S
Fe834 O851 1.935 1_565 S
Fe834 O860 2.077 . S
Fe835 O833 1.715 1_545 S
Fe835 O838 1.886 . S
Fe835 O842 1.935 1_545 S
Fe835 O847 2.077 . S
Fe835 O853 1.935 1_545 S
Fe835 O857 2.077 . S
O836 Fe832 1.715 . S
O836 Fe834 1.886 . S
O837 Fe834 1.715 1_545 S
O837 Fe839 1.886 . S
O838 Fe835 1.886 . S
O838 Fe839 1.715 . S
Fe839 O837 1.886 . S
Fe839 O838 1.715 . S
Fe839 O843 2.077 . S
Fe839 O848 1.935 . S
Fe839 O850 2.077 . S
Fe839 O858 1.935 . S
C840 O852 1.381 . S
C840 O853 1.421 . S
O841 Fe832 2.077 . S
O841 C854 1.381 . S
O842 Fe835 1.935 1_565 S
O842 C854 1.421 . S
O843 Fe839 2.077 . S
O843 C859 1.381 . S
O844 Fe834 1.935 1_545 S
O844 C859 1.421 . S
O845 Fe834 2.077 . S
O845 C849 1.381 . S
O846 Fe832 1.935 . S
O846 C849 1.421 . S
O847 Fe835 2.077 . S
O847 C855 1.381 . S
O848 Fe839 1.935 . S
O848 C855 1.421 . S
C849 O845 1.381 . S
C849 O846 1.421 . S
O850 Fe839 2.077 . S
O850 C862 1.381 . S
O851 Fe834 1.935 1_545 S
O851 C862 1.421 . S
O852 Fe832 2.077 . S
O852 C840 1.381 . S
O853 Fe835 1.935 1_565 S
O853 C840 1.421 . S
C854 O841 1.381 . S
C854 O842 1.421 . S
C855 O847 1.381 . S
C855 O848 1.421 . S
C856 O857 1.381 . S
C856 O858 1.421 . S
O857 Fe835 2.077 . S
O857 C856 1.381 . S
O858 Fe839 1.935 . S
O858 C856 1.421 . S
C859 O843 1.381 . S
C859 O844 1.421 . S
O860 Fe834 2.077 . S
O860 C863 1.381 . S
O861 Fe832 1.935 . S
O861 C863 1.421 . S
C862 O850 1.381 . S
C862 O851 1.421 . S
C863 O860 1.381 . S
C863 O861 1.421 . S
C864 C865 1.369 . S
C864 C866 1.419 . S
C864 H868 0.930 . S
C865 C864 1.369 . S
C865 C874 1.429 . S
C866 C864 1.419 . S
C866 C867 1.363 . S
C866 H869 0.929 . S
C867 C866 1.363 . S
C867 C873 1.428 . S
H868 C864 0.930 . S
H869 C866 0.929 . S
S870 N871 1.613 . S
S870 N872 1.610 . S
N871 S870 1.613 . S
N871 C874 1.350 . S
N872 S870 1.610 . S
N872 C873 1.351 . S
C873 C867 1.428 . S
C873 N872 1.351 . S
C873 C874 1.434 . S
C874 C865 1.429 . S
C874 N871 1.350 . S
C874 C873 1.434 . S
C875 C876 1.369 . S
C875 C877 1.419 . S
C875 H879 0.930 . S
C876 C875 1.369 . S
C876 C885 1.429 . S
C877 C875 1.419 . S
C877 C878 1.363 . S
C877 H880 0.929 . S
C878 C877 1.363 . S
C878 C884 1.428 . S
H879 C875 0.930 . S
H880 C877 0.929 . S
S881 N882 1.613 1_455 S
S881 N883 1.610 1_455 S
N882 S881 1.613 1_655 S
N882 C885 1.350 . S
N883 S881 1.610 1_655 S
N883 C884 1.351 . S
C884 C878 1.428 . S
C884 N883 1.351 . S
C884 C885 1.434 . S
C885 C876 1.429 . S
C885 N882 1.350 . S
C885 C884 1.434 . S
C886 C887 1.369 . S
C886 C888 1.419 . S
C886 H890 0.930 . S
C887 C886 1.369 . S
C887 C896 1.429 . S
C888 C886 1.419 . S
C888 C889 1.363 . S
C888 H891 0.929 . S
C889 C888 1.363 . S
C889 C895 1.428 . S
H890 C886 0.930 . S
H891 C888 0.929 . S
S892 N893 1.613 . S
S892 N894 1.610 . S
N893 S892 1.613 . S
N893 C896 1.350 . S
N894 S892 1.610 . S
N894 C895 1.351 . S
C895 C889 1.428 . S
C895 N894 1.351 . S
C895 C896 1.434 . S
C896 C887 1.429 . S
C896 N893 1.350 . S
C896 C895 1.434 . S
C897 C898 1.369 . S
C897 C899 1.419 . S
C897 H901 0.930 . S
C898 C897 1.369 . S
C898 C907 1.429 . S
C899 C897 1.419 . S
C899 C900 1.363 . S
C899 H902 0.929 . S
C900 C899 1.363 . S
C900 C906 1.428 . S
H901 C897 0.930 . S
H902 C899 0.929 . S
S903 N904 1.613 . S
S903 N905 1.610 . S
N904 S903 1.613 . S
N904 C907 1.350 . S
N905 S903 1.610 . S
N905 C906 1.351 . S
C906 C900 1.428 . S
C906 N905 1.351 . S
C906 C907 1.434 . S
C907 C898 1.429 . S
C907 N904 1.350 . S
C907 C906 1.434 . S
C908 C909 1.369 . S
C908 C910 1.419 . S
C908 H912 0.930 . S
C909 C908 1.369 . S
C909 C918 1.429 . S
C910 C908 1.419 . S
C910 C911 1.363 . S
C910 H913 0.929 . S
C911 C910 1.363 . S
C911 C917 1.428 . S
H912 C908 0.930 . S
H913 C910 0.929 . S
S914 N915 1.613 . S
S914 N916 1.610 . S
N915 S914 1.613 . S
N915 C918 1.350 . S
N916 S914 1.610 . S
N916 C917 1.351 . S
C917 C911 1.428 . S
C917 N916 1.351 . S
C917 C918 1.434 . S
C918 C909 1.429 . S
C918 N915 1.350 . S
C918 C917 1.434 . S
C919 C920 1.369 . S
C919 C921 1.419 . S
C919 H923 0.930 . S
C920 C919 1.369 . S
C920 C929 1.429 . S
C921 C919 1.419 . S
C921 C922 1.363 . S
C921 H924 0.929 . S
C922 C921 1.363 . S
C922 C928 1.428 . S
H923 C919 0.930 . S
H924 C921 0.929 . S
S925 N926 1.613 . S
S925 N927 1.610 . S
N926 S925 1.613 . S
N926 C929 1.350 . S
N927 S925 1.610 . S
N927 C928 1.351 . S
C928 C922 1.428 . S
C928 N927 1.351 . S
C928 C929 1.434 . S
C929 C920 1.429 . S
C929 N926 1.350 . S
C929 C928 1.434 . S
C930 C931 1.369 . S
C930 C932 1.419 . S
C930 H934 0.930 . S
C931 C930 1.369 . S
C931 C940 1.429 . S
C932 C930 1.419 . S
C932 C933 1.363 . S
C932 H935 0.929 . S
C933 C932 1.363 . S
C933 C939 1.428 . S
H934 C930 0.930 . S
H935 C932 0.929 . S
S936 N937 1.613 . S
S936 N938 1.610 . S
N937 S936 1.613 . S
N937 C940 1.350 . S
N938 S936 1.610 . S
N938 C939 1.351 . S
C939 C933 1.428 . S
C939 N938 1.351 . S
C939 C940 1.434 . S
C940 C931 1.429 . S
C940 N937 1.350 . S
C940 C939 1.434 . S
C941 C942 1.369 . S
C941 C943 1.419 . S
C941 H945 0.930 . S
C942 C941 1.369 . S
C942 C951 1.429 . S
C943 C941 1.419 . S
C943 C944 1.363 . S
C943 H946 0.929 . S
C944 C943 1.363 . S
C944 C950 1.428 . S
H945 C941 0.930 . S
H946 C943 0.929 . S
S947 N948 1.613 . S
S947 N949 1.610 . S
N948 S947 1.613 . S
N948 C951 1.350 . S
N949 S947 1.610 . S
N949 C950 1.351 . S
C950 C944 1.428 . S
C950 N949 1.351 . S
C950 C951 1.434 . S
C951 C942 1.429 . S
C951 N948 1.350 . S
C951 C950 1.434 . S
C952 C953 1.369 . S
C952 C954 1.419 . S
C952 H956 0.930 . S
C953 C952 1.369 . S
C953 C962 1.429 . S
C954 C952 1.419 . S
C954 C955 1.363 . S
C954 H957 0.929 . S
C955 C954 1.363 . S
C955 C961 1.428 . S
H956 C952 0.930 . S
H957 C954 0.929 . S
S958 N959 1.613 . S
S958 N960 1.610 . S
N959 S958 1.613 . S
N959 C962 1.350 . S
N960 S958 1.610 . S
N960 C961 1.351 . S
C961 C955 1.428 . S
C961 N960 1.351 . S
C961 C962 1.434 . S
C962 C953 1.429 . S
C962 N959 1.350 . S
C962 C961 1.434 . S
C963 C964 1.369 . S
C963 C965 1.419 . S
C963 H967 0.930 . S
C964 C963 1.369 . S
C964 C973 1.429 . S
C965 C963 1.419 . S
C965 C966 1.363 . S
C965 H968 0.929 . S
C966 C965 1.363 . S
C966 C972 1.428 . S
H967 C963 0.930 . S
H968 C965 0.929 . S
S969 N970 1.613 . S
S969 N971 1.610 . S
N970 S969 1.613 . S
N970 C973 1.350 . S
N971 S969 1.610 . S
N971 C972 1.351 . S
C972 C966 1.428 . S
C972 N971 1.351 . S
C972 C973 1.434 . S
C973 C964 1.429 . S
C973 N970 1.350 . S
C973 C972 1.434 . S
C974 C975 1.369 . S
C974 C976 1.419 . S
C974 H978 0.930 . S
C975 C974 1.369 . S
C975 C984 1.429 . S
C976 C974 1.419 . S
C976 C977 1.363 . S
C976 H979 0.929 . S
C977 C976 1.363 . S
C977 C983 1.428 . S
H978 C974 0.930 . S
H979 C976 0.929 . S
S980 N981 1.613 1_545 S
S980 N982 1.610 1_545 S
N981 S980 1.613 1_565 S
N981 C984 1.350 . S
N982 S980 1.610 1_565 S
N982 C983 1.351 . S
C983 C977 1.428 . S
C983 N982 1.351 . S
C983 C984 1.434 . S
C984 C975 1.429 . S
C984 N981 1.350 . S
C984 C983 1.434 . S
C985 C986 1.369 . S
C985 C987 1.419 . S
C985 H989 0.930 . S
C986 C985 1.369 . S
C986 C995 1.429 . S
C987 C985 1.419 . S
C987 C988 1.363 . S
C987 H990 0.929 . S
C988 C987 1.363 . S
C988 C994 1.428 . S
H989 C985 0.930 . S
H990 C987 0.929 . S
S991 N992 1.613 . S
S991 N993 1.610 . S
N992 S991 1.613 . S
N992 C995 1.350 . S
N993 S991 1.610 . S
N993 C994 1.351 . S
C994 C988 1.428 . S
C994 N993 1.351 . S
C994 C995 1.434 . S
C995 C986 1.429 . S
C995 N992 1.350 . S
C995 C994 1.434 . S
C996 C997 1.369 . S
C996 C998 1.419 . S
C996 H1000 0.930 . S
C997 C996 1.369 . S
C997 C1006 1.429 . S
C998 C996 1.419 . S
C998 C999 1.363 . S
C998 H1001 0.929 . S
C999 C998 1.363 . S
C999 C1005 1.428 . S
H1000 C996 0.930 . S
H1001 C998 0.929 . S
S1002 N1003 1.613 . S
S1002 N1004 1.610 . S
N1003 S1002 1.613 . S
N1003 C1006 1.350 . S
N1004 S1002 1.610 . S
N1004 C1005 1.351 . S
C1005 C999 1.428 . S
C1005 N1004 1.351 . S
C1005 C1006 1.434 . S
C1006 C997 1.429 . S
C1006 N1003 1.350 . S
C1006 C1005 1.434 . S
C1007 C1008 1.369 . S
C1007 C1009 1.419 . S
C1007 H1011 0.930 . S
C1008 C1007 1.369 . S
C1008 C1017 1.429 . S
C1009 C1007 1.419 . S
C1009 C1010 1.363 . S
C1009 H1012 0.929 . S
C1010 C1009 1.363 . S
C1010 C1016 1.428 . S
H1011 C1007 0.930 . S
H1012 C1009 0.929 . S
S1013 N1014 1.613 . S
S1013 N1015 1.610 . S
N1014 S1013 1.613 . S
N1014 C1017 1.350 . S
N1015 S1013 1.610 . S
N1015 C1016 1.351 . S
C1016 C1010 1.428 . S
C1016 N1015 1.351 . S
C1016 C1017 1.434 . S
C1017 C1008 1.429 . S
C1017 N1014 1.350 . S
C1017 C1016 1.434 . S
C1018 C1019 1.369 . S
C1018 C1020 1.419 . S
C1018 H1022 0.930 . S
C1019 C1018 1.369 . S
C1019 C1028 1.429 . S
C1020 C1018 1.419 . S
C1020 C1021 1.363 . S
C1020 H1023 0.929 . S
C1021 C1020 1.363 . S
C1021 C1027 1.428 . S
H1022 C1018 0.930 . S
H1023 C1020 0.929 . S
S1024 N1025 1.613 . S
S1024 N1026 1.610 . S
N1025 S1024 1.613 . S
N1025 C1028 1.350 . S
N1026 S1024 1.610 . S
N1026 C1027 1.351 . S
C1027 C1021 1.428 . S
C1027 N1026 1.351 . S
C1027 C1028 1.434 . S
C1028 C1019 1.429 . S
C1028 N1025 1.350 . S
C1028 C1027 1.434 . S
C1029 C1030 1.369 . S
C1029 C1031 1.419 . S
C1029 H1033 0.930 . S
C1030 C1029 1.369 . S
C1030 C1039 1.429 . S
C1031 C1029 1.419 . S
C1031 C1032 1.363 . S
C1031 H1034 0.929 . S
C1032 C1031 1.363 . S
C1032 C1038 1.428 . S
H1033 C1029 0.930 . S
H1034 C1031 0.929 . S
S1035 N1036 1.637 . S
S1035 N1037 1.608 . S
N1036 S1035 1.637 . S
N1036 C1039 1.350 . S
N1037 S1035 1.608 . S
N1037 C1038 1.351 . S
C1038 C1032 1.428 . S
C1038 N1037 1.351 . S
C1038 C1039 1.434 . S
C1039 C1030 1.429 . S
C1039 N1036 1.350 . S
C1039 C1038 1.434 . S
C1040 C1041 1.369 . S
C1040 C1042 1.419 . S
C1040 H1044 0.930 . S
C1041 C1040 1.369 . S
C1041 C1050 1.429 . S
C1042 C1040 1.419 . S
C1042 C1043 1.363 . S
C1042 H1045 0.929 . S
C1043 C1042 1.363 . S
C1043 C1049 1.428 . S
H1044 C1040 0.930 . S
H1045 C1042 0.929 . S
S1046 N1047 1.613 1_655 S
S1046 N1048 1.610 . S
N1047 S1046 1.613 1_455 S
N1047 C1050 1.350 . S
N1048 S1046 1.610 . S
N1048 C1049 1.323 1_655 S
C1049 C1043 1.428 . S
C1049 N1048 1.323 1_455 S
C1049 C1050 1.434 . S
C1050 C1041 1.429 . S
C1050 N1047 1.350 . S
C1050 C1049 1.434 . S
C1051 C1052 1.369 . S
C1051 C1053 1.419 . S
C1051 H1055 0.930 . S
C1052 C1051 1.369 . S
C1052 C1061 1.429 . S
C1053 C1051 1.419 . S
C1053 C1054 1.363 . S
C1053 H1056 0.929 . S
C1054 C1053 1.363 . S
C1054 C1060 1.428 . S
H1055 C1051 0.930 . S
H1056 C1053 0.929 . S
S1057 N1058 1.613 . S
S1057 N1059 1.610 . S
N1058 S1057 1.613 . S
N1058 C1061 1.350 . S
N1059 S1057 1.610 . S
N1059 C1060 1.351 . S
C1060 C1054 1.428 . S
C1060 N1059 1.351 . S
C1060 C1061 1.434 . S
C1061 C1052 1.429 . S
C1061 N1058 1.350 . S
C1061 C1060 1.434 . S
C1062 C1063 1.369 . S
C1062 C1064 1.419 . S
C1062 H1066 0.930 . S
C1063 C1062 1.369 . S
C1063 C1072 1.429 . S
C1064 C1062 1.419 . S
C1064 C1065 1.363 . S
C1064 H1067 0.929 . S
C1065 C1064 1.363 . S
C1065 C1071 1.428 . S
H1066 C1062 0.930 . S
H1067 C1064 0.929 . S
S1068 N1069 1.613 . S
S1068 N1070 1.610 . S
N1069 S1068 1.613 . S
N1069 C1072 1.350 . S
N1070 S1068 1.610 . S
N1070 C1071 1.351 . S
C1071 C1065 1.428 . S
C1071 N1070 1.351 . S
C1071 C1072 1.434 . S
C1072 C1063 1.429 . S
C1072 N1069 1.350 . S
C1072 C1071 1.434 . S
C1073 C1074 1.369 . S
C1073 C1075 1.419 . S
C1073 H1077 0.930 . S
C1074 C1073 1.369 . S
C1074 C1083 1.429 . S
C1075 C1073 1.419 . S
C1075 C1076 1.363 . S
C1075 H1078 0.929 . S
C1076 C1075 1.363 . S
C1076 C1082 1.428 . S
H1077 C1073 0.930 . S
H1078 C1075 0.929 . S
S1079 N1080 1.613 . S
S1079 N1081 1.610 . S
N1080 S1079 1.613 . S
N1080 C1083 1.350 . S
N1081 S1079 1.610 . S
N1081 C1082 1.351 . S
C1082 C1076 1.428 . S
C1082 N1081 1.351 . S
C1082 C1083 1.434 . S
C1083 C1074 1.429 . S
C1083 N1080 1.350 . S
C1083 C1082 1.434 . S
C1084 C1085 1.369 . S
C1084 C1086 1.419 . S
C1084 H1088 0.930 . S
C1085 C1084 1.369 . S
C1085 C1094 1.429 . S
C1086 C1084 1.419 . S
C1086 C1087 1.363 . S
C1086 H1089 0.929 . S
C1087 C1086 1.363 . S
C1087 C1093 1.428 . S
H1088 C1084 0.930 . S
H1089 C1086 0.929 . S
S1090 N1091 1.613 . S
S1090 N1092 1.610 . S
N1091 S1090 1.613 . S
N1091 C1094 1.350 . S
N1092 S1090 1.610 . S
N1092 C1093 1.351 . S
C1093 C1087 1.428 . S
C1093 N1092 1.351 . S
C1093 C1094 1.434 . S
C1094 C1085 1.429 . S
C1094 N1091 1.350 . S
C1094 C1093 1.434 . S
C1095 C1096 1.369 . S
C1095 C1097 1.419 . S
C1095 H1099 0.930 . S
C1096 C1095 1.369 . S
C1096 C1105 1.429 . S
C1097 C1095 1.419 . S
C1097 C1098 1.363 . S
C1097 H1100 0.929 . S
C1098 C1097 1.363 . S
C1098 C1104 1.428 . S
H1099 C1095 0.930 . S
H1100 C1097 0.929 . S
S1101 N1102 1.613 . S
S1101 N1103 1.610 . S
N1102 S1101 1.613 . S
N1102 C1105 1.350 . S
N1103 S1101 1.610 . S
N1103 C1104 1.351 . S
C1104 C1098 1.428 . S
C1104 N1103 1.351 . S
C1104 C1105 1.434 . S
C1105 C1096 1.429 . S
C1105 N1102 1.350 . S
C1105 C1104 1.434 . S
C1106 C1107 1.369 . S
C1106 C1108 1.419 . S
C1106 H1110 0.930 . S
C1107 C1106 1.369 . S
C1107 C1116 1.429 . S
C1108 C1106 1.419 . S
C1108 C1109 1.363 . S
C1108 H1111 0.929 . S
C1109 C1108 1.363 . S
C1109 C1115 1.428 . S
H1110 C1106 0.930 . S
H1111 C1108 0.929 . S
S1112 N1113 1.613 . S
S1112 N1114 1.610 . S
N1113 S1112 1.613 . S
N1113 C1116 1.350 . S
N1114 S1112 1.610 . S
N1114 C1115 1.351 . S
C1115 C1109 1.428 . S
C1115 N1114 1.351 . S
C1115 C1116 1.434 . S
C1116 C1107 1.429 . S
C1116 N1113 1.350 . S
C1116 C1115 1.434 . S
C1117 C1118 1.369 . S
C1117 C1119 1.419 . S
C1117 H1121 0.930 . S
C1118 C1117 1.369 . S
C1118 C1127 1.429 . S
C1119 C1117 1.419 . S
C1119 C1120 1.363 . S
C1119 H1122 0.929 . S
C1120 C1119 1.363 . S
C1120 C1126 1.428 . S
H1121 C1117 0.930 . S
H1122 C1119 0.929 . S
S1123 N1124 1.613 . S
S1123 N1125 1.610 . S
N1124 S1123 1.613 . S
N1124 C1127 1.350 . S
N1125 S1123 1.610 . S
N1125 C1126 1.351 . S
C1126 C1120 1.428 . S
C1126 N1125 1.351 . S
C1126 C1127 1.434 . S
C1127 C1118 1.429 . S
C1127 N1124 1.350 . S
C1127 C1126 1.434 . S
C1128 C1129 1.369 . S
C1128 C1130 1.419 . S
C1128 H1132 0.930 . S
C1129 C1128 1.369 . S
C1129 C1138 1.429 . S
C1130 C1128 1.419 . S
C1130 C1131 1.363 . S
C1130 H1133 0.929 . S
C1131 C1130 1.363 . S
C1131 C1137 1.428 . S
H1132 C1128 0.930 . S
H1133 C1130 0.929 . S
S1134 N1135 1.613 . S
S1134 N1136 1.610 . S
N1135 S1134 1.613 . S
N1135 C1138 1.350 . S
N1136 S1134 1.610 . S
N1136 C1137 1.351 . S
C1137 C1131 1.428 . S
C1137 N1136 1.351 . S
C1137 C1138 1.434 . S
C1138 C1129 1.429 . S
C1138 N1135 1.350 . S
C1138 C1137 1.434 . S
C1139 C1140 1.369 . S
C1139 C1141 1.419 . S
C1139 H1143 0.930 . S
C1140 C1139 1.369 . S
C1140 C1149 1.429 . S
C1141 C1139 1.419 . S
C1141 C1142 1.363 . S
C1141 H1144 0.929 . S
C1142 C1141 1.363 . S
C1142 C1148 1.428 . S
H1143 C1139 0.930 . S
H1144 C1141 0.929 . S
S1145 N1146 1.613 . S
S1145 N1147 1.610 . S
N1146 S1145 1.613 . S
N1146 C1149 1.350 . S
N1147 S1145 1.610 . S
N1147 C1148 1.351 . S
C1148 C1142 1.428 . S
C1148 N1147 1.351 . S
C1148 C1149 1.434 . S
C1149 C1140 1.429 . S
C1149 N1146 1.350 . S
C1149 C1148 1.434 . S
C1150 C1151 1.369 . S
C1150 C1152 1.419 . S
C1150 H1154 0.930 . S
C1151 C1150 1.369 . S
C1151 C1160 1.429 . S
C1152 C1150 1.419 . S
C1152 C1153 1.363 . S
C1152 H1155 0.929 . S
C1153 C1152 1.363 . S
C1153 C1159 1.428 . S
H1154 C1150 0.930 . S
H1155 C1152 0.929 . S
S1156 N1157 1.613 . S
S1156 N1158 1.610 . S
N1157 S1156 1.613 . S
N1157 C1160 1.350 . S
N1158 S1156 1.610 . S
N1158 C1159 1.351 . S
C1159 C1153 1.428 . S
C1159 N1158 1.351 . S
C1159 C1160 1.434 . S
C1160 C1151 1.429 . S
C1160 N1157 1.350 . S
C1160 C1159 1.434 . S
C1161 C1162 1.369 . S
C1161 C1163 1.419 . S
C1161 H1165 0.930 . S
C1162 C1161 1.369 . S
C1162 C1171 1.429 . S
C1163 C1161 1.419 . S
C1163 C1164 1.363 . S
C1163 H1166 0.929 . S
C1164 C1163 1.363 . S
C1164 C1170 1.428 . S
H1165 C1161 0.930 . S
H1166 C1163 0.929 . S
S1167 N1168 1.613 . S
S1167 N1169 1.610 . S
N1168 S1167 1.613 . S
N1168 C1171 1.350 . S
N1169 S1167 1.610 . S
N1169 C1170 1.351 . S
C1170 C1164 1.428 . S
C1170 N1169 1.351 . S
C1170 C1171 1.434 . S
C1171 C1162 1.429 . S
C1171 N1168 1.350 . S
C1171 C1170 1.434 . S
C1172 C1173 1.369 . S
C1172 C1174 1.419 . S
C1172 H1176 0.930 . S
C1173 C1172 1.369 . S
C1173 C1182 1.429 . S
C1174 C1172 1.419 . S
C1174 C1175 1.363 . S
C1174 H1177 0.929 . S
C1175 C1174 1.363 . S
C1175 C1181 1.428 . S
H1176 C1172 0.930 . S
H1177 C1174 0.929 . S
S1178 N1179 1.613 . S
S1178 N1180 1.610 . S
N1179 S1178 1.613 . S
N1179 C1182 1.350 . S
N1180 S1178 1.610 . S
N1180 C1181 1.351 . S
C1181 C1175 1.428 . S
C1181 N1180 1.351 . S
C1181 C1182 1.434 . S
C1182 C1173 1.429 . S
C1182 N1179 1.350 . S
C1182 C1181 1.434 . S
C1183 C1184 1.369 . S
C1183 C1185 1.419 . S
C1183 H1187 0.930 . S
C1184 C1183 1.369 . S
C1184 C1193 1.429 . S
C1185 C1183 1.419 . S
C1185 C1186 1.363 . S
C1185 H1188 0.929 . S
C1186 C1185 1.363 . S
C1186 C1192 1.428 . S
H1187 C1183 0.930 . S
H1188 C1185 0.929 . S
S1189 N1190 1.613 . S
S1189 N1191 1.610 . S
N1190 S1189 1.613 . S
N1190 C1193 1.350 . S
N1191 S1189 1.610 . S
N1191 C1192 1.351 . S
C1192 C1186 1.428 . S
C1192 N1191 1.351 . S
C1192 C1193 1.434 . S
C1193 C1184 1.429 . S
C1193 N1190 1.350 . S
C1193 C1192 1.434 . S
C1194 C1195 1.369 . S
C1194 C1196 1.419 . S
C1194 H1198 0.930 . S
C1195 C1194 1.369 . S
C1195 C1204 1.429 . S
C1196 C1194 1.419 . S
C1196 C1197 1.363 . S
C1196 H1199 0.929 . S
C1197 C1196 1.363 . S
C1197 C1203 1.428 . S
H1198 C1194 0.930 . S
H1199 C1196 0.929 . S
S1200 N1201 1.613 . S
S1200 N1202 1.610 . S
N1201 S1200 1.613 . S
N1201 C1204 1.350 . S
N1202 S1200 1.610 . S
N1202 C1203 1.351 . S
C1203 C1197 1.428 . S
C1203 N1202 1.351 . S
C1203 C1204 1.434 . S
C1204 C1195 1.429 . S
C1204 N1201 1.350 . S
C1204 C1203 1.434 . S
C1205 C1206 1.369 . S
C1205 C1207 1.419 . S
C1205 H1209 0.930 . S
C1206 C1205 1.369 . S
C1206 C1215 1.429 . S
C1207 C1205 1.419 . S
C1207 C1208 1.363 . S
C1207 H1210 0.929 . S
C1208 C1207 1.363 . S
C1208 C1214 1.428 . S
H1209 C1205 0.930 . S
H1210 C1207 0.929 . S
S1211 N1212 1.613 . S
S1211 N1213 1.610 . S
N1212 S1211 1.613 . S
N1212 C1215 1.350 . S
N1213 S1211 1.610 . S
N1213 C1214 1.351 . S
C1214 C1208 1.428 . S
C1214 N1213 1.351 . S
C1214 C1215 1.434 . S
C1215 C1206 1.429 . S
C1215 N1212 1.350 . S
C1215 C1214 1.434 . S
C1216 C1217 1.369 . S
C1216 C1218 1.419 . S
C1216 H1220 0.930 . S
C1217 C1216 1.369 . S
C1217 C1226 1.429 . S
C1218 C1216 1.419 . S
C1218 C1219 1.363 . S
C1218 H1221 0.929 . S
C1219 C1218 1.363 . S
C1219 C1225 1.428 . S
H1220 C1216 0.930 . S
H1221 C1218 0.929 . S
S1222 N1223 1.613 . S
S1222 N1224 1.610 . S
N1223 S1222 1.613 . S
N1223 C1226 1.350 . S
N1224 S1222 1.610 . S
N1224 C1225 1.351 . S
C1225 C1219 1.428 . S
C1225 N1224 1.351 . S
C1225 C1226 1.434 . S
C1226 C1217 1.429 . S
C1226 N1223 1.350 . S
C1226 C1225 1.434 . S
C1227 C1228 1.369 . S
C1227 C1229 1.419 . S
C1227 H1231 0.930 . S
C1228 C1227 1.369 . S
C1228 C1237 1.429 . S
C1229 C1227 1.419 . S
C1229 C1230 1.363 . S
C1229 H1232 0.929 . S
C1230 C1229 1.363 . S
C1230 C1236 1.428 . S
H1231 C1227 0.930 . S
H1232 C1229 0.929 . S
S1233 N1234 1.613 . S
S1233 N1235 1.610 . S
N1234 S1233 1.613 . S
N1234 C1237 1.350 . S
N1235 S1233 1.610 . S
N1235 C1236 1.351 . S
C1236 C1230 1.428 . S
C1236 N1235 1.351 . S
C1236 C1237 1.434 . S
C1237 C1228 1.429 . S
C1237 N1234 1.350 . S
C1237 C1236 1.434 . S
C1238 C1239 1.369 . S
C1238 C1240 1.419 . S
C1238 H1242 0.930 . S
C1239 C1238 1.369 . S
C1239 C1248 1.429 . S
C1240 C1238 1.419 . S
C1240 C1241 1.363 . S
C1240 H1243 0.929 . S
C1241 C1240 1.363 . S
C1241 C1247 1.428 . S
H1242 C1238 0.930 . S
H1243 C1240 0.929 . S
S1244 N1245 1.613 . S
S1244 N1246 1.610 . S
N1245 S1244 1.613 . S
N1245 C1248 1.350 . S
N1246 S1244 1.610 . S
N1246 C1247 1.351 . S
C1247 C1241 1.428 . S
C1247 N1246 1.351 . S
C1247 C1248 1.434 . S
C1248 C1239 1.429 . S
C1248 N1245 1.350 . S
C1248 C1247 1.434 . S
C1249 C1250 1.369 . S
C1249 C1251 1.419 . S
C1249 H1253 0.930 . S
C1250 C1249 1.369 . S
C1250 C1259 1.429 . S
C1251 C1249 1.419 . S
C1251 C1252 1.363 . S
C1251 H1254 0.929 . S
C1252 C1251 1.363 . S
C1252 C1258 1.428 . S
H1253 C1249 0.930 . S
H1254 C1251 0.929 . S
S1255 N1256 1.613 . S
S1255 N1257 1.610 . S
N1256 S1255 1.613 . S
N1256 C1259 1.350 . S
N1257 S1255 1.610 . S
N1257 C1258 1.351 . S
C1258 C1252 1.428 . S
C1258 N1257 1.351 . S
C1258 C1259 1.434 . S
C1259 C1250 1.429 . S
C1259 N1256 1.350 . S
C1259 C1258 1.434 . S
C1260 C1261 1.369 . S
C1260 C1262 1.419 . S
C1260 H1264 0.930 . S
C1261 C1260 1.369 . S
C1261 C1270 1.429 . S
C1262 C1260 1.419 . S
C1262 C1263 1.363 . S
C1262 H1265 0.929 . S
C1263 C1262 1.363 . S
C1263 C1269 1.428 . S
H1264 C1260 0.930 . S
H1265 C1262 0.929 . S
S1266 N1267 1.613 . S
S1266 N1268 1.610 . S
N1267 S1266 1.613 . S
N1267 C1270 1.350 . S
N1268 S1266 1.610 . S
N1268 C1269 1.351 . S
C1269 C1263 1.428 . S
C1269 N1268 1.351 . S
C1269 C1270 1.434 . S
C1270 C1261 1.429 . S
C1270 N1267 1.350 . S
C1270 C1269 1.434 . S
C1271 C1272 1.369 . S
C1271 C1273 1.419 . S
C1271 H1275 0.930 . S
C1272 C1271 1.369 . S
C1272 C1281 1.429 . S
C1273 C1271 1.419 . S
C1273 C1274 1.363 . S
C1273 H1276 0.929 . S
C1274 C1273 1.363 . S
C1274 C1280 1.428 . S
H1275 C1271 0.930 . S
H1276 C1273 0.929 . S
S1277 N1278 1.613 . S
S1277 N1279 1.610 . S
N1278 S1277 1.613 . S
N1278 C1281 1.350 . S
N1279 S1277 1.610 . S
N1279 C1280 1.351 . S
C1280 C1274 1.428 . S
C1280 N1279 1.351 . S
C1280 C1281 1.434 . S
C1281 C1272 1.429 . S
C1281 N1278 1.350 . S
C1281 C1280 1.434 . S
C1282 C1283 1.369 . S
C1282 C1284 1.419 . S
C1282 H1286 0.930 . S
C1283 C1282 1.369 . S
C1283 C1292 1.429 . S
C1284 C1282 1.419 . S
C1284 C1285 1.363 . S
C1284 H1287 0.929 . S
C1285 C1284 1.363 . S
C1285 C1291 1.428 . S
H1286 C1282 0.930 . S
H1287 C1284 0.929 . S
S1288 N1289 1.613 . S
S1288 N1290 1.610 . S
N1289 S1288 1.613 . S
N1289 C1292 1.350 . S
N1290 S1288 1.610 . S
N1290 C1291 1.351 . S
C1291 C1285 1.428 . S
C1291 N1290 1.351 . S
C1291 C1292 1.434 . S
C1292 C1283 1.429 . S
C1292 N1289 1.350 . S
C1292 C1291 1.434 . S
C1293 C1294 1.369 . S
C1293 C1295 1.419 . S
C1293 H1297 0.930 . S
C1294 C1293 1.369 . S
C1294 C1303 1.429 . S
C1295 C1293 1.419 . S
C1295 C1296 1.363 . S
C1295 H1298 0.929 . S
C1296 C1295 1.363 . S
C1296 C1302 1.428 . S
H1297 C1293 0.930 . S
H1298 C1295 0.929 . S
S1299 N1300 1.613 . S
S1299 N1301 1.610 . S
N1300 S1299 1.613 . S
N1300 C1303 1.350 . S
N1301 S1299 1.610 . S
N1301 C1302 1.351 . S
C1302 C1296 1.428 . S
C1302 N1301 1.351 . S
C1302 C1303 1.434 . S
C1303 C1294 1.429 . S
C1303 N1300 1.350 . S
C1303 C1302 1.434 . S
C1304 C1305 1.369 . S
C1304 C1306 1.419 . S
C1304 H1308 0.930 . S
C1305 C1304 1.369 . S
C1305 C1314 1.429 . S
C1306 C1304 1.419 . S
C1306 C1307 1.363 . S
C1306 H1309 0.929 . S
C1307 C1306 1.363 . S
C1307 C1313 1.428 . S
H1308 C1304 0.930 . S
H1309 C1306 0.929 . S
S1310 N1311 1.613 . S
S1310 N1312 1.610 . S
N1311 S1310 1.613 . S
N1311 C1314 1.350 . S
N1312 S1310 1.610 . S
N1312 C1313 1.351 . S
C1313 C1307 1.428 . S
C1313 N1312 1.351 . S
C1313 C1314 1.434 . S
C1314 C1305 1.429 . S
C1314 N1311 1.350 . S
C1314 C1313 1.434 . S
C1315 C1316 1.369 . S
C1315 C1317 1.419 . S
C1315 H1319 0.930 . S
C1316 C1315 1.369 . S
C1316 C1325 1.429 . S
C1317 C1315 1.419 . S
C1317 C1318 1.363 . S
C1317 H1320 0.929 . S
C1318 C1317 1.363 . S
C1318 C1324 1.428 . S
H1319 C1315 0.930 . S
H1320 C1317 0.929 . S
S1321 N1322 1.613 . S
S1321 N1323 1.610 . S
N1322 S1321 1.613 . S
N1322 C1325 1.350 . S
N1323 S1321 1.610 . S
N1323 C1324 1.351 . S
C1324 C1318 1.428 . S
C1324 N1323 1.351 . S
C1324 C1325 1.434 . S
C1325 C1316 1.429 . S
C1325 N1322 1.350 . S
C1325 C1324 1.434 . S
C1326 C1327 1.369 . S
C1326 C1328 1.419 . S
C1326 H1330 0.930 . S
C1327 C1326 1.369 . S
C1327 C1336 1.429 . S
C1328 C1326 1.419 . S
C1328 C1329 1.363 . S
C1328 H1331 0.929 . S
C1329 C1328 1.363 . S
C1329 C1335 1.428 . S
H1330 C1326 0.930 . S
H1331 C1328 0.929 . S
S1332 N1333 1.613 . S
S1332 N1334 1.610 . S
N1333 S1332 1.613 . S
N1333 C1336 1.350 . S
N1334 S1332 1.610 . S
N1334 C1335 1.351 . S
C1335 C1329 1.428 . S
C1335 N1334 1.351 . S
C1335 C1336 1.434 . S
C1336 C1327 1.429 . S
C1336 N1333 1.350 . S
C1336 C1335 1.434 . S
C1337 C1338 1.369 . S
C1337 C1339 1.419 . S
C1337 H1341 0.930 . S
C1338 C1337 1.369 . S
C1338 C1347 1.429 . S
C1339 C1337 1.419 . S
C1339 C1340 1.363 . S
C1339 H1342 0.929 . S
C1340 C1339 1.363 . S
C1340 C1346 1.428 . S
H1341 C1337 0.930 . S
H1342 C1339 0.929 . S
S1343 N1344 1.613 . S
S1343 N1345 1.610 . S
N1344 S1343 1.613 . S
N1344 C1347 1.350 . S
N1345 S1343 1.610 . S
N1345 C1346 1.351 . S
C1346 C1340 1.428 . S
C1346 N1345 1.351 . S
C1346 C1347 1.434 . S
C1347 C1338 1.429 . S
C1347 N1344 1.350 . S
C1347 C1346 1.434 . S
C1348 C1349 1.369 . S
C1348 C1350 1.419 . S
C1348 H1352 0.930 . S
C1349 C1348 1.369 . S
C1349 C1358 1.429 . S
C1350 C1348 1.419 . S
C1350 C1351 1.363 . S
C1350 H1353 0.929 . S
C1351 C1350 1.363 . S
C1351 C1357 1.428 . S
H1352 C1348 0.930 . S
H1353 C1350 0.929 . S
S1354 N1355 1.613 . S
S1354 N1356 1.610 . S
N1355 S1354 1.613 . S
N1355 C1358 1.350 . S
N1356 S1354 1.610 . S
N1356 C1357 1.351 . S
C1357 C1351 1.428 . S
C1357 N1356 1.351 . S
C1357 C1358 1.434 . S
C1358 C1349 1.429 . S
C1358 N1355 1.350 . S
C1358 C1357 1.434 . S
C1359 C1360 1.369 . S
C1359 C1361 1.419 . S
C1359 H1363 0.930 . S
C1360 C1359 1.369 . S
C1360 C1369 1.429 . S
C1361 C1359 1.419 . S
C1361 C1362 1.363 . S
C1361 H1364 0.929 . S
C1362 C1361 1.363 . S
C1362 C1368 1.428 . S
H1363 C1359 0.930 . S
H1364 C1361 0.929 . S
S1365 N1366 1.613 . S
S1365 N1367 1.610 . S
N1366 S1365 1.613 . S
N1366 C1369 1.350 . S
N1367 S1365 1.610 . S
N1367 C1368 1.351 . S
C1368 C1362 1.428 . S
C1368 N1367 1.351 . S
C1368 C1369 1.434 . S
C1369 C1360 1.429 . S
C1369 N1366 1.350 . S
C1369 C1368 1.434 . S
C1370 C1371 1.369 . S
C1370 C1372 1.419 . S
C1370 H1374 0.930 . S
C1371 C1370 1.369 . S
C1371 C1380 1.429 . S
C1372 C1370 1.419 . S
C1372 C1373 1.363 . S
C1372 H1375 0.929 . S
C1373 C1372 1.363 . S
C1373 C1379 1.428 . S
H1374 C1370 0.930 . S
H1375 C1372 0.929 . S
S1376 N1377 1.613 . S
S1376 N1378 1.610 . S
N1377 S1376 1.613 . S
N1377 C1380 1.350 . S
N1378 S1376 1.610 . S
N1378 C1379 1.351 . S
C1379 C1373 1.428 . S
C1379 N1378 1.351 . S
C1379 C1380 1.434 . S
C1380 C1371 1.429 . S
C1380 N1377 1.350 . S
C1380 C1379 1.434 . S
C1381 C1382 1.369 . S
C1381 C1383 1.419 . S
C1381 H1385 0.930 . S
C1382 C1381 1.369 . S
C1382 C1391 1.429 . S
C1383 C1381 1.419 . S
C1383 C1384 1.363 . S
C1383 H1386 0.929 . S
C1384 C1383 1.363 . S
C1384 C1390 1.428 . S
H1385 C1381 0.930 . S
H1386 C1383 0.929 . S
S1387 N1388 1.613 . S
S1387 N1389 1.610 . S
N1388 S1387 1.613 . S
N1388 C1391 1.350 . S
N1389 S1387 1.610 . S
N1389 C1390 1.351 . S
C1390 C1384 1.428 . S
C1390 N1389 1.351 . S
C1390 C1391 1.434 . S
C1391 C1382 1.429 . S
C1391 N1388 1.350 . S
C1391 C1390 1.434 . S
C867 C689 1.744 . S
C865 C74 1.708 . S
C878 C694 1.210 . S
C876 C153 1.142 . S
C889 C695 1.700 . S
C887 C231 1.661 . S
C898 C310 0.968 . S
C900 C699 0.852 . S
C909 C394 1.151 . S
C911 C702 1.203 . S
C922 C703 1.700 . S
C920 C494 1.662 . S
C931 C573 0.956 . S
C933 C680 0.865 . S
C942 C651 1.715 . S
C944 C696 1.747 . S
C955 C734 2.370 . S
C953 C56 2.479 . S
C964 C151 1.639 . S
C966 C760 1.616 . S
C977 C712 1.202 . S
C975 C237 1.177 . S
C988 C767 1.645 . S
C986 C326 1.617 . S
C997 C410 1.650 . S
C999 C721 1.642 . S
C1010 C763 2.371 . S
C1008 C476 2.467 . S
C1019 C571 1.661 . S
C1021 C727 1.636 . S
C1030 C657 1.176 . S
C1032 C758 1.207 . S
C1041 C58 1.173 . S
C1043 C766 1.203 . S
C1052 C392 1.636 . S
C1054 C753 1.612 . S
C1065 C731 1.198 . S
C1063 C478 1.189 . S
C1076 C759 1.644 . S
C1074 C567 1.623 . S
C1085 C655 2.479 . S
C1087 C726 2.370 . S
C1096 C235 2.468 . S
C1098 C744 2.366 . S
C1109 C735 1.634 . S
C1107 C308 1.657 . S
C1118 C147 1.648 . S
C1120 C728 1.645 . S
C1129 C662 1.682 . S
C1131 C790 1.655 . S
C1140 C405 1.125 . S
C1142 C785 1.182 . S
C1153 C799 1.569 . S
C1151 C483 1.638 . S
C1164 C776 0.592 . S
C1162 C562 0.949 . S
C1173 C142 1.120 . S
C1175 C792 1.180 . S
C1186 C791 1.570 . S
C1184 C242 1.642 . S
C1195 C321 0.964 . S
C1197 C795 0.576 . S
C1206 C63 1.684 . S
C1208 C798 1.652 . S
C1217 C644 2.488 . S
C1219 C824 2.454 . S
C1230 C840 1.542 . S
C1228 C403 1.638 . S
C1239 C489 1.196 . S
C1241 C822 1.248 . S
C1250 C578 1.627 . S
C1252 C855 1.639 . S
C1263 C831 1.603 . S
C1261 C158 1.633 . S
C1272 C224 2.494 . S
C1274 C849 2.420 . S
C1285 C827 1.541 . S
C1283 C319 1.637 . S
C1296 C862 1.221 . S
C1294 C69 1.188 . S
C1307 C854 1.228 . S
C1305 C646 1.200 . S
C1316 C140 1.639 . S
C1318 C859 1.538 . S
C1327 C226 1.184 . S
C1329 C830 1.252 . S
C1340 C863 1.638 . S
C1338 C315 1.627 . S
C1349 C67 2.488 . S
C1351 C817 2.454 . S
C1360 C487 2.494 . S
C1362 C856 2.421 . S
C1373 C808 1.540 . S
C1371 C560 1.637 . S
C1384 C823 1.604 . S
C1382 C399 1.632 . S
