# Generated by pormake.
# Topology nia, (6,6)-cn, num edge types: 1
# Building blocks:
#     Node 0, Type 0, BuildingBlock: BETDAH_clean_sbu_0, # of connection points: 6
#     Node 1, Type 0, BuildingBlock: BETDAH_clean_sbu_0, # of connection points: 6
#     Node 2, Type 1, BuildingBlock: MIDCAF_clean_sbu_0, # of connection points: 6
#     Node 3, Type 1, BuildingBlock: MIDCAF_clean_sbu_0, # of connection points: 6
#     Edge 4, Type (0, 1), BuildingBlock: XIVTED_clean_linker_0, # of connection points: 2
#     Edge 5, Type (0, 1), BuildingBlock: XIVTED_clean_linker_0, # of connection points: 2
#     Edge 6, Type (0, 1), BuildingBlock: XIVTED_clean_linker_0, # of connection points: 2
#     Edge 7, Type (0, 1), BuildingBlock: XIVTED_clean_linker_0, # of connection points: 2
#     Edge 8, Type (0, 1), BuildingBlock: XIVTED_clean_linker_0, # of connection points: 2
#     Edge 9, Type (0, 1), BuildingBlock: XIVTED_clean_linker_0, # of connection points: 2
#     Edge 10, Type (0, 1), BuildingBlock: XIVTED_clean_linker_0, # of connection points: 2
#     Edge 11, Type (0, 1), BuildingBlock: XIVTED_clean_linker_0, # of connection points: 2
#     Edge 12, Type (0, 1), BuildingBlock: XIVTED_clean_linker_0, # of connection points: 2
#     Edge 13, Type (0, 1), BuildingBlock: XIVTED_clean_linker_0, # of connection points: 2
#     Edge 14, Type (0, 1), BuildingBlock: XIVTED_clean_linker_0, # of connection points: 2
#     Edge 15, Type (0, 1), BuildingBlock: XIVTED_clean_linker_0, # of connection points: 2
# Relax obj value: 0.327
# Max RMSD: 0.269
# Mean RMSD: 0.250
data_MOF--net-nia--node1-BETDAH_clean_sbu_0--node2-MIDCAF_clean_sbu_0--edge1-XIVTED_clean_linker_0
_symmetry_space_group_name_H-M    P1
_symmetry_Int_Tables_number       1
_symmetry_cell_setting            triclinic
loop_
_symmetry_equiv_pos_as_xyz
'x, y, z'
_cell_length_a     25.595946
_cell_length_b     28.957648
_cell_length_c     33.627972
_cell_angle_alpha  67.63766
_cell_angle_beta   102.08608
_cell_angle_gamma 128.20889
loop_
_atom_site_label
_atom_site_type_symbol
_atom_site_fract_x
_atom_site_fract_y
_atom_site_fract_z
_atom_type_partial_charge
Ho0 Ho 0.07886 0.04879 0.05675 0.0
Ho1 Ho 0.97669 0.92254 1.03534 0.0
C2 C 0.95943 0.03045 0.99335 0.0
C3 C 0.17663 0.1589 0.05722 0.0
C4 C 0.17922 0.20133 0.07234 0.0
C5 C 0.23903 0.24547 0.0868 0.0
C6 C 0.2395 0.27824 0.10854 0.0
C7 C 0.17998 0.26692 0.11632 0.0
C8 C 0.12051 0.22433 0.10022 0.0
C9 C 0.12011 0.19159 0.0785 0.0
C10 C 0.96445 0.97244 0.10627 0.0
C11 C 0.08714 0.93478 0.10703 0.0
C12 C 0.89101 0.8114 1.03168 0.0
C13 C 0.88695 0.77965 1.00468 0.0
C14 C 0.87222 0.72043 1.02419 0.0
C15 C 0.87271 0.69114 0.99972 0.0
C16 C 0.88753 0.72048 0.95523 0.0
C17 C 0.90157 0.77955 0.93557 0.0
C18 C 0.90185 0.8092 0.96018 0.0
C19 C 0.08779 0.01325 0.98282 0.0
O20 O 0.02327 0.06994 1.00003 0.0
O21 O 0.92689 0.96956 1.01144 0.0
O22 O 0.16429 0.1086 0.08803 0.0
O23 O 0.14193 0.14767 1.02291 0.0
O24 O 0.01439 0.02669 0.1087 0.0
O25 O 0.98 0.96374 0.07838 0.0
O26 O 0.02659 0.89684 0.09445 0.0
O27 O 0.12048 -0.00409 0.09178 0.0
O28 O 0.88364 0.85566 1.01255 0.0
O29 O 0.93964 0.82624 0.05843 0.0
O30 O 0.03179 0.97137 0.97055 0.0
O31 O 0.0825 -9e-05 1.02242 0.0
H32 H 0.28486 0.2529 0.08269 0.0
H33 H 0.28627 0.31169 0.1199 0.0
H34 H 0.07391 0.21444 0.10595 0.0
H35 H 0.07322 0.15681 0.06809 0.0
H36 H 0.86109 0.69714 0.05849 0.0
H37 H 0.86075 0.64518 1.01553 0.0
H38 H 0.91338 0.80315 0.90137 0.0
H39 H 0.91442 0.8554 0.94448 0.0
Ho40 Ho 0.98497 0.00508 0.55381 0.0
Ho41 Ho 0.06695 0.96642 0.53205 0.0
C42 C 0.9378 0.94107 0.48052 0.0
C43 C 0.94172 0.06443 0.55566 0.0
C44 C 0.90782 0.0633 0.58664 0.0
C45 C 0.8604 0.07489 0.57185 0.0
C46 C 0.83065 0.07833 0.59988 0.0
C47 C 0.8481 0.07051 0.64325 0.0
C48 C 0.89449 0.05731 0.65831 0.0
C49 C 0.9239 0.05337 0.63025 0.0
C50 C 0.94058 0.88646 0.60314 0.0
C51 C 0.10819 0.02037 0.61178 0.0
C52 C 0.12741 0.92308 0.52774 0.0
C53 C 0.14646 0.91505 0.49383 0.0
C54 C 0.21039 0.93104 0.49316 0.0
C55 C 0.22828 0.9201 0.46309 0.0
C56 C 0.18225 0.8925 0.43335 0.0
C57 C 0.11891 0.87845 0.43311 0.0
C58 C 0.10125 0.88997 0.46294 0.0
C59 C 0.0897 0.07534 0.47861 0.0
O60 O 0.94517 -0.01585 0.49156 0.0
O61 O 0.97294 0.91914 0.49741 0.0
O62 O 0.00294 0.08285 0.56394 0.0
O63 O 0.9067 0.01681 0.54166 0.0
O64 O 0.91559 0.91275 0.60608 0.0
O65 O 0.98625 0.92551 0.57481 0.0
O66 O 0.11146 -0.01113 0.59343 0.0
O67 O 0.06698 0.03597 0.59987 0.0
O68 O 0.06358 0.88823 0.53705 0.0
O69 O 0.1589 -0.01951 0.52646 0.0
O70 O 0.09637 0.04143 0.46681 0.0
O71 O 0.07773 0.0525 0.51856 0.0
H72 H 0.84747 0.08271 0.53831 0.0
H73 H 0.79581 0.08947 0.58717 0.0
H74 H 0.90845 0.05064 0.69163 0.0
H75 H 0.96007 0.0438 0.64243 0.0
H76 H 0.24599 0.9506 0.51663 0.0
H77 H 0.27714 0.93067 0.46441 0.0
H78 H 0.08269 0.85753 0.41035 0.0
H79 H 0.05182 0.87799 0.46242 0.0
Zn80 Zn 0.37793 0.70371 0.20387 0.0
Zn81 Zn 0.37969 0.6362 0.37224 0.0
Zn82 Zn 0.38547 0.67324 0.28571 0.0
C83 C 0.51516 0.71709 0.34201 0.0
C84 C 0.30848 0.52856 0.35211 0.0
O85 O 0.3397 0.72414 0.26039 0.0
O86 O 0.36238 0.76681 0.19028 0.0
C87 C 0.50782 0.741 0.22248 0.0
O88 O 0.48984 0.72023 0.30455 0.0
O89 O 0.47836 0.68301 0.3758 0.0
O90 O 0.32347 0.54544 0.38474 0.0
O91 O 0.3275 0.56916 0.314 0.0
O92 O 0.46725 0.73036 0.19248 0.0
O93 O 0.48849 0.72835 0.26006 0.0
O94 O 0.32486 0.58825 0.2684 0.0
O95 O 0.30112 0.62024 0.20094 0.0
C96 C 0.2936 0.57666 0.2341 0.0
O97 O 0.34375 0.70922 0.30537 0.0
O98 O 0.3374 0.67304 0.37663 0.0
C99 C 0.33838 0.7595 0.22315 0.0
C100 C 0.32835 0.70428 0.34161 0.0
Zn101 Zn 0.67036 0.26355 0.88277 0.0
Zn102 Zn 0.65777 0.32396 0.71608 0.0
Zn103 Zn 0.65925 0.29254 0.80014 0.0
C104 C 0.74081 0.43485 0.73076 0.0
C105 C 0.52702 0.25356 0.74645 0.0
O106 O 0.70716 0.24271 0.82481 0.0
O107 O 0.69651 0.20844 0.89585 0.0
C108 C 0.74967 0.39264 0.84923 0.0
O109 O 0.71781 0.39626 0.76915 0.0
O110 O 0.72705 0.41508 0.69975 0.0
O111 O 0.56269 0.29113 0.71232 0.0
O112 O 0.55381 0.2457 0.78303 0.0
O113 O 0.74027 0.3498 0.88368 0.0
O114 O 0.72095 0.37988 0.8147 0.0
O115 O 0.55716 0.23765 0.82802 0.0
O116 O 0.57775 0.22512 0.89699 0.0
C117 C 0.53704 0.21787 0.86706 0.0
O118 O 0.69618 0.25244 0.78077 0.0
O119 O 0.67762 0.27022 0.71105 0.0
C120 C 0.7149 0.21204 0.8622 0.0
C121 C 0.69576 0.2457 0.74497 0.0
H122 H 0.21145 -0.00134 0.13862 0.0
H123 H 0.38651 0.87881 0.177 0.0
H124 H 0.04368 0.81278 0.1407 0.0
H125 H 0.21619 0.7073 0.25429 0.0
H126 H 0.3263 0.92423 0.15755 0.0
H127 H 0.27531 0.95923 0.17667 0.0
C128 C 0.1877 0.94942 0.14729 0.0
C129 C 0.12234 0.90921 0.13551 0.0
C130 C 0.30257 0.87724 0.17974 0.0
C131 C 0.19601 0.86409 0.1787 0.0
C132 C 0.33682 0.85128 0.1906 0.0
C133 C 0.30628 0.78961 0.21748 0.0
C134 C 0.23664 0.84073 0.19507 0.0
C135 C 0.24147 0.75534 0.23382 0.0
C136 C 0.2245 0.9271 0.16884 0.0
C137 C 0.09416 0.84566 0.14852 0.0
N138 N 0.20811 0.78101 0.22165 0.0
N139 N 0.13141 0.82508 0.16913 0.0
H140 H 0.18293 -0.01915 0.65894 0.0
H141 H 0.45224 0.2922 0.7018 0.0
H142 H 0.14473 0.11363 0.63959 0.0
H143 H 0.43881 0.12749 0.77956 0.0
H144 H 0.33749 0.22683 0.68075 0.0
H145 H 0.27462 0.03106 0.70507 0.0
C146 C 0.19316 0.01995 0.66486 0.0
C147 C 0.15671 0.04363 0.64485 0.0
C148 C 0.35895 0.2048 0.70325 0.0
C149 C 0.26175 0.10148 0.69711 0.0
C150 C 0.42429 0.24208 0.71522 0.0
C151 C 0.45453 0.21491 0.74227 0.0
C152 C 0.32462 0.14008 0.7172 0.0
C153 C 0.41676 0.1499 0.7587 0.0
C154 C 0.2452 0.04831 0.6914 0.0
C155 C 0.17175 0.09404 0.65405 0.0
N156 N 0.35405 0.1145 0.74503 0.0
N157 N 0.224 0.12208 0.67878 0.0
H158 H 0.11403 0.31845 0.10143 0.0
H159 H 0.32722 0.49806 0.26731 0.0
H160 H 0.24487 0.28582 0.19042 0.0
H161 H 0.18239 0.5188 0.18887 0.0
H162 H 0.28123 0.40541 0.24993 0.0
H163 H 0.12303 0.37807 0.14132 0.0
C164 C 0.14398 0.3232 0.12968 0.0
C165 C 0.18004 0.29848 0.14208 0.0
C166 C 0.25807 0.429 0.23735 0.0
C167 C 0.19089 0.36675 0.18764 0.0
C168 C 0.28349 0.48107 0.24816 0.0
C169 C 0.25733 0.51474 0.23052 0.0
C170 C 0.20758 0.41191 0.20739 0.0
C171 C 0.20365 0.49366 0.20324 0.0
C172 C 0.14913 0.35723 0.15243 0.0
C173 C 0.21792 0.30581 0.17897 0.0
N174 N 0.18109 0.44398 0.19194 0.0
N175 N 0.22299 0.33992 0.20014 0.0
H176 H 0.91529 0.13686 0.69927 0.0
H177 H 0.61736 0.146 0.71803 0.0
H178 H 0.71973 0.02784 0.65091 0.0
H179 H 0.81196 0.25811 0.76569 0.0
H180 H 0.64887 0.08858 0.70509 0.0
H181 H 0.87349 0.16716 0.73607 0.0
C182 C 0.86322 0.11825 0.69714 0.0
C183 C 0.82111 0.0806 0.67143 0.0
C184 C 0.68453 0.12494 0.7191 0.0
C185 C 0.77331 0.11578 0.71283 0.0
C186 C 0.66649 0.15761 0.72646 0.0
C187 C 0.7122 0.20623 0.74317 0.0
C188 C 0.74937 0.14206 0.72764 0.0
C189 C 0.77519 0.21996 0.75353 0.0
C190 C 0.8395 0.13588 0.71793 0.0
C191 C 0.75422 0.05809 0.66962 0.0
N192 N 0.7924 0.1885 0.74506 0.0
N193 N 0.73262 0.07661 0.68958 0.0
H194 H 0.93128 -0.01056 0.16847 0.0
H195 H 0.54555 0.71338 0.1708 0.0
H196 H 0.85102 0.86378 0.09694 0.0
H197 H 0.62552 0.82764 0.25114 0.0
H198 H 0.65821 0.7631 0.14776 0.0
H199 H 0.82171 0.92658 0.20331 0.0
C200 C 0.89055 0.94823 0.16039 0.0
C201 C 0.89985 0.93182 0.12966 0.0
C202 C 0.65149 0.7769 0.1709 0.0
C203 C 0.77438 0.85996 0.16912 0.0
C204 C 0.58713 0.74856 0.18405 0.0
C205 C 0.57639 0.76633 0.21314 0.0
C206 C 0.70585 0.82424 0.18641 0.0
C207 C 0.63185 0.81187 0.22939 0.0
C208 C 0.82808 0.91237 0.1803 0.0
C209 C 0.84573 0.87805 0.12039 0.0
N210 N 0.69434 0.83986 0.21543 0.0
N211 N 0.78513 0.84429 0.1398 0.0
H212 H 0.83042 0.79679 0.65595 0.0
H213 H 0.86649 0.52665 0.69598 0.0
H214 H -0.00341 0.82916 0.60675 0.0
H215 H 0.6972 0.49536 0.73945 0.0
H216 H 0.921 0.63909 0.66946 0.0
H217 H 0.78694 0.68804 0.69341 0.0
C218 C 0.85785 0.78094 0.65309 0.0
C219 C 0.91658 0.82167 0.62753 0.0
C220 C 0.87251 0.6078 0.68559 0.0
C221 C 0.86713 0.69712 0.67032 0.0
C222 C 0.84169 0.54381 0.7009 0.0
C223 C 0.77841 0.50225 0.72117 0.0
C224 C 0.83909 0.63012 0.6899 0.0
C225 C 0.7472 0.52626 0.72559 0.0
C226 C 0.833 0.71882 0.67447 0.0
C227 C 0.95039 0.79888 0.62524 0.0
N228 N 0.77773 0.58857 0.71001 0.0
N229 N 0.92502 0.73802 0.64613 0.0
H230 H 0.29697 0.95876 0.38568 0.0
H231 H 0.36915 0.82287 0.29525 0.0
H232 H 0.10476 0.78052 0.42008 0.0
H233 H 0.22508 0.65585 0.39209 0.0
H234 H 0.32828 0.87588 0.30457 0.0
H235 H 0.32899 0.91806 0.35165 0.0
C236 C 0.26107 0.91147 0.38521 0.0
C237 C 0.19832 0.87279 0.40595 0.0
C238 C 0.30561 0.82765 0.32371 0.0
C239 C 0.23419 0.82603 0.36688 0.0
C240 C 0.32828 0.79727 0.31799 0.0
C241 C 0.30032 0.73516 0.34305 0.0
C242 C 0.25497 0.79539 0.35487 0.0
C243 C 0.24815 0.70399 0.37245 0.0
C244 C 0.27908 0.88843 0.36538 0.0
C245 C 0.1535 0.81201 0.40428 0.0
N246 N 0.22719 0.73448 0.3776 0.0
N247 N 0.17282 0.79013 0.38589 0.0
H248 H 0.20916 0.0837 1.01375 0.0
H249 H 0.43905 0.22176 0.81525 0.0
H250 H 0.11443 0.03189 0.90046 0.0
H251 H 0.477 0.14746 0.94643 0.0
H252 H 0.32629 0.17475 0.83859 0.0
H253 H 0.3171 0.13595 0.98139 0.0
C254 C 0.21114 0.08401 0.98177 0.0
C255 C 0.15277 0.0526 0.95999 0.0
C256 C 0.35946 0.16845 0.86191 0.0
C257 C 0.27632 0.11272 0.92275 0.0
C258 C 0.42331 0.19435 0.84853 0.0
C259 C 0.46722 0.18745 0.8786 0.0
C260 C 0.34081 0.13748 0.90581 0.0
C261 C 0.4452 0.15418 0.92193 0.0
C262 C 0.27272 0.11361 0.96345 0.0
C263 C 0.15842 0.05517 0.91839 0.0
N264 N 0.38405 0.13111 0.93421 0.0
N265 N 0.2194 0.08456 0.90102 0.0
H266 H 0.05438 0.14134 0.48935 0.0
H267 H 0.34797 0.46595 0.34054 0.0
H268 H 0.17632 0.15454 0.40868 0.0
H269 H 0.18203 0.43937 0.3844 0.0
H270 H 0.28669 0.35265 0.36383 0.0
H271 H 0.10078 0.25065 0.45124 0.0
C272 C 0.09082 0.16732 0.46353 0.0
C273 C 0.11218 0.13923 0.45259 0.0
C274 C 0.26298 0.37151 0.36743 0.0
C275 C 0.16599 0.2645 0.4087 0.0
C276 C 0.29761 0.43605 0.35366 0.0
C277 C 0.26877 0.46157 0.35915 0.0
C278 C 0.20016 0.33253 0.38829 0.0
C279 C 0.20515 0.42116 0.37878 0.0
C280 C 0.11703 0.22961 0.44152 0.0
C281 C 0.15867 0.17463 0.41819 0.0
N282 N 0.17315 0.35864 0.39297 0.0
N283 N 0.18486 0.23579 0.39785 0.0
H284 H 0.82571 0.9654 0.97927 0.0
H285 H 0.84278 0.269 0.83982 0.0
H286 H 0.00902 0.15154 0.94512 0.0
H287 H 0.663 0.09013 0.89994 0.0
H288 H 0.90341 0.22303 0.86456 0.0
H289 H 0.76499 0.0072 0.93784 0.0
C290 C 0.85338 0.01504 0.96284 0.0
C291 C 0.92266 0.05504 0.96612 0.0
C292 C 0.85041 0.19354 0.87157 0.0
C293 C 0.8531 0.10321 0.91836 0.0
C294 C 0.81577 0.21958 0.85697 0.0
C295 C 0.74782 0.18286 0.86731 0.0
C296 C 0.81669 0.13051 0.89691 0.0
C297 C 0.71531 0.11962 0.8909 0.0
C298 C 0.81856 0.03886 0.93916 0.0
C299 C 0.9556 0.11895 0.94387 0.0
N300 N 0.75006 0.09546 0.9051 0.0
N301 N 0.92051 0.14107 0.92113 0.0
H302 H 0.88984 0.83775 0.46089 0.0
H303 H 0.60122 0.8432 0.31641 0.0
H304 H 0.86833 -0.01572 0.42927 0.0
H305 H 0.59067 0.67759 0.38225 0.0
H306 H 0.71517 0.90501 0.34083 0.0
H307 H 0.79601 0.78849 0.41589 0.0
C308 C 0.86603 0.86006 0.44408 0.0
C309 C 0.8864 0.91479 0.44944 0.0
C310 C 0.68846 0.85533 0.3491 0.0
C311 C 0.77914 0.85864 0.39776 0.0
C312 C 0.62391 0.82031 0.33484 0.0
C313 C 0.5874 0.75563 0.34705 0.0
C314 C 0.71614 0.82514 0.37584 0.0
C315 C 0.61786 0.72758 0.37191 0.0
C316 C 0.81239 0.8318 0.41845 0.0
C317 C 0.85376 0.94165 0.42661 0.0
N318 N 0.68042 0.76246 0.38573 0.0
N319 N 0.80143 0.91307 0.40202 0.0
H320 H 0.94538 0.66152 0.97305 0.0
H321 H 0.71985 0.47448 0.81336 0.0
H322 H 0.82656 0.70606 0.87925 0.0
H323 H 0.86298 0.45127 0.8921 0.0
H324 H 0.77182 0.57115 0.82743 0.0
H325 H 0.92911 0.5957 0.93605 0.0
C326 C 0.9164 0.65783 0.94434 0.0
C327 C 0.88621 0.6882 0.92956 0.0
C328 C 0.79321 0.546 0.84071 0.0
C329 C 0.86695 0.61279 0.8872 0.0
C330 C 0.76422 0.49148 0.83194 0.0
C331 C 0.78821 0.45601 0.85074 0.0
C332 C 0.84534 0.56395 0.86955 0.0
C333 C 0.84322 0.47765 0.87695 0.0
C334 C 0.90739 0.62056 0.92308 0.0
C335 C 0.85031 0.68304 0.89178 0.0
N336 N 0.86944 0.52986 0.88607 0.0
N337 N 0.84065 0.64505 0.87229 0.0
loop_
_geom_bond_atom_site_label_1
_geom_bond_atom_site_label_2
_geom_bond_distance
_geom_bond_site_symmetry_2
_ccdc_geom_bond_type
Ho0 C3 2.811 . S
Ho0 O20 2.322 . S
Ho0 O22 2.378 . S
Ho0 O23 2.524 . S
Ho0 O24 2.381 1_445 S
Ho0 O25 2.669 1_445 S
Ho0 O27 2.346 1_545 S
Ho0 O31 2.305 1_554 S
Ho1 C12 2.811 . S
Ho1 O21 2.346 1_565 S
Ho1 O25 2.305 1_556 S
Ho1 O26 2.322 1_656 S
Ho1 O28 2.378 . S
Ho1 O29 2.524 . S
Ho1 O30 2.381 1_665 S
Ho1 O31 2.669 1_665 S
C2 O20 1.259 1_656 S
C2 O21 1.268 . S
C3 Ho0 2.811 . S
C3 C4 1.488 . S
C3 O22 1.215 . S
C3 O23 1.289 . S
C4 C3 1.488 . S
C4 C5 1.348 . S
C4 C9 1.413 . S
C5 C4 1.348 . S
C5 C6 1.442 . S
C5 H32 0.930 . S
C6 C5 1.442 . S
C6 C7 1.381 . S
C6 H33 0.931 . S
C7 C6 1.381 . S
C7 C8 1.321 . S
C8 C7 1.321 . S
C8 C9 1.403 . S
C8 H34 0.934 . S
C9 C4 1.413 . S
C9 C8 1.403 . S
C9 H35 0.930 . S
C10 O24 1.275 . S
C10 O25 1.256 . S
C11 O26 1.259 . S
C11 O27 1.268 . S
C12 Ho1 2.811 . S
C12 C13 1.488 . S
C12 O28 1.215 . S
C12 O29 1.289 . S
C13 C12 1.488 . S
C13 C14 1.348 . S
C13 C18 1.413 . S
C14 C13 1.348 . S
C14 C15 1.442 . S
C14 H36 0.930 1_556 S
C15 C14 1.442 . S
C15 C16 1.381 . S
C15 H37 0.931 . S
C16 C15 1.381 . S
C16 C17 1.321 . S
C17 C16 1.321 . S
C17 C18 1.403 . S
C17 H38 0.934 . S
C18 C13 1.413 . S
C18 C17 1.403 . S
C18 H39 0.930 . S
C19 O30 1.275 . S
C19 O31 1.256 . S
O20 Ho0 2.322 . S
O20 C2 1.259 1_454 S
O21 Ho1 2.346 1_545 S
O21 C2 1.268 . S
O22 Ho0 2.378 . S
O22 C3 1.215 . S
O23 Ho0 2.524 . S
O23 C3 1.289 . S
O24 Ho0 2.381 1_665 S
O24 C10 1.275 . S
O25 Ho0 2.669 1_665 S
O25 Ho1 2.305 1_554 S
O25 C10 1.256 . S
O26 Ho1 2.322 1_454 S
O26 C11 1.259 . S
O27 Ho0 2.346 1_565 S
O27 C11 1.268 . S
O28 Ho1 2.378 . S
O28 C12 1.215 . S
O29 Ho1 2.524 . S
O29 C12 1.289 . S
O30 Ho1 2.381 1_445 S
O30 C19 1.275 . S
O31 Ho0 2.305 1_556 S
O31 Ho1 2.669 1_445 S
O31 C19 1.256 . S
H32 C5 0.930 . S
H33 C6 0.931 . S
H34 C8 0.934 . S
H35 C9 0.930 . S
H36 C14 0.930 1_554 S
H37 C15 0.931 . S
H38 C17 0.934 . S
H39 C18 0.930 . S
Ho40 C43 2.811 1_455 S
Ho40 O60 2.322 1_445 S
Ho40 O62 2.378 1_455 S
Ho40 O63 2.524 1_455 S
Ho40 O64 2.381 1_445 S
Ho40 O65 2.669 1_545 S
Ho40 O67 2.346 . S
Ho40 O71 2.305 . S
Ho41 C52 2.811 . S
Ho41 O61 2.346 1_455 S
Ho41 O65 2.305 . S
Ho41 O66 2.322 1_565 S
Ho41 O68 2.378 1_565 S
Ho41 O69 2.524 . S
Ho41 O70 2.381 1_565 S
Ho41 O71 2.669 1_565 S
C42 O60 1.259 . S
C42 O61 1.268 . S
C43 Ho40 2.811 1_655 S
C43 C44 1.488 . S
C43 O62 1.215 . S
C43 O63 1.289 . S
C44 C43 1.488 . S
C44 C45 1.348 . S
C44 C49 1.413 . S
C45 C44 1.348 . S
C45 C46 1.442 . S
C45 H72 0.930 . S
C46 C45 1.442 . S
C46 C47 1.381 . S
C46 H73 0.931 . S
C47 C46 1.381 . S
C47 C48 1.321 . S
C48 C47 1.321 . S
C48 C49 1.403 . S
C48 H74 0.934 . S
C49 C44 1.413 . S
C49 C48 1.403 . S
C49 H75 0.930 1_545 S
C50 O64 1.275 . S
C50 O65 1.256 1_655 S
C51 O66 1.259 . S
C51 O67 1.268 . S
C52 Ho41 2.811 . S
C52 C53 1.488 . S
C52 O68 1.215 1_565 S
C52 O69 1.289 . S
C53 C52 1.488 . S
C53 C54 1.348 . S
C53 C58 1.413 1_565 S
C54 C53 1.348 . S
C54 C55 1.442 . S
C54 H76 0.930 . S
C55 C54 1.442 . S
C55 C56 1.381 . S
C55 H77 0.931 . S
C56 C55 1.381 . S
C56 C57 1.321 . S
C57 C56 1.321 . S
C57 C58 1.403 1_565 S
C57 H78 0.934 1_565 S
C58 C53 1.413 1_545 S
C58 C57 1.403 1_545 S
C58 H79 0.930 . S
C59 O70 1.275 . S
C59 O71 1.256 . S
O60 Ho40 2.322 1_665 S
O60 C42 1.259 . S
O61 Ho41 2.346 1_655 S
O61 C42 1.268 . S
O62 Ho40 2.378 1_655 S
O62 C43 1.215 . S
O63 Ho40 2.524 1_655 S
O63 C43 1.289 . S
O64 Ho40 2.381 1_665 S
O64 C50 1.275 . S
O65 Ho40 2.669 1_565 S
O65 Ho41 2.305 . S
O65 C50 1.256 1_455 S
O66 Ho41 2.322 1_545 S
O66 C51 1.259 . S
O67 Ho40 2.346 . S
O67 C51 1.268 . S
O68 Ho41 2.378 1_545 S
O68 C52 1.215 1_545 S
O69 Ho41 2.524 . S
O69 C52 1.289 . S
O70 Ho41 2.381 1_545 S
O70 C59 1.275 . S
O71 Ho40 2.305 . S
O71 Ho41 2.669 1_545 S
O71 C59 1.256 . S
H72 C45 0.930 . S
H73 C46 0.931 . S
H74 C48 0.934 . S
H75 C49 0.930 1_565 S
H76 C54 0.930 . S
H77 C55 0.931 . S
H78 C57 0.934 1_545 S
H79 C58 0.930 . S
Zn80 O86 1.920 . S
Zn80 O92 1.898 . S
Zn80 O95 1.905 . S
Zn81 O89 1.905 . S
Zn81 O90 1.898 . S
Zn81 O98 1.920 . S
Zn82 O85 2.080 . S
Zn82 O88 2.114 . S
Zn82 O91 2.120 . S
Zn82 O93 2.120 . S
Zn82 O94 2.114 . S
Zn82 O97 2.080 . S
C83 O88 1.166 . S
C83 O89 1.182 . S
C84 O90 1.167 . S
C84 O91 1.299 . S
O85 Zn82 2.080 . S
O85 C99 1.305 . S
O86 Zn80 1.920 . S
O86 C99 1.234 . S
C87 O92 1.167 . S
C87 O93 1.299 . S
O88 Zn82 2.114 . S
O88 C83 1.166 . S
O89 Zn81 1.905 . S
O89 C83 1.182 . S
O90 Zn81 1.898 . S
O90 C84 1.167 . S
O91 Zn82 2.120 . S
O91 C84 1.299 . S
O92 Zn80 1.898 . S
O92 C87 1.167 . S
O93 Zn82 2.120 . S
O93 C87 1.299 . S
O94 Zn82 2.114 . S
O94 C96 1.166 . S
O95 Zn80 1.905 . S
O95 C96 1.182 . S
C96 O94 1.166 . S
C96 O95 1.182 . S
O97 Zn82 2.080 . S
O97 C100 1.305 . S
O98 Zn81 1.920 . S
O98 C100 1.234 . S
C99 O85 1.305 . S
C99 O86 1.234 . S
C100 O97 1.305 . S
C100 O98 1.234 . S
Zn101 O107 1.920 . S
Zn101 O113 1.898 . S
Zn101 O116 1.905 . S
Zn102 O110 1.905 . S
Zn102 O111 1.898 . S
Zn102 O119 1.920 . S
Zn103 O106 2.080 . S
Zn103 O109 2.114 . S
Zn103 O112 2.120 . S
Zn103 O114 2.120 . S
Zn103 O115 2.114 . S
Zn103 O118 2.080 . S
C104 O109 1.166 . S
C104 O110 1.182 . S
C105 O111 1.167 . S
C105 O112 1.299 . S
O106 Zn103 2.080 . S
O106 C120 1.305 . S
O107 Zn101 1.920 . S
O107 C120 1.234 . S
C108 O113 1.167 . S
C108 O114 1.299 . S
O109 Zn103 2.114 . S
O109 C104 1.166 . S
O110 Zn102 1.905 . S
O110 C104 1.182 . S
O111 Zn102 1.898 . S
O111 C105 1.167 . S
O112 Zn103 2.120 . S
O112 C105 1.299 . S
O113 Zn101 1.898 . S
O113 C108 1.167 . S
O114 Zn103 2.120 . S
O114 C108 1.299 . S
O115 Zn103 2.114 . S
O115 C117 1.166 . S
O116 Zn101 1.905 . S
O116 C117 1.182 . S
C117 O115 1.166 . S
C117 O116 1.182 . S
O118 Zn103 2.080 . S
O118 C121 1.305 . S
O119 Zn102 1.920 . S
O119 C121 1.234 . S
C120 O106 1.305 . S
C120 O107 1.234 . S
C121 O118 1.305 . S
C121 O119 1.234 . S
H122 C128 0.930 . S
H123 C132 0.930 . S
H124 C137 0.929 . S
H125 C135 0.929 . S
H126 C130 0.929 . S
H127 C136 0.929 . S
C128 H122 0.930 . S
C128 C129 1.367 . S
C128 C136 1.378 . S
C129 C128 1.367 . S
C129 C137 1.433 . S
C130 H126 0.929 . S
C130 C132 1.378 . S
C130 C134 1.350 . S
C131 C134 1.463 . S
C131 C136 1.350 . S
C131 N139 1.427 . S
C132 H123 0.930 . S
C132 C130 1.378 . S
C132 C133 1.367 . S
C133 C132 1.367 . S
C133 C135 1.433 . S
C134 C130 1.350 . S
C134 C131 1.463 . S
C134 N138 1.427 . S
C135 H125 0.929 . S
C135 C133 1.433 . S
C135 N138 1.384 . S
C136 H127 0.929 . S
C136 C128 1.378 . S
C136 C131 1.350 . S
C137 H124 0.929 . S
C137 C129 1.433 . S
C137 N139 1.384 . S
N138 C134 1.427 . S
N138 C135 1.384 . S
N139 C131 1.427 . S
N139 C137 1.384 . S
H140 C146 0.930 . S
H141 C150 0.930 . S
H142 C155 0.929 . S
H143 C153 0.929 . S
H144 C148 0.929 . S
H145 C154 0.929 . S
C146 H140 0.930 . S
C146 C147 1.367 . S
C146 C154 1.378 . S
C147 C146 1.367 . S
C147 C155 1.433 . S
C148 H144 0.929 . S
C148 C150 1.378 . S
C148 C152 1.350 . S
C149 C152 1.463 . S
C149 C154 1.350 . S
C149 N157 1.427 . S
C150 H141 0.930 . S
C150 C148 1.378 . S
C150 C151 1.367 . S
C151 C150 1.367 . S
C151 C153 1.433 . S
C152 C148 1.350 . S
C152 C149 1.463 . S
C152 N156 1.427 . S
C153 H143 0.929 . S
C153 C151 1.433 . S
C153 N156 1.384 . S
C154 H145 0.929 . S
C154 C146 1.378 . S
C154 C149 1.350 . S
C155 H142 0.929 . S
C155 C147 1.433 . S
C155 N157 1.384 . S
N156 C152 1.427 . S
N156 C153 1.384 . S
N157 C149 1.427 . S
N157 C155 1.384 . S
H158 C164 0.930 . S
H159 C168 0.930 . S
H160 C173 0.929 . S
H161 C171 0.929 . S
H162 C166 0.929 . S
H163 C172 0.929 . S
C164 H158 0.930 . S
C164 C165 1.367 . S
C164 C172 1.378 . S
C165 C164 1.367 . S
C165 C173 1.433 . S
C166 H162 0.929 . S
C166 C168 1.378 . S
C166 C170 1.350 . S
C167 C170 1.463 . S
C167 C172 1.350 . S
C167 N175 1.427 . S
C168 H159 0.930 . S
C168 C166 1.378 . S
C168 C169 1.367 . S
C169 C168 1.367 . S
C169 C171 1.433 . S
C170 C166 1.350 . S
C170 C167 1.463 . S
C170 N174 1.427 . S
C171 H161 0.929 . S
C171 C169 1.433 . S
C171 N174 1.384 . S
C172 H163 0.929 . S
C172 C164 1.378 . S
C172 C167 1.350 . S
C173 H160 0.929 . S
C173 C165 1.433 . S
C173 N175 1.384 . S
N174 C170 1.427 . S
N174 C171 1.384 . S
N175 C167 1.427 . S
N175 C173 1.384 . S
H176 C182 0.930 . S
H177 C186 0.930 . S
H178 C191 0.929 . S
H179 C189 0.929 . S
H180 C184 0.929 . S
H181 C190 0.929 . S
C182 H176 0.930 . S
C182 C183 1.367 . S
C182 C190 1.378 . S
C183 C182 1.367 . S
C183 C191 1.433 . S
C184 H180 0.929 . S
C184 C186 1.378 . S
C184 C188 1.350 . S
C185 C188 1.463 . S
C185 C190 1.350 . S
C185 N193 1.427 . S
C186 H177 0.930 . S
C186 C184 1.378 . S
C186 C187 1.367 . S
C187 C186 1.367 . S
C187 C189 1.433 . S
C188 C184 1.350 . S
C188 C185 1.463 . S
C188 N192 1.427 . S
C189 H179 0.929 . S
C189 C187 1.433 . S
C189 N192 1.384 . S
C190 H181 0.929 . S
C190 C182 1.378 . S
C190 C185 1.350 . S
C191 H178 0.929 . S
C191 C183 1.433 . S
C191 N193 1.384 . S
N192 C188 1.427 . S
N192 C189 1.384 . S
N193 C185 1.427 . S
N193 C191 1.384 . S
H194 C200 0.930 . S
H195 C204 0.930 . S
H196 C209 0.929 . S
H197 C207 0.929 . S
H198 C202 0.929 . S
H199 C208 0.929 . S
C200 H194 0.930 . S
C200 C201 1.367 . S
C200 C208 1.378 . S
C201 C200 1.367 . S
C201 C209 1.433 . S
C202 H198 0.929 . S
C202 C204 1.378 . S
C202 C206 1.350 . S
C203 C206 1.463 . S
C203 C208 1.350 . S
C203 N211 1.427 . S
C204 H195 0.930 . S
C204 C202 1.378 . S
C204 C205 1.367 . S
C205 C204 1.367 . S
C205 C207 1.433 . S
C206 C202 1.350 . S
C206 C203 1.463 . S
C206 N210 1.427 . S
C207 H197 0.929 . S
C207 C205 1.433 . S
C207 N210 1.384 . S
C208 H199 0.929 . S
C208 C200 1.378 . S
C208 C203 1.350 . S
C209 H196 0.929 . S
C209 C201 1.433 . S
C209 N211 1.384 . S
N210 C206 1.427 . S
N210 C207 1.384 . S
N211 C203 1.427 . S
N211 C209 1.384 . S
H212 C218 0.930 . S
H213 C222 0.930 . S
H214 C227 0.929 . S
H215 C225 0.929 . S
H216 C220 0.929 . S
H217 C226 0.929 . S
C218 H212 0.930 . S
C218 C219 1.367 . S
C218 C226 1.378 . S
C219 C218 1.367 . S
C219 C227 1.433 . S
C220 H216 0.929 . S
C220 C222 1.378 . S
C220 C224 1.350 . S
C221 C224 1.463 . S
C221 C226 1.350 . S
C221 N229 1.427 . S
C222 H213 0.930 . S
C222 C220 1.378 . S
C222 C223 1.367 . S
C223 C222 1.367 . S
C223 C225 1.433 . S
C224 C220 1.350 . S
C224 C221 1.463 . S
C224 N228 1.427 . S
C225 H215 0.929 . S
C225 C223 1.433 . S
C225 N228 1.384 . S
C226 H217 0.929 . S
C226 C218 1.378 . S
C226 C221 1.350 . S
C227 H214 0.929 . S
C227 C219 1.433 . S
C227 N229 1.384 . S
N228 C224 1.427 . S
N228 C225 1.384 . S
N229 C221 1.427 . S
N229 C227 1.384 . S
H230 C236 0.930 . S
H231 C240 0.930 . S
H232 C245 0.929 . S
H233 C243 0.929 . S
H234 C238 0.929 . S
H235 C244 0.929 . S
C236 H230 0.930 . S
C236 C237 1.367 . S
C236 C244 1.378 . S
C237 C236 1.367 . S
C237 C245 1.433 . S
C238 H234 0.929 . S
C238 C240 1.378 . S
C238 C242 1.350 . S
C239 C242 1.463 . S
C239 C244 1.350 . S
C239 N247 1.427 . S
C240 H231 0.930 . S
C240 C238 1.378 . S
C240 C241 1.367 . S
C241 C240 1.367 . S
C241 C243 1.433 . S
C242 C238 1.350 . S
C242 C239 1.463 . S
C242 N246 1.427 . S
C243 H233 0.929 . S
C243 C241 1.433 . S
C243 N246 1.384 . S
C244 H235 0.929 . S
C244 C236 1.378 . S
C244 C239 1.350 . S
C245 H232 0.929 . S
C245 C237 1.433 . S
C245 N247 1.384 . S
N246 C242 1.427 . S
N246 C243 1.384 . S
N247 C239 1.427 . S
N247 C245 1.384 . S
H248 C254 0.930 . S
H249 C258 0.930 . S
H250 C263 0.929 . S
H251 C261 0.929 . S
H252 C256 0.929 . S
H253 C262 0.929 . S
C254 H248 0.930 . S
C254 C255 1.367 . S
C254 C262 1.378 . S
C255 C254 1.367 . S
C255 C263 1.433 . S
C256 H252 0.929 . S
C256 C258 1.378 . S
C256 C260 1.350 . S
C257 C260 1.463 . S
C257 C262 1.350 . S
C257 N265 1.427 . S
C258 H249 0.930 . S
C258 C256 1.378 . S
C258 C259 1.367 . S
C259 C258 1.367 . S
C259 C261 1.433 . S
C260 C256 1.350 . S
C260 C257 1.463 . S
C260 N264 1.427 . S
C261 H251 0.929 . S
C261 C259 1.433 . S
C261 N264 1.384 . S
C262 H253 0.929 . S
C262 C254 1.378 . S
C262 C257 1.350 . S
C263 H250 0.929 . S
C263 C255 1.433 . S
C263 N265 1.384 . S
N264 C260 1.427 . S
N264 C261 1.384 . S
N265 C257 1.427 . S
N265 C263 1.384 . S
H266 C272 0.930 . S
H267 C276 0.930 . S
H268 C281 0.929 . S
H269 C279 0.929 . S
H270 C274 0.929 . S
H271 C280 0.929 . S
C272 H266 0.930 . S
C272 C273 1.367 . S
C272 C280 1.378 . S
C273 C272 1.367 . S
C273 C281 1.433 . S
C274 H270 0.929 . S
C274 C276 1.378 . S
C274 C278 1.350 . S
C275 C278 1.463 . S
C275 C280 1.350 . S
C275 N283 1.427 . S
C276 H267 0.930 . S
C276 C274 1.378 . S
C276 C277 1.367 . S
C277 C276 1.367 . S
C277 C279 1.433 . S
C278 C274 1.350 . S
C278 C275 1.463 . S
C278 N282 1.427 . S
C279 H269 0.929 . S
C279 C277 1.433 . S
C279 N282 1.384 . S
C280 H271 0.929 . S
C280 C272 1.378 . S
C280 C275 1.350 . S
C281 H268 0.929 . S
C281 C273 1.433 . S
C281 N283 1.384 . S
N282 C278 1.427 . S
N282 C279 1.384 . S
N283 C275 1.427 . S
N283 C281 1.384 . S
H284 C290 0.930 . S
H285 C294 0.930 . S
H286 C299 0.929 . S
H287 C297 0.929 . S
H288 C292 0.929 . S
H289 C298 0.929 . S
C290 H284 0.930 . S
C290 C291 1.367 . S
C290 C298 1.378 . S
C291 C290 1.367 . S
C291 C299 1.433 . S
C292 H288 0.929 . S
C292 C294 1.378 . S
C292 C296 1.350 . S
C293 C296 1.463 . S
C293 C298 1.350 . S
C293 N301 1.427 . S
C294 H285 0.930 . S
C294 C292 1.378 . S
C294 C295 1.367 . S
C295 C294 1.367 . S
C295 C297 1.433 . S
C296 C292 1.350 . S
C296 C293 1.463 . S
C296 N300 1.427 . S
C297 H287 0.929 . S
C297 C295 1.433 . S
C297 N300 1.384 . S
C298 H289 0.929 . S
C298 C290 1.378 . S
C298 C293 1.350 . S
C299 H286 0.929 . S
C299 C291 1.433 . S
C299 N301 1.384 . S
N300 C296 1.427 . S
N300 C297 1.384 . S
N301 C293 1.427 . S
N301 C299 1.384 . S
H302 C308 0.930 . S
H303 C312 0.930 . S
H304 C317 0.929 1_545 S
H305 C315 0.929 . S
H306 C310 0.929 . S
H307 C316 0.929 . S
C308 H302 0.930 . S
C308 C309 1.367 . S
C308 C316 1.378 . S
C309 C308 1.367 . S
C309 C317 1.433 . S
C310 H306 0.929 . S
C310 C312 1.378 . S
C310 C314 1.350 . S
C311 C314 1.463 . S
C311 C316 1.350 . S
C311 N319 1.427 . S
C312 H303 0.930 . S
C312 C310 1.378 . S
C312 C313 1.367 . S
C313 C312 1.367 . S
C313 C315 1.433 . S
C314 C310 1.350 . S
C314 C311 1.463 . S
C314 N318 1.427 . S
C315 H305 0.929 . S
C315 C313 1.433 . S
C315 N318 1.384 . S
C316 H307 0.929 . S
C316 C308 1.378 . S
C316 C311 1.350 . S
C317 H304 0.929 1_565 S
C317 C309 1.433 . S
C317 N319 1.384 . S
N318 C314 1.427 . S
N318 C315 1.384 . S
N319 C311 1.427 . S
N319 C317 1.384 . S
H320 C326 0.930 . S
H321 C330 0.930 . S
H322 C335 0.929 . S
H323 C333 0.929 . S
H324 C328 0.929 . S
H325 C334 0.929 . S
C326 H320 0.930 . S
C326 C327 1.367 . S
C326 C334 1.378 . S
C327 C326 1.367 . S
C327 C335 1.433 . S
C328 H324 0.929 . S
C328 C330 1.378 . S
C328 C332 1.350 . S
C329 C332 1.463 . S
C329 C334 1.350 . S
C329 N337 1.427 . S
C330 H321 0.930 . S
C330 C328 1.378 . S
C330 C331 1.367 . S
C331 C330 1.367 . S
C331 C333 1.433 . S
C332 C328 1.350 . S
C332 C329 1.463 . S
C332 N336 1.427 . S
C333 H323 0.929 . S
C333 C331 1.433 . S
C333 N336 1.384 . S
C334 H325 0.929 . S
C334 C326 1.378 . S
C334 C329 1.350 . S
C335 H322 0.929 . S
C335 C327 1.433 . S
C335 N337 1.384 . S
N336 C332 1.427 . S
N336 C333 1.384 . S
N337 C329 1.427 . S
N337 C335 1.384 . S
C129 C11 1.903 . S
C133 C99 1.842 . S
C147 C51 1.226 . S
C151 C105 1.140 . S
C165 C7 0.899 . S
C169 C96 0.839 . S
C183 C47 1.399 . S
C187 C121 1.261 . S
C201 C10 2.111 . S
C205 C87 1.989 . S
C223 C104 2.273 . S
C219 C50 2.351 . S
C237 C56 1.268 . S
C241 C100 1.189 . S
C259 C117 1.760 . S
C255 C19 1.825 . S
C277 C84 2.107 . S
C273 C59 2.199 . S
C295 C120 2.051 . S
C291 C2 2.100 . S
C313 C83 1.385 . S
C309 C42 1.458 . S
C331 C108 0.859 . S
C327 C16 0.907 . S
