# Generated by pormake.
# Topology pyr, (3,6)-cn, num edge types: 1
# Building blocks:
#     Node 0, Type 0, BuildingBlock: OLANEW_clean_sbu_2, # of connection points: 3
#     Node 1, Type 0, BuildingBlock: OLANEW_clean_sbu_2, # of connection points: 3
#     Node 2, Type 0, BuildingBlock: OLANEW_clean_sbu_2, # of connection points: 3
#     Node 3, Type 0, BuildingBlock: OLANEW_clean_sbu_2, # of connection points: 3
#     Node 4, Type 0, BuildingBlock: OLANEW_clean_sbu_2, # of connection points: 3
#     Node 5, Type 0, BuildingBlock: OLANEW_clean_sbu_2, # of connection points: 3
#     Node 6, Type 0, BuildingBlock: OLANEW_clean_sbu_2, # of connection points: 3
#     Node 7, Type 0, BuildingBlock: OLANEW_clean_sbu_2, # of connection points: 3
#     Node 8, Type 1, BuildingBlock: JUFBIX_clean_sbu_0, # of connection points: 6
#     Node 9, Type 1, BuildingBlock: JUFBIX_clean_sbu_0, # of connection points: 6
#     Node 10, Type 1, BuildingBlock: JUFBIX_clean_sbu_0, # of connection points: 6
#     Node 11, Type 1, BuildingBlock: JUFBIX_clean_sbu_0, # of connection points: 6
#     Edge 12, Type (0, 1), BuildingBlock: XIVTED_clean_linker_0, # of connection points: 2
#     Edge 13, Type (0, 1), BuildingBlock: XIVTED_clean_linker_0, # of connection points: 2
#     Edge 14, Type (0, 1), BuildingBlock: XIVTED_clean_linker_0, # of connection points: 2
#     Edge 15, Type (0, 1), BuildingBlock: XIVTED_clean_linker_0, # of connection points: 2
#     Edge 16, Type (0, 1), BuildingBlock: XIVTED_clean_linker_0, # of connection points: 2
#     Edge 17, Type (0, 1), BuildingBlock: XIVTED_clean_linker_0, # of connection points: 2
#     Edge 18, Type (0, 1), BuildingBlock: XIVTED_clean_linker_0, # of connection points: 2
#     Edge 19, Type (0, 1), BuildingBlock: XIVTED_clean_linker_0, # of connection points: 2
#     Edge 20, Type (0, 1), BuildingBlock: XIVTED_clean_linker_0, # of connection points: 2
#     Edge 21, Type (0, 1), BuildingBlock: XIVTED_clean_linker_0, # of connection points: 2
#     Edge 22, Type (0, 1), BuildingBlock: XIVTED_clean_linker_0, # of connection points: 2
#     Edge 23, Type (0, 1), BuildingBlock: XIVTED_clean_linker_0, # of connection points: 2
#     Edge 24, Type (0, 1), BuildingBlock: XIVTED_clean_linker_0, # of connection points: 2
#     Edge 25, Type (0, 1), BuildingBlock: XIVTED_clean_linker_0, # of connection points: 2
#     Edge 26, Type (0, 1), BuildingBlock: XIVTED_clean_linker_0, # of connection points: 2
#     Edge 27, Type (0, 1), BuildingBlock: XIVTED_clean_linker_0, # of connection points: 2
#     Edge 28, Type (0, 1), BuildingBlock: XIVTED_clean_linker_0, # of connection points: 2
#     Edge 29, Type (0, 1), BuildingBlock: XIVTED_clean_linker_0, # of connection points: 2
#     Edge 30, Type (0, 1), BuildingBlock: XIVTED_clean_linker_0, # of connection points: 2
#     Edge 31, Type (0, 1), BuildingBlock: XIVTED_clean_linker_0, # of connection points: 2
#     Edge 32, Type (0, 1), BuildingBlock: XIVTED_clean_linker_0, # of connection points: 2
#     Edge 33, Type (0, 1), BuildingBlock: XIVTED_clean_linker_0, # of connection points: 2
#     Edge 34, Type (0, 1), BuildingBlock: XIVTED_clean_linker_0, # of connection points: 2
#     Edge 35, Type (0, 1), BuildingBlock: XIVTED_clean_linker_0, # of connection points: 2
# Relax obj value: 0.121
# Max RMSD: 0.172
# Mean RMSD: 0.119
data_MOF--net-pyr--node1-OLANEW_clean_sbu_2--node2-JUFBIX_clean_sbu_0--edge1-XIVTED_clean_linker_0
_symmetry_space_group_name_H-M    P1
_symmetry_Int_Tables_number       1
_symmetry_cell_setting            triclinic
loop_
_symmetry_equiv_pos_as_xyz
'x, y, z'
_cell_length_a     40.46745
_cell_length_b     38.00692
_cell_length_c     39.425222
_cell_angle_alpha  89.931834
_cell_angle_beta   90.280928
_cell_angle_gamma 96.793243
loop_
_atom_site_label
_atom_site_type_symbol
_atom_site_fract_x
_atom_site_fract_y
_atom_site_fract_z
_atom_type_partial_charge
O0 O 0.22688 0.17281 0.16357 0.0
Cd1 Cd 0.17228 0.19275 0.17745 0.0
O2 O 0.23455 0.14161 0.21002 0.0
Cd3 Cd 0.18988 0.14476 0.24145 0.0
O4 O 0.15752 0.12941 0.28564 0.0
C5 C 0.17157 0.12139 0.31313 0.0
O6 O 0.20421 0.12356 0.31401 0.0
C7 C 0.24445 0.15356 0.18106 0.0
C8 C 0.15163 0.25081 0.14107 0.0
O9 O 0.16803 0.25525 0.16896 0.0
O10 O 0.14585 0.21913 0.12958 0.0
O11 O 0.52362 0.95276 0.69935 0.0
Cd12 Cd 0.54981 0.93553 0.6473 0.0
O13 O 0.47243 0.93325 0.68435 0.0
Cd14 Cd 0.41802 0.92635 0.68834 0.0
O15 O 0.36396 0.92517 0.68419 0.0
C16 C 0.34788 0.93987 0.70669 0.0
O17 O 0.3641 0.9548 0.7329 0.0
C18 C 0.49273 0.94828 0.7061 0.0
C19 C 0.53959 0.86328 0.63331 0.0
O20 O 0.52246 0.88487 0.61811 0.0
O21 O 0.5611 0.87571 0.65549 0.0
O22 O 0.72742 0.49471 0.93352 0.0
Cd23 Cd 0.67572 0.50988 0.90728 0.0
O24 O 0.70861 0.43836 0.93546 0.0
Cd25 Cd 0.70383 0.38219 0.94946 0.0
O26 O 0.6767 0.32979 0.95951 0.0
C27 C 0.66107 0.32532 0.98737 0.0
O28 O 0.66316 0.35156 0.00925 0.0
C29 C 0.73133 0.46334 0.94262 0.0
C30 C 0.66793 0.50717 0.83672 0.0
O31 O 0.68303 0.53471 0.85126 0.0
O32 O 0.65791 0.48038 0.85535 0.0
O33 O 0.04209 0.67592 0.46694 0.0
Cd34 Cd 0.02525 0.61302 0.45549 0.0
O35 O 0.01426 0.66212 0.51325 0.0
Cd36 Cd 0.98267 0.67236 0.55586 0.0
O37 O 0.92883 0.66157 0.56056 0.0
C38 C 0.91475 0.65845 0.53166 0.0
O39 O 0.93333 0.66332 0.50441 0.0
C40 C 0.03053 0.68554 0.49489 0.0
C41 C 0.01473 0.59527 0.38732 0.0
O42 O 0.99205 0.60801 0.40441 0.0
O43 O 0.04236 0.59172 0.40224 0.0
O44 O 0.8642 0.85603 0.84772 0.0
Cd45 Cd 0.83933 0.82261 0.89683 0.0
O46 O 0.84485 0.90808 0.85309 0.0
Cd47 Cd 0.80907 0.9 0.89565 0.0
O48 O 0.76726 0.91235 0.92837 0.0
C49 C 0.73964 0.91689 0.91434 0.0
O50 O 0.73677 0.91288 0.88131 0.0
C51 C 0.86282 0.88776 0.83773 0.0
C52 C 0.87428 0.7661 0.91763 0.0
O53 O 0.85246 0.76215 0.89384 0.0
O54 O 0.87996 0.79676 0.93142 0.0
O55 O 0.57871 0.05418 0.4449 0.0
Cd56 Cd 0.59441 0.05045 0.50465 0.0
O57 O 0.58844 0.112 0.44688 0.0
Cd58 Cd 0.59031 0.16764 0.43135 0.0
O59 O 0.58983 0.22494 0.4371 0.0
C60 C 0.56401 0.2352 0.45025 0.0
O61 O 0.53901 0.21132 0.45808 0.0
C62 C 0.5796 0.08392 0.42996 0.0
C63 C 0.66046 0.0372 0.51166 0.0
O64 O 0.63691 0.01179 0.50807 0.0
O65 O 0.65279 0.06896 0.51212 0.0
O66 O 0.40852 0.71832 0.1935 0.0
Cd67 Cd 0.39167 0.65779 0.21402 0.0
O68 O 0.37419 0.70458 0.15144 0.0
Cd69 Cd 0.34445 0.70515 0.1047 0.0
O70 O 0.30115 0.68906 0.07219 0.0
C71 C 0.29918 0.66108 0.05423 0.0
O72 O 0.32463 0.6426 0.05353 0.0
C73 C 0.39508 0.7274 0.1661 0.0
C74 C 0.4195 0.63951 0.27576 0.0
O75 O 0.43464 0.6364 0.24762 0.0
O76 O 0.39146 0.65205 0.27486 0.0
O77 O 0.1109 0.50202 0.64308 0.0
Cd78 Cd 0.13744 0.55124 0.67729 0.0
O79 O 0.08318 0.45056 0.63136 0.0
Cd80 Cd 0.0577 0.39772 0.64229 0.0
O81 O 0.0421 0.34079 0.64542 0.0
C82 C 0.02002 0.3257 0.62552 0.0
O83 O 1.0055 0.34503 0.60362 0.0
C84 C 0.09422 0.47356 0.65331 0.0
C85 C 0.2059 0.55431 0.66765 0.0
O86 O 0.18804 0.57159 0.64827 0.0
O87 O 0.19152 0.53657 0.69221 0.0
Co88 Co 0.99226 0.99988 0.55995 0.0
C89 C 0.02602 0.93973 0.55753 0.0
Co90 Co 0.03956 1.00432 0.58894 0.0
C91 C 0.92284 1.00362 0.54467 0.0
C92 C 0.94736 0.97774 0.50551 0.0
N93 N 0.95262 0.99378 0.53588 0.0
N94 N 0.89917 0.99414 0.52106 0.0
C95 C 0.91452 0.9778 0.49641 0.0
H96 H 0.91852 0.01696 0.56819 0.0
H97 H 0.96622 0.96668 0.49094 0.0
C98 C 1.00556 0.06452 0.59103 0.0
N99 N 0.07986 0.01118 0.61261 0.0
C100 C 0.09835 0.98733 0.62643 0.0
C101 C 0.09774 0.04294 0.61837 0.0
N102 N 0.12664 1.00318 0.64085 0.0
C103 C 0.12622 0.03813 0.63586 0.0
C104 C 0.04645 0.02677 0.5212 0.0
O105 O 0.98411 0.04647 0.5725 0.0
O106 O 0.03111 0.05081 0.60069 0.0
O107 O 0.06204 0.02218 0.54867 0.0
O108 O 0.01503 0.0188 0.52037 0.0
O109 O 0.04708 0.95733 0.57689 0.0
H110 H 0.0911 0.06816 0.60967 0.0
H111 H 0.09139 0.95895 0.62577 0.0
O112 O 1.00072 0.95363 0.54733 0.0
O113 O 0.96989 0.98079 0.6 0.0
O114 O 0.01685 0.98676 0.62886 0.0
C115 C 0.98556 0.97764 0.62776 0.0
H116 H 0.90294 0.96708 0.47323 0.0
H117 H 0.14582 0.05867 0.64313 0.0
Co118 Co 0.48502 0.03091 0.0386 0.0
C119 C 0.4737 0.97349 0.08412 0.0
Co120 Co 0.51248 0.03744 0.08717 0.0
C121 C 0.47163 0.02372 0.96679 0.0
C122 C 0.42748 0.01273 0.99643 0.0
N123 N 0.46042 0.02317 0.99898 0.0
N124 N 0.44708 0.01364 0.94424 0.0
C125 C 0.41921 0.00681 0.96285 0.0
H126 H 0.49761 0.02986 0.96021 0.0
H127 H 0.4107 0.00865 0.01773 0.0
C128 C 0.5244 0.0947 0.04213 0.0
N129 N 0.53753 0.04582 0.12656 0.0
C130 C 0.52785 0.04709 0.15928 0.0
C131 C 0.57055 0.05641 0.12723 0.0
N132 N 0.55355 0.05849 0.18013 0.0
C133 C 0.58042 0.06416 0.15998 0.0
C134 C 0.54672 1.00587 0.03572 0.0
O135 O 0.50473 0.07605 0.02214 0.0
O136 O 0.53025 0.0826 0.07128 0.0
O137 O 0.54879 0.0166 0.06632 0.0
O138 O 0.52032 0.00912 0.01905 0.0
O139 O 0.49454 0.99217 0.10292 0.0
H140 H 0.58632 0.05956 0.1051 0.0
H141 H 0.50228 0.0413 0.16743 0.0
O142 O 0.46586 0.98571 0.05546 0.0
O143 O 0.4498 0.05295 0.05833 0.0
O144 O 0.47584 0.05805 0.10725 0.0
C145 C 0.4505 0.06265 0.08918 0.0
H146 H 0.39469 0.99765 0.95302 0.0
H147 H 0.60544 0.07364 0.16827 0.0
Co148 Co 0.57578 0.55809 0.53541 0.0
C149 C 0.52117 0.56138 0.49213 0.0
Co150 Co 0.5272 0.5395 0.55821 0.0
C151 C 0.64718 0.57261 0.52451 0.0
C152 C 0.61877 0.60015 0.48959 0.0
N153 N 0.61559 0.57652 0.51531 0.0
N154 N 0.66976 0.59286 0.50554 0.0
C155 C 0.6519 0.61004 0.48344 0.0
H156 H 0.65353 0.55584 0.54515 0.0
H157 H 0.59838 0.61082 0.47694 0.0
C158 C 0.58161 0.53636 0.60169 0.0
N159 N 0.48755 0.52164 0.57834 0.0
C160 C 0.45969 0.53742 0.58269 0.0
C161 C 0.48137 0.49003 0.59404 0.0
N162 N 0.43647 0.517 0.60077 0.0
C163 C 0.45005 0.48709 0.60781 0.0
C164 C 0.55802 0.48689 0.52532 0.0
O165 O 0.59825 0.55088 0.57711 0.0
O166 O 0.55039 0.52846 0.59825 0.0
O167 O 0.53187 0.49402 0.5403 0.0
O168 O 0.58191 0.51141 0.521 0.0
O169 O 0.504 0.55079 0.51791 0.0
H170 H 0.49881 0.47062 0.59592 0.0
H171 H 0.45696 0.56384 0.57368 0.0
O172 O 0.55268 0.56496 0.49442 0.0
O173 O 0.56933 0.60459 0.54953 0.0
O174 O 0.52309 0.58523 0.57588 0.0
C175 C 0.54476 0.61069 0.56764 0.0
H176 H 0.66202 0.62975 0.46526 0.0
H177 H 0.43827 0.46465 0.62196 0.0
Co178 Co 0.01832 0.49634 0.99134 0.0
C179 C 0.95925 0.47364 0.02814 0.0
Co180 Co 0.01574 0.51597 0.04407 0.0
C181 C 0.03639 0.47476 0.92292 0.0
C182 C 0.98415 0.47618 0.92998 0.0
N183 N 0.01365 0.48126 0.94647 0.0
N184 N 0.02195 0.46537 0.8927 0.0
C185 C 0.98913 0.46624 0.89723 0.0
H186 H 0.06292 0.47724 0.92768 0.0
H187 H 0.96041 0.48046 0.94072 0.0
C188 C 0.07379 0.54045 1.00652 0.0
N189 N 0.0211 0.53065 0.08917 0.0
C190 C 0.9994 0.5349 0.11454 0.0
C191 C 0.05133 0.53463 0.10439 0.0
N192 N 0.01533 0.54128 0.14455 0.0
C193 C 0.04785 0.54119 0.13812 0.0
C194 C 0.04451 0.45151 0.03539 0.0
O195 O 0.06132 0.52124 0.98224 0.0
O196 O 0.05788 0.54103 0.03407 0.0
O197 O 0.03615 0.47465 0.05593 0.0
O198 O 0.03868 0.45504 1.00386 0.0
O199 O 0.97266 0.49161 0.05285 0.0
H200 H 0.07456 0.53093 0.09226 0.0
H201 H 0.97261 0.53135 0.11153 0.0
O202 O 0.97558 0.47177 1.00093 0.0
O203 O 0.99775 0.53809 0.97942 0.0
O204 O 0.99568 0.55683 0.032 0.0
C205 C 0.98976 0.56097 1.00059 0.0
H206 H 0.97015 0.46156 0.87777 0.0
H207 H 0.06757 0.54404 0.15695 0.0
H208 H 0.10331 0.10853 0.32016 0.0
H209 H 0.11361 0.04526 0.51409 0.0
H210 H 0.19506 0.10514 0.37566 0.0
H211 H 0.02114 0.04157 0.45849 0.0
H212 H 0.14338 0.06901 0.46381 0.0
H213 H 0.07232 0.08604 0.37064 0.0
C214 C 0.11695 0.10319 0.34292 0.0
C215 C 0.15191 0.10875 0.34354 0.0
C216 C 0.11657 0.06304 0.46253 0.0
C217 C 0.11657 0.08293 0.40145 0.0
C218 C 0.09951 0.04944 0.49132 0.0
C219 C 0.06475 0.0413 0.49063 0.0
C220 C 0.09887 0.06872 0.43262 0.0
C221 C 0.04793 0.04738 0.46025 0.0
C222 C 0.09924 0.09028 0.37173 0.0
C223 C 0.16818 0.10127 0.37383 0.0
N224 N 0.06512 0.06071 0.43252 0.0
N225 N 0.15044 0.08879 0.40142 0.0
H226 H 0.43895 0.92116 0.7446 0.0
H227 H 0.49388 0.04695 0.9025 0.0
H228 H 0.52198 1.00355 0.7433 0.0
H229 H 0.40861 0.96725 0.90387 0.0
H230 H 0.50206 0.03399 0.84273 0.0
H231 H 0.42437 0.9406 0.80116 0.0
C232 C 0.45359 0.94389 0.75578 0.0
C233 C 0.48143 0.96109 0.73897 0.0
C234 C 0.48141 0.01946 0.85602 0.0
C235 C 0.46563 0.98271 0.80417 0.0
C236 C 0.47685 0.02675 0.89023 0.0
C237 C 0.45068 0.008 0.90836 0.0
C238 C 0.45978 0.99302 0.83974 0.0
C239 C 0.42898 0.98254 0.89091 0.0
C240 C 0.44552 0.95471 0.78829 0.0
C241 C 0.50032 0.9895 0.75537 0.0
N242 N 0.43417 0.9756 0.85766 0.0
N243 N 0.49217 0.9993 0.78705 0.0
H244 H 0.62593 0.45877 0.80113 0.0
H245 H 0.64323 0.56439 0.62505 0.0
H246 H 0.69105 0.55634 0.7887 0.0
H247 H 0.55709 0.49219 0.6526 0.0
H248 H 0.66789 0.55451 0.68081 0.0
H249 H 0.60778 0.46317 0.7422 0.0
C250 C 0.63676 0.48089 0.78591 0.0
C251 C 0.65988 0.50738 0.79999 0.0
C252 C 0.64368 0.54074 0.67448 0.0
C253 C 0.63913 0.51255 0.73247 0.0
C254 C 0.62964 0.54626 0.64268 0.0
C255 C 0.59794 0.52929 0.63428 0.0
C256 C 0.62611 0.51765 0.69776 0.0
C257 C 0.58145 0.50608 0.65811 0.0
C258 C 0.62624 0.48347 0.75231 0.0
C259 C 0.67301 0.53544 0.77897 0.0
N260 N 0.59572 0.50093 0.68871 0.0
N261 N 0.66238 0.53736 0.74628 0.0
H262 H 0.04723 0.54859 0.35214 0.0
H263 H 0.98013 0.59097 0.1709 0.0
H264 H 0.9693 0.61616 0.34155 0.0
H265 H 0.02287 0.49548 0.19457 0.0
H266 H 0.97354 0.60149 0.23216 0.0
H267 H 0.03871 0.53043 0.29323 0.0
C268 C 0.0283 0.55963 0.33736 0.0
C269 C 0.00909 0.58406 0.35167 0.0
C270 C 0.98347 0.57771 0.22386 0.0
C271 C 0.99919 0.56344 0.28397 0.0
C272 C 0.98688 0.57161 0.18905 0.0
C273 C 1.00198 0.54235 0.17807 0.0
C274 C 0.9958 0.55458 0.24741 0.0
C275 C 0.0111 0.5183 0.20231 0.0
C276 C 0.02323 0.54903 0.30377 0.0
C277 C 0.98466 0.59726 0.33139 0.0
N278 N 0.0084 0.52522 0.23582 0.0
N279 N 0.98067 0.58714 0.29832 0.0
H280 H 0.26842 0.1604 0.11575 0.0
H281 H 0.43711 0.07581 0.15616 0.0
H282 H 0.29345 0.12369 0.2152 0.0
H283 H 0.39818 0.08598 0.05499 0.0
H284 H 0.38826 0.10029 0.17882 0.0
H285 H 0.31961 0.14048 0.09367 0.0
C286 C 0.28474 0.14842 0.13302 0.0
C287 C 0.2764 0.14363 0.16741 0.0
C288 C 0.39049 0.09723 0.15166 0.0
C289 C 0.33523 0.12079 0.14223 0.0
C290 C 0.41843 0.08334 0.1387 0.0
C291 C 0.42178 0.07866 0.1036 0.0
C292 C 0.36584 0.10693 0.12938 0.0
C293 C 0.39666 0.08891 0.08223 0.0
C294 C 0.31392 0.1369 0.12035 0.0
C295 C 0.29863 0.12779 0.18848 0.0
N296 N 0.36988 0.10256 0.09542 0.0
N297 N 0.32693 0.117 0.1756 0.0
H298 H 0.30788 0.97654 0.74569 0.0
H299 H 0.15064 0.94285 0.62067 0.0
H300 H 0.30606 0.91033 0.65664 0.0
H301 H 0.16479 0.02722 0.69411 0.0
H302 H 0.20225 0.92141 0.64087 0.0
H303 H 0.2503 0.98619 0.73417 0.0
C304 C 0.29531 0.96374 0.72389 0.0
C305 C 0.31201 0.94296 0.70185 0.0
C306 C 0.1938 0.94436 0.65282 0.0
C307 C 0.24598 0.95393 0.68852 0.0
C308 C 0.16428 0.95638 0.64149 0.0
C309 C 0.15375 0.98702 0.65557 0.0
C310 C 0.21259 0.96295 0.6786 0.0
C311 C 0.1724 1.00381 0.68229 0.0
C312 C 0.26242 0.96932 0.71729 0.0
C313 C 0.29428 0.92687 0.67411 0.0
N314 N 0.20098 0.9917 0.69281 0.0
N315 N 0.2623 0.93288 0.66809 0.0
H316 H 0.7661 0.40515 0.94237 0.0
H317 H 0.90944 0.49909 0.0641 0.0
H318 H 0.76498 0.50818 0.98775 0.0
H319 H 0.92694 0.42116 0.98888 0.0
H320 H 0.85003 0.49021 0.04974 0.0
H321 H 0.8191 0.39963 0.97173 0.0
C322 C 0.77665 0.42625 0.95899 0.0
C323 C 0.76132 0.45728 0.96245 0.0
C324 C 0.86681 0.47446 0.03696 0.0
C325 C 0.82144 0.45103 0.99623 0.0
C326 C 0.90066 0.47921 0.04543 0.0
C327 C 0.9232 0.46106 0.02745 0.0
C328 C 0.85545 0.45116 0.01059 0.0
C329 C 0.91041 0.43591 1.00318 0.0
C330 C 0.80689 0.42317 0.9756 0.0
C331 C 0.77621 0.484 0.98405 0.0
N332 N 0.87746 0.43199 0.99516 0.0
N333 N 0.80541 0.4803 1.00003 0.0
H334 H 0.87823 0.6526 0.47332 0.0
H335 H 0.70496 0.5886 0.56407 0.0
H336 H 0.86878 0.64027 0.58185 0.0
H337 H 0.71575 0.61022 0.45702 0.0
H338 H 0.76522 0.60324 0.57121 0.0
H339 H 0.81895 0.63397 0.46711 0.0
C340 C 0.86367 0.64602 0.49592 0.0
C341 C 0.87852 0.64807 0.52818 0.0
C342 C 0.75438 0.60463 0.54615 0.0
C343 C 0.81033 0.62648 0.5212 0.0
C344 C 0.72004 0.59599 0.54202 0.0
C345 C 0.70533 0.59838 0.5099 0.0
C346 C 0.77405 0.61554 0.51792 0.0
C347 C 0.72599 0.60853 0.48228 0.0
C348 C 0.82974 0.63533 0.49233 0.0
C349 C 0.85832 0.63917 0.5565 0.0
N350 N 0.75923 0.6168 0.48694 0.0
N351 N 0.8252 0.62872 0.55235 0.0
H352 H 0.15315 0.3192 0.16343 0.0
H353 H 0.05756 0.39015 1.00279 0.0
H354 H 0.1196 0.25167 0.07918 0.0
H355 H 0.07033 0.44461 0.09879 0.0
H356 H 0.08517 0.34138 0.02694 0.0
H357 H 0.12846 0.36783 0.13651 0.0
C358 C 0.14079 0.31461 0.13913 0.0
C359 C 0.13843 0.28113 0.12367 0.0
C360 C 0.08189 0.36406 0.04263 0.0
C361 C 0.10988 0.33706 0.09252 0.0
C362 C 0.06619 0.39193 0.02884 0.0
C363 C 0.06142 0.42154 0.04877 0.0
C364 C 0.0933 0.36604 0.07645 0.0
C365 C 0.07318 0.42232 0.08242 0.0
C366 C 0.12654 0.34243 0.1238 0.0
C367 C 0.12198 0.27695 0.09212 0.0
N368 N 0.08856 0.39517 0.09506 0.0
N369 N 0.10835 0.30453 0.07761 0.0
H370 H 0.63183 0.30451 0.04747 0.0
H371 H 0.53531 0.12255 0.97791 0.0
H372 H 0.64172 0.26967 0.94423 0.0
H373 H 0.55259 0.14661 0.08394 0.0
H374 H 0.56774 0.17948 0.96333 0.0
H375 H 0.59636 0.2496 0.05957 0.0
C376 C 0.62656 0.2853 0.0273 0.0
C377 C 0.63994 0.29167 0.99482 0.0
C378 C 0.56424 0.17222 0.98974 0.0
C379 C 0.59899 0.22862 0.0085 0.0
C380 C 0.5456 0.13992 0.99806 0.0
C381 C 0.54136 0.1298 0.03217 0.0
C382 C 0.57822 0.1946 0.01577 0.0
C383 C 0.55539 0.15319 0.0573 0.0
C384 C 0.60629 0.25389 0.03425 0.0
C385 C 0.63212 0.26574 0.9697 0.0
N386 N 0.5731 0.1844 0.0486 0.0
N387 N 0.61207 0.23535 0.97704 0.0
H388 H 0.03657 0.71455 0.55835 0.0
H389 H 1.00191 0.90554 0.50042 0.0
H390 H 0.03095 0.74242 0.45258 0.0
H391 H 0.05924 0.89098 0.59085 0.0
H392 H 1.00609 0.84404 0.4845 0.0
H393 H 0.03875 0.77751 0.57325 0.0
C394 C 0.03568 0.73394 0.53831 0.0
C395 C 0.03323 0.72336 0.50423 0.0
C396 C 0.01795 0.8544 0.50769 0.0
C397 C 0.03558 0.79501 0.52103 0.0
C398 C 0.01547 0.88938 0.51687 0.0
C399 C 0.03024 0.90328 0.54701 0.0
C400 C 0.0346 0.83286 0.5292 0.0
C401 C 0.04763 0.88126 0.56734 0.0
C402 C 0.03722 0.76977 0.5468 0.0
C403 C 0.03281 0.74953 0.47917 0.0
N404 N 0.04897 0.8469 0.55829 0.0
N405 N 0.03351 0.78415 0.48809 0.0
H406 H 0.52141 0.83347 0.57218 0.0
H407 H 0.5182 0.6328 0.62647 0.0
H408 H 0.54997 0.80719 0.67384 0.0
H409 H 0.56309 0.6713 0.53243 0.0
H410 H 0.51405 0.69447 0.64354 0.0
H411 H 0.52031 0.77089 0.55626 0.0
C412 C 0.52697 0.81444 0.59124 0.0
C413 C 0.53596 0.82538 0.6243 0.0
C414 C 0.52465 0.68919 0.61916 0.0
C415 C 0.53416 0.7542 0.60645 0.0
C416 C 0.52694 0.65422 0.6094 0.0
C417 C 0.54121 0.64719 0.57815 0.0
C418 C 0.53571 0.71695 0.59698 0.0
C419 C 0.55222 0.67574 0.55688 0.0
C420 C 0.5265 0.77893 0.5821 0.0
C421 C 0.54315 0.79975 0.64802 0.0
N422 N 0.54897 0.70944 0.56655 0.0
N423 N 0.54192 0.76518 0.63868 0.0
H424 H 0.89204 0.95522 0.82519 0.0
H425 H 0.9301 0.92899 0.63153 0.0
H426 H 0.8766 0.85083 0.78091 0.0
H427 H 0.99991 0.9949 0.69401 0.0
H428 H 0.90084 0.90624 0.68308 0.0
H429 H 0.92281 0.97688 0.77417 0.0
C430 C 0.89507 0.9369 0.80471 0.0
C431 C 0.88188 0.90113 0.80733 0.0
C432 C 0.92259 0.92567 0.68538 0.0
C433 C 0.91619 0.92595 0.74876 0.0
C434 C 0.93917 0.93876 0.65607 0.0
C435 C 0.96752 0.96377 0.65855 0.0
C436 C 0.93381 0.93854 0.71729 0.0
C437 C 0.97828 0.97546 0.691 0.0
C438 C 0.91268 0.94925 0.77575 0.0
C439 C 0.88658 0.87853 0.78003 0.0
N440 N 0.96118 0.96309 0.7191 0.0
N441 N 0.90298 0.89139 0.75169 0.0
H442 H 0.60269 0.13337 0.38214 0.0
H443 H 0.51283 0.02365 0.22692 0.0
H444 H 0.53789 0.03568 0.39453 0.0
H445 H 0.5923 0.1089 0.21534 0.0
H446 H 0.51481 0.03324 0.2885 0.0
H447 H 0.59204 0.13053 0.32104 0.0
C448 C 0.58559 0.1118 0.37216 0.0
C449 C 0.57093 0.0849 0.39351 0.0
C450 C 0.5317 0.04994 0.27242 0.0
C451 C 0.55923 0.08097 0.3235 0.0
C452 C 0.53045 0.04457 0.23732 0.0
C453 C 0.55273 0.06518 0.21607 0.0
C454 C 0.55518 0.07634 0.28627 0.0
C455 C 0.57516 0.0919 0.23085 0.0
C456 C 0.57982 0.10993 0.33719 0.0
C457 C 0.54979 0.05693 0.37894 0.0
N458 N 0.57588 0.09663 0.26499 0.0
N459 N 0.54465 0.05562 0.34485 0.0
H460 H 0.39042 0.63477 0.33867 0.0
H461 H 0.55096 0.57443 0.43084 0.0
H462 H 0.48081 0.61795 0.28662 0.0
H463 H 0.45551 0.57023 0.48005 0.0
H464 H 0.52591 0.59304 0.37855 0.0
H465 H 0.41414 0.61433 0.39145 0.0
C466 C 0.41528 0.6269 0.33834 0.0
C467 C 0.43368 0.62813 0.30815 0.0
C468 C 0.51033 0.58792 0.40068 0.0
C469 C 0.46091 0.60471 0.36843 0.0
C470 C 0.52464 0.57729 0.43063 0.0
C471 C 0.50531 0.57074 0.45994 0.0
C472 C 0.47641 0.59243 0.39989 0.0
C473 C 0.47131 0.57487 0.45803 0.0
C474 C 0.42873 0.6151 0.36846 0.0
C475 C 0.4657 0.61746 0.30923 0.0
N476 N 0.45796 0.58566 0.42854 0.0
N477 N 0.47829 0.60631 0.33885 0.0
H478 H 0.13455 0.4947 0.70746 0.0
H479 H 0.99735 0.42065 0.84329 0.0
H480 H 0.03862 0.43889 0.68231 0.0
H481 H 0.08148 0.49646 0.86907 0.0
H482 H 0.01838 0.4179 0.78564 0.0
H483 H 0.12091 0.48798 0.76787 0.0
C484 C 0.11066 0.48104 0.71464 0.0
C485 C 0.08765 0.46745 0.68983 0.0
C486 C 0.03247 0.43495 0.80391 0.0
C487 C 0.07216 0.45896 0.75868 0.0
C488 C 0.02047 0.4365 0.83682 0.0
C489 C 0.03741 0.45926 0.86078 0.0
C490 C 0.06166 0.45643 0.79469 0.0
C491 C 0.06766 0.47863 0.85131 0.0
C492 C 0.10302 0.47694 0.74908 0.0
C493 C 0.0574 0.44913 0.70051 0.0
N494 N 0.07865 0.47713 0.81879 0.0
N495 N 0.0505 0.44555 0.73408 0.0
H496 H 0.73734 0.93396 0.98243 0.0
H497 H 0.54922 0.98102 0.97085 0.0
H498 H 0.67717 0.92524 0.89149 0.0
H499 H 0.60841 0.99621 0.06217 0.0
H500 H 0.59558 0.958 0.94269 0.0
H501 H 0.69041 0.9542 0.01323 0.0
C502 C 0.71429 0.93612 0.96895 0.0
C503 C 0.71134 0.9279 0.93422 0.0
C504 C 0.59853 0.96626 0.96891 0.0
C505 C 0.6575 0.95111 0.96934 0.0
C506 C 0.57195 0.97943 0.9851 0.0
C507 C 0.57479 0.99067 0.01903 0.0
C508 C 0.62849 0.96419 0.9866 0.0
C509 C 0.60503 0.98787 0.03602 0.0
C510 C 0.68751 0.94775 0.98655 0.0
C511 C 0.6808 0.93131 0.91816 0.0
N512 N 0.6307 0.97498 0.01963 0.0
N513 N 0.65525 0.94263 0.93577 0.0
H514 H 0.68569 0.97442 0.50145 0.0
H515 H 0.87304 0.04962 0.54949 0.0
H516 H 0.71505 0.08362 0.52886 0.0
H517 H 0.84668 0.9524 0.49427 0.0
H518 H 0.81436 0.05996 0.54892 0.0
H519 H 0.74387 0.96337 0.50533 0.0
C520 C 0.70435 0.99606 0.5084 0.0
C521 C 0.69551 0.03004 0.51473 0.0
C522 C 0.82146 0.03637 0.53695 0.0
C523 C 0.76214 0.0175 0.51935 0.0
C524 C 0.85486 0.03035 0.53747 0.0
C525 C 0.86472 1.00017 0.52179 0.0
C526 C 0.79772 0.01179 0.52102 0.0
C527 C 0.84021 0.97622 0.50626 0.0
C528 C 0.73757 0.98975 0.51051 0.0
C529 C 0.72078 0.05706 0.52361 0.0
N530 N 0.80785 0.98248 0.50635 0.0
N531 N 0.75296 0.0502 0.52573 0.0
H532 H 0.28467 0.60006 0.01692 0.0
H533 H 0.09048 0.60488 0.03434 0.0
H534 H 0.24037 0.69 0.05497 0.0
H535 H 0.1308 0.52578 0.97395 0.0
H536 H 0.1456 0.63794 0.03846 0.0
H537 H 0.22966 0.57384 0.99734 0.0
C538 C 0.2635 0.61454 0.02077 0.0
C539 C 0.26713 0.6471 0.03808 0.0
C540 C 0.14253 0.61364 0.02387 0.0
C541 C 0.20414 0.61711 0.01589 0.0
C542 C 0.11102 0.59473 0.02154 0.0
C543 C 0.10621 0.56249 1.00395 0.0
C544 C 0.1698 0.59991 0.00915 0.0
C545 C 0.13357 0.55061 0.98769 0.0
C546 C 0.23211 0.59954 0.00953 0.0
C547 C 0.23882 0.6647 0.04212 0.0
N548 N 0.16444 0.56905 0.99118 0.0
N549 N 0.20855 0.64929 0.03151 0.0
H550 H 0.25 0.51957 0.7037 0.0
H551 H 0.39791 0.56184 0.57019 0.0
H552 H 0.24308 0.5858 0.61551 0.0
H553 H 0.40182 0.49223 0.6563 0.0
H554 H 0.34294 0.57483 0.58851 0.0
H555 H 0.30749 0.51334 0.689 0.0
C556 C 0.26065 0.53305 0.68137 0.0
C557 C 0.24162 0.55307 0.66069 0.0
C558 C 0.3559 0.55678 0.60342 0.0
C559 C 0.30747 0.54583 0.64354 0.0
C560 C 0.38734 0.54947 0.59305 0.0
C561 C 0.40443 0.52567 0.61157 0.0
C562 C 0.34149 0.54026 0.63259 0.0
C563 C 0.38936 0.51019 0.64085 0.0
C564 C 0.2935 0.52942 0.67294 0.0
C565 C 0.2568 0.57001 0.63212 0.0
N566 N 0.35878 0.5177 0.65038 0.0
N567 N 0.28878 0.56583 0.62427 0.0
H568 H 0.87501 0.70114 0.88753 0.0
H569 H 0.97878 0.62059 0.03619 0.0
H570 H 0.91377 0.76231 0.97409 0.0
H571 H 0.96331 0.57171 0.93775 0.0
H572 H 0.95137 0.67083 0.01589 0.0
H573 H 0.90352 0.6516 0.90743 0.0
C574 C 0.88952 0.7042 0.91071 0.0
C575 C 0.89198 0.73603 0.92912 0.0
C576 C 0.95406 0.64914 0.99871 0.0
C577 C 0.92455 0.67915 0.95224 0.0
C578 C 0.96963 0.62038 0.01032 0.0
C579 C 0.97344 0.59183 0.98865 0.0
C580 C 0.94177 0.64926 0.96531 0.0
C581 C 0.96108 0.59314 0.95534 0.0
C582 C 0.90587 0.67589 0.92203 0.0
C583 C 0.91123 0.73836 0.95899 0.0
N584 N 0.9457 0.62122 0.94478 0.0
N585 N 0.9266 0.71029 0.9697 0.0
H586 H 0.36086 0.76435 0.11985 0.0
H587 H 0.42778 0.92679 0.05079 0.0
H588 H 0.44958 0.77386 0.18183 0.0
H589 H 0.4874 0.93791 0.14208 0.0
H590 H 0.40634 0.86687 0.06815 0.0
H591 H 0.37692 0.82387 0.09817 0.0
C592 C 0.38412 0.77853 0.1283 0.0
C593 C 0.40424 0.76353 0.15211 0.0
C594 C 0.42358 0.88251 0.0848 0.0
C595 C 0.42299 0.83229 0.12742 0.0
C596 C 0.43609 0.91677 0.0747 0.0
C597 C 0.45938 0.93755 0.09504 0.0
C598 C 0.43436 0.86886 0.11558 0.0
C599 C 0.46942 0.92297 0.12561 0.0
C600 C 0.39334 0.81278 0.11591 0.0
C601 C 0.43336 0.78414 0.16331 0.0
N602 N 0.45699 0.88953 0.13482 0.0
N603 N 0.4418 0.81736 0.15091 0.0
H604 H 0.04739 0.27792 0.66573 0.0
H605 H 0.96152 0.10774 0.56538 0.0
H606 H 0.97693 0.28419 0.58398 0.0
H607 H 0.04225 0.10605 0.63714 0.0
H608 H 0.96073 0.17098 0.57726 0.0
H609 H 0.03952 0.21352 0.66105 0.0
C610 C 0.03005 0.26577 0.64694 0.0
C611 C 0.01306 0.28656 0.62497 0.0
C612 C 0.97841 0.15664 0.59056 0.0
C613 C 1.00402 0.21264 0.61937 0.0
C614 C 0.97881 0.12055 0.58387 0.0
C615 C 1.0022 0.10168 0.60004 0.0
C616 C 1.00144 0.17382 0.61371 0.0
C617 C 0.024 0.11959 0.6238 0.0
C618 C 0.0256 0.22894 0.64425 0.0
C619 C 0.99074 0.26923 0.60128 0.0
N620 N 0.02318 0.15463 0.62977 0.0
N621 N 0.98704 0.23327 0.59894 0.0
H622 H 0.51208 0.26499 0.47759 0.0
H623 H 0.60979 0.46063 0.49232 0.0
H624 H 0.61289 0.29152 0.44263 0.0
H625 H 0.51048 0.42993 0.52984 0.0
H626 H 0.61141 0.39983 0.47204 0.0
H627 H 0.51083 0.32639 0.49449 0.0
C628 C 0.53396 0.28376 0.47332 0.0
C629 C 0.56268 0.27298 0.45876 0.0
C630 C 0.58929 0.40649 0.4847 0.0
C631 C 0.56148 0.34367 0.4783 0.0
C632 C 0.58836 0.44117 0.4963 0.0
C633 C 0.55998 0.45043 0.51287 0.0
C634 C 0.56163 0.38097 0.48967 0.0
C635 C 0.53293 0.42411 0.51727 0.0
C636 C 0.53325 0.31891 0.48305 0.0
C637 C 0.59022 0.29864 0.45381 0.0
N638 N 0.53445 0.3907 0.50577 0.0
N639 N 0.58899 0.33279 0.46367 0.0
loop_
_geom_bond_atom_site_label_1
_geom_bond_atom_site_label_2
_geom_bond_distance
_geom_bond_site_symmetry_2
_ccdc_geom_bond_type
O0 Cd1 2.300 . S
O0 C7 1.275 . S
Cd1 O0 2.300 . S
Cd1 O9 2.381 . S
Cd1 O10 2.378 . S
O2 Cd3 2.385 . S
O2 C7 1.255 . S
Cd3 O2 2.385 . S
Cd3 O4 2.317 . S
O4 Cd3 2.317 . S
O4 C5 1.232 . S
C5 O4 1.232 . S
C5 O6 1.218 . S
O6 C5 1.218 . S
C7 O0 1.275 . S
C7 O2 1.255 . S
C8 O9 1.258 . S
C8 O10 1.256 . S
O9 Cd1 2.381 . S
O9 C8 1.258 . S
O10 Cd1 2.378 . S
O10 C8 1.256 . S
O11 Cd12 2.300 . S
O11 C18 1.275 . S
Cd12 O11 2.300 . S
Cd12 O20 2.381 . S
Cd12 O21 2.378 . S
O13 Cd14 2.385 . S
O13 C18 1.255 . S
Cd14 O13 2.385 . S
Cd14 O15 2.317 . S
O15 Cd14 2.317 . S
O15 C16 1.232 . S
C16 O15 1.232 . S
C16 O17 1.218 . S
O17 C16 1.218 . S
C18 O11 1.275 . S
C18 O13 1.255 . S
C19 O20 1.258 . S
C19 O21 1.256 . S
O20 Cd12 2.381 . S
O20 C19 1.258 . S
O21 Cd12 2.378 . S
O21 C19 1.256 . S
O22 Cd23 2.300 . S
O22 C29 1.275 . S
Cd23 O22 2.300 . S
Cd23 O31 2.381 . S
Cd23 O32 2.378 . S
O24 Cd25 2.385 . S
O24 C29 1.255 . S
Cd25 O24 2.385 . S
Cd25 O26 2.317 . S
O26 Cd25 2.317 . S
O26 C27 1.232 . S
C27 O26 1.232 . S
C27 O28 1.218 . S
O28 C27 1.218 . S
C29 O22 1.275 . S
C29 O24 1.255 . S
C30 O31 1.258 . S
C30 O32 1.256 . S
O31 Cd23 2.381 . S
O31 C30 1.258 . S
O32 Cd23 2.378 . S
O32 C30 1.256 . S
O33 Cd34 2.300 . S
O33 C40 1.275 . S
Cd34 O33 2.300 . S
Cd34 O42 2.381 . S
Cd34 O43 2.378 . S
O35 Cd36 2.385 . S
O35 C40 1.255 . S
Cd36 O35 2.385 . S
Cd36 O37 2.317 . S
O37 Cd36 2.317 . S
O37 C38 1.232 . S
C38 O37 1.232 . S
C38 O39 1.218 . S
O39 C38 1.218 . S
C40 O33 1.275 . S
C40 O35 1.255 . S
C41 O42 1.258 . S
C41 O43 1.256 . S
O42 Cd34 2.381 . S
O42 C41 1.258 . S
O43 Cd34 2.378 . S
O43 C41 1.256 . S
O44 Cd45 2.300 . S
O44 C51 1.275 . S
Cd45 O44 2.300 . S
Cd45 O53 2.381 . S
Cd45 O54 2.378 . S
O46 Cd47 2.385 . S
O46 C51 1.255 . S
Cd47 O46 2.385 . S
Cd47 O48 2.317 . S
O48 Cd47 2.317 . S
O48 C49 1.232 . S
C49 O48 1.232 . S
C49 O50 1.218 . S
O50 C49 1.218 . S
C51 O44 1.275 . S
C51 O46 1.255 . S
C52 O53 1.258 . S
C52 O54 1.256 . S
O53 Cd45 2.381 . S
O53 C52 1.258 . S
O54 Cd45 2.378 . S
O54 C52 1.256 . S
O55 Cd56 2.300 . S
O55 C62 1.275 . S
Cd56 O55 2.300 . S
Cd56 O64 2.381 . S
Cd56 O65 2.378 . S
O57 Cd58 2.385 . S
O57 C62 1.255 . S
Cd58 O57 2.385 . S
Cd58 O59 2.317 . S
O59 Cd58 2.317 . S
O59 C60 1.232 . S
C60 O59 1.232 . S
C60 O61 1.218 . S
O61 C60 1.218 . S
C62 O55 1.275 . S
C62 O57 1.255 . S
C63 O64 1.258 . S
C63 O65 1.256 . S
O64 Cd56 2.381 . S
O64 C63 1.258 . S
O65 Cd56 2.378 . S
O65 C63 1.256 . S
O66 Cd67 2.300 . S
O66 C73 1.275 . S
Cd67 O66 2.300 . S
Cd67 O75 2.381 . S
Cd67 O76 2.378 . S
O68 Cd69 2.385 . S
O68 C73 1.255 . S
Cd69 O68 2.385 . S
Cd69 O70 2.317 . S
O70 Cd69 2.317 . S
O70 C71 1.232 . S
C71 O70 1.232 . S
C71 O72 1.218 . S
O72 C71 1.218 . S
C73 O66 1.275 . S
C73 O68 1.255 . S
C74 O75 1.258 . S
C74 O76 1.256 . S
O75 Cd67 2.381 . S
O75 C74 1.258 . S
O76 Cd67 2.378 . S
O76 C74 1.256 . S
O77 Cd78 2.300 . S
O77 C84 1.275 . S
Cd78 O77 2.300 . S
Cd78 O86 2.381 . S
Cd78 O87 2.378 . S
O79 Cd80 2.385 . S
O79 C84 1.255 . S
Cd80 O79 2.385 . S
Cd80 O81 2.317 . S
O81 Cd80 2.317 . S
O81 C82 1.232 . S
C82 O81 1.232 . S
C82 O83 1.218 . S
O83 C82 1.218 . S
C84 O77 1.275 . S
C84 O79 1.255 . S
C85 O86 1.258 . S
C85 O87 1.256 . S
O86 Cd78 2.381 . S
O86 C85 1.258 . S
O87 Cd78 2.378 . S
O87 C85 1.256 . S
Co88 N93 2.057 . S
Co88 O105 2.021 . S
Co88 O108 2.062 . S
Co88 O112 2.117 1_545 S
Co88 O113 2.014 1_545 S
C89 O109 1.259 1_655 S
C89 O112 1.258 . S
Co90 N99 2.057 . S
Co90 O106 2.117 1_565 S
Co90 O107 2.020 1_565 S
Co90 O109 2.021 . S
Co90 O114 2.062 . S
C91 N93 1.316 . S
C91 N94 1.347 . S
C91 H96 0.931 . S
C92 N93 1.375 1_565 S
C92 C95 1.350 1_565 S
C92 H97 0.930 . S
N93 Co88 2.057 . S
N93 C91 1.316 . S
N93 C92 1.375 1_545 S
N94 C91 1.347 . S
N94 C95 1.373 . S
C95 C92 1.350 1_545 S
C95 N94 1.373 . S
C95 H116 0.931 1_545 S
H96 C91 0.931 . S
H97 C92 0.930 . S
C98 O105 1.259 1_455 S
C98 O106 1.258 . S
N99 Co90 2.057 . S
N99 C100 1.316 . S
N99 C101 1.375 1_565 S
C100 N99 1.316 . S
C100 N102 1.347 . S
C100 H111 0.931 . S
C101 N99 1.375 1_545 S
C101 C103 1.350 . S
C101 H110 0.930 . S
N102 C100 1.347 . S
N102 C103 1.373 1_565 S
C103 C101 1.350 . S
C103 N102 1.373 1_545 S
C103 H117 0.931 . S
C104 O107 1.256 . S
C104 O108 1.255 1_455 S
O105 Co88 2.021 . S
O105 C98 1.259 1_655 S
O106 Co90 2.117 1_545 S
O106 C98 1.258 . S
O107 Co90 2.020 1_545 S
O107 C104 1.256 . S
O108 Co88 2.062 . S
O108 C104 1.255 1_655 S
O109 C89 1.259 1_455 S
O109 Co90 2.021 . S
H110 C101 0.930 . S
H111 C100 0.931 . S
O112 Co88 2.117 1_565 S
O112 C89 1.258 . S
O113 Co88 2.014 1_565 S
O113 C115 1.264 . S
O114 Co90 2.062 . S
O114 C115 1.255 1_455 S
C115 O113 1.264 . S
C115 O114 1.255 1_655 S
H116 C95 0.931 1_565 S
H117 C103 0.931 . S
Co118 N123 2.057 1_544 S
Co118 O135 2.021 . S
Co118 O138 2.062 . S
Co118 O142 2.117 1_545 S
Co118 O143 2.020 . S
C119 O139 1.259 . S
C119 O142 1.258 . S
Co120 N129 2.057 . S
Co120 O136 2.117 . S
Co120 O137 2.020 . S
Co120 O139 2.021 1_545 S
Co120 O144 2.062 . S
C121 N123 1.316 1_545 S
C121 N124 1.347 1_545 S
C121 H126 0.931 . S
C122 N123 1.375 . S
C122 C125 1.350 . S
C122 H127 0.930 . S
N123 Co118 2.057 1_566 S
N123 C121 1.316 1_565 S
N123 C122 1.375 . S
N124 C121 1.347 1_565 S
N124 C125 1.373 . S
C125 C122 1.350 . S
C125 N124 1.373 . S
C125 H146 0.931 . S
H126 C121 0.931 . S
H127 C122 0.930 . S
C128 O135 1.259 . S
C128 O136 1.258 . S
N129 Co120 2.057 . S
N129 C130 1.316 . S
N129 C131 1.375 . S
C130 N129 1.316 . S
C130 N132 1.347 . S
C130 H141 0.931 . S
C131 N129 1.375 . S
C131 C133 1.350 . S
C131 H140 0.930 . S
N132 C130 1.347 . S
N132 C133 1.373 . S
C133 C131 1.350 . S
C133 N132 1.373 . S
C133 H147 0.931 . S
C134 O137 1.256 . S
C134 O138 1.255 . S
O135 Co118 2.021 . S
O135 C128 1.259 . S
O136 Co120 2.117 . S
O136 C128 1.258 . S
O137 Co120 2.020 . S
O137 C134 1.256 . S
O138 Co118 2.062 . S
O138 C134 1.255 . S
O139 C119 1.259 . S
O139 Co120 2.021 1_565 S
H140 C131 0.930 . S
H141 C130 0.931 . S
O142 Co118 2.117 1_565 S
O142 C119 1.258 . S
O143 Co118 2.020 . S
O143 C145 1.256 . S
O144 Co120 2.062 . S
O144 C145 1.255 . S
C145 O143 1.256 . S
C145 O144 1.255 . S
H146 C125 0.931 . S
H147 C133 0.931 . S
Co148 N153 2.057 . S
Co148 O165 2.021 . S
Co148 O168 2.062 . S
Co148 O172 2.117 . S
Co148 O173 2.020 . S
C149 O169 1.259 . S
C149 O172 1.258 . S
Co150 N159 2.057 . S
Co150 O166 2.117 . S
Co150 O167 2.020 . S
Co150 O169 2.021 . S
Co150 O174 2.062 . S
C151 N153 1.316 . S
C151 N154 1.347 . S
C151 H156 0.931 . S
C152 N153 1.375 . S
C152 C155 1.350 . S
C152 H157 0.930 . S
N153 Co148 2.057 . S
N153 C151 1.316 . S
N153 C152 1.375 . S
N154 C151 1.347 . S
N154 C155 1.373 . S
C155 C152 1.350 . S
C155 N154 1.373 . S
C155 H176 0.931 . S
H156 C151 0.931 . S
H157 C152 0.930 . S
C158 O165 1.259 . S
C158 O166 1.258 . S
N159 Co150 2.057 . S
N159 C160 1.316 . S
N159 C161 1.375 . S
C160 N159 1.316 . S
C160 N162 1.347 . S
C160 H171 0.931 . S
C161 N159 1.375 . S
C161 C163 1.350 . S
C161 H170 0.930 . S
N162 C160 1.347 . S
N162 C163 1.373 . S
C163 C161 1.350 . S
C163 N162 1.373 . S
C163 H177 0.931 . S
C164 O167 1.256 . S
C164 O168 1.255 . S
O165 Co148 2.021 . S
O165 C158 1.259 . S
O166 Co150 2.117 . S
O166 C158 1.258 . S
O167 Co150 2.020 . S
O167 C164 1.256 . S
O168 Co148 2.062 . S
O168 C164 1.255 . S
O169 C149 1.259 . S
O169 Co150 2.021 . S
H170 C161 0.930 . S
H171 C160 0.931 . S
O172 Co148 2.117 . S
O172 C149 1.258 . S
O173 Co148 2.020 . S
O173 C175 1.256 . S
O174 Co150 2.062 . S
O174 C175 1.255 . S
C175 O173 1.256 . S
C175 O174 1.255 . S
H176 C155 0.931 . S
H177 C163 0.931 . S
Co178 N183 2.057 . S
Co178 O195 2.021 1_556 S
Co178 O198 2.062 1_556 S
Co178 O202 2.117 1_455 S
Co178 O203 2.020 . S
C179 O199 1.259 . S
C179 O202 1.258 1_554 S
Co180 N189 2.057 . S
Co180 O196 2.117 . S
Co180 O197 2.020 . S
Co180 O199 2.021 1_455 S
Co180 O204 2.062 . S
C181 N183 1.316 . S
C181 N184 1.347 . S
C181 H186 0.931 . S
C182 N183 1.375 . S
C182 C185 1.350 . S
C182 H187 0.930 1_455 S
N183 Co178 2.057 . S
N183 C181 1.316 . S
N183 C182 1.375 . S
N184 C181 1.347 . S
N184 C185 1.373 . S
C185 C182 1.350 . S
C185 N184 1.373 . S
C185 H206 0.931 . S
H186 C181 0.931 . S
H187 C182 0.930 1_655 S
C188 O195 1.259 . S
C188 O196 1.258 . S
N189 Co180 2.057 . S
N189 C190 1.316 1_455 S
N189 C191 1.375 . S
C190 N189 1.316 1_655 S
C190 N192 1.347 . S
C190 H201 0.931 . S
C191 N189 1.375 . S
C191 C193 1.350 . S
C191 H200 0.930 . S
N192 C190 1.347 . S
N192 C193 1.373 1_655 S
C193 C191 1.350 . S
C193 N192 1.373 1_455 S
C193 H207 0.931 . S
C194 O197 1.256 . S
C194 O198 1.255 . S
O195 Co178 2.021 1_554 S
O195 C188 1.259 . S
O196 Co180 2.117 . S
O196 C188 1.258 . S
O197 Co180 2.020 . S
O197 C194 1.256 . S
O198 Co178 2.062 1_554 S
O198 C194 1.255 . S
O199 C179 1.259 . S
O199 Co180 2.021 1_655 S
H200 C191 0.930 . S
H201 C190 0.931 . S
O202 Co178 2.117 1_655 S
O202 C179 1.258 1_556 S
O203 Co178 2.020 . S
O203 C205 1.256 1_556 S
O204 Co180 2.062 . S
O204 C205 1.255 . S
C205 O203 1.256 1_554 S
C205 O204 1.255 . S
H206 C185 0.931 . S
H207 C193 0.931 . S
H208 C214 0.930 . S
H209 C218 0.930 . S
H210 C223 0.929 . S
H211 C221 0.929 1_655 S
H212 C216 0.929 . S
H213 C222 0.929 . S
C214 H208 0.930 . S
C214 C215 1.367 . S
C214 C222 1.378 . S
C215 C214 1.367 . S
C215 C223 1.433 . S
C216 H212 0.929 . S
C216 C218 1.378 . S
C216 C220 1.350 . S
C217 C220 1.463 . S
C217 C222 1.350 . S
C217 N225 1.427 . S
C218 H209 0.930 . S
C218 C216 1.378 . S
C218 C219 1.367 . S
C219 C218 1.367 . S
C219 C221 1.433 . S
C220 C216 1.350 . S
C220 C217 1.463 . S
C220 N224 1.427 . S
C221 H211 0.929 1_455 S
C221 C219 1.433 . S
C221 N224 1.384 . S
C222 H213 0.929 . S
C222 C214 1.378 . S
C222 C217 1.350 . S
C223 H210 0.929 . S
C223 C215 1.433 . S
C223 N225 1.384 . S
N224 C220 1.427 . S
N224 C221 1.384 . S
N225 C217 1.427 . S
N225 C223 1.384 . S
H226 C232 0.930 . S
H227 C236 0.930 . S
H228 C241 0.929 . S
H229 C239 0.929 . S
H230 C234 0.929 1_545 S
H231 C240 0.929 . S
C232 H226 0.930 . S
C232 C233 1.367 . S
C232 C240 1.378 . S
C233 C232 1.367 . S
C233 C241 1.433 . S
C234 H230 0.929 1_565 S
C234 C236 1.378 1_565 S
C234 C238 1.350 . S
C235 C238 1.463 . S
C235 C240 1.350 . S
C235 N243 1.427 . S
C236 H227 0.930 . S
C236 C234 1.378 1_545 S
C236 C237 1.367 1_545 S
C237 C236 1.367 1_565 S
C237 C239 1.433 . S
C238 C234 1.350 . S
C238 C235 1.463 . S
C238 N242 1.427 . S
C239 H229 0.929 . S
C239 C237 1.433 . S
C239 N242 1.384 . S
C240 H231 0.929 . S
C240 C232 1.378 . S
C240 C235 1.350 . S
C241 H228 0.929 . S
C241 C233 1.433 . S
C241 N243 1.384 . S
N242 C238 1.427 . S
N242 C239 1.384 . S
N243 C235 1.427 . S
N243 C241 1.384 . S
H244 C250 0.930 . S
H245 C254 0.930 . S
H246 C259 0.929 . S
H247 C257 0.929 . S
H248 C252 0.929 . S
H249 C258 0.929 . S
C250 H244 0.930 . S
C250 C251 1.367 . S
C250 C258 1.378 . S
C251 C250 1.367 . S
C251 C259 1.433 . S
C252 H248 0.929 . S
C252 C254 1.378 . S
C252 C256 1.350 . S
C253 C256 1.463 . S
C253 C258 1.350 . S
C253 N261 1.427 . S
C254 H245 0.930 . S
C254 C252 1.378 . S
C254 C255 1.367 . S
C255 C254 1.367 . S
C255 C257 1.433 . S
C256 C252 1.350 . S
C256 C253 1.463 . S
C256 N260 1.427 . S
C257 H247 0.929 . S
C257 C255 1.433 . S
C257 N260 1.384 . S
C258 H249 0.929 . S
C258 C250 1.378 . S
C258 C253 1.350 . S
C259 H246 0.929 . S
C259 C251 1.433 . S
C259 N261 1.384 . S
N260 C256 1.427 . S
N260 C257 1.384 . S
N261 C253 1.427 . S
N261 C259 1.384 . S
H262 C268 0.930 . S
H263 C272 0.930 . S
H264 C277 0.929 . S
H265 C275 0.929 . S
H266 C270 0.929 . S
H267 C276 0.929 . S
C268 H262 0.930 . S
C268 C269 1.367 . S
C268 C276 1.378 . S
C269 C268 1.367 . S
C269 C277 1.433 . S
C270 H266 0.929 . S
C270 C272 1.378 . S
C270 C274 1.350 . S
C271 C274 1.463 . S
C271 C276 1.350 . S
C271 N279 1.427 . S
C272 H263 0.930 . S
C272 C270 1.378 . S
C272 C273 1.367 . S
C273 C272 1.367 . S
C273 C275 1.433 . S
C274 C270 1.350 . S
C274 C271 1.463 . S
C274 N278 1.427 . S
C275 H265 0.929 . S
C275 C273 1.433 . S
C275 N278 1.384 . S
C276 H267 0.929 . S
C276 C268 1.378 . S
C276 C271 1.350 . S
C277 H264 0.929 . S
C277 C269 1.433 . S
C277 N279 1.384 . S
N278 C274 1.427 . S
N278 C275 1.384 . S
N279 C271 1.427 . S
N279 C277 1.384 . S
H280 C286 0.930 . S
H281 C290 0.930 . S
H282 C295 0.929 . S
H283 C293 0.929 . S
H284 C288 0.929 . S
H285 C294 0.929 . S
C286 H280 0.930 . S
C286 C287 1.367 . S
C286 C294 1.378 . S
C287 C286 1.367 . S
C287 C295 1.433 . S
C288 H284 0.929 . S
C288 C290 1.378 . S
C288 C292 1.350 . S
C289 C292 1.463 . S
C289 C294 1.350 . S
C289 N297 1.427 . S
C290 H281 0.930 . S
C290 C288 1.378 . S
C290 C291 1.367 . S
C291 C290 1.367 . S
C291 C293 1.433 . S
C292 C288 1.350 . S
C292 C289 1.463 . S
C292 N296 1.427 . S
C293 H283 0.929 . S
C293 C291 1.433 . S
C293 N296 1.384 . S
C294 H285 0.929 . S
C294 C286 1.378 . S
C294 C289 1.350 . S
C295 H282 0.929 . S
C295 C287 1.433 . S
C295 N297 1.384 . S
N296 C292 1.427 . S
N296 C293 1.384 . S
N297 C289 1.427 . S
N297 C295 1.384 . S
H298 C304 0.930 . S
H299 C308 0.930 . S
H300 C313 0.929 . S
H301 C311 0.929 . S
H302 C306 0.929 . S
H303 C312 0.929 . S
C304 H298 0.930 . S
C304 C305 1.367 . S
C304 C312 1.378 . S
C305 C304 1.367 . S
C305 C313 1.433 . S
C306 H302 0.929 . S
C306 C308 1.378 . S
C306 C310 1.350 . S
C307 C310 1.463 . S
C307 C312 1.350 . S
C307 N315 1.427 . S
C308 H299 0.930 . S
C308 C306 1.378 . S
C308 C309 1.367 . S
C309 C308 1.367 . S
C309 C311 1.433 . S
C310 C306 1.350 . S
C310 C307 1.463 . S
C310 N314 1.427 . S
C311 H301 0.929 . S
C311 C309 1.433 . S
C311 N314 1.384 . S
C312 H303 0.929 . S
C312 C304 1.378 . S
C312 C307 1.350 . S
C313 H300 0.929 . S
C313 C305 1.433 . S
C313 N315 1.384 . S
N314 C310 1.427 . S
N314 C311 1.384 . S
N315 C307 1.427 . S
N315 C313 1.384 . S
H316 C322 0.930 . S
H317 C326 0.930 . S
H318 C331 0.929 . S
H319 C329 0.929 1_554 S
H320 C324 0.929 . S
H321 C330 0.929 . S
C322 H316 0.930 . S
C322 C323 1.367 . S
C322 C330 1.378 . S
C323 C322 1.367 . S
C323 C331 1.433 . S
C324 H320 0.929 . S
C324 C326 1.378 . S
C324 C328 1.350 . S
C325 C328 1.463 . S
C325 C330 1.350 . S
C325 N333 1.427 . S
C326 H317 0.930 . S
C326 C324 1.378 . S
C326 C327 1.367 . S
C327 C326 1.367 . S
C327 C329 1.433 . S
C328 C324 1.350 . S
C328 C325 1.463 . S
C328 N332 1.427 . S
C329 H319 0.929 1_556 S
C329 C327 1.433 . S
C329 N332 1.384 . S
C330 H321 0.929 . S
C330 C322 1.378 . S
C330 C325 1.350 . S
C331 H318 0.929 . S
C331 C323 1.433 . S
C331 N333 1.384 . S
N332 C328 1.427 . S
N332 C329 1.384 . S
N333 C325 1.427 . S
N333 C331 1.384 . S
H334 C340 0.930 . S
H335 C344 0.930 . S
H336 C349 0.929 . S
H337 C347 0.929 . S
H338 C342 0.929 . S
H339 C348 0.929 . S
C340 H334 0.930 . S
C340 C341 1.367 . S
C340 C348 1.378 . S
C341 C340 1.367 . S
C341 C349 1.433 . S
C342 H338 0.929 . S
C342 C344 1.378 . S
C342 C346 1.350 . S
C343 C346 1.463 . S
C343 C348 1.350 . S
C343 N351 1.427 . S
C344 H335 0.930 . S
C344 C342 1.378 . S
C344 C345 1.367 . S
C345 C344 1.367 . S
C345 C347 1.433 . S
C346 C342 1.350 . S
C346 C343 1.463 . S
C346 N350 1.427 . S
C347 H337 0.929 . S
C347 C345 1.433 . S
C347 N350 1.384 . S
C348 H339 0.929 . S
C348 C340 1.378 . S
C348 C343 1.350 . S
C349 H336 0.929 . S
C349 C341 1.433 . S
C349 N351 1.384 . S
N350 C346 1.427 . S
N350 C347 1.384 . S
N351 C343 1.427 . S
N351 C349 1.384 . S
H352 C358 0.930 . S
H353 C362 0.930 . S
H354 C367 0.929 . S
H355 C365 0.929 . S
H356 C360 0.929 . S
H357 C366 0.929 . S
C358 H352 0.930 . S
C358 C359 1.367 . S
C358 C366 1.378 . S
C359 C358 1.367 . S
C359 C367 1.433 . S
C360 H356 0.929 . S
C360 C362 1.378 . S
C360 C364 1.350 . S
C361 C364 1.463 . S
C361 C366 1.350 . S
C361 N369 1.427 . S
C362 H353 0.930 . S
C362 C360 1.378 . S
C362 C363 1.367 . S
C363 C362 1.367 . S
C363 C365 1.433 . S
C364 C360 1.350 . S
C364 C361 1.463 . S
C364 N368 1.427 . S
C365 H355 0.929 . S
C365 C363 1.433 . S
C365 N368 1.384 . S
C366 H357 0.929 . S
C366 C358 1.378 . S
C366 C361 1.350 . S
C367 H354 0.929 . S
C367 C359 1.433 . S
C367 N369 1.384 . S
N368 C364 1.427 . S
N368 C365 1.384 . S
N369 C361 1.427 . S
N369 C367 1.384 . S
H370 C376 0.930 . S
H371 C380 0.930 . S
H372 C385 0.929 . S
H373 C383 0.929 . S
H374 C378 0.929 . S
H375 C384 0.929 . S
C376 H370 0.930 . S
C376 C377 1.367 1_554 S
C376 C384 1.378 . S
C377 C376 1.367 1_556 S
C377 C385 1.433 . S
C378 H374 0.929 . S
C378 C380 1.378 . S
C378 C382 1.350 1_556 S
C379 C382 1.463 1_556 S
C379 C384 1.350 1_556 S
C379 N387 1.427 . S
C380 H371 0.930 . S
C380 C378 1.378 . S
C380 C381 1.367 1_556 S
C381 C380 1.367 1_554 S
C381 C383 1.433 . S
C382 C378 1.350 1_554 S
C382 C379 1.463 1_554 S
C382 N386 1.427 . S
C383 H373 0.929 . S
C383 C381 1.433 . S
C383 N386 1.384 . S
C384 H375 0.929 . S
C384 C376 1.378 . S
C384 C379 1.350 1_554 S
C385 H372 0.929 . S
C385 C377 1.433 . S
C385 N387 1.384 . S
N386 C382 1.427 . S
N386 C383 1.384 . S
N387 C379 1.427 . S
N387 C385 1.384 . S
H388 C394 0.930 . S
H389 C398 0.930 . S
H390 C403 0.929 . S
H391 C401 0.929 1_455 S
H392 C396 0.929 . S
H393 C402 0.929 . S
C394 H388 0.930 . S
C394 C395 1.367 . S
C394 C402 1.378 . S
C395 C394 1.367 . S
C395 C403 1.433 . S
C396 H392 0.929 . S
C396 C398 1.378 . S
C396 C400 1.350 . S
C397 C400 1.463 . S
C397 C402 1.350 . S
C397 N405 1.427 . S
C398 H389 0.930 . S
C398 C396 1.378 . S
C398 C399 1.367 . S
C399 C398 1.367 . S
C399 C401 1.433 . S
C400 C396 1.350 . S
C400 C397 1.463 . S
C400 N404 1.427 . S
C401 H391 0.929 1_655 S
C401 C399 1.433 . S
C401 N404 1.384 . S
C402 H393 0.929 . S
C402 C394 1.378 . S
C402 C397 1.350 . S
C403 H390 0.929 . S
C403 C395 1.433 . S
C403 N405 1.384 . S
N404 C400 1.427 . S
N404 C401 1.384 . S
N405 C397 1.427 . S
N405 C403 1.384 . S
H406 C412 0.930 . S
H407 C416 0.930 . S
H408 C421 0.929 . S
H409 C419 0.929 . S
H410 C414 0.929 . S
H411 C420 0.929 . S
C412 H406 0.930 . S
C412 C413 1.367 . S
C412 C420 1.378 . S
C413 C412 1.367 . S
C413 C421 1.433 . S
C414 H410 0.929 . S
C414 C416 1.378 . S
C414 C418 1.350 . S
C415 C418 1.463 . S
C415 C420 1.350 . S
C415 N423 1.427 . S
C416 H407 0.930 . S
C416 C414 1.378 . S
C416 C417 1.367 . S
C417 C416 1.367 . S
C417 C419 1.433 . S
C418 C414 1.350 . S
C418 C415 1.463 . S
C418 N422 1.427 . S
C419 H409 0.929 . S
C419 C417 1.433 . S
C419 N422 1.384 . S
C420 H411 0.929 . S
C420 C412 1.378 . S
C420 C415 1.350 . S
C421 H408 0.929 . S
C421 C413 1.433 . S
C421 N423 1.384 . S
N422 C418 1.427 . S
N422 C419 1.384 . S
N423 C415 1.427 . S
N423 C421 1.384 . S
H424 C430 0.930 . S
H425 C434 0.930 . S
H426 C439 0.929 . S
H427 C437 0.929 1_445 S
H428 C432 0.929 . S
H429 C438 0.929 . S
C430 H424 0.930 . S
C430 C431 1.367 . S
C430 C438 1.378 . S
C431 C430 1.367 . S
C431 C439 1.433 . S
C432 H428 0.929 . S
C432 C434 1.378 . S
C432 C436 1.350 . S
C433 C436 1.463 . S
C433 C438 1.350 . S
C433 N441 1.427 . S
C434 H425 0.930 . S
C434 C432 1.378 . S
C434 C435 1.367 . S
C435 C434 1.367 . S
C435 C437 1.433 . S
C436 C432 1.350 . S
C436 C433 1.463 . S
C436 N440 1.427 . S
C437 H427 0.929 1_665 S
C437 C435 1.433 . S
C437 N440 1.384 . S
C438 H429 0.929 . S
C438 C430 1.378 . S
C438 C433 1.350 . S
C439 H426 0.929 . S
C439 C431 1.433 . S
C439 N441 1.384 . S
N440 C436 1.427 . S
N440 C437 1.384 . S
N441 C433 1.427 . S
N441 C439 1.384 . S
H442 C448 0.930 . S
H443 C452 0.930 . S
H444 C457 0.929 . S
H445 C455 0.929 . S
H446 C450 0.929 . S
H447 C456 0.929 . S
C448 H442 0.930 . S
C448 C449 1.367 . S
C448 C456 1.378 . S
C449 C448 1.367 . S
C449 C457 1.433 . S
C450 H446 0.929 . S
C450 C452 1.378 . S
C450 C454 1.350 . S
C451 C454 1.463 . S
C451 C456 1.350 . S
C451 N459 1.427 . S
C452 H443 0.930 . S
C452 C450 1.378 . S
C452 C453 1.367 . S
C453 C452 1.367 . S
C453 C455 1.433 . S
C454 C450 1.350 . S
C454 C451 1.463 . S
C454 N458 1.427 . S
C455 H445 0.929 . S
C455 C453 1.433 . S
C455 N458 1.384 . S
C456 H447 0.929 . S
C456 C448 1.378 . S
C456 C451 1.350 . S
C457 H444 0.929 . S
C457 C449 1.433 . S
C457 N459 1.384 . S
N458 C454 1.427 . S
N458 C455 1.384 . S
N459 C451 1.427 . S
N459 C457 1.384 . S
H460 C466 0.930 . S
H461 C470 0.930 . S
H462 C475 0.929 . S
H463 C473 0.929 . S
H464 C468 0.929 . S
H465 C474 0.929 . S
C466 H460 0.930 . S
C466 C467 1.367 . S
C466 C474 1.378 . S
C467 C466 1.367 . S
C467 C475 1.433 . S
C468 H464 0.929 . S
C468 C470 1.378 . S
C468 C472 1.350 . S
C469 C472 1.463 . S
C469 C474 1.350 . S
C469 N477 1.427 . S
C470 H461 0.930 . S
C470 C468 1.378 . S
C470 C471 1.367 . S
C471 C470 1.367 . S
C471 C473 1.433 . S
C472 C468 1.350 . S
C472 C469 1.463 . S
C472 N476 1.427 . S
C473 H463 0.929 . S
C473 C471 1.433 . S
C473 N476 1.384 . S
C474 H465 0.929 . S
C474 C466 1.378 . S
C474 C469 1.350 . S
C475 H462 0.929 . S
C475 C467 1.433 . S
C475 N477 1.384 . S
N476 C472 1.427 . S
N476 C473 1.384 . S
N477 C469 1.427 . S
N477 C475 1.384 . S
H478 C484 0.930 . S
H479 C488 0.930 . S
H480 C493 0.929 . S
H481 C491 0.929 . S
H482 C486 0.929 . S
H483 C492 0.929 . S
C484 H478 0.930 . S
C484 C485 1.367 . S
C484 C492 1.378 . S
C485 C484 1.367 . S
C485 C493 1.433 . S
C486 H482 0.929 . S
C486 C488 1.378 . S
C486 C490 1.350 . S
C487 C490 1.463 . S
C487 C492 1.350 . S
C487 N495 1.427 . S
C488 H479 0.930 . S
C488 C486 1.378 . S
C488 C489 1.367 . S
C489 C488 1.367 . S
C489 C491 1.433 . S
C490 C486 1.350 . S
C490 C487 1.463 . S
C490 N494 1.427 . S
C491 H481 0.929 . S
C491 C489 1.433 . S
C491 N494 1.384 . S
C492 H483 0.929 . S
C492 C484 1.378 . S
C492 C487 1.350 . S
C493 H480 0.929 . S
C493 C485 1.433 . S
C493 N495 1.384 . S
N494 C490 1.427 . S
N494 C491 1.384 . S
N495 C487 1.427 . S
N495 C493 1.384 . S
H496 C502 0.930 . S
H497 C506 0.930 . S
H498 C511 0.929 . S
H499 C509 0.929 . S
H500 C504 0.929 . S
H501 C510 0.929 . S
C502 H496 0.930 . S
C502 C503 1.367 1_554 S
C502 C510 1.378 . S
C503 C502 1.367 1_556 S
C503 C511 1.433 . S
C504 H500 0.929 . S
C504 C506 1.378 . S
C504 C508 1.348 1_556 S
C505 C508 1.462 1_556 S
C505 C510 1.350 1_556 S
C505 N513 1.427 . S
C506 H497 0.930 . S
C506 C504 1.378 . S
C506 C507 1.367 1_556 S
C507 C506 1.367 1_554 S
C507 C509 1.433 1_565 S
C508 C504 1.348 1_554 S
C508 C505 1.462 1_554 S
C508 N512 1.431 . S
C509 H499 0.929 . S
C509 C507 1.433 1_545 S
C509 N512 1.384 1_545 S
C510 H501 0.929 . S
C510 C502 1.378 . S
C510 C505 1.350 1_554 S
C511 H498 0.929 . S
C511 C503 1.433 . S
C511 N513 1.384 . S
N512 C508 1.431 . S
N512 C509 1.384 1_565 S
N513 C505 1.427 . S
N513 C511 1.384 . S
H514 C520 0.930 . S
H515 C524 0.930 . S
H516 C529 0.929 . S
H517 C527 0.929 . S
H518 C522 0.929 . S
H519 C528 0.929 . S
C520 H514 0.930 . S
C520 C521 1.367 . S
C520 C528 1.378 . S
C521 C520 1.367 . S
C521 C529 1.433 . S
C522 H518 0.929 . S
C522 C524 1.378 . S
C522 C526 1.350 . S
C523 C526 1.463 . S
C523 C528 1.350 . S
C523 N531 1.427 . S
C524 H515 0.930 . S
C524 C522 1.378 . S
C524 C525 1.367 . S
C525 C524 1.367 . S
C525 C527 1.433 . S
C526 C522 1.350 . S
C526 C523 1.463 . S
C526 N530 1.427 . S
C527 H517 0.929 . S
C527 C525 1.433 . S
C527 N530 1.384 . S
C528 H519 0.929 . S
C528 C520 1.378 . S
C528 C523 1.350 . S
C529 H516 0.929 . S
C529 C521 1.433 . S
C529 N531 1.384 . S
N530 C526 1.427 . S
N530 C527 1.384 . S
N531 C523 1.427 . S
N531 C529 1.384 . S
H532 C538 0.930 . S
H533 C542 0.930 . S
H534 C547 0.929 . S
H535 C545 0.929 . S
H536 C540 0.929 . S
H537 C546 0.929 . S
C538 H532 0.930 . S
C538 C539 1.367 . S
C538 C546 1.378 . S
C539 C538 1.367 . S
C539 C547 1.433 . S
C540 H536 0.929 . S
C540 C542 1.378 . S
C540 C544 1.350 . S
C541 C544 1.463 . S
C541 C546 1.350 . S
C541 N549 1.427 . S
C542 H533 0.930 . S
C542 C540 1.378 . S
C542 C543 1.367 . S
C543 C542 1.367 . S
C543 C545 1.433 . S
C544 C540 1.350 . S
C544 C541 1.463 . S
C544 N548 1.427 . S
C545 H535 0.929 . S
C545 C543 1.433 . S
C545 N548 1.384 . S
C546 H537 0.929 . S
C546 C538 1.378 . S
C546 C541 1.350 . S
C547 H534 0.929 . S
C547 C539 1.433 . S
C547 N549 1.384 . S
N548 C544 1.427 . S
N548 C545 1.384 . S
N549 C541 1.427 . S
N549 C547 1.384 . S
H550 C556 0.930 . S
H551 C560 0.930 . S
H552 C565 0.929 . S
H553 C563 0.929 . S
H554 C558 0.929 . S
H555 C564 0.929 . S
C556 H550 0.930 . S
C556 C557 1.367 . S
C556 C564 1.378 . S
C557 C556 1.367 . S
C557 C565 1.433 . S
C558 H554 0.929 . S
C558 C560 1.378 . S
C558 C562 1.350 . S
C559 C562 1.463 . S
C559 C564 1.350 . S
C559 N567 1.427 . S
C560 H551 0.930 . S
C560 C558 1.378 . S
C560 C561 1.367 . S
C561 C560 1.367 . S
C561 C563 1.433 . S
C562 C558 1.350 . S
C562 C559 1.463 . S
C562 N566 1.427 . S
C563 H553 0.929 . S
C563 C561 1.433 . S
C563 N566 1.384 . S
C564 H555 0.929 . S
C564 C556 1.378 . S
C564 C559 1.350 . S
C565 H552 0.929 . S
C565 C557 1.433 . S
C565 N567 1.384 . S
N566 C562 1.427 . S
N566 C563 1.384 . S
N567 C559 1.427 . S
N567 C565 1.384 . S
H568 C574 0.930 . S
H569 C578 0.930 . S
H570 C583 0.929 . S
H571 C581 0.929 . S
H572 C576 0.929 . S
H573 C582 0.929 . S
C574 H568 0.930 . S
C574 C575 1.367 . S
C574 C582 1.378 . S
C575 C574 1.367 . S
C575 C583 1.433 1_556 S
C576 H572 0.929 . S
C576 C578 1.378 . S
C576 C580 1.350 1_554 S
C577 C580 1.463 . S
C577 C582 1.350 . S
C577 N585 1.427 1_556 S
C578 H569 0.930 . S
C578 C576 1.378 . S
C578 C579 1.367 1_554 S
C579 C578 1.367 1_556 S
C579 C581 1.433 1_655 S
C580 C576 1.350 1_556 S
C580 C577 1.463 . S
C580 N584 1.427 . S
C581 H571 0.929 . S
C581 C579 1.433 1_455 S
C581 N584 1.384 1_455 S
C582 H573 0.929 . S
C582 C574 1.378 . S
C582 C577 1.350 . S
C583 H570 0.929 . S
C583 C575 1.433 1_554 S
C583 N585 1.384 . S
N584 C580 1.427 . S
N584 C581 1.384 1_655 S
N585 C577 1.427 1_554 S
N585 C583 1.384 . S
H586 C592 0.930 . S
H587 C596 0.930 . S
H588 C601 0.929 . S
H589 C599 0.929 . S
H590 C594 0.929 . S
H591 C600 0.929 . S
C592 H586 0.930 . S
C592 C593 1.367 . S
C592 C600 1.378 . S
C593 C592 1.367 . S
C593 C601 1.433 . S
C594 H590 0.929 . S
C594 C596 1.378 . S
C594 C598 1.350 . S
C595 C598 1.463 . S
C595 C600 1.350 . S
C595 N603 1.427 . S
C596 H587 0.930 . S
C596 C594 1.378 . S
C596 C597 1.367 . S
C597 C596 1.367 . S
C597 C599 1.433 . S
C598 C594 1.350 . S
C598 C595 1.463 . S
C598 N602 1.427 . S
C599 H589 0.929 . S
C599 C597 1.433 . S
C599 N602 1.384 . S
C600 H591 0.929 . S
C600 C592 1.378 . S
C600 C595 1.350 . S
C601 H588 0.929 . S
C601 C593 1.433 . S
C601 N603 1.384 . S
N602 C598 1.427 . S
N602 C599 1.384 . S
N603 C595 1.427 . S
N603 C601 1.384 . S
H604 C610 0.930 . S
H605 C614 0.930 . S
H606 C619 0.929 . S
H607 C617 0.929 . S
H608 C612 0.929 . S
H609 C618 0.929 . S
C610 H604 0.930 . S
C610 C611 1.367 . S
C610 C618 1.378 . S
C611 C610 1.367 . S
C611 C619 1.433 . S
C612 H608 0.929 . S
C612 C614 1.378 . S
C612 C616 1.350 . S
C613 C616 1.463 . S
C613 C618 1.350 . S
C613 N621 1.427 . S
C614 H605 0.930 . S
C614 C612 1.378 . S
C614 C615 1.367 . S
C615 C614 1.367 . S
C615 C617 1.433 . S
C616 C612 1.350 . S
C616 C613 1.463 . S
C616 N620 1.427 . S
C617 H607 0.929 . S
C617 C615 1.433 . S
C617 N620 1.384 . S
C618 H609 0.929 . S
C618 C610 1.378 . S
C618 C613 1.350 . S
C619 H606 0.929 . S
C619 C611 1.433 . S
C619 N621 1.384 . S
N620 C616 1.427 . S
N620 C617 1.384 . S
N621 C613 1.427 . S
N621 C619 1.384 . S
H622 C628 0.930 . S
H623 C632 0.930 . S
H624 C637 0.929 . S
H625 C635 0.929 . S
H626 C630 0.929 . S
H627 C636 0.929 . S
C628 H622 0.930 . S
C628 C629 1.367 . S
C628 C636 1.378 . S
C629 C628 1.367 . S
C629 C637 1.433 . S
C630 H626 0.929 . S
C630 C632 1.378 . S
C630 C634 1.350 . S
C631 C634 1.463 . S
C631 C636 1.350 . S
C631 N639 1.427 . S
C632 H623 0.930 . S
C632 C630 1.378 . S
C632 C633 1.367 . S
C633 C632 1.367 . S
C633 C635 1.433 . S
C634 C630 1.350 . S
C634 C631 1.463 . S
C634 N638 1.427 . S
C635 H625 0.929 . S
C635 C633 1.433 . S
C635 N638 1.384 . S
C636 H627 0.929 . S
C636 C628 1.378 . S
C636 C631 1.350 . S
C637 H624 0.929 . S
C637 C629 1.433 . S
C637 N639 1.384 . S
N638 C634 1.427 . S
N638 C635 1.384 . S
N639 C631 1.427 . S
N639 C637 1.384 . S
C215 C5 2.360 . S
C219 C104 2.495 . S
C233 C18 1.107 . S
C237 N124 1.159 . S
C255 C158 1.766 . S
C251 C30 1.724 . S
C269 C41 1.118 . S
C273 N192 1.056 . S
C291 C145 2.623 . S
C287 C7 2.559 . S
C309 N102 1.336 . S
C305 C16 1.114 . S
C327 C179 2.059 1_556 S
C323 C29 1.944 . S
C345 N154 0.738 . S
C341 C38 0.749 . S
C359 C8 1.929 . S
C363 C194 1.929 . S
C381 C128 1.845 . S
C377 C27 1.550 . S
C395 C40 1.395 . S
C399 C89 1.390 . S
C413 C19 1.036 . S
C417 C175 1.057 . S
C435 C115 2.232 . S
C431 C51 2.151 . S
C449 C62 1.182 . S
C453 N132 1.252 . S
C467 C74 1.815 . S
C471 C149 1.863 . S
C485 C84 1.096 . S
C489 N184 1.150 . S
C503 C49 2.496 . S
C507 C134 2.652 1_565 S
C525 N94 1.098 . S
C521 C63 1.098 . S
C543 C188 1.887 . S
C539 C71 1.570 . S
C561 N162 0.798 . S
C557 C85 0.779 . S
C575 C52 1.861 . S
C579 C205 1.860 1_656 S
C597 C119 1.939 . S
C593 C73 1.804 . S
C615 C98 1.237 . S
C611 C82 0.984 . S
C629 C60 1.280 . S
C633 C164 1.603 . S
