# Generated by pormake.
# Topology rtl, (3,6)-cn, num edge types: 1
# Building blocks:
#     Node 0, Type 0, BuildingBlock: OLANEW_clean_sbu_2, # of connection points: 3
#     Node 1, Type 0, BuildingBlock: OLANEW_clean_sbu_2, # of connection points: 3
#     Node 2, Type 0, BuildingBlock: OLANEW_clean_sbu_2, # of connection points: 3
#     Node 3, Type 0, BuildingBlock: OLANEW_clean_sbu_2, # of connection points: 3
#     Node 4, Type 1, BuildingBlock: KUMBUR_clean_sbu_1, # of connection points: 6
#     Node 5, Type 1, BuildingBlock: KUMBUR_clean_sbu_1, # of connection points: 6
#     Edge 6, Type (0, 1), BuildingBlock: XUDNAN_clean_linker_2, # of connection points: 2
#     Edge 7, Type (0, 1), BuildingBlock: XUDNAN_clean_linker_2, # of connection points: 2
#     Edge 8, Type (0, 1), BuildingBlock: XUDNAN_clean_linker_2, # of connection points: 2
#     Edge 9, Type (0, 1), BuildingBlock: XUDNAN_clean_linker_2, # of connection points: 2
#     Edge 10, Type (0, 1), BuildingBlock: XUDNAN_clean_linker_2, # of connection points: 2
#     Edge 11, Type (0, 1), BuildingBlock: XUDNAN_clean_linker_2, # of connection points: 2
#     Edge 12, Type (0, 1), BuildingBlock: XUDNAN_clean_linker_2, # of connection points: 2
#     Edge 13, Type (0, 1), BuildingBlock: XUDNAN_clean_linker_2, # of connection points: 2
#     Edge 14, Type (0, 1), BuildingBlock: XUDNAN_clean_linker_2, # of connection points: 2
#     Edge 15, Type (0, 1), BuildingBlock: XUDNAN_clean_linker_2, # of connection points: 2
#     Edge 16, Type (0, 1), BuildingBlock: XUDNAN_clean_linker_2, # of connection points: 2
#     Edge 17, Type (0, 1), BuildingBlock: XUDNAN_clean_linker_2, # of connection points: 2
# Relax obj value: 0.043
# Max RMSD: 0.166
# Mean RMSD: 0.131
data_MOF--net-rtl--node1-OLANEW_clean_sbu_2--node2-KUMBUR_clean_sbu_1--edge1-XUDNAN_clean_linker_2
_symmetry_space_group_name_H-M    P1
_symmetry_Int_Tables_number       1
_symmetry_cell_setting            triclinic
loop_
_symmetry_equiv_pos_as_xyz
'x, y, z'
_cell_length_a     37.724592
_cell_length_b     37.568179
_cell_length_c     29.202996
_cell_angle_alpha  75.65142
_cell_angle_beta   102.3478
_cell_angle_gamma 90.90187
loop_
_atom_site_label
_atom_site_type_symbol
_atom_site_fract_x
_atom_site_fract_y
_atom_site_fract_z
_atom_type_partial_charge
O0 O 0.23056 0.84224 0.98372 0.0
Cd1 Cd 0.28154 0.82357 0.05337 0.0
O2 O 0.21873 0.89778 0.9909 0.0
Cd3 Cd 0.24422 0.88857 0.06758 0.0
O4 O 0.22868 0.89615 0.13283 0.0
C5 C 0.19496 0.89374 0.13267 0.0
O6 O 0.17316 0.88545 0.09553 0.0
C7 C 0.21395 0.87351 0.96683 0.0
C8 C 0.32773 0.7737 0.03437 0.0
O9 O 0.30462 0.76232 0.06064 0.0
O10 O 0.32946 0.80846 0.01784 0.0
O11 O 0.67362 0.72986 0.73595 0.0
Cd12 Cd 0.68145 0.78463 0.67257 0.0
O13 O 0.63247 0.71396 0.68022 0.0
Cd14 Cd 0.59476 0.67694 0.64935 0.0
O15 O 0.57661 0.64796 0.59264 0.0
C16 C 0.58143 0.66462 0.55102 0.0
O17 O 0.59506 0.69744 0.54539 0.0
C18 C 0.6494 0.70787 0.72416 0.0
C19 C 0.75046 0.81386 0.67618 0.0
O20 O 0.73023 0.81961 0.70394 0.0
O21 O 0.73872 0.79322 0.64765 0.0
O22 O 0.78338 0.15592 0.16298 0.0
Cd23 Cd 0.75262 0.1841 0.07891 0.0
O24 O 0.83829 0.15427 0.14876 0.0
Cd25 Cd 0.82115 0.16947 0.06991 0.0
O26 O 0.8288 0.16103 0.00114 0.0
C27 C 0.82867 0.12823 0.99651 0.0
O28 O 0.82154 0.10158 0.03162 0.0
C29 C 0.81733 0.14883 0.17836 0.0
C30 C 0.69951 0.23714 0.07356 0.0
O31 O 0.69324 0.20276 0.08335 0.0
O32 O 0.73092 0.24675 0.06598 0.0
O33 O 0.32235 0.29228 0.54693 0.0
Cd34 Cd 0.30508 0.25874 0.48371 0.0
O35 O 0.3756 0.30362 0.52777 0.0
Cd36 Cd 0.3603 0.29581 0.45428 0.0
O37 O 0.35903 0.32191 0.37776 0.0
C38 C 0.38741 0.32024 0.36133 0.0
O39 O 0.41581 0.30047 0.38973 0.0
C40 C 0.35438 0.30378 0.55624 0.0
C41 C 0.24551 0.21357 0.49026 0.0
O42 O 0.27663 0.2035 0.51829 0.0
O43 O 0.24223 0.24519 0.46008 0.0
Tb44 Tb 0.02048 0.95525 0.54543 0.0
C45 C 0.94979 0.10471 0.51301 0.0
N46 N 0.98478 0.09368 0.53505 0.0
C47 C 0.00603 0.14771 0.48707 0.0
C48 C 0.94165 0.13729 0.47577 0.0
C49 C 0.01278 0.11512 0.52379 0.0
C50 C 0.97033 0.15872 0.4627 0.0
C51 C 0.88566 0.09274 0.50422 0.0
C52 C 0.92223 0.08241 0.52691 0.0
C53 C 0.8774 0.12504 0.46678 0.0
C54 C 0.9053 0.1473 0.45271 0.0
Tb55 Tb 0.99242 0.04029 0.59428 0.0
N56 N 0.93124 0.05077 0.56257 0.0
C57 C 0.85844 0.07048 0.52014 0.0
C58 C 0.90451 0.03079 0.58079 0.0
C59 C 0.86791 0.03972 0.55911 0.0
H60 H 0.04023 0.10735 0.54358 0.0
H61 H 0.84697 0.02327 0.57316 0.0
H62 H 0.95598 0.89462 0.53955 0.0
H63 H 0.1621 0.94201 0.63677 0.0
H64 H 0.91082 0.00874 0.61309 0.0
H65 H 0.83004 0.07741 0.50359 0.0
H66 H 0.10673 0.97463 0.58289 0.0
H67 H 0.02833 0.16442 0.47783 0.0
H68 H 0.84948 0.13323 0.44874 0.0
H69 H 0.89844 0.17228 0.42406 0.0
H70 H 0.94906 0.82891 0.57674 0.0
H71 H 0.96519 0.18393 0.43418 0.0
H72 H 0.16087 0.87594 0.67722 0.0
N73 N 0.01124 0.89457 0.57549 0.0
C74 C 0.04059 0.8742 0.60496 0.0
C75 C 0.97489 0.84139 0.58526 0.0
C76 C 0.03811 0.83655 0.62647 0.0
C77 C 0.97873 0.87869 0.56479 0.0
C78 C 0.00466 0.82025 0.61642 0.0
N79 N 0.07378 0.92818 0.5944 0.0
C80 C 0.10556 0.94609 0.60078 0.0
C81 C 0.1042 0.87155 0.64499 0.0
C82 C 0.07315 0.89141 0.61411 0.0
C83 C 0.13641 0.89017 0.65359 0.0
C84 C 0.13715 0.92752 0.63102 0.0
H85 H 1.0016 0.79138 0.63224 0.0
H86 H 0.06759 0.78758 0.67436 0.0
H87 H 0.12545 0.81826 0.69062 0.0
O88 O 0.05202 0.96448 0.49289 0.0
O89 O 0.03506 0.94808 0.62369 0.0
O90 O 0.03582 0.00373 0.64586 0.0
O91 O 0.01131 0.92357 0.49404 0.0
O92 O 0.04628 0.00839 0.52758 0.0
O93 O 0.04933 0.03597 0.59082 0.0
O94 O 0.96942 0.05116 0.6498 0.0
O95 O 0.98679 0.04294 0.51668 0.0
O96 O 0.97011 0.98618 0.50635 0.0
O97 O 0.01351 0.0832 0.62535 0.0
O98 O 0.97102 0.9861 0.62075 0.0
O99 O 0.96536 0.95693 0.55834 0.0
C100 C 0.04375 0.96823 0.65507 0.0
C101 C 0.02661 0.95096 0.41884 0.0
C102 C 0.04588 0.95447 0.34327 0.0
C103 C 0.01227 0.97194 0.31742 0.0
C104 C 0.99341 0.96886 0.39274 0.0
C105 C 0.9863 0.97917 0.34213 0.0
C106 C 0.05264 0.94395 0.39407 0.0
C107 C 0.06119 0.03095 0.55369 0.0
C108 C 0.03574 0.94008 0.4719 0.0
C109 C 0.06896 0.81654 0.65737 0.0
C110 C 0.10193 0.834 0.66659 0.0
C111 C 0.96625 0.0221 0.49287 0.0
C112 C 0.99071 0.10041 0.68905 0.0
C113 C 0.96467 0.11654 0.75147 0.0
C114 C 0.99137 0.14282 0.75591 0.0
C115 C 0.01686 0.127 0.69398 0.0
C116 C 0.96459 0.09534 0.71782 0.0
C117 C 0.01713 0.14801 0.72725 0.0
C118 C 0.95742 0.96048 0.5989 0.0
C119 C 0.99103 0.078 0.65416 0.0
H120 H 0.00634 0.98058 0.27825 0.0
H121 H 0.97319 0.97487 0.41139 0.0
H122 H 0.96067 0.99301 0.32199 0.0
H123 H 0.07822 0.93002 0.41456 0.0
H124 H 0.99278 0.15902 0.78214 0.0
H125 H 0.03729 0.13146 0.67232 0.0
H126 H 0.94407 0.07519 0.71369 0.0
H127 H 0.03757 0.16825 0.73108 0.0
Tb128 Tb 0.46547 0.49574 0.9733 0.0
C129 C 0.62511 0.52544 0.07824 0.0
N130 N 0.60227 0.49851 0.09212 0.0
C131 C 0.6516 0.45361 0.11573 0.0
C132 C 0.66206 0.51739 0.08165 0.0
C133 C 0.61515 0.46302 0.11188 0.0
C134 C 0.67512 0.48086 0.10028 0.0
C135 C 0.63376 0.5902 0.04564 0.0
C136 C 0.61128 0.56134 0.06065 0.0
C137 C 0.67055 0.58233 0.04846 0.0
C138 C 0.68468 0.54601 0.06646 0.0
Tb139 Tb 0.54327 0.51727 0.08307 0.0
N140 N 0.57527 0.56765 0.05713 0.0
C141 C 0.61847 0.62601 0.02816 0.0
C142 C 0.56063 0.60271 0.0425 0.0
C143 C 0.58184 0.6323 0.02703 0.0
H144 H 0.59752 0.44194 0.12542 0.0
H145 H 0.56996 0.65998 0.01448 0.0
H146 H 0.4008 0.55692 0.96479 0.0
H147 H 0.47125 0.3465 0.0236 0.0
H148 H 0.53267 0.60797 0.04261 0.0
H149 H 0.63479 0.64898 0.01605 0.0
H150 H 0.4918 0.40738 0.98838 0.0
H151 H 0.66159 0.42539 0.13099 0.0
H152 H 0.6883 0.6041 0.03691 0.0
H153 H 0.71315 0.54037 0.06861 0.0
H154 H 0.33952 0.5564 0.98251 0.0
H155 H 0.70335 0.47348 0.10342 0.0
H156 H 0.4134 0.3408 0.05124 0.0
N157 N 0.40927 0.49888 0.98907 0.0
C158 C 0.3948 0.46601 0.00552 0.0
C159 C 0.35486 0.53082 0.98935 0.0
C160 C 0.35998 0.46439 0.01605 0.0
C161 C 0.38963 0.53108 0.9797 0.0
C162 C 0.34002 0.49736 0.00779 0.0
N163 N 0.44938 0.4368 0.003 0.0
C164 C 0.46809 0.40576 0.00364 0.0
C165 C 0.40206 0.39957 0.03201 0.0
C166 C 0.41584 0.43407 0.01377 0.0
C167 C 0.42299 0.36783 0.03731 0.0
C168 C 0.45579 0.37094 0.02211 0.0
H169 H 0.31317 0.49728 0.01553 0.0
H170 H 0.31997 0.42828 0.04392 0.0
H171 H 0.35669 0.37154 0.05765 0.0
O172 O 0.45222 0.46892 0.91648 0.0
O173 O 0.45441 0.49693 0.04434 0.0
O174 O 0.50661 0.4724 0.09757 0.0
O175 O 0.43237 0.52491 0.90714 0.0
O176 O 0.51828 0.46502 0.99202 0.0
O177 O 0.53673 0.46175 0.07336 0.0
O178 O 0.52923 0.54437 0.13233 0.0
O179 O 0.5535 0.53708 0.0101 0.0
O180 O 0.51098 0.5233 0.94629 0.0
O181 O 0.57181 0.50235 0.1555 0.0
O182 O 0.49337 0.55208 0.05617 0.0
O183 O 0.47212 0.55365 0.9746 0.0
C184 C 0.47115 0.47645 0.08647 0.0
C185 C 0.41364 0.49829 0.83787 0.0
C186 C 0.3952 0.46835 0.77146 0.0
C187 C 0.37503 0.5005 0.7436 0.0
C188 C 0.39336 0.53009 0.8092 0.0
C189 C 0.37427 0.53112 0.76236 0.0
C190 C 0.41471 0.4675 0.81864 0.0
C191 C 0.53975 0.45123 0.03472 0.0
C192 C 0.43283 0.49724 0.88795 0.0
C193 C 0.34656 0.43011 0.03522 0.0
C194 C 0.36757 0.39781 0.04327 0.0
C195 C 0.54141 0.53741 0.96425 0.0
C196 C 0.57822 0.55001 0.19563 0.0
C197 C 0.59024 0.57886 0.26345 0.0
C198 C 0.62294 0.59158 0.25063 0.0
C199 C 0.61119 0.5626 0.18402 0.0
C200 C 0.56786 0.55815 0.23545 0.0
C201 C 0.63325 0.58348 0.21114 0.0
C202 C 0.47564 0.56829 0.01192 0.0
C203 C 0.55507 0.52725 0.16784 0.0
H204 H 0.36022 0.50213 0.70696 0.0
H205 H 0.39209 0.55416 0.82302 0.0
H206 H 0.35877 0.55577 0.74049 0.0
H207 H 0.43012 0.44275 0.84051 0.0
H208 H 0.64105 0.60704 0.27184 0.0
H209 H 0.62031 0.55582 0.15462 0.0
H210 H 0.54247 0.5483 0.24462 0.0
H211 H 0.65869 0.59296 0.20195 0.0
H212 H 0.22992 0.16259 0.56809 0.0
H213 H 0.19185 0.20841 0.41372 0.0
H214 H 0.14229 0.16457 0.41278 0.0
H215 H 0.20984 0.06838 0.57171 0.0
H216 H 0.19389 0.05989 0.62725 0.0
H217 H 0.22723 0.09395 0.61591 0.0
H218 H 0.18561 0.14331 0.62858 0.0
H219 H 0.15236 0.10928 0.64043 0.0
H220 H 0.13962 0.15107 0.59353 0.0
H221 H 0.09912 0.11353 0.42773 0.0
H222 H 0.05939 0.06492 0.45956 0.0
H223 H 0.1214 0.05617 0.60548 0.0
C224 C 0.2111 0.16332 0.53416 0.0
C225 C 0.21479 0.18864 0.49085 0.0
C226 C 0.1894 0.18925 0.44726 0.0
C227 C 0.16133 0.16433 0.44633 0.0
C228 C 0.15858 0.13948 0.48952 0.0
C229 C 0.18227 0.13928 0.53284 0.0
C230 C 0.17197 0.11111 0.57451 0.0
C231 C 0.20256 0.08159 0.59876 0.0
C232 C 0.16178 0.12982 0.61143 0.0
C233 C 0.13908 0.09525 0.54774 0.0
C234 C 0.13223 0.11159 0.49862 0.0
C235 C 0.10404 0.10074 0.46616 0.0
C236 C 0.08185 0.07292 0.48448 0.0
C237 C 0.08749 0.0569 0.53485 0.0
C238 C 0.11655 0.06814 0.56681 0.0
H239 H 0.34945 0.70314 0.08605 0.0
H240 H 0.35904 0.78532 0.95606 0.0
H241 H 0.39692 0.74135 0.93481 0.0
H242 H 0.44175 0.66746 0.11448 0.0
H243 H 0.4303 0.62061 0.13749 0.0
H244 H 0.40268 0.65799 0.1413 0.0
H245 H 0.34571 0.63193 0.09535 0.0
H246 H 0.37323 0.59451 0.09139 0.0
H247 H 0.3459 0.62364 0.03717 0.0
H248 H 0.43168 0.68701 0.92603 0.0
H249 H 0.46593 0.62887 0.9352 0.0
H250 H 0.43768 0.58456 0.07402 0.0
C251 C 0.35944 0.71181 0.05305 0.0
C252 C 0.35114 0.74755 0.02251 0.0
C253 C 0.36513 0.75807 0.97999 0.0
C254 C 0.38652 0.73325 0.96752 0.0
C255 C 0.39417 0.69818 0.99835 0.0
C256 C 0.38146 0.68764 0.04059 0.0
C257 C 0.39492 0.64894 0.06855 0.0
C258 C 0.41883 0.64876 0.1184 0.0
C259 C 0.36303 0.62325 0.07338 0.0
C260 C 0.41707 0.63935 0.03542 0.0
C261 C 0.41586 0.66784 0.99471 0.0
C262 C 0.43312 0.66468 0.95802 0.0
C263 C 0.45236 0.63163 0.96338 0.0
C264 C 0.45472 0.60266 0.00551 0.0
C265 C 0.43681 0.60664 0.04184 0.0
H266 H 0.78596 0.83205 0.60118 0.0
H267 H 0.79318 0.83812 0.74931 0.0
H268 H 0.84927 0.87272 0.74694 0.0
H269 H 0.88414 0.82497 0.60626 0.0
H270 H 0.88017 0.85415 0.5461 0.0
H271 H 0.84293 0.82632 0.5611 0.0
H272 H 0.80025 0.88471 0.53303 0.0
H273 H 0.83747 0.91253 0.51826 0.0
H274 H 0.8122 0.92302 0.55945 0.0
H275 H 0.90279 0.90866 0.72773 0.0
H276 H 0.94893 0.94608 0.69196 0.0
H277 H 0.90464 0.92092 0.55413 0.0
C278 C 0.79982 0.84001 0.63341 0.0
C279 C 0.78553 0.83202 0.6757 0.0
C280 C 0.8038 0.84378 0.7167 0.0
C281 C 0.83571 0.86335 0.71571 0.0
C282 C 0.8488 0.87129 0.67328 0.0
C283 C 0.83139 0.86019 0.63275 0.0
C284 C 0.84962 0.87483 0.5906 0.0
C285 C 0.86514 0.84317 0.57512 0.0
C286 C 0.82331 0.90028 0.54782 0.0
C287 C 0.87973 0.89615 0.61368 0.0
C288 C 0.87902 0.89328 0.66157 0.0
C289 C 0.9037 0.91099 0.69031 0.0
C290 C 0.92974 0.9323 0.66957 0.0
C291 C 0.93072 0.93616 0.62033 0.0
C292 C 0.90529 0.91776 0.59214 0.0
H293 H 0.69199 0.30996 0.02332 0.0
H294 H 0.64357 0.22637 0.12025 0.0
H295 H 0.59709 0.27209 0.11974 0.0
H296 H 0.67705 0.38584 0.07227 0.0
H297 H 0.66565 0.41896 0.01449 0.0
H298 H 0.69581 0.38012 0.0226 0.0
H299 H 0.65408 0.36119 0.95046 0.0
H300 H 0.62387 0.40013 0.94172 0.0
H301 H 0.60665 0.35446 0.95048 0.0
H302 H 0.55894 0.3274 0.1137 0.0
H303 H 0.52707 0.38786 0.09555 0.0
H304 H 0.59542 0.43463 0.99564 0.0
C305 C 0.6716 0.30137 0.04445 0.0
C306 C 0.67145 0.26469 0.0721 0.0
C307 C 0.64412 0.25431 0.0988 0.0
C308 C 0.61769 0.28009 0.09884 0.0
C309 C 0.61857 0.31599 0.07128 0.0
C310 C 0.64446 0.32661 0.04402 0.0
C311 C 0.6385 0.36678 0.0165 0.0
C312 C 0.6712 0.38924 0.03242 0.0
C313 C 0.63028 0.37086 0.96152 0.0
C314 C 0.60538 0.37705 0.03279 0.0
C315 C 0.59475 0.34742 0.06501 0.0
C316 C 0.56653 0.35059 0.0878 0.0
C317 C 0.54863 0.38493 0.07731 0.0
C318 C 0.55826 0.4153 0.04323 0.0
C319 C 0.58692 0.41137 0.02061 0.0
H320 H 0.1242 0.89006 0.14205 0.0
H321 H 0.2312 0.91764 0.21105 0.0
H322 H 0.2048 0.93554 0.27303 0.0
H323 H 0.07493 0.96366 0.15851 0.0
H324 H 0.03627 0.93705 0.17054 0.0
H325 H 0.06376 0.92478 0.13301 0.0
H326 H 0.07446 0.85886 0.18913 0.0
H327 H 0.04677 0.87086 0.22667 0.0
H328 H 0.09255 0.85269 0.25306 0.0
H329 H 0.1662 0.95244 0.32578 0.0
H330 H 0.11869 0.9658 0.36636 0.0
H331 H 0.03703 0.92699 0.26276 0.0
C332 C 0.14221 0.8996 0.17036 0.0
C333 C 0.17983 0.90244 0.17166 0.0
C334 C 0.20234 0.91513 0.20935 0.0
C335 C 0.18758 0.9254 0.24468 0.0
C336 C 0.1503 0.92269 0.2419 0.0
C337 C 0.12796 0.90989 0.20586 0.0
C338 C 0.08873 0.91007 0.21055 0.0
C339 C 0.06451 0.9354 0.16547 0.0
C340 C 0.07482 0.87078 0.22045 0.0
C341 C 0.09235 0.92558 0.2544 0.0
C342 C 0.12811 0.93247 0.27213 0.0
C343 C 0.13816 0.94695 0.31236 0.0
C344 C 0.11099 0.95434 0.33524 0.0
C345 C 0.07416 0.94737 0.31779 0.0
C346 C 0.06486 0.93294 0.27666 0.0
H347 H 0.58227 0.68216 0.73215 0.0
H348 H 0.69648 0.66452 0.80134 0.0
H349 H 0.68126 0.61522 0.8672 0.0
H350 H 0.55216 0.67279 0.84112 0.0
H351 H 0.51073 0.65081 0.82208 0.0
H352 H 0.53078 0.6817 0.77775 0.0
H353 H 0.53247 0.63065 0.73255 0.0
H354 H 0.51225 0.59965 0.77669 0.0
H355 H 0.5547 0.58677 0.76511 0.0
H356 H 0.65349 0.56973 0.92686 0.0
H357 H 0.61502 0.53346 0.97845 0.0
H358 H 0.51841 0.58328 0.87348 0.0
C359 C 0.6041 0.66717 0.76051 0.0
C360 C 0.64064 0.67644 0.76125 0.0
C361 C 0.66839 0.65743 0.79995 0.0
C362 C 0.65999 0.62941 0.83737 0.0
C363 C 0.62364 0.62116 0.83588 0.0
C364 C 0.59609 0.63964 0.79864 0.0
C365 C 0.55909 0.62771 0.80787 0.0
C366 C 0.53689 0.66018 0.81248 0.0
C367 C 0.53842 0.61014 0.76819 0.0
C368 C 0.57011 0.59948 0.85598 0.0
C369 C 0.6075 0.596 0.87131 0.0
C370 C 0.62421 0.57234 0.91524 0.0
C371 C 0.60217 0.55216 0.94458 0.0
C372 C 0.56387 0.55608 0.93036 0.0
C373 C 0.54766 0.57956 0.88504 0.0
H374 H 0.88749 0.14891 0.22905 0.0
H375 H 0.78113 0.10846 0.24417 0.0
H376 H 0.80749 0.073 0.32769 0.0
H377 H 0.93845 0.06741 0.29352 0.0
H378 H 0.97615 0.08982 0.32247 0.0
H379 H 0.94878 0.11346 0.26471 0.0
H380 H 0.9367 0.16716 0.30044 0.0
H381 H 0.96317 0.14386 0.35907 0.0
H382 H 0.91674 0.15862 0.35267 0.0
H383 H 0.8469 0.03543 0.40478 0.0
H384 H 0.89521 0.00584 0.47553 0.0
H385 H 0.97446 0.07584 0.41426 0.0
C386 C 0.86966 0.13302 0.25021 0.0
C387 C 0.83227 0.13135 0.23012 0.0
C388 C 0.8098 0.11031 0.25894 0.0
C389 C 0.82455 0.08995 0.30631 0.0
C390 C 0.86165 0.09155 0.32463 0.0
C391 C 0.88379 0.11316 0.29788 0.0
C392 C 0.92283 0.10991 0.32603 0.0
C393 C 0.94802 0.09422 0.30013 0.0
C394 C 0.93562 0.14709 0.33513 0.0
C395 C 0.91927 0.08267 0.37248 0.0
C396 C 0.88386 0.07192 0.3706 0.0
C397 C 0.87453 0.04423 0.40715 0.0
C398 C 0.90206 0.02741 0.44687 0.0
C399 C 0.93809 0.03912 0.45018 0.0
C400 C 0.94681 0.06711 0.4127 0.0
H401 H 0.31317 0.34022 0.59818 0.0
H402 H 0.4238 0.30464 0.60734 0.0
H403 H 0.44577 0.33712 0.67136 0.0
H404 H 0.33385 0.42908 0.60562 0.0
H405 H 0.30098 0.43409 0.64045 0.0
H406 H 0.29321 0.40307 0.60159 0.0
H407 H 0.28648 0.34947 0.67425 0.0
H408 H 0.29408 0.38041 0.71341 0.0
H409 H 0.32224 0.3391 0.72809 0.0
H410 H 0.45627 0.37807 0.72911 0.0
H411 H 0.45461 0.42696 0.77206 0.0
H412 H 0.33751 0.4379 0.7225 0.0
C413 C 0.34187 0.33838 0.61475 0.0
C414 C 0.36676 0.31952 0.59837 0.0
C415 C 0.40428 0.31875 0.61967 0.0
C416 C 0.41698 0.33699 0.65617 0.0
C417 C 0.39186 0.35612 0.67074 0.0
C418 C 0.35508 0.35701 0.65061 0.0
C419 C 0.33423 0.38283 0.6687 0.0
C420 C 0.31442 0.41411 0.62658 0.0
C421 C 0.30769 0.36168 0.69785 0.0
C422 C 0.36507 0.39702 0.7011 0.0
C423 C 0.39803 0.38077 0.70261 0.0
C424 C 0.43055 0.39068 0.72861 0.0
C425 C 0.42936 0.41838 0.753 0.0
C426 C 0.39596 0.4362 0.75054 0.0
C427 C 0.36345 0.42481 0.72489 0.0
H428 H 0.59255 0.6926 0.45974 0.0
H429 H 0.55579 0.5957 0.5506 0.0
H430 H 0.5491 0.56453 0.48403 0.0
H431 H 0.53398 0.68597 0.3445 0.0
H432 H 0.56872 0.70149 0.31111 0.0
H433 H 0.56718 0.71711 0.36426 0.0
H434 H 0.63388 0.69349 0.40163 0.0
H435 H 0.63555 0.6777 0.34878 0.0
H436 H 0.64614 0.64607 0.40781 0.0
H437 H 0.55105 0.54247 0.40923 0.0
H438 H 0.56221 0.53127 0.33345 0.0
H439 H 0.59697 0.64315 0.29222 0.0
C440 C 0.58253 0.66503 0.46553 0.0
C441 C 0.57458 0.64663 0.51037 0.0
C442 C 0.56191 0.6104 0.51648 0.0
C443 C 0.55798 0.5925 0.47886 0.0
C444 C 0.56663 0.6113 0.43535 0.0
C445 C 0.5785 0.64683 0.42851 0.0
C446 C 0.58803 0.66034 0.37952 0.0
C447 C 0.56297 0.69317 0.34799 0.0
C448 C 0.62828 0.66994 0.38478 0.0
C449 C 0.58049 0.62656 0.36019 0.0
C450 C 0.56782 0.59865 0.39261 0.0
C451 C 0.56051 0.56431 0.38334 0.0
C452 C 0.56676 0.55826 0.3401 0.0
C453 C 0.5804 0.58635 0.30686 0.0
C454 C 0.58674 0.62105 0.31698 0.0
H455 H 0.85119 0.17624 0.92179 0.0
H456 H 0.83475 0.06048 0.97897 0.0
H457 H 0.86215 0.0452 0.91634 0.0
H458 H 0.8352 0.17391 0.79209 0.0
H459 H 0.86992 0.20638 0.78068 0.0
H460 H 0.84453 0.20851 0.82575 0.0
H461 H 0.90471 0.20375 0.88987 0.0
H462 H 0.93023 0.20132 0.84524 0.0
H463 H 0.93626 0.1655 0.90057 0.0
H464 H 0.89818 0.04194 0.85402 0.0
H465 H 0.93884 0.05122 0.79643 0.0
H466 H 0.93005 0.16919 0.77853 0.0
C467 C 0.85254 0.14775 0.92048 0.0
C468 C 0.84075 0.11958 0.95529 0.0
C469 C 0.84347 0.08259 0.95263 0.0
C470 C 0.85895 0.07361 0.91711 0.0
C471 C 0.87124 0.10197 0.88419 0.0
C472 C 0.86784 0.13833 0.88525 0.0
C473 C 0.88553 0.16338 0.84812 0.0
C474 C 0.8571 0.18959 0.80936 0.0
C475 C 0.91598 0.18472 0.87242 0.0
C476 C 0.90064 0.13533 0.82732 0.0
C477 C 0.89175 0.10009 0.84809 0.0
C478 C 0.90473 0.06948 0.83683 0.0
C479 C 0.92773 0.07504 0.80391 0.0
C480 C 0.93766 0.11095 0.7828 0.0
C481 C 0.92324 0.14137 0.7942 0.0
H482 H 0.44359 0.32135 0.31512 0.0
H483 H 0.33793 0.37274 0.29928 0.0
H484 H 0.34597 0.41634 0.22384 0.0
H485 H 0.48831 0.40132 0.27862 0.0
H486 H 0.51581 0.38248 0.2462 0.0
H487 H 0.50015 0.35279 0.29579 0.0
H488 H 0.4702 0.31172 0.23981 0.0
H489 H 0.48617 0.34118 0.19014 0.0
H490 H 0.43852 0.33233 0.18404 0.0
H491 H 0.36867 0.45859 0.1546 0.0
H492 H 0.4031 0.49366 0.09592 0.0
H493 H 0.49263 0.41315 0.15623 0.0
C494 C 0.4218 0.3413 0.29539 0.0
C495 C 0.39012 0.34357 0.3132 0.0
C496 C 0.36239 0.37032 0.28631 0.0
C497 C 0.36672 0.39524 0.2434 0.0
C498 C 0.39872 0.39281 0.22755 0.0
C499 C 0.42558 0.36619 0.25244 0.0
C500 C 0.45813 0.37041 0.22916 0.0
C501 C 0.49262 0.37716 0.26456 0.0
C502 C 0.46356 0.33691 0.20963 0.0
C503 C 0.44593 0.40427 0.18828 0.0
C504 C 0.41148 0.41668 0.18754 0.0
C505 C 0.39538 0.44868 0.15434 0.0
C506 C 0.41502 0.46834 0.12104 0.0
C507 C 0.45018 0.45575 0.12102 0.0
C508 C 0.46568 0.42333 0.15516 0.0
H509 H 0.19076 0.9408 0.90482 0.0
H510 H 0.17746 0.82344 0.9231 0.0
H511 H 0.13074 0.83575 0.84713 0.0
H512 H 0.09773 0.97029 0.85412 0.0
H513 H 0.10762 0.01039 0.81078 0.0
H514 H 0.13992 0.99284 0.86698 0.0
H515 H 0.18974 0.98756 0.81983 0.0
H516 H 0.15767 0.00548 0.76355 0.0
H517 H 0.18132 0.9619 0.7742 0.0
H518 H 0.08388 0.86026 0.77252 0.0
H519 H 0.04405 0.89515 0.69734 0.0
H520 H 0.09027 0.997 0.72263 0.0
C521 C 0.17799 0.91773 0.89276 0.0
C522 C 0.18753 0.88114 0.91995 0.0
C523 C 0.17062 0.85164 0.90276 0.0
C524 C 0.14394 0.85836 0.85983 0.0
C525 C 0.13488 0.8947 0.83421 0.0
C526 C 0.15174 0.92392 0.84943 0.0
C527 C 0.1378 0.96024 0.81383 0.0
C528 C 0.11969 0.98489 0.83788 0.0
C529 C 0.16846 0.97995 0.79153 0.0
C530 C 0.11011 0.94681 0.7766 0.0
C531 C 0.10878 0.90891 0.78949 0.0
C532 C 0.08504 0.88989 0.76167 0.0
C533 C 0.06266 0.91002 0.71883 0.0
C534 C 0.06466 0.94874 0.70346 0.0
C535 C 0.08821 0.96744 0.73333 0.0
loop_
_geom_bond_atom_site_label_1
_geom_bond_atom_site_label_2
_geom_bond_distance
_geom_bond_site_symmetry_2
_ccdc_geom_bond_type
O0 Cd1 2.300 1_556 S
O0 C7 1.275 . S
Cd1 O0 2.300 1_554 S
Cd1 O9 2.381 . S
Cd1 O10 2.378 . S
O2 Cd3 2.385 1_556 S
O2 C7 1.255 . S
Cd3 O2 2.385 1_554 S
Cd3 O4 2.317 . S
O4 Cd3 2.317 . S
O4 C5 1.232 . S
C5 O4 1.232 . S
C5 O6 1.218 . S
O6 C5 1.218 . S
C7 O0 1.275 . S
C7 O2 1.255 . S
C8 O9 1.258 . S
C8 O10 1.256 . S
O9 Cd1 2.381 . S
O9 C8 1.258 . S
O10 Cd1 2.378 . S
O10 C8 1.256 . S
O11 Cd12 2.300 . S
O11 C18 1.275 . S
Cd12 O11 2.300 . S
Cd12 O20 2.381 . S
Cd12 O21 2.378 . S
O13 Cd14 2.385 . S
O13 C18 1.255 . S
Cd14 O13 2.385 . S
Cd14 O15 2.317 . S
O15 Cd14 2.317 . S
O15 C16 1.232 . S
C16 O15 1.232 . S
C16 O17 1.218 . S
O17 C16 1.218 . S
C18 O11 1.275 . S
C18 O13 1.255 . S
C19 O20 1.258 . S
C19 O21 1.256 . S
O20 Cd12 2.381 . S
O20 C19 1.258 . S
O21 Cd12 2.378 . S
O21 C19 1.256 . S
O22 Cd23 2.300 . S
O22 C29 1.275 . S
Cd23 O22 2.300 . S
Cd23 O31 2.381 . S
Cd23 O32 2.378 . S
O24 Cd25 2.385 . S
O24 C29 1.255 . S
Cd25 O24 2.385 . S
Cd25 O26 2.317 . S
O26 Cd25 2.317 . S
O26 C27 1.232 . S
C27 O26 1.232 . S
C27 O28 1.218 . S
O28 C27 1.218 . S
C29 O22 1.275 . S
C29 O24 1.255 . S
C30 O31 1.258 . S
C30 O32 1.256 . S
O31 Cd23 2.381 . S
O31 C30 1.258 . S
O32 Cd23 2.378 . S
O32 C30 1.256 . S
O33 Cd34 2.300 . S
O33 C40 1.275 . S
Cd34 O33 2.300 . S
Cd34 O42 2.381 . S
Cd34 O43 2.378 . S
O35 Cd36 2.385 . S
O35 C40 1.255 . S
Cd36 O35 2.385 . S
Cd36 O37 2.317 . S
O37 Cd36 2.317 . S
O37 C38 1.232 . S
C38 O37 1.232 . S
C38 O39 1.218 . S
O39 C38 1.218 . S
C40 O33 1.275 . S
C40 O35 1.255 . S
C41 O42 1.258 . S
C41 O43 1.256 . S
O42 Cd34 2.381 . S
O42 C41 1.258 . S
O43 Cd34 2.378 . S
O43 C41 1.256 . S
Tb44 N73 2.617 . S
Tb44 N79 2.572 . S
Tb44 O88 2.465 . S
Tb44 O89 2.387 . S
Tb44 O91 2.428 . S
Tb44 O92 2.308 1_565 S
Tb44 O96 2.349 1_465 S
Tb44 O99 2.393 1_455 S
Tb44 C108 2.802 . S
C45 N46 1.379 . S
C45 C48 1.416 . S
C45 C52 1.424 . S
N46 C45 1.379 . S
N46 C49 1.334 1_655 S
N46 Tb55 2.617 . S
C47 C49 1.390 . S
C47 C50 1.339 1_455 S
C47 H67 0.930 . S
C48 C45 1.416 . S
C48 C50 1.416 . S
C48 C54 1.448 . S
C49 N46 1.334 1_455 S
C49 C47 1.390 . S
C49 H60 0.930 . S
C50 C47 1.339 1_655 S
C50 C48 1.416 . S
C50 H71 0.930 . S
C51 C52 1.413 . S
C51 C53 1.427 . S
C51 C57 1.416 . S
C52 C45 1.424 . S
C52 C51 1.413 . S
C52 N56 1.361 . S
C53 C51 1.427 . S
C53 C54 1.328 . S
C53 H68 0.929 . S
C54 C48 1.448 . S
C54 C53 1.328 . S
C54 H69 0.930 . S
Tb55 N46 2.617 . S
Tb55 N56 2.572 . S
Tb55 O90 2.349 1_655 S
Tb55 O93 2.393 1_655 S
Tb55 O94 2.465 . S
Tb55 O95 2.387 . S
Tb55 O97 2.428 . S
Tb55 O98 2.308 1_545 S
Tb55 C119 2.802 . S
N56 C52 1.361 . S
N56 Tb55 2.572 . S
N56 C58 1.340 . S
C57 C51 1.416 . S
C57 C59 1.332 . S
C57 H65 0.931 . S
C58 N56 1.340 . S
C58 C59 1.407 . S
C58 H64 0.930 . S
C59 C57 1.332 . S
C59 C58 1.407 . S
C59 H61 0.929 . S
H60 C49 0.930 . S
H61 C59 0.929 . S
H62 C77 0.930 1_655 S
H63 C84 0.929 . S
H64 C58 0.930 . S
H65 C57 0.931 . S
H66 C80 0.930 . S
H67 C47 0.930 . S
H68 C53 0.929 . S
H69 C54 0.930 . S
H70 C75 0.930 1_655 S
H71 C50 0.930 . S
H72 C83 0.931 . S
N73 Tb44 2.617 . S
N73 C74 1.379 . S
N73 C77 1.334 . S
C74 N73 1.379 . S
C74 C76 1.416 . S
C74 C82 1.424 . S
C75 H70 0.930 1_455 S
C75 C77 1.390 . S
C75 C78 1.339 . S
C76 C74 1.416 . S
C76 C78 1.416 . S
C76 C109 1.448 . S
C77 H62 0.930 1_455 S
C77 N73 1.334 . S
C77 C75 1.390 . S
C78 C75 1.339 . S
C78 C76 1.416 . S
C78 H85 0.930 . S
N79 Tb44 2.572 . S
N79 C80 1.340 . S
N79 C82 1.361 . S
C80 H66 0.930 . S
C80 N79 1.340 . S
C80 C84 1.407 . S
C81 C82 1.413 . S
C81 C83 1.416 . S
C81 C110 1.427 . S
C82 C74 1.424 . S
C82 N79 1.361 . S
C82 C81 1.413 . S
C83 H72 0.931 . S
C83 C81 1.416 . S
C83 C84 1.332 . S
C84 H63 0.929 . S
C84 C80 1.407 . S
C84 C83 1.332 . S
H85 C78 0.930 . S
H86 C109 0.930 . S
H87 C110 0.929 . S
O88 Tb44 2.465 . S
O88 C108 1.264 . S
O89 Tb44 2.387 . S
O89 C100 1.264 . S
O90 Tb55 2.349 1_455 S
O90 C100 1.243 1_545 S
O91 Tb44 2.428 . S
O91 C108 1.256 . S
O92 Tb44 2.308 1_545 S
O92 C107 1.266 . S
O93 Tb55 2.393 1_455 S
O93 C107 1.248 . S
O94 Tb55 2.465 . S
O94 C119 1.264 . S
O95 Tb55 2.387 . S
O95 C111 1.264 . S
O96 Tb44 2.349 1_645 S
O96 C111 1.243 . S
O97 Tb55 2.428 . S
O97 C119 1.256 . S
O98 Tb55 2.308 1_565 S
O98 C118 1.266 . S
O99 Tb44 2.393 1_655 S
O99 C118 1.248 . S
C100 O89 1.264 . S
C100 O90 1.243 1_565 S
C101 C104 1.399 . S
C101 C106 1.383 . S
C101 C108 1.496 . S
C102 C103 1.399 . S
C102 C106 1.389 . S
C103 C102 1.399 . S
C103 C105 1.380 . S
C103 H120 0.929 . S
C104 C101 1.399 . S
C104 C105 1.392 . S
C104 H121 0.929 . S
C105 C103 1.380 . S
C105 C104 1.392 . S
C105 H122 0.929 . S
C106 C101 1.383 . S
C106 C102 1.389 . S
C106 H123 0.931 . S
C107 O92 1.266 . S
C107 O93 1.248 . S
C108 Tb44 2.802 . S
C108 O88 1.264 . S
C108 O91 1.256 . S
C108 C101 1.496 . S
C109 C76 1.448 . S
C109 H86 0.930 . S
C109 C110 1.328 . S
C110 C81 1.427 . S
C110 H87 0.929 . S
C110 C109 1.328 . S
C111 O95 1.264 . S
C111 O96 1.243 . S
C112 C115 1.399 . S
C112 C116 1.383 . S
C112 C119 1.496 . S
C113 C114 1.399 . S
C113 C116 1.389 . S
C114 C113 1.399 . S
C114 C117 1.380 . S
C114 H124 0.929 . S
C115 C112 1.399 . S
C115 C117 1.392 . S
C115 H125 0.929 . S
C116 C112 1.383 . S
C116 C113 1.389 . S
C116 H126 0.931 . S
C117 C114 1.380 . S
C117 C115 1.392 . S
C117 H127 0.929 . S
C118 O98 1.266 . S
C118 O99 1.248 . S
C119 Tb55 2.802 . S
C119 O94 1.264 . S
C119 O97 1.256 . S
C119 C112 1.496 . S
H120 C103 0.929 . S
H121 C104 0.929 . S
H122 C105 0.929 . S
H123 C106 0.931 . S
H124 C114 0.929 . S
H125 C115 0.929 . S
H126 C116 0.931 . S
H127 C117 0.929 . S
Tb128 N157 2.617 . S
Tb128 N163 2.572 1_556 S
Tb128 O172 2.465 . S
Tb128 O173 2.387 1_556 S
Tb128 O175 2.428 . S
Tb128 O176 2.308 1_556 S
Tb128 O180 2.349 . S
Tb128 O183 2.393 . S
Tb128 C192 2.802 . S
C129 N130 1.379 . S
C129 C132 1.416 . S
C129 C136 1.424 . S
N130 C129 1.379 . S
N130 C133 1.334 . S
N130 Tb139 2.617 . S
C131 C133 1.390 . S
C131 C134 1.339 . S
C131 H151 0.930 . S
C132 C129 1.416 . S
C132 C134 1.416 . S
C132 C138 1.448 . S
C133 N130 1.334 . S
C133 C131 1.390 . S
C133 H144 0.930 . S
C134 C131 1.339 . S
C134 C132 1.416 . S
C134 H155 0.930 . S
C135 C136 1.413 . S
C135 C137 1.427 . S
C135 C141 1.416 . S
C136 C129 1.424 . S
C136 C135 1.413 . S
C136 N140 1.361 . S
C137 C135 1.427 . S
C137 C138 1.328 . S
C137 H152 0.929 . S
C138 C132 1.448 . S
C138 C137 1.328 . S
C138 H153 0.930 . S
Tb139 N130 2.617 . S
Tb139 N140 2.572 . S
Tb139 O174 2.349 . S
Tb139 O177 2.393 . S
Tb139 O178 2.465 . S
Tb139 O179 2.387 1_554 S
Tb139 O181 2.428 . S
Tb139 O182 2.308 . S
Tb139 C203 2.802 . S
N140 C136 1.361 . S
N140 Tb139 2.572 . S
N140 C142 1.340 . S
C141 C135 1.416 . S
C141 C143 1.332 . S
C141 H149 0.931 . S
C142 N140 1.340 . S
C142 C143 1.407 . S
C142 H148 0.930 . S
C143 C141 1.332 . S
C143 C142 1.407 . S
C143 H145 0.929 . S
H144 C133 0.930 . S
H145 C143 0.929 . S
H146 C161 0.930 . S
H147 C168 0.929 . S
H148 C142 0.930 . S
H149 C141 0.931 . S
H150 C164 0.930 . S
H151 C131 0.930 . S
H152 C137 0.929 . S
H153 C138 0.930 . S
H154 C159 0.930 . S
H155 C134 0.930 . S
H156 C167 0.931 . S
N157 Tb128 2.617 . S
N157 C158 1.379 1_556 S
N157 C161 1.334 . S
C158 N157 1.379 1_554 S
C158 C160 1.416 . S
C158 C166 1.424 . S
C159 H154 0.930 . S
C159 C161 1.390 . S
C159 C162 1.339 1_556 S
C160 C158 1.416 . S
C160 C162 1.416 . S
C160 C193 1.448 . S
C161 H146 0.930 . S
C161 N157 1.334 . S
C161 C159 1.390 . S
C162 C159 1.339 1_554 S
C162 C160 1.416 . S
C162 H169 0.930 . S
N163 Tb128 2.572 1_554 S
N163 C164 1.340 . S
N163 C166 1.361 . S
C164 H150 0.930 . S
C164 N163 1.340 . S
C164 C168 1.407 . S
C165 C166 1.413 . S
C165 C167 1.416 . S
C165 C194 1.427 . S
C166 C158 1.424 . S
C166 N163 1.361 . S
C166 C165 1.413 . S
C167 H156 0.931 . S
C167 C165 1.416 . S
C167 C168 1.332 . S
C168 H147 0.929 . S
C168 C164 1.407 . S
C168 C167 1.332 . S
H169 C162 0.930 . S
H170 C193 0.930 . S
H171 C194 0.929 . S
O172 Tb128 2.465 . S
O172 C192 1.264 . S
O173 Tb128 2.387 1_554 S
O173 C184 1.264 . S
O174 Tb139 2.349 . S
O174 C184 1.243 . S
O175 Tb128 2.428 . S
O175 C192 1.256 . S
O176 Tb128 2.308 1_554 S
O176 C191 1.266 . S
O177 Tb139 2.393 . S
O177 C191 1.248 . S
O178 Tb139 2.465 . S
O178 C203 1.264 . S
O179 Tb139 2.387 1_556 S
O179 C195 1.264 . S
O180 Tb128 2.349 . S
O180 C195 1.243 . S
O181 Tb139 2.428 . S
O181 C203 1.256 . S
O182 Tb139 2.308 . S
O182 C202 1.266 . S
O183 Tb128 2.393 . S
O183 C202 1.248 1_556 S
C184 O173 1.264 . S
C184 O174 1.243 . S
C185 C188 1.399 . S
C185 C190 1.383 . S
C185 C192 1.496 . S
C186 C187 1.399 . S
C186 C190 1.389 . S
C187 C186 1.399 . S
C187 C189 1.380 . S
C187 H204 0.929 . S
C188 C185 1.399 . S
C188 C189 1.392 . S
C188 H205 0.929 . S
C189 C187 1.380 . S
C189 C188 1.392 . S
C189 H206 0.929 . S
C190 C185 1.383 . S
C190 C186 1.389 . S
C190 H207 0.931 . S
C191 O176 1.266 . S
C191 O177 1.248 . S
C192 Tb128 2.802 . S
C192 O172 1.264 . S
C192 O175 1.256 . S
C192 C185 1.496 . S
C193 C160 1.448 . S
C193 H170 0.930 . S
C193 C194 1.328 . S
C194 C165 1.427 . S
C194 H171 0.929 . S
C194 C193 1.328 . S
C195 O179 1.264 . S
C195 O180 1.243 . S
C196 C199 1.399 . S
C196 C200 1.383 . S
C196 C203 1.496 . S
C197 C198 1.399 . S
C197 C200 1.389 . S
C198 C197 1.399 . S
C198 C201 1.380 . S
C198 H208 0.929 . S
C199 C196 1.399 . S
C199 C201 1.392 . S
C199 H209 0.929 . S
C200 C196 1.383 . S
C200 C197 1.389 . S
C200 H210 0.931 . S
C201 C198 1.380 . S
C201 C199 1.392 . S
C201 H211 0.929 . S
C202 O182 1.266 . S
C202 O183 1.248 1_554 S
C203 Tb139 2.802 . S
C203 O178 1.264 . S
C203 O181 1.256 . S
C203 C196 1.496 . S
H204 C187 0.929 . S
H205 C188 0.929 . S
H206 C189 0.929 . S
H207 C190 0.931 . S
H208 C198 0.929 . S
H209 C199 0.929 . S
H210 C200 0.931 . S
H211 C201 0.929 . S
H212 C224 0.930 . S
H213 C226 0.930 . S
H214 C227 0.930 . S
H215 C231 0.959 . S
H216 C231 0.959 . S
H217 C231 0.961 . S
H218 C232 0.960 . S
H219 C232 0.961 . S
H220 C232 0.959 . S
H221 C235 0.929 . S
H222 C236 0.931 . S
H223 C238 0.930 . S
C224 H212 0.930 . S
C224 C225 1.399 . S
C224 C229 1.399 . S
C225 C224 1.399 . S
C225 C226 1.376 . S
C226 H213 0.930 . S
C226 C225 1.376 . S
C226 C227 1.388 . S
C227 H214 0.930 . S
C227 C226 1.388 . S
C227 C228 1.390 . S
C228 C227 1.390 . S
C228 C229 1.394 . S
C228 C234 1.465 . S
C229 C224 1.399 . S
C229 C228 1.394 . S
C229 C230 1.516 . S
C230 C229 1.516 . S
C230 C231 1.502 . S
C230 C232 1.561 . S
C230 C233 1.526 . S
C231 H215 0.959 . S
C231 H216 0.959 . S
C231 H217 0.961 . S
C231 C230 1.502 . S
C232 H218 0.960 . S
C232 H219 0.961 . S
C232 H220 0.959 . S
C232 C230 1.561 . S
C233 C230 1.526 . S
C233 C234 1.396 . S
C233 C238 1.390 . S
C234 C228 1.465 . S
C234 C233 1.396 . S
C234 C235 1.399 . S
C235 H221 0.929 . S
C235 C234 1.399 . S
C235 C236 1.385 . S
C236 H222 0.931 . S
C236 C235 1.385 . S
C236 C237 1.389 . S
C237 C236 1.389 . S
C237 C238 1.387 . S
C238 H223 0.930 . S
C238 C233 1.390 . S
C238 C237 1.387 . S
H239 C251 0.930 . S
H240 C253 0.930 . S
H241 C254 0.930 . S
H242 C258 0.959 . S
H243 C258 0.959 . S
H244 C258 0.961 . S
H245 C259 0.960 . S
H246 C259 0.961 . S
H247 C259 0.959 . S
H248 C262 0.929 . S
H249 C263 0.931 . S
H250 C265 0.930 . S
C251 H239 0.930 . S
C251 C252 1.399 . S
C251 C256 1.399 . S
C252 C251 1.399 . S
C252 C253 1.376 1_554 S
C253 H240 0.930 . S
C253 C252 1.376 1_556 S
C253 C254 1.388 . S
C254 H241 0.930 . S
C254 C253 1.388 . S
C254 C255 1.390 1_556 S
C255 C254 1.390 1_554 S
C255 C256 1.394 . S
C255 C261 1.465 . S
C256 C251 1.399 . S
C256 C255 1.394 . S
C256 C257 1.516 . S
C257 C256 1.516 . S
C257 C258 1.502 . S
C257 C259 1.561 . S
C257 C260 1.526 . S
C258 H242 0.959 . S
C258 H243 0.959 . S
C258 H244 0.961 . S
C258 C257 1.502 . S
C259 H245 0.960 . S
C259 H246 0.961 . S
C259 H247 0.959 . S
C259 C257 1.561 . S
C260 C257 1.526 . S
C260 C261 1.396 . S
C260 C265 1.390 . S
C261 C255 1.465 . S
C261 C260 1.396 . S
C261 C262 1.399 1_554 S
C262 H248 0.929 . S
C262 C261 1.399 1_556 S
C262 C263 1.385 . S
C263 H249 0.931 . S
C263 C262 1.385 . S
C263 C264 1.389 1_556 S
C264 C263 1.389 1_554 S
C264 C265 1.387 . S
C265 H250 0.930 . S
C265 C260 1.390 . S
C265 C264 1.387 . S
H266 C278 0.930 . S
H267 C280 0.930 . S
H268 C281 0.930 . S
H269 C285 0.959 . S
H270 C285 0.959 . S
H271 C285 0.961 . S
H272 C286 0.960 . S
H273 C286 0.961 . S
H274 C286 0.959 . S
H275 C289 0.929 . S
H276 C290 0.931 . S
H277 C292 0.930 . S
C278 H266 0.930 . S
C278 C279 1.399 . S
C278 C283 1.399 . S
C279 C278 1.399 . S
C279 C280 1.376 . S
C280 H267 0.930 . S
C280 C279 1.376 . S
C280 C281 1.388 . S
C281 H268 0.930 . S
C281 C280 1.388 . S
C281 C282 1.390 . S
C282 C281 1.390 . S
C282 C283 1.394 . S
C282 C288 1.465 . S
C283 C278 1.399 . S
C283 C282 1.394 . S
C283 C284 1.516 . S
C284 C283 1.516 . S
C284 C285 1.502 . S
C284 C286 1.561 . S
C284 C287 1.526 . S
C285 H269 0.959 . S
C285 H270 0.959 . S
C285 H271 0.961 . S
C285 C284 1.502 . S
C286 H272 0.960 . S
C286 H273 0.961 . S
C286 H274 0.959 . S
C286 C284 1.561 . S
C287 C284 1.526 . S
C287 C288 1.396 . S
C287 C292 1.390 . S
C288 C282 1.465 . S
C288 C287 1.396 . S
C288 C289 1.399 . S
C289 H275 0.929 . S
C289 C288 1.399 . S
C289 C290 1.385 . S
C290 H276 0.931 . S
C290 C289 1.385 . S
C290 C291 1.389 . S
C291 C290 1.389 . S
C291 C292 1.387 . S
C292 H277 0.930 . S
C292 C287 1.390 . S
C292 C291 1.387 . S
H293 C305 0.930 . S
H294 C307 0.930 . S
H295 C308 0.930 . S
H296 C312 0.959 . S
H297 C312 0.959 . S
H298 C312 0.961 . S
H299 C313 0.957 . S
H300 C313 0.960 . S
H301 C313 0.963 . S
H302 C316 0.929 . S
H303 C317 0.931 . S
H304 C319 0.930 . S
C305 H293 0.930 . S
C305 C306 1.399 . S
C305 C310 1.399 . S
C306 C305 1.399 . S
C306 C307 1.376 . S
C307 H294 0.930 . S
C307 C306 1.376 . S
C307 C308 1.388 . S
C308 H295 0.930 . S
C308 C307 1.388 . S
C308 C309 1.390 . S
C309 C308 1.390 . S
C309 C310 1.394 . S
C309 C315 1.465 . S
C310 C305 1.399 . S
C310 C309 1.394 . S
C310 C311 1.516 . S
C311 C310 1.516 . S
C311 C312 1.502 . S
C311 C313 1.557 1_554 S
C311 C314 1.526 . S
C312 H296 0.959 . S
C312 H297 0.959 . S
C312 H298 0.961 . S
C312 C311 1.502 . S
C313 H299 0.957 . S
C313 H300 0.960 . S
C313 H301 0.963 . S
C313 C311 1.557 1_556 S
C314 C311 1.526 . S
C314 C315 1.396 . S
C314 C319 1.390 . S
C315 C309 1.465 . S
C315 C314 1.396 . S
C315 C316 1.399 . S
C316 H302 0.929 . S
C316 C315 1.399 . S
C316 C317 1.385 . S
C317 H303 0.931 . S
C317 C316 1.385 . S
C317 C318 1.389 . S
C318 C317 1.389 . S
C318 C319 1.387 . S
C319 H304 0.930 . S
C319 C314 1.390 . S
C319 C318 1.387 . S
H320 C332 0.930 . S
H321 C334 0.930 . S
H322 C335 0.930 . S
H323 C339 0.959 . S
H324 C339 0.959 . S
H325 C339 0.961 . S
H326 C340 0.960 . S
H327 C340 0.961 . S
H328 C340 0.959 . S
H329 C343 0.929 1_545 S
H330 C344 0.931 1_545 S
H331 C346 0.930 . S
C332 H320 0.930 . S
C332 C333 1.399 . S
C332 C337 1.399 . S
C333 C332 1.399 . S
C333 C334 1.376 . S
C334 H321 0.930 . S
C334 C333 1.376 . S
C334 C335 1.388 . S
C335 H322 0.930 . S
C335 C334 1.388 . S
C335 C336 1.390 . S
C336 C335 1.390 . S
C336 C337 1.394 . S
C336 C342 1.465 . S
C337 C332 1.399 . S
C337 C336 1.394 . S
C337 C338 1.516 . S
C338 C337 1.516 . S
C338 C339 1.502 . S
C338 C340 1.561 . S
C338 C341 1.526 . S
C339 H323 0.959 . S
C339 H324 0.959 . S
C339 H325 0.961 . S
C339 C338 1.502 . S
C340 H326 0.960 . S
C340 H327 0.961 . S
C340 H328 0.959 . S
C340 C338 1.561 . S
C341 C338 1.526 . S
C341 C342 1.396 . S
C341 C346 1.390 . S
C342 C336 1.465 . S
C342 C341 1.396 . S
C342 C343 1.399 . S
C343 H329 0.929 1_565 S
C343 C342 1.399 . S
C343 C344 1.385 . S
C344 H330 0.931 1_565 S
C344 C343 1.385 . S
C344 C345 1.389 . S
C345 C344 1.389 . S
C345 C346 1.387 . S
C346 H331 0.930 . S
C346 C341 1.390 . S
C346 C345 1.387 . S
H347 C359 0.930 . S
H348 C361 0.930 . S
H349 C362 0.930 . S
H350 C366 0.959 . S
H351 C366 0.959 . S
H352 C366 0.961 . S
H353 C367 0.960 . S
H354 C367 0.961 . S
H355 C367 0.959 . S
H356 C370 0.929 . S
H357 C371 0.931 . S
H358 C373 0.930 . S
C359 H347 0.930 . S
C359 C360 1.399 . S
C359 C364 1.399 . S
C360 C359 1.399 . S
C360 C361 1.376 . S
C361 H348 0.930 . S
C361 C360 1.376 . S
C361 C362 1.388 . S
C362 H349 0.930 . S
C362 C361 1.388 . S
C362 C363 1.390 . S
C363 C362 1.390 . S
C363 C364 1.394 . S
C363 C369 1.465 . S
C364 C359 1.399 . S
C364 C363 1.394 . S
C364 C365 1.516 . S
C365 C364 1.516 . S
C365 C366 1.502 . S
C365 C367 1.561 . S
C365 C368 1.526 . S
C366 H350 0.959 . S
C366 H351 0.959 . S
C366 H352 0.961 . S
C366 C365 1.502 . S
C367 H353 0.960 . S
C367 H354 0.961 . S
C367 H355 0.959 . S
C367 C365 1.561 . S
C368 C365 1.526 . S
C368 C369 1.396 . S
C368 C373 1.390 . S
C369 C363 1.465 . S
C369 C368 1.396 . S
C369 C370 1.399 . S
C370 H356 0.929 . S
C370 C369 1.399 . S
C370 C371 1.385 . S
C371 H357 0.931 . S
C371 C370 1.385 . S
C371 C372 1.389 . S
C372 C371 1.389 . S
C372 C373 1.387 . S
C373 H358 0.930 . S
C373 C368 1.390 . S
C373 C372 1.387 . S
H374 C386 0.930 . S
H375 C388 0.930 . S
H376 C389 0.930 . S
H377 C393 0.959 . S
H378 C393 0.959 . S
H379 C393 0.961 . S
H380 C394 0.960 . S
H381 C394 0.961 . S
H382 C394 0.959 . S
H383 C397 0.921 1_565 S
H384 C398 0.931 1_565 S
H385 C400 0.930 . S
C386 H374 0.930 . S
C386 C387 1.399 . S
C386 C391 1.399 . S
C387 C386 1.399 . S
C387 C388 1.376 . S
C388 H375 0.930 . S
C388 C387 1.376 . S
C388 C389 1.388 . S
C389 H376 0.930 . S
C389 C388 1.388 . S
C389 C390 1.390 . S
C390 C389 1.390 . S
C390 C391 1.394 . S
C390 C396 1.465 . S
C391 C386 1.399 . S
C391 C390 1.394 . S
C391 C392 1.516 . S
C392 C391 1.516 . S
C392 C393 1.502 . S
C392 C394 1.561 . S
C392 C395 1.526 . S
C393 H377 0.959 . S
C393 H378 0.959 . S
C393 H379 0.961 . S
C393 C392 1.502 . S
C394 H380 0.960 . S
C394 H381 0.961 . S
C394 H382 0.959 . S
C394 C392 1.561 . S
C395 C392 1.526 . S
C395 C396 1.396 . S
C395 C400 1.390 . S
C396 C390 1.465 . S
C396 C395 1.396 . S
C396 C397 1.399 . S
C397 H383 0.921 1_545 S
C397 C396 1.399 . S
C397 C398 1.385 . S
C398 H384 0.931 1_545 S
C398 C397 1.385 . S
C398 C399 1.389 . S
C399 C398 1.389 . S
C399 C400 1.387 . S
C400 H385 0.930 . S
C400 C395 1.390 . S
C400 C399 1.387 . S
H401 C413 0.930 . S
H402 C415 0.930 . S
H403 C416 0.930 . S
H404 C420 0.959 . S
H405 C420 0.959 . S
H406 C420 0.961 . S
H407 C421 0.960 . S
H408 C421 0.961 . S
H409 C421 0.959 . S
H410 C424 0.929 . S
H411 C425 0.931 . S
H412 C427 0.930 . S
C413 H401 0.930 . S
C413 C414 1.399 . S
C413 C418 1.399 . S
C414 C413 1.399 . S
C414 C415 1.376 . S
C415 H402 0.930 . S
C415 C414 1.376 . S
C415 C416 1.388 . S
C416 H403 0.930 . S
C416 C415 1.388 . S
C416 C417 1.390 . S
C417 C416 1.390 . S
C417 C418 1.394 . S
C417 C423 1.465 . S
C418 C413 1.399 . S
C418 C417 1.394 . S
C418 C419 1.516 . S
C419 C418 1.516 . S
C419 C420 1.502 . S
C419 C421 1.561 . S
C419 C422 1.526 . S
C420 H404 0.959 . S
C420 H405 0.959 . S
C420 H406 0.961 . S
C420 C419 1.502 . S
C421 H407 0.960 . S
C421 H408 0.961 . S
C421 H409 0.959 . S
C421 C419 1.561 . S
C422 C419 1.526 . S
C422 C423 1.396 . S
C422 C427 1.390 . S
C423 C417 1.465 . S
C423 C422 1.396 . S
C423 C424 1.399 . S
C424 H410 0.929 . S
C424 C423 1.399 . S
C424 C425 1.385 . S
C425 H411 0.931 . S
C425 C424 1.385 . S
C425 C426 1.389 . S
C426 C425 1.389 . S
C426 C427 1.387 . S
C427 H412 0.930 . S
C427 C422 1.390 . S
C427 C426 1.387 . S
H428 C440 0.930 . S
H429 C442 0.930 . S
H430 C443 0.930 . S
H431 C447 0.959 . S
H432 C447 0.959 . S
H433 C447 0.961 . S
H434 C448 0.960 . S
H435 C448 0.961 . S
H436 C448 0.959 . S
H437 C451 0.929 . S
H438 C452 0.931 . S
H439 C454 0.930 . S
C440 H428 0.930 . S
C440 C441 1.399 . S
C440 C445 1.399 . S
C441 C440 1.399 . S
C441 C442 1.376 . S
C442 H429 0.930 . S
C442 C441 1.376 . S
C442 C443 1.388 . S
C443 H430 0.930 . S
C443 C442 1.388 . S
C443 C444 1.390 . S
C444 C443 1.390 . S
C444 C445 1.394 . S
C444 C450 1.465 . S
C445 C440 1.399 . S
C445 C444 1.394 . S
C445 C446 1.516 . S
C446 C445 1.516 . S
C446 C447 1.502 . S
C446 C448 1.561 . S
C446 C449 1.526 . S
C447 H431 0.959 . S
C447 H432 0.959 . S
C447 H433 0.961 . S
C447 C446 1.502 . S
C448 H434 0.960 . S
C448 H435 0.961 . S
C448 H436 0.959 . S
C448 C446 1.561 . S
C449 C446 1.526 . S
C449 C450 1.396 . S
C449 C454 1.390 . S
C450 C444 1.465 . S
C450 C449 1.396 . S
C450 C451 1.399 . S
C451 H437 0.929 . S
C451 C450 1.399 . S
C451 C452 1.385 . S
C452 H438 0.931 . S
C452 C451 1.385 . S
C452 C453 1.389 . S
C453 C452 1.389 . S
C453 C454 1.387 . S
C454 H439 0.930 . S
C454 C449 1.390 . S
C454 C453 1.387 . S
H455 C467 0.930 . S
H456 C469 0.914 1_554 S
H457 C470 0.930 . S
H458 C474 0.959 . S
H459 C474 0.959 . S
H460 C474 0.961 . S
H461 C475 0.960 . S
H462 C475 0.961 . S
H463 C475 0.959 . S
H464 C478 0.929 . S
H465 C479 0.931 . S
H466 C481 0.930 . S
C467 H455 0.930 . S
C467 C468 1.399 . S
C467 C472 1.399 . S
C468 C467 1.399 . S
C468 C469 1.380 . S
C469 H456 0.914 1_556 S
C469 C468 1.380 . S
C469 C470 1.402 . S
C470 H457 0.930 . S
C470 C469 1.402 . S
C470 C471 1.390 . S
C471 C470 1.390 . S
C471 C472 1.394 . S
C471 C477 1.465 . S
C472 C467 1.399 . S
C472 C471 1.394 . S
C472 C473 1.516 . S
C473 C472 1.516 . S
C473 C474 1.502 . S
C473 C475 1.561 . S
C473 C476 1.526 . S
C474 H458 0.959 . S
C474 H459 0.959 . S
C474 H460 0.961 . S
C474 C473 1.502 . S
C475 H461 0.960 . S
C475 H462 0.961 . S
C475 H463 0.959 . S
C475 C473 1.561 . S
C476 C473 1.526 . S
C476 C477 1.396 . S
C476 C481 1.390 . S
C477 C471 1.465 . S
C477 C476 1.396 . S
C477 C478 1.399 . S
C478 H464 0.929 . S
C478 C477 1.399 . S
C478 C479 1.385 . S
C479 H465 0.931 . S
C479 C478 1.385 . S
C479 C480 1.389 . S
C480 C479 1.389 . S
C480 C481 1.387 . S
C481 H466 0.930 . S
C481 C476 1.390 . S
C481 C480 1.387 . S
H482 C494 0.930 . S
H483 C496 0.930 . S
H484 C497 0.930 . S
H485 C501 0.959 . S
H486 C501 0.959 . S
H487 C501 0.961 . S
H488 C502 0.960 . S
H489 C502 0.961 . S
H490 C502 0.959 . S
H491 C505 0.929 . S
H492 C506 0.931 . S
H493 C508 0.930 . S
C494 H482 0.930 . S
C494 C495 1.399 . S
C494 C499 1.399 . S
C495 C494 1.399 . S
C495 C496 1.376 . S
C496 H483 0.930 . S
C496 C495 1.376 . S
C496 C497 1.388 . S
C497 H484 0.930 . S
C497 C496 1.388 . S
C497 C498 1.390 . S
C498 C497 1.390 . S
C498 C499 1.394 . S
C498 C504 1.465 . S
C499 C494 1.399 . S
C499 C498 1.394 . S
C499 C500 1.516 . S
C500 C499 1.516 . S
C500 C501 1.502 . S
C500 C502 1.561 . S
C500 C503 1.526 . S
C501 H485 0.959 . S
C501 H486 0.959 . S
C501 H487 0.961 . S
C501 C500 1.502 . S
C502 H488 0.960 . S
C502 H489 0.961 . S
C502 H490 0.959 . S
C502 C500 1.561 . S
C503 C500 1.526 . S
C503 C504 1.396 . S
C503 C508 1.390 . S
C504 C498 1.465 . S
C504 C503 1.396 . S
C504 C505 1.399 . S
C505 H491 0.929 . S
C505 C504 1.399 . S
C505 C506 1.385 . S
C506 H492 0.931 . S
C506 C505 1.385 . S
C506 C507 1.389 . S
C507 C506 1.389 . S
C507 C508 1.387 . S
C508 H493 0.930 . S
C508 C503 1.390 . S
C508 C507 1.387 . S
H509 C521 0.930 . S
H510 C523 0.930 . S
H511 C524 0.930 . S
H512 C528 0.959 . S
H513 C528 0.959 . S
H514 C528 0.961 . S
H515 C529 0.960 . S
H516 C529 0.961 . S
H517 C529 0.954 1_565 S
H518 C532 0.929 . S
H519 C533 0.931 . S
H520 C535 0.930 . S
C521 H509 0.930 . S
C521 C522 1.399 . S
C521 C526 1.399 . S
C522 C521 1.399 . S
C522 C523 1.376 . S
C523 H510 0.930 . S
C523 C522 1.376 . S
C523 C524 1.388 . S
C524 H511 0.930 . S
C524 C523 1.388 . S
C524 C525 1.390 . S
C525 C524 1.390 . S
C525 C526 1.394 . S
C525 C531 1.465 . S
C526 C521 1.399 . S
C526 C525 1.394 . S
C526 C527 1.516 . S
C527 C526 1.516 . S
C527 C528 1.502 . S
C527 C529 1.561 1_565 S
C527 C530 1.526 . S
C528 H512 0.959 . S
C528 H513 0.959 . S
C528 H514 0.961 . S
C528 C527 1.502 . S
C529 H515 0.960 . S
C529 H516 0.961 . S
C529 H517 0.954 1_545 S
C529 C527 1.561 1_545 S
C530 C527 1.526 . S
C530 C531 1.396 . S
C530 C535 1.390 . S
C531 C525 1.465 . S
C531 C530 1.396 . S
C531 C532 1.399 . S
C532 H518 0.929 . S
C532 C531 1.399 . S
C532 C533 1.385 . S
C533 H519 0.931 . S
C533 C532 1.385 . S
C533 C534 1.389 . S
C534 C533 1.389 . S
C534 C535 1.387 . S
C535 H520 0.930 . S
C535 C530 1.390 . S
C535 C534 1.387 . S
C237 C107 1.630 . S
C225 C41 1.597 . S
C252 C8 1.623 . S
C264 C202 1.613 . S
C279 C19 1.753 . S
C291 C118 1.763 . S
C306 C30 1.627 . S
C318 C191 1.614 . S
C345 C102 1.523 . S
C333 C5 1.416 . S
C372 C195 1.781 . S
C360 C18 1.710 . S
C387 C29 1.634 . S
C399 C111 1.704 . S
C414 C40 1.621 . S
C426 C186 1.563 . S
C453 C197 1.328 . S
C441 C16 1.237 . S
C480 C113 1.373 . S
C468 C27 1.253 1_556 S
C507 C184 1.530 . S
C495 C38 1.210 . S
C522 C7 1.439 . S
C534 C100 1.502 . S
