# Generated by pormake.
# Topology dag, (6,3)-cn, num edge types: 1
# Building blocks:
#     Node 0, Type 0, BuildingBlock: IZENUY_clean_sbu_0, # of connection points: 6
#     Node 1, Type 0, BuildingBlock: IZENUY_clean_sbu_0, # of connection points: 6
#     Node 2, Type 0, BuildingBlock: IZENUY_clean_sbu_0, # of connection points: 6
#     Node 3, Type 0, BuildingBlock: IZENUY_clean_sbu_0, # of connection points: 6
#     Node 4, Type 1, BuildingBlock: OLANEW_clean_sbu_2, # of connection points: 3
#     Node 5, Type 1, BuildingBlock: OLANEW_clean_sbu_2, # of connection points: 3
#     Node 6, Type 1, BuildingBlock: OLANEW_clean_sbu_2, # of connection points: 3
#     Node 7, Type 1, BuildingBlock: OLANEW_clean_sbu_2, # of connection points: 3
#     Node 8, Type 1, BuildingBlock: OLANEW_clean_sbu_2, # of connection points: 3
#     Node 9, Type 1, BuildingBlock: OLANEW_clean_sbu_2, # of connection points: 3
#     Node 10, Type 1, BuildingBlock: OLANEW_clean_sbu_2, # of connection points: 3
#     Node 11, Type 1, BuildingBlock: OLANEW_clean_sbu_2, # of connection points: 3
#     Edge 12, Type (0, 1), BuildingBlock: XUDNAN_clean_linker_2, # of connection points: 2
#     Edge 13, Type (0, 1), BuildingBlock: XUDNAN_clean_linker_2, # of connection points: 2
#     Edge 14, Type (0, 1), BuildingBlock: XUDNAN_clean_linker_2, # of connection points: 2
#     Edge 15, Type (0, 1), BuildingBlock: XUDNAN_clean_linker_2, # of connection points: 2
#     Edge 16, Type (0, 1), BuildingBlock: XUDNAN_clean_linker_2, # of connection points: 2
#     Edge 17, Type (0, 1), BuildingBlock: XUDNAN_clean_linker_2, # of connection points: 2
#     Edge 18, Type (0, 1), BuildingBlock: XUDNAN_clean_linker_2, # of connection points: 2
#     Edge 19, Type (0, 1), BuildingBlock: XUDNAN_clean_linker_2, # of connection points: 2
#     Edge 20, Type (0, 1), BuildingBlock: XUDNAN_clean_linker_2, # of connection points: 2
#     Edge 21, Type (0, 1), BuildingBlock: XUDNAN_clean_linker_2, # of connection points: 2
#     Edge 22, Type (0, 1), BuildingBlock: XUDNAN_clean_linker_2, # of connection points: 2
#     Edge 23, Type (0, 1), BuildingBlock: XUDNAN_clean_linker_2, # of connection points: 2
#     Edge 24, Type (0, 1), BuildingBlock: XUDNAN_clean_linker_2, # of connection points: 2
#     Edge 25, Type (0, 1), BuildingBlock: XUDNAN_clean_linker_2, # of connection points: 2
#     Edge 26, Type (0, 1), BuildingBlock: XUDNAN_clean_linker_2, # of connection points: 2
#     Edge 27, Type (0, 1), BuildingBlock: XUDNAN_clean_linker_2, # of connection points: 2
#     Edge 28, Type (0, 1), BuildingBlock: XUDNAN_clean_linker_2, # of connection points: 2
#     Edge 29, Type (0, 1), BuildingBlock: XUDNAN_clean_linker_2, # of connection points: 2
#     Edge 30, Type (0, 1), BuildingBlock: XUDNAN_clean_linker_2, # of connection points: 2
#     Edge 31, Type (0, 1), BuildingBlock: XUDNAN_clean_linker_2, # of connection points: 2
#     Edge 32, Type (0, 1), BuildingBlock: XUDNAN_clean_linker_2, # of connection points: 2
#     Edge 33, Type (0, 1), BuildingBlock: XUDNAN_clean_linker_2, # of connection points: 2
#     Edge 34, Type (0, 1), BuildingBlock: XUDNAN_clean_linker_2, # of connection points: 2
#     Edge 35, Type (0, 1), BuildingBlock: XUDNAN_clean_linker_2, # of connection points: 2
# Relax obj value: 0.127
# Max RMSD: 0.152
# Mean RMSD: 0.116
data_MOF--net-dag--node1-IZENUY_clean_sbu_0--node2-OLANEW_clean_sbu_2--edge1-XUDNAN_clean_linker_2
_symmetry_space_group_name_H-M    P1
_symmetry_Int_Tables_number       1
_symmetry_cell_setting            triclinic
loop_
_symmetry_equiv_pos_as_xyz
'x, y, z'
_cell_length_a     43.373175
_cell_length_b     40.56583
_cell_length_c     37.23782
_cell_angle_alpha  92.30889
_cell_angle_beta   94.149031
_cell_angle_gamma 91.306634
loop_
_atom_site_label
_atom_site_type_symbol
_atom_site_fract_x
_atom_site_fract_y
_atom_site_fract_z
_atom_type_partial_charge
Fe0 Fe 0.16353 0.90033 0.02741 0.0
Fe1 Fe 0.09511 0.91782 0.02901 0.0
O2 O 0.12376 0.8886 0.02077 0.0
Fe3 Fe 0.11256 0.84785 0.00582 0.0
O4 O 0.14589 0.8287 0.02931 0.0
O5 O 0.17064 0.8694 0.06095 0.0
O6 O 0.15811 0.9304 0.06474 0.0
C7 C 0.13664 0.93296 0.086 0.0
C8 C 0.16119 0.85761 0.96454 0.0
O9 O 0.10935 0.92338 0.07608 0.0
C10 C 0.06973 0.88731 0.96672 0.0
O11 O 0.15921 0.93211 0.99425 0.0
O12 O 0.11794 0.95338 0.01603 0.0
O13 O 0.13264 0.85137 0.96503 0.0
O14 O 0.17615 0.87224 0.99131 0.0
C15 C 0.0692 0.85881 0.05404 0.0
O16 O 0.07919 0.91412 0.98258 0.0
O17 O 0.07746 0.85985 0.97929 0.0
C18 C 0.1401 0.95511 0.99581 0.0
O19 O 0.06666 0.88775 0.04297 0.0
O20 O 0.0914 0.84125 0.04554 0.0
C21 C 0.16518 0.83889 0.05478 0.0
Fe22 Fe 0.68798 0.61988 0.49018 0.0
Fe23 Fe 0.6412 0.67554 0.48304 0.0
O24 O 0.64917 0.63306 0.48777 0.0
Fe25 Fe 0.6186 0.60357 0.48982 0.0
O26 O 0.63366 0.59114 0.53411 0.0
O27 O 0.68148 0.58588 0.51972 0.0
O28 O 0.69784 0.64576 0.53033 0.0
C29 C 0.69479 0.67663 0.53215 0.0
C30 C 0.66042 0.57051 0.44639 0.0
O31 O 0.67639 0.69058 0.50984 0.0
C32 C 0.59392 0.64297 0.43719 0.0
O33 O 0.70188 0.6512 0.46109 0.0
O34 O 0.66025 0.67635 0.44098 0.0
O35 O 0.63817 0.5701 0.46663 0.0
O36 O 0.68086 0.59321 0.45007 0.0
C37 C 0.59885 0.65858 0.53087 0.0
O38 O 0.60488 0.66805 0.45552 0.0
O39 O 0.60112 0.61416 0.44586 0.0
C40 C 0.68732 0.66685 0.43697 0.0
O41 O 0.62092 0.67782 0.5243 0.0
O42 O 0.59366 0.63153 0.51321 0.0
C43 C 0.66068 0.58109 0.54111 0.0
Fe44 Fe 0.88404 0.17657 0.01848 0.0
Fe45 Fe 0.90394 0.10489 0.01136 0.0
O46 O 0.87513 0.13471 0.00519 0.0
Fe47 Fe 0.83779 0.12288 0.98578 0.0
O48 O 0.84079 0.15121 0.94972 0.0
O49 O 0.85761 0.1941 0.98381 0.0
O50 O 0.91439 0.17878 0.98706 0.0
C51 C 0.93697 0.15958 0.98757 0.0
C52 C 0.82624 0.16903 0.04259 0.0
O53 O 0.93615 0.13319 0.00447 0.0
C54 C 0.84964 0.07021 0.02765 0.0
O55 O 0.91196 0.16708 0.05604 0.0
O56 O 0.90728 0.11341 0.05953 0.0
O57 O 0.81767 0.15301 0.01343 0.0
O58 O 0.8544 0.17666 0.05047 0.0
C59 C 0.87822 0.08482 0.94467 0.0
O60 O 0.87724 0.07111 0.01911 0.0
O61 O 0.83152 0.09313 0.0199 0.0
C62 C 0.91529 0.14125 0.07383 0.0
O63 O 0.90239 0.09421 0.96355 0.0
O64 O 0.85162 0.09081 0.95503 0.0
C65 C 0.84514 0.18193 0.95431 0.0
Fe66 Fe 0.37175 0.38967 0.56367 0.0
Fe67 Fe 0.30473 0.36346 0.56316 0.0
O68 O 0.34506 0.35745 0.57053 0.0
Fe69 Fe 0.35886 0.31908 0.58481 0.0
O70 O 0.37741 0.33782 0.62604 0.0
O71 O 0.40038 0.37779 0.59922 0.0
O72 O 0.35572 0.41604 0.59753 0.0
C73 C 0.32797 0.42466 0.59624 0.0
C74 C 0.40091 0.3373 0.53427 0.0
O75 O 0.30708 0.4079 0.57737 0.0
C76 C 0.31301 0.29865 0.5343 0.0
O77 O 0.3478 0.40748 0.52706 0.0
O78 O 0.30827 0.37273 0.51634 0.0
O79 O 0.39469 0.32128 0.56143 0.0
O80 O 0.38949 0.3652 0.52929 0.0
C81 C 0.30685 0.32885 0.62481 0.0
O82 O 0.29546 0.32011 0.54723 0.0
O83 O 0.34131 0.29839 0.54454 0.0
C84 C 0.32562 0.39541 0.50624 0.0
O85 O 0.29859 0.35479 0.60962 0.0
O86 O 0.32557 0.30967 0.61062 0.0
C87 C 0.39705 0.36125 0.6269 0.0
O88 O 0.1768 0.01577 0.35145 0.0
Cd89 Cd 0.18555 0.03282 0.41546 0.0
O90 O 0.15952 0.06509 0.34161 0.0
Cd91 Cd 0.13606 0.10042 0.30747 0.0
O92 O 0.09944 0.123 0.27477 0.0
C93 C 0.07865 0.10345 0.25976 0.0
O94 O 0.08095 0.07161 0.26431 0.0
C95 C 0.16589 0.03647 0.32958 0.0
C96 C 0.21626 0.09414 0.4278 0.0
O97 O 0.23094 0.06775 0.42134 0.0
O98 O 0.18676 0.09184 0.42816 0.0
O99 O 0.33519 0.64852 0.7444 0.0
Cd100 Cd 0.34511 0.70257 0.77688 0.0
O101 O 0.35464 0.6718 0.69872 0.0
Cd102 Cd 0.36903 0.67658 0.64378 0.0
O103 O 0.36919 0.70007 0.59168 0.0
C104 C 0.39041 0.70942 0.57212 0.0
O105 O 0.38216 0.72482 0.54269 0.0
C106 C 0.34249 0.64656 0.71189 0.0
C107 C 0.29619 0.7338 0.80916 0.0
O108 O 0.29902 0.73485 0.77519 0.0
O109 O 0.31578 0.71709 0.82782 0.0
O110 O 0.85881 0.78166 0.16195 0.0
Cd111 Cd 0.80253 0.77487 0.16307 0.0
O112 O 0.84528 0.79503 0.10698 0.0
Cd113 Cd 0.85027 0.80713 0.05094 0.0
O114 O 0.84589 0.81429 0.99272 0.0
C115 C 0.83934 0.84053 0.97641 0.0
O116 O 0.83591 0.83896 0.94103 0.0
C117 C 0.86659 0.79068 0.13154 0.0
C118 C 0.78201 0.74394 0.22267 0.0
O119 O 0.79174 0.72724 0.196 0.0
O120 O 0.78241 0.77549 0.22153 0.0
O121 O 0.69048 0.43564 0.77288 0.0
Cd122 Cd 0.68031 0.40137 0.82372 0.0
O123 O 0.65254 0.46874 0.78425 0.0
Cd124 Cd 0.6335 0.43875 0.825 0.0
O125 O 0.58751 0.41583 0.81665 0.0
C126 C 0.57015 0.43232 0.79548 0.0
O127 O 0.58096 0.46045 0.78456 0.0
C128 C 0.67483 0.46098 0.76549 0.0
C129 C 0.72186 0.35065 0.8364 0.0
O130 O 0.69858 0.34666 0.81327 0.0
O131 O 0.72592 0.37888 0.85303 0.0
O132 O 0.67951 0.33568 0.30963 0.0
Cd133 Cd 0.67366 0.27616 0.29607 0.0
O134 O 0.63533 0.33669 0.33535 0.0
Cd135 Cd 0.61802 0.28581 0.33045 0.0
O136 O 0.57796 0.27262 0.35984 0.0
C137 C 0.56023 0.2967 0.36479 0.0
O138 O 0.56657 0.32487 0.35034 0.0
C139 C 0.65941 0.35154 0.32601 0.0
C140 C 0.7002 0.25485 0.2332 0.0
O141 O 0.67171 0.26268 0.23261 0.0
O142 O 0.71632 0.25748 0.26347 0.0
O143 O 0.24383 0.17053 0.93456 0.0
Cd144 Cd 0.27378 0.22201 0.93149 0.0
O145 O 0.20485 0.19331 0.90559 0.0
Cd146 Cd 0.16018 0.20178 0.87629 0.0
O147 O 0.12938 0.22765 0.83785 0.0
C148 C 0.10052 0.23276 0.83807 0.0
O149 O 0.08751 0.25103 0.81317 0.0
C150 C 0.21609 0.16833 0.92099 0.0
C151 C 0.26968 0.24839 0.86326 0.0
O152 O 0.29025 0.22737 0.872 0.0
O153 O 0.25075 0.25671 0.88671 0.0
O154 O 0.38423 0.67288 0.27956 0.0
Cd155 Cd 0.32781 0.66716 0.26628 0.0
O156 O 0.38873 0.61924 0.28459 0.0
Cd157 Cd 0.34028 0.60353 0.27594 0.0
O158 O 0.32462 0.56499 0.31001 0.0
C159 C 0.30507 0.54143 0.30274 0.0
O160 O 0.28951 0.53919 0.2711 0.0
C161 C 0.40097 0.64807 0.28599 0.0
C162 C 0.29944 0.70247 0.21018 0.0
O163 O 0.30384 0.71562 0.24208 0.0
O164 O 0.30952 0.67336 0.20462 0.0
O165 O 0.961 0.81483 0.72504 0.0
Cd166 Cd 0.94623 0.79401 0.66354 0.0
O167 O 0.93045 0.85619 0.71623 0.0
Cd168 Cd 0.90375 0.90063 0.72421 0.0
O169 O 0.86357 0.93107 0.7018 0.0
C170 C 0.84924 0.95408 0.71767 0.0
O171 O 0.86319 0.93081 0.70056 0.0
C172 C 0.95005 0.84166 0.73674 0.0
C173 C 0.88351 0.77812 0.64885 0.0
O174 O 0.90265 0.75619 0.65918 0.0
O175 O 0.89392 0.8077 0.64631 0.0
H176 H 0.123 0.91821 0.15454 0.0
H177 H 0.16316 0.99413 0.0924 0.0
H178 H 0.17216 0.03012 0.14757 0.0
H179 H 0.08628 0.97183 0.21838 0.0
H180 H 0.09597 0.94688 0.25634 0.0
H181 H 0.09055 0.92795 0.21165 0.0
H182 H 0.14513 0.9033 0.21911 0.0
H183 H 0.15066 0.92205 0.26385 0.0
H184 H 0.17816 0.93034 0.23109 0.0
H185 H 0.17565 0.05828 0.20895 0.0
H186 H 0.17983 0.07418 0.27396 0.0
H187 H 0.14213 0.97824 0.29771 0.0
C188 C 0.13349 0.94251 0.15271 0.0
C189 C 0.14221 0.95367 0.11938 0.0
C190 C 0.15639 0.98528 0.11783 0.0
C191 C 0.16141 0.00591 0.14892 0.0
C192 C 0.15263 0.99427 0.18147 0.0
C193 C 0.13948 0.96311 0.18376 0.0
C194 C 0.13432 0.95581 0.22255 0.0
C195 C 0.09972 0.9503 0.22751 0.0
C196 C 0.1532 0.92612 0.23487 0.0
C197 C 0.14664 0.98769 0.24164 0.0
C198 C 0.15648 0.00978 0.2173 0.0
C199 C 0.16814 0.04116 0.22829 0.0
C200 C 0.17024 0.05006 0.26519 0.0
C201 C 0.16122 0.02748 0.29069 0.0
C202 C 0.14926 0.99591 0.2787 0.0
H203 H 0.56459 0.71351 0.52429 0.0
H204 H 0.57643 0.62587 0.58574 0.0
H205 H 0.52656 0.6353 0.61224 0.0
H206 H 0.51821 0.76269 0.5909 0.0
H207 H 0.49391 0.77814 0.55433 0.0
H208 H 0.53392 0.76983 0.54829 0.0
H209 H 0.517 0.73156 0.49266 0.0
H210 H 0.47708 0.73923 0.49877 0.0
H211 H 0.49043 0.69747 0.49751 0.0
H212 H 0.47146 0.64789 0.62263 0.0
H213 H 0.4164 0.66245 0.61581 0.0
H214 H 0.43957 0.74092 0.54597 0.0
C215 C 0.55743 0.69754 0.54495 0.0
C216 C 0.57467 0.66965 0.55404 0.0
C217 C 0.56383 0.64791 0.57937 0.0
C218 C 0.53551 0.65305 0.59444 0.0
C219 C 0.51818 0.67993 0.58365 0.0
C220 C 0.52888 0.70203 0.55968 0.0
C221 C 0.50391 0.72569 0.54799 0.0
C222 C 0.51304 0.7612 0.56118 0.0
C223 C 0.49669 0.72331 0.50682 0.0
C224 C 0.47717 0.71247 0.56767 0.0
C225 C 0.48597 0.68659 0.58877 0.0
C226 C 0.46449 0.6687 0.60693 0.0
C227 C 0.43319 0.6772 0.60302 0.0
C228 C 0.42364 0.7031 0.58076 0.0
C229 C 0.44615 0.72121 0.56352 0.0
H230 H 0.80947 0.03131 0.98595 0.0
H231 H 0.86666 0.03558 0.08614 0.0
H232 H 0.86163 0.97502 0.08935 0.0
H233 H 0.76033 0.95362 0.00297 0.0
H234 H 0.76196 0.93968 0.95658 0.0
H235 H 0.76134 0.98323 0.96822 0.0
H236 H 0.8115 0.99198 0.93574 0.0
H237 H 0.81282 0.94857 0.92475 0.0
H238 H 0.84539 0.96942 0.94941 0.0
H239 H 0.8621 0.91531 0.07396 0.0
H240 H 0.86502 0.8609 0.04335 0.0
H241 H 0.80795 0.89389 0.95225 0.0
C242 C 0.819 0.01955 0.00975 0.0
C243 C 0.83736 0.0379 0.0366 0.0
C244 C 0.85156 0.02182 0.06614 0.0
C245 C 0.84896 0.98745 0.06799 0.0
C246 C 0.83231 0.96964 0.03987 0.0
C247 C 0.81716 0.98516 0.01147 0.0
C248 C 0.80573 0.96045 0.98156 0.0
C249 C 0.77023 0.95917 0.97709 0.0
C250 C 0.81971 0.96806 0.9458 0.0
C251 C 0.81818 0.92891 0.99673 0.0
C252 C 0.83291 0.93465 0.03064 0.0
C253 C 0.84942 0.91018 0.04816 0.0
C254 C 0.85076 0.87907 0.03069 0.0
C255 C 0.83568 0.8725 0.99612 0.0
C256 C 0.81906 0.89784 0.97912 0.0
H257 H 0.43406 0.4158 0.64246 0.0
H258 H 0.40849 0.32145 0.68426 0.0
H259 H 0.44708 0.33157 0.73605 0.0
H260 H 0.5133 0.41192 0.66284 0.0
H261 H 0.51889 0.4552 0.67505 0.0
H262 H 0.48738 0.44164 0.64351 0.0
H263 H 0.44867 0.47039 0.68354 0.0
H264 H 0.48005 0.48399 0.71545 0.0
H265 H 0.44797 0.46034 0.73019 0.0
H266 H 0.49259 0.34978 0.77968 0.0
H267 H 0.53981 0.37507 0.81187 0.0
H268 H 0.53335 0.45799 0.74182 0.0
C269 C 0.43633 0.39735 0.66265 0.0
C270 C 0.41848 0.36773 0.65921 0.0
C271 C 0.42199 0.34433 0.68636 0.0
C272 C 0.44379 0.34989 0.71588 0.0
C273 C 0.46144 0.37917 0.71807 0.0
C274 C 0.45765 0.40263 0.6923 0.0
C275 C 0.48025 0.43139 0.69978 0.0
C276 C 0.50119 0.43523 0.66845 0.0
C277 C 0.46321 0.46341 0.70773 0.0
C278 C 0.49814 0.41998 0.73314 0.0
C279 C 0.4869 0.38995 0.74353 0.0
C280 C 0.50127 0.37356 0.77215 0.0
C281 C 0.52808 0.38807 0.79023 0.0
C282 C 0.54015 0.41859 0.77952 0.0
C283 C 0.52452 0.43487 0.75105 0.0
H284 H 0.62203 0.51631 0.43404 0.0
H285 H 0.70814 0.55934 0.40274 0.0
H286 H 0.71616 0.50917 0.36487 0.0
H287 H 0.64824 0.43584 0.44276 0.0
H288 H 0.6122 0.41614 0.42557 0.0
H289 H 0.61228 0.45643 0.44759 0.0
H290 H 0.58275 0.47922 0.39119 0.0
H291 H 0.58252 0.4389 0.36903 0.0
H292 H 0.59839 0.474 0.34782 0.0
H293 H 0.71631 0.45176 0.33384 0.0
H294 H 0.70798 0.39339 0.31221 0.0
H295 H 0.62159 0.38996 0.3642 0.0
C296 C 0.64243 0.51549 0.41892 0.0
C297 C 0.66447 0.54179 0.42145 0.0
C298 C 0.69089 0.53951 0.40125 0.0
C299 C 0.69564 0.51112 0.37964 0.0
C300 C 0.67366 0.48539 0.37833 0.0
C301 C 0.64749 0.48751 0.39732 0.0
C302 C 0.62797 0.45611 0.39286 0.0
C303 C 0.62502 0.4402 0.42936 0.0
C304 C 0.59602 0.46245 0.3741 0.0
C305 C 0.64742 0.4357 0.3688 0.0
C306 C 0.67364 0.45289 0.36049 0.0
C307 C 0.69566 0.43822 0.33987 0.0
C308 C 0.69076 0.40507 0.32773 0.0
C309 C 0.66409 0.38707 0.33633 0.0
C310 C 0.64213 0.40295 0.35681 0.0
H311 H 0.94946 0.21335 0.94681 0.0
H312 H 0.98974 0.1244 0.98908 0.0
H313 H 0.03686 0.13543 0.95852 0.0
H314 H 0.97834 0.20538 0.86079 0.0
H315 H 0.98637 0.2488 0.85663 0.0
H316 H 0.95627 0.23555 0.88404 0.0
H317 H 0.98236 0.26956 0.93881 0.0
H318 H 0.01256 0.28298 0.91153 0.0
H319 H 0.02227 0.26279 0.95293 0.0
H320 H 0.07786 0.15285 0.91978 0.0
H321 H 0.11069 0.17689 0.87581 0.0
H322 H 0.04594 0.25587 0.8601 0.0
C323 C 0.96835 0.19646 0.95 0.0
C324 C 0.96576 0.16806 0.97047 0.0
C325 C 0.99099 0.14639 0.97366 0.0
C326 C 0.018 0.15242 0.95643 0.0
C327 C 0.01969 0.18034 0.9362 0.0
C328 C 0.9957 0.20216 0.93299 0.0
C329 C 0.00327 0.22963 0.90839 0.0
C330 C 0.97966 0.22983 0.87551 0.0
C331 C 0.00524 0.26323 0.92916 0.0
C332 C 0.03483 0.21925 0.89768 0.0
C333 C 0.04393 0.19089 0.91428 0.0
C334 C 0.07141 0.17555 0.90727 0.0
C335 C 0.09019 0.18964 0.8826 0.0
C336 C 0.08154 0.21888 0.8655 0.0
C337 C 0.05343 0.23377 0.87319 0.0
H338 H 0.35626 0.44707 0.47885 0.0
H339 H 0.27727 0.37997 0.45558 0.0
H340 H 0.26334 0.40923 0.39982 0.0
H341 H 0.31961 0.51918 0.4509 0.0
H342 H 0.35328 0.53633 0.43206 0.0
H343 H 0.35778 0.50881 0.46868 0.0
H344 H 0.39108 0.47053 0.43061 0.0
H345 H 0.38688 0.49808 0.39394 0.0
H346 H 0.37584 0.45509 0.38667 0.0
H347 H 0.25765 0.44768 0.34685 0.0
H348 H 0.26098 0.49124 0.30229 0.0
H349 H 0.34304 0.53265 0.36289 0.0
C350 C 0.33613 0.43823 0.462 0.0
C351 C 0.31786 0.4112 0.47166 0.0
C352 C 0.29167 0.40061 0.44873 0.0
C353 C 0.28357 0.41708 0.41702 0.0
C354 C 0.30192 0.444 0.40867 0.0
C355 C 0.32772 0.45434 0.43054 0.0
C356 C 0.34331 0.48432 0.41639 0.0
C357 C 0.34348 0.5139 0.44363 0.0
C358 C 0.37622 0.47653 0.4063 0.0
C359 C 0.32203 0.48966 0.38335 0.0
C360 C 0.29841 0.4661 0.37899 0.0
C361 C 0.27609 0.46623 0.35004 0.0
C362 C 0.27813 0.49105 0.32491 0.0
C363 C 0.30213 0.51548 0.3292 0.0
C364 C 0.32422 0.51458 0.3589 0.0
H365 H 0.04698 0.83429 0.92457 0.0
H366 H 0.04316 0.94107 0.93506 0.0
H367 H 0.0078 0.94099 0.87984 0.0
H368 H 0.04989 0.82916 0.83081 0.0
H369 H 0.02663 0.7917 0.82447 0.0
H370 H 0.04923 0.8003 0.86635 0.0
H371 H 0.99989 0.79419 0.90116 0.0
H372 H 0.97706 0.78567 0.8593 0.0
H373 H 0.96689 0.81887 0.88949 0.0
H374 H 0.9751 0.92899 0.82081 0.0
H375 H 0.95066 0.90648 0.76266 0.0
H376 H 0.97621 0.80786 0.79211 0.0
C377 C 0.03845 0.8577 0.91562 0.0
C378 C 0.04775 0.88767 0.93433 0.0
C379 C 0.0363 0.91775 0.92129 0.0
C380 C 0.01611 0.91795 0.89 0.0
C381 C 0.00756 0.88788 0.87214 0.0
C382 C 0.01846 0.85835 0.88455 0.0
C383 C 0.00743 0.82955 0.85952 0.0
C384 C 0.03493 0.81165 0.84439 0.0
C385 C 0.98658 0.80567 0.87851 0.0
C386 C 0.98914 0.84748 0.83059 0.0
C387 C 0.98907 0.88106 0.83844 0.0
C388 C 0.97468 0.90266 0.81467 0.0
C389 C 0.96056 0.88962 0.78178 0.0
C390 C 0.96107 0.85533 0.773 0.0
C391 C 0.9752 0.83415 0.79811 0.0
H392 H 0.83146 0.06309 0.89557 0.0
H393 H 0.93071 0.05818 0.91948 0.0
H394 H 0.93425 0.02125 0.86557 0.0
H395 H 0.81871 0.97855 0.862 0.0
H396 H 0.78977 0.98935 0.82759 0.0
H397 H 0.79524 0.01404 0.86896 0.0
H398 H 0.80394 0.06618 0.83234 0.0
H399 H 0.79857 0.04153 0.791 0.0
H400 H 0.83347 0.06624 0.80065 0.0
H401 H 0.92674 0.98515 0.80809 0.0
H402 H 0.90921 0.95634 0.75015 0.0
H403 H 0.8153 0.98602 0.76414 0.0
C404 C 0.85398 0.05424 0.88961 0.0
C405 C 0.88079 0.06352 0.91184 0.0
C406 C 0.90981 0.05147 0.90285 0.0
C407 C 0.91205 0.03035 0.87237 0.0
C408 C 0.88509 0.0216 0.85116 0.0
C409 C 0.85665 0.03337 0.85931 0.0
C410 C 0.8313 0.0214 0.83154 0.0
C411 C 0.80735 0.99954 0.84855 0.0
C412 C 0.81593 0.05057 0.81277 0.0
C413 C 0.84994 1.0014 0.80615 0.0
C414 C 0.88086 1.00137 0.81809 0.0
C415 C 0.90254 0.98478 0.79866 0.0
C416 C 0.89233 0.96817 0.76597 0.0
C417 C 0.86074 0.96841 0.75321 0.0
C418 C 0.83948 0.9852 0.77361 0.0
H419 H 0.42801 0.36923 0.4804 0.0
H420 H 0.42503 0.27552 0.53264 0.0
H421 H 0.46323 0.25361 0.49247 0.0
H422 H 0.43661 0.33572 0.38976 0.0
H423 H 0.46279 0.36849 0.37919 0.0
H424 H 0.43403 0.37626 0.41086 0.0
H425 H 0.47688 0.39732 0.45897 0.0
H426 H 0.50574 0.38972 0.42748 0.0
H427 H 0.50881 0.37118 0.47073 0.0
H428 H 0.5033 0.2425 0.4479 0.0
H429 H 0.54323 0.24391 0.40375 0.0
H430 H 0.5199 0.34491 0.38123 0.0
C431 C 0.4352 0.34402 0.48327 0.0
C432 C 0.42352 0.32413 0.50974 0.0
C433 C 0.43373 0.29132 0.51268 0.0
C434 C 0.45533 0.27857 0.48988 0.0
C435 C 0.46651 0.29891 0.46424 0.0
C436 C 0.45684 0.33095 0.46087 0.0
C437 C 0.47332 0.34812 0.43212 0.0
C438 C 0.45031 0.3577 0.40115 0.0
C439 C 0.49232 0.37836 0.4483 0.0
C440 C 0.49404 0.32087 0.42016 0.0
C441 C 0.48964 0.29258 0.43878 0.0
C442 C 0.50684 0.26447 0.433 0.0
C443 C 0.52944 0.26548 0.40785 0.0
C444 C 0.53469 0.29447 0.38897 0.0
C445 C 0.5164 0.32228 0.39504 0.0
H446 H 0.19478 0.98179 0.97506 0.0
H447 H 0.09654 0.99938 0.97608 0.0
H448 H 0.10449 0.05401 0.95098 0.0
H449 H 0.21918 0.06135 0.00486 0.0
H450 H 0.25178 0.0637 0.97759 0.0
H451 H 0.23795 0.02424 0.99097 0.0
H452 H 0.23119 0.00348 0.92406 0.0
H453 H 0.24512 0.04294 0.91045 0.0
H454 H 0.20805 0.0265 0.89217 0.0
H455 H 0.12361 0.10885 0.93124 0.0
H456 H 0.15289 0.15986 0.91985 0.0
H457 H 0.23856 0.10698 0.93177 0.0
C458 C 0.17487 0.99682 0.96915 0.0
C459 C 0.14503 0.98625 0.97734 0.0
C460 C 0.11964 0.00699 0.97003 0.0
C461 C 0.12388 0.03802 0.95562 0.0
C462 C 0.15367 0.04808 0.94861 0.0
C463 C 0.17875 0.0281 0.95507 0.0
C464 C 0.20866 0.04592 0.94805 0.0
C465 C 0.23067 0.04898 0.98241 0.0
C466 C 0.22416 0.02868 0.91682 0.0
C467 C 0.19654 0.07921 0.93754 0.0
C468 C 0.16472 0.07983 0.9375 0.0
C469 C 0.14849 0.10847 0.93048 0.0
C470 C 0.16528 0.13732 0.92369 0.0
C471 C 0.19793 0.13732 0.92413 0.0
C472 C 0.21357 0.10771 0.93083 0.0
H473 H 0.55115 0.59779 0.40422 0.0
H474 H 0.58178 0.70042 0.404 0.0
H475 H 0.53888 0.71155 0.35955 0.0
H476 H 0.52309 0.58968 0.30724 0.0
H477 H 0.49039 0.56394 0.31641 0.0
H478 H 0.5258 0.56295 0.3448 0.0
H479 H 0.49567 0.57669 0.40088 0.0
H480 H 0.46026 0.57775 0.37273 0.0
H481 H 0.47247 0.61299 0.40174 0.0
H482 H 0.48941 0.71329 0.3205 0.0
H483 H 0.43709 0.70502 0.28994 0.0
H484 H 0.43898 0.60133 0.31456 0.0
C485 C 0.54926 0.6224 0.39416 0.0
C486 C 0.56992 0.64818 0.40761 0.0
C487 C 0.56625 0.68022 0.39421 0.0
C488 C 0.542 0.68681 0.36879 0.0
C489 C 0.52159 0.6611 0.35672 0.0
C490 C 0.52504 0.62947 0.36877 0.0
C491 C 0.49852 0.60692 0.35362 0.0
C492 C 0.51015 0.57924 0.32905 0.0
C493 C 0.48068 0.59278 0.38406 0.0
C494 C 0.47925 0.63103 0.3321 0.0
C495 C 0.4931 0.66208 0.3339 0.0
C496 C 0.47855 0.68893 0.31835 0.0
C497 C 0.44882 0.68403 0.30105 0.0
C498 C 0.43394 0.65252 0.29949 0.0
C499 C 0.44982 0.62565 0.31464 0.0
H500 H 0.35083 0.45395 0.66033 0.0
H501 H 0.29252 0.47122 0.56376 0.0
H502 H 0.28948 0.53016 0.58302 0.0
H503 H 0.30978 0.51053 0.72008 0.0
H504 H 0.34492 0.52323 0.7463 0.0
H505 H 0.34119 0.48237 0.72538 0.0
H506 H 0.39126 0.49305 0.6934 0.0
H507 H 0.39496 0.53412 0.71366 0.0
H508 H 0.39389 0.52807 0.66536 0.0
H509 H 0.29878 0.58853 0.6092 0.0
H510 H 0.31179 0.64022 0.64551 0.0
H511 H 0.35912 0.58395 0.72819 0.0
C512 C 0.33687 0.47006 0.6437 0.0
C513 C 0.32173 0.45813 0.61068 0.0
C514 C 0.30386 0.47984 0.58941 0.0
C515 C 0.30226 0.51337 0.59999 0.0
C516 C 0.31806 0.52457 0.63232 0.0
C517 C 0.33431 0.50336 0.65436 0.0
C518 C 0.34892 0.52153 0.68798 0.0
C519 C 0.33538 0.50865 0.72194 0.0
C520 C 0.38436 0.51904 0.6902 0.0
C521 C 0.33898 0.55643 0.68104 0.0
C522 C 0.3216 0.55776 0.64851 0.0
C523 C 0.31177 0.58768 0.63506 0.0
C524 C 0.31939 0.61688 0.65569 0.0
C525 C 0.33604 0.61585 0.6897 0.0
C526 C 0.34589 0.58524 0.7025 0.0
H527 H 0.00919 0.87688 0.04662 0.0
H528 H 0.06929 0.8065 0.0991 0.0
H529 H 0.02397 0.78145 0.12594 0.0
H530 H 0.9568 0.88906 0.11596 0.0
H531 H 0.92337 0.89079 0.08442 0.0
H532 H 0.96081 0.90368 0.0714 0.0
H533 H 0.95469 0.86224 0.01638 0.0
H534 H 0.91741 0.84891 0.02938 0.0
H535 H 0.947 0.81919 0.02335 0.0
H536 H 0.97126 0.7652 0.1479 0.0
H537 H 0.91608 0.75681 0.15949 0.0
H538 H 0.89159 0.83665 0.09011 0.0
C539 C 0.01299 0.85647 0.06416 0.0
C540 C 0.04283 0.84389 0.07125 0.0
C541 C 0.04662 0.81659 0.09353 0.0
C542 C 0.02105 0.80229 0.10888 0.0
C543 C 0.99188 0.81531 0.10116 0.0
C544 C 0.98779 0.84163 0.07903 0.0
C545 C 0.95406 0.85007 0.07318 0.0
C546 C 0.94845 0.8855 0.08709 0.0
C547 C 0.94262 0.84478 0.03322 0.0
C548 C 0.93968 0.82483 0.0961 0.0
C549 C 0.96178 0.80502 0.11216 0.0
C550 C 0.95381 0.78042 0.1352 0.0
C551 C 0.92248 0.7759 0.14171 0.0
C552 C 0.89955 0.7956 0.1249 0.0
C553 C 0.90845 0.82047 0.10212 0.0
H554 H 0.62576 0.57168 0.59926 0.0
H555 H 0.71319 0.54693 0.55623 0.0
H556 H 0.72729 0.5158 0.61005 0.0
H557 H 0.65578 0.5825 0.69231 0.0
H558 H 0.62197 0.56452 0.71006 0.0
H559 H 0.61846 0.58515 0.66806 0.0
H560 H 0.59259 0.53255 0.63618 0.0
H561 H 0.59582 0.51185 0.67811 0.0
H562 H 0.6121 0.49386 0.63892 0.0
H563 H 0.73155 0.48578 0.66751 0.0
H564 H 0.72516 0.45873 0.72492 0.0
H565 H 0.63601 0.50425 0.73175 0.0
C566 C 0.64781 0.55962 0.60111 0.0
C567 C 0.66828 0.56173 0.57338 0.0
C568 C 0.69705 0.54575 0.57704 0.0
C569 C 0.70535 0.52799 0.60757 0.0
C570 C 0.68478 0.52654 0.63445 0.0
C571 C 0.65662 0.5419 0.63161 0.0
C572 C 0.63875 0.53626 0.66441 0.0
C573 C 0.63344 0.56906 0.68492 0.0
C574 C 0.608 0.51751 0.65376 0.0
C575 C 0.66117 0.51509 0.68584 0.0
C576 C 0.68758 0.50979 0.66808 0.0
C577 C 0.71108 0.48995 0.68187 0.0
C578 C 0.70728 0.47471 0.71449 0.0
C579 C 0.68027 0.47958 0.73303 0.0
C580 C 0.65718 0.50043 0.71859 0.0
H581 H 0.93676 0.08947 0.11264 0.0
H582 H 0.93886 0.19653 0.112 0.0
H583 H 0.97796 0.19867 0.16365 0.0
H584 H 0.95017 0.08264 0.21199 0.0
H585 H 0.97413 0.0473 0.20668 0.0
H586 H 0.943 0.05451 0.17341 0.0
H587 H 0.98174 0.05288 0.12361 0.0
H588 H 0.01302 0.04614 0.15666 0.0
H589 H 0.01506 0.08055 0.12769 0.0
H590 H 0.02153 0.18894 0.20989 0.0
H591 H 0.06447 0.16807 0.24918 0.0
H592 H 0.03374 0.06746 0.21913 0.0
C593 C 0.94476 0.11343 0.12392 0.0
C594 C 0.93471 0.14284 0.10823 0.0
C595 C 0.94616 0.17365 0.12358 0.0
C596 C 0.96837 0.17513 0.15295 0.0
C597 C 0.97866 0.14561 0.16682 0.0
C598 C 0.96696 0.11534 0.15308 0.0
C599 C 0.98358 0.08721 0.17085 0.0
C600 C 0.96139 0.06671 0.192 0.0
C601 C 0.99928 0.06543 0.14304 0.0
C602 C 0.00715 0.10636 0.1959 0.0
C603 C 0.00377 0.14001 0.19347 0.0
C604 C 0.02409 0.16265 0.21247 0.0
C605 C 0.0485 0.15056 0.23456 0.0
C606 C 0.05239 0.11614 0.23732 0.0
C607 C 0.03123 0.0939 0.21789 0.0
H608 H 0.19809 0.84552 0.12133 0.0
H609 H 0.17738 0.77699 0.02968 0.0
H610 H 0.21134 0.73629 0.05827 0.0
H611 H 0.27836 0.82436 0.13922 0.0
H612 H 0.27723 0.82738 0.18753 0.0
H613 H 0.25204 0.85203 0.15955 0.0
H614 H 0.20442 0.82804 0.18867 0.0
H615 H 0.22945 0.80347 0.21689 0.0
H616 H 0.19828 0.78392 0.18851 0.0
H617 H 0.24758 0.703 0.09592 0.0
H618 H 0.28082 0.67724 0.14281 0.0
H619 H 0.27708 0.76574 0.21185 0.0
C620 C 0.20078 0.82196 0.10732 0.0
C621 C 0.18501 0.81447 0.07325 0.0
C622 C 0.18896 0.78325 0.0559 0.0
C623 C 0.20839 0.75999 0.07181 0.0
C624 C 0.22358 0.76807 0.10531 0.0
C625 C 0.21982 0.79811 0.12312 0.0
C626 C 0.23798 0.79982 0.15961 0.0
C627 C 0.26288 0.82754 0.16158 0.0
C628 C 0.21623 0.80405 0.19023 0.0
C629 C 0.25239 0.76603 0.15945 0.0
C630 C 0.24401 0.74835 0.12764 0.0
C631 C 0.25429 0.71656 0.121 0.0
C632 C 0.27325 0.70216 0.14781 0.0
C633 C 0.2816 0.71938 0.18108 0.0
C634 C 0.27118 0.75191 0.18672 0.0
H635 H 0.7464 0.65663 0.57175 0.0
H636 H 0.69371 0.74343 0.54611 0.0
H637 H 0.73409 0.77865 0.57954 0.0
H638 H 0.77929 0.68709 0.6627 0.0
H639 H 0.8159 0.66835 0.65637 0.0
H640 H 0.78074 0.64967 0.63513 0.0
H641 H 0.80388 0.65156 0.57299 0.0
H642 H 0.83894 0.67041 0.59391 0.0
H643 H 0.81783 0.69044 0.55781 0.0
H644 H 0.78296 0.80486 0.60891 0.0
H645 H 0.83624 0.81993 0.63276 0.0
H646 H 0.85703 0.71609 0.63937 0.0
C647 C 0.74289 0.68295 0.57396 0.0
C648 C 0.71677 0.69722 0.55636 0.0
C649 C 0.71344 0.73188 0.5594 0.0
C650 C 0.73624 0.75211 0.57843 0.0
C651 C 0.76214 0.73733 0.59449 0.0
C652 C 0.76546 0.70351 0.59272 0.0
C653 C 0.79667 0.69401 0.60957 0.0
C654 C 0.79291 0.67357 0.64293 0.0
C655 C 0.81542 0.67553 0.58192 0.0
C656 C 0.81079 0.72783 0.62001 0.0
C657 C 0.79037 0.75248 0.61148 0.0
C658 C 0.79896 0.78577 0.61627 0.0
C659 C 0.82932 0.79409 0.62973 0.0
C660 C 0.85075 0.7692 0.63814 0.0
C661 C 0.84107 0.73569 0.63373 0.0
H662 H 0.83483 0.1934 0.11271 0.0
H663 H 0.76392 0.1723 0.0259 0.0
H664 H 0.72428 0.19295 0.06481 0.0
H665 H 0.78916 0.16826 0.18409 0.0
H666 H 0.80491 0.20004 0.21586 0.0
H667 H 0.82789 0.18442 0.18086 0.0
H668 H 0.83592 0.24377 0.15941 0.0
H669 H 0.81293 0.25959 0.19431 0.0
H670 H 0.8027 0.26818 0.1479 0.0
H671 H 0.69235 0.2164 0.11281 0.0
H672 H 0.66999 0.23861 0.16761 0.0
H673 H 0.76134 0.24294 0.22387 0.0
C674 C 0.81099 0.19326 0.10182 0.0
C675 C 0.80253 0.18135 0.06616 0.0
C676 C 0.771 0.18125 0.05311 0.0
C677 C 0.7483 0.19302 0.07497 0.0
C678 C 0.75742 0.20459 0.10994 0.0
C679 C 0.78796 0.20462 0.12339 0.0
C680 C 0.79146 0.21761 0.16225 0.0
C681 C 0.8041 0.19099 0.18723 0.0
C682 C 0.81197 0.24916 0.16618 0.0
C683 C 0.75812 0.22494 0.16849 0.0
C684 C 0.73889 0.21744 0.1379 0.0
C685 C 0.70716 0.22231 0.13697 0.0
C686 C 0.69469 0.235 0.16822 0.0
C687 C 0.71387 0.24247 0.20007 0.0
C688 C 0.74603 0.2374 0.20002 0.0
H689 H 0.32634 0.28012 0.66887 0.0
H690 H 0.25977 0.35817 0.6592 0.0
H691 H 0.24116 0.34451 0.71826 0.0
H692 H 0.27855 0.22185 0.71289 0.0
H693 H 0.31056 0.20804 0.74155 0.0
H694 H 0.31708 0.22282 0.69769 0.0
H695 H 0.35756 0.26574 0.72681 0.0
H696 H 0.35115 0.25116 0.77074 0.0
H697 H 0.34664 0.29419 0.76182 0.0
H698 H 0.23111 0.32302 0.7796 0.0
H699 H 0.23136 0.29671 0.83837 0.0
H700 H 0.30546 0.23381 0.80737 0.0
C701 C 0.30753 0.29412 0.67882 0.0
C702 C 0.29431 0.32004 0.65921 0.0
C703 C 0.27014 0.33808 0.67364 0.0
C704 C 0.25941 0.33048 0.70714 0.0
C705 C 0.27317 0.30488 0.72584 0.0
C706 C 0.29675 0.28704 0.71215 0.0
C707 C 0.30871 0.26174 0.7381 0.0
C708 C 0.30339 0.22653 0.72157 0.0
C709 C 0.34304 0.26864 0.75007 0.0
C710 C 0.28831 0.26818 0.76874 0.0
C711 C 0.26781 0.29299 0.76114 0.0
C712 C 0.24699 0.3035 0.78575 0.0
C713 C 0.24731 0.2884 0.81906 0.0
C714 C 0.26842 0.2632 0.8275 0.0
C715 C 0.28899 0.25295 0.80178 0.0
H716 H 0.68377 0.72145 0.39477 0.0
H717 H 0.72596 0.62594 0.40469 0.0
H718 H 0.75359 0.6349 0.35031 0.0
H719 H 0.67531 0.72064 0.29663 0.0
H720 H 0.68546 0.7638 0.2943 0.0
H721 H 0.66729 0.74924 0.33289 0.0
H722 H 0.71266 0.77453 0.37498 0.0
H723 H 0.73102 0.78906 0.33652 0.0
H724 H 0.7517 0.76306 0.36762 0.0
H725 H 0.77636 0.65338 0.2952 0.0
H726 H 0.7956 0.68216 0.2438 0.0
H727 H 0.74207 0.76756 0.27107 0.0
C728 C 0.69862 0.70241 0.38518 0.0
C729 C 0.70272 0.67298 0.40377 0.0
C730 C 0.72265 0.64873 0.39087 0.0
C731 C 0.73835 0.65351 0.35995 0.0
C732 C 0.73422 0.68288 0.34244 0.0
C733 C 0.71509 0.70708 0.35461 0.0
C734 C 0.71614 0.73702 0.33154 0.0
C735 C 0.68414 0.74302 0.31272 0.0
C736 C 0.72863 0.76773 0.35401 0.0
C737 C 0.73883 0.72575 0.30469 0.0
C738 C 0.74861 0.69426 0.31129 0.0
C739 C 0.76902 0.67813 0.28979 0.0
C740 C 0.77979 0.69463 0.26067 0.0
C741 C 0.77051 0.72711 0.25367 0.0
C742 C 0.74982 0.74287 0.27608 0.0
H743 H 0.8382 0.24893 0.96148 0.0
H744 H 0.81822 0.16477 0.88699 0.0
H745 H 0.78827 0.20031 0.84583 0.0
H746 H 0.76535 0.28224 0.95239 0.0
H747 H 0.77842 0.32483 0.95528 0.0
H748 H 0.80167 0.294 0.97663 0.0
H749 H 0.84816 0.31145 0.94109 0.0
H750 H 0.82509 0.34256 0.91975 0.0
H751 H 0.84353 0.3121 0.89262 0.0
H752 H 0.7557 0.24339 0.81615 0.0
H753 H 0.72415 0.29111 0.79947 0.0
H754 H 0.76567 0.34728 0.89303 0.0
C755 C 0.8282 0.23809 0.93612 0.0
C756 C 0.83069 0.20402 0.92747 0.0
C757 C 0.81673 0.19079 0.89423 0.0
C758 C 0.79969 0.2108 0.87061 0.0
C759 C 0.79697 0.24406 0.88047 0.0
C760 C 0.81106 0.25768 0.91229 0.0
C761 C 0.80275 0.29352 0.9178 0.0
C762 C 0.78605 0.29894 0.95258 0.0
C763 C 0.8316 0.31625 0.9178 0.0
C764 C 0.78113 0.2977 0.88458 0.0
C765 C 0.77829 0.26896 0.86325 0.0
C766 C 0.75811 0.26618 0.83234 0.0
C767 C 0.74021 0.2934 0.82315 0.0
C768 C 0.74258 0.32301 0.84478 0.0
C769 C 0.76366 0.32518 0.87563 0.0
H770 H 0.25403 0.27021 0.52785 0.0
H771 H 0.34456 0.26449 0.48566 0.0
H772 H 0.32759 0.21446 0.44948 0.0
H773 H 0.24378 0.18586 0.53857 0.0
H774 H 0.20297 0.18354 0.52523 0.0
H775 H 0.22037 0.2216 0.54429 0.0
H776 H 0.19985 0.25224 0.48809 0.0
H777 H 0.18217 0.21425 0.46891 0.0
H778 H 0.20882 0.23724 0.44392 0.0
H779 H 0.30394 0.16201 0.42398 0.0
H780 H 0.27367 0.11061 0.40834 0.0
H781 H 0.1975 0.14926 0.46522 0.0
C782 C 0.26991 0.25889 0.51021 0.0
C783 C 0.3006 0.27129 0.50951 0.0
C784 C 0.32098 0.25538 0.48671 0.0
C785 C 0.31153 0.22699 0.46592 0.0
C786 C 0.28154 0.21474 0.468 0.0
C787 C 0.26085 0.23021 0.48924 0.0
C788 C 0.23071 0.21027 0.4884 0.0
C789 C 0.22409 0.19969 0.52638 0.0
C790 C 0.20379 0.22966 0.47131 0.0
C791 C 0.23816 0.18084 0.4643 0.0
C792 C 0.26756 0.18417 0.45268 0.0
C793 C 0.28066 0.15932 0.43233 0.0
C794 C 0.26335 0.13015 0.42373 0.0
C795 C 0.23318 0.12605 0.43529 0.0
C796 C 0.2203 0.15197 0.45545 0.0
H797 H 0.21878 0.83118 0.96944 0.0
H798 H 0.14071 0.84841 0.89367 0.0
H799 H 0.16702 0.81927 0.84527 0.0
H800 H 0.27972 0.83855 0.90783 0.0
H801 H 0.30153 0.8054 0.927 0.0
H802 H 0.27753 0.8298 0.95468 0.0
H803 H 0.24878 0.77661 0.9717 0.0
H804 H 0.27253 0.75207 0.94387 0.0
H805 H 0.231 0.74917 0.93649 0.0
H806 H 0.20217 0.7883 0.80514 0.0
H807 H 0.24213 0.75561 0.77699 0.0
H808 H 0.29537 0.75478 0.88016 0.0
C809 C 0.20754 0.82938 0.94247 0.0
C810 C 0.17797 0.84256 0.93504 0.0
C811 C 0.1635 0.83876 0.89975 0.0
C812 C 0.17825 0.82225 0.87215 0.0
C813 C 0.20724 0.80915 0.88045 0.0
C814 C 0.22163 0.81231 0.91482 0.0
C815 C 0.25191 0.79428 0.91718 0.0
C816 C 0.27929 0.81845 0.92726 0.0
C817 C 0.25098 0.76638 0.94389 0.0
C818 C 0.25245 0.78065 0.87871 0.0
C819 C 0.22662 0.78977 0.85787 0.0
C820 C 0.22239 0.78086 0.82126 0.0
C821 C 0.24521 0.76229 0.8055 0.0
C822 C 0.27172 0.75237 0.82641 0.0
C823 C 0.27516 0.76158 0.86356 0.0
loop_
_geom_bond_atom_site_label_1
_geom_bond_atom_site_label_2
_geom_bond_distance
_geom_bond_site_symmetry_2
_ccdc_geom_bond_type
Fe0 O2 1.912 1_554 S
Fe0 O5 1.997 . S
Fe0 O6 2.002 . S
Fe0 O11 1.976 1_554 S
Fe0 O14 1.996 1_554 S
Fe1 O2 1.915 1_554 S
Fe1 O9 1.997 . S
Fe1 O12 1.996 1_554 S
Fe1 O16 1.976 1_554 S
Fe1 O19 2.002 . S
O2 Fe0 1.912 1_556 S
O2 Fe1 1.915 1_556 S
O2 Fe3 1.927 . S
Fe3 O2 1.927 . S
Fe3 O4 2.002 1_556 S
Fe3 O13 1.976 . S
Fe3 O17 1.996 . S
Fe3 O20 1.997 1_556 S
O4 Fe3 2.002 1_554 S
O4 C21 1.295 . S
O5 Fe0 1.997 . S
O5 C21 1.235 . S
O6 Fe0 2.002 . S
O6 C7 1.295 . S
C7 O6 1.295 . S
C7 O9 1.235 . S
C8 O13 1.287 . S
C8 O14 1.255 . S
O9 Fe1 1.997 . S
O9 C7 1.235 . S
C10 O16 1.287 . S
C10 O17 1.255 . S
O11 Fe0 1.976 1_556 S
O11 C18 1.287 . S
O12 Fe1 1.996 1_556 S
O12 C18 1.255 . S
O13 Fe3 1.976 . S
O13 C8 1.287 . S
O14 Fe0 1.996 1_556 S
O14 C8 1.255 . S
C15 O19 1.295 . S
C15 O20 1.235 . S
O16 Fe1 1.976 1_556 S
O16 C10 1.287 . S
O17 Fe3 1.996 . S
O17 C10 1.255 . S
C18 O11 1.287 . S
C18 O12 1.255 . S
O19 Fe1 2.002 . S
O19 C15 1.295 . S
O20 Fe3 1.997 1_554 S
O20 C15 1.235 . S
C21 O4 1.295 . S
C21 O5 1.235 . S
Fe22 O24 1.918 . S
Fe22 O27 1.997 . S
Fe22 O28 2.002 . S
Fe22 O33 1.976 . S
Fe22 O36 1.996 . S
Fe23 O24 1.918 . S
Fe23 O31 1.997 . S
Fe23 O34 1.996 . S
Fe23 O38 1.976 . S
Fe23 O41 2.002 . S
O24 Fe22 1.918 . S
O24 Fe23 1.918 . S
O24 Fe25 1.918 . S
Fe25 O24 1.918 . S
Fe25 O26 2.002 . S
Fe25 O35 1.976 . S
Fe25 O39 1.996 . S
Fe25 O42 1.997 . S
O26 Fe25 2.002 . S
O26 C43 1.295 . S
O27 Fe22 1.997 . S
O27 C43 1.235 . S
O28 Fe22 2.002 . S
O28 C29 1.295 . S
C29 O28 1.295 . S
C29 O31 1.235 . S
C30 O35 1.287 . S
C30 O36 1.255 . S
O31 Fe23 1.997 . S
O31 C29 1.235 . S
C32 O38 1.287 . S
C32 O39 1.255 . S
O33 Fe22 1.976 . S
O33 C40 1.287 . S
O34 Fe23 1.996 . S
O34 C40 1.255 . S
O35 Fe25 1.976 . S
O35 C30 1.287 . S
O36 Fe22 1.996 . S
O36 C30 1.255 . S
C37 O41 1.295 . S
C37 O42 1.235 . S
O38 Fe23 1.976 . S
O38 C32 1.287 . S
O39 Fe25 1.996 . S
O39 C32 1.255 . S
C40 O33 1.287 . S
C40 O34 1.255 . S
O41 Fe23 2.002 . S
O41 C37 1.295 . S
O42 Fe25 1.997 . S
O42 C37 1.235 . S
C43 O26 1.295 . S
C43 O27 1.235 . S
Fe44 O46 1.918 . S
Fe44 O49 1.997 . S
Fe44 O50 2.002 . S
Fe44 O55 1.976 . S
Fe44 O58 1.996 . S
Fe45 O46 1.918 . S
Fe45 O53 1.997 . S
Fe45 O56 1.996 . S
Fe45 O60 1.976 . S
Fe45 O63 2.002 1_554 S
O46 Fe44 1.918 . S
O46 Fe45 1.918 . S
O46 Fe47 1.918 . S
Fe47 O46 1.918 . S
Fe47 O48 2.002 1_554 S
Fe47 O57 1.976 . S
Fe47 O61 1.996 . S
Fe47 O64 1.997 1_554 S
O48 Fe47 2.002 1_556 S
O48 C65 1.295 . S
O49 Fe44 1.997 . S
O49 C65 1.235 1_554 S
O50 Fe44 2.002 . S
O50 C51 1.305 . S
C51 O50 1.305 . S
C51 O53 1.238 . S
C52 O57 1.287 . S
C52 O58 1.255 . S
O53 Fe45 1.997 . S
O53 C51 1.238 . S
C54 O60 1.287 . S
C54 O61 1.255 . S
O55 Fe44 1.976 . S
O55 C62 1.287 . S
O56 Fe45 1.996 . S
O56 C62 1.255 . S
O57 Fe47 1.976 . S
O57 C52 1.287 . S
O58 Fe44 1.996 . S
O58 C52 1.255 . S
C59 O63 1.295 . S
C59 O64 1.235 . S
O60 Fe45 1.976 . S
O60 C54 1.287 . S
O61 Fe47 1.996 . S
O61 C54 1.255 . S
C62 O55 1.287 . S
C62 O56 1.255 . S
O63 Fe45 2.002 1_556 S
O63 C59 1.295 . S
O64 Fe47 1.997 1_556 S
O64 C59 1.235 . S
C65 O48 1.295 . S
C65 O49 1.235 1_556 S
Fe66 O68 1.918 . S
Fe66 O71 1.997 . S
Fe66 O72 2.002 . S
Fe66 O77 1.976 . S
Fe66 O80 1.996 . S
Fe67 O68 1.918 . S
Fe67 O75 1.997 . S
Fe67 O78 1.996 . S
Fe67 O82 1.976 . S
Fe67 O85 2.002 . S
O68 Fe66 1.918 . S
O68 Fe67 1.918 . S
O68 Fe69 1.918 . S
Fe69 O68 1.918 . S
Fe69 O70 2.002 . S
Fe69 O79 1.976 . S
Fe69 O83 1.996 . S
Fe69 O86 1.997 . S
O70 Fe69 2.002 . S
O70 C87 1.295 . S
O71 Fe66 1.997 . S
O71 C87 1.235 . S
O72 Fe66 2.002 . S
O72 C73 1.295 . S
C73 O72 1.295 . S
C73 O75 1.235 . S
C74 O79 1.287 . S
C74 O80 1.255 . S
O75 Fe67 1.997 . S
O75 C73 1.235 . S
C76 O82 1.287 . S
C76 O83 1.255 . S
O77 Fe66 1.976 . S
O77 C84 1.287 . S
O78 Fe67 1.996 . S
O78 C84 1.255 . S
O79 Fe69 1.976 . S
O79 C74 1.287 . S
O80 Fe66 1.996 . S
O80 C74 1.255 . S
C81 O85 1.295 . S
C81 O86 1.235 . S
O82 Fe67 1.976 . S
O82 C76 1.287 . S
O83 Fe69 1.996 . S
O83 C76 1.255 . S
C84 O77 1.287 . S
C84 O78 1.255 . S
O85 Fe67 2.002 . S
O85 C81 1.295 . S
O86 Fe69 1.997 . S
O86 C81 1.235 . S
C87 O70 1.295 . S
C87 O71 1.235 . S
O88 Cd89 2.300 . S
O88 C95 1.275 . S
Cd89 O88 2.300 . S
Cd89 O97 2.381 . S
Cd89 O98 2.378 . S
O90 Cd91 2.385 . S
O90 C95 1.255 . S
Cd91 O90 2.385 . S
Cd91 O92 2.317 . S
O92 Cd91 2.317 . S
O92 C93 1.232 . S
C93 O92 1.232 . S
C93 O94 1.218 . S
O94 C93 1.218 . S
C95 O88 1.275 . S
C95 O90 1.255 . S
C96 O97 1.258 . S
C96 O98 1.256 . S
O97 Cd89 2.381 . S
O97 C96 1.258 . S
O98 Cd89 2.378 . S
O98 C96 1.256 . S
O99 Cd100 2.300 . S
O99 C106 1.275 . S
Cd100 O99 2.300 . S
Cd100 O108 2.381 . S
Cd100 O109 2.378 . S
O101 Cd102 2.385 . S
O101 C106 1.255 . S
Cd102 O101 2.385 . S
Cd102 O103 2.317 . S
O103 Cd102 2.317 . S
O103 C104 1.232 . S
C104 O103 1.232 . S
C104 O105 1.218 . S
O105 C104 1.218 . S
C106 O99 1.275 . S
C106 O101 1.255 . S
C107 O108 1.258 . S
C107 O109 1.256 . S
O108 Cd100 2.381 . S
O108 C107 1.258 . S
O109 Cd100 2.378 . S
O109 C107 1.256 . S
O110 Cd111 2.300 . S
O110 C117 1.275 . S
Cd111 O110 2.300 . S
Cd111 O119 2.381 . S
Cd111 O120 2.378 . S
O112 Cd113 2.385 . S
O112 C117 1.255 . S
Cd113 O112 2.385 . S
Cd113 O114 2.317 . S
O114 Cd113 2.317 . S
O114 C115 1.232 . S
C115 O114 1.232 . S
C115 O116 1.218 . S
O116 C115 1.218 . S
C117 O110 1.275 . S
C117 O112 1.255 . S
C118 O119 1.258 . S
C118 O120 1.256 . S
O119 Cd111 2.381 . S
O119 C118 1.258 . S
O120 Cd111 2.378 . S
O120 C118 1.256 . S
O121 Cd122 2.300 . S
O121 C128 1.275 . S
Cd122 O121 2.300 . S
Cd122 O130 2.381 . S
Cd122 O131 2.378 . S
O123 Cd124 2.385 . S
O123 C128 1.255 . S
Cd124 O123 2.385 . S
Cd124 O125 2.317 . S
O125 Cd124 2.317 . S
O125 C126 1.232 . S
C126 O125 1.232 . S
C126 O127 1.218 . S
O127 C126 1.218 . S
C128 O121 1.275 . S
C128 O123 1.255 . S
C129 O130 1.258 . S
C129 O131 1.256 . S
O130 Cd122 2.381 . S
O130 C129 1.258 . S
O131 Cd122 2.378 . S
O131 C129 1.256 . S
O132 Cd133 2.300 . S
O132 C139 1.275 . S
Cd133 O132 2.300 . S
Cd133 O141 2.381 . S
Cd133 O142 2.378 . S
O134 Cd135 2.385 . S
O134 C139 1.255 . S
Cd135 O134 2.385 . S
Cd135 O136 2.317 . S
O136 Cd135 2.317 . S
O136 C137 1.232 . S
C137 O136 1.232 . S
C137 O138 1.218 . S
O138 C137 1.218 . S
C139 O132 1.275 . S
C139 O134 1.255 . S
C140 O141 1.258 . S
C140 O142 1.256 . S
O141 Cd133 2.381 . S
O141 C140 1.258 . S
O142 Cd133 2.378 . S
O142 C140 1.256 . S
O143 Cd144 2.300 . S
O143 C150 1.275 . S
Cd144 O143 2.300 . S
Cd144 O152 2.381 . S
Cd144 O153 2.378 . S
O145 Cd146 2.385 . S
O145 C150 1.255 . S
Cd146 O145 2.385 . S
Cd146 O147 2.317 . S
O147 Cd146 2.317 . S
O147 C148 1.232 . S
C148 O147 1.232 . S
C148 O149 1.218 . S
O149 C148 1.218 . S
C150 O143 1.275 . S
C150 O145 1.255 . S
C151 O152 1.258 . S
C151 O153 1.256 . S
O152 Cd144 2.381 . S
O152 C151 1.258 . S
O153 Cd144 2.378 . S
O153 C151 1.256 . S
O154 Cd155 2.300 . S
O154 C161 1.275 . S
Cd155 O154 2.300 . S
Cd155 O163 2.381 . S
Cd155 O164 2.378 . S
O156 Cd157 2.385 . S
O156 C161 1.255 . S
Cd157 O156 2.385 . S
Cd157 O158 2.317 . S
O158 Cd157 2.317 . S
O158 C159 1.232 . S
C159 O158 1.232 . S
C159 O160 1.218 . S
O160 C159 1.218 . S
C161 O154 1.275 . S
C161 O156 1.255 . S
C162 O163 1.258 . S
C162 O164 1.256 . S
O163 Cd155 2.381 . S
O163 C162 1.258 . S
O164 Cd155 2.378 . S
O164 C162 1.256 . S
O165 Cd166 2.300 . S
O165 C172 1.275 . S
Cd166 O165 2.300 . S
Cd166 O174 2.381 . S
Cd166 O175 2.378 . S
O167 Cd168 2.385 . S
O167 C172 1.255 . S
Cd168 O167 2.385 . S
Cd168 O169 2.317 . S
O169 Cd168 2.317 . S
O169 C170 1.232 . S
C170 O169 1.232 . S
C170 O171 1.218 . S
O171 C170 1.218 . S
C172 O165 1.275 . S
C172 O167 1.255 . S
C173 O174 1.258 . S
C173 O175 1.256 . S
O174 Cd166 2.381 . S
O174 C173 1.258 . S
O175 Cd166 2.378 . S
O175 C173 1.256 . S
H176 C188 0.930 . S
H177 C190 0.930 . S
H178 C191 0.930 1_545 S
H179 C195 0.959 . S
H180 C195 0.959 . S
H181 C195 0.961 . S
H182 C196 0.960 . S
H183 C196 0.961 . S
H184 C196 0.959 . S
H185 C199 0.929 . S
H186 C200 0.931 . S
H187 C202 0.948 . S
C188 H176 0.930 . S
C188 C189 1.399 . S
C188 C193 1.399 . S
C189 C188 1.399 . S
C189 C190 1.376 . S
C190 H177 0.930 . S
C190 C189 1.376 . S
C190 C191 1.388 . S
C191 H178 0.930 1_565 S
C191 C190 1.388 . S
C191 C192 1.390 . S
C192 C191 1.390 . S
C192 C193 1.394 . S
C192 C198 1.465 1_565 S
C193 C188 1.399 . S
C193 C192 1.394 . S
C193 C194 1.516 . S
C194 C193 1.516 . S
C194 C195 1.502 . S
C194 C196 1.561 . S
C194 C197 1.526 . S
C195 H179 0.959 . S
C195 H180 0.959 . S
C195 H181 0.961 . S
C195 C194 1.502 . S
C196 H182 0.960 . S
C196 H183 0.961 . S
C196 H184 0.959 . S
C196 C194 1.561 . S
C197 C194 1.526 . S
C197 C198 1.396 1_565 S
C197 C202 1.399 . S
C198 C192 1.465 1_545 S
C198 C197 1.396 1_545 S
C198 C199 1.399 . S
C199 H185 0.929 . S
C199 C198 1.399 . S
C199 C200 1.385 . S
C200 H186 0.931 . S
C200 C199 1.385 . S
C200 C201 1.389 . S
C201 C200 1.389 . S
C201 C202 1.360 1_545 S
C202 H187 0.948 . S
C202 C197 1.399 . S
C202 C201 1.360 1_565 S
H203 C215 0.930 . S
H204 C217 0.930 . S
H205 C218 0.930 . S
H206 C222 0.959 . S
H207 C222 0.959 . S
H208 C222 0.961 . S
H209 C223 0.960 . S
H210 C223 0.961 . S
H211 C223 0.959 . S
H212 C226 0.929 . S
H213 C227 0.931 . S
H214 C229 0.930 . S
C215 H203 0.930 . S
C215 C216 1.399 . S
C215 C220 1.399 . S
C216 C215 1.399 . S
C216 C217 1.376 . S
C217 H204 0.930 . S
C217 C216 1.376 . S
C217 C218 1.388 . S
C218 H205 0.930 . S
C218 C217 1.388 . S
C218 C219 1.390 . S
C219 C218 1.390 . S
C219 C220 1.394 . S
C219 C225 1.465 . S
C220 C215 1.399 . S
C220 C219 1.394 . S
C220 C221 1.516 . S
C221 C220 1.516 . S
C221 C222 1.502 . S
C221 C223 1.561 . S
C221 C224 1.526 . S
C222 H206 0.959 . S
C222 H207 0.959 . S
C222 H208 0.961 . S
C222 C221 1.502 . S
C223 H209 0.960 . S
C223 H210 0.961 . S
C223 H211 0.959 . S
C223 C221 1.561 . S
C224 C221 1.526 . S
C224 C225 1.396 . S
C224 C229 1.390 . S
C225 C219 1.465 . S
C225 C224 1.396 . S
C225 C226 1.399 . S
C226 H212 0.929 . S
C226 C225 1.399 . S
C226 C227 1.385 . S
C227 H213 0.931 . S
C227 C226 1.385 . S
C227 C228 1.389 . S
C228 C227 1.389 . S
C228 C229 1.387 . S
C229 H214 0.930 . S
C229 C224 1.390 . S
C229 C228 1.387 . S
H230 C242 0.930 . S
H231 C244 0.930 . S
H232 C245 0.923 1_565 S
H233 C249 0.959 . S
H234 C249 0.959 . S
H235 C249 0.961 1_556 S
H236 C250 0.960 1_556 S
H237 C250 0.961 1_556 S
H238 C250 0.959 . S
H239 C253 0.929 . S
H240 C254 0.931 . S
H241 C256 0.930 . S
C242 H230 0.930 . S
C242 C243 1.399 . S
C242 C247 1.399 1_545 S
C243 C242 1.399 . S
C243 C244 1.376 . S
C244 H231 0.930 . S
C244 C243 1.376 . S
C244 C245 1.422 . S
C245 H232 0.923 1_545 S
C245 C244 1.422 . S
C245 C246 1.364 1_545 S
C246 C245 1.364 1_565 S
C246 C247 1.394 . S
C246 C252 1.465 . S
C247 C242 1.399 1_565 S
C247 C246 1.394 . S
C247 C248 1.516 . S
C248 C247 1.516 . S
C248 C249 1.502 . S
C248 C250 1.561 . S
C248 C251 1.526 . S
C249 H233 0.959 . S
C249 H234 0.959 . S
C249 H235 0.961 1_554 S
C249 C248 1.502 . S
C250 H236 0.960 1_554 S
C250 H237 0.961 1_554 S
C250 H238 0.959 . S
C250 C248 1.561 . S
C251 C248 1.526 . S
C251 C252 1.396 . S
C251 C256 1.390 . S
C252 C246 1.465 . S
C252 C251 1.396 . S
C252 C253 1.399 . S
C253 H239 0.929 . S
C253 C252 1.399 . S
C253 C254 1.385 . S
C254 H240 0.931 . S
C254 C253 1.385 . S
C254 C255 1.389 . S
C255 C254 1.389 . S
C255 C256 1.387 . S
C256 H241 0.930 . S
C256 C251 1.390 . S
C256 C255 1.387 . S
H257 C269 0.930 . S
H258 C271 0.930 . S
H259 C272 0.930 . S
H260 C276 0.959 . S
H261 C276 0.959 . S
H262 C276 0.961 . S
H263 C277 0.960 . S
H264 C277 0.961 . S
H265 C277 0.959 . S
H266 C280 0.929 . S
H267 C281 0.931 . S
H268 C283 0.930 . S
C269 H257 0.930 . S
C269 C270 1.399 . S
C269 C274 1.399 . S
C270 C269 1.399 . S
C270 C271 1.376 . S
C271 H258 0.930 . S
C271 C270 1.376 . S
C271 C272 1.388 . S
C272 H259 0.930 . S
C272 C271 1.388 . S
C272 C273 1.390 . S
C273 C272 1.390 . S
C273 C274 1.394 . S
C273 C279 1.465 . S
C274 C269 1.399 . S
C274 C273 1.394 . S
C274 C275 1.516 . S
C275 C274 1.516 . S
C275 C276 1.502 . S
C275 C277 1.561 . S
C275 C278 1.526 . S
C276 H260 0.959 . S
C276 H261 0.959 . S
C276 H262 0.961 . S
C276 C275 1.502 . S
C277 H263 0.960 . S
C277 H264 0.961 . S
C277 H265 0.959 . S
C277 C275 1.561 . S
C278 C275 1.526 . S
C278 C279 1.396 . S
C278 C283 1.390 . S
C279 C273 1.465 . S
C279 C278 1.396 . S
C279 C280 1.399 . S
C280 H266 0.929 . S
C280 C279 1.399 . S
C280 C281 1.385 . S
C281 H267 0.931 . S
C281 C280 1.385 . S
C281 C282 1.389 . S
C282 C281 1.389 . S
C282 C283 1.387 . S
C283 H268 0.930 . S
C283 C278 1.390 . S
C283 C282 1.387 . S
H284 C296 0.930 . S
H285 C298 0.930 . S
H286 C299 0.930 . S
H287 C303 0.959 . S
H288 C303 0.959 . S
H289 C303 0.961 . S
H290 C304 0.960 . S
H291 C304 0.961 . S
H292 C304 0.959 . S
H293 C307 0.929 . S
H294 C308 0.931 . S
H295 C310 0.930 . S
C296 H284 0.930 . S
C296 C297 1.399 . S
C296 C301 1.399 . S
C297 C296 1.399 . S
C297 C298 1.376 . S
C298 H285 0.930 . S
C298 C297 1.376 . S
C298 C299 1.388 . S
C299 H286 0.930 . S
C299 C298 1.388 . S
C299 C300 1.390 . S
C300 C299 1.390 . S
C300 C301 1.394 . S
C300 C306 1.465 . S
C301 C296 1.399 . S
C301 C300 1.394 . S
C301 C302 1.516 . S
C302 C301 1.516 . S
C302 C303 1.502 . S
C302 C304 1.561 . S
C302 C305 1.526 . S
C303 H287 0.959 . S
C303 H288 0.959 . S
C303 H289 0.961 . S
C303 C302 1.502 . S
C304 H290 0.960 . S
C304 H291 0.961 . S
C304 H292 0.959 . S
C304 C302 1.561 . S
C305 C302 1.526 . S
C305 C306 1.396 . S
C305 C310 1.390 . S
C306 C300 1.465 . S
C306 C305 1.396 . S
C306 C307 1.399 . S
C307 H293 0.929 . S
C307 C306 1.399 . S
C307 C308 1.385 . S
C308 H294 0.931 . S
C308 C307 1.385 . S
C308 C309 1.389 . S
C309 C308 1.389 . S
C309 C310 1.387 . S
C310 H295 0.930 . S
C310 C305 1.390 . S
C310 C309 1.387 . S
H311 C323 0.930 . S
H312 C325 0.930 . S
H313 C326 0.930 . S
H314 C330 0.980 . S
H315 C330 0.959 . S
H316 C330 0.989 . S
H317 C331 0.960 . S
H318 C331 0.961 . S
H319 C331 0.959 . S
H320 C334 0.929 . S
H321 C335 0.931 . S
H322 C337 0.930 . S
C323 H311 0.930 . S
C323 C324 1.399 1_554 S
C323 C328 1.399 1_554 S
C324 C323 1.399 1_556 S
C324 C325 1.376 . S
C325 H312 0.930 . S
C325 C324 1.376 . S
C325 C326 1.388 . S
C326 H313 0.930 . S
C326 C325 1.388 . S
C326 C327 1.381 1_655 S
C327 C326 1.381 1_455 S
C327 C328 1.390 1_455 S
C327 C333 1.478 . S
C328 C323 1.399 1_556 S
C328 C327 1.390 1_655 S
C328 C329 1.516 1_656 S
C329 C328 1.516 1_454 S
C329 C330 1.502 . S
C329 C331 1.561 . S
C329 C332 1.526 1_554 S
C330 H314 0.980 . S
C330 H315 0.959 . S
C330 H316 0.989 . S
C330 C329 1.502 . S
C331 H317 0.960 . S
C331 H318 0.961 . S
C331 H319 0.959 . S
C331 C329 1.561 . S
C332 C329 1.526 1_556 S
C332 C333 1.396 . S
C332 C337 1.390 . S
C333 C327 1.478 . S
C333 C332 1.396 . S
C333 C334 1.399 . S
C334 H320 0.929 . S
C334 C333 1.399 . S
C334 C335 1.385 . S
C335 H321 0.931 . S
C335 C334 1.385 . S
C335 C336 1.389 . S
C336 C335 1.389 . S
C336 C337 1.387 . S
C337 H322 0.930 . S
C337 C332 1.390 . S
C337 C336 1.387 . S
H338 C350 0.930 . S
H339 C352 0.930 . S
H340 C353 0.930 . S
H341 C357 0.959 . S
H342 C357 0.959 . S
H343 C357 0.961 . S
H344 C358 0.960 . S
H345 C358 0.961 . S
H346 C358 0.959 . S
H347 C361 0.929 . S
H348 C362 0.931 . S
H349 C364 0.930 . S
C350 H338 0.930 . S
C350 C351 1.399 . S
C350 C355 1.399 . S
C351 C350 1.399 . S
C351 C352 1.376 . S
C352 H339 0.930 . S
C352 C351 1.376 . S
C352 C353 1.388 . S
C353 H340 0.930 . S
C353 C352 1.388 . S
C353 C354 1.390 . S
C354 C353 1.390 . S
C354 C355 1.394 . S
C354 C360 1.465 . S
C355 C350 1.399 . S
C355 C354 1.394 . S
C355 C356 1.516 . S
C356 C355 1.516 . S
C356 C357 1.502 . S
C356 C358 1.561 . S
C356 C359 1.526 . S
C357 H341 0.959 . S
C357 H342 0.959 . S
C357 H343 0.961 . S
C357 C356 1.502 . S
C358 H344 0.960 . S
C358 H345 0.961 . S
C358 H346 0.959 . S
C358 C356 1.561 . S
C359 C356 1.526 . S
C359 C360 1.396 . S
C359 C364 1.390 . S
C360 C354 1.465 . S
C360 C359 1.396 . S
C360 C361 1.399 . S
C361 H347 0.929 . S
C361 C360 1.399 . S
C361 C362 1.385 . S
C362 H348 0.931 . S
C362 C361 1.385 . S
C362 C363 1.389 . S
C363 C362 1.389 . S
C363 C364 1.387 . S
C364 H349 0.930 . S
C364 C359 1.390 . S
C364 C363 1.387 . S
H365 C377 0.930 . S
H366 C379 0.930 . S
H367 C380 0.930 . S
H368 C384 0.959 . S
H369 C384 0.959 . S
H370 C384 0.961 . S
H371 C385 0.960 1_455 S
H372 C385 0.961 . S
H373 C385 0.959 . S
H374 C388 0.929 . S
H375 C389 0.931 . S
H376 C391 0.930 . S
C377 H365 0.930 . S
C377 C378 1.399 . S
C377 C382 1.399 . S
C378 C377 1.399 . S
C378 C379 1.376 . S
C379 H366 0.930 . S
C379 C378 1.376 . S
C379 C380 1.388 . S
C380 H367 0.930 . S
C380 C379 1.388 . S
C380 C381 1.390 . S
C381 C380 1.390 . S
C381 C382 1.394 . S
C381 C387 1.465 1_455 S
C382 C377 1.399 . S
C382 C381 1.394 . S
C382 C383 1.516 . S
C383 C382 1.516 . S
C383 C384 1.502 . S
C383 C385 1.561 1_455 S
C383 C386 1.526 1_455 S
C384 H368 0.959 . S
C384 H369 0.959 . S
C384 H370 0.961 . S
C384 C383 1.502 . S
C385 H371 0.960 1_655 S
C385 H372 0.961 . S
C385 H373 0.959 . S
C385 C383 1.561 1_655 S
C386 C383 1.526 1_655 S
C386 C387 1.396 . S
C386 C391 1.390 . S
C387 C381 1.465 1_655 S
C387 C386 1.396 . S
C387 C388 1.399 . S
C388 H374 0.929 . S
C388 C387 1.399 . S
C388 C389 1.385 . S
C389 H375 0.931 . S
C389 C388 1.385 . S
C389 C390 1.389 . S
C390 C389 1.389 . S
C390 C391 1.387 . S
C391 H376 0.930 . S
C391 C386 1.390 . S
C391 C390 1.387 . S
H392 C404 0.930 . S
H393 C406 0.930 . S
H394 C407 0.930 . S
H395 C411 0.959 . S
H396 C411 0.959 . S
H397 C411 0.961 . S
H398 C412 0.960 . S
H399 C412 0.961 . S
H400 C412 0.959 . S
H401 C415 0.929 . S
H402 C416 0.931 . S
H403 C418 0.930 . S
C404 H392 0.930 . S
C404 C405 1.399 . S
C404 C409 1.399 . S
C405 C404 1.399 . S
C405 C406 1.376 . S
C406 H393 0.930 . S
C406 C405 1.376 . S
C406 C407 1.388 . S
C407 H394 0.930 . S
C407 C406 1.388 . S
C407 C408 1.390 . S
C408 C407 1.390 . S
C408 C409 1.394 . S
C408 C414 1.465 . S
C409 C404 1.399 . S
C409 C408 1.394 . S
C409 C410 1.516 . S
C410 C409 1.516 . S
C410 C411 1.502 . S
C410 C412 1.561 . S
C410 C413 1.526 . S
C411 H395 0.959 . S
C411 H396 0.959 . S
C411 H397 0.961 . S
C411 C410 1.502 . S
C412 H398 0.960 . S
C412 H399 0.961 . S
C412 H400 0.959 . S
C412 C410 1.561 . S
C413 C410 1.526 . S
C413 C414 1.396 . S
C413 C418 1.390 . S
C414 C408 1.465 . S
C414 C413 1.396 . S
C414 C415 1.399 1_545 S
C415 H401 0.929 . S
C415 C414 1.399 1_565 S
C415 C416 1.385 . S
C416 H402 0.931 . S
C416 C415 1.385 . S
C416 C417 1.389 . S
C417 C416 1.389 . S
C417 C418 1.387 1_565 S
C418 H403 0.930 . S
C418 C413 1.390 . S
C418 C417 1.387 1_545 S
H419 C431 0.930 . S
H420 C433 0.930 . S
H421 C434 0.930 . S
H422 C438 0.959 . S
H423 C438 0.959 . S
H424 C438 0.961 . S
H425 C439 0.960 . S
H426 C439 0.961 . S
H427 C439 0.959 . S
H428 C442 0.929 . S
H429 C443 0.931 . S
H430 C445 0.930 . S
C431 H419 0.930 . S
C431 C432 1.399 . S
C431 C436 1.399 . S
C432 C431 1.399 . S
C432 C433 1.376 . S
C433 H420 0.930 . S
C433 C432 1.376 . S
C433 C434 1.388 . S
C434 H421 0.930 . S
C434 C433 1.388 . S
C434 C435 1.390 . S
C435 C434 1.390 . S
C435 C436 1.394 . S
C435 C441 1.465 . S
C436 C431 1.399 . S
C436 C435 1.394 . S
C436 C437 1.516 . S
C437 C436 1.516 . S
C437 C438 1.502 . S
C437 C439 1.561 . S
C437 C440 1.526 . S
C438 H422 0.959 . S
C438 H423 0.959 . S
C438 H424 0.961 . S
C438 C437 1.502 . S
C439 H425 0.960 . S
C439 H426 0.961 . S
C439 H427 0.959 . S
C439 C437 1.561 . S
C440 C437 1.526 . S
C440 C441 1.396 . S
C440 C445 1.390 . S
C441 C435 1.465 . S
C441 C440 1.396 . S
C441 C442 1.399 . S
C442 H428 0.929 . S
C442 C441 1.399 . S
C442 C443 1.385 . S
C443 H429 0.931 . S
C443 C442 1.385 . S
C443 C444 1.389 . S
C444 C443 1.389 . S
C444 C445 1.387 . S
C445 H430 0.930 . S
C445 C440 1.390 . S
C445 C444 1.387 . S
H446 C458 0.930 1_554 S
H447 C460 0.930 . S
H448 C461 0.930 . S
H449 C465 0.959 . S
H450 C465 0.959 . S
H451 C465 0.961 . S
H452 C466 0.960 . S
H453 C466 0.961 . S
H454 C466 0.959 1_556 S
H455 C469 0.929 . S
H456 C470 0.931 . S
H457 C472 0.930 . S
C458 H446 0.930 1_556 S
C458 C459 1.399 1_545 S
C458 C463 1.399 . S
C459 C458 1.399 1_565 S
C459 C460 1.376 . S
C460 H447 0.930 . S
C460 C459 1.376 . S
C460 C461 1.388 1_565 S
C461 H448 0.930 . S
C461 C460 1.388 1_545 S
C461 C462 1.390 . S
C462 C461 1.390 . S
C462 C463 1.394 . S
C462 C468 1.465 . S
C463 C458 1.399 . S
C463 C462 1.394 . S
C463 C464 1.516 . S
C464 C463 1.516 . S
C464 C465 1.502 1_556 S
C464 C466 1.561 1_556 S
C464 C467 1.526 . S
C465 H449 0.959 . S
C465 H450 0.959 . S
C465 H451 0.961 . S
C465 C464 1.502 1_554 S
C466 H452 0.960 . S
C466 H453 0.961 . S
C466 H454 0.959 1_554 S
C466 C464 1.561 1_554 S
C467 C464 1.526 . S
C467 C468 1.396 . S
C467 C472 1.390 . S
C468 C462 1.465 . S
C468 C467 1.396 . S
C468 C469 1.399 . S
C469 H455 0.929 . S
C469 C468 1.399 . S
C469 C470 1.385 . S
C470 H456 0.931 . S
C470 C469 1.385 . S
C470 C471 1.389 . S
C471 C470 1.389 . S
C471 C472 1.387 . S
C472 H457 0.930 . S
C472 C467 1.390 . S
C472 C471 1.387 . S
H473 C485 0.930 . S
H474 C487 0.930 . S
H475 C488 0.930 . S
H476 C492 0.959 . S
H477 C492 0.959 . S
H478 C492 0.961 . S
H479 C493 0.960 . S
H480 C493 0.961 . S
H481 C493 0.959 . S
H482 C496 0.929 . S
H483 C497 0.931 . S
H484 C499 0.930 . S
C485 H473 0.930 . S
C485 C486 1.399 . S
C485 C490 1.399 . S
C486 C485 1.399 . S
C486 C487 1.376 . S
C487 H474 0.930 . S
C487 C486 1.376 . S
C487 C488 1.388 . S
C488 H475 0.930 . S
C488 C487 1.388 . S
C488 C489 1.390 . S
C489 C488 1.390 . S
C489 C490 1.394 . S
C489 C495 1.465 . S
C490 C485 1.399 . S
C490 C489 1.394 . S
C490 C491 1.516 . S
C491 C490 1.516 . S
C491 C492 1.502 . S
C491 C493 1.561 . S
C491 C494 1.526 . S
C492 H476 0.959 . S
C492 H477 0.959 . S
C492 H478 0.961 . S
C492 C491 1.502 . S
C493 H479 0.960 . S
C493 H480 0.961 . S
C493 H481 0.959 . S
C493 C491 1.561 . S
C494 C491 1.526 . S
C494 C495 1.396 . S
C494 C499 1.390 . S
C495 C489 1.465 . S
C495 C494 1.396 . S
C495 C496 1.399 . S
C496 H482 0.929 . S
C496 C495 1.399 . S
C496 C497 1.385 . S
C497 H483 0.931 . S
C497 C496 1.385 . S
C497 C498 1.389 . S
C498 C497 1.389 . S
C498 C499 1.387 . S
C499 H484 0.930 . S
C499 C494 1.390 . S
C499 C498 1.387 . S
H500 C512 0.930 . S
H501 C514 0.930 . S
H502 C515 0.930 . S
H503 C519 0.959 . S
H504 C519 0.959 . S
H505 C519 0.961 . S
H506 C520 0.960 . S
H507 C520 0.961 . S
H508 C520 0.959 . S
H509 C523 0.929 . S
H510 C524 0.931 . S
H511 C526 0.930 . S
C512 H500 0.930 . S
C512 C513 1.399 . S
C512 C517 1.399 . S
C513 C512 1.399 . S
C513 C514 1.376 . S
C514 H501 0.930 . S
C514 C513 1.376 . S
C514 C515 1.388 . S
C515 H502 0.930 . S
C515 C514 1.388 . S
C515 C516 1.390 . S
C516 C515 1.390 . S
C516 C517 1.394 . S
C516 C522 1.465 . S
C517 C512 1.399 . S
C517 C516 1.394 . S
C517 C518 1.516 . S
C518 C517 1.516 . S
C518 C519 1.502 . S
C518 C520 1.561 . S
C518 C521 1.526 . S
C519 H503 0.959 . S
C519 H504 0.959 . S
C519 H505 0.961 . S
C519 C518 1.502 . S
C520 H506 0.960 . S
C520 H507 0.961 . S
C520 H508 0.959 . S
C520 C518 1.561 . S
C521 C518 1.526 . S
C521 C522 1.396 . S
C521 C526 1.390 . S
C522 C516 1.465 . S
C522 C521 1.396 . S
C522 C523 1.399 . S
C523 H509 0.929 . S
C523 C522 1.399 . S
C523 C524 1.385 . S
C524 H510 0.931 . S
C524 C523 1.385 . S
C524 C525 1.389 . S
C525 C524 1.389 . S
C525 C526 1.387 . S
C526 H511 0.930 . S
C526 C521 1.390 . S
C526 C525 1.387 . S
H527 C539 0.930 . S
H528 C541 0.930 . S
H529 C542 0.930 . S
H530 C546 0.959 . S
H531 C546 0.959 . S
H532 C546 0.961 . S
H533 C547 0.960 . S
H534 C547 0.961 . S
H535 C547 0.959 . S
H536 C550 0.929 . S
H537 C551 0.931 . S
H538 C553 0.930 . S
C539 H527 0.930 . S
C539 C540 1.399 . S
C539 C544 1.399 1_455 S
C540 C539 1.399 . S
C540 C541 1.376 . S
C541 H528 0.930 . S
C541 C540 1.376 . S
C541 C542 1.388 . S
C542 H529 0.930 . S
C542 C541 1.388 . S
C542 C543 1.390 1_455 S
C543 C542 1.390 1_655 S
C543 C544 1.394 . S
C543 C549 1.465 . S
C544 C539 1.399 1_655 S
C544 C543 1.394 . S
C544 C545 1.516 . S
C545 C544 1.516 . S
C545 C546 1.502 . S
C545 C547 1.561 . S
C545 C548 1.526 . S
C546 H530 0.959 . S
C546 H531 0.959 . S
C546 H532 0.961 . S
C546 C545 1.502 . S
C547 H533 0.960 . S
C547 H534 0.961 . S
C547 H535 0.959 . S
C547 C545 1.561 . S
C548 C545 1.526 . S
C548 C549 1.396 . S
C548 C553 1.390 . S
C549 C543 1.465 . S
C549 C548 1.396 . S
C549 C550 1.399 . S
C550 H536 0.929 . S
C550 C549 1.399 . S
C550 C551 1.385 . S
C551 H537 0.931 . S
C551 C550 1.385 . S
C551 C552 1.389 . S
C552 C551 1.389 . S
C552 C553 1.387 . S
C553 H538 0.930 . S
C553 C548 1.390 . S
C553 C552 1.387 . S
H554 C566 0.930 . S
H555 C568 0.930 . S
H556 C569 0.930 . S
H557 C573 0.959 . S
H558 C573 0.959 . S
H559 C573 0.961 . S
H560 C574 0.960 . S
H561 C574 0.961 . S
H562 C574 0.959 . S
H563 C577 0.929 . S
H564 C578 0.931 . S
H565 C580 0.930 . S
C566 H554 0.930 . S
C566 C567 1.399 . S
C566 C571 1.399 . S
C567 C566 1.399 . S
C567 C568 1.376 . S
C568 H555 0.930 . S
C568 C567 1.376 . S
C568 C569 1.388 . S
C569 H556 0.930 . S
C569 C568 1.388 . S
C569 C570 1.390 . S
C570 C569 1.390 . S
C570 C571 1.394 . S
C570 C576 1.465 . S
C571 C566 1.399 . S
C571 C570 1.394 . S
C571 C572 1.516 . S
C572 C571 1.516 . S
C572 C573 1.502 . S
C572 C574 1.561 . S
C572 C575 1.526 . S
C573 H557 0.959 . S
C573 H558 0.959 . S
C573 H559 0.961 . S
C573 C572 1.502 . S
C574 H560 0.960 . S
C574 H561 0.961 . S
C574 H562 0.959 . S
C574 C572 1.561 . S
C575 C572 1.526 . S
C575 C576 1.396 . S
C575 C580 1.390 . S
C576 C570 1.465 . S
C576 C575 1.396 . S
C576 C577 1.399 . S
C577 H563 0.929 . S
C577 C576 1.399 . S
C577 C578 1.385 . S
C578 H564 0.931 . S
C578 C577 1.385 . S
C578 C579 1.389 . S
C579 C578 1.389 . S
C579 C580 1.387 . S
C580 H565 0.930 . S
C580 C575 1.390 . S
C580 C579 1.387 . S
H581 C593 0.930 . S
H582 C595 0.930 . S
H583 C596 0.930 . S
H584 C600 0.959 . S
H585 C600 0.959 . S
H586 C600 0.961 . S
H587 C601 0.960 . S
H588 C601 0.961 . S
H589 C601 0.959 1_455 S
H590 C604 0.929 . S
H591 C605 0.931 . S
H592 C607 0.930 . S
C593 H581 0.930 . S
C593 C594 1.399 . S
C593 C598 1.399 . S
C594 C593 1.399 . S
C594 C595 1.376 . S
C595 H582 0.930 . S
C595 C594 1.376 . S
C595 C596 1.388 . S
C596 H583 0.930 . S
C596 C595 1.388 . S
C596 C597 1.390 . S
C597 C596 1.390 . S
C597 C598 1.394 . S
C597 C603 1.470 . S
C598 C593 1.399 . S
C598 C597 1.394 . S
C598 C599 1.516 . S
C599 C598 1.516 . S
C599 C600 1.502 . S
C599 C601 1.561 . S
C599 C602 1.526 . S
C600 H584 0.959 . S
C600 H585 0.959 . S
C600 H586 0.961 . S
C600 C599 1.502 . S
C601 H587 0.960 . S
C601 H588 0.961 . S
C601 H589 0.959 1_655 S
C601 C599 1.561 . S
C602 C599 1.526 . S
C602 C603 1.397 . S
C602 C607 1.390 1_655 S
C603 C597 1.470 . S
C603 C602 1.397 . S
C603 C604 1.394 1_655 S
C604 H590 0.929 . S
C604 C603 1.394 1_455 S
C604 C605 1.385 . S
C605 H591 0.931 . S
C605 C604 1.385 . S
C605 C606 1.389 . S
C606 C605 1.389 . S
C606 C607 1.387 . S
C607 H592 0.930 . S
C607 C602 1.390 1_455 S
C607 C606 1.387 . S
H608 C620 0.930 . S
H609 C622 0.930 . S
H610 C623 0.930 . S
H611 C627 0.959 . S
H612 C627 0.959 . S
H613 C627 0.961 . S
H614 C628 0.960 . S
H615 C628 0.961 . S
H616 C628 0.959 . S
H617 C631 0.929 . S
H618 C632 0.931 . S
H619 C634 0.930 . S
C620 H608 0.930 . S
C620 C621 1.399 . S
C620 C625 1.399 . S
C621 C620 1.399 . S
C621 C622 1.376 . S
C622 H609 0.930 . S
C622 C621 1.376 . S
C622 C623 1.388 . S
C623 H610 0.930 . S
C623 C622 1.388 . S
C623 C624 1.390 . S
C624 C623 1.390 . S
C624 C625 1.394 . S
C624 C630 1.465 . S
C625 C620 1.399 . S
C625 C624 1.394 . S
C625 C626 1.516 . S
C626 C625 1.516 . S
C626 C627 1.502 . S
C626 C628 1.561 . S
C626 C629 1.526 . S
C627 H611 0.959 . S
C627 H612 0.959 . S
C627 H613 0.961 . S
C627 C626 1.502 . S
C628 H614 0.960 . S
C628 H615 0.961 . S
C628 H616 0.959 . S
C628 C626 1.561 . S
C629 C626 1.526 . S
C629 C630 1.396 . S
C629 C634 1.390 . S
C630 C624 1.465 . S
C630 C629 1.396 . S
C630 C631 1.399 . S
C631 H617 0.929 . S
C631 C630 1.399 . S
C631 C632 1.385 . S
C632 H618 0.931 . S
C632 C631 1.385 . S
C632 C633 1.389 . S
C633 C632 1.389 . S
C633 C634 1.387 . S
C634 H619 0.930 . S
C634 C629 1.390 . S
C634 C633 1.387 . S
H635 C647 0.930 . S
H636 C649 0.930 . S
H637 C650 0.930 . S
H638 C654 0.959 . S
H639 C654 0.959 . S
H640 C654 0.961 . S
H641 C655 0.960 . S
H642 C655 0.961 . S
H643 C655 0.959 . S
H644 C658 0.929 . S
H645 C659 0.931 . S
H646 C661 0.930 . S
C647 H635 0.930 . S
C647 C648 1.399 . S
C647 C652 1.399 . S
C648 C647 1.399 . S
C648 C649 1.376 . S
C649 H636 0.930 . S
C649 C648 1.376 . S
C649 C650 1.388 . S
C650 H637 0.930 . S
C650 C649 1.388 . S
C650 C651 1.390 . S
C651 C650 1.390 . S
C651 C652 1.394 . S
C651 C657 1.465 . S
C652 C647 1.399 . S
C652 C651 1.394 . S
C652 C653 1.516 . S
C653 C652 1.516 . S
C653 C654 1.502 . S
C653 C655 1.561 . S
C653 C656 1.526 . S
C654 H638 0.959 . S
C654 H639 0.959 . S
C654 H640 0.961 . S
C654 C653 1.502 . S
C655 H641 0.960 . S
C655 H642 0.961 . S
C655 H643 0.959 . S
C655 C653 1.561 . S
C656 C653 1.526 . S
C656 C657 1.396 . S
C656 C661 1.390 . S
C657 C651 1.465 . S
C657 C656 1.396 . S
C657 C658 1.399 . S
C658 H644 0.929 . S
C658 C657 1.399 . S
C658 C659 1.385 . S
C659 H645 0.931 . S
C659 C658 1.385 . S
C659 C660 1.389 . S
C660 C659 1.389 . S
C660 C661 1.387 . S
C661 H646 0.930 . S
C661 C656 1.390 . S
C661 C660 1.387 . S
H662 C674 0.930 . S
H663 C676 0.930 . S
H664 C677 0.930 . S
H665 C681 0.959 . S
H666 C681 0.959 . S
H667 C681 0.961 . S
H668 C682 0.960 . S
H669 C682 0.961 . S
H670 C682 0.959 . S
H671 C685 0.929 . S
H672 C686 0.931 . S
H673 C688 0.930 . S
C674 H662 0.930 . S
C674 C675 1.399 . S
C674 C679 1.399 . S
C675 C674 1.399 . S
C675 C676 1.376 . S
C676 H663 0.930 . S
C676 C675 1.376 . S
C676 C677 1.388 . S
C677 H664 0.930 . S
C677 C676 1.388 . S
C677 C678 1.390 . S
C678 C677 1.390 . S
C678 C679 1.394 . S
C678 C684 1.465 . S
C679 C674 1.399 . S
C679 C678 1.394 . S
C679 C680 1.516 . S
C680 C679 1.516 . S
C680 C681 1.502 . S
C680 C682 1.561 . S
C680 C683 1.526 . S
C681 H665 0.959 . S
C681 H666 0.959 . S
C681 H667 0.961 . S
C681 C680 1.502 . S
C682 H668 0.960 . S
C682 H669 0.961 . S
C682 H670 0.959 . S
C682 C680 1.561 . S
C683 C680 1.526 . S
C683 C684 1.396 . S
C683 C688 1.390 . S
C684 C678 1.465 . S
C684 C683 1.396 . S
C684 C685 1.399 . S
C685 H671 0.929 . S
C685 C684 1.399 . S
C685 C686 1.385 . S
C686 H672 0.931 . S
C686 C685 1.385 . S
C686 C687 1.389 . S
C687 C686 1.389 . S
C687 C688 1.387 . S
C688 H673 0.930 . S
C688 C683 1.390 . S
C688 C687 1.387 . S
H689 C701 0.930 . S
H690 C703 0.930 . S
H691 C704 0.930 . S
H692 C708 0.959 . S
H693 C708 0.959 . S
H694 C708 0.961 . S
H695 C709 0.960 . S
H696 C709 0.961 . S
H697 C709 0.959 . S
H698 C712 0.929 . S
H699 C713 0.931 . S
H700 C715 0.930 . S
C701 H689 0.930 . S
C701 C702 1.399 . S
C701 C706 1.399 . S
C702 C701 1.399 . S
C702 C703 1.376 . S
C703 H690 0.930 . S
C703 C702 1.376 . S
C703 C704 1.388 . S
C704 H691 0.930 . S
C704 C703 1.388 . S
C704 C705 1.390 . S
C705 C704 1.390 . S
C705 C706 1.394 . S
C705 C711 1.465 . S
C706 C701 1.399 . S
C706 C705 1.394 . S
C706 C707 1.516 . S
C707 C706 1.516 . S
C707 C708 1.502 . S
C707 C709 1.561 . S
C707 C710 1.526 . S
C708 H692 0.959 . S
C708 H693 0.959 . S
C708 H694 0.961 . S
C708 C707 1.502 . S
C709 H695 0.960 . S
C709 H696 0.961 . S
C709 H697 0.959 . S
C709 C707 1.561 . S
C710 C707 1.526 . S
C710 C711 1.396 . S
C710 C715 1.390 . S
C711 C705 1.465 . S
C711 C710 1.396 . S
C711 C712 1.399 . S
C712 H698 0.929 . S
C712 C711 1.399 . S
C712 C713 1.385 . S
C713 H699 0.931 . S
C713 C712 1.385 . S
C713 C714 1.389 . S
C714 C713 1.389 . S
C714 C715 1.387 . S
C715 H700 0.930 . S
C715 C710 1.390 . S
C715 C714 1.387 . S
H716 C728 0.930 . S
H717 C730 0.930 . S
H718 C731 0.930 . S
H719 C735 0.959 . S
H720 C735 0.959 . S
H721 C735 0.961 . S
H722 C736 0.960 . S
H723 C736 0.961 . S
H724 C736 0.959 . S
H725 C739 0.929 . S
H726 C740 0.931 . S
H727 C742 0.930 . S
C728 H716 0.930 . S
C728 C729 1.399 . S
C728 C733 1.399 . S
C729 C728 1.399 . S
C729 C730 1.376 . S
C730 H717 0.930 . S
C730 C729 1.376 . S
C730 C731 1.388 . S
C731 H718 0.930 . S
C731 C730 1.388 . S
C731 C732 1.390 . S
C732 C731 1.390 . S
C732 C733 1.394 . S
C732 C738 1.465 . S
C733 C728 1.399 . S
C733 C732 1.394 . S
C733 C734 1.516 . S
C734 C733 1.516 . S
C734 C735 1.502 . S
C734 C736 1.561 . S
C734 C737 1.526 . S
C735 H719 0.959 . S
C735 H720 0.959 . S
C735 H721 0.961 . S
C735 C734 1.502 . S
C736 H722 0.960 . S
C736 H723 0.961 . S
C736 H724 0.959 . S
C736 C734 1.561 . S
C737 C734 1.526 . S
C737 C738 1.396 . S
C737 C742 1.390 . S
C738 C732 1.465 . S
C738 C737 1.396 . S
C738 C739 1.399 . S
C739 H725 0.929 . S
C739 C738 1.399 . S
C739 C740 1.385 . S
C740 H726 0.931 . S
C740 C739 1.385 . S
C740 C741 1.389 . S
C741 C740 1.389 . S
C741 C742 1.387 . S
C742 H727 0.930 . S
C742 C737 1.390 . S
C742 C741 1.387 . S
H743 C755 0.930 . S
H744 C757 0.930 . S
H745 C758 0.930 . S
H746 C762 0.959 . S
H747 C762 0.959 . S
H748 C762 0.961 . S
H749 C763 0.960 1_554 S
H750 C763 0.961 . S
H751 C763 0.959 . S
H752 C766 0.929 . S
H753 C767 0.931 . S
H754 C769 0.930 . S
C755 H743 0.930 . S
C755 C756 1.399 . S
C755 C760 1.399 . S
C756 C755 1.399 . S
C756 C757 1.376 . S
C757 H744 0.930 . S
C757 C756 1.376 . S
C757 C758 1.388 . S
C758 H745 0.930 . S
C758 C757 1.388 . S
C758 C759 1.390 . S
C759 C758 1.390 . S
C759 C760 1.394 . S
C759 C765 1.465 . S
C760 C755 1.399 . S
C760 C759 1.394 . S
C760 C761 1.516 . S
C761 C760 1.516 . S
C761 C762 1.502 . S
C761 C763 1.561 . S
C761 C764 1.526 . S
C762 H746 0.959 . S
C762 H747 0.959 . S
C762 H748 0.961 . S
C762 C761 1.502 . S
C763 H749 0.960 1_556 S
C763 H750 0.961 . S
C763 H751 0.959 . S
C763 C761 1.561 . S
C764 C761 1.526 . S
C764 C765 1.396 . S
C764 C769 1.390 . S
C765 C759 1.465 . S
C765 C764 1.396 . S
C765 C766 1.399 . S
C766 H752 0.929 . S
C766 C765 1.399 . S
C766 C767 1.385 . S
C767 H753 0.931 . S
C767 C766 1.385 . S
C767 C768 1.389 . S
C768 C767 1.389 . S
C768 C769 1.387 . S
C769 H754 0.930 . S
C769 C764 1.390 . S
C769 C768 1.387 . S
H770 C782 0.930 . S
H771 C784 0.930 . S
H772 C785 0.930 . S
H773 C789 0.959 . S
H774 C789 0.959 . S
H775 C789 0.961 . S
H776 C790 0.960 . S
H777 C790 0.961 . S
H778 C790 0.959 . S
H779 C793 0.929 . S
H780 C794 0.931 . S
H781 C796 0.930 . S
C782 H770 0.930 . S
C782 C783 1.399 . S
C782 C787 1.399 . S
C783 C782 1.399 . S
C783 C784 1.376 . S
C784 H771 0.930 . S
C784 C783 1.376 . S
C784 C785 1.388 . S
C785 H772 0.930 . S
C785 C784 1.388 . S
C785 C786 1.390 . S
C786 C785 1.390 . S
C786 C787 1.394 . S
C786 C792 1.465 . S
C787 C782 1.399 . S
C787 C786 1.394 . S
C787 C788 1.516 . S
C788 C787 1.516 . S
C788 C789 1.502 . S
C788 C790 1.561 . S
C788 C791 1.526 . S
C789 H773 0.959 . S
C789 H774 0.959 . S
C789 H775 0.961 . S
C789 C788 1.502 . S
C790 H776 0.960 . S
C790 H777 0.961 . S
C790 H778 0.959 . S
C790 C788 1.561 . S
C791 C788 1.526 . S
C791 C792 1.396 . S
C791 C796 1.390 . S
C792 C786 1.465 . S
C792 C791 1.396 . S
C792 C793 1.399 . S
C793 H779 0.929 . S
C793 C792 1.399 . S
C793 C794 1.385 . S
C794 H780 0.931 . S
C794 C793 1.385 . S
C794 C795 1.389 . S
C795 C794 1.389 . S
C795 C796 1.387 . S
C796 H781 0.930 . S
C796 C791 1.390 . S
C796 C795 1.387 . S
H797 C809 0.930 . S
H798 C811 0.930 . S
H799 C812 0.930 . S
H800 C816 0.959 . S
H801 C816 0.959 . S
H802 C816 0.961 . S
H803 C817 0.960 . S
H804 C817 0.961 . S
H805 C817 0.959 . S
H806 C820 0.929 . S
H807 C821 0.931 . S
H808 C823 0.930 . S
C809 H797 0.930 . S
C809 C810 1.399 . S
C809 C814 1.399 . S
C810 C809 1.399 . S
C810 C811 1.376 . S
C811 H798 0.930 . S
C811 C810 1.376 . S
C811 C812 1.388 . S
C812 H799 0.930 . S
C812 C811 1.388 . S
C812 C813 1.390 . S
C813 C812 1.390 . S
C813 C814 1.394 . S
C813 C819 1.465 . S
C814 C809 1.399 . S
C814 C813 1.394 . S
C814 C815 1.516 . S
C815 C814 1.516 . S
C815 C816 1.502 . S
C815 C817 1.561 . S
C815 C818 1.526 . S
C816 H800 0.959 . S
C816 H801 0.959 . S
C816 H802 0.961 . S
C816 C815 1.502 . S
C817 H803 0.960 . S
C817 H804 0.961 . S
C817 H805 0.959 . S
C817 C815 1.561 . S
C818 C815 1.526 . S
C818 C819 1.396 . S
C818 C823 1.390 . S
C819 C813 1.465 . S
C819 C818 1.396 . S
C819 C820 1.399 . S
C820 H806 0.929 . S
C820 C819 1.399 . S
C820 C821 1.385 . S
C821 H807 0.931 . S
C821 C820 1.385 . S
C821 C822 1.389 . S
C822 C821 1.389 . S
C822 C823 1.387 . S
C823 H808 0.930 . S
C823 C818 1.390 . S
C823 C822 1.387 . S
C189 C7 1.532 . S
C201 C95 1.415 . S
C216 C37 1.404 . S
C228 C104 1.003 . S
C243 C54 1.256 . S
C255 C115 0.867 . S
C282 C126 1.091 . S
C270 C87 1.154 . S
C309 C139 1.302 . S
C297 C30 1.272 . S
C324 C51 1.230 1_556 S
C336 C148 0.806 . S
C351 C84 1.069 . S
C363 C159 1.050 . S
C378 C10 1.612 . S
C390 C172 1.528 . S
C405 C59 1.169 . S
C417 C170 0.812 . S
C444 C137 1.080 . S
C432 C74 1.298 . S
C471 C150 1.511 . S
C459 C18 1.644 . S
C486 C32 1.644 . S
C498 C161 1.655 . S
C525 C106 1.422 . S
C513 C73 1.388 . S
C540 C15 1.668 . S
C552 C117 1.609 . S
C579 C128 1.451 . S
C567 C43 1.427 . S
C606 C93 0.839 . S
C594 C62 1.183 . S
C633 C162 1.420 . S
C621 C21 1.406 . S
C660 C173 1.489 . S
C648 C29 1.481 . S
C675 C52 1.303 . S
C687 C140 1.270 . S
C714 C151 1.373 . S
C702 C81 1.477 . S
C741 C118 1.545 . S
C729 C40 1.600 . S
C756 C65 1.339 . S
C768 C129 1.332 . S
C795 C96 1.345 . S
C783 C76 1.417 . S
C822 C107 1.438 . S
C810 C8 1.443 . S
