# Generated by pormake.
# Topology tsx, (6,3)-cn, num edge types: 1
# Building blocks:
#     Node 0, Type 0, BuildingBlock: MIDCAF_clean_sbu_0, # of connection points: 6
#     Node 1, Type 0, BuildingBlock: MIDCAF_clean_sbu_0, # of connection points: 6
#     Node 2, Type 1, BuildingBlock: OLANEW_clean_sbu_2, # of connection points: 3
#     Node 3, Type 1, BuildingBlock: OLANEW_clean_sbu_2, # of connection points: 3
#     Node 4, Type 1, BuildingBlock: OLANEW_clean_sbu_2, # of connection points: 3
#     Node 5, Type 1, BuildingBlock: OLANEW_clean_sbu_2, # of connection points: 3
#     Edge 6, Type (0, 1), BuildingBlock: EZIPEK_clean_linker_0, # of connection points: 2
#     Edge 7, Type (0, 1), BuildingBlock: EZIPEK_clean_linker_0, # of connection points: 2
#     Edge 8, Type (0, 1), BuildingBlock: EZIPEK_clean_linker_0, # of connection points: 2
#     Edge 9, Type (0, 1), BuildingBlock: EZIPEK_clean_linker_0, # of connection points: 2
#     Edge 10, Type (0, 1), BuildingBlock: EZIPEK_clean_linker_0, # of connection points: 2
#     Edge 11, Type (0, 1), BuildingBlock: EZIPEK_clean_linker_0, # of connection points: 2
#     Edge 12, Type (0, 1), BuildingBlock: EZIPEK_clean_linker_0, # of connection points: 2
#     Edge 13, Type (0, 1), BuildingBlock: EZIPEK_clean_linker_0, # of connection points: 2
#     Edge 14, Type (0, 1), BuildingBlock: EZIPEK_clean_linker_0, # of connection points: 2
#     Edge 15, Type (0, 1), BuildingBlock: EZIPEK_clean_linker_0, # of connection points: 2
#     Edge 16, Type (0, 1), BuildingBlock: EZIPEK_clean_linker_0, # of connection points: 2
#     Edge 17, Type (0, 1), BuildingBlock: EZIPEK_clean_linker_0, # of connection points: 2
# Relax obj value: 0.069
# Max RMSD: 0.154
# Mean RMSD: 0.095
data_MOF--net-tsx--node1-MIDCAF_clean_sbu_0--node2-OLANEW_clean_sbu_2--edge1-EZIPEK_clean_linker_0
_symmetry_space_group_name_H-M    P1
_symmetry_Int_Tables_number       1
_symmetry_cell_setting            triclinic
loop_
_symmetry_equiv_pos_as_xyz
'x, y, z'
_cell_length_a     16.438618
_cell_length_b     16.897608
_cell_length_c     26.686859
_cell_angle_alpha  96.909802
_cell_angle_beta   94.388872
_cell_angle_gamma 90.232132
loop_
_atom_site_label
_atom_site_type_symbol
_atom_site_fract_x
_atom_site_fract_y
_atom_site_fract_z
_atom_type_partial_charge
Zn0 Zn 0.8628 0.0036 0.9354 0.0
Zn1 Zn 0.14525 0.94444 0.03214 0.0
Zn2 Zn 0.00634 0.97349 0.98558 0.0
C3 C 0.13274 0.10915 0.03462 0.0
C4 C 0.14798 0.8614 0.93806 0.0
O5 O 0.91944 0.89379 0.01125 0.0
O6 O 0.81337 0.90635 0.95781 0.0
C7 C 0.92398 0.14688 0.98429 0.0
O8 O 0.06037 0.08746 0.01675 0.0
O9 O 0.18732 0.05765 0.04002 0.0
O10 O 0.1867 0.86313 0.98084 0.0
O11 O 0.08299 0.90269 0.9325 0.0
O12 O 0.85496 0.1178 0.96708 0.0
O13 O 0.98469 0.10096 0.99144 0.0
O14 O 0.0208 0.93833 0.90538 0.0
O15 O 0.91068 0.98818 0.86802 0.0
C16 C 0.98011 0.95669 0.86532 0.0
O17 O 0.97283 0.92428 0.05562 0.0
O18 O 0.09628 0.9137 0.09268 0.0
C19 C 0.85163 0.86586 0.98854 0.0
C20 C 0.01981 0.91426 0.09534 0.0
Zn21 Zn 0.70373 0.57494 0.54748 0.0
Zn22 Zn 0.40076 0.51415 0.4923 0.0
Zn23 Zn 0.54982 0.55274 0.52474 0.0
C24 C 0.49197 0.49425 0.40945 0.0
C25 C 0.40527 0.67622 0.52645 0.0
O26 O 0.57097 0.51158 0.5991 0.0
O27 O 0.6949 0.56268 0.62 0.0
C28 C 0.69774 0.46228 0.4672 0.0
O29 O 0.54856 0.50138 0.4458 0.0
O30 O 0.41818 0.50368 0.41841 0.0
O31 O 0.35689 0.61702 0.52196 0.0
O32 O 0.4825 0.66534 0.52485 0.0
O33 O 0.75024 0.48785 0.50241 0.0
O34 O 0.62359 0.48671 0.46762 0.0
O35 O 0.56908 0.68274 0.53706 0.0
O36 O 0.70248 0.68585 0.53047 0.0
C37 C 0.63568 0.72189 0.53447 0.0
O38 O 0.50778 0.46587 0.57338 0.0
O39 O 0.39785 0.41666 0.52685 0.0
C40 C 0.63103 0.53063 0.63221 0.0
C41 C 0.45042 0.4128 0.56347 0.0
O42 O 0.99418 0.82869 0.32263 0.0
Cd43 Cd 0.9887 0.83881 0.41497 0.0
O44 O 0.9401 0.94688 0.33296 0.0
Cd45 Cd 0.90165 0.05903 0.30664 0.0
O46 O 0.86019 0.17974 0.32702 0.0
C47 C 0.78447 0.19089 0.33058 0.0
O48 O 0.73313 0.13086 0.31761 0.0
C49 C 0.96739 0.88992 0.30387 0.0
C50 C 0.14276 0.83491 0.46624 0.0
O51 O 0.10056 0.77118 0.45199 0.0
O52 O 0.1124 0.90179 0.45689 0.0
O53 O 0.24073 0.94662 0.69806 0.0
Cd54 Cd 0.33821 0.95295 0.63397 0.0
O55 O 0.1333 0.95817 0.64482 0.0
Cd56 Cd 1.00032 0.96791 0.63083 0.0
O57 O 0.86736 0.95247 0.617 0.0
C58 C 0.82715 0.97474 0.57857 0.0
O59 O 0.8673 0.00926 0.54629 0.0
C60 C 0.16386 0.95029 0.68914 0.0
C61 C 0.39046 0.10755 0.6248 0.0
O62 O 0.32759 0.07606 0.59838 0.0
O63 O 0.42908 0.06656 0.65609 0.0
O64 O 0.78042 0.58232 0.85273 0.0
Cd65 Cd 0.83524 0.61727 0.9402 0.0
O66 O 0.65754 0.5909 0.87948 0.0
Cd67 Cd 0.52547 0.59456 0.86466 0.0
O68 O 0.40641 0.64985 0.86804 0.0
C69 C 0.35989 0.66537 0.83031 0.0
O70 O 0.37938 0.64262 0.78401 0.0
C71 C 0.7035 0.57717 0.84342 0.0
C72 C 0.89615 0.4785 0.97308 0.0
O73 O 0.82021 0.49474 0.97346 0.0
O74 O 0.94484 0.5305 0.9601 0.0
O75 O 0.63561 0.47005 0.18627 0.0
Cd76 Cd 0.62324 0.46814 0.095 0.0
O77 O 0.50636 0.49253 0.16922 0.0
Cd78 Cd 0.37966 0.50237 0.18694 0.0
O79 O 0.28163 0.42075 0.15556 0.0
C80 C 0.25645 0.42101 0.1094 0.0
O81 O 0.28072 0.47797 0.08433 0.0
C82 C 0.56494 0.48174 0.20137 0.0
C83 C 0.69782 0.59798 0.06231 0.0
O84 O 0.62779 0.60542 0.08025 0.0
O85 O 0.73255 0.53021 0.0613 0.0
C86 C 0.11239 0.24406 0.08336 0.0
C87 C 0.15377 0.19479 0.04676 0.0
C88 C 0.25679 0.29896 0.04585 0.0
C89 C 0.21548 0.34857 0.08229 0.0
N90 N 0.09329 0.37785 0.1248 0.0
N91 N 0.24715 0.18533 0.98106 0.0
C92 C 0.13953 0.32415 0.0974 0.0
C93 C 0.22009 0.22563 0.02402 0.0
N94 N 0.05048 0.21348 0.10687 0.0
N95 N 0.33343 0.31873 0.03449 0.0
H96 H 0.22001 0.13222 0.96338 0.0
H97 H 0.29022 0.20892 0.96008 0.0
H98 H 0.36427 0.37089 0.0502 0.0
H99 H 0.3695 0.27986 0.01269 0.0
H100 H 0.02477 0.24406 0.13791 0.0
H101 H 0.02794 0.15548 0.09766 0.0
H102 H 0.03366 0.36599 0.13266 0.0
H103 H 0.11188 0.43705 0.13534 0.0
C104 C 0.23222 0.84451 0.86353 0.0
C105 C 0.1791 0.81096 0.89487 0.0
C106 C 0.22439 0.67682 0.86622 0.0
C107 C 0.28505 0.71103 0.8402 0.0
N108 N 0.33126 0.82174 0.80029 0.0
N109 N 0.10427 0.69754 0.91391 0.0
C110 C 0.28316 0.79315 0.83379 0.0
C111 C 0.16815 0.72747 0.89184 0.0
N112 N 0.23675 0.92549 0.86457 0.0
N113 N 0.22338 0.59632 0.868 0.0
H114 H 0.06203 0.73455 0.93207 0.0
H115 H 0.08892 0.63727 0.91076 0.0
H116 H 0.26112 0.55787 0.84699 0.0
H117 H 0.18694 0.56774 0.89069 0.0
H118 H 0.27987 0.95516 0.84689 0.0
H119 H 0.19752 0.96375 0.88448 0.0
H120 H 0.32851 0.87964 0.7908 0.0
H121 H 0.36965 0.78536 0.77856 0.0
C122 C 0.73652 0.7613 0.97948 0.0
C123 C 0.81612 0.78787 0.99966 0.0
C124 C 0.82009 0.68439 0.05657 0.0
C125 C 0.73721 0.66462 0.04136 0.0
N126 N 0.61554 0.68261 0.98715 0.0
N127 N 0.94489 0.73835 0.03209 0.0
C128 C 0.69486 0.70305 0.00274 0.0
C129 C 0.86169 0.73877 0.03079 0.0
N130 N 0.70571 0.78231 0.93394 0.0
N131 N 0.85831 0.65476 0.09751 0.0
H132 H 0.97718 0.76772 0.00756 0.0
H133 H 0.98054 0.69902 0.05127 0.0
H134 H 0.82918 0.61765 0.11927 0.0
H135 H 0.91598 0.67435 0.1132 0.0
H136 H 0.64936 0.7632 0.9162 0.0
H137 H 0.74175 0.80713 0.90929 0.0
H138 H 0.57756 0.7168 0.96555 0.0
H139 H 0.58589 0.63301 0.99724 0.0
C140 C 0.89711 0.28349 0.02774 0.0
C141 C 0.9369 0.23429 0.99068 0.0
C142 C 0.96604 0.34924 0.94732 0.0
C143 C 0.92434 0.39863 0.98364 0.0
N144 N 0.87807 0.4183 0.0675 0.0
N145 N 0.03714 0.22594 0.92841 0.0
C146 C 0.89871 0.36739 0.02692 0.0
C147 C 0.98134 0.26911 0.95521 0.0
N148 N 0.85728 0.25003 0.06319 0.0
N149 N 0.98499 0.37579 0.90314 0.0
H150 H 0.05044 0.16687 0.93257 0.0
H151 H 0.07669 0.25158 0.90603 0.0
H152 H 0.97293 0.43295 0.89404 0.0
H153 H 0.00615 0.33833 0.87311 0.0
H154 H 0.81969 0.28211 0.08777 0.0
H155 H 0.85945 0.18913 0.06648 0.0
H156 H 0.86453 0.39966 0.10176 0.0
H157 H 0.8837 0.48003 0.06848 0.0
C158 C 0.66952 0.84808 0.50151 0.0
C159 C 0.63987 0.80986 0.54098 0.0
C160 C 0.69688 0.91721 0.60351 0.0
C161 C 0.74179 0.94357 0.5652 0.0
N162 N 0.7305 0.96784 0.47784 0.0
N163 N 0.6003 0.81981 0.62625 0.0
C164 C 0.71454 0.92049 0.51393 0.0
C165 C 0.64353 0.84979 0.59093 0.0
N166 N 0.65962 0.81194 0.45285 0.0
N167 N 0.70741 0.95612 0.65147 0.0
H168 H 0.5599 0.77165 0.61671 0.0
H169 H 0.60112 0.84389 0.66401 0.0
H170 H 0.74266 0.00833 0.6595 0.0
H171 H 0.6797 0.93952 0.68241 0.0
H172 H 0.68802 0.83198 0.42305 0.0
H173 H 0.62533 0.75945 0.44312 0.0
H174 H 0.70837 0.9556 0.44006 0.0
H175 H 0.75601 0.02478 0.48731 0.0
C176 C 0.72652 0.4026 0.37955 0.0
C177 C 0.71751 0.39342 0.43099 0.0
C178 C 0.75415 0.25275 0.4163 0.0
C179 C 0.75912 0.26055 0.36427 0.0
N180 N 0.74483 0.33853 0.29445 0.0
N181 N 0.70913 0.30862 0.49715 0.0
C182 C 0.74363 0.33436 0.34525 0.0
C183 C 0.72752 0.31815 0.44903 0.0
N184 N 0.72078 0.47683 0.36413 0.0
N185 N 0.77787 0.18359 0.43483 0.0
H186 H 0.68994 0.35506 0.52276 0.0
H187 H 0.70597 0.25347 0.51061 0.0
H188 H 0.79599 0.13317 0.4121 0.0
H189 H 0.78577 0.1777 0.47327 0.0
H190 H 0.73278 0.48964 0.32825 0.0
H191 H 0.70734 0.52741 0.38839 0.0
H192 H 0.72883 0.38868 0.27705 0.0
H193 H 0.75784 0.28951 0.26876 0.0
C194 C 0.42363 0.33227 0.63408 0.0
C195 C 0.45474 0.33741 0.58652 0.0
C196 C 0.45877 0.19166 0.56928 0.0
C197 C 0.42195 0.18618 0.61514 0.0
N198 N 0.38406 0.24751 0.69607 0.0
N199 N 0.52027 0.27583 0.51439 0.0
C200 C 0.40977 0.2555 0.6494 0.0
C201 C 0.47852 0.26801 0.55602 0.0
N202 N 0.40425 0.40073 0.66321 0.0
N203 N 0.47271 0.12364 0.53791 0.0
H204 H 0.53571 0.33117 0.5039 0.0
H205 H 0.54516 0.22858 0.49222 0.0
H206 H 0.46409 0.0666 0.54799 0.0
H207 H 0.49032 0.12283 0.50125 0.0
H208 H 0.37409 0.40234 0.69616 0.0
H209 H 0.41701 0.45722 0.65344 0.0
H210 H 0.37925 0.29463 0.72452 0.0
H211 H 0.37176 0.19216 0.70764 0.0
C212 C 0.30627 0.77322 0.55988 0.0
C213 C 0.36743 0.75565 0.52606 0.0
C214 C 0.29477 0.83283 0.46509 0.0
C215 C 0.22474 0.82949 0.49265 0.0
N216 N 0.16516 0.80981 0.56984 0.0
N217 N 0.43146 0.784 0.45213 0.0
C218 C 0.23155 0.80565 0.5419 0.0
C219 C 0.3665 0.79276 0.48111 0.0
N220 N 0.31938 0.75481 0.60821 0.0
N221 N 0.29129 0.87175 0.423 0.0
H222 H 0.48604 0.75972 0.46501 0.0
H223 H 0.43181 0.80036 0.4158 0.0
H224 H 0.2389 0.90051 0.41051 0.0
H225 H 0.3413 0.88094 0.40266 0.0
H226 H 0.27981 0.7697 0.6364 0.0
H227 H 0.37446 0.73026 0.62068 0.0
H228 H 0.16301 0.78572 0.60382 0.0
H229 H 0.11095 0.83645 0.55803 0.0
C230 C 0.92395 0.87587 0.16069 0.0
C231 C 0.99102 0.92014 0.14777 0.0
C232 C 0.03544 0.95274 0.23801 0.0
C233 C 0.97544 0.89928 0.25011 0.0
N234 N 0.86474 0.80591 0.22365 0.0
N235 N 0.08395 0.03021 0.17557 0.0
C236 C 0.92019 0.85968 0.21164 0.0
C237 C 0.03908 0.96736 0.18702 0.0
N238 N 0.85938 0.85778 0.1262 0.0
N239 N 0.09182 0.98643 0.27488 0.0
H240 H 0.08314 0.04628 0.13901 0.0
H241 H 0.11371 0.0721 0.20268 0.0
H242 H 0.09146 0.97727 0.31283 0.0
H243 H 0.14314 0.01798 0.26735 0.0
H244 H 0.80561 0.83091 0.13433 0.0
H245 H 0.85436 0.88199 0.09224 0.0
H246 H 0.82948 0.7683 0.19653 0.0
H247 H 0.85825 0.79473 0.26075 0.0
C248 C 0.0348 0.02466 0.79623 0.0
C249 C 0.02025 0.95283 0.81724 0.0
C250 C 0.09924 0.87834 0.75333 0.0
C251 C 0.11054 0.9496 0.73124 0.0
N252 N 0.07727 0.08737 0.72545 0.0
N253 N 0.02457 0.80964 0.81078 0.0
C254 C 0.07404 0.02154 0.75054 0.0
C255 C 0.04848 0.87904 0.79431 0.0
N256 N 0.01605 0.09673 0.82158 0.0
N257 N 0.13771 0.81031 0.73544 0.0
H258 H 0.98686 0.8084 0.84041 0.0
H259 H 0.03668 0.75323 0.79289 0.0
H260 H 0.17202 0.8066 0.70397 0.0
H261 H 0.13964 0.75885 0.75335 0.0
H262 H 0.03521 0.15122 0.81173 0.0
H263 H 0.98715 0.10292 0.85512 0.0
H264 H 0.04264 0.13802 0.73391 0.0
H265 H 0.10981 0.08969 0.69363 0.0
C266 C 0.67117 0.46914 0.71042 0.0
C267 C 0.62398 0.52549 0.68638 0.0
C268 C 0.61778 0.61058 0.76673 0.0
C269 C 0.66824 0.55593 0.79076 0.0
N270 N 0.72352 0.42373 0.78942 0.0
N271 N 0.53157 0.63559 0.69242 0.0
C272 C 0.68861 0.48188 0.76379 0.0
C273 C 0.58949 0.59097 0.7151 0.0
N274 N 0.70158 0.40524 0.68172 0.0
N275 N 0.60208 0.68361 0.79189 0.0
H276 H 0.51054 0.62269 0.65442 0.0
H277 H 0.49885 0.68013 0.71215 0.0
H278 H 0.62332 0.70132 0.82933 0.0
H279 H 0.57333 0.72919 0.77463 0.0
H280 H 0.74459 0.36675 0.69569 0.0
H281 H 0.68525 0.39257 0.64297 0.0
H282 H 0.73369 0.36613 0.77265 0.0
H283 H 0.73589 0.43099 0.82866 0.0
C284 C 0.52255 0.41441 0.32793 0.0
C285 C 0.51482 0.4895 0.35696 0.0
C286 C 0.54153 0.55884 0.28438 0.0
C287 C 0.55071 0.48392 0.25536 0.0
N288 N 0.55833 0.34067 0.2488 0.0
N289 N 0.53113 0.63265 0.36726 0.0
C290 C 0.54395 0.4116 0.27702 0.0
C291 C 0.52844 0.56162 0.33645 0.0
N292 N 0.50836 0.34631 0.3491 0.0
N293 N 0.54368 0.6273 0.26178 0.0
H294 H 0.52037 0.6374 0.40551 0.0
H295 H 0.55001 0.68636 0.35624 0.0
H296 H 0.55742 0.62824 0.22433 0.0
H297 H 0.5272 0.68286 0.27897 0.0
H298 H 0.50606 0.28934 0.32934 0.0
H299 H 0.49558 0.3469 0.38685 0.0
H300 H 0.56174 0.2861 0.2631 0.0
H301 H 0.57164 0.3366 0.21099 0.0
loop_
_geom_bond_atom_site_label_1
_geom_bond_atom_site_label_2
_geom_bond_distance
_geom_bond_site_symmetry_2
_ccdc_geom_bond_type
Zn0 O6 1.920 . S
Zn0 O12 1.898 1_565 S
Zn0 O15 1.905 . S
Zn1 O9 1.905 . S
Zn1 O10 1.898 1_545 S
Zn1 O18 1.920 1_545 S
Zn2 O5 2.080 1_444 S
Zn2 O8 2.115 . S
Zn2 O11 2.120 1_544 S
Zn2 O13 2.120 1_455 S
Zn2 O14 2.116 1_554 S
Zn2 O17 2.078 . S
C3 O8 1.169 . S
C3 O9 1.182 . S
C4 O10 1.167 1_556 S
C4 O11 1.299 . S
O5 Zn2 2.080 1_666 S
O5 C19 1.305 . S
O6 Zn0 1.920 . S
O6 C19 1.234 . S
C7 O12 1.167 . S
C7 O13 1.299 1_556 S
O8 Zn2 2.115 . S
O8 C3 1.169 . S
O9 Zn1 1.905 . S
O9 C3 1.182 . S
O10 Zn1 1.898 1_565 S
O10 C4 1.167 1_554 S
O11 Zn2 2.120 1_566 S
O11 C4 1.299 . S
O12 Zn0 1.898 1_545 S
O12 C7 1.167 . S
O13 Zn2 2.120 1_655 S
O13 C7 1.299 1_554 S
O14 Zn2 2.116 1_556 S
O14 C16 1.166 1_445 S
O15 Zn0 1.905 . S
O15 C16 1.182 . S
C16 O14 1.166 1_665 S
C16 O15 1.182 . S
O17 Zn2 2.078 . S
O17 C20 1.305 1_545 S
O18 Zn1 1.920 1_565 S
O18 C20 1.234 . S
C19 O5 1.305 . S
C19 O6 1.234 . S
C20 O17 1.305 1_565 S
C20 O18 1.234 . S
Zn21 O27 1.920 . S
Zn21 O33 1.898 . S
Zn21 O36 1.905 . S
Zn22 O30 1.905 . S
Zn22 O31 1.898 . S
Zn22 O39 1.920 . S
Zn23 O26 2.080 . S
Zn23 O29 2.114 . S
Zn23 O32 2.120 . S
Zn23 O34 2.120 . S
Zn23 O35 2.114 . S
Zn23 O38 2.080 . S
C24 O29 1.166 . S
C24 O30 1.182 . S
C25 O31 1.167 . S
C25 O32 1.299 . S
O26 Zn23 2.080 . S
O26 C40 1.305 . S
O27 Zn21 1.920 . S
O27 C40 1.234 . S
C28 O33 1.167 . S
C28 O34 1.299 . S
O29 Zn23 2.114 . S
O29 C24 1.166 . S
O30 Zn22 1.905 . S
O30 C24 1.182 . S
O31 Zn22 1.898 . S
O31 C25 1.167 . S
O32 Zn23 2.120 . S
O32 C25 1.299 . S
O33 Zn21 1.898 . S
O33 C28 1.167 . S
O34 Zn23 2.120 . S
O34 C28 1.299 . S
O35 Zn23 2.114 . S
O35 C37 1.166 . S
O36 Zn21 1.905 . S
O36 C37 1.182 . S
C37 O35 1.166 . S
C37 O36 1.182 . S
O38 Zn23 2.080 . S
O38 C41 1.305 . S
O39 Zn22 1.920 . S
O39 C41 1.234 . S
C40 O26 1.305 . S
C40 O27 1.234 . S
C41 O38 1.305 . S
C41 O39 1.234 . S
O42 Cd43 2.300 1_565 S
O42 C49 1.275 1_565 S
Cd43 O42 2.300 1_545 S
Cd43 O51 2.381 1_545 S
Cd43 O52 2.378 1_545 S
O44 Cd45 2.385 . S
O44 C49 1.255 . S
Cd45 O44 2.385 . S
Cd45 O46 2.317 . S
O46 Cd45 2.317 . S
O46 C47 1.232 1_455 S
C47 O46 1.232 1_655 S
C47 O48 1.218 . S
O48 C47 1.218 . S
C49 O42 1.275 1_545 S
C49 O44 1.255 . S
C50 O51 1.258 . S
C50 O52 1.256 . S
O51 Cd43 2.381 1_565 S
O51 C50 1.258 . S
O52 Cd43 2.378 1_565 S
O52 C50 1.256 . S
O53 Cd54 2.300 . S
O53 C60 1.275 . S
Cd54 O53 2.300 . S
Cd54 O62 2.381 . S
Cd54 O63 2.378 . S
O55 Cd56 2.385 . S
O55 C60 1.255 1_565 S
Cd56 O55 2.385 . S
Cd56 O57 2.317 1_455 S
O57 Cd56 2.317 1_655 S
O57 C58 1.232 . S
C58 O57 1.232 . S
C58 O59 1.218 . S
O59 C58 1.218 . S
C60 O53 1.275 . S
C60 O55 1.255 1_545 S
C61 O62 1.258 . S
C61 O63 1.256 . S
O62 Cd54 2.381 . S
O62 C61 1.258 . S
O63 Cd54 2.378 . S
O63 C61 1.256 . S
O64 Cd65 2.300 . S
O64 C71 1.275 . S
Cd65 O64 2.300 . S
Cd65 O73 2.381 . S
Cd65 O74 2.378 . S
O66 Cd67 2.385 . S
O66 C71 1.255 . S
Cd67 O66 2.385 . S
Cd67 O68 2.317 . S
O68 Cd67 2.317 . S
O68 C69 1.232 . S
C69 O68 1.232 . S
C69 O70 1.218 . S
O70 C69 1.218 . S
C71 O64 1.275 . S
C71 O66 1.255 . S
C72 O73 1.258 . S
C72 O74 1.256 . S
O73 Cd65 2.381 . S
O73 C72 1.258 . S
O74 Cd65 2.378 . S
O74 C72 1.256 . S
O75 Cd76 2.300 . S
O75 C82 1.275 . S
Cd76 O75 2.300 . S
Cd76 O84 2.381 . S
Cd76 O85 2.378 . S
O77 Cd78 2.385 . S
O77 C82 1.255 . S
Cd78 O77 2.385 . S
Cd78 O79 2.317 . S
O79 Cd78 2.317 . S
O79 C80 1.232 . S
C80 O79 1.232 . S
C80 O81 1.218 . S
O81 C80 1.218 . S
C82 O75 1.275 . S
C82 O77 1.255 . S
C83 O84 1.258 . S
C83 O85 1.256 . S
O84 Cd76 2.381 . S
O84 C83 1.258 . S
O85 Cd76 2.378 . S
O85 C83 1.256 . S
C86 C87 1.363 . S
C86 C92 1.379 . S
C86 N94 1.356 . S
C87 C86 1.363 . S
C87 C93 1.363 1_554 S
C88 C89 1.381 . S
C88 C93 1.378 1_554 S
C88 N95 1.343 1_554 S
C89 C88 1.381 . S
C89 C92 1.363 . S
N90 C92 1.356 . S
N90 H102 0.984 . S
N90 H103 0.985 . S
N91 C93 1.356 . S
N91 H96 0.984 . S
N91 H97 0.985 . S
C92 C86 1.379 . S
C92 C89 1.363 . S
C92 N90 1.356 . S
C93 C87 1.363 1_556 S
C93 C88 1.378 1_556 S
C93 N91 1.356 . S
N94 C86 1.356 . S
N94 H100 0.984 . S
N94 H101 0.984 . S
N95 C88 1.343 1_556 S
N95 H98 0.984 . S
N95 H99 0.985 . S
H96 N91 0.984 . S
H97 N91 0.985 . S
H98 N95 0.984 . S
H99 N95 0.985 . S
H100 N94 0.984 . S
H101 N94 0.984 . S
H102 N90 0.984 . S
H103 N90 0.985 . S
C104 C105 1.363 . S
C104 C110 1.379 . S
C104 N112 1.356 . S
C105 C104 1.363 . S
C105 C111 1.363 1_556 S
C106 C107 1.363 . S
C106 C111 1.379 1_556 S
C106 N113 1.356 1_556 S
C107 C106 1.363 . S
C107 C110 1.363 . S
N108 C110 1.356 . S
N108 H120 0.984 . S
N108 H121 0.985 . S
N109 C111 1.356 . S
N109 H114 0.984 . S
N109 H115 0.985 . S
C110 C104 1.379 . S
C110 C107 1.363 . S
C110 N108 1.356 . S
C111 C105 1.363 1_554 S
C111 C106 1.379 1_554 S
C111 N109 1.356 . S
N112 C104 1.356 . S
N112 H118 0.984 . S
N112 H119 0.984 . S
N113 C106 1.356 1_554 S
N113 H116 0.984 . S
N113 H117 0.985 . S
H114 N109 0.984 . S
H115 N109 0.985 . S
H116 N113 0.984 . S
H117 N113 0.985 . S
H118 N112 0.984 . S
H119 N112 0.984 . S
H120 N108 0.984 . S
H121 N108 0.985 . S
C122 C123 1.363 1_556 S
C122 C128 1.379 1_556 S
C122 N130 1.356 . S
C123 C122 1.363 1_554 S
C123 C129 1.363 . S
C124 C125 1.363 . S
C124 C129 1.379 . S
C124 N131 1.356 . S
C125 C124 1.363 . S
C125 C128 1.363 . S
N126 C128 1.356 1_556 S
N126 H138 0.984 . S
N126 H139 0.985 . S
N127 C129 1.356 . S
N127 H132 0.984 . S
N127 H133 0.985 . S
C128 C122 1.379 1_554 S
C128 C125 1.363 . S
C128 N126 1.356 1_554 S
C129 C123 1.363 . S
C129 C124 1.379 . S
C129 N127 1.356 . S
N130 C122 1.356 . S
N130 H136 0.984 . S
N130 H137 0.984 . S
N131 C124 1.356 . S
N131 H134 0.984 . S
N131 H135 0.985 . S
H132 N127 0.984 . S
H133 N127 0.985 . S
H134 N131 0.984 . S
H135 N131 0.985 . S
H136 N130 0.984 . S
H137 N130 0.984 . S
H138 N126 0.984 . S
H139 N126 0.985 . S
C140 C141 1.363 1_554 S
C140 C146 1.379 . S
C140 N148 1.356 . S
C141 C140 1.363 1_556 S
C141 C147 1.363 . S
C142 C143 1.363 . S
C142 C147 1.379 . S
C142 N149 1.356 . S
C143 C142 1.363 . S
C143 C146 1.363 1_556 S
N144 C146 1.356 . S
N144 H156 0.984 . S
N144 H157 0.985 . S
N145 C147 1.356 . S
N145 H150 0.984 . S
N145 H151 0.985 . S
C146 C140 1.379 . S
C146 C143 1.363 1_554 S
C146 N144 1.356 . S
C147 C141 1.363 . S
C147 C142 1.379 . S
C147 N145 1.356 . S
N148 C140 1.356 . S
N148 H154 0.984 . S
N148 H155 0.984 . S
N149 C142 1.356 . S
N149 H152 0.984 . S
N149 H153 0.985 . S
H150 N145 0.984 . S
H151 N145 0.985 . S
H152 N149 0.984 . S
H153 N149 0.985 . S
H154 N148 0.984 . S
H155 N148 0.984 . S
H156 N144 0.984 . S
H157 N144 0.985 . S
C158 C159 1.363 . S
C158 C164 1.379 . S
C158 N166 1.356 . S
C159 C158 1.363 . S
C159 C165 1.363 . S
C160 C161 1.363 . S
C160 C165 1.379 . S
C160 N167 1.356 . S
C161 C160 1.363 . S
C161 C164 1.363 . S
N162 C164 1.356 . S
N162 H174 0.984 . S
N162 H175 0.985 . S
N163 C165 1.356 . S
N163 H168 0.984 . S
N163 H169 0.985 . S
C164 C158 1.379 . S
C164 C161 1.363 . S
C164 N162 1.356 . S
C165 C159 1.363 . S
C165 C160 1.379 . S
C165 N163 1.356 . S
N166 C158 1.356 . S
N166 H172 0.984 . S
N166 H173 0.984 . S
N167 C160 1.356 . S
N167 H170 0.984 . S
N167 H171 0.985 . S
H168 N163 0.984 . S
H169 N163 0.985 . S
H170 N167 0.984 . S
H171 N167 0.985 . S
H172 N166 0.984 . S
H173 N166 0.984 . S
H174 N162 0.984 . S
H175 N162 0.985 . S
C176 C177 1.363 . S
C176 C182 1.379 . S
C176 N184 1.356 . S
C177 C176 1.363 . S
C177 C183 1.363 . S
C178 C179 1.363 . S
C178 C183 1.379 . S
C178 N185 1.356 . S
C179 C178 1.363 . S
C179 C182 1.363 . S
N180 C182 1.356 . S
N180 H192 0.984 . S
N180 H193 0.985 . S
N181 C183 1.356 . S
N181 H186 0.984 . S
N181 H187 0.985 . S
C182 C176 1.379 . S
C182 C179 1.363 . S
C182 N180 1.356 . S
C183 C177 1.363 . S
C183 C178 1.379 . S
C183 N181 1.356 . S
N184 C176 1.356 . S
N184 H190 0.984 . S
N184 H191 0.984 . S
N185 C178 1.356 . S
N185 H188 0.984 . S
N185 H189 0.985 . S
H186 N181 0.984 . S
H187 N181 0.985 . S
H188 N185 0.984 . S
H189 N185 0.985 . S
H190 N184 0.984 . S
H191 N184 0.984 . S
H192 N180 0.984 . S
H193 N180 0.985 . S
C194 C195 1.363 . S
C194 C200 1.379 . S
C194 N202 1.356 . S
C195 C194 1.363 . S
C195 C201 1.363 . S
C196 C197 1.363 . S
C196 C201 1.379 . S
C196 N203 1.356 . S
C197 C196 1.363 . S
C197 C200 1.363 . S
N198 C200 1.356 . S
N198 H210 0.984 . S
N198 H211 0.985 . S
N199 C201 1.356 . S
N199 H204 0.984 . S
N199 H205 0.985 . S
C200 C194 1.379 . S
C200 C197 1.363 . S
C200 N198 1.356 . S
C201 C195 1.363 . S
C201 C196 1.379 . S
C201 N199 1.356 . S
N202 C194 1.356 . S
N202 H208 0.984 . S
N202 H209 0.984 . S
N203 C196 1.356 . S
N203 H206 0.984 . S
N203 H207 0.985 . S
H204 N199 0.984 . S
H205 N199 0.985 . S
H206 N203 0.984 . S
H207 N203 0.985 . S
H208 N202 0.984 . S
H209 N202 0.984 . S
H210 N198 0.984 . S
H211 N198 0.985 . S
C212 C213 1.363 . S
C212 C218 1.379 . S
C212 N220 1.356 . S
C213 C212 1.363 . S
C213 C219 1.363 . S
C214 C215 1.363 . S
C214 C219 1.379 . S
C214 N221 1.356 . S
C215 C214 1.363 . S
C215 C218 1.363 . S
N216 C218 1.356 . S
N216 H228 0.984 . S
N216 H229 0.985 . S
N217 C219 1.356 . S
N217 H222 0.984 . S
N217 H223 0.985 . S
C218 C212 1.379 . S
C218 C215 1.363 . S
C218 N216 1.356 . S
C219 C213 1.363 . S
C219 C214 1.379 . S
C219 N217 1.356 . S
N220 C212 1.356 . S
N220 H226 0.984 . S
N220 H227 0.984 . S
N221 C214 1.356 . S
N221 H224 0.984 . S
N221 H225 0.985 . S
H222 N217 0.984 . S
H223 N217 0.985 . S
H224 N221 0.984 . S
H225 N221 0.985 . S
H226 N220 0.984 . S
H227 N220 0.984 . S
H228 N216 0.984 . S
H229 N216 0.985 . S
C230 C231 1.363 . S
C230 C236 1.379 . S
C230 N238 1.356 1_455 S
C231 C230 1.363 . S
C231 C237 1.363 1_565 S
C232 C233 1.363 . S
C232 C237 1.379 . S
C232 N239 1.356 . S
C233 C232 1.363 . S
C233 C236 1.363 1_545 S
N234 C236 1.356 1_655 S
N234 H246 0.984 . S
N234 H247 0.985 1_655 S
N235 C237 1.356 . S
N235 H240 0.984 . S
N235 H241 0.985 . S
C236 C230 1.379 . S
C236 C233 1.363 1_565 S
C236 N234 1.356 1_455 S
C237 C231 1.363 1_545 S
C237 C232 1.379 . S
C237 N235 1.356 . S
N238 C230 1.356 1_655 S
N238 H244 0.984 . S
N238 H245 0.984 . S
N239 C232 1.356 . S
N239 H242 0.984 . S
N239 H243 0.985 . S
H240 N235 0.984 . S
H241 N235 0.985 . S
H242 N239 0.984 . S
H243 N239 0.985 . S
H244 N238 0.984 . S
H245 N238 0.984 . S
H246 N234 0.984 . S
H247 N234 0.985 1_455 S
C248 C249 1.363 1_645 S
C248 C254 1.379 . S
C248 N256 1.356 . S
C249 C248 1.363 1_465 S
C249 C255 1.363 . S
C250 C251 1.360 1_565 S
C250 C255 1.379 . S
C250 N257 1.356 . S
C251 C250 1.360 1_545 S
C251 C254 1.365 1_455 S
N252 C254 1.356 . S
N252 H264 0.984 . S
N252 H265 0.985 . S
N253 C255 1.356 . S
N253 H258 0.984 . S
N253 H259 0.985 . S
C254 C248 1.379 . S
C254 C251 1.365 1_655 S
C254 N252 1.356 . S
C255 C249 1.363 . S
C255 C250 1.379 . S
C255 N253 1.356 . S
N256 C248 1.356 . S
N256 H262 0.984 . S
N256 H263 0.984 . S
N257 C250 1.356 . S
N257 H260 0.984 . S
N257 H261 0.985 . S
H258 N253 0.984 . S
H259 N253 0.985 . S
H260 N257 0.984 . S
H261 N257 0.985 . S
H262 N256 0.984 . S
H263 N256 0.984 . S
H264 N252 0.984 . S
H265 N252 0.985 . S
C266 C267 1.363 . S
C266 C272 1.379 . S
C266 N274 1.356 . S
C267 C266 1.363 . S
C267 C273 1.363 . S
C268 C269 1.363 . S
C268 C273 1.379 . S
C268 N275 1.356 . S
C269 C268 1.363 . S
C269 C272 1.363 . S
N270 C272 1.356 . S
N270 H282 0.984 . S
N270 H283 0.985 . S
N271 C273 1.356 . S
N271 H276 0.984 . S
N271 H277 0.985 . S
C272 C266 1.379 . S
C272 C269 1.363 . S
C272 N270 1.356 . S
C273 C267 1.363 . S
C273 C268 1.379 . S
C273 N271 1.356 . S
N274 C266 1.356 . S
N274 H280 0.984 . S
N274 H281 0.984 . S
N275 C268 1.356 . S
N275 H278 0.984 . S
N275 H279 0.985 . S
H276 N271 0.984 . S
H277 N271 0.985 . S
H278 N275 0.984 . S
H279 N275 0.985 . S
H280 N274 0.984 . S
H281 N274 0.984 . S
H282 N270 0.984 . S
H283 N270 0.985 . S
C284 C285 1.363 . S
C284 C290 1.379 . S
C284 N292 1.356 . S
C285 C284 1.363 . S
C285 C291 1.363 . S
C286 C287 1.363 . S
C286 C291 1.379 . S
C286 N293 1.356 . S
C287 C286 1.363 . S
C287 C290 1.363 . S
N288 C290 1.356 . S
N288 H300 0.984 . S
N288 H301 0.985 . S
N289 C291 1.356 . S
N289 H294 0.984 . S
N289 H295 0.985 . S
C290 C284 1.379 . S
C290 C287 1.363 . S
C290 N288 1.356 . S
C291 C285 1.363 . S
C291 C286 1.379 . S
C291 N289 1.356 . S
N292 C284 1.356 . S
N292 H298 0.984 . S
N292 H299 0.984 . S
N293 C286 1.356 . S
N293 H296 0.984 . S
N293 H297 0.985 . S
H294 N289 0.984 . S
H295 N289 0.985 . S
H296 N293 0.984 . S
H297 N293 0.985 . S
H298 N292 0.984 . S
H299 N292 0.984 . S
H300 N288 0.984 . S
H301 N288 0.985 . S
C89 C80 1.178 . S
C87 C3 1.231 . S
C105 C4 1.475 . S
C107 C69 1.423 . S
C123 C19 1.474 1_554 S
C125 C83 1.556 . S
C141 C7 1.222 . S
C143 C72 1.334 . S
C159 C37 1.231 . S
C161 C58 1.178 . S
C177 C28 1.475 . S
C179 C47 1.423 . S
C197 C61 1.556 . S
C195 C41 1.474 . S
C215 C50 1.334 . S
C213 C25 1.222 . S
C231 C20 1.359 . S
C233 C49 1.477 . S
C249 C16 1.382 1_455 S
C251 C60 1.515 . S
C269 C71 1.477 . S
C267 C40 1.359 . S
C285 C24 1.382 . S
C287 C82 1.514 . S
