# Generated by pormake.
# Topology ocu, (6,8)-cn, num edge types: 1
# Building blocks:
#     Node 0, Type 0, BuildingBlock: KUMBOL_clean_sbu_1, # of connection points: 6
#     Node 1, Type 0, BuildingBlock: KUMBOL_clean_sbu_1, # of connection points: 6
#     Node 2, Type 0, BuildingBlock: KUMBOL_clean_sbu_1, # of connection points: 6
#     Node 3, Type 0, BuildingBlock: KUMBOL_clean_sbu_1, # of connection points: 6
#     Node 4, Type 0, BuildingBlock: KUMBOL_clean_sbu_1, # of connection points: 6
#     Node 5, Type 0, BuildingBlock: KUMBOL_clean_sbu_1, # of connection points: 6
#     Node 6, Type 0, BuildingBlock: KUMBOL_clean_sbu_1, # of connection points: 6
#     Node 7, Type 0, BuildingBlock: KUMBOL_clean_sbu_1, # of connection points: 6
#     Node 8, Type 1, BuildingBlock: TAGTUT_clean_sbu_1, # of connection points: 8
#     Node 9, Type 1, BuildingBlock: TAGTUT_clean_sbu_1, # of connection points: 8
#     Node 10, Type 1, BuildingBlock: TAGTUT_clean_sbu_1, # of connection points: 8
#     Node 11, Type 1, BuildingBlock: TAGTUT_clean_sbu_1, # of connection points: 8
#     Node 12, Type 1, BuildingBlock: TAGTUT_clean_sbu_1, # of connection points: 8
#     Node 13, Type 1, BuildingBlock: TAGTUT_clean_sbu_1, # of connection points: 8
#     Edge 14, Type (0, 1), BuildingBlock: UVAHIK_clean_linker_0, # of connection points: 2
#     Edge 15, Type (0, 1), BuildingBlock: UVAHIK_clean_linker_0, # of connection points: 2
#     Edge 16, Type (0, 1), BuildingBlock: UVAHIK_clean_linker_0, # of connection points: 2
#     Edge 17, Type (0, 1), BuildingBlock: UVAHIK_clean_linker_0, # of connection points: 2
#     Edge 18, Type (0, 1), BuildingBlock: UVAHIK_clean_linker_0, # of connection points: 2
#     Edge 19, Type (0, 1), BuildingBlock: UVAHIK_clean_linker_0, # of connection points: 2
#     Edge 20, Type (0, 1), BuildingBlock: UVAHIK_clean_linker_0, # of connection points: 2
#     Edge 21, Type (0, 1), BuildingBlock: UVAHIK_clean_linker_0, # of connection points: 2
#     Edge 22, Type (0, 1), BuildingBlock: UVAHIK_clean_linker_0, # of connection points: 2
#     Edge 23, Type (0, 1), BuildingBlock: UVAHIK_clean_linker_0, # of connection points: 2
#     Edge 24, Type (0, 1), BuildingBlock: UVAHIK_clean_linker_0, # of connection points: 2
#     Edge 25, Type (0, 1), BuildingBlock: UVAHIK_clean_linker_0, # of connection points: 2
#     Edge 26, Type (0, 1), BuildingBlock: UVAHIK_clean_linker_0, # of connection points: 2
#     Edge 27, Type (0, 1), BuildingBlock: UVAHIK_clean_linker_0, # of connection points: 2
#     Edge 28, Type (0, 1), BuildingBlock: UVAHIK_clean_linker_0, # of connection points: 2
#     Edge 29, Type (0, 1), BuildingBlock: UVAHIK_clean_linker_0, # of connection points: 2
#     Edge 30, Type (0, 1), BuildingBlock: UVAHIK_clean_linker_0, # of connection points: 2
#     Edge 31, Type (0, 1), BuildingBlock: UVAHIK_clean_linker_0, # of connection points: 2
#     Edge 32, Type (0, 1), BuildingBlock: UVAHIK_clean_linker_0, # of connection points: 2
#     Edge 33, Type (0, 1), BuildingBlock: UVAHIK_clean_linker_0, # of connection points: 2
#     Edge 34, Type (0, 1), BuildingBlock: UVAHIK_clean_linker_0, # of connection points: 2
#     Edge 35, Type (0, 1), BuildingBlock: UVAHIK_clean_linker_0, # of connection points: 2
#     Edge 36, Type (0, 1), BuildingBlock: UVAHIK_clean_linker_0, # of connection points: 2
#     Edge 37, Type (0, 1), BuildingBlock: UVAHIK_clean_linker_0, # of connection points: 2
#     Edge 38, Type (0, 1), BuildingBlock: UVAHIK_clean_linker_0, # of connection points: 2
#     Edge 39, Type (0, 1), BuildingBlock: UVAHIK_clean_linker_0, # of connection points: 2
#     Edge 40, Type (0, 1), BuildingBlock: UVAHIK_clean_linker_0, # of connection points: 2
#     Edge 41, Type (0, 1), BuildingBlock: UVAHIK_clean_linker_0, # of connection points: 2
#     Edge 42, Type (0, 1), BuildingBlock: UVAHIK_clean_linker_0, # of connection points: 2
#     Edge 43, Type (0, 1), BuildingBlock: UVAHIK_clean_linker_0, # of connection points: 2
#     Edge 44, Type (0, 1), BuildingBlock: UVAHIK_clean_linker_0, # of connection points: 2
#     Edge 45, Type (0, 1), BuildingBlock: UVAHIK_clean_linker_0, # of connection points: 2
#     Edge 46, Type (0, 1), BuildingBlock: UVAHIK_clean_linker_0, # of connection points: 2
#     Edge 47, Type (0, 1), BuildingBlock: UVAHIK_clean_linker_0, # of connection points: 2
#     Edge 48, Type (0, 1), BuildingBlock: UVAHIK_clean_linker_0, # of connection points: 2
#     Edge 49, Type (0, 1), BuildingBlock: UVAHIK_clean_linker_0, # of connection points: 2
#     Edge 50, Type (0, 1), BuildingBlock: UVAHIK_clean_linker_0, # of connection points: 2
#     Edge 51, Type (0, 1), BuildingBlock: UVAHIK_clean_linker_0, # of connection points: 2
#     Edge 52, Type (0, 1), BuildingBlock: UVAHIK_clean_linker_0, # of connection points: 2
#     Edge 53, Type (0, 1), BuildingBlock: UVAHIK_clean_linker_0, # of connection points: 2
#     Edge 54, Type (0, 1), BuildingBlock: UVAHIK_clean_linker_0, # of connection points: 2
#     Edge 55, Type (0, 1), BuildingBlock: UVAHIK_clean_linker_0, # of connection points: 2
#     Edge 56, Type (0, 1), BuildingBlock: UVAHIK_clean_linker_0, # of connection points: 2
#     Edge 57, Type (0, 1), BuildingBlock: UVAHIK_clean_linker_0, # of connection points: 2
#     Edge 58, Type (0, 1), BuildingBlock: UVAHIK_clean_linker_0, # of connection points: 2
#     Edge 59, Type (0, 1), BuildingBlock: UVAHIK_clean_linker_0, # of connection points: 2
#     Edge 60, Type (0, 1), BuildingBlock: UVAHIK_clean_linker_0, # of connection points: 2
#     Edge 61, Type (0, 1), BuildingBlock: UVAHIK_clean_linker_0, # of connection points: 2
# Relax obj value: 0.057
# Max RMSD: 0.175
# Mean RMSD: 0.097
data_MOF--net-ocu--node1-KUMBOL_clean_sbu_1--node2-TAGTUT_clean_sbu_1--edge1-UVAHIK_clean_linker_0
_symmetry_space_group_name_H-M    P1
_symmetry_Int_Tables_number       1
_symmetry_cell_setting            triclinic
loop_
_symmetry_equiv_pos_as_xyz
'x, y, z'
_cell_length_a     51.072317
_cell_length_b     48.843231
_cell_length_c     54.104034
_cell_angle_alpha  98.252256
_cell_angle_beta   83.944284
_cell_angle_gamma 110.49486
loop_
_atom_site_label
_atom_site_type_symbol
_atom_site_fract_x
_atom_site_fract_y
_atom_site_fract_z
_atom_type_partial_charge
C0 C 0.30292 0.32015 0.30625 0.0
C1 C 0.2785 0.31174 0.34707 0.0
C2 C 0.28441 0.30123 0.32223 0.0
C3 C 0.29025 0.34182 0.35532 0.0
C4 C 0.31557 0.35021 0.3149 0.0
C5 C 0.3086 0.36103 0.33924 0.0
N6 N 0.31008 0.30882 0.28305 0.0
C7 C 0.33179 0.32596 0.26886 0.0
C8 C 0.33576 0.36833 0.29925 0.0
C9 C 0.34424 0.35603 0.27632 0.0
Gd10 Gd 0.22977 0.24259 0.22208 0.0
Gd11 Gd 0.28684 0.25772 0.27318 0.0
N12 N 0.27286 0.27227 0.31372 0.0
C13 C 0.26148 0.29152 0.36306 0.0
C14 C 0.25754 0.25221 0.32947 0.0
C15 C 0.25128 0.26156 0.35432 0.0
H16 H 0.25018 0.22904 0.32272 0.0
H17 H 0.23869 0.24571 0.3667 0.0
H18 H 0.27341 0.27286 0.17467 0.0
H19 H 0.3404 0.31666 0.25209 0.0
H20 H 0.28847 0.25691 0.13195 0.0
H21 H 0.25659 0.29873 0.38232 0.0
H22 H 0.28575 0.35037 0.37427 0.0
H23 H 0.17833 0.18278 0.24225 0.0
H24 H 0.34586 0.39153 0.30519 0.0
H25 H 0.36092 0.36955 0.26466 0.0
H26 H 0.23323 0.15454 0.11838 0.0
H27 H 0.31801 0.38407 0.34609 0.0
H28 H 0.16833 0.11148 0.18423 0.0
H29 H 0.15519 0.13102 0.22657 0.0
N30 N 0.20647 0.19237 0.21004 0.0
C31 C 0.21299 0.1825 0.18616 0.0
C32 C 0.18538 0.17449 0.22421 0.0
C33 C 0.17904 0.13425 0.19119 0.0
C34 C 0.17169 0.14514 0.21516 0.0
C35 C 0.19968 0.153 0.17627 0.0
H36 H 0.19727 0.12055 0.14398 0.0
N37 N 0.24602 0.23026 0.18146 0.0
C38 C 0.23327 0.2019 0.17152 0.0
C39 C 0.26112 0.21194 0.13276 0.0
C40 C 0.24072 0.19197 0.14692 0.0
C41 C 0.26504 0.25007 0.1674 0.0
C42 C 0.27317 0.24115 0.14298 0.0
O43 O 0.24826 0.27062 0.28546 0.0
O44 O 0.23672 0.28389 0.25023 0.0
O45 O 0.21333 0.26059 0.19446 0.0
O46 O 0.18588 0.23682 0.22418 0.0
O47 O 0.25089 0.21438 0.2693 0.0
O48 O 0.21384 0.22616 0.25932 0.0
O49 O 0.25714 0.21289 0.21765 0.0
O50 O 0.29967 0.24016 0.23435 0.0
O51 O 0.2962 0.22243 0.28706 0.0
O52 O 0.32467 0.26732 0.29201 0.0
O53 O 0.26591 0.28552 0.22158 0.0
O54 O 0.30274 0.27662 0.23654 0.0
C55 C 0.23638 0.2855 0.27481 0.0
C56 C 0.22426 0.21164 0.27182 0.0
C57 C 0.16292 0.25255 0.19508 0.0
C58 C 0.13964 0.27857 0.17489 0.0
C59 C 0.11259 0.2325 0.19128 0.0
C60 C 0.13691 0.23057 0.19918 0.0
C61 C 0.11387 0.25644 0.17939 0.0
C62 C 0.16434 0.27643 0.18247 0.0
C63 C 0.18802 0.25029 0.20457 0.0
C64 C 0.22768 0.16253 0.13722 0.0
C65 C 0.20721 0.14315 0.15182 0.0
H66 H 0.26745 0.20514 0.11381 0.0
C67 C 0.28449 0.219 0.21828 0.0
C68 C 0.29279 0.29041 0.2227 0.0
C69 C 0.34406 0.23039 0.29271 0.0
C70 C 0.36964 0.20275 0.30765 0.0
C71 C 0.39162 0.23662 0.27651 0.0
C72 C 0.36732 0.24351 0.27683 0.0
C73 C 0.39285 0.21647 0.29181 0.0
C74 C 0.34525 0.20999 0.30806 0.0
C75 C 0.31978 0.24026 0.29572 0.0
H76 H 0.09263 0.2155 0.19458 0.0
H77 H 0.13536 0.21185 0.20856 0.0
H78 H 0.09468 0.25774 0.17365 0.0
H79 H 0.18426 0.29359 0.17927 0.0
H80 H 0.4097 0.24723 0.26461 0.0
H81 H 0.36695 0.25962 0.26514 0.0
H82 H 0.41221 0.21199 0.29156 0.0
H83 H 0.32734 0.20008 0.32049 0.0
C84 C 0.81936 0.21788 0.19228 0.0
C85 C 0.86371 0.25842 0.19438 0.0
C86 C 0.83719 0.24319 0.20529 0.0
C87 C 0.87188 0.24819 0.17026 0.0
C88 C 0.82751 0.20767 0.16804 0.0
C89 C 0.85383 0.22297 0.15712 0.0
N90 N 0.79382 0.20368 0.20309 0.0
C91 C 0.77588 0.17865 0.19123 0.0
C92 C 0.80886 0.18245 0.15542 0.0
C93 C 0.78298 0.16782 0.16712 0.0
Gd94 Gd 0.7336 0.27276 0.25048 0.0
Gd95 Gd 0.78378 0.22418 0.24302 0.0
N96 N 0.82835 0.25321 0.22832 0.0
C97 C 0.88122 0.28353 0.20802 0.0
C98 C 0.84596 0.27667 0.24222 0.0
C99 C 0.87242 0.29248 0.23215 0.0
H100 H 0.84021 0.28289 0.2613 0.0
H101 H 0.88616 0.31132 0.24314 0.0
H102 H 0.67865 0.21452 0.22815 0.0
H103 H 0.75639 0.1666 0.20057 0.0
H104 H 0.63193 0.18465 0.24358 0.0
H105 H 0.90175 0.29583 0.20028 0.0
H106 H 0.89214 0.25969 0.16156 0.0
H107 H 0.75921 0.32615 0.29653 0.0
H108 H 0.81435 0.17395 0.13673 0.0
H109 H 0.7686 0.14807 0.15768 0.0
H110 H 0.62089 0.23114 0.32633 0.0
H111 H 0.86045 0.21545 0.1385 0.0
H112 H 0.69672 0.31561 0.35701 0.0
H113 H 0.74398 0.34238 0.33918 0.0
N114 N 0.72164 0.28976 0.29095 0.0
C115 C 0.69543 0.27491 0.30012 0.0
C116 C 0.73894 0.31382 0.30446 0.0
C117 C 0.70346 0.30817 0.33841 0.0
C118 C 0.7302 0.32329 0.32847 0.0
C119 C 0.68569 0.28371 0.32422 0.0
H120 H 0.65086 0.27419 0.35196 0.0
N121 N 0.68874 0.24179 0.26262 0.0
C122 C 0.67856 0.25027 0.28562 0.0
C123 C 0.6348 0.21006 0.27979 0.0
C124 C 0.65143 0.23433 0.29492 0.0
C125 C 0.67197 0.21926 0.24726 0.0
C126 C 0.64501 0.20271 0.25576 0.0
O127 O 0.78531 0.25105 0.21146 0.0
O128 O 0.77517 0.29204 0.22968 0.0
O129 O 0.70881 0.27962 0.22323 0.0
O130 O 0.72642 0.3142 0.25285 0.0
O131 O 0.78964 0.26086 0.275 0.0
O132 O 0.77768 0.29722 0.26097 0.0
O133 O 0.73416 0.24695 0.28214 0.0
O134 O 0.74144 0.20523 0.26242 0.0
O135 O 0.80603 0.21795 0.27282 0.0
O136 O 0.7934 0.18422 0.24157 0.0
O137 O 0.72996 0.23831 0.21742 0.0
O138 O 0.73972 0.2006 0.23127 0.0
C139 C 0.78802 0.2789 0.21223 0.0
C140 C 0.79166 0.28855 0.27539 0.0
C141 C 0.72145 0.32854 0.2143 0.0
C142 C 0.70793 0.35243 0.18359 0.0
C143 C 0.75648 0.36842 0.1947 0.0
C144 C 0.74933 0.34718 0.21127 0.0
C145 C 0.73597 0.37124 0.18109 0.0
C146 C 0.70099 0.33093 0.20022 0.0
C147 C 0.71304 0.30688 0.23241 0.0
C148 C 0.64166 0.24317 0.31889 0.0
C149 C 0.65872 0.26774 0.33348 0.0
H150 H 0.61383 0.1973 0.28627 0.0
C151 C 0.72986 0.21867 0.28069 0.0
C152 C 0.72774 0.21051 0.21593 0.0
C153 C 0.79644 0.16857 0.28006 0.0
C154 C 0.80995 0.14286 0.30946 0.0
C155 C 0.76217 0.12539 0.29599 0.0
C156 C 0.76905 0.14834 0.28118 0.0
C157 C 0.78242 0.12248 0.30987 0.0
C158 C 0.8167 0.16595 0.29438 0.0
C159 C 0.80468 0.19153 0.26306 0.0
H160 H 0.77794 0.38302 0.19263 0.0
H161 H 0.76544 0.34555 0.22189 0.0
H162 H 0.74206 0.38855 0.169 0.0
H163 H 0.67965 0.31598 0.20235 0.0
H164 H 0.74112 0.10956 0.29649 0.0
H165 H 0.75315 0.15001 0.2703 0.0
H166 H 0.77654 0.10396 0.32062 0.0
H167 H 0.83769 0.18195 0.29368 0.0
C168 C 0.82239 0.80041 0.1866 0.0
C169 C 0.81548 0.77021 0.14618 0.0
C170 C 0.80527 0.77749 0.17056 0.0
C171 C 0.84314 0.78562 0.13821 0.0
C172 C 0.85012 0.81604 0.17833 0.0
C173 C 0.86041 0.8083 0.15425 0.0
N174 N 0.81183 0.80797 0.20978 0.0
C175 C 0.8273 0.83229 0.22457 0.0
C176 C 0.86661 0.83949 0.19426 0.0
C177 C 0.85504 0.84781 0.21735 0.0
Gd178 Gd 0.75312 0.72193 0.27297 0.0
Gd179 Gd 0.7647 0.77934 0.21826 0.0
N180 N 0.77889 0.76183 0.17895 0.0
C181 C 0.79762 0.74741 0.13058 0.0
C182 C 0.76095 0.74059 0.16355 0.0
C183 C 0.77017 0.73272 0.13923 0.0
H184 H 0.7395 0.7301 0.16998 0.0
H185 H 0.75604 0.71556 0.1271 0.0
H186 H 0.77852 0.76881 0.32233 0.0
H187 H 0.8185 0.84062 0.24174 0.0
H188 H 0.76195 0.78247 0.3654 0.0
H189 H 0.80473 0.7412 0.11173 0.0
H190 H 0.8514 0.78017 0.11961 0.0
H191 H 0.69936 0.6609 0.24888 0.0
H192 H 0.88801 0.85188 0.1886 0.0
H193 H 0.86731 0.86664 0.22938 0.0
H194 H 0.66593 0.71935 0.3715 0.0
H195 H 0.88166 0.82006 0.14769 0.0
H196 H 0.62935 0.64943 0.30145 0.0
H197 H 0.65035 0.63508 0.26069 0.0
N198 N 0.7058 0.69336 0.28099 0.0
C199 C 0.69507 0.70063 0.30418 0.0
C200 C 0.6904 0.66919 0.26599 0.0
C201 C 0.65082 0.66184 0.29598 0.0
C202 C 0.66255 0.65373 0.27291 0.0
C203 C 0.66727 0.68496 0.31221 0.0
H204 H 0.63559 0.68041 0.34277 0.0
N205 N 0.7388 0.73852 0.31255 0.0
C206 C 0.71222 0.72304 0.32058 0.0
C207 C 0.72 0.75171 0.36118 0.0
C208 C 0.70197 0.72973 0.34509 0.0
C209 C 0.7569 0.75878 0.32844 0.0
C210 C 0.74767 0.76608 0.35289 0.0
O211 O 0.78567 0.74375 0.20962 0.0
O212 O 0.77392 0.70717 0.2368 0.0
O213 O 0.78759 0.71858 0.29194 0.0
O214 O 0.74753 0.68338 0.29058 0.0
O215 O 0.7263 0.74257 0.22912 0.0
O216 O 0.73456 0.70198 0.23662 0.0
O217 O 0.7327 0.75778 0.28241 0.0
O218 O 0.74259 0.79315 0.25428 0.0
O219 O 0.73117 0.78088 0.19719 0.0
O220 O 0.76902 0.81867 0.20212 0.0
O221 O 0.79147 0.7602 0.26393 0.0
O222 O 0.78285 0.79999 0.25441 0.0
C223 C 0.78719 0.71927 0.2165 0.0
C224 C 0.72394 0.71509 0.22309 0.0
C225 C 0.78647 0.66953 0.29334 0.0
C226 C 0.8161 0.64617 0.30816 0.0
C227 C 0.78829 0.62292 0.27211 0.0
C228 C 0.77811 0.64618 0.27413 0.0
C229 C 0.80717 0.62287 0.28895 0.0
C230 C 0.80543 0.66943 0.31038 0.0
C231 C 0.77305 0.69211 0.29744 0.0
C232 C 0.6742 0.71437 0.3528 0.0
C233 C 0.65689 0.69222 0.33639 0.0
H234 H 0.71289 0.7574 0.38016 0.0
C235 C 0.73036 0.78169 0.27519 0.0
C236 C 0.79284 0.78761 0.26913 0.0
C237 C 0.72773 0.82824 0.19964 0.0
C238 C 0.69617 0.85069 0.18711 0.0
C239 C 0.71475 0.86485 0.22844 0.0
C240 C 0.72962 0.84545 0.22291 0.0
C241 C 0.69801 0.8674 0.21072 0.0
C242 C 0.71121 0.83109 0.18163 0.0
C243 C 0.74403 0.80843 0.19379 0.0
H244 H 0.7813 0.60471 0.25759 0.0
H245 H 0.76317 0.64555 0.26106 0.0
H246 H 0.81449 0.60434 0.28719 0.0
H247 H 0.81165 0.68723 0.3254 0.0
H248 H 0.7164 0.8781 0.24643 0.0
H249 H 0.74299 0.84419 0.2366 0.0
H250 H 0.68684 0.88284 0.21531 0.0
H251 H 0.71 0.81805 0.16351 0.0
C252 C 0.27038 0.69464 0.30255 0.0
C253 C 0.23933 0.64463 0.29155 0.0
C254 C 0.25505 0.6729 0.28474 0.0
C255 C 0.23852 0.63883 0.31635 0.0
C256 C 0.26998 0.68868 0.32735 0.0
C257 C 0.25383 0.66073 0.33417 0.0
N258 N 0.28508 0.72189 0.29575 0.0
C259 C 0.30098 0.74362 0.31224 0.0
C260 C 0.28576 0.71106 0.3446 0.0
C261 C 0.30147 0.73857 0.33696 0.0
Gd262 Gd 0.22884 0.76553 0.2398 0.0
Gd263 Gd 0.28339 0.72791 0.25399 0.0
N264 N 0.256 0.67914 0.2608 0.0
C265 C 0.22535 0.62277 0.2731 0.0
C266 C 0.24451 0.65701 0.24242 0.0
C267 C 0.22839 0.62886 0.24837 0.0
H268 H 0.24842 0.66026 0.22295 0.0
H269 H 0.21886 0.61167 0.23374 0.0
H270 H 0.26996 0.83405 0.2644 0.0
H271 H 0.31325 0.76479 0.30626 0.0
H272 H 0.29827 0.8808 0.24924 0.0
H273 H 0.21306 0.60081 0.27759 0.0
H274 H 0.22642 0.61729 0.32188 0.0
H275 H 0.19138 0.7252 0.19234 0.0
H276 H 0.28607 0.70727 0.3638 0.0
H277 H 0.31393 0.75588 0.35011 0.0
H278 H 0.27708 0.86842 0.16334 0.0
H279 H 0.25315 0.65578 0.35316 0.0
H280 H 0.21131 0.7765 0.13065 0.0
H281 H 0.18516 0.72993 0.14856 0.0
N282 N 0.22145 0.76794 0.19845 0.0
C283 C 0.23531 0.79413 0.18937 0.0
C284 C 0.20325 0.74527 0.1844 0.0
C285 C 0.2142 0.77443 0.14977 0.0
C286 C 0.19948 0.74806 0.15977 0.0
C287 C 0.23233 0.79791 0.16459 0.0
H288 H 0.2457 0.82807 0.13633 0.0
N289 N 0.25577 0.81268 0.2286 0.0
C290 C 0.25319 0.81696 0.20473 0.0
C291 C 0.28532 0.86693 0.21154 0.0
C292 C 0.26825 0.8441 0.1955 0.0
C293 C 0.27066 0.83572 0.24477 0.0
C294 C 0.28615 0.86285 0.23638 0.0
O295 O 0.25148 0.73289 0.28495 0.0
O296 O 0.21419 0.72673 0.26224 0.0
O297 O 0.20779 0.79574 0.25553 0.0
O298 O 0.18335 0.75227 0.23946 0.0
O299 O 0.26031 0.7106 0.21817 0.0
O300 O 0.21805 0.71679 0.23029 0.0
O301 O 0.26146 0.7627 0.20876 0.0
O302 O 0.29898 0.76554 0.23023 0.0
O303 O 0.30726 0.69993 0.23921 0.0
O304 O 0.32828 0.74259 0.25886 0.0
O305 O 0.25305 0.78441 0.27486 0.0
O306 O 0.29465 0.77669 0.26268 0.0
C307 C 0.22453 0.72342 0.28232 0.0
C308 C 0.23346 0.70438 0.21514 0.0
C309 C 0.16574 0.7719 0.27725 0.0
C310 C 0.16227 0.78814 0.32178 0.0
C311 C 0.12034 0.75936 0.29955 0.0
C312 C 0.13664 0.75876 0.27721 0.0
C313 C 0.1329 0.77476 0.32157 0.0
C314 C 0.17837 0.78389 0.29996 0.0
C315 C 0.183 0.77592 0.2537 0.0
C316 C 0.26555 0.84777 0.17073 0.0
C317 C 0.24762 0.8248 0.15536 0.0
H318 H 0.29722 0.88808 0.20516 0.0
C319 C 0.28848 0.77096 0.2111 0.0
C320 C 0.27989 0.79016 0.27749 0.0
C321 C 0.3505 0.72784 0.2217 0.0
C322 C 0.35768 0.71941 0.17642 0.0
C323 C 0.39749 0.74309 0.20258 0.0
C324 C 0.3794 0.74012 0.22403 0.0
C325 C 0.38685 0.73199 0.17896 0.0
C326 C 0.33991 0.72036 0.19785 0.0
C327 C 0.33113 0.72054 0.24372 0.0
H328 H 0.09778 0.74948 0.29948 0.0
H329 H 0.12658 0.74877 0.2599 0.0
H330 H 0.11938 0.77738 0.33784 0.0
H331 H 0.20099 0.7922 0.30012 0.0
H332 H 0.41989 0.75234 0.20437 0.0
H333 H 0.3879 0.74676 0.24233 0.0
H334 H 0.40164 0.73187 0.16314 0.0
H335 H 0.31748 0.71288 0.19623 0.0
C336 C 0.31589 0.71095 0.69441 0.0
C337 C 0.36193 0.74819 0.69925 0.0
C338 C 0.33444 0.73419 0.70887 0.0
C339 C 0.37041 0.73874 0.67497 0.0
C340 C 0.3243 0.70151 0.67002 0.0
C341 C 0.35167 0.7155 0.66041 0.0
N342 N 0.28926 0.69841 0.70384 0.0
C343 C 0.27028 0.67575 0.69042 0.0
C344 C 0.30481 0.67853 0.6559 0.0
C345 C 0.2777 0.66553 0.66619 0.0
Gd346 Gd 0.23821 0.77715 0.75065 0.0
Gd347 Gd 0.27829 0.71814 0.74369 0.0
N348 N 0.3253 0.74363 0.732 0.0
C349 C 0.38008 0.77135 0.71427 0.0
C350 C 0.34334 0.76516 0.74718 0.0
C351 C 0.37082 0.77963 0.73844 0.0
H352 H 0.33705 0.77099 0.76621 0.0
H353 H 0.38493 0.79698 0.75044 0.0
H354 H 0.18019 0.72463 0.72607 0.0
H355 H 0.24955 0.66532 0.69857 0.0
H356 H 0.13166 0.69893 0.74011 0.0
H357 H 0.40137 0.78266 0.70755 0.0
H358 H 0.39143 0.74931 0.66724 0.0
H359 H 0.26597 0.82743 0.79791 0.0
H360 H 0.31048 0.67065 0.63707 0.0
H361 H 0.26255 0.64764 0.65551 0.0
H362 H 0.12199 0.74546 0.82313 0.0
H363 H 0.35852 0.70859 0.64168 0.0
H364 H 0.20215 0.82213 0.85682 0.0
H365 H 0.25117 0.8444 0.84055 0.0
N366 N 0.22623 0.79512 0.79083 0.0
C367 C 0.19905 0.78294 0.79907 0.0
C368 C 0.24481 0.8171 0.80518 0.0
C369 C 0.20863 0.81446 0.8382 0.0
C370 C 0.23636 0.82701 0.82915 0.0
C371 C 0.18959 0.79216 0.82314 0.0
H372 H 0.15403 0.78528 0.85006 0.0
N373 N 0.19096 0.75094 0.76093 0.0
C374 C 0.18098 0.76014 0.78379 0.0
C375 C 0.13525 0.72382 0.77658 0.0
C376 C 0.15295 0.74647 0.79233 0.0
C377 C 0.17334 0.73 0.745 0.0
C378 C 0.14543 0.71578 0.75272 0.0
O379 O 0.28502 0.74659 0.71217 0.0
O380 O 0.28174 0.79006 0.73225 0.0
O381 O 0.21873 0.79191 0.72324 0.0
O382 O 0.24178 0.82274 0.75357 0.0
O383 O 0.28594 0.75234 0.77739 0.0
O384 O 0.28215 0.79281 0.76286 0.0
O385 O 0.23165 0.74906 0.78247 0.0
O386 O 0.2345 0.70639 0.76094 0.0
O387 O 0.29743 0.70499 0.77255 0.0
O388 O 0.27448 0.6727 0.74289 0.0
O389 O 0.2311 0.74363 0.71642 0.0
O390 O 0.23454 0.70291 0.73081 0.0
C391 C 0.29145 0.77521 0.71368 0.0
C392 C 0.29045 0.78071 0.77921 0.0
C393 C 0.22214 0.84361 0.72555 0.0
C394 C 0.20275 0.86398 0.69621 0.0
C395 C 0.22914 0.89583 0.73057 0.0
C396 C 0.23319 0.87185 0.73853 0.0
C397 C 0.21412 0.89201 0.70957 0.0
C398 C 0.20667 0.83967 0.70442 0.0
C399 C 0.22751 0.81887 0.73409 0.0
C400 C 0.14345 0.75578 0.81626 0.0
C401 C 0.16169 0.77852 0.8316 0.0
H402 H 0.11358 0.71279 0.78247 0.0
C403 C 0.22614 0.72055 0.78079 0.0
C404 C 0.22687 0.71526 0.71417 0.0
C405 C 0.29211 0.65305 0.7733 0.0
C406 C 0.31602 0.63415 0.79987 0.0
C407 C 0.27572 0.6009 0.77802 0.0
C408 C 0.2733 0.62437 0.76766 0.0
C409 C 0.29691 0.60573 0.79406 0.0
C410 C 0.3136 0.65792 0.78949 0.0
C411 C 0.28814 0.67753 0.76294 0.0
H412 H 0.23766 0.91747 0.74076 0.0
H413 H 0.24509 0.87551 0.75486 0.0
H414 H 0.211 0.91102 0.70397 0.0
H415 H 0.19807 0.818 0.69425 0.0
H416 H 0.2611 0.5789 0.7736 0.0
H417 H 0.25646 0.62008 0.75546 0.0
H418 H 0.29862 0.58719 0.80179 0.0
H419 H 0.32832 0.67991 0.79394 0.0
C420 C 0.31609 0.29284 0.68541 0.0
C421 C 0.3048 0.26147 0.64597 0.0
C422 C 0.29671 0.27069 0.67056 0.0
C423 C 0.33232 0.27477 0.63637 0.0
C424 C 0.34365 0.30638 0.67558 0.0
C425 C 0.35163 0.29715 0.65108 0.0
N426 N 0.30809 0.30103 0.70936 0.0
C427 C 0.32591 0.32417 0.72354 0.0
C428 C 0.3624 0.32897 0.69059 0.0
C429 C 0.35339 0.33809 0.71456 0.0
Gd430 Gd 0.25103 0.21921 0.77217 0.0
Gd431 Gd 0.26091 0.27657 0.72108 0.0
N432 N 0.27028 0.25751 0.68045 0.0
C433 C 0.28499 0.23897 0.63177 0.0
C434 C 0.25067 0.23629 0.6665 0.0
C435 C 0.25778 0.22646 0.64203 0.0
H436 H 0.22947 0.22738 0.67406 0.0
H437 H 0.24224 0.20941 0.63104 0.0
H438 H 0.2802 0.25994 0.82286 0.0
H439 H 0.31907 0.33273 0.74158 0.0
H440 H 0.26555 0.27406 0.86657 0.0
H441 H 0.29044 0.23126 0.6128 0.0
H442 H 0.33891 0.26792 0.61752 0.0
H443 H 0.1953 0.15982 0.75058 0.0
H444 H 0.38371 0.3399 0.68367 0.0
H445 H 0.36748 0.35615 0.72601 0.0
H446 H 0.16593 0.22487 0.87133 0.0
H447 H 0.37274 0.30725 0.6433 0.0
H448 H 0.12515 0.1566 0.80168 0.0
H449 H 0.14528 0.13811 0.76204 0.0
N450 N 0.20302 0.19416 0.78113 0.0
C451 C 0.19286 0.20321 0.80396 0.0
C452 C 0.18665 0.16984 0.76695 0.0
C453 C 0.14703 0.16722 0.79618 0.0
C454 C 0.15828 0.15677 0.77376 0.0
C455 C 0.16454 0.18994 0.81202 0.0
H456 H 0.13316 0.18886 0.84244 0.0
N457 N 0.23867 0.23604 0.81253 0.0
C458 C 0.21129 0.22403 0.82032 0.0
C459 C 0.2217 0.2501 0.86161 0.0
C460 C 0.20198 0.23142 0.84499 0.0
C461 C 0.25829 0.25266 0.82896 0.0
C462 C 0.25006 0.26035 0.85367 0.0
O463 O 0.28639 0.24502 0.71352 0.0
O464 O 0.26459 0.20253 0.73318 0.0
O465 O 0.28653 0.21194 0.78644 0.0
O466 O 0.24445 0.18129 0.791 0.0
O467 O 0.21961 0.23975 0.72368 0.0
O468 O 0.22968 0.20129 0.73619 0.0
O469 O 0.24046 0.26109 0.78515 0.0
O470 O 0.22435 0.27065 0.75038 0.0
O471 O 0.24011 0.29085 0.69432 0.0
O472 O 0.26592 0.32248 0.72288 0.0
O473 O 0.29141 0.25464 0.7629 0.0
O474 O 0.28072 0.29469 0.75735 0.0
C475 C 0.28226 0.21713 0.71591 0.0
C476 C 0.21523 0.21161 0.72358 0.0
C477 C 0.28063 0.16242 0.79275 0.0
C478 C 0.3087 0.13794 0.80887 0.0
C479 C 0.27265 0.11072 0.77961 0.0
C480 C 0.26636 0.13599 0.77842 0.0
C481 C 0.29341 0.11155 0.79479 0.0
C482 C 0.30193 0.16339 0.80781 0.0
C483 C 0.27062 0.18756 0.79505 0.0
C484 C 0.17355 0.2192 0.85254 0.0
C485 C 0.15487 0.19869 0.83606 0.0
H486 H 0.21536 0.2561 0.88077 0.0
C487 C 0.22518 0.27281 0.77488 0.0
C488 C 0.29497 0.28258 0.7681 0.0
C489 C 0.24618 0.34306 0.69466 0.0
C490 C 0.21816 0.36367 0.67415 0.0
C491 C 0.26206 0.39552 0.69138 0.0
C492 C 0.26603 0.37137 0.69921 0.0
C493 C 0.23819 0.39176 0.67907 0.0
C494 C 0.22229 0.33917 0.68178 0.0
C495 C 0.2506 0.31819 0.70395 0.0
H496 H 0.26103 0.09024 0.76903 0.0
H497 H 0.24966 0.13459 0.76696 0.0
H498 H 0.29717 0.09126 0.79575 0.0
H499 H 0.31284 0.1838 0.81891 0.0
H500 H 0.27744 0.41725 0.69504 0.0
H501 H 0.28468 0.37487 0.70886 0.0
H502 H 0.23529 0.41085 0.67338 0.0
H503 H 0.20673 0.31748 0.67826 0.0
C504 C 0.77861 0.18575 0.79535 0.0
C505 C 0.75438 0.13543 0.7783 0.0
C506 C 0.7675 0.16544 0.77503 0.0
C507 C 0.75192 0.12638 0.8022 0.0
C508 C 0.77703 0.17663 0.81918 0.0
C509 C 0.76332 0.14688 0.82255 0.0
N510 N 0.79088 0.21459 0.79179 0.0
C511 C 0.80409 0.23503 0.81053 0.0
C512 C 0.7895 0.19767 0.83886 0.0
C513 C 0.80338 0.22693 0.83442 0.0
Gd514 Gd 0.73006 0.25827 0.74564 0.0
Gd515 Gd 0.79093 0.22616 0.75135 0.0
N516 N 0.77039 0.17481 0.752 0.0
C517 C 0.74467 0.11527 0.75735 0.0
C518 C 0.76307 0.1548 0.73129 0.0
C519 C 0.74946 0.12495 0.73371 0.0
H520 H 0.76814 0.16133 0.7127 0.0
H521 H 0.74312 0.10934 0.71725 0.0
H522 H 0.75627 0.32518 0.77852 0.0
H523 H 0.81496 0.25757 0.807 0.0
H524 H 0.7739 0.37693 0.77062 0.0
H525 H 0.73438 0.09205 0.75909 0.0
H526 H 0.74174 0.10345 0.80505 0.0
H527 H 0.69444 0.21991 0.6951 0.0
H528 H 0.78888 0.19148 0.85742 0.0
H529 H 0.81352 0.24322 0.84939 0.0
H530 H 0.75277 0.37386 0.68574 0.0
H531 H 0.76169 0.13945 0.84077 0.0
H532 H 0.70321 0.28015 0.64225 0.0
H533 H 0.68552 0.22942 0.6539 0.0
N534 N 0.71869 0.26449 0.70625 0.0
C535 C 0.72728 0.29274 0.70075 0.0
C536 C 0.7032 0.24199 0.69002 0.0
C537 C 0.70756 0.27606 0.66029 0.0
C538 C 0.69765 0.24737 0.66675 0.0
C539 C 0.72231 0.29922 0.67744 0.0
H540 H 0.72851 0.33391 0.65422 0.0
N541 N 0.74434 0.3086 0.74123 0.0
C542 C 0.74057 0.31541 0.71868 0.0
C543 C 0.76244 0.3672 0.73231 0.0
C544 C 0.74976 0.34493 0.71355 0.0
C545 C 0.75516 0.33032 0.76006 0.0
C546 C 0.76483 0.35985 0.75576 0.0
O547 O 0.75748 0.22497 0.78225 0.0
O548 O 0.72314 0.21355 0.75604 0.0
O549 O 0.70554 0.26096 0.78 0.0
O550 O 0.68668 0.25437 0.74445 0.0
O551 O 0.76809 0.20936 0.71483 0.0
O552 O 0.72422 0.21375 0.72413 0.0
O553 O 0.77287 0.28287 0.72893 0.0
O554 O 0.79053 0.24553 0.7161 0.0
O555 O 0.82327 0.2064 0.74405 0.0
O556 O 0.83485 0.25363 0.75183 0.0
O557 O 0.75591 0.27629 0.77978 0.0
O558 O 0.7994 0.27359 0.76601 0.0
C559 C 0.73128 0.212 0.77754 0.0
C560 C 0.74146 0.20252 0.7101 0.0
C561 C 0.66673 0.27617 0.77952 0.0
C562 C 0.6541 0.30584 0.81509 0.0
C563 C 0.62733 0.29246 0.77802 0.0
C564 C 0.64466 0.27715 0.76665 0.0
C565 C 0.63193 0.30673 0.80221 0.0
C566 C 0.67137 0.29059 0.80375 0.0
C567 C 0.68319 0.25794 0.76872 0.0
C568 C 0.74571 0.35133 0.69006 0.0
C569 C 0.73191 0.32856 0.6721 0.0
H570 H 0.76986 0.39013 0.72907 0.0
C571 C 0.79029 0.27206 0.71489 0.0
C572 C 0.78332 0.28524 0.7811 0.0
C573 C 0.85697 0.23506 0.71721 0.0
C574 C 0.85309 0.22317 0.67223 0.0
C575 C 0.89702 0.2559 0.68928 0.0
C576 C 0.885 0.25263 0.71361 0.0
C577 C 0.88133 0.24097 0.66865 0.0
C578 C 0.84096 0.22167 0.69652 0.0
C579 C 0.8429 0.23175 0.74209 0.0
H580 H 0.61043 0.29338 0.76805 0.0
H581 H 0.64061 0.26581 0.74797 0.0
H582 H 0.61879 0.31928 0.81052 0.0
H583 H 0.68839 0.29012 0.81392 0.0
H584 H 0.91876 0.26935 0.6864 0.0
H585 H 0.89738 0.26386 0.72947 0.0
H586 H 0.89167 0.24234 0.65012 0.0
H587 H 0.81899 0.20896 0.69938 0.0
C588 C 0.80646 0.81016 0.80749 0.0
C589 C 0.78215 0.79882 0.84792 0.0
C590 C 0.78763 0.79006 0.82246 0.0
C591 C 0.79575 0.82789 0.85818 0.0
C592 C 0.82029 0.83935 0.81794 0.0
C593 C 0.8147 0.84809 0.84323 0.0
N594 N 0.81133 0.80124 0.7829 0.0
C595 C 0.83167 0.8198 0.76858 0.0
C596 C 0.83958 0.85891 0.80274 0.0
C597 C 0.84554 0.84897 0.77807 0.0
Gd598 Gd 0.72931 0.74023 0.71781 0.0
Gd599 Gd 0.78574 0.75152 0.7697 0.0
N600 N 0.77376 0.76233 0.8119 0.0
C601 C 0.76255 0.77826 0.86218 0.0
C602 C 0.75508 0.74206 0.82578 0.0
C603 C 0.74904 0.74974 0.85108 0.0
H604 H 0.74527 0.71985 0.81744 0.0
H605 H 0.73407 0.73363 0.86202 0.0
H606 H 0.76663 0.76718 0.66743 0.0
H607 H 0.83804 0.8124 0.74998 0.0
H608 H 0.77959 0.74862 0.62448 0.0
H609 H 0.75767 0.7842 0.88175 0.0
H610 H 0.79164 0.83503 0.87764 0.0
H611 H 0.67531 0.68178 0.73941 0.0
H612 H 0.8505 0.88149 0.81005 0.0
H613 H 0.8612 0.86366 0.76644 0.0
H614 H 0.73478 0.64386 0.62057 0.0
H615 H 0.82504 0.87043 0.85146 0.0
H616 H 0.67288 0.60525 0.68952 0.0
H617 H 0.65592 0.62855 0.72843 0.0
N618 N 0.7069 0.68879 0.70938 0.0
C619 C 0.71476 0.67676 0.68673 0.0
C620 C 0.68476 0.67204 0.72344 0.0
C621 C 0.68245 0.62869 0.69478 0.0
C622 C 0.67292 0.64173 0.71683 0.0
C623 C 0.70291 0.64632 0.67901 0.0
H624 H 0.70217 0.61124 0.64931 0.0
N625 N 0.74406 0.72448 0.6778 0.0
C626 C 0.73324 0.69514 0.6703 0.0
C627 C 0.75741 0.7031 0.62966 0.0
C628 C 0.74021 0.6836 0.64613 0.0
C629 C 0.75954 0.7438 0.66148 0.0
C630 C 0.76676 0.73337 0.63724 0.0
O631 O 0.75516 0.77736 0.78165 0.0
O632 O 0.71954 0.76593 0.75398 0.0
O633 O 0.72192 0.77225 0.69785 0.0
O634 O 0.68945 0.73042 0.70195 0.0
O635 O 0.74761 0.71046 0.76724 0.0
O636 O 0.71177 0.72282 0.75495 0.0
O637 O 0.76869 0.72836 0.70585 0.0
O638 O 0.77543 0.71095 0.74057 0.0
O639 O 0.80026 0.72819 0.79389 0.0
O640 O 0.82815 0.75135 0.76459 0.0
O641 O 0.76452 0.78375 0.72426 0.0
O642 O 0.80149 0.77154 0.73376 0.0
C643 C 0.73183 0.77979 0.77487 0.0
C644 C 0.72141 0.70923 0.76924 0.0
C645 C 0.6753 0.77062 0.69931 0.0
C646 C 0.65119 0.80073 0.68649 0.0
C647 C 0.64021 0.78347 0.72752 0.0
C648 C 0.65946 0.76874 0.72219 0.0
C649 C 0.63617 0.79956 0.70981 0.0
C650 C 0.67092 0.78634 0.68131 0.0
C651 C 0.69613 0.75596 0.69391 0.0
C652 C 0.72942 0.65318 0.63897 0.0
C653 C 0.7109 0.63459 0.65539 0.0
H654 H 0.76316 0.69505 0.6109 0.0
C655 C 0.77901 0.7119 0.71622 0.0
C656 C 0.79117 0.78674 0.72189 0.0
C657 C 0.8496 0.73881 0.79644 0.0
C658 C 0.87522 0.71559 0.81716 0.0
C659 C 0.89873 0.76429 0.80403 0.0
C660 C 0.87397 0.7636 0.7948 0.0
C661 C 0.89947 0.74034 0.81486 0.0
C662 C 0.85019 0.71507 0.80817 0.0
C663 C 0.82506 0.73498 0.78248 0.0
H664 H 0.62822 0.78217 0.7453 0.0
H665 H 0.66194 0.75579 0.73585 0.0
H666 H 0.62084 0.81052 0.71406 0.0
H667 H 0.68267 0.78728 0.66335 0.0
H668 H 0.91758 0.7832 0.8023 0.0
H669 H 0.87414 0.78201 0.78566 0.0
H670 H 0.91904 0.74111 0.82149 0.0
H671 H 0.83167 0.69559 0.80907 0.0
C672 C 0.93457 0.03949 0.52874 0.0
C673 C 0.969 0.04385 0.45372 0.0
C674 C 0.96404 0.93283 0.46431 0.0
Mg675 Mg 0.99468 0.05391 0.50456 0.0
O676 O 0.98296 0.01337 0.50592 0.0
Mg677 Mg 0.94826 0.98741 0.48982 0.0
Mg678 Mg 0.00798 0.99141 0.49287 0.0
O679 O 0.03347 0.96934 0.48022 0.0
Mg680 Mg 0.01943 0.92709 0.48023 0.0
Mg681 Mg 0.06776 0.99742 0.49847 0.0
C682 C 0.04884 0.04947 0.52441 0.0
C683 C 0.05626 0.03187 0.45602 0.0
O684 O 0.92656 0.0149 0.51487 0.0
O685 O 0.95984 0.05746 0.52841 0.0
O686 O 0.95421 0.01809 0.4593 0.0
O687 O 0.98829 0.06124 0.46748 0.0
O688 O 0.03556 0.06619 0.5203 0.0
O689 O 0.03995 0.02172 0.51835 0.0
C690 C 0.96125 0.95258 0.53105 0.0
O691 O 0.98723 0.96121 0.52378 0.0
O692 O 0.94329 0.95948 0.52096 0.0
O693 O 0.06835 0.96144 0.46932 0.0
O694 O 0.04733 0.9176 0.45055 0.0
O695 O 0.06113 0.96573 0.52802 0.0
C696 C 0.06873 0.94081 0.45257 0.0
O697 O 0.0312 0.92068 0.51603 0.0
O698 O 0.97712 0.91628 0.46917 0.0
C699 C 0.0484 0.93871 0.53146 0.0
O700 O 0.9743 0.96092 0.46806 0.0
O701 O 0.02984 0.022 0.46185 0.0
O702 O 0.07387 0.02615 0.46766 0.0
C703 C 0.44386 0.06277 0.04903 0.0
C704 C 0.47009 0.06306 0.97071 0.0
C705 C 0.45761 0.94802 0.96954 0.0
Mg706 Mg 0.50087 0.06703 0.01824 0.0
O707 O 0.48727 0.02583 0.01671 0.0
Mg708 Mg 0.44846 0.00535 0.00486 0.0
Mg709 Mg 0.50766 7e-05 -0.00373 0.0
O710 O 0.52785 0.97402 0.97581 0.0
Mg711 Mg 0.51439 0.93277 0.97437 0.0
Mg712 Mg 0.56685 0.99479 0.98675 0.0
C713 C 0.55815 0.05272 0.02235 0.0
C714 C 0.55041 0.03595 0.95338 0.0
O715 O 0.43246 0.03784 0.03578 0.0
O716 O 0.47034 0.07687 0.04657 0.0
O717 O 0.45383 0.03766 0.97587 0.0
O718 O 0.49094 0.07817 0.98375 0.0
O719 O 0.54429 0.0707 0.02458 0.0
O720 O 0.54726 0.02515 0.01499 0.0
C721 C 0.46317 0.96203 0.03743 0.0
O722 O 0.4881 0.9684 0.02697 0.0
O723 O 0.44555 0.97339 0.03229 0.0
O724 O 0.58254 0.96152 0.95643 0.0
O725 O 0.54461 0.92268 0.94543 0.0
O726 O 0.56202 0.9639 0.0162 0.0
C727 C 0.57112 0.93667 0.9431 0.0
O728 O 0.52496 0.92303 0.00952 0.0
O729 O 0.47101 0.92962 0.96766 0.0
C730 C 0.54597 0.93884 0.02221 0.0
O731 O 0.46862 0.9755 0.97696 0.0
O732 O 0.52651 0.03125 0.96551 0.0
O733 O 0.56817 0.02445 0.95791 0.0
C734 C 0.94714 0.56308 0.04801 0.0
C735 C 0.9658 0.55391 0.96853 0.0
C736 C 0.957 0.44283 0.97366 0.0
Mg737 Mg 1.0019 0.56508 0.01378 0.0
O738 O 0.98908 0.52462 0.01671 0.0
Mg739 Mg 0.94924 0.50211 0.00825 0.0
Mg740 Mg 0.00873 0.4981 -0.00337 0.0
O741 O 0.02824 0.47159 0.97642 0.0
Mg742 Mg 0.01517 0.43086 0.97803 0.0
Mg743 Mg 0.06799 0.49368 0.98493 0.0
C744 C 0.0604 0.55366 0.01902 0.0
C745 C 0.04783 0.53146 0.95069 0.0
O746 O 0.93528 0.53655 0.03772 0.0
O747 O 0.97298 0.57766 0.04251 0.0
O748 O 0.94993 0.53052 0.97762 0.0
O749 O 0.98909 0.56979 0.97784 0.0
O750 O 0.04598 0.57094 0.01991 0.0
O751 O 0.04985 0.52566 0.01296 0.0
C752 C 0.96962 0.46466 0.04262 0.0
O753 O 0.99292 0.46926 0.02945 0.0
O754 O 0.95098 0.47507 0.03828 0.0
O755 O 0.08184 0.45901 0.95499 0.0
O756 O 0.04372 0.41862 0.94894 0.0
O757 O 0.06634 0.46501 0.01587 0.0
C758 C 0.06973 0.43289 0.94394 0.0
O759 O 0.02784 0.42506 0.01349 0.0
O760 O 0.97116 0.42523 0.97212 0.0
C761 C 0.05035 0.44103 0.02404 0.0
O762 O 0.96775 0.47063 0.98032 0.0
O763 O 0.02453 0.5269 0.96385 0.0
O764 O 0.06644 0.52096 0.955 0.0
C765 C 0.42681 0.53172 0.02437 0.0
C766 C 0.47236 0.54748 0.95478 0.0
C767 C 0.47701 0.43691 0.96053 0.0
Mg768 Mg 0.48962 0.55324 0.00867 0.0
O769 O 0.48098 0.51287 0.00591 0.0
Mg770 Mg 0.45046 0.48594 0.98481 0.0
Mg771 Mg 0.50994 0.49537 -0.00375 0.0
O772 O 0.53858 0.47712 0.98744 0.0
Mg773 Mg 0.52769 0.43691 0.98976 0.0
Mg774 Mg 0.56829 0.50388 0.00953 0.0
C775 C 0.54295 0.55286 0.03276 0.0
C776 C 0.56166 0.53934 0.9649 0.0
O777 O 0.42231 0.50891 0.00815 0.0
O778 O 0.45111 0.55063 0.02848 0.0
O779 O 0.45914 0.51997 0.95595 0.0
O780 O 0.48698 0.56404 0.97242 0.0
O781 O 0.52858 0.56809 0.02776 0.0
O782 O 0.53633 0.52535 0.02602 0.0
C783 C 0.45994 0.44968 0.02695 0.0
O784 O 0.48636 0.4628 0.02413 0.0
O785 O 0.44261 0.45419 0.01399 0.0
O786 O 0.59545 0.48012 0.9872 0.0
O787 O 0.56563 0.43647 0.97118 0.0
O788 O 0.55803 0.47169 0.04015 0.0
C789 C 0.58874 0.45804 0.97026 0.0
O790 O 0.52644 0.42846 0.02735 0.0
O791 O 0.491 0.42267 0.96804 0.0
C792 C 0.5425 0.44541 0.04383 0.0
O793 O 0.48273 0.46466 0.96646 0.0
O794 O 0.53487 0.52856 0.9681 0.0
O795 O 0.57769 0.53368 0.97857 0.0
C796 C 0.94253 0.55804 0.54853 0.0
C797 C 0.96747 0.55627 0.47029 0.0
C798 C 0.95799 0.44243 0.46913 0.0
Mg799 Mg 0.9994 0.56191 0.51675 0.0
O800 O 0.98593 0.52083 0.51736 0.0
Mg801 Mg 0.94711 0.49963 0.50571 0.0
Mg802 Mg 1.00682 0.4956 0.49697 0.0
O803 O 0.02793 0.47053 0.47655 0.0
Mg804 Mg 0.01533 0.42959 0.47708 0.0
Mg805 Mg 0.0669 0.49255 0.48734 0.0
C806 C 0.05687 0.5493 0.52267 0.0
C807 C 0.04927 0.53336 0.45454 0.0
O808 O 0.93115 0.53206 0.53684 0.0
O809 O 0.96867 0.57279 0.54446 0.0
O810 O 0.95095 0.53202 0.4775 0.0
O811 O 0.98999 0.57114 0.48114 0.0
O812 O 0.0429 0.56706 0.524 0.0
O813 O 0.0463 0.52159 0.51583 0.0
C814 C 0.96269 0.45653 0.53777 0.0
O815 O 0.98779 0.46341 0.52761 0.0
O816 O 0.94513 0.46796 0.53267 0.0
O817 O 0.08314 0.46039 0.45661 0.0
O818 O 0.04609 0.41921 0.44925 0.0
O819 O 0.0635 0.46203 0.517 0.0
C820 C 0.07203 0.43438 0.44498 0.0
O821 O 0.02553 0.42175 0.51306 0.0
O822 O 0.97242 0.42514 0.46828 0.0
C823 C 0.04745 0.43771 0.52448 0.0
O824 O 0.96772 0.46993 0.47742 0.0
O825 O 0.02514 0.52732 0.46644 0.0
O826 O 0.06767 0.52263 0.45887 0.0
C827 C 0.44373 0.06286 0.54878 0.0
C828 C 0.46796 0.05826 0.47014 0.0
C829 C 0.458 0.94741 0.46922 0.0
Mg830 Mg 0.50039 0.06642 0.51736 0.0
O831 O 0.48712 0.02553 0.51816 0.0
Mg832 Mg 0.44801 0.00367 0.50734 0.0
Mg833 Mg 0.50787 0.00027 0.49773 0.0
O834 O 0.52825 0.97483 0.47728 0.0
Mg835 Mg 0.51434 0.93375 0.47641 0.0
Mg836 Mg 0.56724 0.99586 0.48817 0.0
C837 C 0.55749 0.05382 0.52567 0.0
C838 C 0.54981 0.03611 0.45436 0.0
O839 O 0.43228 0.03667 0.53757 0.0
O840 O 0.4698 0.0775 0.5446 0.0
O841 O 0.45168 0.03414 0.47776 0.0
O842 O 0.49018 0.07392 0.48129 0.0
O843 O 0.54303 0.07114 0.52721 0.0
O844 O 0.5479 0.02658 0.51652 0.0
C845 C 0.46547 0.96267 0.54025 0.0
O846 O 0.48972 0.96895 0.52853 0.0
O847 O 0.44703 0.97334 0.53587 0.0
O848 O 0.58257 0.96252 0.4577 0.0
O849 O 0.54457 0.92291 0.44865 0.0
O850 O 0.56239 0.96469 0.51782 0.0
C851 C 0.57088 0.93707 0.44532 0.0
O852 O 0.52387 0.92506 0.512 0.0
O853 O 0.47189 0.92952 0.46684 0.0
C854 C 0.54545 0.94011 0.52423 0.0
O855 O 0.46815 0.97426 0.47889 0.0
O856 O 0.52587 0.03107 0.46652 0.0
O857 O 0.56799 0.02524 0.45911 0.0
C858 C 0.20942 0.16784 0.29564 0.0
C859 C 0.20564 0.19347 0.29041 0.0
C860 C 0.19079 0.1502 0.31259 0.0
C861 C 0.1408 0.15144 0.36616 0.0
H862 H 0.10985 0.06729 0.34698 0.0
C863 C 0.05998 0.07257 0.43065 0.0
C864 C 0.06734 0.04836 0.43419 0.0
C865 C 0.07381 0.09005 0.41155 0.0
C866 C 0.11837 0.09074 0.35262 0.0
H867 H 0.1804 0.22158 0.29943 0.0
H868 H 0.14825 0.1911 0.32943 0.0
H869 H 0.14176 0.09892 0.31755 0.0
H870 H 0.09363 0.02239 0.42 0.0
H871 H 0.11717 0.05227 0.38656 0.0
H872 H 0.11796 0.14321 0.40147 0.0
C873 C 0.16525 0.18437 0.32019 0.0
C874 C 0.13669 0.1088 0.33582 0.0
C875 C 0.18351 0.20167 0.30292 0.0
C876 C 0.08766 0.04106 0.41769 0.0
C877 C 0.10102 0.05808 0.39845 0.0
C878 C 0.12254 0.13335 0.38304 0.0
C879 C 0.16845 0.15824 0.32494 0.0
C880 C 0.14836 0.13927 0.34254 0.0
C881 C 0.09475 0.08315 0.39546 0.0
C882 C 0.11144 0.10274 0.37658 0.0
H883 H 0.22637 0.16114 0.28624 0.0
H884 H 0.19391 0.13032 0.31615 0.0
H885 H 0.14965 0.17486 0.37187 0.0
H886 H 0.04451 0.0787 0.44326 0.0
H887 H 0.06844 0.10917 0.40958 0.0
C888 C 0.85956 0.14616 0.31523 0.0
C889 C 0.83145 0.13958 0.32444 0.0
C890 C 0.8792 0.14147 0.32885 0.0
C891 C 0.88922 0.12469 0.39206 0.0
H892 H 0.94131 0.08983 0.35508 0.0
C893 C 0.93021 0.04545 0.43044 0.0
C894 C 0.95902 0.05591 0.43441 0.0
C895 C 0.91906 0.05987 0.41621 0.0
C896 C 0.92719 0.09999 0.36558 0.0
H897 H 0.80252 0.12411 0.35591 0.0
H898 H 0.83601 0.11456 0.3788 0.0
H899 H 0.91309 0.10827 0.33245 0.0
H900 H 0.99887 0.08903 0.42557 0.0
H901 H 0.97922 0.11352 0.3993 0.0
H902 H 0.90208 0.11441 0.42503 0.0
C903 C 0.84324 0.12394 0.36133 0.0
C904 C 0.91105 0.11068 0.35269 0.0
C905 C 0.82376 0.12891 0.34789 0.0
C906 C 0.97665 0.08036 0.4227 0.0
C907 C 0.96547 0.0944 0.40781 0.0
C908 C 0.90501 0.11361 0.40484 0.0
C909 C 0.87121 0.1299 0.35196 0.0
C910 C 0.89124 0.12242 0.36573 0.0
C911 C 0.93647 0.08463 0.40506 0.0
C912 C 0.92362 0.10059 0.39168 0.0
H913 H 0.86633 0.15419 0.29717 0.0
H914 H 0.90058 0.1467 0.32112 0.0
H915 H 0.87485 0.13429 0.40286 0.0
H916 H 0.9159 0.02704 0.43951 0.0
H917 H 0.89664 0.052 0.41432 0.0
C918 C 0.83114 0.8013 0.298 0.0
C919 C 0.80835 0.80639 0.28984 0.0
C920 C 0.84636 0.82039 0.31715 0.0
C921 C 0.83957 0.86803 0.37222 0.0
H922 H 0.92078 0.89526 0.36676 0.0
C923 C 0.92208 0.93598 0.44654 0.0
C924 C 0.9384 0.91924 0.45064 0.0
C925 C 0.90246 0.92562 0.42838 0.0
C926 C 0.8981 0.88804 0.36831 0.0
H927 H 0.78278 0.83437 0.29522 0.0
H928 H 0.80918 0.86746 0.32918 0.0
H929 H 0.89468 0.87186 0.32951 0.0
H930 H 0.94498 0.87729 0.44066 0.0
H931 H 0.9111 0.85966 0.40858 0.0
H932 H 0.84319 0.88319 0.41135 0.0
C933 C 0.81551 0.84914 0.32053 0.0
C934 C 0.8833 0.87472 0.3472 0.0
C935 C 0.80055 0.83032 0.3012 0.0
C936 C 0.93289 0.89083 0.43793 0.0
C937 C 0.91366 0.88075 0.41952 0.0
C938 C 0.85444 0.88144 0.3934 0.0
C939 C 0.83863 0.84442 0.32843 0.0
C940 C 0.85399 0.86354 0.3493 0.0
C941 C 0.89931 0.89865 0.41405 0.0
C942 C 0.88367 0.89027 0.39159 0.0
H943 H 0.83737 0.7829 0.28941 0.0
H944 H 0.8639 0.81618 0.32343 0.0
H945 H 0.8169 0.85947 0.37409 0.0
H946 H 0.92558 0.95781 0.456 0.0
H947 H 0.89127 0.9395 0.42434 0.0
C948 C 0.16283 0.81141 0.36662 0.0
C949 C 0.17574 0.81104 0.34237 0.0
C950 C 0.17051 0.83716 0.38325 0.0
C951 C 0.18963 0.91165 0.3721 0.0
H952 H 0.16722 0.91926 0.44259 0.0
C953 C 0.09457 0.92945 0.41357 0.0
C954 C 0.09439 0.94452 0.43745 0.0
C955 C 0.12003 0.92984 0.40153 0.0
C956 C 0.17472 0.91829 0.42309 0.0
H957 H 0.21025 0.83687 0.31846 0.0
H958 H 0.22423 0.88007 0.34783 0.0
H959 H 0.18767 0.8818 0.42595 0.0
H960 H 0.1197 0.97492 0.46642 0.0
H961 H 0.16392 0.97383 0.44596 0.0
H962 H 0.1733 0.94561 0.36882 0.0
C963 C 0.20756 0.86081 0.35361 0.0
C964 C 0.1861 0.89667 0.41357 0.0
C965 C 0.19941 0.83556 0.33675 0.0
C966 C 0.11955 0.96263 0.44804 0.0
C967 C 0.14484 0.96249 0.43633 0.0
C968 C 0.17814 0.9331 0.3816 0.0
C969 C 0.19168 0.86266 0.37602 0.0
C970 C 0.19153 0.89173 0.38769 0.0
C971 C 0.14502 0.94483 0.41372 0.0
C972 C 0.16861 0.93476 0.40666 0.0
H973 H 0.14536 0.7927 0.37212 0.0
H974 H 0.15789 0.83787 0.40057 0.0
H975 H 0.19343 0.90837 0.35201 0.0
H976 H 0.07522 0.9162 0.40497 0.0
H977 H 0.11991 0.91589 0.38403 0.0
C978 C 0.15895 0.84024 0.6726 0.0
C979 C 0.18625 0.86081 0.67431 0.0
C980 C 0.14125 0.84213 0.65525 0.0
C981 C 0.12538 0.89808 0.63483 0.0
H982 H 0.09399 0.85178 0.57379 0.0
C983 C 0.08025 0.94552 0.56574 0.0
C984 C 0.05774 0.9271 0.55158 0.0
C985 C 0.09261 0.93392 0.58148 0.0
C986 C 0.10213 0.86464 0.59108 0.0
H987 H 0.21743 0.89713 0.65744 0.0
H988 H 0.18643 0.90065 0.62756 0.0
H989 H 0.12274 0.83485 0.59752 0.0
H990 H 0.0299 0.88207 0.54387 0.0
H991 H 0.05104 0.86193 0.57199 0.0
H992 H 0.10511 0.92785 0.62887 0.0
C993 C 0.17872 0.88327 0.63965 0.0
C994 C 0.11867 0.85499 0.60451 0.0
C995 C 0.19634 0.88135 0.65683 0.0
C996 C 0.04713 0.89693 0.55452 0.0
C997 C 0.05946 0.88531 0.57043 0.0
C998 C 0.10873 0.90754 0.62167 0.0
C999 C 0.15075 0.8645 0.63943 0.0
C1000 C 0.13087 0.87208 0.62616 0.0
C1001 C 0.08267 0.90361 0.58378 0.0
C1002 C 0.09745 0.89138 0.59927 0.0
H1003 H 0.15065 0.82419 0.68585 0.0
H1004 H 0.11964 0.82759 0.65543 0.0
H1005 H 0.13445 0.91141 0.65166 0.0
H1006 H 0.08928 0.96881 0.56388 0.0
H1007 H 0.11074 0.94866 0.59107 0.0
C1008 C 0.20038 0.16468 0.69579 0.0
C1009 C 0.19574 0.19076 0.70603 0.0
C1010 C 0.18481 0.14685 0.67631 0.0
C1011 C 0.1423 0.10667 0.64103 0.0
H1012 H 0.12832 0.14774 0.59042 0.0
C1013 C 0.06834 0.04819 0.56334 0.0
C1014 C 0.07149 0.06112 0.54126 0.0
C1015 C 0.08659 0.06175 0.58219 0.0
C1016 C 0.13263 0.13591 0.60405 0.0
H1017 H 0.17018 0.21788 0.70529 0.0
H1018 H 0.1421 0.18602 0.67165 0.0
H1019 H 0.1514 0.17568 0.62751 0.0
H1020 H 0.09725 0.09616 0.51987 0.0
H1021 H 0.13085 0.11917 0.55234 0.0
H1022 H 0.1248 0.067 0.61707 0.0
C1023 C 0.15837 0.17986 0.67818 0.0
C1024 C 0.14523 0.15192 0.62564 0.0
C1025 C 0.17422 0.19793 0.6975 0.0
C1026 C 0.09444 0.08631 0.53711 0.0
C1027 C 0.11339 0.09944 0.55571 0.0
C1028 C 0.13021 0.09068 0.6192 0.0
C1029 C 0.16409 0.1546 0.66693 0.0
C1030 C 0.14994 0.13744 0.64444 0.0
C1031 C 0.10883 0.08806 0.57892 0.0
C1032 C 0.12489 0.10509 0.6006 0.0
H1033 H 0.21705 0.1588 0.70187 0.0
H1034 H 0.18998 0.12776 0.66784 0.0
H1035 H 0.14549 0.0949 0.6553 0.0
H1036 H 0.05054 0.0287 0.56678 0.0
H1037 H 0.08205 0.05253 0.59984 0.0
C1038 C 0.82182 0.17309 0.65625 0.0
C1039 C 0.83775 0.20216 0.65165 0.0
C1040 C 0.81563 0.15061 0.63663 0.0
C1041 C 0.86306 0.14423 0.58595 0.0
H1042 H 0.8215 0.06086 0.5866 0.0
C1043 C 0.8858 0.03824 0.53829 0.0
C1044 C 0.91364 0.04796 0.54508 0.0
C1045 C 0.86728 0.05121 0.55102 0.0
C1046 C 0.83303 0.08413 0.58619 0.0
H1047 H 0.85359 0.23132 0.62274 0.0
H1048 H 0.84268 0.19179 0.58829 0.0
H1049 H 0.7984 0.0969 0.60253 0.0
H1050 H 0.94313 0.07495 0.57238 0.0
H1051 H 0.91056 0.09738 0.59487 0.0
H1052 H 0.8978 0.13182 0.57054 0.0
C1053 C 0.83587 0.18639 0.60719 0.0
C1054 C 0.81989 0.10464 0.595 0.0
C1055 C 0.84249 0.20899 0.62689 0.0
C1056 C 0.92191 0.06788 0.56648 0.0
C1057 C 0.90332 0.08044 0.57938 0.0
C1058 C 0.87599 0.12393 0.57727 0.0
C1059 C 0.82563 0.15688 0.61223 0.0
C1060 C 0.83516 0.13498 0.5958 0.0
C1061 C 0.87662 0.07359 0.57062 0.0
C1062 C 0.86143 0.09394 0.5783 0.0
H1063 H 0.81716 0.1668 0.67503 0.0
H1064 H 0.80712 0.12817 0.64122 0.0
H1065 H 0.87586 0.16727 0.58674 0.0
H1066 H 0.87901 0.0225 0.52197 0.0
H1067 H 0.84667 0.04572 0.54415 0.0
C1068 C 0.80817 0.83102 0.69845 0.0
C1069 C 0.80936 0.80373 0.7024 0.0
C1070 C 0.82657 0.84735 0.68054 0.0
C1071 C 0.86788 0.84082 0.62246 0.0
H1072 H 0.91535 0.92077 0.64279 0.0
C1073 C 0.95155 0.90841 0.55355 0.0
C1074 C 0.95149 0.93704 0.55332 0.0
C1075 C 0.93697 0.89204 0.57306 0.0
C1076 C 0.9021 0.89855 0.63675 0.0
H1077 H 0.82972 0.77148 0.69031 0.0
H1078 H 0.86103 0.79945 0.65839 0.0
H1079 H 0.88191 0.89246 0.67337 0.0
H1080 H 0.93791 0.97179 0.57337 0.0
H1081 H 0.91288 0.94366 0.60739 0.0
H1082 H 0.88727 0.84705 0.58569 0.0
C1083 C 0.84637 0.8085 0.66942 0.0
C1084 C 0.88297 0.88242 0.65426 0.0
C1085 C 0.82858 0.79262 0.68773 0.0
C1086 C 0.93821 0.9497 0.57334 0.0
C1087 C 0.92397 0.93358 0.59285 0.0
C1088 C 0.88677 0.85706 0.60485 0.0
C1089 C 0.8458 0.83618 0.66589 0.0
C1090 C 0.86566 0.85345 0.64724 0.0
C1091 C 0.92244 0.90426 0.59262 0.0
C1092 C 0.90405 0.88618 0.61177 0.0
H1093 H 0.79352 0.83999 0.70959 0.0
H1094 H 0.82569 0.86861 0.67801 0.0
H1095 H 0.85459 0.81854 0.6166 0.0
H1096 H 0.96152 0.89824 0.5381 0.0
H1097 H 0.93647 0.86961 0.57251 0.0
C1098 C 0.2846 0.17502 0.18628 0.0
C1099 C 0.29926 0.20179 0.20023 0.0
C1100 C 0.29892 0.15928 0.16957 0.0
C1101 C 0.3693 0.16821 0.13525 0.0
H1102 H 0.3423 0.083 0.12675 0.0
C1103 C 0.43845 0.10433 0.0808 0.0
C1104 C 0.42604 0.07679 0.0669 0.0
C1105 C 0.42223 0.11852 0.09659 0.0
C1106 C 0.35012 0.1068 0.12853 0.0
H1107 H 0.34096 0.23256 0.20719 0.0
H1108 H 0.36563 0.20534 0.17878 0.0
H1109 H 0.31574 0.10931 0.15426 0.0
H1110 H 0.38611 0.04275 0.05933 0.0
H1111 H 0.3578 0.06753 0.08657 0.0
H1112 H 0.40344 0.16595 0.10949 0.0
C1113 C 0.34298 0.19651 0.18026 0.0
C1114 C 0.33473 0.12203 0.14447 0.0
C1115 C 0.32871 0.21215 0.19689 0.0
C1116 C 0.39664 0.06382 0.06968 0.0
C1117 C 0.38032 0.07812 0.08551 0.0
C1118 C 0.38457 0.15305 0.1193 0.0
C1119 C 0.32845 0.16974 0.1662 0.0
C1120 C 0.34418 0.15309 0.14836 0.0
C1121 C 0.39278 0.10594 0.09915 0.0
C1122 C 0.37553 0.122 0.11577 0.0
H1123 H 0.26202 0.16594 0.18844 0.0
H1124 H 0.28671 0.13899 0.15911 0.0
H1125 H 0.37718 0.19202 0.137 0.0
H1126 H 0.46092 0.11524 0.07943 0.0
H1127 H 0.43306 0.13943 0.10699 0.0
C1128 C 0.81718 0.28344 0.17182 0.0
C1129 C 0.80834 0.29682 0.19428 0.0
C1130 C 0.83833 0.30014 0.15601 0.0
C1131 C 0.89598 0.37232 0.15582 0.0
H1132 H 0.89165 0.35594 0.08381 0.0
C1133 C 0.95223 0.4558 0.08617 0.0
C1134 C 0.96262 0.44582 0.06291 0.0
C1135 C 0.93856 0.43618 0.10358 0.0
C1136 C 0.89346 0.36042 0.10387 0.0
H1137 H 0.81371 0.33845 0.2172 0.0
H1138 H 0.84956 0.36776 0.18911 0.0
H1139 H 0.85573 0.32475 0.11081 0.0
H1140 H 0.96822 0.40804 0.03983 0.0
H1141 H 0.94378 0.37329 0.07029 0.0
H1142 H 0.93308 0.40883 0.14875 0.0
C1143 C 0.84103 0.34419 0.18413 0.0
C1144 C 0.87283 0.34258 0.11938 0.0
C1145 C 0.82013 0.32744 0.20006 0.0
C1146 C 0.96069 0.41623 0.05784 0.0
C1147 C 0.94648 0.39638 0.07511 0.0
C1148 C 0.91646 0.39031 0.14031 0.0
C1149 C 0.85075 0.3307 0.16211 0.0
C1150 C 0.87358 0.34858 0.14556 0.0
C1151 C 0.93452 0.40606 0.09781 0.0
C1152 C 0.91519 0.38479 0.11419 0.0
H1153 H 0.80804 0.25998 0.16662 0.0
H1154 H 0.84531 0.28895 0.13927 0.0
H1155 H 0.89759 0.37721 0.17588 0.0
H1156 H 0.95329 0.47853 0.0903 0.0
H1157 H 0.92943 0.44427 0.1208 0.0
C1158 C 0.65093 0.85257 0.17519 0.0
C1159 C 0.67867 0.85418 0.1684 0.0
C1160 C 0.63494 0.85836 0.1585 0.0
C1161 C 0.64279 0.90015 0.10553 0.0
H1162 H 0.56364 0.8562 0.09948 0.0
C1163 C 0.57349 0.9462 0.05961 0.0
C1164 C 0.55474 0.9269 0.04238 0.0
C1165 C 0.58666 0.93545 0.07534 0.0
C1166 C 0.58575 0.8686 0.10082 0.0
H1167 H 0.71135 0.8624 0.13862 0.0
H1168 H 0.68342 0.87285 0.10935 0.0
H1169 H 0.59114 0.83947 0.12441 0.0
H1170 H 0.534 0.88101 0.02916 0.0
H1171 H 0.55714 0.86213 0.05666 0.0
H1172 H 0.63759 0.92923 0.08195 0.0
C1173 C 0.67404 0.8671 0.12764 0.0
C1174 C 0.60146 0.85913 0.11525 0.0
C1175 C 0.68994 0.86091 0.14428 0.0
C1176 C 0.54816 0.89643 0.04235 0.0
C1177 C 0.56152 0.88564 0.05806 0.0
C1178 C 0.62709 0.90968 0.09122 0.0
C1179 C 0.64644 0.86621 0.13469 0.0
C1180 C 0.63012 0.87496 0.11795 0.0
C1181 C 0.58162 0.90511 0.07417 0.0
C1182 C 0.59829 0.89423 0.08891 0.0
H1183 H 0.64172 0.84725 0.19363 0.0
H1184 H 0.61387 0.85772 0.16462 0.0
H1185 H 0.66474 0.913 0.10737 0.0
H1186 H 0.57885 0.9698 0.0603 0.0
H1187 H 0.60137 0.95103 0.08803 0.0
C1188 C 0.19101 0.66899 0.19508 0.0
C1189 C 0.22009 0.68389 0.19369 0.0
C1190 C 0.17745 0.65288 0.17385 0.0
C1191 C 0.1585 0.64765 0.12028 0.0
H1192 H 0.17138 0.57925 0.08256 0.0
C1193 C 0.103 0.59638 0.03052 0.0
C1194 C 0.08799 0.56611 0.02996 0.0
C1195 C 0.12426 0.61011 0.04703 0.0
C1196 C 0.1677 0.59842 0.09284 0.0
H1197 H 0.25801 0.69247 0.16951 0.0
H1198 H 0.23415 0.66357 0.13227 0.0
H1199 H 0.19745 0.60345 0.11997 0.0
H1200 H 0.08523 0.52598 0.04444 0.0
H1201 H 0.12209 0.55 0.07353 0.0
H1202 H 0.12864 0.64278 0.0937 0.0
C1203 C 0.22201 0.66461 0.14982 0.0
C1204 C 0.18263 0.61223 0.11412 0.0
C1205 C 0.23561 0.681 0.17107 0.0
C1206 C 0.09653 0.54933 0.04437 0.0
C1207 C 0.11763 0.56314 0.06111 0.0
C1208 C 0.14391 0.63418 0.0989 0.0
C1209 C 0.19278 0.65104 0.15097 0.0
C1210 C 0.17791 0.63676 0.12807 0.0
C1211 C 0.13073 0.59388 0.06348 0.0
C1212 C 0.14819 0.6093 0.08497 0.0
H1213 H 0.1786 0.67064 0.21239 0.0
H1214 H 0.1549 0.64235 0.17515 0.0
H1215 H 0.1546 0.66661 0.1308 0.0
H1216 H 0.09706 0.60978 0.01938 0.0
H1217 H 0.13453 0.63372 0.04795 0.0
C1218 C 0.32194 0.82881 0.7983 0.0
C1219 C 0.3049 0.79958 0.80061 0.0
C1220 C 0.33424 0.84719 0.81921 0.0
C1221 C 0.35565 0.8441 0.88062 0.0
H1222 H 0.35663 0.92458 0.89505 0.0
C1223 C 0.41016 0.91125 0.96455 0.0
C1224 C 0.43029 0.9379 0.95896 0.0
C1225 C 0.38774 0.89751 0.94935 0.0
C1226 C 0.3564 0.90212 0.89128 0.0
H1227 H 0.28693 0.76648 0.82608 0.0
H1228 H 0.30822 0.79862 0.8627 0.0
H1229 H 0.33367 0.89371 0.85825 0.0
H1230 H 0.44196 0.9728 0.93508 0.0
H1231 H 0.40395 0.94795 0.90744 0.0
H1232 H 0.37916 0.85235 0.91266 0.0
C1233 C 0.31247 0.80724 0.84477 0.0
C1234 C 0.34344 0.88457 0.8702 0.0
C1235 C 0.30039 0.78885 0.82389 0.0
C1236 C 0.42645 0.95215 0.93963 0.0
C1237 C 0.40459 0.93796 0.92388 0.0
C1238 C 0.36861 0.86154 0.90149 0.0
C1239 C 0.32953 0.83653 0.84263 0.0
C1240 C 0.34301 0.85542 0.86476 0.0
C1241 C 0.38606 0.90965 0.92773 0.0
C1242 C 0.36918 0.89074 0.90712 0.0
H1243 H 0.3257 0.83738 0.78036 0.0
H1244 H 0.34767 0.86956 0.81703 0.0
H1245 H 0.35617 0.82192 0.87654 0.0
H1246 H 0.41272 0.9002 0.97965 0.0
H1247 H 0.37315 0.87617 0.95325 0.0
C1248 C 0.18998 0.29975 0.7821 0.0
C1249 C 0.20946 0.29005 0.79155 0.0
C1250 C 0.17533 0.3158 0.79791 0.0
C1251 C 0.17551 0.35798 0.86262 0.0
H1252 H 0.10105 0.35157 0.84745 0.0
C1253 C 0.1156 0.43025 0.92168 0.0
C1254 C 0.08625 0.41802 0.92543 0.0
C1255 C 0.13082 0.41542 0.9051 0.0
C1256 C 0.12172 0.35355 0.85227 0.0
H1257 H 0.22938 0.29128 0.82524 0.0
H1258 H 0.20301 0.3171 0.85282 0.0
H1259 H 0.1262 0.324 0.82012 0.0
H1260 H 0.05022 0.38018 0.91411 0.0
H1261 H 0.07641 0.35456 0.88576 0.0
H1262 H 0.17054 0.38666 0.8953 0.0
C1263 C 0.19913 0.31293 0.83313 0.0
C1264 C 0.13649 0.33791 0.83619 0.0
C1265 C 0.214 0.29733 0.81726 0.0
C1266 C 0.07272 0.39058 0.91184 0.0
C1267 C 0.08787 0.37583 0.89527 0.0
C1268 C 0.16066 0.37347 0.87878 0.0
C1269 C 0.17951 0.32264 0.82382 0.0
C1270 C 0.1637 0.33974 0.84101 0.0
C1271 C 0.11724 0.38786 0.89158 0.0
C1272 C 0.13344 0.37157 0.87397 0.0
H1273 H 0.18602 0.29498 0.7624 0.0
H1274 H 0.16097 0.32317 0.78959 0.0
H1275 H 0.19647 0.36066 0.86712 0.0
H1276 H 0.12694 0.45122 0.93175 0.0
H1277 H 0.15329 0.42584 0.90276 0.0
C1278 C 0.69601 0.16624 0.79028 0.0
C1279 C 0.71105 0.19614 0.79614 0.0
C1280 C 0.67643 0.15084 0.80776 0.0
C1281 C 0.62767 0.15626 0.85963 0.0
H1282 H 0.63775 0.08649 0.87715 0.0
C1283 C 0.56263 0.08486 0.93791 0.0
C1284 C 0.55843 0.05468 0.93307 0.0
C1285 C 0.57804 0.10388 0.92038 0.0
C1286 C 0.63435 0.10565 0.87218 0.0
H1287 H 0.7175 0.23398 0.82405 0.0
H1288 H 0.68208 0.20702 0.85466 0.0
H1289 H 0.67223 0.11706 0.8489 0.0
H1290 H 0.56425 0.02007 0.90572 0.0
H1291 H 0.58991 0.05283 0.87474 0.0
H1292 H 0.58935 0.14438 0.88265 0.0
C1293 C 0.68584 0.1955 0.83674 0.0
C1294 C 0.65422 0.12322 0.85619 0.0
C1295 C 0.70608 0.21076 0.81945 0.0
C1296 C 0.56738 0.04335 0.90977 0.0
C1297 C 0.58231 0.06215 0.89221 0.0
C1298 C 0.60749 0.13841 0.87557 0.0
C1299 C 0.67111 0.16535 0.83106 0.0
C1300 C 0.65089 0.14841 0.84953 0.0
C1301 C 0.58917 0.09275 0.89787 0.0
C1302 C 0.61043 0.11261 0.88161 0.0
H1303 H 0.69973 0.15474 0.77232 0.0
H1304 H 0.66527 0.12759 0.80304 0.0
H1305 H 0.62475 0.17564 0.8546 0.0
H1306 H 0.55606 0.09396 0.95595 0.0
H1307 H 0.58294 0.12736 0.92521 0.0
C1308 C 0.86157 0.68112 0.8503 0.0
C1309 C 0.87695 0.69016 0.82802 0.0
C1310 C 0.86754 0.66106 0.86298 0.0
C1311 C 0.92808 0.64324 0.87302 0.0
H1312 H 0.87734 0.57492 0.90246 0.0
C1313 C 0.97144 0.57888 0.92971 0.0
C1314 C 0.95446 0.56495 0.94951 0.0
C1315 C 0.96026 0.5905 0.91282 0.0
C1316 C 0.89188 0.59423 0.89478 0.0
H1317 H 0.90852 0.68347 0.80026 0.0
H1318 H 0.91889 0.64844 0.82227 0.0
H1319 H 0.85912 0.60103 0.87718 0.0
H1320 H 0.91269 0.55259 0.96749 0.0
H1321 H 0.89377 0.57446 0.9395 0.0
H1322 H 0.96058 0.63817 0.89148 0.0
C1323 C 0.90265 0.65717 0.8302 0.0
C1324 C 0.88133 0.609 0.88008 0.0
C1325 C 0.89672 0.67714 0.81762 0.0
C1326 C 0.92618 0.56285 0.95212 0.0
C1327 C 0.91525 0.57529 0.93584 0.0
C1328 C 0.93852 0.62902 0.88812 0.0
C1329 C 0.88894 0.64983 0.85348 0.0
C1330 C 0.89942 0.63351 0.86892 0.0
C1331 C 0.93209 0.58949 0.91592 0.0
C1332 C 0.92069 0.60415 0.89922 0.0
H1333 H 0.84623 0.69093 0.85866 0.0
H1334 H 0.85671 0.65578 0.88092 0.0
H1335 H 0.94244 0.66246 0.86502 0.0
H1336 H 0.99327 0.58061 0.92719 0.0
H1337 H 0.97388 0.60037 0.89741 0.0
C1338 C 0.14889 0.30669 0.13783 0.0
C1339 C 0.13966 0.30398 0.16301 0.0
C1340 C 0.1428 0.32658 0.12507 0.0
C1341 C 0.08907 0.36138 0.12791 0.0
H1342 H 0.13538 0.403 0.07431 0.0
C1343 C 0.04401 0.40302 0.05313 0.0
C1344 C 0.06006 0.43003 0.04436 0.0
C1345 C 0.0549 0.39082 0.06971 0.0
C1346 C 0.12228 0.39177 0.08942 0.0
H1347 H 0.1186 0.32087 0.19512 0.0
H1348 H 0.10864 0.35618 0.17322 0.0
H1349 H 0.15466 0.37764 0.09947 0.0
H1350 H 0.09984 0.46597 0.04722 0.0
H1351 H 0.11861 0.44474 0.0762 0.0
H1352 H 0.05668 0.3753 0.11788 0.0
C1353 C 0.12 0.34264 0.16305 0.0
C1354 C 0.13327 0.37701 0.10368 0.0
C1355 C 0.12593 0.3227 0.17568 0.0
C1356 C 0.08684 0.44507 0.05344 0.0
C1357 C 0.09776 0.43279 0.06992 0.0
C1358 C 0.07809 0.37601 0.11364 0.0
C1359 C 0.12738 0.34405 0.13735 0.0
C1360 C 0.11672 0.36147 0.12303 0.0
C1361 C 0.08213 0.40527 0.07792 0.0
C1362 C 0.09443 0.39116 0.09405 0.0
H1363 H 0.1592 0.29215 0.12764 0.0
H1364 H 0.14865 0.32695 0.10526 0.0
H1365 H 0.07554 0.34926 0.14238 0.0
H1366 H 0.02334 0.3908 0.04658 0.0
H1367 H 0.04234 0.36949 0.07537 0.0
C1368 C 0.19649 0.71665 0.82125 0.0
C1369 C 0.20605 0.70311 0.7992 0.0
C1370 C 0.17649 0.69968 0.83782 0.0
C1371 C 0.15077 0.62588 0.85737 0.0
H1372 H 0.08203 0.64073 0.88099 0.0
C1373 C 0.06539 0.54021 0.90728 0.0
C1374 C 0.05482 0.55025 0.93039 0.0
C1375 C 0.07986 0.5599 0.8902 0.0
C1376 C 0.10122 0.63648 0.87466 0.0
H1377 H 0.20275 0.66098 0.7777 0.0
H1378 H 0.16869 0.63166 0.80677 0.0
H1379 H 0.11716 0.67448 0.85455 0.0
H1380 H 0.04905 0.58808 0.95326 0.0
H1381 H 0.07503 0.623 0.92341 0.0
H1382 H 0.13541 0.58828 0.87738 0.0
C1383 C 0.17629 0.65538 0.8111 0.0
C1384 C 0.1213 0.6558 0.85965 0.0
C1385 C 0.19584 0.67226 0.79444 0.0
C1386 C 0.05684 0.5799 0.93537 0.0
C1387 C 0.07177 0.59983 0.91834 0.0
C1388 C 0.1309 0.60677 0.87233 0.0
C1389 C 0.16637 0.66886 0.83292 0.0
C1390 C 0.14602 0.65031 0.85055 0.0
C1391 C 0.08462 0.59017 0.89616 0.0
C1392 C 0.10563 0.61144 0.88074 0.0
H1393 H 0.20453 0.74027 0.8258 0.0
H1394 H 0.16939 0.71058 0.85469 0.0
H1395 H 0.1699 0.62147 0.85103 0.0
H1396 H 0.06396 0.51737 0.90309 0.0
H1397 H 0.08881 0.55166 0.87294 0.0
C1398 C 0.33504 0.15404 0.84876 0.0
C1399 C 0.33109 0.13814 0.82476 0.0
C1400 C 0.35439 0.15154 0.8642 0.0
C1401 C 0.41329 0.12143 0.86314 0.0
H1402 H 0.39243 0.11867 0.93397 0.0
C1403 C 0.44817 0.05928 0.93045 0.0
C1404 C 0.46171 0.07668 0.95152 0.0
C1405 C 0.43626 0.07118 0.91442 0.0
C1406 C 0.39862 0.1197 0.91425 0.0
H1407 H 0.34602 0.10878 0.79776 0.0
H1408 H 0.37814 0.10318 0.82469 0.0
H1409 H 0.36387 0.13186 0.9074 0.0
H1410 H 0.47335 0.12013 0.97233 0.0
H1411 H 0.45155 0.14059 0.94471 0.0
H1412 H 0.44698 0.1073 0.86999 0.0
C1413 C 0.36683 0.11801 0.83174 0.0
C1414 C 0.38237 0.12743 0.89897 0.0
C1415 C 0.34787 0.1208 0.81631 0.0
C1416 C 0.46351 0.10636 0.95597 0.0
C1417 C 0.45086 0.118 0.94035 0.0
C1418 C 0.42909 0.11307 0.87832 0.0
C1419 C 0.37021 0.13297 0.85609 0.0
C1420 C 0.38915 0.1279 0.87303 0.0
C1421 C 0.43693 0.10042 0.91956 0.0
C1422 C 0.42173 0.11182 0.90394 0.0
H1423 H 0.32256 0.16768 0.85598 0.0
H1424 H 0.35669 0.16391 0.88259 0.0
H1425 H 0.41984 0.12236 0.8435 0.0
H1426 H 0.4462 0.03627 0.92672 0.0
H1427 H 0.42549 0.05717 0.89857 0.0
C1428 C 0.78168 0.3111 0.82432 0.0
C1429 C 0.7968 0.30738 0.80162 0.0
C1430 C 0.7955 0.32926 0.8448 0.0
C1431 C 0.83659 0.38542 0.87734 0.0
H1432 H 0.88626 0.35237 0.90212 0.0
C1433 C 0.92217 0.44788 0.94747 0.0
C1434 C 0.92942 0.43115 0.96288 0.0
C1435 C 0.90106 0.43424 0.93076 0.0
C1436 C 0.87217 0.36171 0.89573 0.0
H1437 H 0.83783 0.32094 0.78201 0.0
H1438 H 0.86188 0.35243 0.81796 0.0
H1439 H 0.86034 0.32746 0.86528 0.0
H1440 H 0.9182 0.3881 0.97535 0.0
H1441 H 0.88042 0.36451 0.94701 0.0
H1442 H 0.84889 0.4201 0.90751 0.0
C1443 C 0.83945 0.34122 0.81982 0.0
C1444 C 0.85765 0.34761 0.87447 0.0
C1445 C 0.82569 0.32318 0.79937 0.0
C1446 C 0.91316 0.40137 0.96342 0.0
C1447 C 0.89176 0.38785 0.94703 0.0
C1448 C 0.85143 0.39982 0.89854 0.0
C1449 C 0.82454 0.34388 0.84278 0.0
C1450 C 0.83977 0.35933 0.86517 0.0
C1451 C 0.88662 0.40376 0.9295 0.0
C1452 C 0.8693 0.38801 0.90803 0.0
H1453 H 0.75949 0.29893 0.82661 0.0
H1454 H 0.78377 0.33083 0.86251 0.0
H1455 H 0.82293 0.39481 0.87026 0.0
H1456 H 0.93455 0.47086 0.94656 0.0
H1457 H 0.89768 0.44713 0.91749 0.0
C1458 C 0.69192 0.8001 0.78572 0.0
C1459 C 0.71692 0.79767 0.79235 0.0
C1460 C 0.67715 0.81575 0.80177 0.0
C1461 C 0.67234 0.85105 0.86896 0.0
H1462 H 0.62394 0.8829 0.84084 0.0
C1463 C 0.61726 0.92801 0.92941 0.0
C1464 C 0.58905 0.92288 0.92517 0.0
C1465 C 0.6333 0.91346 0.91352 0.0
C1466 C 0.63718 0.87402 0.84915 0.0
H1467 H 0.74601 0.81165 0.82165 0.0
H1468 H 0.72097 0.83907 0.84947 0.0
H1469 H 0.65096 0.85756 0.81326 0.0
H1470 H 0.55611 0.89841 0.90019 0.0
H1471 H 0.58415 0.87402 0.8722 0.0
H1472 H 0.65889 0.86853 0.90489 0.0
C1473 C 0.71207 0.82807 0.83192 0.0
C1474 C 0.65276 0.85912 0.83319 0.0
C1475 C 0.72678 0.81222 0.81576 0.0
C1476 C 0.57769 0.9031 0.90418 0.0
C1477 C 0.59389 0.88911 0.88798 0.0
C1478 C 0.65705 0.86639 0.88489 0.0
C1479 C 0.68678 0.83014 0.82534 0.0
C1480 C 0.67057 0.84701 0.84267 0.0
C1481 C 0.62194 0.89377 0.89244 0.0
C1482 C 0.63901 0.878 0.87532 0.0
H1483 H 0.68347 0.78971 0.76798 0.0
H1484 H 0.65776 0.81595 0.79559 0.0
H1485 H 0.68515 0.84189 0.8775 0.0
H1486 H 0.6268 0.9428 0.94543 0.0
H1487 H 0.65479 0.91789 0.91765 0.0
C1488 C 0.82306 0.71658 0.18083 0.0
C1489 C 0.80319 0.7028 0.19923 0.0
C1490 C 0.83759 0.70115 0.16432 0.0
C1491 C 0.84015 0.62397 0.1438 0.0
H1492 H 0.91065 0.66808 0.11158 0.0
C1493 C 0.90102 0.56515 0.06977 0.0
C1494 C 0.93031 0.57793 0.06607 0.0
C1495 C 0.88531 0.57989 0.08574 0.0
C1496 C 0.89126 0.65505 0.1206 0.0
H1497 H 0.78428 0.66158 0.21522 0.0
H1498 H 0.8107 0.6353 0.18799 0.0
H1499 H 0.88533 0.69379 0.14005 0.0
H1500 H 0.9658 0.61647 0.07706 0.0
H1501 H 0.93907 0.64132 0.10536 0.0
H1502 H 0.84715 0.58508 0.1255 0.0
C1503 C 0.81421 0.65778 0.1851 0.0
C1504 C 0.87612 0.67011 0.1368 0.0
C1505 C 0.79913 0.67311 0.20117 0.0
C1506 C 0.94334 0.60576 0.07921 0.0
C1507 C 0.92773 0.62032 0.0954 0.0
C1508 C 0.85561 0.60886 0.12798 0.0
C1509 C 0.83371 0.67139 0.16614 0.0
C1510 C 0.85012 0.65498 0.14874 0.0
C1511 C 0.89831 0.60788 0.09889 0.0
C1512 C 0.88152 0.62405 0.11597 0.0
H1513 H 0.82802 0.73961 0.17946 0.0
H1514 H 0.85185 0.71293 0.1501 0.0
H1515 H 0.82017 0.61101 0.15193 0.0
H1516 H 0.89005 0.54388 0.05994 0.0
H1517 H 0.86281 0.56938 0.08727 0.0
C1518 C 0.33416 0.80896 0.20037 0.0
C1519 C 0.30789 0.78949 0.19305 0.0
C1520 C 0.35252 0.82703 0.18365 0.0
C1521 C 0.35481 0.85714 0.12387 0.0
H1522 H 0.43481 0.87367 0.12478 0.0
C1523 C 0.4294 0.91386 0.04626 0.0
C1524 C 0.45241 0.93849 0.0538 0.0
C1525 C 0.41413 0.89433 0.06321 0.0
C1526 C 0.41255 0.86937 0.12444 0.0
H1527 H 0.2803 0.77334 0.16244 0.0
H1528 H 0.31253 0.80443 0.13297 0.0
H1529 H 0.40268 0.84229 0.15424 0.0
H1530 H 0.47843 0.96165 0.0845 0.0
H1531 H 0.45153 0.92713 0.11456 0.0
H1532 H 0.36466 0.88377 0.0938 0.0
C1533 C 0.31881 0.80629 0.15181 0.0
C1534 C 0.39409 0.85149 0.14136 0.0
C1535 C 0.30034 0.78835 0.16864 0.0
C1536 C 0.46099 0.94247 0.07825 0.0
C1537 C 0.44554 0.92283 0.09538 0.0
C1538 C 0.3732 0.87469 0.10683 0.0
C1539 C 0.34518 0.82588 0.1591 0.0
C1540 C 0.36495 0.84505 0.14123 0.0
C1541 C 0.42134 0.89918 0.08819 0.0
C1542 C 0.40224 0.88086 0.1068 0.0
H1543 H 0.3404 0.81062 0.21921 0.0
H1544 H 0.37233 0.84223 0.19015 0.0
H1545 H 0.33264 0.85334 0.12357 0.0
H1546 H 0.42241 0.91052 0.02748 0.0
H1547 H 0.39595 0.87599 0.05699 0.0
C1548 C 0.70013 0.15989 0.19693 0.0
C1549 C 0.71185 0.19034 0.19559 0.0
C1550 C 0.68499 0.14132 0.17727 0.0
C1551 C 0.64516 0.14274 0.12565 0.0
H1552 H 0.66523 0.07668 0.09161 0.0
C1553 C 0.60202 0.09344 0.033 0.0
C1554 C 0.58583 0.06357 0.03266 0.0
C1555 C 0.62265 0.10629 0.0501 0.0
C1556 C 0.65947 0.09505 0.10102 0.0
H1557 H 0.71694 0.22531 0.1729 0.0
H1558 H 0.69058 0.19312 0.13895 0.0
H1559 H 0.6874 0.10318 0.13039 0.0
H1560 H 0.58096 0.02273 0.04704 0.0
H1561 H 0.61651 0.04545 0.07753 0.0
H1562 H 0.61739 0.13502 0.09669 0.0
C1563 C 0.69288 0.18355 0.15511 0.0
C1564 C 0.67188 0.10995 0.12322 0.0
C1565 C 0.70802 0.20195 0.17454 0.0
C1566 C 0.59311 0.04591 0.04711 0.0
C1567 C 0.61347 0.0589 0.06457 0.0
C1568 C 0.63289 0.12801 0.10363 0.0
C1569 C 0.68119 0.15314 0.15629 0.0
C1570 C 0.66529 0.13437 0.13528 0.0
C1571 C 0.62687 0.08952 0.06737 0.0
C1572 C 0.64046 0.10456 0.09071 0.0
H1573 H 0.70252 0.15052 0.21318 0.0
H1574 H 0.67595 0.1179 0.17857 0.0
H1575 H 0.63933 0.16114 0.13493 0.0
H1576 H 0.59708 0.10733 0.02162 0.0
H1577 H 0.63342 0.12986 0.05142 0.0
C1578 C 0.70775 0.66698 0.7949 0.0
C1579 C 0.70154 0.68996 0.78676 0.0
C1580 C 0.68992 0.64986 0.81257 0.0
C1581 C 0.63544 0.65126 0.86303 0.0
H1582 H 0.62353 0.56786 0.85869 0.0
C1583 C 0.56198 0.57311 0.93346 0.0
C1584 C 0.57495 0.55653 0.94362 0.0
C1585 C 0.57522 0.5891 0.9133 0.0
C1586 C 0.62669 0.59114 0.86015 0.0
H1587 H 0.67156 0.71277 0.79056 0.0
H1588 H 0.64021 0.6827 0.82133 0.0
H1589 H 0.65033 0.59595 0.82496 0.0
H1590 H 0.61151 0.54297 0.94002 0.0
H1591 H 0.63401 0.57009 0.9047 0.0
H1592 H 0.61174 0.64624 0.89834 0.0
C1593 C 0.65901 0.67806 0.81418 0.0
C1594 C 0.64214 0.60729 0.84089 0.0
C1595 C 0.67683 0.69512 0.79638 0.0
C1596 C 0.60106 0.5558 0.93287 0.0
C1597 C 0.6139 0.57115 0.91248 0.0
C1598 C 0.61976 0.63501 0.88223 0.0
C1599 C 0.6654 0.65528 0.82261 0.0
C1600 C 0.64713 0.63767 0.84225 0.0
C1601 C 0.60125 0.58811 0.90253 0.0
C1602 C 0.61562 0.60488 0.88118 0.0
H1603 H 0.72663 0.66242 0.78784 0.0
H1604 H 0.69576 0.63282 0.81883 0.0
H1605 H 0.63916 0.67467 0.86489 0.0
H1606 H 0.54184 0.574 0.94127 0.0
H1607 H 0.56495 0.60192 0.9059 0.0
C1608 C 0.36433 0.63571 0.80486 0.0
C1609 C 0.33893 0.63787 0.81592 0.0
C1610 C 0.38348 0.6316 0.81935 0.0
C1611 C 0.40765 0.63754 0.88115 0.0
H1612 H 0.41406 0.56056 0.86119 0.0
C1613 C 0.45196 0.58382 0.94654 0.0
C1614 C 0.46365 0.56217 0.93685 0.0
C1615 C 0.43993 0.59587 0.93096 0.0
C1616 C 0.4133 0.58244 0.86683 0.0
H1617 H 0.31399 0.63895 0.85071 0.0
H1618 H 0.34808 0.63277 0.87635 0.0
H1619 H 0.38884 0.57923 0.83599 0.0
H1620 H 0.47258 0.53642 0.90323 0.0
H1621 H 0.45377 0.55933 0.87531 0.0
H1622 H 0.4329 0.64164 0.91137 0.0
C1623 C 0.3531 0.63422 0.85651 0.0
C1624 C 0.39857 0.593 0.85239 0.0
C1625 C 0.33371 0.63782 0.84192 0.0
C1626 C 0.46385 0.55328 0.91106 0.0
C1627 C 0.45266 0.56618 0.89519 0.0
C1628 C 0.42312 0.6274 0.89523 0.0
C1629 C 0.37766 0.63001 0.84517 0.0
C1630 C 0.39529 0.62041 0.8596 0.0
C1631 C 0.43999 0.5873 0.90498 0.0
C1632 C 0.42573 0.59937 0.88861 0.0
H1633 H 0.36852 0.63531 0.78479 0.0
H1634 H 0.40229 0.62839 0.81025 0.0
H1635 H 0.40542 0.65881 0.88704 0.0
H1636 H 0.45085 0.59044 0.96652 0.0
H1637 H 0.42973 0.61116 0.93964 0.0
C1638 C 0.30763 0.32477 0.80123 0.0
C1639 C 0.31215 0.29948 0.78864 0.0
C1640 C 0.32282 0.33987 0.8218 0.0
C1641 C 0.36142 0.3301 0.87047 0.0
H1642 H 0.4004 0.41425 0.87277 0.0
C1643 C 0.45193 0.39224 0.93289 0.0
C1644 C 0.45405 0.4206 0.94421 0.0
C1645 C 0.43155 0.37728 0.91602 0.0
C1646 C 0.38917 0.39087 0.87263 0.0
H1647 H 0.3362 0.27035 0.78693 0.0
H1648 H 0.36307 0.29708 0.8229 0.0
H1649 H 0.37052 0.38845 0.83845 0.0
H1650 H 0.43627 0.45538 0.94687 0.0
H1651 H 0.39993 0.42869 0.9181 0.0
H1652 H 0.3803 0.33238 0.90446 0.0
C1653 C 0.34747 0.30482 0.8171 0.0
C1654 C 0.37222 0.37616 0.853 0.0
C1655 C 0.3323 0.28972 0.79653 0.0
C1656 C 0.43504 0.43349 0.93871 0.0
C1657 C 0.41437 0.41832 0.92208 0.0
C1658 C 0.37823 0.34481 0.89018 0.0
C1659 C 0.34266 0.32984 0.82993 0.0
C1660 C 0.35869 0.34564 0.8516 0.0
C1661 C 0.41272 0.39027 0.91039 0.0
C1662 C 0.39262 0.37522 0.89114 0.0
H1663 H 0.29195 0.33249 0.79558 0.0
H1664 H 0.31876 0.35907 0.83161 0.0
H1665 H 0.35076 0.30655 0.86982 0.0
H1666 H 0.46656 0.38187 0.93642 0.0
H1667 H 0.43112 0.35593 0.9068 0.0
C1668 C 0.68746 0.34742 0.83944 0.0
C1669 C 0.66149 0.32447 0.83871 0.0
C1670 C 0.68991 0.37323 0.85507 0.0
C1671 C 0.64442 0.40845 0.85734 0.0
H1672 H 0.67757 0.46644 0.91193 0.0
C1673 C 0.58749 0.446 0.92434 0.0
C1674 C 0.6019 0.4629 0.94518 0.0
C1675 C 0.60007 0.44922 0.90055 0.0
C1676 C 0.66889 0.45127 0.89583 0.0
H1677 H 0.6205 0.30681 0.85727 0.0
H1678 H 0.62466 0.35231 0.88448 0.0
H1679 H 0.69105 0.4232 0.90231 0.0
H1680 H 0.63685 0.5019 0.95679 0.0
H1681 H 0.65975 0.50601 0.91492 0.0
H1682 H 0.62131 0.43546 0.8513 0.0
C1683 C 0.64281 0.3506 0.8729 0.0
C1684 C 0.67627 0.42617 0.89089 0.0
C1685 C 0.64034 0.32479 0.85729 0.0
C1686 C 0.62651 0.48675 0.94127 0.0
C1687 C 0.63903 0.48987 0.9172 0.0
C1688 C 0.63738 0.43375 0.86196 0.0
C1689 C 0.66644 0.37565 0.86967 0.0
C1690 C 0.66249 0.40393 0.87289 0.0
C1691 C 0.62811 0.4677 0.89768 0.0
C1692 C 0.64716 0.4538 0.8831 0.0
H1693 H 0.70422 0.34728 0.82541 0.0
H1694 H 0.70828 0.39253 0.85269 0.0
H1695 H 0.63452 0.39159 0.84257 0.0
H1696 H 0.56705 0.42924 0.92631 0.0
H1697 H 0.58962 0.43327 0.88551 0.0
C1698 C 0.65872 0.35169 0.18067 0.0
C1699 C 0.68591 0.35598 0.1696 0.0
C1700 C 0.63875 0.35723 0.16826 0.0
C1701 C 0.59943 0.35863 0.1274 0.0
H1702 H 0.62494 0.43968 0.11295 0.0
C1703 C 0.54509 0.40201 0.06125 0.0
C1704 C 0.54824 0.43209 0.06462 0.0
C1705 C 0.5574 0.39049 0.07711 0.0
C1706 C 0.61719 0.41711 0.11718 0.0
H1707 H 0.7126 0.36772 0.13599 0.0
H1708 H 0.67808 0.37876 0.11502 0.0
H1709 H 0.65559 0.42213 0.13283 0.0
H1710 H 0.5641 0.4729 0.08881 0.0
H1711 H 0.58413 0.45237 0.11752 0.0
H1712 H 0.56104 0.35345 0.11152 0.0
C1713 C 0.67241 0.37095 0.13327 0.0
C1714 C 0.63496 0.40701 0.12824 0.0
C1715 C 0.69221 0.36492 0.14543 0.0
C1716 C 0.56155 0.44973 0.08562 0.0
C1717 C 0.57331 0.43801 0.10186 0.0
C1718 C 0.5816 0.36869 0.11611 0.0
C1719 C 0.64573 0.36762 0.14477 0.0
C1720 C 0.62633 0.37772 0.13328 0.0
C1721 C 0.57264 0.40866 0.09703 0.0
C1722 C 0.59032 0.39809 0.1108 0.0
H1723 H 0.65311 0.34521 0.19935 0.0
H1724 H 0.61831 0.35477 0.17752 0.0
H1725 H 0.59244 0.33589 0.13114 0.0
H1726 H 0.53515 0.3878 0.04512 0.0
H1727 H 0.55656 0.36788 0.07262 0.0
C1728 C 0.71113 0.67398 0.18973 0.0
C1729 C 0.7047 0.69691 0.2046 0.0
C1730 C 0.69312 0.65645 0.17178 0.0
C1731 C 0.64706 0.61384 0.1421 0.0
H1732 H 0.61262 0.65224 0.10414 0.0
C1733 C 0.56913 0.5513 0.06771 0.0
C1734 C 0.56632 0.56656 0.04869 0.0
C1735 C 0.58783 0.56569 0.08605 0.0
C1736 C 0.62262 0.64133 0.11418 0.0
H1737 H 0.67445 0.71927 0.2137 0.0
H1738 H 0.64187 0.68746 0.18302 0.0
H1739 H 0.63943 0.68004 0.1393 0.0
H1740 H 0.58267 0.60712 0.03163 0.0
H1741 H 0.61714 0.63201 0.06287 0.0
H1742 H 0.63198 0.57573 0.1159 0.0
C1743 C 0.6613 0.6837 0.18448 0.0
C1744 C 0.63736 0.65708 0.13479 0.0
C1745 C 0.67979 0.70181 0.20198 0.0
C1746 C 0.58424 0.59538 0.04664 0.0
C1747 C 0.60369 0.60954 0.06457 0.0
C1748 C 0.63299 0.59831 0.12106 0.0
C1749 C 0.66801 0.6611 0.16897 0.0
C1750 C 0.64999 0.64358 0.14877 0.0
C1751 C 0.6046 0.59531 0.08517 0.0
C1752 C 0.62077 0.61197 0.10678 0.0
H1753 H 0.7305 0.67019 0.1915 0.0
H1754 H 0.69928 0.63978 0.15971 0.0
H1755 H 0.65604 0.60265 0.15289 0.0
H1756 H 0.55543 0.5289 0.06946 0.0
H1757 H 0.58776 0.55406 0.10167 0.0
C1758 C 0.36118 0.70302 0.13004 0.0
C1759 C 0.34593 0.70007 0.15333 0.0
C1760 C 0.35486 0.67964 0.1109 0.0
C1761 C 0.33131 0.60181 0.11235 0.0
H1762 H 0.35304 0.60115 0.04154 0.0
C1763 C 0.40667 0.55028 0.06345 0.0
C1764 C 0.40322 0.53729 0.03868 0.0
C1765 C 0.38683 0.56145 0.07584 0.0
C1766 C 0.34597 0.60061 0.06112 0.0
H1767 H 0.30873 0.67132 0.17262 0.0
H1768 H 0.29728 0.63242 0.13907 0.0
H1769 H 0.33999 0.6422 0.06364 0.0
H1770 H 0.37597 0.52342 0.00779 0.0
H1771 H 0.34113 0.54394 0.02955 0.0
H1772 H 0.33956 0.56157 0.11029 0.0
C1773 C 0.31482 0.65227 0.13606 0.0
C1774 C 0.33885 0.62419 0.07376 0.0
C1775 C 0.32148 0.67511 0.15536 0.0
C1776 C 0.37876 0.5334 0.02698 0.0
C1777 C 0.35902 0.54508 0.0393 0.0
C1778 C 0.33847 0.57841 0.09977 0.0
C1779 C 0.33277 0.65333 0.11459 0.0
C1780 C 0.3327 0.62558 0.0997 0.0
C1781 C 0.36349 0.55996 0.06346 0.0
C1782 C 0.34715 0.57843 0.0744 0.0
H1783 H 0.37932 0.72232 0.1272 0.0
H1784 H 0.36894 0.68119 0.09431 0.0
H1785 H 0.32716 0.60243 0.13244 0.0
H1786 H 0.42543 0.55324 0.07273 0.0
H1787 H 0.39091 0.57327 0.09436 0.0
C1788 C 0.33812 0.30515 0.19719 0.0
C1789 C 0.31274 0.30966 0.20537 0.0
C1790 C 0.35608 0.32149 0.17922 0.0
C1791 C 0.39633 0.37046 0.1503 0.0
H1792 H 0.3625 0.37542 0.091 0.0
C1793 C 0.45726 0.44118 0.07151 0.0
C1794 C 0.44863 0.43087 0.0471 0.0
C1795 C 0.44263 0.42601 0.09155 0.0
C1796 C 0.37237 0.37399 0.1073 0.0
H1797 H 0.28657 0.3353 0.20166 0.0
H1798 H 0.31816 0.3641 0.17021 0.0
H1799 H 0.33291 0.35116 0.12527 0.0
H1800 H 0.41985 0.3958 0.02392 0.0
H1801 H 0.3953 0.36828 0.05863 0.0
H1802 H 0.43588 0.39284 0.13213 0.0
C1803 C 0.32394 0.34768 0.17761 0.0
C1804 C 0.35533 0.36048 0.12709 0.0
C1805 C 0.30595 0.33131 0.19562 0.0
C1806 C 0.42659 0.40422 0.0427 0.0
C1807 C 0.41241 0.38871 0.0626 0.0
C1808 C 0.41343 0.38407 0.13048 0.0
C1809 C 0.34902 0.34268 0.16906 0.0
C1810 C 0.36714 0.35842 0.14871 0.0
C1811 C 0.4195 0.40002 0.08736 0.0
C1812 C 0.40165 0.38572 0.10863 0.0
H1813 H 0.34374 0.2883 0.20406 0.0
H1814 H 0.37505 0.31687 0.17267 0.0
H1815 H 0.40592 0.36934 0.16689 0.0
H1816 H 0.4741 0.46191 0.07526 0.0
H1817 H 0.44855 0.43546 0.11036 0.0
C1818 C 0.80479 0.70181 0.67514 0.0
C1819 C 0.79576 0.69533 0.69984 0.0
C1820 C 0.81983 0.68634 0.65927 0.0
C1821 C 0.84003 0.61787 0.65178 0.0
H1822 H 0.89336 0.65866 0.60143 0.0
C1823 C 0.89718 0.55696 0.57447 0.0
C1824 C 0.92505 0.57242 0.56652 0.0
C1825 C 0.88115 0.57113 0.59089 0.0
C1826 C 0.87878 0.64678 0.61545 0.0
H1827 H 0.79669 0.66742 0.72715 0.0
H1828 H 0.82356 0.64091 0.69985 0.0
H1829 H 0.86752 0.6846 0.62973 0.0
H1830 H 0.9574 0.61549 0.57002 0.0
H1831 H 0.92995 0.63975 0.59823 0.0
H1832 H 0.85198 0.58019 0.6377 0.0
C1833 C 0.81827 0.65758 0.69238 0.0
C1834 C 0.86346 0.66171 0.63167 0.0
C1835 C 0.80296 0.67304 0.70826 0.0
C1836 C 0.93616 0.60253 0.57558 0.0
C1837 C 0.92016 0.61668 0.59175 0.0
C1838 C 0.8554 0.60289 0.6355 0.0
C1839 C 0.82703 0.6639 0.66748 0.0
C1840 C 0.8437 0.64764 0.65022 0.0
C1841 C 0.89228 0.60137 0.59976 0.0
C1842 C 0.87519 0.61707 0.61703 0.0
H1843 H 0.8005 0.7192 0.66796 0.0
H1844 H 0.82555 0.69197 0.64034 0.0
H1845 H 0.82496 0.60585 0.66543 0.0
H1846 H 0.88766 0.53384 0.56799 0.0
H1847 H 0.85978 0.5584 0.59625 0.0
C1848 C 0.32911 0.82112 0.70253 0.0
C1849 C 0.31271 0.79171 0.69562 0.0
C1850 C 0.34916 0.83702 0.68553 0.0
C1851 C 0.36503 0.84117 0.61868 0.0
H1852 H 0.43873 0.89229 0.63849 0.0
C1853 C 0.44378 0.91091 0.54887 0.0
C1854 C 0.45695 0.94049 0.55784 0.0
C1855 C 0.42961 0.89037 0.56549 0.0
C1856 C 0.41819 0.87823 0.63271 0.0
H1857 H 0.30443 0.75579 0.66567 0.0
H1858 H 0.33932 0.78383 0.6357 0.0
H1859 H 0.4068 0.86072 0.66798 0.0
H1860 H 0.46652 0.97203 0.59085 0.0
H1861 H 0.44206 0.93612 0.62015 0.0
H1862 H 0.37587 0.85924 0.58378 0.0
C1863 C 0.33669 0.79448 0.65432 0.0
C1864 C 0.39995 0.86014 0.64957 0.0
C1865 C 0.31684 0.77842 0.67145 0.0
C1866 C 0.45691 0.94913 0.58367 0.0
C1867 C 0.44286 0.92855 0.60036 0.0
C1868 C 0.38319 0.85934 0.60188 0.0
C1869 C 0.35298 0.82398 0.66118 0.0
C1870 C 0.37309 0.84163 0.64279 0.0
C1871 C 0.42828 0.89911 0.5914 0.0
C1872 C 0.40992 0.87828 0.60874 0.0
H1873 H 0.32655 0.83186 0.72113 0.0
H1874 H 0.36121 0.85979 0.69127 0.0
H1875 H 0.34429 0.82749 0.61309 0.0
H1876 H 0.44319 0.90401 0.52892 0.0
H1877 H 0.41892 0.86782 0.55798 0.0
C1878 C 0.19141 0.35364 0.63579 0.0
C1879 C 0.19277 0.3609 0.66177 0.0
C1880 C 0.17012 0.35697 0.62342 0.0
C1881 C 0.12382 0.40148 0.63153 0.0
H1882 H 0.09311 0.35414 0.57064 0.0
C1883 C 0.07906 0.44597 0.55925 0.0
C1884 C 0.05665 0.42695 0.54527 0.0
C1885 C 0.09104 0.43534 0.57609 0.0
C1886 C 0.10111 0.36737 0.58783 0.0
H1887 H 0.17264 0.37598 0.69544 0.0
H1888 H 0.13497 0.38107 0.67411 0.0
H1889 H 0.12176 0.33805 0.59476 0.0
H1890 H 0.02843 0.38191 0.53909 0.0
H1891 H 0.04925 0.3633 0.56882 0.0
H1892 H 0.10342 0.43088 0.6246 0.0
C1893 C 0.15047 0.37329 0.66309 0.0
C1894 C 0.11784 0.35831 0.60152 0.0
C1895 C 0.17181 0.37009 0.67538 0.0
C1896 C 0.04563 0.39719 0.54953 0.0
C1897 C 0.05776 0.38647 0.5664 0.0
C1898 C 0.10714 0.4105 0.61788 0.0
C1899 C 0.14982 0.36767 0.63683 0.0
C1900 C 0.12978 0.37549 0.62338 0.0
C1901 C 0.08099 0.40534 0.57953 0.0
C1902 C 0.09596 0.39388 0.59559 0.0
H1903 H 0.20765 0.34693 0.62492 0.0
H1904 H 0.17054 0.35276 0.60321 0.0
H1905 H 0.13292 0.41556 0.64803 0.0
H1906 H 0.08812 0.46906 0.55656 0.0
H1907 H 0.10906 0.45051 0.58558 0.0
C1908 C 0.70046 0.16361 0.69086 0.0
C1909 C 0.72924 0.17994 0.68928 0.0
C1910 C 0.68773 0.14414 0.67068 0.0
C1911 C 0.69333 0.13227 0.60273 0.0
H1912 H 0.63046 0.06158 0.61421 0.0
C1913 C 0.60806 0.06066 0.53086 0.0
C1914 C 0.58255 0.06405 0.54034 0.0
C1915 C 0.63109 0.07034 0.54602 0.0
C1916 C 0.64832 0.08092 0.61057 0.0
H1917 H 0.76742 0.1881 0.6656 0.0
H1918 H 0.74499 0.15374 0.62986 0.0
H1919 H 0.66261 0.08616 0.6473 0.0
H1920 H 0.56064 0.07915 0.57294 0.0
H1921 H 0.60015 0.09483 0.59941 0.0
H1922 H 0.67792 0.12758 0.56633 0.0
C1923 C 0.73236 0.15618 0.64685 0.0
C1924 C 0.6666 0.09512 0.62954 0.0
C1925 C 0.74524 0.17566 0.66729 0.0
C1926 C 0.58021 0.07664 0.5651 0.0
C1927 C 0.60271 0.08541 0.5803 0.0
C1928 C 0.67507 0.11786 0.58363 0.0
C1929 C 0.70337 0.1404 0.64829 0.0
C1930 C 0.68853 0.12173 0.62628 0.0
C1931 C 0.62835 0.08245 0.57098 0.0
C1932 C 0.65177 0.09278 0.58782 0.0
H1933 H 0.68753 0.16631 0.70761 0.0
H1934 H 0.66531 0.13283 0.67234 0.0
H1935 H 0.70989 0.15281 0.59968 0.0
H1936 H 0.61023 0.05092 0.5118 0.0
H1937 H 0.65078 0.068 0.53845 0.0
C1938 C 0.81458 0.30241 0.31583 0.0
C1939 C 0.8091 0.31075 0.29373 0.0
C1940 C 0.82892 0.32373 0.33426 0.0
C1941 C 0.83716 0.37946 0.37335 0.0
H1942 H 0.91828 0.41198 0.36948 0.0
C1943 C 0.92046 0.45122 0.4485 0.0
C1944 C 0.9323 0.43146 0.45519 0.0
C1945 C 0.90209 0.44257 0.42916 0.0
C1946 C 0.89558 0.40373 0.3705 0.0
H1947 H 0.81563 0.34753 0.27273 0.0
H1948 H 0.84144 0.38496 0.30513 0.0
H1949 H 0.89361 0.38556 0.33192 0.0
H1950 H 0.93145 0.38618 0.44898 0.0
H1951 H 0.89951 0.37138 0.41538 0.0
H1952 H 0.83926 0.39586 0.41233 0.0
C1953 C 0.83403 0.36197 0.30819 0.0
C1954 C 0.88159 0.38872 0.34916 0.0
C1955 C 0.81932 0.34064 0.28982 0.0
C1956 C 0.92306 0.4021 0.44411 0.0
C1957 C 0.9049 0.39359 0.42482 0.0
C1958 C 0.85115 0.39467 0.39464 0.0
C1959 C 0.83834 0.35357 0.33066 0.0
C1960 C 0.85241 0.3755 0.35081 0.0
C1961 C 0.89531 0.41409 0.41659 0.0
C1962 C 0.88043 0.4058 0.39349 0.0
H1963 H 0.80703 0.27953 0.31925 0.0
H1964 H 0.83246 0.31698 0.35148 0.0
H1965 H 0.81459 0.36919 0.37482 0.0
H1966 H 0.92698 0.47392 0.4568 0.0
H1967 H 0.89455 0.45852 0.42308 0.0
C1968 C 0.69403 0.78389 0.31054 0.0
C1969 C 0.71444 0.79805 0.29265 0.0
C1970 C 0.67947 0.7992 0.32718 0.0
C1971 C 0.6781 0.87665 0.34915 0.0
H1972 H 0.60684 0.83278 0.38031 0.0
C1973 C 0.61749 0.93489 0.42434 0.0
C1974 C 0.58808 0.92266 0.4272 0.0
C1975 C 0.6332 0.92025 0.40815 0.0
C1976 C 0.62647 0.84574 0.3716 0.0
H1977 H 0.73499 0.84004 0.2784 0.0
H1978 H 0.70821 0.86602 0.3053 0.0
H1979 H 0.63189 0.80704 0.35151 0.0
H1980 H 0.55243 0.88519 0.41445 0.0
H1981 H 0.57917 0.8606 0.38604 0.0
H1982 H 0.67164 0.91555 0.36819 0.0
C1983 C 0.7041 0.84326 0.30765 0.0
C1984 C 0.64143 0.83065 0.35519 0.0
C1985 C 0.71925 0.82805 0.29157 0.0
C1986 C 0.57498 0.89551 0.41302 0.0
C1987 C 0.59056 0.88106 0.39674 0.0
C1988 C 0.66285 0.8918 0.3652 0.0
C1989 C 0.68395 0.82926 0.32603 0.0
C1990 C 0.6677 0.84569 0.34362 0.0
C1991 C 0.62005 0.8929 0.39407 0.0
C1992 C 0.63669 0.87669 0.37683 0.0
H1993 H 0.68874 0.76068 0.31143 0.0
H1994 H 0.66476 0.78712 0.34098 0.0
H1995 H 0.69829 0.88954 0.34134 0.0
H1996 H 0.62851 0.95562 0.43493 0.0
H1997 H 0.65576 0.93026 0.40716 0.0
C1998 C 0.20965 0.71104 0.32595 0.0
C1999 C 0.20571 0.7045 0.30025 0.0
C2000 C 0.19085 0.69359 0.34292 0.0
C2001 C 0.11915 0.6366 0.34664 0.0
H2002 H 0.14318 0.62662 0.40932 0.0
C2003 C 0.05943 0.54555 0.41083 0.0
C2004 C 0.0577 0.55498 0.43649 0.0
C2005 C 0.07437 0.56563 0.39403 0.0
C2006 C 0.13616 0.6295 0.39196 0.0
H2007 H 0.1806 0.67369 0.27176 0.0
H2008 H 0.14879 0.6423 0.301 0.0
H2009 H 0.17719 0.65656 0.38029 0.0
H2010 H 0.06941 0.59233 0.46491 0.0
H2011 H 0.09594 0.62754 0.43552 0.0
H2012 H 0.07837 0.60799 0.35802 0.0
C2013 C 0.16523 0.66172 0.30845 0.0
C2014 C 0.15562 0.64677 0.37532 0.0
C2015 C 0.18355 0.67959 0.29161 0.0
C2016 C 0.07003 0.58484 0.44508 0.0
C2017 C 0.08539 0.60482 0.42837 0.0
C2018 C 0.09986 0.61878 0.36306 0.0
C2019 C 0.16816 0.6688 0.33441 0.0
C2020 C 0.14742 0.65056 0.35236 0.0
C2021 C 0.08834 0.5952 0.40282 0.0
C2022 C 0.10821 0.61514 0.38587 0.0
H2023 H 0.22679 0.7301 0.33294 0.0
H2024 H 0.19381 0.70003 0.36269 0.0
H2025 H 0.11173 0.63947 0.32951 0.0
H2026 H 0.05058 0.52243 0.404 0.0
H2027 H 0.07655 0.55768 0.37444 0.0
C2028 C 0.36275 0.18349 0.34957 0.0
C2029 C 0.37165 0.18171 0.32406 0.0
C2030 C 0.36845 0.16629 0.36549 0.0
C2031 C 0.39367 0.10318 0.36611 0.0
H2032 H 0.4253 0.14638 0.42807 0.0
C2033 C 0.43467 0.05152 0.43707 0.0
C2034 C 0.45836 0.06959 0.45001 0.0
C2035 C 0.42225 0.06316 0.42137 0.0
C2036 C 0.41677 0.13408 0.41073 0.0
H2037 H 0.39125 0.15877 0.29491 0.0
H2038 H 0.40167 0.12938 0.32252 0.0
H2039 H 0.40411 0.16888 0.40226 0.0
H2040 H 0.48842 0.1138 0.45533 0.0
H2041 H 0.46713 0.13402 0.42744 0.0
H2042 H 0.40732 0.06884 0.37411 0.0
C2043 C 0.3903 0.14391 0.3304 0.0
C2044 C 0.40413 0.14679 0.39612 0.0
C2045 C 0.38464 0.16105 0.31457 0.0
C2046 C 0.47021 0.09926 0.44573 0.0
C2047 C 0.45775 0.11093 0.42998 0.0
C2048 C 0.40639 0.0905 0.38069 0.0
C2049 C 0.38305 0.14691 0.3562 0.0
C2050 C 0.39294 0.13176 0.37335 0.0
C2051 C 0.4332 0.09317 0.41808 0.0
C2052 C 0.41864 0.10605 0.40294 0.0
H2053 H 0.35258 0.19914 0.35745 0.0
H2054 H 0.36211 0.16874 0.38519 0.0
H2055 H 0.38485 0.09078 0.3489 0.0
H2056 H 0.42496 0.0285 0.43981 0.0
H2057 H 0.40336 0.04883 0.41263 0.0
C2058 C 0.65314 0.84655 0.67 0.0
C2059 C 0.64498 0.81578 0.66734 0.0
C2060 C 0.64395 0.86061 0.6537 0.0
C2061 C 0.58428 0.84777 0.61723 0.0
H2062 H 0.63108 0.91561 0.58478 0.0
C2063 C 0.5415 0.89693 0.54628 0.0
C2064 C 0.55338 0.92722 0.54424 0.0
C2065 C 0.55243 0.88382 0.56203 0.0
C2066 C 0.61759 0.89701 0.59406 0.0
H2067 H 0.62179 0.77542 0.64547 0.0
H2068 H 0.6052 0.79996 0.61713 0.0
H2069 H 0.65237 0.89186 0.60953 0.0
H2070 H 0.58496 0.96784 0.55849 0.0
H2071 H 0.6032 0.94524 0.58668 0.0
H2072 H 0.54939 0.85321 0.60262 0.0
C2073 C 0.61878 0.81322 0.63168 0.0
C2074 C 0.62988 0.88331 0.60807 0.0
C2075 C 0.62835 0.79923 0.64771 0.0
C2076 C 0.57541 0.94438 0.55943 0.0
C2077 C 0.58612 0.93134 0.57541 0.0
C2078 C 0.57193 0.8617 0.60357 0.0
C2079 C 0.62603 0.84399 0.63485 0.0
C2080 C 0.61334 0.85846 0.61965 0.0
C2081 C 0.5753 0.90075 0.57642 0.0
C2082 C 0.58839 0.88645 0.59168 0.0
H2083 H 0.66592 0.85959 0.68513 0.0
H2084 H 0.64977 0.88435 0.65658 0.0
H2085 H 0.57099 0.82892 0.62633 0.0
H2086 H 0.52466 0.88301 0.53475 0.0
H2087 H 0.54365 0.86019 0.56206 0.0
C2088 C 0.69748 0.17019 0.29251 0.0
C2089 C 0.70929 0.20079 0.2985 0.0
C2090 C 0.67725 0.15319 0.30871 0.0
C2091 C 0.62395 0.15533 0.35895 0.0
H2092 H 0.63448 0.08509 0.37478 0.0
C2093 C 0.56127 0.08446 0.438 0.0
C2094 C 0.55726 0.0543 0.43364 0.0
C2095 C 0.57594 0.10303 0.41991 0.0
C2096 C 0.63088 0.10431 0.37022 0.0
H2097 H 0.70999 0.23735 0.32664 0.0
H2098 H 0.67371 0.20765 0.35464 0.0
H2099 H 0.66876 0.11648 0.34704 0.0
H2100 H 0.56268 0.01923 0.40661 0.0
H2101 H 0.58702 0.05121 0.37465 0.0
H2102 H 0.58588 0.14295 0.38225 0.0
C2103 C 0.68002 0.19698 0.33726 0.0
C2104 C 0.65065 0.12237 0.35443 0.0
C2105 C 0.70069 0.21396 0.32121 0.0
C2106 C 0.56569 0.04251 0.4103 0.0
C2107 C 0.57987 0.06087 0.39217 0.0
C2108 C 0.60395 0.13706 0.37473 0.0
C2109 C 0.66824 0.16641 0.33118 0.0
C2110 C 0.64733 0.14794 0.34851 0.0
C2111 C 0.58653 0.09152 0.39727 0.0
C2112 C 0.6071 0.11117 0.38033 0.0
H2113 H 0.70358 0.15933 0.27513 0.0
H2114 H 0.66839 0.12967 0.30352 0.0
H2115 H 0.6209 0.17491 0.35453 0.0
H2116 H 0.55511 0.09393 0.45604 0.0
H2117 H 0.58071 0.12653 0.42438 0.0
C2118 C 0.8601 0.63866 0.31695 0.0
C2119 C 0.83595 0.64532 0.326 0.0
C2120 C 0.87716 0.6341 0.33339 0.0
C2121 C 0.8714 0.60635 0.39311 0.0
H2122 H 0.95261 0.63486 0.38865 0.0
C2123 C 0.93108 0.57558 0.46214 0.0
C2124 C 0.95609 0.57047 0.4539 0.0
C2125 C 0.91858 0.5879 0.44723 0.0
C2126 C 0.92995 0.62636 0.38995 0.0
H2127 H 0.81141 0.65382 0.35949 0.0
H2128 H 0.84111 0.64541 0.38833 0.0
H2129 H 0.92726 0.6521 0.36186 0.0
H2130 H 0.98812 0.57458 0.42376 0.0
H2131 H 0.96547 0.59501 0.39672 0.0
H2132 H 0.87359 0.57956 0.42007 0.0
C2133 C 0.84678 0.64373 0.36844 0.0
C2134 C 0.91545 0.63645 0.37472 0.0
C2135 C 0.8299 0.64871 0.35198 0.0
C2136 C 0.96878 0.57836 0.43047 0.0
C2137 C 0.95584 0.59021 0.41513 0.0
C2138 C 0.88579 0.59594 0.40798 0.0
C2139 C 0.87025 0.63574 0.35925 0.0
C2140 C 0.886 0.62659 0.37622 0.0
C2141 C 0.93031 0.5948 0.42323 0.0
C2142 C 0.9153 0.60588 0.4068 0.0
H2143 H 0.86538 0.63621 0.29703 0.0
H2144 H 0.895 0.62787 0.32572 0.0
H2145 H 0.84871 0.59783 0.39431 0.0
H2146 H 0.92116 0.57007 0.48036 0.0
H2147 H 0.89957 0.59194 0.45464 0.0
C2148 C 0.32362 0.82616 0.29463 0.0
C2149 C 0.29446 0.81256 0.29735 0.0
C2150 C 0.33833 0.84461 0.31436 0.0
C2151 C 0.3331 0.88749 0.37537 0.0
H2152 H 0.39991 0.87109 0.38585 0.0
C2153 C 0.40698 0.92525 0.46112 0.0
C2154 C 0.43479 0.93969 0.45297 0.0
C2155 C 0.38631 0.91346 0.44363 0.0
C2156 C 0.38128 0.87585 0.38311 0.0
H2157 H 0.25754 0.80873 0.32222 0.0
H2158 H 0.28352 0.84094 0.35717 0.0
H2159 H 0.37069 0.84293 0.35181 0.0
H2160 H 0.46302 0.95463 0.42112 0.0
H2161 H 0.42717 0.93363 0.39064 0.0
H2162 H 0.3441 0.9205 0.40713 0.0
C2163 C 0.29488 0.83741 0.33965 0.0
C2164 C 0.36467 0.85992 0.36357 0.0
C2165 C 0.28005 0.81899 0.31972 0.0
C2166 C 0.44155 0.94366 0.42767 0.0
C2167 C 0.42114 0.93173 0.41031 0.0
C2168 C 0.34978 0.90342 0.39518 0.0
C2169 C 0.32427 0.84966 0.33736 0.0
C2170 C 0.3407 0.86592 0.35914 0.0
C2171 C 0.39359 0.91576 0.41802 0.0
C2172 C 0.3742 0.89793 0.39884 0.0
H2173 H 0.33523 0.822 0.2774 0.0
H2174 H 0.36089 0.85437 0.31181 0.0
H2175 H 0.31475 0.89256 0.37233 0.0
H2176 H 0.40158 0.9219 0.48063 0.0
H2177 H 0.36515 0.90098 0.44984 0.0
C2178 C 0.20933 0.32148 0.28222 0.0
C2179 C 0.22 0.30217 0.29139 0.0
C2180 C 0.19392 0.33666 0.29824 0.0
C2181 C 0.15484 0.33529 0.36176 0.0
H2182 H 0.15778 0.41319 0.35141 0.0
C2183 C 0.07977 0.39009 0.41903 0.0
C2184 C 0.08964 0.42061 0.42672 0.0
C2185 C 0.09595 0.37659 0.40246 0.0
C2186 C 0.15682 0.39153 0.35477 0.0
H2187 H 0.2215 0.2833 0.32484 0.0
H2188 H 0.19657 0.31035 0.35256 0.0
H2189 H 0.18519 0.38843 0.32307 0.0
H2190 H 0.12482 0.4607 0.42238 0.0
H2191 H 0.15297 0.43721 0.39328 0.0
H2192 H 0.12703 0.33853 0.39368 0.0
C2193 C 0.1995 0.31371 0.33298 0.0
C2194 C 0.17237 0.37706 0.33821 0.0
C2195 C 0.21452 0.29845 0.31699 0.0
C2196 C 0.11636 0.43719 0.417 0.0
C2197 C 0.13249 0.42367 0.40012 0.0
C2198 C 0.13935 0.3497 0.37823 0.0
C2199 C 0.18865 0.333 0.32398 0.0
C2200 C 0.17173 0.34864 0.3414 0.0
C2201 C 0.12264 0.39304 0.39267 0.0
C2202 C 0.13993 0.37807 0.37507 0.0
H2203 H 0.21279 0.32485 0.26262 0.0
H2204 H 0.18574 0.35089 0.29027 0.0
H2205 H 0.15317 0.31336 0.36494 0.0
H2206 H 0.05945 0.37636 0.42602 0.0
H2207 H 0.08722 0.35311 0.39709 0.0
C2208 C 0.28808 0.17029 0.69321 0.0
C2209 C 0.29814 0.20121 0.69803 0.0
C2210 C 0.30303 0.15532 0.6766 0.0
C2211 C 0.37461 0.16344 0.64823 0.0
H2212 H 0.33636 0.09686 0.60156 0.0
C2213 C 0.43813 0.10752 0.57576 0.0
C2214 C 0.42638 0.07766 0.56626 0.0
C2215 C 0.42222 0.12219 0.59131 0.0
C2216 C 0.34758 0.11503 0.6147 0.0
H2217 H 0.33226 0.24044 0.68902 0.0
H2218 H 0.35839 0.21447 0.66041 0.0
H2219 H 0.30959 0.1227 0.62914 0.0
H2220 H 0.38804 0.04003 0.56616 0.0
H2221 H 0.36058 0.06505 0.59401 0.0
H2222 H 0.4124 0.15548 0.63475 0.0
C2223 C 0.33882 0.2017 0.6694 0.0
C2224 C 0.33205 0.13006 0.63054 0.0
C2225 C 0.32365 0.21668 0.68572 0.0
C2226 C 0.39801 0.06295 0.57306 0.0
C2227 C 0.38209 0.07759 0.58896 0.0
C2228 C 0.39008 0.14816 0.63273 0.0
C2229 C 0.32879 0.17074 0.66457 0.0
C2230 C 0.34532 0.15462 0.6475 0.0
C2231 C 0.39387 0.1076 0.59843 0.0
C2232 C 0.37697 0.12368 0.61547 0.0
H2233 H 0.26851 0.15755 0.70222 0.0
H2234 H 0.29464 0.13153 0.67359 0.0
H2235 H 0.38564 0.1819 0.66127 0.0
H2236 H 0.45975 0.11994 0.57088 0.0
H2237 H 0.43232 0.14532 0.59732 0.0
C2238 C 0.83934 0.29558 0.69864 0.0
C2239 C 0.8107 0.29046 0.69754 0.0
C2240 C 0.85895 0.31312 0.68226 0.0
C2241 C 0.86633 0.36956 0.64021 0.0
H2242 H 0.93139 0.35017 0.61124 0.0
C2243 C 0.92395 0.41418 0.55211 0.0
C2244 C 0.95177 0.43312 0.55443 0.0
C2245 C 0.91048 0.39562 0.57018 0.0
C2246 C 0.91351 0.35598 0.61951 0.0
H2247 H 0.77983 0.29891 0.67833 0.0
H2248 H 0.81369 0.32913 0.64937 0.0
H2249 H 0.89922 0.31991 0.64167 0.0
H2250 H 0.98812 0.44586 0.57638 0.0
H2251 H 0.96412 0.41273 0.60855 0.0
H2252 H 0.87992 0.4047 0.6172 0.0
C2253 C 0.82134 0.32035 0.66326 0.0
C2254 C 0.89508 0.33874 0.63692 0.0
C2255 C 0.80184 0.30302 0.67981 0.0
C2256 C 0.96666 0.43144 0.57423 0.0
C2257 C 0.95298 0.41263 0.59256 0.0
C2258 C 0.88448 0.38644 0.6227 0.0
C2259 C 0.85021 0.32586 0.66439 0.0
C2260 C 0.87095 0.34502 0.64711 0.0
C2261 C 0.92447 0.39544 0.59102 0.0
C2262 C 0.90792 0.37952 0.61188 0.0
H2263 H 0.8466 0.28665 0.71262 0.0
H2264 H 0.88096 0.31716 0.68397 0.0
H2265 H 0.84849 0.37563 0.64814 0.0
H2266 H 0.91213 0.41467 0.53677 0.0
H2267 H 0.88863 0.38224 0.56843 0.0
C2268 C 0.21488 0.70835 0.67 0.0
C2269 C 0.21221 0.69664 0.69267 0.0
C2270 C 0.20191 0.69059 0.64918 0.0
C2271 C 0.1726 0.61415 0.62142 0.0
H2272 H 0.13127 0.64584 0.58407 0.0
C2273 C 0.08994 0.54589 0.55126 0.0
C2274 C 0.08437 0.5607 0.53318 0.0
C2275 C 0.11136 0.56065 0.56739 0.0
C2276 C 0.14332 0.63687 0.59382 0.0
H2277 H 0.19363 0.65761 0.71181 0.0
H2278 H 0.17047 0.62643 0.67524 0.0
H2279 H 0.15515 0.67528 0.62028 0.0
H2280 H 0.09879 0.60047 0.51501 0.0
H2281 H 0.1375 0.62573 0.54209 0.0
H2282 H 0.16035 0.57546 0.59497 0.0
C2283 C 0.18307 0.64917 0.6735 0.0
C2284 C 0.15678 0.6537 0.61473 0.0
C2285 C 0.19613 0.66698 0.69437 0.0
C2286 C 0.1026 0.58891 0.52915 0.0
C2287 C 0.12451 0.60336 0.54479 0.0
C2288 C 0.1592 0.59726 0.60027 0.0
C2289 C 0.18587 0.66087 0.65074 0.0
C2290 C 0.17155 0.64255 0.62871 0.0
C2291 C 0.12776 0.59017 0.56521 0.0
C2292 C 0.14443 0.6085 0.58622 0.0
H2293 H 0.22745 0.7311 0.66822 0.0
H2294 H 0.20463 0.70003 0.63175 0.0
H2295 H 0.184 0.60517 0.6319 0.0
H2296 H 0.07599 0.52405 0.55465 0.0
H2297 H 0.11328 0.54979 0.58286 0.0
loop_
_geom_bond_atom_site_label_1
_geom_bond_atom_site_label_2
_geom_bond_distance
_geom_bond_site_symmetry_2
_ccdc_geom_bond_type
C0 C2 1.422 . S
C0 C4 1.415 . S
C0 N6 1.369 . S
C1 C2 1.421 . S
C1 C3 1.417 . S
C1 C13 1.422 . S
C2 C0 1.422 . S
C2 C1 1.421 . S
C2 N12 1.359 . S
C3 C1 1.417 . S
C3 C5 1.329 . S
C3 H22 0.930 . S
C4 C0 1.415 . S
C4 C5 1.437 . S
C4 C8 1.413 . S
C5 C3 1.329 . S
C5 C4 1.437 . S
C5 H27 0.929 . S
N6 C0 1.369 . S
N6 C7 1.338 . S
N6 Gd11 2.622 . S
C7 N6 1.338 . S
C7 C9 1.378 . S
C7 H19 0.929 . S
C8 C4 1.413 . S
C8 C9 1.348 . S
C8 H24 0.931 . S
C9 C7 1.378 . S
C9 C8 1.348 . S
C9 H25 0.930 . S
Gd10 N30 2.622 . S
Gd10 N37 2.570 . S
Gd10 O44 2.353 . S
Gd10 O45 2.468 . S
Gd10 O46 2.427 . S
Gd10 O48 2.388 . S
Gd10 O49 2.386 . S
Gd10 O53 2.307 . S
Gd10 C63 2.805 . S
Gd11 N6 2.622 . S
Gd11 N12 2.570 . S
Gd11 O43 2.386 . S
Gd11 O47 2.307 . S
Gd11 O50 2.353 . S
Gd11 O51 2.468 . S
Gd11 O52 2.427 . S
Gd11 O54 2.388 . S
Gd11 C75 2.805 . S
N12 C2 1.359 . S
N12 Gd11 2.570 . S
N12 C14 1.343 . S
C13 C1 1.422 . S
C13 C15 1.321 . S
C13 H21 0.931 . S
C14 N12 1.343 . S
C14 C15 1.390 . S
C14 H16 0.931 . S
C15 C13 1.321 . S
C15 C14 1.390 . S
C15 H17 0.930 . S
H16 C14 0.931 . S
H17 C15 0.930 . S
H18 C41 0.931 . S
H19 C7 0.929 . S
H20 C42 0.930 . S
H21 C13 0.931 . S
H22 C3 0.930 . S
H23 C32 0.929 . S
H24 C8 0.931 . S
H25 C9 0.930 . S
H26 C64 0.930 . S
H27 C5 0.929 . S
H28 C33 0.931 . S
H29 C34 0.930 . S
N30 Gd10 2.622 . S
N30 C31 1.369 . S
N30 C32 1.338 . S
C31 N30 1.369 . S
C31 C35 1.415 . S
C31 C38 1.422 . S
C32 H23 0.929 . S
C32 N30 1.338 . S
C32 C34 1.378 . S
C33 H28 0.931 . S
C33 C34 1.348 . S
C33 C35 1.413 . S
C34 H29 0.930 . S
C34 C32 1.378 . S
C34 C33 1.348 . S
C35 C31 1.415 . S
C35 C33 1.413 . S
C35 C65 1.437 . S
H36 C65 0.929 . S
N37 Gd10 2.570 . S
N37 C38 1.359 . S
N37 C41 1.343 . S
C38 C31 1.422 . S
C38 N37 1.359 . S
C38 C40 1.421 . S
C39 C40 1.422 . S
C39 C42 1.321 . S
C39 H66 0.931 . S
C40 C38 1.421 . S
C40 C39 1.422 . S
C40 C64 1.417 . S
C41 H18 0.931 . S
C41 N37 1.343 . S
C41 C42 1.390 . S
C42 H20 0.930 . S
C42 C39 1.321 . S
C42 C41 1.390 . S
O43 Gd11 2.386 . S
O43 C55 1.265 . S
O44 Gd10 2.353 . S
O44 C55 1.242 . S
O45 Gd10 2.468 . S
O45 C63 1.263 . S
O46 Gd10 2.427 . S
O46 C63 1.252 . S
O47 Gd11 2.307 . S
O47 C56 1.261 . S
O48 Gd10 2.388 . S
O48 C56 1.252 . S
O49 Gd10 2.386 . S
O49 C67 1.265 . S
O50 Gd11 2.353 . S
O50 C67 1.242 . S
O51 Gd11 2.468 . S
O51 C75 1.263 . S
O52 Gd11 2.427 . S
O52 C75 1.252 . S
O53 Gd10 2.307 . S
O53 C68 1.261 . S
O54 Gd11 2.388 . S
O54 C68 1.252 . S
C55 O43 1.265 . S
C55 O44 1.242 . S
C56 O47 1.261 . S
C56 O48 1.252 . S
C57 C60 1.394 . S
C57 C62 1.370 . S
C57 C63 1.500 . S
C58 C61 1.383 . S
C58 C62 1.395 . S
C59 C60 1.396 . S
C59 C61 1.365 . S
C59 H76 0.929 . S
C60 C57 1.394 . S
C60 C59 1.396 . S
C60 H77 0.930 . S
C61 C58 1.383 . S
C61 C59 1.365 . S
C61 H78 0.931 . S
C62 C57 1.370 . S
C62 C58 1.395 . S
C62 H79 0.930 . S
C63 Gd10 2.805 . S
C63 O45 1.263 . S
C63 O46 1.252 . S
C63 C57 1.500 . S
C64 H26 0.930 . S
C64 C40 1.417 . S
C64 C65 1.329 . S
C65 C35 1.437 . S
C65 H36 0.929 . S
C65 C64 1.329 . S
H66 C39 0.931 . S
C67 O49 1.265 . S
C67 O50 1.242 . S
C68 O53 1.261 . S
C68 O54 1.252 . S
C69 C72 1.394 . S
C69 C74 1.370 . S
C69 C75 1.500 . S
C70 C73 1.383 . S
C70 C74 1.395 . S
C71 C72 1.396 . S
C71 C73 1.365 . S
C71 H80 0.929 . S
C72 C69 1.394 . S
C72 C71 1.396 . S
C72 H81 0.930 . S
C73 C70 1.383 . S
C73 C71 1.365 . S
C73 H82 0.931 . S
C74 C69 1.370 . S
C74 C70 1.395 . S
C74 H83 0.930 . S
C75 Gd11 2.805 . S
C75 O51 1.263 . S
C75 O52 1.252 . S
C75 C69 1.500 . S
H76 C59 0.929 . S
H77 C60 0.930 . S
H78 C61 0.931 . S
H79 C62 0.930 . S
H80 C71 0.929 . S
H81 C72 0.930 . S
H82 C73 0.931 . S
H83 C74 0.930 . S
C84 C86 1.422 . S
C84 C88 1.415 . S
C84 N90 1.369 . S
C85 C86 1.421 . S
C85 C87 1.417 . S
C85 C97 1.422 . S
C86 C84 1.422 . S
C86 C85 1.421 . S
C86 N96 1.359 . S
C87 C85 1.417 . S
C87 C89 1.329 . S
C87 H106 0.930 . S
C88 C84 1.415 . S
C88 C89 1.437 . S
C88 C92 1.413 . S
C89 C87 1.329 . S
C89 C88 1.437 . S
C89 H111 0.929 . S
N90 C84 1.369 . S
N90 C91 1.338 . S
N90 Gd95 2.622 . S
C91 N90 1.338 . S
C91 C93 1.378 . S
C91 H103 0.929 . S
C92 C88 1.413 . S
C92 C93 1.348 . S
C92 H108 0.931 . S
C93 C91 1.378 . S
C93 C92 1.348 . S
C93 H109 0.930 . S
Gd94 N114 2.622 . S
Gd94 N121 2.570 . S
Gd94 O128 2.353 . S
Gd94 O129 2.468 . S
Gd94 O130 2.427 . S
Gd94 O132 2.388 . S
Gd94 O133 2.386 . S
Gd94 O137 2.307 . S
Gd94 C147 2.805 . S
Gd95 N90 2.622 . S
Gd95 N96 2.570 . S
Gd95 O127 2.386 . S
Gd95 O131 2.307 . S
Gd95 O134 2.353 . S
Gd95 O135 2.468 . S
Gd95 O136 2.427 . S
Gd95 O138 2.388 . S
Gd95 C159 2.805 . S
N96 C86 1.359 . S
N96 Gd95 2.570 . S
N96 C98 1.343 . S
C97 C85 1.422 . S
C97 C99 1.321 . S
C97 H105 0.931 . S
C98 N96 1.343 . S
C98 C99 1.390 . S
C98 H100 0.931 . S
C99 C97 1.321 . S
C99 C98 1.390 . S
C99 H101 0.930 . S
H100 C98 0.931 . S
H101 C99 0.930 . S
H102 C125 0.931 . S
H103 C91 0.929 . S
H104 C126 0.930 . S
H105 C97 0.931 . S
H106 C87 0.930 . S
H107 C116 0.929 . S
H108 C92 0.931 . S
H109 C93 0.930 . S
H110 C148 0.930 . S
H111 C89 0.929 . S
H112 C117 0.931 . S
H113 C118 0.930 . S
N114 Gd94 2.622 . S
N114 C115 1.369 . S
N114 C116 1.338 . S
C115 N114 1.369 . S
C115 C119 1.415 . S
C115 C122 1.422 . S
C116 H107 0.929 . S
C116 N114 1.338 . S
C116 C118 1.378 . S
C117 H112 0.931 . S
C117 C118 1.348 . S
C117 C119 1.413 . S
C118 H113 0.930 . S
C118 C116 1.378 . S
C118 C117 1.348 . S
C119 C115 1.415 . S
C119 C117 1.413 . S
C119 C149 1.437 . S
H120 C149 0.929 . S
N121 Gd94 2.570 . S
N121 C122 1.359 . S
N121 C125 1.343 . S
C122 C115 1.422 . S
C122 N121 1.359 . S
C122 C124 1.421 . S
C123 C124 1.422 . S
C123 C126 1.321 . S
C123 H150 0.931 . S
C124 C122 1.421 . S
C124 C123 1.422 . S
C124 C148 1.417 . S
C125 H102 0.931 . S
C125 N121 1.343 . S
C125 C126 1.390 . S
C126 H104 0.930 . S
C126 C123 1.321 . S
C126 C125 1.390 . S
O127 Gd95 2.386 . S
O127 C139 1.265 . S
O128 Gd94 2.353 . S
O128 C139 1.242 . S
O129 Gd94 2.468 . S
O129 C147 1.263 . S
O130 Gd94 2.427 . S
O130 C147 1.252 . S
O131 Gd95 2.307 . S
O131 C140 1.261 . S
O132 Gd94 2.388 . S
O132 C140 1.252 . S
O133 Gd94 2.386 . S
O133 C151 1.265 . S
O134 Gd95 2.353 . S
O134 C151 1.242 . S
O135 Gd95 2.468 . S
O135 C159 1.263 . S
O136 Gd95 2.427 . S
O136 C159 1.252 . S
O137 Gd94 2.307 . S
O137 C152 1.261 . S
O138 Gd95 2.388 . S
O138 C152 1.252 . S
C139 O127 1.265 . S
C139 O128 1.242 . S
C140 O131 1.261 . S
C140 O132 1.252 . S
C141 C144 1.394 . S
C141 C146 1.370 . S
C141 C147 1.500 . S
C142 C145 1.383 . S
C142 C146 1.395 . S
C143 C144 1.396 . S
C143 C145 1.365 . S
C143 H160 0.929 . S
C144 C141 1.394 . S
C144 C143 1.396 . S
C144 H161 0.930 . S
C145 C142 1.383 . S
C145 C143 1.365 . S
C145 H162 0.931 . S
C146 C141 1.370 . S
C146 C142 1.395 . S
C146 H163 0.930 . S
C147 Gd94 2.805 . S
C147 O129 1.263 . S
C147 O130 1.252 . S
C147 C141 1.500 . S
C148 H110 0.930 . S
C148 C124 1.417 . S
C148 C149 1.329 . S
C149 C119 1.437 . S
C149 H120 0.929 . S
C149 C148 1.329 . S
H150 C123 0.931 . S
C151 O133 1.265 . S
C151 O134 1.242 . S
C152 O137 1.261 . S
C152 O138 1.252 . S
C153 C156 1.394 . S
C153 C158 1.370 . S
C153 C159 1.500 . S
C154 C157 1.383 . S
C154 C158 1.395 . S
C155 C156 1.396 . S
C155 C157 1.365 . S
C155 H164 0.929 . S
C156 C153 1.394 . S
C156 C155 1.396 . S
C156 H165 0.930 . S
C157 C154 1.383 . S
C157 C155 1.365 . S
C157 H166 0.931 . S
C158 C153 1.370 . S
C158 C154 1.395 . S
C158 H167 0.930 . S
C159 Gd95 2.805 . S
C159 O135 1.263 . S
C159 O136 1.252 . S
C159 C153 1.500 . S
H160 C143 0.929 . S
H161 C144 0.930 . S
H162 C145 0.931 . S
H163 C146 0.930 . S
H164 C155 0.929 . S
H165 C156 0.930 . S
H166 C157 0.931 . S
H167 C158 0.930 . S
C168 C170 1.422 . S
C168 C172 1.415 . S
C168 N174 1.369 . S
C169 C170 1.421 . S
C169 C171 1.417 . S
C169 C181 1.422 . S
C170 C168 1.422 . S
C170 C169 1.421 . S
C170 N180 1.359 . S
C171 C169 1.417 . S
C171 C173 1.329 . S
C171 H190 0.930 . S
C172 C168 1.415 . S
C172 C173 1.437 . S
C172 C176 1.413 . S
C173 C171 1.329 . S
C173 C172 1.437 . S
C173 H195 0.929 . S
N174 C168 1.369 . S
N174 C175 1.338 . S
N174 Gd179 2.622 . S
C175 N174 1.338 . S
C175 C177 1.378 . S
C175 H187 0.929 . S
C176 C172 1.413 . S
C176 C177 1.348 . S
C176 H192 0.931 . S
C177 C175 1.378 . S
C177 C176 1.348 . S
C177 H193 0.930 . S
Gd178 N198 2.622 . S
Gd178 N205 2.570 . S
Gd178 O212 2.353 . S
Gd178 O213 2.468 . S
Gd178 O214 2.427 . S
Gd178 O216 2.388 . S
Gd178 O217 2.386 . S
Gd178 O221 2.307 . S
Gd178 C231 2.805 . S
Gd179 N174 2.622 . S
Gd179 N180 2.570 . S
Gd179 O211 2.386 . S
Gd179 O215 2.307 . S
Gd179 O218 2.353 . S
Gd179 O219 2.468 . S
Gd179 O220 2.427 . S
Gd179 O222 2.388 . S
Gd179 C243 2.805 . S
N180 C170 1.359 . S
N180 Gd179 2.570 . S
N180 C182 1.343 . S
C181 C169 1.422 . S
C181 C183 1.321 . S
C181 H189 0.931 . S
C182 N180 1.343 . S
C182 C183 1.390 . S
C182 H184 0.931 . S
C183 C181 1.321 . S
C183 C182 1.390 . S
C183 H185 0.930 . S
H184 C182 0.931 . S
H185 C183 0.930 . S
H186 C209 0.931 . S
H187 C175 0.929 . S
H188 C210 0.930 . S
H189 C181 0.931 . S
H190 C171 0.930 . S
H191 C200 0.929 . S
H192 C176 0.931 . S
H193 C177 0.930 . S
H194 C232 0.930 . S
H195 C173 0.929 . S
H196 C201 0.931 . S
H197 C202 0.930 . S
N198 Gd178 2.622 . S
N198 C199 1.369 . S
N198 C200 1.338 . S
C199 N198 1.369 . S
C199 C203 1.415 . S
C199 C206 1.422 . S
C200 H191 0.929 . S
C200 N198 1.338 . S
C200 C202 1.378 . S
C201 H196 0.931 . S
C201 C202 1.348 . S
C201 C203 1.413 . S
C202 H197 0.930 . S
C202 C200 1.378 . S
C202 C201 1.348 . S
C203 C199 1.415 . S
C203 C201 1.413 . S
C203 C233 1.437 . S
H204 C233 0.929 . S
N205 Gd178 2.570 . S
N205 C206 1.359 . S
N205 C209 1.343 . S
C206 C199 1.422 . S
C206 N205 1.359 . S
C206 C208 1.421 . S
C207 C208 1.422 . S
C207 C210 1.321 . S
C207 H234 0.931 . S
C208 C206 1.421 . S
C208 C207 1.422 . S
C208 C232 1.417 . S
C209 H186 0.931 . S
C209 N205 1.343 . S
C209 C210 1.390 . S
C210 H188 0.930 . S
C210 C207 1.321 . S
C210 C209 1.390 . S
O211 Gd179 2.386 . S
O211 C223 1.265 . S
O212 Gd178 2.353 . S
O212 C223 1.242 . S
O213 Gd178 2.468 . S
O213 C231 1.263 . S
O214 Gd178 2.427 . S
O214 C231 1.252 . S
O215 Gd179 2.307 . S
O215 C224 1.261 . S
O216 Gd178 2.388 . S
O216 C224 1.252 . S
O217 Gd178 2.386 . S
O217 C235 1.265 . S
O218 Gd179 2.353 . S
O218 C235 1.242 . S
O219 Gd179 2.468 . S
O219 C243 1.263 . S
O220 Gd179 2.427 . S
O220 C243 1.252 . S
O221 Gd178 2.307 . S
O221 C236 1.261 . S
O222 Gd179 2.388 . S
O222 C236 1.252 . S
C223 O211 1.265 . S
C223 O212 1.242 . S
C224 O215 1.261 . S
C224 O216 1.252 . S
C225 C228 1.394 . S
C225 C230 1.370 . S
C225 C231 1.500 . S
C226 C229 1.383 . S
C226 C230 1.395 . S
C227 C228 1.396 . S
C227 C229 1.365 . S
C227 H244 0.929 . S
C228 C225 1.394 . S
C228 C227 1.396 . S
C228 H245 0.930 . S
C229 C226 1.383 . S
C229 C227 1.365 . S
C229 H246 0.931 . S
C230 C225 1.370 . S
C230 C226 1.395 . S
C230 H247 0.930 . S
C231 Gd178 2.805 . S
C231 O213 1.263 . S
C231 O214 1.252 . S
C231 C225 1.500 . S
C232 H194 0.930 . S
C232 C208 1.417 . S
C232 C233 1.329 . S
C233 C203 1.437 . S
C233 H204 0.929 . S
C233 C232 1.329 . S
H234 C207 0.931 . S
C235 O217 1.265 . S
C235 O218 1.242 . S
C236 O221 1.261 . S
C236 O222 1.252 . S
C237 C240 1.394 . S
C237 C242 1.370 . S
C237 C243 1.500 . S
C238 C241 1.383 . S
C238 C242 1.395 . S
C239 C240 1.396 . S
C239 C241 1.365 . S
C239 H248 0.929 . S
C240 C237 1.394 . S
C240 C239 1.396 . S
C240 H249 0.930 . S
C241 C238 1.383 . S
C241 C239 1.365 . S
C241 H250 0.931 . S
C242 C237 1.370 . S
C242 C238 1.395 . S
C242 H251 0.930 . S
C243 Gd179 2.805 . S
C243 O219 1.263 . S
C243 O220 1.252 . S
C243 C237 1.500 . S
H244 C227 0.929 . S
H245 C228 0.930 . S
H246 C229 0.931 . S
H247 C230 0.930 . S
H248 C239 0.929 . S
H249 C240 0.930 . S
H250 C241 0.931 . S
H251 C242 0.930 . S
C252 C254 1.422 . S
C252 C256 1.415 . S
C252 N258 1.369 . S
C253 C254 1.421 . S
C253 C255 1.417 . S
C253 C265 1.422 . S
C254 C252 1.422 . S
C254 C253 1.421 . S
C254 N264 1.359 . S
C255 C253 1.417 . S
C255 C257 1.329 . S
C255 H274 0.930 . S
C256 C252 1.415 . S
C256 C257 1.437 . S
C256 C260 1.413 . S
C257 C255 1.329 . S
C257 C256 1.437 . S
C257 H279 0.929 . S
N258 C252 1.369 . S
N258 C259 1.338 . S
N258 Gd263 2.622 . S
C259 N258 1.338 . S
C259 C261 1.378 . S
C259 H271 0.929 . S
C260 C256 1.413 . S
C260 C261 1.348 . S
C260 H276 0.931 . S
C261 C259 1.378 . S
C261 C260 1.348 . S
C261 H277 0.930 . S
Gd262 N282 2.622 . S
Gd262 N289 2.570 . S
Gd262 O296 2.353 . S
Gd262 O297 2.468 . S
Gd262 O298 2.427 . S
Gd262 O300 2.388 . S
Gd262 O301 2.386 . S
Gd262 O305 2.307 . S
Gd262 C315 2.805 . S
Gd263 N258 2.622 . S
Gd263 N264 2.570 . S
Gd263 O295 2.386 . S
Gd263 O299 2.307 . S
Gd263 O302 2.353 . S
Gd263 O303 2.468 . S
Gd263 O304 2.427 . S
Gd263 O306 2.388 . S
Gd263 C327 2.805 . S
N264 C254 1.359 . S
N264 Gd263 2.570 . S
N264 C266 1.343 . S
C265 C253 1.422 . S
C265 C267 1.321 . S
C265 H273 0.931 . S
C266 N264 1.343 . S
C266 C267 1.390 . S
C266 H268 0.931 . S
C267 C265 1.321 . S
C267 C266 1.390 . S
C267 H269 0.930 . S
H268 C266 0.931 . S
H269 C267 0.930 . S
H270 C293 0.931 . S
H271 C259 0.929 . S
H272 C294 0.930 . S
H273 C265 0.931 . S
H274 C255 0.930 . S
H275 C284 0.929 . S
H276 C260 0.931 . S
H277 C261 0.930 . S
H278 C316 0.930 . S
H279 C257 0.929 . S
H280 C285 0.931 . S
H281 C286 0.930 . S
N282 Gd262 2.622 . S
N282 C283 1.369 . S
N282 C284 1.338 . S
C283 N282 1.369 . S
C283 C287 1.415 . S
C283 C290 1.422 . S
C284 H275 0.929 . S
C284 N282 1.338 . S
C284 C286 1.378 . S
C285 H280 0.931 . S
C285 C286 1.348 . S
C285 C287 1.413 . S
C286 H281 0.930 . S
C286 C284 1.378 . S
C286 C285 1.348 . S
C287 C283 1.415 . S
C287 C285 1.413 . S
C287 C317 1.437 . S
H288 C317 0.929 . S
N289 Gd262 2.570 . S
N289 C290 1.359 . S
N289 C293 1.343 . S
C290 C283 1.422 . S
C290 N289 1.359 . S
C290 C292 1.421 . S
C291 C292 1.422 . S
C291 C294 1.321 . S
C291 H318 0.931 . S
C292 C290 1.421 . S
C292 C291 1.422 . S
C292 C316 1.417 . S
C293 H270 0.931 . S
C293 N289 1.343 . S
C293 C294 1.390 . S
C294 H272 0.930 . S
C294 C291 1.321 . S
C294 C293 1.390 . S
O295 Gd263 2.386 . S
O295 C307 1.265 . S
O296 Gd262 2.353 . S
O296 C307 1.242 . S
O297 Gd262 2.468 . S
O297 C315 1.263 . S
O298 Gd262 2.427 . S
O298 C315 1.252 . S
O299 Gd263 2.307 . S
O299 C308 1.261 . S
O300 Gd262 2.388 . S
O300 C308 1.252 . S
O301 Gd262 2.386 . S
O301 C319 1.265 . S
O302 Gd263 2.353 . S
O302 C319 1.242 . S
O303 Gd263 2.468 . S
O303 C327 1.263 . S
O304 Gd263 2.427 . S
O304 C327 1.252 . S
O305 Gd262 2.307 . S
O305 C320 1.261 . S
O306 Gd263 2.388 . S
O306 C320 1.252 . S
C307 O295 1.265 . S
C307 O296 1.242 . S
C308 O299 1.261 . S
C308 O300 1.252 . S
C309 C312 1.394 . S
C309 C314 1.370 . S
C309 C315 1.500 . S
C310 C313 1.383 . S
C310 C314 1.395 . S
C311 C312 1.396 . S
C311 C313 1.365 . S
C311 H328 0.929 . S
C312 C309 1.394 . S
C312 C311 1.396 . S
C312 H329 0.930 . S
C313 C310 1.383 . S
C313 C311 1.365 . S
C313 H330 0.931 . S
C314 C309 1.370 . S
C314 C310 1.395 . S
C314 H331 0.930 . S
C315 Gd262 2.805 . S
C315 O297 1.263 . S
C315 O298 1.252 . S
C315 C309 1.500 . S
C316 H278 0.930 . S
C316 C292 1.417 . S
C316 C317 1.329 . S
C317 C287 1.437 . S
C317 H288 0.929 . S
C317 C316 1.329 . S
H318 C291 0.931 . S
C319 O301 1.265 . S
C319 O302 1.242 . S
C320 O305 1.261 . S
C320 O306 1.252 . S
C321 C324 1.394 . S
C321 C326 1.370 . S
C321 C327 1.500 . S
C322 C325 1.383 . S
C322 C326 1.395 . S
C323 C324 1.396 . S
C323 C325 1.365 . S
C323 H332 0.929 . S
C324 C321 1.394 . S
C324 C323 1.396 . S
C324 H333 0.930 . S
C325 C322 1.383 . S
C325 C323 1.365 . S
C325 H334 0.931 . S
C326 C321 1.370 . S
C326 C322 1.395 . S
C326 H335 0.930 . S
C327 Gd263 2.805 . S
C327 O303 1.263 . S
C327 O304 1.252 . S
C327 C321 1.500 . S
H328 C311 0.929 . S
H329 C312 0.930 . S
H330 C313 0.931 . S
H331 C314 0.930 . S
H332 C323 0.929 . S
H333 C324 0.930 . S
H334 C325 0.931 . S
H335 C326 0.930 . S
C336 C338 1.422 . S
C336 C340 1.415 . S
C336 N342 1.369 . S
C337 C338 1.421 . S
C337 C339 1.417 . S
C337 C349 1.422 . S
C338 C336 1.422 . S
C338 C337 1.421 . S
C338 N348 1.359 . S
C339 C337 1.417 . S
C339 C341 1.329 . S
C339 H358 0.930 . S
C340 C336 1.415 . S
C340 C341 1.437 . S
C340 C344 1.413 . S
C341 C339 1.329 . S
C341 C340 1.437 . S
C341 H363 0.929 . S
N342 C336 1.369 . S
N342 C343 1.338 . S
N342 Gd347 2.622 . S
C343 N342 1.338 . S
C343 C345 1.378 . S
C343 H355 0.929 . S
C344 C340 1.413 . S
C344 C345 1.348 . S
C344 H360 0.931 . S
C345 C343 1.378 . S
C345 C344 1.348 . S
C345 H361 0.930 . S
Gd346 N366 2.622 . S
Gd346 N373 2.570 . S
Gd346 O380 2.353 . S
Gd346 O381 2.468 . S
Gd346 O382 2.427 . S
Gd346 O384 2.388 . S
Gd346 O385 2.386 . S
Gd346 O389 2.307 . S
Gd346 C399 2.805 . S
Gd347 N342 2.622 . S
Gd347 N348 2.570 . S
Gd347 O379 2.386 . S
Gd347 O383 2.307 . S
Gd347 O386 2.353 . S
Gd347 O387 2.468 . S
Gd347 O388 2.427 . S
Gd347 O390 2.388 . S
Gd347 C411 2.805 . S
N348 C338 1.359 . S
N348 Gd347 2.570 . S
N348 C350 1.343 . S
C349 C337 1.422 . S
C349 C351 1.321 . S
C349 H357 0.931 . S
C350 N348 1.343 . S
C350 C351 1.390 . S
C350 H352 0.931 . S
C351 C349 1.321 . S
C351 C350 1.390 . S
C351 H353 0.930 . S
H352 C350 0.931 . S
H353 C351 0.930 . S
H354 C377 0.931 . S
H355 C343 0.929 . S
H356 C378 0.930 . S
H357 C349 0.931 . S
H358 C339 0.930 . S
H359 C368 0.929 . S
H360 C344 0.931 . S
H361 C345 0.930 . S
H362 C400 0.930 . S
H363 C341 0.929 . S
H364 C369 0.931 . S
H365 C370 0.930 . S
N366 Gd346 2.622 . S
N366 C367 1.369 . S
N366 C368 1.338 . S
C367 N366 1.369 . S
C367 C371 1.415 . S
C367 C374 1.422 . S
C368 H359 0.929 . S
C368 N366 1.338 . S
C368 C370 1.378 . S
C369 H364 0.931 . S
C369 C370 1.348 . S
C369 C371 1.413 . S
C370 H365 0.930 . S
C370 C368 1.378 . S
C370 C369 1.348 . S
C371 C367 1.415 . S
C371 C369 1.413 . S
C371 C401 1.437 . S
H372 C401 0.929 . S
N373 Gd346 2.570 . S
N373 C374 1.359 . S
N373 C377 1.343 . S
C374 C367 1.422 . S
C374 N373 1.359 . S
C374 C376 1.421 . S
C375 C376 1.422 . S
C375 C378 1.321 . S
C375 H402 0.931 . S
C376 C374 1.421 . S
C376 C375 1.422 . S
C376 C400 1.417 . S
C377 H354 0.931 . S
C377 N373 1.343 . S
C377 C378 1.390 . S
C378 H356 0.930 . S
C378 C375 1.321 . S
C378 C377 1.390 . S
O379 Gd347 2.386 . S
O379 C391 1.265 . S
O380 Gd346 2.353 . S
O380 C391 1.242 . S
O381 Gd346 2.468 . S
O381 C399 1.263 . S
O382 Gd346 2.427 . S
O382 C399 1.252 . S
O383 Gd347 2.307 . S
O383 C392 1.261 . S
O384 Gd346 2.388 . S
O384 C392 1.252 . S
O385 Gd346 2.386 . S
O385 C403 1.265 . S
O386 Gd347 2.353 . S
O386 C403 1.242 . S
O387 Gd347 2.468 . S
O387 C411 1.263 . S
O388 Gd347 2.427 . S
O388 C411 1.252 . S
O389 Gd346 2.307 . S
O389 C404 1.261 . S
O390 Gd347 2.388 . S
O390 C404 1.252 . S
C391 O379 1.265 . S
C391 O380 1.242 . S
C392 O383 1.261 . S
C392 O384 1.252 . S
C393 C396 1.394 . S
C393 C398 1.370 . S
C393 C399 1.500 . S
C394 C397 1.383 . S
C394 C398 1.395 . S
C395 C396 1.396 . S
C395 C397 1.365 . S
C395 H412 0.929 . S
C396 C393 1.394 . S
C396 C395 1.396 . S
C396 H413 0.930 . S
C397 C394 1.383 . S
C397 C395 1.365 . S
C397 H414 0.931 . S
C398 C393 1.370 . S
C398 C394 1.395 . S
C398 H415 0.930 . S
C399 Gd346 2.805 . S
C399 O381 1.263 . S
C399 O382 1.252 . S
C399 C393 1.500 . S
C400 H362 0.930 . S
C400 C376 1.417 . S
C400 C401 1.329 . S
C401 C371 1.437 . S
C401 H372 0.929 . S
C401 C400 1.329 . S
H402 C375 0.931 . S
C403 O385 1.265 . S
C403 O386 1.242 . S
C404 O389 1.261 . S
C404 O390 1.252 . S
C405 C408 1.394 . S
C405 C410 1.370 . S
C405 C411 1.500 . S
C406 C409 1.383 . S
C406 C410 1.395 . S
C407 C408 1.396 . S
C407 C409 1.365 . S
C407 H416 0.929 . S
C408 C405 1.394 . S
C408 C407 1.396 . S
C408 H417 0.930 . S
C409 C406 1.383 . S
C409 C407 1.365 . S
C409 H418 0.931 . S
C410 C405 1.370 . S
C410 C406 1.395 . S
C410 H419 0.930 . S
C411 Gd347 2.805 . S
C411 O387 1.263 . S
C411 O388 1.252 . S
C411 C405 1.500 . S
H412 C395 0.929 . S
H413 C396 0.930 . S
H414 C397 0.931 . S
H415 C398 0.930 . S
H416 C407 0.929 . S
H417 C408 0.930 . S
H418 C409 0.931 . S
H419 C410 0.930 . S
C420 C422 1.422 . S
C420 C424 1.415 . S
C420 N426 1.369 . S
C421 C422 1.421 . S
C421 C423 1.417 . S
C421 C433 1.422 . S
C422 C420 1.422 . S
C422 C421 1.421 . S
C422 N432 1.359 . S
C423 C421 1.417 . S
C423 C425 1.329 . S
C423 H442 0.930 . S
C424 C420 1.415 . S
C424 C425 1.437 . S
C424 C428 1.413 . S
C425 C423 1.329 . S
C425 C424 1.437 . S
C425 H447 0.929 . S
N426 C420 1.369 . S
N426 C427 1.338 . S
N426 Gd431 2.622 . S
C427 N426 1.338 . S
C427 C429 1.378 . S
C427 H439 0.929 . S
C428 C424 1.413 . S
C428 C429 1.348 . S
C428 H444 0.931 . S
C429 C427 1.378 . S
C429 C428 1.348 . S
C429 H445 0.930 . S
Gd430 N450 2.622 . S
Gd430 N457 2.570 . S
Gd430 O464 2.353 . S
Gd430 O465 2.468 . S
Gd430 O466 2.427 . S
Gd430 O468 2.388 . S
Gd430 O469 2.386 . S
Gd430 O473 2.307 . S
Gd430 C483 2.805 . S
Gd431 N426 2.622 . S
Gd431 N432 2.570 . S
Gd431 O463 2.386 . S
Gd431 O467 2.307 . S
Gd431 O470 2.353 . S
Gd431 O471 2.468 . S
Gd431 O472 2.427 . S
Gd431 O474 2.388 . S
Gd431 C495 2.805 . S
N432 C422 1.359 . S
N432 Gd431 2.570 . S
N432 C434 1.343 . S
C433 C421 1.422 . S
C433 C435 1.321 . S
C433 H441 0.931 . S
C434 N432 1.343 . S
C434 C435 1.390 . S
C434 H436 0.931 . S
C435 C433 1.321 . S
C435 C434 1.390 . S
C435 H437 0.930 . S
H436 C434 0.931 . S
H437 C435 0.930 . S
H438 C461 0.931 . S
H439 C427 0.929 . S
H440 C462 0.930 . S
H441 C433 0.931 . S
H442 C423 0.930 . S
H443 C452 0.929 . S
H444 C428 0.931 . S
H445 C429 0.930 . S
H446 C484 0.930 . S
H447 C425 0.929 . S
H448 C453 0.931 . S
H449 C454 0.930 . S
N450 Gd430 2.622 . S
N450 C451 1.369 . S
N450 C452 1.338 . S
C451 N450 1.369 . S
C451 C455 1.415 . S
C451 C458 1.422 . S
C452 H443 0.929 . S
C452 N450 1.338 . S
C452 C454 1.378 . S
C453 H448 0.931 . S
C453 C454 1.348 . S
C453 C455 1.413 . S
C454 H449 0.930 . S
C454 C452 1.378 . S
C454 C453 1.348 . S
C455 C451 1.415 . S
C455 C453 1.413 . S
C455 C485 1.437 . S
H456 C485 0.929 . S
N457 Gd430 2.570 . S
N457 C458 1.359 . S
N457 C461 1.343 . S
C458 C451 1.422 . S
C458 N457 1.359 . S
C458 C460 1.421 . S
C459 C460 1.422 . S
C459 C462 1.321 . S
C459 H486 0.931 . S
C460 C458 1.421 . S
C460 C459 1.422 . S
C460 C484 1.417 . S
C461 H438 0.931 . S
C461 N457 1.343 . S
C461 C462 1.390 . S
C462 H440 0.930 . S
C462 C459 1.321 . S
C462 C461 1.390 . S
O463 Gd431 2.386 . S
O463 C475 1.265 . S
O464 Gd430 2.353 . S
O464 C475 1.242 . S
O465 Gd430 2.468 . S
O465 C483 1.263 . S
O466 Gd430 2.427 . S
O466 C483 1.252 . S
O467 Gd431 2.307 . S
O467 C476 1.261 . S
O468 Gd430 2.388 . S
O468 C476 1.252 . S
O469 Gd430 2.386 . S
O469 C487 1.265 . S
O470 Gd431 2.353 . S
O470 C487 1.242 . S
O471 Gd431 2.468 . S
O471 C495 1.263 . S
O472 Gd431 2.427 . S
O472 C495 1.252 . S
O473 Gd430 2.307 . S
O473 C488 1.261 . S
O474 Gd431 2.388 . S
O474 C488 1.252 . S
C475 O463 1.265 . S
C475 O464 1.242 . S
C476 O467 1.261 . S
C476 O468 1.252 . S
C477 C480 1.394 . S
C477 C482 1.370 . S
C477 C483 1.500 . S
C478 C481 1.383 . S
C478 C482 1.395 . S
C479 C480 1.396 . S
C479 C481 1.365 . S
C479 H496 0.929 . S
C480 C477 1.394 . S
C480 C479 1.396 . S
C480 H497 0.930 . S
C481 C478 1.383 . S
C481 C479 1.365 . S
C481 H498 0.931 . S
C482 C477 1.370 . S
C482 C478 1.395 . S
C482 H499 0.930 . S
C483 Gd430 2.805 . S
C483 O465 1.263 . S
C483 O466 1.252 . S
C483 C477 1.500 . S
C484 H446 0.930 . S
C484 C460 1.417 . S
C484 C485 1.329 . S
C485 C455 1.437 . S
C485 H456 0.929 . S
C485 C484 1.329 . S
H486 C459 0.931 . S
C487 O469 1.265 . S
C487 O470 1.242 . S
C488 O473 1.261 . S
C488 O474 1.252 . S
C489 C492 1.394 . S
C489 C494 1.370 . S
C489 C495 1.500 . S
C490 C493 1.383 . S
C490 C494 1.395 . S
C491 C492 1.396 . S
C491 C493 1.365 . S
C491 H500 0.929 . S
C492 C489 1.394 . S
C492 C491 1.396 . S
C492 H501 0.930 . S
C493 C490 1.383 . S
C493 C491 1.365 . S
C493 H502 0.931 . S
C494 C489 1.370 . S
C494 C490 1.395 . S
C494 H503 0.930 . S
C495 Gd431 2.805 . S
C495 O471 1.263 . S
C495 O472 1.252 . S
C495 C489 1.500 . S
H496 C479 0.929 . S
H497 C480 0.930 . S
H498 C481 0.931 . S
H499 C482 0.930 . S
H500 C491 0.929 . S
H501 C492 0.930 . S
H502 C493 0.931 . S
H503 C494 0.930 . S
C504 C506 1.422 . S
C504 C508 1.415 . S
C504 N510 1.369 . S
C505 C506 1.421 . S
C505 C507 1.417 . S
C505 C517 1.422 . S
C506 C504 1.422 . S
C506 C505 1.421 . S
C506 N516 1.359 . S
C507 C505 1.417 . S
C507 C509 1.329 . S
C507 H526 0.930 . S
C508 C504 1.415 . S
C508 C509 1.437 . S
C508 C512 1.413 . S
C509 C507 1.329 . S
C509 C508 1.437 . S
C509 H531 0.929 . S
N510 C504 1.369 . S
N510 C511 1.338 . S
N510 Gd515 2.622 . S
C511 N510 1.338 . S
C511 C513 1.378 . S
C511 H523 0.929 . S
C512 C508 1.413 . S
C512 C513 1.348 . S
C512 H528 0.931 . S
C513 C511 1.378 . S
C513 C512 1.348 . S
C513 H529 0.930 . S
Gd514 N534 2.622 . S
Gd514 N541 2.570 . S
Gd514 O548 2.353 . S
Gd514 O549 2.468 . S
Gd514 O550 2.427 . S
Gd514 O552 2.388 . S
Gd514 O553 2.386 . S
Gd514 O557 2.307 . S
Gd514 C567 2.805 . S
Gd515 N510 2.622 . S
Gd515 N516 2.570 . S
Gd515 O547 2.386 . S
Gd515 O551 2.307 . S
Gd515 O554 2.353 . S
Gd515 O555 2.468 . S
Gd515 O556 2.427 . S
Gd515 O558 2.388 . S
Gd515 C579 2.805 . S
N516 C506 1.359 . S
N516 Gd515 2.570 . S
N516 C518 1.343 . S
C517 C505 1.422 . S
C517 C519 1.321 . S
C517 H525 0.931 . S
C518 N516 1.343 . S
C518 C519 1.390 . S
C518 H520 0.931 . S
C519 C517 1.321 . S
C519 C518 1.390 . S
C519 H521 0.930 . S
H520 C518 0.931 . S
H521 C519 0.930 . S
H522 C545 0.931 . S
H523 C511 0.929 . S
H524 C546 0.930 . S
H525 C517 0.931 . S
H526 C507 0.930 . S
H527 C536 0.929 . S
H528 C512 0.931 . S
H529 C513 0.930 . S
H530 C568 0.930 . S
H531 C509 0.929 . S
H532 C537 0.931 . S
H533 C538 0.930 . S
N534 Gd514 2.622 . S
N534 C535 1.369 . S
N534 C536 1.338 . S
C535 N534 1.369 . S
C535 C539 1.415 . S
C535 C542 1.422 . S
C536 H527 0.929 . S
C536 N534 1.338 . S
C536 C538 1.378 . S
C537 H532 0.931 . S
C537 C538 1.348 . S
C537 C539 1.413 . S
C538 H533 0.930 . S
C538 C536 1.378 . S
C538 C537 1.348 . S
C539 C535 1.415 . S
C539 C537 1.413 . S
C539 C569 1.437 . S
H540 C569 0.929 . S
N541 Gd514 2.570 . S
N541 C542 1.359 . S
N541 C545 1.343 . S
C542 C535 1.422 . S
C542 N541 1.359 . S
C542 C544 1.421 . S
C543 C544 1.422 . S
C543 C546 1.321 . S
C543 H570 0.931 . S
C544 C542 1.421 . S
C544 C543 1.422 . S
C544 C568 1.417 . S
C545 H522 0.931 . S
C545 N541 1.343 . S
C545 C546 1.390 . S
C546 H524 0.930 . S
C546 C543 1.321 . S
C546 C545 1.390 . S
O547 Gd515 2.386 . S
O547 C559 1.265 . S
O548 Gd514 2.353 . S
O548 C559 1.242 . S
O549 Gd514 2.468 . S
O549 C567 1.263 . S
O550 Gd514 2.427 . S
O550 C567 1.252 . S
O551 Gd515 2.307 . S
O551 C560 1.261 . S
O552 Gd514 2.388 . S
O552 C560 1.252 . S
O553 Gd514 2.386 . S
O553 C571 1.265 . S
O554 Gd515 2.353 . S
O554 C571 1.242 . S
O555 Gd515 2.468 . S
O555 C579 1.263 . S
O556 Gd515 2.427 . S
O556 C579 1.252 . S
O557 Gd514 2.307 . S
O557 C572 1.261 . S
O558 Gd515 2.388 . S
O558 C572 1.252 . S
C559 O547 1.265 . S
C559 O548 1.242 . S
C560 O551 1.261 . S
C560 O552 1.252 . S
C561 C564 1.394 . S
C561 C566 1.370 . S
C561 C567 1.500 . S
C562 C565 1.383 . S
C562 C566 1.395 . S
C563 C564 1.396 . S
C563 C565 1.365 . S
C563 H580 0.929 . S
C564 C561 1.394 . S
C564 C563 1.396 . S
C564 H581 0.930 . S
C565 C562 1.383 . S
C565 C563 1.365 . S
C565 H582 0.931 . S
C566 C561 1.370 . S
C566 C562 1.395 . S
C566 H583 0.930 . S
C567 Gd514 2.805 . S
C567 O549 1.263 . S
C567 O550 1.252 . S
C567 C561 1.500 . S
C568 H530 0.930 . S
C568 C544 1.417 . S
C568 C569 1.329 . S
C569 C539 1.437 . S
C569 H540 0.929 . S
C569 C568 1.329 . S
H570 C543 0.931 . S
C571 O553 1.265 . S
C571 O554 1.242 . S
C572 O557 1.261 . S
C572 O558 1.252 . S
C573 C576 1.394 . S
C573 C578 1.370 . S
C573 C579 1.500 . S
C574 C577 1.383 . S
C574 C578 1.395 . S
C575 C576 1.396 . S
C575 C577 1.365 . S
C575 H584 0.929 . S
C576 C573 1.394 . S
C576 C575 1.396 . S
C576 H585 0.930 . S
C577 C574 1.383 . S
C577 C575 1.365 . S
C577 H586 0.931 . S
C578 C573 1.370 . S
C578 C574 1.395 . S
C578 H587 0.930 . S
C579 Gd515 2.805 . S
C579 O555 1.263 . S
C579 O556 1.252 . S
C579 C573 1.500 . S
H580 C563 0.929 . S
H581 C564 0.930 . S
H582 C565 0.931 . S
H583 C566 0.930 . S
H584 C575 0.929 . S
H585 C576 0.930 . S
H586 C577 0.931 . S
H587 C578 0.930 . S
C588 C590 1.422 . S
C588 C592 1.415 . S
C588 N594 1.369 . S
C589 C590 1.421 . S
C589 C591 1.417 . S
C589 C601 1.422 . S
C590 C588 1.422 . S
C590 C589 1.421 . S
C590 N600 1.359 . S
C591 C589 1.417 . S
C591 C593 1.329 . S
C591 H610 0.930 . S
C592 C588 1.415 . S
C592 C593 1.437 . S
C592 C596 1.413 . S
C593 C591 1.329 . S
C593 C592 1.437 . S
C593 H615 0.929 . S
N594 C588 1.369 . S
N594 C595 1.338 . S
N594 Gd599 2.622 . S
C595 N594 1.338 . S
C595 C597 1.378 . S
C595 H607 0.929 . S
C596 C592 1.413 . S
C596 C597 1.348 . S
C596 H612 0.931 . S
C597 C595 1.378 . S
C597 C596 1.348 . S
C597 H613 0.930 . S
Gd598 N618 2.622 . S
Gd598 N625 2.570 . S
Gd598 O632 2.353 . S
Gd598 O633 2.468 . S
Gd598 O634 2.427 . S
Gd598 O636 2.388 . S
Gd598 O637 2.386 . S
Gd598 O641 2.307 . S
Gd598 C651 2.805 . S
Gd599 N594 2.622 . S
Gd599 N600 2.570 . S
Gd599 O631 2.386 . S
Gd599 O635 2.307 . S
Gd599 O638 2.353 . S
Gd599 O639 2.468 . S
Gd599 O640 2.427 . S
Gd599 O642 2.388 . S
Gd599 C663 2.805 . S
N600 C590 1.359 . S
N600 Gd599 2.570 . S
N600 C602 1.343 . S
C601 C589 1.422 . S
C601 C603 1.321 . S
C601 H609 0.931 . S
C602 N600 1.343 . S
C602 C603 1.390 . S
C602 H604 0.931 . S
C603 C601 1.321 . S
C603 C602 1.390 . S
C603 H605 0.930 . S
H604 C602 0.931 . S
H605 C603 0.930 . S
H606 C629 0.931 . S
H607 C595 0.929 . S
H608 C630 0.930 . S
H609 C601 0.931 . S
H610 C591 0.930 . S
H611 C620 0.929 . S
H612 C596 0.931 . S
H613 C597 0.930 . S
H614 C652 0.930 . S
H615 C593 0.929 . S
H616 C621 0.931 . S
H617 C622 0.930 . S
N618 Gd598 2.622 . S
N618 C619 1.369 . S
N618 C620 1.338 . S
C619 N618 1.369 . S
C619 C623 1.415 . S
C619 C626 1.422 . S
C620 H611 0.929 . S
C620 N618 1.338 . S
C620 C622 1.378 . S
C621 H616 0.931 . S
C621 C622 1.348 . S
C621 C623 1.413 . S
C622 H617 0.930 . S
C622 C620 1.378 . S
C622 C621 1.348 . S
C623 C619 1.415 . S
C623 C621 1.413 . S
C623 C653 1.437 . S
H624 C653 0.929 . S
N625 Gd598 2.570 . S
N625 C626 1.359 . S
N625 C629 1.343 . S
C626 C619 1.422 . S
C626 N625 1.359 . S
C626 C628 1.421 . S
C627 C628 1.422 . S
C627 C630 1.321 . S
C627 H654 0.931 . S
C628 C626 1.421 . S
C628 C627 1.422 . S
C628 C652 1.417 . S
C629 H606 0.931 . S
C629 N625 1.343 . S
C629 C630 1.390 . S
C630 H608 0.930 . S
C630 C627 1.321 . S
C630 C629 1.390 . S
O631 Gd599 2.386 . S
O631 C643 1.265 . S
O632 Gd598 2.353 . S
O632 C643 1.242 . S
O633 Gd598 2.468 . S
O633 C651 1.263 . S
O634 Gd598 2.427 . S
O634 C651 1.252 . S
O635 Gd599 2.307 . S
O635 C644 1.261 . S
O636 Gd598 2.388 . S
O636 C644 1.252 . S
O637 Gd598 2.386 . S
O637 C655 1.265 . S
O638 Gd599 2.353 . S
O638 C655 1.242 . S
O639 Gd599 2.468 . S
O639 C663 1.263 . S
O640 Gd599 2.427 . S
O640 C663 1.252 . S
O641 Gd598 2.307 . S
O641 C656 1.261 . S
O642 Gd599 2.388 . S
O642 C656 1.252 . S
C643 O631 1.265 . S
C643 O632 1.242 . S
C644 O635 1.261 . S
C644 O636 1.252 . S
C645 C648 1.394 . S
C645 C650 1.370 . S
C645 C651 1.500 . S
C646 C649 1.383 . S
C646 C650 1.395 . S
C647 C648 1.396 . S
C647 C649 1.365 . S
C647 H664 0.929 . S
C648 C645 1.394 . S
C648 C647 1.396 . S
C648 H665 0.930 . S
C649 C646 1.383 . S
C649 C647 1.365 . S
C649 H666 0.931 . S
C650 C645 1.370 . S
C650 C646 1.395 . S
C650 H667 0.930 . S
C651 Gd598 2.805 . S
C651 O633 1.263 . S
C651 O634 1.252 . S
C651 C645 1.500 . S
C652 H614 0.930 . S
C652 C628 1.417 . S
C652 C653 1.329 . S
C653 C623 1.437 . S
C653 H624 0.929 . S
C653 C652 1.329 . S
H654 C627 0.931 . S
C655 O637 1.265 . S
C655 O638 1.242 . S
C656 O641 1.261 . S
C656 O642 1.252 . S
C657 C660 1.394 . S
C657 C662 1.370 . S
C657 C663 1.500 . S
C658 C661 1.383 . S
C658 C662 1.395 . S
C659 C660 1.396 . S
C659 C661 1.365 . S
C659 H668 0.929 . S
C660 C657 1.394 . S
C660 C659 1.396 . S
C660 H669 0.930 . S
C661 C658 1.383 . S
C661 C659 1.365 . S
C661 H670 0.931 . S
C662 C657 1.370 . S
C662 C658 1.395 . S
C662 H671 0.930 . S
C663 Gd599 2.805 . S
C663 O639 1.263 . S
C663 O640 1.252 . S
C663 C657 1.500 . S
H664 C647 0.929 . S
H665 C648 0.930 . S
H666 C649 0.931 . S
H667 C650 0.930 . S
H668 C659 0.929 . S
H669 C660 0.930 . S
H670 C661 0.931 . S
H671 C662 0.930 . S
C672 O684 1.241 . S
C672 O685 1.280 . S
C673 O686 1.277 . S
C673 O687 1.245 . S
C674 O698 1.247 . S
C674 O700 1.289 . S
Mg675 O676 1.926 . S
Mg675 O685 1.984 . S
Mg675 O687 1.988 . S
Mg675 O688 2.061 1_655 S
O676 Mg675 1.926 . S
O676 Mg677 1.986 1_545 S
O676 Mg678 1.916 1_655 S
Mg677 O676 1.986 1_565 S
Mg677 O684 2.040 1_565 S
Mg677 O686 2.039 1_565 S
Mg677 O692 2.041 . S
Mg677 O700 2.240 . S
Mg678 O676 1.916 1_455 S
Mg678 O679 1.918 1_545 S
Mg678 O689 2.107 . S
Mg678 O691 2.078 1_445 S
Mg678 O700 2.105 1_445 S
Mg678 O701 2.079 . S
O679 Mg678 1.918 1_565 S
O679 Mg680 1.926 . S
O679 Mg681 1.984 1_565 S
Mg680 O679 1.926 . S
Mg680 O694 1.984 . S
Mg680 O697 1.988 . S
Mg680 O698 2.061 1_455 S
Mg681 O679 1.984 1_545 S
Mg681 O689 2.246 . S
Mg681 O693 2.034 1_545 S
Mg681 O695 2.032 1_545 S
Mg681 O702 2.048 . S
C682 O688 1.247 . S
C682 O689 1.289 . S
C683 O701 1.245 . S
C683 O702 1.274 . S
O684 C672 1.241 . S
O684 Mg677 2.040 1_545 S
O685 C672 1.280 . S
O685 Mg675 1.984 . S
O686 C673 1.277 . S
O686 Mg677 2.039 1_545 S
O687 C673 1.245 . S
O687 Mg675 1.988 . S
O688 Mg675 2.061 1_455 S
O688 C682 1.247 . S
O689 Mg678 2.107 . S
O689 Mg681 2.246 . S
O689 C682 1.289 . S
C690 O691 1.245 . S
C690 O692 1.274 . S
O691 Mg678 2.078 1_665 S
O691 C690 1.245 . S
O692 Mg677 2.041 . S
O692 C690 1.274 . S
O693 Mg681 2.034 1_565 S
O693 C696 1.241 . S
O694 Mg680 1.984 . S
O694 C696 1.280 . S
O695 Mg681 2.032 1_565 S
O695 C699 1.277 . S
C696 O693 1.241 . S
C696 O694 1.280 . S
O697 Mg680 1.988 . S
O697 C699 1.245 . S
O698 C674 1.247 . S
O698 Mg680 2.061 1_655 S
C699 O695 1.277 . S
C699 O697 1.245 . S
O700 C674 1.289 . S
O700 Mg677 2.240 . S
O700 Mg678 2.105 1_665 S
O701 Mg678 2.079 . S
O701 C683 1.245 . S
O702 Mg681 2.048 . S
O702 C683 1.274 . S
C703 O715 1.241 . S
C703 O716 1.280 . S
C704 O717 1.277 . S
C704 O718 1.245 . S
C705 O729 1.247 . S
C705 O731 1.289 . S
Mg706 O707 1.926 . S
Mg706 O716 1.984 . S
Mg706 O718 1.988 1_554 S
Mg706 O719 2.061 . S
O707 Mg706 1.926 . S
O707 Mg708 1.986 1_545 S
O707 Mg709 1.917 . S
Mg708 O707 1.986 1_565 S
Mg708 O715 2.040 1_565 S
Mg708 O717 2.039 1_564 S
Mg708 O723 2.041 . S
Mg708 O731 2.240 1_554 S
Mg709 O707 1.917 . S
Mg709 O710 1.917 1_544 S
Mg709 O720 2.107 . S
Mg709 O722 2.079 1_545 S
Mg709 O731 2.106 1_544 S
Mg709 O732 2.079 1_554 S
O710 Mg709 1.917 1_566 S
O710 Mg711 1.926 . S
O710 Mg712 1.984 1_565 S
Mg711 O710 1.926 . S
Mg711 O725 1.984 . S
Mg711 O728 1.988 1_556 S
Mg711 O729 2.061 . S
Mg712 O710 1.984 1_545 S
Mg712 O720 2.246 1_556 S
Mg712 O724 2.034 1_545 S
Mg712 O726 2.032 1_546 S
Mg712 O733 2.048 . S
C713 O719 1.247 . S
C713 O720 1.289 . S
C714 O732 1.245 . S
C714 O733 1.274 . S
O715 C703 1.241 . S
O715 Mg708 2.040 1_545 S
O716 C703 1.280 . S
O716 Mg706 1.984 . S
O717 C704 1.277 . S
O717 Mg708 2.039 1_546 S
O718 C704 1.245 . S
O718 Mg706 1.988 1_556 S
O719 Mg706 2.061 . S
O719 C713 1.247 . S
O720 Mg709 2.107 . S
O720 Mg712 2.246 1_554 S
O720 C713 1.289 . S
C721 O722 1.245 . S
C721 O723 1.274 . S
O722 Mg709 2.079 1_565 S
O722 C721 1.245 . S
O723 Mg708 2.041 . S
O723 C721 1.274 . S
O724 Mg712 2.034 1_565 S
O724 C727 1.241 . S
O725 Mg711 1.984 . S
O725 C727 1.280 . S
O726 Mg712 2.032 1_564 S
O726 C730 1.277 . S
C727 O724 1.241 . S
C727 O725 1.280 . S
O728 Mg711 1.988 1_554 S
O728 C730 1.245 . S
O729 C705 1.247 . S
O729 Mg711 2.061 . S
C730 O726 1.277 . S
C730 O728 1.245 . S
O731 C705 1.289 . S
O731 Mg708 2.240 1_556 S
O731 Mg709 2.106 1_566 S
O732 Mg709 2.079 1_556 S
O732 C714 1.245 . S
O733 Mg712 2.048 . S
O733 C714 1.274 . S
C734 O746 1.241 . S
C734 O747 1.280 . S
C735 O748 1.277 . S
C735 O749 1.245 . S
C736 O760 1.247 . S
C736 O762 1.289 . S
Mg737 O738 1.926 . S
Mg737 O747 1.984 . S
Mg737 O749 1.988 1_554 S
Mg737 O750 2.061 1_655 S
O738 Mg737 1.926 . S
O738 Mg739 1.986 . S
O738 Mg740 1.916 1_655 S
Mg739 O738 1.986 . S
Mg739 O746 2.042 . S
Mg739 O748 2.041 1_554 S
Mg739 O754 2.038 . S
Mg739 O762 2.238 1_554 S
Mg740 O738 1.916 1_455 S
Mg740 O741 1.918 1_554 S
Mg740 O751 2.108 . S
Mg740 O753 2.079 1_455 S
Mg740 O762 2.105 1_454 S
Mg740 O763 2.079 1_554 S
O741 Mg740 1.918 1_556 S
O741 Mg742 1.926 . S
O741 Mg743 1.986 . S
Mg742 O741 1.926 . S
Mg742 O756 1.984 . S
Mg742 O759 1.988 1_556 S
Mg742 O760 2.061 1_455 S
Mg743 O741 1.986 . S
Mg743 O751 2.238 1_556 S
Mg743 O755 2.042 . S
Mg743 O757 2.041 1_556 S
Mg743 O764 2.038 . S
C744 O750 1.247 . S
C744 O751 1.289 . S
C745 O763 1.245 . S
C745 O764 1.274 . S
O746 C734 1.241 . S
O746 Mg739 2.042 . S
O747 C734 1.280 . S
O747 Mg737 1.984 . S
O748 C735 1.277 . S
O748 Mg739 2.041 1_556 S
O749 C735 1.245 . S
O749 Mg737 1.988 1_556 S
O750 Mg737 2.061 1_455 S
O750 C744 1.247 . S
O751 Mg740 2.108 . S
O751 Mg743 2.238 1_554 S
O751 C744 1.289 . S
C752 O753 1.245 . S
C752 O754 1.274 . S
O753 Mg740 2.079 1_655 S
O753 C752 1.245 . S
O754 Mg739 2.038 . S
O754 C752 1.274 . S
O755 Mg743 2.042 . S
O755 C758 1.241 . S
O756 Mg742 1.984 . S
O756 C758 1.280 . S
O757 Mg743 2.041 1_554 S
O757 C761 1.277 . S
C758 O755 1.241 . S
C758 O756 1.280 . S
O759 Mg742 1.988 1_554 S
O759 C761 1.245 . S
O760 C736 1.247 . S
O760 Mg742 2.061 1_655 S
C761 O757 1.277 . S
C761 O759 1.245 . S
O762 C736 1.289 . S
O762 Mg739 2.238 1_556 S
O762 Mg740 2.105 1_656 S
O763 Mg740 2.079 1_556 S
O763 C745 1.245 . S
O764 Mg743 2.038 . S
O764 C745 1.274 . S
C765 O777 1.241 . S
C765 O778 1.280 . S
C766 O779 1.277 . S
C766 O780 1.245 . S
C767 O791 1.247 . S
C767 O793 1.289 . S
Mg768 O769 1.926 . S
Mg768 O778 1.984 . S
Mg768 O780 1.988 1_554 S
Mg768 O781 2.061 . S
O769 Mg768 1.926 . S
O769 Mg770 1.986 . S
O769 Mg771 1.917 . S
Mg770 O769 1.986 . S
Mg770 O777 2.042 . S
Mg770 O779 2.041 1_554 S
Mg770 O785 2.038 . S
Mg770 O793 2.238 1_554 S
Mg771 O769 1.917 . S
Mg771 O772 1.917 1_554 S
Mg771 O782 2.106 . S
Mg771 O784 2.079 . S
Mg771 O793 2.106 1_554 S
Mg771 O794 2.079 1_554 S
O772 Mg771 1.917 1_556 S
O772 Mg773 1.926 . S
O772 Mg774 1.986 . S
Mg773 O772 1.926 . S
Mg773 O787 1.984 . S
Mg773 O790 1.988 1_556 S
Mg773 O791 2.061 . S
Mg774 O772 1.986 . S
Mg774 O782 2.238 1_556 S
Mg774 O786 2.042 . S
Mg774 O788 2.041 1_556 S
Mg774 O795 2.038 . S
C775 O781 1.247 . S
C775 O782 1.289 . S
C776 O794 1.245 . S
C776 O795 1.274 . S
O777 C765 1.241 . S
O777 Mg770 2.042 . S
O778 C765 1.280 . S
O778 Mg768 1.984 . S
O779 C766 1.277 . S
O779 Mg770 2.041 1_556 S
O780 C766 1.245 . S
O780 Mg768 1.988 1_556 S
O781 Mg768 2.061 . S
O781 C775 1.247 . S
O782 Mg771 2.106 . S
O782 Mg774 2.238 1_554 S
O782 C775 1.289 . S
C783 O784 1.245 . S
C783 O785 1.274 . S
O784 Mg771 2.079 . S
O784 C783 1.245 . S
O785 Mg770 2.038 . S
O785 C783 1.274 . S
O786 Mg774 2.042 . S
O786 C789 1.241 . S
O787 Mg773 1.984 . S
O787 C789 1.280 . S
O788 Mg774 2.041 1_554 S
O788 C792 1.277 . S
C789 O786 1.241 . S
C789 O787 1.280 . S
O790 Mg773 1.988 1_554 S
O790 C792 1.245 . S
O791 C767 1.247 . S
O791 Mg773 2.061 . S
C792 O788 1.277 . S
C792 O790 1.245 . S
O793 C767 1.289 . S
O793 Mg770 2.238 1_556 S
O793 Mg771 2.106 1_556 S
O794 Mg771 2.079 1_556 S
O794 C776 1.245 . S
O795 Mg774 2.038 . S
O795 C776 1.274 . S
C796 O808 1.241 . S
C796 O809 1.280 . S
C797 O810 1.277 . S
C797 O811 1.245 . S
C798 O822 1.247 . S
C798 O824 1.289 . S
Mg799 O800 1.926 . S
Mg799 O809 1.984 . S
Mg799 O811 1.988 . S
Mg799 O812 2.061 1_655 S
O800 Mg799 1.926 . S
O800 Mg801 1.986 . S
O800 Mg802 1.916 1_655 S
Mg801 O800 1.986 . S
Mg801 O808 2.042 . S
Mg801 O810 2.041 . S
Mg801 O816 2.038 . S
Mg801 O824 2.238 . S
Mg802 O800 1.916 1_455 S
Mg802 O803 1.918 . S
Mg802 O813 2.107 . S
Mg802 O815 2.079 1_455 S
Mg802 O824 2.106 1_455 S
Mg802 O825 2.079 . S
O803 Mg802 1.918 . S
O803 Mg804 1.926 . S
O803 Mg805 1.986 . S
Mg804 O803 1.926 . S
Mg804 O818 1.984 . S
Mg804 O821 1.988 . S
Mg804 O822 2.061 1_455 S
Mg805 O803 1.986 . S
Mg805 O813 2.238 . S
Mg805 O817 2.042 . S
Mg805 O819 2.041 . S
Mg805 O826 2.038 . S
C806 O812 1.247 . S
C806 O813 1.289 . S
C807 O825 1.245 . S
C807 O826 1.274 . S
O808 C796 1.241 . S
O808 Mg801 2.042 . S
O809 C796 1.280 . S
O809 Mg799 1.984 . S
O810 C797 1.277 . S
O810 Mg801 2.041 . S
O811 C797 1.245 . S
O811 Mg799 1.988 . S
O812 Mg799 2.061 1_455 S
O812 C806 1.247 . S
O813 Mg802 2.107 . S
O813 Mg805 2.238 . S
O813 C806 1.289 . S
C814 O815 1.245 . S
C814 O816 1.274 . S
O815 Mg802 2.079 1_655 S
O815 C814 1.245 . S
O816 Mg801 2.038 . S
O816 C814 1.274 . S
O817 Mg805 2.042 . S
O817 C820 1.241 . S
O818 Mg804 1.984 . S
O818 C820 1.280 . S
O819 Mg805 2.041 . S
O819 C823 1.277 . S
C820 O817 1.241 . S
C820 O818 1.280 . S
O821 Mg804 1.988 . S
O821 C823 1.245 . S
O822 C798 1.247 . S
O822 Mg804 2.061 1_655 S
C823 O819 1.277 . S
C823 O821 1.245 . S
O824 C798 1.289 . S
O824 Mg801 2.238 . S
O824 Mg802 2.106 1_655 S
O825 Mg802 2.079 . S
O825 C807 1.245 . S
O826 Mg805 2.038 . S
O826 C807 1.274 . S
C827 O839 1.241 . S
C827 O840 1.280 . S
C828 O841 1.277 . S
C828 O842 1.245 . S
C829 O853 1.247 . S
C829 O855 1.289 . S
Mg830 O831 1.926 . S
Mg830 O840 1.984 . S
Mg830 O842 1.988 . S
Mg830 O843 2.061 . S
O831 Mg830 1.926 . S
O831 Mg832 1.986 1_545 S
O831 Mg833 1.917 . S
Mg832 O831 1.986 1_565 S
Mg832 O839 2.040 1_565 S
Mg832 O841 2.039 1_565 S
Mg832 O847 2.041 . S
Mg832 O855 2.240 . S
Mg833 O831 1.917 . S
Mg833 O834 1.917 1_545 S
Mg833 O844 2.106 . S
Mg833 O846 2.079 1_545 S
Mg833 O855 2.106 1_545 S
Mg833 O856 2.079 . S
O834 Mg833 1.917 1_565 S
O834 Mg835 1.926 . S
O834 Mg836 1.984 1_565 S
Mg835 O834 1.926 . S
Mg835 O849 1.984 . S
Mg835 O852 1.988 . S
Mg835 O853 2.061 . S
Mg836 O834 1.984 1_545 S
Mg836 O844 2.246 . S
Mg836 O848 2.034 1_545 S
Mg836 O850 2.032 1_545 S
Mg836 O857 2.048 . S
C837 O843 1.247 . S
C837 O844 1.289 . S
C838 O856 1.245 . S
C838 O857 1.274 . S
O839 C827 1.241 . S
O839 Mg832 2.040 1_545 S
O840 C827 1.280 . S
O840 Mg830 1.984 . S
O841 C828 1.277 . S
O841 Mg832 2.039 1_545 S
O842 C828 1.245 . S
O842 Mg830 1.988 . S
O843 Mg830 2.061 . S
O843 C837 1.247 . S
O844 Mg833 2.106 . S
O844 Mg836 2.246 . S
O844 C837 1.289 . S
C845 O846 1.245 . S
C845 O847 1.274 . S
O846 Mg833 2.079 1_565 S
O846 C845 1.245 . S
O847 Mg832 2.041 . S
O847 C845 1.274 . S
O848 Mg836 2.034 1_565 S
O848 C851 1.241 . S
O849 Mg835 1.984 . S
O849 C851 1.280 . S
O850 Mg836 2.032 1_565 S
O850 C854 1.277 . S
C851 O848 1.241 . S
C851 O849 1.280 . S
O852 Mg835 1.988 . S
O852 C854 1.245 . S
O853 C829 1.247 . S
O853 Mg835 2.061 . S
C854 O850 1.277 . S
C854 O852 1.245 . S
O855 C829 1.289 . S
O855 Mg832 2.240 . S
O855 Mg833 2.106 1_565 S
O856 Mg833 2.079 . S
O856 C838 1.245 . S
O857 Mg836 2.048 . S
O857 C838 1.274 . S
C858 C859 1.349 . S
C858 C860 1.327 . S
C858 H883 0.950 . S
C859 C858 1.349 . S
C859 C875 1.349 . S
C860 C858 1.327 . S
C860 C879 1.429 . S
C860 H884 0.950 . S
C861 C878 1.574 . S
C861 C880 1.368 . S
C861 H885 0.949 . S
H862 C866 0.949 . S
C863 C864 1.349 . S
C863 C865 1.327 . S
C863 H886 0.950 . S
C864 C863 1.349 . S
C864 C876 1.349 . S
C865 C863 1.327 . S
C865 C881 1.429 . S
C865 H887 0.950 . S
C866 H862 0.949 . S
C866 C874 1.574 . S
C866 C882 1.368 . S
H867 C875 0.950 . S
H868 C873 0.950 . S
H869 C874 0.949 . S
H870 C876 0.950 . S
H871 C877 0.950 . S
H872 C878 0.949 . S
C873 H868 0.950 . S
C873 C875 1.327 . S
C873 C879 1.429 . S
C874 C866 1.574 . S
C874 H869 0.949 . S
C874 C880 1.368 . S
C875 C859 1.349 . S
C875 H867 0.950 . S
C875 C873 1.327 . S
C876 C864 1.349 . S
C876 H870 0.950 . S
C876 C877 1.327 . S
C877 H871 0.950 . S
C877 C876 1.327 . S
C877 C881 1.429 . S
C878 C861 1.574 . S
C878 H872 0.949 . S
C878 C882 1.368 . S
C879 C860 1.429 . S
C879 C873 1.429 . S
C879 C880 1.523 . S
C880 C861 1.368 . S
C880 C874 1.368 . S
C880 C879 1.523 . S
C881 C865 1.429 . S
C881 C877 1.429 . S
C881 C882 1.523 . S
C882 C866 1.368 . S
C882 C878 1.368 . S
C882 C881 1.523 . S
H883 C858 0.950 . S
H884 C860 0.950 . S
H885 C861 0.949 . S
H886 C863 0.950 . S
H887 C865 0.950 . S
C888 C889 1.349 . S
C888 C890 1.327 . S
C888 H913 0.950 . S
C889 C888 1.349 . S
C889 C905 1.349 . S
C890 C888 1.327 . S
C890 C909 1.429 . S
C890 H914 0.950 . S
C891 C908 1.574 . S
C891 C910 1.368 . S
C891 H915 0.949 . S
H892 C896 0.949 . S
C893 C894 1.349 . S
C893 C895 1.327 . S
C893 H916 0.950 . S
C894 C893 1.349 . S
C894 C906 1.349 . S
C895 C893 1.327 . S
C895 C911 1.429 . S
C895 H917 0.950 . S
C896 H892 0.949 . S
C896 C904 1.574 . S
C896 C912 1.368 . S
H897 C905 0.950 . S
H898 C903 0.950 . S
H899 C904 0.949 . S
H900 C906 0.950 . S
H901 C907 0.950 . S
H902 C908 0.949 . S
C903 H898 0.950 . S
C903 C905 1.327 . S
C903 C909 1.429 . S
C904 C896 1.574 . S
C904 H899 0.949 . S
C904 C910 1.368 . S
C905 C889 1.349 . S
C905 H897 0.950 . S
C905 C903 1.327 . S
C906 C894 1.349 . S
C906 H900 0.950 . S
C906 C907 1.327 . S
C907 H901 0.950 . S
C907 C906 1.327 . S
C907 C911 1.429 . S
C908 C891 1.574 . S
C908 H902 0.949 . S
C908 C912 1.368 . S
C909 C890 1.429 . S
C909 C903 1.429 . S
C909 C910 1.523 . S
C910 C891 1.368 . S
C910 C904 1.368 . S
C910 C909 1.523 . S
C911 C895 1.429 . S
C911 C907 1.429 . S
C911 C912 1.523 . S
C912 C896 1.368 . S
C912 C908 1.368 . S
C912 C911 1.523 . S
H913 C888 0.950 . S
H914 C890 0.950 . S
H915 C891 0.949 . S
H916 C893 0.950 . S
H917 C895 0.950 . S
C918 C919 1.349 . S
C918 C920 1.327 . S
C918 H943 0.950 . S
C919 C918 1.349 . S
C919 C935 1.349 . S
C920 C918 1.327 . S
C920 C939 1.429 . S
C920 H944 0.950 . S
C921 C938 1.574 . S
C921 C940 1.368 . S
C921 H945 0.949 . S
H922 C926 0.949 . S
C923 C924 1.349 . S
C923 C925 1.327 . S
C923 H946 0.950 . S
C924 C923 1.349 . S
C924 C936 1.349 . S
C925 C923 1.327 . S
C925 C941 1.429 . S
C925 H947 0.950 . S
C926 H922 0.949 . S
C926 C934 1.574 . S
C926 C942 1.368 . S
H927 C935 0.950 . S
H928 C933 0.950 . S
H929 C934 0.949 . S
H930 C936 0.950 . S
H931 C937 0.950 . S
H932 C938 0.949 . S
C933 H928 0.950 . S
C933 C935 1.327 . S
C933 C939 1.429 . S
C934 C926 1.574 . S
C934 H929 0.949 . S
C934 C940 1.368 . S
C935 C919 1.349 . S
C935 H927 0.950 . S
C935 C933 1.327 . S
C936 C924 1.349 . S
C936 H930 0.950 . S
C936 C937 1.327 . S
C937 H931 0.950 . S
C937 C936 1.327 . S
C937 C941 1.429 . S
C938 C921 1.574 . S
C938 H932 0.949 . S
C938 C942 1.368 . S
C939 C920 1.429 . S
C939 C933 1.429 . S
C939 C940 1.523 . S
C940 C921 1.368 . S
C940 C934 1.368 . S
C940 C939 1.523 . S
C941 C925 1.429 . S
C941 C937 1.429 . S
C941 C942 1.523 . S
C942 C926 1.368 . S
C942 C938 1.368 . S
C942 C941 1.523 . S
H943 C918 0.950 . S
H944 C920 0.950 . S
H945 C921 0.949 . S
H946 C923 0.950 . S
H947 C925 0.950 . S
C948 C949 1.349 . S
C948 C950 1.327 . S
C948 H973 0.950 . S
C949 C948 1.349 . S
C949 C965 1.349 . S
C950 C948 1.327 . S
C950 C969 1.429 . S
C950 H974 0.950 . S
C951 C968 1.574 . S
C951 C970 1.368 . S
C951 H975 0.949 . S
H952 C956 0.949 . S
C953 C954 1.349 . S
C953 C955 1.327 . S
C953 H976 0.950 . S
C954 C953 1.349 . S
C954 C966 1.349 . S
C955 C953 1.327 . S
C955 C971 1.429 . S
C955 H977 0.950 . S
C956 H952 0.949 . S
C956 C964 1.574 . S
C956 C972 1.368 . S
H957 C965 0.950 . S
H958 C963 0.950 . S
H959 C964 0.949 . S
H960 C966 0.950 . S
H961 C967 0.950 . S
H962 C968 0.949 . S
C963 H958 0.950 . S
C963 C965 1.327 . S
C963 C969 1.429 . S
C964 C956 1.574 . S
C964 H959 0.949 . S
C964 C970 1.368 . S
C965 C949 1.349 . S
C965 H957 0.950 . S
C965 C963 1.327 . S
C966 C954 1.349 . S
C966 H960 0.950 . S
C966 C967 1.327 . S
C967 H961 0.950 . S
C967 C966 1.327 . S
C967 C971 1.429 . S
C968 C951 1.574 . S
C968 H962 0.949 . S
C968 C972 1.368 . S
C969 C950 1.429 . S
C969 C963 1.429 . S
C969 C970 1.523 . S
C970 C951 1.368 . S
C970 C964 1.368 . S
C970 C969 1.523 . S
C971 C955 1.429 . S
C971 C967 1.429 . S
C971 C972 1.523 . S
C972 C956 1.368 . S
C972 C968 1.368 . S
C972 C971 1.523 . S
H973 C948 0.950 . S
H974 C950 0.950 . S
H975 C951 0.949 . S
H976 C953 0.950 . S
H977 C955 0.950 . S
C978 C979 1.349 . S
C978 C980 1.327 . S
C978 H1003 0.950 . S
C979 C978 1.349 . S
C979 C995 1.349 . S
C980 C978 1.327 . S
C980 C999 1.429 . S
C980 H1004 0.950 . S
C981 C998 1.574 . S
C981 C1000 1.368 . S
C981 H1005 0.949 . S
H982 C986 0.949 . S
C983 C984 1.349 . S
C983 C985 1.327 . S
C983 H1006 0.950 . S
C984 C983 1.349 . S
C984 C996 1.349 . S
C985 C983 1.327 . S
C985 C1001 1.429 . S
C985 H1007 0.950 . S
C986 H982 0.949 . S
C986 C994 1.574 . S
C986 C1002 1.368 . S
H987 C995 0.950 . S
H988 C993 0.950 . S
H989 C994 0.949 . S
H990 C996 0.950 . S
H991 C997 0.950 . S
H992 C998 0.949 . S
C993 H988 0.950 . S
C993 C995 1.327 . S
C993 C999 1.429 . S
C994 C986 1.574 . S
C994 H989 0.949 . S
C994 C1000 1.368 . S
C995 C979 1.349 . S
C995 H987 0.950 . S
C995 C993 1.327 . S
C996 C984 1.349 . S
C996 H990 0.950 . S
C996 C997 1.327 . S
C997 H991 0.950 . S
C997 C996 1.327 . S
C997 C1001 1.429 . S
C998 C981 1.574 . S
C998 H992 0.949 . S
C998 C1002 1.368 . S
C999 C980 1.429 . S
C999 C993 1.429 . S
C999 C1000 1.523 . S
C1000 C981 1.368 . S
C1000 C994 1.368 . S
C1000 C999 1.523 . S
C1001 C985 1.429 . S
C1001 C997 1.429 . S
C1001 C1002 1.523 . S
C1002 C986 1.368 . S
C1002 C998 1.368 . S
C1002 C1001 1.523 . S
H1003 C978 0.950 . S
H1004 C980 0.950 . S
H1005 C981 0.949 . S
H1006 C983 0.950 . S
H1007 C985 0.950 . S
C1008 C1009 1.349 . S
C1008 C1010 1.327 . S
C1008 H1033 0.950 . S
C1009 C1008 1.349 . S
C1009 C1025 1.349 . S
C1010 C1008 1.327 . S
C1010 C1029 1.429 . S
C1010 H1034 0.950 . S
C1011 C1028 1.574 . S
C1011 C1030 1.368 . S
C1011 H1035 0.949 . S
H1012 C1016 0.949 . S
C1013 C1014 1.349 . S
C1013 C1015 1.327 . S
C1013 H1036 0.950 . S
C1014 C1013 1.349 . S
C1014 C1026 1.349 . S
C1015 C1013 1.327 . S
C1015 C1031 1.429 . S
C1015 H1037 0.950 . S
C1016 H1012 0.949 . S
C1016 C1024 1.574 . S
C1016 C1032 1.368 . S
H1017 C1025 0.950 . S
H1018 C1023 0.950 . S
H1019 C1024 0.949 . S
H1020 C1026 0.950 . S
H1021 C1027 0.950 . S
H1022 C1028 0.949 . S
C1023 H1018 0.950 . S
C1023 C1025 1.327 . S
C1023 C1029 1.429 . S
C1024 C1016 1.574 . S
C1024 H1019 0.949 . S
C1024 C1030 1.368 . S
C1025 C1009 1.349 . S
C1025 H1017 0.950 . S
C1025 C1023 1.327 . S
C1026 C1014 1.349 . S
C1026 H1020 0.950 . S
C1026 C1027 1.327 . S
C1027 H1021 0.950 . S
C1027 C1026 1.327 . S
C1027 C1031 1.429 . S
C1028 C1011 1.574 . S
C1028 H1022 0.949 . S
C1028 C1032 1.368 . S
C1029 C1010 1.429 . S
C1029 C1023 1.429 . S
C1029 C1030 1.523 . S
C1030 C1011 1.368 . S
C1030 C1024 1.368 . S
C1030 C1029 1.523 . S
C1031 C1015 1.429 . S
C1031 C1027 1.429 . S
C1031 C1032 1.523 . S
C1032 C1016 1.368 . S
C1032 C1028 1.368 . S
C1032 C1031 1.523 . S
H1033 C1008 0.950 . S
H1034 C1010 0.950 . S
H1035 C1011 0.949 . S
H1036 C1013 0.950 . S
H1037 C1015 0.950 . S
C1038 C1039 1.349 . S
C1038 C1040 1.327 . S
C1038 H1063 0.950 . S
C1039 C1038 1.349 . S
C1039 C1055 1.349 . S
C1040 C1038 1.327 . S
C1040 C1059 1.429 . S
C1040 H1064 0.950 . S
C1041 C1058 1.574 . S
C1041 C1060 1.368 . S
C1041 H1065 0.949 . S
H1042 C1046 0.949 . S
C1043 C1044 1.349 . S
C1043 C1045 1.327 . S
C1043 H1066 0.950 . S
C1044 C1043 1.349 . S
C1044 C1056 1.349 . S
C1045 C1043 1.327 . S
C1045 C1061 1.429 . S
C1045 H1067 0.950 . S
C1046 H1042 0.949 . S
C1046 C1054 1.574 . S
C1046 C1062 1.368 . S
H1047 C1055 0.950 . S
H1048 C1053 0.950 . S
H1049 C1054 0.949 . S
H1050 C1056 0.950 . S
H1051 C1057 0.950 . S
H1052 C1058 0.949 . S
C1053 H1048 0.950 . S
C1053 C1055 1.327 . S
C1053 C1059 1.429 . S
C1054 C1046 1.574 . S
C1054 H1049 0.949 . S
C1054 C1060 1.368 . S
C1055 C1039 1.349 . S
C1055 H1047 0.950 . S
C1055 C1053 1.327 . S
C1056 C1044 1.349 . S
C1056 H1050 0.950 . S
C1056 C1057 1.327 . S
C1057 H1051 0.950 . S
C1057 C1056 1.327 . S
C1057 C1061 1.429 . S
C1058 C1041 1.574 . S
C1058 H1052 0.949 . S
C1058 C1062 1.368 . S
C1059 C1040 1.429 . S
C1059 C1053 1.429 . S
C1059 C1060 1.523 . S
C1060 C1041 1.368 . S
C1060 C1054 1.368 . S
C1060 C1059 1.523 . S
C1061 C1045 1.429 . S
C1061 C1057 1.429 . S
C1061 C1062 1.523 . S
C1062 C1046 1.368 . S
C1062 C1058 1.368 . S
C1062 C1061 1.523 . S
H1063 C1038 0.950 . S
H1064 C1040 0.950 . S
H1065 C1041 0.949 . S
H1066 C1043 0.950 . S
H1067 C1045 0.950 . S
C1068 C1069 1.349 . S
C1068 C1070 1.327 . S
C1068 H1093 0.950 . S
C1069 C1068 1.349 . S
C1069 C1085 1.349 . S
C1070 C1068 1.327 . S
C1070 C1089 1.429 . S
C1070 H1094 0.950 . S
C1071 C1088 1.574 . S
C1071 C1090 1.368 . S
C1071 H1095 0.949 . S
H1072 C1076 0.949 . S
C1073 C1074 1.349 . S
C1073 C1075 1.327 . S
C1073 H1096 0.950 . S
C1074 C1073 1.349 . S
C1074 C1086 1.349 . S
C1075 C1073 1.327 . S
C1075 C1091 1.429 . S
C1075 H1097 0.950 . S
C1076 H1072 0.949 . S
C1076 C1084 1.574 . S
C1076 C1092 1.368 . S
H1077 C1085 0.950 . S
H1078 C1083 0.950 . S
H1079 C1084 0.949 . S
H1080 C1086 0.950 . S
H1081 C1087 0.950 . S
H1082 C1088 0.949 . S
C1083 H1078 0.950 . S
C1083 C1085 1.327 . S
C1083 C1089 1.429 . S
C1084 C1076 1.574 . S
C1084 H1079 0.949 . S
C1084 C1090 1.368 . S
C1085 C1069 1.349 . S
C1085 H1077 0.950 . S
C1085 C1083 1.327 . S
C1086 C1074 1.349 . S
C1086 H1080 0.950 . S
C1086 C1087 1.327 . S
C1087 H1081 0.950 . S
C1087 C1086 1.327 . S
C1087 C1091 1.429 . S
C1088 C1071 1.574 . S
C1088 H1082 0.949 . S
C1088 C1092 1.368 . S
C1089 C1070 1.429 . S
C1089 C1083 1.429 . S
C1089 C1090 1.523 . S
C1090 C1071 1.368 . S
C1090 C1084 1.368 . S
C1090 C1089 1.523 . S
C1091 C1075 1.429 . S
C1091 C1087 1.429 . S
C1091 C1092 1.523 . S
C1092 C1076 1.368 . S
C1092 C1088 1.368 . S
C1092 C1091 1.523 . S
H1093 C1068 0.950 . S
H1094 C1070 0.950 . S
H1095 C1071 0.949 . S
H1096 C1073 0.950 . S
H1097 C1075 0.950 . S
C1098 C1099 1.349 . S
C1098 C1100 1.327 . S
C1098 H1123 0.950 . S
C1099 C1098 1.349 . S
C1099 C1115 1.349 . S
C1100 C1098 1.327 . S
C1100 C1119 1.429 . S
C1100 H1124 0.950 . S
C1101 C1118 1.574 . S
C1101 C1120 1.368 . S
C1101 H1125 0.949 . S
H1102 C1106 0.949 . S
C1103 C1104 1.349 . S
C1103 C1105 1.327 . S
C1103 H1126 0.950 . S
C1104 C1103 1.349 . S
C1104 C1116 1.349 . S
C1105 C1103 1.327 . S
C1105 C1121 1.429 . S
C1105 H1127 0.950 . S
C1106 H1102 0.949 . S
C1106 C1114 1.574 . S
C1106 C1122 1.368 . S
H1107 C1115 0.950 . S
H1108 C1113 0.950 . S
H1109 C1114 0.949 . S
H1110 C1116 0.950 . S
H1111 C1117 0.950 . S
H1112 C1118 0.949 . S
C1113 H1108 0.950 . S
C1113 C1115 1.327 . S
C1113 C1119 1.429 . S
C1114 C1106 1.574 . S
C1114 H1109 0.949 . S
C1114 C1120 1.368 . S
C1115 C1099 1.349 . S
C1115 H1107 0.950 . S
C1115 C1113 1.327 . S
C1116 C1104 1.349 . S
C1116 H1110 0.950 . S
C1116 C1117 1.327 . S
C1117 H1111 0.950 . S
C1117 C1116 1.327 . S
C1117 C1121 1.429 . S
C1118 C1101 1.574 . S
C1118 H1112 0.949 . S
C1118 C1122 1.368 . S
C1119 C1100 1.429 . S
C1119 C1113 1.429 . S
C1119 C1120 1.523 . S
C1120 C1101 1.368 . S
C1120 C1114 1.368 . S
C1120 C1119 1.523 . S
C1121 C1105 1.429 . S
C1121 C1117 1.429 . S
C1121 C1122 1.523 . S
C1122 C1106 1.368 . S
C1122 C1118 1.368 . S
C1122 C1121 1.523 . S
H1123 C1098 0.950 . S
H1124 C1100 0.950 . S
H1125 C1101 0.949 . S
H1126 C1103 0.950 . S
H1127 C1105 0.950 . S
C1128 C1129 1.349 . S
C1128 C1130 1.327 . S
C1128 H1153 0.950 . S
C1129 C1128 1.349 . S
C1129 C1145 1.349 . S
C1130 C1128 1.327 . S
C1130 C1149 1.429 . S
C1130 H1154 0.950 . S
C1131 C1148 1.574 . S
C1131 C1150 1.368 . S
C1131 H1155 0.949 . S
H1132 C1136 0.949 . S
C1133 C1134 1.349 . S
C1133 C1135 1.327 . S
C1133 H1156 0.950 . S
C1134 C1133 1.349 . S
C1134 C1146 1.349 . S
C1135 C1133 1.327 . S
C1135 C1151 1.429 . S
C1135 H1157 0.950 . S
C1136 H1132 0.949 . S
C1136 C1144 1.574 . S
C1136 C1152 1.368 . S
H1137 C1145 0.950 . S
H1138 C1143 0.950 . S
H1139 C1144 0.949 . S
H1140 C1146 0.950 . S
H1141 C1147 0.950 . S
H1142 C1148 0.949 . S
C1143 H1138 0.950 . S
C1143 C1145 1.327 . S
C1143 C1149 1.429 . S
C1144 C1136 1.574 . S
C1144 H1139 0.949 . S
C1144 C1150 1.368 . S
C1145 C1129 1.349 . S
C1145 H1137 0.950 . S
C1145 C1143 1.327 . S
C1146 C1134 1.349 . S
C1146 H1140 0.950 . S
C1146 C1147 1.327 . S
C1147 H1141 0.950 . S
C1147 C1146 1.327 . S
C1147 C1151 1.429 . S
C1148 C1131 1.574 . S
C1148 H1142 0.949 . S
C1148 C1152 1.368 . S
C1149 C1130 1.429 . S
C1149 C1143 1.429 . S
C1149 C1150 1.523 . S
C1150 C1131 1.368 . S
C1150 C1144 1.368 . S
C1150 C1149 1.523 . S
C1151 C1135 1.429 . S
C1151 C1147 1.429 . S
C1151 C1152 1.523 . S
C1152 C1136 1.368 . S
C1152 C1148 1.368 . S
C1152 C1151 1.523 . S
H1153 C1128 0.950 . S
H1154 C1130 0.950 . S
H1155 C1131 0.949 . S
H1156 C1133 0.950 . S
H1157 C1135 0.950 . S
C1158 C1159 1.349 . S
C1158 C1160 1.327 . S
C1158 H1183 0.950 . S
C1159 C1158 1.349 . S
C1159 C1175 1.349 . S
C1160 C1158 1.327 . S
C1160 C1179 1.429 . S
C1160 H1184 0.950 . S
C1161 C1178 1.574 . S
C1161 C1180 1.368 . S
C1161 H1185 0.949 . S
H1162 C1166 0.949 . S
C1163 C1164 1.349 . S
C1163 C1165 1.327 . S
C1163 H1186 0.950 . S
C1164 C1163 1.349 . S
C1164 C1176 1.349 . S
C1165 C1163 1.327 . S
C1165 C1181 1.429 . S
C1165 H1187 0.950 . S
C1166 H1162 0.949 . S
C1166 C1174 1.574 . S
C1166 C1182 1.368 . S
H1167 C1175 0.950 . S
H1168 C1173 0.950 . S
H1169 C1174 0.949 . S
H1170 C1176 0.950 . S
H1171 C1177 0.950 . S
H1172 C1178 0.949 . S
C1173 H1168 0.950 . S
C1173 C1175 1.327 . S
C1173 C1179 1.429 . S
C1174 C1166 1.574 . S
C1174 H1169 0.949 . S
C1174 C1180 1.368 . S
C1175 C1159 1.349 . S
C1175 H1167 0.950 . S
C1175 C1173 1.327 . S
C1176 C1164 1.349 . S
C1176 H1170 0.950 . S
C1176 C1177 1.327 . S
C1177 H1171 0.950 . S
C1177 C1176 1.327 . S
C1177 C1181 1.429 . S
C1178 C1161 1.574 . S
C1178 H1172 0.949 . S
C1178 C1182 1.368 . S
C1179 C1160 1.429 . S
C1179 C1173 1.429 . S
C1179 C1180 1.523 . S
C1180 C1161 1.368 . S
C1180 C1174 1.368 . S
C1180 C1179 1.523 . S
C1181 C1165 1.429 . S
C1181 C1177 1.429 . S
C1181 C1182 1.523 . S
C1182 C1166 1.368 . S
C1182 C1178 1.368 . S
C1182 C1181 1.523 . S
H1183 C1158 0.950 . S
H1184 C1160 0.950 . S
H1185 C1161 0.949 . S
H1186 C1163 0.950 . S
H1187 C1165 0.950 . S
C1188 C1189 1.349 . S
C1188 C1190 1.327 . S
C1188 H1213 0.950 . S
C1189 C1188 1.349 . S
C1189 C1205 1.349 . S
C1190 C1188 1.327 . S
C1190 C1209 1.429 . S
C1190 H1214 0.950 . S
C1191 C1208 1.574 . S
C1191 C1210 1.368 . S
C1191 H1215 0.949 . S
H1192 C1196 0.949 . S
C1193 C1194 1.349 . S
C1193 C1195 1.327 . S
C1193 H1216 0.950 . S
C1194 C1193 1.349 . S
C1194 C1206 1.349 . S
C1195 C1193 1.327 . S
C1195 C1211 1.429 . S
C1195 H1217 0.950 . S
C1196 H1192 0.949 . S
C1196 C1204 1.574 . S
C1196 C1212 1.368 . S
H1197 C1205 0.950 . S
H1198 C1203 0.950 . S
H1199 C1204 0.949 . S
H1200 C1206 0.950 . S
H1201 C1207 0.950 . S
H1202 C1208 0.949 . S
C1203 H1198 0.950 . S
C1203 C1205 1.327 . S
C1203 C1209 1.429 . S
C1204 C1196 1.574 . S
C1204 H1199 0.949 . S
C1204 C1210 1.368 . S
C1205 C1189 1.349 . S
C1205 H1197 0.950 . S
C1205 C1203 1.327 . S
C1206 C1194 1.349 . S
C1206 H1200 0.950 . S
C1206 C1207 1.327 . S
C1207 H1201 0.950 . S
C1207 C1206 1.327 . S
C1207 C1211 1.429 . S
C1208 C1191 1.574 . S
C1208 H1202 0.949 . S
C1208 C1212 1.368 . S
C1209 C1190 1.429 . S
C1209 C1203 1.429 . S
C1209 C1210 1.523 . S
C1210 C1191 1.368 . S
C1210 C1204 1.368 . S
C1210 C1209 1.523 . S
C1211 C1195 1.429 . S
C1211 C1207 1.429 . S
C1211 C1212 1.523 . S
C1212 C1196 1.368 . S
C1212 C1208 1.368 . S
C1212 C1211 1.523 . S
H1213 C1188 0.950 . S
H1214 C1190 0.950 . S
H1215 C1191 0.949 . S
H1216 C1193 0.950 . S
H1217 C1195 0.950 . S
C1218 C1219 1.349 . S
C1218 C1220 1.327 . S
C1218 H1243 0.950 . S
C1219 C1218 1.349 . S
C1219 C1235 1.349 . S
C1220 C1218 1.327 . S
C1220 C1239 1.429 . S
C1220 H1244 0.950 . S
C1221 C1238 1.574 . S
C1221 C1240 1.368 . S
C1221 H1245 0.949 . S
H1222 C1226 0.949 . S
C1223 C1224 1.349 . S
C1223 C1225 1.327 . S
C1223 H1246 0.950 . S
C1224 C1223 1.349 . S
C1224 C1236 1.349 . S
C1225 C1223 1.327 . S
C1225 C1241 1.429 . S
C1225 H1247 0.950 . S
C1226 H1222 0.949 . S
C1226 C1234 1.574 . S
C1226 C1242 1.368 . S
H1227 C1235 0.950 . S
H1228 C1233 0.950 . S
H1229 C1234 0.949 . S
H1230 C1236 0.950 . S
H1231 C1237 0.950 . S
H1232 C1238 0.949 . S
C1233 H1228 0.950 . S
C1233 C1235 1.327 . S
C1233 C1239 1.429 . S
C1234 C1226 1.574 . S
C1234 H1229 0.949 . S
C1234 C1240 1.368 . S
C1235 C1219 1.349 . S
C1235 H1227 0.950 . S
C1235 C1233 1.327 . S
C1236 C1224 1.349 . S
C1236 H1230 0.950 . S
C1236 C1237 1.327 . S
C1237 H1231 0.950 . S
C1237 C1236 1.327 . S
C1237 C1241 1.429 . S
C1238 C1221 1.574 . S
C1238 H1232 0.949 . S
C1238 C1242 1.368 . S
C1239 C1220 1.429 . S
C1239 C1233 1.429 . S
C1239 C1240 1.523 . S
C1240 C1221 1.368 . S
C1240 C1234 1.368 . S
C1240 C1239 1.523 . S
C1241 C1225 1.429 . S
C1241 C1237 1.429 . S
C1241 C1242 1.523 . S
C1242 C1226 1.368 . S
C1242 C1238 1.368 . S
C1242 C1241 1.523 . S
H1243 C1218 0.950 . S
H1244 C1220 0.950 . S
H1245 C1221 0.949 . S
H1246 C1223 0.950 . S
H1247 C1225 0.950 . S
C1248 C1249 1.349 . S
C1248 C1250 1.327 . S
C1248 H1273 0.950 . S
C1249 C1248 1.349 . S
C1249 C1265 1.349 . S
C1250 C1248 1.327 . S
C1250 C1269 1.429 . S
C1250 H1274 0.950 . S
C1251 C1268 1.574 . S
C1251 C1270 1.368 . S
C1251 H1275 0.949 . S
H1252 C1256 0.949 . S
C1253 C1254 1.349 . S
C1253 C1255 1.327 . S
C1253 H1276 0.950 . S
C1254 C1253 1.349 . S
C1254 C1266 1.349 . S
C1255 C1253 1.327 . S
C1255 C1271 1.429 . S
C1255 H1277 0.950 . S
C1256 H1252 0.949 . S
C1256 C1264 1.574 . S
C1256 C1272 1.368 . S
H1257 C1265 0.950 . S
H1258 C1263 0.950 . S
H1259 C1264 0.949 . S
H1260 C1266 0.950 . S
H1261 C1267 0.950 . S
H1262 C1268 0.949 . S
C1263 H1258 0.950 . S
C1263 C1265 1.327 . S
C1263 C1269 1.429 . S
C1264 C1256 1.574 . S
C1264 H1259 0.949 . S
C1264 C1270 1.368 . S
C1265 C1249 1.349 . S
C1265 H1257 0.950 . S
C1265 C1263 1.327 . S
C1266 C1254 1.349 . S
C1266 H1260 0.950 . S
C1266 C1267 1.327 . S
C1267 H1261 0.950 . S
C1267 C1266 1.327 . S
C1267 C1271 1.429 . S
C1268 C1251 1.574 . S
C1268 H1262 0.949 . S
C1268 C1272 1.368 . S
C1269 C1250 1.429 . S
C1269 C1263 1.429 . S
C1269 C1270 1.523 . S
C1270 C1251 1.368 . S
C1270 C1264 1.368 . S
C1270 C1269 1.523 . S
C1271 C1255 1.429 . S
C1271 C1267 1.429 . S
C1271 C1272 1.523 . S
C1272 C1256 1.368 . S
C1272 C1268 1.368 . S
C1272 C1271 1.523 . S
H1273 C1248 0.950 . S
H1274 C1250 0.950 . S
H1275 C1251 0.949 . S
H1276 C1253 0.950 . S
H1277 C1255 0.950 . S
C1278 C1279 1.349 . S
C1278 C1280 1.327 . S
C1278 H1303 0.950 . S
C1279 C1278 1.349 . S
C1279 C1295 1.349 . S
C1280 C1278 1.327 . S
C1280 C1299 1.429 . S
C1280 H1304 0.950 . S
C1281 C1298 1.574 . S
C1281 C1300 1.368 . S
C1281 H1305 0.949 . S
H1282 C1286 0.949 . S
C1283 C1284 1.349 . S
C1283 C1285 1.327 . S
C1283 H1306 0.950 . S
C1284 C1283 1.349 . S
C1284 C1296 1.349 . S
C1285 C1283 1.327 . S
C1285 C1301 1.429 . S
C1285 H1307 0.950 . S
C1286 H1282 0.949 . S
C1286 C1294 1.574 . S
C1286 C1302 1.368 . S
H1287 C1295 0.950 . S
H1288 C1293 0.950 . S
H1289 C1294 0.949 . S
H1290 C1296 0.950 . S
H1291 C1297 0.950 . S
H1292 C1298 0.949 . S
C1293 H1288 0.950 . S
C1293 C1295 1.327 . S
C1293 C1299 1.429 . S
C1294 C1286 1.574 . S
C1294 H1289 0.949 . S
C1294 C1300 1.368 . S
C1295 C1279 1.349 . S
C1295 H1287 0.950 . S
C1295 C1293 1.327 . S
C1296 C1284 1.349 . S
C1296 H1290 0.950 . S
C1296 C1297 1.327 . S
C1297 H1291 0.950 . S
C1297 C1296 1.327 . S
C1297 C1301 1.429 . S
C1298 C1281 1.574 . S
C1298 H1292 0.949 . S
C1298 C1302 1.368 . S
C1299 C1280 1.429 . S
C1299 C1293 1.429 . S
C1299 C1300 1.523 . S
C1300 C1281 1.368 . S
C1300 C1294 1.368 . S
C1300 C1299 1.523 . S
C1301 C1285 1.429 . S
C1301 C1297 1.429 . S
C1301 C1302 1.523 . S
C1302 C1286 1.368 . S
C1302 C1298 1.368 . S
C1302 C1301 1.523 . S
H1303 C1278 0.950 . S
H1304 C1280 0.950 . S
H1305 C1281 0.949 . S
H1306 C1283 0.950 . S
H1307 C1285 0.950 . S
C1308 C1309 1.349 . S
C1308 C1310 1.327 . S
C1308 H1333 0.950 . S
C1309 C1308 1.349 . S
C1309 C1325 1.349 . S
C1310 C1308 1.327 . S
C1310 C1329 1.429 . S
C1310 H1334 0.950 . S
C1311 C1328 1.574 . S
C1311 C1330 1.368 . S
C1311 H1335 0.949 . S
H1312 C1316 0.949 . S
C1313 C1314 1.349 . S
C1313 C1315 1.327 . S
C1313 H1336 0.950 . S
C1314 C1313 1.349 . S
C1314 C1326 1.349 . S
C1315 C1313 1.327 . S
C1315 C1331 1.429 . S
C1315 H1337 0.950 . S
C1316 H1312 0.949 . S
C1316 C1324 1.574 . S
C1316 C1332 1.368 . S
H1317 C1325 0.950 . S
H1318 C1323 0.950 . S
H1319 C1324 0.949 . S
H1320 C1326 0.950 . S
H1321 C1327 0.950 . S
H1322 C1328 0.949 . S
C1323 H1318 0.950 . S
C1323 C1325 1.327 . S
C1323 C1329 1.429 . S
C1324 C1316 1.574 . S
C1324 H1319 0.949 . S
C1324 C1330 1.368 . S
C1325 C1309 1.349 . S
C1325 H1317 0.950 . S
C1325 C1323 1.327 . S
C1326 C1314 1.349 . S
C1326 H1320 0.950 . S
C1326 C1327 1.327 . S
C1327 H1321 0.950 . S
C1327 C1326 1.327 . S
C1327 C1331 1.429 . S
C1328 C1311 1.574 . S
C1328 H1322 0.949 . S
C1328 C1332 1.368 . S
C1329 C1310 1.429 . S
C1329 C1323 1.429 . S
C1329 C1330 1.523 . S
C1330 C1311 1.368 . S
C1330 C1324 1.368 . S
C1330 C1329 1.523 . S
C1331 C1315 1.429 . S
C1331 C1327 1.429 . S
C1331 C1332 1.523 . S
C1332 C1316 1.368 . S
C1332 C1328 1.368 . S
C1332 C1331 1.523 . S
H1333 C1308 0.950 . S
H1334 C1310 0.950 . S
H1335 C1311 0.949 . S
H1336 C1313 0.950 . S
H1337 C1315 0.950 . S
C1338 C1339 1.349 . S
C1338 C1340 1.327 . S
C1338 H1363 0.950 . S
C1339 C1338 1.349 . S
C1339 C1355 1.349 . S
C1340 C1338 1.327 . S
C1340 C1359 1.429 . S
C1340 H1364 0.950 . S
C1341 C1358 1.574 . S
C1341 C1360 1.368 . S
C1341 H1365 0.949 . S
H1342 C1346 0.949 . S
C1343 C1344 1.349 . S
C1343 C1345 1.327 . S
C1343 H1366 0.950 . S
C1344 C1343 1.349 . S
C1344 C1356 1.349 . S
C1345 C1343 1.327 . S
C1345 C1361 1.429 . S
C1345 H1367 0.950 . S
C1346 H1342 0.949 . S
C1346 C1354 1.574 . S
C1346 C1362 1.368 . S
H1347 C1355 0.950 . S
H1348 C1353 0.950 . S
H1349 C1354 0.949 . S
H1350 C1356 0.950 . S
H1351 C1357 0.950 . S
H1352 C1358 0.949 . S
C1353 H1348 0.950 . S
C1353 C1355 1.327 . S
C1353 C1359 1.429 . S
C1354 C1346 1.574 . S
C1354 H1349 0.949 . S
C1354 C1360 1.368 . S
C1355 C1339 1.349 . S
C1355 H1347 0.950 . S
C1355 C1353 1.327 . S
C1356 C1344 1.349 . S
C1356 H1350 0.950 . S
C1356 C1357 1.327 . S
C1357 H1351 0.950 . S
C1357 C1356 1.327 . S
C1357 C1361 1.429 . S
C1358 C1341 1.574 . S
C1358 H1352 0.949 . S
C1358 C1362 1.368 . S
C1359 C1340 1.429 . S
C1359 C1353 1.429 . S
C1359 C1360 1.523 . S
C1360 C1341 1.368 . S
C1360 C1354 1.368 . S
C1360 C1359 1.523 . S
C1361 C1345 1.429 . S
C1361 C1357 1.429 . S
C1361 C1362 1.523 . S
C1362 C1346 1.368 . S
C1362 C1358 1.368 . S
C1362 C1361 1.523 . S
H1363 C1338 0.950 . S
H1364 C1340 0.950 . S
H1365 C1341 0.949 . S
H1366 C1343 0.950 . S
H1367 C1345 0.950 . S
C1368 C1369 1.349 . S
C1368 C1370 1.327 . S
C1368 H1393 0.950 . S
C1369 C1368 1.349 . S
C1369 C1385 1.349 . S
C1370 C1368 1.327 . S
C1370 C1389 1.429 . S
C1370 H1394 0.950 . S
C1371 C1388 1.574 . S
C1371 C1390 1.368 . S
C1371 H1395 0.949 . S
H1372 C1376 0.949 . S
C1373 C1374 1.349 . S
C1373 C1375 1.327 . S
C1373 H1396 0.950 . S
C1374 C1373 1.349 . S
C1374 C1386 1.349 . S
C1375 C1373 1.327 . S
C1375 C1391 1.429 . S
C1375 H1397 0.950 . S
C1376 H1372 0.949 . S
C1376 C1384 1.574 . S
C1376 C1392 1.368 . S
H1377 C1385 0.950 . S
H1378 C1383 0.950 . S
H1379 C1384 0.949 . S
H1380 C1386 0.950 . S
H1381 C1387 0.950 . S
H1382 C1388 0.949 . S
C1383 H1378 0.950 . S
C1383 C1385 1.327 . S
C1383 C1389 1.429 . S
C1384 C1376 1.574 . S
C1384 H1379 0.949 . S
C1384 C1390 1.368 . S
C1385 C1369 1.349 . S
C1385 H1377 0.950 . S
C1385 C1383 1.327 . S
C1386 C1374 1.349 . S
C1386 H1380 0.950 . S
C1386 C1387 1.327 . S
C1387 H1381 0.950 . S
C1387 C1386 1.327 . S
C1387 C1391 1.429 . S
C1388 C1371 1.574 . S
C1388 H1382 0.949 . S
C1388 C1392 1.368 . S
C1389 C1370 1.429 . S
C1389 C1383 1.429 . S
C1389 C1390 1.523 . S
C1390 C1371 1.368 . S
C1390 C1384 1.368 . S
C1390 C1389 1.523 . S
C1391 C1375 1.429 . S
C1391 C1387 1.429 . S
C1391 C1392 1.523 . S
C1392 C1376 1.368 . S
C1392 C1388 1.368 . S
C1392 C1391 1.523 . S
H1393 C1368 0.950 . S
H1394 C1370 0.950 . S
H1395 C1371 0.949 . S
H1396 C1373 0.950 . S
H1397 C1375 0.950 . S
C1398 C1399 1.349 . S
C1398 C1400 1.327 . S
C1398 H1423 0.950 . S
C1399 C1398 1.349 . S
C1399 C1415 1.349 . S
C1400 C1398 1.327 . S
C1400 C1419 1.429 . S
C1400 H1424 0.950 . S
C1401 C1418 1.574 . S
C1401 C1420 1.368 . S
C1401 H1425 0.949 . S
H1402 C1406 0.949 . S
C1403 C1404 1.349 . S
C1403 C1405 1.327 . S
C1403 H1426 0.950 . S
C1404 C1403 1.349 . S
C1404 C1416 1.349 . S
C1405 C1403 1.327 . S
C1405 C1421 1.429 . S
C1405 H1427 0.950 . S
C1406 H1402 0.949 . S
C1406 C1414 1.574 . S
C1406 C1422 1.368 . S
H1407 C1415 0.950 . S
H1408 C1413 0.950 . S
H1409 C1414 0.949 . S
H1410 C1416 0.950 . S
H1411 C1417 0.950 . S
H1412 C1418 0.949 . S
C1413 H1408 0.950 . S
C1413 C1415 1.327 . S
C1413 C1419 1.429 . S
C1414 C1406 1.574 . S
C1414 H1409 0.949 . S
C1414 C1420 1.368 . S
C1415 C1399 1.349 . S
C1415 H1407 0.950 . S
C1415 C1413 1.327 . S
C1416 C1404 1.349 . S
C1416 H1410 0.950 . S
C1416 C1417 1.327 . S
C1417 H1411 0.950 . S
C1417 C1416 1.327 . S
C1417 C1421 1.429 . S
C1418 C1401 1.574 . S
C1418 H1412 0.949 . S
C1418 C1422 1.368 . S
C1419 C1400 1.429 . S
C1419 C1413 1.429 . S
C1419 C1420 1.523 . S
C1420 C1401 1.368 . S
C1420 C1414 1.368 . S
C1420 C1419 1.523 . S
C1421 C1405 1.429 . S
C1421 C1417 1.429 . S
C1421 C1422 1.523 . S
C1422 C1406 1.368 . S
C1422 C1418 1.368 . S
C1422 C1421 1.523 . S
H1423 C1398 0.950 . S
H1424 C1400 0.950 . S
H1425 C1401 0.949 . S
H1426 C1403 0.950 . S
H1427 C1405 0.950 . S
C1428 C1429 1.349 . S
C1428 C1430 1.327 . S
C1428 H1453 0.950 . S
C1429 C1428 1.349 . S
C1429 C1445 1.349 . S
C1430 C1428 1.327 . S
C1430 C1449 1.429 . S
C1430 H1454 0.950 . S
C1431 C1448 1.574 . S
C1431 C1450 1.368 . S
C1431 H1455 0.949 . S
H1432 C1436 0.949 . S
C1433 C1434 1.349 . S
C1433 C1435 1.327 . S
C1433 H1456 0.950 . S
C1434 C1433 1.349 . S
C1434 C1446 1.349 . S
C1435 C1433 1.327 . S
C1435 C1451 1.429 . S
C1435 H1457 0.950 . S
C1436 H1432 0.949 . S
C1436 C1444 1.574 . S
C1436 C1452 1.368 . S
H1437 C1445 0.950 . S
H1438 C1443 0.950 . S
H1439 C1444 0.949 . S
H1440 C1446 0.950 . S
H1441 C1447 0.950 . S
H1442 C1448 0.949 . S
C1443 H1438 0.950 . S
C1443 C1445 1.327 . S
C1443 C1449 1.429 . S
C1444 C1436 1.574 . S
C1444 H1439 0.949 . S
C1444 C1450 1.368 . S
C1445 C1429 1.349 . S
C1445 H1437 0.950 . S
C1445 C1443 1.327 . S
C1446 C1434 1.349 . S
C1446 H1440 0.950 . S
C1446 C1447 1.327 . S
C1447 H1441 0.950 . S
C1447 C1446 1.327 . S
C1447 C1451 1.429 . S
C1448 C1431 1.574 . S
C1448 H1442 0.949 . S
C1448 C1452 1.368 . S
C1449 C1430 1.429 . S
C1449 C1443 1.429 . S
C1449 C1450 1.523 . S
C1450 C1431 1.368 . S
C1450 C1444 1.368 . S
C1450 C1449 1.523 . S
C1451 C1435 1.429 . S
C1451 C1447 1.429 . S
C1451 C1452 1.523 . S
C1452 C1436 1.368 . S
C1452 C1448 1.368 . S
C1452 C1451 1.523 . S
H1453 C1428 0.950 . S
H1454 C1430 0.950 . S
H1455 C1431 0.949 . S
H1456 C1433 0.950 . S
H1457 C1435 0.950 . S
C1458 C1459 1.349 . S
C1458 C1460 1.327 . S
C1458 H1483 0.950 . S
C1459 C1458 1.349 . S
C1459 C1475 1.349 . S
C1460 C1458 1.327 . S
C1460 C1479 1.429 . S
C1460 H1484 0.950 . S
C1461 C1478 1.574 . S
C1461 C1480 1.368 . S
C1461 H1485 0.949 . S
H1462 C1466 0.949 . S
C1463 C1464 1.349 . S
C1463 C1465 1.327 . S
C1463 H1486 0.950 . S
C1464 C1463 1.349 . S
C1464 C1476 1.349 . S
C1465 C1463 1.327 . S
C1465 C1481 1.429 . S
C1465 H1487 0.950 . S
C1466 H1462 0.949 . S
C1466 C1474 1.574 . S
C1466 C1482 1.368 . S
H1467 C1475 0.950 . S
H1468 C1473 0.950 . S
H1469 C1474 0.949 . S
H1470 C1476 0.950 . S
H1471 C1477 0.950 . S
H1472 C1478 0.949 . S
C1473 H1468 0.950 . S
C1473 C1475 1.327 . S
C1473 C1479 1.429 . S
C1474 C1466 1.574 . S
C1474 H1469 0.949 . S
C1474 C1480 1.368 . S
C1475 C1459 1.349 . S
C1475 H1467 0.950 . S
C1475 C1473 1.327 . S
C1476 C1464 1.349 . S
C1476 H1470 0.950 . S
C1476 C1477 1.327 . S
C1477 H1471 0.950 . S
C1477 C1476 1.327 . S
C1477 C1481 1.429 . S
C1478 C1461 1.574 . S
C1478 H1472 0.949 . S
C1478 C1482 1.368 . S
C1479 C1460 1.429 . S
C1479 C1473 1.429 . S
C1479 C1480 1.523 . S
C1480 C1461 1.368 . S
C1480 C1474 1.368 . S
C1480 C1479 1.523 . S
C1481 C1465 1.429 . S
C1481 C1477 1.429 . S
C1481 C1482 1.523 . S
C1482 C1466 1.368 . S
C1482 C1478 1.368 . S
C1482 C1481 1.523 . S
H1483 C1458 0.950 . S
H1484 C1460 0.950 . S
H1485 C1461 0.949 . S
H1486 C1463 0.950 . S
H1487 C1465 0.950 . S
C1488 C1489 1.349 . S
C1488 C1490 1.327 . S
C1488 H1513 0.950 . S
C1489 C1488 1.349 . S
C1489 C1505 1.349 . S
C1490 C1488 1.327 . S
C1490 C1509 1.429 . S
C1490 H1514 0.950 . S
C1491 C1508 1.574 . S
C1491 C1510 1.368 . S
C1491 H1515 0.949 . S
H1492 C1496 0.949 . S
C1493 C1494 1.349 . S
C1493 C1495 1.327 . S
C1493 H1516 0.950 . S
C1494 C1493 1.349 . S
C1494 C1506 1.349 . S
C1495 C1493 1.327 . S
C1495 C1511 1.429 . S
C1495 H1517 0.950 . S
C1496 H1492 0.949 . S
C1496 C1504 1.574 . S
C1496 C1512 1.368 . S
H1497 C1505 0.950 . S
H1498 C1503 0.950 . S
H1499 C1504 0.949 . S
H1500 C1506 0.950 . S
H1501 C1507 0.950 . S
H1502 C1508 0.949 . S
C1503 H1498 0.950 . S
C1503 C1505 1.327 . S
C1503 C1509 1.429 . S
C1504 C1496 1.574 . S
C1504 H1499 0.949 . S
C1504 C1510 1.368 . S
C1505 C1489 1.349 . S
C1505 H1497 0.950 . S
C1505 C1503 1.327 . S
C1506 C1494 1.349 . S
C1506 H1500 0.950 . S
C1506 C1507 1.327 . S
C1507 H1501 0.950 . S
C1507 C1506 1.327 . S
C1507 C1511 1.429 . S
C1508 C1491 1.574 . S
C1508 H1502 0.949 . S
C1508 C1512 1.368 . S
C1509 C1490 1.429 . S
C1509 C1503 1.429 . S
C1509 C1510 1.523 . S
C1510 C1491 1.368 . S
C1510 C1504 1.368 . S
C1510 C1509 1.523 . S
C1511 C1495 1.429 . S
C1511 C1507 1.429 . S
C1511 C1512 1.523 . S
C1512 C1496 1.368 . S
C1512 C1508 1.368 . S
C1512 C1511 1.523 . S
H1513 C1488 0.950 . S
H1514 C1490 0.950 . S
H1515 C1491 0.949 . S
H1516 C1493 0.950 . S
H1517 C1495 0.950 . S
C1518 C1519 1.349 . S
C1518 C1520 1.327 . S
C1518 H1543 0.950 . S
C1519 C1518 1.349 . S
C1519 C1535 1.349 . S
C1520 C1518 1.327 . S
C1520 C1539 1.429 . S
C1520 H1544 0.950 . S
C1521 C1538 1.574 . S
C1521 C1540 1.368 . S
C1521 H1545 0.949 . S
H1522 C1526 0.949 . S
C1523 C1524 1.349 . S
C1523 C1525 1.327 . S
C1523 H1546 0.950 . S
C1524 C1523 1.349 . S
C1524 C1536 1.349 . S
C1525 C1523 1.327 . S
C1525 C1541 1.429 . S
C1525 H1547 0.950 . S
C1526 H1522 0.949 . S
C1526 C1534 1.574 . S
C1526 C1542 1.368 . S
H1527 C1535 0.950 . S
H1528 C1533 0.950 . S
H1529 C1534 0.949 . S
H1530 C1536 0.950 . S
H1531 C1537 0.950 . S
H1532 C1538 0.949 . S
C1533 H1528 0.950 . S
C1533 C1535 1.327 . S
C1533 C1539 1.429 . S
C1534 C1526 1.574 . S
C1534 H1529 0.949 . S
C1534 C1540 1.368 . S
C1535 C1519 1.349 . S
C1535 H1527 0.950 . S
C1535 C1533 1.327 . S
C1536 C1524 1.349 . S
C1536 H1530 0.950 . S
C1536 C1537 1.327 . S
C1537 H1531 0.950 . S
C1537 C1536 1.327 . S
C1537 C1541 1.429 . S
C1538 C1521 1.574 . S
C1538 H1532 0.949 . S
C1538 C1542 1.368 . S
C1539 C1520 1.429 . S
C1539 C1533 1.429 . S
C1539 C1540 1.523 . S
C1540 C1521 1.368 . S
C1540 C1534 1.368 . S
C1540 C1539 1.523 . S
C1541 C1525 1.429 . S
C1541 C1537 1.429 . S
C1541 C1542 1.523 . S
C1542 C1526 1.368 . S
C1542 C1538 1.368 . S
C1542 C1541 1.523 . S
H1543 C1518 0.950 . S
H1544 C1520 0.950 . S
H1545 C1521 0.949 . S
H1546 C1523 0.950 . S
H1547 C1525 0.950 . S
C1548 C1549 1.349 . S
C1548 C1550 1.327 . S
C1548 H1573 0.950 . S
C1549 C1548 1.349 . S
C1549 C1565 1.349 . S
C1550 C1548 1.327 . S
C1550 C1569 1.429 . S
C1550 H1574 0.950 . S
C1551 C1568 1.574 . S
C1551 C1570 1.368 . S
C1551 H1575 0.949 . S
H1552 C1556 0.949 . S
C1553 C1554 1.349 . S
C1553 C1555 1.327 . S
C1553 H1576 0.950 . S
C1554 C1553 1.349 . S
C1554 C1566 1.349 . S
C1555 C1553 1.327 . S
C1555 C1571 1.429 . S
C1555 H1577 0.950 . S
C1556 H1552 0.949 . S
C1556 C1564 1.574 . S
C1556 C1572 1.368 . S
H1557 C1565 0.950 . S
H1558 C1563 0.950 . S
H1559 C1564 0.949 . S
H1560 C1566 0.950 . S
H1561 C1567 0.950 . S
H1562 C1568 0.949 . S
C1563 H1558 0.950 . S
C1563 C1565 1.327 . S
C1563 C1569 1.429 . S
C1564 C1556 1.574 . S
C1564 H1559 0.949 . S
C1564 C1570 1.368 . S
C1565 C1549 1.349 . S
C1565 H1557 0.950 . S
C1565 C1563 1.327 . S
C1566 C1554 1.349 . S
C1566 H1560 0.950 . S
C1566 C1567 1.327 . S
C1567 H1561 0.950 . S
C1567 C1566 1.327 . S
C1567 C1571 1.429 . S
C1568 C1551 1.574 . S
C1568 H1562 0.949 . S
C1568 C1572 1.368 . S
C1569 C1550 1.429 . S
C1569 C1563 1.429 . S
C1569 C1570 1.523 . S
C1570 C1551 1.368 . S
C1570 C1564 1.368 . S
C1570 C1569 1.523 . S
C1571 C1555 1.429 . S
C1571 C1567 1.429 . S
C1571 C1572 1.523 . S
C1572 C1556 1.368 . S
C1572 C1568 1.368 . S
C1572 C1571 1.523 . S
H1573 C1548 0.950 . S
H1574 C1550 0.950 . S
H1575 C1551 0.949 . S
H1576 C1553 0.950 . S
H1577 C1555 0.950 . S
C1578 C1579 1.349 . S
C1578 C1580 1.327 . S
C1578 H1603 0.950 . S
C1579 C1578 1.349 . S
C1579 C1595 1.349 . S
C1580 C1578 1.327 . S
C1580 C1599 1.429 . S
C1580 H1604 0.950 . S
C1581 C1598 1.574 . S
C1581 C1600 1.368 . S
C1581 H1605 0.949 . S
H1582 C1586 0.949 . S
C1583 C1584 1.349 . S
C1583 C1585 1.327 . S
C1583 H1606 0.950 . S
C1584 C1583 1.349 . S
C1584 C1596 1.349 . S
C1585 C1583 1.327 . S
C1585 C1601 1.429 . S
C1585 H1607 0.950 . S
C1586 H1582 0.949 . S
C1586 C1594 1.574 . S
C1586 C1602 1.368 . S
H1587 C1595 0.950 . S
H1588 C1593 0.950 . S
H1589 C1594 0.949 . S
H1590 C1596 0.950 . S
H1591 C1597 0.950 . S
H1592 C1598 0.949 . S
C1593 H1588 0.950 . S
C1593 C1595 1.327 . S
C1593 C1599 1.429 . S
C1594 C1586 1.574 . S
C1594 H1589 0.949 . S
C1594 C1600 1.368 . S
C1595 C1579 1.349 . S
C1595 H1587 0.950 . S
C1595 C1593 1.327 . S
C1596 C1584 1.349 . S
C1596 H1590 0.950 . S
C1596 C1597 1.327 . S
C1597 H1591 0.950 . S
C1597 C1596 1.327 . S
C1597 C1601 1.429 . S
C1598 C1581 1.574 . S
C1598 H1592 0.949 . S
C1598 C1602 1.368 . S
C1599 C1580 1.429 . S
C1599 C1593 1.429 . S
C1599 C1600 1.523 . S
C1600 C1581 1.368 . S
C1600 C1594 1.368 . S
C1600 C1599 1.523 . S
C1601 C1585 1.429 . S
C1601 C1597 1.429 . S
C1601 C1602 1.523 . S
C1602 C1586 1.368 . S
C1602 C1598 1.368 . S
C1602 C1601 1.523 . S
H1603 C1578 0.950 . S
H1604 C1580 0.950 . S
H1605 C1581 0.949 . S
H1606 C1583 0.950 . S
H1607 C1585 0.950 . S
C1608 C1609 1.349 . S
C1608 C1610 1.327 . S
C1608 H1633 0.950 . S
C1609 C1608 1.349 . S
C1609 C1625 1.349 . S
C1610 C1608 1.327 . S
C1610 C1629 1.429 . S
C1610 H1634 0.950 . S
C1611 C1628 1.574 . S
C1611 C1630 1.368 . S
C1611 H1635 0.949 . S
H1612 C1616 0.949 . S
C1613 C1614 1.349 . S
C1613 C1615 1.327 . S
C1613 H1636 0.950 . S
C1614 C1613 1.349 . S
C1614 C1626 1.349 . S
C1615 C1613 1.327 . S
C1615 C1631 1.429 . S
C1615 H1637 0.950 . S
C1616 H1612 0.949 . S
C1616 C1624 1.574 . S
C1616 C1632 1.368 . S
H1617 C1625 0.950 . S
H1618 C1623 0.950 . S
H1619 C1624 0.949 . S
H1620 C1626 0.950 . S
H1621 C1627 0.950 . S
H1622 C1628 0.949 . S
C1623 H1618 0.950 . S
C1623 C1625 1.327 . S
C1623 C1629 1.429 . S
C1624 C1616 1.574 . S
C1624 H1619 0.949 . S
C1624 C1630 1.368 . S
C1625 C1609 1.349 . S
C1625 H1617 0.950 . S
C1625 C1623 1.327 . S
C1626 C1614 1.349 . S
C1626 H1620 0.950 . S
C1626 C1627 1.327 . S
C1627 H1621 0.950 . S
C1627 C1626 1.327 . S
C1627 C1631 1.429 . S
C1628 C1611 1.574 . S
C1628 H1622 0.949 . S
C1628 C1632 1.368 . S
C1629 C1610 1.429 . S
C1629 C1623 1.429 . S
C1629 C1630 1.523 . S
C1630 C1611 1.368 . S
C1630 C1624 1.368 . S
C1630 C1629 1.523 . S
C1631 C1615 1.429 . S
C1631 C1627 1.429 . S
C1631 C1632 1.523 . S
C1632 C1616 1.368 . S
C1632 C1628 1.368 . S
C1632 C1631 1.523 . S
H1633 C1608 0.950 . S
H1634 C1610 0.950 . S
H1635 C1611 0.949 . S
H1636 C1613 0.950 . S
H1637 C1615 0.950 . S
C1638 C1639 1.349 . S
C1638 C1640 1.327 . S
C1638 H1663 0.950 . S
C1639 C1638 1.349 . S
C1639 C1655 1.349 . S
C1640 C1638 1.327 . S
C1640 C1659 1.429 . S
C1640 H1664 0.950 . S
C1641 C1658 1.574 . S
C1641 C1660 1.368 . S
C1641 H1665 0.949 . S
H1642 C1646 0.949 . S
C1643 C1644 1.349 . S
C1643 C1645 1.327 . S
C1643 H1666 0.950 . S
C1644 C1643 1.349 . S
C1644 C1656 1.349 . S
C1645 C1643 1.327 . S
C1645 C1661 1.429 . S
C1645 H1667 0.950 . S
C1646 H1642 0.949 . S
C1646 C1654 1.574 . S
C1646 C1662 1.368 . S
H1647 C1655 0.950 . S
H1648 C1653 0.950 . S
H1649 C1654 0.949 . S
H1650 C1656 0.950 . S
H1651 C1657 0.950 . S
H1652 C1658 0.949 . S
C1653 H1648 0.950 . S
C1653 C1655 1.327 . S
C1653 C1659 1.429 . S
C1654 C1646 1.574 . S
C1654 H1649 0.949 . S
C1654 C1660 1.368 . S
C1655 C1639 1.349 . S
C1655 H1647 0.950 . S
C1655 C1653 1.327 . S
C1656 C1644 1.349 . S
C1656 H1650 0.950 . S
C1656 C1657 1.327 . S
C1657 H1651 0.950 . S
C1657 C1656 1.327 . S
C1657 C1661 1.429 . S
C1658 C1641 1.574 . S
C1658 H1652 0.949 . S
C1658 C1662 1.368 . S
C1659 C1640 1.429 . S
C1659 C1653 1.429 . S
C1659 C1660 1.523 . S
C1660 C1641 1.368 . S
C1660 C1654 1.368 . S
C1660 C1659 1.523 . S
C1661 C1645 1.429 . S
C1661 C1657 1.429 . S
C1661 C1662 1.523 . S
C1662 C1646 1.368 . S
C1662 C1658 1.368 . S
C1662 C1661 1.523 . S
H1663 C1638 0.950 . S
H1664 C1640 0.950 . S
H1665 C1641 0.949 . S
H1666 C1643 0.950 . S
H1667 C1645 0.950 . S
C1668 C1669 1.349 . S
C1668 C1670 1.327 . S
C1668 H1693 0.950 . S
C1669 C1668 1.349 . S
C1669 C1685 1.349 . S
C1670 C1668 1.327 . S
C1670 C1689 1.429 . S
C1670 H1694 0.950 . S
C1671 C1688 1.574 . S
C1671 C1690 1.368 . S
C1671 H1695 0.949 . S
H1672 C1676 0.949 . S
C1673 C1674 1.349 . S
C1673 C1675 1.327 . S
C1673 H1696 0.950 . S
C1674 C1673 1.349 . S
C1674 C1686 1.349 . S
C1675 C1673 1.327 . S
C1675 C1691 1.429 . S
C1675 H1697 0.950 . S
C1676 H1672 0.949 . S
C1676 C1684 1.574 . S
C1676 C1692 1.368 . S
H1677 C1685 0.950 . S
H1678 C1683 0.950 . S
H1679 C1684 0.949 . S
H1680 C1686 0.950 . S
H1681 C1687 0.950 . S
H1682 C1688 0.949 . S
C1683 H1678 0.950 . S
C1683 C1685 1.327 . S
C1683 C1689 1.429 . S
C1684 C1676 1.574 . S
C1684 H1679 0.949 . S
C1684 C1690 1.368 . S
C1685 C1669 1.349 . S
C1685 H1677 0.950 . S
C1685 C1683 1.327 . S
C1686 C1674 1.349 . S
C1686 H1680 0.950 . S
C1686 C1687 1.327 . S
C1687 H1681 0.950 . S
C1687 C1686 1.327 . S
C1687 C1691 1.429 . S
C1688 C1671 1.574 . S
C1688 H1682 0.949 . S
C1688 C1692 1.368 . S
C1689 C1670 1.429 . S
C1689 C1683 1.429 . S
C1689 C1690 1.523 . S
C1690 C1671 1.368 . S
C1690 C1684 1.368 . S
C1690 C1689 1.523 . S
C1691 C1675 1.429 . S
C1691 C1687 1.429 . S
C1691 C1692 1.523 . S
C1692 C1676 1.368 . S
C1692 C1688 1.368 . S
C1692 C1691 1.523 . S
H1693 C1668 0.950 . S
H1694 C1670 0.950 . S
H1695 C1671 0.949 . S
H1696 C1673 0.950 . S
H1697 C1675 0.950 . S
C1698 C1699 1.349 . S
C1698 C1700 1.327 . S
C1698 H1723 0.950 . S
C1699 C1698 1.349 . S
C1699 C1715 1.349 . S
C1700 C1698 1.327 . S
C1700 C1719 1.429 . S
C1700 H1724 0.950 . S
C1701 C1718 1.574 . S
C1701 C1720 1.368 . S
C1701 H1725 0.949 . S
H1702 C1706 0.949 . S
C1703 C1704 1.349 . S
C1703 C1705 1.327 . S
C1703 H1726 0.950 . S
C1704 C1703 1.349 . S
C1704 C1716 1.349 . S
C1705 C1703 1.327 . S
C1705 C1721 1.429 . S
C1705 H1727 0.950 . S
C1706 H1702 0.949 . S
C1706 C1714 1.574 . S
C1706 C1722 1.368 . S
H1707 C1715 0.950 . S
H1708 C1713 0.950 . S
H1709 C1714 0.949 . S
H1710 C1716 0.950 . S
H1711 C1717 0.950 . S
H1712 C1718 0.949 . S
C1713 H1708 0.950 . S
C1713 C1715 1.327 . S
C1713 C1719 1.429 . S
C1714 C1706 1.574 . S
C1714 H1709 0.949 . S
C1714 C1720 1.368 . S
C1715 C1699 1.349 . S
C1715 H1707 0.950 . S
C1715 C1713 1.327 . S
C1716 C1704 1.349 . S
C1716 H1710 0.950 . S
C1716 C1717 1.327 . S
C1717 H1711 0.950 . S
C1717 C1716 1.327 . S
C1717 C1721 1.429 . S
C1718 C1701 1.574 . S
C1718 H1712 0.949 . S
C1718 C1722 1.368 . S
C1719 C1700 1.429 . S
C1719 C1713 1.429 . S
C1719 C1720 1.523 . S
C1720 C1701 1.368 . S
C1720 C1714 1.368 . S
C1720 C1719 1.523 . S
C1721 C1705 1.429 . S
C1721 C1717 1.429 . S
C1721 C1722 1.523 . S
C1722 C1706 1.368 . S
C1722 C1718 1.368 . S
C1722 C1721 1.523 . S
H1723 C1698 0.950 . S
H1724 C1700 0.950 . S
H1725 C1701 0.949 . S
H1726 C1703 0.950 . S
H1727 C1705 0.950 . S
C1728 C1729 1.349 . S
C1728 C1730 1.327 . S
C1728 H1753 0.950 . S
C1729 C1728 1.349 . S
C1729 C1745 1.349 . S
C1730 C1728 1.327 . S
C1730 C1749 1.429 . S
C1730 H1754 0.950 . S
C1731 C1748 1.574 . S
C1731 C1750 1.368 . S
C1731 H1755 0.949 . S
H1732 C1736 0.949 . S
C1733 C1734 1.349 . S
C1733 C1735 1.327 . S
C1733 H1756 0.950 . S
C1734 C1733 1.349 . S
C1734 C1746 1.349 . S
C1735 C1733 1.327 . S
C1735 C1751 1.429 . S
C1735 H1757 0.950 . S
C1736 H1732 0.949 . S
C1736 C1744 1.574 . S
C1736 C1752 1.368 . S
H1737 C1745 0.950 . S
H1738 C1743 0.950 . S
H1739 C1744 0.949 . S
H1740 C1746 0.950 . S
H1741 C1747 0.950 . S
H1742 C1748 0.949 . S
C1743 H1738 0.950 . S
C1743 C1745 1.327 . S
C1743 C1749 1.429 . S
C1744 C1736 1.574 . S
C1744 H1739 0.949 . S
C1744 C1750 1.368 . S
C1745 C1729 1.349 . S
C1745 H1737 0.950 . S
C1745 C1743 1.327 . S
C1746 C1734 1.349 . S
C1746 H1740 0.950 . S
C1746 C1747 1.327 . S
C1747 H1741 0.950 . S
C1747 C1746 1.327 . S
C1747 C1751 1.429 . S
C1748 C1731 1.574 . S
C1748 H1742 0.949 . S
C1748 C1752 1.368 . S
C1749 C1730 1.429 . S
C1749 C1743 1.429 . S
C1749 C1750 1.523 . S
C1750 C1731 1.368 . S
C1750 C1744 1.368 . S
C1750 C1749 1.523 . S
C1751 C1735 1.429 . S
C1751 C1747 1.429 . S
C1751 C1752 1.523 . S
C1752 C1736 1.368 . S
C1752 C1748 1.368 . S
C1752 C1751 1.523 . S
H1753 C1728 0.950 . S
H1754 C1730 0.950 . S
H1755 C1731 0.949 . S
H1756 C1733 0.950 . S
H1757 C1735 0.950 . S
C1758 C1759 1.349 . S
C1758 C1760 1.327 . S
C1758 H1783 0.950 . S
C1759 C1758 1.349 . S
C1759 C1775 1.349 . S
C1760 C1758 1.327 . S
C1760 C1779 1.429 . S
C1760 H1784 0.950 . S
C1761 C1778 1.574 . S
C1761 C1780 1.368 . S
C1761 H1785 0.949 . S
H1762 C1766 0.949 . S
C1763 C1764 1.349 . S
C1763 C1765 1.327 . S
C1763 H1786 0.950 . S
C1764 C1763 1.349 . S
C1764 C1776 1.349 . S
C1765 C1763 1.327 . S
C1765 C1781 1.429 . S
C1765 H1787 0.950 . S
C1766 H1762 0.949 . S
C1766 C1774 1.574 . S
C1766 C1782 1.368 . S
H1767 C1775 0.950 . S
H1768 C1773 0.950 . S
H1769 C1774 0.949 . S
H1770 C1776 0.950 . S
H1771 C1777 0.950 . S
H1772 C1778 0.949 . S
C1773 H1768 0.950 . S
C1773 C1775 1.327 . S
C1773 C1779 1.429 . S
C1774 C1766 1.574 . S
C1774 H1769 0.949 . S
C1774 C1780 1.368 . S
C1775 C1759 1.349 . S
C1775 H1767 0.950 . S
C1775 C1773 1.327 . S
C1776 C1764 1.349 . S
C1776 H1770 0.950 . S
C1776 C1777 1.327 . S
C1777 H1771 0.950 . S
C1777 C1776 1.327 . S
C1777 C1781 1.429 . S
C1778 C1761 1.574 . S
C1778 H1772 0.949 . S
C1778 C1782 1.368 . S
C1779 C1760 1.429 . S
C1779 C1773 1.429 . S
C1779 C1780 1.523 . S
C1780 C1761 1.368 . S
C1780 C1774 1.368 . S
C1780 C1779 1.523 . S
C1781 C1765 1.429 . S
C1781 C1777 1.429 . S
C1781 C1782 1.523 . S
C1782 C1766 1.368 . S
C1782 C1778 1.368 . S
C1782 C1781 1.523 . S
H1783 C1758 0.950 . S
H1784 C1760 0.950 . S
H1785 C1761 0.949 . S
H1786 C1763 0.950 . S
H1787 C1765 0.950 . S
C1788 C1789 1.349 . S
C1788 C1790 1.327 . S
C1788 H1813 0.950 . S
C1789 C1788 1.349 . S
C1789 C1805 1.349 . S
C1790 C1788 1.327 . S
C1790 C1809 1.429 . S
C1790 H1814 0.950 . S
C1791 C1808 1.574 . S
C1791 C1810 1.368 . S
C1791 H1815 0.949 . S
H1792 C1796 0.949 . S
C1793 C1794 1.349 . S
C1793 C1795 1.327 . S
C1793 H1816 0.950 . S
C1794 C1793 1.349 . S
C1794 C1806 1.349 . S
C1795 C1793 1.327 . S
C1795 C1811 1.429 . S
C1795 H1817 0.950 . S
C1796 H1792 0.949 . S
C1796 C1804 1.574 . S
C1796 C1812 1.368 . S
H1797 C1805 0.950 . S
H1798 C1803 0.950 . S
H1799 C1804 0.949 . S
H1800 C1806 0.950 . S
H1801 C1807 0.950 . S
H1802 C1808 0.949 . S
C1803 H1798 0.950 . S
C1803 C1805 1.327 . S
C1803 C1809 1.429 . S
C1804 C1796 1.574 . S
C1804 H1799 0.949 . S
C1804 C1810 1.368 . S
C1805 C1789 1.349 . S
C1805 H1797 0.950 . S
C1805 C1803 1.327 . S
C1806 C1794 1.349 . S
C1806 H1800 0.950 . S
C1806 C1807 1.327 . S
C1807 H1801 0.950 . S
C1807 C1806 1.327 . S
C1807 C1811 1.429 . S
C1808 C1791 1.574 . S
C1808 H1802 0.949 . S
C1808 C1812 1.368 . S
C1809 C1790 1.429 . S
C1809 C1803 1.429 . S
C1809 C1810 1.523 . S
C1810 C1791 1.368 . S
C1810 C1804 1.368 . S
C1810 C1809 1.523 . S
C1811 C1795 1.429 . S
C1811 C1807 1.429 . S
C1811 C1812 1.523 . S
C1812 C1796 1.368 . S
C1812 C1808 1.368 . S
C1812 C1811 1.523 . S
H1813 C1788 0.950 . S
H1814 C1790 0.950 . S
H1815 C1791 0.949 . S
H1816 C1793 0.950 . S
H1817 C1795 0.950 . S
C1818 C1819 1.349 . S
C1818 C1820 1.327 . S
C1818 H1843 0.950 . S
C1819 C1818 1.349 . S
C1819 C1835 1.349 . S
C1820 C1818 1.327 . S
C1820 C1839 1.429 . S
C1820 H1844 0.950 . S
C1821 C1838 1.574 . S
C1821 C1840 1.368 . S
C1821 H1845 0.949 . S
H1822 C1826 0.949 . S
C1823 C1824 1.349 . S
C1823 C1825 1.327 . S
C1823 H1846 0.950 . S
C1824 C1823 1.349 . S
C1824 C1836 1.349 . S
C1825 C1823 1.327 . S
C1825 C1841 1.429 . S
C1825 H1847 0.950 . S
C1826 H1822 0.949 . S
C1826 C1834 1.574 . S
C1826 C1842 1.368 . S
H1827 C1835 0.950 . S
H1828 C1833 0.950 . S
H1829 C1834 0.949 . S
H1830 C1836 0.950 . S
H1831 C1837 0.950 . S
H1832 C1838 0.949 . S
C1833 H1828 0.950 . S
C1833 C1835 1.327 . S
C1833 C1839 1.429 . S
C1834 C1826 1.574 . S
C1834 H1829 0.949 . S
C1834 C1840 1.368 . S
C1835 C1819 1.349 . S
C1835 H1827 0.950 . S
C1835 C1833 1.327 . S
C1836 C1824 1.349 . S
C1836 H1830 0.950 . S
C1836 C1837 1.327 . S
C1837 H1831 0.950 . S
C1837 C1836 1.327 . S
C1837 C1841 1.429 . S
C1838 C1821 1.574 . S
C1838 H1832 0.949 . S
C1838 C1842 1.368 . S
C1839 C1820 1.429 . S
C1839 C1833 1.429 . S
C1839 C1840 1.523 . S
C1840 C1821 1.368 . S
C1840 C1834 1.368 . S
C1840 C1839 1.523 . S
C1841 C1825 1.429 . S
C1841 C1837 1.429 . S
C1841 C1842 1.523 . S
C1842 C1826 1.368 . S
C1842 C1838 1.368 . S
C1842 C1841 1.523 . S
H1843 C1818 0.950 . S
H1844 C1820 0.950 . S
H1845 C1821 0.949 . S
H1846 C1823 0.950 . S
H1847 C1825 0.950 . S
C1848 C1849 1.349 . S
C1848 C1850 1.327 . S
C1848 H1873 0.950 . S
C1849 C1848 1.349 . S
C1849 C1865 1.349 . S
C1850 C1848 1.327 . S
C1850 C1869 1.429 . S
C1850 H1874 0.950 . S
C1851 C1868 1.574 . S
C1851 C1870 1.368 . S
C1851 H1875 0.949 . S
H1852 C1856 0.949 . S
C1853 C1854 1.349 . S
C1853 C1855 1.327 . S
C1853 H1876 0.950 . S
C1854 C1853 1.349 . S
C1854 C1866 1.349 . S
C1855 C1853 1.327 . S
C1855 C1871 1.429 . S
C1855 H1877 0.950 . S
C1856 H1852 0.949 . S
C1856 C1864 1.574 . S
C1856 C1872 1.368 . S
H1857 C1865 0.950 . S
H1858 C1863 0.950 . S
H1859 C1864 0.949 . S
H1860 C1866 0.950 . S
H1861 C1867 0.950 . S
H1862 C1868 0.949 . S
C1863 H1858 0.950 . S
C1863 C1865 1.327 . S
C1863 C1869 1.429 . S
C1864 C1856 1.574 . S
C1864 H1859 0.949 . S
C1864 C1870 1.368 . S
C1865 C1849 1.349 . S
C1865 H1857 0.950 . S
C1865 C1863 1.327 . S
C1866 C1854 1.349 . S
C1866 H1860 0.950 . S
C1866 C1867 1.327 . S
C1867 H1861 0.950 . S
C1867 C1866 1.327 . S
C1867 C1871 1.429 . S
C1868 C1851 1.574 . S
C1868 H1862 0.949 . S
C1868 C1872 1.368 . S
C1869 C1850 1.429 . S
C1869 C1863 1.429 . S
C1869 C1870 1.523 . S
C1870 C1851 1.368 . S
C1870 C1864 1.368 . S
C1870 C1869 1.523 . S
C1871 C1855 1.429 . S
C1871 C1867 1.429 . S
C1871 C1872 1.523 . S
C1872 C1856 1.368 . S
C1872 C1868 1.368 . S
C1872 C1871 1.523 . S
H1873 C1848 0.950 . S
H1874 C1850 0.950 . S
H1875 C1851 0.949 . S
H1876 C1853 0.950 . S
H1877 C1855 0.950 . S
C1878 C1879 1.349 . S
C1878 C1880 1.327 . S
C1878 H1903 0.950 . S
C1879 C1878 1.349 . S
C1879 C1895 1.349 . S
C1880 C1878 1.327 . S
C1880 C1899 1.429 . S
C1880 H1904 0.950 . S
C1881 C1898 1.574 . S
C1881 C1900 1.368 . S
C1881 H1905 0.949 . S
H1882 C1886 0.949 . S
C1883 C1884 1.349 . S
C1883 C1885 1.327 . S
C1883 H1906 0.950 . S
C1884 C1883 1.349 . S
C1884 C1896 1.349 . S
C1885 C1883 1.327 . S
C1885 C1901 1.429 . S
C1885 H1907 0.950 . S
C1886 H1882 0.949 . S
C1886 C1894 1.574 . S
C1886 C1902 1.368 . S
H1887 C1895 0.950 . S
H1888 C1893 0.950 . S
H1889 C1894 0.949 . S
H1890 C1896 0.950 . S
H1891 C1897 0.950 . S
H1892 C1898 0.949 . S
C1893 H1888 0.950 . S
C1893 C1895 1.327 . S
C1893 C1899 1.429 . S
C1894 C1886 1.574 . S
C1894 H1889 0.949 . S
C1894 C1900 1.368 . S
C1895 C1879 1.349 . S
C1895 H1887 0.950 . S
C1895 C1893 1.327 . S
C1896 C1884 1.349 . S
C1896 H1890 0.950 . S
C1896 C1897 1.327 . S
C1897 H1891 0.950 . S
C1897 C1896 1.327 . S
C1897 C1901 1.429 . S
C1898 C1881 1.574 . S
C1898 H1892 0.949 . S
C1898 C1902 1.368 . S
C1899 C1880 1.429 . S
C1899 C1893 1.429 . S
C1899 C1900 1.523 . S
C1900 C1881 1.368 . S
C1900 C1894 1.368 . S
C1900 C1899 1.523 . S
C1901 C1885 1.429 . S
C1901 C1897 1.429 . S
C1901 C1902 1.523 . S
C1902 C1886 1.368 . S
C1902 C1898 1.368 . S
C1902 C1901 1.523 . S
H1903 C1878 0.950 . S
H1904 C1880 0.950 . S
H1905 C1881 0.949 . S
H1906 C1883 0.950 . S
H1907 C1885 0.950 . S
C1908 C1909 1.349 . S
C1908 C1910 1.327 . S
C1908 H1933 0.950 . S
C1909 C1908 1.349 . S
C1909 C1925 1.349 . S
C1910 C1908 1.327 . S
C1910 C1929 1.429 . S
C1910 H1934 0.950 . S
C1911 C1928 1.574 . S
C1911 C1930 1.368 . S
C1911 H1935 0.949 . S
H1912 C1916 0.949 . S
C1913 C1914 1.349 . S
C1913 C1915 1.327 . S
C1913 H1936 0.950 . S
C1914 C1913 1.349 . S
C1914 C1926 1.349 . S
C1915 C1913 1.327 . S
C1915 C1931 1.429 . S
C1915 H1937 0.950 . S
C1916 H1912 0.949 . S
C1916 C1924 1.574 . S
C1916 C1932 1.368 . S
H1917 C1925 0.950 . S
H1918 C1923 0.950 . S
H1919 C1924 0.949 . S
H1920 C1926 0.950 . S
H1921 C1927 0.950 . S
H1922 C1928 0.949 . S
C1923 H1918 0.950 . S
C1923 C1925 1.327 . S
C1923 C1929 1.429 . S
C1924 C1916 1.574 . S
C1924 H1919 0.949 . S
C1924 C1930 1.368 . S
C1925 C1909 1.349 . S
C1925 H1917 0.950 . S
C1925 C1923 1.327 . S
C1926 C1914 1.349 . S
C1926 H1920 0.950 . S
C1926 C1927 1.327 . S
C1927 H1921 0.950 . S
C1927 C1926 1.327 . S
C1927 C1931 1.429 . S
C1928 C1911 1.574 . S
C1928 H1922 0.949 . S
C1928 C1932 1.368 . S
C1929 C1910 1.429 . S
C1929 C1923 1.429 . S
C1929 C1930 1.523 . S
C1930 C1911 1.368 . S
C1930 C1924 1.368 . S
C1930 C1929 1.523 . S
C1931 C1915 1.429 . S
C1931 C1927 1.429 . S
C1931 C1932 1.523 . S
C1932 C1916 1.368 . S
C1932 C1928 1.368 . S
C1932 C1931 1.523 . S
H1933 C1908 0.950 . S
H1934 C1910 0.950 . S
H1935 C1911 0.949 . S
H1936 C1913 0.950 . S
H1937 C1915 0.950 . S
C1938 C1939 1.349 . S
C1938 C1940 1.327 . S
C1938 H1963 0.950 . S
C1939 C1938 1.349 . S
C1939 C1955 1.349 . S
C1940 C1938 1.327 . S
C1940 C1959 1.429 . S
C1940 H1964 0.950 . S
C1941 C1958 1.574 . S
C1941 C1960 1.368 . S
C1941 H1965 0.949 . S
H1942 C1946 0.949 . S
C1943 C1944 1.349 . S
C1943 C1945 1.327 . S
C1943 H1966 0.950 . S
C1944 C1943 1.349 . S
C1944 C1956 1.349 . S
C1945 C1943 1.327 . S
C1945 C1961 1.429 . S
C1945 H1967 0.950 . S
C1946 H1942 0.949 . S
C1946 C1954 1.574 . S
C1946 C1962 1.368 . S
H1947 C1955 0.950 . S
H1948 C1953 0.950 . S
H1949 C1954 0.949 . S
H1950 C1956 0.950 . S
H1951 C1957 0.950 . S
H1952 C1958 0.949 . S
C1953 H1948 0.950 . S
C1953 C1955 1.327 . S
C1953 C1959 1.429 . S
C1954 C1946 1.574 . S
C1954 H1949 0.949 . S
C1954 C1960 1.368 . S
C1955 C1939 1.349 . S
C1955 H1947 0.950 . S
C1955 C1953 1.327 . S
C1956 C1944 1.349 . S
C1956 H1950 0.950 . S
C1956 C1957 1.327 . S
C1957 H1951 0.950 . S
C1957 C1956 1.327 . S
C1957 C1961 1.429 . S
C1958 C1941 1.574 . S
C1958 H1952 0.949 . S
C1958 C1962 1.368 . S
C1959 C1940 1.429 . S
C1959 C1953 1.429 . S
C1959 C1960 1.523 . S
C1960 C1941 1.368 . S
C1960 C1954 1.368 . S
C1960 C1959 1.523 . S
C1961 C1945 1.429 . S
C1961 C1957 1.429 . S
C1961 C1962 1.523 . S
C1962 C1946 1.368 . S
C1962 C1958 1.368 . S
C1962 C1961 1.523 . S
H1963 C1938 0.950 . S
H1964 C1940 0.950 . S
H1965 C1941 0.949 . S
H1966 C1943 0.950 . S
H1967 C1945 0.950 . S
C1968 C1969 1.349 . S
C1968 C1970 1.327 . S
C1968 H1993 0.950 . S
C1969 C1968 1.349 . S
C1969 C1985 1.349 . S
C1970 C1968 1.327 . S
C1970 C1989 1.429 . S
C1970 H1994 0.950 . S
C1971 C1988 1.574 . S
C1971 C1990 1.368 . S
C1971 H1995 0.949 . S
H1972 C1976 0.949 . S
C1973 C1974 1.349 . S
C1973 C1975 1.327 . S
C1973 H1996 0.950 . S
C1974 C1973 1.349 . S
C1974 C1986 1.349 . S
C1975 C1973 1.327 . S
C1975 C1991 1.429 . S
C1975 H1997 0.950 . S
C1976 H1972 0.949 . S
C1976 C1984 1.574 . S
C1976 C1992 1.368 . S
H1977 C1985 0.950 . S
H1978 C1983 0.950 . S
H1979 C1984 0.949 . S
H1980 C1986 0.950 . S
H1981 C1987 0.950 . S
H1982 C1988 0.949 . S
C1983 H1978 0.950 . S
C1983 C1985 1.327 . S
C1983 C1989 1.429 . S
C1984 C1976 1.574 . S
C1984 H1979 0.949 . S
C1984 C1990 1.368 . S
C1985 C1969 1.349 . S
C1985 H1977 0.950 . S
C1985 C1983 1.327 . S
C1986 C1974 1.349 . S
C1986 H1980 0.950 . S
C1986 C1987 1.327 . S
C1987 H1981 0.950 . S
C1987 C1986 1.327 . S
C1987 C1991 1.429 . S
C1988 C1971 1.574 . S
C1988 H1982 0.949 . S
C1988 C1992 1.368 . S
C1989 C1970 1.429 . S
C1989 C1983 1.429 . S
C1989 C1990 1.523 . S
C1990 C1971 1.368 . S
C1990 C1984 1.368 . S
C1990 C1989 1.523 . S
C1991 C1975 1.429 . S
C1991 C1987 1.429 . S
C1991 C1992 1.523 . S
C1992 C1976 1.368 . S
C1992 C1988 1.368 . S
C1992 C1991 1.523 . S
H1993 C1968 0.950 . S
H1994 C1970 0.950 . S
H1995 C1971 0.949 . S
H1996 C1973 0.950 . S
H1997 C1975 0.950 . S
C1998 C1999 1.349 . S
C1998 C2000 1.327 . S
C1998 H2023 0.950 . S
C1999 C1998 1.349 . S
C1999 C2015 1.349 . S
C2000 C1998 1.327 . S
C2000 C2019 1.429 . S
C2000 H2024 0.950 . S
C2001 C2018 1.574 . S
C2001 C2020 1.368 . S
C2001 H2025 0.949 . S
H2002 C2006 0.949 . S
C2003 C2004 1.349 . S
C2003 C2005 1.327 . S
C2003 H2026 0.950 . S
C2004 C2003 1.349 . S
C2004 C2016 1.349 . S
C2005 C2003 1.327 . S
C2005 C2021 1.429 . S
C2005 H2027 0.950 . S
C2006 H2002 0.949 . S
C2006 C2014 1.574 . S
C2006 C2022 1.368 . S
H2007 C2015 0.950 . S
H2008 C2013 0.950 . S
H2009 C2014 0.949 . S
H2010 C2016 0.950 . S
H2011 C2017 0.950 . S
H2012 C2018 0.949 . S
C2013 H2008 0.950 . S
C2013 C2015 1.327 . S
C2013 C2019 1.429 . S
C2014 C2006 1.574 . S
C2014 H2009 0.949 . S
C2014 C2020 1.368 . S
C2015 C1999 1.349 . S
C2015 H2007 0.950 . S
C2015 C2013 1.327 . S
C2016 C2004 1.349 . S
C2016 H2010 0.950 . S
C2016 C2017 1.327 . S
C2017 H2011 0.950 . S
C2017 C2016 1.327 . S
C2017 C2021 1.429 . S
C2018 C2001 1.574 . S
C2018 H2012 0.949 . S
C2018 C2022 1.368 . S
C2019 C2000 1.429 . S
C2019 C2013 1.429 . S
C2019 C2020 1.523 . S
C2020 C2001 1.368 . S
C2020 C2014 1.368 . S
C2020 C2019 1.523 . S
C2021 C2005 1.429 . S
C2021 C2017 1.429 . S
C2021 C2022 1.523 . S
C2022 C2006 1.368 . S
C2022 C2018 1.368 . S
C2022 C2021 1.523 . S
H2023 C1998 0.950 . S
H2024 C2000 0.950 . S
H2025 C2001 0.949 . S
H2026 C2003 0.950 . S
H2027 C2005 0.950 . S
C2028 C2029 1.349 . S
C2028 C2030 1.327 . S
C2028 H2053 0.950 . S
C2029 C2028 1.349 . S
C2029 C2045 1.349 . S
C2030 C2028 1.327 . S
C2030 C2049 1.429 . S
C2030 H2054 0.950 . S
C2031 C2048 1.574 . S
C2031 C2050 1.368 . S
C2031 H2055 0.949 . S
H2032 C2036 0.949 . S
C2033 C2034 1.349 . S
C2033 C2035 1.327 . S
C2033 H2056 0.950 . S
C2034 C2033 1.349 . S
C2034 C2046 1.349 . S
C2035 C2033 1.327 . S
C2035 C2051 1.429 . S
C2035 H2057 0.950 . S
C2036 H2032 0.949 . S
C2036 C2044 1.574 . S
C2036 C2052 1.368 . S
H2037 C2045 0.950 . S
H2038 C2043 0.950 . S
H2039 C2044 0.949 . S
H2040 C2046 0.950 . S
H2041 C2047 0.950 . S
H2042 C2048 0.949 . S
C2043 H2038 0.950 . S
C2043 C2045 1.327 . S
C2043 C2049 1.429 . S
C2044 C2036 1.574 . S
C2044 H2039 0.949 . S
C2044 C2050 1.368 . S
C2045 C2029 1.349 . S
C2045 H2037 0.950 . S
C2045 C2043 1.327 . S
C2046 C2034 1.349 . S
C2046 H2040 0.950 . S
C2046 C2047 1.327 . S
C2047 H2041 0.950 . S
C2047 C2046 1.327 . S
C2047 C2051 1.429 . S
C2048 C2031 1.574 . S
C2048 H2042 0.949 . S
C2048 C2052 1.368 . S
C2049 C2030 1.429 . S
C2049 C2043 1.429 . S
C2049 C2050 1.523 . S
C2050 C2031 1.368 . S
C2050 C2044 1.368 . S
C2050 C2049 1.523 . S
C2051 C2035 1.429 . S
C2051 C2047 1.429 . S
C2051 C2052 1.523 . S
C2052 C2036 1.368 . S
C2052 C2048 1.368 . S
C2052 C2051 1.523 . S
H2053 C2028 0.950 . S
H2054 C2030 0.950 . S
H2055 C2031 0.949 . S
H2056 C2033 0.950 . S
H2057 C2035 0.950 . S
C2058 C2059 1.349 . S
C2058 C2060 1.327 . S
C2058 H2083 0.950 . S
C2059 C2058 1.349 . S
C2059 C2075 1.349 . S
C2060 C2058 1.327 . S
C2060 C2079 1.429 . S
C2060 H2084 0.950 . S
C2061 C2078 1.574 . S
C2061 C2080 1.368 . S
C2061 H2085 0.949 . S
H2062 C2066 0.949 . S
C2063 C2064 1.349 . S
C2063 C2065 1.327 . S
C2063 H2086 0.950 . S
C2064 C2063 1.349 . S
C2064 C2076 1.349 . S
C2065 C2063 1.327 . S
C2065 C2081 1.429 . S
C2065 H2087 0.950 . S
C2066 H2062 0.949 . S
C2066 C2074 1.574 . S
C2066 C2082 1.368 . S
H2067 C2075 0.950 . S
H2068 C2073 0.950 . S
H2069 C2074 0.949 . S
H2070 C2076 0.950 . S
H2071 C2077 0.950 . S
H2072 C2078 0.949 . S
C2073 H2068 0.950 . S
C2073 C2075 1.327 . S
C2073 C2079 1.429 . S
C2074 C2066 1.574 . S
C2074 H2069 0.949 . S
C2074 C2080 1.368 . S
C2075 C2059 1.349 . S
C2075 H2067 0.950 . S
C2075 C2073 1.327 . S
C2076 C2064 1.349 . S
C2076 H2070 0.950 . S
C2076 C2077 1.327 . S
C2077 H2071 0.950 . S
C2077 C2076 1.327 . S
C2077 C2081 1.429 . S
C2078 C2061 1.574 . S
C2078 H2072 0.949 . S
C2078 C2082 1.368 . S
C2079 C2060 1.429 . S
C2079 C2073 1.429 . S
C2079 C2080 1.523 . S
C2080 C2061 1.368 . S
C2080 C2074 1.368 . S
C2080 C2079 1.523 . S
C2081 C2065 1.429 . S
C2081 C2077 1.429 . S
C2081 C2082 1.523 . S
C2082 C2066 1.368 . S
C2082 C2078 1.368 . S
C2082 C2081 1.523 . S
H2083 C2058 0.950 . S
H2084 C2060 0.950 . S
H2085 C2061 0.949 . S
H2086 C2063 0.950 . S
H2087 C2065 0.950 . S
C2088 C2089 1.349 . S
C2088 C2090 1.327 . S
C2088 H2113 0.950 . S
C2089 C2088 1.349 . S
C2089 C2105 1.349 . S
C2090 C2088 1.327 . S
C2090 C2109 1.429 . S
C2090 H2114 0.950 . S
C2091 C2108 1.574 . S
C2091 C2110 1.368 . S
C2091 H2115 0.949 . S
H2092 C2096 0.949 . S
C2093 C2094 1.349 . S
C2093 C2095 1.327 . S
C2093 H2116 0.950 . S
C2094 C2093 1.349 . S
C2094 C2106 1.349 . S
C2095 C2093 1.327 . S
C2095 C2111 1.429 . S
C2095 H2117 0.950 . S
C2096 H2092 0.949 . S
C2096 C2104 1.574 . S
C2096 C2112 1.368 . S
H2097 C2105 0.950 . S
H2098 C2103 0.950 . S
H2099 C2104 0.949 . S
H2100 C2106 0.950 . S
H2101 C2107 0.950 . S
H2102 C2108 0.949 . S
C2103 H2098 0.950 . S
C2103 C2105 1.327 . S
C2103 C2109 1.429 . S
C2104 C2096 1.574 . S
C2104 H2099 0.949 . S
C2104 C2110 1.368 . S
C2105 C2089 1.349 . S
C2105 H2097 0.950 . S
C2105 C2103 1.327 . S
C2106 C2094 1.349 . S
C2106 H2100 0.950 . S
C2106 C2107 1.327 . S
C2107 H2101 0.950 . S
C2107 C2106 1.327 . S
C2107 C2111 1.429 . S
C2108 C2091 1.574 . S
C2108 H2102 0.949 . S
C2108 C2112 1.368 . S
C2109 C2090 1.429 . S
C2109 C2103 1.429 . S
C2109 C2110 1.523 . S
C2110 C2091 1.368 . S
C2110 C2104 1.368 . S
C2110 C2109 1.523 . S
C2111 C2095 1.429 . S
C2111 C2107 1.429 . S
C2111 C2112 1.523 . S
C2112 C2096 1.368 . S
C2112 C2108 1.368 . S
C2112 C2111 1.523 . S
H2113 C2088 0.950 . S
H2114 C2090 0.950 . S
H2115 C2091 0.949 . S
H2116 C2093 0.950 . S
H2117 C2095 0.950 . S
C2118 C2119 1.349 . S
C2118 C2120 1.327 . S
C2118 H2143 0.950 . S
C2119 C2118 1.349 . S
C2119 C2135 1.349 . S
C2120 C2118 1.327 . S
C2120 C2139 1.429 . S
C2120 H2144 0.950 . S
C2121 C2138 1.574 . S
C2121 C2140 1.368 . S
C2121 H2145 0.949 . S
H2122 C2126 0.949 . S
C2123 C2124 1.349 . S
C2123 C2125 1.327 . S
C2123 H2146 0.950 . S
C2124 C2123 1.349 . S
C2124 C2136 1.349 . S
C2125 C2123 1.327 . S
C2125 C2141 1.429 . S
C2125 H2147 0.950 . S
C2126 H2122 0.949 . S
C2126 C2134 1.574 . S
C2126 C2142 1.368 . S
H2127 C2135 0.950 . S
H2128 C2133 0.950 . S
H2129 C2134 0.949 . S
H2130 C2136 0.950 . S
H2131 C2137 0.950 . S
H2132 C2138 0.949 . S
C2133 H2128 0.950 . S
C2133 C2135 1.327 . S
C2133 C2139 1.429 . S
C2134 C2126 1.574 . S
C2134 H2129 0.949 . S
C2134 C2140 1.368 . S
C2135 C2119 1.349 . S
C2135 H2127 0.950 . S
C2135 C2133 1.327 . S
C2136 C2124 1.349 . S
C2136 H2130 0.950 . S
C2136 C2137 1.327 . S
C2137 H2131 0.950 . S
C2137 C2136 1.327 . S
C2137 C2141 1.429 . S
C2138 C2121 1.574 . S
C2138 H2132 0.949 . S
C2138 C2142 1.368 . S
C2139 C2120 1.429 . S
C2139 C2133 1.429 . S
C2139 C2140 1.523 . S
C2140 C2121 1.368 . S
C2140 C2134 1.368 . S
C2140 C2139 1.523 . S
C2141 C2125 1.429 . S
C2141 C2137 1.429 . S
C2141 C2142 1.523 . S
C2142 C2126 1.368 . S
C2142 C2138 1.368 . S
C2142 C2141 1.523 . S
H2143 C2118 0.950 . S
H2144 C2120 0.950 . S
H2145 C2121 0.949 . S
H2146 C2123 0.950 . S
H2147 C2125 0.950 . S
C2148 C2149 1.349 . S
C2148 C2150 1.327 . S
C2148 H2173 0.950 . S
C2149 C2148 1.349 . S
C2149 C2165 1.349 . S
C2150 C2148 1.327 . S
C2150 C2169 1.429 . S
C2150 H2174 0.950 . S
C2151 C2168 1.574 . S
C2151 C2170 1.368 . S
C2151 H2175 0.949 . S
H2152 C2156 0.949 . S
C2153 C2154 1.349 . S
C2153 C2155 1.327 . S
C2153 H2176 0.950 . S
C2154 C2153 1.349 . S
C2154 C2166 1.349 . S
C2155 C2153 1.327 . S
C2155 C2171 1.429 . S
C2155 H2177 0.950 . S
C2156 H2152 0.949 . S
C2156 C2164 1.574 . S
C2156 C2172 1.368 . S
H2157 C2165 0.950 . S
H2158 C2163 0.950 . S
H2159 C2164 0.949 . S
H2160 C2166 0.950 . S
H2161 C2167 0.950 . S
H2162 C2168 0.949 . S
C2163 H2158 0.950 . S
C2163 C2165 1.327 . S
C2163 C2169 1.429 . S
C2164 C2156 1.574 . S
C2164 H2159 0.949 . S
C2164 C2170 1.368 . S
C2165 C2149 1.349 . S
C2165 H2157 0.950 . S
C2165 C2163 1.327 . S
C2166 C2154 1.349 . S
C2166 H2160 0.950 . S
C2166 C2167 1.327 . S
C2167 H2161 0.950 . S
C2167 C2166 1.327 . S
C2167 C2171 1.429 . S
C2168 C2151 1.574 . S
C2168 H2162 0.949 . S
C2168 C2172 1.368 . S
C2169 C2150 1.429 . S
C2169 C2163 1.429 . S
C2169 C2170 1.523 . S
C2170 C2151 1.368 . S
C2170 C2164 1.368 . S
C2170 C2169 1.523 . S
C2171 C2155 1.429 . S
C2171 C2167 1.429 . S
C2171 C2172 1.523 . S
C2172 C2156 1.368 . S
C2172 C2168 1.368 . S
C2172 C2171 1.523 . S
H2173 C2148 0.950 . S
H2174 C2150 0.950 . S
H2175 C2151 0.949 . S
H2176 C2153 0.950 . S
H2177 C2155 0.950 . S
C2178 C2179 1.349 . S
C2178 C2180 1.327 . S
C2178 H2203 0.950 . S
C2179 C2178 1.349 . S
C2179 C2195 1.349 . S
C2180 C2178 1.327 . S
C2180 C2199 1.429 . S
C2180 H2204 0.950 . S
C2181 C2198 1.574 . S
C2181 C2200 1.368 . S
C2181 H2205 0.949 . S
H2182 C2186 0.949 . S
C2183 C2184 1.349 . S
C2183 C2185 1.327 . S
C2183 H2206 0.950 . S
C2184 C2183 1.349 . S
C2184 C2196 1.349 . S
C2185 C2183 1.327 . S
C2185 C2201 1.429 . S
C2185 H2207 0.950 . S
C2186 H2182 0.949 . S
C2186 C2194 1.574 . S
C2186 C2202 1.368 . S
H2187 C2195 0.950 . S
H2188 C2193 0.950 . S
H2189 C2194 0.949 . S
H2190 C2196 0.950 . S
H2191 C2197 0.950 . S
H2192 C2198 0.949 . S
C2193 H2188 0.950 . S
C2193 C2195 1.327 . S
C2193 C2199 1.429 . S
C2194 C2186 1.574 . S
C2194 H2189 0.949 . S
C2194 C2200 1.368 . S
C2195 C2179 1.349 . S
C2195 H2187 0.950 . S
C2195 C2193 1.327 . S
C2196 C2184 1.349 . S
C2196 H2190 0.950 . S
C2196 C2197 1.327 . S
C2197 H2191 0.950 . S
C2197 C2196 1.327 . S
C2197 C2201 1.429 . S
C2198 C2181 1.574 . S
C2198 H2192 0.949 . S
C2198 C2202 1.368 . S
C2199 C2180 1.429 . S
C2199 C2193 1.429 . S
C2199 C2200 1.523 . S
C2200 C2181 1.368 . S
C2200 C2194 1.368 . S
C2200 C2199 1.523 . S
C2201 C2185 1.429 . S
C2201 C2197 1.429 . S
C2201 C2202 1.523 . S
C2202 C2186 1.368 . S
C2202 C2198 1.368 . S
C2202 C2201 1.523 . S
H2203 C2178 0.950 . S
H2204 C2180 0.950 . S
H2205 C2181 0.949 . S
H2206 C2183 0.950 . S
H2207 C2185 0.950 . S
C2208 C2209 1.349 . S
C2208 C2210 1.327 . S
C2208 H2233 0.950 . S
C2209 C2208 1.349 . S
C2209 C2225 1.349 . S
C2210 C2208 1.327 . S
C2210 C2229 1.429 . S
C2210 H2234 0.950 . S
C2211 C2228 1.574 . S
C2211 C2230 1.368 . S
C2211 H2235 0.949 . S
H2212 C2216 0.949 . S
C2213 C2214 1.349 . S
C2213 C2215 1.327 . S
C2213 H2236 0.950 . S
C2214 C2213 1.349 . S
C2214 C2226 1.349 . S
C2215 C2213 1.327 . S
C2215 C2231 1.429 . S
C2215 H2237 0.950 . S
C2216 H2212 0.949 . S
C2216 C2224 1.574 . S
C2216 C2232 1.368 . S
H2217 C2225 0.950 . S
H2218 C2223 0.950 . S
H2219 C2224 0.949 . S
H2220 C2226 0.950 . S
H2221 C2227 0.950 . S
H2222 C2228 0.949 . S
C2223 H2218 0.950 . S
C2223 C2225 1.327 . S
C2223 C2229 1.429 . S
C2224 C2216 1.574 . S
C2224 H2219 0.949 . S
C2224 C2230 1.368 . S
C2225 C2209 1.349 . S
C2225 H2217 0.950 . S
C2225 C2223 1.327 . S
C2226 C2214 1.349 . S
C2226 H2220 0.950 . S
C2226 C2227 1.327 . S
C2227 H2221 0.950 . S
C2227 C2226 1.327 . S
C2227 C2231 1.429 . S
C2228 C2211 1.574 . S
C2228 H2222 0.949 . S
C2228 C2232 1.368 . S
C2229 C2210 1.429 . S
C2229 C2223 1.429 . S
C2229 C2230 1.523 . S
C2230 C2211 1.368 . S
C2230 C2224 1.368 . S
C2230 C2229 1.523 . S
C2231 C2215 1.429 . S
C2231 C2227 1.429 . S
C2231 C2232 1.523 . S
C2232 C2216 1.368 . S
C2232 C2228 1.368 . S
C2232 C2231 1.523 . S
H2233 C2208 0.950 . S
H2234 C2210 0.950 . S
H2235 C2211 0.949 . S
H2236 C2213 0.950 . S
H2237 C2215 0.950 . S
C2238 C2239 1.349 . S
C2238 C2240 1.327 . S
C2238 H2263 0.950 . S
C2239 C2238 1.349 . S
C2239 C2255 1.349 . S
C2240 C2238 1.327 . S
C2240 C2259 1.429 . S
C2240 H2264 0.950 . S
C2241 C2258 1.574 . S
C2241 C2260 1.368 . S
C2241 H2265 0.949 . S
H2242 C2246 0.949 . S
C2243 C2244 1.349 . S
C2243 C2245 1.327 . S
C2243 H2266 0.950 . S
C2244 C2243 1.349 . S
C2244 C2256 1.349 . S
C2245 C2243 1.327 . S
C2245 C2261 1.429 . S
C2245 H2267 0.950 . S
C2246 H2242 0.949 . S
C2246 C2254 1.574 . S
C2246 C2262 1.368 . S
H2247 C2255 0.950 . S
H2248 C2253 0.950 . S
H2249 C2254 0.949 . S
H2250 C2256 0.950 . S
H2251 C2257 0.950 . S
H2252 C2258 0.949 . S
C2253 H2248 0.950 . S
C2253 C2255 1.327 . S
C2253 C2259 1.429 . S
C2254 C2246 1.574 . S
C2254 H2249 0.949 . S
C2254 C2260 1.368 . S
C2255 C2239 1.349 . S
C2255 H2247 0.950 . S
C2255 C2253 1.327 . S
C2256 C2244 1.349 . S
C2256 H2250 0.950 . S
C2256 C2257 1.327 . S
C2257 H2251 0.950 . S
C2257 C2256 1.327 . S
C2257 C2261 1.429 . S
C2258 C2241 1.574 . S
C2258 H2252 0.949 . S
C2258 C2262 1.368 . S
C2259 C2240 1.429 . S
C2259 C2253 1.429 . S
C2259 C2260 1.523 . S
C2260 C2241 1.368 . S
C2260 C2254 1.368 . S
C2260 C2259 1.523 . S
C2261 C2245 1.429 . S
C2261 C2257 1.429 . S
C2261 C2262 1.523 . S
C2262 C2246 1.368 . S
C2262 C2258 1.368 . S
C2262 C2261 1.523 . S
H2263 C2238 0.950 . S
H2264 C2240 0.950 . S
H2265 C2241 0.949 . S
H2266 C2243 0.950 . S
H2267 C2245 0.950 . S
C2268 C2269 1.349 . S
C2268 C2270 1.327 . S
C2268 H2293 0.950 . S
C2269 C2268 1.349 . S
C2269 C2285 1.349 . S
C2270 C2268 1.327 . S
C2270 C2289 1.429 . S
C2270 H2294 0.950 . S
C2271 C2288 1.574 . S
C2271 C2290 1.368 . S
C2271 H2295 0.949 . S
H2272 C2276 0.949 . S
C2273 C2274 1.349 . S
C2273 C2275 1.327 . S
C2273 H2296 0.950 . S
C2274 C2273 1.349 . S
C2274 C2286 1.349 . S
C2275 C2273 1.327 . S
C2275 C2291 1.429 . S
C2275 H2297 0.950 . S
C2276 H2272 0.949 . S
C2276 C2284 1.574 . S
C2276 C2292 1.368 . S
H2277 C2285 0.950 . S
H2278 C2283 0.950 . S
H2279 C2284 0.949 . S
H2280 C2286 0.950 . S
H2281 C2287 0.950 . S
H2282 C2288 0.949 . S
C2283 H2278 0.950 . S
C2283 C2285 1.327 . S
C2283 C2289 1.429 . S
C2284 C2276 1.574 . S
C2284 H2279 0.949 . S
C2284 C2290 1.368 . S
C2285 C2269 1.349 . S
C2285 H2277 0.950 . S
C2285 C2283 1.327 . S
C2286 C2274 1.349 . S
C2286 H2280 0.950 . S
C2286 C2287 1.327 . S
C2287 H2281 0.950 . S
C2287 C2286 1.327 . S
C2287 C2291 1.429 . S
C2288 C2271 1.574 . S
C2288 H2282 0.949 . S
C2288 C2292 1.368 . S
C2289 C2270 1.429 . S
C2289 C2283 1.429 . S
C2289 C2290 1.523 . S
C2290 C2271 1.368 . S
C2290 C2284 1.368 . S
C2290 C2289 1.523 . S
C2291 C2275 1.429 . S
C2291 C2287 1.429 . S
C2291 C2292 1.523 . S
C2292 C2276 1.368 . S
C2292 C2288 1.368 . S
C2292 C2291 1.523 . S
H2293 C2268 0.950 . S
H2294 C2270 0.950 . S
H2295 C2271 0.949 . S
H2296 C2273 0.950 . S
H2297 C2275 0.950 . S
C864 C683 1.576 . S
C859 C56 1.571 . S
C894 C673 1.491 . S
C889 C154 1.405 . S
C924 C674 1.079 . S
C919 C236 1.080 . S
C949 C310 0.728 . S
C954 C696 0.489 . S
C979 C394 1.405 . S
C984 C699 1.492 . S
C1014 C682 1.079 . S
C1009 C476 1.079 . S
C1039 C574 0.728 . S
C1044 C672 0.493 . S
C1069 C656 1.573 . S
C1074 C690 1.577 . S
C1104 C703 2.493 . S
C1099 C67 2.570 . S
C1129 C139 1.540 . S
C1134 C752 1.494 . S
C1164 C730 1.507 . S
C1159 C238 1.446 . S
C1194 C744 1.062 . S
C1189 C308 1.064 . S
C1219 C392 1.066 . S
C1224 C705 1.055 . S
C1254 C758 2.486 . S
C1249 C487 2.575 . S
C1279 C559 1.540 . S
C1284 C714 1.498 . S
C1309 C658 1.413 . S
C1314 C735 1.493 . S
C1339 C58 1.413 . S
C1344 C761 1.493 . S
C1369 C403 1.539 . S
C1374 C745 1.494 . S
C1404 C704 1.507 . S
C1399 C478 1.444 . S
C1434 C736 1.062 . S
C1429 C572 1.064 . S
C1459 C643 2.572 . S
C1464 C727 2.494 . S
C1489 C223 2.575 . S
C1494 C734 2.486 . S
C1524 C721 1.499 . S
C1519 C319 1.541 . S
C1549 C152 1.066 . S
C1554 C713 1.055 . S
C1579 C644 1.573 . S
C1584 C776 1.576 . S
C1609 C406 1.405 . S
C1614 C766 1.491 . S
C1644 C767 1.079 . S
C1639 C488 1.080 . S
C1674 C789 0.491 . S
C1669 C562 0.728 . S
C1699 C142 1.405 . S
C1704 C792 1.491 . S
C1734 C775 1.079 . S
C1729 C224 1.080 . S
C1759 C322 0.728 . S
C1764 C765 0.491 . S
C1789 C68 1.573 . S
C1794 C783 1.576 . S
C1819 C655 2.572 . S
C1824 C796 2.493 . S
C1854 C845 1.494 . S
C1849 C391 1.541 . S
C1879 C490 1.445 . S
C1884 C823 1.507 . S
C1909 C560 1.064 . S
C1914 C837 1.062 . S
C1944 C798 1.054 . S
C1939 C140 1.065 . S
C1969 C235 2.575 . S
C1974 C851 2.488 . S
C2004 C807 1.499 . S
C1999 C307 1.541 . S
C2034 C828 1.493 . S
C2029 C70 1.410 . S
C2064 C854 1.493 . S
C2059 C646 1.415 . S
C2089 C151 1.540 . S
C2094 C838 1.493 . S
C2119 C226 1.445 . S
C2124 C797 1.507 . S
C2154 C829 1.062 . S
C2149 C320 1.065 . S
C2179 C55 2.572 . S
C2184 C820 2.493 . S
C2209 C475 2.575 . S
C2214 C827 2.485 . S
C2244 C814 1.499 . S
C2239 C571 1.540 . S
C2274 C806 1.055 . S
C2269 C404 1.066 . S
