# Generated by pormake.
# Topology zzz, (3,6)-cn, num edge types: 1
# Building blocks:
#     Node 0, Type 0, BuildingBlock: WUSLED_clean_sbu_0, # of connection points: 3
#     Node 1, Type 0, BuildingBlock: WUSLED_clean_sbu_0, # of connection points: 3
#     Node 2, Type 0, BuildingBlock: WUSLED_clean_sbu_0, # of connection points: 3
#     Node 3, Type 0, BuildingBlock: WUSLED_clean_sbu_0, # of connection points: 3
#     Node 4, Type 0, BuildingBlock: WUSLED_clean_sbu_0, # of connection points: 3
#     Node 5, Type 0, BuildingBlock: WUSLED_clean_sbu_0, # of connection points: 3
#     Node 6, Type 0, BuildingBlock: WUSLED_clean_sbu_0, # of connection points: 3
#     Node 7, Type 0, BuildingBlock: WUSLED_clean_sbu_0, # of connection points: 3
#     Node 8, Type 1, BuildingBlock: KUMJIN_clean_sbu_0, # of connection points: 6
#     Node 9, Type 1, BuildingBlock: KUMJIN_clean_sbu_0, # of connection points: 6
#     Node 10, Type 1, BuildingBlock: KUMJIN_clean_sbu_0, # of connection points: 6
#     Node 11, Type 1, BuildingBlock: KUMJIN_clean_sbu_0, # of connection points: 6
#     Edge 12, Type (0, 1), BuildingBlock: UVAHIK_clean_linker_0, # of connection points: 2
#     Edge 13, Type (0, 1), BuildingBlock: UVAHIK_clean_linker_0, # of connection points: 2
#     Edge 14, Type (0, 1), BuildingBlock: UVAHIK_clean_linker_0, # of connection points: 2
#     Edge 15, Type (0, 1), BuildingBlock: UVAHIK_clean_linker_0, # of connection points: 2
#     Edge 16, Type (0, 1), BuildingBlock: UVAHIK_clean_linker_0, # of connection points: 2
#     Edge 17, Type (0, 1), BuildingBlock: UVAHIK_clean_linker_0, # of connection points: 2
#     Edge 18, Type (0, 1), BuildingBlock: UVAHIK_clean_linker_0, # of connection points: 2
#     Edge 19, Type (0, 1), BuildingBlock: UVAHIK_clean_linker_0, # of connection points: 2
#     Edge 20, Type (0, 1), BuildingBlock: UVAHIK_clean_linker_0, # of connection points: 2
#     Edge 21, Type (0, 1), BuildingBlock: UVAHIK_clean_linker_0, # of connection points: 2
#     Edge 22, Type (0, 1), BuildingBlock: UVAHIK_clean_linker_0, # of connection points: 2
#     Edge 23, Type (0, 1), BuildingBlock: UVAHIK_clean_linker_0, # of connection points: 2
#     Edge 24, Type (0, 1), BuildingBlock: UVAHIK_clean_linker_0, # of connection points: 2
#     Edge 25, Type (0, 1), BuildingBlock: UVAHIK_clean_linker_0, # of connection points: 2
#     Edge 26, Type (0, 1), BuildingBlock: UVAHIK_clean_linker_0, # of connection points: 2
#     Edge 27, Type (0, 1), BuildingBlock: UVAHIK_clean_linker_0, # of connection points: 2
#     Edge 28, Type (0, 1), BuildingBlock: UVAHIK_clean_linker_0, # of connection points: 2
#     Edge 29, Type (0, 1), BuildingBlock: UVAHIK_clean_linker_0, # of connection points: 2
#     Edge 30, Type (0, 1), BuildingBlock: UVAHIK_clean_linker_0, # of connection points: 2
#     Edge 31, Type (0, 1), BuildingBlock: UVAHIK_clean_linker_0, # of connection points: 2
#     Edge 32, Type (0, 1), BuildingBlock: UVAHIK_clean_linker_0, # of connection points: 2
#     Edge 33, Type (0, 1), BuildingBlock: UVAHIK_clean_linker_0, # of connection points: 2
#     Edge 34, Type (0, 1), BuildingBlock: UVAHIK_clean_linker_0, # of connection points: 2
#     Edge 35, Type (0, 1), BuildingBlock: UVAHIK_clean_linker_0, # of connection points: 2
# Relax obj value: 0.257
# Max RMSD: 0.219
# Mean RMSD: 0.204
data_MOF--net-zzz--node1-WUSLED_clean_sbu_0--node2-KUMJIN_clean_sbu_0--edge1-UVAHIK_clean_linker_0
_symmetry_space_group_name_H-M    P1
_symmetry_Int_Tables_number       1
_symmetry_cell_setting            triclinic
loop_
_symmetry_equiv_pos_as_xyz
'x, y, z'
_cell_length_a     75.273663
_cell_length_b     75.050246
_cell_length_c     25.959253
_cell_angle_alpha  90.658912
_cell_angle_beta   90.04797
_cell_angle_gamma 89.897249
loop_
_atom_site_label
_atom_site_type_symbol
_atom_site_fract_x
_atom_site_fract_y
_atom_site_fract_z
_atom_type_partial_charge
C0 C 0.77909 0.55191 0.23334 0.0
C1 C 0.79357 0.54694 0.20217 0.0
C2 C 0.81389 0.55108 0.27476 0.0
C3 C 0.8108 0.54661 0.22262 0.0
C4 C 0.79934 0.55642 0.30533 0.0
C5 C 0.78218 0.55686 0.28479 0.0
U6 U 0.74047 0.55694 0.13445 0.0
O7 O 0.71879 0.53776 0.12328 0.0
O8 O 0.71273 0.56496 0.14963 0.0
C9 C 0.70637 0.54959 0.13346 0.0
C10 C 0.76054 0.55062 0.21512 0.0
C11 C 0.69185 0.55039 0.09551 0.0
C12 C 0.66028 0.54875 0.07683 0.0
C13 C 0.67423 0.54939 0.11241 0.0
C14 C 0.68143 0.55054 1.0068 0.0
C15 C 0.6637 0.54902 0.02352 0.0
C16 C 0.69538 0.55124 0.0425 0.0
C17 C 0.77262 0.5755 0.03344 0.0
C18 C 0.79116 0.586 0.96384 0.0
C19 C 0.80469 0.57579 0.04301 0.0
C20 C 0.78782 0.57248 0.06333 0.0
C21 C 0.80655 0.58219 0.99252 0.0
C22 C 0.77435 0.58262 0.98412 0.0
C23 C 0.75495 0.57024 0.05141 0.0
O24 O 0.75192 0.5657 0.20881 0.0
O25 O 0.75721 0.53869 0.17892 0.0
O26 O 0.7528 0.55307 0.05855 0.0
O27 O 0.74799 0.58016 0.08826 0.0
H28 H 0.79153 0.54292 0.16241 0.0
H29 H 0.82168 0.54267 0.19769 0.0
H30 H 0.80107 0.55967 0.34576 0.0
H31 H 0.77119 0.56055 0.30968 0.0
H32 H 0.6468 0.54793 0.09115 0.0
H33 H 0.67125 0.54879 0.15319 0.0
H34 H 0.68458 0.55064 0.96612 0.0
H35 H 0.70893 0.55203 0.02872 0.0
H36 H 0.79213 0.5912 0.9252 0.0
H37 H 0.81626 0.57259 0.06596 0.0
H38 H 0.78664 0.56707 0.10163 0.0
H39 H 0.76271 0.58512 0.9607 0.0
C40 C 0.9881 0.78193 0.27124 0.0
C41 C 0.99112 0.79669 0.23966 0.0
C42 C 0.98999 0.81676 0.31438 0.0
C43 C 0.99213 0.81389 0.26099 0.0
C44 C 0.98661 0.80191 0.34564 0.0
C45 C 0.98572 0.7847 0.32428 0.0
U46 U 0.98125 0.7502 0.15747 0.0
O47 O 0.99756 0.72737 0.13251 0.0
O48 O 0.96957 0.72325 0.1531 0.0
C49 C 0.98435 0.716 0.13575 0.0
C50 C 0.98782 0.76365 0.24946 0.0
C51 C 0.98272 0.70261 0.09384 0.0
C52 C 0.97991 0.67133 0.06982 0.0
C53 C 0.97973 0.68484 0.10728 0.0
C54 C 0.98544 0.69321 1.00396 0.0
C55 C 0.9831 0.67525 0.01779 0.0
C56 C 0.98533 0.70679 0.04174 0.0
C57 C 0.96784 0.77547 0.03166 0.0
C58 C 0.97616 0.77241 0.94166 0.0
C59 C 0.95634 0.79617 0.96885 0.0
C60 C 0.95689 0.78986 0.01911 0.0
C61 C 0.96674 0.78811 0.92997 0.0
C62 C 0.97683 0.7662 0.9923 0.0
C63 C 0.97208 0.77291 0.08629 0.0
O64 O 0.97215 0.75749 0.23582 0.0
O65 O 1.00025 0.76008 0.21535 0.0
O66 O 0.98867 0.76896 0.09732 0.0
O67 O 0.96038 0.76466 0.11497 0.0
H68 H 0.99295 0.79489 0.19853 0.0
H69 H 0.99498 0.82488 0.23565 0.0
H70 H 0.98456 0.80356 0.38669 0.0
H71 H 0.98327 0.77351 0.34929 0.0
H72 H 0.97774 0.65772 0.08175 0.0
H73 H 0.97767 0.68132 0.14721 0.0
H74 H 0.98798 0.69668 0.96427 0.0
H75 H 0.9877 0.72043 0.03049 0.0
H76 H 0.98397 0.7656 0.91245 0.0
H77 H 0.94902 0.80833 0.96189 0.0
H78 H 0.94988 0.7972 0.04906 0.0
H79 H 0.98528 0.75495 1.00121 0.0
C80 C 0.73932 0.98612 0.25803 0.0
C81 C 0.72452 0.98726 0.2252 0.0
C82 C 0.70463 0.98838 0.29953 0.0
C83 C 0.70731 0.98838 0.24579 0.0
C84 C 0.71952 0.98658 0.33192 0.0
C85 C 0.73664 0.9855 0.31136 0.0
U86 U 0.77547 0.9781 0.15437 0.0
O87 O 0.79772 0.99589 0.13667 0.0
O88 O 0.80313 0.96889 0.16424 0.0
C89 C 0.8098 0.98364 0.1455 0.0
C90 C 0.75768 0.98656 0.23827 0.0
C91 C 0.82362 0.98151 0.10557 0.0
C92 C 0.85489 0.97842 0.08375 0.0
C93 C 0.84135 0.97918 0.1206 0.0
C94 C 0.8331 0.98196 0.01596 0.0
C95 C 0.851 0.98007 0.03094 0.0
C96 C 0.81955 0.98264 0.0529 0.0
C97 C 0.73888 0.95954 0.06558 0.0
C98 C 0.71738 0.93743 0.03647 0.0
C99 C 0.70844 0.96826 0.04695 0.0
C100 C 0.72554 0.97263 0.06366 0.0
C101 C 0.70421 0.95066 0.03213 0.0
C102 C 0.73455 0.94185 0.05273 0.0
C103 C 0.75753 0.96421 0.07726 0.0
O104 O 0.7656 0.97108 0.23152 0.0
O105 O 0.76079 0.99782 0.20093 0.0
O106 O 0.76124 0.9813 0.08127 0.0
O107 O 0.76552 0.95449 0.11219 0.0
H108 H 0.72629 0.98771 0.18382 0.0
H109 H 0.69619 0.98984 0.2197 0.0
H110 H 0.71796 0.98615 0.37336 0.0
H111 H 0.74788 0.98453 0.33732 0.0
H112 H 0.86844 0.9766 0.09675 0.0
H113 H 0.84477 0.97821 0.16103 0.0
H114 H 0.82959 0.98344 0.97578 0.0
H115 H 0.80593 0.98443 0.0404 0.0
H116 H 0.71456 0.92369 0.02625 0.0
H117 H 0.6988 0.97889 0.04343 0.0
H118 H 0.7284 0.9864 0.07342 0.0
H119 H 0.74459 0.9315 0.054 0.0
C120 C 0.55661 0.75549 0.28464 0.0
C121 C 0.55693 0.73989 0.25436 0.0
C122 C 0.55255 0.72181 0.33086 0.0
C123 C 0.55494 0.7232 0.27724 0.0
C124 C 0.55231 0.73754 0.36096 0.0
C125 C 0.55432 0.75421 0.33802 0.0
U126 U 0.56131 0.78414 0.16544 0.0
O127 O 0.54828 0.80953 0.14725 0.0
O128 O 0.57739 0.80824 0.15284 0.0
C129 C 0.56341 0.81807 0.14225 0.0
C130 C 0.55832 0.77313 0.26081 0.0
C131 C 0.56491 0.83005 0.09783 0.0
C132 C 0.57241 0.85945 0.06622 0.0
C133 C 0.5722 0.84702 0.10587 0.0
C134 C 0.55854 0.8379 1.00895 0.0
C135 C 0.56531 0.85519 0.0175 0.0
C136 C 0.55831 0.82543 0.04885 0.0
C137 C 0.56281 0.75678 0.03625 0.0
C138 C 0.55115 0.76112 0.94991 0.0
C139 C 0.57045 0.73605 0.96742 0.0
C140 C 0.57213 0.74178 0.01843 0.0
C141 C 0.55942 0.74525 0.93286 0.0
C142 C 0.55278 0.76682 1.00132 0.0
C143 C 0.56188 0.75979 0.09227 0.0
O144 O 0.57368 0.77635 0.23876 0.0
O145 O 0.5447 0.77809 0.23272 0.0
O146 O 0.54715 0.76685 0.1106 0.0
O147 O 0.57634 0.76556 0.11543 0.0
H148 H 0.5586 0.74063 0.21298 0.0
H149 H 0.55496 0.71142 0.25278 0.0
H150 H 0.55073 0.73697 0.40237 0.0
H151 H 0.55405 0.76612 0.362 0.0
H152 H 0.57802 0.87249 0.07391 0.0
H153 H 0.5774 0.85083 0.14334 0.0
H154 H 0.55288 0.8342 0.972 0.0
H155 H 0.55262 0.81238 0.04184 0.0
H156 H 0.5428 0.76871 0.92419 0.0
H157 H 0.57683 0.72365 0.95636 0.0
H158 H 0.57986 0.73381 0.04487 0.0
H159 H 0.54553 0.77851 0.01424 0.0
C160 C 0.24969 0.48036 0.91611 0.0
C161 C 0.23679 0.46786 0.93052 0.0
C162 C 0.21465 0.48289 0.87742 0.0
C163 C 0.2194 0.4691 0.91121 0.0
C164 C 0.2277 0.49531 0.86334 0.0
C165 C 0.24497 0.49405 0.88249 0.0
U166 U 0.28676 0.47114 0.01658 0.0
O167 O 0.31394 0.46081 1.0045 0.0
O168 O 0.30979 0.48843 0.03031 0.0
C169 C 0.32134 0.47564 0.02132 0.0
C170 C 0.26821 0.47957 0.93455 0.0
C171 C 0.33525 0.47379 0.06079 0.0
C172 C 0.3665 0.47512 0.08393 0.0
C173 C 0.35313 0.47508 0.04647 0.0
C174 C 0.34425 0.47212 0.15061 0.0
C175 C 0.36222 0.47393 0.13655 0.0
C176 C 0.33088 0.47203 0.11304 0.0
C177 C 0.25136 0.45554 0.11172 0.0
C178 C 0.23051 0.44314 0.17273 0.0
C179 C 0.2197 0.46044 0.10086 0.0
C180 C 0.23715 0.46274 0.08379 0.0
C181 C 0.21623 0.45094 0.1462 0.0
C182 C 0.24793 0.44545 0.15561 0.0
C183 C 0.26983 0.45916 0.09733 0.0
O184 O 0.27242 0.49109 0.97101 0.0
O185 O 0.27523 0.4637 0.94134 0.0
O186 O 0.2766 0.44865 0.06155 0.0
O187 O 0.27377 0.47605 0.09106 0.0
H188 H 0.24013 0.45718 0.95653 0.0
H189 H 0.20964 0.4594 0.92313 0.0
H190 H 0.22463 0.5059 0.83676 0.0
H191 H 0.25475 0.50377 0.87071 0.0
H192 H 0.38016 0.47674 0.07175 0.0
H193 H 0.35674 0.47655 1.00634 0.0
H194 H 0.3405 0.47096 0.1907 0.0
H195 H 0.31712 0.471 0.12482 0.0
H196 H 0.22825 0.43556 0.20736 0.0
H197 H 0.20902 0.46677 0.07986 0.0
H198 H 0.2396 0.4706 0.04979 0.0
H199 H 0.25877 0.43972 0.17741 0.0
C200 C 0.03663 0.24516 0.91899 0.0
C201 C 0.03346 0.23056 0.95112 0.0
C202 C 0.03604 0.21003 0.87762 0.0
C203 C 0.03313 0.21317 0.9306 0.0
C204 C 0.03967 0.2247 0.84603 0.0
C205 C 0.03993 0.24203 0.86649 0.0
U206 U 0.04364 0.28317 0.01987 0.0
O207 O 0.02518 0.30513 0.03723 0.0
O208 O 0.05173 0.31106 1.0073 0.0
C209 C 0.03687 0.31753 0.02654 0.0
C210 C 0.03551 0.2638 0.93806 0.0
C211 C 0.03861 0.33206 0.06512 0.0
C212 C 0.03928 0.36387 0.08412 0.0
C213 C 0.03904 0.34975 0.04844 0.0
C214 C 0.0391 0.34282 0.15405 0.0
C215 C 0.03903 0.36064 0.13746 0.0
C216 C 0.03889 0.32867 0.11823 0.0
C217 C 0.06365 0.2485 0.11088 0.0
C218 C 0.08513 0.22845 0.14957 0.0
C219 C 0.0559 0.21761 0.1263 0.0
C220 C 0.05149 0.23437 0.10729 0.0
C221 C 0.07263 0.21453 0.14888 0.0
C222 C 0.08064 0.24529 0.13102 0.0
C223 C 0.05848 0.26685 0.09759 0.0
O224 O 0.02438 0.26702 0.97608 0.0
O225 O 0.05059 0.27246 0.94289 0.0
O226 O 0.06774 0.27443 0.06096 0.0
O227 O 0.04133 0.27005 0.09455 0.0
H228 H 0.03095 0.2326 0.99184 0.0
H229 H 0.03053 0.20219 0.95621 0.0
H230 H 0.04176 0.22287 0.80504 0.0
H231 H 0.04231 0.25309 0.84093 0.0
H232 H 0.03959 0.37736 0.0698 0.0
H233 H 0.03889 0.35266 1.00766 0.0
H234 H 0.03877 0.33978 0.19472 0.0
H235 H 0.03857 0.3151 0.132 0.0
H236 H 0.09825 0.2265 0.16571 0.0
H237 H 0.04579 0.20736 0.12561 0.0
H238 H 0.03831 0.23641 0.09164 0.0
H239 H 0.09027 0.25597 0.13384 0.0
C240 C 0.28282 0.04304 0.90917 0.0
C241 C 0.29746 0.03816 0.9397 0.0
C242 C 0.31724 0.04051 0.86558 0.0
C243 C 0.31452 0.03701 0.91817 0.0
C244 C 0.30264 0.04592 0.83569 0.0
C245 C 0.28566 0.04717 0.85726 0.0
U246 U 0.24465 0.05276 1.0071 0.0
O247 O 0.22315 0.03427 0.02729 0.0
O248 O 0.21676 0.05971 0.99083 0.0
C249 C 0.21058 0.04531 0.01295 0.0
C250 C 0.26434 0.04241 0.92857 0.0
C251 C 0.19598 0.04788 0.05021 0.0
C252 C 0.16728 0.03836 0.08267 0.0
C253 C 0.18117 0.03664 0.04721 0.0
C254 C 0.18278 0.06272 0.12485 0.0
C255 C 0.16784 0.05143 0.12201 0.0
C256 C 0.19674 0.06093 0.08933 0.0
C257 C 0.27787 0.07614 0.09727 0.0
C258 C 0.29691 0.09158 0.15835 0.0
C259 C 0.3099 0.07268 0.09202 0.0
C260 C 0.29292 0.06899 0.07274 0.0
C261 C 0.31202 0.08356 0.13611 0.0
C262 C 0.27998 0.08785 0.13914 0.0
C263 C 0.25992 0.07029 0.08303 0.0
O264 O 0.26131 0.03246 0.96899 0.0
O265 O 0.25545 0.05751 0.92943 0.0
O266 O 0.25262 0.07822 0.04338 0.0
O267 O 0.25748 0.05296 0.08294 0.0
H268 H 0.29566 0.03473 0.97975 0.0
H269 H 0.32544 0.03268 0.94218 0.0
H270 H 0.3043 0.04896 0.79529 0.0
H271 H 0.2746 0.05091 0.83287 0.0
H272 H 0.15624 0.02917 0.07975 0.0
H273 H 0.18041 0.02638 0.0176 0.0
H274 H 0.18364 0.07303 0.15425 0.0
H275 H 0.20812 0.06969 0.09248 0.0
H276 H 0.29814 0.10023 0.19184 0.0
H277 H 0.32125 0.0662 0.07422 0.0
H278 H 0.29147 0.05996 0.04019 0.0
H279 H 0.26849 0.09355 0.15832 0.0
C280 C 0.46721 0.27782 0.90514 0.0
C281 C 0.47243 0.29233 0.93627 0.0
C282 C 0.46987 0.3124 0.8631 0.0
C283 C 0.47363 0.30946 0.91556 0.0
C284 C 0.4644 0.29781 0.83245 0.0
C285 C 0.46304 0.28077 0.8533 0.0
U286 U 0.45993 0.24039 1.0059 0.0
O287 O 0.45027 0.21301 0.99265 0.0
O288 O 0.47781 0.21755 0.01714 0.0
C289 C 0.46518 0.2058 1.00883 0.0
C290 C 0.46733 0.25932 0.92404 0.0
C291 C 0.46381 0.19174 0.04805 0.0
C292 C 0.4775 0.16668 0.09151 0.0
C293 C 0.47783 0.17954 0.05305 0.0
C294 C 0.44881 0.1776 0.11995 0.0
C295 C 0.46307 0.16563 0.12569 0.0
C296 C 0.44922 0.19063 0.08167 0.0
C297 C 0.44415 0.27457 0.10809 0.0
C298 C 0.43592 0.29393 0.17955 0.0
C299 C 0.44636 0.30667 0.09973 0.0
C300 C 0.44805 0.28954 0.07839 0.0
C301 C 0.44071 0.30901 0.15108 0.0
C302 C 0.43769 0.27687 0.15825 0.0
C303 C 0.44807 0.25648 0.08939 0.0
O304 O 0.47905 0.2555 0.95985 0.0
O305 O 0.45179 0.25179 0.93145 0.0
O306 O 0.43755 0.25007 0.05326 0.0
O307 O 0.46495 0.25307 0.08106 0.0
H308 H 0.47594 0.29039 0.97626 0.0
H309 H 0.47764 0.32036 0.94064 0.0
H310 H 0.46169 0.29938 0.79179 0.0
H311 H 0.45919 0.26974 0.82841 0.0
H312 H 0.48859 0.15752 0.09457 0.0
H313 H 0.48919 0.18014 0.02754 0.0
H314 H 0.43758 0.1772 0.14597 0.0
H315 H 0.43828 0.19997 0.07892 0.0
H316 H 0.43123 0.2953 0.21884 0.0
H317 H 0.45026 0.31799 0.07686 0.0
H318 H 0.45295 0.28793 0.03945 0.0
H319 H 0.43453 0.26542 0.18159 0.0
Eu320 Eu 0.03063 0.01196 0.62072 0.0
C321 C 0.95783 0.99531 0.51288 0.0
C322 C 0.96537 0.97703 0.43868 0.0
C323 C 0.93689 0.97313 0.48108 0.0
C324 C 0.96978 0.99045 0.47499 0.0
C325 C 0.94108 0.987 0.51576 0.0
C326 C 0.94903 0.96814 0.44262 0.0
C327 C 0.9334 1.0076 0.58447 0.0
N328 N 0.96229 1.00876 0.5456 0.0
C329 C 0.95017 0.01541 0.58004 0.0
C330 C 0.9289 0.99317 0.55263 0.0
Eu331 Eu 0.99132 0.0206 0.53882 0.0
N332 N 0.98542 0.99936 0.47229 0.0
C333 C 0.99666 0.99637 0.43177 0.0
C334 C 0.97733 0.97323 0.39884 0.0
C335 C 0.99293 0.98313 0.39497 0.0
H336 H 0.9537 0.02641 0.60523 0.0
H337 H 1.00215 0.98051 0.36382 0.0
H338 H 0.94549 0.95767 0.41542 0.0
H339 H 0.924 0.01263 0.61265 0.0
H340 H 0.00886 1.0037 0.42821 0.0
H341 H 0.0189 0.04917 0.80158 0.0
H342 H 0.97449 0.96296 0.37034 0.0
H343 H 0.06881 1.00772 0.5556 0.0
H344 H 0.01269 0.02691 0.73497 0.0
H345 H 0.09823 0.02218 0.55103 0.0
H346 H 0.92416 0.96646 0.48296 0.0
H347 H 0.04611 0.06743 0.79712 0.0
H348 H 0.07485 0.07406 0.75295 0.0
H349 H 0.9159 0.98713 0.55612 0.0
H350 H 0.09647 0.06673 0.68493 0.0
N351 N 0.03586 0.03228 0.69068 0.0
C352 C 0.02464 0.0345 0.73167 0.0
C353 C 0.04348 0.05753 0.76739 0.0
C354 C 0.05547 0.05457 0.72715 0.0
C355 C 0.02814 0.04724 0.77007 0.0
C356 C 0.05134 0.04159 0.68915 0.0
H357 H 0.10545 0.0472 0.61025 0.0
N358 N 0.05945 0.02454 0.61634 0.0
C359 C 0.08856 0.02671 0.57913 0.0
C360 C 0.06347 0.0376 0.65078 0.0
C361 C 0.07193 0.01853 0.58192 0.0
C362 C 0.09256 0.04086 0.61249 0.0
C363 C 0.08007 0.0463 0.64942 0.0
O364 O 0.05176 0.99373 0.64349 0.0
O365 O 0.01128 1.00074 0.56438 0.0
O366 O 0.9833 1.0022 0.60319 0.0
O367 O 1.00452 1.00914 0.66592 0.0
O368 O 0.03743 0.99386 0.55242 0.0
O369 O 0.02516 0.98921 0.67058 0.0
O370 O 0.97346 0.04314 0.52802 0.0
O371 O 0.01122 0.03199 0.59353 0.0
O372 O 0.03893 0.03 0.55497 0.0
O373 O 0.01697 0.02454 0.49345 0.0
O374 O 0.98533 0.04022 0.60433 0.0
O375 O 0.9932 0.03694 0.46992 0.0
C376 C 0.02139 0.99121 0.53699 0.0
C377 C 0.04159 0.96387 0.64321 0.0
C378 C 0.03034 0.93329 0.6427 0.0
C379 C 0.03051 0.95069 0.66382 0.0
C380 C 0.04125 0.92937 0.60004 0.0
C381 C 0.0526 0.95946 0.60112 0.0
C382 C 0.05226 0.94238 0.57952 0.0
C383 C 0.98876 1.0027 0.65167 0.0
C384 C 0.04089 0.98236 0.66381 0.0
C385 C 0.08388 0.05976 0.68573 0.0
C386 C 0.07159 0.06391 0.72447 0.0
C387 C 1.00145 0.04219 0.61994 0.0
C388 C 0.98987 0.06725 0.49477 0.0
C389 C 1.00416 0.07276 0.46385 0.0
C390 C 0.01269 0.08911 0.47357 0.0
C391 C 1.0067 0.10001 0.51445 0.0
C392 C 0.98392 0.07858 0.5348 0.0
C393 C 0.99236 0.09478 0.54463 0.0
C394 C 0.0328 0.0307 0.50715 0.0
C395 C 0.98249 0.04906 0.48894 0.0
H396 H 0.0219 0.95405 0.69597 0.0
H397 H 0.04167 0.9161 0.58329 0.0
H398 H 0.06134 0.96923 0.58425 0.0
H399 H 0.06068 0.93918 0.5469 0.0
H400 H 0.00895 0.06414 0.43306 0.0
H401 H 0.01284 0.11279 0.52243 0.0
H402 H 0.973 0.07477 0.55945 0.0
H403 H 0.98781 0.10329 0.5759 0.0
Eu404 Eu 0.51429 0.03054 0.62396 0.0
C405 C 0.52924 0.95923 0.49987 0.0
C406 C 0.54711 0.9677 0.42667 0.0
C407 C 0.55055 0.93824 0.46333 0.0
C408 C 0.53416 0.9718 0.46426 0.0
C409 C 0.53712 0.94217 0.49928 0.0
C410 C 0.55555 0.95099 0.42709 0.0
C411 C 0.51707 0.93382 0.56751 0.0
N412 N 0.51623 0.96346 0.5339 0.0
C413 C 0.50965 0.95091 0.5665 0.0
C414 C 0.53101 0.92948 0.53415 0.0
Eu415 Eu 0.50521 0.99302 0.53282 0.0
N416 N 0.52578 0.98781 0.46509 0.0
C417 C 0.52873 0.99983 0.42691 0.0
C418 C 0.5509 0.98037 0.38915 0.0
C419 C 0.54147 0.99639 0.38883 0.0
H420 H 0.49902 0.95427 0.59281 0.0
H421 H 0.54409 1.00618 0.3595 0.0
H422 H 0.56567 0.94767 0.3989 0.0
H423 H 0.51209 0.92404 0.59418 0.0
H424 H 0.52169 0.01234 0.42639 0.0
H425 H 0.47633 0.01615 0.79822 0.0
H426 H 0.56081 0.97777 0.35974 0.0
H427 H 0.52 0.06964 0.56586 0.0
H428 H 0.49827 0.01042 0.72988 0.0
H429 H 0.50699 0.09991 0.56697 0.0
H430 H 0.5569 0.92526 0.46256 0.0
H431 H 0.4597 0.0446 0.80068 0.0
H432 H 0.45462 0.07497 0.76356 0.0
H433 H 0.53674 0.91623 0.535 0.0
H434 H 0.46299 0.0978 0.70071 0.0
N435 N 0.49402 0.03525 0.69285 0.0
C436 C 0.49126 0.02296 0.73042 0.0
C437 C 0.4694 0.04219 0.77058 0.0
C438 C 0.47297 0.05512 0.73362 0.0
C439 C 0.47878 0.02614 0.76937 0.0
C440 C 0.48566 0.05126 0.69508 0.0
H441 H 0.4827 0.10732 0.62778 0.0
N442 N 0.50309 0.06004 0.62488 0.0
C443 C 0.50214 0.08994 0.59323 0.0
C444 C 0.49031 0.06405 0.65985 0.0
C445 C 0.50951 0.07282 0.59282 0.0
C446 C 0.48839 0.09405 0.6275 0.0
C447 C 0.48247 0.08112 0.66189 0.0
O448 O 0.53833 0.04612 0.63763 0.0
O449 O 0.5249 0.01238 0.56331 0.0
O450 O 0.52482 0.98338 0.59259 0.0
O451 O 0.51819 1.00304 0.66017 0.0
O452 O 0.53336 0.03847 0.56011 0.0
O453 O 0.5298 0.02693 0.69414 0.0
O454 O 0.48102 0.97775 0.51838 0.0
O455 O 0.49459 0.01131 0.59313 0.0
O456 O 0.49512 0.04037 0.563 0.0
O457 O 0.50158 0.02038 0.49601 0.0
O458 O 0.48591 0.98534 0.59653 0.0
O459 O 0.49036 0.99636 0.46131 0.0
C460 C 0.53496 0.02284 0.53951 0.0
C461 C 0.56028 0.02709 0.67286 0.0
C462 C 0.57972 1.00288 0.70043 0.0
C463 C 0.56462 0.01364 0.70804 0.0
C464 C 0.59065 1.0059 0.65752 0.0
C465 C 0.57165 0.03009 0.63082 0.0
C466 C 0.58668 0.01951 0.62325 0.0
C467 C 0.52545 0.98809 0.64189 0.0
C468 C 0.54299 0.03643 0.67688 0.0
C469 C 0.4693 0.08483 0.69882 0.0
C470 C 0.46455 0.07184 0.73462 0.0
C471 C 0.48439 1.00101 0.61694 0.0
C472 C 0.45975 0.99691 0.48026 0.0
C473 C 0.45542 1.00914 0.44151 0.0
C474 C 0.44081 0.02064 0.44744 0.0
C475 C 0.43029 0.01963 0.49193 0.0
C476 C 0.44868 0.99575 0.52384 0.0
C477 C 0.4341 1.00709 0.52957 0.0
C478 C 0.49454 0.03549 0.51376 0.0
C479 C 0.47687 0.9872 0.47815 0.0
H480 H 0.55598 0.0112 0.74058 0.0
H481 H 0.60252 0.99801 0.6511 0.0
H482 H 0.56875 0.04032 0.60295 0.0
H483 H 0.59523 0.02179 0.59046 0.0
H484 H 0.46374 0.01015 0.40759 0.0
H485 H 0.41888 0.0283 0.497 0.0
H486 H 0.45151 0.98643 0.5543 0.0
H487 H 0.42585 1.00628 0.5636 0.0
Eu488 Eu 0.53172 0.5048 0.5539 0.0
C489 C 0.45024 0.51153 0.58748 0.0
C490 C 0.44076 0.52447 0.50715 0.0
C491 C 0.42107 0.50441 0.55248 0.0
C492 C 0.45373 0.52215 0.54585 0.0
C493 C 0.43364 0.50298 0.59222 0.0
C494 C 0.42463 0.51515 0.50996 0.0
C495 C 0.44227 0.49416 0.67781 0.0
N496 N 0.46257 0.51064 0.62532 0.0
C497 C 0.45844 0.503 0.67133 0.0
C498 C 0.42993 0.49385 0.63765 0.0
Eu499 Eu 0.49053 0.52429 0.61072 0.0
N500 N 0.46945 0.53097 0.54455 0.0
C501 C 0.47232 0.54349 0.5075 0.0
C502 C 0.44417 0.53644 0.46756 0.0
C503 C 0.45988 0.54623 0.46833 0.0
H504 H 0.46791 0.50337 0.70264 0.0
H505 H 0.46251 0.55582 0.43846 0.0
H506 H 0.41462 0.51657 0.48025 0.0
H507 H 0.43933 0.48766 0.7138 0.0
H508 H 0.48436 0.55115 0.50649 0.0
H509 H 0.56157 0.47235 0.72415 0.0
H510 H 0.43459 0.53854 0.43704 0.0
H511 H 0.55355 0.52591 0.46073 0.0
H512 H 0.53907 0.4769 0.65922 0.0
H513 H 0.58233 0.54107 0.4475 0.0
H514 H 0.40835 0.49775 0.55505 0.0
H515 H 0.58952 0.48941 0.72256 0.0
H516 H 0.60906 0.51104 0.67764 0.0
H517 H 0.41735 0.48712 0.64281 0.0
H518 H 0.61469 0.52997 0.60287 0.0
N519 N 0.55323 0.49734 0.61894 0.0
C520 C 0.55088 0.48479 0.6564 0.0
C521 C 0.57956 0.49162 0.69313 0.0
C522 C 0.58253 0.50356 0.65325 0.0
C523 C 0.56382 0.48196 0.6941 0.0
C524 C 0.56907 0.50606 0.61594 0.0
H525 H 0.60498 0.54097 0.51658 0.0
N526 N 0.55958 0.51821 0.53732 0.0
C527 C 0.57963 0.53448 0.48353 0.0
C528 C 0.57226 0.51686 0.57411 0.0
C529 C 0.56338 0.52595 0.49117 0.0
C530 C 0.59234 0.53443 0.52263 0.0
C531 C 0.58893 0.52519 0.56809 0.0
O532 O 0.54854 0.49107 0.49742 0.0
O533 O 0.50287 0.50983 0.54432 0.0
O534 O 0.48877 0.49428 0.62057 0.0
O535 O 0.51768 0.4842 0.60285 0.0
O536 O 0.51872 0.51489 0.48093 0.0
O537 O 0.52407 0.47894 0.52089 0.0
O538 O 0.48146 0.53469 0.68506 0.0
O539 O 0.51977 0.52016 0.61888 0.0
O540 O 0.53328 0.53475 0.54081 0.0
O541 O 0.50581 0.54582 0.56884 0.0
O542 O 0.50453 0.51562 0.6837 0.0
O543 O 0.48712 0.55296 0.62375 0.0
C544 C 0.50255 0.51401 0.4974 0.0
C545 C 0.53112 0.47718 0.43228 0.0
C546 C 0.51112 0.46431 0.36749 0.0
C547 C 0.51721 0.46555 0.41874 0.0
C548 C 0.51907 0.47506 0.32996 0.0
C549 C 0.5389 0.48769 0.39389 0.0
C550 C 0.53284 0.48665 0.3432 0.0
C551 C 0.50129 0.48183 0.62022 0.0
C552 C 0.5367 0.47901 0.48679 0.0
C553 C 0.60192 0.52347 0.6065 0.0
C554 C 0.59872 0.51267 0.649 0.0
C555 C 0.5205 0.51641 0.66597 0.0
C556 C 0.49662 0.56135 0.70738 0.0
C557 C 0.50061 0.57926 0.69688 0.0
C558 C 0.51335 0.58854 0.72644 0.0
C559 C 0.52202 0.57969 0.76683 0.0
C560 C 0.50519 0.55298 0.74886 0.0
C561 C 0.5179 0.56207 0.77797 0.0
C562 C 0.52162 0.54784 0.54742 0.0
C563 C 0.4845 0.5512 0.67304 0.0
H564 H 0.511 0.45762 0.44834 0.0
H565 H 0.51498 0.47423 0.29001 0.0
H566 H 0.54957 0.49687 0.40295 0.0
H567 H 0.53891 0.4948 0.31394 0.0
H568 H 0.49403 0.58586 0.6652 0.0
H569 H 0.5317 0.58654 0.79072 0.0
H570 H 0.50231 0.53931 0.75864 0.0
H571 H 0.52455 0.55543 0.80939 0.0
Eu572 Eu 0.02378 0.53906 0.54899 0.0
C573 C 0.0207 0.45842 0.59924 0.0
C574 C 0.0085 0.44422 0.52272 0.0
C575 C 0.02931 0.42806 0.57641 0.0
C576 C 0.00992 0.45924 0.55587 0.0
C577 C 0.03006 0.44262 0.61069 0.0
C578 C 0.01857 0.42887 0.5325 0.0
C579 C 0.0388 0.45602 0.69189 0.0
N580 N 0.02118 0.47261 0.63198 0.0
C581 C 0.02934 0.47137 0.67895 0.0
C582 C 0.03944 0.4417 0.65719 0.0
Eu583 Eu 1.00562 0.49842 0.60642 0.0
N584 N 1.00028 0.47432 0.54724 0.0
C585 C 0.98796 0.47448 0.50829 0.0
C586 C 0.9967 0.44487 0.48124 0.0
C587 C 0.98621 0.45995 0.47453 0.0
H588 H 0.02894 0.48249 0.70576 0.0
H589 H 0.97676 0.46043 0.44311 0.0
H590 H 0.01779 0.41735 0.50703 0.0
H591 H 0.04564 0.45528 0.72849 0.0
H592 H 0.97951 0.48574 0.50142 0.0
H593 H 0.04706 0.57785 0.71784 0.0
H594 H 0.99531 0.43366 0.45487 0.0
H595 H 1.00538 0.55559 0.44234 0.0
H596 H 0.04652 0.55253 0.65867 0.0
H597 H 0.98824 0.58211 0.41579 0.0
H598 H 0.03659 0.41592 0.58425 0.0
H599 H 0.02765 0.60383 0.70307 0.0
H600 H 1.00569 0.6193 0.64676 0.0
H601 H 0.04676 0.4298 0.66732 0.0
H602 H 0.98935 0.62038 0.56485 0.0
N603 N 0.02648 0.56323 0.60942 0.0
C604 C 0.03794 0.56353 0.65043 0.0
C605 C 0.02731 0.59263 0.67637 0.0
C606 C 0.01644 0.59287 0.63273 0.0
C607 C 0.03832 0.57803 0.68472 0.0
C608 C 0.01647 0.57791 0.59913 0.0
H609 H 0.98305 0.60676 0.4781 0.0
N610 N 0.00861 0.56463 0.51964 0.0
C611 C 0.99328 0.58121 0.45473 0.0
C612 C 1.00716 0.57855 0.55311 0.0
C613 C 1.00288 0.5662 0.46991 0.0
C614 C 0.99035 0.59506 0.49004 0.0
C615 C 0.99775 0.59408 0.53943 0.0
O616 O 0.03969 0.55758 0.50397 0.0
O617 O 0.02026 0.50974 0.54004 0.0
O618 O 0.03582 0.498 0.61305 0.0
O619 O 0.04366 0.52791 0.6064 0.0
O620 O 0.01626 0.52472 0.4744 0.0
O621 O 0.04969 0.53123 0.51786 0.0
O622 O 0.99243 0.48132 0.66207 0.0
O623 O 0.00877 0.52785 0.61541 0.0
O624 O 0.99419 0.53848 0.53024 0.0
O625 O 0.98484 0.5098 0.55256 0.0
O626 O 0.01412 0.51276 0.67993 0.0
O627 O 0.97921 0.50508 0.63632 0.0
C628 C 0.01685 0.50875 0.49246 0.0
C629 C 0.05422 0.54277 0.43457 0.0
C630 C 0.06615 0.5246 0.36373 0.0
C631 C 0.06391 0.52788 0.41683 0.0
C632 C 0.05845 0.53642 0.32842 0.0
C633 C 0.0468 0.55447 0.39844 0.0
C634 C 0.04887 0.55123 0.34578 0.0
C635 C 0.04731 0.51122 0.61885 0.0
C636 C 0.05124 0.54552 0.49045 0.0
C637 C 0.99674 0.60846 0.57436 0.0
C638 C 1.00607 0.60785 0.62094 0.0
C639 C 0.01243 0.52877 0.66285 0.0
C640 C 0.97731 0.49865 0.72517 0.0
C641 C 0.96567 0.5128 0.73694 0.0
C642 C 0.96396 0.51927 0.78785 0.0
C643 C 0.97422 0.51145 0.8269 0.0
C644 C 0.9873 0.49098 0.76505 0.0
C645 C 0.98578 0.49742 0.81545 0.0
C646 C 0.98217 0.52559 0.53159 0.0
C647 C 0.97974 0.49272 0.67104 0.0
H648 H 0.06954 0.51873 0.44443 0.0
H649 H 0.0602 0.53449 0.28733 0.0
H650 H 0.03927 0.56607 0.41073 0.0
H651 H 0.0431 0.5603 0.31827 0.0
H652 H 0.9581 0.51891 0.70628 0.0
H653 H 0.97299 0.51583 0.86662 0.0
H654 H 0.99645 0.48012 0.75739 0.0
H655 H 0.99353 0.49144 0.84585 0.0
C656 C 0.1353 0.05007 0.14469 0.0
C657 C 0.15301 0.05294 0.16015 0.0
C658 C 0.1215 0.05021 0.18075 0.0
C659 C 0.10889 0.0646 0.31268 0.0
H660 H 0.07594 0.02507 0.30333 0.0
C661 C 0.06106 0.04557 0.47866 0.0
C662 C 0.0448 0.03738 0.46616 0.0
C663 C 0.0733 0.04982 0.4401 0.0
C664 C 0.08475 0.03643 0.30613 0.0
H665 H 0.16987 0.05869 0.22612 0.0
H666 H 0.14571 0.05918 0.28889 0.0
H667 H 0.09903 0.02813 0.23876 0.0
H668 H 0.02795 0.029 0.40252 0.0
H669 H 0.04895 0.03685 0.33551 0.0
H670 H 0.09455 0.07292 0.38016 0.0
C671 C 0.14256 0.05686 0.24865 0.0
C672 C 0.09808 0.03813 0.26905 0.0
C673 C 0.15642 0.05661 0.21257 0.0
C674 C 0.04051 0.03485 0.41386 0.0
C675 C 0.05265 0.03926 0.37529 0.0
C676 C 0.09543 0.06299 0.34966 0.0
C677 C 0.12497 0.05337 0.23328 0.0
C678 C 0.11041 0.05215 0.272 0.0
C679 C 0.06946 0.04626 0.38789 0.0
C680 C 0.08324 0.04878 0.34712 0.0
H681 H 0.13206 0.04763 0.10458 0.0
H682 H 0.10807 0.04778 0.16747 0.0
H683 H 0.11806 0.07567 0.31574 0.0
H684 H 0.06454 0.04837 0.51836 0.0
H685 H 0.08604 0.05525 0.45152 0.0
C686 C 0.44834 0.14196 0.17892 0.0
C687 C 0.4633 0.15248 0.16812 0.0
C688 C 0.44891 0.12931 0.21825 0.0
C689 C 0.47307 0.11803 0.33728 0.0
H690 H 0.45784 0.06951 0.30991 0.0
C691 C 0.47861 0.06398 0.49245 0.0
C692 C 0.48681 0.04806 0.47598 0.0
C693 C 0.47277 0.07649 0.45663 0.0
C694 C 0.46206 0.08303 0.31824 0.0
H695 H 0.4904 0.15829 0.19093 0.0
H696 H 0.49138 0.13637 0.25942 0.0
H697 H 0.45346 0.0923 0.2444 0.0
H698 H 0.49401 0.03228 0.4085 0.0
H699 H 0.48373 0.054 0.34632 0.0
H700 H 0.48204 0.10879 0.41048 0.0
C701 C 0.47922 0.13783 0.23754 0.0
C702 C 0.45944 0.0961 0.28085 0.0
C703 C 0.47872 0.15028 0.19797 0.0
C704 C 0.48801 0.04449 0.42276 0.0
C705 C 0.48198 0.05691 0.38696 0.0
C706 C 0.47548 0.10505 0.37482 0.0
C707 C 0.46436 0.12715 0.24807 0.0
C708 C 0.46531 0.11366 0.28954 0.0
C709 C 0.4747 0.07326 0.40345 0.0
C710 C 0.47032 0.08731 0.36543 0.0
H711 H 0.4363 0.1433 0.15639 0.0
H712 H 0.43724 0.12131 0.2256 0.0
H713 H 0.47755 0.13149 0.34534 0.0
H714 H 0.47693 0.06695 0.53305 0.0
H715 H 0.46685 0.0888 0.4706 0.0
C716 C 0.37365 0.48604 0.22098 0.0
C717 C 0.37638 0.47552 0.17651 0.0
C718 C 0.38732 0.48858 0.25686 0.0
C719 C 0.43625 0.48711 0.26784 0.0
H720 H 0.42657 0.49073 0.41423 0.0
C721 C 0.4759 0.49555 0.47515 0.0
C722 C 0.48813 0.50881 0.4617 0.0
C723 C 0.46264 0.49022 0.44054 0.0
C724 C 0.42957 0.48959 0.37355 0.0
H725 H 0.39546 0.45883 0.13603 0.0
H726 H 0.41927 0.46315 0.19879 0.0
H727 H 0.40265 0.48303 0.35484 0.0
H728 H 0.49683 0.52613 0.40075 0.0
H729 H 0.4734 0.51726 0.34057 0.0
H730 H 0.46317 0.49361 0.28648 0.0
C731 C 0.40666 0.46974 0.20541 0.0
C732 C 0.41579 0.48537 0.33938 0.0
C733 C 0.39299 0.46724 0.16946 0.0
C734 C 0.48732 0.51612 0.4123 0.0
C735 C 0.474 0.51089 0.37774 0.0
C736 C 0.45002 0.49138 0.30199 0.0
C737 C 0.40406 0.48062 0.24928 0.0
C738 C 0.41891 0.48421 0.28603 0.0
C739 C 0.46139 0.49796 0.39153 0.0
C740 C 0.44686 0.49279 0.35528 0.0
H741 H 0.36112 0.49284 0.22727 0.0
H742 H 0.3849 0.49725 0.28974 0.0
H743 H 0.43913 0.48653 0.227 0.0
H744 H 0.4766 0.48926 0.51246 0.0
H745 H 0.45343 0.47995 0.45212 0.0
C746 C 0.04752 0.37539 0.22216 0.0
C747 C 0.03811 0.37581 0.17528 0.0
C748 C 0.0465 0.38968 0.2574 0.0
C749 C 0.03437 0.43771 0.26616 0.0
H750 H 0.03007 0.42888 0.4125 0.0
C751 C 0.0117 0.4922 0.41021 0.0
C752 C 0.02003 0.49313 0.45851 0.0
C753 C 0.01514 0.47797 0.3764 0.0
C754 C 0.03148 0.43159 0.37182 0.0
H755 H 0.01984 0.39155 0.12974 0.0
H756 H 0.01812 0.41632 0.19072 0.0
H757 H 0.03371 0.40382 0.35243 0.0
H758 H 0.03939 0.48062 0.50814 0.0
H759 H 0.04533 0.45553 0.44922 0.0
H760 H 0.03196 0.46543 0.28542 0.0
C761 C 0.0266 0.40512 0.19992 0.0
C762 C 0.03358 0.41721 0.33733 0.0
C763 C 0.0276 0.39087 0.16482 0.0
C764 C 0.03237 0.47989 0.47174 0.0
C765 C 0.0358 0.46558 0.43793 0.0
C766 C 0.03225 0.45205 0.30056 0.0
C767 C 0.03605 0.40477 0.24666 0.0
C768 C 0.03482 0.42007 0.28393 0.0
C769 C 0.02718 0.46443 0.38985 0.0
C770 C 0.03054 0.44917 0.35377 0.0
H771 H 0.05591 0.36413 0.23135 0.0
H772 H 0.05412 0.38901 0.29273 0.0
H773 H 0.03568 0.44048 0.22549 0.0
H774 H 1.00236 0.50242 0.39879 0.0
H775 H 0.00816 0.47746 0.33993 0.0
C776 C 0.86351 0.97215 0.94329 0.0
C777 C 0.8656 0.98034 0.99196 0.0
C778 C 0.87712 0.97278 0.90656 0.0
C779 C 0.92551 0.98054 0.89255 0.0
H780 H 0.91356 0.99123 0.75095 0.0
C781 C 0.97823 1.002 0.7437 0.0
C782 C 0.976 0.9969 0.69184 0.0
C783 C 0.96517 0.9982 0.7803 0.0
C784 C 0.91715 0.98794 0.7901 0.0
H785 H 0.88371 0.99588 0.03951 0.0
H786 H 0.9074 0.99681 0.97586 0.0
H787 H 0.88995 0.98805 0.81435 0.0
H788 H 0.9588 0.98249 0.6388 0.0
H789 H 0.93611 0.9758 0.70252 0.0
H790 H 0.9527 0.98049 0.86845 0.0
C791 C 0.89532 0.98966 0.96634 0.0
C792 C 0.90358 0.98614 0.82653 0.0
C793 C 0.88171 0.9891 1.00293 0.0
C794 C 0.96078 0.98707 0.6781 0.0
C795 C 0.94772 0.98324 0.71469 0.0
C796 C 0.93908 0.98227 0.8561 0.0
C797 C 0.8932 0.98156 0.91762 0.0
C798 C 0.90759 0.9826 0.87833 0.0
C799 C 0.94958 0.98905 0.76614 0.0
C800 C 0.9351 0.98617 0.80446 0.0
H801 H 0.85141 0.96506 0.93366 0.0
H802 H 0.87512 0.96622 0.86965 0.0
H803 H 0.92906 0.97752 0.93194 0.0
H804 H 0.98975 0.00943 0.75602 0.0
H805 H 0.96706 1.00302 0.8194 0.0
C806 C 0.55935 0.8866 0.98971 0.0
C807 C 0.56431 0.86903 0.97681 0.0
C808 C 0.55808 0.89965 0.95189 0.0
C809 C 0.55214 0.90497 0.81135 0.0
H810 H 0.5638 0.95421 0.84286 0.0
C811 C 0.54281 0.96028 0.661 0.0
C812 C 0.53371 0.97554 0.67878 0.0
C813 C 0.5494 0.94776 0.69571 0.0
C814 C 0.56049 0.94053 0.83344 0.0
H815 H 0.57212 0.85153 0.9138 0.0
H816 H 0.57003 0.87435 0.84763 0.0
H817 H 0.57014 0.93119 0.90589 0.0
H818 H 0.52551 0.99013 0.74744 0.0
H819 H 0.53703 0.96836 0.80779 0.0
H820 H 0.54238 0.91434 0.73907 0.0
C821 C 0.56686 0.87798 0.88707 0.0
C822 C 0.56405 0.92731 0.86967 0.0
C823 C 0.56807 0.86487 0.92499 0.0
C824 C 0.53224 0.97844 0.73223 0.0
C825 C 0.53897 0.966 0.76695 0.0
C826 C 0.54873 0.91816 0.77498 0.0
C827 C 0.56177 0.89554 0.89999 0.0
C828 C 0.55958 0.90939 0.85955 0.0
C829 C 0.54726 0.95029 0.7491 0.0
C830 C 0.55257 0.93615 0.7859 0.0
H831 H 0.55602 0.89022 0.02906 0.0
H832 H 0.55373 0.91288 0.96329 0.0
H833 H 0.54829 0.89139 0.80234 0.0
H834 H 0.54465 0.95784 0.62017 0.0
H835 H 0.55605 0.93599 0.6807 0.0
C836 C 0.64869 0.55676 0.93965 0.0
C837 C 0.64889 0.54705 0.98571 0.0
C838 C 0.63481 0.55463 0.90412 0.0
C839 C 0.58837 0.53877 0.89381 0.0
H840 H 0.59851 0.5346 0.74776 0.0
C841 C 0.53644 0.51266 0.749 0.0
C842 C 0.5356 0.52049 0.70031 0.0
C843 C 0.55018 0.51698 0.78307 0.0
C844 C 0.59542 0.53595 0.78834 0.0
H845 H 0.63477 0.52714 0.02968 0.0
H846 H 0.61063 0.52356 0.96818 0.0
H847 H 0.62273 0.54016 0.80848 0.0
H848 H 0.54765 0.53987 0.65006 0.0
H849 H 0.57176 0.54752 0.70967 0.0
H850 H 0.56112 0.53449 0.87389 0.0
C851 C 0.62102 0.53306 0.95987 0.0
C852 C 0.60931 0.53915 0.82315 0.0
C853 C 0.63489 0.53514 0.99523 0.0
C854 C 0.54835 0.53324 0.68686 0.0
C855 C 0.56211 0.53763 0.72102 0.0
C856 C 0.57452 0.5356 0.85907 0.0
C857 C 0.62078 0.54278 0.9139 0.0
C858 C 0.60597 0.54037 0.87639 0.0
C859 C 0.56321 0.5295 0.76952 0.0
C860 C 0.57789 0.5339 0.80597 0.0
H861 H 0.65914 0.56618 0.9313 0.0
H862 H 0.63493 0.56245 0.86933 0.0
H863 H 0.58528 0.54 0.93444 0.0
H864 H 0.52656 0.503 0.76048 0.0
H865 H 0.55071 0.51033 0.81982 0.0
C866 C 0.9767 0.66156 0.93013 0.0
C867 C 0.98468 0.66046 0.97904 0.0
C868 C 0.97789 0.64728 0.89483 0.0
C869 C 0.98838 0.59855 0.88847 0.0
H870 H 0.99485 0.60699 0.74267 0.0
C871 C 0.01455 0.54456 0.74766 0.0
C872 C 1.00728 0.54358 0.69793 0.0
C873 C 0.00982 0.55841 0.78146 0.0
C874 C 0.99284 0.6044 0.7832 0.0
H875 H 1.00078 0.64373 0.02813 0.0
H876 H 1.00311 0.61915 0.96686 0.0
H877 H 0.9908 0.63222 0.80174 0.0
H878 H 0.98819 0.55541 0.64601 0.0
H879 H 0.98007 0.5799 0.70486 0.0
H880 H 0.991 0.57078 0.8701 0.0
C881 C 0.99542 0.63073 0.95606 0.0
C882 C 0.99048 0.61889 0.81715 0.0
C883 C 0.99414 0.64491 0.99129 0.0
C884 C 0.99445 0.55622 0.68354 0.0
C885 C 0.98976 0.57017 0.71729 0.0
C886 C 0.99092 0.58412 0.85465 0.0
C887 C 0.98718 0.6316 0.90747 0.0
C888 C 0.98849 0.61619 0.87045 0.0
C889 C 0.99756 0.57155 0.76648 0.0
C890 C 0.99343 0.58686 0.8017 0.0
H891 H 0.96923 0.67331 0.91957 0.0
H892 H 0.97124 0.64842 0.85802 0.0
H893 H 0.98642 0.59585 0.92894 0.0
H894 H 0.02421 0.53477 0.76005 0.0
H895 H 0.01612 0.55908 0.81894 0.0
C896 C 0.08531 0.19768 0.22354 0.0
C897 C 0.07616 0.19753 0.17624 0.0
C898 C 0.08583 0.18248 0.25403 0.0
C899 C 0.07282 0.1343 0.25914 0.0
H900 H 0.05964 0.14733 0.39889 0.0
C901 C 0.02563 0.09409 0.38606 0.0
C902 C 0.02728 0.09532 0.43989 0.0
C903 C 0.03769 0.10281 0.35422 0.0
C904 C 0.06375 0.14331 0.36049 0.0
H905 H 0.06201 0.18064 0.12168 0.0
H906 H 0.0621 0.15448 0.1759 0.0
H907 H 0.07008 0.17005 0.34122 0.0
H908 H 0.04397 0.10483 0.50246 0.0
H909 H 0.06503 0.12012 0.44684 0.0
H910 H 0.0653 0.10762 0.27826 0.0
C911 C 0.06908 0.16625 0.18932 0.0
C912 C 0.06979 0.15641 0.3272 0.0
C913 C 0.06876 0.18139 0.15848 0.0
C914 C 0.04211 0.10407 0.4611 0.0
C915 C 0.05419 0.11276 0.42928 0.0
C916 C 0.06666 0.12116 0.29254 0.0
C917 C 0.077 0.16683 0.23841 0.0
C918 C 0.07387 0.15221 0.27561 0.0
C919 C 0.05165 0.1129 0.37563 0.0
C920 C 0.06153 0.12566 0.34311 0.0
H921 H 0.09115 0.20982 0.23875 0.0
H922 H 0.09241 0.18329 0.29109 0.0
H923 H 0.07615 0.13054 0.21993 0.0
H924 H 0.01434 0.08745 0.36856 0.0
H925 H 0.03527 0.10274 0.31309 0.0
C926 C 0.3454 0.08666 0.13472 0.0
C927 C 0.32949 0.08479 0.16249 0.0
C928 C 0.36184 0.08599 0.16005 0.0
C929 C 0.38202 0.08529 0.29231 0.0
H930 H 0.41725 0.05488 0.22719 0.0
C931 C 0.43353 0.05138 0.41801 0.0
C932 C 0.43594 0.03324 0.40653 0.0
C933 C 0.42608 0.06273 0.38151 0.0
C934 C 0.40755 0.06336 0.24612 0.0
H935 H 0.31839 0.08081 0.23854 0.0
H936 H 0.34667 0.07928 0.28216 0.0
H937 H 0.39227 0.06565 0.17706 0.0
H938 H 0.43357 0.01283 0.34753 0.0
H939 H 0.41967 0.03214 0.2849 0.0
H940 H 0.39605 0.08157 0.36246 0.0
C941 C 0.34667 0.08189 0.24123 0.0
C942 C 0.39332 0.06981 0.21701 0.0
C943 C 0.33035 0.0827 0.2161 0.0
C944 C 0.43185 0.02682 0.35709 0.0
C945 C 0.42399 0.03802 0.32102 0.0
C946 C 0.39597 0.07852 0.32163 0.0
C947 C 0.36268 0.08328 0.21359 0.0
C948 C 0.37988 0.08011 0.24047 0.0
C949 C 0.42037 0.05601 0.33337 0.0
C950 C 0.40845 0.06671 0.29956 0.0
H951 H 0.34513 0.08841 0.09336 0.0
H952 H 0.37387 0.08729 0.13758 0.0
H953 H 0.37227 0.09372 0.31127 0.0
H954 H 0.43688 0.05665 0.45581 0.0
H955 H 0.42415 0.0766 0.39196 0.0
C956 C 0.43602 0.34228 0.15023 0.0
C957 C 0.44133 0.32686 0.17639 0.0
C958 C 0.43803 0.35912 0.17325 0.0
C959 C 0.44807 0.38174 0.29892 0.0
H960 H 0.47012 0.41734 0.21302 0.0
C961 C 0.4971 0.43411 0.37398 0.0
C962 C 0.49717 0.45121 0.35249 0.0
C963 C 0.48538 0.42109 0.35581 0.0
C964 C 0.46362 0.40772 0.23738 0.0
H965 H 0.45286 0.31707 0.24732 0.0
H966 H 0.45648 0.3462 0.28699 0.0
H967 H 0.45844 0.3902 0.17366 0.0
H968 H 0.48409 0.46835 0.29738 0.0
H969 H 0.46382 0.44543 0.26489 0.0
H970 H 0.45425 0.3989 0.36298 0.0
C971 C 0.45033 0.34539 0.24931 0.0
C972 C 0.45689 0.39214 0.21481 0.0
C973 C 0.44829 0.32862 0.22644 0.0
C974 C 0.48462 0.45522 0.31407 0.0
C975 C 0.47297 0.44214 0.29558 0.0
C976 C 0.45492 0.39725 0.32151 0.0
C977 C 0.44546 0.36088 0.22282 0.0
C978 C 0.44959 0.37869 0.24552 0.0
C979 C 0.47352 0.42482 0.3155 0.0
C980 C 0.46328 0.41013 0.29113 0.0
H981 H 0.43045 0.34134 0.11182 0.0
H982 H 0.43398 0.37078 0.15199 0.0
H983 H 0.44215 0.37183 0.32357 0.0
H984 H 0.5067 0.43044 0.40308 0.0
H985 H 0.48629 0.4078 0.37145 0.0
C986 C 0.18305 0.4483 0.13646 0.0
C987 C 0.19803 0.45056 0.16822 0.0
C988 C 0.16593 0.44995 0.1569 0.0
C989 C 0.14088 0.45426 0.28097 0.0
H990 H 0.11056 0.48552 0.20173 0.0
C991 C 0.09336 0.50543 0.37008 0.0
C992 C 0.07731 0.50949 0.34508 0.0
C993 C 0.105 0.4928 0.34914 0.0
C994 C 0.11863 0.47643 0.22397 0.0
H995 H 0.20676 0.45587 0.24655 0.0
H996 H 0.17712 0.45897 0.2819 0.0
H997 H 0.13712 0.473 0.16233 0.0
H998 H 0.06025 0.50237 0.28066 0.0
H999 H 0.08086 0.48056 0.24337 0.0
H1000 H 0.12285 0.45872 0.34369 0.0
C1001 C 0.17845 0.4555 0.24148 0.0
C1002 C 0.13389 0.46922 0.20133 0.0
C1003 C 0.19552 0.45377 0.22113 0.0
C1004 C 0.07271 0.49986 0.30018 0.0
C1005 C 0.08444 0.48731 0.27899 0.0
C1006 C 0.12568 0.46159 0.30373 0.0
C1007 C 0.16344 0.454 0.20947 0.0
C1008 C 0.14556 0.45859 0.23016 0.0
C1009 C 0.10091 0.48401 0.30256 0.0
C1010 C 0.11475 0.47326 0.27598 0.0
H1011 H 0.18458 0.44557 0.09564 0.0
H1012 H 0.15464 0.44846 0.13131 0.0
H1013 H 0.14935 0.44578 0.30389 0.0
H1014 H 0.09743 0.51269 0.40439 0.0
H1015 H 0.11769 0.49073 0.36786 0.0
C1016 C 0.95729 0.80927 0.86015 0.0
C1017 C 0.97028 0.79802 0.8816 0.0
C1018 C 0.96207 0.82233 0.82473 0.0
C1019 C 1.00141 0.84919 0.79919 0.0
H1020 H 0.97352 0.86938 0.68855 0.0
C1021 C 0.01858 0.91764 0.72039 0.0
C1022 C 0.01963 0.91894 0.66653 0.0
C1023 C 0.01044 0.90298 0.74298 0.0
C1024 C 0.98146 0.86382 0.71926 0.0
H1025 H 0.99814 0.79045 0.87754 0.0
H1026 H 1.00615 0.81249 0.81438 0.0
H1027 H 0.96389 0.84158 0.72866 0.0
H1028 H 0.01187 0.90639 0.59429 0.0
H1029 H 0.99798 0.88059 0.63378 0.0
H1030 H 0.01904 0.87113 0.78993 0.0
C1031 C 0.9924 0.81167 0.82643 0.0
C1032 C 0.97592 0.84798 0.74232 0.0
C1033 C 0.9877 0.79879 0.86217 0.0
C1034 C 0.01152 0.90567 0.63587 0.0
C1035 C 1.00339 0.89097 0.65849 0.0
C1036 C 1.00688 0.86495 0.77638 0.0
C1037 C 0.97988 0.82425 0.80966 0.0
C1038 C 0.98589 0.84048 0.78251 0.0
C1039 C 1.00324 0.88922 0.71229 0.0
C1040 C 0.99696 0.87253 0.73639 0.0
H1041 H 0.94364 0.80875 0.87318 0.0
H1042 H 0.95205 0.83171 0.81219 0.0
H1043 H 0.00922 0.84403 0.83076 0.0
H1044 H 0.02475 0.92752 0.74526 0.0
H1045 H 0.01024 0.90217 0.78461 0.0
C1046 C 0.67128 0.9558 0.02339 0.0
C1047 C 0.68671 0.94662 1.00783 0.0
C1048 C 0.65564 0.95449 0.99452 0.0
C1049 C 0.64326 0.94636 0.85977 0.0
H1050 H 0.59607 0.95723 0.91114 0.0
C1051 C 0.59122 0.97246 0.72183 0.0
C1052 C 0.58469 0.98912 0.73837 0.0
C1053 C 0.59907 0.96088 0.75694 0.0
C1054 C 0.60914 0.954 0.89622 0.0
H1055 H 0.69719 0.92759 0.95191 0.0
H1056 H 0.6698 0.92471 0.90322 0.0
H1057 H 0.61926 0.9478 0.97109 0.0
H1058 H 0.57973 1.00599 0.80515 0.0
H1059 H 0.59362 0.98596 0.86623 0.0
H1060 H 0.6335 0.95328 0.78552 0.0
C1061 C 0.66993 0.93339 0.93684 0.0
C1062 C 0.62244 0.94868 0.93053 0.0
C1063 C 0.68563 0.93488 0.96529 0.0
C1064 C 0.58468 0.99325 0.79126 0.0
C1065 C 0.59259 0.98171 0.82633 0.0
C1066 C 0.62999 0.95154 0.8256 0.0
C1067 C 0.65499 0.9438 0.94969 0.0
C1068 C 0.63987 0.94553 0.91297 0.0
C1069 C 0.60061 0.96579 0.80918 0.0
C1070 C 0.61299 0.95615 0.84368 0.0
H1071 H 0.67146 0.96461 0.0567 0.0
H1072 H 0.64447 0.96278 1.00568 0.0
H1073 H 0.65652 0.94431 0.84466 0.0
H1074 H 0.59094 0.96873 0.6814 0.0
H1075 H 0.6048 0.94851 0.74279 0.0
C1076 C 0.56704 0.72597 0.85596 0.0
C1077 C 0.55468 0.73674 0.88251 0.0
C1078 C 0.56145 0.71411 0.81738 0.0
C1079 C 0.52089 0.6889 0.78857 0.0
H1080 H 0.55103 0.66632 0.68583 0.0
C1081 C 0.5032 0.61988 0.711 0.0
C1082 C 0.51716 0.60764 0.71728 0.0
C1083 C 0.50656 0.6382 0.71183 0.0
C1084 C 0.54239 0.67257 0.71411 0.0
H1085 H 0.52703 0.74506 0.88427 0.0
H1086 H 0.51752 0.72519 0.81528 0.0
H1087 H 0.55918 0.69548 0.7214 0.0
H1088 H 0.54574 0.6049 0.72397 0.0
H1089 H 0.55159 0.6368 0.72642 0.0
H1090 H 0.50451 0.6658 0.78302 0.0
C1091 C 0.53144 0.7253 0.82589 0.0
C1092 C 0.54708 0.68925 0.73461 0.0
C1093 C 0.53698 0.73694 0.86508 0.0
C1094 C 0.53467 0.61404 0.72005 0.0
C1095 C 0.53804 0.63233 0.72077 0.0
C1096 C 0.51616 0.67235 0.76787 0.0
C1097 C 0.54338 0.71296 0.80378 0.0
C1098 C 0.53672 0.69732 0.77358 0.0
C1099 C 0.52395 0.64463 0.7188 0.0
C1100 C 0.52718 0.66368 0.73182 0.0
H1101 H 0.58089 0.72583 0.86728 0.0
H1102 H 0.57111 0.70492 0.80126 0.0
H1103 H 0.51269 0.69442 0.81906 0.0
H1104 H 0.48956 0.61536 0.70869 0.0
H1105 H 0.49545 0.64735 0.70952 0.0
C1106 C 0.82682 0.5771 0.91748 0.0
C1107 C 0.82436 0.58338 0.96818 0.0
C1108 C 0.84373 0.5765 0.89568 0.0
C1109 C 0.89035 0.57239 0.9341 0.0
H1110 H 0.89778 0.5758 0.78671 0.0
C1111 C 0.95441 0.54625 0.83942 0.0
C1112 C 0.95078 0.53339 0.80094 0.0
C1113 C 0.9411 0.55788 0.85666 0.0
C1114 C 0.89596 0.57496 0.828 0.0
H1115 H 0.83766 0.59476 0.03492 0.0
H1116 H 0.86733 0.59377 0.99664 0.0
H1117 H 0.87007 0.58669 0.82449 0.0
H1118 H 0.93053 0.52341 0.74852 0.0
H1119 H 0.90752 0.54381 0.77792 0.0
H1120 H 0.91599 0.56012 0.93729 0.0
C1121 C 0.85614 0.58909 0.97404 0.0
C1122 C 0.88007 0.58111 0.84964 0.0
C1123 C 0.83916 0.58965 0.99598 0.0
C1124 C 0.93389 0.53324 0.77779 0.0
C1125 C 0.92066 0.54496 0.79466 0.0
C1126 C 0.90629 0.56637 0.91249 0.0
C1127 C 0.85866 0.58219 0.92393 0.0
C1128 C 0.87678 0.57921 0.90265 0.0
C1129 C 0.92396 0.55702 0.83532 0.0
C1130 C 0.90895 0.56695 0.85898 0.0
H1131 H 0.81577 0.57187 0.89528 0.0
H1132 H 0.84516 0.57074 0.85747 0.0
H1133 H 0.88824 0.57056 0.97496 0.0
H1134 H 0.9674 0.54698 0.85725 0.0
H1135 H 0.94405 0.5672 0.88766 0.0
C1136 C 0.02105 0.18007 0.87019 0.0
C1137 C 0.03463 0.1917 0.85476 0.0
C1138 C 0.01902 0.16332 0.84651 0.0
C1139 C 0.03037 0.13833 0.72643 0.0
H1140 H 0.01468 0.09756 0.80458 0.0
C1141 C 0.02262 0.06752 0.63529 0.0
C1142 C 1.00721 0.05819 0.64906 0.0
C1143 C 0.02722 0.08339 0.66105 0.0
C1144 C 0.01895 0.10885 0.78212 0.0
H1145 H 0.05713 0.19443 0.80336 0.0
H1146 H 0.05368 0.16522 0.76239 0.0
H1147 H 0.02055 0.12578 0.84893 0.0
H1148 H 0.98415 0.05842 0.69868 0.0
H1149 H 0.9922 0.08594 0.74411 0.0
H1150 H 0.02867 0.12135 0.65958 0.0
C1151 C 0.04435 0.16919 0.79211 0.0
C1152 C 0.0223 0.12506 0.80756 0.0
C1153 C 0.04635 0.18595 0.81571 0.0
C1154 C 0.9963 0.06518 0.68815 0.0
C1155 C 1.00096 0.0809 0.71424 0.0
C1156 C 0.02707 0.12208 0.70102 0.0
C1157 C 0.03054 0.15769 0.80679 0.0
C1158 C 0.02786 0.14011 0.78003 0.0
C1159 C 0.01648 0.09023 0.70108 0.0
C1160 C 0.0211 0.1072 0.72845 0.0
H1161 H 0.01161 0.18412 0.89954 0.0
H1162 H 0.00806 0.155 0.8584 0.0
H1163 H 0.0344 0.14964 0.70373 0.0
H1164 H 0.03101 0.06267 0.60426 0.0
H1165 H 0.03926 0.09021 0.64995 0.0
C1166 C 0.3362 0.02884 0.79306 0.0
C1167 C 0.33496 0.03759 0.84115 0.0
C1168 C 0.35274 0.02555 0.77035 0.0
C1169 C 0.39959 0.03987 0.76938 0.0
H1170 H 0.40766 0.99314 0.70831 0.0
C1171 C 0.45987 0.02267 0.63742 0.0
C1172 C 0.46843 1.00635 0.64644 0.0
C1173 C 0.44408 0.02703 0.66317 0.0
C1174 C 0.40567 1.00622 0.72544 0.0
H1175 H 0.35021 0.04997 0.90264 0.0
H1176 H 0.3792 0.04422 0.86277 0.0
H1177 H 0.37932 0.99976 0.74977 0.0
H1178 H 0.46689 0.9815 0.68756 0.0
H1179 H 0.43929 0.98904 0.73258 0.0
H1180 H 0.42604 0.04627 0.74479 0.0
C1181 C 0.3673 0.03996 0.8427 0.0
C1182 C 0.38936 0.01008 0.74878 0.0
C1183 C 0.35071 0.04312 0.86572 0.0
C1184 C 0.46068 0.99429 0.68061 0.0
C1185 C 0.44486 0.99858 0.70611 0.0
C1186 C 0.41589 0.03606 0.74551 0.0
C1187 C 0.3685 0.03099 0.79492 0.0
C1188 C 0.38608 0.02695 0.77095 0.0
C1189 C 0.43633 0.01498 0.69763 0.0
C1190 C 0.41912 0.01917 0.72331 0.0
H1191 H 0.32437 0.02421 0.7733 0.0
H1192 H 0.35317 0.01877 0.73331 0.0
H1193 H 0.39744 0.05302 0.78582 0.0
H1194 H 0.46521 0.03196 0.6099 0.0
H1195 H 0.43769 0.03964 0.65515 0.0
C1196 C 0.46095 0.33625 0.80013 0.0
C1197 C 0.47226 0.33038 0.83977 0.0
C1198 C 0.46383 0.35262 0.77622 0.0
C1199 C 0.48488 0.39644 0.79456 0.0
H1200 H 0.4834 0.39867 0.64537 0.0
C1201 C 0.48555 0.46309 0.68521 0.0
C1202 C 0.49715 0.4643 0.64305 0.0
C1203 C 0.48235 0.44671 0.70859 0.0
C1204 C 0.48392 0.39823 0.68703 0.0
H1205 H 0.49549 0.33746 0.8852 0.0
H1206 H 0.50014 0.36618 0.84444 0.0
H1207 H 0.47806 0.37029 0.68818 0.0
H1208 H 0.51451 0.44918 0.59226 0.0
H1209 H 0.50873 0.42044 0.63274 0.0
H1210 H 0.4907 0.42437 0.79348 0.0
C1211 C 0.48904 0.35804 0.83198 0.0
C1212 C 0.48071 0.38203 0.71157 0.0
C1213 C 0.48629 0.34158 0.85553 0.0
C1214 C 0.50542 0.44868 0.62455 0.0
C1215 C 0.50205 0.43222 0.64756 0.0
C1216 C 0.48786 0.41268 0.77008 0.0
C1217 C 0.47795 0.36367 0.79169 0.0
C1218 C 0.48119 0.38093 0.76562 0.0
C1219 C 0.49059 0.43108 0.69017 0.0
C1220 C 0.48744 0.41377 0.71603 0.0
H1221 H 0.44979 0.32822 0.78754 0.0
H1222 H 0.45488 0.3567 0.74585 0.0
H1223 H 0.48524 0.39606 0.83625 0.0
H1224 H 0.47938 0.47485 0.70139 0.0
H1225 H 0.47339 0.44629 0.7412 0.0
C1226 C 0.18703 0.46929 0.83841 0.0
C1227 C 0.19631 0.48441 0.85618 0.0
C1228 C 0.17032 0.47103 0.81505 0.0
C1229 C 0.13262 0.50274 0.79969 0.0
H1230 H 0.12287 0.47536 0.67528 0.0
C1231 C 0.07533 0.52117 0.66327 0.0
C1232 C 0.06468 0.5073 0.64361 0.0
C1233 C 0.09103 0.51747 0.68989 0.0
C1234 C 0.1253 0.48296 0.7103 0.0
H1235 H 0.1949 0.51314 0.86519 0.0
H1236 H 0.1661 0.51621 0.82385 0.0
H1237 H 0.15049 0.47034 0.72246 0.0
H1238 H 0.06306 0.47863 0.6333 0.0
H1239 H 0.09033 0.47215 0.68051 0.0
H1240 H 0.10759 0.51555 0.78716 0.0
C1241 C 0.1716 0.50297 0.82811 0.0
C1242 C 0.14112 0.48005 0.73746 0.0
C1243 C 0.18825 0.50123 0.85134 0.0
C1244 C 0.07061 0.48963 0.64929 0.0
C1245 C 0.08638 0.48591 0.67582 0.0
C1246 C 0.11687 0.50568 0.7725 0.0
C1247 C 0.16247 0.48793 0.80916 0.0
C1248 C 0.14509 0.49007 0.78217 0.0
C1249 C 0.09664 0.4998 0.69715 0.0
C1250 C 0.11309 0.49599 0.72711 0.0
H1251 H 0.19288 0.45614 0.84126 0.0
H1252 H 0.16358 0.45914 0.80145 0.0
H1253 H 0.13504 0.51044 0.83451 0.0
H1254 H 0.07149 0.53494 0.65884 0.0
H1255 H 0.09884 0.52851 0.70471 0.0
C1256 C 0.99967 0.83774 0.38585 0.0
C1257 C 0.99162 0.83508 0.33737 0.0
C1258 C 1.00154 0.8549 0.40693 0.0
C1259 C 1.00394 0.9022 0.37058 0.0
H1260 H 0.99537 0.91108 0.51586 0.0
C1261 C 1.00091 0.96506 0.52631 0.0
C1262 C 0.01624 0.9743 0.51132 0.0
C1263 C 0.99684 0.94845 0.50424 0.0
C1264 C 0.99777 0.90886 0.4752 0.0
H1265 H 0.97886 0.84866 0.27384 0.0
H1266 H 0.98243 0.87855 0.31025 0.0
H1267 H 0.99017 0.88141 0.4795 0.0
H1268 H 0.03966 0.97318 0.46319 0.0
H1269 H 0.03262 0.94418 0.42454 0.0
H1270 H 0.01157 0.92964 0.3663 0.0
C1271 C 0.98742 0.8673 0.33171 0.0
C1272 C 0.99491 0.8918 0.45441 0.0
C1273 C 0.98542 0.85013 0.31077 0.0
C1274 C 0.02757 0.96648 0.47458 0.0
C1275 C 0.02348 0.94992 0.45235 0.0
C1276 C 1.00696 0.91922 0.39149 0.0
C1277 C 0.99554 0.86991 0.38001 0.0
C1278 C 0.99805 0.88822 0.40188 0.0
C1279 C 0.00807 0.94065 0.46693 0.0
C1280 C 1.00406 0.92274 0.44418 0.0
H1281 H 1.00492 0.82659 0.40718 0.0
H1282 H 0.00809 0.85644 0.44387 0.0
H1283 H 1.00659 0.8999 0.33005 0.0
H1284 H 0.99216 0.97058 0.5555 0.0
H1285 H 0.98482 0.94175 0.51622 0.0
C1286 C 0.68429 1.00193 0.36605 0.0
C1287 C 0.68656 0.99102 0.32211 0.0
C1288 C 0.66746 1.00467 0.38739 0.0
C1289 C 0.62191 0.98616 0.39262 0.0
H1290 H 0.61026 0.03362 0.44274 0.0
C1291 C 0.56008 1.00185 0.51962 0.0
C1292 C 0.5509 0.01776 0.50969 0.0
C1293 C 0.57604 0.99796 0.49415 0.0
C1294 C 0.6132 0.02032 0.42854 0.0
H1295 H 0.67274 0.97431 0.26648 0.0
H1296 H 0.64322 0.97933 0.30339 0.0
H1297 H 0.63892 0.02814 0.40243 0.0
H1298 H 0.55133 0.04226 0.46669 0.0
H1299 H 0.57904 0.03545 0.4216 0.0
H1300 H 0.59596 0.97846 0.41835 0.0
C1301 C 0.65458 0.98562 0.32158 0.0
C1302 C 0.62976 0.01711 0.40596 0.0
C1303 C 0.67148 0.9829 0.30009 0.0
C1304 C 0.55806 0.0298 0.47445 0.0
C1305 C 0.57398 0.02593 0.44896 0.0
C1306 C 0.60529 0.98937 0.41538 0.0
C1307 C 0.65235 0.99663 0.36539 0.0
C1308 C 0.6344 0.99998 0.38796 0.0
C1309 C 0.58327 0.01004 0.45877 0.0
C1310 C 0.60076 1.0065 0.43373 0.0
H1311 H 0.69553 1.00862 0.38371 0.0
H1312 H 0.66632 0.01305 0.42149 0.0
H1313 H 0.62508 0.97278 0.37952 0.0
H1314 H 0.55515 0.9926 0.54789 0.0
H1315 H 0.58298 0.98575 0.5033 0.0
C1316 C 0.56021 0.68924 0.3386 0.0
C1317 C 0.55017 0.70405 0.3552 0.0
C1318 C 0.55782 0.67253 0.36097 0.0
C1319 C 0.53953 0.65044 0.47681 0.0
H1320 H 0.5395 0.60849 0.38829 0.0
C1321 C 0.51667 0.58097 0.5464 0.0
C1322 C 0.52613 0.56592 0.52853 0.0
C1323 C 0.5203 0.59793 0.52718 0.0
C1324 C 0.53971 0.62003 0.41373 0.0
H1325 H 0.52958 0.71274 0.40825 0.0
H1326 H 0.52538 0.68364 0.44715 0.0
H1327 H 0.54445 0.6377 0.35114 0.0
H1328 H 0.54675 0.55717 0.47592 0.0
H1329 H 0.55333 0.58661 0.44317 0.0
H1330 H 0.53466 0.63272 0.53937 0.0
C1331 C 0.53533 0.685 0.41736 0.0
C1332 C 0.54254 0.63681 0.39238 0.0
C1333 C 0.53774 0.70171 0.395 0.0
C1334 C 0.5394 0.56835 0.49128 0.0
C1335 C 0.54301 0.58529 0.47192 0.0
C1336 C 0.53668 0.63364 0.49819 0.0
C1337 C 0.5453 0.67017 0.40053 0.0
C1338 C 0.54248 0.65226 0.42359 0.0
C1339 C 0.53341 0.60029 0.48928 0.0
C1340 C 0.53672 0.6182 0.46689 0.0
H1341 H 0.57011 0.69059 0.30865 0.0
H1342 H 0.56594 0.66149 0.3476 0.0
H1343 H 0.53964 0.66201 0.50216 0.0
H1344 H 0.50634 0.57967 0.57504 0.0
H1345 H 0.51252 0.60913 0.54114 0.0
C1346 C 0.83776 0.5615 0.33633 0.0
C1347 C 0.83195 0.54939 0.29807 0.0
C1348 C 0.85415 0.55917 0.36085 0.0
C1349 C 0.89785 0.53735 0.34726 0.0
H1350 H 0.89987 0.54244 0.49605 0.0
C1351 C 0.96407 0.53855 0.46012 0.0
C1352 C 0.96495 0.52857 0.50547 0.0
C1353 C 0.94789 0.54108 0.43476 0.0
C1354 C 0.8995 0.54088 0.45453 0.0
H1355 H 0.83915 0.52539 0.25547 0.0
H1356 H 0.86786 0.52158 0.29748 0.0
H1357 H 0.87172 0.54707 0.45108 0.0
H1358 H 0.94955 0.51316 0.5595 0.0
H1359 H 0.92115 0.51767 0.51533 0.0
H1360 H 0.92561 0.5311 0.35071 0.0
C1361 C 0.85969 0.53292 0.30834 0.0
C1362 C 0.88342 0.54371 0.42871 0.0
C1363 C 0.84324 0.53516 0.28409 0.0
C1364 C 0.94927 0.52102 0.52477 0.0
C1365 C 0.93301 0.52369 0.49965 0.0
C1366 C 0.91396 0.53469 0.37302 0.0
C1367 C 0.86524 0.54477 0.34745 0.0
C1368 C 0.8824 0.54195 0.37478 0.0
C1369 C 0.93215 0.53371 0.45424 0.0
C1370 C 0.91497 0.53641 0.42696 0.0
H1371 H 0.82963 0.57281 0.34748 0.0
H1372 H 0.85818 0.56871 0.39021 0.0
H1373 H 0.89753 0.53599 0.30568 0.0
H1374 H 0.97594 0.544 0.4433 0.0
H1375 H 0.9477 0.54891 0.39996 0.0
loop_
_geom_bond_atom_site_label_1
_geom_bond_atom_site_label_2
_geom_bond_distance
_geom_bond_site_symmetry_2
_ccdc_geom_bond_type
C0 C1 1.264 . S
C0 C5 1.479 . S
C0 C10 1.465 . S
C1 C0 1.264 . S
C1 C3 1.339 . S
C1 H28 0.931 . S
C2 C3 1.395 . S
C2 C4 1.320 . S
C3 C1 1.339 . S
C3 C2 1.395 . S
C3 H29 0.929 . S
C4 C2 1.320 . S
C4 C5 1.405 . S
C4 H30 0.930 . S
C5 C0 1.479 . S
C5 C4 1.405 . S
C5 H31 0.931 . S
U6 O7 2.454 . S
U6 O8 2.458 . S
U6 C9 2.984 . S
U6 C10 2.847 . S
U6 C23 2.882 . S
U6 O24 2.441 . S
U6 O25 2.420 . S
U6 O26 2.455 . S
U6 O27 2.449 . S
O7 U6 2.454 . S
O7 C9 1.353 . S
O8 U6 2.458 . S
O8 C9 1.286 . S
C9 U6 2.984 . S
C9 O7 1.353 . S
C9 O8 1.286 . S
C9 C11 1.363 . S
C10 C0 1.465 . S
C10 U6 2.847 . S
C10 O24 1.249 . S
C10 O25 1.202 . S
C11 C9 1.363 . S
C11 C13 1.408 . S
C11 C16 1.342 . S
C12 C13 1.310 . S
C12 C15 1.461 . S
C12 H32 0.932 . S
C13 C11 1.408 . S
C13 C12 1.310 . S
C13 H33 0.930 . S
C14 C15 1.474 . S
C14 C16 1.285 . S
C14 H34 0.929 1_554 S
C15 C12 1.461 . S
C15 C14 1.474 . S
C16 C11 1.342 . S
C16 C14 1.285 . S
C16 H35 0.930 . S
C17 C20 1.426 . S
C17 C22 1.237 1_554 S
C17 C23 1.434 . S
C18 C21 1.260 . S
C18 C22 1.477 . S
C18 H36 0.932 . S
C19 C20 1.384 1_556 S
C19 C21 1.479 . S
C19 H37 0.929 . S
C20 C17 1.426 . S
C20 C19 1.384 1_554 S
C20 H38 0.928 . S
C21 C18 1.260 . S
C21 C19 1.479 . S
C22 C17 1.237 1_556 S
C22 C18 1.477 . S
C22 H39 0.932 . S
C23 U6 2.882 . S
C23 C17 1.434 . S
C23 O26 1.301 . S
C23 O27 1.282 . S
O24 U6 2.441 . S
O24 C10 1.249 . S
O25 U6 2.420 . S
O25 C10 1.202 . S
O26 U6 2.455 . S
O26 C23 1.301 . S
O27 U6 2.449 . S
O27 C23 1.282 . S
H28 C1 0.931 . S
H29 C3 0.929 . S
H30 C4 0.930 . S
H31 C5 0.931 . S
H32 C12 0.932 . S
H33 C13 0.930 . S
H34 C14 0.929 1_556 S
H35 C16 0.930 . S
H36 C18 0.932 . S
H37 C19 0.929 . S
H38 C20 0.928 . S
H39 C22 0.932 . S
C40 C41 1.264 . S
C40 C45 1.479 . S
C40 C50 1.465 . S
C41 C40 1.264 . S
C41 C43 1.339 . S
C41 H68 0.931 . S
C42 C43 1.395 . S
C42 C44 1.320 . S
C43 C41 1.339 . S
C43 C42 1.395 . S
C43 H69 0.929 . S
C44 C42 1.320 . S
C44 C45 1.405 . S
C44 H70 0.930 . S
C45 C40 1.479 . S
C45 C44 1.405 . S
C45 H71 0.931 . S
U46 O47 2.454 . S
U46 O48 2.458 . S
U46 C49 2.984 . S
U46 C50 2.847 . S
U46 C63 2.882 . S
U46 O64 2.441 . S
U46 O65 2.420 . S
U46 O66 2.455 . S
U46 O67 2.449 . S
O47 U46 2.454 . S
O47 C49 1.353 . S
O48 U46 2.458 . S
O48 C49 1.286 . S
C49 U46 2.984 . S
C49 O47 1.353 . S
C49 O48 1.286 . S
C49 C51 1.363 . S
C50 C40 1.465 . S
C50 U46 2.847 . S
C50 O64 1.249 . S
C50 O65 1.202 . S
C51 C49 1.363 . S
C51 C53 1.408 . S
C51 C56 1.342 . S
C52 C53 1.310 . S
C52 C55 1.461 . S
C52 H72 0.932 . S
C53 C51 1.408 . S
C53 C52 1.310 . S
C53 H73 0.930 . S
C54 C55 1.474 . S
C54 C56 1.285 . S
C54 H74 0.929 1_554 S
C55 C52 1.461 . S
C55 C54 1.474 . S
C56 C51 1.342 . S
C56 C54 1.285 . S
C56 H75 0.930 . S
C57 C60 1.424 . S
C57 C62 1.245 1_554 S
C57 C63 1.428 . S
C58 C61 1.260 . S
C58 C62 1.477 . S
C58 H76 0.932 . S
C59 C60 1.384 1_556 S
C59 C61 1.479 . S
C59 H77 0.929 . S
C60 C57 1.424 . S
C60 C59 1.384 1_554 S
C60 H78 0.928 . S
C61 C58 1.260 . S
C61 C59 1.479 . S
C62 C57 1.245 1_556 S
C62 C58 1.477 . S
C62 H79 0.932 . S
C63 U46 2.882 . S
C63 C57 1.428 . S
C63 O66 1.301 . S
C63 O67 1.282 . S
O64 U46 2.441 . S
O64 C50 1.249 . S
O65 U46 2.420 . S
O65 C50 1.202 . S
O66 U46 2.455 . S
O66 C63 1.301 . S
O67 U46 2.449 . S
O67 C63 1.282 . S
H68 C41 0.931 . S
H69 C43 0.929 . S
H70 C44 0.930 . S
H71 C45 0.931 . S
H72 C52 0.932 . S
H73 C53 0.930 . S
H74 C54 0.929 1_556 S
H75 C56 0.930 . S
H76 C58 0.932 . S
H77 C59 0.929 . S
H78 C60 0.928 . S
H79 C62 0.932 . S
C80 C81 1.264 . S
C80 C85 1.479 . S
C80 C90 1.465 . S
C81 C80 1.264 . S
C81 C83 1.339 . S
C81 H108 0.931 . S
C82 C83 1.395 . S
C82 C84 1.320 . S
C83 C81 1.339 . S
C83 C82 1.395 . S
C83 H109 0.929 . S
C84 C82 1.320 . S
C84 C85 1.405 . S
C84 H110 0.930 . S
C85 C80 1.479 . S
C85 C84 1.405 . S
C85 H111 0.931 . S
U86 O87 2.454 . S
U86 O88 2.458 . S
U86 C89 2.984 . S
U86 C90 2.847 . S
U86 C103 2.882 . S
U86 O104 2.441 . S
U86 O105 2.420 . S
U86 O106 2.455 . S
U86 O107 2.449 . S
O87 U86 2.454 . S
O87 C89 1.353 . S
O88 U86 2.458 . S
O88 C89 1.286 . S
C89 U86 2.984 . S
C89 O87 1.353 . S
C89 O88 1.286 . S
C89 C91 1.363 . S
C90 C80 1.465 . S
C90 U86 2.847 . S
C90 O104 1.249 . S
C90 O105 1.202 . S
C91 C89 1.363 . S
C91 C93 1.408 . S
C91 C96 1.342 . S
C92 C93 1.310 . S
C92 C95 1.461 . S
C92 H112 0.932 . S
C93 C91 1.408 . S
C93 C92 1.310 . S
C93 H113 0.930 . S
C94 C95 1.474 . S
C94 C96 1.285 . S
C94 H114 0.929 1_554 S
C95 C92 1.461 . S
C95 C94 1.474 . S
C96 C91 1.342 . S
C96 C94 1.285 . S
C96 H115 0.930 . S
C97 C100 1.424 . S
C97 C102 1.245 1_554 S
C97 C103 1.428 . S
C98 C101 1.260 . S
C98 C102 1.477 . S
C98 H116 0.932 . S
C99 C100 1.384 1_556 S
C99 C101 1.479 . S
C99 H117 0.929 . S
C100 C97 1.424 . S
C100 C99 1.384 1_554 S
C100 H118 0.928 . S
C101 C98 1.260 . S
C101 C99 1.479 . S
C102 C97 1.245 1_556 S
C102 C98 1.477 . S
C102 H119 0.932 . S
C103 U86 2.882 . S
C103 C97 1.428 . S
C103 O106 1.301 . S
C103 O107 1.282 . S
O104 U86 2.441 . S
O104 C90 1.249 . S
O105 U86 2.420 . S
O105 C90 1.202 . S
O106 U86 2.455 . S
O106 C103 1.301 . S
O107 U86 2.449 . S
O107 C103 1.282 . S
H108 C81 0.931 . S
H109 C83 0.929 . S
H110 C84 0.930 . S
H111 C85 0.931 . S
H112 C92 0.932 . S
H113 C93 0.930 . S
H114 C94 0.929 1_556 S
H115 C96 0.930 . S
H116 C98 0.932 . S
H117 C99 0.929 . S
H118 C100 0.928 . S
H119 C102 0.932 . S
C120 C121 1.264 . S
C120 C125 1.479 . S
C120 C130 1.465 . S
C121 C120 1.264 . S
C121 C123 1.339 . S
C121 H148 0.931 . S
C122 C123 1.395 . S
C122 C124 1.320 . S
C123 C121 1.339 . S
C123 C122 1.395 . S
C123 H149 0.929 . S
C124 C122 1.320 . S
C124 C125 1.405 . S
C124 H150 0.930 . S
C125 C120 1.479 . S
C125 C124 1.405 . S
C125 H151 0.931 . S
U126 O127 2.454 . S
U126 O128 2.458 . S
U126 C129 2.984 . S
U126 C130 2.847 . S
U126 C143 2.882 . S
U126 O144 2.441 . S
U126 O145 2.420 . S
U126 O146 2.455 . S
U126 O147 2.449 . S
O127 U126 2.454 . S
O127 C129 1.353 . S
O128 U126 2.458 . S
O128 C129 1.286 . S
C129 U126 2.984 . S
C129 O127 1.353 . S
C129 O128 1.286 . S
C129 C131 1.363 . S
C130 C120 1.465 . S
C130 U126 2.847 . S
C130 O144 1.249 . S
C130 O145 1.202 . S
C131 C129 1.363 . S
C131 C133 1.408 . S
C131 C136 1.342 . S
C132 C133 1.310 . S
C132 C135 1.461 . S
C132 H152 0.932 . S
C133 C131 1.408 . S
C133 C132 1.310 . S
C133 H153 0.930 . S
C134 C135 1.474 . S
C134 C136 1.285 . S
C134 H154 0.929 1_554 S
C135 C132 1.461 . S
C135 C134 1.474 . S
C136 C131 1.342 . S
C136 C134 1.285 . S
C136 H155 0.930 . S
C137 C140 1.424 . S
C137 C142 1.245 1_554 S
C137 C143 1.428 . S
C138 C141 1.260 . S
C138 C142 1.477 . S
C138 H156 0.932 . S
C139 C140 1.384 1_556 S
C139 C141 1.479 . S
C139 H157 0.929 . S
C140 C137 1.424 . S
C140 C139 1.384 1_554 S
C140 H158 0.928 . S
C141 C138 1.260 . S
C141 C139 1.479 . S
C142 C137 1.245 1_556 S
C142 C138 1.477 . S
C142 H159 0.932 . S
C143 U126 2.882 . S
C143 C137 1.428 . S
C143 O146 1.301 . S
C143 O147 1.282 . S
O144 U126 2.441 . S
O144 C130 1.249 . S
O145 U126 2.420 . S
O145 C130 1.202 . S
O146 U126 2.455 . S
O146 C143 1.301 . S
O147 U126 2.449 . S
O147 C143 1.282 . S
H148 C121 0.931 . S
H149 C123 0.929 . S
H150 C124 0.930 . S
H151 C125 0.931 . S
H152 C132 0.932 . S
H153 C133 0.930 . S
H154 C134 0.929 1_556 S
H155 C136 0.930 . S
H156 C138 0.932 . S
H157 C139 0.929 . S
H158 C140 0.928 . S
H159 C142 0.932 . S
C160 C161 1.264 . S
C160 C165 1.479 . S
C160 C170 1.465 . S
C161 C160 1.264 . S
C161 C163 1.339 . S
C161 H188 0.931 . S
C162 C163 1.395 . S
C162 C164 1.320 . S
C163 C161 1.339 . S
C163 C162 1.395 . S
C163 H189 0.929 . S
C164 C162 1.320 . S
C164 C165 1.405 . S
C164 H190 0.930 . S
C165 C160 1.479 . S
C165 C164 1.405 . S
C165 H191 0.931 . S
U166 O167 2.454 1_554 S
U166 O168 2.458 . S
U166 C169 2.984 . S
U166 C170 2.847 1_554 S
U166 C183 2.882 . S
U166 O184 2.441 1_554 S
U166 O185 2.420 1_554 S
U166 O186 2.455 . S
U166 O187 2.449 . S
O167 U166 2.454 1_556 S
O167 C169 1.353 1_556 S
O168 U166 2.458 . S
O168 C169 1.286 . S
C169 U166 2.984 . S
C169 O167 1.353 1_554 S
C169 O168 1.286 . S
C169 C171 1.363 . S
C170 C160 1.465 . S
C170 U166 2.847 1_556 S
C170 O184 1.249 . S
C170 O185 1.202 . S
C171 C169 1.363 . S
C171 C173 1.408 . S
C171 C176 1.342 . S
C172 C173 1.310 . S
C172 C175 1.461 . S
C172 H192 0.932 1_554 S
C173 C171 1.408 . S
C173 C172 1.310 . S
C173 H193 0.930 1_554 S
C174 C175 1.474 . S
C174 C176 1.285 . S
C174 H194 0.929 . S
C175 C172 1.461 . S
C175 C174 1.474 . S
C176 C171 1.342 . S
C176 C174 1.285 . S
C176 H195 0.930 . S
C177 C180 1.424 . S
C177 C182 1.245 . S
C177 C183 1.428 . S
C178 C181 1.260 . S
C178 C182 1.477 . S
C178 H196 0.932 . S
C179 C180 1.384 . S
C179 C181 1.479 . S
C179 H197 0.929 . S
C180 C177 1.424 . S
C180 C179 1.384 . S
C180 H198 0.928 . S
C181 C178 1.260 . S
C181 C179 1.479 . S
C182 C177 1.245 . S
C182 C178 1.477 . S
C182 H199 0.932 . S
C183 U166 2.882 . S
C183 C177 1.428 . S
C183 O186 1.301 . S
C183 O187 1.282 . S
O184 U166 2.441 1_556 S
O184 C170 1.249 . S
O185 U166 2.420 1_556 S
O185 C170 1.202 . S
O186 U166 2.455 . S
O186 C183 1.301 . S
O187 U166 2.449 . S
O187 C183 1.282 . S
H188 C161 0.931 . S
H189 C163 0.929 . S
H190 C164 0.930 . S
H191 C165 0.931 . S
H192 C172 0.932 1_556 S
H193 C173 0.930 1_556 S
H194 C174 0.929 . S
H195 C176 0.930 . S
H196 C178 0.932 . S
H197 C179 0.929 . S
H198 C180 0.928 . S
H199 C182 0.932 . S
C200 C201 1.264 . S
C200 C205 1.479 . S
C200 C210 1.465 . S
C201 C200 1.264 . S
C201 C203 1.339 . S
C201 H228 0.931 . S
C202 C203 1.395 . S
C202 C204 1.320 . S
C203 C201 1.339 . S
C203 C202 1.395 . S
C203 H229 0.929 . S
C204 C202 1.320 . S
C204 C205 1.405 . S
C204 H230 0.930 . S
C205 C200 1.479 . S
C205 C204 1.405 . S
C205 H231 0.931 . S
U206 O207 2.450 1_554 S
U206 O208 2.470 . S
U206 C209 2.989 . S
U206 C210 2.829 1_554 S
U206 C223 2.896 . S
U206 O224 2.422 1_554 S
U206 O225 2.406 1_554 S
U206 O226 2.473 . S
U206 O227 2.456 . S
O207 U206 2.450 1_556 S
O207 C209 1.353 1_556 S
O208 U206 2.470 . S
O208 C209 1.286 . S
C209 U206 2.989 . S
C209 O207 1.353 1_554 S
C209 O208 1.286 . S
C209 C211 1.363 . S
C210 C200 1.465 . S
C210 U206 2.829 1_556 S
C210 O224 1.249 . S
C210 O225 1.202 . S
C211 C209 1.363 . S
C211 C213 1.408 . S
C211 C216 1.342 . S
C212 C213 1.310 . S
C212 C215 1.461 . S
C212 H232 0.932 1_554 S
C213 C211 1.408 . S
C213 C212 1.310 . S
C213 H233 0.930 1_554 S
C214 C215 1.474 . S
C214 C216 1.285 . S
C214 H234 0.929 . S
C215 C212 1.461 . S
C215 C214 1.474 . S
C216 C211 1.342 . S
C216 C214 1.285 . S
C216 H235 0.930 . S
C217 C220 1.424 . S
C217 C222 1.245 . S
C217 C223 1.428 . S
C218 C221 1.260 . S
C218 C222 1.477 . S
C218 H236 0.932 . S
C219 C220 1.384 . S
C219 C221 1.479 . S
C219 H237 0.929 . S
C220 C217 1.424 . S
C220 C219 1.384 . S
C220 H238 0.928 . S
C221 C218 1.260 . S
C221 C219 1.479 . S
C222 C217 1.245 . S
C222 C218 1.477 . S
C222 H239 0.932 . S
C223 U206 2.896 . S
C223 C217 1.428 . S
C223 O226 1.301 . S
C223 O227 1.282 . S
O224 U206 2.422 1_556 S
O224 C210 1.249 . S
O225 U206 2.406 1_556 S
O225 C210 1.202 . S
O226 U206 2.473 . S
O226 C223 1.301 . S
O227 U206 2.456 . S
O227 C223 1.282 . S
H228 C201 0.931 . S
H229 C203 0.929 . S
H230 C204 0.930 . S
H231 C205 0.931 . S
H232 C212 0.932 1_556 S
H233 C213 0.930 1_556 S
H234 C214 0.929 . S
H235 C216 0.930 . S
H236 C218 0.932 . S
H237 C219 0.929 . S
H238 C220 0.928 . S
H239 C222 0.932 . S
C240 C241 1.264 . S
C240 C245 1.479 . S
C240 C250 1.465 . S
C241 C240 1.264 . S
C241 C243 1.339 . S
C241 H268 0.931 . S
C242 C243 1.395 . S
C242 C244 1.320 . S
C243 C241 1.339 . S
C243 C242 1.395 . S
C243 H269 0.929 . S
C244 C242 1.320 . S
C244 C245 1.405 . S
C244 H270 0.930 . S
C245 C240 1.479 . S
C245 C244 1.405 . S
C245 H271 0.931 . S
U246 O247 2.456 . S
U246 O248 2.452 1_556 S
U246 C249 2.982 1_556 S
U246 C250 2.855 . S
U246 C263 2.876 1_556 S
U246 O264 2.449 . S
U246 O265 2.427 . S
U246 O266 2.447 1_556 S
U246 O267 2.446 1_556 S
O247 U246 2.456 . S
O247 C249 1.353 1_556 S
O248 U246 2.452 1_554 S
O248 C249 1.286 . S
C249 U246 2.982 1_554 S
C249 O247 1.353 1_554 S
C249 O248 1.286 . S
C249 C251 1.363 . S
C250 C240 1.465 . S
C250 U246 2.855 . S
C250 O264 1.249 . S
C250 O265 1.202 . S
C251 C249 1.363 . S
C251 C253 1.408 . S
C251 C256 1.342 . S
C252 C253 1.310 . S
C252 C255 1.461 . S
C252 H272 0.932 1_554 S
C253 C251 1.408 . S
C253 C252 1.310 . S
C253 H273 0.930 1_554 S
C254 C255 1.474 . S
C254 C256 1.285 . S
C254 H274 0.929 . S
C255 C252 1.461 . S
C255 C254 1.474 . S
C256 C251 1.342 . S
C256 C254 1.285 . S
C256 H275 0.930 . S
C257 C260 1.424 . S
C257 C262 1.245 . S
C257 C263 1.428 . S
C258 C261 1.260 . S
C258 C262 1.477 . S
C258 H276 0.932 . S
C259 C260 1.384 . S
C259 C261 1.479 . S
C259 H277 0.929 . S
C260 C257 1.424 . S
C260 C259 1.384 . S
C260 H278 0.928 . S
C261 C258 1.260 . S
C261 C259 1.479 . S
C262 C257 1.245 . S
C262 C258 1.477 . S
C262 H279 0.932 . S
C263 U246 2.876 1_554 S
C263 C257 1.428 . S
C263 O266 1.301 . S
C263 O267 1.282 . S
O264 U246 2.449 . S
O264 C250 1.249 . S
O265 U246 2.427 . S
O265 C250 1.202 . S
O266 U246 2.447 1_554 S
O266 C263 1.301 . S
O267 U246 2.446 1_554 S
O267 C263 1.282 . S
H268 C241 0.931 . S
H269 C243 0.929 . S
H270 C244 0.930 . S
H271 C245 0.931 . S
H272 C252 0.932 1_556 S
H273 C253 0.930 1_556 S
H274 C254 0.929 . S
H275 C256 0.930 . S
H276 C258 0.932 . S
H277 C259 0.929 . S
H278 C260 0.928 . S
H279 C262 0.932 . S
C280 C281 1.264 . S
C280 C285 1.479 . S
C280 C290 1.465 . S
C281 C280 1.264 . S
C281 C283 1.339 . S
C281 H308 0.931 . S
C282 C283 1.395 . S
C282 C284 1.320 . S
C283 C281 1.339 . S
C283 C282 1.395 . S
C283 H309 0.929 . S
C284 C282 1.320 . S
C284 C285 1.405 . S
C284 H310 0.930 . S
C285 C280 1.479 . S
C285 C284 1.405 . S
C285 H311 0.931 . S
U286 O287 2.454 1_554 S
U286 O288 2.458 . S
U286 C289 2.984 . S
U286 C290 2.847 1_554 S
U286 C303 2.882 . S
U286 O304 2.441 1_554 S
U286 O305 2.420 1_554 S
U286 O306 2.455 . S
U286 O307 2.449 . S
O287 U286 2.454 1_556 S
O287 C289 1.353 1_556 S
O288 U286 2.458 . S
O288 C289 1.286 . S
C289 U286 2.984 . S
C289 O287 1.353 1_554 S
C289 O288 1.286 . S
C289 C291 1.363 . S
C290 C280 1.465 . S
C290 U286 2.847 1_556 S
C290 O304 1.249 . S
C290 O305 1.202 . S
C291 C289 1.363 . S
C291 C293 1.408 . S
C291 C296 1.342 . S
C292 C293 1.310 . S
C292 C295 1.461 . S
C292 H312 0.932 1_554 S
C293 C291 1.408 . S
C293 C292 1.310 . S
C293 H313 0.930 1_554 S
C294 C295 1.474 . S
C294 C296 1.285 . S
C294 H314 0.929 . S
C295 C292 1.461 . S
C295 C294 1.474 . S
C296 C291 1.342 . S
C296 C294 1.285 . S
C296 H315 0.930 . S
C297 C300 1.424 . S
C297 C302 1.245 . S
C297 C303 1.428 . S
C298 C301 1.260 . S
C298 C302 1.477 . S
C298 H316 0.932 . S
C299 C300 1.384 . S
C299 C301 1.479 . S
C299 H317 0.929 . S
C300 C297 1.424 . S
C300 C299 1.384 . S
C300 H318 0.928 . S
C301 C298 1.260 . S
C301 C299 1.479 . S
C302 C297 1.245 . S
C302 C298 1.477 . S
C302 H319 0.932 . S
C303 U286 2.882 . S
C303 C297 1.428 . S
C303 O306 1.301 . S
C303 O307 1.282 . S
O304 U286 2.441 1_556 S
O304 C290 1.249 . S
O305 U286 2.420 1_556 S
O305 C290 1.202 . S
O306 U286 2.455 . S
O306 C303 1.301 . S
O307 U286 2.449 . S
O307 C303 1.282 . S
H308 C281 0.931 . S
H309 C283 0.929 . S
H310 C284 0.930 . S
H311 C285 0.931 . S
H312 C292 0.932 1_556 S
H313 C293 0.930 1_556 S
H314 C294 0.929 . S
H315 C296 0.930 . S
H316 C298 0.932 . S
H317 C299 0.929 . S
H318 C300 0.928 . S
H319 C302 0.932 . S
Eu320 N351 2.657 1_565 S
Eu320 N358 2.609 . S
Eu320 O364 2.558 . S
Eu320 O365 2.612 1_455 S
Eu320 O367 2.339 1_455 S
Eu320 O368 2.563 . S
Eu320 O369 2.419 . S
Eu320 O371 2.380 1_565 S
Eu320 O372 2.432 . S
Eu320 C384 2.848 . S
C321 C324 1.429 . S
C321 C325 1.411 . S
C321 N328 1.377 . S
C322 C324 1.420 1_565 S
C322 C326 1.423 . S
C322 C334 1.392 . S
C323 C325 1.420 1_565 S
C323 C326 1.351 . S
C323 H346 0.931 . S
C324 C321 1.429 . S
C324 C322 1.420 1_545 S
C324 N332 1.362 . S
C325 C321 1.411 . S
C325 C323 1.420 1_545 S
C325 C330 1.395 . S
C326 C322 1.423 . S
C326 C323 1.351 . S
C326 H338 0.930 . S
C327 C329 1.400 . S
C327 C330 1.386 . S
C327 H339 0.930 . S
N328 C321 1.377 . S
N328 C329 1.321 . S
N328 Eu331 2.609 . S
C329 C327 1.400 . S
C329 N328 1.321 . S
C329 H336 0.930 . S
C330 C325 1.395 . S
C330 C327 1.386 . S
C330 H349 0.930 . S
Eu331 N328 2.609 . S
Eu331 N332 2.657 . S
Eu331 O365 2.380 1_545 S
Eu331 O366 2.432 . S
Eu331 O370 2.558 . S
Eu331 O371 2.612 1_655 S
Eu331 O373 2.339 1_655 S
Eu331 O374 2.563 1_655 S
Eu331 O375 2.419 . S
Eu331 C395 2.848 . S
N332 C324 1.362 . S
N332 Eu331 2.657 . S
N332 C333 1.334 1_645 S
C333 N332 1.334 1_465 S
C333 C335 1.413 . S
C333 H340 0.929 . S
C334 C322 1.392 . S
C334 C335 1.367 1_655 S
C334 H342 0.930 . S
C335 C333 1.413 . S
C335 C334 1.367 1_455 S
C335 H337 0.930 . S
H336 C329 0.930 . S
H337 C335 0.930 . S
H338 C326 0.930 . S
H339 C327 0.930 . S
H340 C333 0.929 . S
H341 C355 0.930 1_655 S
H342 C334 0.930 . S
H343 C361 0.930 . S
H344 C352 0.929 1_655 S
H345 C359 0.930 . S
H346 C323 0.931 . S
H347 C353 0.930 . S
H348 C386 0.930 . S
H349 C330 0.930 . S
H350 C385 0.931 . S
N351 Eu320 2.657 1_545 S
N351 C352 1.334 . S
N351 C356 1.362 . S
C352 H344 0.929 1_455 S
C352 N351 1.334 . S
C352 C355 1.413 . S
C353 H347 0.930 . S
C353 C354 1.392 . S
C353 C355 1.367 . S
C354 C353 1.392 . S
C354 C356 1.420 . S
C354 C386 1.423 . S
C355 H341 0.930 1_455 S
C355 C352 1.413 . S
C355 C353 1.367 . S
C356 N351 1.362 . S
C356 C354 1.420 . S
C356 C360 1.429 . S
H357 C362 0.930 . S
N358 Eu320 2.609 . S
N358 C360 1.377 1_565 S
N358 C361 1.321 . S
C359 H345 0.930 . S
C359 C361 1.400 . S
C359 C362 1.386 . S
C360 C356 1.429 . S
C360 N358 1.377 1_545 S
C360 C363 1.411 . S
C361 H343 0.930 . S
C361 N358 1.321 . S
C361 C359 1.400 . S
C362 H357 0.930 . S
C362 C359 1.386 . S
C362 C363 1.395 1_565 S
C363 C360 1.411 . S
C363 C362 1.395 1_545 S
C363 C385 1.420 . S
O364 Eu320 2.558 . S
O364 C384 1.257 . S
O365 Eu320 2.612 1_655 S
O365 Eu331 2.380 1_565 S
O365 C376 1.276 . S
O366 Eu331 2.432 . S
O366 C383 1.264 . S
O367 Eu320 2.339 1_655 S
O367 C383 1.254 1_565 S
O368 Eu320 2.563 . S
O368 C376 1.235 1_455 S
O369 Eu320 2.419 . S
O369 C384 1.249 . S
O370 Eu331 2.558 . S
O370 C395 1.257 . S
O371 Eu320 2.380 1_545 S
O371 Eu331 2.612 1_455 S
O371 C387 1.276 . S
O372 Eu320 2.432 . S
O372 C394 1.264 1_565 S
O373 Eu331 2.339 1_455 S
O373 C394 1.254 . S
O374 Eu331 2.563 1_455 S
O374 C387 1.235 . S
O375 Eu331 2.419 . S
O375 C395 1.249 . S
C376 O365 1.276 . S
C376 O368 1.235 1_655 S
C377 C379 1.393 . S
C377 C381 1.395 . S
C377 C384 1.492 . S
C378 C379 1.392 . S
C378 C380 1.386 . S
C379 C377 1.393 . S
C379 C378 1.392 . S
C379 H396 0.930 1_455 S
C380 C378 1.386 . S
C380 C382 1.395 . S
C380 H397 0.930 . S
C381 C377 1.395 . S
C381 C382 1.379 . S
C381 H398 0.930 . S
C382 C380 1.395 . S
C382 C381 1.379 . S
C382 H399 0.930 . S
C383 O366 1.264 . S
C383 O367 1.254 1_545 S
C384 Eu320 2.848 . S
C384 O364 1.257 . S
C384 O369 1.249 . S
C384 C377 1.492 . S
C385 H350 0.931 . S
C385 C363 1.420 . S
C385 C386 1.351 . S
C386 H348 0.930 . S
C386 C354 1.423 . S
C386 C385 1.351 . S
C387 O371 1.276 . S
C387 O374 1.235 . S
C388 C389 1.391 . S
C388 C392 1.395 . S
C388 C395 1.492 . S
C389 C388 1.391 . S
C389 C390 1.392 . S
C389 H400 0.932 1_655 S
C390 C389 1.392 . S
C390 C391 1.428 . S
C391 C390 1.428 . S
C391 C393 1.395 . S
C391 H401 0.930 . S
C392 C388 1.395 . S
C392 C393 1.379 . S
C392 H402 0.930 . S
C393 C391 1.395 . S
C393 C392 1.379 . S
C393 H403 0.930 . S
C394 O372 1.264 1_545 S
C394 O373 1.254 . S
C395 Eu331 2.848 . S
C395 O370 1.257 . S
C395 O375 1.249 . S
C395 C388 1.492 . S
H396 C379 0.930 1_655 S
H397 C380 0.930 . S
H398 C381 0.930 . S
H399 C382 0.930 . S
H400 C389 0.932 1_455 S
H401 C391 0.930 . S
H402 C392 0.930 . S
H403 C393 0.930 . S
Eu404 N435 2.657 . S
Eu404 N442 2.609 . S
Eu404 O448 2.558 . S
Eu404 O449 2.612 1_545 S
Eu404 O451 2.339 1_545 S
Eu404 O452 2.563 . S
Eu404 O453 2.419 . S
Eu404 O455 2.380 . S
Eu404 O456 2.432 . S
Eu404 C468 2.848 . S
C405 C408 1.429 . S
C405 C409 1.411 . S
C405 N412 1.377 . S
C406 C408 1.420 . S
C406 C410 1.423 . S
C406 C418 1.392 . S
C407 C409 1.420 . S
C407 C410 1.351 . S
C407 H430 0.931 . S
C408 C405 1.429 . S
C408 C406 1.420 . S
C408 N416 1.362 . S
C409 C405 1.411 . S
C409 C407 1.420 . S
C409 C414 1.395 . S
C410 C406 1.423 . S
C410 C407 1.351 . S
C410 H422 0.930 . S
C411 C413 1.400 . S
C411 C414 1.386 . S
C411 H423 0.930 . S
N412 C405 1.377 . S
N412 C413 1.321 . S
N412 Eu415 2.609 . S
C413 C411 1.400 . S
C413 N412 1.321 . S
C413 H420 0.930 . S
C414 C409 1.395 . S
C414 C411 1.386 . S
C414 H433 0.930 . S
Eu415 N412 2.609 . S
Eu415 N416 2.657 . S
Eu415 O449 2.380 . S
Eu415 O450 2.432 . S
Eu415 O454 2.558 . S
Eu415 O455 2.612 1_565 S
Eu415 O457 2.339 1_565 S
Eu415 O458 2.563 1_565 S
Eu415 O459 2.411 1_565 S
Eu415 C479 2.848 . S
N416 C408 1.362 . S
N416 Eu415 2.657 . S
N416 C417 1.334 1_565 S
C417 N416 1.334 1_545 S
C417 C419 1.413 . S
C417 H424 0.929 . S
C418 C406 1.392 . S
C418 C419 1.367 1_565 S
C418 H426 0.930 . S
C419 C417 1.413 . S
C419 C418 1.367 1_545 S
C419 H421 0.930 . S
H420 C413 0.930 . S
H421 C419 0.930 . S
H422 C410 0.930 . S
H423 C411 0.930 . S
H424 C417 0.929 . S
H425 C439 0.930 1_565 S
H426 C418 0.930 . S
H427 C445 0.930 . S
H428 C436 0.929 1_565 S
H429 C443 0.930 . S
H430 C407 0.931 . S
H431 C437 0.930 . S
H432 C470 0.930 . S
H433 C414 0.930 . S
H434 C469 0.931 . S
N435 Eu404 2.657 . S
N435 C436 1.334 . S
N435 C440 1.362 . S
C436 H428 0.929 1_545 S
C436 N435 1.334 . S
C436 C439 1.413 . S
C437 H431 0.930 . S
C437 C438 1.392 . S
C437 C439 1.367 . S
C438 C437 1.392 . S
C438 C440 1.420 . S
C438 C470 1.423 . S
C439 H425 0.930 1_545 S
C439 C436 1.413 . S
C439 C437 1.367 . S
C440 N435 1.362 . S
C440 C438 1.420 . S
C440 C444 1.429 . S
H441 C446 0.930 . S
N442 Eu404 2.609 . S
N442 C444 1.377 . S
N442 C445 1.321 . S
C443 H429 0.930 . S
C443 C445 1.400 . S
C443 C446 1.386 . S
C444 C440 1.429 . S
C444 N442 1.377 . S
C444 C447 1.411 . S
C445 H427 0.930 . S
C445 N442 1.321 . S
C445 C443 1.400 . S
C446 H441 0.930 . S
C446 C443 1.386 . S
C446 C447 1.395 . S
C447 C444 1.411 . S
C447 C446 1.395 . S
C447 C469 1.420 . S
O448 Eu404 2.558 . S
O448 C468 1.257 . S
O449 Eu404 2.612 1_565 S
O449 Eu415 2.380 . S
O449 C460 1.276 . S
O450 Eu415 2.432 . S
O450 C467 1.264 . S
O451 Eu404 2.339 1_565 S
O451 C467 1.254 . S
O452 Eu404 2.563 . S
O452 C460 1.235 1_545 S
O453 Eu404 2.419 . S
O453 C468 1.249 . S
O454 Eu415 2.558 . S
O454 C479 1.257 . S
O455 Eu404 2.380 . S
O455 Eu415 2.612 1_545 S
O455 C471 1.276 . S
O456 Eu404 2.432 . S
O456 C478 1.264 . S
O457 Eu415 2.339 1_545 S
O457 C478 1.254 . S
O458 Eu415 2.563 1_545 S
O458 C471 1.235 . S
O459 Eu415 2.411 1_545 S
O459 C479 1.219 1_545 S
C460 O449 1.276 . S
C460 O452 1.235 1_565 S
C461 C463 1.393 . S
C461 C465 1.395 . S
C461 C468 1.492 . S
C462 C463 1.392 . S
C462 C464 1.386 . S
C463 C461 1.393 . S
C463 C462 1.392 . S
C463 H480 0.962 . S
C464 C462 1.386 . S
C464 C466 1.395 . S
C464 H481 0.930 . S
C465 C461 1.395 . S
C465 C466 1.379 . S
C465 H482 0.930 . S
C466 C464 1.395 . S
C466 C465 1.379 . S
C466 H483 0.930 . S
C467 O450 1.264 . S
C467 O451 1.254 . S
C468 Eu404 2.848 . S
C468 O448 1.257 . S
C468 O453 1.249 . S
C468 C461 1.492 . S
C469 H434 0.931 . S
C469 C447 1.420 . S
C469 C470 1.351 . S
C470 H432 0.930 . S
C470 C438 1.423 . S
C470 C469 1.351 . S
C471 O455 1.276 . S
C471 O458 1.235 . S
C472 C473 1.393 1_565 S
C472 C476 1.395 . S
C472 C479 1.492 . S
C473 C472 1.393 1_545 S
C473 C474 1.393 . S
C473 H484 0.930 . S
C474 C473 1.393 . S
C474 C475 1.378 1_545 S
C475 C474 1.378 1_565 S
C475 C477 1.395 . S
C475 H485 0.930 . S
C476 C472 1.395 . S
C476 C477 1.379 . S
C476 H486 0.930 . S
C477 C475 1.395 . S
C477 C476 1.379 . S
C477 H487 0.930 . S
C478 O456 1.264 . S
C478 O457 1.254 . S
C479 Eu415 2.848 . S
C479 O454 1.257 . S
C479 O459 1.219 1_565 S
C479 C472 1.492 . S
H480 C463 0.962 . S
H481 C464 0.930 . S
H482 C465 0.930 . S
H483 C466 0.930 . S
H484 C473 0.930 . S
H485 C475 0.930 . S
H486 C476 0.930 . S
H487 C477 0.930 . S
Eu488 N519 2.657 . S
Eu488 N526 2.609 . S
Eu488 O532 2.558 . S
Eu488 O533 2.612 . S
Eu488 O535 2.339 . S
Eu488 O536 2.563 . S
Eu488 O537 2.419 . S
Eu488 O539 2.380 . S
Eu488 O540 2.432 . S
Eu488 C552 2.848 . S
C489 C492 1.429 . S
C489 C493 1.411 . S
C489 N496 1.377 . S
C490 C492 1.420 . S
C490 C494 1.423 . S
C490 C502 1.392 . S
C491 C493 1.420 . S
C491 C494 1.351 . S
C491 H514 0.931 . S
C492 C489 1.429 . S
C492 C490 1.420 . S
C492 N500 1.362 . S
C493 C489 1.411 . S
C493 C491 1.420 . S
C493 C498 1.395 . S
C494 C490 1.423 . S
C494 C491 1.351 . S
C494 H506 0.930 . S
C495 C497 1.400 . S
C495 C498 1.386 . S
C495 H507 0.930 . S
N496 C489 1.377 . S
N496 C497 1.321 . S
N496 Eu499 2.609 . S
C497 C495 1.400 . S
C497 N496 1.321 . S
C497 H504 0.930 . S
C498 C493 1.395 . S
C498 C495 1.386 . S
C498 H517 0.930 . S
Eu499 N496 2.609 . S
Eu499 N500 2.657 . S
Eu499 O533 2.380 . S
Eu499 O534 2.432 . S
Eu499 O538 2.558 . S
Eu499 O539 2.612 . S
Eu499 O541 2.339 . S
Eu499 O542 2.563 . S
Eu499 O543 2.419 . S
Eu499 C563 2.848 . S
N500 C492 1.362 . S
N500 Eu499 2.657 . S
N500 C501 1.334 . S
C501 N500 1.334 . S
C501 C503 1.413 . S
C501 H508 0.929 . S
C502 C490 1.392 . S
C502 C503 1.367 . S
C502 H510 0.930 . S
C503 C501 1.413 . S
C503 C502 1.367 . S
C503 H505 0.930 . S
H504 C497 0.930 . S
H505 C503 0.930 . S
H506 C494 0.930 . S
H507 C495 0.930 . S
H508 C501 0.929 . S
H509 C523 0.930 . S
H510 C502 0.930 . S
H511 C529 0.930 . S
H512 C520 0.929 . S
H513 C527 0.930 . S
H514 C491 0.931 . S
H515 C521 0.930 . S
H516 C554 0.930 . S
H517 C498 0.930 . S
H518 C553 0.931 . S
N519 Eu488 2.657 . S
N519 C520 1.334 . S
N519 C524 1.362 . S
C520 H512 0.929 . S
C520 N519 1.334 . S
C520 C523 1.413 . S
C521 H515 0.930 . S
C521 C522 1.392 . S
C521 C523 1.367 . S
C522 C521 1.392 . S
C522 C524 1.420 . S
C522 C554 1.423 . S
C523 H509 0.930 . S
C523 C520 1.413 . S
C523 C521 1.367 . S
C524 N519 1.362 . S
C524 C522 1.420 . S
C524 C528 1.429 . S
H525 C530 0.930 . S
N526 Eu488 2.609 . S
N526 C528 1.377 . S
N526 C529 1.321 . S
C527 H513 0.930 . S
C527 C529 1.400 . S
C527 C530 1.386 . S
C528 C524 1.429 . S
C528 N526 1.377 . S
C528 C531 1.411 . S
C529 H511 0.930 . S
C529 N526 1.321 . S
C529 C527 1.400 . S
C530 H525 0.930 . S
C530 C527 1.386 . S
C530 C531 1.395 . S
C531 C528 1.411 . S
C531 C530 1.395 . S
C531 C553 1.420 . S
O532 Eu488 2.558 . S
O532 C552 1.257 . S
O533 Eu488 2.612 . S
O533 Eu499 2.380 . S
O533 C544 1.276 . S
O534 Eu499 2.432 . S
O534 C551 1.264 . S
O535 Eu488 2.339 . S
O535 C551 1.254 . S
O536 Eu488 2.563 . S
O536 C544 1.235 . S
O537 Eu488 2.419 . S
O537 C552 1.249 . S
O538 Eu499 2.558 . S
O538 C563 1.257 . S
O539 Eu488 2.380 . S
O539 Eu499 2.612 . S
O539 C555 1.276 . S
O540 Eu488 2.432 . S
O540 C562 1.264 . S
O541 Eu499 2.339 . S
O541 C562 1.254 . S
O542 Eu499 2.563 . S
O542 C555 1.235 . S
O543 Eu499 2.419 . S
O543 C563 1.249 . S
C544 O533 1.276 . S
C544 O536 1.235 . S
C545 C547 1.393 . S
C545 C549 1.395 . S
C545 C552 1.492 . S
C546 C547 1.392 . S
C546 C548 1.386 . S
C547 C545 1.393 . S
C547 C546 1.392 . S
C547 H564 0.930 . S
C548 C546 1.386 . S
C548 C550 1.395 . S
C548 H565 0.930 . S
C549 C545 1.395 . S
C549 C550 1.379 . S
C549 H566 0.930 . S
C550 C548 1.395 . S
C550 C549 1.379 . S
C550 H567 0.930 . S
C551 O534 1.264 . S
C551 O535 1.254 . S
C552 Eu488 2.848 . S
C552 O532 1.257 . S
C552 O537 1.249 . S
C552 C545 1.492 . S
C553 H518 0.931 . S
C553 C531 1.420 . S
C553 C554 1.351 . S
C554 H516 0.930 . S
C554 C522 1.423 . S
C554 C553 1.351 . S
C555 O539 1.276 . S
C555 O542 1.235 . S
C556 C557 1.393 . S
C556 C560 1.395 . S
C556 C563 1.492 . S
C557 C556 1.393 . S
C557 C558 1.392 . S
C557 H568 0.930 . S
C558 C557 1.392 . S
C558 C559 1.386 . S
C559 C558 1.386 . S
C559 C561 1.395 . S
C559 H569 0.930 . S
C560 C556 1.395 . S
C560 C561 1.379 . S
C560 H570 0.930 . S
C561 C559 1.395 . S
C561 C560 1.379 . S
C561 H571 0.930 . S
C562 O540 1.264 . S
C562 O541 1.254 . S
C563 Eu499 2.848 . S
C563 O538 1.257 . S
C563 O543 1.249 . S
C563 C556 1.492 . S
H564 C547 0.930 . S
H565 C548 0.930 . S
H566 C549 0.930 . S
H567 C550 0.930 . S
H568 C557 0.930 . S
H569 C559 0.930 . S
H570 C560 0.930 . S
H571 C561 0.930 . S
Eu572 N603 2.657 . S
Eu572 N610 2.609 . S
Eu572 O616 2.558 . S
Eu572 O617 2.612 . S
Eu572 O619 2.339 . S
Eu572 O620 2.563 . S
Eu572 O621 2.419 . S
Eu572 O623 2.380 . S
Eu572 O624 2.432 1_455 S
Eu572 C636 2.848 . S
C573 C576 1.429 . S
C573 C577 1.411 . S
C573 N580 1.377 . S
C574 C576 1.420 . S
C574 C578 1.423 . S
C574 C586 1.392 . S
C575 C577 1.420 . S
C575 C578 1.351 . S
C575 H598 0.931 . S
C576 C573 1.429 . S
C576 C574 1.420 . S
C576 N584 1.362 . S
C577 C573 1.411 . S
C577 C575 1.420 . S
C577 C582 1.395 . S
C578 C574 1.423 . S
C578 C575 1.351 . S
C578 H590 0.930 . S
C579 C581 1.400 . S
C579 C582 1.386 1_455 S
C579 H591 0.930 . S
N580 C573 1.377 . S
N580 C581 1.321 1_655 S
N580 Eu583 2.609 . S
C581 C579 1.400 . S
C581 N580 1.321 1_455 S
C581 H588 0.930 . S
C582 C577 1.395 . S
C582 C579 1.386 1_655 S
C582 H601 0.930 . S
Eu583 N580 2.609 . S
Eu583 N584 2.657 . S
Eu583 O617 2.380 1_655 S
Eu583 O618 2.432 1_655 S
Eu583 O622 2.558 . S
Eu583 O623 2.612 1_655 S
Eu583 O625 2.339 . S
Eu583 O626 2.563 . S
Eu583 O627 2.419 . S
Eu583 C647 2.848 . S
N584 C576 1.362 . S
N584 Eu583 2.657 . S
N584 C585 1.334 . S
C585 N584 1.334 . S
C585 C587 1.413 . S
C585 H592 0.929 . S
C586 C574 1.392 . S
C586 C587 1.367 . S
C586 H594 0.930 . S
C587 C585 1.413 . S
C587 C586 1.367 . S
C587 H589 0.930 . S
H588 C581 0.930 . S
H589 C587 0.930 . S
H590 C578 0.930 . S
H591 C579 0.930 . S
H592 C585 0.929 . S
H593 C607 0.930 . S
H594 C586 0.930 . S
H595 C613 0.932 1_655 S
H596 C604 0.929 . S
H597 C611 0.930 1_655 S
H598 C575 0.931 . S
H599 C605 0.930 . S
H600 C638 0.930 . S
H601 C582 0.930 . S
H602 C637 0.931 . S
N603 Eu572 2.657 . S
N603 C604 1.334 . S
N603 C608 1.362 . S
C604 H596 0.929 . S
C604 N603 1.334 . S
C604 C607 1.413 . S
C605 H599 0.930 . S
C605 C606 1.392 . S
C605 C607 1.367 . S
C606 C605 1.392 . S
C606 C608 1.420 . S
C606 C638 1.423 . S
C607 H593 0.930 . S
C607 C604 1.413 . S
C607 C605 1.367 . S
C608 N603 1.362 . S
C608 C606 1.420 . S
C608 C612 1.429 . S
H609 C614 0.930 . S
N610 Eu572 2.609 . S
N610 C612 1.377 . S
N610 C613 1.321 . S
C611 H597 0.930 1_455 S
C611 C613 1.400 . S
C611 C614 1.386 . S
C612 C608 1.429 . S
C612 N610 1.377 . S
C612 C615 1.411 . S
C613 H595 0.932 1_455 S
C613 N610 1.321 . S
C613 C611 1.400 . S
C614 H609 0.930 . S
C614 C611 1.386 . S
C614 C615 1.395 . S
C615 C612 1.411 . S
C615 C614 1.395 . S
C615 C637 1.420 . S
O616 Eu572 2.558 . S
O616 C636 1.257 . S
O617 Eu572 2.612 . S
O617 Eu583 2.380 1_455 S
O617 C628 1.276 . S
O618 Eu583 2.432 1_455 S
O618 C635 1.264 . S
O619 Eu572 2.339 . S
O619 C635 1.254 . S
O620 Eu572 2.563 . S
O620 C628 1.235 . S
O621 Eu572 2.419 . S
O621 C636 1.249 . S
O622 Eu583 2.558 . S
O622 C647 1.257 . S
O623 Eu572 2.380 . S
O623 Eu583 2.612 1_455 S
O623 C639 1.276 1_455 S
O624 Eu572 2.432 1_655 S
O624 C646 1.264 . S
O625 Eu583 2.339 . S
O625 C646 1.254 . S
O626 Eu583 2.563 . S
O626 C639 1.235 . S
O627 Eu583 2.419 . S
O627 C647 1.249 . S
C628 O617 1.276 . S
C628 O620 1.235 . S
C629 C631 1.393 . S
C629 C633 1.395 . S
C629 C636 1.492 . S
C630 C631 1.392 . S
C630 C632 1.386 . S
C631 C629 1.393 . S
C631 C630 1.392 . S
C631 H648 0.930 . S
C632 C630 1.386 . S
C632 C634 1.395 . S
C632 H649 0.930 . S
C633 C629 1.395 . S
C633 C634 1.379 . S
C633 H650 0.930 . S
C634 C632 1.395 . S
C634 C633 1.379 . S
C634 H651 0.930 . S
C635 O618 1.264 . S
C635 O619 1.254 . S
C636 Eu572 2.848 . S
C636 O616 1.257 . S
C636 O621 1.249 . S
C636 C629 1.492 . S
C637 H602 0.931 . S
C637 C615 1.420 . S
C637 C638 1.351 . S
C638 H600 0.930 . S
C638 C606 1.423 . S
C638 C637 1.351 . S
C639 O623 1.276 1_655 S
C639 O626 1.235 . S
C640 C641 1.393 . S
C640 C644 1.395 . S
C640 C647 1.492 . S
C641 C640 1.393 . S
C641 C642 1.392 . S
C641 H652 0.930 . S
C642 C641 1.392 . S
C642 C643 1.386 . S
C643 C642 1.386 . S
C643 C645 1.395 . S
C643 H653 0.930 . S
C644 C640 1.395 . S
C644 C645 1.379 . S
C644 H654 0.930 . S
C645 C643 1.395 . S
C645 C644 1.379 . S
C645 H655 0.930 . S
C646 O624 1.264 . S
C646 O625 1.254 . S
C647 Eu583 2.848 . S
C647 O622 1.257 . S
C647 O627 1.249 . S
C647 C640 1.492 . S
H648 C631 0.930 . S
H649 C632 0.930 . S
H650 C633 0.930 . S
H651 C634 0.930 . S
H652 C641 0.930 . S
H653 C643 0.930 . S
H654 C644 0.930 . S
H655 C645 0.930 . S
C656 C657 1.349 . S
C656 C658 1.327 . S
C656 H681 0.950 . S
C657 C656 1.349 . S
C657 C673 1.349 . S
C658 C656 1.327 . S
C658 C677 1.429 . S
C658 H682 0.950 . S
C659 C676 1.574 . S
C659 C678 1.368 . S
C659 H683 0.949 . S
H660 C664 0.949 . S
C661 C662 1.349 . S
C661 C663 1.327 . S
C661 H684 0.950 1_545 S
C662 C661 1.349 . S
C662 C674 1.349 . S
C663 C661 1.327 . S
C663 C679 1.429 . S
C663 H685 0.950 . S
C664 H660 0.949 . S
C664 C672 1.574 . S
C664 C680 1.368 . S
H665 C673 0.950 . S
H666 C671 0.950 . S
H667 C672 0.949 . S
H668 C674 0.950 . S
H669 C675 0.950 . S
H670 C676 0.949 . S
C671 H666 0.950 . S
C671 C673 1.327 . S
C671 C677 1.429 . S
C672 C664 1.574 . S
C672 H667 0.949 . S
C672 C678 1.368 . S
C673 C657 1.349 . S
C673 H665 0.950 . S
C673 C671 1.327 . S
C674 C662 1.349 . S
C674 H668 0.950 . S
C674 C675 1.327 . S
C675 H669 0.950 . S
C675 C674 1.327 . S
C675 C679 1.429 . S
C676 C659 1.574 . S
C676 H670 0.949 . S
C676 C680 1.368 . S
C677 C658 1.429 . S
C677 C671 1.429 . S
C677 C678 1.523 . S
C678 C659 1.368 . S
C678 C672 1.368 . S
C678 C677 1.523 . S
C679 C663 1.429 . S
C679 C675 1.429 . S
C679 C680 1.523 . S
C680 C664 1.368 . S
C680 C676 1.368 . S
C680 C679 1.523 . S
H681 C656 0.950 . S
H682 C658 0.950 . S
H683 C659 0.949 . S
H684 C661 0.950 1_565 S
H685 C663 0.950 . S
C686 C687 1.349 . S
C686 C688 1.327 . S
C686 H711 0.950 . S
C687 C686 1.349 . S
C687 C703 1.349 . S
C688 C686 1.327 . S
C688 C707 1.429 . S
C688 H712 0.950 . S
C689 C706 1.574 . S
C689 C708 1.368 . S
C689 H713 0.949 . S
H690 C694 0.949 . S
C691 C692 1.349 . S
C691 C693 1.327 . S
C691 H714 0.950 . S
C692 C691 1.349 . S
C692 C704 1.349 . S
C693 C691 1.327 . S
C693 C709 1.429 . S
C693 H715 0.950 . S
C694 H690 0.949 . S
C694 C702 1.574 . S
C694 C710 1.368 . S
H695 C703 0.950 . S
H696 C701 0.950 . S
H697 C702 0.949 . S
H698 C704 0.950 . S
H699 C705 0.950 . S
H700 C706 0.949 . S
C701 H696 0.950 . S
C701 C703 1.327 . S
C701 C707 1.429 . S
C702 C694 1.574 . S
C702 H697 0.949 . S
C702 C708 1.368 . S
C703 C687 1.349 . S
C703 H695 0.950 . S
C703 C701 1.327 . S
C704 C692 1.349 . S
C704 H698 0.950 . S
C704 C705 1.327 . S
C705 H699 0.950 . S
C705 C704 1.327 . S
C705 C709 1.429 . S
C706 C689 1.574 . S
C706 H700 0.949 . S
C706 C710 1.368 . S
C707 C688 1.429 . S
C707 C701 1.429 . S
C707 C708 1.523 . S
C708 C689 1.368 . S
C708 C702 1.368 . S
C708 C707 1.523 . S
C709 C693 1.429 . S
C709 C705 1.429 . S
C709 C710 1.523 . S
C710 C694 1.368 . S
C710 C706 1.368 . S
C710 C709 1.523 . S
H711 C686 0.950 . S
H712 C688 0.950 . S
H713 C689 0.949 . S
H714 C691 0.950 . S
H715 C693 0.950 . S
C716 C717 1.349 . S
C716 C718 1.327 . S
C716 H741 0.950 . S
C717 C716 1.349 . S
C717 C733 1.349 . S
C718 C716 1.327 . S
C718 C737 1.429 . S
C718 H742 0.950 . S
C719 C736 1.574 . S
C719 C738 1.368 . S
C719 H743 0.949 . S
H720 C724 0.949 . S
C721 C722 1.349 . S
C721 C723 1.327 . S
C721 H744 0.950 . S
C722 C721 1.349 . S
C722 C734 1.349 . S
C723 C721 1.327 . S
C723 C739 1.429 . S
C723 H745 0.950 . S
C724 H720 0.949 . S
C724 C732 1.574 . S
C724 C740 1.368 . S
H725 C733 0.950 . S
H726 C731 0.950 . S
H727 C732 0.949 . S
H728 C734 0.950 . S
H729 C735 0.950 . S
H730 C736 0.949 . S
C731 H726 0.950 . S
C731 C733 1.327 . S
C731 C737 1.429 . S
C732 C724 1.574 . S
C732 H727 0.949 . S
C732 C738 1.368 . S
C733 C717 1.349 . S
C733 H725 0.950 . S
C733 C731 1.327 . S
C734 C722 1.349 . S
C734 H728 0.950 . S
C734 C735 1.327 . S
C735 H729 0.950 . S
C735 C734 1.327 . S
C735 C739 1.429 . S
C736 C719 1.574 . S
C736 H730 0.949 . S
C736 C740 1.368 . S
C737 C718 1.429 . S
C737 C731 1.429 . S
C737 C738 1.523 . S
C738 C719 1.368 . S
C738 C732 1.368 . S
C738 C737 1.523 . S
C739 C723 1.429 . S
C739 C735 1.429 . S
C739 C740 1.523 . S
C740 C724 1.368 . S
C740 C736 1.368 . S
C740 C739 1.523 . S
H741 C716 0.950 . S
H742 C718 0.950 . S
H743 C719 0.949 . S
H744 C721 0.950 . S
H745 C723 0.950 . S
C746 C747 1.349 . S
C746 C748 1.327 . S
C746 H771 0.950 . S
C747 C746 1.349 . S
C747 C763 1.349 . S
C748 C746 1.327 . S
C748 C767 1.429 . S
C748 H772 0.950 . S
C749 C766 1.574 . S
C749 C768 1.368 . S
C749 H773 0.949 . S
H750 C754 0.949 . S
C751 C752 1.349 . S
C751 C753 1.327 . S
C751 H774 0.950 . S
C752 C751 1.349 . S
C752 C764 1.349 . S
C753 C751 1.327 . S
C753 C769 1.429 . S
C753 H775 0.950 . S
C754 H750 0.949 . S
C754 C762 1.574 . S
C754 C770 1.368 . S
H755 C763 0.950 . S
H756 C761 0.950 . S
H757 C762 0.949 . S
H758 C764 0.950 . S
H759 C765 0.950 . S
H760 C766 0.949 . S
C761 H756 0.950 . S
C761 C763 1.327 . S
C761 C767 1.429 . S
C762 C754 1.574 . S
C762 H757 0.949 . S
C762 C768 1.368 . S
C763 C747 1.349 . S
C763 H755 0.950 . S
C763 C761 1.327 . S
C764 C752 1.349 . S
C764 H758 0.950 . S
C764 C765 1.327 . S
C765 H759 0.950 . S
C765 C764 1.327 . S
C765 C769 1.429 . S
C766 C749 1.574 . S
C766 H760 0.949 . S
C766 C770 1.368 . S
C767 C748 1.429 . S
C767 C761 1.429 . S
C767 C768 1.523 . S
C768 C749 1.368 . S
C768 C762 1.368 . S
C768 C767 1.523 . S
C769 C753 1.429 . S
C769 C765 1.429 . S
C769 C770 1.523 . S
C770 C754 1.368 . S
C770 C766 1.368 . S
C770 C769 1.523 . S
H771 C746 0.950 . S
H772 C748 0.950 . S
H773 C749 0.949 . S
H774 C751 0.950 . S
H775 C753 0.950 . S
C776 C777 1.349 1_556 S
C776 C778 1.327 . S
C776 H801 0.950 . S
C777 C776 1.349 1_554 S
C777 C793 1.349 . S
C778 C776 1.327 . S
C778 C797 1.429 . S
C778 H802 0.950 . S
C779 C796 1.574 . S
C779 C798 1.368 . S
C779 H803 0.949 . S
H780 C784 0.949 . S
C781 C782 1.349 . S
C781 C783 1.327 . S
C781 H804 0.950 1_565 S
C782 C781 1.349 . S
C782 C794 1.349 . S
C783 C781 1.327 . S
C783 C799 1.429 . S
C783 H805 0.950 . S
C784 H780 0.949 . S
C784 C792 1.574 . S
C784 C800 1.368 . S
H785 C793 0.950 . S
H786 C791 0.950 . S
H787 C792 0.949 . S
H788 C794 0.950 . S
H789 C795 0.950 . S
H790 C796 0.949 . S
C791 H786 0.950 . S
C791 C793 1.327 1_556 S
C791 C797 1.429 . S
C792 C784 1.574 . S
C792 H787 0.949 . S
C792 C798 1.368 . S
C793 C777 1.349 . S
C793 H785 0.950 . S
C793 C791 1.327 1_554 S
C794 C782 1.349 . S
C794 H788 0.950 . S
C794 C795 1.327 . S
C795 H789 0.950 . S
C795 C794 1.327 . S
C795 C799 1.429 . S
C796 C779 1.574 . S
C796 H790 0.949 . S
C796 C800 1.368 . S
C797 C778 1.429 . S
C797 C791 1.429 . S
C797 C798 1.523 . S
C798 C779 1.368 . S
C798 C792 1.368 . S
C798 C797 1.523 . S
C799 C783 1.429 . S
C799 C795 1.429 . S
C799 C800 1.523 . S
C800 C784 1.368 . S
C800 C796 1.368 . S
C800 C799 1.523 . S
H801 C776 0.950 . S
H802 C778 0.950 . S
H803 C779 0.949 . S
H804 C781 0.950 1_545 S
H805 C783 0.950 . S
C806 C807 1.349 1_554 S
C806 C808 1.327 1_554 S
C806 H831 0.950 . S
C807 C806 1.349 1_556 S
C807 C823 1.349 . S
C808 C806 1.327 1_556 S
C808 C827 1.429 . S
C808 H832 0.950 . S
C809 C826 1.574 . S
C809 C828 1.368 . S
C809 H833 0.949 . S
H810 C814 0.949 . S
C811 C812 1.349 . S
C811 C813 1.327 . S
C811 H834 0.950 . S
C812 C811 1.349 . S
C812 C824 1.349 . S
C813 C811 1.327 . S
C813 C829 1.429 . S
C813 H835 0.950 . S
C814 H810 0.949 . S
C814 C822 1.574 . S
C814 C830 1.368 . S
H815 C823 0.950 . S
H816 C821 0.950 . S
H817 C822 0.949 . S
H818 C824 0.950 . S
H819 C825 0.950 . S
H820 C826 0.949 . S
C821 H816 0.950 . S
C821 C823 1.327 . S
C821 C827 1.429 . S
C822 C814 1.574 . S
C822 H817 0.949 . S
C822 C828 1.368 . S
C823 C807 1.349 . S
C823 H815 0.950 . S
C823 C821 1.327 . S
C824 C812 1.349 . S
C824 H818 0.950 . S
C824 C825 1.327 . S
C825 H819 0.950 . S
C825 C824 1.327 . S
C825 C829 1.429 . S
C826 C809 1.574 . S
C826 H820 0.949 . S
C826 C830 1.368 . S
C827 C808 1.429 . S
C827 C821 1.429 . S
C827 C828 1.523 . S
C828 C809 1.368 . S
C828 C822 1.368 . S
C828 C827 1.523 . S
C829 C813 1.429 . S
C829 C825 1.429 . S
C829 C830 1.523 . S
C830 C814 1.368 . S
C830 C826 1.368 . S
C830 C829 1.523 . S
H831 C806 0.950 . S
H832 C808 0.950 . S
H833 C809 0.949 . S
H834 C811 0.950 . S
H835 C813 0.950 . S
C836 C837 1.349 . S
C836 C838 1.327 . S
C836 H861 0.950 . S
C837 C836 1.349 . S
C837 C853 1.349 1_556 S
C838 C836 1.327 . S
C838 C857 1.429 . S
C838 H862 0.950 . S
C839 C856 1.574 . S
C839 C858 1.368 . S
C839 H863 0.949 . S
H840 C844 0.949 . S
C841 C842 1.349 . S
C841 C843 1.327 . S
C841 H864 0.950 . S
C842 C841 1.349 . S
C842 C854 1.349 . S
C843 C841 1.327 . S
C843 C859 1.429 . S
C843 H865 0.950 . S
C844 H840 0.949 . S
C844 C852 1.574 . S
C844 C860 1.368 . S
H845 C853 0.950 . S
H846 C851 0.950 . S
H847 C852 0.949 . S
H848 C854 0.950 . S
H849 C855 0.950 . S
H850 C856 0.949 . S
C851 H846 0.950 . S
C851 C853 1.327 1_556 S
C851 C857 1.429 . S
C852 C844 1.574 . S
C852 H847 0.949 . S
C852 C858 1.368 . S
C853 C837 1.349 1_554 S
C853 H845 0.950 . S
C853 C851 1.327 1_554 S
C854 C842 1.349 . S
C854 H848 0.950 . S
C854 C855 1.327 . S
C855 H849 0.950 . S
C855 C854 1.327 . S
C855 C859 1.429 . S
C856 C839 1.574 . S
C856 H850 0.949 . S
C856 C860 1.368 . S
C857 C838 1.429 . S
C857 C851 1.429 . S
C857 C858 1.523 . S
C858 C839 1.368 . S
C858 C852 1.368 . S
C858 C857 1.523 . S
C859 C843 1.429 . S
C859 C855 1.429 . S
C859 C860 1.523 . S
C860 C844 1.368 . S
C860 C856 1.368 . S
C860 C859 1.523 . S
H861 C836 0.950 . S
H862 C838 0.950 . S
H863 C839 0.949 . S
H864 C841 0.950 . S
H865 C843 0.950 . S
C866 C867 1.349 1_556 S
C866 C868 1.327 . S
C866 H891 0.950 . S
C867 C866 1.349 1_554 S
C867 C883 1.349 . S
C868 C866 1.327 . S
C868 C887 1.429 . S
C868 H892 0.950 . S
C869 C886 1.574 . S
C869 C888 1.368 . S
C869 H893 0.949 . S
H870 C874 0.949 . S
C871 C872 1.349 . S
C871 C873 1.327 . S
C871 H894 0.917 1_655 S
C872 C871 1.349 . S
C872 C884 1.349 . S
C873 C871 1.327 . S
C873 C889 1.429 . S
C873 H895 0.950 . S
C874 H870 0.949 . S
C874 C882 1.574 . S
C874 C890 1.368 . S
H875 C883 0.950 . S
H876 C881 0.950 . S
H877 C882 0.949 . S
H878 C884 0.950 . S
H879 C885 0.950 . S
H880 C886 0.949 . S
C881 H876 0.950 . S
C881 C883 1.327 1_556 S
C881 C887 1.429 . S
C882 C874 1.574 . S
C882 H877 0.949 . S
C882 C888 1.368 . S
C883 C867 1.349 . S
C883 H875 0.950 . S
C883 C881 1.327 1_554 S
C884 C872 1.349 . S
C884 H878 0.950 . S
C884 C885 1.327 . S
C885 H879 0.950 . S
C885 C884 1.327 . S
C885 C889 1.429 . S
C886 C869 1.574 . S
C886 H880 0.949 . S
C886 C890 1.368 . S
C887 C868 1.429 . S
C887 C881 1.429 . S
C887 C888 1.523 . S
C888 C869 1.368 . S
C888 C882 1.368 . S
C888 C887 1.523 . S
C889 C873 1.429 . S
C889 C885 1.429 . S
C889 C890 1.523 . S
C890 C874 1.368 . S
C890 C886 1.368 . S
C890 C889 1.523 . S
H891 C866 0.950 . S
H892 C868 0.950 . S
H893 C869 0.949 . S
H894 C871 0.917 1_455 S
H895 C873 0.950 . S
C896 C897 1.349 . S
C896 C898 1.327 . S
C896 H921 0.950 . S
C897 C896 1.349 . S
C897 C913 1.349 . S
C898 C896 1.327 . S
C898 C917 1.429 . S
C898 H922 0.950 . S
C899 C916 1.574 . S
C899 C918 1.368 . S
C899 H923 0.949 . S
H900 C904 0.949 . S
C901 C902 1.349 . S
C901 C903 1.327 . S
C901 H924 0.950 . S
C902 C901 1.349 . S
C902 C914 1.349 1_455 S
C903 C901 1.327 . S
C903 C919 1.429 . S
C903 H925 0.950 . S
C904 H900 0.949 . S
C904 C912 1.574 . S
C904 C920 1.368 . S
H905 C913 0.950 . S
H906 C911 0.950 . S
H907 C912 0.949 . S
H908 C914 0.950 . S
H909 C915 0.927 1_655 S
H910 C916 0.949 . S
C911 H906 0.950 . S
C911 C913 1.327 . S
C911 C917 1.429 . S
C912 C904 1.574 . S
C912 H907 0.949 . S
C912 C918 1.368 . S
C913 C897 1.349 . S
C913 H905 0.950 . S
C913 C911 1.327 . S
C914 C902 1.349 1_655 S
C914 H908 0.950 . S
C914 C915 1.327 1_655 S
C915 H909 0.927 1_455 S
C915 C914 1.327 1_455 S
C915 C919 1.429 . S
C916 C899 1.574 . S
C916 H910 0.949 . S
C916 C920 1.368 . S
C917 C898 1.429 . S
C917 C911 1.429 . S
C917 C918 1.523 . S
C918 C899 1.368 . S
C918 C912 1.368 . S
C918 C917 1.523 . S
C919 C903 1.429 . S
C919 C915 1.429 . S
C919 C920 1.523 . S
C920 C904 1.368 . S
C920 C916 1.368 . S
C920 C919 1.523 . S
H921 C896 0.950 . S
H922 C898 0.950 . S
H923 C899 0.949 . S
H924 C901 0.950 . S
H925 C903 0.950 . S
C926 C927 1.349 . S
C926 C928 1.327 . S
C926 H951 0.950 . S
C927 C926 1.349 . S
C927 C943 1.349 . S
C928 C926 1.327 . S
C928 C947 1.429 . S
C928 H952 0.950 . S
C929 C946 1.574 . S
C929 C948 1.368 . S
C929 H953 0.949 . S
H930 C934 0.949 . S
C931 C932 1.349 . S
C931 C933 1.327 . S
C931 H954 0.950 1_545 S
C932 C931 1.349 . S
C932 C944 1.349 . S
C933 C931 1.327 . S
C933 C949 1.429 . S
C933 H955 0.950 . S
C934 H930 0.949 . S
C934 C942 1.574 . S
C934 C950 1.368 . S
H935 C943 0.950 . S
H936 C941 0.950 . S
H937 C942 0.949 . S
H938 C944 0.950 . S
H939 C945 0.950 . S
H940 C946 0.949 . S
C941 H936 0.950 . S
C941 C943 1.327 . S
C941 C947 1.429 . S
C942 C934 1.574 . S
C942 H937 0.949 . S
C942 C948 1.368 . S
C943 C927 1.349 . S
C943 H935 0.950 . S
C943 C941 1.327 . S
C944 C932 1.349 . S
C944 H938 0.950 . S
C944 C945 1.327 . S
C945 H939 0.950 . S
C945 C944 1.327 . S
C945 C949 1.429 . S
C946 C929 1.574 . S
C946 H940 0.949 . S
C946 C950 1.368 . S
C947 C928 1.429 . S
C947 C941 1.429 . S
C947 C948 1.523 . S
C948 C929 1.368 . S
C948 C942 1.368 . S
C948 C947 1.523 . S
C949 C933 1.429 . S
C949 C945 1.429 . S
C949 C950 1.523 . S
C950 C934 1.368 . S
C950 C946 1.368 . S
C950 C949 1.523 . S
H951 C926 0.950 . S
H952 C928 0.950 . S
H953 C929 0.949 . S
H954 C931 0.950 1_565 S
H955 C933 0.950 . S
C956 C957 1.349 . S
C956 C958 1.327 . S
C956 H981 0.950 . S
C957 C956 1.349 . S
C957 C973 1.349 . S
C958 C956 1.327 . S
C958 C977 1.429 . S
C958 H982 0.950 . S
C959 C976 1.574 . S
C959 C978 1.368 . S
C959 H983 0.949 . S
H960 C964 0.949 . S
C961 C962 1.349 . S
C961 C963 1.327 . S
C961 H984 0.950 . S
C962 C961 1.349 . S
C962 C974 1.349 . S
C963 C961 1.327 . S
C963 C979 1.429 . S
C963 H985 0.950 . S
C964 H960 0.949 . S
C964 C972 1.574 . S
C964 C980 1.368 . S
H965 C973 0.950 . S
H966 C971 0.950 . S
H967 C972 0.949 . S
H968 C974 0.950 . S
H969 C975 0.950 . S
H970 C976 0.949 . S
C971 H966 0.950 . S
C971 C973 1.327 . S
C971 C977 1.429 . S
C972 C964 1.574 . S
C972 H967 0.949 . S
C972 C978 1.368 . S
C973 C957 1.349 . S
C973 H965 0.950 . S
C973 C971 1.327 . S
C974 C962 1.349 . S
C974 H968 0.950 . S
C974 C975 1.327 . S
C975 H969 0.950 . S
C975 C974 1.327 . S
C975 C979 1.429 . S
C976 C959 1.574 . S
C976 H970 0.949 . S
C976 C980 1.368 . S
C977 C958 1.429 . S
C977 C971 1.429 . S
C977 C978 1.523 . S
C978 C959 1.368 . S
C978 C972 1.368 . S
C978 C977 1.523 . S
C979 C963 1.429 . S
C979 C975 1.429 . S
C979 C980 1.523 . S
C980 C964 1.368 . S
C980 C976 1.368 . S
C980 C979 1.523 . S
H981 C956 0.950 . S
H982 C958 0.950 . S
H983 C959 0.949 . S
H984 C961 0.950 . S
H985 C963 0.950 . S
C986 C987 1.349 . S
C986 C988 1.327 . S
C986 H1011 0.950 . S
C987 C986 1.349 . S
C987 C1003 1.349 . S
C988 C986 1.327 . S
C988 C1007 1.429 . S
C988 H1012 0.950 . S
C989 C1006 1.574 . S
C989 C1008 1.368 . S
C989 H1013 0.949 . S
H990 C994 0.949 . S
C991 C992 1.349 . S
C991 C993 1.327 . S
C991 H1014 0.950 . S
C992 C991 1.349 . S
C992 C1004 1.349 . S
C993 C991 1.327 . S
C993 C1009 1.429 . S
C993 H1015 0.950 . S
C994 H990 0.949 . S
C994 C1002 1.574 . S
C994 C1010 1.368 . S
H995 C1003 0.950 . S
H996 C1001 0.950 . S
H997 C1002 0.949 . S
H998 C1004 0.950 . S
H999 C1005 0.950 . S
H1000 C1006 0.949 . S
C1001 H996 0.950 . S
C1001 C1003 1.327 . S
C1001 C1007 1.429 . S
C1002 C994 1.574 . S
C1002 H997 0.949 . S
C1002 C1008 1.368 . S
C1003 C987 1.349 . S
C1003 H995 0.950 . S
C1003 C1001 1.327 . S
C1004 C992 1.349 . S
C1004 H998 0.950 . S
C1004 C1005 1.327 . S
C1005 H999 0.950 . S
C1005 C1004 1.327 . S
C1005 C1009 1.429 . S
C1006 C989 1.574 . S
C1006 H1000 0.949 . S
C1006 C1010 1.368 . S
C1007 C988 1.429 . S
C1007 C1001 1.429 . S
C1007 C1008 1.523 . S
C1008 C989 1.368 . S
C1008 C1002 1.368 . S
C1008 C1007 1.523 . S
C1009 C993 1.429 . S
C1009 C1005 1.429 . S
C1009 C1010 1.523 . S
C1010 C994 1.368 . S
C1010 C1006 1.368 . S
C1010 C1009 1.523 . S
H1011 C986 0.950 . S
H1012 C988 0.950 . S
H1013 C989 0.949 . S
H1014 C991 0.950 . S
H1015 C993 0.950 . S
C1016 C1017 1.349 . S
C1016 C1018 1.327 . S
C1016 H1041 0.950 . S
C1017 C1016 1.349 . S
C1017 C1033 1.349 . S
C1018 C1016 1.327 . S
C1018 C1037 1.429 . S
C1018 H1042 0.950 . S
C1019 C1036 1.574 . S
C1019 C1038 1.368 . S
C1019 H1043 0.949 . S
H1020 C1024 0.949 . S
C1021 C1022 1.349 . S
C1021 C1023 1.327 . S
C1021 H1044 0.950 . S
C1022 C1021 1.349 . S
C1022 C1034 1.349 1_455 S
C1023 C1021 1.327 . S
C1023 C1039 1.429 1_455 S
C1023 H1045 0.950 . S
C1024 H1020 0.949 . S
C1024 C1032 1.574 . S
C1024 C1040 1.368 . S
H1025 C1033 0.950 . S
H1026 C1031 0.950 . S
H1027 C1032 0.949 . S
H1028 C1034 0.950 . S
H1029 C1035 0.950 . S
H1030 C1036 0.949 . S
C1031 H1026 0.950 . S
C1031 C1033 1.327 . S
C1031 C1037 1.429 . S
C1032 C1024 1.574 . S
C1032 H1027 0.949 . S
C1032 C1038 1.368 . S
C1033 C1017 1.349 . S
C1033 H1025 0.950 . S
C1033 C1031 1.327 . S
C1034 C1022 1.349 1_655 S
C1034 H1028 0.950 . S
C1034 C1035 1.327 . S
C1035 H1029 0.950 . S
C1035 C1034 1.327 . S
C1035 C1039 1.429 . S
C1036 C1019 1.574 . S
C1036 H1030 0.949 . S
C1036 C1040 1.368 . S
C1037 C1018 1.429 . S
C1037 C1031 1.429 . S
C1037 C1038 1.523 . S
C1038 C1019 1.368 . S
C1038 C1032 1.368 . S
C1038 C1037 1.523 . S
C1039 C1023 1.429 1_655 S
C1039 C1035 1.429 . S
C1039 C1040 1.523 . S
C1040 C1024 1.368 . S
C1040 C1036 1.368 . S
C1040 C1039 1.523 . S
H1041 C1016 0.950 . S
H1042 C1018 0.950 . S
H1043 C1019 0.949 . S
H1044 C1021 0.950 . S
H1045 C1023 0.950 . S
C1046 C1047 1.349 . S
C1046 C1048 1.327 . S
C1046 H1071 0.950 . S
C1047 C1046 1.349 . S
C1047 C1063 1.349 . S
C1048 C1046 1.327 . S
C1048 C1067 1.429 . S
C1048 H1072 0.950 . S
C1049 C1066 1.574 . S
C1049 C1068 1.368 . S
C1049 H1073 0.949 . S
H1050 C1054 0.949 . S
C1051 C1052 1.349 . S
C1051 C1053 1.327 . S
C1051 H1074 0.950 . S
C1052 C1051 1.349 . S
C1052 C1064 1.349 1_545 S
C1053 C1051 1.327 . S
C1053 C1069 1.429 1_545 S
C1053 H1075 0.950 . S
C1054 H1050 0.949 . S
C1054 C1062 1.574 . S
C1054 C1070 1.368 . S
H1055 C1063 0.950 . S
H1056 C1061 0.950 . S
H1057 C1062 0.949 . S
H1058 C1064 0.950 . S
H1059 C1065 0.950 . S
H1060 C1066 0.949 . S
C1061 H1056 0.950 . S
C1061 C1063 1.327 . S
C1061 C1067 1.429 . S
C1062 C1054 1.574 . S
C1062 H1057 0.949 . S
C1062 C1068 1.368 . S
C1063 C1047 1.349 . S
C1063 H1055 0.950 . S
C1063 C1061 1.327 . S
C1064 C1052 1.349 1_565 S
C1064 H1058 0.950 . S
C1064 C1065 1.327 . S
C1065 H1059 0.950 . S
C1065 C1064 1.327 . S
C1065 C1069 1.429 . S
C1066 C1049 1.574 . S
C1066 H1060 0.949 . S
C1066 C1070 1.368 . S
C1067 C1048 1.429 . S
C1067 C1061 1.429 . S
C1067 C1068 1.523 . S
C1068 C1049 1.368 . S
C1068 C1062 1.368 . S
C1068 C1067 1.523 . S
C1069 C1053 1.429 1_565 S
C1069 C1065 1.429 . S
C1069 C1070 1.523 . S
C1070 C1054 1.368 . S
C1070 C1066 1.368 . S
C1070 C1069 1.523 . S
H1071 C1046 0.950 . S
H1072 C1048 0.950 . S
H1073 C1049 0.949 . S
H1074 C1051 0.950 . S
H1075 C1053 0.950 . S
C1076 C1077 1.349 . S
C1076 C1078 1.327 . S
C1076 H1101 0.950 . S
C1077 C1076 1.349 . S
C1077 C1093 1.349 . S
C1078 C1076 1.327 . S
C1078 C1097 1.429 . S
C1078 H1102 0.950 . S
C1079 C1096 1.574 . S
C1079 C1098 1.368 . S
C1079 H1103 0.949 . S
H1080 C1084 0.949 . S
C1081 C1082 1.349 . S
C1081 C1083 1.327 . S
C1081 H1104 0.950 . S
C1082 C1081 1.349 . S
C1082 C1094 1.349 . S
C1083 C1081 1.327 . S
C1083 C1099 1.429 . S
C1083 H1105 0.950 . S
C1084 H1080 0.949 . S
C1084 C1092 1.574 . S
C1084 C1100 1.368 . S
H1085 C1093 0.950 . S
H1086 C1091 0.950 . S
H1087 C1092 0.949 . S
H1088 C1094 0.950 . S
H1089 C1095 0.950 . S
H1090 C1096 0.949 . S
C1091 H1086 0.950 . S
C1091 C1093 1.327 . S
C1091 C1097 1.429 . S
C1092 C1084 1.574 . S
C1092 H1087 0.949 . S
C1092 C1098 1.368 . S
C1093 C1077 1.349 . S
C1093 H1085 0.950 . S
C1093 C1091 1.327 . S
C1094 C1082 1.349 . S
C1094 H1088 0.950 . S
C1094 C1095 1.327 . S
C1095 H1089 0.950 . S
C1095 C1094 1.327 . S
C1095 C1099 1.429 . S
C1096 C1079 1.574 . S
C1096 H1090 0.949 . S
C1096 C1100 1.368 . S
C1097 C1078 1.429 . S
C1097 C1091 1.429 . S
C1097 C1098 1.523 . S
C1098 C1079 1.368 . S
C1098 C1092 1.368 . S
C1098 C1097 1.523 . S
C1099 C1083 1.429 . S
C1099 C1095 1.429 . S
C1099 C1100 1.523 . S
C1100 C1084 1.368 . S
C1100 C1096 1.368 . S
C1100 C1099 1.523 . S
H1101 C1076 0.950 . S
H1102 C1078 0.950 . S
H1103 C1079 0.949 . S
H1104 C1081 0.950 . S
H1105 C1083 0.950 . S
C1106 C1107 1.349 . S
C1106 C1108 1.327 . S
C1106 H1131 0.950 . S
C1107 C1106 1.349 . S
C1107 C1123 1.349 . S
C1108 C1106 1.327 . S
C1108 C1127 1.429 . S
C1108 H1132 0.950 . S
C1109 C1126 1.574 . S
C1109 C1128 1.368 . S
C1109 H1133 0.949 . S
H1110 C1114 0.949 . S
C1111 C1112 1.349 . S
C1111 C1113 1.327 . S
C1111 H1134 0.950 . S
C1112 C1111 1.349 . S
C1112 C1124 1.349 . S
C1113 C1111 1.327 . S
C1113 C1129 1.429 . S
C1113 H1135 0.950 . S
C1114 H1110 0.949 . S
C1114 C1122 1.574 . S
C1114 C1130 1.368 . S
H1115 C1123 0.950 . S
H1116 C1121 0.950 . S
H1117 C1122 0.949 . S
H1118 C1124 0.950 . S
H1119 C1125 0.950 . S
H1120 C1126 0.949 . S
C1121 H1116 0.950 . S
C1121 C1123 1.327 . S
C1121 C1127 1.429 . S
C1122 C1114 1.574 . S
C1122 H1117 0.949 . S
C1122 C1128 1.368 . S
C1123 C1107 1.349 . S
C1123 H1115 0.950 . S
C1123 C1121 1.327 . S
C1124 C1112 1.349 . S
C1124 H1118 0.950 . S
C1124 C1125 1.327 . S
C1125 H1119 0.950 . S
C1125 C1124 1.327 . S
C1125 C1129 1.429 . S
C1126 C1109 1.574 . S
C1126 H1120 0.949 . S
C1126 C1130 1.368 . S
C1127 C1108 1.429 . S
C1127 C1121 1.429 . S
C1127 C1128 1.523 . S
C1128 C1109 1.368 . S
C1128 C1122 1.368 . S
C1128 C1127 1.523 . S
C1129 C1113 1.429 . S
C1129 C1125 1.429 . S
C1129 C1130 1.523 . S
C1130 C1114 1.368 . S
C1130 C1126 1.368 . S
C1130 C1129 1.523 . S
H1131 C1106 0.950 . S
H1132 C1108 0.950 . S
H1133 C1109 0.949 . S
H1134 C1111 0.950 . S
H1135 C1113 0.950 . S
C1136 C1137 1.349 . S
C1136 C1138 1.327 . S
C1136 H1161 0.950 . S
C1137 C1136 1.349 . S
C1137 C1153 1.349 . S
C1138 C1136 1.327 . S
C1138 C1157 1.429 . S
C1138 H1162 0.950 . S
C1139 C1156 1.574 . S
C1139 C1158 1.368 . S
C1139 H1163 0.949 . S
H1140 C1144 0.949 . S
C1141 C1142 1.349 . S
C1141 C1143 1.327 . S
C1141 H1164 0.950 . S
C1142 C1141 1.349 . S
C1142 C1154 1.349 . S
C1143 C1141 1.327 . S
C1143 C1159 1.429 . S
C1143 H1165 0.950 . S
C1144 H1140 0.949 . S
C1144 C1152 1.574 . S
C1144 C1160 1.368 . S
H1145 C1153 0.950 . S
H1146 C1151 0.950 . S
H1147 C1152 0.949 . S
H1148 C1154 0.950 . S
H1149 C1155 0.950 . S
H1150 C1156 0.949 . S
C1151 H1146 0.950 . S
C1151 C1153 1.327 . S
C1151 C1157 1.429 . S
C1152 C1144 1.574 . S
C1152 H1147 0.949 . S
C1152 C1158 1.368 . S
C1153 C1137 1.349 . S
C1153 H1145 0.950 . S
C1153 C1151 1.327 . S
C1154 C1142 1.349 . S
C1154 H1148 0.950 . S
C1154 C1155 1.327 . S
C1155 H1149 0.950 . S
C1155 C1154 1.327 . S
C1155 C1159 1.429 . S
C1156 C1139 1.574 . S
C1156 H1150 0.949 . S
C1156 C1160 1.368 . S
C1157 C1138 1.429 . S
C1157 C1151 1.429 . S
C1157 C1158 1.523 . S
C1158 C1139 1.368 . S
C1158 C1152 1.368 . S
C1158 C1157 1.523 . S
C1159 C1143 1.429 . S
C1159 C1155 1.429 . S
C1159 C1160 1.523 . S
C1160 C1144 1.368 . S
C1160 C1156 1.368 . S
C1160 C1159 1.523 . S
H1161 C1136 0.950 . S
H1162 C1138 0.950 . S
H1163 C1139 0.949 . S
H1164 C1141 0.950 . S
H1165 C1143 0.950 . S
C1166 C1167 1.349 . S
C1166 C1168 1.327 . S
C1166 H1191 0.950 . S
C1167 C1166 1.349 . S
C1167 C1183 1.349 . S
C1168 C1166 1.327 . S
C1168 C1187 1.429 . S
C1168 H1192 0.950 . S
C1169 C1186 1.574 . S
C1169 C1188 1.368 . S
C1169 H1193 0.949 . S
H1170 C1174 0.949 . S
C1171 C1172 1.349 . S
C1171 C1173 1.327 . S
C1171 H1194 0.950 . S
C1172 C1171 1.349 . S
C1172 C1184 1.349 . S
C1173 C1171 1.327 . S
C1173 C1189 1.429 . S
C1173 H1195 0.950 . S
C1174 H1170 0.949 . S
C1174 C1182 1.574 . S
C1174 C1190 1.368 . S
H1175 C1183 0.950 . S
H1176 C1181 0.950 . S
H1177 C1182 0.949 . S
H1178 C1184 0.950 . S
H1179 C1185 0.950 . S
H1180 C1186 0.949 . S
C1181 H1176 0.950 . S
C1181 C1183 1.327 . S
C1181 C1187 1.429 . S
C1182 C1174 1.574 . S
C1182 H1177 0.949 . S
C1182 C1188 1.368 . S
C1183 C1167 1.349 . S
C1183 H1175 0.950 . S
C1183 C1181 1.327 . S
C1184 C1172 1.349 . S
C1184 H1178 0.950 . S
C1184 C1185 1.327 . S
C1185 H1179 0.950 . S
C1185 C1184 1.327 . S
C1185 C1189 1.429 . S
C1186 C1169 1.574 . S
C1186 H1180 0.949 . S
C1186 C1190 1.368 . S
C1187 C1168 1.429 . S
C1187 C1181 1.429 . S
C1187 C1188 1.523 . S
C1188 C1169 1.368 . S
C1188 C1182 1.368 . S
C1188 C1187 1.523 . S
C1189 C1173 1.429 . S
C1189 C1185 1.429 . S
C1189 C1190 1.523 . S
C1190 C1174 1.368 . S
C1190 C1186 1.368 . S
C1190 C1189 1.523 . S
H1191 C1166 0.950 . S
H1192 C1168 0.950 . S
H1193 C1169 0.949 . S
H1194 C1171 0.950 . S
H1195 C1173 0.950 . S
C1196 C1197 1.349 . S
C1196 C1198 1.327 . S
C1196 H1221 0.950 . S
C1197 C1196 1.349 . S
C1197 C1213 1.349 . S
C1198 C1196 1.327 . S
C1198 C1217 1.429 . S
C1198 H1222 0.950 . S
C1199 C1216 1.574 . S
C1199 C1218 1.368 . S
C1199 H1223 0.949 . S
H1200 C1204 0.949 . S
C1201 C1202 1.349 . S
C1201 C1203 1.327 . S
C1201 H1224 0.950 . S
C1202 C1201 1.349 . S
C1202 C1214 1.349 . S
C1203 C1201 1.327 . S
C1203 C1219 1.429 . S
C1203 H1225 0.950 . S
C1204 H1200 0.949 . S
C1204 C1212 1.574 . S
C1204 C1220 1.368 . S
H1205 C1213 0.950 . S
H1206 C1211 0.950 . S
H1207 C1212 0.949 . S
H1208 C1214 0.950 . S
H1209 C1215 0.950 . S
H1210 C1216 0.949 . S
C1211 H1206 0.950 . S
C1211 C1213 1.327 . S
C1211 C1217 1.429 . S
C1212 C1204 1.574 . S
C1212 H1207 0.949 . S
C1212 C1218 1.368 . S
C1213 C1197 1.349 . S
C1213 H1205 0.950 . S
C1213 C1211 1.327 . S
C1214 C1202 1.349 . S
C1214 H1208 0.950 . S
C1214 C1215 1.327 . S
C1215 H1209 0.950 . S
C1215 C1214 1.327 . S
C1215 C1219 1.429 . S
C1216 C1199 1.574 . S
C1216 H1210 0.949 . S
C1216 C1220 1.368 . S
C1217 C1198 1.429 . S
C1217 C1211 1.429 . S
C1217 C1218 1.523 . S
C1218 C1199 1.368 . S
C1218 C1212 1.368 . S
C1218 C1217 1.523 . S
C1219 C1203 1.429 . S
C1219 C1215 1.429 . S
C1219 C1220 1.523 . S
C1220 C1204 1.368 . S
C1220 C1216 1.368 . S
C1220 C1219 1.523 . S
H1221 C1196 0.950 . S
H1222 C1198 0.950 . S
H1223 C1199 0.949 . S
H1224 C1201 0.950 . S
H1225 C1203 0.950 . S
C1226 C1227 1.349 . S
C1226 C1228 1.327 . S
C1226 H1251 0.950 . S
C1227 C1226 1.349 . S
C1227 C1243 1.349 . S
C1228 C1226 1.327 . S
C1228 C1247 1.429 . S
C1228 H1252 0.950 . S
C1229 C1246 1.574 . S
C1229 C1248 1.368 . S
C1229 H1253 0.949 . S
H1230 C1234 0.949 . S
C1231 C1232 1.349 . S
C1231 C1233 1.327 . S
C1231 H1254 0.950 . S
C1232 C1231 1.349 . S
C1232 C1244 1.349 . S
C1233 C1231 1.327 . S
C1233 C1249 1.429 . S
C1233 H1255 0.950 . S
C1234 H1230 0.949 . S
C1234 C1242 1.574 . S
C1234 C1250 1.368 . S
H1235 C1243 0.950 . S
H1236 C1241 0.950 . S
H1237 C1242 0.949 . S
H1238 C1244 0.950 . S
H1239 C1245 0.950 . S
H1240 C1246 0.949 . S
C1241 H1236 0.950 . S
C1241 C1243 1.327 . S
C1241 C1247 1.429 . S
C1242 C1234 1.574 . S
C1242 H1237 0.949 . S
C1242 C1248 1.368 . S
C1243 C1227 1.349 . S
C1243 H1235 0.950 . S
C1243 C1241 1.327 . S
C1244 C1232 1.349 . S
C1244 H1238 0.950 . S
C1244 C1245 1.327 . S
C1245 H1239 0.950 . S
C1245 C1244 1.327 . S
C1245 C1249 1.429 . S
C1246 C1229 1.574 . S
C1246 H1240 0.949 . S
C1246 C1250 1.368 . S
C1247 C1228 1.429 . S
C1247 C1241 1.429 . S
C1247 C1248 1.523 . S
C1248 C1229 1.368 . S
C1248 C1242 1.368 . S
C1248 C1247 1.523 . S
C1249 C1233 1.429 . S
C1249 C1245 1.429 . S
C1249 C1250 1.523 . S
C1250 C1234 1.368 . S
C1250 C1246 1.368 . S
C1250 C1249 1.523 . S
H1251 C1226 0.950 . S
H1252 C1228 0.950 . S
H1253 C1229 0.949 . S
H1254 C1231 0.950 . S
H1255 C1233 0.950 . S
C1256 C1257 1.349 . S
C1256 C1258 1.327 . S
C1256 H1281 0.950 . S
C1257 C1256 1.349 . S
C1257 C1273 1.349 . S
C1258 C1256 1.327 . S
C1258 C1277 1.429 . S
C1258 H1282 0.950 . S
C1259 C1276 1.574 . S
C1259 C1278 1.368 . S
C1259 H1283 0.949 . S
H1260 C1264 0.949 . S
C1261 C1262 1.349 . S
C1261 C1263 1.327 . S
C1261 H1284 0.950 . S
C1262 C1261 1.349 . S
C1262 C1274 1.349 . S
C1263 C1261 1.327 . S
C1263 C1279 1.429 . S
C1263 H1285 0.950 . S
C1264 H1260 0.949 . S
C1264 C1272 1.574 . S
C1264 C1280 1.368 . S
H1265 C1273 0.950 . S
H1266 C1271 0.950 . S
H1267 C1272 0.949 . S
H1268 C1274 0.950 . S
H1269 C1275 0.950 . S
H1270 C1276 0.949 . S
C1271 H1266 0.950 . S
C1271 C1273 1.327 . S
C1271 C1277 1.429 . S
C1272 C1264 1.574 . S
C1272 H1267 0.949 . S
C1272 C1278 1.368 . S
C1273 C1257 1.349 . S
C1273 H1265 0.950 . S
C1273 C1271 1.327 . S
C1274 C1262 1.349 . S
C1274 H1268 0.950 . S
C1274 C1275 1.327 . S
C1275 H1269 0.950 . S
C1275 C1274 1.327 . S
C1275 C1279 1.429 . S
C1276 C1259 1.574 . S
C1276 H1270 0.949 . S
C1276 C1280 1.368 . S
C1277 C1258 1.429 . S
C1277 C1271 1.429 . S
C1277 C1278 1.523 . S
C1278 C1259 1.368 . S
C1278 C1272 1.368 . S
C1278 C1277 1.523 . S
C1279 C1263 1.429 . S
C1279 C1275 1.429 . S
C1279 C1280 1.523 . S
C1280 C1264 1.368 . S
C1280 C1276 1.368 . S
C1280 C1279 1.523 . S
H1281 C1256 0.950 . S
H1282 C1258 0.950 . S
H1283 C1259 0.949 . S
H1284 C1261 0.950 . S
H1285 C1263 0.950 . S
C1286 C1287 1.349 . S
C1286 C1288 1.327 . S
C1286 H1311 0.950 . S
C1287 C1286 1.349 . S
C1287 C1303 1.349 . S
C1288 C1286 1.327 . S
C1288 C1307 1.429 . S
C1288 H1312 0.950 . S
C1289 C1306 1.574 . S
C1289 C1308 1.368 . S
C1289 H1313 0.949 . S
H1290 C1294 0.949 . S
C1291 C1292 1.349 . S
C1291 C1293 1.327 . S
C1291 H1314 0.950 . S
C1292 C1291 1.349 . S
C1292 C1304 1.349 . S
C1293 C1291 1.327 . S
C1293 C1309 1.429 . S
C1293 H1315 0.950 . S
C1294 H1290 0.949 . S
C1294 C1302 1.574 . S
C1294 C1310 1.368 . S
H1295 C1303 0.950 . S
H1296 C1301 0.950 . S
H1297 C1302 0.949 . S
H1298 C1304 0.950 1_545 S
H1299 C1305 0.902 1_545 S
H1300 C1306 0.949 . S
C1301 H1296 0.950 . S
C1301 C1303 1.327 . S
C1301 C1307 1.429 . S
C1302 C1294 1.574 . S
C1302 H1297 0.949 . S
C1302 C1308 1.368 . S
C1303 C1287 1.349 . S
C1303 H1295 0.950 . S
C1303 C1301 1.327 . S
C1304 C1292 1.349 . S
C1304 H1298 0.950 1_565 S
C1304 C1305 1.327 . S
C1305 H1299 0.902 1_565 S
C1305 C1304 1.327 . S
C1305 C1309 1.429 . S
C1306 C1289 1.574 . S
C1306 H1300 0.949 . S
C1306 C1310 1.368 . S
C1307 C1288 1.429 . S
C1307 C1301 1.429 . S
C1307 C1308 1.523 . S
C1308 C1289 1.368 . S
C1308 C1302 1.368 . S
C1308 C1307 1.523 . S
C1309 C1293 1.429 . S
C1309 C1305 1.429 . S
C1309 C1310 1.523 . S
C1310 C1294 1.368 . S
C1310 C1306 1.368 . S
C1310 C1309 1.523 . S
H1311 C1286 0.950 . S
H1312 C1288 0.950 . S
H1313 C1289 0.949 . S
H1314 C1291 0.950 . S
H1315 C1293 0.950 . S
C1316 C1317 1.349 . S
C1316 C1318 1.327 . S
C1316 H1341 0.950 . S
C1317 C1316 1.349 . S
C1317 C1333 1.349 . S
C1318 C1316 1.327 . S
C1318 C1337 1.429 . S
C1318 H1342 0.950 . S
C1319 C1336 1.574 . S
C1319 C1338 1.368 . S
C1319 H1343 0.949 . S
H1320 C1324 0.949 . S
C1321 C1322 1.349 . S
C1321 C1323 1.327 . S
C1321 H1344 0.950 . S
C1322 C1321 1.349 . S
C1322 C1334 1.349 . S
C1323 C1321 1.327 . S
C1323 C1339 1.429 . S
C1323 H1345 0.950 . S
C1324 H1320 0.949 . S
C1324 C1332 1.574 . S
C1324 C1340 1.368 . S
H1325 C1333 0.950 . S
H1326 C1331 0.950 . S
H1327 C1332 0.949 . S
H1328 C1334 0.950 . S
H1329 C1335 0.950 . S
H1330 C1336 0.949 . S
C1331 H1326 0.950 . S
C1331 C1333 1.327 . S
C1331 C1337 1.429 . S
C1332 C1324 1.574 . S
C1332 H1327 0.949 . S
C1332 C1338 1.368 . S
C1333 C1317 1.349 . S
C1333 H1325 0.950 . S
C1333 C1331 1.327 . S
C1334 C1322 1.349 . S
C1334 H1328 0.950 . S
C1334 C1335 1.327 . S
C1335 H1329 0.950 . S
C1335 C1334 1.327 . S
C1335 C1339 1.429 . S
C1336 C1319 1.574 . S
C1336 H1330 0.949 . S
C1336 C1340 1.368 . S
C1337 C1318 1.429 . S
C1337 C1331 1.429 . S
C1337 C1338 1.523 . S
C1338 C1319 1.368 . S
C1338 C1332 1.368 . S
C1338 C1337 1.523 . S
C1339 C1323 1.429 . S
C1339 C1335 1.429 . S
C1339 C1340 1.523 . S
C1340 C1324 1.368 . S
C1340 C1336 1.368 . S
C1340 C1339 1.523 . S
H1341 C1316 0.950 . S
H1342 C1318 0.950 . S
H1343 C1319 0.949 . S
H1344 C1321 0.950 . S
H1345 C1323 0.950 . S
C1346 C1347 1.349 . S
C1346 C1348 1.327 . S
C1346 H1371 0.950 . S
C1347 C1346 1.349 . S
C1347 C1363 1.349 . S
C1348 C1346 1.327 . S
C1348 C1367 1.429 . S
C1348 H1372 0.950 . S
C1349 C1366 1.574 . S
C1349 C1368 1.368 . S
C1349 H1373 0.949 . S
H1350 C1354 0.949 . S
C1351 C1352 1.349 . S
C1351 C1353 1.327 . S
C1351 H1374 0.950 . S
C1352 C1351 1.349 . S
C1352 C1364 1.349 . S
C1353 C1351 1.327 . S
C1353 C1369 1.429 . S
C1353 H1375 0.950 . S
C1354 H1350 0.949 . S
C1354 C1362 1.574 . S
C1354 C1370 1.368 . S
H1355 C1363 0.950 . S
H1356 C1361 0.950 . S
H1357 C1362 0.949 . S
H1358 C1364 0.950 . S
H1359 C1365 0.950 . S
H1360 C1366 0.949 . S
C1361 H1356 0.950 . S
C1361 C1363 1.327 . S
C1361 C1367 1.429 . S
C1362 C1354 1.574 . S
C1362 H1357 0.949 . S
C1362 C1368 1.368 . S
C1363 C1347 1.349 . S
C1363 H1355 0.950 . S
C1363 C1361 1.327 . S
C1364 C1352 1.349 . S
C1364 H1358 0.950 . S
C1364 C1365 1.327 . S
C1365 H1359 0.950 . S
C1365 C1364 1.327 . S
C1365 C1369 1.429 . S
C1366 C1349 1.574 . S
C1366 H1360 0.949 . S
C1366 C1370 1.368 . S
C1367 C1348 1.429 . S
C1367 C1361 1.429 . S
C1367 C1368 1.523 . S
C1368 C1349 1.368 . S
C1368 C1362 1.368 . S
C1368 C1367 1.523 . S
C1369 C1353 1.429 . S
C1369 C1365 1.429 . S
C1369 C1370 1.523 . S
C1370 C1354 1.368 . S
C1370 C1366 1.368 . S
C1370 C1369 1.523 . S
H1371 C1346 0.950 . S
H1372 C1348 0.950 . S
H1373 C1349 0.949 . S
H1374 C1351 0.950 . S
H1375 C1353 0.950 . S
C657 C255 2.164 . S
C662 C394 2.216 . S
C692 C478 2.257 . S
C687 C295 2.201 . S
C722 C544 2.226 . S
C717 C175 2.345 . S
C752 C628 2.199 . S
C747 C215 2.320 . S
C782 C383 2.216 1_565 S
C777 C95 2.157 . S
C807 C135 2.193 1_556 S
C812 C467 2.257 . S
C837 C15 2.337 1_556 S
C842 C555 2.226 . S
C867 C55 2.311 . S
C872 C639 2.199 . S
C902 C390 0.405 1_455 S
C897 C221 0.437 . S
C932 C474 0.419 . S
C927 C261 0.378 . S
C962 C546 0.439 . S
C957 C301 0.366 . S
C987 C181 0.410 . S
C992 C630 0.460 . S
C1017 C61 0.575 . S
C1022 C378 0.451 . S
C1052 C462 0.411 . S
C1047 C101 0.550 . S
C1082 C558 0.439 . S
C1077 C141 0.567 . S
C1107 C21 0.578 . S
C1112 C642 0.460 . S
C1137 C202 2.907 . S
C1142 C387 2.941 . S
C1167 C242 2.849 . S
C1172 C471 2.884 . S
C1202 C551 2.895 . S
C1197 C282 2.716 . S
C1232 C635 2.944 . S
C1227 C162 2.763 . S
C1257 C42 2.829 . S
C1262 C376 2.942 . S
C1292 C460 2.884 . S
C1287 C82 2.777 . S
C1322 C562 2.895 . S
C1317 C122 2.636 . S
C1347 C2 2.679 . S
C1352 C646 2.944 . S
