# Generated by pormake.
# Topology ctn, (3,4)-cn, num edge types: 1
# Building blocks:
#     Node 0, Type 0, BuildingBlock: WUSLED_clean_sbu_0, # of connection points: 3
#     Node 1, Type 0, BuildingBlock: WUSLED_clean_sbu_0, # of connection points: 3
#     Node 2, Type 0, BuildingBlock: WUSLED_clean_sbu_0, # of connection points: 3
#     Node 3, Type 0, BuildingBlock: WUSLED_clean_sbu_0, # of connection points: 3
#     Node 4, Type 0, BuildingBlock: WUSLED_clean_sbu_0, # of connection points: 3
#     Node 5, Type 0, BuildingBlock: WUSLED_clean_sbu_0, # of connection points: 3
#     Node 6, Type 0, BuildingBlock: WUSLED_clean_sbu_0, # of connection points: 3
#     Node 7, Type 0, BuildingBlock: WUSLED_clean_sbu_0, # of connection points: 3
#     Node 8, Type 0, BuildingBlock: WUSLED_clean_sbu_0, # of connection points: 3
#     Node 9, Type 0, BuildingBlock: WUSLED_clean_sbu_0, # of connection points: 3
#     Node 10, Type 0, BuildingBlock: WUSLED_clean_sbu_0, # of connection points: 3
#     Node 11, Type 0, BuildingBlock: WUSLED_clean_sbu_0, # of connection points: 3
#     Node 12, Type 0, BuildingBlock: WUSLED_clean_sbu_0, # of connection points: 3
#     Node 13, Type 0, BuildingBlock: WUSLED_clean_sbu_0, # of connection points: 3
#     Node 14, Type 0, BuildingBlock: WUSLED_clean_sbu_0, # of connection points: 3
#     Node 15, Type 0, BuildingBlock: WUSLED_clean_sbu_0, # of connection points: 3
#     Node 16, Type 1, BuildingBlock: UXUYUI_clean_sbu_0, # of connection points: 4
#     Node 17, Type 1, BuildingBlock: UXUYUI_clean_sbu_0, # of connection points: 4
#     Node 18, Type 1, BuildingBlock: UXUYUI_clean_sbu_0, # of connection points: 4
#     Node 19, Type 1, BuildingBlock: UXUYUI_clean_sbu_0, # of connection points: 4
#     Node 20, Type 1, BuildingBlock: UXUYUI_clean_sbu_0, # of connection points: 4
#     Node 21, Type 1, BuildingBlock: UXUYUI_clean_sbu_0, # of connection points: 4
#     Node 22, Type 1, BuildingBlock: UXUYUI_clean_sbu_0, # of connection points: 4
#     Node 23, Type 1, BuildingBlock: UXUYUI_clean_sbu_0, # of connection points: 4
#     Node 24, Type 1, BuildingBlock: UXUYUI_clean_sbu_0, # of connection points: 4
#     Node 25, Type 1, BuildingBlock: UXUYUI_clean_sbu_0, # of connection points: 4
#     Node 26, Type 1, BuildingBlock: UXUYUI_clean_sbu_0, # of connection points: 4
#     Node 27, Type 1, BuildingBlock: UXUYUI_clean_sbu_0, # of connection points: 4
#     Edge 28, Type (0, 1), BuildingBlock: CIFDUS_clean_linker_0, # of connection points: 2
#     Edge 29, Type (0, 1), BuildingBlock: CIFDUS_clean_linker_0, # of connection points: 2
#     Edge 30, Type (0, 1), BuildingBlock: CIFDUS_clean_linker_0, # of connection points: 2
#     Edge 31, Type (0, 1), BuildingBlock: CIFDUS_clean_linker_0, # of connection points: 2
#     Edge 32, Type (0, 1), BuildingBlock: CIFDUS_clean_linker_0, # of connection points: 2
#     Edge 33, Type (0, 1), BuildingBlock: CIFDUS_clean_linker_0, # of connection points: 2
#     Edge 34, Type (0, 1), BuildingBlock: CIFDUS_clean_linker_0, # of connection points: 2
#     Edge 35, Type (0, 1), BuildingBlock: CIFDUS_clean_linker_0, # of connection points: 2
#     Edge 36, Type (0, 1), BuildingBlock: CIFDUS_clean_linker_0, # of connection points: 2
#     Edge 37, Type (0, 1), BuildingBlock: CIFDUS_clean_linker_0, # of connection points: 2
#     Edge 38, Type (0, 1), BuildingBlock: CIFDUS_clean_linker_0, # of connection points: 2
#     Edge 39, Type (0, 1), BuildingBlock: CIFDUS_clean_linker_0, # of connection points: 2
#     Edge 40, Type (0, 1), BuildingBlock: CIFDUS_clean_linker_0, # of connection points: 2
#     Edge 41, Type (0, 1), BuildingBlock: CIFDUS_clean_linker_0, # of connection points: 2
#     Edge 42, Type (0, 1), BuildingBlock: CIFDUS_clean_linker_0, # of connection points: 2
#     Edge 43, Type (0, 1), BuildingBlock: CIFDUS_clean_linker_0, # of connection points: 2
#     Edge 44, Type (0, 1), BuildingBlock: CIFDUS_clean_linker_0, # of connection points: 2
#     Edge 45, Type (0, 1), BuildingBlock: CIFDUS_clean_linker_0, # of connection points: 2
#     Edge 46, Type (0, 1), BuildingBlock: CIFDUS_clean_linker_0, # of connection points: 2
#     Edge 47, Type (0, 1), BuildingBlock: CIFDUS_clean_linker_0, # of connection points: 2
#     Edge 48, Type (0, 1), BuildingBlock: CIFDUS_clean_linker_0, # of connection points: 2
#     Edge 49, Type (0, 1), BuildingBlock: CIFDUS_clean_linker_0, # of connection points: 2
#     Edge 50, Type (0, 1), BuildingBlock: CIFDUS_clean_linker_0, # of connection points: 2
#     Edge 51, Type (0, 1), BuildingBlock: CIFDUS_clean_linker_0, # of connection points: 2
#     Edge 52, Type (0, 1), BuildingBlock: CIFDUS_clean_linker_0, # of connection points: 2
#     Edge 53, Type (0, 1), BuildingBlock: CIFDUS_clean_linker_0, # of connection points: 2
#     Edge 54, Type (0, 1), BuildingBlock: CIFDUS_clean_linker_0, # of connection points: 2
#     Edge 55, Type (0, 1), BuildingBlock: CIFDUS_clean_linker_0, # of connection points: 2
#     Edge 56, Type (0, 1), BuildingBlock: CIFDUS_clean_linker_0, # of connection points: 2
#     Edge 57, Type (0, 1), BuildingBlock: CIFDUS_clean_linker_0, # of connection points: 2
#     Edge 58, Type (0, 1), BuildingBlock: CIFDUS_clean_linker_0, # of connection points: 2
#     Edge 59, Type (0, 1), BuildingBlock: CIFDUS_clean_linker_0, # of connection points: 2
#     Edge 60, Type (0, 1), BuildingBlock: CIFDUS_clean_linker_0, # of connection points: 2
#     Edge 61, Type (0, 1), BuildingBlock: CIFDUS_clean_linker_0, # of connection points: 2
#     Edge 62, Type (0, 1), BuildingBlock: CIFDUS_clean_linker_0, # of connection points: 2
#     Edge 63, Type (0, 1), BuildingBlock: CIFDUS_clean_linker_0, # of connection points: 2
#     Edge 64, Type (0, 1), BuildingBlock: CIFDUS_clean_linker_0, # of connection points: 2
#     Edge 65, Type (0, 1), BuildingBlock: CIFDUS_clean_linker_0, # of connection points: 2
#     Edge 66, Type (0, 1), BuildingBlock: CIFDUS_clean_linker_0, # of connection points: 2
#     Edge 67, Type (0, 1), BuildingBlock: CIFDUS_clean_linker_0, # of connection points: 2
#     Edge 68, Type (0, 1), BuildingBlock: CIFDUS_clean_linker_0, # of connection points: 2
#     Edge 69, Type (0, 1), BuildingBlock: CIFDUS_clean_linker_0, # of connection points: 2
#     Edge 70, Type (0, 1), BuildingBlock: CIFDUS_clean_linker_0, # of connection points: 2
#     Edge 71, Type (0, 1), BuildingBlock: CIFDUS_clean_linker_0, # of connection points: 2
#     Edge 72, Type (0, 1), BuildingBlock: CIFDUS_clean_linker_0, # of connection points: 2
#     Edge 73, Type (0, 1), BuildingBlock: CIFDUS_clean_linker_0, # of connection points: 2
#     Edge 74, Type (0, 1), BuildingBlock: CIFDUS_clean_linker_0, # of connection points: 2
#     Edge 75, Type (0, 1), BuildingBlock: CIFDUS_clean_linker_0, # of connection points: 2
# Relax obj value: 0.001
# Max RMSD: 0.015
# Mean RMSD: 0.010
data_MOF--net-ctn--node1-WUSLED_clean_sbu_0--node2-UXUYUI_clean_sbu_0--edge1-CIFDUS_clean_linker_0
_symmetry_space_group_name_H-M    P1
_symmetry_Int_Tables_number       1
_symmetry_cell_setting            triclinic
loop_
_symmetry_equiv_pos_as_xyz
'x, y, z'
_cell_length_a     77.760368
_cell_length_b     78.138027
_cell_length_c     78.024265
_cell_angle_alpha  90.737563
_cell_angle_beta   90.002732
_cell_angle_gamma 90.043457
loop_
_atom_site_label
_atom_site_type_symbol
_atom_site_fract_x
_atom_site_fract_y
_atom_site_fract_z
_atom_type_partial_charge
C0 C 0.01561 0.04971 0.08574 0.0
C1 C 0.02402 0.04919 0.1017 0.0
C2 C 0.99706 0.04185 0.11621 0.0
C3 C 0.01487 0.0453 0.11671 0.0
C4 C 0.98883 0.04186 0.10012 0.0
C5 C 0.99797 0.04577 0.08515 0.0
U6 U 0.0506 0.05062 0.04921 0.0
O7 O 0.04671 0.05606 0.0218 0.0
O8 O 0.06251 0.07335 0.03754 0.0
C9 C 0.05543 0.0705 0.02246 0.0
C10 C 0.02427 0.05611 0.06997 0.0
C11 C 0.04835 0.08549 0.01296 0.0
C12 C 0.04991 0.11586 1.00561 0.0
C13 C 0.05435 0.10222 0.01635 0.0
C14 C 0.03306 0.09652 0.98801 0.0
C15 C 0.03951 0.11315 0.99103 0.0
C16 C 0.03745 0.08292 0.99875 0.0
C17 C 0.08775 0.01625 0.04841 0.0
C18 C 0.11705 1.00615 0.05363 0.0
C19 C 0.10175 0.99627 0.02844 0.0
C20 C 0.08748 1.00627 0.03326 0.0
C21 C 0.11671 0.99586 0.03867 0.0
C22 C 0.10279 0.01613 0.05844 0.0
C23 C 0.07201 0.02509 0.05508 0.0
O24 O 0.0393 0.06365 0.07176 0.0
O25 O 0.0233 0.0465 0.05605 0.0
O26 O 0.0577 0.02344 0.04621 0.0
O27 O 0.0739 0.0405 0.0618 0.0
H28 H 0.03758 0.05219 0.10269 0.0
H29 H 0.02176 0.04518 0.12877 0.0
H30 H 0.97514 0.0395 0.09914 0.0
H31 H 0.99106 0.04627 0.0731 0.0
H32 H 0.0553 0.12839 1.00831 0.0
H33 H 0.06303 0.1047 0.02695 0.0
H34 H 0.02481 0.0939 0.9771 0.0
H35 H 0.03275 0.07023 0.99553 0.0
H36 H 0.12835 1.00646 0.06174 0.0
H37 H 0.10082 0.98842 0.01695 0.0
H38 H 0.07607 1.00579 0.0253 0.0
H39 H 0.10338 0.02348 0.07029 0.0
C40 C 0.28483 0.74444 0.18144 0.0
C41 C 0.29911 0.75522 0.17924 0.0
C42 C 0.28494 0.76936 0.1551 0.0
C43 C 0.29917 0.76754 0.16621 0.0
C44 C 0.27068 0.75853 0.15753 0.0
C45 C 0.27065 0.74629 0.1705 0.0
U46 U 0.30022 0.71925 0.222 0.0
O47 O 0.28389 0.70794 0.24202 0.0
O48 O 0.2996 0.69125 0.22561 0.0
C49 C 0.28771 0.69209 0.23758 0.0
C50 C 0.28429 0.73086 0.19458 0.0
C51 C 0.27328 0.6794 0.23665 0.0
C52 C 0.24464 0.67006 0.24564 0.0
C53 C 0.25742 0.68274 0.24474 0.0
C54 C 0.2631 0.65032 0.23029 0.0
C55 C 0.2473 0.65358 0.23857 0.0
C56 C 0.27589 0.66301 0.2294 0.0
C57 C 0.34131 0.73457 0.24737 0.0
C58 C 0.35679 0.72059 0.27055 0.0
C59 C 0.36498 0.74911 0.26207 0.0
C60 C 0.352 0.7489 0.24961 0.0
C61 C 0.36768 0.73495 0.27272 0.0
C62 C 0.34376 0.72039 0.25799 0.0
C63 C 0.32808 0.73492 0.23364 0.0
O64 O 0.29644 0.71918 0.19397 0.0
O65 O 0.28038 0.73562 0.21032 0.0
O66 O 0.31239 0.73924 0.2382 0.0
O67 O 0.32841 0.72249 0.22212 0.0
H68 H 0.31021 0.75407 0.18753 0.0
H69 H 0.31033 0.77572 0.16492 0.0
H70 H 0.25962 0.75921 0.14914 0.0
H71 H 0.25952 0.73806 0.17187 0.0
H72 H 0.23283 0.67308 0.25238 0.0
H73 H 0.255 0.69504 0.25082 0.0
H74 H 0.26564 0.63792 0.22448 0.0
H75 H 0.28801 0.65982 0.22331 0.0
H76 H 0.3585 0.70938 0.27838 0.0
H77 H 0.37278 0.76053 0.26348 0.0
H78 H 0.35033 0.76002 0.24162 0.0
H79 H 0.3357 0.70915 0.2565 0.0
C80 C 0.96871 0.4349 0.01623 0.0
C81 C 0.95852 0.4201 0.01766 0.0
C82 C 0.97686 0.40437 0.99738 0.0
C83 C 0.96254 0.40509 1.00845 0.0
C84 C 0.98714 0.41916 0.99601 0.0
C85 C 0.98311 0.43421 1.00528 0.0
U86 U 0.97069 0.47192 0.0507 0.0
O87 O 0.96559 0.49947 0.04736 0.0
O88 O 0.94913 0.48447 0.06436 0.0
C89 C 0.95214 0.49948 0.05758 0.0
C90 C 0.96303 0.4512 0.02477 0.0
C91 C 0.93704 0.50993 0.05256 0.0
C92 C 0.91477 0.51893 0.03245 0.0
C93 C 0.92856 0.50803 0.03671 0.0
C94 C 0.91773 0.53351 0.05981 0.0
C95 C 0.90933 0.53201 0.04388 0.0
C96 C 0.93134 0.52265 0.06406 0.0
C97 C 1.00718 0.47072 0.08555 0.0
C98 C 0.01042 0.48817 0.11154 0.0
C99 C 0.03281 0.46822 0.1034 0.0
C100 C 0.02326 0.46334 0.0889 0.0
C101 C 0.02655 0.48065 0.11503 0.0
C102 C 1.00082 0.48324 0.09697 0.0
C103 C 0.99734 0.46463 0.07032 0.0
O104 O 0.95607 0.45 0.04008 0.0
O105 O 0.97295 0.46475 0.02333 0.0
O106 O 0.99848 0.4738 0.05636 0.0
O107 O 0.98173 0.45881 0.07302 0.0
H108 H 0.94713 0.42023 0.02565 0.0
H109 H 0.95409 0.39416 0.00968 0.0
H110 H 0.99836 0.41913 0.9878 0.0
H111 H 0.99117 0.44538 1.00363 0.0
H112 H 0.90868 0.51741 0.02004 0.0
H113 H 0.93271 0.49831 0.02761 0.0
H114 H 0.91377 0.54313 0.06911 0.0
H115 H 0.9376 0.52433 0.07637 0.0
H116 H 1.00505 0.49768 0.12022 0.0
H117 H 0.04524 0.46233 0.10536 0.0
H118 H 0.02845 0.45367 0.08027 0.0
H119 H 0.98842 0.4891 0.0947 0.0
C120 C 0.71979 0.76302 0.18494 0.0
C121 C 0.73718 0.7627 0.18002 0.0
C122 C 0.73059 0.74324 0.15594 0.0
C123 C 0.74251 0.75294 0.1657 0.0
C124 C 0.71315 0.74391 0.16081 0.0
C125 C 0.70786 0.75365 0.17509 0.0
U126 U 0.72164 0.79784 0.2215 0.0
O127 O 0.70004 0.81151 0.23383 0.0
O128 O 0.71614 0.79445 0.24904 0.0
C129 C 0.7026 0.8045 0.24884 0.0
C130 C 0.71377 0.77202 0.20074 0.0
C131 C 0.68714 0.79866 0.25833 0.0
C132 C 0.66011 0.78288 0.26035 0.0
C133 C 0.67493 0.78746 0.25108 0.0
C134 C 0.66961 0.80048 0.28424 0.0
C135 C 0.65716 0.7894 0.27708 0.0
C136 C 0.68435 0.80501 0.275 0.0
C137 C 0.75962 0.83135 0.22131 0.0
C138 C 0.76326 0.85989 0.23407 0.0
C139 C 0.78799 0.84462 0.22303 0.0
C140 C 0.7774 0.83085 0.2183 0.0
C141 C 0.78116 0.8594 0.23101 0.0
C142 C 0.7526 0.84602 0.22927 0.0
C143 C 0.74898 0.81675 0.21498 0.0
O144 O 0.72334 0.77048 0.21452 0.0
O145 O 0.70756 0.78755 0.19898 0.0
O146 O 0.73353 0.82011 0.20905 0.0
O147 O 0.74957 0.80255 0.2238 0.0
H148 H 0.74666 0.76982 0.18738 0.0
H149 H 0.756 0.75299 0.16228 0.0
H150 H 0.70358 0.7365 0.1539 0.0
H151 H 0.6944 0.75357 0.17867 0.0
H152 H 0.65099 0.77416 0.25442 0.0
H153 H 0.67678 0.78235 0.23824 0.0
H154 H 0.66779 0.80605 0.29689 0.0
H155 H 0.69353 0.81375 0.28084 0.0
H156 H 0.75748 0.87093 0.24031 0.0
H157 H 0.80157 0.84377 0.22007 0.0
H158 H 0.78313 0.81981 0.21199 0.0
H159 H 0.73891 0.8468 0.2317 0.0
C160 C 0.01419 0.97016 0.43479 0.0
C161 C 0.0193 0.96642 0.41782 0.0
C162 C 0.99374 0.98064 0.40637 0.0
C163 C 0.00925 0.97161 0.40383 0.0
C164 C 0.98877 0.98449 0.42335 0.0
C165 C 0.99879 0.97929 0.43731 0.0
U166 U 0.05052 0.96856 0.4698 0.0
O167 O 0.04784 0.96216 0.4972 0.0
O168 O 0.06363 0.94599 0.48029 0.0
C169 C 0.05702 0.9481 0.4957 0.0
C170 C 0.02355 0.963 0.44986 0.0
C171 C 0.0506 0.9326 0.50471 0.0
C172 C 0.0442 0.90197 0.5055 0.0
C173 C 0.04821 0.91678 0.49622 0.0
C174 C 0.04443 0.91853 0.53186 0.0
C175 C 0.04251 0.90255 0.52351 0.0
C176 C 0.04845 0.9333 0.5226 0.0
C177 C 0.0861 1.00452 0.46942 0.0
C178 C 0.11164 1.00789 0.48736 0.0
C179 C 0.10511 0.02911 0.46605 0.0
C180 C 0.09039 0.01986 0.46129 0.0
C181 C 0.11603 0.02332 0.47916 0.0
C182 C 0.09683 0.99859 0.48255 0.0
C183 C 0.07054 0.99511 0.46356 0.0
O184 O 0.03871 0.95599 0.44717 0.0
O185 O 0.02288 0.97181 0.46432 0.0
O186 O 0.05689 0.99592 0.47347 0.0
O187 O 0.07285 0.97987 0.45663 0.0
H188 H 0.03093 0.9592 0.41531 0.0
H189 H 0.01365 0.96853 0.39099 0.0
H190 H 0.97681 0.99112 0.42595 0.0
H191 H 0.99419 0.98207 0.45015 0.0
H192 H 0.04258 0.89001 0.49852 0.0
H193 H 0.04979 0.91573 0.48246 0.0
H194 H 0.04347 0.91957 0.54568 0.0
H195 H 0.05041 0.94524 0.52954 0.0
H196 H 0.11957 1.00304 0.49762 0.0
H197 H 0.1081 0.04068 0.45916 0.0
H198 H 0.08237 0.02465 0.45106 0.0
H199 H 0.09378 0.98679 0.48904 0.0
C200 C 0.21973 0.75774 0.83513 0.0
C201 C 0.22723 0.75079 0.84991 0.0
C202 C 0.22622 0.77879 0.86447 0.0
C203 C 0.23054 0.76125 0.86441 0.0
C204 C 0.21921 0.78568 0.84942 0.0
C205 C 0.21605 0.77531 0.835 0.0
U206 U 0.22104 0.71992 0.80093 0.0
O207 O 0.1987 0.70621 0.79006 0.0
O208 O 0.21476 0.72193 0.77338 0.0
C209 C 0.2007 0.71268 0.7747 0.0
C210 C 0.2142 0.74714 0.82014 0.0
C211 C 0.18504 0.71903 0.76574 0.0
C212 C 0.15437 0.72592 0.76516 0.0
C213 C 0.16933 0.72172 0.77433 0.0
C214 C 0.17054 0.7253 0.73872 0.0
C215 C 0.15468 0.72755 0.74717 0.0
C216 C 0.18546 0.72106 0.74787 0.0
C217 C 0.25734 0.68493 0.80196 0.0
C218 C 0.26521 0.66353 0.78026 0.0
C219 C 0.27903 0.66325 0.80801 0.0
C220 C 0.26919 0.67744 0.81316 0.0
C221 C 0.2773 0.65607 0.79145 0.0
C222 C 0.25534 0.6778 0.78546 0.0
C223 C 0.2479 0.70048 0.80781 0.0
O224 O 0.22375 0.74765 0.80626 0.0
O225 O 0.2079 0.73184 0.8231 0.0
O226 O 0.23262 0.69818 0.81461 0.0
O227 O 0.2486 0.71394 0.7979 0.0
H228 H 0.23016 0.73726 0.85039 0.0
H229 H 0.2359 0.7555 0.87577 0.0
H230 H 0.21597 0.79914 0.84884 0.0
H231 H 0.21025 0.781 0.8238 0.0
H232 H 0.1425 0.72778 0.7722 0.0
H233 H 0.1685 0.72028 0.78809 0.0
H234 H 0.17134 0.72621 0.7249 0.0
H235 H 0.19731 0.7189 0.74086 0.0
H236 H 0.2633 0.65831 0.76748 0.0
H237 H 0.28833 0.65819 0.81694 0.0
H238 H 0.27106 0.68277 0.82592 0.0
H239 H 0.24627 0.68332 0.77657 0.0
C240 C 0.96549 0.58848 0.50365 0.0
C241 C 0.98249 0.59191 0.50891 0.0
C242 C 0.97356 0.61912 0.52225 0.0
C243 C 0.98647 0.60706 0.51809 0.0
C244 C 0.95664 0.6156 0.51679 0.0
C245 C 0.9527 0.60055 0.50765 0.0
U246 U 0.96747 0.55039 0.47006 0.0
O247 O 0.96178 0.52306 0.47468 0.0
O248 O 0.94558 0.53774 0.45722 0.0
C249 C 0.94789 0.52312 0.46507 0.0
C250 C 0.96023 0.57201 0.49534 0.0
C251 C 0.9323 0.51422 0.47173 0.0
C252 C 0.90127 0.51289 0.47664 0.0
C253 C 0.91613 0.52227 0.47257 0.0
C254 C 0.91844 0.48735 0.4797 0.0
C255 C 0.90214 0.49521 0.47997 0.0
C256 C 0.93327 0.49672 0.47559 0.0
C257 C 1.00318 0.54946 0.43423 0.0
C258 C 1.00459 0.54269 0.40358 0.0
C259 C 0.03073 0.5433 0.42032 0.0
C260 C 0.02112 0.54742 0.43505 0.0
C261 C 0.02266 0.54118 0.40427 0.0
C262 C 0.99498 0.54679 0.41834 0.0
C263 C 0.99381 0.55626 0.44957 0.0
O264 O 0.95325 0.57286 0.48003 0.0
O265 O 0.97038 0.55868 0.49705 0.0
O266 O 0.99513 0.54768 0.4639 0.0
O267 O 0.97834 0.56259 0.44719 0.0
H268 H 0.99265 0.58284 0.50612 0.0
H269 H 0.99968 0.60933 0.52187 0.0
H270 H 0.94624 0.62428 0.51996 0.0
H271 H 0.93946 0.59815 0.50402 0.0
H272 H 0.88904 0.5195 0.47697 0.0
H273 H 0.91485 0.53572 0.46966 0.0
H274 H 0.91969 0.47377 0.48199 0.0
H275 H 0.94549 0.4901 0.47486 0.0
H276 H 0.99783 0.5409 0.39155 0.0
H277 H 0.04458 0.54247 0.42143 0.0
H278 H 0.02785 0.5496 0.44704 0.0
H279 H 0.98119 0.54828 0.41718 0.0
C280 C 0.783 0.7736 0.83964 0.0
C281 C 0.79763 0.76731 0.84812 0.0
C282 C 0.77986 0.74743 0.86463 0.0
C283 C 0.79607 0.75439 0.86047 0.0
C284 C 0.76533 0.75379 0.856 0.0
C285 C 0.76689 0.76664 0.84373 0.0
U286 U 0.80052 0.79982 0.80059 0.0
O287 O 0.78517 0.81333 0.78121 0.0
O288 O 0.80249 0.82791 0.7981 0.0
C289 C 0.79102 0.82851 0.78575 0.0
C290 C 0.78368 0.7881 0.82741 0.0
C291 C 0.77862 0.84299 0.7861 0.0
C292 C 0.75107 0.85622 0.79358 0.0
C293 C 0.76251 0.84222 0.79426 0.0
C294 C 0.77167 0.87177 0.77656 0.0
C295 C 0.75553 0.87127 0.78475 0.0
C296 C 0.783 0.85788 0.77727 0.0
C297 C 0.84034 0.78311 0.77442 0.0
C298 C 0.85973 0.7984 0.75531 0.0
C299 C 0.86091 0.76752 0.75647 0.0
C300 C 0.84764 0.76766 0.76865 0.0
C301 C 0.86728 0.78289 0.74966 0.0
C302 C 0.84644 0.79852 0.76756 0.0
C303 C 0.8271 0.78263 0.78817 0.0
O304 O 0.7967 0.79881 0.82859 0.0
O305 O 0.77919 0.78476 0.81147 0.0
O306 O 0.81114 0.77972 0.78342 0.0
O307 O 0.8283 0.79421 0.80049 0.0
H308 H 0.81024 0.77245 0.84531 0.0
H309 H 0.80759 0.74976 0.86667 0.0
H310 H 0.75258 0.74911 0.85898 0.0
H311 H 0.75537 0.77137 0.83759 0.0
H312 H 0.73885 0.85534 0.80015 0.0
H313 H 0.75877 0.83083 0.8011 0.0
H314 H 0.77553 0.88285 0.76931 0.0
H315 H 0.79525 0.85874 0.7707 0.0
H316 H 0.86433 0.81052 0.75052 0.0
H317 H 0.86609 0.7553 0.75229 0.0
H318 H 0.84319 0.7556 0.77373 0.0
H319 H 0.84109 0.81064 0.77183 0.0
C320 C 0.28586 0.27217 0.34146 0.0
C321 C 0.30076 0.26901 0.35116 0.0
C322 C 0.2857 0.24718 0.36784 0.0
C323 C 0.30068 0.25667 0.36414 0.0
C324 C 0.27094 0.25019 0.35784 0.0
C325 C 0.27103 0.2625 0.3449 0.0
U326 U 0.3003 0.29883 0.30156 0.0
O327 O 0.28381 0.31054 0.28187 0.0
O328 O 0.29971 0.32687 0.29853 0.0
C329 C 0.28823 0.32625 0.28616 0.0
C330 C 0.28482 0.28632 0.32883 0.0
C331 C 0.2744 0.33936 0.28648 0.0
C332 C 0.25096 0.35502 0.3004 0.0
C333 C 0.26356 0.34205 0.30067 0.0
C334 C 0.25987 0.36266 0.27181 0.0
C335 C 0.249 0.36561 0.28598 0.0
C336 C 0.27236 0.34975 0.27208 0.0
C337 C 0.34094 0.28472 0.27498 0.0
C338 C 0.36393 0.29953 0.25974 0.0
C339 C 0.3577 0.26995 0.25279 0.0
C340 C 0.34453 0.26999 0.26509 0.0
C341 C 0.36777 0.28465 0.25003 0.0
C342 C 0.35072 0.29957 0.27206 0.0
C343 C 0.32804 0.28364 0.28908 0.0
O344 O 0.2967 0.29832 0.32958 0.0
O345 O 0.28051 0.28216 0.31303 0.0
O346 O 0.3123 0.27918 0.28479 0.0
O347 O 0.32846 0.29552 0.30118 0.0
H348 H 0.31239 0.27629 0.34897 0.0
H349 H 0.31227 0.25491 0.3716 0.0
H350 H 0.25924 0.24301 0.36 0.0
H351 H 0.25932 0.2647 0.33773 0.0
H352 H 0.24296 0.35692 0.31162 0.0
H353 H 0.2649 0.33423 0.31195 0.0
H354 H 0.25862 0.37021 0.26034 0.0
H355 H 0.28053 0.3479 0.26096 0.0
H356 H 0.37145 0.31108 0.25817 0.0
H357 H 0.35998 0.25832 0.24544 0.0
H358 H 0.3373 0.25833 0.26709 0.0
H359 H 0.34841 0.31112 0.27952 0.0
C360 C 0.47067 0.936 0.51247 0.0
C361 C 0.48336 0.92512 0.51907 0.0
C362 C 0.48088 0.90608 0.49388 0.0
C363 C 0.48842 0.91033 0.50987 0.0
C364 C 0.46823 0.91714 0.4874 0.0
C365 C 0.46321 0.93186 0.49657 0.0
U366 U 0.47148 0.97098 0.54897 0.0
O367 O 0.46727 0.99882 0.54658 0.0
O368 O 0.4492 0.98341 0.56146 0.0
C369 C 0.45287 0.99861 0.55539 0.0
C370 C 0.46476 0.95165 0.52173 0.0
C371 C 0.43843 1.00928 0.54896 0.0
C372 C 0.40936 0.01299 0.53757 0.0
C373 C 0.4231 1.00227 0.54231 0.0
C374 C 0.42609 0.0378 0.54595 0.0
C375 C 0.41063 0.03097 0.53935 0.0
C376 C 0.43973 0.02713 0.55063 0.0
C377 C 0.50637 0.96857 0.58528 0.0
C378 C 0.51566 0.99061 0.60575 0.0
C379 C 0.52669 0.96181 0.60806 0.0
C380 C 0.51682 0.95679 0.59382 0.0
C381 C 0.5264 0.97884 0.61423 0.0
C382 C 0.50577 0.98554 0.59143 0.0
C383 C 0.49711 0.96285 0.56955 0.0
O384 O 0.45746 0.9495 0.53675 0.0
O385 O 0.47505 0.965 0.52146 0.0
O386 O 0.49894 0.97231 0.55586 0.0
O387 O 0.48134 0.9571 0.57145 0.0
H388 H 0.48929 0.92802 0.53133 0.0
H389 H 0.49808 0.9021 0.5154 0.0
H390 H 0.46231 0.91459 0.47507 0.0
H391 H 0.45345 0.94008 0.49118 0.0
H392 H 0.39779 1.0072 0.5324 0.0
H393 H 0.42167 0.98854 0.54092 0.0
H394 H 0.42757 0.05147 0.5479 0.0
H395 H 0.45129 0.03289 0.55592 0.0
H396 H 0.51486 1.00377 0.61017 0.0
H397 H 0.53493 0.95239 0.61394 0.0
H398 H 0.51762 0.94366 0.58925 0.0
H399 H 0.49781 0.9949 0.58507 0.0
C400 C 0.22141 0.26316 0.6875 0.0
C401 C 0.23784 0.26541 0.68039 0.0
C402 C 0.23186 0.24355 0.65827 0.0
C403 C 0.24301 0.25572 0.66594 0.0
C404 C 0.21536 0.24155 0.66543 0.0
C405 C 0.21023 0.25122 0.6798 0.0
U406 U 0.22242 0.29948 0.72274 0.0
O407 O 0.20016 0.31196 0.7352 0.0
O408 O 0.21813 0.29696 0.75059 0.0
C409 C 0.20379 0.30586 0.7504 0.0
C410 C 0.21563 0.27241 0.70323 0.0
C411 C 0.1893 0.29948 0.76102 0.0
C412 C 0.16085 0.28662 0.76465 0.0
C413 C 0.17463 0.29148 0.754 0.0
C414 C 0.17621 0.29764 0.78936 0.0
C415 C 0.16144 0.28963 0.78253 0.0
C416 C 0.18989 0.30244 0.77878 0.0
C417 C 0.25726 0.33576 0.72064 0.0
C418 C 0.26477 0.35714 0.74249 0.0
C419 C 0.27855 0.35789 0.71473 0.0
C420 C 0.26895 0.34355 0.70948 0.0
C421 C 0.27671 0.36492 0.73135 0.0
C422 C 0.25516 0.34273 0.7372 0.0
C423 C 0.24808 0.32008 0.71473 0.0
O424 O 0.22596 0.27209 0.71657 0.0
O425 O 0.2083 0.2874 0.70117 0.0
O426 O 0.23233 0.32199 0.70896 0.0
O427 O 0.24989 0.30636 0.72412 0.0
H428 H 0.24671 0.27456 0.68607 0.0
H429 H 0.25573 0.25782 0.66074 0.0
H430 H 0.20647 0.23218 0.6602 0.0
H431 H 0.19753 0.24916 0.6851 0.0
H432 H 0.14981 0.28036 0.75887 0.0
H433 H 0.17378 0.28909 0.74033 0.0
H434 H 0.17713 0.30056 0.80293 0.0
H435 H 0.20093 0.30876 0.78451 0.0
H436 H 0.26278 0.36223 0.75531 0.0
H437 H 0.28774 0.36319 0.70583 0.0
H438 H 0.27089 0.33835 0.69668 0.0
H439 H 0.24621 0.33695 0.74606 0.0
C440 C 0.7809 0.24468 0.68345 0.0
C441 C 0.79344 0.24657 0.67057 0.0
C442 C 0.77631 0.26875 0.6566 0.0
C443 C 0.79121 0.25851 0.65737 0.0
C444 C 0.76411 0.2672 0.66985 0.0
C445 C 0.76635 0.25534 0.683 0.0
U446 U 0.79874 0.21895 0.7228 0.0
O447 O 0.78374 0.20667 0.74332 0.0
O448 O 0.79952 0.19093 0.72598 0.0
C449 C 0.78869 0.19115 0.73893 0.0
C450 C 0.78148 0.23055 0.69619 0.0
C451 C 0.77568 0.17724 0.73974 0.0
C452 C 0.75349 0.15872 0.72724 0.0
C453 C 0.76484 0.17275 0.72595 0.0
C454 C 0.76353 0.15375 0.75608 0.0
C455 C 0.7529 0.14884 0.74226 0.0
C456 C 0.77471 0.16772 0.75482 0.0
C457 C 0.8398 0.23534 0.74724 0.0
C458 C 0.85312 0.22344 0.77281 0.0
C459 C 0.8655 0.24846 0.75968 0.0
C460 C 0.8526 0.248 0.74713 0.0
C461 C 0.86602 0.2362 0.77276 0.0
C462 C 0.84016 0.22301 0.76018 0.0
C463 C 0.82626 0.23566 0.73382 0.0
O464 O 0.79395 0.21923 0.69492 0.0
O465 O 0.77765 0.23448 0.71218 0.0
O466 O 0.81054 0.23919 0.73891 0.0
O467 O 0.82677 0.22353 0.722 0.0
H468 H 0.80475 0.23849 0.67037 0.0
H469 H 0.80085 0.25922 0.64739 0.0
H470 H 0.75261 0.27501 0.66993 0.0
H471 H 0.75637 0.25415 0.6926 0.0
H472 H 0.74555 0.1553 0.71631 0.0
H473 H 0.76535 0.17989 0.71416 0.0
H474 H 0.76326 0.14672 0.76795 0.0
H475 H 0.78287 0.17094 0.76565 0.0
H476 H 0.85311 0.21366 0.78251 0.0
H477 H 0.87489 0.25868 0.75928 0.0
H478 H 0.85255 0.25771 0.73734 0.0
H479 H 0.83042 0.2131 0.76054 0.0
C480 C 0.51637 0.55383 0.58782 0.0
C481 C 0.52458 0.54571 0.60156 0.0
C482 C 0.49757 0.54511 0.61783 0.0
C483 C 0.51529 0.54142 0.61638 0.0
C484 C 0.4894 0.55293 0.60385 0.0
C485 C 0.49868 0.55722 0.58909 0.0
U486 U 0.5526 0.55202 0.55294 0.0
O487 O 0.55054 0.5585 0.52557 0.0
O488 O 0.56764 0.57344 0.54236 0.0
C489 C 0.56096 0.57171 0.52695 0.0
C490 C 0.52594 0.55986 0.57251 0.0
C491 C 0.55617 0.58773 0.51793 0.0
C492 C 0.53539 0.60674 0.50428 0.0
C493 C 0.53908 0.592 0.51386 0.0
C494 C 0.56575 0.61315 0.50275 0.0
C495 C 0.5487 0.61756 0.49855 0.0
C496 C 0.56939 0.59852 0.51228 0.0
C497 C 0.58591 0.51378 0.55554 0.0
C498 C 0.6125 0.50794 0.53978 0.0
C499 C 0.6031 0.48853 0.56177 0.0
C500 C 0.58859 0.49873 0.56476 0.0
C501 C 0.61541 0.49304 0.54941 0.0
C502 C 0.59791 0.51829 0.54289 0.0
C503 C 0.57081 0.52451 0.56018 0.0
O504 O 0.54152 0.56592 0.57507 0.0
O505 O 0.52473 0.55048 0.55846 0.0
O506 O 0.55752 0.52429 0.54976 0.0
O507 O 0.57386 0.53973 0.56685 0.0
H508 H 0.5382 0.5429 0.60094 0.0
H509 H 0.52203 0.5352 0.62672 0.0
H510 H 0.47589 0.55623 0.60447 0.0
H511 H 0.49206 0.56358 0.57874 0.0
H512 H 0.5221 0.60972 0.50149 0.0
H513 H 0.52858 0.58391 0.51797 0.0
H514 H 0.57643 0.62084 0.49837 0.0
H515 H 0.58269 0.59544 0.51501 0.0
H516 H 0.62173 0.51186 0.5302 0.0
H517 H 0.60469 0.47705 0.56924 0.0
H518 H 0.57951 0.49493 0.57454 0.0
H519 H 0.59614 0.52987 0.53562 0.0
C520 C 0.51617 0.46637 0.93422 0.0
C521 C 0.51938 0.48234 0.92678 0.0
C522 C 0.49753 0.47669 0.90466 0.0
C523 C 0.51018 0.48743 0.91214 0.0
C524 C 0.49454 0.46067 0.91219 0.0
C525 C 0.50372 0.45562 0.92674 0.0
U526 U 0.55141 0.46758 0.97033 0.0
O527 O 0.54785 0.46219 0.99787 0.0
O528 O 0.56435 0.44558 0.98213 0.0
C529 C 0.55742 0.44833 0.99728 0.0
C530 C 0.52513 0.46057 0.94993 0.0
C531 C 0.55118 0.43314 1.00677 0.0
C532 C 0.53879 0.40443 1.00787 0.0
C533 C 0.54313 0.41915 0.99858 0.0
C534 C 0.55017 0.41756 0.0337 0.0
C535 C 0.54242 0.40331 0.02558 0.0
C536 C 0.55446 0.43222 0.02443 0.0
C537 C 0.58742 0.50299 0.97085 0.0
C538 C 0.61725 0.51212 0.96674 0.0
C539 C 0.60057 0.52438 0.98994 0.0
C540 C 0.5864 0.51427 0.98504 0.0
C541 C 0.61619 0.52361 0.98076 0.0
C542 C 0.60308 0.50203 0.96184 0.0
C543 C 0.57189 0.49379 0.9641 0.0
O544 O 0.54049 0.45382 0.94793 0.0
O545 O 0.52403 0.47051 0.9636 0.0
O546 O 0.55755 0.49505 0.97297 0.0
O547 O 0.57419 0.47842 0.95743 0.0
H548 H 0.52889 0.49089 0.93234 0.0
H549 H 0.51279 0.49991 0.90686 0.0
H550 H 0.48521 0.45188 0.90673 0.0
H551 H 0.50103 0.44323 0.93221 0.0
H552 H 0.53262 0.39389 1.00114 0.0
H553 H 0.54044 0.41949 0.98497 0.0
H554 H 0.55346 0.41723 0.04718 0.0
H555 H 0.56078 0.44277 0.03104 0.0
H556 H 0.62905 0.51092 0.95946 0.0
H557 H 0.59908 0.5332 1.00065 0.0
H558 H 0.57452 0.51565 0.99215 0.0
H559 H 0.60428 0.49369 0.9507 0.0
C560 C 0.72019 0.25552 0.33734 0.0
C561 C 0.73601 0.25222 0.34532 0.0
C562 C 0.73051 0.27481 0.36682 0.0
C563 C 0.74112 0.26176 0.3599 0.0
C564 C 0.71465 0.27792 0.35871 0.0
C565 C 0.70959 0.2684 0.34422 0.0
U566 U 0.72199 0.22033 0.3009 0.0
O567 O 0.70007 0.2066 0.28906 0.0
O568 O 0.71583 0.22374 0.27356 0.0
C569 C 0.70227 0.21371 0.27404 0.0
C570 C 0.7144 0.24624 0.32164 0.0
C571 C 0.68658 0.2196 0.26499 0.0
C572 C 0.66531 0.24135 0.25781 0.0
C573 C 0.67985 0.23617 0.26719 0.0
C574 C 0.66402 0.21348 0.24404 0.0
C575 C 0.65723 0.23009 0.24599 0.0
C576 C 0.67847 0.20834 0.2534 0.0
C577 C 0.75904 0.18594 0.29966 0.0
C578 C 0.76559 0.15526 0.2997 0.0
C579 C 0.78506 0.17482 0.28586 0.0
C580 C 0.77425 0.18856 0.29027 0.0
C581 C 0.7811 0.15798 0.2908 0.0
C582 C 0.75477 0.16904 0.30415 0.0
C583 C 0.74918 0.20095 0.30662 0.0
O584 O 0.72405 0.2477 0.3079 0.0
O585 O 0.70831 0.23069 0.32357 0.0
O586 O 0.73395 0.19809 0.31336 0.0
O587 O 0.74975 0.21525 0.29793 0.0
H588 H 0.74442 0.24233 0.34025 0.0
H589 H 0.75333 0.2588 0.36582 0.0
H590 H 0.70623 0.288 0.36332 0.0
H591 H 0.69736 0.27127 0.33823 0.0
H592 H 0.66059 0.25428 0.25961 0.0
H593 H 0.68589 0.24513 0.27602 0.0
H594 H 0.65807 0.2043 0.23538 0.0
H595 H 0.6834 0.19548 0.2515 0.0
H596 H 0.76215 0.14256 0.30391 0.0
H597 H 0.79671 0.17747 0.27877 0.0
H598 H 0.77813 0.20136 0.28676 0.0
H599 H 0.74334 0.16649 0.31163 0.0
C600 C 0.46669 0.08747 1.00534 0.0
C601 C 0.48384 0.09245 1.0083 0.0
C602 C 0.47426 0.11808 0.02414 0.0
C603 C 0.48758 0.10759 0.0176 0.0
C604 C 0.45716 0.11296 0.02102 0.0
C605 C 0.45346 0.09793 0.01176 0.0
U606 U 0.47003 0.04978 0.9714 0.0
O607 O 0.46461 0.02237 0.97576 0.0
O608 O 0.44858 0.03689 0.95804 0.0
C609 C 0.45078 0.02234 0.96604 0.0
C610 C 0.46189 0.07107 0.99669 0.0
C611 C 0.43509 0.01358 0.97275 0.0
C612 C 0.4038 0.01063 0.97442 0.0
C613 C 0.41846 0.01997 0.96968 0.0
C614 C 0.42194 0.98832 0.98562 0.0
C615 C 0.40527 0.99456 0.98234 0.0
C616 C 0.4366 0.99766 0.98085 0.0
C617 C 0.50677 0.05008 0.9367 0.0
C618 C 0.51144 0.03056 0.91245 0.0
C619 C 0.53157 0.05359 0.9179 0.0
C620 C 0.52182 0.05882 0.93213 0.0
C621 C 0.52654 0.03942 0.90775 0.0
C622 C 0.50163 0.03586 0.92675 0.0
C623 C 0.49679 0.05643 0.9517 0.0
O624 O 0.45532 0.07202 0.98121 0.0
O625 O 0.47225 0.05792 0.9985 0.0
O626 O 0.49781 0.04758 0.96588 0.0
O627 O 0.4812 0.06217 0.94873 0.0
H628 H 0.49433 0.0846 1.00355 0.0
H629 H 0.50091 0.11113 0.01956 0.0
H630 H 0.4465 0.12038 0.02606 0.0
H631 H 0.44014 0.0943 0.00986 0.0
H632 H 0.39128 0.01583 0.9714 0.0
H633 H 0.41669 0.03204 0.96325 0.0
H634 H 0.42371 0.97616 0.99188 0.0
H635 H 0.44918 0.99223 0.98322 0.0
H636 H 0.50702 0.01969 0.90491 0.0
H637 H 0.54322 0.06058 0.915 0.0
H638 H 0.52608 0.0698 0.93963 0.0
H639 H 0.49003 0.02893 0.92999 0.0
Li640 Li 0.27818 0.89384 0.01098 0.0
Li641 Li 0.26349 0.87221 0.02966 0.0
Li642 Li 0.25792 0.87243 0.99715 0.0
Li643 Li 0.24565 0.89497 0.01697 0.0
C644 C 0.29522 0.86217 1.0045 0.0
N645 N 0.32657 0.8499 0.99308 0.0
C646 C 0.30698 0.85533 0.01609 0.0
C647 C 0.2993 0.86252 0.98706 0.0
C648 C 0.3228 0.84927 0.01008 0.0
C649 C 0.31523 0.85632 0.98155 0.0
C650 C 0.26999 0.89883 0.05009 0.0
C651 C 0.26253 0.89675 0.07999 0.0
N652 N 0.2791 0.90038 0.08429 0.0
C653 C 0.28692 0.90261 0.05479 0.0
C654 C 0.25766 0.89595 0.06276 0.0
C655 C 0.29128 0.90332 0.07216 0.0
C656 C 0.29727 0.92323 0.99966 0.0
N657 N 0.2989 0.9077 1.00724 0.0
C658 C 0.32951 0.91164 0.00905 0.0
C659 C 0.31465 0.90195 0.01215 0.0
C660 C 0.32829 0.92758 1.00093 0.0
C661 C 0.3118 0.93338 0.99637 0.0
H662 H 0.28466 0.92771 0.99598 0.0
H663 H 0.31575 0.88985 0.01857 0.0
C664 C 0.25293 0.84627 0.05301 0.0
N665 N 0.26612 0.85711 0.04947 0.0
C666 C 0.25376 0.83533 0.06709 0.0
C667 C 0.2819 0.84654 0.07368 0.0
C668 C 0.28053 0.85729 0.05943 0.0
C669 C 0.26833 0.83538 0.07782 0.0
H670 H 0.24169 0.84606 0.04486 0.0
H671 H 0.29097 0.86589 0.05643 0.0
C672 C 0.25871 0.90317 0.97825 0.0
N673 N 0.25921 0.91358 0.94454 0.0
C674 C 0.24402 0.91031 0.97091 0.0
C675 C 0.27372 0.90155 0.96852 0.0
C676 C 0.2445 0.91543 0.95383 0.0
C677 C 0.2737 0.90682 0.95149 0.0
C678 C 0.22388 0.86883 0.01798 0.0
C679 C 0.21387 0.86535 1.00347 0.0
C680 C 0.2159 0.87179 0.03379 0.0
C681 C 0.19597 0.86502 1.005 0.0
C682 C 0.19797 0.87138 0.03479 0.0
N683 N 0.18846 0.86804 0.02049 0.0
C684 C 0.26089 0.84145 0.97757 0.0
C685 C 0.24543 0.86281 0.96294 0.0
C686 C 0.25899 0.83007 0.96365 0.0
N687 N 0.25428 0.85757 0.977 0.0
C688 C 0.24326 0.85184 0.94869 0.0
C689 C 0.25012 0.83516 0.94882 0.0
H690 H 0.26768 0.8374 0.98892 0.0
H691 H 0.23997 0.87549 0.96273 0.0
C692 C 0.22688 0.92118 0.035 0.0
N693 N 0.2261 0.91044 0.02115 0.0
C694 C 0.21318 0.9322 0.03896 0.0
C695 C 0.19805 0.92135 0.01415 0.0
C696 C 0.21207 0.91048 0.01068 0.0
C697 C 0.19837 0.93236 0.02857 0.0
H698 H 0.23818 0.92121 0.04306 0.0
H699 H 0.21162 0.90195 0.99968 0.0
O700 O 0.2797 0.86821 0.01019 0.0
O701 O 0.26554 0.89783 0.03315 0.0
O702 O 0.25843 0.89803 0.99494 0.0
O703 O 0.2414 0.86946 0.01668 0.0
H704 H 0.30399 0.85482 0.02961 0.0
H705 H 0.29021 0.86738 0.97786 0.0
H706 H 0.33207 0.84405 0.01893 0.0
H707 H 0.31856 0.85656 0.96809 0.0
H708 H 0.25315 0.89445 0.08993 0.0
H709 H 0.29661 0.90488 0.04514 0.0
H710 H 0.2445 0.893 0.05933 0.0
H711 H 0.30435 0.90618 0.07599 0.0
H712 H 0.34183 0.90671 0.01315 0.0
H713 H 0.31013 0.94549 0.98999 0.0
H714 H 0.24307 0.82678 0.06943 0.0
H715 H 0.29335 0.84722 0.08155 0.0
H716 H 0.23234 0.91179 0.97829 0.0
H717 H 0.28531 0.89641 0.97409 0.0
H718 H 0.2332 0.92088 0.94795 0.0
H719 H 0.28522 0.9056 0.9438 0.0
H720 H 0.21986 0.86304 0.99114 0.0
H721 H 0.22347 0.87449 0.04514 0.0
H722 H 0.18806 0.86242 0.99387 0.0
H723 H 0.19161 0.87374 0.04692 0.0
H724 H 0.26426 0.8173 0.96464 0.0
H725 H 0.23645 0.85653 0.9376 0.0
H726 H 0.21427 0.94062 0.05004 0.0
H727 H 0.18693 0.92083 1.00581 0.0
Li728 Li 0.12491 0.51247 0.27805 0.0
Li729 Li 0.14787 0.49339 0.2634 0.0
Li730 Li 0.14669 0.52448 0.25808 0.0
Li731 Li 0.125 0.50566 0.24544 0.0
C732 C 0.16367 0.52172 0.28711 0.0
N733 N 0.19077 0.5414 0.299 0.0
C734 C 0.18055 0.51725 0.28289 0.0
C735 C 0.16054 0.53614 0.29742 0.0
C736 C 0.19409 0.52739 0.28901 0.0
C737 C 0.17442 0.54593 0.3033 0.0
C738 C 0.12145 0.47337 0.27101 0.0
C739 C 0.12437 0.44299 0.26595 0.0
N740 N 0.12076 0.44016 0.28274 0.0
C741 C 0.11774 0.47016 0.2882 0.0
C742 C 0.12474 0.45969 0.25977 0.0
C743 C 0.11745 0.45328 0.29388 0.0
C744 C 0.09319 0.51736 0.29652 0.0
N745 N 0.11054 0.51593 0.29834 0.0
C746 C 0.10775 0.51885 0.32889 0.0
C747 C 0.1179 0.51663 0.31415 0.0
C748 C 0.08973 0.52027 0.3275 0.0
C749 C 0.08254 0.51955 0.31093 0.0
H750 H 0.08757 0.51668 0.28385 0.0
H751 H 0.1317 0.51538 0.31537 0.0
C752 C 0.17447 0.4699 0.25377 0.0
N753 N 0.16348 0.47396 0.26676 0.0
C754 C 0.18645 0.45664 0.25551 0.0
C755 C 0.17573 0.45174 0.28401 0.0
C756 C 0.16396 0.46519 0.28175 0.0
C757 C 0.18737 0.44737 0.27084 0.0
H758 H 0.17416 0.47714 0.24207 0.0
H759 H 0.15537 0.46877 0.29208 0.0
C760 C 0.11885 0.54507 0.25628 0.0
N761 N 0.11439 0.57991 0.25271 0.0
C762 C 0.12264 0.55286 0.24071 0.0
C763 C 0.11274 0.55496 0.27003 0.0
C764 C 0.12033 0.5705 0.23917 0.0
C765 C 0.11056 0.57257 0.26796 0.0
C766 C 0.15032 0.50295 0.22403 0.0
C767 C 0.15219 0.51679 0.21301 0.0
C768 C 0.14785 0.4865 0.21721 0.0
C769 C 0.15155 0.51393 0.19531 0.0
C770 C 0.14724 0.48418 0.19943 0.0
N771 N 0.14909 0.49783 0.18894 0.0
C772 C 0.17663 0.54123 0.24523 0.0
C773 C 0.15956 0.55992 0.26212 0.0
C774 C 0.1889 0.55413 0.24284 0.0
N775 N 0.16219 0.54425 0.25467 0.0
C776 C 0.17146 0.57326 0.25994 0.0
C777 C 0.1865 0.57047 0.25026 0.0
H778 H 0.17879 0.52864 0.23974 0.0
H779 H 0.14843 0.56203 0.27013 0.0
C780 C 0.10033 0.48617 0.22588 0.0
N781 N 0.10959 0.50096 0.22587 0.0
C782 C 0.08952 0.48186 0.21209 0.0
C783 C 0.09755 0.50818 0.19847 0.0
C784 C 0.1082 0.51201 0.21257 0.0
C785 C 0.08807 0.49282 0.19797 0.0
H786 H 0.10131 0.47764 0.23662 0.0
H787 H 0.11553 0.52374 0.21271 0.0
O788 O 0.15025 0.5123 0.28074 0.0
O789 O 0.12204 0.48982 0.26527 0.0
O790 O 0.12098 0.52782 0.25806 0.0
O791 O 0.15057 0.50551 0.24141 0.0
H792 H 0.18315 0.50619 0.27481 0.0
H793 H 0.14751 0.53988 0.3006 0.0
H794 H 0.20723 0.52416 0.28578 0.0
H795 H 0.1722 0.55719 0.3112 0.0
H796 H 0.12698 0.43229 0.25742 0.0
H797 H 0.1152 0.48059 0.29708 0.0
H798 H 0.12771 0.46194 0.24644 0.0
H799 H 0.11465 0.45061 0.30716 0.0
H800 H 0.11405 0.51956 0.34125 0.0
H801 H 0.06876 0.52033 0.30909 0.0
H802 H 0.19495 0.45373 0.24488 0.0
H803 H 0.17604 0.44517 0.29614 0.0
H804 H 0.12757 0.54543 0.23003 0.0
H805 H 0.10977 0.54913 0.28218 0.0
H806 H 0.12331 0.57673 0.22723 0.0
H807 H 0.10588 0.5804 0.2785 0.0
H808 H 0.15392 0.52963 0.21805 0.0
H809 H 0.14626 0.47566 0.22554 0.0
H810 H 0.15292 0.52453 0.18663 0.0
H811 H 0.14525 0.47153 0.19398 0.0
H812 H 0.2002 0.5513 0.23521 0.0
H813 H 0.16915 0.58548 0.26621 0.0
H814 H 0.08227 0.47004 0.21258 0.0
H815 H 0.09707 0.51701 0.18791 0.0
Li816 Li 0.74491 0.62466 1.00434 0.0
Li817 Li 0.75737 0.64677 0.02386 0.0
Li818 Li 0.76364 0.6468 0.99239 0.0
Li819 Li 0.77736 0.62459 0.01097 0.0
C820 C 0.72376 0.65074 1.00173 0.0
N821 N 0.68858 0.65144 0.99669 0.0
C822 C 0.71282 0.65594 0.01502 0.0
C823 C 0.71679 0.64591 0.98587 0.0
C824 C 0.69507 0.65622 0.01221 0.0
C825 C 0.69898 0.64633 0.98358 0.0
C826 C 0.75111 0.61723 0.04246 0.0
C827 C 0.75475 0.60373 0.06984 0.0
N828 N 0.73893 0.60942 0.07469 0.0
C829 C 0.73494 0.62301 0.04774 0.0
C830 C 0.76116 0.60758 0.05361 0.0
C831 C 0.72899 0.6189 0.06407 0.0
C832 C 0.72721 0.59734 0.9869 0.0
N833 N 0.72538 0.60908 0.99982 0.0
C834 C 0.69676 0.59871 1.00528 0.0
C835 C 0.71051 0.6098 0.00906 0.0
C836 C 0.69818 0.58663 0.99182 0.0
C837 C 0.71378 0.58604 0.98267 0.0
H838 H 0.73913 0.59672 0.97981 0.0
H839 H 0.70911 0.61915 0.01925 0.0
C840 C 0.74649 0.67749 0.04054 0.0
N841 N 0.75349 0.66192 0.04383 0.0
C842 C 0.74263 0.68901 0.05391 0.0
C843 C 0.75388 0.66872 0.07401 0.0
C844 C 0.75752 0.65755 0.06021 0.0
C845 C 0.74609 0.68467 0.07103 0.0
H846 H 0.7437 0.68093 0.02744 0.0
H847 H 0.76341 0.64531 0.06268 0.0
C848 C 0.77069 0.62154 0.97195 0.0
N849 N 0.78223 0.62337 0.93854 0.0
C850 C 0.78831 0.62139 0.96846 0.0
C851 C 0.75892 0.62257 0.95846 0.0
C852 C 0.7939 0.62233 0.95148 0.0
C853 C 0.76502 0.6235 0.94165 0.0
C854 C 0.79235 0.65508 0.02365 0.0
C855 C 0.80226 0.66968 0.02075 0.0
C856 C 0.79482 0.64573 0.03859 0.0
C857 C 0.81454 0.67468 0.0329 0.0
C858 C 0.80722 0.65114 0.05043 0.0
N859 N 0.81674 0.66539 0.04736 0.0
C860 C 0.75492 0.66823 0.96345 0.0
C861 C 0.78469 0.66608 0.96913 0.0
C862 C 0.75808 0.67935 0.94981 0.0
N863 N 0.76814 0.66181 0.97285 0.0
C864 C 0.78843 0.67724 0.95565 0.0
C865 C 0.77503 0.68417 0.94576 0.0
H866 H 0.74185 0.66494 0.96666 0.0
H867 H 0.79505 0.6609 0.97672 0.0
C868 C 0.79398 0.59312 0.01908 0.0
N869 N 0.79721 0.60961 0.01468 0.0
C870 C 0.80751 0.58159 0.02175 0.0
C871 C 0.82763 0.60406 0.01522 0.0
C872 C 0.81369 0.61519 0.0127 0.0
C873 C 0.82471 0.5869 0.01979 0.0
H874 H 0.78082 0.58888 0.02053 0.0
H875 H 0.81604 0.62828 0.009 0.0
O876 O 0.74118 0.65023 1.00426 0.0
O877 O 0.75726 0.62131 0.02661 0.0
O878 O 0.76501 0.62124 0.98853 0.0
O879 O 0.78024 0.65007 0.01191 0.0
H880 H 0.71791 0.65958 0.02743 0.0
H881 H 0.72501 0.64156 0.97554 0.0
H882 H 0.68646 0.66017 0.0224 0.0
H883 H 0.69343 0.64251 0.97141 0.0
H884 H 0.76237 0.59626 0.0786 0.0
H885 H 0.72726 0.63093 0.03948 0.0
H886 H 0.7738 0.60319 0.04982 0.0
H887 H 0.71652 0.62336 0.06835 0.0
H888 H 0.68499 0.59988 0.01261 0.0
H889 H 0.7157 0.57681 0.97237 0.0
H890 H 0.73701 0.70126 0.05081 0.0
H891 H 0.75678 0.66469 0.08692 0.0
H892 H 0.79758 0.62075 0.97877 0.0
H893 H 0.74524 0.62278 0.96094 0.0
H894 H 0.8075 0.6223 0.94859 0.0
H895 H 0.75607 0.62438 0.93109 0.0
H896 H 0.80048 0.67707 0.00924 0.0
H897 H 0.78726 0.6344 0.04102 0.0
H898 H 0.82232 0.68596 0.03084 0.0
H899 H 0.80926 0.64402 0.06205 0.0
H900 H 0.74727 0.68449 0.94281 0.0
H901 H 0.80172 0.68036 0.95298 0.0
H902 H 0.80447 0.56864 0.02549 0.0
H903 H 0.84056 0.6088 0.01329 0.0
Li904 Li 0.87476 0.02493 0.26307 0.0
Li905 Li 0.89662 1.00618 0.27587 0.0
Li906 Li 0.89693 0.01275 0.24339 0.0
Li907 Li 0.87317 0.99348 0.25717 0.0
C908 C 0.90432 0.04419 0.26949 0.0
N909 N 0.91199 0.07673 0.28139 0.0
C910 C 0.90146 0.04856 0.28667 0.0
C911 C 0.91122 0.05628 0.25838 0.0
C912 C 0.90538 0.06511 0.29243 0.0
C913 C 0.91498 0.07269 0.26464 0.0
C914 C 0.86511 1.00408 0.29549 0.0
C915 C 0.85442 0.98621 0.31811 0.0
N916 N 0.85256 1.0003 0.32836 0.0
C917 C 0.86295 0.01841 0.3062 0.0
C918 C 0.86068 0.98787 0.30143 0.0
C919 C 0.85664 0.01622 0.32279 0.0
C920 C 0.84402 0.04192 0.27419 0.0
N921 N 0.85964 0.0449 0.26694 0.0
C922 C 0.85265 0.07477 0.26447 0.0
C923 C 0.86401 0.06098 0.26194 0.0
C924 C 0.83647 0.0721 0.27209 0.0
C925 C 0.8323 0.0553 0.27697 0.0
H926 H 0.84055 0.02903 0.27774 0.0
H927 H 0.87615 0.06313 0.25563 0.0
C928 C 0.92754 0.99399 0.29166 0.0
N929 N 0.91216 1.00156 0.29525 0.0
C930 C 0.93908 0.98995 0.30483 0.0
C931 C 0.91918 1.00203 0.3253 0.0
C932 C 0.90797 1.00577 0.31173 0.0
C933 C 0.93498 0.99385 0.32201 0.0
H934 H 0.93089 0.99103 0.2785 0.0
H935 H 0.89594 0.01204 0.31448 0.0
C936 C 0.85977 0.02356 0.23309 0.0
N937 N 0.83627 0.04641 0.21999 0.0
C938 C 0.84215 0.02058 0.23495 0.0
C939 C 0.86546 0.0381 0.22453 0.0
C940 C 0.83047 0.0323 0.22825 0.0
C941 C 0.85336 0.04951 0.21799 0.0
C942 C 0.90473 0.97395 0.25871 0.0
C943 C 0.91637 0.96609 0.24748 0.0
C944 C 0.89915 0.96529 0.27324 0.0
C945 C 0.92221 0.94959 0.25097 0.0
C946 C 0.90529 0.94882 0.27629 0.0
N947 N 0.91659 0.94137 0.26518 0.0
C948 C 0.92857 0.01926 0.22511 0.0
C949 C 0.90427 0.01473 0.2074 0.0
C950 C 0.93913 0.02138 0.21066 0.0
N951 N 0.91146 0.01595 0.22327 0.0
C952 C 0.91432 0.01681 0.19264 0.0
C953 C 0.9321 0.0201 0.19404 0.0
H954 H 0.93407 0.02015 0.23783 0.0
H955 H 0.89066 0.01212 0.20618 0.0
C956 C 0.84146 0.97504 0.2593 0.0
N957 N 0.85793 0.97384 0.25349 0.0
C958 C 0.8298 0.96153 0.25671 0.0
C959 C 0.85225 0.94552 0.24248 0.0
C960 C 0.86344 0.95942 0.24517 0.0
C961 C 0.83509 0.94645 0.24816 0.0
H962 H 0.83732 0.98657 0.26591 0.0
H963 H 0.87649 0.95872 0.24046 0.0
O964 O 0.90048 0.02812 0.26357 0.0
O965 O 0.87104 1.00598 0.27912 0.0
O966 O 0.87141 0.01258 0.24011 0.0
O967 O 0.89891 0.9901 0.25552 0.0
H968 H 0.89623 0.03929 0.29543 0.0
H969 H 0.91353 0.05303 0.24504 0.0
H970 H 0.90317 0.06871 0.30568 0.0
H971 H 0.92026 0.08222 0.25619 0.0
H972 H 0.85098 0.97373 0.32288 0.0
H973 H 0.86624 0.03107 0.30181 0.0
H974 H 0.86197 0.97668 0.29322 0.0
H975 H 0.855 0.02718 0.33124 0.0
H976 H 0.8564 0.08733 0.2601 0.0
H977 H 0.82012 0.05248 0.28302 0.0
H978 H 0.9512 0.98395 0.30151 0.0
H979 H 0.91531 1.00524 0.33828 0.0
H980 H 0.83757 0.00943 0.24166 0.0
H981 H 0.87907 0.04068 0.22318 0.0
H982 H 0.81679 0.03023 0.22967 0.0
H983 H 0.85757 0.06088 0.21142 0.0
H984 H 0.92083 0.97268 0.23619 0.0
H985 H 0.89026 0.97128 0.28211 0.0
H986 H 0.93122 0.94333 0.24239 0.0
H987 H 0.90109 0.94196 0.2875 0.0
H988 H 0.95274 0.02367 0.21253 0.0
H989 H 0.90813 0.01598 0.18023 0.0
H990 H 0.81679 0.96283 0.26148 0.0
H991 H 0.85691 0.93429 0.23565 0.0
Li992 Li 0.25775 0.14579 0.52705 0.0
Li993 Li 0.24409 0.12369 0.50761 0.0
Li994 Li 0.27661 0.12376 0.51403 0.0
Li995 Li 0.26388 0.14588 0.49471 0.0
C996 C 0.2525 0.11893 0.54678 0.0
N997 N 0.24399 0.11706 0.58108 0.0
C998 C 0.23598 0.11388 0.55165 0.0
C999 C 0.26474 0.12288 0.55934 0.0
C1000 C 0.23192 0.11305 0.56906 0.0
C1001 C 0.26017 0.12191 0.57661 0.0
C1002 C 0.22642 0.15459 0.5006 0.0
C1003 C 0.20791 0.15894 0.47623 0.0
N1004 N 0.19565 0.16556 0.48683 0.0
C1005 C 0.21372 0.16164 0.51122 0.0
C1006 C 0.22356 0.15338 0.48295 0.0
C1007 C 0.19822 0.16703 0.50403 0.0
C1008 C 0.26511 0.17202 0.55287 0.0
N1009 N 0.25321 0.1605 0.54713 0.0
C1010 C 0.23344 0.16993 0.56893 0.0
C1011 C 0.23763 0.15926 0.55497 0.0
C1012 C 0.24531 0.18221 0.57501 0.0
C1013 C 0.26145 0.18299 0.56684 0.0
H1014 H 0.27739 0.17292 0.54645 0.0
H1015 H 0.22833 0.15004 0.5503 0.0
C1016 C 0.22488 0.09417 0.49531 0.0
N1017 N 0.2236 0.10945 0.50383 0.0
C1018 C 0.21023 0.084 0.49231 0.0
C1019 C 0.19321 0.10517 0.5073 0.0
C1020 C 0.20815 0.1149 0.51 0.0
C1021 C 0.194 0.0895 0.49818 0.0
H1022 H 0.23728 0.08989 0.49068 0.0
H1023 H 0.20739 0.12678 0.51718 0.0
C1024 C 0.29747 0.15061 0.51584 0.0
N1025 N 0.33287 0.15242 0.51816 0.0
C1026 C 0.30731 0.15369 0.50122 0.0
C1027 C 0.30559 0.14858 0.53166 0.0
C1028 C 0.32521 0.15455 0.50266 0.0
C1029 C 0.32351 0.14948 0.53256 0.0
C1030 C 0.26454 0.11527 0.47479 0.0
C1031 C 0.27991 0.10966 0.46733 0.0
C1032 C 0.2495 0.11547 0.46497 0.0
C1033 C 0.28005 0.10466 0.45008 0.0
C1034 C 0.25017 0.11036 0.44776 0.0
N1035 N 0.26531 0.10513 0.44072 0.0
C1036 C 0.29572 0.09788 0.53158 0.0
C1037 C 0.31053 0.10875 0.50763 0.0
C1038 C 0.30927 0.08656 0.53496 0.0
N1039 N 0.29649 0.10872 0.51809 0.0
C1040 C 0.32434 0.09754 0.51048 0.0
C1041 C 0.32388 0.08608 0.52428 0.0
H1042 H 0.2845 0.0979 0.53974 0.0
H1043 H 0.31101 0.11738 0.49694 0.0
C1044 C 0.26001 0.17709 0.47684 0.0
N1045 N 0.26706 0.16122 0.47514 0.0
C1046 C 0.26101 0.1889 0.46349 0.0
C1047 C 0.27699 0.16817 0.44684 0.0
C1048 C 0.27565 0.15671 0.46054 0.0
C1049 C 0.26944 0.18452 0.44807 0.0
H1050 H 0.25344 0.18059 0.48859 0.0
H1051 H 0.28147 0.14422 0.45942 0.0
O1052 O 0.25661 0.12015 0.5298 0.0
O1053 O 0.24166 0.14919 0.50745 0.0
O1054 O 0.27997 0.14947 0.51464 0.0
O1055 O 0.26417 0.12022 0.49167 0.0
H1056 H 0.22637 0.11073 0.5421 0.0
H1057 H 0.27757 0.1268 0.55577 0.0
H1058 H 0.21917 0.10923 0.57303 0.0
H1059 H 0.26948 0.12504 0.58647 0.0
H1060 H 0.20553 0.15804 0.46259 0.0
H1061 H 0.21576 0.16286 0.52488 0.0
H1062 H 0.23338 0.1484 0.47447 0.0
H1063 H 0.18824 0.1724 0.51212 0.0
H1064 H 0.22096 0.16854 0.57489 0.0
H1065 H 0.27099 0.19229 0.57088 0.0
H1066 H 0.21158 0.07212 0.48514 0.0
H1067 H 0.18115 0.10985 0.51246 0.0
H1068 H 0.30122 0.15527 0.48888 0.0
H1069 H 0.29814 0.14623 0.5431 0.0
H1070 H 0.333 0.15685 0.49144 0.0
H1071 H 0.32998 0.14784 0.5447 0.0
H1072 H 0.29163 0.10927 0.47474 0.0
H1073 H 0.2374 0.11934 0.4706 0.0
H1074 H 0.29189 0.1004 0.44412 0.0
H1075 H 0.23863 0.1105 0.44002 0.0
H1076 H 0.30826 0.07832 0.54596 0.0
H1077 H 0.33511 0.09764 0.50168 0.0
H1078 H 0.25526 0.2014 0.46531 0.0
H1079 H 0.28357 0.16409 0.43526 0.0
Li1080 Li 0.39804 0.50631 0.77702 0.0
Li1081 Li 0.37527 0.52619 0.76363 0.0
Li1082 Li 0.37533 0.4951 0.75716 0.0
Li1083 Li 0.39722 0.51341 0.74453 0.0
C1084 C 0.35996 0.49745 0.78716 0.0
N1085 N 0.33399 0.47733 0.80019 0.0
C1086 C 0.34279 0.5015 0.78391 0.0
C1087 C 0.36397 0.48322 0.79706 0.0
C1088 C 0.32983 0.49114 0.7906 0.0
C1089 C 0.35064 0.4732 0.80354 0.0
C1090 C 0.40289 0.5454 0.77069 0.0
C1091 C 0.4016 0.5758 0.76592 0.0
N1092 N 0.40551 0.57872 0.7827 0.0
C1093 C 0.40698 0.54868 0.78786 0.0
C1094 C 0.40026 0.55905 0.75959 0.0
C1095 C 0.40822 0.56562 0.79369 0.0
C1096 C 0.42923 0.49785 0.79553 0.0
N1097 N 0.41234 0.5022 0.79718 0.0
C1098 C 0.41458 0.50045 0.8278 0.0
C1099 C 0.40502 0.50371 0.81296 0.0
C1100 C 0.43198 0.49554 0.82657 0.0
C1101 C 0.4393 0.49445 0.81007 0.0
H1102 H 0.43486 0.49675 0.78288 0.0
H1103 H 0.39165 0.50742 0.81405 0.0
C1104 C 0.34932 0.55207 0.75701 0.0
N1105 N 0.36064 0.54606 0.76882 0.0
C1106 C 0.33839 0.56587 0.761 0.0
C1107 C 0.35083 0.56711 0.78928 0.0
C1108 C 0.36146 0.55328 0.78477 0.0
C1109 C 0.33891 0.5736 0.7774 0.0
H1110 H 0.3485 0.54595 0.74453 0.0
H1111 H 0.3703 0.54819 0.79411 0.0
C1112 C 0.40238 0.4737 0.75391 0.0
N1113 N 0.40543 0.43875 0.74896 0.0
C1114 C 0.39761 0.46618 0.73827 0.0
C1115 C 0.40869 0.46345 0.76704 0.0
C1116 C 0.39923 0.44848 0.73602 0.0
C1117 C 0.41016 0.4458 0.76428 0.0
C1118 C 0.37097 0.51794 0.72419 0.0
C1119 C 0.36822 0.50479 0.71218 0.0
C1120 C 0.37348 0.53468 0.71858 0.0
C1121 C 0.36805 0.50861 0.69474 0.0
C1122 C 0.37326 0.53797 0.70103 0.0
N1123 N 0.37057 0.52498 0.68957 0.0
C1124 C 0.34546 0.47851 0.7433 0.0
C1125 C 0.36192 0.45991 0.76039 0.0
C1126 C 0.33382 0.46531 0.7394 0.0
N1127 N 0.35948 0.47559 0.7533 0.0
C1128 C 0.3506 0.4463 0.75677 0.0
C1129 C 0.33639 0.44877 0.74589 0.0
H1130 H 0.3433 0.49115 0.73828 0.0
H1131 H 0.37272 0.45784 0.76879 0.0
C1132 C 0.42263 0.53137 0.72402 0.0
N1133 N 0.41203 0.51748 0.72445 0.0
C1134 C 0.43289 0.53456 0.70955 0.0
C1135 C 0.42133 0.50906 0.6962 0.0
C1136 C 0.41147 0.50629 0.71094 0.0
C1137 C 0.4322 0.52342 0.69523 0.0
H1138 H 0.4231 0.54008 0.73489 0.0
H1139 H 0.40321 0.49523 0.71146 0.0
O1140 O 0.37281 0.50711 0.78028 0.0
O1141 O 0.40132 0.52891 0.76483 0.0
O1142 O 0.40094 0.491 0.75637 0.0
O1143 O 0.3715 0.51442 0.74132 0.0
H1144 H 0.33952 0.51242 0.77616 0.0
H1145 H 0.37723 0.47982 0.7995 0.0
H1146 H 0.31647 0.49406 0.78813 0.0
H1147 H 0.35354 0.46209 0.81115 0.0
H1148 H 0.39951 0.58649 0.75749 0.0
H1149 H 0.40905 0.53827 0.79663 0.0
H1150 H 0.39714 0.55673 0.74626 0.0
H1151 H 0.4113 0.56836 0.80697 0.0
H1152 H 0.40836 0.50182 0.84016 0.0
H1153 H 0.45256 0.49058 0.80835 0.0
H1154 H 0.32928 0.57011 0.75146 0.0
H1155 H 0.35197 0.57266 0.80202 0.0
H1156 H 0.39235 0.47384 0.72811 0.0
H1157 H 0.41233 0.46902 0.77926 0.0
H1158 H 0.39547 0.44248 0.72402 0.0
H1159 H 0.415 0.43771 0.77433 0.0
H1160 H 0.36652 0.49172 0.71624 0.0
H1161 H 0.37569 0.54499 0.72768 0.0
H1162 H 0.36602 0.49855 0.68531 0.0
H1163 H 0.37525 0.55085 0.69652 0.0
H1164 H 0.32285 0.46811 0.73137 0.0
H1165 H 0.35322 0.43387 0.76215 0.0
H1166 H 0.44097 0.54584 0.70943 0.0
H1167 H 0.4205 0.49994 0.68567 0.0
Li1168 Li 0.77532 0.39484 0.51035 0.0
Li1169 Li 0.76118 0.37122 0.53023 0.0
Li1170 Li 0.75566 0.37258 0.49842 0.0
Li1171 Li 0.74367 0.39412 0.5168 0.0
C1172 C 0.78529 0.35666 0.50064 0.0
N1173 N 0.79831 0.33112 0.47959 0.0
C1174 C 0.78111 0.33956 0.50361 0.0
C1175 C 0.79613 0.36079 0.48701 0.0
C1176 C 0.78781 0.32683 0.4928 0.0
C1177 C 0.80258 0.34768 0.47651 0.0
C1178 C 0.75655 0.40815 0.5449 0.0
C1179 C 0.74098 0.41434 0.57096 0.0
N1180 N 0.74152 0.43131 0.56732 0.0
C1181 C 0.75704 0.42564 0.54144 0.0
C1182 C 0.74851 0.40242 0.55978 0.0
C1183 C 0.74933 0.43716 0.55293 0.0
C1184 C 0.79372 0.42605 0.5034 0.0
N1185 N 0.79563 0.40918 0.50711 0.0
C1186 C 0.82636 0.41228 0.5064 0.0
C1187 C 0.81158 0.40221 0.50863 0.0
C1188 C 0.82487 0.42983 0.50268 0.0
C1189 C 0.80816 0.43662 0.50116 0.0
H1190 H 0.78094 0.43136 0.50223 0.0
H1191 H 0.81287 0.38878 0.51157 0.0
C1192 C 0.7574 0.34079 0.5505 0.0
N1193 N 0.76518 0.35639 0.54985 0.0
C1194 C 0.76034 0.32984 0.56434 0.0
C1195 C 0.77933 0.35109 0.57664 0.0
C1196 C 0.77598 0.36165 0.5626 0.0
C1197 C 0.77152 0.33485 0.5777 0.0
H1198 H 0.74895 0.33677 0.54019 0.0
H1199 H 0.78204 0.37408 0.56187 0.0
C1200 C 0.7542 0.39984 0.47749 0.0
N1201 N 0.75136 0.40369 0.44247 0.0
C1202 C 0.7382 0.39817 0.46951 0.0
C1203 C 0.76874 0.40364 0.46772 0.0
C1204 C 0.73703 0.40009 0.45177 0.0
C1205 C 0.76704 0.40551 0.45001 0.0
C1206 C 0.72216 0.36757 0.52073 0.0
C1207 C 0.71026 0.37053 0.50769 0.0
C1208 C 0.71639 0.36326 0.53708 0.0
C1209 C 0.69271 0.36932 0.51128 0.0
C1210 C 0.69872 0.36215 0.54015 0.0
N1211 N 0.68735 0.3652 0.5273 0.0
C1212 C 0.73968 0.34459 0.48065 0.0
C1213 C 0.75979 0.35889 0.46323 0.0
C1214 C 0.73562 0.33325 0.46718 0.0
N1215 N 0.75141 0.35731 0.47848 0.0
C1216 C 0.75609 0.34783 0.44936 0.0
C1217 C 0.74368 0.33484 0.45111 0.0
H1218 H 0.73342 0.34319 0.49292 0.0
H1219 H 0.7694 0.36873 0.46173 0.0
C1220 C 0.72162 0.4224 0.50899 0.0
N1221 N 0.72393 0.40966 0.5205 0.0
C1222 C 0.70787 0.43393 0.51067 0.0
C1223 C 0.69902 0.41928 0.53618 0.0
C1224 C 0.71301 0.40809 0.53405 0.0
C1225 C 0.69616 0.43246 0.52436 0.0
H1226 H 0.73054 0.42372 0.49846 0.0
H1227 H 0.7151 0.39815 0.5433 0.0
O1228 O 0.77846 0.36932 0.51076 0.0
O1229 O 0.76359 0.39664 0.5336 0.0
O1230 O 0.7556 0.39804 0.49484 0.0
O1231 O 0.73939 0.36873 0.51748 0.0
H1232 H 0.77263 0.33619 0.51405 0.0
H1233 H 0.7993 0.374 0.48443 0.0
H1234 H 0.78461 0.31354 0.49488 0.0
H1235 H 0.81091 0.35069 0.46586 0.0
H1236 H 0.73462 0.4101 0.58249 0.0
H1237 H 0.76313 0.43025 0.52992 0.0
H1238 H 0.74789 0.38889 0.56255 0.0
H1239 H 0.74951 0.45073 0.55038 0.0
H1240 H 0.83884 0.40625 0.50743 0.0
H1241 H 0.80619 0.45005 0.49855 0.0
H1242 H 0.75417 0.31742 0.56438 0.0
H1243 H 0.78787 0.35569 0.58664 0.0
H1244 H 0.7268 0.39542 0.47693 0.0
H1245 H 0.78123 0.40496 0.4737 0.0
H1246 H 0.72474 0.39876 0.4454 0.0
H1247 H 0.77819 0.40836 0.44226 0.0
H1248 H 0.71455 0.37373 0.49494 0.0
H1249 H 0.72544 0.36099 0.54733 0.0
H1250 H 0.68335 0.37165 0.50132 0.0
H1251 H 0.69405 0.35891 0.55276 0.0
H1252 H 0.72629 0.32324 0.46942 0.0
H1253 H 0.76266 0.34971 0.4373 0.0
H1254 H 0.70658 0.44402 0.50139 0.0
H1255 H 0.69039 0.41739 0.54687 0.0
Li1256 Li 0.64623 0.99239 0.76477 0.0
Li1257 Li 0.62412 0.01259 0.7772 0.0
Li1258 Li 0.62396 1.00509 0.74497 0.0
Li1259 Li 0.64627 0.02461 0.75795 0.0
C1260 C 0.61525 0.97337 0.76631 0.0
N1261 N 0.60466 0.93968 0.76829 0.0
C1262 C 0.60841 0.96715 0.78158 0.0
C1263 C 0.61648 0.96252 0.75199 0.0
C1264 C 0.60319 0.95006 0.78235 0.0
C1265 C 0.61112 0.94552 0.75326 0.0
C1266 C 0.65144 0.01529 0.79765 0.0
C1267 C 0.65031 0.03381 0.82258 0.0
N1268 N 0.65401 0.02023 0.83267 0.0
C1269 C 0.65531 1.00153 0.80824 0.0
C1270 C 0.64901 0.03158 0.80483 0.0
C1271 C 0.65654 1.00429 0.82592 0.0
C1272 C 0.67666 0.9717 0.76117 0.0
N1273 N 0.66093 0.97234 0.76883 0.0
C1274 C 0.66617 0.94507 0.78177 0.0
C1275 C 0.65568 0.95942 0.77916 0.0
C1276 C 0.68242 0.94395 0.77389 0.0
C1277 C 0.68762 0.95764 0.76354 0.0
H1278 H 0.68072 0.98212 0.75311 0.0
H1279 H 0.6434 0.96025 0.78554 0.0
C1280 C 0.59786 0.03066 0.7957 0.0
N1281 N 0.60921 0.01749 0.79701 0.0
C1282 C 0.587 0.03507 0.80941 0.0
C1283 C 0.59927 0.01207 0.82566 0.0
C1284 C 0.60995 1.00812 0.81161 0.0
C1285 C 0.58764 0.02583 0.82478 0.0
H1286 H 0.59717 0.0378 0.78395 0.0
H1287 H 0.61891 0.9976 0.81245 0.0
C1288 C 0.6542 0.99803 0.72652 0.0
N1289 N 0.66334 0.98538 0.69456 0.0
C1290 C 0.65953 1.00918 0.7137 0.0
C1291 C 0.65378 0.98042 0.72317 0.0
C1292 C 0.66402 1.00255 0.6976 0.0
C1293 C 0.65838 0.97428 0.70691 0.0
C1294 C 0.61891 0.04442 0.7523 0.0
C1295 C 0.61409 0.04848 0.73559 0.0
C1296 C 0.62215 0.05754 0.76421 0.0
C1297 C 0.61276 0.06566 0.73101 0.0
C1298 C 0.6207 0.07456 0.75913 0.0
N1299 N 0.61609 0.07823 0.74277 0.0
C1300 C 0.59378 0.99208 0.72845 0.0
C1301 C 0.61285 1.00523 0.70905 0.0
C1302 C 0.58237 0.98801 0.71508 0.0
N1303 N 0.60884 1.00033 0.72527 0.0
C1304 C 0.60174 1.00148 0.69527 0.0
C1305 C 0.58627 0.99258 0.69812 0.0
H1306 H 0.59057 0.98861 0.74143 0.0
H1307 H 0.62463 0.01214 0.70673 0.0
C1308 C 0.67289 0.04928 0.7658 0.0
N1309 N 0.6611 0.04452 0.75373 0.0
C1310 C 0.68358 0.06353 0.76329 0.0
C1311 C 0.66999 0.06781 0.73592 0.0
C1312 C 0.65961 0.05345 0.73893 0.0
C1313 C 0.68225 0.07312 0.74818 0.0
H1314 H 0.674 0.04203 0.77745 0.0
H1315 H 0.65032 0.04947 0.72938 0.0
O1316 O 0.62053 0.99003 0.76538 0.0
O1317 O 0.64994 0.01279 0.78033 0.0
O1318 O 0.64969 1.00431 0.74233 0.0
O1319 O 0.62053 0.02768 0.75695 0.0
H1320 H 0.60723 0.97539 0.79275 0.0
H1321 H 0.62137 0.96722 0.73997 0.0
H1322 H 0.59797 0.94505 0.79412 0.0
H1323 H 0.61204 0.93698 0.74227 0.0
H1324 H 0.64838 0.04633 0.82833 0.0
H1325 H 0.65724 0.98885 0.80287 0.0
H1326 H 0.64607 0.04237 0.7968 0.0
H1327 H 0.65945 0.99375 0.83429 0.0
H1328 H 0.66165 0.93504 0.7901 0.0
H1329 H 0.69994 0.95738 0.75707 0.0
H1330 H 0.57808 0.04557 0.8079 0.0
H1331 H 0.60039 1.00462 0.83721 0.0
H1332 H 0.66007 0.02282 0.71611 0.0
H1333 H 0.65009 0.97157 0.73304 0.0
H1334 H 0.66804 0.01105 0.68753 0.0
H1335 H 0.65807 0.96069 0.70413 0.0
H1336 H 0.6115 0.03849 0.72623 0.0
H1337 H 0.62584 0.05461 0.77721 0.0
H1338 H 0.60911 0.069 0.7181 0.0
H1339 H 0.62327 0.08484 0.76819 0.0
H1340 H 0.57049 0.98146 0.71808 0.0
H1341 H 0.60542 1.00525 0.68248 0.0
H1342 H 0.69263 0.06713 0.77325 0.0
H1343 H 0.66856 0.07454 0.72397 0.0
Li1344 Li 0.02735 0.26347 0.87454 0.0
Li1345 Li 1.00749 0.27689 0.89649 0.0
Li1346 Li 0.01348 0.24459 0.89684 0.0
Li1347 Li 0.99463 0.25775 0.87439 0.0
C1348 C 0.04641 0.26354 0.90544 0.0
N1349 N 0.08025 0.26168 0.91601 0.0
C1350 C 0.05415 0.27759 0.9136 0.0
C1351 C 0.05581 0.24851 0.9028 0.0
C1352 C 0.0713 0.27641 0.91881 0.0
C1353 C 0.07292 0.24783 0.9082 0.0
C1354 C 1.00608 0.29684 0.86899 0.0
C1355 C 0.9888 0.32244 0.86933 0.0
N1356 N 1.00305 0.33187 0.86585 0.0
C1357 C 0.02055 0.30675 0.86531 0.0
C1358 C 0.99005 0.3047 0.87092 0.0
C1359 C 0.01875 0.32446 0.8638 0.0
C1360 C 0.04606 0.26111 0.84309 0.0
N1361 N 0.04735 0.26686 0.85959 0.0
C1362 C 0.07569 0.27774 0.85385 0.0
C1363 C 0.06183 0.27512 0.86506 0.0
C1364 C 0.07466 0.27208 0.83668 0.0
C1365 C 0.05953 0.26362 0.83141 0.0
H1366 H 0.03444 0.25466 0.83893 0.0
H1367 H 0.06258 0.27999 0.87804 0.0
C1368 C 0.9902 0.2983 0.92171 0.0
N1369 N 1.0039 0.2974 0.91085 0.0
C1370 C 0.98736 0.31298 0.9319 0.0
C1371 C 0.0128 0.32561 0.91975 0.0
C1372 C 0.01522 0.31066 0.90989 0.0
C1373 C 0.99866 0.32702 0.93096 0.0
H1374 H 0.98141 0.28762 0.92246 0.0
H1375 H 0.02619 0.30967 0.90142 0.0
C1376 C 0.01898 0.22537 0.8662 0.0
N1377 N 0.02834 0.19278 0.85573 0.0
C1378 C 1.00637 0.21326 0.86205 0.0
C1379 C 0.03635 0.221 0.86476 0.0
C1380 C 0.01137 0.19682 0.85686 0.0
C1381 C 0.04082 0.20443 0.85952 0.0
C1382 C 0.97416 0.25342 0.90148 0.0
C1383 C 0.96911 0.23702 0.90632 0.0
C1384 C 0.9617 0.26578 0.89803 0.0
C1385 C 0.9516 0.23319 0.9075 0.0
C1386 C 0.94431 0.26145 0.89931 0.0
N1387 N 0.93967 0.24538 0.90398 0.0
C1388 C 0.02577 0.22805 0.92705 0.0
C1389 C 0.01121 0.20903 0.90827 0.0
C1390 C 0.0287 0.21484 0.93869 0.0
N1391 N 0.01724 0.22501 0.91207 0.0
C1392 C 0.0138 0.19542 0.9196 0.0
C1393 C 0.02263 0.19816 0.93517 0.0
H1394 H 0.03027 0.24084 0.93006 0.0
H1395 H 1.00407 0.20683 0.89659 0.0
C1396 C 0.97308 0.2659 0.84609 0.0
N1397 N 0.97499 0.25432 0.85883 0.0
C1398 C 0.95988 0.26412 0.83396 0.0
C1399 C 0.95048 0.23859 0.84822 0.0
C1400 C 0.96395 0.24083 0.86008 0.0
C1401 C 0.94838 0.25022 0.83474 0.0
H1402 H 0.98198 0.27648 0.84518 0.0
H1403 H 0.9657 0.2316 0.87012 0.0
O1404 O 0.02968 0.26453 0.90013 0.0
O1405 O 1.00764 0.27953 0.87081 0.0
O1406 O 0.01432 0.24154 0.87123 0.0
O1407 O 0.99124 0.25735 0.90009 0.0
H1408 H 0.04703 0.28929 0.91582 0.0
H1409 H 0.04992 0.23745 0.89677 0.0
H1410 H 0.07749 0.2872 0.92507 0.0
H1411 H 0.08035 0.23628 0.90622 0.0
H1412 H 0.97649 0.32871 0.87088 0.0
H1413 H 0.03305 0.30086 0.86379 0.0
H1414 H 0.97873 0.29718 0.87368 0.0
H1415 H 0.02985 0.33231 0.86104 0.0
H1416 H 0.08693 0.28456 0.85848 0.0
H1417 H 0.05813 0.25889 0.81838 0.0
H1418 H 0.97621 0.31343 0.94021 0.0
H1419 H 0.02205 0.33591 0.91871 0.0
H1420 H 0.99288 0.21646 0.86297 0.0
H1421 H 0.04628 0.23033 0.86753 0.0
H1422 H 1.00174 0.18727 0.85373 0.0
H1423 H 0.05422 0.20086 0.8584 0.0
H1424 H 0.9786 0.22732 0.90907 0.0
H1425 H 0.96541 0.27854 0.89431 0.0
H1426 H 0.94749 0.22053 0.91117 0.0
H1427 H 0.93452 0.27085 0.8966 0.0
H1428 H 0.03578 0.21771 0.95032 0.0
H1429 H 1.00854 0.18297 0.91634 0.0
H1430 H 0.95874 0.27359 0.82401 0.0
H1431 H 0.94211 0.22758 0.84932 0.0
Li1432 Li 0.52865 0.76165 0.37649 0.0
Li1433 Li 0.50785 0.77372 0.39811 0.0
Li1434 Li 0.51437 0.74145 0.39732 0.0
Li1435 Li 0.49612 0.75554 0.37476 0.0
C1436 C 0.54651 0.76079 0.40824 0.0
N1437 N 0.57983 0.75953 0.42048 0.0
C1438 C 0.55403 0.77534 0.41569 0.0
C1439 C 0.55585 0.74554 0.40725 0.0
C1440 C 0.57092 0.77446 0.42173 0.0
C1441 C 0.57269 0.74517 0.41345 0.0
C1442 C 0.50674 0.79504 0.37216 0.0
C1443 C 0.48858 0.81995 0.37473 0.0
N1444 N 0.50247 0.83013 0.37194 0.0
C1445 C 0.52082 0.80573 0.36924 0.0
C1446 C 0.49046 0.80217 0.37483 0.0
C1447 C 0.5184 0.82345 0.36919 0.0
C1448 C 0.551 0.75833 0.34706 0.0
N1449 N 0.54945 0.76583 0.36285 0.0
C1450 C 0.57699 0.77933 0.35939 0.0
C1451 C 0.56205 0.77635 0.36898 0.0
C1452 C 0.57914 0.77152 0.34315 0.0
C1453 C 0.56575 0.76096 0.33701 0.0
H1454 H 0.54079 0.75018 0.34224 0.0
H1455 H 0.56047 0.78262 0.38129 0.0
C1456 C 0.48836 0.79314 0.42284 0.0
N1457 N 0.50298 0.79343 0.41326 0.0
C1458 C 0.48388 0.80713 0.43336 0.0
C1459 C 0.50972 0.82151 0.42439 0.0
C1460 C 0.51371 0.80722 0.41401 0.0
C1461 C 0.49451 0.82173 0.43418 0.0
H1462 H 0.48008 0.78204 0.4223 0.0
H1463 H 0.52527 0.80729 0.40633 0.0
C1464 C 0.52226 0.72441 0.36547 0.0
N1465 N 0.53466 0.69358 0.3529 0.0
C1466 C 0.5111 0.71268 0.3576 0.0
C1467 C 0.53975 0.72055 0.36675 0.0
C1468 C 0.51761 0.69713 0.35139 0.0
C1469 C 0.54577 0.70488 0.36037 0.0
C1470 C 0.47506 0.74837 0.40044 0.0
C1471 C 0.47119 0.73126 0.40376 0.0
C1472 C 0.46175 0.75991 0.39721 0.0
C1473 C 0.45403 0.72594 0.40369 0.0
C1474 C 0.44476 0.75408 0.39722 0.0
N1475 N 0.44129 0.73736 0.40042 0.0
C1476 C 0.52263 0.72357 0.42827 0.0
C1477 C 0.51523 0.70504 0.40527 0.0
C1478 C 0.52512 0.70957 0.43912 0.0
N1479 N 0.5178 0.72115 0.41162 0.0
C1480 C 0.51766 0.69069 0.41563 0.0
C1481 C 0.52263 0.69273 0.43291 0.0
H1482 H 0.52448 0.73645 0.43318 0.0
H1483 H 0.51115 0.70323 0.39216 0.0
C1484 C 0.47349 0.76537 0.34769 0.0
N1485 N 0.47684 0.75241 0.35868 0.0
C1486 C 0.46019 0.76396 0.33562 0.0
C1487 C 0.45374 0.73586 0.34627 0.0
C1488 C 0.46722 0.73782 0.35816 0.0
C1489 C 0.45012 0.74899 0.3346 0.0
H1490 H 0.48127 0.77683 0.34815 0.0
H1491 H 0.47007 0.72756 0.36687 0.0
O1492 O 0.53 0.76144 0.40223 0.0
O1493 O 0.50891 0.77769 0.3726 0.0
O1494 O 0.51608 0.73966 0.37167 0.0
O1495 O 0.49179 0.75376 0.40023 0.0
H1496 H 0.54694 0.78721 0.4167 0.0
H1497 H 0.55012 0.73406 0.40191 0.0
H1498 H 0.57693 0.78566 0.42742 0.0
H1499 H 0.58007 0.73346 0.41273 0.0
H1500 H 0.47608 0.82565 0.37689 0.0
H1501 H 0.53349 0.80042 0.36714 0.0
H1502 H 0.47944 0.79407 0.37712 0.0
H1503 H 0.52919 0.83189 0.36702 0.0
H1504 H 0.58668 0.78788 0.3646 0.0
H1505 H 0.56675 0.75453 0.32467 0.0
H1506 H 0.47217 0.80646 0.44083 0.0
H1507 H 0.51828 0.83245 0.42441 0.0
H1508 H 0.49756 0.7155 0.35639 0.0
H1509 H 0.54864 0.72962 0.37244 0.0
H1510 H 0.50911 0.6879 0.34535 0.0
H1511 H 0.55927 0.70172 0.3613 0.0
H1512 H 0.48133 0.72217 0.40628 0.0
H1513 H 0.46453 0.77318 0.3946 0.0
H1514 H 0.45085 0.71273 0.40618 0.0
H1515 H 0.43435 0.76284 0.39464 0.0
H1516 H 0.52866 0.712 0.45235 0.0
H1517 H 0.51577 0.67808 0.41002 0.0
H1518 H 0.45784 0.77458 0.32717 0.0
H1519 H 0.44654 0.724 0.34595 0.0
Li1520 Li 0.0144 0.77741 0.62485 0.0
Li1521 Li 0.9964 0.76347 0.64823 0.0
Li1522 Li 0.02733 0.75816 0.64705 0.0
Li1523 Li 1.00778 0.74447 0.62445 0.0
C1524 C 0.02719 0.7892 0.6601 0.0
N1525 N 0.05221 0.80485 0.67995 0.0
C1526 C 0.02452 0.79176 0.67765 0.0
C1527 C 0.04253 0.79468 0.65261 0.0
C1528 C 0.03734 0.79969 0.68748 0.0
C1529 C 0.05504 0.80254 0.66287 0.0
C1530 C 0.97677 0.77013 0.61659 0.0
C1531 C 0.94924 0.76475 0.6034 0.0
N1532 N 0.94574 0.7818 0.60418 0.0
C1533 C 0.97296 0.78759 0.61724 0.0
C1534 C 0.96488 0.75859 0.60959 0.0
C1535 C 0.95717 0.79324 0.6109 0.0
C1536 C 0.01876 0.79524 0.59285 0.0
N1537 N 0.01748 0.79727 0.61016 0.0
C1538 C 0.02029 0.82772 0.60739 0.0
C1539 C 0.01821 0.81315 0.6175 0.0
C1540 C 0.02156 0.82613 0.58941 0.0
C1541 C 0.02082 0.8095 0.58222 0.0
H1542 H 0.01809 0.78252 0.58724 0.0
H1543 H 0.01713 0.81454 0.63126 0.0
C1544 C 0.98041 0.76525 0.68119 0.0
N1545 N 0.97683 0.76642 0.66416 0.0
C1546 C 0.96728 0.76648 0.69348 0.0
C1547 C 0.94682 0.77037 0.67069 0.0
C1548 C 0.96034 0.76892 0.65881 0.0
C1549 C 0.95012 0.76904 0.68835 0.0
H1550 H 0.99351 0.76308 0.68527 0.0
H1551 H 0.95748 0.76956 0.64533 0.0
C1552 C 0.04471 0.75353 0.61311 0.0
N1553 N 0.07495 0.74544 0.59633 0.0
C1554 C 0.04957 0.73643 0.61094 0.0
C1555 C 0.05517 0.76652 0.60671 0.0
C1556 C 0.06493 0.7326 0.60242 0.0
C1557 C 0.07043 0.76217 0.59829 0.0
C1558 C 0.99735 0.73117 0.65883 0.0
C1559 C 1.00116 0.72621 0.67554 0.0
C1560 C 0.98155 0.72665 0.65151 0.0
C1561 C 0.98902 0.71684 0.68472 0.0
C1562 C 0.96976 0.71728 0.66111 0.0
N1563 N 0.9737 0.71262 0.67738 0.0
C1564 C 0.0462 0.75294 0.67846 0.0
C1565 C 0.06402 0.75413 0.65399 0.0
C1566 C 0.0606 0.75076 0.68911 0.0
N1567 N 0.04807 0.75457 0.66119 0.0
C1568 C 0.07872 0.75189 0.66412 0.0
C1569 C 0.07725 0.75023 0.68202 0.0
H1570 H 0.03349 0.75361 0.68405 0.0
H1571 H 0.0655 0.75565 0.64038 0.0
C1572 C 1.00101 0.72671 0.59242 0.0
N1573 N 1.00402 0.72464 0.60945 0.0
C1574 C 0.99857 0.71243 0.58153 0.0
C1575 C 1.00226 0.69412 0.60588 0.0
C1576 C 1.00471 0.7087 0.61626 0.0
C1577 C 0.99921 0.69575 0.58817 0.0
H1578 H 1.00061 0.73948 0.58723 0.0
H1579 H 1.0072 0.70728 0.62979 0.0
O1580 O 0.01508 0.78095 0.65033 0.0
O1581 O 0.99214 0.76433 0.62266 0.0
O1582 O 0.02973 0.75755 0.62133 0.0
O1583 O 0.0088 0.7408 0.64979 0.0
H1584 H 0.01272 0.78761 0.68364 0.0
H1585 H 0.04484 0.79265 0.63905 0.0
H1586 H 0.03548 0.8017 0.70109 0.0
H1587 H 0.06703 0.80674 0.65728 0.0
H1588 H 0.93988 0.75598 0.59798 0.0
H1589 H 0.98204 0.79666 0.62266 0.0
H1590 H 0.9677 0.74503 0.60899 0.0
H1591 H 0.95401 0.80672 0.61133 0.0
H1592 H 0.02105 0.84013 0.61368 0.0
H1593 H 0.02151 0.80751 0.56848 0.0
H1594 H 0.97059 0.76549 0.70691 0.0
H1595 H 0.93382 0.77208 0.66602 0.0
H1596 H 0.04159 0.72623 0.61583 0.0
H1597 H 0.05157 0.77983 0.60831 0.0
H1598 H 0.06888 0.71943 0.60066 0.0
H1599 H 0.07868 0.77209 0.59331 0.0
H1600 H 0.01332 0.72962 0.68139 0.0
H1601 H 0.97836 0.73053 0.63862 0.0
H1602 H 0.99177 0.71295 0.69769 0.0
H1603 H 0.95744 0.71377 0.65564 0.0
H1604 H 0.05868 0.74985 0.70281 0.0
H1605 H 0.09114 0.75134 0.65787 0.0
H1606 H 0.99652 0.71449 0.56799 0.0
H1607 H 1.0026 0.68167 0.6118 0.0
Li1608 Li 0.51499 0.27689 0.12582 0.0
Li1609 Li 0.49608 0.26354 0.14804 0.0
Li1610 Li 0.52859 0.25811 0.14712 0.0
Li1611 Li 0.50919 0.24435 0.12508 0.0
C1612 C 0.51714 0.2972 0.15357 0.0
N1613 N 0.51977 0.33233 0.15696 0.0
C1614 C 0.50283 0.30687 0.15852 0.0
C1615 C 0.53282 0.30535 0.15049 0.0
C1616 C 0.50442 0.32463 0.16015 0.0
C1617 C 0.53387 0.32314 0.15222 0.0
C1618 C 0.4761 0.26392 0.11711 0.0
C1619 C 0.44986 0.24869 0.11055 0.0
N1620 N 0.44235 0.26366 0.10596 0.0
C1621 C 0.46818 0.27912 0.11211 0.0
C1622 C 0.46693 0.24855 0.11614 0.0
C1623 C 0.45109 0.27874 0.1066 0.0
C1624 C 0.53112 0.29761 0.09976 0.0
N1625 N 0.51817 0.2972 0.11151 0.0
C1626 C 0.50951 0.32553 0.10356 0.0
C1627 C 0.50737 0.3108 0.11342 0.0
C1628 C 0.52289 0.32646 0.09143 0.0
C1629 C 0.53371 0.3121 0.08957 0.0
H1630 H 0.53955 0.28668 0.0983 0.0
H1631 H 0.49707 0.31028 0.12268 0.0
C1632 C 0.47802 0.25934 0.17946 0.0
N1633 N 0.47643 0.26635 0.16366 0.0
C1634 C 0.46451 0.26028 0.19133 0.0
C1635 C 0.44794 0.27612 0.17082 0.0
C1636 C 0.46179 0.27484 0.1593 0.0
C1637 C 0.44906 0.26862 0.1871 0.0
H1638 H 0.48981 0.25288 0.18285 0.0
H1639 H 0.46078 0.28064 0.14686 0.0
C1640 C 0.54811 0.25317 0.11968 0.0
N1641 N 0.58243 0.24441 0.11715 0.0
C1642 C 0.55282 0.23642 0.11531 0.0
C1643 C 0.56084 0.2655 0.12263 0.0
C1644 C 0.57025 0.23224 0.11411 0.0
C1645 C 0.57812 0.2608 0.12134 0.0
C1646 C 0.50216 0.2269 0.15663 0.0
C1647 C 0.51241 0.21492 0.165 0.0
C1648 C 0.48455 0.22385 0.15476 0.0
C1649 C 0.50489 0.19994 0.17111 0.0
C1650 C 0.47751 0.20874 0.16106 0.0
N1651 N 0.48774 0.19718 0.16901 0.0
C1652 C 0.55561 0.26606 0.17185 0.0
C1653 C 0.5566 0.23814 0.15984 0.0
C1654 C 0.57035 0.26278 0.18171 0.0
N1655 N 0.54906 0.25382 0.16109 0.0
C1656 C 0.57134 0.23435 0.1694 0.0
C1657 C 0.57856 0.24675 0.18052 0.0
H1658 H 0.54942 0.27842 0.17277 0.0
H1659 H 0.55117 0.22851 0.15137 0.0
C1660 C 0.49991 0.22622 0.09398 0.0
N1661 N 0.50569 0.22416 0.1103 0.0
C1662 C 0.49749 0.21201 0.08302 0.0
C1663 C 0.50702 0.19372 0.10577 0.0
C1664 C 0.50934 0.20827 0.11623 0.0
C1665 C 0.50106 0.19537 0.08881 0.0
H1666 H 0.49723 0.23896 0.08941 0.0
H1667 H 0.51421 0.20681 0.12909 0.0
O1668 O 0.51576 0.27984 0.15166 0.0
O1669 O 0.49286 0.26406 0.12246 0.0
O1670 O 0.53114 0.25741 0.1213 0.0
O1671 O 0.50934 0.24162 0.15053 0.0
H1672 H 0.49061 0.30075 0.16096 0.0
H1673 H 0.54401 0.29803 0.14666 0.0
H1674 H 0.49343 0.3323 0.16389 0.0
H1675 H 0.54589 0.32963 0.14977 0.0
H1676 H 0.44261 0.23688 0.1098 0.0
H1677 H 0.47511 0.29111 0.11259 0.0
H1678 H 0.47294 0.23659 0.1195 0.0
H1679 H 0.44477 0.29043 0.10282 0.0
H1680 H 0.50063 0.33606 0.10536 0.0
H1681 H 0.5443 0.31216 0.08057 0.0
H1682 H 0.46624 0.25458 0.20379 0.0
H1683 H 0.43634 0.28263 0.16686 0.0
H1684 H 0.54313 0.22672 0.113 0.0
H1685 H 0.55739 0.27852 0.12602 0.0
H1686 H 0.57409 0.21931 0.11082 0.0
H1687 H 0.58811 0.27019 0.12369 0.0
H1688 H 0.52603 0.21714 0.16674 0.0
H1689 H 0.47636 0.23315 0.14872 0.0
H1690 H 0.51269 0.19053 0.17753 0.0
H1691 H 0.46389 0.20622 0.15968 0.0
H1692 H 0.57544 0.27283 0.18995 0.0
H1693 H 0.57692 0.2217 0.16818 0.0
H1694 H 0.49316 0.21413 0.07004 0.0
H1695 H 0.50976 0.18128 0.11105 0.0
H1696 H 0.25348 0.78092 0.88702 0.0
H1697 H 0.20303 0.80166 0.87753 0.0
H1698 H 0.20585 0.82064 0.90243 0.0
H1699 H 0.22253 0.83158 0.92697 0.0
H1700 H 0.27339 0.81161 0.9362 0.0
H1701 H 0.27034 0.79208 0.91174 0.0
C1702 C 0.24307 0.78951 0.89048 0.0
C1703 C 0.22811 0.78987 0.88023 0.0
C1704 C 0.2448 0.80058 0.90488 0.0
C1705 C 0.21481 0.80122 0.88493 0.0
C1706 C 0.21637 0.81207 0.89926 0.0
C1707 C 0.23307 0.82311 0.92359 0.0
C1708 C 0.24817 0.8232 0.93364 0.0
C1709 C 0.23134 0.81197 0.90929 0.0
C1710 C 0.26147 0.81178 0.92903 0.0
C1711 C 0.2598 0.80061 0.9149 0.0
H1712 H 0.05161 0.52131 0.3998 0.0
H1713 H 0.01746 0.55484 0.37245 0.0
H1714 H 0.03472 0.55119 0.34656 0.0
H1715 H 0.06008 0.53924 0.33169 0.0
H1716 H 0.09409 0.50548 0.35898 0.0
H1717 H 0.07664 0.50886 0.38475 0.0
C1718 C 0.04795 0.5279 0.38822 0.0
C1719 C 0.0331 0.53832 0.38824 0.0
C1720 C 0.05806 0.52585 0.37327 0.0
C1721 C 0.02857 0.54652 0.37291 0.0
C1722 C 0.03855 0.54454 0.35805 0.0
C1723 C 0.06363 0.53244 0.34319 0.0
C1724 C 0.07861 0.5222 0.34322 0.0
C1725 C 0.05337 0.53429 0.35806 0.0
C1726 C 0.08294 0.51374 0.35848 0.0
C1727 C 0.07284 0.51555 0.37327 0.0
H1728 H 0.79706 0.74384 0.89534 0.0
H1729 H 0.75809 0.71978 0.86383 0.0
H1730 H 0.7532 0.69842 0.88578 0.0
H1731 H 0.75952 0.68658 0.9142 0.0
H1732 H 0.79868 0.71029 0.94568 0.0
H1733 H 0.80414 0.73131 0.92343 0.0
C1734 C 0.78764 0.73382 0.89314 0.0
C1735 C 0.77786 0.7337 0.87787 0.0
C1736 C 0.7849 0.72137 0.90588 0.0
C1737 C 0.76561 0.72057 0.87549 0.0
C1738 C 0.76284 0.70821 0.88805 0.0
C1739 C 0.76921 0.69638 0.91627 0.0
C1740 C 0.77863 0.69673 0.93174 0.0
C1741 C 0.77228 0.70855 0.90338 0.0
C1742 C 0.79132 0.70945 0.93392 0.0
C1743 C 0.7944 0.72161 0.92119 0.0
H1744 H 0.98678 0.96268 0.37655 0.0
H1745 H 0.97548 0.01043 0.40258 0.0
H1746 H 0.95643 0.01859 0.37923 0.0
H1747 H 0.94278 0.0123 0.3513 0.0
H1748 H 0.95422 0.96464 0.32518 0.0
H1749 H 0.97356 0.95663 0.34836 0.0
C1750 C 0.98034 0.97498 0.37707 0.0
C1751 C 0.98263 0.98583 0.39152 0.0
C1752 C 0.96938 0.97969 0.36346 0.0
C1753 C 0.97386 1.00161 0.39189 0.0
C1754 C 0.96298 1.00637 0.37844 0.0
C1755 C 0.9494 1.0001 0.3507 0.0
C1756 C 0.94695 0.98915 0.33635 0.0
C1757 C 0.96054 0.99548 0.36419 0.0
C1758 C 0.95593 0.9735 0.33583 0.0
C1759 C 0.96697 0.96883 0.34919 0.0
H1760 H 0.21268 0.23285 0.63053 0.0
H1761 H 0.26371 0.22939 0.65194 0.0
H1762 H 0.27252 0.21076 0.62815 0.0
H1763 H 0.26549 0.1944 0.60164 0.0
H1764 H 0.21427 0.19784 0.58063 0.0
H1765 H 0.20582 0.21702 0.60399 0.0
C1766 C 0.22571 0.22796 0.63013 0.0
C1767 C 0.23744 0.23264 0.64321 0.0
C1768 C 0.23068 0.21701 0.61646 0.0
C1769 C 0.25438 0.22632 0.64207 0.0
C1770 C 0.25942 0.21549 0.62848 0.0
C1771 C 0.25252 0.19944 0.60206 0.0
C1772 C 0.24054 0.1944 0.58933 0.0
C1773 C 0.24766 0.21064 0.61563 0.0
C1774 C 0.22374 0.20108 0.59032 0.0
C1775 C 0.21888 0.21221 0.60367 0.0
H1776 H 0.46438 0.53337 0.62109 0.0
H1777 H 0.50849 0.54854 0.65122 0.0
H1778 H 0.49246 0.54329 0.67754 0.0
H1779 H 0.46566 0.53466 0.69227 0.0
H1780 H 0.42154 0.5199 0.66196 0.0
H1781 H 0.43771 0.52486 0.6357 0.0
C1782 C 0.4705 0.53567 0.63339 0.0
C1783 C 0.48774 0.54137 0.63399 0.0
C1784 C 0.46113 0.53271 0.64859 0.0
C1785 C 0.49539 0.54394 0.65019 0.0
C1786 C 0.48615 0.54106 0.66533 0.0
C1787 C 0.45954 0.53264 0.67993 0.0
C1788 C 0.44234 0.52682 0.67923 0.0
C1789 C 0.46898 0.5355 0.66472 0.0
C1790 C 0.43478 0.52411 0.66302 0.0
C1791 C 0.44401 0.52704 0.64792 0.0
H1792 H 0.79899 0.28975 0.63953 0.0
H1793 H 0.74586 0.27377 0.63982 0.0
H1794 H 0.73972 0.29255 0.61589 0.0
H1795 H 0.74919 0.31371 0.59476 0.0
H1796 H 0.80235 0.32956 0.59405 0.0
H1797 H 0.80857 0.31081 0.61807 0.0
C1798 C 0.78609 0.29028 0.63431 0.0
C1799 C 0.77292 0.28034 0.64172 0.0
C1800 C 0.78257 0.3012 0.62039 0.0
C1801 C 0.75625 0.28142 0.63473 0.0
C1802 C 0.75271 0.29212 0.6209 0.0
C1803 C 0.76219 0.31299 0.59973 0.0
C1804 C 0.77523 0.32319 0.59247 0.0
C1805 C 0.76574 0.3021 0.61362 0.0
C1806 C 0.79193 0.32214 0.59941 0.0
C1807 C 0.79555 0.3113 0.61314 0.0
H1808 H 0.53444 0.96084 0.64322 0.0
H1809 H 0.54395 1.00917 0.61878 0.0
H1810 H 0.56294 0.01773 0.6423 0.0
H1811 H 0.5774 0.01139 0.66977 0.0
H1812 H 0.56839 0.96264 0.69358 0.0
H1813 H 0.54893 0.95444 0.6704 0.0
C1814 C 0.54074 0.97321 0.6429 0.0
C1815 C 0.53763 0.98428 0.62906 0.0
C1816 C 0.55186 0.97803 0.65645 0.0
C1817 C 0.54578 1.0004 0.62925 0.0
C1818 C 0.55681 1.00528 0.64269 0.0
C1819 C 0.57129 0.99892 0.66985 0.0
C1820 C 0.57443 0.98773 0.6836 0.0
C1821 C 0.56004 0.99418 0.65634 0.0
C1822 C 0.56612 0.9717 0.68344 0.0
C1823 C 0.55501 0.96692 0.67008 0.0
H1824 H 0.90005 0.24496 0.76918 0.0
H1825 H 0.86312 0.2294 0.80721 0.0
H1826 H 0.88513 0.23175 0.82947 0.0
H1827 H 0.91481 0.23929 0.83849 0.0
H1828 H 0.95135 0.25523 0.80023 0.0
H1829 H 0.92954 0.25205 0.778 0.0
C1830 C 0.8967 0.2422 0.78234 0.0
C1831 C 0.87977 0.23704 0.78635 0.0
C1832 C 0.90941 0.2438 0.79519 0.0
C1833 C 0.87598 0.23319 0.80354 0.0
C1834 C 0.88859 0.23466 0.81637 0.0
C1835 C 0.91806 0.24195 0.82528 0.0
C1836 C 0.9348 0.24769 0.82121 0.0
C1837 C 0.90535 0.24006 0.81239 0.0
C1838 C 0.93859 0.25114 0.80394 0.0
C1839 C 0.9261 0.24921 0.79113 0.0
H1840 H 0.46061 0.88414 0.47489 0.0
H1841 H 0.51333 0.89243 0.49015 0.0
H1842 H 0.52218 0.86733 0.47336 0.0
H1843 H 0.51507 0.84302 0.45392 0.0
H1844 H 0.46234 0.8354 0.43828 0.0
H1845 H 0.45355 0.86015 0.45546 0.0
C1846 C 0.47408 0.8806 0.47447 0.0
C1847 C 0.48624 0.89036 0.48387 0.0
C1848 C 0.47915 0.86616 0.46464 0.0
C1849 C 0.50358 0.88518 0.48331 0.0
C1850 C 0.5087 0.87084 0.47356 0.0
C1851 C 0.50166 0.84682 0.45416 0.0
C1852 C 0.48942 0.83713 0.44477 0.0
C1853 C 0.49662 0.86123 0.46411 0.0
C1854 C 0.47207 0.84229 0.44551 0.0
C1855 C 0.46701 0.85657 0.45529 0.0
H1856 H 0.12644 0.29107 0.77658 0.0
H1857 H 0.1635 0.27663 0.81497 0.0
H1858 H 0.14034 0.27025 0.83489 0.0
H1859 H 0.10944 0.26905 0.84186 0.0
H1860 H 0.07224 0.28265 0.80338 0.0
H1861 H 0.09541 0.28868 0.78317 0.0
C1862 C 0.1295 0.28632 0.78921 0.0
C1863 C 0.14688 0.2846 0.79418 0.0
C1864 C 0.11599 0.28247 0.80071 0.0
C1865 C 0.15038 0.27852 0.81076 0.0
C1866 C 0.13708 0.27474 0.82221 0.0
C1867 C 0.10638 0.2734 0.82907 0.0
C1868 C 0.08901 0.27539 0.82426 0.0
C1869 C 0.11983 0.27682 0.81742 0.0
C1870 C 0.08541 0.28081 0.80748 0.0
C1871 C 0.0987 0.28435 0.7959 0.0
H1872 H 0.52434 0.62225 0.47328 0.0
H1873 H 0.56493 0.64874 0.50049 0.0
H1874 H 0.56067 0.67384 0.48281 0.0
H1875 H 0.546 0.68829 0.45909 0.0
H1876 H 0.50443 0.66245 0.43273 0.0
H1877 H 0.50859 0.63734 0.45046 0.0
C1878 C 0.53213 0.63356 0.47553 0.0
C1879 C 0.5451 0.63333 0.48822 0.0
C1880 C 0.52954 0.64818 0.46531 0.0
C1881 C 0.5551 0.64822 0.49067 0.0
C1882 C 0.55261 0.66271 0.48059 0.0
C1883 C 0.53766 0.6773 0.4573 0.0
C1884 C 0.52498 0.67745 0.44432 0.0
C1885 C 0.53996 0.66283 0.46776 0.0
C1886 C 0.51456 0.66279 0.44224 0.0
C1887 C 0.51683 0.64837 0.45253 0.0
H1888 H 0.89594 0.76235 0.74897 0.0
H1889 H 0.87125 0.80291 0.72117 0.0
H1890 H 0.89442 0.80235 0.70002 0.0
H1891 H 0.92176 0.79017 0.68911 0.0
H1892 H 0.94606 0.74933 0.71684 0.0
H1893 H 0.92306 0.75016 0.73808 0.0
C1894 C 0.8955 0.77099 0.73822 0.0
C1895 C 0.88169 0.78264 0.73678 0.0
C1896 C 0.90889 0.77057 0.72599 0.0
C1897 C 0.88169 0.79392 0.72284 0.0
C1898 C 0.89494 0.79354 0.71063 0.0
C1899 C 0.92199 0.78137 0.69973 0.0
C1900 C 0.9358 0.76975 0.70129 0.0
C1901 C 0.90861 0.78189 0.71202 0.0
C1902 C 0.93585 0.75861 0.71534 0.0
C1903 C 0.9226 0.759 0.7275 0.0
H1904 H 0.02237 0.89819 0.55218 0.0
H1905 H 0.05623 0.87059 0.51784 0.0
H1906 H 0.0525 0.84473 0.53465 0.0
H1907 H 0.04048 0.82999 0.55977 0.0
H1908 H 1.00649 0.85764 0.59398 0.0
H1909 H 0.00982 0.8833 0.57687 0.0
C1910 C 0.02903 0.88657 0.54837 0.0
C1911 C 0.03957 0.88652 0.53362 0.0
C1912 C 0.02695 0.87165 0.55823 0.0
C1913 C 0.04782 0.87111 0.52889 0.0
C1914 C 0.04581 0.85627 0.53862 0.0
C1915 C 0.03363 0.84154 0.56343 0.0
C1916 C 0.02335 0.84171 0.57838 0.0
C1917 C 0.03547 0.85638 0.55338 0.0
C1918 C 0.01479 0.85703 0.58284 0.0
C1919 C 0.01657 0.87177 0.57295 0.0
H1920 H 0.15018 0.74804 0.7191 0.0
H1921 H 0.12248 0.71423 0.75259 0.0
H1922 H 0.09628 0.7185 0.73595 0.0
H1923 H 0.08129 0.73097 0.71117 0.0
H1924 H 0.10899 0.76513 0.67797 0.0
H1925 H 0.13497 0.76122 0.6949 0.0
C1926 C 0.13845 0.74153 0.72275 0.0
C1927 C 0.13847 0.73081 0.7372 0.0
C1928 C 0.12333 0.74396 0.71302 0.0
C1929 C 0.12295 0.72274 0.74176 0.0
C1930 C 0.10792 0.72508 0.73213 0.0
C1931 C 0.09292 0.73775 0.7077 0.0
C1932 C 0.09301 0.74821 0.69305 0.0
C1933 C 0.10794 0.73559 0.71767 0.0
C1934 C 0.10843 0.75668 0.68884 0.0
C1935 C 0.12336 0.75456 0.69864 0.0
H1936 H 0.99601 0.62358 0.54931 0.0
H1937 H 0.9599 0.6512 0.51805 0.0
H1938 H 0.96449 0.67693 0.53541 0.0
H1939 H 0.97807 0.69163 0.56003 0.0
H1940 H 0.01524 0.66447 0.59049 0.0
H1941 H 0.01085 0.63879 0.57298 0.0
C1942 C 0.9893 0.63526 0.54611 0.0
C1943 C 0.97746 0.6352 0.53237 0.0
C1944 C 0.99208 0.65021 0.55615 0.0
C1945 C 0.96882 0.65058 0.52868 0.0
C1946 C 0.97151 0.66542 0.53859 0.0
C1947 C 0.98542 0.6802 0.56276 0.0
C1948 C 0.99687 0.68016 0.57682 0.0
C1949 C 0.983 0.66538 0.55245 0.0
C1950 C 1.00603 0.66498 0.5801 0.0
C1951 C 1.00364 0.65023 0.56996 0.0
H1952 H 0.77492 0.89414 0.22941 0.0
H1953 H 0.81391 0.85781 0.24397 0.0
H1954 H 0.83383 0.88113 0.25021 0.0
H1955 H 0.84061 0.91194 0.25127 0.0
H1956 H 0.80153 0.94843 0.23757 0.0
H1957 H 0.78133 0.92511 0.23165 0.0
C1958 C 0.78768 0.89128 0.23415 0.0
C1959 C 0.79282 0.87405 0.23595 0.0
C1960 C 0.79918 0.90487 0.23792 0.0
C1961 C 0.80957 0.8708 0.24202 0.0
C1962 C 0.82102 0.88419 0.24572 0.0
C1963 C 0.8277 0.91481 0.24692 0.0
C1964 C 0.8227 0.93202 0.24486 0.0
C1965 C 0.81605 0.90128 0.24357 0.0
C1966 C 0.80577 0.93539 0.23945 0.0
C1967 C 0.79419 0.92201 0.23597 0.0
H1968 H 0.7743 0.12458 0.2811 0.0
H1969 H 0.81625 0.15882 0.2933 0.0
H1970 H 0.83682 0.13576 0.28836 0.0
H1971 H 0.84312 0.10561 0.28121 0.0
H1972 H 0.80127 0.07134 0.26873 0.0
H1973 H 0.78067 0.09444 0.2735 0.0
C1974 C 0.78793 0.12701 0.28277 0.0
C1975 C 0.79358 0.1436 0.28749 0.0
C1976 C 0.79983 0.11357 0.27998 0.0
C1977 C 0.81139 0.14638 0.28939 0.0
C1978 C 0.82323 0.13311 0.28668 0.0
C1979 C 0.82952 0.10318 0.27935 0.0
C1980 C 0.82391 0.08656 0.2747 0.0
C1981 C 0.81763 0.11663 0.28198 0.0
C1982 C 0.80611 0.0838 0.27261 0.0
C1983 C 0.79425 0.09709 0.27522 0.0
H1984 H 0.40053 0.95966 0.98039 0.0
H1985 H 0.37425 1.00636 0.99465 0.0
H1986 H 0.34836 0.99008 1.00129 0.0
H1987 H 0.33299 0.96249 1.00331 0.0
H1988 H 0.35948 0.91582 0.98943 0.0
H1989 H 0.38538 0.93211 0.98286 0.0
C1990 C 0.38925 0.96632 0.98515 0.0
C1991 C 0.38952 0.98435 0.9869 0.0
C1992 C 0.37432 0.95683 0.98912 0.0
C1993 C 0.37451 0.9926 0.99284 0.0
C1994 C 0.35965 0.98325 0.99677 0.0
C1995 C 0.34438 0.95586 0.99874 0.0
C1996 C 0.34414 0.93784 0.99696 0.0
C1997 C 0.35935 0.96536 0.99491 0.0
C1998 C 0.35922 0.92958 0.99121 0.0
C1999 C 0.37407 0.93893 0.98733 0.0
H2000 H 0.25196 0.39762 0.27225 0.0
H2001 H 0.2159 0.36526 0.29862 0.0
H2002 H 0.19396 0.38758 0.29683 0.0
H2003 H 0.18453 0.4161 0.28677 0.0
H2004 H 0.22089 0.44805 0.26025 0.0
H2005 H 0.24286 0.42604 0.26281 0.0
C2006 C 0.23927 0.39533 0.27752 0.0
C2007 C 0.23571 0.37959 0.2855 0.0
C2008 C 0.22661 0.40819 0.27629 0.0
C2009 C 0.21921 0.3772 0.29255 0.0
C2010 C 0.20656 0.38997 0.29143 0.0
C2011 C 0.19729 0.41832 0.28167 0.0
C2012 C 0.20085 0.43378 0.27313 0.0
C2013 C 0.21006 0.4055 0.28322 0.0
C2014 C 0.21753 0.43624 0.26655 0.0
C2015 C 0.23021 0.42366 0.26811 0.0
H2016 H 0.12042 0.0582 0.4809 0.0
H2017 H 0.14789 0.01085 0.48805 0.0
H2018 H 0.1741 0.02686 0.49473 0.0
H2019 H 0.18956 0.05443 0.49807 0.0
H2020 H 0.16204 0.10158 0.4899 0.0
H2021 H 0.13577 0.08554 0.48404 0.0
C2022 C 0.13214 0.0513 0.48377 0.0
C2023 C 0.132 0.03322 0.48389 0.0
C2024 C 0.1473 0.06061 0.48744 0.0
C2025 C 0.14738 0.0247 0.48804 0.0
C2026 C 0.16248 0.03388 0.49175 0.0
C2027 C 0.17787 0.06122 0.49489 0.0
C2028 C 0.17795 0.07931 0.49455 0.0
C2029 C 0.16265 0.05186 0.4914 0.0
C2030 C 0.16247 0.08776 0.49059 0.0
C2031 C 0.14738 0.07856 0.48711 0.0
H2032 H 0.71926 0.14402 0.73186 0.0
H2033 H 0.76175 0.11797 0.75566 0.0
H2034 H 0.74396 0.09263 0.75956 0.0
H2035 H 0.71627 0.0777 0.75661 0.0
H2036 H 0.67346 0.10358 0.73318 0.0
H2037 H 0.69141 0.12876 0.72854 0.0
C2038 C 0.72467 0.13275 0.73776 0.0
C2039 C 0.74186 0.1331 0.74359 0.0
C2040 C 0.71427 0.11806 0.74005 0.0
C2041 C 0.74853 0.11831 0.7513 0.0
C2042 C 0.73836 0.10371 0.75349 0.0
C2043 C 0.71077 0.08887 0.75061 0.0
C2044 C 0.69341 0.08856 0.74529 0.0
C2045 C 0.72117 0.10346 0.74806 0.0
C2046 C 0.68677 0.1032 0.73724 0.0
C2047 C 0.69704 0.11772 0.73466 0.0
H2048 H 0.37571 0.02607 0.54346 0.0
H2049 H 0.41254 0.0625 0.5243 0.0
H2050 H 0.38941 0.08253 0.51821 0.0
H2051 H 0.35873 0.09026 0.51892 0.0
H2052 H 0.32168 0.05326 0.5366 0.0
H2053 H 0.34478 0.0332 0.54262 0.0
C2054 C 0.37871 0.03828 0.53774 0.0
C2055 C 0.39605 0.04268 0.53458 0.0
C2056 C 0.36523 0.04984 0.53408 0.0
C2057 C 0.39948 0.05875 0.52729 0.0
C2058 C 0.38619 0.07025 0.52367 0.0
C2059 C 0.35559 0.07775 0.52388 0.0
C2060 C 0.33827 0.07356 0.52742 0.0
C2061 C 0.36901 0.06602 0.52713 0.0
C2062 C 0.33477 0.05722 0.53407 0.0
C2063 C 0.34803 0.04558 0.53741 0.0
H2064 H 0.63118 0.48212 0.51953 0.0
H2065 H 0.63571 0.47993 0.57456 0.0
H2066 H 0.66078 0.46139 0.57178 0.0
H2067 H 0.68143 0.44544 0.55389 0.0
H2068 H 0.67655 0.44668 0.49881 0.0
H2069 H 0.65209 0.46605 0.5015 0.0
C2070 C 0.63775 0.47771 0.5309 0.0
C2071 C 0.63138 0.48241 0.54724 0.0
C2072 C 0.65224 0.46683 0.52924 0.0
C2073 C 0.64007 0.47639 0.56181 0.0
C2074 C 0.65451 0.46579 0.56025 0.0
C2075 C 0.67497 0.44976 0.54243 0.0
C2076 C 0.68107 0.44446 0.52615 0.0
C2077 C 0.66064 0.46079 0.54404 0.0
C2078 C 0.67251 0.45063 0.51154 0.0
C2079 C 0.65836 0.46167 0.51305 0.0
H2080 H 0.71052 0.28721 0.39323 0.0
H2081 H 0.76294 0.28656 0.37506 0.0
H2082 H 0.77168 0.30458 0.39936 0.0
H2083 H 0.76443 0.32111 0.42566 0.0
H2084 H 0.71166 0.32257 0.44286 0.0
H2085 H 0.70324 0.30384 0.41914 0.0
C2086 C 0.72385 0.29109 0.39443 0.0
C2087 C 0.73598 0.28542 0.38213 0.0
C2088 C 0.72881 0.30169 0.40837 0.0
C2089 C 0.75327 0.29042 0.38432 0.0
C2090 C 0.75829 0.30089 0.39819 0.0
C2091 C 0.75105 0.31746 0.42418 0.0
C2092 C 0.73878 0.32331 0.43629 0.0
C2093 C 0.74616 0.30671 0.41028 0.0
C2094 C 0.72154 0.31814 0.4341 0.0
C2095 C 0.71664 0.30747 0.42039 0.0
H2096 H 0.54302 0.05971 0.88444 0.0
H2097 H 0.5341 1.00672 0.89653 0.0
H2098 H 0.55195 0.99782 0.87221 0.0
H2099 H 0.57052 1.00505 0.84751 0.0
H2100 H 0.57973 0.05818 0.83609 0.0
H2101 H 0.56155 0.06691 0.86008 0.0
C2102 C 0.54506 0.04619 0.8819 0.0
C2103 C 0.53714 0.03395 0.89249 0.0
C2104 C 0.55548 0.04113 0.86791 0.0
C2105 C 0.53977 0.01649 0.88861 0.0
C2106 C 0.55012 0.01137 0.87472 0.0
C2107 C 0.56867 0.01854 0.85032 0.0
C2108 C 0.57654 0.03089 0.8398 0.0
C2109 C 0.55812 0.02357 0.86429 0.0
C2110 C 0.57371 0.04832 0.84366 0.0
C2111 C 0.56335 0.05337 0.8575 0.0
H2112 H 0.25949 0.24049 0.39042 0.0
H2113 H 0.31122 0.22494 0.3777 0.0
H2114 H 0.31087 0.20444 0.40107 0.0
H2115 H 0.29592 0.19082 0.42539 0.0
H2116 H 0.24389 0.20602 0.43738 0.0
H2117 H 0.24438 0.22651 0.41412 0.0
C2118 C 0.27065 0.2325 0.39257 0.0
C2119 C 0.28537 0.23441 0.38214 0.0
C2120 C 0.27035 0.2206 0.40605 0.0
C2121 C 0.29977 0.22405 0.38553 0.0
C2122 C 0.29955 0.21219 0.39889 0.0
C2123 C 0.28462 0.19849 0.42285 0.0
C2124 C 0.26993 0.19682 0.43339 0.0
C2125 C 0.28492 0.21034 0.40927 0.0
C2126 C 0.25552 0.20712 0.42985 0.0
C2127 C 0.25573 0.21883 0.41641 0.0
H2128 H 0.46342 0.47105 0.8974 0.0
H2129 H 0.50906 0.49431 0.87654 0.0
H2130 H 0.49306 0.50231 0.85089 0.0
H2131 H 0.46606 0.50241 0.83402 0.0
H2132 H 0.4208 0.47833 0.85484 0.0
H2133 H 0.43669 0.47097 0.88061 0.0
C2134 C 0.46997 0.47774 0.88721 0.0
C2135 C 0.48755 0.48198 0.88906 0.0
C2136 C 0.4607 0.48221 0.87236 0.0
C2137 C 0.49556 0.491 0.87572 0.0
C2138 C 0.48642 0.49549 0.86093 0.0
C2139 C 0.45967 0.49545 0.84412 0.0
C2140 C 0.44211 0.49107 0.84234 0.0
C2141 C 0.46898 0.49111 0.85905 0.0
C2142 C 0.43414 0.4822 0.85581 0.0
C2143 C 0.44328 0.47785 0.87058 0.0
H2144 H 0.71403 0.73707 0.1253 0.0
H2145 H 0.76005 0.72391 0.15309 0.0
H2146 H 0.76899 0.70504 0.12956 0.0
H2147 H 0.76361 0.69173 0.10109 0.0
H2148 H 0.71706 0.70436 0.0739 0.0
H2149 H 0.70858 0.72373 0.0971 0.0
C2150 C 0.72597 0.73001 0.12633 0.0
C2151 C 0.73629 0.73206 0.14113 0.0
C2152 C 0.73101 0.71897 0.11276 0.0
C2153 C 0.75188 0.72291 0.14188 0.0
C2154 C 0.75697 0.71195 0.12843 0.0
C2155 C 0.75154 0.69861 0.10026 0.0
C2156 C 0.74109 0.69652 0.08556 0.0
C2157 C 0.74661 0.70979 0.11381 0.0
C2158 C 0.72559 0.70582 0.08479 0.0
C2159 C 0.72063 0.71687 0.09816 0.0
H2160 H 0.97031 0.01946 0.1218 0.0
H2161 H 1.00078 0.05831 0.1473 0.0
H2162 H 0.98393 0.05485 0.1734 0.0
H2163 H 0.95981 0.04153 0.18891 0.0
H2164 H 0.92951 1.00251 0.16342 0.0
H2165 H 0.94665 1.00567 0.13752 0.0
C2166 C 0.97325 0.02725 0.13302 0.0
C2167 C 0.98695 0.03913 0.13241 0.0
C2168 C 0.96336 0.0253 0.14808 0.0
C2169 C 0.99058 0.04887 0.1473 0.0
C2170 C 0.98082 0.047 0.16227 0.0
C2171 C 0.95702 0.03356 0.17779 0.0
C2172 C 0.94314 0.02188 0.17829 0.0
C2173 C 0.96711 0.03531 0.16282 0.0
C2174 C 0.93977 0.01187 0.1635 0.0
C2175 C 0.9497 0.01357 0.14863 0.0
H2176 H 0.25812 0.78887 0.14333 0.0
H2177 H 0.31192 0.77867 0.13432 0.0
H2178 H 0.31179 0.79838 0.11026 0.0
H2179 H 0.29609 0.81774 0.09083 0.0
H2180 H 0.24222 0.82757 0.09997 0.0
H2181 H 0.24268 0.80856 0.12446 0.0
C2182 C 0.26983 0.79082 0.13607 0.0
C2183 C 0.285 0.78211 0.14077 0.0
C2184 C 0.26964 0.80206 0.12205 0.0
C2185 C 0.30007 0.78524 0.13128 0.0
C2186 C 0.29998 0.79646 0.11737 0.0
C2187 C 0.28448 0.81588 0.09826 0.0
C2188 C 0.26909 0.82408 0.09328 0.0
C2189 C 0.28481 0.80487 0.11253 0.0
C2190 C 0.25419 0.82127 0.10312 0.0
C2191 C 0.25445 0.81044 0.11728 0.0
H2192 H 0.04599 0.46012 0.13577 0.0
H2193 H 0.03059 0.51272 0.12955 0.0
H2194 H 0.04788 0.5211 0.15444 0.0
H2195 H 0.06776 0.5136 0.17797 0.0
H2196 H 0.08368 0.46102 0.18338 0.0
H2197 H 0.06594 0.45269 0.15893 0.0
C2198 C 0.04649 0.47346 0.13971 0.0
C2199 C 0.0369 0.48572 0.1306 0.0
C2200 C 0.05661 0.47826 0.15402 0.0
C2201 C 0.03757 0.50289 0.1363 0.0
C2202 C 0.04759 0.50774 0.15052 0.0
C2203 C 0.06748 0.50033 0.17375 0.0
C2204 C 0.07711 0.48799 0.18275 0.0
C2205 C 0.05724 0.49555 0.15947 0.0
C2206 C 0.07628 0.47083 0.17706 0.0
C2207 C 0.06618 0.46603 0.16293 0.0
H2208 H 0.40013 0.74848 0.2701 0.0
H2209 H 0.36694 0.72234 0.30553 0.0
H2210 H 0.38935 0.7239 0.3275 0.0
H2211 H 0.41818 0.73362 0.33711 0.0
H2212 H 0.4511 0.75972 0.30134 0.0
H2213 H 0.42892 0.75758 0.2794 0.0
C2214 C 0.39768 0.74322 0.28265 0.0
C2215 C 0.38169 0.73536 0.28604 0.0
C2216 C 0.41061 0.74428 0.29533 0.0
C2217 C 0.37908 0.72831 0.30237 0.0
C2218 C 0.3919 0.72931 0.31503 0.0
C2219 C 0.4206 0.73872 0.32448 0.0
C2220 C 0.43639 0.74702 0.32111 0.0
C2221 C 0.40771 0.73735 0.31171 0.0
C2222 C 0.43905 0.75361 0.30459 0.0
C2223 C 0.42637 0.75228 0.29191 0.0
H2224 H 0.98874 0.40122 0.9642 0.0
H2225 H 0.97392 0.37103 1.00772 0.0
H2226 H 0.97901 0.3448 0.99122 0.0
H2227 H 0.98767 0.33016 0.96437 0.0
H2228 H 1.00282 0.3603 0.92095 0.0
H2229 H 0.99797 0.38657 0.93753 0.0
C2230 C 0.9868 0.38893 0.97019 0.0
C2231 C 0.98081 0.3883 0.98727 0.0
C2232 C 0.98987 0.37375 0.96061 0.0
C2233 C 0.97821 0.37209 0.99458 0.0
C2234 C 0.98122 0.357 0.98515 0.0
C2235 C 0.98981 0.34246 0.95847 0.0
C2236 C 0.99565 0.34309 0.94135 0.0
C2237 C 0.98696 0.35764 0.96811 0.0
C2238 C 0.99856 0.35927 0.93412 0.0
C2239 C 0.99569 0.37437 0.94358 0.0
H2240 H 0.65353 0.78388 0.31166 0.0
H2241 H 0.62421 0.78539 0.26473 0.0
H2242 H 0.59787 0.77958 0.28068 0.0
H2243 H 0.58277 0.77512 0.30818 0.0
H2244 H 0.61226 0.77389 0.35502 0.0
H2245 H 0.63861 0.77897 0.33895 0.0
C2246 C 0.64139 0.78307 0.30486 0.0
C2247 C 0.64106 0.78513 0.28689 0.0
C2248 C 0.62616 0.77993 0.31417 0.0
C2249 C 0.62509 0.78366 0.27845 0.0
C2250 C 0.60992 0.78046 0.28761 0.0
C2251 C 0.59496 0.77579 0.31489 0.0
C2252 C 0.59532 0.77423 0.33293 0.0
C2253 C 0.61025 0.77866 0.30551 0.0
C2254 C 0.61136 0.77535 0.34127 0.0
C2255 C 0.62654 0.77814 0.33204 0.0
H2256 H 0.03277 0.14727 0.99763 0.0
H2257 H 0.03903 0.11098 0.95594 0.0
H2258 H 0.03418 0.1336 0.93526 0.0
H2259 H 0.02883 0.16391 0.92874 0.0
H2260 H 0.0221 0.20018 0.9704 0.0
H2261 H 0.02685 0.17756 0.99108 0.0
C2262 C 0.03316 0.14429 0.98402 0.0
C2263 C 0.03619 0.12727 0.9785 0.0
C2264 C 0.03041 0.15746 0.97206 0.0
C2265 C 0.03644 0.12378 0.96073 0.0
C2266 C 0.03379 0.13679 0.94881 0.0
C2267 C 0.02821 0.16691 0.94232 0.0
C2268 C 0.02521 0.18395 0.94781 0.0
C2269 C 0.03077 0.15371 0.95429 0.0
C2270 C 0.02472 0.18738 0.9656 0.0
C2271 C 0.02731 0.17437 0.97752 0.0
H2272 H 0.39056 0.25862 0.24307 0.0
H2273 H 0.37795 0.31009 0.22811 0.0
H2274 H 0.40168 0.30979 0.20759 0.0
H2275 H 0.42625 0.29494 0.19378 0.0
H2276 H 0.43815 0.24318 0.20837 0.0
H2277 H 0.41455 0.24363 0.22891 0.0
C2278 C 0.39282 0.26974 0.23521 0.0
C2279 C 0.38231 0.28436 0.23727 0.0
C2280 C 0.4065 0.26947 0.2233 0.0
C2281 C 0.38584 0.29871 0.22709 0.0
C2282 C 0.3994 0.29852 0.21522 0.0
C2283 C 0.42362 0.28369 0.20133 0.0
C2284 C 0.43421 0.26908 0.19947 0.0
C2285 C 0.40985 0.28397 0.21319 0.0
C2286 C 0.43056 0.25474 0.20962 0.0
C2287 C 0.41693 0.25493 0.22136 0.0
H2288 H 0.53129 0.40028 0.05892 0.0
H2289 H 0.54546 0.36983 0.01459 0.0
H2290 H 0.54054 0.3437 0.03067 0.0
H2291 H 0.53265 0.32924 0.05757 0.0
H2292 H 0.51951 0.35987 0.10211 0.0
H2293 H 0.52369 0.38592 0.08577 0.0
C2294 C 0.53345 0.38796 0.05275 0.0
C2295 C 0.53877 0.38724 0.03543 0.0
C2296 C 0.53078 0.37286 0.06217 0.0
C2297 C 0.54113 0.37099 0.02774 0.0
C2298 C 0.53845 0.35595 0.03701 0.0
C2299 C 0.53082 0.3416 0.06378 0.0
C2300 C 0.52567 0.3424 0.08115 0.0
C2301 C 0.53336 0.3567 0.05428 0.0
C2302 C 0.52317 0.35866 0.08876 0.0
C2303 C 0.52567 0.37366 0.07942 0.0
H2304 H 0.64954 0.2224 0.21243 0.0
H2305 H 0.62988 0.24998 0.25649 0.0
H2306 H 0.60431 0.25799 0.24023 0.0
H2307 H 0.58686 0.25633 0.21369 0.0
H2308 H 0.60679 0.2286 0.1698 0.0
H2309 H 0.63254 0.22126 0.1859 0.0
C2310 C 0.63963 0.23006 0.21858 0.0
C2311 C 0.64177 0.23547 0.23579 0.0
C2312 C 0.62483 0.23452 0.20918 0.0
C2313 C 0.62882 0.24572 0.24327 0.0
C2314 C 0.61407 0.25023 0.23398 0.0
C2315 C 0.59689 0.24882 0.20756 0.0
C2316 C 0.59463 0.24293 0.1905 0.0
C2317 C 0.61186 0.24464 0.21693 0.0
C2318 C 0.60785 0.23307 0.18296 0.0
C2319 C 0.62271 0.22893 0.19214 0.0
H2320 H 0.49993 0.12424 0.04786 0.0
H2321 H 0.45684 0.14859 0.02325 0.0
H2322 H 0.46114 0.17419 0.04086 0.0
H2323 H 0.47651 0.1896 0.0639 0.0
H2324 H 0.52056 0.16596 0.08753 0.0
H2325 H 0.51641 0.1404 0.06979 0.0
C2326 C 0.4916 0.13521 0.04615 0.0
C2327 C 0.47792 0.13421 0.03426 0.0
C2328 C 0.49421 0.15011 0.05631 0.0
C2329 C 0.46724 0.14866 0.03248 0.0
C2330 C 0.46975 0.16343 0.04252 0.0
C2331 C 0.48539 0.179 0.06507 0.0
C2332 C 0.49876 0.17988 0.07732 0.0
C2333 C 0.48309 0.16429 0.0546 0.0
C2334 C 0.5099 0.16572 0.07862 0.0
C2335 C 0.50763 0.15105 0.06832 0.0
H2336 H 0.28683 0.39273 0.71259 0.0
H2337 H 0.29122 0.37114 0.76304 0.0
H2338 H 0.30955 0.39499 0.77207 0.0
H2339 H 0.32494 0.42189 0.76558 0.0
H2340 H 0.32132 0.4426 0.71467 0.0
H2341 H 0.30229 0.41928 0.70605 0.0
C2342 C 0.29187 0.3931 0.72554 0.0
C2343 C 0.28752 0.37996 0.73704 0.0
C2344 C 0.30264 0.4068 0.73065 0.0
C2345 C 0.29403 0.38105 0.75388 0.0
C2346 C 0.30468 0.39468 0.75906 0.0
C2347 C 0.32011 0.42127 0.75255 0.0
C2348 C 0.32463 0.43423 0.74088 0.0
C2349 C 0.30918 0.40761 0.74753 0.0
C2350 C 0.31794 0.43315 0.72411 0.0
C2351 C 0.30709 0.41968 0.71909 0.0
H2352 H 0.28787 0.62851 0.81033 0.0
H2353 H 0.29202 0.65004 0.75984 0.0
H2354 H 0.31089 0.62659 0.75096 0.0
H2355 H 0.32718 0.60033 0.75773 0.0
H2356 H 0.32292 0.57903 0.80834 0.0
H2357 H 0.30368 0.60217 0.81695 0.0
C2358 C 0.29297 0.62821 0.7974 0.0
C2359 C 0.2884 0.64122 0.78584 0.0
C2360 C 0.30404 0.61472 0.79238 0.0
C2361 C 0.295 0.64022 0.76903 0.0
C2362 C 0.30596 0.62682 0.76395 0.0
C2363 C 0.32195 0.60062 0.77061 0.0
C2364 C 0.32678 0.58786 0.78236 0.0
C2365 C 0.31067 0.61402 0.77553 0.0
C2366 C 0.31987 0.58873 0.79904 0.0
C2367 C 0.30869 0.60195 0.80398 0.0
H2368 H 0.89688 0.46885 0.50252 0.0
H2369 H 0.87107 0.498 0.4636 0.0
H2370 H 0.84515 0.48082 0.46727 0.0
H2371 H 0.82989 0.45688 0.48084 0.0
H2372 H 0.85555 0.42802 0.52012 0.0
H2373 H 0.88134 0.44535 0.51662 0.0
C2374 C 0.88563 0.47143 0.49477 0.0
C2375 C 0.88608 0.48485 0.48281 0.0
C2376 C 0.87066 0.46138 0.49687 0.0
C2377 C 0.87117 0.48802 0.4731 0.0
C2378 C 0.85631 0.47807 0.47509 0.0
C2379 C 0.84102 0.45444 0.48881 0.0
C2380 C 0.84059 0.44091 0.50066 0.0
C2381 C 0.85589 0.46467 0.4869 0.0
C2382 C 0.85541 0.438 0.51063 0.0
C2383 C 0.87021 0.44804 0.50874 0.0
H2384 H 0.72012 0.87201 0.78148 0.0
H2385 H 0.76427 0.90524 0.78651 0.0
H2386 H 0.74592 0.93023 0.78338 0.0
H2387 H 0.71737 0.94299 0.77886 0.0
H2388 H 0.673 0.91008 0.77445 0.0
H2389 H 0.69125 0.88492 0.77801 0.0
C2390 C 0.72574 0.8847 0.7821 0.0
C2391 C 0.74373 0.88653 0.78402 0.0
C2392 C 0.71501 0.89923 0.78041 0.0
C2393 C 0.75061 0.90323 0.78466 0.0
C2394 C 0.74008 0.91763 0.78297 0.0
C2395 C 0.71167 0.93032 0.77857 0.0
C2396 C 0.69374 0.92857 0.77632 0.0
C2397 C 0.72228 0.91582 0.78067 0.0
C2398 C 0.68667 0.91196 0.77631 0.0
C2399 C 0.69715 0.8975 0.77827 0.0
H2400 H 0.63918 0.5398 0.9596 0.0
H2401 H 0.62707 0.53309 0.01308 0.0
H2402 H 0.65084 0.55195 0.02116 0.0
H2403 H 0.67541 0.57027 0.01318 0.0
H2404 H 0.68755 0.57673 0.95968 0.0
H2405 H 0.66384 0.55783 0.95164 0.0
C2406 C 0.64181 0.54226 0.97305 0.0
C2407 C 0.63115 0.53492 0.98565 0.0
C2408 C 0.65566 0.55309 0.97767 0.0
C2409 C 0.63476 0.53865 1.003 0.0
C2410 C 0.64848 0.5494 1.00768 0.0
C2411 C 0.67282 0.56767 0.99974 0.0
C2412 C 0.68346 0.57499 0.9871 0.0
C2413 C 0.65902 0.55675 0.99514 0.0
C2414 C 0.67989 0.57117 0.96977 0.0
C2415 C 0.6662 0.5604 0.96512 0.0
H2416 H 0.25177 0.61913 0.24407 0.0
H2417 H 0.21214 0.65695 0.23658 0.0
H2418 H 0.19008 0.63502 0.23989 0.0
H2419 H 0.1818 0.60488 0.24469 0.0
H2420 H 0.22152 0.56709 0.25169 0.0
H2421 H 0.24356 0.58905 0.24844 0.0
C2422 C 0.23833 0.62261 0.24294 0.0
C2423 C 0.23379 0.63985 0.24011 0.0
C2424 C 0.2256 0.60984 0.24472 0.0
C2425 C 0.21618 0.64395 0.23901 0.0
C2426 C 0.20348 0.63134 0.24081 0.0
C2427 C 0.19527 0.60145 0.24561 0.0
C2428 C 0.19987 0.58422 0.24836 0.0
C2429 C 0.208 0.61423 0.24372 0.0
C2430 C 0.21748 0.58011 0.24932 0.0
C2431 C 0.23015 0.59272 0.24756 0.0
H2432 H 0.87837 0.52572 0.02761 0.0
H2433 H 0.90874 0.56656 0.04985 0.0
H2434 H 0.8857 0.58689 0.04437 0.0
H2435 H 0.8565 0.59318 0.03411 0.0
H2436 H 0.82617 0.55264 0.01123 0.0
H2437 H 0.84941 0.53234 0.01619 0.0
C2438 C 0.88003 0.5391 0.0311 0.0
C2439 C 0.89533 0.54444 0.03933 0.0
C2440 C 0.8666 0.55088 0.02792 0.0
C2441 C 0.89707 0.56189 0.04382 0.0
C2442 C 0.88389 0.57361 0.04061 0.0
C2443 C 0.85498 0.57997 0.02999 0.0
C2444 C 0.83937 0.57459 0.02239 0.0
C2445 C 0.86851 0.56826 0.0328 0.0
C2446 C 0.83778 0.55725 0.01741 0.0
C2447 C 0.85118 0.54557 0.02013 0.0
H2448 H 0.13764 0.97737 0.05997 0.0
H2449 H 0.12973 0.98869 1.00656 0.0
H2450 H 0.1537 0.97 0.9987 0.0
H2451 H 0.17738 0.95062 1.00694 0.0
H2452 H 0.18524 0.9396 0.06043 0.0
H2453 H 0.16123 0.95819 0.06819 0.0
C2454 C 0.14123 0.97595 0.0466 0.0
C2455 C 0.1317 0.98456 0.03393 0.0
C2456 C 0.15518 0.96522 0.04213 0.0
C2457 C 0.13653 0.98215 0.01665 0.0
C2458 C 0.15037 0.97149 0.01212 0.0
C2459 C 0.17378 0.95216 0.02029 0.0
C2460 C 0.18333 0.94368 0.03304 0.0
C2461 C 0.1598 0.96292 0.02474 0.0
C2462 C 0.17845 0.9461 0.0503 0.0
C2463 C 0.16459 0.95669 0.05477 0.0
loop_
_geom_bond_atom_site_label_1
_geom_bond_atom_site_label_2
_geom_bond_distance
_geom_bond_site_symmetry_2
_ccdc_geom_bond_type
C0 C1 1.264 . S
C0 C5 1.479 . S
C0 C10 1.465 1_655 S
C1 C0 1.264 . S
C1 C3 1.339 . S
C1 H28 0.931 1_645 S
C2 C3 1.395 . S
C2 C4 1.320 . S
C3 C1 1.339 . S
C3 C2 1.395 . S
C3 H29 0.929 1_545 S
C4 C2 1.320 . S
C4 C5 1.405 . S
C4 H30 0.930 . S
C5 C0 1.479 . S
C5 C4 1.405 . S
C5 H31 0.931 . S
U6 O7 2.454 . S
U6 O8 2.458 . S
U6 C9 2.984 . S
U6 C10 2.847 . S
U6 C23 2.882 . S
U6 O24 2.441 . S
U6 O25 2.420 . S
U6 O26 2.455 . S
U6 O27 2.449 . S
O7 U6 2.454 . S
O7 C9 1.353 . S
O8 U6 2.458 . S
O8 C9 1.286 . S
C9 U6 2.984 . S
C9 O7 1.353 . S
C9 O8 1.286 . S
C9 C11 1.363 1_554 S
C10 C0 1.465 1_455 S
C10 U6 2.847 . S
C10 O24 1.249 . S
C10 O25 1.202 . S
C11 C9 1.363 1_556 S
C11 C13 1.400 1_556 S
C11 C16 1.342 . S
C12 C13 1.274 1_556 S
C12 C15 1.461 . S
C12 H32 0.977 . S
C13 C11 1.400 1_554 S
C13 C12 1.274 1_554 S
C13 H33 0.977 . S
C14 C15 1.474 . S
C14 C16 1.285 . S
C14 H34 0.929 . S
C15 C12 1.461 . S
C15 C14 1.474 . S
C16 C11 1.342 . S
C16 C14 1.285 . S
C16 H35 0.930 . S
C17 C20 1.424 . S
C17 C22 1.245 . S
C17 C23 1.428 1_565 S
C18 C21 1.260 . S
C18 C22 1.477 . S
C18 H36 0.933 . S
C19 C20 1.384 . S
C19 C21 1.479 . S
C19 H37 0.929 . S
C20 C17 1.424 . S
C20 C19 1.384 . S
C20 H38 0.928 . S
C21 C18 1.260 . S
C21 C19 1.479 . S
C22 C17 1.245 . S
C22 C18 1.477 . S
C22 H39 0.932 1_565 S
C23 U6 2.882 . S
C23 C17 1.428 1_545 S
C23 O26 1.301 . S
C23 O27 1.282 . S
O24 U6 2.441 . S
O24 C10 1.249 . S
O25 U6 2.420 . S
O25 C10 1.202 . S
O26 U6 2.455 . S
O26 C23 1.301 . S
O27 U6 2.449 . S
O27 C23 1.282 . S
H28 C1 0.931 1_465 S
H29 C3 0.929 1_565 S
H30 C4 0.930 . S
H31 C5 0.931 . S
H32 C12 0.977 . S
H33 C13 0.977 . S
H34 C14 0.929 . S
H35 C16 0.930 . S
H36 C18 0.933 . S
H37 C19 0.929 . S
H38 C20 0.928 . S
H39 C22 0.932 1_545 S
C40 C41 1.264 . S
C40 C45 1.479 . S
C40 C50 1.465 . S
C41 C40 1.264 . S
C41 C43 1.339 . S
C41 H68 0.931 . S
C42 C43 1.395 . S
C42 C44 1.320 . S
C43 C41 1.339 . S
C43 C42 1.395 . S
C43 H69 0.929 . S
C44 C42 1.320 . S
C44 C45 1.405 . S
C44 H70 0.930 . S
C45 C40 1.479 . S
C45 C44 1.405 . S
C45 H71 0.931 . S
U46 O47 2.454 . S
U46 O48 2.458 . S
U46 C49 2.984 . S
U46 C50 2.847 . S
U46 C63 2.882 . S
U46 O64 2.441 . S
U46 O65 2.420 . S
U46 O66 2.455 . S
U46 O67 2.449 . S
O47 U46 2.454 . S
O47 C49 1.353 . S
O48 U46 2.458 . S
O48 C49 1.286 . S
C49 U46 2.984 . S
C49 O47 1.353 . S
C49 O48 1.286 . S
C49 C51 1.363 . S
C50 C40 1.465 . S
C50 U46 2.847 . S
C50 O64 1.249 . S
C50 O65 1.202 . S
C51 C49 1.363 . S
C51 C53 1.408 . S
C51 C56 1.342 . S
C52 C53 1.310 . S
C52 C55 1.461 . S
C52 H72 0.932 . S
C53 C51 1.408 . S
C53 C52 1.310 . S
C53 H73 0.930 . S
C54 C55 1.474 . S
C54 C56 1.285 . S
C54 H74 0.929 . S
C55 C52 1.461 . S
C55 C54 1.474 . S
C56 C51 1.342 . S
C56 C54 1.285 . S
C56 H75 0.930 . S
C57 C60 1.424 . S
C57 C62 1.245 . S
C57 C63 1.428 . S
C58 C61 1.260 . S
C58 C62 1.477 . S
C58 H76 0.932 . S
C59 C60 1.384 . S
C59 C61 1.479 . S
C59 H77 0.929 . S
C60 C57 1.424 . S
C60 C59 1.384 . S
C60 H78 0.928 . S
C61 C58 1.260 . S
C61 C59 1.479 . S
C62 C57 1.245 . S
C62 C58 1.477 . S
C62 H79 0.932 . S
C63 U46 2.882 . S
C63 C57 1.428 . S
C63 O66 1.301 . S
C63 O67 1.282 . S
O64 U46 2.441 . S
O64 C50 1.249 . S
O65 U46 2.420 . S
O65 C50 1.202 . S
O66 U46 2.455 . S
O66 C63 1.301 . S
O67 U46 2.449 . S
O67 C63 1.282 . S
H68 C41 0.931 . S
H69 C43 0.929 . S
H70 C44 0.930 . S
H71 C45 0.931 . S
H72 C52 0.932 . S
H73 C53 0.930 . S
H74 C54 0.929 . S
H75 C56 0.930 . S
H76 C58 0.932 . S
H77 C59 0.929 . S
H78 C60 0.928 . S
H79 C62 0.932 . S
C80 C81 1.264 . S
C80 C85 1.479 . S
C80 C90 1.465 1_556 S
C81 C80 1.264 . S
C81 C83 1.339 . S
C81 H108 0.931 1_656 S
C82 C83 1.395 . S
C82 C84 1.320 . S
C83 C81 1.339 . S
C83 C82 1.395 . S
C83 H109 0.929 1_655 S
C84 C82 1.320 . S
C84 C85 1.405 . S
C84 H110 0.930 . S
C85 C80 1.479 . S
C85 C84 1.405 . S
C85 H111 0.931 . S
U86 O87 2.454 . S
U86 O88 2.458 . S
U86 C89 2.984 . S
U86 C90 2.847 . S
U86 C103 2.882 . S
U86 O104 2.441 . S
U86 O105 2.420 . S
U86 O106 2.455 . S
U86 O107 2.449 1_655 S
O87 U86 2.454 . S
O87 C89 1.353 . S
O88 U86 2.458 . S
O88 C89 1.286 . S
C89 U86 2.984 . S
C89 O87 1.353 . S
C89 O88 1.286 . S
C89 C91 1.363 . S
C90 C80 1.465 1_554 S
C90 U86 2.847 . S
C90 O104 1.249 . S
C90 O105 1.202 . S
C91 C89 1.363 . S
C91 C93 1.408 . S
C91 C96 1.342 . S
C92 C93 1.310 . S
C92 C95 1.461 . S
C92 H112 0.881 1_554 S
C93 C91 1.408 . S
C93 C92 1.310 . S
C93 H113 0.930 . S
C94 C95 1.474 . S
C94 C96 1.285 . S
C94 H114 0.929 . S
C95 C92 1.461 . S
C95 C94 1.474 . S
C96 C91 1.342 . S
C96 C94 1.285 . S
C96 H115 0.930 . S
C97 C100 1.424 . S
C97 C102 1.245 . S
C97 C103 1.428 1_455 S
C98 C101 1.260 . S
C98 C102 1.477 . S
C98 H116 0.932 . S
C99 C100 1.384 . S
C99 C101 1.479 . S
C99 H117 0.929 . S
C100 C97 1.424 . S
C100 C99 1.384 . S
C100 H118 0.928 . S
C101 C98 1.260 . S
C101 C99 1.479 . S
C102 C97 1.245 . S
C102 C98 1.477 . S
C102 H119 0.932 1_455 S
C103 U86 2.882 . S
C103 C97 1.428 1_655 S
C103 O106 1.301 . S
C103 O107 1.282 1_655 S
O104 U86 2.441 . S
O104 C90 1.249 . S
O105 U86 2.420 . S
O105 C90 1.202 . S
O106 U86 2.455 . S
O106 C103 1.301 . S
O107 U86 2.449 1_455 S
O107 C103 1.282 1_455 S
H108 C81 0.931 1_454 S
H109 C83 0.929 1_455 S
H110 C84 0.930 . S
H111 C85 0.931 . S
H112 C92 0.881 1_556 S
H113 C93 0.930 . S
H114 C94 0.929 . S
H115 C96 0.930 . S
H116 C98 0.932 . S
H117 C99 0.929 . S
H118 C100 0.928 . S
H119 C102 0.932 1_655 S
C120 C121 1.264 . S
C120 C125 1.479 . S
C120 C130 1.465 . S
C121 C120 1.264 . S
C121 C123 1.339 . S
C121 H148 0.931 . S
C122 C123 1.395 . S
C122 C124 1.320 . S
C123 C121 1.339 . S
C123 C122 1.395 . S
C123 H149 0.929 . S
C124 C122 1.320 . S
C124 C125 1.405 . S
C124 H150 0.930 . S
C125 C120 1.479 . S
C125 C124 1.405 . S
C125 H151 0.931 . S
U126 O127 2.454 . S
U126 O128 2.458 . S
U126 C129 2.984 . S
U126 C130 2.847 . S
U126 C143 2.882 . S
U126 O144 2.441 . S
U126 O145 2.420 . S
U126 O146 2.455 . S
U126 O147 2.449 . S
O127 U126 2.454 . S
O127 C129 1.353 . S
O128 U126 2.458 . S
O128 C129 1.286 . S
C129 U126 2.984 . S
C129 O127 1.353 . S
C129 O128 1.286 . S
C129 C131 1.363 . S
C130 C120 1.465 . S
C130 U126 2.847 . S
C130 O144 1.249 . S
C130 O145 1.202 . S
C131 C129 1.363 . S
C131 C133 1.408 . S
C131 C136 1.342 . S
C132 C133 1.310 . S
C132 C135 1.461 . S
C132 H152 0.932 . S
C133 C131 1.408 . S
C133 C132 1.310 . S
C133 H153 0.930 . S
C134 C135 1.474 . S
C134 C136 1.285 . S
C134 H154 0.929 . S
C135 C132 1.461 . S
C135 C134 1.474 . S
C136 C131 1.342 . S
C136 C134 1.285 . S
C136 H155 0.930 . S
C137 C140 1.424 . S
C137 C142 1.245 . S
C137 C143 1.428 . S
C138 C141 1.260 . S
C138 C142 1.477 . S
C138 H156 0.932 . S
C139 C140 1.384 . S
C139 C141 1.479 . S
C139 H157 0.929 . S
C140 C137 1.424 . S
C140 C139 1.384 . S
C140 H158 0.928 . S
C141 C138 1.260 . S
C141 C139 1.479 . S
C142 C137 1.245 . S
C142 C138 1.477 . S
C142 H159 0.932 . S
C143 U126 2.882 . S
C143 C137 1.428 . S
C143 O146 1.301 . S
C143 O147 1.282 . S
O144 U126 2.441 . S
O144 C130 1.249 . S
O145 U126 2.420 . S
O145 C130 1.202 . S
O146 U126 2.455 . S
O146 C143 1.301 . S
O147 U126 2.449 . S
O147 C143 1.282 . S
H148 C121 0.931 . S
H149 C123 0.929 . S
H150 C124 0.930 . S
H151 C125 0.931 . S
H152 C132 0.932 . S
H153 C133 0.930 . S
H154 C134 0.929 . S
H155 C136 0.930 . S
H156 C138 0.932 . S
H157 C139 0.929 . S
H158 C140 0.928 . S
H159 C142 0.932 . S
C160 C161 1.264 . S
C160 C165 1.479 . S
C160 C170 1.465 1_655 S
C161 C160 1.264 . S
C161 C163 1.339 . S
C161 H188 0.931 1_665 S
C162 C163 1.395 . S
C162 C164 1.320 . S
C163 C161 1.339 . S
C163 C162 1.395 . S
C163 H189 0.929 1_565 S
C164 C162 1.320 . S
C164 C165 1.405 . S
C164 H190 0.930 . S
C165 C160 1.479 . S
C165 C164 1.405 . S
C165 H191 0.931 . S
U166 O167 2.454 . S
U166 O168 2.458 . S
U166 C169 2.984 . S
U166 C170 2.847 . S
U166 C183 2.882 . S
U166 O184 2.441 . S
U166 O185 2.420 . S
U166 O186 2.455 . S
U166 O187 2.496 . S
O167 U166 2.454 . S
O167 C169 1.353 . S
O168 U166 2.458 . S
O168 C169 1.286 . S
C169 U166 2.984 . S
C169 O167 1.353 . S
C169 O168 1.286 . S
C169 C171 1.363 . S
C170 C160 1.465 1_455 S
C170 U166 2.847 . S
C170 O184 1.249 . S
C170 O185 1.202 . S
C171 C169 1.363 . S
C171 C173 1.408 . S
C171 C176 1.342 . S
C172 C173 1.310 . S
C172 C175 1.461 . S
C172 H192 0.977 . S
C173 C171 1.408 . S
C173 C172 1.310 . S
C173 H193 0.930 . S
C174 C175 1.474 . S
C174 C176 1.285 . S
C174 H194 0.929 . S
C175 C172 1.461 . S
C175 C174 1.474 . S
C176 C171 1.342 . S
C176 C174 1.285 . S
C176 H195 0.930 . S
C177 C180 1.424 . S
C177 C182 1.245 . S
C177 C183 1.428 1_545 S
C178 C181 1.260 . S
C178 C182 1.477 . S
C178 H196 0.932 . S
C179 C180 1.384 . S
C179 C181 1.479 . S
C179 H197 0.929 . S
C180 C177 1.424 . S
C180 C179 1.384 . S
C180 H198 0.928 . S
C181 C178 1.260 . S
C181 C179 1.479 . S
C182 C177 1.245 . S
C182 C178 1.477 . S
C182 H199 0.932 1_545 S
C183 U166 2.882 . S
C183 C177 1.428 1_565 S
C183 O186 1.301 . S
C183 O187 1.294 . S
O184 U166 2.441 . S
O184 C170 1.249 . S
O185 U166 2.420 . S
O185 C170 1.202 . S
O186 U166 2.455 . S
O186 C183 1.301 . S
O187 U166 2.496 . S
O187 C183 1.294 . S
H188 C161 0.931 1_445 S
H189 C163 0.929 1_545 S
H190 C164 0.930 . S
H191 C165 0.931 . S
H192 C172 0.977 . S
H193 C173 0.930 . S
H194 C174 0.929 . S
H195 C176 0.930 . S
H196 C178 0.932 . S
H197 C179 0.929 . S
H198 C180 0.928 . S
H199 C182 0.932 1_565 S
C200 C201 1.264 . S
C200 C205 1.479 . S
C200 C210 1.465 . S
C201 C200 1.264 . S
C201 C203 1.339 . S
C201 H228 0.931 . S
C202 C203 1.395 . S
C202 C204 1.320 . S
C203 C201 1.339 . S
C203 C202 1.395 . S
C203 H229 0.929 . S
C204 C202 1.320 . S
C204 C205 1.405 . S
C204 H230 0.930 . S
C205 C200 1.479 . S
C205 C204 1.405 . S
C205 H231 0.931 . S
U206 O207 2.454 . S
U206 O208 2.458 . S
U206 C209 2.984 . S
U206 C210 2.847 . S
U206 C223 2.882 . S
U206 O224 2.441 . S
U206 O225 2.420 . S
U206 O226 2.455 . S
U206 O227 2.449 . S
O207 U206 2.454 . S
O207 C209 1.353 . S
O208 U206 2.458 . S
O208 C209 1.286 . S
C209 U206 2.984 . S
C209 O207 1.353 . S
C209 O208 1.286 . S
C209 C211 1.363 . S
C210 C200 1.465 . S
C210 U206 2.847 . S
C210 O224 1.249 . S
C210 O225 1.202 . S
C211 C209 1.363 . S
C211 C213 1.408 . S
C211 C216 1.342 . S
C212 C213 1.310 . S
C212 C215 1.461 . S
C212 H232 0.932 . S
C213 C211 1.408 . S
C213 C212 1.310 . S
C213 H233 0.930 . S
C214 C215 1.474 . S
C214 C216 1.285 . S
C214 H234 0.929 . S
C215 C212 1.461 . S
C215 C214 1.474 . S
C216 C211 1.342 . S
C216 C214 1.285 . S
C216 H235 0.930 . S
C217 C220 1.424 . S
C217 C222 1.245 . S
C217 C223 1.428 . S
C218 C221 1.260 . S
C218 C222 1.477 . S
C218 H236 0.932 . S
C219 C220 1.384 . S
C219 C221 1.479 . S
C219 H237 0.929 . S
C220 C217 1.424 . S
C220 C219 1.384 . S
C220 H238 0.928 . S
C221 C218 1.260 . S
C221 C219 1.479 . S
C222 C217 1.245 . S
C222 C218 1.477 . S
C222 H239 0.932 . S
C223 U206 2.882 . S
C223 C217 1.428 . S
C223 O226 1.301 . S
C223 O227 1.282 . S
O224 U206 2.441 . S
O224 C210 1.249 . S
O225 U206 2.420 . S
O225 C210 1.202 . S
O226 U206 2.455 . S
O226 C223 1.301 . S
O227 U206 2.449 . S
O227 C223 1.282 . S
H228 C201 0.931 . S
H229 C203 0.929 . S
H230 C204 0.930 . S
H231 C205 0.931 . S
H232 C212 0.932 . S
H233 C213 0.930 . S
H234 C214 0.929 . S
H235 C216 0.930 . S
H236 C218 0.932 . S
H237 C219 0.929 . S
H238 C220 0.928 . S
H239 C222 0.932 . S
C240 C241 1.264 . S
C240 C245 1.479 . S
C240 C250 1.465 . S
C241 C240 1.264 . S
C241 C243 1.339 . S
C241 H268 0.931 1_655 S
C242 C243 1.395 . S
C242 C244 1.320 . S
C243 C241 1.339 . S
C243 C242 1.395 . S
C243 H269 0.929 1_655 S
C244 C242 1.320 . S
C244 C245 1.405 . S
C244 H270 0.930 . S
C245 C240 1.479 . S
C245 C244 1.405 . S
C245 H271 0.931 . S
U246 O247 2.454 . S
U246 O248 2.458 . S
U246 C249 2.984 . S
U246 C250 2.847 . S
U246 C263 2.882 . S
U246 O264 2.441 . S
U246 O265 2.420 . S
U246 O266 2.455 . S
U246 O267 2.449 1_655 S
O247 U246 2.454 . S
O247 C249 1.353 . S
O248 U246 2.458 . S
O248 C249 1.286 . S
C249 U246 2.984 . S
C249 O247 1.353 . S
C249 O248 1.286 . S
C249 C251 1.363 . S
C250 C240 1.465 . S
C250 U246 2.847 . S
C250 O264 1.249 . S
C250 O265 1.202 . S
C251 C249 1.363 . S
C251 C253 1.408 . S
C251 C256 1.342 . S
C252 C253 1.310 . S
C252 C255 1.461 . S
C252 H272 0.932 . S
C253 C251 1.408 . S
C253 C252 1.310 . S
C253 H273 0.930 . S
C254 C255 1.474 . S
C254 C256 1.285 . S
C254 H274 0.929 . S
C255 C252 1.461 . S
C255 C254 1.474 . S
C256 C251 1.342 . S
C256 C254 1.285 . S
C256 H275 0.930 . S
C257 C260 1.424 . S
C257 C262 1.245 . S
C257 C263 1.428 1_455 S
C258 C261 1.260 . S
C258 C262 1.477 . S
C258 H276 0.932 . S
C259 C260 1.384 . S
C259 C261 1.479 . S
C259 H277 0.929 . S
C260 C257 1.424 . S
C260 C259 1.384 . S
C260 H278 0.928 . S
C261 C258 1.260 . S
C261 C259 1.479 . S
C262 C257 1.245 . S
C262 C258 1.477 . S
C262 H279 0.932 1_455 S
C263 U246 2.882 . S
C263 C257 1.428 1_655 S
C263 O266 1.301 . S
C263 O267 1.282 1_655 S
O264 U246 2.441 . S
O264 C250 1.249 . S
O265 U246 2.420 . S
O265 C250 1.202 . S
O266 U246 2.455 . S
O266 C263 1.301 . S
O267 U246 2.449 1_455 S
O267 C263 1.282 1_455 S
H268 C241 0.931 1_455 S
H269 C243 0.929 1_455 S
H270 C244 0.930 . S
H271 C245 0.931 . S
H272 C252 0.932 . S
H273 C253 0.930 . S
H274 C254 0.929 . S
H275 C256 0.930 . S
H276 C258 0.932 . S
H277 C259 0.929 . S
H278 C260 0.928 . S
H279 C262 0.932 1_655 S
C280 C281 1.264 . S
C280 C285 1.479 . S
C280 C290 1.465 . S
C281 C280 1.264 . S
C281 C283 1.339 . S
C281 H308 0.931 . S
C282 C283 1.395 . S
C282 C284 1.320 . S
C283 C281 1.339 . S
C283 C282 1.395 . S
C283 H309 0.929 . S
C284 C282 1.320 . S
C284 C285 1.405 . S
C284 H310 0.930 . S
C285 C280 1.479 . S
C285 C284 1.405 . S
C285 H311 0.931 . S
U286 O287 2.454 . S
U286 O288 2.458 . S
U286 C289 2.984 . S
U286 C290 2.847 . S
U286 C303 2.882 . S
U286 O304 2.441 . S
U286 O305 2.420 . S
U286 O306 2.455 . S
U286 O307 2.449 . S
O287 U286 2.454 . S
O287 C289 1.353 . S
O288 U286 2.458 . S
O288 C289 1.286 . S
C289 U286 2.984 . S
C289 O287 1.353 . S
C289 O288 1.286 . S
C289 C291 1.363 . S
C290 C280 1.465 . S
C290 U286 2.847 . S
C290 O304 1.249 . S
C290 O305 1.202 . S
C291 C289 1.363 . S
C291 C293 1.408 . S
C291 C296 1.342 . S
C292 C293 1.310 . S
C292 C295 1.461 . S
C292 H312 0.932 . S
C293 C291 1.408 . S
C293 C292 1.310 . S
C293 H313 0.930 . S
C294 C295 1.474 . S
C294 C296 1.285 . S
C294 H314 0.929 . S
C295 C292 1.461 . S
C295 C294 1.474 . S
C296 C291 1.342 . S
C296 C294 1.285 . S
C296 H315 0.930 . S
C297 C300 1.424 . S
C297 C302 1.245 . S
C297 C303 1.428 . S
C298 C301 1.260 . S
C298 C302 1.477 . S
C298 H316 0.932 . S
C299 C300 1.384 . S
C299 C301 1.479 . S
C299 H317 0.929 . S
C300 C297 1.424 . S
C300 C299 1.384 . S
C300 H318 0.928 . S
C301 C298 1.260 . S
C301 C299 1.479 . S
C302 C297 1.245 . S
C302 C298 1.477 . S
C302 H319 0.932 . S
C303 U286 2.882 . S
C303 C297 1.428 . S
C303 O306 1.301 . S
C303 O307 1.282 . S
O304 U286 2.441 . S
O304 C290 1.249 . S
O305 U286 2.420 . S
O305 C290 1.202 . S
O306 U286 2.455 . S
O306 C303 1.301 . S
O307 U286 2.449 . S
O307 C303 1.282 . S
H308 C281 0.931 . S
H309 C283 0.929 . S
H310 C284 0.930 . S
H311 C285 0.931 . S
H312 C292 0.932 . S
H313 C293 0.930 . S
H314 C294 0.929 . S
H315 C296 0.930 . S
H316 C298 0.932 . S
H317 C299 0.929 . S
H318 C300 0.928 . S
H319 C302 0.932 . S
C320 C321 1.264 . S
C320 C325 1.479 . S
C320 C330 1.465 . S
C321 C320 1.264 . S
C321 C323 1.339 . S
C321 H348 0.931 . S
C322 C323 1.395 . S
C322 C324 1.320 . S
C323 C321 1.339 . S
C323 C322 1.395 . S
C323 H349 0.929 . S
C324 C322 1.320 . S
C324 C325 1.405 . S
C324 H350 0.930 . S
C325 C320 1.479 . S
C325 C324 1.405 . S
C325 H351 0.931 . S
U326 O327 2.454 . S
U326 O328 2.458 . S
U326 C329 2.984 . S
U326 C330 2.847 . S
U326 C343 2.882 . S
U326 O344 2.441 . S
U326 O345 2.420 . S
U326 O346 2.455 . S
U326 O347 2.449 . S
O327 U326 2.454 . S
O327 C329 1.353 . S
O328 U326 2.458 . S
O328 C329 1.286 . S
C329 U326 2.984 . S
C329 O327 1.353 . S
C329 O328 1.286 . S
C329 C331 1.363 . S
C330 C320 1.465 . S
C330 U326 2.847 . S
C330 O344 1.249 . S
C330 O345 1.202 . S
C331 C329 1.363 . S
C331 C333 1.408 . S
C331 C336 1.342 . S
C332 C333 1.310 . S
C332 C335 1.461 . S
C332 H352 0.932 . S
C333 C331 1.408 . S
C333 C332 1.310 . S
C333 H353 0.930 . S
C334 C335 1.474 . S
C334 C336 1.285 . S
C334 H354 0.929 . S
C335 C332 1.461 . S
C335 C334 1.474 . S
C336 C331 1.342 . S
C336 C334 1.285 . S
C336 H355 0.930 . S
C337 C340 1.424 . S
C337 C342 1.245 . S
C337 C343 1.428 . S
C338 C341 1.260 . S
C338 C342 1.477 . S
C338 H356 0.932 . S
C339 C340 1.384 . S
C339 C341 1.479 . S
C339 H357 0.929 . S
C340 C337 1.424 . S
C340 C339 1.384 . S
C340 H358 0.928 . S
C341 C338 1.260 . S
C341 C339 1.479 . S
C342 C337 1.245 . S
C342 C338 1.477 . S
C342 H359 0.932 . S
C343 U326 2.882 . S
C343 C337 1.428 . S
C343 O346 1.301 . S
C343 O347 1.282 . S
O344 U326 2.441 . S
O344 C330 1.249 . S
O345 U326 2.420 . S
O345 C330 1.202 . S
O346 U326 2.455 . S
O346 C343 1.301 . S
O347 U326 2.449 . S
O347 C343 1.282 . S
H348 C321 0.931 . S
H349 C323 0.929 . S
H350 C324 0.930 . S
H351 C325 0.931 . S
H352 C332 0.932 . S
H353 C333 0.930 . S
H354 C334 0.929 . S
H355 C336 0.930 . S
H356 C338 0.932 . S
H357 C339 0.929 . S
H358 C340 0.928 . S
H359 C342 0.932 . S
C360 C361 1.264 . S
C360 C365 1.479 . S
C360 C370 1.465 . S
C361 C360 1.264 . S
C361 C363 1.339 . S
C361 H388 0.931 . S
C362 C363 1.395 . S
C362 C364 1.320 . S
C363 C361 1.339 . S
C363 C362 1.395 . S
C363 H389 0.929 . S
C364 C362 1.320 . S
C364 C365 1.405 . S
C364 H390 0.930 . S
C365 C360 1.479 . S
C365 C364 1.405 . S
C365 H391 0.931 . S
U366 O367 2.454 . S
U366 O368 2.458 . S
U366 C369 2.984 . S
U366 C370 2.847 . S
U366 C383 2.882 . S
U366 O384 2.441 . S
U366 O385 2.420 . S
U366 O386 2.455 . S
U366 O387 2.449 . S
O367 U366 2.454 . S
O367 C369 1.353 . S
O368 U366 2.458 . S
O368 C369 1.286 . S
C369 U366 2.984 . S
C369 O367 1.353 . S
C369 O368 1.286 . S
C369 C371 1.363 1_565 S
C370 C360 1.465 . S
C370 U366 2.847 . S
C370 O384 1.249 . S
C370 O385 1.202 . S
C371 C369 1.363 1_545 S
C371 C373 1.408 . S
C371 C376 1.342 . S
C372 C373 1.310 . S
C372 C375 1.461 . S
C372 H392 0.932 . S
C373 C371 1.408 . S
C373 C372 1.310 . S
C373 H393 0.930 1_545 S
C374 C375 1.474 . S
C374 C376 1.285 . S
C374 H394 0.929 . S
C375 C372 1.461 . S
C375 C374 1.474 . S
C376 C371 1.342 . S
C376 C374 1.285 . S
C376 H395 0.930 . S
C377 C380 1.424 . S
C377 C382 1.245 . S
C377 C383 1.428 . S
C378 C381 1.260 . S
C378 C382 1.477 . S
C378 H396 0.932 1_565 S
C379 C380 1.384 . S
C379 C381 1.479 . S
C379 H397 0.929 . S
C380 C377 1.424 . S
C380 C379 1.384 . S
C380 H398 0.928 . S
C381 C378 1.260 . S
C381 C379 1.479 . S
C382 C377 1.245 . S
C382 C378 1.477 . S
C382 H399 0.932 1_565 S
C383 U366 2.882 . S
C383 C377 1.428 . S
C383 O386 1.301 . S
C383 O387 1.282 . S
O384 U366 2.441 . S
O384 C370 1.249 . S
O385 U366 2.420 . S
O385 C370 1.202 . S
O386 U366 2.455 . S
O386 C383 1.301 . S
O387 U366 2.449 . S
O387 C383 1.282 . S
H388 C361 0.931 . S
H389 C363 0.929 . S
H390 C364 0.930 . S
H391 C365 0.931 . S
H392 C372 0.932 . S
H393 C373 0.930 1_565 S
H394 C374 0.929 . S
H395 C376 0.930 . S
H396 C378 0.932 1_545 S
H397 C379 0.929 . S
H398 C380 0.928 . S
H399 C382 0.932 1_545 S
C400 C401 1.264 . S
C400 C405 1.479 . S
C400 C410 1.465 . S
C401 C400 1.264 . S
C401 C403 1.339 . S
C401 H428 0.931 . S
C402 C403 1.395 . S
C402 C404 1.320 . S
C403 C401 1.339 . S
C403 C402 1.395 . S
C403 H429 0.929 . S
C404 C402 1.320 . S
C404 C405 1.405 . S
C404 H430 0.930 . S
C405 C400 1.479 . S
C405 C404 1.405 . S
C405 H431 0.931 . S
U406 O407 2.454 . S
U406 O408 2.458 . S
U406 C409 2.984 . S
U406 C410 2.847 . S
U406 C423 2.882 . S
U406 O424 2.441 . S
U406 O425 2.420 . S
U406 O426 2.455 . S
U406 O427 2.449 . S
O407 U406 2.454 . S
O407 C409 1.353 . S
O408 U406 2.458 . S
O408 C409 1.286 . S
C409 U406 2.984 . S
C409 O407 1.353 . S
C409 O408 1.286 . S
C409 C411 1.363 . S
C410 C400 1.465 . S
C410 U406 2.847 . S
C410 O424 1.249 . S
C410 O425 1.202 . S
C411 C409 1.363 . S
C411 C413 1.408 . S
C411 C416 1.342 . S
C412 C413 1.310 . S
C412 C415 1.461 . S
C412 H432 0.932 . S
C413 C411 1.408 . S
C413 C412 1.310 . S
C413 H433 0.930 . S
C414 C415 1.474 . S
C414 C416 1.285 . S
C414 H434 0.929 . S
C415 C412 1.461 . S
C415 C414 1.474 . S
C416 C411 1.342 . S
C416 C414 1.285 . S
C416 H435 0.930 . S
C417 C420 1.424 . S
C417 C422 1.245 . S
C417 C423 1.428 . S
C418 C421 1.260 . S
C418 C422 1.477 . S
C418 H436 0.932 . S
C419 C420 1.384 . S
C419 C421 1.479 . S
C419 H437 0.929 . S
C420 C417 1.424 . S
C420 C419 1.384 . S
C420 H438 0.928 . S
C421 C418 1.260 . S
C421 C419 1.479 . S
C422 C417 1.245 . S
C422 C418 1.477 . S
C422 H439 0.932 . S
C423 U406 2.882 . S
C423 C417 1.428 . S
C423 O426 1.301 . S
C423 O427 1.282 . S
O424 U406 2.441 . S
O424 C410 1.249 . S
O425 U406 2.420 . S
O425 C410 1.202 . S
O426 U406 2.455 . S
O426 C423 1.301 . S
O427 U406 2.449 . S
O427 C423 1.282 . S
H428 C401 0.931 . S
H429 C403 0.929 . S
H430 C404 0.930 . S
H431 C405 0.931 . S
H432 C412 0.932 . S
H433 C413 0.930 . S
H434 C414 0.929 . S
H435 C416 0.930 . S
H436 C418 0.932 . S
H437 C419 0.929 . S
H438 C420 0.928 . S
H439 C422 0.932 . S
C440 C441 1.264 . S
C440 C445 1.479 . S
C440 C450 1.465 . S
C441 C440 1.264 . S
C441 C443 1.339 . S
C441 H468 0.931 . S
C442 C443 1.395 . S
C442 C444 1.320 . S
C443 C441 1.339 . S
C443 C442 1.395 . S
C443 H469 0.929 . S
C444 C442 1.320 . S
C444 C445 1.405 . S
C444 H470 0.930 . S
C445 C440 1.479 . S
C445 C444 1.405 . S
C445 H471 0.931 . S
U446 O447 2.454 . S
U446 O448 2.458 . S
U446 C449 2.984 . S
U446 C450 2.847 . S
U446 C463 2.882 . S
U446 O464 2.441 . S
U446 O465 2.420 . S
U446 O466 2.455 . S
U446 O467 2.449 . S
O447 U446 2.454 . S
O447 C449 1.353 . S
O448 U446 2.458 . S
O448 C449 1.286 . S
C449 U446 2.984 . S
C449 O447 1.353 . S
C449 O448 1.286 . S
C449 C451 1.363 . S
C450 C440 1.465 . S
C450 U446 2.847 . S
C450 O464 1.249 . S
C450 O465 1.202 . S
C451 C449 1.363 . S
C451 C453 1.408 . S
C451 C456 1.342 . S
C452 C453 1.310 . S
C452 C455 1.461 . S
C452 H472 0.932 . S
C453 C451 1.408 . S
C453 C452 1.310 . S
C453 H473 0.930 . S
C454 C455 1.474 . S
C454 C456 1.285 . S
C454 H474 0.929 . S
C455 C452 1.461 . S
C455 C454 1.474 . S
C456 C451 1.342 . S
C456 C454 1.285 . S
C456 H475 0.930 . S
C457 C460 1.424 . S
C457 C462 1.245 . S
C457 C463 1.428 . S
C458 C461 1.260 . S
C458 C462 1.477 . S
C458 H476 0.932 . S
C459 C460 1.384 . S
C459 C461 1.479 . S
C459 H477 0.929 . S
C460 C457 1.424 . S
C460 C459 1.384 . S
C460 H478 0.928 . S
C461 C458 1.260 . S
C461 C459 1.479 . S
C462 C457 1.245 . S
C462 C458 1.477 . S
C462 H479 0.932 . S
C463 U446 2.882 . S
C463 C457 1.428 . S
C463 O466 1.301 . S
C463 O467 1.282 . S
O464 U446 2.441 . S
O464 C450 1.249 . S
O465 U446 2.420 . S
O465 C450 1.202 . S
O466 U446 2.455 . S
O466 C463 1.301 . S
O467 U446 2.449 . S
O467 C463 1.282 . S
H468 C441 0.931 . S
H469 C443 0.929 . S
H470 C444 0.930 . S
H471 C445 0.931 . S
H472 C452 0.932 . S
H473 C453 0.930 . S
H474 C454 0.929 . S
H475 C456 0.930 . S
H476 C458 0.932 . S
H477 C459 0.929 . S
H478 C460 0.928 . S
H479 C462 0.932 . S
C480 C481 1.264 . S
C480 C485 1.479 . S
C480 C490 1.465 . S
C481 C480 1.264 . S
C481 C483 1.339 . S
C481 H508 0.931 . S
C482 C483 1.395 . S
C482 C484 1.320 . S
C483 C481 1.339 . S
C483 C482 1.395 . S
C483 H509 0.929 . S
C484 C482 1.320 . S
C484 C485 1.405 . S
C484 H510 0.930 . S
C485 C480 1.479 . S
C485 C484 1.405 . S
C485 H511 0.931 . S
U486 O487 2.454 . S
U486 O488 2.458 . S
U486 C489 2.984 . S
U486 C490 2.847 . S
U486 C503 2.882 . S
U486 O504 2.441 . S
U486 O505 2.420 . S
U486 O506 2.455 . S
U486 O507 2.449 . S
O487 U486 2.454 . S
O487 C489 1.353 . S
O488 U486 2.458 . S
O488 C489 1.286 . S
C489 U486 2.984 . S
C489 O487 1.353 . S
C489 O488 1.286 . S
C489 C491 1.363 . S
C490 C480 1.465 . S
C490 U486 2.847 . S
C490 O504 1.249 . S
C490 O505 1.202 . S
C491 C489 1.363 . S
C491 C493 1.408 . S
C491 C496 1.342 . S
C492 C493 1.310 . S
C492 C495 1.461 . S
C492 H512 0.932 . S
C493 C491 1.408 . S
C493 C492 1.310 . S
C493 H513 0.930 . S
C494 C495 1.474 . S
C494 C496 1.285 . S
C494 H514 0.929 . S
C495 C492 1.461 . S
C495 C494 1.474 . S
C496 C491 1.342 . S
C496 C494 1.285 . S
C496 H515 0.930 . S
C497 C500 1.424 . S
C497 C502 1.245 . S
C497 C503 1.428 . S
C498 C501 1.260 . S
C498 C502 1.477 . S
C498 H516 0.932 . S
C499 C500 1.384 . S
C499 C501 1.479 . S
C499 H517 0.929 . S
C500 C497 1.424 . S
C500 C499 1.384 . S
C500 H518 0.928 . S
C501 C498 1.260 . S
C501 C499 1.479 . S
C502 C497 1.245 . S
C502 C498 1.477 . S
C502 H519 0.932 . S
C503 U486 2.882 . S
C503 C497 1.428 . S
C503 O506 1.301 . S
C503 O507 1.282 . S
O504 U486 2.441 . S
O504 C490 1.249 . S
O505 U486 2.420 . S
O505 C490 1.202 . S
O506 U486 2.455 . S
O506 C503 1.301 . S
O507 U486 2.449 . S
O507 C503 1.282 . S
H508 C481 0.931 . S
H509 C483 0.929 . S
H510 C484 0.930 . S
H511 C485 0.931 . S
H512 C492 0.932 . S
H513 C493 0.930 . S
H514 C494 0.929 . S
H515 C496 0.930 . S
H516 C498 0.932 . S
H517 C499 0.929 . S
H518 C500 0.928 . S
H519 C502 0.932 . S
C520 C521 1.264 . S
C520 C525 1.479 . S
C520 C530 1.465 . S
C521 C520 1.264 . S
C521 C523 1.339 . S
C521 H548 0.931 . S
C522 C523 1.395 . S
C522 C524 1.320 . S
C523 C521 1.339 . S
C523 C522 1.395 . S
C523 H549 0.929 . S
C524 C522 1.320 . S
C524 C525 1.405 . S
C524 H550 0.930 . S
C525 C520 1.479 . S
C525 C524 1.405 . S
C525 H551 0.931 . S
U526 O527 2.454 . S
U526 O528 2.458 . S
U526 C529 2.984 . S
U526 C530 2.847 . S
U526 C543 2.882 . S
U526 O544 2.441 . S
U526 O545 2.420 . S
U526 O546 2.455 . S
U526 O547 2.449 . S
O527 U526 2.454 . S
O527 C529 1.353 . S
O528 U526 2.458 . S
O528 C529 1.286 . S
C529 U526 2.984 . S
C529 O527 1.353 . S
C529 O528 1.286 . S
C529 C531 1.363 1_556 S
C530 C520 1.465 . S
C530 U526 2.847 . S
C530 O544 1.249 . S
C530 O545 1.202 . S
C531 C529 1.363 1_554 S
C531 C533 1.408 . S
C531 C536 1.342 . S
C532 C533 1.310 . S
C532 C535 1.461 . S
C532 H552 0.932 . S
C533 C531 1.408 . S
C533 C532 1.310 . S
C533 H553 0.930 1_554 S
C534 C535 1.474 . S
C534 C536 1.285 . S
C534 H554 0.929 . S
C535 C532 1.461 . S
C535 C534 1.474 . S
C536 C531 1.342 . S
C536 C534 1.285 . S
C536 H555 0.930 . S
C537 C540 1.424 . S
C537 C542 1.245 . S
C537 C543 1.428 . S
C538 C541 1.260 . S
C538 C542 1.477 . S
C538 H556 0.932 1_556 S
C539 C540 1.384 . S
C539 C541 1.479 . S
C539 H557 0.929 . S
C540 C537 1.424 . S
C540 C539 1.384 . S
C540 H558 0.928 . S
C541 C538 1.260 . S
C541 C539 1.479 . S
C542 C537 1.245 . S
C542 C538 1.477 . S
C542 H559 0.932 1_556 S
C543 U526 2.882 . S
C543 C537 1.428 . S
C543 O546 1.301 . S
C543 O547 1.282 . S
O544 U526 2.441 . S
O544 C530 1.249 . S
O545 U526 2.420 . S
O545 C530 1.202 . S
O546 U526 2.455 . S
O546 C543 1.301 . S
O547 U526 2.449 . S
O547 C543 1.282 . S
H548 C521 0.931 . S
H549 C523 0.929 . S
H550 C524 0.930 . S
H551 C525 0.931 . S
H552 C532 0.932 . S
H553 C533 0.930 1_556 S
H554 C534 0.929 . S
H555 C536 0.930 . S
H556 C538 0.932 1_554 S
H557 C539 0.929 . S
H558 C540 0.928 . S
H559 C542 0.932 1_554 S
C560 C561 1.264 . S
C560 C565 1.479 . S
C560 C570 1.465 . S
C561 C560 1.264 . S
C561 C563 1.339 . S
C561 H588 0.931 . S
C562 C563 1.395 . S
C562 C564 1.320 . S
C563 C561 1.339 . S
C563 C562 1.395 . S
C563 H589 0.929 . S
C564 C562 1.320 . S
C564 C565 1.405 . S
C564 H590 0.930 . S
C565 C560 1.479 . S
C565 C564 1.405 . S
C565 H591 0.931 . S
U566 O567 2.454 . S
U566 O568 2.458 . S
U566 C569 2.984 . S
U566 C570 2.847 . S
U566 C583 2.882 . S
U566 O584 2.441 . S
U566 O585 2.420 . S
U566 O586 2.455 . S
U566 O587 2.449 . S
O567 U566 2.454 . S
O567 C569 1.353 . S
O568 U566 2.458 . S
O568 C569 1.286 . S
C569 U566 2.984 . S
C569 O567 1.353 . S
C569 O568 1.286 . S
C569 C571 1.363 . S
C570 C560 1.465 . S
C570 U566 2.847 . S
C570 O584 1.249 . S
C570 O585 1.202 . S
C571 C569 1.363 . S
C571 C573 1.408 . S
C571 C576 1.342 . S
C572 C573 1.310 . S
C572 C575 1.461 . S
C572 H592 0.932 . S
C573 C571 1.408 . S
C573 C572 1.310 . S
C573 H593 0.930 . S
C574 C575 1.474 . S
C574 C576 1.285 . S
C574 H594 0.929 . S
C575 C572 1.461 . S
C575 C574 1.474 . S
C576 C571 1.342 . S
C576 C574 1.285 . S
C576 H595 0.930 . S
C577 C580 1.424 . S
C577 C582 1.245 . S
C577 C583 1.428 . S
C578 C581 1.260 . S
C578 C582 1.477 . S
C578 H596 0.932 . S
C579 C580 1.384 . S
C579 C581 1.479 . S
C579 H597 0.929 . S
C580 C577 1.424 . S
C580 C579 1.384 . S
C580 H598 0.928 . S
C581 C578 1.260 . S
C581 C579 1.479 . S
C582 C577 1.245 . S
C582 C578 1.477 . S
C582 H599 0.932 . S
C583 U566 2.882 . S
C583 C577 1.428 . S
C583 O586 1.301 . S
C583 O587 1.282 . S
O584 U566 2.441 . S
O584 C570 1.249 . S
O585 U566 2.420 . S
O585 C570 1.202 . S
O586 U566 2.455 . S
O586 C583 1.301 . S
O587 U566 2.449 . S
O587 C583 1.282 . S
H588 C561 0.931 . S
H589 C563 0.929 . S
H590 C564 0.930 . S
H591 C565 0.931 . S
H592 C572 0.932 . S
H593 C573 0.930 . S
H594 C574 0.929 . S
H595 C576 0.930 . S
H596 C578 0.932 . S
H597 C579 0.929 . S
H598 C580 0.928 . S
H599 C582 0.932 . S
C600 C601 1.264 . S
C600 C605 1.479 . S
C600 C610 1.465 . S
C601 C600 1.264 . S
C601 C603 1.339 . S
C601 H628 0.888 1_554 S
C602 C603 1.395 . S
C602 C604 1.320 . S
C603 C601 1.339 . S
C603 C602 1.395 . S
C603 H629 0.929 . S
C604 C602 1.320 . S
C604 C605 1.405 . S
C604 H630 0.930 . S
C605 C600 1.479 . S
C605 C604 1.405 . S
C605 H631 0.931 . S
U606 O607 2.454 . S
U606 O608 2.458 . S
U606 C609 2.984 . S
U606 C610 2.847 1_556 S
U606 C623 2.882 . S
U606 O624 2.441 1_556 S
U606 O625 2.420 . S
U606 O626 2.455 . S
U606 O627 2.449 . S
O607 U606 2.454 . S
O607 C609 1.353 . S
O608 U606 2.458 . S
O608 C609 1.286 . S
C609 U606 2.984 . S
C609 O607 1.353 . S
C609 O608 1.286 . S
C609 C611 1.363 1_545 S
C610 C600 1.465 . S
C610 U606 2.847 1_554 S
C610 O624 1.249 . S
C610 O625 1.202 1_554 S
C611 C609 1.363 1_565 S
C611 C613 1.408 . S
C611 C616 1.342 . S
C612 C613 1.310 . S
C612 C615 1.461 . S
C612 H632 0.932 1_556 S
C613 C611 1.408 . S
C613 C612 1.310 . S
C613 H633 0.930 1_566 S
C614 C615 1.474 . S
C614 C616 1.285 . S
C614 H634 0.929 . S
C615 C612 1.461 . S
C615 C614 1.474 . S
C616 C611 1.342 . S
C616 C614 1.285 . S
C616 H635 0.930 . S
C617 C620 1.424 . S
C617 C622 1.245 . S
C617 C623 1.428 . S
C618 C621 1.260 . S
C618 C622 1.477 . S
C618 H636 0.932 1_545 S
C619 C620 1.384 . S
C619 C621 1.479 . S
C619 H637 0.929 . S
C620 C617 1.424 . S
C620 C619 1.384 . S
C620 H638 0.928 . S
C621 C618 1.260 . S
C621 C619 1.479 . S
C622 C617 1.245 . S
C622 C618 1.477 . S
C622 H639 0.898 1_545 S
C623 U606 2.882 . S
C623 C617 1.428 . S
C623 O626 1.301 . S
C623 O627 1.282 . S
O624 U606 2.441 1_554 S
O624 C610 1.249 . S
O625 U606 2.420 . S
O625 C610 1.202 1_556 S
O626 U606 2.455 . S
O626 C623 1.301 . S
O627 U606 2.449 . S
O627 C623 1.282 . S
H628 C601 0.888 1_556 S
H629 C603 0.929 . S
H630 C604 0.930 . S
H631 C605 0.931 . S
H632 C612 0.932 1_554 S
H633 C613 0.930 1_544 S
H634 C614 0.929 . S
H635 C616 0.930 . S
H636 C618 0.932 1_565 S
H637 C619 0.929 . S
H638 C620 0.928 . S
H639 C622 0.898 1_565 S
Li640 N657 1.990 1_554 S
Li640 O700 1.956 . S
Li640 O701 1.970 . S
Li640 O702 1.961 1_554 S
Li641 N665 1.990 . S
Li641 O700 1.970 . S
Li641 O701 1.956 . S
Li641 O703 1.961 . S
Li642 N687 1.990 . S
Li642 O700 1.961 1_556 S
Li642 O702 1.956 . S
Li642 O703 1.970 1_556 S
Li643 N693 1.990 . S
Li643 O701 1.961 . S
Li643 O702 1.970 1_554 S
Li643 O703 1.956 . S
C644 C646 1.347 . S
C644 C647 1.357 1_554 S
C644 O700 1.325 . S
N645 C648 1.314 1_556 S
N645 C649 1.279 . S
C646 C644 1.347 . S
C646 C648 1.353 . S
C646 H704 0.929 . S
C647 C644 1.357 1_556 S
C647 C649 1.358 . S
C647 H705 0.930 . S
C648 N645 1.314 1_554 S
C648 C646 1.353 . S
C648 H706 0.930 . S
C649 N645 1.279 . S
C649 C647 1.358 . S
C649 H707 0.930 . S
C650 C653 1.348 . S
C650 C654 1.356 . S
C650 O701 1.325 . S
C651 N652 1.279 . S
C651 C654 1.358 . S
C651 H708 0.930 . S
N652 C651 1.279 . S
N652 C655 1.314 . S
C653 C650 1.348 . S
C653 C655 1.353 . S
C653 H709 0.929 . S
C654 C650 1.356 . S
C654 C651 1.358 . S
C654 H710 0.930 . S
C655 N652 1.314 . S
C655 C653 1.353 . S
C655 H711 0.930 . S
C656 N657 1.314 . S
C656 C661 1.353 . S
C656 H662 0.930 . S
N657 Li640 1.990 1_556 S
N657 C656 1.314 . S
N657 C659 1.281 . S
C658 C659 1.360 . S
C658 C660 1.356 . S
C658 H712 0.938 . S
C659 N657 1.281 . S
C659 C658 1.360 . S
C659 H663 0.927 1_556 S
C660 C658 1.356 . S
C660 C661 1.348 . S
C661 C656 1.353 . S
C661 C660 1.348 . S
C661 H713 0.929 . S
H662 C656 0.930 . S
H663 C659 0.927 1_554 S
C664 N665 1.314 . S
C664 C666 1.353 . S
C664 H670 0.930 . S
N665 Li641 1.990 . S
N665 C664 1.314 . S
N665 C668 1.279 . S
C666 C664 1.353 . S
C666 C669 1.348 . S
C666 H714 0.929 . S
C667 C668 1.358 . S
C667 C669 1.356 . S
C667 H715 0.930 . S
C668 N665 1.279 . S
C668 C667 1.358 . S
C668 H671 0.930 . S
C669 C666 1.348 . S
C669 C667 1.356 . S
H670 C664 0.930 . S
H671 C668 0.930 . S
C672 C674 1.348 . S
C672 C675 1.356 . S
C672 O702 1.325 . S
N673 C676 1.314 . S
N673 C677 1.279 . S
C674 C672 1.348 . S
C674 C676 1.353 . S
C674 H716 0.929 . S
C675 C672 1.356 . S
C675 C677 1.358 . S
C675 H717 0.930 . S
C676 N673 1.314 . S
C676 C674 1.353 . S
C676 H718 0.930 . S
C677 N673 1.279 . S
C677 C675 1.358 . S
C677 H719 0.930 . S
C678 C679 1.348 1_554 S
C678 C680 1.356 . S
C678 O703 1.325 . S
C679 C678 1.348 1_556 S
C679 C681 1.356 . S
C679 H720 0.929 . S
C680 C678 1.356 . S
C680 C682 1.358 . S
C680 H721 0.930 . S
C681 C679 1.356 . S
C681 N683 1.300 1_556 S
C681 H722 0.942 . S
C682 C680 1.358 . S
C682 N683 1.279 . S
C682 H723 0.930 . S
N683 C681 1.300 1_554 S
N683 C682 1.279 . S
C684 C686 1.353 . S
C684 N687 1.314 . S
C684 H690 0.930 . S
C685 N687 1.279 . S
C685 C688 1.358 . S
C685 H691 0.930 . S
C686 C684 1.353 . S
C686 C689 1.348 . S
C686 H724 0.929 . S
N687 Li642 1.990 . S
N687 C684 1.314 . S
N687 C685 1.279 . S
C688 C685 1.358 . S
C688 C689 1.356 . S
C688 H725 0.930 . S
C689 C686 1.348 . S
C689 C688 1.356 . S
H690 C684 0.930 . S
H691 C685 0.930 . S
C692 N693 1.314 . S
C692 C694 1.353 . S
C692 H698 0.930 . S
N693 Li643 1.990 . S
N693 C692 1.314 . S
N693 C696 1.279 . S
C694 C692 1.353 . S
C694 C697 1.348 . S
C694 H726 0.929 . S
C695 C696 1.358 . S
C695 C697 1.356 . S
C695 H727 0.930 . S
C696 N693 1.279 . S
C696 C695 1.358 . S
C696 H699 0.930 . S
C697 C694 1.348 . S
C697 C695 1.356 . S
H698 C692 0.930 . S
H699 C696 0.930 . S
O700 Li640 1.956 . S
O700 Li641 1.970 . S
O700 Li642 1.961 1_554 S
O700 C644 1.325 . S
O701 Li640 1.970 . S
O701 Li641 1.956 . S
O701 Li643 1.961 . S
O701 C650 1.325 . S
O702 Li640 1.961 1_556 S
O702 Li642 1.956 . S
O702 Li643 1.970 1_556 S
O702 C672 1.325 . S
O703 Li641 1.961 . S
O703 Li642 1.970 1_554 S
O703 Li643 1.956 . S
O703 C678 1.325 . S
H704 C646 0.929 . S
H705 C647 0.930 . S
H706 C648 0.930 . S
H707 C649 0.930 . S
H708 C651 0.930 . S
H709 C653 0.929 . S
H710 C654 0.930 . S
H711 C655 0.930 . S
H712 C658 0.938 . S
H713 C661 0.929 . S
H714 C666 0.929 . S
H715 C667 0.930 . S
H716 C674 0.929 . S
H717 C675 0.930 . S
H718 C676 0.930 . S
H719 C677 0.930 . S
H720 C679 0.929 . S
H721 C680 0.930 . S
H722 C681 0.942 . S
H723 C682 0.930 . S
H724 C686 0.929 . S
H725 C688 0.930 . S
H726 C694 0.929 . S
H727 C695 0.930 . S
Li728 N745 1.990 . S
Li728 O788 1.956 . S
Li728 O789 1.970 . S
Li728 O790 1.961 . S
Li729 N753 1.990 . S
Li729 O788 1.970 . S
Li729 O789 1.956 . S
Li729 O791 1.961 . S
Li730 N775 1.990 . S
Li730 O788 1.961 . S
Li730 O790 1.956 . S
Li730 O791 1.970 . S
Li731 N781 1.990 . S
Li731 O789 1.961 . S
Li731 O790 1.970 . S
Li731 O791 1.956 . S
C732 C734 1.348 . S
C732 C735 1.356 . S
C732 O788 1.325 . S
N733 C736 1.314 . S
N733 C737 1.279 . S
C734 C732 1.348 . S
C734 C736 1.353 . S
C734 H792 0.929 . S
C735 C732 1.356 . S
C735 C737 1.358 . S
C735 H793 0.930 . S
C736 N733 1.314 . S
C736 C734 1.353 . S
C736 H794 0.930 . S
C737 N733 1.279 . S
C737 C735 1.358 . S
C737 H795 0.930 . S
C738 C741 1.348 . S
C738 C742 1.356 . S
C738 O789 1.325 . S
C739 N740 1.279 . S
C739 C742 1.358 . S
C739 H796 0.930 . S
N740 C739 1.279 . S
N740 C743 1.314 . S
C741 C738 1.348 . S
C741 C743 1.353 . S
C741 H797 0.929 . S
C742 C738 1.356 . S
C742 C739 1.358 . S
C742 H798 0.930 . S
C743 N740 1.314 . S
C743 C741 1.353 . S
C743 H799 0.930 . S
C744 N745 1.314 . S
C744 C749 1.353 . S
C744 H750 0.930 . S
N745 Li728 1.990 . S
N745 C744 1.314 . S
N745 C747 1.279 . S
C746 C747 1.358 . S
C746 C748 1.356 . S
C746 H800 0.930 . S
C747 N745 1.279 . S
C747 C746 1.358 . S
C747 H751 0.930 . S
C748 C746 1.356 . S
C748 C749 1.348 . S
C749 C744 1.353 . S
C749 C748 1.348 . S
C749 H801 0.929 . S
H750 C744 0.930 . S
H751 C747 0.930 . S
C752 N753 1.314 . S
C752 C754 1.353 . S
C752 H758 0.930 . S
N753 Li729 1.990 . S
N753 C752 1.314 . S
N753 C756 1.279 . S
C754 C752 1.353 . S
C754 C757 1.348 . S
C754 H802 0.929 . S
C755 C756 1.358 . S
C755 C757 1.356 . S
C755 H803 0.930 . S
C756 N753 1.279 . S
C756 C755 1.358 . S
C756 H759 0.930 . S
C757 C754 1.348 . S
C757 C755 1.356 . S
H758 C752 0.930 . S
H759 C756 0.930 . S
C760 C762 1.348 . S
C760 C763 1.356 . S
C760 O790 1.325 . S
N761 C764 1.314 . S
N761 C765 1.279 . S
C762 C760 1.348 . S
C762 C764 1.353 . S
C762 H804 0.929 . S
C763 C760 1.356 . S
C763 C765 1.358 . S
C763 H805 0.930 . S
C764 N761 1.314 . S
C764 C762 1.353 . S
C764 H806 0.930 . S
C765 N761 1.279 . S
C765 C763 1.358 . S
C765 H807 0.930 . S
C766 C767 1.348 . S
C766 C768 1.356 . S
C766 O791 1.325 . S
C767 C766 1.348 . S
C767 C769 1.353 . S
C767 H808 0.929 . S
C768 C766 1.356 . S
C768 C770 1.358 . S
C768 H809 0.930 . S
C769 C767 1.353 . S
C769 N771 1.314 . S
C769 H810 0.930 . S
C770 C768 1.358 . S
C770 N771 1.279 . S
C770 H811 0.930 . S
N771 C769 1.314 . S
N771 C770 1.279 . S
C772 C774 1.353 . S
C772 N775 1.314 . S
C772 H778 0.930 . S
C773 N775 1.279 . S
C773 C776 1.358 . S
C773 H779 0.930 . S
C774 C772 1.353 . S
C774 C777 1.348 . S
C774 H812 0.929 . S
N775 Li730 1.990 . S
N775 C772 1.314 . S
N775 C773 1.279 . S
C776 C773 1.358 . S
C776 C777 1.356 . S
C776 H813 0.930 . S
C777 C774 1.348 . S
C777 C776 1.356 . S
H778 C772 0.930 . S
H779 C773 0.930 . S
C780 N781 1.314 . S
C780 C782 1.353 . S
C780 H786 0.930 . S
N781 Li731 1.990 . S
N781 C780 1.314 . S
N781 C784 1.279 . S
C782 C780 1.353 . S
C782 C785 1.348 . S
C782 H814 0.929 . S
C783 C784 1.358 . S
C783 C785 1.356 . S
C783 H815 0.930 . S
C784 N781 1.279 . S
C784 C783 1.358 . S
C784 H787 0.930 . S
C785 C782 1.348 . S
C785 C783 1.356 . S
H786 C780 0.930 . S
H787 C784 0.930 . S
O788 Li728 1.956 . S
O788 Li729 1.970 . S
O788 Li730 1.961 . S
O788 C732 1.325 . S
O789 Li728 1.970 . S
O789 Li729 1.956 . S
O789 Li731 1.961 . S
O789 C738 1.325 . S
O790 Li728 1.961 . S
O790 Li730 1.956 . S
O790 Li731 1.970 . S
O790 C760 1.325 . S
O791 Li729 1.961 . S
O791 Li730 1.970 . S
O791 Li731 1.956 . S
O791 C766 1.325 . S
H792 C734 0.929 . S
H793 C735 0.930 . S
H794 C736 0.930 . S
H795 C737 0.930 . S
H796 C739 0.930 . S
H797 C741 0.929 . S
H798 C742 0.930 . S
H799 C743 0.930 . S
H800 C746 0.930 . S
H801 C749 0.929 . S
H802 C754 0.929 . S
H803 C755 0.930 . S
H804 C762 0.929 . S
H805 C763 0.930 . S
H806 C764 0.930 . S
H807 C765 0.930 . S
H808 C767 0.929 . S
H809 C768 0.930 . S
H810 C769 0.930 . S
H811 C770 0.930 . S
H812 C774 0.929 . S
H813 C776 0.930 . S
H814 C782 0.929 . S
H815 C783 0.930 . S
Li816 N833 1.990 . S
Li816 O876 1.956 . S
Li816 O877 1.970 1_556 S
Li816 O878 1.961 . S
Li817 N841 1.990 . S
Li817 O876 1.970 1_554 S
Li817 O877 1.956 . S
Li817 O879 1.961 . S
Li818 N863 1.990 . S
Li818 O876 1.961 . S
Li818 O878 1.956 . S
Li818 O879 1.970 1_556 S
Li819 N869 1.990 . S
Li819 O877 1.961 . S
Li819 O878 1.970 1_554 S
Li819 O879 1.956 . S
C820 C822 1.348 1_556 S
C820 C823 1.356 . S
C820 O876 1.325 . S
N821 C824 1.314 1_556 S
N821 C825 1.279 . S
C822 C820 1.348 1_554 S
C822 C824 1.353 . S
C822 H880 0.929 . S
C823 C820 1.356 . S
C823 C825 1.358 . S
C823 H881 0.930 . S
C824 N821 1.314 1_554 S
C824 C822 1.353 . S
C824 H882 0.930 . S
C825 N821 1.279 . S
C825 C823 1.358 . S
C825 H883 0.930 . S
C826 C829 1.348 . S
C826 C830 1.356 . S
C826 O877 1.325 . S
C827 N828 1.279 . S
C827 C830 1.358 . S
C827 H884 0.930 . S
N828 C827 1.279 . S
N828 C831 1.314 . S
C829 C826 1.348 . S
C829 C831 1.353 . S
C829 H885 0.929 . S
C830 C826 1.356 . S
C830 C827 1.358 . S
C830 H886 0.930 . S
C831 N828 1.314 . S
C831 C829 1.353 . S
C831 H887 0.930 . S
C832 N833 1.314 . S
C832 C837 1.353 . S
C832 H838 0.930 . S
N833 Li816 1.990 . S
N833 C832 1.314 . S
N833 C835 1.279 . S
C834 C835 1.358 . S
C834 C836 1.356 . S
C834 H888 0.930 . S
C835 N833 1.279 . S
C835 C834 1.358 . S
C835 H839 0.930 . S
C836 C834 1.356 . S
C836 C837 1.348 . S
C837 C832 1.353 . S
C837 C836 1.348 . S
C837 H889 0.929 . S
H838 C832 0.930 . S
H839 C835 0.930 . S
C840 N841 1.314 . S
C840 C842 1.353 . S
C840 H846 0.930 . S
N841 Li817 1.990 . S
N841 C840 1.314 . S
N841 C844 1.279 . S
C842 C840 1.353 . S
C842 C845 1.348 . S
C842 H890 0.929 . S
C843 C844 1.358 . S
C843 C845 1.356 . S
C843 H891 0.930 . S
C844 N841 1.279 . S
C844 C843 1.358 . S
C844 H847 0.930 . S
C845 C842 1.348 . S
C845 C843 1.356 . S
H846 C840 0.930 . S
H847 C844 0.930 . S
C848 C850 1.348 . S
C848 C851 1.356 . S
C848 O878 1.325 . S
N849 C852 1.314 . S
N849 C853 1.279 . S
C850 C848 1.348 . S
C850 C852 1.353 . S
C850 H892 0.929 . S
C851 C848 1.356 . S
C851 C853 1.358 . S
C851 H893 0.930 . S
C852 N849 1.314 . S
C852 C850 1.353 . S
C852 H894 0.930 . S
C853 N849 1.279 . S
C853 C851 1.358 . S
C853 H895 0.930 . S
C854 C855 1.348 1_554 S
C854 C856 1.356 . S
C854 O879 1.325 . S
C855 C854 1.348 1_556 S
C855 C857 1.353 . S
C855 H896 0.929 . S
C856 C854 1.356 . S
C856 C858 1.358 . S
C856 H897 0.930 . S
C857 C855 1.353 . S
C857 N859 1.314 1_556 S
C857 H898 0.930 . S
C858 C856 1.358 . S
C858 N859 1.279 . S
C858 H899 0.930 . S
N859 C857 1.314 1_554 S
N859 C858 1.279 . S
C860 C862 1.353 . S
C860 N863 1.314 . S
C860 H866 0.930 . S
C861 N863 1.279 . S
C861 C864 1.358 . S
C861 H867 0.930 . S
C862 C860 1.353 . S
C862 C865 1.348 . S
C862 H900 0.929 . S
N863 Li818 1.990 . S
N863 C860 1.314 . S
N863 C861 1.279 . S
C864 C861 1.358 . S
C864 C865 1.356 . S
C864 H901 0.930 . S
C865 C862 1.348 . S
C865 C864 1.356 . S
H866 C860 0.930 . S
H867 C861 0.930 . S
C868 N869 1.314 . S
C868 C870 1.353 . S
C868 H874 0.930 . S
N869 Li819 1.990 . S
N869 C868 1.314 . S
N869 C872 1.279 . S
C870 C868 1.353 . S
C870 C873 1.348 . S
C870 H902 0.929 . S
C871 C872 1.358 . S
C871 C873 1.356 . S
C871 H903 0.930 . S
C872 N869 1.279 . S
C872 C871 1.358 . S
C872 H875 0.930 . S
C873 C870 1.348 . S
C873 C871 1.356 . S
H874 C868 0.930 . S
H875 C872 0.930 . S
O876 Li816 1.956 . S
O876 Li817 1.970 1_556 S
O876 Li818 1.961 . S
O876 C820 1.325 . S
O877 Li816 1.970 1_554 S
O877 Li817 1.956 . S
O877 Li819 1.961 . S
O877 C826 1.325 . S
O878 Li816 1.961 . S
O878 Li818 1.956 . S
O878 Li819 1.970 1_556 S
O878 C848 1.325 . S
O879 Li817 1.961 . S
O879 Li818 1.970 1_554 S
O879 Li819 1.956 . S
O879 C854 1.325 . S
H880 C822 0.929 . S
H881 C823 0.930 . S
H882 C824 0.930 . S
H883 C825 0.930 . S
H884 C827 0.930 . S
H885 C829 0.929 . S
H886 C830 0.930 . S
H887 C831 0.930 . S
H888 C834 0.930 . S
H889 C837 0.929 . S
H890 C842 0.929 . S
H891 C843 0.930 . S
H892 C850 0.929 . S
H893 C851 0.930 . S
H894 C852 0.930 . S
H895 C853 0.930 . S
H896 C855 0.929 . S
H897 C856 0.930 . S
H898 C857 0.930 . S
H899 C858 0.930 . S
H900 C862 0.929 . S
H901 C864 0.930 . S
H902 C870 0.929 . S
H903 C871 0.930 . S
Li904 N921 1.990 . S
Li904 O964 1.956 . S
Li904 O965 1.970 1_545 S
Li904 O966 1.961 . S
Li905 N929 1.990 . S
Li905 O964 1.970 1_565 S
Li905 O965 1.956 . S
Li905 O967 1.961 . S
Li906 N951 1.990 . S
Li906 O964 1.961 . S
Li906 O966 1.956 . S
Li906 O967 1.970 1_545 S
Li907 N957 1.990 . S
Li907 O965 1.961 . S
Li907 O966 1.970 1_565 S
Li907 O967 1.956 . S
C908 C910 1.348 . S
C908 C911 1.356 . S
C908 O964 1.325 . S
N909 C912 1.314 . S
N909 C913 1.279 . S
C910 C908 1.348 . S
C910 C912 1.353 . S
C910 H968 0.929 . S
C911 C908 1.356 . S
C911 C913 1.358 . S
C911 H969 0.930 . S
C912 N909 1.314 . S
C912 C910 1.353 . S
C912 H970 0.930 . S
C913 N909 1.279 . S
C913 C911 1.358 . S
C913 H971 0.930 . S
C914 C917 1.348 1_565 S
C914 C918 1.356 . S
C914 O965 1.325 . S
C915 N916 1.279 . S
C915 C918 1.358 . S
C915 H972 0.930 . S
N916 C915 1.279 . S
N916 C919 1.314 1_565 S
C917 C914 1.348 1_545 S
C917 C919 1.353 . S
C917 H973 0.929 . S
C918 C914 1.356 . S
C918 C915 1.358 . S
C918 H974 0.930 . S
C919 N916 1.314 1_545 S
C919 C917 1.353 . S
C919 H975 0.930 . S
C920 N921 1.314 . S
C920 C925 1.353 . S
C920 H926 0.930 . S
N921 Li904 1.990 . S
N921 C920 1.314 . S
N921 C923 1.279 . S
C922 C923 1.358 . S
C922 C924 1.356 . S
C922 H976 0.930 . S
C923 N921 1.279 . S
C923 C922 1.358 . S
C923 H927 0.930 . S
C924 C922 1.356 . S
C924 C925 1.348 . S
C925 C920 1.353 . S
C925 C924 1.348 . S
C925 H977 0.929 . S
H926 C920 0.930 . S
H927 C923 0.930 . S
C928 N929 1.314 . S
C928 C930 1.353 . S
C928 H934 0.930 . S
N929 Li905 1.990 . S
N929 C928 1.314 . S
N929 C932 1.279 . S
C930 C928 1.353 . S
C930 C933 1.348 . S
C930 H978 0.929 . S
C931 C932 1.358 . S
C931 C933 1.356 . S
C931 H979 0.930 . S
C932 N929 1.279 . S
C932 C931 1.358 . S
C932 H935 0.930 . S
C933 C930 1.348 . S
C933 C931 1.356 . S
H934 C928 0.930 . S
H935 C932 0.930 . S
C936 C938 1.348 1_545 S
C936 C939 1.356 . S
C936 O966 1.325 . S
N937 C940 1.314 1_545 S
N937 C941 1.279 . S
C938 C936 1.348 1_565 S
C938 C940 1.353 . S
C938 H980 0.929 . S
C939 C936 1.356 . S
C939 C941 1.358 . S
C939 H981 0.930 . S
C940 N937 1.314 1_565 S
C940 C938 1.353 . S
C940 H982 0.930 . S
C941 N937 1.279 . S
C941 C939 1.358 . S
C941 H983 0.930 . S
C942 C943 1.348 . S
C942 C944 1.356 . S
C942 O967 1.325 . S
C943 C942 1.348 . S
C943 C945 1.353 . S
C943 H984 0.929 . S
C944 C942 1.356 . S
C944 C946 1.358 . S
C944 H985 0.930 . S
C945 C943 1.353 . S
C945 N947 1.314 . S
C945 H986 0.930 . S
C946 C944 1.358 . S
C946 N947 1.279 . S
C946 H987 0.930 . S
N947 C945 1.314 . S
N947 C946 1.279 . S
C948 C950 1.353 . S
C948 N951 1.314 . S
C948 H954 0.930 . S
C949 N951 1.279 . S
C949 C952 1.358 . S
C949 H955 0.930 . S
C950 C948 1.353 . S
C950 C953 1.348 . S
C950 H988 0.929 . S
N951 Li906 1.990 . S
N951 C948 1.314 . S
N951 C949 1.279 . S
C952 C949 1.358 . S
C952 C953 1.356 . S
C952 H989 0.930 . S
C953 C950 1.348 . S
C953 C952 1.356 . S
H954 C948 0.930 . S
H955 C949 0.930 . S
C956 N957 1.314 . S
C956 C958 1.353 . S
C956 H962 0.930 . S
N957 Li907 1.990 . S
N957 C956 1.314 . S
N957 C960 1.279 . S
C958 C956 1.353 . S
C958 C961 1.348 . S
C958 H990 0.929 . S
C959 C960 1.358 . S
C959 C961 1.356 . S
C959 H991 0.930 . S
C960 N957 1.279 . S
C960 C959 1.358 . S
C960 H963 0.930 . S
C961 C958 1.348 . S
C961 C959 1.356 . S
H962 C956 0.930 . S
H963 C960 0.930 . S
O964 Li904 1.956 . S
O964 Li905 1.970 1_545 S
O964 Li906 1.961 . S
O964 C908 1.325 . S
O965 Li904 1.970 1_565 S
O965 Li905 1.956 . S
O965 Li907 1.961 . S
O965 C914 1.325 . S
O966 Li904 1.961 . S
O966 Li906 1.956 . S
O966 Li907 1.970 1_545 S
O966 C936 1.325 . S
O967 Li905 1.961 . S
O967 Li906 1.970 1_565 S
O967 Li907 1.956 . S
O967 C942 1.325 . S
H968 C910 0.929 . S
H969 C911 0.930 . S
H970 C912 0.930 . S
H971 C913 0.930 . S
H972 C915 0.930 . S
H973 C917 0.929 . S
H974 C918 0.930 . S
H975 C919 0.930 . S
H976 C922 0.930 . S
H977 C925 0.929 . S
H978 C930 0.929 . S
H979 C931 0.930 . S
H980 C938 0.929 . S
H981 C939 0.930 . S
H982 C940 0.930 . S
H983 C941 0.930 . S
H984 C943 0.929 . S
H985 C944 0.930 . S
H986 C945 0.930 . S
H987 C946 0.930 . S
H988 C950 0.929 . S
H989 C952 0.930 . S
H990 C958 0.929 . S
H991 C959 0.930 . S
Li992 N1009 1.990 . S
Li992 O1052 1.956 . S
Li992 O1053 1.970 . S
Li992 O1054 1.961 . S
Li993 N1017 1.990 . S
Li993 O1052 1.970 . S
Li993 O1053 1.956 . S
Li993 O1055 1.961 . S
Li994 N1039 1.990 . S
Li994 O1052 1.961 . S
Li994 O1054 1.956 . S
Li994 O1055 1.970 . S
Li995 N1045 1.990 . S
Li995 O1053 1.961 . S
Li995 O1054 1.970 . S
Li995 O1055 1.956 . S
C996 C998 1.348 . S
C996 C999 1.356 . S
C996 O1052 1.325 . S
N997 C1000 1.314 . S
N997 C1001 1.279 . S
C998 C996 1.348 . S
C998 C1000 1.353 . S
C998 H1056 0.929 . S
C999 C996 1.356 . S
C999 C1001 1.358 . S
C999 H1057 0.930 . S
C1000 N997 1.314 . S
C1000 C998 1.353 . S
C1000 H1058 0.930 . S
C1001 N997 1.279 . S
C1001 C999 1.358 . S
C1001 H1059 0.930 . S
C1002 C1005 1.348 . S
C1002 C1006 1.356 . S
C1002 O1053 1.325 . S
C1003 N1004 1.279 . S
C1003 C1006 1.358 . S
C1003 H1060 0.930 . S
N1004 C1003 1.279 . S
N1004 C1007 1.314 . S
C1005 C1002 1.348 . S
C1005 C1007 1.353 . S
C1005 H1061 0.929 . S
C1006 C1002 1.356 . S
C1006 C1003 1.358 . S
C1006 H1062 0.930 . S
C1007 N1004 1.314 . S
C1007 C1005 1.353 . S
C1007 H1063 0.930 . S
C1008 N1009 1.314 . S
C1008 C1013 1.353 . S
C1008 H1014 0.930 . S
N1009 Li992 1.990 . S
N1009 C1008 1.314 . S
N1009 C1011 1.279 . S
C1010 C1011 1.358 . S
C1010 C1012 1.356 . S
C1010 H1064 0.930 . S
C1011 N1009 1.279 . S
C1011 C1010 1.358 . S
C1011 H1015 0.930 . S
C1012 C1010 1.356 . S
C1012 C1013 1.348 . S
C1013 C1008 1.353 . S
C1013 C1012 1.348 . S
C1013 H1065 0.929 . S
H1014 C1008 0.930 . S
H1015 C1011 0.930 . S
C1016 N1017 1.314 . S
C1016 C1018 1.353 . S
C1016 H1022 0.930 . S
N1017 Li993 1.990 . S
N1017 C1016 1.314 . S
N1017 C1020 1.279 . S
C1018 C1016 1.353 . S
C1018 C1021 1.348 . S
C1018 H1066 0.929 . S
C1019 C1020 1.358 . S
C1019 C1021 1.356 . S
C1019 H1067 0.930 . S
C1020 N1017 1.279 . S
C1020 C1019 1.358 . S
C1020 H1023 0.930 . S
C1021 C1018 1.348 . S
C1021 C1019 1.356 . S
H1022 C1016 0.930 . S
H1023 C1020 0.930 . S
C1024 C1026 1.348 . S
C1024 C1027 1.356 . S
C1024 O1054 1.325 . S
N1025 C1028 1.314 . S
N1025 C1029 1.279 . S
C1026 C1024 1.348 . S
C1026 C1028 1.353 . S
C1026 H1068 0.929 . S
C1027 C1024 1.356 . S
C1027 C1029 1.358 . S
C1027 H1069 0.930 . S
C1028 N1025 1.314 . S
C1028 C1026 1.353 . S
C1028 H1070 0.930 . S
C1029 N1025 1.279 . S
C1029 C1027 1.358 . S
C1029 H1071 0.930 . S
C1030 C1031 1.348 . S
C1030 C1032 1.356 . S
C1030 O1055 1.325 . S
C1031 C1030 1.348 . S
C1031 C1033 1.353 . S
C1031 H1072 0.929 . S
C1032 C1030 1.356 . S
C1032 C1034 1.358 . S
C1032 H1073 0.930 . S
C1033 C1031 1.353 . S
C1033 N1035 1.314 . S
C1033 H1074 0.930 . S
C1034 C1032 1.358 . S
C1034 N1035 1.279 . S
C1034 H1075 0.930 . S
N1035 C1033 1.314 . S
N1035 C1034 1.279 . S
C1036 C1038 1.353 . S
C1036 N1039 1.314 . S
C1036 H1042 0.930 . S
C1037 N1039 1.279 . S
C1037 C1040 1.358 . S
C1037 H1043 0.930 . S
C1038 C1036 1.353 . S
C1038 C1041 1.348 . S
C1038 H1076 0.929 . S
N1039 Li994 1.990 . S
N1039 C1036 1.314 . S
N1039 C1037 1.279 . S
C1040 C1037 1.358 . S
C1040 C1041 1.356 . S
C1040 H1077 0.930 . S
C1041 C1038 1.348 . S
C1041 C1040 1.356 . S
H1042 C1036 0.930 . S
H1043 C1037 0.930 . S
C1044 N1045 1.314 . S
C1044 C1046 1.353 . S
C1044 H1050 0.930 . S
N1045 Li995 1.990 . S
N1045 C1044 1.314 . S
N1045 C1048 1.279 . S
C1046 C1044 1.353 . S
C1046 C1049 1.348 . S
C1046 H1078 0.929 . S
C1047 C1048 1.358 . S
C1047 C1049 1.356 . S
C1047 H1079 0.930 . S
C1048 N1045 1.279 . S
C1048 C1047 1.358 . S
C1048 H1051 0.930 . S
C1049 C1046 1.348 . S
C1049 C1047 1.356 . S
H1050 C1044 0.930 . S
H1051 C1048 0.930 . S
O1052 Li992 1.956 . S
O1052 Li993 1.970 . S
O1052 Li994 1.961 . S
O1052 C996 1.325 . S
O1053 Li992 1.970 . S
O1053 Li993 1.956 . S
O1053 Li995 1.961 . S
O1053 C1002 1.325 . S
O1054 Li992 1.961 . S
O1054 Li994 1.956 . S
O1054 Li995 1.970 . S
O1054 C1024 1.325 . S
O1055 Li993 1.961 . S
O1055 Li994 1.970 . S
O1055 Li995 1.956 . S
O1055 C1030 1.325 . S
H1056 C998 0.929 . S
H1057 C999 0.930 . S
H1058 C1000 0.930 . S
H1059 C1001 0.930 . S
H1060 C1003 0.930 . S
H1061 C1005 0.929 . S
H1062 C1006 0.930 . S
H1063 C1007 0.930 . S
H1064 C1010 0.930 . S
H1065 C1013 0.929 . S
H1066 C1018 0.929 . S
H1067 C1019 0.930 . S
H1068 C1026 0.929 . S
H1069 C1027 0.930 . S
H1070 C1028 0.930 . S
H1071 C1029 0.930 . S
H1072 C1031 0.929 . S
H1073 C1032 0.930 . S
H1074 C1033 0.930 . S
H1075 C1034 0.930 . S
H1076 C1038 0.929 . S
H1077 C1040 0.930 . S
H1078 C1046 0.929 . S
H1079 C1047 0.930 . S
Li1080 N1097 1.990 . S
Li1080 O1140 1.956 . S
Li1080 O1141 1.970 . S
Li1080 O1142 1.961 . S
Li1081 N1105 1.990 . S
Li1081 O1140 1.970 . S
Li1081 O1141 1.956 . S
Li1081 O1143 1.961 . S
Li1082 N1127 1.990 . S
Li1082 O1140 1.961 . S
Li1082 O1142 1.956 . S
Li1082 O1143 1.970 . S
Li1083 N1133 1.990 . S
Li1083 O1141 1.961 . S
Li1083 O1142 1.970 . S
Li1083 O1143 1.956 . S
C1084 C1086 1.348 . S
C1084 C1087 1.356 . S
C1084 O1140 1.325 . S
N1085 C1088 1.314 . S
N1085 C1089 1.279 . S
C1086 C1084 1.348 . S
C1086 C1088 1.353 . S
C1086 H1144 0.929 . S
C1087 C1084 1.356 . S
C1087 C1089 1.358 . S
C1087 H1145 0.930 . S
C1088 N1085 1.314 . S
C1088 C1086 1.353 . S
C1088 H1146 0.930 . S
C1089 N1085 1.279 . S
C1089 C1087 1.358 . S
C1089 H1147 0.930 . S
C1090 C1093 1.348 . S
C1090 C1094 1.356 . S
C1090 O1141 1.325 . S
C1091 N1092 1.279 . S
C1091 C1094 1.358 . S
C1091 H1148 0.930 . S
N1092 C1091 1.279 . S
N1092 C1095 1.314 . S
C1093 C1090 1.348 . S
C1093 C1095 1.353 . S
C1093 H1149 0.929 . S
C1094 C1090 1.356 . S
C1094 C1091 1.358 . S
C1094 H1150 0.930 . S
C1095 N1092 1.314 . S
C1095 C1093 1.353 . S
C1095 H1151 0.930 . S
C1096 N1097 1.314 . S
C1096 C1101 1.353 . S
C1096 H1102 0.930 . S
N1097 Li1080 1.990 . S
N1097 C1096 1.314 . S
N1097 C1099 1.279 . S
C1098 C1099 1.358 . S
C1098 C1100 1.356 . S
C1098 H1152 0.930 . S
C1099 N1097 1.279 . S
C1099 C1098 1.358 . S
C1099 H1103 0.930 . S
C1100 C1098 1.356 . S
C1100 C1101 1.348 . S
C1101 C1096 1.353 . S
C1101 C1100 1.348 . S
C1101 H1153 0.929 . S
H1102 C1096 0.930 . S
H1103 C1099 0.930 . S
C1104 N1105 1.314 . S
C1104 C1106 1.353 . S
C1104 H1110 0.930 . S
N1105 Li1081 1.990 . S
N1105 C1104 1.314 . S
N1105 C1108 1.279 . S
C1106 C1104 1.353 . S
C1106 C1109 1.348 . S
C1106 H1154 0.929 . S
C1107 C1108 1.358 . S
C1107 C1109 1.356 . S
C1107 H1155 0.930 . S
C1108 N1105 1.279 . S
C1108 C1107 1.358 . S
C1108 H1111 0.930 . S
C1109 C1106 1.348 . S
C1109 C1107 1.356 . S
H1110 C1104 0.930 . S
H1111 C1108 0.930 . S
C1112 C1114 1.348 . S
C1112 C1115 1.356 . S
C1112 O1142 1.325 . S
N1113 C1116 1.314 . S
N1113 C1117 1.279 . S
C1114 C1112 1.348 . S
C1114 C1116 1.353 . S
C1114 H1156 0.929 . S
C1115 C1112 1.356 . S
C1115 C1117 1.358 . S
C1115 H1157 0.930 . S
C1116 N1113 1.314 . S
C1116 C1114 1.353 . S
C1116 H1158 0.930 . S
C1117 N1113 1.279 . S
C1117 C1115 1.358 . S
C1117 H1159 0.930 . S
C1118 C1119 1.348 . S
C1118 C1120 1.356 . S
C1118 O1143 1.325 . S
C1119 C1118 1.348 . S
C1119 C1121 1.353 . S
C1119 H1160 0.929 . S
C1120 C1118 1.356 . S
C1120 C1122 1.358 . S
C1120 H1161 0.930 . S
C1121 C1119 1.353 . S
C1121 N1123 1.314 . S
C1121 H1162 0.930 . S
C1122 C1120 1.358 . S
C1122 N1123 1.279 . S
C1122 H1163 0.930 . S
N1123 C1121 1.314 . S
N1123 C1122 1.279 . S
C1124 C1126 1.353 . S
C1124 N1127 1.314 . S
C1124 H1130 0.930 . S
C1125 N1127 1.279 . S
C1125 C1128 1.358 . S
C1125 H1131 0.930 . S
C1126 C1124 1.353 . S
C1126 C1129 1.348 . S
C1126 H1164 0.929 . S
N1127 Li1082 1.990 . S
N1127 C1124 1.314 . S
N1127 C1125 1.279 . S
C1128 C1125 1.358 . S
C1128 C1129 1.356 . S
C1128 H1165 0.930 . S
C1129 C1126 1.348 . S
C1129 C1128 1.356 . S
H1130 C1124 0.930 . S
H1131 C1125 0.930 . S
C1132 N1133 1.314 . S
C1132 C1134 1.353 . S
C1132 H1138 0.930 . S
N1133 Li1083 1.990 . S
N1133 C1132 1.314 . S
N1133 C1136 1.279 . S
C1134 C1132 1.353 . S
C1134 C1137 1.348 . S
C1134 H1166 0.929 . S
C1135 C1136 1.358 . S
C1135 C1137 1.356 . S
C1135 H1167 0.930 . S
C1136 N1133 1.279 . S
C1136 C1135 1.358 . S
C1136 H1139 0.930 . S
C1137 C1134 1.348 . S
C1137 C1135 1.356 . S
H1138 C1132 0.930 . S
H1139 C1136 0.930 . S
O1140 Li1080 1.956 . S
O1140 Li1081 1.970 . S
O1140 Li1082 1.961 . S
O1140 C1084 1.325 . S
O1141 Li1080 1.970 . S
O1141 Li1081 1.956 . S
O1141 Li1083 1.961 . S
O1141 C1090 1.325 . S
O1142 Li1080 1.961 . S
O1142 Li1082 1.956 . S
O1142 Li1083 1.970 . S
O1142 C1112 1.325 . S
O1143 Li1081 1.961 . S
O1143 Li1082 1.970 . S
O1143 Li1083 1.956 . S
O1143 C1118 1.325 . S
H1144 C1086 0.929 . S
H1145 C1087 0.930 . S
H1146 C1088 0.930 . S
H1147 C1089 0.930 . S
H1148 C1091 0.930 . S
H1149 C1093 0.929 . S
H1150 C1094 0.930 . S
H1151 C1095 0.930 . S
H1152 C1098 0.930 . S
H1153 C1101 0.929 . S
H1154 C1106 0.929 . S
H1155 C1107 0.930 . S
H1156 C1114 0.929 . S
H1157 C1115 0.930 . S
H1158 C1116 0.930 . S
H1159 C1117 0.930 . S
H1160 C1119 0.929 . S
H1161 C1120 0.930 . S
H1162 C1121 0.930 . S
H1163 C1122 0.930 . S
H1164 C1126 0.929 . S
H1165 C1128 0.930 . S
H1166 C1134 0.929 . S
H1167 C1135 0.930 . S
Li1168 N1185 1.990 . S
Li1168 O1228 1.956 . S
Li1168 O1229 1.970 . S
Li1168 O1230 1.961 . S
Li1169 N1193 1.990 . S
Li1169 O1228 1.970 . S
Li1169 O1229 1.956 . S
Li1169 O1231 1.961 . S
Li1170 N1215 1.990 . S
Li1170 O1228 1.961 . S
Li1170 O1230 1.956 . S
Li1170 O1231 1.970 . S
Li1171 N1221 1.990 . S
Li1171 O1229 1.961 . S
Li1171 O1230 1.970 . S
Li1171 O1231 1.956 . S
C1172 C1174 1.348 . S
C1172 C1175 1.356 . S
C1172 O1228 1.325 . S
N1173 C1176 1.314 . S
N1173 C1177 1.279 . S
C1174 C1172 1.348 . S
C1174 C1176 1.353 . S
C1174 H1232 0.929 . S
C1175 C1172 1.356 . S
C1175 C1177 1.358 . S
C1175 H1233 0.930 . S
C1176 N1173 1.314 . S
C1176 C1174 1.353 . S
C1176 H1234 0.930 . S
C1177 N1173 1.279 . S
C1177 C1175 1.358 . S
C1177 H1235 0.930 . S
C1178 C1181 1.348 . S
C1178 C1182 1.356 . S
C1178 O1229 1.325 . S
C1179 N1180 1.279 . S
C1179 C1182 1.358 . S
C1179 H1236 0.930 . S
N1180 C1179 1.279 . S
N1180 C1183 1.314 . S
C1181 C1178 1.348 . S
C1181 C1183 1.353 . S
C1181 H1237 0.929 . S
C1182 C1178 1.356 . S
C1182 C1179 1.358 . S
C1182 H1238 0.930 . S
C1183 N1180 1.314 . S
C1183 C1181 1.353 . S
C1183 H1239 0.930 . S
C1184 N1185 1.314 . S
C1184 C1189 1.353 . S
C1184 H1190 0.930 . S
N1185 Li1168 1.990 . S
N1185 C1184 1.314 . S
N1185 C1187 1.279 . S
C1186 C1187 1.358 . S
C1186 C1188 1.356 . S
C1186 H1240 0.930 . S
C1187 N1185 1.279 . S
C1187 C1186 1.358 . S
C1187 H1191 0.930 . S
C1188 C1186 1.356 . S
C1188 C1189 1.348 . S
C1189 C1184 1.353 . S
C1189 C1188 1.348 . S
C1189 H1241 0.929 . S
H1190 C1184 0.930 . S
H1191 C1187 0.930 . S
C1192 N1193 1.314 . S
C1192 C1194 1.353 . S
C1192 H1198 0.930 . S
N1193 Li1169 1.990 . S
N1193 C1192 1.314 . S
N1193 C1196 1.279 . S
C1194 C1192 1.353 . S
C1194 C1197 1.348 . S
C1194 H1242 0.929 . S
C1195 C1196 1.358 . S
C1195 C1197 1.356 . S
C1195 H1243 0.930 . S
C1196 N1193 1.279 . S
C1196 C1195 1.358 . S
C1196 H1199 0.930 . S
C1197 C1194 1.348 . S
C1197 C1195 1.356 . S
H1198 C1192 0.930 . S
H1199 C1196 0.930 . S
C1200 C1202 1.348 . S
C1200 C1203 1.356 . S
C1200 O1230 1.325 . S
N1201 C1204 1.314 . S
N1201 C1205 1.279 . S
C1202 C1200 1.348 . S
C1202 C1204 1.353 . S
C1202 H1244 0.929 . S
C1203 C1200 1.356 . S
C1203 C1205 1.358 . S
C1203 H1245 0.930 . S
C1204 N1201 1.314 . S
C1204 C1202 1.353 . S
C1204 H1246 0.930 . S
C1205 N1201 1.279 . S
C1205 C1203 1.358 . S
C1205 H1247 0.930 . S
C1206 C1207 1.348 . S
C1206 C1208 1.356 . S
C1206 O1231 1.325 . S
C1207 C1206 1.348 . S
C1207 C1209 1.353 . S
C1207 H1248 0.929 . S
C1208 C1206 1.356 . S
C1208 C1210 1.358 . S
C1208 H1249 0.930 . S
C1209 C1207 1.353 . S
C1209 N1211 1.314 . S
C1209 H1250 0.930 . S
C1210 C1208 1.358 . S
C1210 N1211 1.279 . S
C1210 H1251 0.930 . S
N1211 C1209 1.314 . S
N1211 C1210 1.279 . S
C1212 C1214 1.353 . S
C1212 N1215 1.314 . S
C1212 H1218 0.930 . S
C1213 N1215 1.279 . S
C1213 C1216 1.358 . S
C1213 H1219 0.930 . S
C1214 C1212 1.353 . S
C1214 C1217 1.348 . S
C1214 H1252 0.929 . S
N1215 Li1170 1.990 . S
N1215 C1212 1.314 . S
N1215 C1213 1.279 . S
C1216 C1213 1.358 . S
C1216 C1217 1.356 . S
C1216 H1253 0.930 . S
C1217 C1214 1.348 . S
C1217 C1216 1.356 . S
H1218 C1212 0.930 . S
H1219 C1213 0.930 . S
C1220 N1221 1.314 . S
C1220 C1222 1.353 . S
C1220 H1226 0.930 . S
N1221 Li1171 1.990 . S
N1221 C1220 1.314 . S
N1221 C1224 1.279 . S
C1222 C1220 1.353 . S
C1222 C1225 1.348 . S
C1222 H1254 0.929 . S
C1223 C1224 1.358 . S
C1223 C1225 1.356 . S
C1223 H1255 0.930 . S
C1224 N1221 1.279 . S
C1224 C1223 1.358 . S
C1224 H1227 0.930 . S
C1225 C1222 1.348 . S
C1225 C1223 1.356 . S
H1226 C1220 0.930 . S
H1227 C1224 0.930 . S
O1228 Li1168 1.956 . S
O1228 Li1169 1.970 . S
O1228 Li1170 1.961 . S
O1228 C1172 1.325 . S
O1229 Li1168 1.970 . S
O1229 Li1169 1.956 . S
O1229 Li1171 1.961 . S
O1229 C1178 1.325 . S
O1230 Li1168 1.961 . S
O1230 Li1170 1.956 . S
O1230 Li1171 1.970 . S
O1230 C1200 1.325 . S
O1231 Li1169 1.961 . S
O1231 Li1170 1.970 . S
O1231 Li1171 1.956 . S
O1231 C1206 1.325 . S
H1232 C1174 0.929 . S
H1233 C1175 0.930 . S
H1234 C1176 0.930 . S
H1235 C1177 0.930 . S
H1236 C1179 0.930 . S
H1237 C1181 0.929 . S
H1238 C1182 0.930 . S
H1239 C1183 0.930 . S
H1240 C1186 0.930 . S
H1241 C1189 0.929 . S
H1242 C1194 0.929 . S
H1243 C1195 0.930 . S
H1244 C1202 0.929 . S
H1245 C1203 0.930 . S
H1246 C1204 0.930 . S
H1247 C1205 0.930 . S
H1248 C1207 0.929 . S
H1249 C1208 0.930 . S
H1250 C1209 0.930 . S
H1251 C1210 0.930 . S
H1252 C1214 0.929 . S
H1253 C1216 0.930 . S
H1254 C1222 0.929 . S
H1255 C1223 0.930 . S
Li1256 N1273 1.990 . S
Li1256 O1316 1.956 . S
Li1256 O1317 1.970 1_565 S
Li1256 O1318 1.961 . S
Li1257 N1281 1.990 . S
Li1257 O1316 1.970 1_545 S
Li1257 O1317 1.956 . S
Li1257 O1319 1.961 . S
Li1258 N1303 1.990 . S
Li1258 O1316 1.961 . S
Li1258 O1318 1.956 . S
Li1258 O1319 1.970 1_565 S
Li1259 N1309 1.990 . S
Li1259 O1317 1.961 . S
Li1259 O1318 1.970 1_545 S
Li1259 O1319 1.956 . S
C1260 C1262 1.348 . S
C1260 C1263 1.356 . S
C1260 O1316 1.325 . S
N1261 C1264 1.314 . S
N1261 C1265 1.279 . S
C1262 C1260 1.348 . S
C1262 C1264 1.353 . S
C1262 H1320 0.929 . S
C1263 C1260 1.356 . S
C1263 C1265 1.358 . S
C1263 H1321 0.930 . S
C1264 N1261 1.314 . S
C1264 C1262 1.353 . S
C1264 H1322 0.930 . S
C1265 N1261 1.279 . S
C1265 C1263 1.358 . S
C1265 H1323 0.930 . S
C1266 C1269 1.348 1_545 S
C1266 C1270 1.356 . S
C1266 O1317 1.325 . S
C1267 N1268 1.279 . S
C1267 C1270 1.358 . S
C1267 H1324 0.930 . S
N1268 C1267 1.279 . S
N1268 C1271 1.314 1_545 S
C1269 C1266 1.348 1_565 S
C1269 C1271 1.353 . S
C1269 H1325 0.929 . S
C1270 C1266 1.356 . S
C1270 C1267 1.358 . S
C1270 H1326 0.930 . S
C1271 N1268 1.314 1_565 S
C1271 C1269 1.353 . S
C1271 H1327 0.930 . S
C1272 N1273 1.314 . S
C1272 C1277 1.353 . S
C1272 H1278 0.930 . S
N1273 Li1256 1.990 . S
N1273 C1272 1.314 . S
N1273 C1275 1.279 . S
C1274 C1275 1.358 . S
C1274 C1276 1.356 . S
C1274 H1328 0.930 . S
C1275 N1273 1.279 . S
C1275 C1274 1.358 . S
C1275 H1279 0.930 . S
C1276 C1274 1.356 . S
C1276 C1277 1.348 . S
C1277 C1272 1.353 . S
C1277 C1276 1.348 . S
C1277 H1329 0.929 . S
H1278 C1272 0.930 . S
H1279 C1275 0.930 . S
C1280 N1281 1.314 . S
C1280 C1282 1.353 . S
C1280 H1286 0.930 . S
N1281 Li1257 1.990 . S
N1281 C1280 1.314 . S
N1281 C1284 1.279 . S
C1282 C1280 1.353 . S
C1282 C1285 1.348 . S
C1282 H1330 0.929 . S
C1283 C1284 1.358 . S
C1283 C1285 1.356 . S
C1283 H1331 0.930 . S
C1284 N1281 1.279 . S
C1284 C1283 1.358 . S
C1284 H1287 0.930 . S
C1285 C1282 1.348 . S
C1285 C1283 1.356 . S
H1286 C1280 0.930 . S
H1287 C1284 0.930 . S
C1288 C1290 1.348 1_565 S
C1288 C1291 1.356 . S
C1288 O1318 1.325 . S
N1289 C1292 1.314 1_565 S
N1289 C1293 1.279 . S
C1290 C1288 1.348 1_545 S
C1290 C1292 1.353 . S
C1290 H1332 0.929 . S
C1291 C1288 1.356 . S
C1291 C1293 1.358 . S
C1291 H1333 0.930 . S
C1292 N1289 1.314 1_545 S
C1292 C1290 1.353 . S
C1292 H1334 0.930 . S
C1293 N1289 1.279 . S
C1293 C1291 1.358 . S
C1293 H1335 0.930 . S
C1294 C1295 1.348 . S
C1294 C1296 1.356 . S
C1294 O1319 1.325 . S
C1295 C1294 1.348 . S
C1295 C1297 1.353 . S
C1295 H1336 0.929 . S
C1296 C1294 1.356 . S
C1296 C1298 1.358 . S
C1296 H1337 0.930 . S
C1297 C1295 1.353 . S
C1297 N1299 1.314 . S
C1297 H1338 0.930 . S
C1298 C1296 1.358 . S
C1298 N1299 1.279 . S
C1298 H1339 0.930 . S
N1299 C1297 1.314 . S
N1299 C1298 1.279 . S
C1300 C1302 1.353 . S
C1300 N1303 1.314 . S
C1300 H1306 0.930 . S
C1301 N1303 1.279 . S
C1301 C1304 1.358 . S
C1301 H1307 0.930 . S
C1302 C1300 1.353 . S
C1302 C1305 1.348 . S
C1302 H1340 0.929 . S
N1303 Li1258 1.990 . S
N1303 C1300 1.314 . S
N1303 C1301 1.279 . S
C1304 C1301 1.358 . S
C1304 C1305 1.356 . S
C1304 H1341 0.930 . S
C1305 C1302 1.348 . S
C1305 C1304 1.356 . S
H1306 C1300 0.930 . S
H1307 C1301 0.930 . S
C1308 N1309 1.314 . S
C1308 C1310 1.353 . S
C1308 H1314 0.930 . S
N1309 Li1259 1.990 . S
N1309 C1308 1.314 . S
N1309 C1312 1.279 . S
C1310 C1308 1.353 . S
C1310 C1313 1.348 . S
C1310 H1342 0.929 . S
C1311 C1312 1.358 . S
C1311 C1313 1.356 . S
C1311 H1343 0.930 . S
C1312 N1309 1.279 . S
C1312 C1311 1.358 . S
C1312 H1315 0.930 . S
C1313 C1310 1.348 . S
C1313 C1311 1.356 . S
H1314 C1308 0.930 . S
H1315 C1312 0.930 . S
O1316 Li1256 1.956 . S
O1316 Li1257 1.970 1_565 S
O1316 Li1258 1.961 . S
O1316 C1260 1.325 . S
O1317 Li1256 1.970 1_545 S
O1317 Li1257 1.956 . S
O1317 Li1259 1.961 . S
O1317 C1266 1.325 . S
O1318 Li1256 1.961 . S
O1318 Li1258 1.956 . S
O1318 Li1259 1.970 1_565 S
O1318 C1288 1.325 . S
O1319 Li1257 1.961 . S
O1319 Li1258 1.970 1_545 S
O1319 Li1259 1.956 . S
O1319 C1294 1.325 . S
H1320 C1262 0.929 . S
H1321 C1263 0.930 . S
H1322 C1264 0.930 . S
H1323 C1265 0.930 . S
H1324 C1267 0.930 . S
H1325 C1269 0.929 . S
H1326 C1270 0.930 . S
H1327 C1271 0.930 . S
H1328 C1274 0.930 . S
H1329 C1277 0.929 . S
H1330 C1282 0.929 . S
H1331 C1283 0.930 . S
H1332 C1290 0.929 . S
H1333 C1291 0.930 . S
H1334 C1292 0.930 . S
H1335 C1293 0.930 . S
H1336 C1295 0.929 . S
H1337 C1296 0.930 . S
H1338 C1297 0.930 . S
H1339 C1298 0.930 . S
H1340 C1302 0.929 . S
H1341 C1304 0.930 . S
H1342 C1310 0.929 . S
H1343 C1311 0.930 . S
Li1344 N1361 1.990 . S
Li1344 O1404 1.956 . S
Li1344 O1405 2.009 . S
Li1344 O1406 1.961 . S
Li1345 N1369 1.986 1_455 S
Li1345 O1404 1.992 . S
Li1345 O1405 1.956 . S
Li1345 O1407 1.946 1_455 S
Li1346 N1391 1.990 . S
Li1346 O1404 1.961 . S
Li1346 O1406 1.956 . S
Li1346 O1407 1.970 1_455 S
Li1347 N1397 1.990 . S
Li1347 O1405 1.932 1_655 S
Li1347 O1406 1.970 1_655 S
Li1347 O1407 1.956 . S
C1348 C1350 1.348 . S
C1348 C1351 1.356 . S
C1348 O1404 1.325 . S
N1349 C1352 1.314 . S
N1349 C1353 1.279 . S
C1350 C1348 1.348 . S
C1350 C1352 1.353 . S
C1350 H1408 0.929 . S
C1351 C1348 1.356 . S
C1351 C1353 1.358 . S
C1351 H1409 0.930 . S
C1352 N1349 1.314 . S
C1352 C1350 1.353 . S
C1352 H1410 0.930 . S
C1353 N1349 1.279 . S
C1353 C1351 1.358 . S
C1353 H1411 0.930 . S
C1354 C1357 1.348 1_655 S
C1354 C1358 1.356 . S
C1354 O1405 1.319 1_655 S
C1355 N1356 1.279 . S
C1355 C1358 1.358 . S
C1355 H1412 0.930 . S
N1356 C1355 1.279 . S
N1356 C1359 1.314 1_655 S
C1357 C1354 1.348 1_455 S
C1357 C1359 1.353 . S
C1357 H1413 0.929 . S
C1358 C1354 1.356 . S
C1358 C1355 1.358 . S
C1358 H1414 0.930 . S
C1359 N1356 1.314 1_455 S
C1359 C1357 1.353 . S
C1359 H1415 0.930 . S
C1360 N1361 1.314 . S
C1360 C1365 1.353 . S
C1360 H1366 0.930 . S
N1361 Li1344 1.990 . S
N1361 C1360 1.314 . S
N1361 C1363 1.279 . S
C1362 C1363 1.358 . S
C1362 C1364 1.356 . S
C1362 H1416 0.930 . S
C1363 N1361 1.279 . S
C1363 C1362 1.358 . S
C1363 H1367 0.930 . S
C1364 C1362 1.356 . S
C1364 C1365 1.348 . S
C1365 C1360 1.353 . S
C1365 C1364 1.348 . S
C1365 H1417 0.929 . S
H1366 C1360 0.930 . S
H1367 C1363 0.930 . S
C1368 N1369 1.314 . S
C1368 C1370 1.353 . S
C1368 H1374 0.930 . S
N1369 Li1345 1.986 1_655 S
N1369 C1368 1.314 . S
N1369 C1372 1.279 . S
C1370 C1368 1.353 . S
C1370 C1373 1.348 . S
C1370 H1418 0.929 . S
C1371 C1372 1.358 . S
C1371 C1373 1.356 . S
C1371 H1419 0.930 . S
C1372 N1369 1.279 . S
C1372 C1371 1.358 . S
C1372 H1375 0.924 1_655 S
C1373 C1370 1.348 . S
C1373 C1371 1.356 . S
H1374 C1368 0.930 . S
H1375 C1372 0.924 1_455 S
C1376 C1378 1.348 1_455 S
C1376 C1379 1.356 . S
C1376 O1406 1.325 . S
N1377 C1380 1.314 1_455 S
N1377 C1381 1.279 . S
C1378 C1376 1.348 1_655 S
C1378 C1380 1.353 . S
C1378 H1420 0.929 . S
C1379 C1376 1.356 . S
C1379 C1381 1.358 . S
C1379 H1421 0.930 . S
C1380 N1377 1.314 1_655 S
C1380 C1378 1.353 . S
C1380 H1422 0.930 . S
C1381 N1377 1.279 . S
C1381 C1379 1.358 . S
C1381 H1423 0.930 . S
C1382 C1383 1.348 . S
C1382 C1384 1.356 . S
C1382 O1407 1.325 . S
C1383 C1382 1.348 . S
C1383 C1385 1.353 . S
C1383 H1424 0.929 . S
C1384 C1382 1.356 . S
C1384 C1386 1.358 . S
C1384 H1425 0.930 . S
C1385 C1383 1.353 . S
C1385 N1387 1.314 . S
C1385 H1426 0.930 . S
C1386 C1384 1.358 . S
C1386 N1387 1.279 . S
C1386 H1427 0.930 . S
N1387 C1385 1.314 . S
N1387 C1386 1.279 . S
C1388 C1390 1.353 . S
C1388 N1391 1.314 . S
C1388 H1394 0.930 . S
C1389 N1391 1.279 . S
C1389 C1392 1.358 . S
C1389 H1395 0.930 . S
C1390 C1388 1.353 . S
C1390 C1393 1.348 . S
C1390 H1428 0.929 . S
N1391 Li1346 1.990 . S
N1391 C1388 1.314 . S
N1391 C1389 1.279 . S
C1392 C1389 1.358 . S
C1392 C1393 1.356 . S
C1392 H1429 0.930 . S
C1393 C1390 1.348 . S
C1393 C1392 1.356 . S
H1394 C1388 0.930 . S
H1395 C1389 0.930 . S
C1396 N1397 1.314 . S
C1396 C1398 1.353 . S
C1396 H1402 0.930 . S
N1397 Li1347 1.990 . S
N1397 C1396 1.314 . S
N1397 C1400 1.279 . S
C1398 C1396 1.353 . S
C1398 C1401 1.348 . S
C1398 H1430 0.929 . S
C1399 C1400 1.358 . S
C1399 C1401 1.356 . S
C1399 H1431 0.930 . S
C1400 N1397 1.279 . S
C1400 C1399 1.358 . S
C1400 H1403 0.930 . S
C1401 C1398 1.348 . S
C1401 C1399 1.356 . S
H1402 C1396 0.930 . S
H1403 C1400 0.930 . S
O1404 Li1344 1.956 . S
O1404 Li1345 1.992 . S
O1404 Li1346 1.961 . S
O1404 C1348 1.325 . S
O1405 Li1344 2.009 . S
O1405 Li1345 1.956 . S
O1405 Li1347 1.932 1_455 S
O1405 C1354 1.319 1_455 S
O1406 Li1344 1.961 . S
O1406 Li1346 1.956 . S
O1406 Li1347 1.970 1_455 S
O1406 C1376 1.325 . S
O1407 Li1345 1.946 1_655 S
O1407 Li1346 1.970 1_655 S
O1407 Li1347 1.956 . S
O1407 C1382 1.325 . S
H1408 C1350 0.929 . S
H1409 C1351 0.930 . S
H1410 C1352 0.930 . S
H1411 C1353 0.930 . S
H1412 C1355 0.930 . S
H1413 C1357 0.929 . S
H1414 C1358 0.930 . S
H1415 C1359 0.930 . S
H1416 C1362 0.930 . S
H1417 C1365 0.929 . S
H1418 C1370 0.929 . S
H1419 C1371 0.930 . S
H1420 C1378 0.929 . S
H1421 C1379 0.930 . S
H1422 C1380 0.930 . S
H1423 C1381 0.930 . S
H1424 C1383 0.929 . S
H1425 C1384 0.930 . S
H1426 C1385 0.930 . S
H1427 C1386 0.930 . S
H1428 C1390 0.929 . S
H1429 C1392 0.930 . S
H1430 C1398 0.929 . S
H1431 C1399 0.930 . S
Li1432 N1449 1.990 . S
Li1432 O1492 1.956 . S
Li1432 O1493 1.970 . S
Li1432 O1494 1.961 . S
Li1433 N1457 1.990 . S
Li1433 O1492 1.970 . S
Li1433 O1493 1.956 . S
Li1433 O1495 1.961 . S
Li1434 N1479 1.990 . S
Li1434 O1492 1.961 . S
Li1434 O1494 1.956 . S
Li1434 O1495 1.970 . S
Li1435 N1485 1.990 . S
Li1435 O1493 1.961 . S
Li1435 O1494 1.970 . S
Li1435 O1495 1.956 . S
C1436 C1438 1.348 . S
C1436 C1439 1.356 . S
C1436 O1492 1.325 . S
N1437 C1440 1.314 . S
N1437 C1441 1.279 . S
C1438 C1436 1.348 . S
C1438 C1440 1.353 . S
C1438 H1496 0.929 . S
C1439 C1436 1.356 . S
C1439 C1441 1.358 . S
C1439 H1497 0.930 . S
C1440 N1437 1.314 . S
C1440 C1438 1.353 . S
C1440 H1498 0.930 . S
C1441 N1437 1.279 . S
C1441 C1439 1.358 . S
C1441 H1499 0.930 . S
C1442 C1445 1.348 . S
C1442 C1446 1.356 . S
C1442 O1493 1.325 . S
C1443 N1444 1.279 . S
C1443 C1446 1.358 . S
C1443 H1500 0.930 . S
N1444 C1443 1.279 . S
N1444 C1447 1.314 . S
C1445 C1442 1.348 . S
C1445 C1447 1.353 . S
C1445 H1501 0.929 . S
C1446 C1442 1.356 . S
C1446 C1443 1.358 . S
C1446 H1502 0.930 . S
C1447 N1444 1.314 . S
C1447 C1445 1.353 . S
C1447 H1503 0.930 . S
C1448 N1449 1.314 . S
C1448 C1453 1.353 . S
C1448 H1454 0.930 . S
N1449 Li1432 1.990 . S
N1449 C1448 1.314 . S
N1449 C1451 1.279 . S
C1450 C1451 1.358 . S
C1450 C1452 1.356 . S
C1450 H1504 0.930 . S
C1451 N1449 1.279 . S
C1451 C1450 1.358 . S
C1451 H1455 0.930 . S
C1452 C1450 1.356 . S
C1452 C1453 1.348 . S
C1453 C1448 1.353 . S
C1453 C1452 1.348 . S
C1453 H1505 0.929 . S
H1454 C1448 0.930 . S
H1455 C1451 0.930 . S
C1456 N1457 1.314 . S
C1456 C1458 1.353 . S
C1456 H1462 0.930 . S
N1457 Li1433 1.990 . S
N1457 C1456 1.314 . S
N1457 C1460 1.279 . S
C1458 C1456 1.353 . S
C1458 C1461 1.348 . S
C1458 H1506 0.929 . S
C1459 C1460 1.358 . S
C1459 C1461 1.356 . S
C1459 H1507 0.930 . S
C1460 N1457 1.279 . S
C1460 C1459 1.358 . S
C1460 H1463 0.930 . S
C1461 C1458 1.348 . S
C1461 C1459 1.356 . S
H1462 C1456 0.930 . S
H1463 C1460 0.930 . S
C1464 C1466 1.348 . S
C1464 C1467 1.356 . S
C1464 O1494 1.325 . S
N1465 C1468 1.314 . S
N1465 C1469 1.279 . S
C1466 C1464 1.348 . S
C1466 C1468 1.353 . S
C1466 H1508 0.929 . S
C1467 C1464 1.356 . S
C1467 C1469 1.358 . S
C1467 H1509 0.930 . S
C1468 N1465 1.314 . S
C1468 C1466 1.353 . S
C1468 H1510 0.930 . S
C1469 N1465 1.279 . S
C1469 C1467 1.358 . S
C1469 H1511 0.930 . S
C1470 C1471 1.348 . S
C1470 C1472 1.356 . S
C1470 O1495 1.325 . S
C1471 C1470 1.348 . S
C1471 C1473 1.353 . S
C1471 H1512 0.929 . S
C1472 C1470 1.356 . S
C1472 C1474 1.358 . S
C1472 H1513 0.930 . S
C1473 C1471 1.353 . S
C1473 N1475 1.314 . S
C1473 H1514 0.930 . S
C1474 C1472 1.358 . S
C1474 N1475 1.279 . S
C1474 H1515 0.930 . S
N1475 C1473 1.314 . S
N1475 C1474 1.279 . S
C1476 C1478 1.353 . S
C1476 N1479 1.314 . S
C1476 H1482 0.930 . S
C1477 N1479 1.279 . S
C1477 C1480 1.358 . S
C1477 H1483 0.930 . S
C1478 C1476 1.353 . S
C1478 C1481 1.348 . S
C1478 H1516 0.929 . S
N1479 Li1434 1.990 . S
N1479 C1476 1.314 . S
N1479 C1477 1.279 . S
C1480 C1477 1.358 . S
C1480 C1481 1.356 . S
C1480 H1517 0.930 . S
C1481 C1478 1.348 . S
C1481 C1480 1.356 . S
H1482 C1476 0.930 . S
H1483 C1477 0.930 . S
C1484 N1485 1.314 . S
C1484 C1486 1.353 . S
C1484 H1490 0.930 . S
N1485 Li1435 1.990 . S
N1485 C1484 1.314 . S
N1485 C1488 1.279 . S
C1486 C1484 1.353 . S
C1486 C1489 1.348 . S
C1486 H1518 0.929 . S
C1487 C1488 1.358 . S
C1487 C1489 1.356 . S
C1487 H1519 0.930 . S
C1488 N1485 1.279 . S
C1488 C1487 1.358 . S
C1488 H1491 0.930 . S
C1489 C1486 1.348 . S
C1489 C1487 1.356 . S
H1490 C1484 0.930 . S
H1491 C1488 0.930 . S
O1492 Li1432 1.956 . S
O1492 Li1433 1.970 . S
O1492 Li1434 1.961 . S
O1492 C1436 1.325 . S
O1493 Li1432 1.970 . S
O1493 Li1433 1.956 . S
O1493 Li1435 1.961 . S
O1493 C1442 1.325 . S
O1494 Li1432 1.961 . S
O1494 Li1434 1.956 . S
O1494 Li1435 1.970 . S
O1494 C1464 1.325 . S
O1495 Li1433 1.961 . S
O1495 Li1434 1.970 . S
O1495 Li1435 1.956 . S
O1495 C1470 1.325 . S
H1496 C1438 0.929 . S
H1497 C1439 0.930 . S
H1498 C1440 0.930 . S
H1499 C1441 0.930 . S
H1500 C1443 0.930 . S
H1501 C1445 0.929 . S
H1502 C1446 0.930 . S
H1503 C1447 0.930 . S
H1504 C1450 0.930 . S
H1505 C1453 0.929 . S
H1506 C1458 0.929 . S
H1507 C1459 0.930 . S
H1508 C1466 0.929 . S
H1509 C1467 0.930 . S
H1510 C1468 0.930 . S
H1511 C1469 0.930 . S
H1512 C1471 0.929 . S
H1513 C1472 0.930 . S
H1514 C1473 0.930 . S
H1515 C1474 0.930 . S
H1516 C1478 0.929 . S
H1517 C1480 0.930 . S
H1518 C1486 0.929 . S
H1519 C1487 0.930 . S
Li1520 N1537 1.990 . S
Li1520 O1580 1.956 . S
Li1520 O1581 1.970 1_455 S
Li1520 O1582 1.961 . S
Li1521 N1545 1.990 . S
Li1521 O1580 1.970 1_655 S
Li1521 O1581 1.956 . S
Li1521 O1583 1.932 1_655 S
Li1522 N1567 1.990 . S
Li1522 O1580 1.961 . S
Li1522 O1582 1.956 . S
Li1522 O1583 2.009 . S
Li1523 N1573 1.986 1_455 S
Li1523 O1581 1.946 1_455 S
Li1523 O1582 1.992 . S
Li1523 O1583 1.956 . S
C1524 C1526 1.348 1_455 S
C1524 C1527 1.356 . S
C1524 O1580 1.325 . S
N1525 C1528 1.314 1_455 S
N1525 C1529 1.279 . S
C1526 C1524 1.348 1_655 S
C1526 C1528 1.353 . S
C1526 H1584 0.929 . S
C1527 C1524 1.356 . S
C1527 C1529 1.358 . S
C1527 H1585 0.930 . S
C1528 N1525 1.314 1_655 S
C1528 C1526 1.353 . S
C1528 H1586 0.930 . S
C1529 N1525 1.279 . S
C1529 C1527 1.358 . S
C1529 H1587 0.930 . S
C1530 C1533 1.348 . S
C1530 C1534 1.356 . S
C1530 O1581 1.325 . S
C1531 N1532 1.279 . S
C1531 C1534 1.358 . S
C1531 H1588 0.930 . S
N1532 C1531 1.279 . S
N1532 C1535 1.314 . S
C1533 C1530 1.348 . S
C1533 C1535 1.353 . S
C1533 H1589 0.929 . S
C1534 C1530 1.356 . S
C1534 C1531 1.358 . S
C1534 H1590 0.930 . S
C1535 N1532 1.314 . S
C1535 C1533 1.353 . S
C1535 H1591 0.930 . S
C1536 N1537 1.314 . S
C1536 C1541 1.353 . S
C1536 H1542 0.930 . S
N1537 Li1520 1.990 . S
N1537 C1536 1.314 . S
N1537 C1539 1.279 . S
C1538 C1539 1.358 . S
C1538 C1540 1.356 . S
C1538 H1592 0.930 . S
C1539 N1537 1.279 . S
C1539 C1538 1.358 . S
C1539 H1543 0.930 . S
C1540 C1538 1.356 . S
C1540 C1541 1.348 . S
C1541 C1536 1.353 . S
C1541 C1540 1.348 . S
C1541 H1593 0.929 . S
H1542 C1536 0.930 . S
H1543 C1539 0.930 . S
C1544 N1545 1.314 . S
C1544 C1546 1.353 . S
C1544 H1550 0.930 . S
N1545 Li1521 1.990 . S
N1545 C1544 1.314 . S
N1545 C1548 1.279 . S
C1546 C1544 1.353 . S
C1546 C1549 1.348 . S
C1546 H1594 0.929 . S
C1547 C1548 1.358 . S
C1547 C1549 1.356 . S
C1547 H1595 0.930 . S
C1548 N1545 1.279 . S
C1548 C1547 1.358 . S
C1548 H1551 0.930 . S
C1549 C1546 1.348 . S
C1549 C1547 1.356 . S
H1550 C1544 0.930 . S
H1551 C1548 0.930 . S
C1552 C1554 1.348 . S
C1552 C1555 1.356 . S
C1552 O1582 1.325 . S
N1553 C1556 1.314 . S
N1553 C1557 1.279 . S
C1554 C1552 1.348 . S
C1554 C1556 1.353 . S
C1554 H1596 0.929 . S
C1555 C1552 1.356 . S
C1555 C1557 1.358 . S
C1555 H1597 0.930 . S
C1556 N1553 1.314 . S
C1556 C1554 1.353 . S
C1556 H1598 0.930 . S
C1557 N1553 1.279 . S
C1557 C1555 1.358 . S
C1557 H1599 0.930 . S
C1558 C1559 1.348 1_655 S
C1558 C1560 1.356 . S
C1558 O1583 1.319 1_655 S
C1559 C1558 1.348 1_455 S
C1559 C1561 1.353 . S
C1559 H1600 0.929 . S
C1560 C1558 1.356 . S
C1560 C1562 1.358 . S
C1560 H1601 0.930 . S
C1561 C1559 1.353 . S
C1561 N1563 1.314 1_455 S
C1561 H1602 0.930 . S
C1562 C1560 1.358 . S
C1562 N1563 1.279 . S
C1562 H1603 0.930 . S
N1563 C1561 1.314 1_655 S
N1563 C1562 1.279 . S
C1564 C1566 1.353 . S
C1564 N1567 1.314 . S
C1564 H1570 0.930 . S
C1565 N1567 1.279 . S
C1565 C1568 1.358 . S
C1565 H1571 0.930 . S
C1566 C1564 1.353 . S
C1566 C1569 1.348 . S
C1566 H1604 0.929 . S
N1567 Li1522 1.990 . S
N1567 C1564 1.314 . S
N1567 C1565 1.279 . S
C1568 C1565 1.358 . S
C1568 C1569 1.356 . S
C1568 H1605 0.930 . S
C1569 C1566 1.348 . S
C1569 C1568 1.356 . S
H1570 C1564 0.930 . S
H1571 C1565 0.930 . S
C1572 N1573 1.314 . S
C1572 C1574 1.353 . S
C1572 H1578 0.930 . S
N1573 Li1523 1.986 1_655 S
N1573 C1572 1.314 . S
N1573 C1576 1.279 . S
C1574 C1572 1.353 . S
C1574 C1577 1.348 . S
C1574 H1606 0.929 . S
C1575 C1576 1.358 . S
C1575 C1577 1.356 . S
C1575 H1607 0.930 . S
C1576 N1573 1.279 . S
C1576 C1575 1.358 . S
C1576 H1579 0.924 1_655 S
C1577 C1574 1.348 . S
C1577 C1575 1.356 . S
H1578 C1572 0.930 . S
H1579 C1576 0.924 1_455 S
O1580 Li1520 1.956 . S
O1580 Li1521 1.970 1_455 S
O1580 Li1522 1.961 . S
O1580 C1524 1.325 . S
O1581 Li1520 1.970 1_655 S
O1581 Li1521 1.956 . S
O1581 Li1523 1.946 1_655 S
O1581 C1530 1.325 . S
O1582 Li1520 1.961 . S
O1582 Li1522 1.956 . S
O1582 Li1523 1.992 . S
O1582 C1552 1.325 . S
O1583 Li1521 1.932 1_455 S
O1583 Li1522 2.009 . S
O1583 Li1523 1.956 . S
O1583 C1558 1.319 1_455 S
H1584 C1526 0.929 . S
H1585 C1527 0.930 . S
H1586 C1528 0.930 . S
H1587 C1529 0.930 . S
H1588 C1531 0.930 . S
H1589 C1533 0.929 . S
H1590 C1534 0.930 . S
H1591 C1535 0.930 . S
H1592 C1538 0.930 . S
H1593 C1541 0.929 . S
H1594 C1546 0.929 . S
H1595 C1547 0.930 . S
H1596 C1554 0.929 . S
H1597 C1555 0.930 . S
H1598 C1556 0.930 . S
H1599 C1557 0.930 . S
H1600 C1559 0.929 . S
H1601 C1560 0.930 . S
H1602 C1561 0.930 . S
H1603 C1562 0.930 . S
H1604 C1566 0.929 . S
H1605 C1568 0.930 . S
H1606 C1574 0.929 . S
H1607 C1575 0.930 . S
Li1608 N1625 1.990 . S
Li1608 O1668 1.956 . S
Li1608 O1669 1.970 . S
Li1608 O1670 1.961 . S
Li1609 N1633 1.990 . S
Li1609 O1668 1.970 . S
Li1609 O1669 1.956 . S
Li1609 O1671 1.961 . S
Li1610 N1655 1.990 . S
Li1610 O1668 1.961 . S
Li1610 O1670 1.956 . S
Li1610 O1671 1.970 . S
Li1611 N1661 1.990 . S
Li1611 O1669 1.961 . S
Li1611 O1670 1.970 . S
Li1611 O1671 1.956 . S
C1612 C1614 1.348 . S
C1612 C1615 1.356 . S
C1612 O1668 1.325 . S
N1613 C1616 1.314 . S
N1613 C1617 1.279 . S
C1614 C1612 1.348 . S
C1614 C1616 1.353 . S
C1614 H1672 0.929 . S
C1615 C1612 1.356 . S
C1615 C1617 1.358 . S
C1615 H1673 0.930 . S
C1616 N1613 1.314 . S
C1616 C1614 1.353 . S
C1616 H1674 0.930 . S
C1617 N1613 1.279 . S
C1617 C1615 1.358 . S
C1617 H1675 0.930 . S
C1618 C1621 1.348 . S
C1618 C1622 1.356 . S
C1618 O1669 1.325 . S
C1619 N1620 1.279 . S
C1619 C1622 1.358 . S
C1619 H1676 0.930 . S
N1620 C1619 1.279 . S
N1620 C1623 1.314 . S
C1621 C1618 1.348 . S
C1621 C1623 1.353 . S
C1621 H1677 0.929 . S
C1622 C1618 1.356 . S
C1622 C1619 1.358 . S
C1622 H1678 0.930 . S
C1623 N1620 1.314 . S
C1623 C1621 1.353 . S
C1623 H1679 0.930 . S
C1624 N1625 1.314 . S
C1624 C1629 1.353 . S
C1624 H1630 0.930 . S
N1625 Li1608 1.990 . S
N1625 C1624 1.314 . S
N1625 C1627 1.279 . S
C1626 C1627 1.358 . S
C1626 C1628 1.356 . S
C1626 H1680 0.930 . S
C1627 N1625 1.279 . S
C1627 C1626 1.358 . S
C1627 H1631 0.930 . S
C1628 C1626 1.356 . S
C1628 C1629 1.348 . S
C1629 C1624 1.353 . S
C1629 C1628 1.348 . S
C1629 H1681 0.929 . S
H1630 C1624 0.930 . S
H1631 C1627 0.930 . S
C1632 N1633 1.314 . S
C1632 C1634 1.353 . S
C1632 H1638 0.930 . S
N1633 Li1609 1.990 . S
N1633 C1632 1.314 . S
N1633 C1636 1.279 . S
C1634 C1632 1.353 . S
C1634 C1637 1.348 . S
C1634 H1682 0.929 . S
C1635 C1636 1.358 . S
C1635 C1637 1.356 . S
C1635 H1683 0.930 . S
C1636 N1633 1.279 . S
C1636 C1635 1.358 . S
C1636 H1639 0.930 . S
C1637 C1634 1.348 . S
C1637 C1635 1.356 . S
H1638 C1632 0.930 . S
H1639 C1636 0.930 . S
C1640 C1642 1.348 . S
C1640 C1643 1.356 . S
C1640 O1670 1.325 . S
N1641 C1644 1.314 . S
N1641 C1645 1.279 . S
C1642 C1640 1.348 . S
C1642 C1644 1.353 . S
C1642 H1684 0.929 . S
C1643 C1640 1.356 . S
C1643 C1645 1.358 . S
C1643 H1685 0.930 . S
C1644 N1641 1.314 . S
C1644 C1642 1.353 . S
C1644 H1686 0.930 . S
C1645 N1641 1.279 . S
C1645 C1643 1.358 . S
C1645 H1687 0.930 . S
C1646 C1647 1.348 . S
C1646 C1648 1.356 . S
C1646 O1671 1.325 . S
C1647 C1646 1.348 . S
C1647 C1649 1.353 . S
C1647 H1688 0.929 . S
C1648 C1646 1.356 . S
C1648 C1650 1.358 . S
C1648 H1689 0.930 . S
C1649 C1647 1.353 . S
C1649 N1651 1.314 . S
C1649 H1690 0.930 . S
C1650 C1648 1.358 . S
C1650 N1651 1.279 . S
C1650 H1691 0.930 . S
N1651 C1649 1.314 . S
N1651 C1650 1.279 . S
C1652 C1654 1.353 . S
C1652 N1655 1.314 . S
C1652 H1658 0.930 . S
C1653 N1655 1.279 . S
C1653 C1656 1.358 . S
C1653 H1659 0.930 . S
C1654 C1652 1.353 . S
C1654 C1657 1.348 . S
C1654 H1692 0.929 . S
N1655 Li1610 1.990 . S
N1655 C1652 1.314 . S
N1655 C1653 1.279 . S
C1656 C1653 1.358 . S
C1656 C1657 1.356 . S
C1656 H1693 0.930 . S
C1657 C1654 1.348 . S
C1657 C1656 1.356 . S
H1658 C1652 0.930 . S
H1659 C1653 0.930 . S
C1660 N1661 1.314 . S
C1660 C1662 1.353 . S
C1660 H1666 0.930 . S
N1661 Li1611 1.990 . S
N1661 C1660 1.314 . S
N1661 C1664 1.279 . S
C1662 C1660 1.353 . S
C1662 C1665 1.348 . S
C1662 H1694 0.929 . S
C1663 C1664 1.358 . S
C1663 C1665 1.356 . S
C1663 H1695 0.930 . S
C1664 N1661 1.279 . S
C1664 C1663 1.358 . S
C1664 H1667 0.930 . S
C1665 C1662 1.348 . S
C1665 C1663 1.356 . S
H1666 C1660 0.930 . S
H1667 C1664 0.930 . S
O1668 Li1608 1.956 . S
O1668 Li1609 1.970 . S
O1668 Li1610 1.961 . S
O1668 C1612 1.325 . S
O1669 Li1608 1.970 . S
O1669 Li1609 1.956 . S
O1669 Li1611 1.961 . S
O1669 C1618 1.325 . S
O1670 Li1608 1.961 . S
O1670 Li1610 1.956 . S
O1670 Li1611 1.970 . S
O1670 C1640 1.325 . S
O1671 Li1609 1.961 . S
O1671 Li1610 1.970 . S
O1671 Li1611 1.956 . S
O1671 C1646 1.325 . S
H1672 C1614 0.929 . S
H1673 C1615 0.930 . S
H1674 C1616 0.930 . S
H1675 C1617 0.930 . S
H1676 C1619 0.930 . S
H1677 C1621 0.929 . S
H1678 C1622 0.930 . S
H1679 C1623 0.930 . S
H1680 C1626 0.930 . S
H1681 C1629 0.929 . S
H1682 C1634 0.929 . S
H1683 C1635 0.930 . S
H1684 C1642 0.929 . S
H1685 C1643 0.930 . S
H1686 C1644 0.930 . S
H1687 C1645 0.930 . S
H1688 C1647 0.929 . S
H1689 C1648 0.930 . S
H1690 C1649 0.930 . S
H1691 C1650 0.930 . S
H1692 C1654 0.929 . S
H1693 C1656 0.930 . S
H1694 C1662 0.929 . S
H1695 C1663 0.930 . S
H1696 C1702 0.930 . S
H1697 C1705 0.930 . S
H1698 C1706 0.930 . S
H1699 C1707 0.930 . S
H1700 C1710 0.930 . S
H1701 C1711 0.930 . S
C1702 H1696 0.930 . S
C1702 C1703 1.355 . S
C1702 C1704 1.415 . S
C1703 C1702 1.355 . S
C1703 C1705 1.419 . S
C1704 C1702 1.415 . S
C1704 C1709 1.425 . S
C1704 C1711 1.409 . S
C1705 H1697 0.930 . S
C1705 C1703 1.419 . S
C1705 C1706 1.362 . S
C1706 H1698 0.930 . S
C1706 C1705 1.362 . S
C1706 C1709 1.409 . S
C1707 H1699 0.930 . S
C1707 C1708 1.355 . S
C1707 C1709 1.415 . S
C1708 C1707 1.355 . S
C1708 C1710 1.419 . S
C1709 C1704 1.425 . S
C1709 C1706 1.409 . S
C1709 C1707 1.415 . S
C1710 H1700 0.930 . S
C1710 C1708 1.419 . S
C1710 C1711 1.362 . S
C1711 H1701 0.930 . S
C1711 C1704 1.409 . S
C1711 C1710 1.362 . S
H1712 C1718 0.930 . S
H1713 C1721 0.930 . S
H1714 C1722 0.930 . S
H1715 C1723 0.930 . S
H1716 C1726 0.930 . S
H1717 C1727 0.930 . S
C1718 H1712 0.930 . S
C1718 C1719 1.355 . S
C1718 C1720 1.415 . S
C1719 C1718 1.355 . S
C1719 C1721 1.419 . S
C1720 C1718 1.415 . S
C1720 C1725 1.425 . S
C1720 C1727 1.409 . S
C1721 H1713 0.930 . S
C1721 C1719 1.419 . S
C1721 C1722 1.362 . S
C1722 H1714 0.930 . S
C1722 C1721 1.362 . S
C1722 C1725 1.409 . S
C1723 H1715 0.930 . S
C1723 C1724 1.355 . S
C1723 C1725 1.415 . S
C1724 C1723 1.355 . S
C1724 C1726 1.419 . S
C1725 C1720 1.425 . S
C1725 C1722 1.409 . S
C1725 C1723 1.415 . S
C1726 H1716 0.930 . S
C1726 C1724 1.419 . S
C1726 C1727 1.362 . S
C1727 H1717 0.930 . S
C1727 C1720 1.409 . S
C1727 C1726 1.362 . S
H1728 C1734 0.930 . S
H1729 C1737 0.930 . S
H1730 C1738 0.930 . S
H1731 C1739 0.930 . S
H1732 C1742 0.930 . S
H1733 C1743 0.930 . S
C1734 H1728 0.930 . S
C1734 C1735 1.355 . S
C1734 C1736 1.415 . S
C1735 C1734 1.355 . S
C1735 C1737 1.419 . S
C1736 C1734 1.415 . S
C1736 C1741 1.425 . S
C1736 C1743 1.409 . S
C1737 H1729 0.930 . S
C1737 C1735 1.419 . S
C1737 C1738 1.362 . S
C1738 H1730 0.930 . S
C1738 C1737 1.362 . S
C1738 C1741 1.409 . S
C1739 H1731 0.930 . S
C1739 C1740 1.355 . S
C1739 C1741 1.415 . S
C1740 C1739 1.355 . S
C1740 C1742 1.419 . S
C1741 C1736 1.425 . S
C1741 C1738 1.409 . S
C1741 C1739 1.415 . S
C1742 H1732 0.930 . S
C1742 C1740 1.419 . S
C1742 C1743 1.362 . S
C1743 H1733 0.930 . S
C1743 C1736 1.409 . S
C1743 C1742 1.362 . S
H1744 C1750 0.930 . S
H1745 C1753 0.930 . S
H1746 C1754 0.930 . S
H1747 C1755 0.930 . S
H1748 C1758 0.930 . S
H1749 C1759 0.930 . S
C1750 H1744 0.930 . S
C1750 C1751 1.355 . S
C1750 C1752 1.415 . S
C1751 C1750 1.355 . S
C1751 C1753 1.419 . S
C1752 C1750 1.415 . S
C1752 C1757 1.425 . S
C1752 C1759 1.409 . S
C1753 H1745 0.930 . S
C1753 C1751 1.419 . S
C1753 C1754 1.362 . S
C1754 H1746 0.930 . S
C1754 C1753 1.362 . S
C1754 C1757 1.409 . S
C1755 H1747 0.930 . S
C1755 C1756 1.355 . S
C1755 C1757 1.415 . S
C1756 C1755 1.355 . S
C1756 C1758 1.419 . S
C1757 C1752 1.425 . S
C1757 C1754 1.409 . S
C1757 C1755 1.415 . S
C1758 H1748 0.930 . S
C1758 C1756 1.419 . S
C1758 C1759 1.362 . S
C1759 H1749 0.930 . S
C1759 C1752 1.409 . S
C1759 C1758 1.362 . S
H1760 C1766 0.930 . S
H1761 C1769 0.930 . S
H1762 C1770 0.930 . S
H1763 C1771 0.930 . S
H1764 C1774 0.930 . S
H1765 C1775 0.930 . S
C1766 H1760 0.930 . S
C1766 C1767 1.355 . S
C1766 C1768 1.415 . S
C1767 C1766 1.355 . S
C1767 C1769 1.419 . S
C1768 C1766 1.415 . S
C1768 C1773 1.425 . S
C1768 C1775 1.409 . S
C1769 H1761 0.930 . S
C1769 C1767 1.419 . S
C1769 C1770 1.362 . S
C1770 H1762 0.930 . S
C1770 C1769 1.362 . S
C1770 C1773 1.409 . S
C1771 H1763 0.930 . S
C1771 C1772 1.355 . S
C1771 C1773 1.415 . S
C1772 C1771 1.355 . S
C1772 C1774 1.419 . S
C1773 C1768 1.425 . S
C1773 C1770 1.409 . S
C1773 C1771 1.415 . S
C1774 H1764 0.930 . S
C1774 C1772 1.419 . S
C1774 C1775 1.362 . S
C1775 H1765 0.930 . S
C1775 C1768 1.409 . S
C1775 C1774 1.362 . S
H1776 C1782 0.930 . S
H1777 C1785 0.930 . S
H1778 C1786 0.930 . S
H1779 C1787 0.930 . S
H1780 C1790 0.930 . S
H1781 C1791 0.930 . S
C1782 H1776 0.930 . S
C1782 C1783 1.355 . S
C1782 C1784 1.415 . S
C1783 C1782 1.355 . S
C1783 C1785 1.419 . S
C1784 C1782 1.415 . S
C1784 C1789 1.425 . S
C1784 C1791 1.409 . S
C1785 H1777 0.930 . S
C1785 C1783 1.419 . S
C1785 C1786 1.362 . S
C1786 H1778 0.930 . S
C1786 C1785 1.362 . S
C1786 C1789 1.409 . S
C1787 H1779 0.930 . S
C1787 C1788 1.355 . S
C1787 C1789 1.415 . S
C1788 C1787 1.355 . S
C1788 C1790 1.419 . S
C1789 C1784 1.425 . S
C1789 C1786 1.409 . S
C1789 C1787 1.415 . S
C1790 H1780 0.930 . S
C1790 C1788 1.419 . S
C1790 C1791 1.362 . S
C1791 H1781 0.930 . S
C1791 C1784 1.409 . S
C1791 C1790 1.362 . S
H1792 C1798 0.930 . S
H1793 C1801 0.930 . S
H1794 C1802 0.930 . S
H1795 C1803 0.930 . S
H1796 C1806 0.930 . S
H1797 C1807 0.930 . S
C1798 H1792 0.930 . S
C1798 C1799 1.355 . S
C1798 C1800 1.415 . S
C1799 C1798 1.355 . S
C1799 C1801 1.419 . S
C1800 C1798 1.415 . S
C1800 C1805 1.425 . S
C1800 C1807 1.409 . S
C1801 H1793 0.930 . S
C1801 C1799 1.419 . S
C1801 C1802 1.362 . S
C1802 H1794 0.930 . S
C1802 C1801 1.362 . S
C1802 C1805 1.409 . S
C1803 H1795 0.930 . S
C1803 C1804 1.355 . S
C1803 C1805 1.415 . S
C1804 C1803 1.355 . S
C1804 C1806 1.419 . S
C1805 C1800 1.425 . S
C1805 C1802 1.409 . S
C1805 C1803 1.415 . S
C1806 H1796 0.930 . S
C1806 C1804 1.419 . S
C1806 C1807 1.362 . S
C1807 H1797 0.930 . S
C1807 C1800 1.409 . S
C1807 C1806 1.362 . S
H1808 C1814 0.930 . S
H1809 C1817 0.930 1_545 S
H1810 C1818 0.930 . S
H1811 C1819 0.930 1_545 S
H1812 C1822 0.930 . S
H1813 C1823 0.930 . S
C1814 H1808 0.930 . S
C1814 C1815 1.355 . S
C1814 C1816 1.415 . S
C1815 C1814 1.355 . S
C1815 C1817 1.419 . S
C1816 C1814 1.415 . S
C1816 C1821 1.425 . S
C1816 C1823 1.409 . S
C1817 H1809 0.930 1_565 S
C1817 C1815 1.419 . S
C1817 C1818 1.362 1_565 S
C1818 H1810 0.930 . S
C1818 C1817 1.362 1_545 S
C1818 C1821 1.409 1_545 S
C1819 H1811 0.930 1_565 S
C1819 C1820 1.355 . S
C1819 C1821 1.415 . S
C1820 C1819 1.355 . S
C1820 C1822 1.419 . S
C1821 C1816 1.425 . S
C1821 C1818 1.409 1_565 S
C1821 C1819 1.415 . S
C1822 H1812 0.930 . S
C1822 C1820 1.419 . S
C1822 C1823 1.362 . S
C1823 H1813 0.930 . S
C1823 C1816 1.409 . S
C1823 C1822 1.362 . S
H1824 C1830 0.930 . S
H1825 C1833 0.930 . S
H1826 C1834 0.930 . S
H1827 C1835 0.930 . S
H1828 C1838 0.930 . S
H1829 C1839 0.930 . S
C1830 H1824 0.930 . S
C1830 C1831 1.355 . S
C1830 C1832 1.415 . S
C1831 C1830 1.355 . S
C1831 C1833 1.419 . S
C1832 C1830 1.415 . S
C1832 C1837 1.425 . S
C1832 C1839 1.409 . S
C1833 H1825 0.930 . S
C1833 C1831 1.419 . S
C1833 C1834 1.362 . S
C1834 H1826 0.930 . S
C1834 C1833 1.362 . S
C1834 C1837 1.409 . S
C1835 H1827 0.930 . S
C1835 C1836 1.355 . S
C1835 C1837 1.415 . S
C1836 C1835 1.355 . S
C1836 C1838 1.419 . S
C1837 C1832 1.425 . S
C1837 C1834 1.409 . S
C1837 C1835 1.415 . S
C1838 H1828 0.930 . S
C1838 C1836 1.419 . S
C1838 C1839 1.362 . S
C1839 H1829 0.930 . S
C1839 C1832 1.409 . S
C1839 C1838 1.362 . S
H1840 C1846 0.930 . S
H1841 C1849 0.930 . S
H1842 C1850 0.930 . S
H1843 C1851 0.930 . S
H1844 C1854 0.930 . S
H1845 C1855 0.930 . S
C1846 H1840 0.930 . S
C1846 C1847 1.355 . S
C1846 C1848 1.415 . S
C1847 C1846 1.355 . S
C1847 C1849 1.419 . S
C1848 C1846 1.415 . S
C1848 C1853 1.425 . S
C1848 C1855 1.409 . S
C1849 H1841 0.930 . S
C1849 C1847 1.419 . S
C1849 C1850 1.362 . S
C1850 H1842 0.930 . S
C1850 C1849 1.362 . S
C1850 C1853 1.409 . S
C1851 H1843 0.930 . S
C1851 C1852 1.355 . S
C1851 C1853 1.415 . S
C1852 C1851 1.355 . S
C1852 C1854 1.419 . S
C1853 C1848 1.425 . S
C1853 C1850 1.409 . S
C1853 C1851 1.415 . S
C1854 H1844 0.930 . S
C1854 C1852 1.419 . S
C1854 C1855 1.362 . S
C1855 H1845 0.930 . S
C1855 C1848 1.409 . S
C1855 C1854 1.362 . S
H1856 C1862 0.930 . S
H1857 C1865 0.930 . S
H1858 C1866 0.930 . S
H1859 C1867 0.930 . S
H1860 C1870 0.930 . S
H1861 C1871 0.930 . S
C1862 H1856 0.930 . S
C1862 C1863 1.355 . S
C1862 C1864 1.415 . S
C1863 C1862 1.355 . S
C1863 C1865 1.419 . S
C1864 C1862 1.415 . S
C1864 C1869 1.425 . S
C1864 C1871 1.409 . S
C1865 H1857 0.930 . S
C1865 C1863 1.419 . S
C1865 C1866 1.362 . S
C1866 H1858 0.930 . S
C1866 C1865 1.362 . S
C1866 C1869 1.409 . S
C1867 H1859 0.930 . S
C1867 C1868 1.355 . S
C1867 C1869 1.415 . S
C1868 C1867 1.355 . S
C1868 C1870 1.419 . S
C1869 C1864 1.425 . S
C1869 C1866 1.409 . S
C1869 C1867 1.415 . S
C1870 H1860 0.930 . S
C1870 C1868 1.419 . S
C1870 C1871 1.362 . S
C1871 H1861 0.930 . S
C1871 C1864 1.409 . S
C1871 C1870 1.362 . S
H1872 C1878 0.930 . S
H1873 C1881 0.930 . S
H1874 C1882 0.930 . S
H1875 C1883 0.930 . S
H1876 C1886 0.930 . S
H1877 C1887 0.930 . S
C1878 H1872 0.930 . S
C1878 C1879 1.355 . S
C1878 C1880 1.415 . S
C1879 C1878 1.355 . S
C1879 C1881 1.419 . S
C1880 C1878 1.415 . S
C1880 C1885 1.425 . S
C1880 C1887 1.409 . S
C1881 H1873 0.930 . S
C1881 C1879 1.419 . S
C1881 C1882 1.362 . S
C1882 H1874 0.930 . S
C1882 C1881 1.362 . S
C1882 C1885 1.409 . S
C1883 H1875 0.930 . S
C1883 C1884 1.355 . S
C1883 C1885 1.415 . S
C1884 C1883 1.355 . S
C1884 C1886 1.419 . S
C1885 C1880 1.425 . S
C1885 C1882 1.409 . S
C1885 C1883 1.415 . S
C1886 H1876 0.930 . S
C1886 C1884 1.419 . S
C1886 C1887 1.362 . S
C1887 H1877 0.930 . S
C1887 C1880 1.409 . S
C1887 C1886 1.362 . S
H1888 C1894 0.930 . S
H1889 C1897 0.930 . S
H1890 C1898 0.930 . S
H1891 C1899 0.930 . S
H1892 C1902 0.930 . S
H1893 C1903 0.930 . S
C1894 H1888 0.930 . S
C1894 C1895 1.355 . S
C1894 C1896 1.415 . S
C1895 C1894 1.355 . S
C1895 C1897 1.419 . S
C1896 C1894 1.415 . S
C1896 C1901 1.425 . S
C1896 C1903 1.409 . S
C1897 H1889 0.930 . S
C1897 C1895 1.419 . S
C1897 C1898 1.362 . S
C1898 H1890 0.930 . S
C1898 C1897 1.362 . S
C1898 C1901 1.409 . S
C1899 H1891 0.930 . S
C1899 C1900 1.355 . S
C1899 C1901 1.415 . S
C1900 C1899 1.355 . S
C1900 C1902 1.419 . S
C1901 C1896 1.425 . S
C1901 C1898 1.409 . S
C1901 C1899 1.415 . S
C1902 H1892 0.930 . S
C1902 C1900 1.419 . S
C1902 C1903 1.362 . S
C1903 H1893 0.930 . S
C1903 C1896 1.409 . S
C1903 C1902 1.362 . S
H1904 C1910 0.930 . S
H1905 C1913 0.930 . S
H1906 C1914 0.930 . S
H1907 C1915 0.930 . S
H1908 C1918 0.930 . S
H1909 C1919 0.930 . S
C1910 H1904 0.930 . S
C1910 C1911 1.355 . S
C1910 C1912 1.415 . S
C1911 C1910 1.355 . S
C1911 C1913 1.419 . S
C1912 C1910 1.415 . S
C1912 C1917 1.425 . S
C1912 C1919 1.409 . S
C1913 H1905 0.930 . S
C1913 C1911 1.419 . S
C1913 C1914 1.362 . S
C1914 H1906 0.930 . S
C1914 C1913 1.362 . S
C1914 C1917 1.409 . S
C1915 H1907 0.930 . S
C1915 C1916 1.355 . S
C1915 C1917 1.415 . S
C1916 C1915 1.355 . S
C1916 C1918 1.419 . S
C1917 C1912 1.425 . S
C1917 C1914 1.409 . S
C1917 C1915 1.415 . S
C1918 H1908 0.930 . S
C1918 C1916 1.419 . S
C1918 C1919 1.362 . S
C1919 H1909 0.930 . S
C1919 C1912 1.409 . S
C1919 C1918 1.362 . S
H1920 C1926 0.930 . S
H1921 C1929 0.930 . S
H1922 C1930 0.930 . S
H1923 C1931 0.930 . S
H1924 C1934 0.930 . S
H1925 C1935 0.930 . S
C1926 H1920 0.930 . S
C1926 C1927 1.355 . S
C1926 C1928 1.415 . S
C1927 C1926 1.355 . S
C1927 C1929 1.419 . S
C1928 C1926 1.415 . S
C1928 C1933 1.425 . S
C1928 C1935 1.409 . S
C1929 H1921 0.930 . S
C1929 C1927 1.419 . S
C1929 C1930 1.362 . S
C1930 H1922 0.930 . S
C1930 C1929 1.362 . S
C1930 C1933 1.409 . S
C1931 H1923 0.930 . S
C1931 C1932 1.355 . S
C1931 C1933 1.415 . S
C1932 C1931 1.355 . S
C1932 C1934 1.419 . S
C1933 C1928 1.425 . S
C1933 C1930 1.409 . S
C1933 C1931 1.415 . S
C1934 H1924 0.930 . S
C1934 C1932 1.419 . S
C1934 C1935 1.362 . S
C1935 H1925 0.930 . S
C1935 C1928 1.409 . S
C1935 C1934 1.362 . S
H1936 C1942 0.930 1_455 S
H1937 C1945 0.930 . S
H1938 C1946 0.930 . S
H1939 C1947 0.930 . S
H1940 C1950 0.930 . S
H1941 C1951 0.930 . S
C1942 H1936 0.930 1_655 S
C1942 C1943 1.355 . S
C1942 C1944 1.415 . S
C1943 C1942 1.355 . S
C1943 C1945 1.419 . S
C1944 C1942 1.415 . S
C1944 C1949 1.425 . S
C1944 C1951 1.409 1_655 S
C1945 H1937 0.930 . S
C1945 C1943 1.419 . S
C1945 C1946 1.362 . S
C1946 H1938 0.930 . S
C1946 C1945 1.362 . S
C1946 C1949 1.409 . S
C1947 H1939 0.930 . S
C1947 C1948 1.355 . S
C1947 C1949 1.415 . S
C1948 C1947 1.355 . S
C1948 C1950 1.419 1_655 S
C1949 C1944 1.425 . S
C1949 C1946 1.409 . S
C1949 C1947 1.415 . S
C1950 H1940 0.930 . S
C1950 C1948 1.419 1_455 S
C1950 C1951 1.362 . S
C1951 H1941 0.930 . S
C1951 C1944 1.409 1_455 S
C1951 C1950 1.362 . S
H1952 C1958 0.930 . S
H1953 C1961 0.930 . S
H1954 C1962 0.930 . S
H1955 C1963 0.930 . S
H1956 C1966 0.930 . S
H1957 C1967 0.930 . S
C1958 H1952 0.930 . S
C1958 C1959 1.355 . S
C1958 C1960 1.415 . S
C1959 C1958 1.355 . S
C1959 C1961 1.419 . S
C1960 C1958 1.415 . S
C1960 C1965 1.425 . S
C1960 C1967 1.409 . S
C1961 H1953 0.930 . S
C1961 C1959 1.419 . S
C1961 C1962 1.362 . S
C1962 H1954 0.930 . S
C1962 C1961 1.362 . S
C1962 C1965 1.409 . S
C1963 H1955 0.930 . S
C1963 C1964 1.355 . S
C1963 C1965 1.415 . S
C1964 C1963 1.355 . S
C1964 C1966 1.419 . S
C1965 C1960 1.425 . S
C1965 C1962 1.409 . S
C1965 C1963 1.415 . S
C1966 H1956 0.930 . S
C1966 C1964 1.419 . S
C1966 C1967 1.362 . S
C1967 H1957 0.930 . S
C1967 C1960 1.409 . S
C1967 C1966 1.362 . S
H1968 C1974 0.930 . S
H1969 C1977 0.930 . S
H1970 C1978 0.930 . S
H1971 C1979 0.930 . S
H1972 C1982 0.930 . S
H1973 C1983 0.930 . S
C1974 H1968 0.930 . S
C1974 C1975 1.355 . S
C1974 C1976 1.415 . S
C1975 C1974 1.355 . S
C1975 C1977 1.419 . S
C1976 C1974 1.415 . S
C1976 C1981 1.425 . S
C1976 C1983 1.409 . S
C1977 H1969 0.930 . S
C1977 C1975 1.419 . S
C1977 C1978 1.362 . S
C1978 H1970 0.930 . S
C1978 C1977 1.362 . S
C1978 C1981 1.409 . S
C1979 H1971 0.930 . S
C1979 C1980 1.355 . S
C1979 C1981 1.415 . S
C1980 C1979 1.355 . S
C1980 C1982 1.419 . S
C1981 C1976 1.425 . S
C1981 C1978 1.409 . S
C1981 C1979 1.415 . S
C1982 H1972 0.930 . S
C1982 C1980 1.419 . S
C1982 C1983 1.362 . S
C1983 H1973 0.930 . S
C1983 C1976 1.409 . S
C1983 C1982 1.362 . S
H1984 C1990 0.930 . S
H1985 C1993 0.930 . S
H1986 C1994 0.930 . S
H1987 C1995 0.930 . S
H1988 C1998 0.930 . S
H1989 C1999 0.930 . S
C1990 H1984 0.930 . S
C1990 C1991 1.355 . S
C1990 C1992 1.415 . S
C1991 C1990 1.355 . S
C1991 C1993 1.419 1_556 S
C1992 C1990 1.415 . S
C1992 C1997 1.425 . S
C1992 C1999 1.409 . S
C1993 H1985 0.930 . S
C1993 C1991 1.419 1_554 S
C1993 C1994 1.362 . S
C1994 H1986 0.930 . S
C1994 C1993 1.362 . S
C1994 C1997 1.409 1_554 S
C1995 H1987 0.930 . S
C1995 C1996 1.355 1_554 S
C1995 C1997 1.415 1_554 S
C1996 C1995 1.355 1_556 S
C1996 C1998 1.419 . S
C1997 C1992 1.425 . S
C1997 C1994 1.409 1_556 S
C1997 C1995 1.415 1_556 S
C1998 H1988 0.930 . S
C1998 C1996 1.419 . S
C1998 C1999 1.362 . S
C1999 H1989 0.930 . S
C1999 C1992 1.409 . S
C1999 C1998 1.362 . S
H2000 C2006 0.930 . S
H2001 C2009 0.930 . S
H2002 C2010 0.930 . S
H2003 C2011 0.930 . S
H2004 C2014 0.930 . S
H2005 C2015 0.930 . S
C2006 H2000 0.930 . S
C2006 C2007 1.355 . S
C2006 C2008 1.415 . S
C2007 C2006 1.355 . S
C2007 C2009 1.419 . S
C2008 C2006 1.415 . S
C2008 C2013 1.425 . S
C2008 C2015 1.409 . S
C2009 H2001 0.930 . S
C2009 C2007 1.419 . S
C2009 C2010 1.362 . S
C2010 H2002 0.930 . S
C2010 C2009 1.362 . S
C2010 C2013 1.409 . S
C2011 H2003 0.930 . S
C2011 C2012 1.355 . S
C2011 C2013 1.415 . S
C2012 C2011 1.355 . S
C2012 C2014 1.419 . S
C2013 C2008 1.425 . S
C2013 C2010 1.409 . S
C2013 C2011 1.415 . S
C2014 H2004 0.930 . S
C2014 C2012 1.419 . S
C2014 C2015 1.362 . S
C2015 H2005 0.930 . S
C2015 C2008 1.409 . S
C2015 C2014 1.362 . S
H2016 C2022 0.930 . S
H2017 C2025 0.930 . S
H2018 C2026 0.930 . S
H2019 C2027 0.930 . S
H2020 C2030 0.930 . S
H2021 C2031 0.930 . S
C2022 H2016 0.930 . S
C2022 C2023 1.355 . S
C2022 C2024 1.415 . S
C2023 C2022 1.355 . S
C2023 C2025 1.419 . S
C2024 C2022 1.415 . S
C2024 C2029 1.425 . S
C2024 C2031 1.409 . S
C2025 H2017 0.930 . S
C2025 C2023 1.419 . S
C2025 C2026 1.362 . S
C2026 H2018 0.930 . S
C2026 C2025 1.362 . S
C2026 C2029 1.409 . S
C2027 H2019 0.930 . S
C2027 C2028 1.355 . S
C2027 C2029 1.415 . S
C2028 C2027 1.355 . S
C2028 C2030 1.419 . S
C2029 C2024 1.425 . S
C2029 C2026 1.409 . S
C2029 C2027 1.415 . S
C2030 H2020 0.930 . S
C2030 C2028 1.419 . S
C2030 C2031 1.362 . S
C2031 H2021 0.930 . S
C2031 C2024 1.409 . S
C2031 C2030 1.362 . S
H2032 C2038 0.930 . S
H2033 C2041 0.930 . S
H2034 C2042 0.930 . S
H2035 C2043 0.930 . S
H2036 C2046 0.930 . S
H2037 C2047 0.930 . S
C2038 H2032 0.930 . S
C2038 C2039 1.355 . S
C2038 C2040 1.415 . S
C2039 C2038 1.355 . S
C2039 C2041 1.419 . S
C2040 C2038 1.415 . S
C2040 C2045 1.425 . S
C2040 C2047 1.409 . S
C2041 H2033 0.930 . S
C2041 C2039 1.419 . S
C2041 C2042 1.362 . S
C2042 H2034 0.930 . S
C2042 C2041 1.362 . S
C2042 C2045 1.409 . S
C2043 H2035 0.930 . S
C2043 C2044 1.355 . S
C2043 C2045 1.415 . S
C2044 C2043 1.355 . S
C2044 C2046 1.419 . S
C2045 C2040 1.425 . S
C2045 C2042 1.409 . S
C2045 C2043 1.415 . S
C2046 H2036 0.930 . S
C2046 C2044 1.419 . S
C2046 C2047 1.362 . S
C2047 H2037 0.930 . S
C2047 C2040 1.409 . S
C2047 C2046 1.362 . S
H2048 C2054 0.930 . S
H2049 C2057 0.930 . S
H2050 C2058 0.930 . S
H2051 C2059 0.930 . S
H2052 C2062 0.930 . S
H2053 C2063 0.930 . S
C2054 H2048 0.930 . S
C2054 C2055 1.355 . S
C2054 C2056 1.415 . S
C2055 C2054 1.355 . S
C2055 C2057 1.419 . S
C2056 C2054 1.415 . S
C2056 C2061 1.425 . S
C2056 C2063 1.409 . S
C2057 H2049 0.930 . S
C2057 C2055 1.419 . S
C2057 C2058 1.362 . S
C2058 H2050 0.930 . S
C2058 C2057 1.362 . S
C2058 C2061 1.409 . S
C2059 H2051 0.930 . S
C2059 C2060 1.355 . S
C2059 C2061 1.415 . S
C2060 C2059 1.355 . S
C2060 C2062 1.419 . S
C2061 C2056 1.425 . S
C2061 C2058 1.409 . S
C2061 C2059 1.415 . S
C2062 H2052 0.930 . S
C2062 C2060 1.419 . S
C2062 C2063 1.362 . S
C2063 H2053 0.930 . S
C2063 C2056 1.409 . S
C2063 C2062 1.362 . S
H2064 C2070 0.930 . S
H2065 C2073 0.930 . S
H2066 C2074 0.930 . S
H2067 C2075 0.930 . S
H2068 C2078 0.930 . S
H2069 C2079 0.930 . S
C2070 H2064 0.930 . S
C2070 C2071 1.355 . S
C2070 C2072 1.415 . S
C2071 C2070 1.355 . S
C2071 C2073 1.419 . S
C2072 C2070 1.415 . S
C2072 C2077 1.425 . S
C2072 C2079 1.409 . S
C2073 H2065 0.930 . S
C2073 C2071 1.419 . S
C2073 C2074 1.362 . S
C2074 H2066 0.930 . S
C2074 C2073 1.362 . S
C2074 C2077 1.409 . S
C2075 H2067 0.930 . S
C2075 C2076 1.355 . S
C2075 C2077 1.415 . S
C2076 C2075 1.355 . S
C2076 C2078 1.419 . S
C2077 C2072 1.425 . S
C2077 C2074 1.409 . S
C2077 C2075 1.415 . S
C2078 H2068 0.930 . S
C2078 C2076 1.419 . S
C2078 C2079 1.362 . S
C2079 H2069 0.930 . S
C2079 C2072 1.409 . S
C2079 C2078 1.362 . S
H2080 C2086 0.930 . S
H2081 C2089 0.930 . S
H2082 C2090 0.930 . S
H2083 C2091 0.930 . S
H2084 C2094 0.930 . S
H2085 C2095 0.930 . S
C2086 H2080 0.930 . S
C2086 C2087 1.355 . S
C2086 C2088 1.415 . S
C2087 C2086 1.355 . S
C2087 C2089 1.419 . S
C2088 C2086 1.415 . S
C2088 C2093 1.425 . S
C2088 C2095 1.409 . S
C2089 H2081 0.930 . S
C2089 C2087 1.419 . S
C2089 C2090 1.362 . S
C2090 H2082 0.930 . S
C2090 C2089 1.362 . S
C2090 C2093 1.409 . S
C2091 H2083 0.930 . S
C2091 C2092 1.355 . S
C2091 C2093 1.415 . S
C2092 C2091 1.355 . S
C2092 C2094 1.419 . S
C2093 C2088 1.425 . S
C2093 C2090 1.409 . S
C2093 C2091 1.415 . S
C2094 H2084 0.930 . S
C2094 C2092 1.419 . S
C2094 C2095 1.362 . S
C2095 H2085 0.930 . S
C2095 C2088 1.409 . S
C2095 C2094 1.362 . S
H2096 C2102 0.930 . S
H2097 C2105 0.970 . S
H2098 C2106 0.930 . S
H2099 C2107 0.930 1_565 S
H2100 C2110 0.930 . S
H2101 C2111 0.930 . S
C2102 H2096 0.930 . S
C2102 C2103 1.355 . S
C2102 C2104 1.415 . S
C2103 C2102 1.355 . S
C2103 C2105 1.366 1_545 S
C2104 C2102 1.415 . S
C2104 C2109 1.425 . S
C2104 C2111 1.409 . S
C2105 H2097 0.970 . S
C2105 C2103 1.366 1_565 S
C2105 C2106 1.378 . S
C2106 H2098 0.930 . S
C2106 C2105 1.378 . S
C2106 C2109 1.409 1_565 S
C2107 H2099 0.930 1_545 S
C2107 C2108 1.355 . S
C2107 C2109 1.415 . S
C2108 C2107 1.355 . S
C2108 C2110 1.419 . S
C2109 C2104 1.425 . S
C2109 C2106 1.409 1_545 S
C2109 C2107 1.415 . S
C2110 H2100 0.930 . S
C2110 C2108 1.419 . S
C2110 C2111 1.362 . S
C2111 H2101 0.930 . S
C2111 C2104 1.409 . S
C2111 C2110 1.362 . S
H2112 C2118 0.930 . S
H2113 C2121 0.930 . S
H2114 C2122 0.930 . S
H2115 C2123 0.930 . S
H2116 C2126 0.930 . S
H2117 C2127 0.930 . S
C2118 H2112 0.930 . S
C2118 C2119 1.355 . S
C2118 C2120 1.415 . S
C2119 C2118 1.355 . S
C2119 C2121 1.419 . S
C2120 C2118 1.415 . S
C2120 C2125 1.425 . S
C2120 C2127 1.409 . S
C2121 H2113 0.930 . S
C2121 C2119 1.419 . S
C2121 C2122 1.362 . S
C2122 H2114 0.930 . S
C2122 C2121 1.362 . S
C2122 C2125 1.409 . S
C2123 H2115 0.930 . S
C2123 C2124 1.355 . S
C2123 C2125 1.415 . S
C2124 C2123 1.355 . S
C2124 C2126 1.419 . S
C2125 C2120 1.425 . S
C2125 C2122 1.409 . S
C2125 C2123 1.415 . S
C2126 H2116 0.930 . S
C2126 C2124 1.419 . S
C2126 C2127 1.362 . S
C2127 H2117 0.930 . S
C2127 C2120 1.409 . S
C2127 C2126 1.362 . S
H2128 C2134 0.930 . S
H2129 C2137 0.930 . S
H2130 C2138 0.930 . S
H2131 C2139 0.930 . S
H2132 C2142 0.930 . S
H2133 C2143 0.930 . S
C2134 H2128 0.930 . S
C2134 C2135 1.355 . S
C2134 C2136 1.415 . S
C2135 C2134 1.355 . S
C2135 C2137 1.419 . S
C2136 C2134 1.415 . S
C2136 C2141 1.425 . S
C2136 C2143 1.409 . S
C2137 H2129 0.930 . S
C2137 C2135 1.419 . S
C2137 C2138 1.362 . S
C2138 H2130 0.930 . S
C2138 C2137 1.362 . S
C2138 C2141 1.409 . S
C2139 H2131 0.930 . S
C2139 C2140 1.355 . S
C2139 C2141 1.415 . S
C2140 C2139 1.355 . S
C2140 C2142 1.419 . S
C2141 C2136 1.425 . S
C2141 C2138 1.409 . S
C2141 C2139 1.415 . S
C2142 H2132 0.930 . S
C2142 C2140 1.419 . S
C2142 C2143 1.362 . S
C2143 H2133 0.930 . S
C2143 C2136 1.409 . S
C2143 C2142 1.362 . S
H2144 C2150 0.930 . S
H2145 C2153 0.930 . S
H2146 C2154 0.930 . S
H2147 C2155 0.930 . S
H2148 C2158 0.930 . S
H2149 C2159 0.930 . S
C2150 H2144 0.930 . S
C2150 C2151 1.355 . S
C2150 C2152 1.415 . S
C2151 C2150 1.355 . S
C2151 C2153 1.419 . S
C2152 C2150 1.415 . S
C2152 C2157 1.425 . S
C2152 C2159 1.409 . S
C2153 H2145 0.930 . S
C2153 C2151 1.419 . S
C2153 C2154 1.362 . S
C2154 H2146 0.930 . S
C2154 C2153 1.362 . S
C2154 C2157 1.409 . S
C2155 H2147 0.930 . S
C2155 C2156 1.355 . S
C2155 C2157 1.415 . S
C2156 C2155 1.355 . S
C2156 C2158 1.419 . S
C2157 C2152 1.425 . S
C2157 C2154 1.409 . S
C2157 C2155 1.415 . S
C2158 H2148 0.930 . S
C2158 C2156 1.419 . S
C2158 C2159 1.362 . S
C2159 H2149 0.930 . S
C2159 C2152 1.409 . S
C2159 C2158 1.362 . S
H2160 C2166 0.930 . S
H2161 C2169 0.930 . S
H2162 C2170 0.930 . S
H2163 C2171 0.930 . S
H2164 C2174 0.930 . S
H2165 C2175 0.930 . S
C2166 H2160 0.930 . S
C2166 C2167 1.355 . S
C2166 C2168 1.415 . S
C2167 C2166 1.355 . S
C2167 C2169 1.419 . S
C2168 C2166 1.415 . S
C2168 C2173 1.425 . S
C2168 C2175 1.409 . S
C2169 H2161 0.930 . S
C2169 C2167 1.419 . S
C2169 C2170 1.362 . S
C2170 H2162 0.930 . S
C2170 C2169 1.362 . S
C2170 C2173 1.409 . S
C2171 H2163 0.930 . S
C2171 C2172 1.355 . S
C2171 C2173 1.415 . S
C2172 C2171 1.355 . S
C2172 C2174 1.419 . S
C2173 C2168 1.425 . S
C2173 C2170 1.409 . S
C2173 C2171 1.415 . S
C2174 H2164 0.930 . S
C2174 C2172 1.419 . S
C2174 C2175 1.362 . S
C2175 H2165 0.930 . S
C2175 C2168 1.409 . S
C2175 C2174 1.362 . S
H2176 C2182 0.930 . S
H2177 C2185 0.930 . S
H2178 C2186 0.930 . S
H2179 C2187 0.930 . S
H2180 C2190 0.930 . S
H2181 C2191 0.930 . S
C2182 H2176 0.930 . S
C2182 C2183 1.355 . S
C2182 C2184 1.415 . S
C2183 C2182 1.355 . S
C2183 C2185 1.419 . S
C2184 C2182 1.415 . S
C2184 C2189 1.425 . S
C2184 C2191 1.409 . S
C2185 H2177 0.930 . S
C2185 C2183 1.419 . S
C2185 C2186 1.362 . S
C2186 H2178 0.930 . S
C2186 C2185 1.362 . S
C2186 C2189 1.409 . S
C2187 H2179 0.930 . S
C2187 C2188 1.355 . S
C2187 C2189 1.415 . S
C2188 C2187 1.355 . S
C2188 C2190 1.419 . S
C2189 C2184 1.425 . S
C2189 C2186 1.409 . S
C2189 C2187 1.415 . S
C2190 H2180 0.930 . S
C2190 C2188 1.419 . S
C2190 C2191 1.362 . S
C2191 H2181 0.930 . S
C2191 C2184 1.409 . S
C2191 C2190 1.362 . S
H2192 C2198 0.930 . S
H2193 C2201 0.930 . S
H2194 C2202 0.930 . S
H2195 C2203 0.930 . S
H2196 C2206 0.930 . S
H2197 C2207 0.930 . S
C2198 H2192 0.930 . S
C2198 C2199 1.355 . S
C2198 C2200 1.415 . S
C2199 C2198 1.355 . S
C2199 C2201 1.419 . S
C2200 C2198 1.415 . S
C2200 C2205 1.425 . S
C2200 C2207 1.409 . S
C2201 H2193 0.930 . S
C2201 C2199 1.419 . S
C2201 C2202 1.362 . S
C2202 H2194 0.930 . S
C2202 C2201 1.362 . S
C2202 C2205 1.409 . S
C2203 H2195 0.930 . S
C2203 C2204 1.355 . S
C2203 C2205 1.415 . S
C2204 C2203 1.355 . S
C2204 C2206 1.419 . S
C2205 C2200 1.425 . S
C2205 C2202 1.409 . S
C2205 C2203 1.415 . S
C2206 H2196 0.930 . S
C2206 C2204 1.419 . S
C2206 C2207 1.362 . S
C2207 H2197 0.930 . S
C2207 C2200 1.409 . S
C2207 C2206 1.362 . S
H2208 C2214 0.930 . S
H2209 C2217 0.930 . S
H2210 C2218 0.930 . S
H2211 C2219 0.930 . S
H2212 C2222 0.930 . S
H2213 C2223 0.930 . S
C2214 H2208 0.930 . S
C2214 C2215 1.355 . S
C2214 C2216 1.415 . S
C2215 C2214 1.355 . S
C2215 C2217 1.419 . S
C2216 C2214 1.415 . S
C2216 C2221 1.425 . S
C2216 C2223 1.409 . S
C2217 H2209 0.930 . S
C2217 C2215 1.419 . S
C2217 C2218 1.362 . S
C2218 H2210 0.930 . S
C2218 C2217 1.362 . S
C2218 C2221 1.409 . S
C2219 H2211 0.930 . S
C2219 C2220 1.355 . S
C2219 C2221 1.415 . S
C2220 C2219 1.355 . S
C2220 C2222 1.419 . S
C2221 C2216 1.425 . S
C2221 C2218 1.409 . S
C2221 C2219 1.415 . S
C2222 H2212 0.930 . S
C2222 C2220 1.419 . S
C2222 C2223 1.362 . S
C2223 H2213 0.930 . S
C2223 C2216 1.409 . S
C2223 C2222 1.362 . S
H2224 C2230 0.930 . S
H2225 C2233 0.930 . S
H2226 C2234 0.930 . S
H2227 C2235 0.930 . S
H2228 C2238 0.930 . S
H2229 C2239 0.930 . S
C2230 H2224 0.930 . S
C2230 C2231 1.355 . S
C2230 C2232 1.415 . S
C2231 C2230 1.355 . S
C2231 C2233 1.419 1_655 S
C2232 C2230 1.415 . S
C2232 C2237 1.425 . S
C2232 C2239 1.409 . S
C2233 H2225 0.930 . S
C2233 C2231 1.419 1_455 S
C2233 C2234 1.362 . S
C2234 H2226 0.930 . S
C2234 C2233 1.362 . S
C2234 C2237 1.409 1_455 S
C2235 H2227 0.930 . S
C2235 C2236 1.355 1_455 S
C2235 C2237 1.415 1_455 S
C2236 C2235 1.355 1_655 S
C2236 C2238 1.419 . S
C2237 C2232 1.425 . S
C2237 C2234 1.409 1_655 S
C2237 C2235 1.415 1_655 S
C2238 H2228 0.930 . S
C2238 C2236 1.419 . S
C2238 C2239 1.362 . S
C2239 H2229 0.930 . S
C2239 C2232 1.409 . S
C2239 C2238 1.362 . S
H2240 C2246 0.930 . S
H2241 C2249 0.930 . S
H2242 C2250 0.930 . S
H2243 C2251 0.930 . S
H2244 C2254 0.930 . S
H2245 C2255 0.930 . S
C2246 H2240 0.930 . S
C2246 C2247 1.355 . S
C2246 C2248 1.415 . S
C2247 C2246 1.355 . S
C2247 C2249 1.419 . S
C2248 C2246 1.415 . S
C2248 C2253 1.425 . S
C2248 C2255 1.409 . S
C2249 H2241 0.930 . S
C2249 C2247 1.419 . S
C2249 C2250 1.362 . S
C2250 H2242 0.930 . S
C2250 C2249 1.362 . S
C2250 C2253 1.409 . S
C2251 H2243 0.930 . S
C2251 C2252 1.355 . S
C2251 C2253 1.415 . S
C2252 C2251 1.355 . S
C2252 C2254 1.419 . S
C2253 C2248 1.425 . S
C2253 C2250 1.409 . S
C2253 C2251 1.415 . S
C2254 H2244 0.930 . S
C2254 C2252 1.419 . S
C2254 C2255 1.362 . S
C2255 H2245 0.930 . S
C2255 C2248 1.409 . S
C2255 C2254 1.362 . S
H2256 C2262 0.930 1_655 S
H2257 C2265 0.930 . S
H2258 C2266 0.930 . S
H2259 C2267 0.930 . S
H2260 C2270 0.930 . S
H2261 C2271 0.930 . S
C2262 H2256 0.930 1_455 S
C2262 C2263 1.355 . S
C2262 C2264 1.415 . S
C2263 C2262 1.355 . S
C2263 C2265 1.419 . S
C2264 C2262 1.415 . S
C2264 C2269 1.425 . S
C2264 C2271 1.409 1_455 S
C2265 H2257 0.930 . S
C2265 C2263 1.419 . S
C2265 C2266 1.362 . S
C2266 H2258 0.930 . S
C2266 C2265 1.362 . S
C2266 C2269 1.409 . S
C2267 H2259 0.930 . S
C2267 C2268 1.355 . S
C2267 C2269 1.415 . S
C2268 C2267 1.355 . S
C2268 C2270 1.419 1_455 S
C2269 C2264 1.425 . S
C2269 C2266 1.409 . S
C2269 C2267 1.415 . S
C2270 H2260 0.930 . S
C2270 C2268 1.419 1_655 S
C2270 C2271 1.362 . S
C2271 H2261 0.930 . S
C2271 C2264 1.409 1_655 S
C2271 C2270 1.362 . S
H2272 C2278 0.930 . S
H2273 C2281 0.930 . S
H2274 C2282 0.930 . S
H2275 C2283 0.930 . S
H2276 C2286 0.930 . S
H2277 C2287 0.930 . S
C2278 H2272 0.930 . S
C2278 C2279 1.355 . S
C2278 C2280 1.415 . S
C2279 C2278 1.355 . S
C2279 C2281 1.419 . S
C2280 C2278 1.415 . S
C2280 C2285 1.425 . S
C2280 C2287 1.409 . S
C2281 H2273 0.930 . S
C2281 C2279 1.419 . S
C2281 C2282 1.362 . S
C2282 H2274 0.930 . S
C2282 C2281 1.362 . S
C2282 C2285 1.409 . S
C2283 H2275 0.930 . S
C2283 C2284 1.355 . S
C2283 C2285 1.415 . S
C2284 C2283 1.355 . S
C2284 C2286 1.419 . S
C2285 C2280 1.425 . S
C2285 C2282 1.409 . S
C2285 C2283 1.415 . S
C2286 H2276 0.930 . S
C2286 C2284 1.419 . S
C2286 C2287 1.362 . S
C2287 H2277 0.930 . S
C2287 C2280 1.409 . S
C2287 C2286 1.362 . S
H2288 C2294 0.930 . S
H2289 C2297 0.930 . S
H2290 C2298 0.930 . S
H2291 C2299 0.930 . S
H2292 C2302 0.930 . S
H2293 C2303 0.930 . S
C2294 H2288 0.930 . S
C2294 C2295 1.355 . S
C2294 C2296 1.415 . S
C2295 C2294 1.355 . S
C2295 C2297 1.419 . S
C2296 C2294 1.415 . S
C2296 C2301 1.425 . S
C2296 C2303 1.409 . S
C2297 H2289 0.930 . S
C2297 C2295 1.419 . S
C2297 C2298 1.362 . S
C2298 H2290 0.930 . S
C2298 C2297 1.362 . S
C2298 C2301 1.409 . S
C2299 H2291 0.930 . S
C2299 C2300 1.355 . S
C2299 C2301 1.415 . S
C2300 C2299 1.355 . S
C2300 C2302 1.419 . S
C2301 C2296 1.425 . S
C2301 C2298 1.409 . S
C2301 C2299 1.415 . S
C2302 H2292 0.930 . S
C2302 C2300 1.419 . S
C2302 C2303 1.362 . S
C2303 H2293 0.930 . S
C2303 C2296 1.409 . S
C2303 C2302 1.362 . S
H2304 C2310 0.930 . S
H2305 C2313 0.930 . S
H2306 C2314 0.930 . S
H2307 C2315 0.930 . S
H2308 C2318 0.930 . S
H2309 C2319 0.930 . S
C2310 H2304 0.930 . S
C2310 C2311 1.355 . S
C2310 C2312 1.415 . S
C2311 C2310 1.355 . S
C2311 C2313 1.419 . S
C2312 C2310 1.415 . S
C2312 C2317 1.425 . S
C2312 C2319 1.409 . S
C2313 H2305 0.930 . S
C2313 C2311 1.419 . S
C2313 C2314 1.362 . S
C2314 H2306 0.930 . S
C2314 C2313 1.362 . S
C2314 C2317 1.409 . S
C2315 H2307 0.930 . S
C2315 C2316 1.355 . S
C2315 C2317 1.415 . S
C2316 C2315 1.355 . S
C2316 C2318 1.419 . S
C2317 C2312 1.425 . S
C2317 C2314 1.409 . S
C2317 C2315 1.415 . S
C2318 H2308 0.930 . S
C2318 C2316 1.419 . S
C2318 C2319 1.362 . S
C2319 H2309 0.930 . S
C2319 C2312 1.409 . S
C2319 C2318 1.362 . S
H2320 C2326 0.930 . S
H2321 C2329 0.930 . S
H2322 C2330 0.930 . S
H2323 C2331 0.930 . S
H2324 C2334 0.930 . S
H2325 C2335 0.930 . S
C2326 H2320 0.930 . S
C2326 C2327 1.355 . S
C2326 C2328 1.415 . S
C2327 C2326 1.355 . S
C2327 C2329 1.419 . S
C2328 C2326 1.415 . S
C2328 C2333 1.425 . S
C2328 C2335 1.409 . S
C2329 H2321 0.930 . S
C2329 C2327 1.419 . S
C2329 C2330 1.362 . S
C2330 H2322 0.930 . S
C2330 C2329 1.362 . S
C2330 C2333 1.409 . S
C2331 H2323 0.930 . S
C2331 C2332 1.355 . S
C2331 C2333 1.415 . S
C2332 C2331 1.355 . S
C2332 C2334 1.419 . S
C2333 C2328 1.425 . S
C2333 C2330 1.409 . S
C2333 C2331 1.415 . S
C2334 H2324 0.930 . S
C2334 C2332 1.419 . S
C2334 C2335 1.362 . S
C2335 H2325 0.930 . S
C2335 C2328 1.409 . S
C2335 C2334 1.362 . S
H2336 C2342 0.930 . S
H2337 C2345 0.930 . S
H2338 C2346 0.930 . S
H2339 C2347 0.930 . S
H2340 C2350 0.930 . S
H2341 C2351 0.930 . S
C2342 H2336 0.930 . S
C2342 C2343 1.355 . S
C2342 C2344 1.415 . S
C2343 C2342 1.355 . S
C2343 C2345 1.419 . S
C2344 C2342 1.415 . S
C2344 C2349 1.425 . S
C2344 C2351 1.409 . S
C2345 H2337 0.930 . S
C2345 C2343 1.419 . S
C2345 C2346 1.362 . S
C2346 H2338 0.930 . S
C2346 C2345 1.362 . S
C2346 C2349 1.409 . S
C2347 H2339 0.930 . S
C2347 C2348 1.355 . S
C2347 C2349 1.415 . S
C2348 C2347 1.355 . S
C2348 C2350 1.419 . S
C2349 C2344 1.425 . S
C2349 C2346 1.409 . S
C2349 C2347 1.415 . S
C2350 H2340 0.930 . S
C2350 C2348 1.419 . S
C2350 C2351 1.362 . S
C2351 H2341 0.930 . S
C2351 C2344 1.409 . S
C2351 C2350 1.362 . S
H2352 C2358 0.930 . S
H2353 C2361 0.930 . S
H2354 C2362 0.930 . S
H2355 C2363 0.930 . S
H2356 C2366 0.930 . S
H2357 C2367 0.930 . S
C2358 H2352 0.930 . S
C2358 C2359 1.355 . S
C2358 C2360 1.415 . S
C2359 C2358 1.355 . S
C2359 C2361 1.419 . S
C2360 C2358 1.415 . S
C2360 C2365 1.425 . S
C2360 C2367 1.409 . S
C2361 H2353 0.930 . S
C2361 C2359 1.419 . S
C2361 C2362 1.362 . S
C2362 H2354 0.930 . S
C2362 C2361 1.362 . S
C2362 C2365 1.409 . S
C2363 H2355 0.930 . S
C2363 C2364 1.355 . S
C2363 C2365 1.415 . S
C2364 C2363 1.355 . S
C2364 C2366 1.419 . S
C2365 C2360 1.425 . S
C2365 C2362 1.409 . S
C2365 C2363 1.415 . S
C2366 H2356 0.930 . S
C2366 C2364 1.419 . S
C2366 C2367 1.362 . S
C2367 H2357 0.930 . S
C2367 C2360 1.409 . S
C2367 C2366 1.362 . S
H2368 C2374 0.930 . S
H2369 C2377 0.930 . S
H2370 C2378 0.930 . S
H2371 C2379 0.930 . S
H2372 C2382 0.930 . S
H2373 C2383 0.930 . S
C2374 H2368 0.930 . S
C2374 C2375 1.355 . S
C2374 C2376 1.415 . S
C2375 C2374 1.355 . S
C2375 C2377 1.419 . S
C2376 C2374 1.415 . S
C2376 C2381 1.425 . S
C2376 C2383 1.409 . S
C2377 H2369 0.930 . S
C2377 C2375 1.419 . S
C2377 C2378 1.362 . S
C2378 H2370 0.930 . S
C2378 C2377 1.362 . S
C2378 C2381 1.409 . S
C2379 H2371 0.930 . S
C2379 C2380 1.355 . S
C2379 C2381 1.415 . S
C2380 C2379 1.355 . S
C2380 C2382 1.419 . S
C2381 C2376 1.425 . S
C2381 C2378 1.409 . S
C2381 C2379 1.415 . S
C2382 H2372 0.930 . S
C2382 C2380 1.419 . S
C2382 C2383 1.362 . S
C2383 H2373 0.930 . S
C2383 C2376 1.409 . S
C2383 C2382 1.362 . S
H2384 C2390 0.930 . S
H2385 C2393 0.930 . S
H2386 C2394 0.930 . S
H2387 C2395 0.930 . S
H2388 C2398 0.930 . S
H2389 C2399 0.930 . S
C2390 H2384 0.930 . S
C2390 C2391 1.355 . S
C2390 C2392 1.415 . S
C2391 C2390 1.355 . S
C2391 C2393 1.419 . S
C2392 C2390 1.415 . S
C2392 C2397 1.425 . S
C2392 C2399 1.409 . S
C2393 H2385 0.930 . S
C2393 C2391 1.419 . S
C2393 C2394 1.362 . S
C2394 H2386 0.930 . S
C2394 C2393 1.362 . S
C2394 C2397 1.409 . S
C2395 H2387 0.930 . S
C2395 C2396 1.355 . S
C2395 C2397 1.415 . S
C2396 C2395 1.355 . S
C2396 C2398 1.419 . S
C2397 C2392 1.425 . S
C2397 C2394 1.409 . S
C2397 C2395 1.415 . S
C2398 H2388 0.930 . S
C2398 C2396 1.419 . S
C2398 C2399 1.362 . S
C2399 H2389 0.930 . S
C2399 C2392 1.409 . S
C2399 C2398 1.362 . S
H2400 C2406 0.930 . S
H2401 C2409 0.930 . S
H2402 C2410 0.930 . S
H2403 C2411 0.930 . S
H2404 C2414 0.930 . S
H2405 C2415 0.930 . S
C2406 H2400 0.930 . S
C2406 C2407 1.355 . S
C2406 C2408 1.415 . S
C2407 C2406 1.355 . S
C2407 C2409 1.419 . S
C2408 C2406 1.415 . S
C2408 C2413 1.425 . S
C2408 C2415 1.409 . S
C2409 H2401 0.930 . S
C2409 C2407 1.419 . S
C2409 C2410 1.362 . S
C2410 H2402 0.930 . S
C2410 C2409 1.362 . S
C2410 C2413 1.409 . S
C2411 H2403 0.930 . S
C2411 C2412 1.355 . S
C2411 C2413 1.415 . S
C2412 C2411 1.355 . S
C2412 C2414 1.419 . S
C2413 C2408 1.425 . S
C2413 C2410 1.409 . S
C2413 C2411 1.415 . S
C2414 H2404 0.930 . S
C2414 C2412 1.419 . S
C2414 C2415 1.362 . S
C2415 H2405 0.930 . S
C2415 C2408 1.409 . S
C2415 C2414 1.362 . S
H2416 C2422 0.930 . S
H2417 C2425 0.930 . S
H2418 C2426 0.930 . S
H2419 C2427 0.930 . S
H2420 C2430 0.930 . S
H2421 C2431 0.930 . S
C2422 H2416 0.930 . S
C2422 C2423 1.355 . S
C2422 C2424 1.415 . S
C2423 C2422 1.355 . S
C2423 C2425 1.419 . S
C2424 C2422 1.415 . S
C2424 C2429 1.425 . S
C2424 C2431 1.409 . S
C2425 H2417 0.930 . S
C2425 C2423 1.419 . S
C2425 C2426 1.362 . S
C2426 H2418 0.930 . S
C2426 C2425 1.362 . S
C2426 C2429 1.409 . S
C2427 H2419 0.930 . S
C2427 C2428 1.355 . S
C2427 C2429 1.415 . S
C2428 C2427 1.355 . S
C2428 C2430 1.419 . S
C2429 C2424 1.425 . S
C2429 C2426 1.409 . S
C2429 C2427 1.415 . S
C2430 H2420 0.930 . S
C2430 C2428 1.419 . S
C2430 C2431 1.362 . S
C2431 H2421 0.930 . S
C2431 C2424 1.409 . S
C2431 C2430 1.362 . S
H2432 C2438 0.930 . S
H2433 C2441 0.930 . S
H2434 C2442 0.930 . S
H2435 C2443 0.930 . S
H2436 C2446 0.930 . S
H2437 C2447 0.930 . S
C2438 H2432 0.930 . S
C2438 C2439 1.355 . S
C2438 C2440 1.415 . S
C2439 C2438 1.355 . S
C2439 C2441 1.419 . S
C2440 C2438 1.415 . S
C2440 C2445 1.425 . S
C2440 C2447 1.409 . S
C2441 H2433 0.930 . S
C2441 C2439 1.419 . S
C2441 C2442 1.362 . S
C2442 H2434 0.930 . S
C2442 C2441 1.362 . S
C2442 C2445 1.409 . S
C2443 H2435 0.930 . S
C2443 C2444 1.355 . S
C2443 C2445 1.415 . S
C2444 C2443 1.355 . S
C2444 C2446 1.419 . S
C2445 C2440 1.425 . S
C2445 C2442 1.409 . S
C2445 C2443 1.415 . S
C2446 H2436 0.930 . S
C2446 C2444 1.419 . S
C2446 C2447 1.362 . S
C2447 H2437 0.930 . S
C2447 C2440 1.409 . S
C2447 C2446 1.362 . S
H2448 C2454 0.930 . S
H2449 C2457 0.930 . S
H2450 C2458 0.930 . S
H2451 C2459 0.930 . S
H2452 C2462 0.930 . S
H2453 C2463 0.930 . S
C2454 H2448 0.930 . S
C2454 C2455 1.355 . S
C2454 C2456 1.415 . S
C2455 C2454 1.355 . S
C2455 C2457 1.419 . S
C2456 C2454 1.415 . S
C2456 C2461 1.425 . S
C2456 C2463 1.409 . S
C2457 H2449 0.930 . S
C2457 C2455 1.419 . S
C2457 C2458 1.362 . S
C2458 H2450 0.930 . S
C2458 C2457 1.362 . S
C2458 C2461 1.409 . S
C2459 H2451 0.930 . S
C2459 C2460 1.355 . S
C2459 C2461 1.415 . S
C2460 C2459 1.355 . S
C2460 C2462 1.419 . S
C2461 C2456 1.425 . S
C2461 C2458 1.409 . S
C2461 C2459 1.415 . S
C2462 H2452 0.930 . S
C2462 C2460 1.419 . S
C2462 C2463 1.362 . S
C2463 H2453 0.930 . S
C2463 C2456 1.409 . S
C2463 C2462 1.362 . S
C1708 C689 1.483 . S
C1703 C202 1.437 . S
C1724 C748 1.532 . S
C1719 C261 1.543 . S
C1735 C282 1.503 . S
C1740 C865 1.529 . S
C1756 C933 1.526 . S
C1751 C162 1.509 . S
C1772 C1012 1.496 . S
C1767 C402 1.488 . S
C1788 C1137 1.516 . S
C1783 C482 1.527 . S
C1799 C442 1.501 . S
C1804 C1197 1.515 . S
C1820 C1305 1.541 . S
C1815 C381 1.532 . S
C1831 C461 1.552 . S
C1836 C1401 1.557 . S
C1852 C1461 1.490 . S
C1847 C362 1.498 . S
C1863 C415 1.467 . S
C1868 C1364 1.466 . S
C1884 C1481 1.534 . S
C1879 C495 1.531 . S
C1895 C301 1.556 . S
C1900 C1549 1.553 . S
C1911 C175 1.530 . S
C1916 C1540 1.533 . S
C1927 C215 1.447 . S
C1932 C1569 1.453 . S
C1943 C242 1.487 . S
C1948 C1577 1.487 . S
C1959 C141 1.535 . S
C1964 C961 1.550 . S
C1975 C581 1.499 . S
C1980 C924 1.540 . S
C1996 C660 1.458 . S
C1991 C615 1.458 . S
C2012 C757 1.500 . S
C2007 C335 1.500 . S
C2023 C181 1.584 . S
C2028 C1021 1.572 . S
C2044 C1313 1.490 . S
C2039 C455 1.490 . S
C2060 C1041 1.468 . S
C2055 C375 1.470 . S
C2076 C1225 1.579 . S
C2071 C501 1.574 . S
C2092 C1217 1.497 . S
C2087 C562 1.484 . S
C2103 C621 1.534 . S
C2108 C1285 1.538 . S
C2119 C322 1.522 . S
C2124 C1049 1.518 . S
C2140 C1100 1.515 . S
C2135 C522 1.526 . S
C2151 C122 1.485 . S
C2156 C845 1.491 . S
C2172 C953 1.515 . S
C2167 C2 1.522 . S
C2188 C669 1.515 . S
C2183 C42 1.524 . S
C2204 C785 1.541 . S
C2199 C101 1.532 . S
C2215 C61 1.550 . S
C2220 C1489 1.560 . S
C2231 C82 1.499 . S
C2236 C1373 1.489 . S
C2247 C135 1.448 . S
C2252 C1452 1.453 . S
C2263 C15 1.540 . S
C2268 C1393 1.542 . S
C2284 C1637 1.551 . S
C2279 C341 1.557 . S
C2300 C1628 1.532 . S
C2295 C535 1.529 . S
C2316 C1657 1.453 . S
C2311 C575 1.448 . S
C2327 C602 1.485 . S
C2332 C1665 1.488 . S
C2343 C421 1.545 . S
C2348 C1129 1.552 . S
C2364 C1109 1.548 . S
C2359 C221 1.531 . S
C2380 C1188 1.459 . S
C2375 C255 1.454 . S
C2396 C1276 1.491 . S
C2391 C295 1.491 . S
C2407 C541 1.569 . S
C2412 C836 1.584 . S
C2428 C777 1.491 . S
C2423 C55 1.489 . S
C2439 C95 1.470 . S
C2444 C873 1.466 . S
C2460 C697 1.583 . S
C2455 C21 1.569 . S
