# Generated by pormake.
# Topology cor, (4,6)-cn, num edge types: 1
# Building blocks:
#     Node 0, Type 0, BuildingBlock: KUFVIS_clean_sbu_0, # of connection points: 4
#     Node 1, Type 0, BuildingBlock: KUFVIS_clean_sbu_0, # of connection points: 4
#     Node 2, Type 0, BuildingBlock: KUFVIS_clean_sbu_0, # of connection points: 4
#     Node 3, Type 0, BuildingBlock: KUFVIS_clean_sbu_0, # of connection points: 4
#     Node 4, Type 0, BuildingBlock: KUFVIS_clean_sbu_0, # of connection points: 4
#     Node 5, Type 0, BuildingBlock: KUFVIS_clean_sbu_0, # of connection points: 4
#     Node 6, Type 0, BuildingBlock: KUFVIS_clean_sbu_0, # of connection points: 4
#     Node 7, Type 0, BuildingBlock: KUFVIS_clean_sbu_0, # of connection points: 4
#     Node 8, Type 0, BuildingBlock: KUFVIS_clean_sbu_0, # of connection points: 4
#     Node 9, Type 0, BuildingBlock: KUFVIS_clean_sbu_0, # of connection points: 4
#     Node 10, Type 0, BuildingBlock: KUFVIS_clean_sbu_0, # of connection points: 4
#     Node 11, Type 0, BuildingBlock: KUFVIS_clean_sbu_0, # of connection points: 4
#     Node 12, Type 0, BuildingBlock: KUFVIS_clean_sbu_0, # of connection points: 4
#     Node 13, Type 0, BuildingBlock: KUFVIS_clean_sbu_0, # of connection points: 4
#     Node 14, Type 0, BuildingBlock: KUFVIS_clean_sbu_0, # of connection points: 4
#     Node 15, Type 0, BuildingBlock: KUFVIS_clean_sbu_0, # of connection points: 4
#     Node 16, Type 0, BuildingBlock: KUFVIS_clean_sbu_0, # of connection points: 4
#     Node 17, Type 0, BuildingBlock: KUFVIS_clean_sbu_0, # of connection points: 4
#     Node 18, Type 1, BuildingBlock: MIDCAF_clean_sbu_0, # of connection points: 6
#     Node 19, Type 1, BuildingBlock: MIDCAF_clean_sbu_0, # of connection points: 6
#     Node 20, Type 1, BuildingBlock: MIDCAF_clean_sbu_0, # of connection points: 6
#     Node 21, Type 1, BuildingBlock: MIDCAF_clean_sbu_0, # of connection points: 6
#     Node 22, Type 1, BuildingBlock: MIDCAF_clean_sbu_0, # of connection points: 6
#     Node 23, Type 1, BuildingBlock: MIDCAF_clean_sbu_0, # of connection points: 6
#     Node 24, Type 1, BuildingBlock: MIDCAF_clean_sbu_0, # of connection points: 6
#     Node 25, Type 1, BuildingBlock: MIDCAF_clean_sbu_0, # of connection points: 6
#     Node 26, Type 1, BuildingBlock: MIDCAF_clean_sbu_0, # of connection points: 6
#     Node 27, Type 1, BuildingBlock: MIDCAF_clean_sbu_0, # of connection points: 6
#     Node 28, Type 1, BuildingBlock: MIDCAF_clean_sbu_0, # of connection points: 6
#     Node 29, Type 1, BuildingBlock: MIDCAF_clean_sbu_0, # of connection points: 6
#     Edge 30, Type (0, 1), BuildingBlock: CIFDUS_clean_linker_0, # of connection points: 2
#     Edge 31, Type (0, 1), BuildingBlock: CIFDUS_clean_linker_0, # of connection points: 2
#     Edge 32, Type (0, 1), BuildingBlock: CIFDUS_clean_linker_0, # of connection points: 2
#     Edge 33, Type (0, 1), BuildingBlock: CIFDUS_clean_linker_0, # of connection points: 2
#     Edge 34, Type (0, 1), BuildingBlock: CIFDUS_clean_linker_0, # of connection points: 2
#     Edge 35, Type (0, 1), BuildingBlock: CIFDUS_clean_linker_0, # of connection points: 2
#     Edge 36, Type (0, 1), BuildingBlock: CIFDUS_clean_linker_0, # of connection points: 2
#     Edge 37, Type (0, 1), BuildingBlock: CIFDUS_clean_linker_0, # of connection points: 2
#     Edge 38, Type (0, 1), BuildingBlock: CIFDUS_clean_linker_0, # of connection points: 2
#     Edge 39, Type (0, 1), BuildingBlock: CIFDUS_clean_linker_0, # of connection points: 2
#     Edge 40, Type (0, 1), BuildingBlock: CIFDUS_clean_linker_0, # of connection points: 2
#     Edge 41, Type (0, 1), BuildingBlock: CIFDUS_clean_linker_0, # of connection points: 2
#     Edge 42, Type (0, 1), BuildingBlock: CIFDUS_clean_linker_0, # of connection points: 2
#     Edge 43, Type (0, 1), BuildingBlock: CIFDUS_clean_linker_0, # of connection points: 2
#     Edge 44, Type (0, 1), BuildingBlock: CIFDUS_clean_linker_0, # of connection points: 2
#     Edge 45, Type (0, 1), BuildingBlock: CIFDUS_clean_linker_0, # of connection points: 2
#     Edge 46, Type (0, 1), BuildingBlock: CIFDUS_clean_linker_0, # of connection points: 2
#     Edge 47, Type (0, 1), BuildingBlock: CIFDUS_clean_linker_0, # of connection points: 2
#     Edge 48, Type (0, 1), BuildingBlock: CIFDUS_clean_linker_0, # of connection points: 2
#     Edge 49, Type (0, 1), BuildingBlock: CIFDUS_clean_linker_0, # of connection points: 2
#     Edge 50, Type (0, 1), BuildingBlock: CIFDUS_clean_linker_0, # of connection points: 2
#     Edge 51, Type (0, 1), BuildingBlock: CIFDUS_clean_linker_0, # of connection points: 2
#     Edge 52, Type (0, 1), BuildingBlock: CIFDUS_clean_linker_0, # of connection points: 2
#     Edge 53, Type (0, 1), BuildingBlock: CIFDUS_clean_linker_0, # of connection points: 2
#     Edge 54, Type (0, 1), BuildingBlock: CIFDUS_clean_linker_0, # of connection points: 2
#     Edge 55, Type (0, 1), BuildingBlock: CIFDUS_clean_linker_0, # of connection points: 2
#     Edge 56, Type (0, 1), BuildingBlock: CIFDUS_clean_linker_0, # of connection points: 2
#     Edge 57, Type (0, 1), BuildingBlock: CIFDUS_clean_linker_0, # of connection points: 2
#     Edge 58, Type (0, 1), BuildingBlock: CIFDUS_clean_linker_0, # of connection points: 2
#     Edge 59, Type (0, 1), BuildingBlock: CIFDUS_clean_linker_0, # of connection points: 2
#     Edge 60, Type (0, 1), BuildingBlock: CIFDUS_clean_linker_0, # of connection points: 2
#     Edge 61, Type (0, 1), BuildingBlock: CIFDUS_clean_linker_0, # of connection points: 2
#     Edge 62, Type (0, 1), BuildingBlock: CIFDUS_clean_linker_0, # of connection points: 2
#     Edge 63, Type (0, 1), BuildingBlock: CIFDUS_clean_linker_0, # of connection points: 2
#     Edge 64, Type (0, 1), BuildingBlock: CIFDUS_clean_linker_0, # of connection points: 2
#     Edge 65, Type (0, 1), BuildingBlock: CIFDUS_clean_linker_0, # of connection points: 2
#     Edge 66, Type (0, 1), BuildingBlock: CIFDUS_clean_linker_0, # of connection points: 2
#     Edge 67, Type (0, 1), BuildingBlock: CIFDUS_clean_linker_0, # of connection points: 2
#     Edge 68, Type (0, 1), BuildingBlock: CIFDUS_clean_linker_0, # of connection points: 2
#     Edge 69, Type (0, 1), BuildingBlock: CIFDUS_clean_linker_0, # of connection points: 2
#     Edge 70, Type (0, 1), BuildingBlock: CIFDUS_clean_linker_0, # of connection points: 2
#     Edge 71, Type (0, 1), BuildingBlock: CIFDUS_clean_linker_0, # of connection points: 2
#     Edge 72, Type (0, 1), BuildingBlock: CIFDUS_clean_linker_0, # of connection points: 2
#     Edge 73, Type (0, 1), BuildingBlock: CIFDUS_clean_linker_0, # of connection points: 2
#     Edge 74, Type (0, 1), BuildingBlock: CIFDUS_clean_linker_0, # of connection points: 2
#     Edge 75, Type (0, 1), BuildingBlock: CIFDUS_clean_linker_0, # of connection points: 2
#     Edge 76, Type (0, 1), BuildingBlock: CIFDUS_clean_linker_0, # of connection points: 2
#     Edge 77, Type (0, 1), BuildingBlock: CIFDUS_clean_linker_0, # of connection points: 2
#     Edge 78, Type (0, 1), BuildingBlock: CIFDUS_clean_linker_0, # of connection points: 2
#     Edge 79, Type (0, 1), BuildingBlock: CIFDUS_clean_linker_0, # of connection points: 2
#     Edge 80, Type (0, 1), BuildingBlock: CIFDUS_clean_linker_0, # of connection points: 2
#     Edge 81, Type (0, 1), BuildingBlock: CIFDUS_clean_linker_0, # of connection points: 2
#     Edge 82, Type (0, 1), BuildingBlock: CIFDUS_clean_linker_0, # of connection points: 2
#     Edge 83, Type (0, 1), BuildingBlock: CIFDUS_clean_linker_0, # of connection points: 2
#     Edge 84, Type (0, 1), BuildingBlock: CIFDUS_clean_linker_0, # of connection points: 2
#     Edge 85, Type (0, 1), BuildingBlock: CIFDUS_clean_linker_0, # of connection points: 2
#     Edge 86, Type (0, 1), BuildingBlock: CIFDUS_clean_linker_0, # of connection points: 2
#     Edge 87, Type (0, 1), BuildingBlock: CIFDUS_clean_linker_0, # of connection points: 2
#     Edge 88, Type (0, 1), BuildingBlock: CIFDUS_clean_linker_0, # of connection points: 2
#     Edge 89, Type (0, 1), BuildingBlock: CIFDUS_clean_linker_0, # of connection points: 2
#     Edge 90, Type (0, 1), BuildingBlock: CIFDUS_clean_linker_0, # of connection points: 2
#     Edge 91, Type (0, 1), BuildingBlock: CIFDUS_clean_linker_0, # of connection points: 2
#     Edge 92, Type (0, 1), BuildingBlock: CIFDUS_clean_linker_0, # of connection points: 2
#     Edge 93, Type (0, 1), BuildingBlock: CIFDUS_clean_linker_0, # of connection points: 2
#     Edge 94, Type (0, 1), BuildingBlock: CIFDUS_clean_linker_0, # of connection points: 2
#     Edge 95, Type (0, 1), BuildingBlock: CIFDUS_clean_linker_0, # of connection points: 2
#     Edge 96, Type (0, 1), BuildingBlock: CIFDUS_clean_linker_0, # of connection points: 2
#     Edge 97, Type (0, 1), BuildingBlock: CIFDUS_clean_linker_0, # of connection points: 2
#     Edge 98, Type (0, 1), BuildingBlock: CIFDUS_clean_linker_0, # of connection points: 2
#     Edge 99, Type (0, 1), BuildingBlock: CIFDUS_clean_linker_0, # of connection points: 2
#     Edge 100, Type (0, 1), BuildingBlock: CIFDUS_clean_linker_0, # of connection points: 2
#     Edge 101, Type (0, 1), BuildingBlock: CIFDUS_clean_linker_0, # of connection points: 2
# Relax obj value: 0.121
# Max RMSD: 0.161
# Mean RMSD: 0.124
data_MOF--net-cor--node1-KUFVIS_clean_sbu_0--node2-MIDCAF_clean_sbu_0--edge1-CIFDUS_clean_linker_0
_symmetry_space_group_name_H-M    P1
_symmetry_Int_Tables_number       1
_symmetry_cell_setting            triclinic
loop_
_symmetry_equiv_pos_as_xyz
'x, y, z'
_cell_length_a     33.800279
_cell_length_b     33.70373
_cell_length_c     88.063243
_cell_angle_alpha  89.509857
_cell_angle_beta   90.910803
_cell_angle_gamma 119.88188
loop_
_atom_site_label
_atom_site_type_symbol
_atom_site_fract_x
_atom_site_fract_y
_atom_site_fract_z
_atom_type_partial_charge
Mn0 Mn 0.72897 0.99736 0.25269 0.0
Mn1 Mn 0.82998 0.09334 0.25809 0.0
C2 C 0.78354 0.99471 0.26777 0.0
C3 C 0.65468 0.94926 0.2608 0.0
C4 C 0.80907 0.03463 0.23033 0.0
O5 O 0.71535 0.04644 0.24525 0.0
O6 O 0.78577 0.10768 0.24729 0.0
C7 C 0.79614 0.13444 0.28029 0.0
N8 N 0.82508 0.11884 0.27677 0.0
C9 C 0.85698 0.13388 0.30209 0.0
C10 C 0.82767 0.15032 0.30596 0.0
C11 C 0.79717 0.15065 0.29501 0.0
C12 C 0.85467 0.11851 0.28721 0.0
H13 H 0.7723 0.13432 0.27197 0.0
C14 C 0.74374 0.08866 0.24308 0.0
O15 O 0.66613 0.94709 0.24693 0.0
O16 O 0.68518 0.98044 0.26951 0.0
N17 N 0.87635 0.08588 0.26826 0.0
C18 C 0.90361 0.0707 0.26251 0.0
C19 C 0.93614 0.06826 0.27199 0.0
C20 C 0.94083 0.0822 0.28721 0.0
C21 C 0.91373 0.09957 0.29269 0.0
C22 C 0.88216 0.10151 0.28266 0.0
H23 H 0.90024 0.06014 0.25084 0.0
O24 O 0.75081 0.95789 0.26172 0.0
O25 O 0.78311 0.03272 0.26504 0.0
O26 O 0.76707 0.00636 0.23329 0.0
O27 O 0.8363 0.06702 0.23917 0.0
C28 C 0.9162 0.1143 0.30778 0.0
C29 C 0.88796 0.13157 0.31245 0.0
H30 H 0.82815 0.16257 0.31733 0.0
H31 H 0.77432 0.16313 0.29793 0.0
H32 H 0.95731 0.05537 0.26761 0.0
H33 H 0.9654 0.07952 0.29455 0.0
H34 H 0.93927 0.11204 0.31594 0.0
H35 H 0.89016 0.14275 0.32409 0.0
Mn36 Mn 0.01675 0.74783 0.2508 0.0
Mn37 Mn 0.11498 0.84648 0.24479 0.0
C38 C 0.01807 0.79848 0.23294 0.0
C39 C 0.96447 0.67132 0.24567 0.0
C40 C 0.05715 0.83036 0.27228 0.0
O41 O 0.06444 0.73462 0.25989 0.0
O42 O 0.12858 0.80197 0.2555 0.0
C43 C 0.15816 0.81458 0.22281 0.0
N44 N 0.14239 0.84334 0.22644 0.0
C45 C 0.16757 0.88347 0.2027 0.0
C46 C 0.18427 0.85437 0.19871 0.0
C47 C 0.17947 0.81974 0.2088 0.0
C48 C 0.1471 0.877 0.21688 0.0
H49 H 0.15452 0.788 0.23057 0.0
C50 C 0.10754 0.76127 0.261 0.0
O51 O 0.96593 0.68972 0.25871 0.0
O52 O 0.99525 0.6966 0.23589 0.0
N53 N 0.1067 0.8924 0.23476 0.0
C54 C 0.0851 0.9147 0.2398 0.0
C55 C 0.08454 0.94887 0.23072 0.0
C56 C 0.10642 0.95994 0.21662 0.0
C57 C 0.12854 0.93659 0.21171 0.0
C58 C 0.12811 0.90298 0.22128 0.0
H59 H 0.06821 0.90623 0.25063 0.0
O60 O 0.98043 0.76993 0.2396 0.0
O61 O 0.05483 0.79774 0.23734 0.0
O62 O 0.02593 0.79001 0.26882 0.0
O63 O 0.09091 0.85469 0.26381 0.0
C64 C 0.14993 0.94444 0.19753 0.0
C65 C 0.16945 0.91792 0.19303 0.0
H66 H 0.20041 0.85799 0.18786 0.0
H67 H 0.19213 0.79706 0.20578 0.0
H68 H 0.06723 0.96659 0.23456 0.0
H69 H 0.10562 0.98607 0.20959 0.0
H70 H 0.15084 0.97023 0.18988 0.0
H71 H 0.18512 0.92376 0.182 0.0
Mn72 Mn 0.28156 0.29911 0.25588 0.0
Mn73 Mn 0.28452 0.20513 0.26733 0.0
C74 C 0.22791 0.24937 0.27274 0.0
C75 C 0.30192 0.37511 0.2608 0.0
C76 C 0.25327 0.2154 0.23582 0.0
O77 O 0.34545 0.31391 0.25018 0.0
O78 O 0.3457 0.25153 0.25969 0.0
C79 C 0.34771 0.24059 0.29365 0.0
N80 N 0.30593 0.21049 0.28775 0.0
C81 C 0.28081 0.17205 0.31175 0.0
C82 C 0.32365 0.20258 0.3181 0.0
C83 C 0.35723 0.23698 0.30901 0.0
C84 C 0.27357 0.17682 0.29633 0.0
H85 H 0.37351 0.26703 0.28666 0.0
C86 C 0.36482 0.29017 0.25269 0.0
O87 O 0.28983 0.3581 0.24719 0.0
O88 O 0.30511 0.34916 0.27103 0.0
N89 N 0.22723 0.15801 0.27474 0.0
C90 C 0.18665 0.13405 0.26715 0.0
C91 C 0.14861 0.09993 0.27481 0.0
C92 C 0.15275 0.09081 0.29018 0.0
C93 C 0.19493 0.11592 0.29772 0.0
C94 C 0.23172 0.1492 0.28946 0.0
H95 H 0.1833 0.14117 0.25536 0.0
O96 O 0.21954 0.27584 0.26417 0.0
O97 O 0.26709 0.25159 0.27075 0.0
O98 O 0.25621 0.25451 0.2375 0.0
O99 O 0.26215 0.19515 0.24645 0.0
C100 C 0.20157 0.11026 0.31324 0.0
C101 C 0.24456 0.13804 0.32023 0.0
H102 H 0.33096 0.20026 0.32999 0.0
H103 H 0.39032 0.26074 0.31384 0.0
H104 H 0.11615 0.08085 0.26892 0.0
H105 H 0.12323 0.06477 0.2961 0.0
H106 H 0.17357 0.08545 0.32 0.0
H107 H 0.24903 0.13371 0.33222 0.0
Mn108 Mn 0.30246 0.01797 0.75365 0.0
Mn109 Mn 0.2032 0.92303 0.74499 0.0
C110 C 0.25445 0.02157 0.7354 0.0
C111 C 0.38025 0.06417 0.74903 0.0
C112 C 0.22018 0.97462 0.77453 0.0
O113 O 0.31126 0.96685 0.76214 0.0
O114 O 0.24619 0.90475 0.75407 0.0
C115 C 0.23097 0.88308 0.72054 0.0
N116 N 0.20436 0.90004 0.72543 0.0
C117 C 0.16327 0.8825 0.70163 0.0
C118 C 0.19021 0.86476 0.6963 0.0
C119 C 0.22423 0.86511 0.70579 0.0
C120 C 0.17124 0.89951 0.71647 0.0
H121 H 0.257 0.88322 0.72785 0.0
C122 C 0.28493 0.92367 0.76109 0.0
O123 O 0.36297 0.06527 0.76201 0.0
O124 O 0.35262 0.03575 0.73896 0.0
N125 N 0.15901 0.93667 0.73641 0.0
C126 C 0.13913 0.95893 0.74284 0.0
C127 C 0.10626 0.96425 0.73453 0.0
C128 C 0.09398 0.94633 0.71976 0.0
C129 C 0.11485 0.92341 0.71342 0.0
C130 C 0.14739 0.91922 0.72225 0.0
H131 H 0.14857 0.97282 0.75418 0.0
O132 O 0.28401 0.05833 0.74251 0.0
O133 O 0.25317 0.98379 0.73956 0.0
O134 O 0.25971 0.00844 0.77163 0.0
O135 O 0.19724 0.94258 0.76512 0.0
C136 C 0.10556 0.90565 0.69855 0.0
C137 C 0.12965 0.88507 0.69268 0.0
H138 H 0.18539 0.8512 0.6849 0.0
H139 H 0.24521 0.85157 0.70175 0.0
H140 H 0.0905 0.98218 0.73947 0.0
H141 H 0.06888 0.95081 0.71333 0.0
H142 H 0.08058 0.90839 0.69144 0.0
H143 H 0.12273 0.87222 0.68115 0.0
Mn144 Mn 0.01074 0.3068 0.75415 0.0
Mn145 Mn 0.10817 0.31024 0.74469 0.0
C146 C 0.0068 0.25142 0.73801 0.0
C147 C 0.9621 0.33553 0.74872 0.0
C148 C 0.06322 0.27768 0.77546 0.0
O149 O 0.06009 0.36865 0.76165 0.0
O150 O 0.12243 0.37287 0.75119 0.0
C151 C 0.13051 0.36828 0.71733 0.0
N152 N 0.1218 0.32821 0.724 0.0
C153 C 0.13203 0.29905 0.70046 0.0
C154 C 0.1414 0.34015 0.69333 0.0
C155 C 0.14052 0.37486 0.7018 0.0
C156 C 0.12225 0.29447 0.71596 0.0
H157 H 0.12971 0.39491 0.72383 0.0
C158 C 0.10254 0.38991 0.75889 0.0
O159 O 0.96301 0.3193 0.76212 0.0
O160 O 0.98951 0.3353 0.7387 0.0
N161 N 0.10019 0.25245 0.73839 0.0
C162 C 0.08926 0.2145 0.74692 0.0
C163 C 0.08789 0.17629 0.74011 0.0
C164 C 0.0983 0.17769 0.72466 0.0
C165 C 0.1103 0.21744 0.7162 0.0
C166 C 0.11127 0.25451 0.72361 0.0
H167 H 0.08141 0.21329 0.75881 0.0
O168 O 0.9706 0.24575 0.74479 0.0
O169 O 0.044 0.29026 0.74053 0.0
O170 O 0.02595 0.27768 0.77247 0.0
O171 O 0.09563 0.29052 0.76597 0.0
C172 C 0.12073 0.22153 0.70064 0.0
C173 C 0.13148 0.26227 0.69276 0.0
H174 H 0.14904 0.34533 0.68133 0.0
H175 H 0.14751 0.40658 0.69636 0.0
H176 H 0.07872 0.14579 0.74674 0.0
H177 H 0.09684 0.14802 0.71941 0.0
H178 H 0.11998 0.19333 0.69456 0.0
H179 H 0.13884 0.26479 0.68076 0.0
Mn180 Mn 0.73634 0.72914 0.7603 0.0
Mn181 Mn 0.83595 0.73253 0.76784 0.0
C182 C 0.78725 0.78185 0.7774 0.0
C183 C 0.65943 0.69834 0.7668 0.0
C184 C 0.81858 0.7706 0.73884 0.0
O185 O 0.72528 0.66879 0.75183 0.0
O186 O 0.79213 0.67288 0.75815 0.0
C187 C 0.80407 0.66177 0.79176 0.0
N188 N 0.83282 0.70544 0.78718 0.0
C189 C 0.87061 0.72541 0.81159 0.0
C190 C 0.84157 0.68051 0.81656 0.0
C191 C 0.8081 0.64859 0.80661 0.0
C192 C 0.86515 0.73645 0.79664 0.0
H193 H 0.77824 0.6373 0.78413 0.0
C194 C 0.75235 0.65276 0.75184 0.0
O195 O 0.67392 0.71589 0.75342 0.0
O196 O 0.68908 0.69762 0.77604 0.0
N197 N 0.88163 0.78843 0.77692 0.0
C198 C 0.90495 0.83093 0.77059 0.0
C199 C 0.9387 0.86729 0.7792 0.0
C200 C 0.94837 0.85949 0.79414 0.0
C201 C 0.92428 0.81532 0.80032 0.0
C202 C 0.89122 0.78038 0.79117 0.0
H203 H 0.8976 0.83709 0.75911 0.0
O204 O 0.75633 0.7883 0.77083 0.0
O205 O 0.78754 0.74472 0.77368 0.0
O206 O 0.77797 0.76234 0.74173 0.0
O207 O 0.8423 0.76141 0.74809 0.0
C208 C 0.93098 0.80477 0.81532 0.0
C209 C 0.90413 0.75987 0.82095 0.0
H210 H 0.84437 0.67028 0.82804 0.0
H211 H 0.78542 0.61396 0.8104 0.0
H212 H 0.95709 0.90128 0.77435 0.0
H213 H 0.97407 0.88771 0.8008 0.0
H214 H 0.95618 0.83109 0.82269 0.0
H215 H 0.90913 0.75234 0.83257 0.0
Mn216 Mn 0.40252 0.33677 0.59264 0.0
Mn217 Mn 0.50136 0.43801 0.59454 0.0
C218 C 0.46306 0.34387 0.60688 0.0
C219 C 0.33125 0.28433 0.60255 0.0
C220 C 0.4766 0.37359 0.56814 0.0
O221 O 0.38265 0.38105 0.58479 0.0
O222 O 0.45166 0.44533 0.58508 0.0
C223 C 0.47112 0.48147 0.61712 0.0
N224 N 0.50094 0.46768 0.61287 0.0
C225 C 0.54426 0.4959 0.63612 0.0
C226 C 0.51409 0.51055 0.64072 0.0
C227 C 0.47736 0.50327 0.63118 0.0
C228 C 0.53637 0.47447 0.62197 0.0
H229 H 0.44279 0.47584 0.60983 0.0
C230 C 0.40893 0.42337 0.58183 0.0
O231 O 0.34106 0.28177 0.58851 0.0
O232 O 0.36126 0.3187 0.61042 0.0
N233 N 0.55285 0.43659 0.60333 0.0
C234 C 0.57925 0.42103 0.59712 0.0
C235 C 0.61722 0.42531 0.60527 0.0
C236 C 0.62827 0.44644 0.61959 0.0
C237 C 0.60154 0.46363 0.62552 0.0
C238 C 0.56414 0.45844 0.61685 0.0
H239 H 0.57124 0.40527 0.58608 0.0
O240 O 0.43182 0.30417 0.602 0.0
O241 O 0.4582 0.37876 0.60338 0.0
O242 O 0.43652 0.34391 0.57248 0.0
O243 O 0.50429 0.40872 0.57585 0.0
C244 C 0.61029 0.48534 0.63976 0.0
C245 C 0.58161 0.50139 0.64507 0.0
H246 H 0.51872 0.52729 0.65158 0.0
H247 H 0.45388 0.51439 0.63467 0.0
H248 H 0.63792 0.41235 0.60053 0.0
H249 H 0.65742 0.44944 0.6259 0.0
H250 H 0.63878 0.48959 0.64677 0.0
H251 H 0.5885 0.51776 0.65608 0.0
Mn252 Mn 0.66754 0.07326 0.59086 0.0
Mn253 Mn 0.75965 0.17834 0.58813 0.0
C254 C 0.66204 0.12851 0.57716 0.0
C255 C 0.62428 0.99919 0.58204 0.0
C256 C 0.70186 0.14466 0.61617 0.0
O257 O 0.71949 0.06313 0.59752 0.0
O258 O 0.77968 0.13443 0.59534 0.0
C259 C 0.8035 0.16011 0.56247 0.0
N260 N 0.78506 0.1842 0.5685 0.0
C261 C 0.79809 0.22799 0.54556 0.0
C262 C 0.81748 0.20382 0.53911 0.0
C263 C 0.82016 0.16972 0.5476 0.0
C264 C 0.78227 0.21705 0.56045 0.0
H265 H 0.8053 0.13368 0.56894 0.0
C266 C 0.76192 0.092 0.59893 0.0
O267 O 0.62218 0.00916 0.59611 0.0
O268 O 0.65241 0.03174 0.57324 0.0
N269 N 0.7457 0.22427 0.58151 0.0
C270 C 0.72517 0.24367 0.58932 0.0
C271 C 0.7193 0.27811 0.58238 0.0
C272 C 0.73484 0.29239 0.56754 0.0
C273 C 0.75651 0.27241 0.55983 0.0
C274 C 0.76176 0.23854 0.56738 0.0
H275 H 0.71304 0.23267 0.60071 0.0
O276 O 0.62578 0.09355 0.58251 0.0
O277 O 0.7008 0.13006 0.58004 0.0
O278 O 0.67273 0.10523 0.61112 0.0
O279 O 0.735 0.17488 0.60845 0.0
C280 C 0.7726 0.28432 0.54488 0.0
C281 C 0.79331 0.26207 0.53774 0.0
H282 H 0.83016 0.21096 0.52761 0.0
H283 H 0.83489 0.15079 0.54268 0.0
H284 H 0.70264 0.29345 0.58842 0.0
H285 H 0.72986 0.31864 0.56216 0.0
H286 H 0.76887 0.31025 0.53873 0.0
H287 H 0.80514 0.27122 0.5262 0.0
Mn288 Mn 0.95614 0.62711 0.5948 0.0
Mn289 Mn 0.96147 0.52972 0.5984 0.0
C290 C 0.9122 0.57316 0.6129 0.0
C291 C 0.97756 0.70287 0.60124 0.0
C292 C 0.91617 0.54901 0.57165 0.0
O293 O 0.01623 0.64343 0.58441 0.0
O294 O 0.01864 0.57869 0.58956 0.0
C295 C 0.03531 0.55591 0.62124 0.0
N296 N 0.99157 0.52736 0.61656 0.0
C297 C 0.97797 0.477 0.6378 0.0
C298 C 0.023 0.50576 0.64283 0.0
C299 C 0.05173 0.54545 0.63454 0.0
C300 C 0.9637 0.4889 0.62438 0.0
H301 H 0.0574 0.58634 0.61485 0.0
C302 C 0.03569 0.61912 0.58397 0.0
O303 O 0.9589 0.68509 0.58823 0.0
O304 O 0.98673 0.67771 0.61023 0.0
N305 N 0.90778 0.4798 0.60678 0.0
C306 C 0.86415 0.45884 0.60126 0.0
C307 C 0.83017 0.42021 0.60877 0.0
C308 C 0.8415 0.40346 0.62182 0.0
C309 C 0.8867 0.42567 0.62727 0.0
C310 C 0.91912 0.46385 0.61925 0.0
H311 H 0.85541 0.47156 0.5912 0.0
O312 O 0.90007 0.60124 0.60723 0.0
O313 O 0.94895 0.57591 0.60731 0.0
O314 O 0.92068 0.58661 0.57647 0.0
O315 O 0.93017 0.52591 0.57912 0.0
C316 C 0.90067 0.4122 0.64056 0.0
C317 C 0.94628 0.43782 0.64581 0.0
H318 H 0.03568 0.49805 0.65316 0.0
H319 H 0.08643 0.5679 0.63839 0.0
H320 H 0.79535 0.40333 0.60452 0.0
H321 H 0.81514 0.37384 0.62765 0.0
H322 H 0.8764 0.38275 0.647 0.0
H323 H 0.95635 0.42768 0.65622 0.0
Mn324 Mn 0.96866 0.3688 0.08853 0.0
Mn325 Mn 0.86526 0.27543 0.08254 0.0
C326 C 0.92088 0.3722 0.07062 0.0
C327 C 0.04659 0.40965 0.08371 0.0
C328 C 0.88617 0.34002 0.10888 0.0
O329 O 0.97396 0.3181 0.09899 0.0
O330 O 0.90583 0.2566 0.09338 0.0
C331 C 0.89217 0.22727 0.06072 0.0
N332 N 0.86622 0.2464 0.06416 0.0
C333 C 0.82772 0.22507 0.03989 0.0
C334 C 0.85391 0.20493 0.0361 0.0
C335 C 0.88635 0.20615 0.04655 0.0
C336 C 0.83508 0.24566 0.05417 0.0
H337 H 0.91709 0.22811 0.06874 0.0
C338 C 0.94577 0.27531 0.0995 0.0
O339 O 0.03007 0.41509 0.09625 0.0
O340 O 0.01799 0.37952 0.07419 0.0
N341 N 0.82214 0.28767 0.07225 0.0
C342 C 0.80044 0.30962 0.07753 0.0
C343 C 0.76758 0.31237 0.06831 0.0
C344 C 0.75686 0.29193 0.05388 0.0
C345 C 0.77897 0.26873 0.04882 0.0
C346 C 0.81145 0.26717 0.0585 0.0
H347 H 0.80835 0.3252 0.08865 0.0
O348 O 0.95452 0.4094 0.07623 0.0
O349 O 0.91694 0.33349 0.0753 0.0
O350 O 0.92738 0.36866 0.10544 0.0
O351 O 0.86073 0.3036 0.10138 0.0
C352 C 0.77048 0.24761 0.03448 0.0
C353 C 0.7949 0.22586 0.03 0.0
H354 H 0.84955 0.18863 0.02517 0.0
H355 H 0.90677 0.19079 0.0437 0.0
H356 H 0.75057 0.3302 0.07232 0.0
H357 H 0.73169 0.29433 0.04677 0.0
H358 H 0.74567 0.2484 0.02673 0.0
H359 H 0.78846 0.21022 0.01888 0.0
Mn360 Mn 0.67486 0.6303 0.08329 0.0
Mn361 Mn 0.76479 0.61267 0.08289 0.0
C362 C 0.66997 0.56945 0.07005 0.0
C363 C 0.63378 0.66252 0.07193 0.0
C364 C 0.7022 0.58733 0.1097 0.0
O365 O 0.72726 0.69143 0.09047 0.0
O366 O 0.78495 0.67588 0.09031 0.0
C367 C 0.8156 0.6775 0.05825 0.0
N368 N 0.79479 0.63419 0.06394 0.0
C369 C 0.81346 0.60571 0.04183 0.0
C370 C 0.83529 0.65008 0.03574 0.0
C371 C 0.83629 0.6861 0.04398 0.0
C372 C 0.79352 0.59925 0.0561 0.0
H373 H 0.81631 0.70522 0.06454 0.0
C374 C 0.76883 0.70243 0.09298 0.0
O375 O 0.62861 0.65074 0.08618 0.0
O376 O 0.66429 0.65806 0.06469 0.0
N377 N 0.75042 0.55312 0.07607 0.0
C378 C 0.72655 0.51212 0.08331 0.0
C379 C 0.7214 0.47234 0.07643 0.0
C380 C 0.74117 0.47519 0.06226 0.0
C381 C 0.76612 0.51786 0.05513 0.0
C382 C 0.77026 0.55635 0.06257 0.0
H383 H 0.71127 0.50977 0.0942 0.0
O384 O 0.63332 0.56877 0.07455 0.0
O385 O 0.70856 0.60564 0.07362 0.0
O386 O 0.67603 0.60144 0.10413 0.0
O387 O 0.73545 0.58899 0.10249 0.0
C388 C 0.78649 0.52365 0.04084 0.0
C389 C 0.81013 0.56755 0.03419 0.0
H390 H 0.85114 0.65683 0.02472 0.0
H391 H 0.85292 0.7204 0.03934 0.0
H392 H 0.70213 0.43954 0.08201 0.0
H393 H 0.73685 0.4444 0.05693 0.0
H394 H 0.78371 0.49451 0.03478 0.0
H395 H 0.82514 0.57147 0.02312 0.0
Mn396 Mn 0.41373 0.0715 0.09217 0.0
Mn397 Mn 0.50221 0.05212 0.09617 0.0
C398 C 0.47173 0.11262 0.10976 0.0
C399 C 0.34102 0.05585 0.10017 0.0
C400 C 0.49256 0.10467 0.06966 0.0
O401 O 0.3904 0.01019 0.08113 0.0
O402 O 0.44979 0.99866 0.08623 0.0
C403 C 0.46168 0.97858 0.1191 0.0
N404 N 0.49577 0.02056 0.11485 0.0
C405 C 0.53391 0.03225 0.13907 0.0
C406 C 0.49933 0.98895 0.1437 0.0
C407 C 0.46305 0.96204 0.13368 0.0
C408 C 0.53072 0.04687 0.12442 0.0
H409 H 0.43359 0.95809 0.11145 0.0
C410 C 0.41077 0.98687 0.08009 0.0
O411 O 0.35713 0.07506 0.08711 0.0
O412 O 0.36571 0.04331 0.10794 0.0
N413 N 0.55558 0.10168 0.1053 0.0
C414 C 0.58633 0.14245 0.09897 0.0
C415 C 0.62514 0.17322 0.1074 0.0
C416 C 0.63206 0.16164 0.12218 0.0
C417 C 0.60037 0.11912 0.12831 0.0
C418 C 0.56277 0.08955 0.11927 0.0
H419 H 0.58122 0.15154 0.08762 0.0
O420 O 0.44568 0.12822 0.10495 0.0
O421 O 0.4629 0.07357 0.10417 0.0
O422 O 0.45629 0.10425 0.07402 0.0
O423 O 0.51147 0.08579 0.07711 0.0
C424 C 0.6044 0.10501 0.14307 0.0
C425 C 0.57109 0.06169 0.14847 0.0
H426 H 0.50016 0.97613 0.15495 0.0
H427 H 0.43612 0.92871 0.1372 0.0
H428 H 0.64948 0.2059 0.10256 0.0
H429 H 0.6617 0.1857 0.12873 0.0
H430 H 0.63284 0.12731 0.1504 0.0
H431 H 0.57439 0.05137 0.15989 0.0
Mn432 Mn 0.07674 0.66703 0.91839 0.0
Mn433 Mn 0.17566 0.76833 0.91994 0.0
C434 C 0.13599 0.67581 0.93413 0.0
C435 C 0.00275 0.61441 0.92646 0.0
C436 C 0.14981 0.7022 0.89371 0.0
O437 O 0.05857 0.71213 0.90925 0.0
O438 O 0.12627 0.77778 0.91138 0.0
C439 C 0.14963 0.81269 0.94348 0.0
N440 N 0.1783 0.79826 0.93853 0.0
C441 C 0.22409 0.82486 0.96134 0.0
C442 C 0.19518 0.84026 0.96667 0.0
C443 C 0.15776 0.83408 0.9577 0.0
C444 C 0.21431 0.80389 0.94707 0.0
H445 H 0.1207 0.80774 0.93665 0.0
C446 C 0.08411 0.7554 0.90735 0.0
O447 O 0.01688 0.61307 0.91298 0.0
O448 O 0.03081 0.64803 0.93514 0.0
N449 N 0.22669 0.76448 0.92788 0.0
C450 C 0.25065 0.74681 0.9212 0.0
C451 C 0.28904 0.74989 0.92873 0.0
C452 C 0.30258 0.77139 0.94297 0.0
C453 C 0.27787 0.79006 0.94948 0.0
C454 C 0.24026 0.78645 0.94135 0.0
H455 H 0.24037 0.73025 0.91026 0.0
O456 O 0.10524 0.63548 0.92947 0.0
O457 O 0.13157 0.70995 0.92932 0.0
O458 O 0.112 0.67125 0.89903 0.0
O459 O 0.17614 0.73969 0.90057 0.0
C460 C 0.28871 0.81158 0.96379 0.0
C461 C 0.26176 0.82885 0.96974 0.0
H462 H 0.20121 0.85658 0.97767 0.0
H463 H 0.13518 0.84566 0.96177 0.0
H464 H 0.30802 0.73553 0.92361 0.0
H465 H 0.3319 0.77325 0.94882 0.0
H466 H 0.31739 0.81458 0.97039 0.0
H467 H 0.27008 0.84481 0.98084 0.0
Mn468 Mn 0.3378 0.40405 0.92168 0.0
Mn469 Mn 0.43547 0.50651 0.92179 0.0
C470 C 0.34187 0.46454 0.908 0.0
C471 C 0.28973 0.33108 0.91183 0.0
C472 C 0.37061 0.47233 0.94813 0.0
O473 O 0.38528 0.38783 0.92949 0.0
O474 O 0.44821 0.45793 0.92888 0.0
C475 C 0.4822 0.48794 0.89712 0.0
N476 N 0.46588 0.51408 0.90304 0.0
C477 C 0.49276 0.5656 0.88175 0.0
C478 C 0.51005 0.53935 0.87543 0.0
C479 C 0.50464 0.50029 0.88314 0.0
C480 C 0.47067 0.55156 0.8957 0.0
H481 H 0.47804 0.45791 0.90303 0.0
C482 C 0.4279 0.41504 0.93184 0.0
O483 O 0.287 0.34118 0.92581 0.0
O484 O 0.32159 0.3627 0.90364 0.0
N485 N 0.42869 0.55724 0.91539 0.0
C486 C 0.40903 0.57809 0.92288 0.0
C487 C 0.41088 0.61744 0.9166 0.0
C488 C 0.43331 0.63517 0.9028 0.0
C489 C 0.45403 0.6136 0.89547 0.0
C490 C 0.45138 0.57472 0.90232 0.0
H491 H 0.39195 0.5647 0.93352 0.0
O492 O 0.30271 0.43109 0.91225 0.0
O493 O 0.37772 0.46191 0.91196 0.0
O494 O 0.34096 0.43451 0.94217 0.0
O495 O 0.40648 0.50191 0.94136 0.0
C496 C 0.47677 0.62881 0.88153 0.0
C497 C 0.49602 0.60476 0.87466 0.0
H498 H 0.52729 0.5487 0.86463 0.0
H499 H 0.51774 0.47977 0.87831 0.0
H500 H 0.39505 0.63407 0.92238 0.0
H501 H 0.43438 0.66533 0.89795 0.0
H502 H 0.47914 0.65861 0.8759 0.0
H503 H 0.51286 0.61642 0.86385 0.0
Mn504 Mn 0.63234 0.96834 0.92894 0.0
Mn505 Mn 0.62035 0.86285 0.92551 0.0
C506 C 0.57709 0.90803 0.94242 0.0
C507 C 0.66095 0.03976 0.94019 0.0
C508 C 0.58632 0.90444 0.90187 0.0
O509 O 0.69222 0.98174 0.91921 0.0
O510 O 0.68157 0.91007 0.91835 0.0
C511 C 0.68829 0.87299 0.94897 0.0
N512 N 0.6448 0.85007 0.94337 0.0
C513 C 0.62034 0.79674 0.9642 0.0
C514 C 0.66496 0.8196 0.97015 0.0
C515 C 0.69905 0.85794 0.96251 0.0
C516 C 0.61167 0.81332 0.95067 0.0
H517 H 0.71446 0.90263 0.94317 0.0
C518 C 0.7053 0.95322 0.91585 0.0
O519 O 0.64485 0.03198 0.92641 0.0
O520 O 0.66428 0.00727 0.94707 0.0
N521 N 0.56266 0.81346 0.93185 0.0
C522 C 0.52128 0.79551 0.92466 0.0
C523 C 0.48342 0.75694 0.93082 0.0
C524 C 0.48859 0.73696 0.94422 0.0
C525 C 0.53172 0.75539 0.95122 0.0
C526 C 0.5683 0.79352 0.94445 0.0
H527 H 0.51709 0.81066 0.91434 0.0
O528 O 0.57379 0.9441 0.93967 0.0
O529 O 0.6131 0.90814 0.93732 0.0
O530 O 0.59808 0.94144 0.909 0.0
O531 O 0.59334 0.87278 0.90686 0.0
C532 C 0.53979 0.73776 0.96474 0.0
C533 C 0.58402 0.75854 0.97126 0.0
H534 H 0.67338 0.8082 0.98062 0.0
H535 H 0.7335 0.8759 0.96708 0.0
H536 H 0.45032 0.74273 0.92529 0.0
H537 H 0.45924 0.70751 0.94902 0.0
H538 H 0.51212 0.70855 0.97031 0.0
H539 H 0.58967 0.74502 0.98176 0.0
Mn540 Mn 0.64451 0.70546 0.42102 0.0
Mn541 Mn 0.53986 0.61309 0.41659 0.0
C542 C 0.59048 0.71139 0.40673 0.0
C543 C 0.71931 0.75419 0.41356 0.0
C544 C 0.56839 0.67074 0.4447 0.0
O545 O 0.65507 0.65346 0.42758 0.0
O546 O 0.58292 0.59462 0.4257 0.0
C547 C 0.56417 0.56856 0.3926 0.0
N548 N 0.53843 0.58669 0.39737 0.0
C549 C 0.49857 0.57073 0.37336 0.0
C550 C 0.52453 0.55169 0.36819 0.0
C551 C 0.55749 0.55064 0.37785 0.0
C552 C 0.50667 0.58794 0.38817 0.0
H553 H 0.58964 0.56788 0.39998 0.0
C554 C 0.62507 0.61146 0.4295 0.0
O555 O 0.70685 0.75261 0.42754 0.0
O556 O 0.68925 0.7247 0.40419 0.0
N557 N 0.49449 0.62523 0.40811 0.0
C558 C 0.47263 0.6451 0.41483 0.0
C559 C 0.43893 0.64934 0.40663 0.0
C560 C 0.42766 0.63257 0.3917 0.0
C561 C 0.44991 0.61132 0.38517 0.0
C562 C 0.48309 0.60796 0.39391 0.0
H563 H 0.48122 0.65807 0.42629 0.0
O564 O 0.6244 0.74725 0.41285 0.0
O565 O 0.58897 0.6723 0.40909 0.0
O566 O 0.60936 0.69772 0.44062 0.0
O567 O 0.53852 0.63875 0.43636 0.0
C568 C 0.44092 0.59389 0.37025 0.0
C569 C 0.46529 0.57369 0.36434 0.0
H570 H 0.51958 0.53795 0.3568 0.0
H571 H 0.57775 0.53614 0.37393 0.0
H572 H 0.42181 0.66563 0.41177 0.0
H573 H 0.40193 0.63623 0.38536 0.0
H574 H 0.41562 0.59622 0.36318 0.0
H575 H 0.45833 0.56074 0.35282 0.0
Mn576 Mn 0.3377 0.96058 0.41941 0.0
Mn577 Mn 0.4283 0.94491 0.41626 0.0
C578 C 0.33014 0.8994 0.40585 0.0
C579 C 0.29241 0.99088 0.41143 0.0
C580 C 0.37099 0.91896 0.44418 0.0
O581 O 0.39061 0.02214 0.42577 0.0
O582 O 0.4488 0.00777 0.42434 0.0
C583 C 0.47324 0.01089 0.39133 0.0
N584 N 0.45437 0.96745 0.39683 0.0
C585 C 0.46867 0.94027 0.37354 0.0
C586 C 0.48849 0.9848 0.36764 0.0
C587 C 0.49073 0.02024 0.37657 0.0
C588 C 0.45193 0.93307 0.38833 0.0
H589 H 0.47482 0.03814 0.39815 0.0
C590 C 0.43247 0.0337 0.42772 0.0
O591 O 0.29291 0.97898 0.42546 0.0
O592 O 0.32004 0.98748 0.40216 0.0
N593 N 0.41431 0.88604 0.40884 0.0
C594 C 0.39378 0.845 0.41621 0.0
C595 C 0.38845 0.80585 0.4088 0.0
C596 C 0.40477 0.8094 0.39398 0.0
C597 C 0.42661 0.85219 0.38677 0.0
C598 C 0.43113 0.89003 0.39475 0.0
H599 H 0.38117 0.8421 0.42759 0.0
O600 O 0.29472 0.89899 0.41146 0.0
O601 O 0.36962 0.93622 0.40824 0.0
O602 O 0.34419 0.93288 0.43941 0.0
O603 O 0.40296 0.92028 0.4363 0.0
C604 C 0.44356 0.85869 0.3719 0.0
C605 C 0.46449 0.90269 0.36528 0.0
H606 H 0.50191 0.99213 0.35624 0.0
H607 H 0.50583 0.05465 0.37207 0.0
H608 H 0.37168 0.77298 0.41446 0.0
H609 H 0.40031 0.77909 0.38826 0.0
H610 H 0.44027 0.83003 0.3654 0.0
H611 H 0.47704 0.90719 0.35379 0.0
Mn612 Mn 0.07385 0.41843 0.42724 0.0
Mn613 Mn 0.17401 0.41957 0.42996 0.0
C614 C 0.12877 0.4668 0.44421 0.0
C615 C 0.00022 0.39339 0.43601 0.0
C616 C 0.14867 0.46012 0.40342 0.0
O617 O 0.05896 0.35794 0.41759 0.0
O618 O 0.1272 0.36098 0.42041 0.0
C619 C 0.15135 0.34561 0.4523 0.0
N620 N 0.17751 0.3902 0.44813 0.0
C621 C 0.22385 0.40738 0.4708 0.0
C622 C 0.19747 0.36156 0.47533 0.0
C623 C 0.16106 0.33058 0.46604 0.0
C624 C 0.21296 0.42023 0.45689 0.0
H625 H 0.12333 0.32179 0.44518 0.0
C626 C 0.08548 0.3415 0.41575 0.0
O627 O 0.01234 0.41088 0.4225 0.0
O628 O 0.02954 0.38726 0.44378 0.0
N629 N 0.22153 0.4747 0.43888 0.0
C630 C 0.24077 0.51834 0.43349 0.0
C631 C 0.27611 0.55409 0.44184 0.0
C632 C 0.29132 0.54456 0.45561 0.0
C633 C 0.27097 0.49933 0.4609 0.0
C634 C 0.23608 0.4651 0.45204 0.0
H635 H 0.22899 0.5258 0.42296 0.0
O636 O 0.09876 0.4765 0.43874 0.0
O637 O 0.12718 0.43003 0.43891 0.0
O638 O 0.10991 0.45231 0.40814 0.0
O639 O 0.17508 0.45045 0.41101 0.0
C640 C 0.28314 0.48702 0.4748 0.0
C641 C 0.25967 0.44105 0.47973 0.0
H642 H 0.20453 0.34992 0.48599 0.0
H643 H 0.14046 0.29522 0.46949 0.0
H644 H 0.29149 0.58893 0.43771 0.0
H645 H 0.31832 0.57228 0.46208 0.0
H646 H 0.31 0.51274 0.4819 0.0
H647 H 0.26884 0.43214 0.49054 0.0
Zn648 Zn 0.02399 0.02727 0.12038 0.0
Zn649 Zn 0.04197 0.0309 0.17203 0.0
Zn650 Zn 0.0286 0.02234 0.14705 0.0
C651 C 0.98497 0.94194 0.17029 0.0
C652 C 0.1236 0.06797 0.16595 0.0
O653 O 0.98935 0.05806 0.14224 0.0
O654 O 0.01646 0.08153 0.11936 0.0
C655 C 0.9646 0.93651 0.12825 0.0
O656 O 0.0013 0.95221 0.15679 0.0
O657 O 0.98963 0.97347 0.17899 0.0
O658 O 0.1023 0.03609 0.17533 0.0
O659 O 0.10231 0.06929 0.15381 0.0
O660 O 0.96878 0.96585 0.11844 0.0
O661 O 0.99043 0.94952 0.14019 0.0
O662 O 0.09989 0.05564 0.1377 0.0
O663 O 0.08302 0.03561 0.11371 0.0
C664 C 0.11245 0.05229 0.12424 0.0
O665 O 0.98668 0.04735 0.15906 0.0
O666 O 0.03859 0.08726 0.17612 0.0
C667 C 0.99508 0.08363 0.13063 0.0
C668 C 0.99817 0.0715 0.1713 0.0
Zn669 Zn 0.01682 0.02293 0.32984 0.0
Zn670 Zn 0.02027 0.03395 0.38045 0.0
Zn671 Zn 0.0192 0.02922 0.355 0.0
C672 C 0.03413 0.11563 0.37292 0.0
C673 C 0.93785 0.96149 0.37532 0.0
O674 O 0.05549 0.99306 0.34718 0.0
O675 O 0.07444 0.02488 0.32464 0.0
C676 C 0.04157 0.10894 0.33174 0.0
O677 O 0.04794 0.10278 0.3614 0.0
O678 O 0.01099 0.08658 0.38289 0.0
O679 O 0.96885 0.97413 0.38532 0.0
O680 O 0.94729 0.98279 0.36251 0.0
O681 O 0.01213 0.07685 0.32366 0.0
O682 O 0.05244 0.09908 0.34475 0.0
O683 O 0.94744 0.99387 0.34581 0.0
O684 O 0.96063 0.96413 0.32588 0.0
C685 C 0.93297 0.97084 0.33334 0.0
O686 O 0.0655 0.00426 0.36338 0.0
O687 O 0.08148 0.0426 0.38472 0.0
C688 C 0.0762 0.99853 0.33451 0.0
C689 C 0.09036 0.01982 0.37548 0.0
Zn690 Zn 0.01976 0.01541 0.88257 0.0
Zn691 Zn 0.03916 0.03478 0.81899 0.0
Zn692 Zn 0.0195 0.01923 0.85678 0.0
C693 C 0.05123 0.11353 0.83572 0.0
C694 C 0.94715 0.97077 0.83587 0.0
O695 O 0.05141 0.977 0.86305 0.0
O696 O 0.01352 0.95335 0.88435 0.0
C697 C 0.08756 0.10171 0.87563 0.0
O698 O 0.04198 0.0907 0.84834 0.0
O699 O 0.05261 0.0966 0.82309 0.0
O700 O 0.98352 0.99608 0.82922 0.0
O701 O 0.94765 0.97337 0.85028 0.0
O702 O 0.08097 0.07019 0.88486 0.0
O703 O 0.06063 0.0917 0.86402 0.0
O704 O 0.94703 0.98534 0.86532 0.0
O705 O 0.9662 0.0223 0.88706 0.0
C706 C 0.93566 0.99836 0.87744 0.0
O707 O 0.06806 0.9965 0.84886 0.0
O708 O 0.08714 0.02218 0.82492 0.0
C709 C 0.03713 0.94868 0.87432 0.0
C710 C 0.09317 0.00502 0.83695 0.0
Zn711 Zn 0.02014 0.01532 0.67886 0.0
Zn712 Zn 0.00554 0.01437 0.62938 0.0
Zn713 Zn 0.01593 0.02002 0.65452 0.0
C714 C 0.9981 0.93259 0.63538 0.0
C715 C 0.09159 0.08955 0.63403 0.0
O716 O 0.98845 0.06166 0.66453 0.0
O717 O 0.03857 0.07963 0.68316 0.0
C718 C 0.94571 0.93893 0.67364 0.0
O719 O 0.99092 0.94555 0.64835 0.0
O720 O 0.01112 0.96061 0.62449 0.0
O721 O 0.05797 0.07573 0.62498 0.0
O722 O 0.08674 0.0674 0.6465 0.0
O723 O 0.95598 0.97077 0.68295 0.0
O724 O 0.97154 0.94659 0.66204 0.0
O725 O 0.08834 0.05252 0.66232 0.0
O726 O 0.06697 0.99576 0.67838 0.0
C727 C 0.09886 0.02997 0.67187 0.0
O728 O 0.97057 0.04926 0.64904 0.0
O729 O 0.9444 0.00837 0.62822 0.0
C730 C 0.01028 0.08711 0.67602 0.0
C731 C 0.94162 0.03426 0.63789 0.0
Zn732 Zn 0.69679 0.35901 0.50989 0.0
Zn733 Zn 0.68164 0.35187 0.45931 0.0
Zn734 Zn 0.6876 0.35204 0.485 0.0
C735 C 0.76888 0.37567 0.46297 0.0
C736 C 0.62016 0.26457 0.46717 0.0
O737 O 0.64693 0.38019 0.49572 0.0
O738 O 0.7 0.41955 0.5124 0.0
C739 C 0.77953 0.38898 0.50474 0.0
O740 O 0.75836 0.38501 0.47593 0.0
O741 O 0.73783 0.35313 0.45333 0.0
O742 O 0.62331 0.2938 0.4575 0.0
O743 O 0.64768 0.27795 0.4787 0.0
O744 O 0.75414 0.3584 0.51395 0.0
O745 O 0.76145 0.3948 0.49249 0.0
O746 O 0.66121 0.28302 0.49565 0.0
O747 O 0.6408 0.30313 0.51635 0.0
C748 C 0.64326 0.27261 0.50893 0.0
O749 O 0.65165 0.39119 0.47876 0.0
O750 O 0.68182 0.40965 0.45612 0.0
C751 C 0.6596 0.40502 0.50779 0.0
C752 C 0.66107 0.41606 0.46672 0.0
Zn753 Zn 0.67757 0.34971 0.72429 0.0
Zn754 Zn 0.67583 0.33092 0.67389 0.0
Zn755 Zn 0.67951 0.34768 0.6977 0.0
C756 C 0.60532 0.3383 0.6779 0.0
C757 C 0.74446 0.41438 0.67484 0.0
O758 O 0.75288 0.37906 0.70219 0.0
O759 O 0.74036 0.36035 0.72638 0.0
C760 C 0.61429 0.26166 0.71866 0.0
O761 O 0.63586 0.36977 0.68641 0.0
O762 O 0.60792 0.30262 0.67576 0.0
O763 O 0.70852 0.39316 0.66696 0.0
O764 O 0.74794 0.39624 0.68743 0.0
O765 O 0.62632 0.28953 0.72955 0.0
O766 O 0.63378 0.27556 0.70568 0.0
O767 O 0.65207 0.39409 0.70115 0.0
O768 O 0.66892 0.40287 0.7256 0.0
C769 C 0.65626 0.4149 0.71374 0.0
O770 O 0.65445 0.27314 0.69263 0.0
O771 O 0.7112 0.29861 0.67697 0.0
C772 C 0.76759 0.37526 0.71537 0.0
C773 C 0.68077 0.26543 0.68424 0.0
Zn774 Zn 0.69156 0.34717 0.22285 0.0
Zn775 Zn 0.6439 0.35868 0.17678 0.0
Zn776 Zn 0.67717 0.35473 0.19774 0.0
C777 C 0.68005 0.44026 0.18267 0.0
C778 C 0.6124 0.27091 0.17784 0.0
O779 O 0.69503 0.29863 0.19631 0.0
O780 O 0.70278 0.2953 0.22119 0.0
C781 C 0.75774 0.4369 0.21401 0.0
O782 O 0.7064 0.42547 0.18777 0.0
O783 O 0.63754 0.4125 0.18229 0.0
O784 O 0.59159 0.29334 0.17771 0.0
O785 O 0.65251 0.28998 0.18405 0.0
O786 O 0.7445 0.40966 0.22516 0.0
O787 O 0.73635 0.42364 0.20122 0.0
O788 O 0.61185 0.33631 0.20784 0.0
O789 O 0.6323 0.33293 0.23139 0.0
C790 C 0.60225 0.32932 0.22193 0.0
O791 O 0.70285 0.32389 0.18193 0.0
O792 O 0.70394 0.37248 0.16505 0.0
C793 C 0.70287 0.28035 0.20812 0.0
C794 C 0.72039 0.34807 0.16986 0.0
Zn795 Zn 0.69298 0.35669 0.00928 0.0
Zn796 Zn 0.68516 0.34695 0.95858 0.0
Zn797 Zn 0.69 0.35469 0.98478 0.0
C798 C 0.6658 0.26253 0.96847 0.0
C799 C 0.7739 0.41641 0.96409 0.0
O800 O 0.66568 0.40042 0.99345 0.0
O801 O 0.72011 0.42413 0.01076 0.0
C802 C 0.61689 0.28213 1.00517 0.0
O803 O 0.65934 0.27992 0.9805 0.0
O804 O 0.68229 0.28704 0.95683 0.0
O805 O 0.74379 0.40274 0.9537 0.0
O806 O 0.76258 0.39814 0.97739 0.0
O807 O 0.62635 0.31767 0.01257 0.0
O808 O 0.64397 0.28496 0.9945 0.0
O809 O 0.76121 0.38097 0.9923 0.0
O810 O 0.73279 0.32868 0.01008 0.0
C811 C 0.76681 0.35657 1.0025 0.0
O812 O 0.6473 0.38484 0.9784 0.0
O813 O 0.62706 0.34854 0.95652 0.0
C814 C 0.69063 0.42984 1.00366 0.0
C815 C 0.6211 0.37152 0.96656 0.0
Zn816 Zn 0.3418 0.7057 0.83742 0.0
Zn817 Zn 0.38649 0.70665 0.79075 0.0
Zn818 Zn 0.36251 0.68834 0.81529 0.0
C819 C 0.44132 0.67646 0.80336 0.0
C820 C 0.29875 0.63135 0.78882 0.0
O821 O 0.28647 0.65392 0.81906 0.0
O822 O 0.30105 0.72198 0.82523 0.0
C823 C 0.42073 0.77621 0.83715 0.0
O824 O 0.40944 0.65996 0.81331 0.0
O825 O 0.44259 0.70484 0.79367 0.0
O826 O 0.33519 0.65227 0.78142 0.0
O827 O 0.29861 0.64263 0.8027 0.0
O828 O 0.39395 0.75429 0.84772 0.0
O829 O 0.41067 0.76086 0.82339 0.0
O830 O 0.38447 0.65103 0.82989 0.0
O831 O 0.32775 0.64283 0.84399 0.0
C832 C 0.35732 0.63146 0.841 0.0
O833 O 0.38453 0.76188 0.81024 0.0
O834 O 0.38973 0.76431 0.78532 0.0
C835 C 0.27159 0.68063 0.82324 0.0
C836 C 0.38858 0.78275 0.79752 0.0
Zn837 Zn 0.3474 0.68573 0.05453 0.0
Zn838 Zn 0.32849 0.66162 1.00435 0.0
Zn839 Zn 0.3438 0.67786 0.02783 0.0
C840 C 0.26671 0.67651 0.00942 0.0
C841 C 0.40846 0.73612 1.00406 0.0
O842 O 0.41859 0.70608 0.03218 0.0
O843 O 0.41091 0.69896 0.05704 0.0
C844 C 0.28176 0.59564 0.05004 0.0
O845 O 0.3016 0.70593 0.01719 0.0
O846 O 0.26173 0.63705 0.00811 0.0
O847 O 0.36957 0.72538 0.99869 0.0
O848 O 0.41058 0.71503 0.01608 0.0
O849 O 0.29769 0.62519 0.06047 0.0
O850 O 0.29761 0.60713 0.0365 0.0
O851 O 0.31992 0.72794 0.03213 0.0
O852 O 0.33591 0.73709 0.05666 0.0
C853 C 0.3227 0.7483 0.04475 0.0
O854 O 0.31369 0.602 0.02272 0.0
O855 O 0.35251 0.62041 1.0016 0.0
C856 C 0.43582 0.70817 0.04553 0.0
C857 C 0.33064 0.59092 0.01158 0.0
Zn858 Zn 0.35675 0.68456 0.55465 0.0
Zn859 Zn 0.34958 0.68701 0.50488 0.0
Zn860 Zn 0.35249 0.68666 0.52927 0.0
C861 C 0.35729 0.76492 0.51101 0.0
C862 C 0.2727 0.61721 0.51118 0.0
O863 O 0.37923 0.63991 0.53418 0.0
O864 O 0.34742 0.62169 0.55661 0.0
C865 C 0.42658 0.76836 0.54716 0.0
O866 O 0.38108 0.75779 0.52108 0.0
O867 O 0.32652 0.73108 0.50384 0.0
O868 O 0.30597 0.61985 0.50406 0.0
O869 O 0.28071 0.6473 0.52146 0.0
O870 O 0.41912 0.73764 0.55684 0.0
O871 O 0.39938 0.75841 0.53565 0.0
O872 O 0.2818 0.65877 0.53747 0.0
O873 O 0.30452 0.6926 0.55968 0.0
C874 C 0.27279 0.67111 0.55013 0.0
O875 O 0.39352 0.65789 0.51984 0.0
O876 O 0.41565 0.70991 0.50191 0.0
C877 C 0.3663 0.61336 0.54583 0.0
C878 C 0.42141 0.6807 0.50915 0.0
Zn879 Zn 0.3487 0.68908 0.29418 0.0
Zn880 Zn 0.34784 0.67848 0.3447 0.0
Zn881 Zn 0.35307 0.68615 0.31955 0.0
C882 C 0.43677 0.72845 0.34228 0.0
C883 C 0.30953 0.59314 0.33885 0.0
O884 O 0.31509 0.72282 0.31332 0.0
O885 O 0.28847 0.68409 0.29212 0.0
C886 C 0.43517 0.75377 0.30102 0.0
O887 O 0.4238 0.71238 0.32876 0.0
O888 O 0.40775 0.72819 0.35112 0.0
O889 O 0.33745 0.61685 0.34912 0.0
O890 O 0.3084 0.61263 0.3263 0.0
O891 O 0.40366 0.75017 0.29226 0.0
O892 O 0.42511 0.72556 0.31217 0.0
O893 O 0.32064 0.61468 0.31023 0.0
O894 O 0.35243 0.6355 0.28786 0.0
C895 C 0.33086 0.60417 0.29739 0.0
O896 O 0.32643 0.72913 0.32989 0.0
O897 O 0.29803 0.68897 0.35062 0.0
C898 C 0.28665 0.7098 0.30204 0.0
C899 C 0.30598 0.72334 0.34266 0.0
H900 H 0.21421 0.23074 0.21004 0.0
H901 H 0.26649 0.14558 0.22789 0.0
H902 H 0.24079 0.09867 0.20543 0.0
H903 H 0.19298 0.07361 0.18277 0.0
H904 H 0.13765 0.15484 0.16449 0.0
H905 H 0.17656 0.21204 0.18445 0.0
C906 C 0.22049 0.20236 0.20889 0.0
C907 C 0.24105 0.19122 0.22096 0.0
C908 C 0.20548 0.17475 0.1957 0.0
C909 C 0.24953 0.15455 0.2191 0.0
C910 C 0.23522 0.12762 0.20613 0.0
C911 C 0.19132 0.10497 0.18273 0.0
C912 C 0.16257 0.10993 0.17222 0.0
C913 C 0.21185 0.1364 0.19461 0.0
C914 C 0.16019 0.15048 0.17235 0.0
C915 C 0.1816 0.18274 0.184 0.0
H916 H 0.87637 0.01593 0.22929 0.0
H917 H 0.79026 0.04557 0.20061 0.0
H918 H 0.84041 0.05823 0.17889 0.0
H919 H 0.9144 0.06846 0.16893 0.0
H920 H 0.00226 0.04671 0.19992 0.0
H921 H 0.94677 0.02443 0.2198 0.0
C922 C 0.86833 0.02461 0.21823 0.0
C923 C 0.82987 0.02962 0.21646 0.0
C924 C 0.8985 0.03444 0.20626 0.0
C925 C 0.81937 0.04059 0.20209 0.0
C926 C 0.84848 0.04859 0.18978 0.0
C927 C 0.92126 0.05914 0.18007 0.0
C928 C 0.96309 0.06056 0.18299 0.0
C929 C 0.88911 0.04704 0.19184 0.0
C930 C 0.97115 0.04749 0.19743 0.0
C931 C 0.93916 0.03411 0.20883 0.0
H932 H 0.95679 0.82479 0.2262 0.0
H933 H 0.06559 0.81181 0.20674 0.0
H934 H 0.06075 0.84955 0.18341 0.0
H935 H 0.02976 0.89379 0.16993 0.0
H936 H 0.91299 0.89493 0.18839 0.0
H937 H 0.91411 0.85082 0.21029 0.0
C938 C 0.97952 0.83035 0.21685 0.0
C939 C 0.01474 0.82004 0.21867 0.0
C940 C 0.97375 0.84827 0.20311 0.0
C941 C 0.04164 0.82421 0.20612 0.0
C942 C 0.03776 0.84431 0.19262 0.0
C943 C 0.00309 0.88218 0.17833 0.0
C944 C 0.97151 0.89782 0.17765 0.0
C945 C 0.00457 0.85757 0.19113 0.0
C946 C 0.93744 0.88301 0.18869 0.0
C947 C 0.93872 0.85871 0.20138 0.0
H948 H 0.13803 0.2183 0.27542 0.0
H949 H 0.25767 0.24601 0.30145 0.0
H950 H 0.21106 0.21045 0.32393 0.0
H951 H 0.13384 0.163 0.33488 0.0
H952 H 0.01719 0.14933 0.30977 0.0
H953 H 0.06536 0.19078 0.28847 0.0
C954 C 0.15381 0.21635 0.28602 0.0
C955 C 0.20033 0.22988 0.28646 0.0
C956 C 0.12743 0.19968 0.29912 0.0
C957 C 0.22103 0.2308 0.3005 0.0
C958 C 0.19461 0.21193 0.31345 0.0
C959 C 0.11931 0.17109 0.32508 0.0
C960 C 0.07172 0.15193 0.3237 0.0
C961 C 0.14738 0.19493 0.31276 0.0
C962 C 0.05357 0.16305 0.31096 0.0
C963 C 0.08102 0.18612 0.29866 0.0
H964 H 0.79882 0.01857 0.29776 0.0
H965 H 0.83235 0.95413 0.26205 0.0
H966 H 0.87386 0.93268 0.28015 0.0
H967 H 0.90253 0.93426 0.30559 0.0
H968 H 0.87656 0.00445 0.34145 0.0
H969 H 0.82841 0.01986 0.32403 0.0
C970 C 0.81619 0.00076 0.29399 0.0
C971 C 0.81431 0.98948 0.27853 0.0
C972 C 0.83998 0.98835 0.30454 0.0
C973 C 0.83479 0.96439 0.27382 0.0
C974 C 0.858 0.95168 0.28418 0.0
C975 C 0.88576 0.95224 0.30978 0.0
C976 C 0.89331 0.96811 0.32486 0.0
C977 C 0.8608 0.96347 0.29953 0.0
C978 C 0.87103 0.99128 0.32997 0.0
C979 C 0.84409 0.00078 0.31993 0.0
H980 H 0.12727 0.90097 0.28708 0.0
H981 H 0.98306 0.80463 0.29042 0.0
H982 H 0.97954 0.84319 0.31335 0.0
H983 H 0.01514 0.911 0.32985 0.0
H984 H 0.15762 0.01 0.32512 0.0
H985 H 0.16482 0.96274 0.30564 0.0
C986 C 0.09506 0.88811 0.29287 0.0
C987 C 0.05522 0.85056 0.28688 0.0
C988 C 0.09328 0.91062 0.3059 0.0
C989 C 0.01407 0.83375 0.29472 0.0
C990 C 0.01209 0.85572 0.30784 0.0
C991 C 0.0482 0.92097 0.32505 0.0
C992 C 0.08594 0.96364 0.32886 0.0
C993 C 0.05121 0.89493 0.31327 0.0
C994 C 0.12833 0.97716 0.32234 0.0
C995 C 0.13219 0.95043 0.31108 0.0
H996 H 0.832 0.87334 0.77857 0.0
H997 H 0.79399 0.75355 0.80587 0.0
H998 H 0.8348 0.80167 0.82788 0.0
H999 H 0.88746 0.87898 0.83855 0.0
H1000 H 0.92183 0.99765 0.81085 0.0
H1001 H 0.87575 0.94921 0.78994 0.0
C1002 C 0.83287 0.85796 0.78936 0.0
C1003 C 0.81252 0.81039 0.79051 0.0
C1004 C 0.85524 0.88574 0.80194 0.0
C1005 C 0.81186 0.79042 0.80463 0.0
C1006 C 0.83449 0.81787 0.81724 0.0
C1007 C 0.88309 0.89399 0.82817 0.0
C1008 C 0.90733 0.94167 0.82628 0.0
C1009 C 0.85708 0.86573 0.81597 0.0
C1010 C 0.90273 0.96092 0.81259 0.0
C1011 C 0.87695 0.9333 0.80055 0.0
H1012 H 0.24591 0.03742 0.79786 0.0
H1013 H 0.14666 0.89851 0.7854 0.0
H1014 H 0.10471 0.88963 0.80829 0.0
H1015 H 0.08713 0.92596 0.82886 0.0
H1016 H 0.18265 0.065 0.8411 0.0
H1017 H 0.23605 0.06821 0.82212 0.0
C1018 C 0.21553 0.00508 0.80028 0.0
C1019 C 0.19881 0.96951 0.78955 0.0
C1020 C 0.19094 -0.00018 0.81366 0.0
C1021 C 0.15977 0.92735 0.7931 0.0
C1022 C 0.13574 0.92182 0.80634 0.0
C1023 C 0.12093 0.95584 0.82805 0.0
C1024 C 0.13069 0.99535 0.83611 0.0
C1025 C 0.14987 0.95838 0.81637 0.0
C1026 C 0.17449 0.034 0.835 0.0
C1027 C 0.20446 0.03634 0.82378 0.0
H1028 H 0.00072 0.23017 0.79787 0.0
H1029 H 0.14325 0.28889 0.78678 0.0
H1030 H 0.15563 0.25296 0.8088 0.0
H1031 H 0.12339 0.19304 0.82792 0.0
H1032 H 0.981 0.12974 0.83851 0.0
H1033 H 0.97177 0.18099 0.82081 0.0
C1034 C 0.03462 0.23588 0.80047 0.0
C1035 C 0.07054 0.26122 0.79037 0.0
C1036 C 0.0418 0.21465 0.81327 0.0
C1037 C 0.11447 0.26864 0.79406 0.0
C1038 C 0.12186 0.24834 0.80677 0.0
C1039 C 0.09106 0.19253 0.82704 0.0
C1040 C 0.053 0.15777 0.83443 0.0
C1041 C 0.08547 0.2198 0.81608 0.0
C1042 C 0.01101 0.15675 0.83308 0.0
C1043 C 0.00544 0.18519 0.82259 0.0
H1044 H 0.79268 0.81111 0.71618 0.0
H1045 H 0.89592 0.77583 0.72814 0.0
H1046 H 0.93941 0.81559 0.70606 0.0
H1047 H 0.95506 0.87071 0.68563 0.0
H1048 H 0.85557 0.91025 0.67395 0.0
H1049 H 0.80333 0.85733 0.6929 0.0
C1050 C 0.82427 0.81154 0.71381 0.0
C1051 C 0.84112 0.79127 0.72415 0.0
C1052 C 0.8499 0.83492 0.70089 0.0
C1053 C 0.88216 0.79192 0.72072 0.0
C1054 C 0.90725 0.81447 0.70795 0.0
C1055 C 0.9209 0.86572 0.68666 0.0
C1056 C 0.9088 0.89359 0.67823 0.0
C1057 C 0.89226 0.8373 0.6982 0.0
C1058 C 0.86511 0.88817 0.68006 0.0
C1059 C 0.83565 0.85869 0.69116 0.0
H1060 H 0.21934 0.07701 0.72873 0.0
H1061 H 0.25167 0.98059 0.70886 0.0
H1062 H 0.21297 0.98086 0.6852 0.0
H1063 H 0.15864 0.99887 0.67207 0.0
H1064 H 0.13421 0.10243 0.69056 0.0
H1065 H 0.1821 0.11025 0.71269 0.0
C1066 C 0.21793 0.05625 0.71917 0.0
C1067 C 0.23455 0.02566 0.72085 0.0
C1068 C 0.19746 0.05828 0.70535 0.0
C1069 C 0.23551 0.00137 0.70814 0.0
C1070 C 0.21425 0.00224 0.69453 0.0
C1071 C 0.16603 0.025 0.68052 0.0
C1072 C 0.14333 0.05027 0.67967 0.0
C1073 C 0.19341 0.02911 0.69324 0.0
C1074 C 0.15218 0.0833 0.69084 0.0
C1075 C 0.17875 0.08705 0.70367 0.0
H1076 H 0.02335 0.25879 0.70759 0.0
H1077 H 0.9764 0.16344 0.74494 0.0
H1078 H 0.96461 0.10145 0.72795 0.0
H1079 H 0.97423 0.07607 0.70318 0.0
H1080 H 0.02413 0.17018 0.66562 0.0
H1081 H 0.02685 0.2309 0.68174 0.0
C1082 C 0.011 0.22445 0.71193 0.0
C1083 C 0.0027 0.21574 0.72756 0.0
C1084 C 0.00387 0.18881 0.702 0.0
C1085 C 0.98446 0.17092 0.73303 0.0
C1086 C 0.97736 0.13552 0.72331 0.0
C1087 C 0.98423 0.10954 0.69841 0.0
C1088 C 0.9982 0.11869 0.68325 0.0
C1089 C 0.98762 0.14424 0.70787 0.0
C1090 C 0.01208 0.16222 0.67718 0.0
C1091 C 0.01434 0.197 0.68647 0.0
H1092 H 0.92319 0.48588 0.55487 0.0
H1093 H 0.8615 0.57138 0.55435 0.0
H1094 H 0.82188 0.53592 0.53045 0.0
H1095 H 0.7968 0.47322 0.51186 0.0
H1096 H 0.85364 0.38387 0.51409 0.0
H1097 H 0.90492 0.42962 0.53477 0.0
C1098 C 0.90131 0.49711 0.54952 0.0
C1099 C 0.89464 0.53071 0.55658 0.0
C1100 C 0.87851 0.47638 0.5359 0.0
C1101 C 0.8669 0.54534 0.54926 0.0
C1102 C 0.84434 0.52512 0.53558 0.0
C1103 C 0.82208 0.46525 0.51639 0.0
C1104 C 0.82228 0.42586 0.51126 0.0
C1105 C 0.84905 0.48984 0.52899 0.0
C1106 C 0.85386 0.41474 0.51758 0.0
C1107 C 0.8824 0.44031 0.52963 0.0
H1108 H 0.54175 0.35213 0.56666 0.0
H1109 H 0.45542 0.38318 0.53864 0.0
H1110 H 0.50351 0.39381 0.51651 0.0
H1111 H 0.57625 0.4026 0.50603 0.0
H1112 H 0.66542 0.38096 0.53644 0.0
H1113 H 0.61119 0.35953 0.55667 0.0
C1114 C 0.53314 0.36052 0.55563 0.0
C1115 C 0.49522 0.36649 0.55414 0.0
C1116 C 0.56242 0.36959 0.54345 0.0
C1117 C 0.48407 0.37737 0.53987 0.0
C1118 C 0.51204 0.38425 0.52733 0.0
C1119 C 0.58365 0.39345 0.51712 0.0
C1120 C 0.62542 0.39456 0.51975 0.0
C1121 C 0.55235 0.38201 0.5291 0.0
C1122 C 0.63428 0.38186 0.53415 0.0
C1123 C 0.60301 0.36896 0.54575 0.0
H1124 H 0.69148 0.14496 0.54797 0.0
H1125 H 0.61486 0.17243 0.58074 0.0
H1126 H 0.59514 0.2124 0.56143 0.0
H1127 H 0.6017 0.24157 0.53573 0.0
H1128 H 0.68146 0.21889 0.50279 0.0
H1129 H 0.69634 0.1732 0.52144 0.0
C1130 C 0.67123 0.16056 0.55086 0.0
C1131 C 0.65599 0.15749 0.56585 0.0
C1132 C 0.65949 0.18298 0.53958 0.0
C1133 C 0.62796 0.17571 0.56937 0.0
C1134 C 0.61633 0.19806 0.55831 0.0
C1135 C 0.62154 0.22582 0.53246 0.0
C1136 C 0.64028 0.23363 0.51784 0.0
C1137 C 0.63187 0.20187 0.54341 0.0
C1138 C 0.66594 0.21291 0.51386 0.0
C1139 C 0.67516 0.18748 0.52462 0.0
H1140 H 0.82875 0.55016 0.62305 0.0
H1141 H 0.95173 0.55181 0.63673 0.0
H1142 H 0.91291 0.50212 0.65853 0.0
H1143 H 0.83843 0.45121 0.67192 0.0
H1144 H 0.72701 0.47641 0.66267 0.0
H1145 H 0.7676 0.52535 0.64146 0.0
C1146 C 0.84711 0.53956 0.63076 0.0
C1147 C 0.89098 0.54846 0.62714 0.0
C1148 C 0.82668 0.51698 0.6443 0.0
C1149 C 0.91568 0.53877 0.63807 0.0
C1150 C 0.89402 0.51218 0.65088 0.0
C1151 C 0.8241 0.46922 0.66577 0.0
C1152 C 0.779 0.45871 0.66847 0.0
C1153 C 0.84862 0.4996 0.65385 0.0
C1154 C 0.76134 0.48314 0.66055 0.0
C1155 C 0.78416 0.51069 0.64825 0.0
H1156 H 0.48086 0.38231 0.63485 0.0
H1157 H 0.51655 0.30687 0.60396 0.0
H1158 H 0.56536 0.30063 0.62342 0.0
H1159 H 0.59407 0.31287 0.64909 0.0
H1160 H 0.56118 0.38856 0.68083 0.0
H1161 H 0.51555 0.39993 0.66089 0.0
C1162 C 0.50031 0.36553 0.63238 0.0
C1163 C 0.49646 0.34599 0.618 0.0
C1164 C 0.52806 0.36188 0.64369 0.0
C1165 C 0.51999 0.3227 0.61493 0.0
C1166 C 0.54765 0.31908 0.62602 0.0
C1167 C 0.57659 0.33155 0.65177 0.0
C1168 C 0.5794 0.34848 0.6665 0.0
C1169 C 0.55121 0.33785 0.64044 0.0
C1170 C 0.55846 0.3744 0.66961 0.0
C1171 C 0.5325 0.38078 0.65825 0.0
H1172 H 0.62771 0.13159 0.63223 0.0
H1173 H 0.77254 0.18232 0.63573 0.0
H1174 H 0.77459 0.21124 0.66114 0.0
H1175 H 0.739 0.23557 0.67971 0.0
H1176 H 0.59736 0.1965 0.67481 0.0
H1177 H 0.58911 0.14713 0.65332 0.0
C1178 C 0.65931 0.14806 0.63878 0.0
C1179 C 0.70006 0.15558 0.63216 0.0
C1180 C 0.66056 0.16623 0.65324 0.0
C1181 C 0.74099 0.17701 0.64059 0.0
C1182 C 0.74213 0.19327 0.65514 0.0
C1183 C 0.70578 0.21429 0.67441 0.0
C1184 C 0.66903 0.21981 0.67869 0.0
C1185 C 0.70259 0.18979 0.66128 0.0
C1186 C 0.62609 0.19245 0.67179 0.0
C1187 C 0.62174 0.16521 0.65922 0.0
H1188 H 0.54853 0.19445 0.11306 0.0
H1189 H 0.45436 0.07379 0.1376 0.0
H1190 H 0.49292 0.10948 0.16165 0.0
H1191 H 0.54886 0.17956 0.17576 0.0
H1192 H 0.64867 0.29502 0.1503 0.0
H1193 H 0.61426 0.25629 0.12658 0.0
C1194 C 0.53736 0.17566 0.12366 0.0
C1195 C 0.49916 0.1317 0.12368 0.0
C1196 C 0.56104 0.19537 0.13726 0.0
C1197 C 0.48421 0.10767 0.13742 0.0
C1198 C 0.50619 0.12803 0.15114 0.0
C1199 C 0.56417 0.19519 0.16502 0.0
C1200 C 0.60167 0.23988 0.16482 0.0
C1201 C 0.54422 0.17235 0.15124 0.0
C1202 C 0.62064 0.26025 0.15081 0.0
C1203 C 0.60035 0.23848 0.13717 0.0
H1204 H 0.82364 0.27978 0.12822 0.0
H1205 H 0.89943 0.42346 0.11721 0.0
H1206 H 0.85465 0.43895 0.13537 0.0
H1207 H 0.79037 0.41048 0.15314 0.0
H1208 H 0.7182 0.26752 0.16526 0.0
H1209 H 0.76495 0.25261 0.14784 0.0
C1210 C 0.83074 0.31456 0.12999 0.0
C1211 C 0.86465 0.35048 0.12145 0.0
C1212 C 0.8052 0.32314 0.14049 0.0
C1213 C 0.8738 0.39542 0.12382 0.0
C1214 C 0.84794 0.40418 0.13408 0.0
C1215 C 0.78527 0.37621 0.15199 0.0
C1216 C 0.75083 0.34003 0.16025 0.0
C1217 C 0.81304 0.36818 0.14227 0.0
C1218 C 0.74466 0.29581 0.15895 0.0
C1219 C 0.77126 0.28729 0.149 0.0
H1220 H 0.7605 0.57212 0.12718 0.0
H1221 H 0.62577 0.55678 0.12717 0.0
H1222 H 0.61053 0.51685 0.15156 0.0
H1223 H 0.63231 0.47923 0.1713 0.0
H1224 H 0.76536 0.49091 0.17047 0.0
H1225 H 0.78501 0.54093 0.14828 0.0
C1226 C 0.72783 0.5604 0.13253 0.0
C1227 C 0.69404 0.567 0.12519 0.0
C1228 C 0.71921 0.53722 0.1465 0.0
C1229 C 0.65229 0.55209 0.13247 0.0
C1230 C 0.64358 0.52922 0.14643 0.0
C1231 C 0.66611 0.49364 0.16653 0.0
C1232 C 0.69728 0.4811 0.17261 0.0
C1233 C 0.6764 0.52073 0.15336 0.0
C1234 C 0.74087 0.50026 0.16624 0.0
C1235 C 0.75185 0.52832 0.15335 0.0
H1236 H 0.46848 0.15251 0.04971 0.0
H1237 H 0.56877 0.11031 0.0574 0.0
H1238 H 0.61108 0.15381 0.0355 0.0
H1239 H 0.6258 0.21231 0.01622 0.0
H1240 H 0.52897 0.25855 0.00931 0.0
H1241 H 0.47857 0.204 0.02825 0.0
C1242 C 0.49925 0.15237 0.04649 0.0
C1243 C 0.51549 0.12862 0.05544 0.0
C1244 C 0.52401 0.17789 0.0338 0.0
C1245 C 0.55542 0.12866 0.05094 0.0
C1246 C 0.57979 0.15345 0.03832 0.0
C1247 C 0.59265 0.20876 0.01837 0.0
C1248 C 0.5806 0.23865 0.01126 0.0
C1249 C 0.5651 0.17912 0.02988 0.0
C1250 C 0.53835 0.23506 0.01449 0.0
C1251 C 0.50995 0.20448 0.02551 0.0
H1252 H 0.90572 0.33475 0.04253 0.0
H1253 H 0.88027 0.4232 0.07077 0.0
H1254 H 0.84016 0.43657 0.04977 0.0
H1255 H 0.80561 0.41657 0.0245 0.0
H1256 H 0.82159 0.32037 0.99721 0.0
H1257 H 0.87426 0.31813 0.01627 0.0
C1258 C 0.89076 0.35638 0.04404 0.0
C1259 C 0.8939 0.37646 0.05823 0.0
C1260 C 0.86758 0.36365 0.03193 0.0
C1261 C 0.87669 0.40633 0.06 0.0
C1262 C 0.85427 0.41431 0.04799 0.0
C1263 C 0.82242 0.39682 0.02247 0.0
C1264 C 0.81117 0.36976 0.00938 0.0
C1265 C 0.84897 0.39263 0.034 0.0
C1266 C 0.83129 0.34269 0.007 0.0
C1267 C 0.86044 0.34063 0.01805 0.0
H1268 H 0.70849 0.59036 0.04242 0.0
H1269 H 0.61867 0.47712 0.07077 0.0
H1270 H 0.60875 0.42318 0.05059 0.0
H1271 H 0.63187 0.40839 0.02599 0.0
H1272 H 0.72642 0.52091 0.99841 0.0
H1273 H 0.72712 0.5755 0.01683 0.0
C1274 C 0.68714 0.5538 0.04415 0.0
C1275 C 0.66581 0.53724 0.05818 0.0
C1276 C 0.68154 0.52324 0.03248 0.0
C1277 C 0.63643 0.49019 0.06017 0.0
C1278 C 0.63051 0.45952 0.04862 0.0
C1279 C 0.65096 0.44491 0.02375 0.0
C1280 C 0.6779 0.46091 0.01072 0.0
C1281 C 0.65342 0.47566 0.03483 0.0
C1282 C 0.7042 0.50811 0.00813 0.0
C1283 C 0.70526 0.53916 0.0188 0.0
H1284 H 0.59189 0.86267 0.87647 0.0
H1285 H 0.52165 0.92746 0.89561 0.0
H1286 H 0.46885 0.90275 0.87392 0.0
H1287 H 0.43469 0.85063 0.85232 0.0
H1288 H 0.50377 0.78493 0.83324 0.0
H1289 H 0.56646 0.82386 0.85163 0.0
C1290 C 0.56556 0.8721 0.87568 0.0
C1291 C 0.55999 0.8961 0.88765 0.0
C1292 C 0.53557 0.85807 0.86312 0.0
C1293 C 0.52635 0.90884 0.8865 0.0
C1294 C 0.49616 0.8947 0.87413 0.0
C1295 C 0.46476 0.84696 0.85169 0.0
C1296 C 0.46491 0.81519 0.84154 0.0
C1297 C 0.49946 0.86789 0.86268 0.0
C1298 C 0.50346 0.80989 0.84084 0.0
C1299 C 0.53873 0.8313 0.85159 0.0
H1300 H 0.15424 0.62999 0.88121 0.0
H1301 H 0.17355 0.76406 0.87141 0.0
H1302 H 0.20058 0.7619 0.84612 0.0
H1303 H 0.22865 0.72755 0.82836 0.0
H1304 H 0.22275 0.59988 0.83923 0.0
H1305 H 0.17811 0.59217 0.86191 0.0
C1306 C 0.16373 0.65822 0.87338 0.0
C1307 C 0.16222 0.69729 0.87812 0.0
C1308 C 0.18106 0.6575 0.85894 0.0
C1309 C 0.17491 0.73392 0.86801 0.0
C1310 C 0.19011 0.73259 0.85353 0.0
C1311 C 0.21619 0.69714 0.8354 0.0
C1312 C 0.22927 0.66452 0.83211 0.0
C1313 C 0.19451 0.6952 0.84904 0.0
C1314 C 0.21288 0.62535 0.84136 0.0
C1315 C 0.18824 0.62151 0.85455 0.0
H1316 H 0.38416 0.48828 0.88072 0.0
H1317 H 0.29977 0.51382 0.91072 0.0
H1318 H 0.29748 0.56747 0.8924 0.0
H1319 H 0.31893 0.60633 0.86833 0.0
H1320 H 0.40454 0.58418 0.83769 0.0
H1321 H 0.4075 0.52991 0.85597 0.0
C1322 C 0.36596 0.5063 0.88325 0.0
C1323 C 0.34327 0.49853 0.89717 0.0
C1324 C 0.36483 0.53712 0.8726 0.0
C1325 C 0.31813 0.52022 0.90018 0.0
C1326 C 0.31681 0.55073 0.88973 0.0
C1327 C 0.33821 0.58964 0.86548 0.0
C1328 C 0.36104 0.5989 0.85153 0.0
C1329 C 0.33998 0.55932 0.87596 0.0
C1330 C 0.38641 0.5774 0.84829 0.0
C1331 C 0.38799 0.54639 0.85872 0.0
H1332 H 0.58964 0.8736 0.96915 0.0
H1333 H 0.48738 0.86516 0.93732 0.0
H1334 H 0.42711 0.81176 0.95393 0.0
H1335 H 0.40381 0.77016 0.97708 0.0
H1336 H 0.50207 0.77426 0.00995 0.0
H1337 H 0.56441 0.82712 0.99317 0.0
C1338 C 0.55407 0.85912 0.96583 0.0
C1339 C 0.54251 0.87185 0.95188 0.0
C1340 C 0.51941 0.82856 0.9756 0.0
C1341 C 0.49666 0.85481 0.94786 0.0
C1342 C 0.46237 0.82456 0.95736 0.0
C1343 C 0.43874 0.78237 0.98083 0.0
C1344 C 0.44817 0.76856 0.99492 0.0
C1345 C 0.47344 0.81166 0.97123 0.0
C1346 C 0.49385 0.78471 0.99924 0.0
C1347 C 0.52934 0.81479 0.98965 0.0
H1348 H 0.1476 0.71503 0.96196 0.0
H1349 H 0.1942 0.6433 0.93359 0.0
H1350 H 0.2439 0.64386 0.95413 0.0
H1351 H 0.26951 0.65936 0.98032 0.0
H1352 H 0.21982 0.72494 0.01019 0.0
H1353 H 0.17708 0.73415 0.98872 0.0
C1354 C 0.16934 0.70029 0.9603 0.0
C1355 C 0.16838 0.68009 0.94623 0.0
C1356 C 0.19704 0.69978 0.97235 0.0
C1357 C 0.19514 0.65957 0.94426 0.0
C1358 C 0.22346 0.65993 0.95598 0.0
C1359 C 0.2495 0.67597 0.98216 0.0
C1360 C 0.24707 0.6908 0.99683 0.0
C1361 C 0.22407 0.67924 0.97008 0.0
C1362 C 0.22197 0.71312 0.999 0.0
C1363 C 0.19727 0.71787 0.98677 0.0
H1364 H 0.29222 0.4552 0.96249 0.0
H1365 H 0.43734 0.51279 0.96916 0.0
H1366 H 0.43316 0.54138 0.994 0.0
H1367 H 0.39201 0.56399 0.01094 0.0
H1368 H 0.24985 0.51747 1.00281 0.0
H1369 H 0.24791 0.46808 0.98222 0.0
C1370 C 0.32255 0.47303 0.9696 0.0
C1371 C 0.36515 0.48263 0.96395 0.0
C1372 C 0.32017 0.49089 0.98376 0.0
C1373 C 0.40434 0.50583 0.97318 0.0
C1374 C 0.40195 0.52193 0.98743 0.0
C1375 C 0.35998 0.54084 1.00524 0.0
C1376 C 0.32128 0.54444 0.00828 0.0
C1377 C 0.36049 0.51642 0.99253 0.0
C1378 C 0.28001 0.51488 1.00077 0.0
C1379 C 0.27931 0.48771 0.98867 0.0
H1380 H 0.15544 0.55222 0.45419 0.0
H1381 H 0.1412 0.42335 0.46833 0.0
H1382 H 0.17905 0.45664 0.49255 0.0
H1383 H 0.22399 0.52575 0.50825 0.0
H1384 H 0.22659 0.65088 0.49591 0.0
H1385 H 0.18233 0.61501 0.47283 0.0
C1386 C 0.16088 0.53161 0.46258 0.0
C1387 C 0.15035 0.48687 0.45895 0.0
C1388 C 0.17885 0.54989 0.47696 0.0
C1389 C 0.15401 0.45936 0.47029 0.0
C1390 C 0.17412 0.47794 0.48432 0.0
C1391 C 0.21254 0.54422 0.50094 0.0
C1392 C 0.22827 0.59068 0.50369 0.0
C1393 C 0.18779 0.52359 0.48761 0.0
C1394 C 0.21402 0.61475 0.49409 0.0
C1395 C 0.18979 0.59461 0.4807 0.0
H1396 H 0.50271 0.60697 0.46268 0.0
H1397 H 0.60122 0.75111 0.45991 0.0
H1398 H 0.56945 0.76549 0.48252 0.0
H1399 H 0.5063 0.73883 0.50028 0.0
H1400 H 0.40666 0.5954 0.50296 0.0
H1401 H 0.44722 0.57846 0.48351 0.0
C1402 C 0.51761 0.64139 0.46719 0.0
C1403 C 0.55369 0.6781 0.45954 0.0
C1404 C 0.49921 0.64936 0.4802 0.0
C1405 C 0.57331 0.7224 0.46559 0.0
C1406 C 0.55514 0.73064 0.47849 0.0
C1407 C 0.49467 0.70367 0.49702 0.0
C1408 C 0.45374 0.66838 0.50289 0.0
C1409 C 0.51721 0.69462 0.48556 0.0
C1410 C 0.4385 0.62294 0.49866 0.0
C1411 C 0.46121 0.61344 0.48736 0.0
H1412 H 0.43398 0.91586 0.46284 0.0
H1413 H 0.2914 0.87629 0.45966 0.0
H1414 H 0.27669 0.83299 0.48325 0.0
H1415 H 0.3019 0.79612 0.50201 0.0
H1416 H 0.44338 0.83251 0.50468 0.0
H1417 H 0.46163 0.88919 0.4845 0.0
C1418 C 0.39984 0.89827 0.46746 0.0
C1419 C 0.36361 0.8984 0.45942 0.0
C1420 C 0.39164 0.87341 0.48101 0.0
C1421 C 0.31973 0.87635 0.46562 0.0
C1422 C 0.31131 0.85161 0.47909 0.0
C1423 C 0.33703 0.81799 0.4986 0.0
C1424 C 0.37125 0.81031 0.50469 0.0
C1425 C 0.34667 0.84863 0.48656 0.0
C1426 C 0.41665 0.8384 0.50025 0.0
C1427 C 0.42686 0.87006 0.4885 0.0
H1428 H 0.20372 0.44536 0.38556 0.0
H1429 H 0.12884 0.51804 0.38697 0.0
H1430 H 0.1648 0.5576 0.36326 0.0
H1431 H 0.22739 0.5808 0.34507 0.0
H1432 H 0.30746 0.51368 0.34592 0.0
H1433 H 0.25819 0.46085 0.36543 0.0
C1434 C 0.19484 0.46954 0.38061 0.0
C1435 C 0.16451 0.47969 0.38816 0.0
C1436 C 0.21614 0.49246 0.36725 0.0
C1437 C 0.15244 0.51009 0.38143 0.0
C1438 C 0.17301 0.53264 0.3679 0.0
C1439 C 0.23234 0.55292 0.34897 0.0
C1440 C 0.27029 0.5503 0.34391 0.0
C1441 C 0.20607 0.52521 0.36102 0.0
C1442 C 0.27774 0.51539 0.3494 0.0
C1443 C 0.25018 0.48595 0.36078 0.0
H1444 H 0.57096 0.68241 0.37731 0.0
H1445 H 0.5496 0.76075 0.41134 0.0
H1446 H 0.50932 0.78245 0.3928 0.0
H1447 H 0.47645 0.77552 0.36767 0.0
H1448 H 0.48928 0.69093 0.33388 0.0
H1449 H 0.53883 0.67725 0.35123 0.0
C1450 C 0.5566 0.70346 0.38064 0.0
C1451 C 0.56144 0.71858 0.39576 0.0
C1452 C 0.53345 0.71586 0.36985 0.0
C1453 C 0.54491 0.74771 0.39985 0.0
C1454 C 0.52241 0.7605 0.38924 0.0
C1455 C 0.49102 0.755 0.36392 0.0
C1456 C 0.47912 0.73426 0.34951 0.0
C1457 C 0.5163 0.74459 0.37427 0.0
C1458 C 0.49841 0.7079 0.34481 0.0
C1459 C 0.52592 0.69926 0.35487 0.0
H1460 H 0.35846 0.90674 0.37661 0.0
H1461 H 0.28038 0.80943 0.4114 0.0
H1462 H 0.25856 0.74631 0.39369 0.0
H1463 H 0.26438 0.71872 0.36897 0.0
H1464 H 0.3465 0.81407 0.33421 0.0
H1465 H 0.36251 0.87821 0.35099 0.0
C1466 C 0.3374 0.87159 0.3803 0.0
C1467 C 0.32242 0.86233 0.39541 0.0
C1468 C 0.32472 0.83539 0.36996 0.0
C1469 C 0.29331 0.81701 0.39994 0.0
C1470 C 0.2805 0.78105 0.38979 0.0
C1471 C 0.28507 0.75352 0.36488 0.0
C1472 C 0.30421 0.76143 0.35033 0.0
C1473 C 0.29614 0.78985 0.37482 0.0
C1474 C 0.33081 0.80685 0.34527 0.0
C1475 C 0.34061 0.84356 0.35497 0.0
H1476 H 0.29151 0.09543 0.09015 0.0
H1477 H 0.29651 0.00866 0.12551 0.0
H1478 H 0.23021 0.0051 0.13752 0.0
H1479 H 0.16774 0.0236 0.13738 0.0
H1480 H 0.16185 0.10843 0.10158 0.0
H1481 H 0.23166 0.11683 0.09068 0.0
C1482 C 0.27794 0.07552 0.10042 0.0
C1483 C 0.29882 0.05191 0.10676 0.0
C1484 C 0.23985 0.07394 0.10741 0.0
C1485 C 0.28102 0.02687 0.12025 0.0
C1486 C 0.24315 0.02501 0.12721 0.0
C1487 C 0.18265 0.04501 0.12747 0.0
C1488 C 0.16015 0.06605 0.12044 0.0
C1489 C 0.2221 0.0483 0.1209 0.0
C1490 C 0.17902 0.09254 0.10732 0.0
C1491 C 0.21864 0.09689 0.10097 0.0
H1492 H 0.89456 0.19217 0.11355 0.0
H1493 H 0.03287 0.29304 0.1022 0.0
H1494 H 0.06063 0.24477 0.11303 0.0
H1495 H 0.04546 0.17152 0.12347 0.0
H1496 H 0.90882 0.06958 0.13542 0.0
H1497 H 0.88055 0.12105 0.12709 0.0
C1498 C 0.93075 0.20353 0.11354 0.0
C1499 C 0.96153 0.24595 0.10691 0.0
C1500 C 0.94679 0.17566 0.12001 0.0
C1501 C 0.00842 0.26061 0.10719 0.0
C1502 C 0.02441 0.23303 0.11339 0.0
C1503 C 0.00963 0.16108 0.12459 0.0
C1504 C 0.97914 0.11705 0.12995 0.0
C1505 C 0.99389 0.19031 0.11957 0.0
C1506 C 0.93286 0.10362 0.13143 0.0
C1507 C 0.91673 0.1328 0.12647 0.0
H1508 H 0.84397 0.72747 0.11113 0.0
H1509 H 0.76321 0.77977 0.08985 0.0
H1510 H 0.81492 0.85567 0.10011 0.0
H1511 H 0.88465 0.90784 0.11387 0.0
H1512 H 0.9655 0.85739 0.13604 0.0
H1513 H 0.91148 0.77957 0.12701 0.0
C1514 C 0.83781 0.75556 0.10874 0.0
C1515 C 0.80011 0.74813 0.09954 0.0
C1516 C 0.86738 0.79915 0.11492 0.0
C1517 C 0.792 0.78458 0.09681 0.0
C1518 C 0.82154 0.82798 0.10268 0.0
C1519 C 0.89031 0.87973 0.11685 0.0
C1520 C 0.9293 0.88833 0.12541 0.0
C1521 C 0.85948 0.83568 0.11159 0.0
C1522 C 0.93574 0.85155 0.12945 0.0
C1523 C 0.90508 0.80724 0.12417 0.0
H1524 H 0.13148 0.31817 0.39605 0.0
H1525 H 0.99931 0.26875 0.41606 0.0
H1526 H 0.97005 0.1962 0.40255 0.0
H1527 H 0.98375 0.14509 0.38682 0.0
H1528 H 0.11496 0.19332 0.36635 0.0
H1529 H 0.14267 0.26905 0.37782 0.0
C1530 C 0.09628 0.29141 0.39743 0.0
C1531 C 0.0677 0.29827 0.40725 0.0
C1532 C 0.07951 0.25011 0.3894 0.0
C1533 C 0.02192 0.26399 0.40867 0.0
C1534 C 0.00521 0.22264 0.40092 0.0
C1535 C 0.01817 0.17252 0.38461 0.0
C1536 C 0.0475 0.16373 0.37591 0.0
C1537 C 0.03387 0.21517 0.39146 0.0
C1538 C 0.09177 0.19946 0.37296 0.0
C1539 C 0.10772 0.24247 0.37969 0.0
H1540 H 0.74565 0.78213 0.38429 0.0
H1541 H 0.79143 0.81255 0.43102 0.0
H1542 H 0.86093 0.88039 0.42303 0.0
H1543 H 0.90789 0.9312 0.40329 0.0
H1544 H 0.86569 0.9037 0.35625 0.0
H1545 H 0.7947 0.83486 0.36389 0.0
C1546 C 0.77122 0.80329 0.39268 0.0
C1547 C 0.76354 0.79198 0.40826 0.0
C1548 C 0.81115 0.84298 0.388 0.0
C1549 C 0.79656 0.82017 0.419 0.0
C1550 C 0.8362 0.85916 0.41445 0.0
C1551 C 0.88334 0.9103 0.3946 0.0
C1552 C 0.89232 0.92252 0.37918 0.0
C1553 C 0.84361 0.87095 0.39904 0.0
C1554 C 0.85961 0.89526 0.36818 0.0
C1555 C 0.81925 0.85572 0.37257 0.0
H1556 H 0.25154 0.97582 0.38354 0.0
H1557 H 0.25663 0.03284 0.4277 0.0
H1558 H 0.19544 0.04764 0.42009 0.0
H1559 H 0.13899 0.04155 0.40159 0.0
H1560 H 0.12875 0.98041 0.35781 0.0
H1561 H 0.19343 0.96967 0.36459 0.0
C1562 C 0.23961 0.99213 0.39137 0.0
C1563 C 0.25876 0.00373 0.40611 0.0
C1564 C 0.20331 0.99921 0.38706 0.0
C1565 C 0.24249 0.02386 0.41629 0.0
C1566 C 0.20745 0.03216 0.41197 0.0
C1567 C 0.15077 0.02595 0.39342 0.0
C1568 C 0.12897 0.01199 0.37914 0.0
C1569 C 0.18729 0.01943 0.39749 0.0
C1570 C 0.14481 0.99158 0.36884 0.0
C1571 C 0.18187 0.9855 0.37273 0.0
H1572 H 0.73096 0.90501 0.89785 0.0
H1573 H 0.7795 0.03952 0.91674 0.0
H1574 H 0.85406 0.06605 0.90533 0.0
H1575 H 0.90672 0.04964 0.89146 0.0
H1576 H 0.85814 0.91643 0.87169 0.0
H1577 H 0.78183 0.89071 0.88185 0.0
C1578 C 0.75785 0.94017 0.89948 0.0
C1579 C 0.74988 0.97009 0.90837 0.0
C1580 C 0.80041 0.95534 0.89269 0.0
C1581 C 0.78477 0.01576 0.91006 0.0
C1582 C 0.8274 0.03092 0.90354 0.0
C1583 C 0.87919 0.01514 0.88919 0.0
C1584 C 0.88793 0.9848 0.88093 0.0
C1585 C 0.83573 0.00084 0.89503 0.0
C1586 C 0.85205 0.94041 0.87793 0.0
C1587 C 0.80863 0.92566 0.88386 0.0
H1588 H 0.12663 0.82635 0.88777 0.0
H1589 H 0.99928 0.74524 0.91087 0.0
H1590 H 0.97224 0.79648 0.90156 0.0
H1591 H 0.98765 0.86785 0.88874 0.0
H1592 H 0.11401 0.94798 0.86503 0.0
H1593 H 0.13836 0.89301 0.87239 0.0
C1594 C 0.09274 0.81966 0.89063 0.0
C1595 C 0.0651 0.78237 0.90015 0.0
C1596 C 0.07737 0.84902 0.88512 0.0
C1597 C 0.02108 0.77363 0.90357 0.0
C1598 C 0.00577 0.80306 0.8983 0.0
C1599 C 0.02033 0.87301 0.88502 0.0
C1600 C 0.04923 0.91224 0.87646 0.0
C1601 C 0.03401 0.84136 0.88935 0.0
C1602 C 0.09109 0.91807 0.87154 0.0
C1603 C 0.10515 0.88682 0.87588 0.0
H1604 H 0.23813 0.31085 0.88579 0.0
H1605 H 0.26752 0.24981 0.9244 0.0
H1606 H 0.20967 0.17374 0.91582 0.0
H1607 H 0.14895 0.12545 0.89845 0.0
H1608 H 0.11273 0.18385 0.86064 0.0
H1609 H 0.17503 0.26034 0.86777 0.0
C1610 C 0.23205 0.28067 0.89214 0.0
C1611 C 0.25719 0.28557 0.90563 0.0
C1612 C 0.19735 0.23692 0.88739 0.0
C1613 C 0.24862 0.24663 0.914 0.0
C1614 C 0.21553 0.20325 0.9091 0.0
C1615 C 0.15438 0.15469 0.89165 0.0
C1616 C 0.12583 0.14866 0.879 0.0
C1617 C 0.18932 0.19812 0.89599 0.0
C1618 C 0.13405 0.18729 0.87039 0.0
C1619 C 0.16967 0.23106 0.87451 0.0
H1620 H 0.98491 0.7376 0.63011 0.0
H1621 H 0.98329 0.7695 0.58259 0.0
H1622 H 0.98741 0.84137 0.58921 0.0
H1623 H 0.99065 0.89466 0.60802 0.0
H1624 H 0.99126 0.8659 0.65582 0.0
H1625 H 0.98745 0.79287 0.64959 0.0
C1626 C 0.98605 0.76064 0.62124 0.0
C1627 C 0.98425 0.74825 0.60582 0.0
C1628 C 0.98757 0.80208 0.62517 0.0
C1629 C 0.98486 0.7781 0.59449 0.0
C1630 C 0.98703 0.81921 0.59827 0.0
C1631 C 0.98996 0.87263 0.61719 0.0
C1632 C 0.99152 0.8861 0.6324 0.0
C1633 C 0.98813 0.83136 0.61352 0.0
C1634 C 0.98995 0.85647 0.64402 0.0
C1635 C 0.98809 0.81485 0.64043 0.0
H1636 H 0.2432 0.26492 0.60096 0.0
H1637 H 0.33107 0.2206 0.62139 0.0
H1638 H 0.26588 0.15791 0.6344 0.0
H1639 H 0.18205 0.1132 0.63903 0.0
H1640 H 0.0961 0.16078 0.61878 0.0
H1641 H 0.16172 0.22455 0.60705 0.0
C1642 C 0.24783 0.24137 0.60824 0.0
C1643 C 0.29137 0.2466 0.61006 0.0
C1644 C 0.21038 0.20602 0.61587 0.0
C1645 C 0.29744 0.2166 0.61973 0.0
C1646 C 0.26025 0.18092 0.62721 0.0
C1647 C 0.178 0.13806 0.63229 0.0
C1648 C 0.13407 0.13183 0.62968 0.0
C1649 C 0.21629 0.17498 0.62531 0.0
C1650 C 0.12942 0.16437 0.62085 0.0
C1651 C 0.16695 0.20091 0.61405 0.0
H1652 H 0.83461 0.13649 0.61853 0.0
H1653 H 0.75433 0.00917 0.5945 0.0
H1654 H 0.80001 0.9788 0.60588 0.0
H1655 H 0.86371 0.98885 0.6218 0.0
H1656 H 0.94502 0.11469 0.64639 0.0
H1657 H 0.89693 0.14471 0.63614 0.0
C1658 C 0.8275 0.10226 0.61573 0.0
C1659 C 0.79158 0.07531 0.60548 0.0
C1660 C 0.85343 0.08452 0.62263 0.0
C1661 C 0.78193 0.03063 0.60224 0.0
C1662 C 0.8079 0.01319 0.6088 0.0
C1663 C 0.87069 0.02271 0.6251 0.0
C1664 C 0.90809 0.04963 0.63476 0.0
C1665 C 0.8437 0.03982 0.61894 0.0
C1666 C 0.91628 0.09317 0.63905 0.0
C1667 C 0.88913 0.1105 0.63302 0.0
H1668 H 0.9423 0.42189 0.42563 0.0
H1669 H 0.96426 0.3511 0.46296 0.0
H1670 H 0.8982 0.34514 0.47598 0.0
H1671 H 0.83141 0.35704 0.47621 0.0
H1672 H 0.80971 0.42668 0.43854 0.0
H1673 H 0.87874 0.43718 0.42645 0.0
C1674 C 0.9324 0.40479 0.43654 0.0
C1675 C 0.95779 0.38635 0.44317 0.0
C1676 C 0.89477 0.40207 0.44408 0.0
C1677 C 0.94495 0.36507 0.45748 0.0
C1678 C 0.90735 0.36195 0.46501 0.0
C1679 C 0.84279 0.37572 0.4656 0.0
C1680 C 0.81615 0.39178 0.45836 0.0
C1681 C 0.88187 0.38027 0.45843 0.0
C1682 C 0.83029 0.41477 0.4444 0.0
C1683 C 0.86939 0.42025 0.43739 0.0
H1684 H 0.57372 0.5359 0.44701 0.0
H1685 H 0.70896 0.61893 0.42903 0.0
H1686 H 0.73302 0.56841 0.44078 0.0
H1687 H 0.71452 0.49821 0.45451 0.0
H1688 H 0.58068 0.41465 0.47315 0.0
H1689 H 0.55737 0.46858 0.46321 0.0
C1690 C 0.60843 0.54282 0.44566 0.0
C1691 C 0.63934 0.58075 0.4369 0.0
C1692 C 0.62233 0.51392 0.45271 0.0
C1693 C 0.68445 0.58989 0.43557 0.0
C1694 C 0.69825 0.56107 0.44232 0.0
C1695 C 0.68044 0.49224 0.45665 0.0
C1696 C 0.6492 0.45245 0.46444 0.0
C1697 C 0.66738 0.52278 0.45072 0.0
C1698 C 0.60535 0.44521 0.46727 0.0
C1699 C 0.59195 0.47575 0.46141 0.0
H1700 H 0.50875 0.05877 0.44551 0.0
H1701 H 0.424 0.10957 0.42641 0.0
H1702 H 0.47182 0.18334 0.4386 0.0
H1703 H 0.53902 0.2345 0.45354 0.0
H1704 H 0.62505 0.18637 0.47317 0.0
H1705 H 0.57457 0.10988 0.46235 0.0
C1706 C 0.50102 0.08615 0.44395 0.0
C1707 C 0.46315 0.07882 0.43484 0.0
C1708 C 0.52838 0.12858 0.45128 0.0
C1709 C 0.45298 0.11429 0.43324 0.0
C1710 C 0.48022 0.15646 0.44026 0.0
C1711 C 0.54647 0.2071 0.45565 0.0
C1712 C 0.58587 0.21611 0.46404 0.0
C1713 C 0.51803 0.16402 0.4492 0.0
C1714 C 0.59477 0.1802 0.46683 0.0
C1715 C 0.56622 0.1367 0.46048 0.0
H1716 H 0.66656 0.58477 0.7436 0.0
H1717 H 0.8097 0.62926 0.73873 0.0
H1718 H 0.7907 0.56438 0.72232 0.0
H1719 H 0.73423 0.49146 0.71151 0.0
H1720 H 0.59149 0.43898 0.71955 0.0
H1721 H 0.60897 0.51144 0.73172 0.0
C1722 C 0.6935 0.58016 0.73892 0.0
C1723 C 0.73949 0.61151 0.74259 0.0
C1724 C 0.68229 0.54195 0.72969 0.0
C1725 C 0.77403 0.60521 0.7364 0.0
C1726 C 0.76325 0.5684 0.72684 0.0
C1727 C 0.70684 0.49683 0.71534 0.0
C1728 C 0.66162 0.46075 0.7143 0.0
C1729 C 0.7176 0.53633 0.72358 0.0
C1730 C 0.6264 0.46699 0.71981 0.0
C1731 C 0.63659 0.50794 0.7271 0.0
H1732 H 0.41792 0.09057 0.72111 0.0
H1733 H 0.45108 0.10825 0.769 0.0
H1734 H 0.52985 0.16547 0.76331 0.0
H1735 H 0.58616 0.21648 0.74511 0.0
H1736 H 0.55244 0.20431 0.69732 0.0
H1737 H 0.47725 0.13801 0.7025 0.0
C1738 C 0.44261 0.10653 0.73028 0.0
C1739 C 0.4287 0.09557 0.74548 0.0
C1740 C 0.48759 0.14031 0.72692 0.0
C1741 C 0.46088 0.11656 0.75725 0.0
C1742 C 0.5059 0.14915 0.75399 0.0
C1743 C 0.5627 0.19875 0.73578 0.0
C1744 C 0.57466 0.2154 0.72088 0.0
C1745 C 0.5192 0.16215 0.73892 0.0
C1746 C 0.54417 0.1919 0.70887 0.0
C1747 C 0.50098 0.15439 0.71187 0.0
H1748 H 0.93914 0.35087 0.72042 0.0
H1749 H 0.91399 0.35771 0.76799 0.0
H1750 H 0.85761 0.38033 0.76135 0.0
H1751 H 0.81028 0.38983 0.74236 0.0
H1752 H 0.82816 0.37497 0.69474 0.0
H1753 H 0.89427 0.36581 0.70103 0.0
C1754 C 0.92165 0.35782 0.72933 0.0
C1755 C 0.93037 0.35224 0.7447 0.0
C1756 C 0.88839 0.36967 0.7254 0.0
C1757 C 0.9075 0.36129 0.75611 0.0
C1758 C 0.87544 0.37438 0.75232 0.0
C1759 C 0.82901 0.38529 0.73328 0.0
C1760 C 0.81397 0.38242 0.71811 0.0
C1761 C 0.86489 0.37753 0.73704 0.0
C1762 C 0.83909 0.37737 0.70649 0.0
C1763 C 0.87645 0.37151 0.71012 0.0
H1764 H 0.42297 0.25875 0.25918 0.0
H1765 H 0.40778 0.355 0.23054 0.0
H1766 H 0.47811 0.37331 0.21741 0.0
H1767 H 0.54446 0.36148 0.21401 0.0
H1768 H 0.55874 0.26631 0.24345 0.0
H1769 H 0.48793 0.24745 0.25604 0.0
C1770 C 0.43505 0.28394 0.25012 0.0
C1771 C 0.41007 0.30545 0.24591 0.0
C1772 C 0.47517 0.29404 0.24257 0.0
C1773 C 0.42653 0.33818 0.23416 0.0
C1774 C 0.46657 0.34839 0.22653 0.0
C1775 C 0.53148 0.33615 0.22301 0.0
C1776 C 0.55645 0.31504 0.22774 0.0
C1777 C 0.49106 0.32625 0.23055 0.0
C1778 C 0.53993 0.28289 0.23961 0.0
C1779 C 0.49959 0.27223 0.24688 0.0
H1780 H 0.79087 0.16149 0.22405 0.0
H1781 H 0.65885 0.07855 0.24421 0.0
H1782 H 0.63139 0.12613 0.23227 0.0
H1783 H 0.64742 0.19609 0.21849 0.0
H1784 H 0.77859 0.27967 0.1982 0.0
H1785 H 0.80345 0.22626 0.20721 0.0
C1786 C 0.75606 0.15382 0.22576 0.0
C1787 C 0.72718 0.11698 0.23525 0.0
C1788 C 0.74015 0.18096 0.2186 0.0
C1789 C 0.68187 0.10684 0.23709 0.0
C1790 C 0.66608 0.13396 0.23022 0.0
C1791 C 0.68075 0.20143 0.21548 0.0
C1792 C 0.71091 0.24124 0.20749 0.0
C1793 C 0.69511 0.17151 0.22117 0.0
C1794 C 0.75443 0.24863 0.20399 0.0
C1795 C 0.76889 0.21856 0.20943 0.0
H1796 H 0.93538 0.63336 0.21742 0.0
H1797 H 0.90756 0.60626 0.26524 0.0
H1798 H 0.84079 0.5327 0.25934 0.0
H1799 H 0.79002 0.47706 0.24101 0.0
H1800 H 0.81448 0.50127 0.19299 0.0
H1801 H 0.88259 0.57571 0.19854 0.0
C1802 C 0.91495 0.61101 0.22652 0.0
C1803 C 0.92666 0.62511 0.24178 0.0
C1804 C 0.87582 0.56876 0.22302 0.0
C1805 C 0.89948 0.5962 0.25344 0.0
C1806 C 0.86116 0.5542 0.25007 0.0
C1807 C 0.81014 0.49839 0.23166 0.0
C1808 C 0.79721 0.48345 0.21658 0.0
C1809 C 0.84895 0.54037 0.23495 0.0
C1810 C 0.82348 0.51204 0.20469 0.0
C1811 C 0.86258 0.5544 0.20789 0.0
H1812 H 0.60387 0.07319 0.93963 0.0
H1813 H 0.73038 0.09556 0.95969 0.0
H1814 H 0.74003 0.16438 0.97259 0.0
H1815 H 0.71533 0.22201 0.97596 0.0
H1816 H 0.5871 0.19653 0.95648 0.0
H1817 H 0.57419 0.12411 0.94591 0.0
C1818 C 0.63355 0.0932 0.94684 0.0
C1819 C 0.6671 0.0804 0.94842 0.0
C1820 C 0.63796 0.13154 0.9545 0.0
C1821 C 0.70463 0.10547 0.95815 0.0
C1822 C 0.70996 0.14458 0.96555 0.0
C1823 C 0.68379 0.19953 0.96992 0.0
C1824 C 0.65172 0.21387 0.96718 0.0
C1825 C 0.67714 0.15834 0.96361 0.0
C1826 C 0.61158 0.18543 0.95899 0.0
C1827 C 0.6046 0.14447 0.95275 0.0
H1828 H 0.97253 0.58909 0.95582 0.0
H1829 H 0.93215 0.55498 0.90882 0.0
H1830 H 0.85985 0.49023 0.91652 0.0
H1831 H 0.80802 0.4433 0.93614 0.0
H1832 H 0.84527 0.47369 0.98343 0.0
H1833 H 0.91917 0.5393 0.97609 0.0
C1834 C 0.94762 0.5677 0.9473 0.0
C1835 C 0.95771 0.57728 0.93172 0.0
C1836 C 0.90585 0.52956 0.95184 0.0
C1837 C 0.92538 0.5487 0.92085 0.0
C1838 C 0.88399 0.51148 0.92523 0.0
C1839 C 0.83217 0.46409 0.94494 0.0
C1840 C 0.82082 0.45359 0.96033 0.0
C1841 C 0.87395 0.50155 0.94064 0.0
C1842 C 0.85305 0.48079 0.97149 0.0
C1843 C 0.89518 0.51852 0.96728 0.0
H1844 H 0.4972 0.45815 0.95212 0.0
H1845 H 0.42146 0.33202 0.92711 0.0
H1846 H 0.47322 0.30614 0.93678 0.0
H1847 H 0.54304 0.32211 0.95068 0.0
H1848 H 0.61769 0.44683 0.97646 0.0
H1849 H 0.56259 0.47041 0.96837 0.0
C1850 C 0.49196 0.42488 0.94885 0.0
C1851 C 0.4561 0.39723 0.93872 0.0
C1852 C 0.52146 0.41012 0.9546 0.0
C1853 C 0.44893 0.35385 0.93484 0.0
C1854 C 0.47856 0.33918 0.94033 0.0
C1855 C 0.54703 0.3543 0.95465 0.0
C1856 C 0.58474 0.38312 0.96394 0.0
C1857 C 0.51537 0.36741 0.94997 0.0
C1858 C 0.58902 0.42422 0.96927 0.0
C1859 C 0.55771 0.43776 0.96456 0.0
H1860 H 0.62925 0.68835 0.79586 0.0
H1861 H 0.58368 0.6727 0.74909 0.0
H1862 H 0.507 0.65186 0.75732 0.0
H1863 H 0.45643 0.64819 0.77731 0.0
H1864 H 0.50379 0.67523 0.82378 0.0
H1865 H 0.57564 0.67913 0.81637 0.0
C1866 C 0.60231 0.67971 0.78748 0.0
C1867 C 0.61216 0.68226 0.77184 0.0
C1868 C 0.55861 0.66928 0.79232 0.0
C1869 C 0.57708 0.67134 0.76114 0.0
C1870 C 0.53323 0.65925 0.76586 0.0
C1871 C 0.48196 0.65343 0.78592 0.0
C1872 C 0.47487 0.66118 0.80108 0.0
C1873 C 0.52403 0.6593 0.78136 0.0
C1874 C 0.50813 0.66835 0.81211 0.0
C1875 C 0.54952 0.67154 0.80778 0.0
H1876 H 0.37016 0.94346 0.77053 0.0
H1877 H 0.22851 0.83731 0.77119 0.0
H1878 H 0.24845 0.78846 0.78609 0.0
H1879 H 0.30631 0.77297 0.79682 0.0
H1880 H 0.44857 0.87386 0.79346 0.0
H1881 H 0.42841 0.92872 0.78235 0.0
C1882 C 0.3437 0.90966 0.77396 0.0
C1883 C 0.29799 0.89382 0.76956 0.0
C1884 C 0.3555 0.8813 0.78234 0.0
C1885 C 0.26405 0.85 0.77414 0.0
C1886 C 0.27533 0.8222 0.78281 0.0
C1887 C 0.33272 0.80767 0.7942 0.0
C1888 C 0.37867 0.82018 0.79629 0.0
C1889 C 0.32092 0.83725 0.78679 0.0
C1890 C 0.41295 0.8643 0.79232 0.0
C1891 C 0.40138 0.89517 0.78572 0.0
H1892 H 0.17109 0.46665 0.74639 0.0
H1893 H 0.09702 0.41331 0.78787 0.0
H1894 H 0.14866 0.4849 0.80106 0.0
H1895 H 0.21965 0.56103 0.80118 0.0
H1896 H 0.28885 0.61462 0.7587 0.0
H1897 H 0.23423 0.54557 0.74564 0.0
C1898 C 0.16607 0.47103 0.75826 0.0
C1899 C 0.13079 0.43489 0.76619 0.0
C1900 C 0.19517 0.51251 0.76567 0.0
C1901 C 0.1241 0.44095 0.78154 0.0
C1902 C 0.15369 0.48179 0.7891 0.0
C1903 C 0.22213 0.55789 0.78903 0.0
C1904 C 0.25908 0.59271 0.78108 0.0
C1905 C 0.18999 0.51769 0.78135 0.0
C1906 C 0.26143 0.58813 0.76526 0.0
C1907 C 0.23017 0.54849 0.75769 0.0
H1908 H 0.32492 0.91023 0.07769 0.0
H1909 H 0.45892 0.97757 0.05805 0.0
H1910 H 0.43793 0.912 0.0417 0.0
H1911 H 0.38661 0.83131 0.03606 0.0
H1912 H 0.25612 0.75933 0.05762 0.0
H1913 H 0.26925 0.8305 0.06952 0.0
C1914 C 0.34898 0.91065 0.0696 0.0
C1915 C 0.39358 0.94837 0.0692 0.0
C1916 C 0.33705 0.87187 0.06043 0.0
C1917 C 0.42461 0.94856 0.05872 0.0
C1918 C 0.4126 0.91115 0.0493 0.0
C1919 C 0.36012 0.83182 0.04272 0.0
C1920 C 0.32004 0.79051 0.04567 0.0
C1921 C 0.36951 0.87205 0.05041 0.0
C1922 C 0.28672 0.79107 0.05486 0.0
C1923 C 0.29471 0.83162 0.06193 0.0
H1924 H 0.08603 0.42352 0.05591 0.0
H1925 H 0.11622 0.46227 0.1031 0.0
H1926 H 0.19468 0.51803 0.09678 0.0
H1927 H 0.25149 0.56133 0.07784 0.0
H1928 H 0.22114 0.52906 0.03026 0.0
H1929 H 0.14638 0.46399 0.03678 0.0
C1930 C 0.11005 0.44366 0.06483 0.0
C1931 C 0.09527 0.439 0.07997 0.0
C1932 C 0.15498 0.4767 0.06103 0.0
C1933 C 0.12664 0.46543 0.09138 0.0
C1934 C 0.17152 0.4973 0.08777 0.0
C1935 C 0.22891 0.53976 0.06884 0.0
C1936 C 0.2417 0.55047 0.05356 0.0
C1937 C 0.1856 0.50405 0.07262 0.0
C1938 C 0.21219 0.52165 0.04211 0.0
C1939 C 0.16926 0.48473 0.04584 0.0
H1940 H 0.6015 0.71856 0.0809 0.0
H1941 H 0.5961 0.63265 0.04408 0.0
H1942 H 0.53876 0.64472 0.03084 0.0
H1943 H 0.48327 0.67284 0.03122 0.0
H1944 H 0.49277 0.76246 0.06745 0.0
H1945 H 0.55604 0.75738 0.07901 0.0
C1946 C 0.58809 0.703 0.0699 0.0
C1947 C 0.60246 0.67425 0.06359 0.0
C1948 C 0.55601 0.71116 0.06211 0.0
C1949 C 0.58539 0.65484 0.04921 0.0
C1950 C 0.55256 0.66172 0.04161 0.0
C1951 C 0.50051 0.69274 0.04127 0.0
C1952 C 0.48317 0.71789 0.04848 0.0
C1953 C 0.53682 0.68912 0.04807 0.0
C1954 C 0.5055 0.7429 0.06166 0.0
C1955 C 0.54137 0.73955 0.06842 0.0
H1956 H 0.10017 0.59695 0.59012 0.0
H1957 H 0.0684 0.67825 0.55963 0.0
H1958 H 0.13706 0.69797 0.54493 0.0
H1959 H 0.20752 0.69259 0.54121 0.0
H1960 H 0.23628 0.61046 0.57233 0.0
H1961 H 0.16692 0.58981 0.5862 0.0
C1962 C 0.10824 0.61917 0.58029 0.0
C1963 C 0.07946 0.63636 0.57603 0.0
C1964 C 0.14691 0.62956 0.57188 0.0
C1965 C 0.09055 0.66526 0.5633 0.0
C1966 C 0.12945 0.67604 0.5548 0.0
C1967 C 0.19761 0.66919 0.55076 0.0
C1968 C 0.22613 0.65216 0.55563 0.0
C1969 C 0.15787 0.65818 0.55895 0.0
C1970 C 0.21408 0.62302 0.56827 0.0
C1971 C 0.17481 0.61167 0.5763 0.0
H1972 H 0.45074 0.48921 0.56072 0.0
H1973 H 0.32504 0.41498 0.58531 0.0
H1974 H 0.29818 0.46472 0.57451 0.0
H1975 H 0.31451 0.53427 0.56047 0.0
H1976 H 0.43948 0.60805 0.53551 0.0
H1977 H 0.4624 0.55261 0.54376 0.0
C1978 C 0.41729 0.48376 0.56359 0.0
C1979 C 0.39013 0.44923 0.57401 0.0
C1980 C 0.40211 0.51219 0.55726 0.0
C1981 C 0.3465 0.44159 0.5774 0.0
C1982 C 0.33127 0.47004 0.57126 0.0
C1983 C 0.34641 0.53769 0.55663 0.0
C1984 C 0.37573 0.57541 0.54764 0.0
C1985 C 0.35934 0.50613 0.56152 0.0
C1986 C 0.41652 0.57925 0.54246 0.0
C1987 C 0.42974 0.54785 0.54729 0.0
H1988 H 0.56887 0.97768 0.55748 0.0
H1989 H 0.61134 0.91903 0.59345 0.0
H1990 H 0.55699 0.84194 0.58439 0.0
H1991 H 0.4944 0.79213 0.56763 0.0
H1992 H 0.44503 0.84922 0.53318 0.0
H1993 H 0.50551 0.92651 0.54013 0.0
C1994 C 0.56632 0.94782 0.56317 0.0
C1995 C 0.59375 0.95338 0.57603 0.0
C1996 C 0.53379 0.90377 0.55824 0.0
C1997 C 0.5902 0.91503 0.58356 0.0
C1998 C 0.55927 0.8712 0.57838 0.0
C1999 C 0.49683 0.82138 0.56154 0.0
C2000 C 0.46515 0.81497 0.54993 0.0
C2001 C 0.53036 0.86527 0.56594 0.0
C2002 C 0.46919 0.85324 0.54208 0.0
C2003 C 0.50354 0.89738 0.54613 0.0
H2004 H 0.30071 0.40482 0.28923 0.0
H2005 H 0.31413 0.44553 0.24213 0.0
H2006 H 0.32157 0.51885 0.2495 0.0
H2007 H 0.32578 0.57145 0.2692 0.0
H2008 H 0.31121 0.53107 0.31632 0.0
H2009 H 0.30153 0.45666 0.30902 0.0
C2010 C 0.30555 0.42984 0.28056 0.0
C2011 C 0.30755 0.42003 0.26512 0.0
C2012 C 0.30899 0.47152 0.28488 0.0
C2013 C 0.31287 0.4524 0.25405 0.0
C2014 C 0.31697 0.49421 0.25827 0.0
C2015 C 0.32027 0.54635 0.27792 0.0
C2016 C 0.31941 0.55695 0.29333 0.0
C2017 C 0.31521 0.5041 0.27363 0.0
C2018 C 0.31167 0.52376 0.30441 0.0
C2019 C 0.30657 0.48138 0.30023 0.0
H2020 H 0.63312 0.86944 0.27468 0.0
H2021 H 0.57954 0.9577 0.26237 0.0
H2022 H 0.50871 0.90739 0.27577 0.0
H2023 H 0.4614 0.83728 0.29004 0.0
H2024 H 0.51346 0.7479 0.30265 0.0
H2025 H 0.58628 0.80012 0.29039 0.0
C2026 C 0.60543 0.87696 0.27476 0.0
C2027 C 0.61038 0.91606 0.26715 0.0
C2028 C 0.56523 0.84824 0.28273 0.0
C2029 C 0.57546 0.92684 0.26774 0.0
C2030 C 0.53537 0.89844 0.27554 0.0
C2031 C 0.48901 0.82962 0.29032 0.0
C2032 C 0.48225 0.78891 0.2972 0.0
C2033 C 0.52988 0.85905 0.28299 0.0
C2034 C 0.51819 0.77936 0.29759 0.0
C2035 C 0.55947 0.80887 0.29039 0.0
H2036 H 0.1852 0.81115 0.27791 0.0
H2037 H 0.08932 0.67348 0.26344 0.0
H2038 H 0.13337 0.64482 0.27707 0.0
H2039 H 0.20176 0.65939 0.29126 0.0
H2040 H 0.29849 0.79589 0.30615 0.0
H2041 H 0.25061 0.82452 0.29468 0.0
C2042 C 0.1741 0.77491 0.27775 0.0
C2043 C 0.13448 0.74451 0.26945 0.0
C2044 C 0.19928 0.75849 0.28585 0.0
C2045 C 0.11981 0.69754 0.26963 0.0
C2046 C 0.1449 0.68112 0.27745 0.0
C2047 C 0.21183 0.69529 0.29229 0.0
C2048 C 0.25356 0.72562 0.29942 0.0
C2049 C 0.18488 0.71132 0.28541 0.0
C2050 C 0.26626 0.77192 0.30081 0.0
C2051 C 0.23923 0.7883 0.29406 0.0
loop_
_geom_bond_atom_site_label_1
_geom_bond_atom_site_label_2
_geom_bond_distance
_geom_bond_site_symmetry_2
_ccdc_geom_bond_type
Mn0 O5 2.095 . S
Mn0 O15 2.162 1_545 S
Mn0 O16 2.297 1_545 S
Mn0 O24 2.385 1_545 S
Mn0 O25 2.209 . S
Mn0 O26 2.094 1_545 S
Mn1 O6 2.121 . S
Mn1 N8 2.257 . S
Mn1 N17 2.282 . S
Mn1 O25 2.215 . S
Mn1 O27 2.117 . S
C2 O24 1.234 1_545 S
C2 O25 1.283 . S
C3 O15 1.281 . S
C3 O16 1.236 . S
C4 O26 1.240 1_545 S
C4 O27 1.264 . S
O5 Mn0 2.095 . S
O5 C14 1.250 . S
O6 Mn1 2.121 . S
O6 C14 1.258 . S
C7 N8 1.326 . S
C7 C11 1.460 . S
C7 H13 0.929 . S
N8 Mn1 2.257 . S
N8 C7 1.326 . S
N8 C12 1.362 . S
C9 C10 1.258 . S
C9 C12 1.431 . S
C9 C29 1.449 . S
C10 C9 1.258 . S
C10 C11 1.477 . S
C10 H30 0.931 . S
C11 C7 1.460 . S
C11 C10 1.477 . S
C11 H31 0.930 . S
C12 N8 1.362 . S
C12 C9 1.431 . S
C12 C22 1.476 . S
H13 C7 0.929 . S
C14 O5 1.250 . S
C14 O6 1.258 . S
O15 Mn0 2.162 1_565 S
O15 C3 1.281 . S
O16 Mn0 2.297 1_565 S
O16 C3 1.236 . S
N17 Mn1 2.282 . S
N17 C18 1.328 . S
N17 C22 1.318 . S
C18 N17 1.328 . S
C18 C19 1.457 . S
C18 H23 0.929 . S
C19 C18 1.457 . S
C19 C20 1.291 . S
C19 H32 0.931 . S
C20 C19 1.291 . S
C20 C21 1.373 . S
C20 H33 0.929 . S
C21 C20 1.373 . S
C21 C22 1.396 . S
C21 C28 1.403 . S
C22 C12 1.476 . S
C22 N17 1.318 . S
C22 C21 1.396 . S
H23 C18 0.929 . S
O24 Mn0 2.385 1_565 S
O24 C2 1.234 1_565 S
O25 Mn0 2.209 . S
O25 Mn1 2.215 . S
O25 C2 1.283 . S
O26 Mn0 2.094 1_565 S
O26 C4 1.240 1_565 S
O27 Mn1 2.117 . S
O27 C4 1.264 . S
C28 C21 1.403 . S
C28 C29 1.399 . S
C28 H34 0.929 1_655 S
C29 C9 1.449 . S
C29 C28 1.399 . S
C29 H35 0.930 . S
H30 C10 0.931 . S
H31 C11 0.930 . S
H32 C19 0.931 . S
H33 C20 0.929 . S
H34 C28 0.929 1_455 S
H35 C29 0.930 . S
Mn36 O41 2.095 . S
Mn36 O51 2.162 1_455 S
Mn36 O52 2.297 1_455 S
Mn36 O60 2.385 1_455 S
Mn36 O61 2.209 . S
Mn36 O62 2.094 1_455 S
Mn37 O42 2.121 . S
Mn37 N44 2.257 . S
Mn37 N53 2.282 . S
Mn37 O61 2.215 . S
Mn37 O63 2.117 . S
C38 O60 1.234 1_455 S
C38 O61 1.283 . S
C39 O51 1.281 . S
C39 O52 1.236 . S
C40 O62 1.240 1_455 S
C40 O63 1.264 . S
O41 Mn36 2.095 . S
O41 C50 1.250 . S
O42 Mn37 2.121 . S
O42 C50 1.258 . S
C43 N44 1.326 . S
C43 C47 1.460 . S
C43 H49 0.929 . S
N44 Mn37 2.257 . S
N44 C43 1.326 . S
N44 C48 1.362 . S
C45 C46 1.258 . S
C45 C48 1.431 . S
C45 C65 1.449 . S
C46 C45 1.258 . S
C46 C47 1.477 . S
C46 H66 0.931 . S
C47 C43 1.460 . S
C47 C46 1.477 . S
C47 H67 0.930 . S
C48 N44 1.362 . S
C48 C45 1.431 . S
C48 C58 1.476 . S
H49 C43 0.929 . S
C50 O41 1.250 . S
C50 O42 1.258 . S
O51 Mn36 2.162 1_655 S
O51 C39 1.281 . S
O52 Mn36 2.297 1_655 S
O52 C39 1.236 . S
N53 Mn37 2.282 . S
N53 C54 1.328 . S
N53 C58 1.318 . S
C54 N53 1.328 . S
C54 C55 1.457 . S
C54 H59 0.929 . S
C55 C54 1.457 . S
C55 C56 1.291 . S
C55 H68 0.931 . S
C56 C55 1.291 . S
C56 C57 1.373 . S
C56 H69 0.929 . S
C57 C56 1.373 . S
C57 C58 1.396 . S
C57 C64 1.403 . S
C58 C48 1.476 . S
C58 N53 1.318 . S
C58 C57 1.396 . S
H59 C54 0.929 . S
O60 Mn36 2.385 1_655 S
O60 C38 1.234 1_655 S
O61 Mn36 2.209 . S
O61 Mn37 2.215 . S
O61 C38 1.283 . S
O62 Mn36 2.094 1_655 S
O62 C40 1.240 1_655 S
O63 Mn37 2.117 . S
O63 C40 1.264 . S
C64 C57 1.403 . S
C64 C65 1.399 . S
C64 H70 0.929 1_565 S
C65 C45 1.449 . S
C65 C64 1.399 . S
C65 H71 0.930 . S
H66 C46 0.931 . S
H67 C47 0.930 . S
H68 C55 0.931 . S
H69 C56 0.929 . S
H70 C64 0.929 1_545 S
H71 C65 0.930 . S
Mn72 O77 2.095 . S
Mn72 O87 2.162 . S
Mn72 O88 2.297 . S
Mn72 O96 2.385 . S
Mn72 O97 2.209 . S
Mn72 O98 2.094 . S
Mn73 O78 2.121 . S
Mn73 N80 2.257 . S
Mn73 N89 2.282 . S
Mn73 O97 2.215 . S
Mn73 O99 2.117 . S
C74 O96 1.234 . S
C74 O97 1.283 . S
C75 O87 1.281 . S
C75 O88 1.236 . S
C76 O98 1.240 . S
C76 O99 1.264 . S
O77 Mn72 2.095 . S
O77 C86 1.250 . S
O78 Mn73 2.121 . S
O78 C86 1.258 . S
C79 N80 1.326 . S
C79 C83 1.460 . S
C79 H85 0.929 . S
N80 Mn73 2.257 . S
N80 C79 1.326 . S
N80 C84 1.362 . S
C81 C82 1.258 . S
C81 C84 1.431 . S
C81 C101 1.449 . S
C82 C81 1.258 . S
C82 C83 1.477 . S
C82 H102 0.931 . S
C83 C79 1.460 . S
C83 C82 1.477 . S
C83 H103 0.930 . S
C84 N80 1.362 . S
C84 C81 1.431 . S
C84 C94 1.476 . S
H85 C79 0.929 . S
C86 O77 1.250 . S
C86 O78 1.258 . S
O87 Mn72 2.162 . S
O87 C75 1.281 . S
O88 Mn72 2.297 . S
O88 C75 1.236 . S
N89 Mn73 2.282 . S
N89 C90 1.328 . S
N89 C94 1.318 . S
C90 N89 1.328 . S
C90 C91 1.457 . S
C90 H95 0.929 . S
C91 C90 1.457 . S
C91 C92 1.291 . S
C91 H104 0.931 . S
C92 C91 1.291 . S
C92 C93 1.373 . S
C92 H105 0.929 . S
C93 C92 1.373 . S
C93 C94 1.396 . S
C93 C100 1.403 . S
C94 C84 1.476 . S
C94 N89 1.318 . S
C94 C93 1.396 . S
H95 C90 0.929 . S
O96 Mn72 2.385 . S
O96 C74 1.234 . S
O97 Mn72 2.209 . S
O97 Mn73 2.215 . S
O97 C74 1.283 . S
O98 Mn72 2.094 . S
O98 C76 1.240 . S
O99 Mn73 2.117 . S
O99 C76 1.264 . S
C100 C93 1.403 . S
C100 C101 1.399 . S
C100 H106 0.929 . S
C101 C81 1.449 . S
C101 C100 1.399 . S
C101 H107 0.930 . S
H102 C82 0.931 . S
H103 C83 0.930 . S
H104 C91 0.931 . S
H105 C92 0.929 . S
H106 C100 0.929 . S
H107 C101 0.930 . S
Mn108 O113 2.095 1_545 S
Mn108 O123 2.162 . S
Mn108 O124 2.297 . S
Mn108 O132 2.385 . S
Mn108 O133 2.209 1_545 S
Mn108 O134 2.094 . S
Mn109 O114 2.121 . S
Mn109 N116 2.257 . S
Mn109 N125 2.282 . S
Mn109 O133 2.215 . S
Mn109 O135 2.117 . S
C110 O132 1.234 . S
C110 O133 1.283 1_545 S
C111 O123 1.281 . S
C111 O124 1.236 . S
C112 O134 1.240 . S
C112 O135 1.264 1_545 S
O113 Mn108 2.095 1_565 S
O113 C122 1.250 . S
O114 Mn109 2.121 . S
O114 C122 1.258 . S
C115 N116 1.326 . S
C115 C119 1.460 . S
C115 H121 0.929 . S
N116 Mn109 2.257 . S
N116 C115 1.326 . S
N116 C120 1.362 . S
C117 C118 1.258 . S
C117 C120 1.431 . S
C117 C137 1.449 . S
C118 C117 1.258 . S
C118 C119 1.477 . S
C118 H138 0.931 . S
C119 C115 1.460 . S
C119 C118 1.477 . S
C119 H139 0.930 . S
C120 N116 1.362 . S
C120 C117 1.431 . S
C120 C130 1.476 . S
H121 C115 0.929 . S
C122 O113 1.250 . S
C122 O114 1.258 . S
O123 Mn108 2.162 . S
O123 C111 1.281 . S
O124 Mn108 2.297 . S
O124 C111 1.236 . S
N125 Mn109 2.282 . S
N125 C126 1.328 . S
N125 C130 1.318 . S
C126 N125 1.328 . S
C126 C127 1.457 . S
C126 H131 0.929 . S
C127 C126 1.457 . S
C127 C128 1.291 . S
C127 H140 0.931 . S
C128 C127 1.291 . S
C128 C129 1.373 . S
C128 H141 0.929 . S
C129 C128 1.373 . S
C129 C130 1.396 . S
C129 C136 1.403 . S
C130 C120 1.476 . S
C130 N125 1.318 . S
C130 C129 1.396 . S
H131 C126 0.929 . S
O132 Mn108 2.385 . S
O132 C110 1.234 . S
O133 Mn108 2.209 1_565 S
O133 Mn109 2.215 . S
O133 C110 1.283 1_565 S
O134 Mn108 2.094 . S
O134 C112 1.240 . S
O135 Mn109 2.117 . S
O135 C112 1.264 1_565 S
C136 C129 1.403 . S
C136 C137 1.399 . S
C136 H142 0.929 . S
C137 C117 1.449 . S
C137 C136 1.399 . S
C137 H143 0.930 . S
H138 C118 0.931 . S
H139 C119 0.930 . S
H140 C127 0.931 . S
H141 C128 0.929 . S
H142 C136 0.929 . S
H143 C137 0.930 . S
Mn144 O149 2.095 . S
Mn144 O159 2.162 1_455 S
Mn144 O160 2.297 1_455 S
Mn144 O168 2.385 1_455 S
Mn144 O169 2.209 . S
Mn144 O170 2.094 1_455 S
Mn145 O150 2.121 . S
Mn145 N152 2.257 . S
Mn145 N161 2.282 . S
Mn145 O169 2.215 . S
Mn145 O171 2.117 . S
C146 O168 1.234 1_455 S
C146 O169 1.283 . S
C147 O159 1.281 . S
C147 O160 1.236 . S
C148 O170 1.240 1_455 S
C148 O171 1.264 . S
O149 Mn144 2.095 . S
O149 C158 1.250 . S
O150 Mn145 2.121 . S
O150 C158 1.258 . S
C151 N152 1.326 . S
C151 C155 1.460 . S
C151 H157 0.929 . S
N152 Mn145 2.257 . S
N152 C151 1.326 . S
N152 C156 1.362 . S
C153 C154 1.258 . S
C153 C156 1.431 . S
C153 C173 1.449 . S
C154 C153 1.258 . S
C154 C155 1.477 . S
C154 H174 0.931 . S
C155 C151 1.460 . S
C155 C154 1.477 . S
C155 H175 0.930 . S
C156 N152 1.362 . S
C156 C153 1.431 . S
C156 C166 1.476 . S
H157 C151 0.929 . S
C158 O149 1.250 . S
C158 O150 1.258 . S
O159 Mn144 2.162 1_655 S
O159 C147 1.281 . S
O160 Mn144 2.297 1_655 S
O160 C147 1.236 . S
N161 Mn145 2.282 . S
N161 C162 1.328 . S
N161 C166 1.318 . S
C162 N161 1.328 . S
C162 C163 1.457 . S
C162 H167 0.929 . S
C163 C162 1.457 . S
C163 C164 1.291 . S
C163 H176 0.931 . S
C164 C163 1.291 . S
C164 C165 1.373 . S
C164 H177 0.929 . S
C165 C164 1.373 . S
C165 C166 1.396 . S
C165 C172 1.403 . S
C166 C156 1.476 . S
C166 N161 1.318 . S
C166 C165 1.396 . S
H167 C162 0.929 . S
O168 Mn144 2.385 1_655 S
O168 C146 1.234 1_655 S
O169 Mn144 2.209 . S
O169 Mn145 2.215 . S
O169 C146 1.283 . S
O170 Mn144 2.094 1_655 S
O170 C148 1.240 1_655 S
O171 Mn145 2.117 . S
O171 C148 1.264 . S
C172 C165 1.403 . S
C172 C173 1.399 . S
C172 H178 0.929 . S
C173 C153 1.449 . S
C173 C172 1.399 . S
C173 H179 0.930 . S
H174 C154 0.931 . S
H175 C155 0.930 . S
H176 C163 0.931 . S
H177 C164 0.929 . S
H178 C172 0.929 . S
H179 C173 0.930 . S
Mn180 O185 2.095 . S
Mn180 O195 2.162 . S
Mn180 O196 2.297 . S
Mn180 O204 2.385 . S
Mn180 O205 2.209 . S
Mn180 O206 2.094 . S
Mn181 O186 2.121 . S
Mn181 N188 2.257 . S
Mn181 N197 2.282 . S
Mn181 O205 2.215 . S
Mn181 O207 2.117 . S
C182 O204 1.234 . S
C182 O205 1.283 . S
C183 O195 1.281 . S
C183 O196 1.236 . S
C184 O206 1.240 . S
C184 O207 1.264 . S
O185 Mn180 2.095 . S
O185 C194 1.250 . S
O186 Mn181 2.121 . S
O186 C194 1.258 . S
C187 N188 1.326 . S
C187 C191 1.460 . S
C187 H193 0.929 . S
N188 Mn181 2.257 . S
N188 C187 1.326 . S
N188 C192 1.362 . S
C189 C190 1.258 . S
C189 C192 1.431 . S
C189 C209 1.449 . S
C190 C189 1.258 . S
C190 C191 1.477 . S
C190 H210 0.931 . S
C191 C187 1.460 . S
C191 C190 1.477 . S
C191 H211 0.930 . S
C192 N188 1.362 . S
C192 C189 1.431 . S
C192 C202 1.476 . S
H193 C187 0.929 . S
C194 O185 1.250 . S
C194 O186 1.258 . S
O195 Mn180 2.162 . S
O195 C183 1.281 . S
O196 Mn180 2.297 . S
O196 C183 1.236 . S
N197 Mn181 2.282 . S
N197 C198 1.328 . S
N197 C202 1.318 . S
C198 N197 1.328 . S
C198 C199 1.457 . S
C198 H203 0.929 . S
C199 C198 1.457 . S
C199 C200 1.291 . S
C199 H212 0.931 . S
C200 C199 1.291 . S
C200 C201 1.373 . S
C200 H213 0.929 . S
C201 C200 1.373 . S
C201 C202 1.396 . S
C201 C208 1.403 . S
C202 C192 1.476 . S
C202 N197 1.318 . S
C202 C201 1.396 . S
H203 C198 0.929 . S
O204 Mn180 2.385 . S
O204 C182 1.234 . S
O205 Mn180 2.209 . S
O205 Mn181 2.215 . S
O205 C182 1.283 . S
O206 Mn180 2.094 . S
O206 C184 1.240 . S
O207 Mn181 2.117 . S
O207 C184 1.264 . S
C208 C201 1.403 . S
C208 C209 1.399 . S
C208 H214 0.929 . S
C209 C189 1.449 . S
C209 C208 1.399 . S
C209 H215 0.930 . S
H210 C190 0.931 . S
H211 C191 0.930 . S
H212 C199 0.931 . S
H213 C200 0.929 . S
H214 C208 0.929 . S
H215 C209 0.930 . S
Mn216 O221 2.095 . S
Mn216 O231 2.162 . S
Mn216 O232 2.297 . S
Mn216 O240 2.385 . S
Mn216 O241 2.209 . S
Mn216 O242 2.094 . S
Mn217 O222 2.121 . S
Mn217 N224 2.257 . S
Mn217 N233 2.282 . S
Mn217 O241 2.215 . S
Mn217 O243 2.117 . S
C218 O240 1.234 . S
C218 O241 1.283 . S
C219 O231 1.281 . S
C219 O232 1.236 . S
C220 O242 1.240 . S
C220 O243 1.264 . S
O221 Mn216 2.095 . S
O221 C230 1.250 . S
O222 Mn217 2.121 . S
O222 C230 1.258 . S
C223 N224 1.326 . S
C223 C227 1.460 . S
C223 H229 0.929 . S
N224 Mn217 2.257 . S
N224 C223 1.326 . S
N224 C228 1.362 . S
C225 C226 1.258 . S
C225 C228 1.431 . S
C225 C245 1.449 . S
C226 C225 1.258 . S
C226 C227 1.477 . S
C226 H246 0.931 . S
C227 C223 1.460 . S
C227 C226 1.477 . S
C227 H247 0.930 . S
C228 N224 1.362 . S
C228 C225 1.431 . S
C228 C238 1.476 . S
H229 C223 0.929 . S
C230 O221 1.250 . S
C230 O222 1.258 . S
O231 Mn216 2.162 . S
O231 C219 1.281 . S
O232 Mn216 2.297 . S
O232 C219 1.236 . S
N233 Mn217 2.282 . S
N233 C234 1.328 . S
N233 C238 1.318 . S
C234 N233 1.328 . S
C234 C235 1.457 . S
C234 H239 0.929 . S
C235 C234 1.457 . S
C235 C236 1.291 . S
C235 H248 0.931 . S
C236 C235 1.291 . S
C236 C237 1.373 . S
C236 H249 0.929 . S
C237 C236 1.373 . S
C237 C238 1.396 . S
C237 C244 1.403 . S
C238 C228 1.476 . S
C238 N233 1.318 . S
C238 C237 1.396 . S
H239 C234 0.929 . S
O240 Mn216 2.385 . S
O240 C218 1.234 . S
O241 Mn216 2.209 . S
O241 Mn217 2.215 . S
O241 C218 1.283 . S
O242 Mn216 2.094 . S
O242 C220 1.240 . S
O243 Mn217 2.117 . S
O243 C220 1.264 . S
C244 C237 1.403 . S
C244 C245 1.399 . S
C244 H250 0.929 . S
C245 C225 1.449 . S
C245 C244 1.399 . S
C245 H251 0.930 . S
H246 C226 0.931 . S
H247 C227 0.930 . S
H248 C235 0.931 . S
H249 C236 0.929 . S
H250 C244 0.929 . S
H251 C245 0.930 . S
Mn252 O257 2.095 . S
Mn252 O267 2.162 1_545 S
Mn252 O268 2.297 . S
Mn252 O276 2.385 . S
Mn252 O277 2.209 . S
Mn252 O278 2.094 . S
Mn253 O258 2.121 . S
Mn253 N260 2.257 . S
Mn253 N269 2.282 . S
Mn253 O277 2.215 . S
Mn253 O279 2.117 . S
C254 O276 1.234 . S
C254 O277 1.283 . S
C255 O267 1.281 . S
C255 O268 1.236 1_565 S
C256 O278 1.240 . S
C256 O279 1.264 . S
O257 Mn252 2.095 . S
O257 C266 1.250 . S
O258 Mn253 2.121 . S
O258 C266 1.258 . S
C259 N260 1.326 . S
C259 C263 1.460 . S
C259 H265 0.929 . S
N260 Mn253 2.257 . S
N260 C259 1.326 . S
N260 C264 1.362 . S
C261 C262 1.258 . S
C261 C264 1.431 . S
C261 C281 1.449 . S
C262 C261 1.258 . S
C262 C263 1.477 . S
C262 H282 0.931 . S
C263 C259 1.460 . S
C263 C262 1.477 . S
C263 H283 0.930 . S
C264 N260 1.362 . S
C264 C261 1.431 . S
C264 C274 1.476 . S
H265 C259 0.929 . S
C266 O257 1.250 . S
C266 O258 1.258 . S
O267 Mn252 2.162 1_565 S
O267 C255 1.281 . S
O268 Mn252 2.297 . S
O268 C255 1.236 1_545 S
N269 Mn253 2.282 . S
N269 C270 1.328 . S
N269 C274 1.318 . S
C270 N269 1.328 . S
C270 C271 1.457 . S
C270 H275 0.929 . S
C271 C270 1.457 . S
C271 C272 1.291 . S
C271 H284 0.931 . S
C272 C271 1.291 . S
C272 C273 1.373 . S
C272 H285 0.929 . S
C273 C272 1.373 . S
C273 C274 1.396 . S
C273 C280 1.403 . S
C274 C264 1.476 . S
C274 N269 1.318 . S
C274 C273 1.396 . S
H275 C270 0.929 . S
O276 Mn252 2.385 . S
O276 C254 1.234 . S
O277 Mn252 2.209 . S
O277 Mn253 2.215 . S
O277 C254 1.283 . S
O278 Mn252 2.094 . S
O278 C256 1.240 . S
O279 Mn253 2.117 . S
O279 C256 1.264 . S
C280 C273 1.403 . S
C280 C281 1.399 . S
C280 H286 0.929 . S
C281 C261 1.449 . S
C281 C280 1.399 . S
C281 H287 0.930 . S
H282 C262 0.931 . S
H283 C263 0.930 . S
H284 C271 0.931 . S
H285 C272 0.929 . S
H286 C280 0.929 . S
H287 C281 0.930 . S
Mn288 O293 2.095 1_655 S
Mn288 O303 2.162 . S
Mn288 O304 2.297 1_655 S
Mn288 O312 2.385 . S
Mn288 O313 2.209 . S
Mn288 O314 2.094 . S
Mn289 O294 2.121 1_655 S
Mn289 N296 2.257 . S
Mn289 N305 2.282 . S
Mn289 O313 2.215 . S
Mn289 O315 2.117 . S
C290 O312 1.234 . S
C290 O313 1.283 . S
C291 O303 1.281 . S
C291 O304 1.236 1_655 S
C292 O314 1.240 . S
C292 O315 1.264 . S
O293 Mn288 2.095 1_455 S
O293 C302 1.250 . S
O294 Mn289 2.121 1_455 S
O294 C302 1.258 . S
C295 N296 1.326 1_455 S
C295 C299 1.460 . S
C295 H301 0.929 . S
N296 Mn289 2.257 . S
N296 C295 1.326 1_655 S
N296 C300 1.362 . S
C297 C298 1.277 . S
C297 C300 1.431 . S
C297 C317 1.449 . S
C298 C297 1.277 . S
C298 C299 1.468 1_655 S
C298 H318 0.920 1_655 S
C299 C295 1.460 . S
C299 C298 1.468 1_455 S
C299 H319 0.930 . S
C300 N296 1.362 . S
C300 C297 1.431 . S
C300 C310 1.476 . S
H301 C295 0.929 . S
C302 O293 1.250 . S
C302 O294 1.258 . S
O303 Mn288 2.162 . S
O303 C291 1.281 . S
O304 Mn288 2.297 1_455 S
O304 C291 1.236 1_455 S
N305 Mn289 2.282 . S
N305 C306 1.328 . S
N305 C310 1.318 . S
C306 N305 1.328 . S
C306 C307 1.457 . S
C306 H311 0.929 . S
C307 C306 1.457 . S
C307 C308 1.291 . S
C307 H320 0.931 . S
C308 C307 1.291 . S
C308 C309 1.373 . S
C308 H321 0.929 . S
C309 C308 1.373 . S
C309 C310 1.396 . S
C309 C316 1.403 . S
C310 C300 1.476 . S
C310 N305 1.318 . S
C310 C309 1.396 . S
H311 C306 0.929 . S
O312 Mn288 2.385 . S
O312 C290 1.234 . S
O313 Mn288 2.209 . S
O313 Mn289 2.215 . S
O313 C290 1.283 . S
O314 Mn288 2.094 . S
O314 C292 1.240 . S
O315 Mn289 2.117 . S
O315 C292 1.264 . S
C316 C309 1.403 . S
C316 C317 1.399 . S
C316 H322 0.929 . S
C317 C297 1.449 . S
C317 C316 1.399 . S
C317 H323 0.930 . S
H318 C298 0.920 1_455 S
H319 C299 0.930 . S
H320 C307 0.931 . S
H321 C308 0.929 . S
H322 C316 0.929 . S
H323 C317 0.930 . S
Mn324 O329 2.095 . S
Mn324 O339 2.162 1_655 S
Mn324 O340 2.297 1_655 S
Mn324 O348 2.385 . S
Mn324 O349 2.209 . S
Mn324 O350 2.094 . S
Mn325 O330 2.121 . S
Mn325 N332 2.257 . S
Mn325 N341 2.282 . S
Mn325 O349 2.215 . S
Mn325 O351 2.117 . S
C326 O348 1.234 . S
C326 O349 1.283 . S
C327 O339 1.281 . S
C327 O340 1.236 . S
C328 O350 1.240 . S
C328 O351 1.264 . S
O329 Mn324 2.095 . S
O329 C338 1.250 . S
O330 Mn325 2.121 . S
O330 C338 1.258 . S
C331 N332 1.326 . S
C331 C335 1.460 . S
C331 H337 0.929 . S
N332 Mn325 2.257 . S
N332 C331 1.326 . S
N332 C336 1.362 . S
C333 C334 1.258 . S
C333 C336 1.431 . S
C333 C353 1.449 . S
C334 C333 1.258 . S
C334 C335 1.477 . S
C334 H354 0.931 . S
C335 C331 1.460 . S
C335 C334 1.477 . S
C335 H355 0.930 . S
C336 N332 1.362 . S
C336 C333 1.431 . S
C336 C346 1.476 . S
H337 C331 0.929 . S
C338 O329 1.250 . S
C338 O330 1.258 . S
O339 Mn324 2.162 1_455 S
O339 C327 1.281 . S
O340 Mn324 2.297 1_455 S
O340 C327 1.236 . S
N341 Mn325 2.282 . S
N341 C342 1.328 . S
N341 C346 1.318 . S
C342 N341 1.328 . S
C342 C343 1.457 . S
C342 H347 0.929 . S
C343 C342 1.457 . S
C343 C344 1.291 . S
C343 H356 0.931 . S
C344 C343 1.291 . S
C344 C345 1.373 . S
C344 H357 0.929 . S
C345 C344 1.373 . S
C345 C346 1.396 . S
C345 C352 1.403 . S
C346 C336 1.476 . S
C346 N341 1.318 . S
C346 C345 1.396 . S
H347 C342 0.929 . S
O348 Mn324 2.385 . S
O348 C326 1.234 . S
O349 Mn324 2.209 . S
O349 Mn325 2.215 . S
O349 C326 1.283 . S
O350 Mn324 2.094 . S
O350 C328 1.240 . S
O351 Mn325 2.117 . S
O351 C328 1.264 . S
C352 C345 1.403 . S
C352 C353 1.399 . S
C352 H358 0.929 . S
C353 C333 1.449 . S
C353 C352 1.399 . S
C353 H359 0.930 . S
H354 C334 0.931 . S
H355 C335 0.930 . S
H356 C343 0.931 . S
H357 C344 0.929 . S
H358 C352 0.929 . S
H359 C353 0.930 . S
Mn360 O365 2.095 . S
Mn360 O375 2.162 . S
Mn360 O376 2.297 . S
Mn360 O384 2.385 . S
Mn360 O385 2.209 . S
Mn360 O386 2.094 . S
Mn361 O366 2.121 . S
Mn361 N368 2.257 . S
Mn361 N377 2.282 . S
Mn361 O385 2.215 . S
Mn361 O387 2.117 . S
C362 O384 1.234 . S
C362 O385 1.283 . S
C363 O375 1.281 . S
C363 O376 1.236 . S
C364 O386 1.240 . S
C364 O387 1.264 . S
O365 Mn360 2.095 . S
O365 C374 1.250 . S
O366 Mn361 2.121 . S
O366 C374 1.258 . S
C367 N368 1.326 . S
C367 C371 1.460 . S
C367 H373 0.929 . S
N368 Mn361 2.257 . S
N368 C367 1.326 . S
N368 C372 1.362 . S
C369 C370 1.258 . S
C369 C372 1.431 . S
C369 C389 1.449 . S
C370 C369 1.258 . S
C370 C371 1.477 . S
C370 H390 0.931 . S
C371 C367 1.460 . S
C371 C370 1.477 . S
C371 H391 0.930 . S
C372 N368 1.362 . S
C372 C369 1.431 . S
C372 C382 1.476 . S
H373 C367 0.929 . S
C374 O365 1.250 . S
C374 O366 1.258 . S
O375 Mn360 2.162 . S
O375 C363 1.281 . S
O376 Mn360 2.297 . S
O376 C363 1.236 . S
N377 Mn361 2.282 . S
N377 C378 1.328 . S
N377 C382 1.318 . S
C378 N377 1.328 . S
C378 C379 1.457 . S
C378 H383 0.929 . S
C379 C378 1.457 . S
C379 C380 1.291 . S
C379 H392 0.931 . S
C380 C379 1.291 . S
C380 C381 1.373 . S
C380 H393 0.929 . S
C381 C380 1.373 . S
C381 C382 1.396 . S
C381 C388 1.403 . S
C382 C372 1.476 . S
C382 N377 1.318 . S
C382 C381 1.396 . S
H383 C378 0.929 . S
O384 Mn360 2.385 . S
O384 C362 1.234 . S
O385 Mn360 2.209 . S
O385 Mn361 2.215 . S
O385 C362 1.283 . S
O386 Mn360 2.094 . S
O386 C364 1.240 . S
O387 Mn361 2.117 . S
O387 C364 1.264 . S
C388 C381 1.403 . S
C388 C389 1.399 . S
C388 H394 0.929 . S
C389 C369 1.449 . S
C389 C388 1.399 . S
C389 H395 0.930 . S
H390 C370 0.931 . S
H391 C371 0.930 . S
H392 C379 0.931 . S
H393 C380 0.929 . S
H394 C388 0.929 . S
H395 C389 0.930 . S
Mn396 O401 2.095 . S
Mn396 O411 2.162 . S
Mn396 O412 2.297 . S
Mn396 O420 2.385 . S
Mn396 O421 2.209 . S
Mn396 O422 2.094 . S
Mn397 O402 2.121 . S
Mn397 N404 2.257 . S
Mn397 N413 2.282 . S
Mn397 O421 2.215 . S
Mn397 O423 2.117 . S
C398 O420 1.234 . S
C398 O421 1.283 . S
C399 O411 1.281 . S
C399 O412 1.236 . S
C400 O422 1.240 . S
C400 O423 1.264 . S
O401 Mn396 2.095 . S
O401 C410 1.250 1_545 S
O402 Mn397 2.121 . S
O402 C410 1.258 1_545 S
C403 N404 1.326 . S
C403 C407 1.460 1_545 S
C403 H409 0.929 1_545 S
N404 Mn397 2.257 . S
N404 C403 1.326 . S
N404 C408 1.362 . S
C405 C406 1.258 . S
C405 C408 1.431 . S
C405 C425 1.449 . S
C406 C405 1.258 . S
C406 C407 1.477 1_545 S
C406 H426 0.931 . S
C407 C403 1.460 1_565 S
C407 C406 1.477 1_565 S
C407 H427 0.930 . S
C408 N404 1.362 . S
C408 C405 1.431 . S
C408 C418 1.476 . S
H409 C403 0.929 1_565 S
C410 O401 1.250 1_565 S
C410 O402 1.258 1_565 S
O411 Mn396 2.162 . S
O411 C399 1.281 . S
O412 Mn396 2.297 . S
O412 C399 1.236 . S
N413 Mn397 2.282 . S
N413 C414 1.328 . S
N413 C418 1.318 . S
C414 N413 1.328 . S
C414 C415 1.457 . S
C414 H419 0.929 . S
C415 C414 1.457 . S
C415 C416 1.291 . S
C415 H428 0.931 . S
C416 C415 1.291 . S
C416 C417 1.373 . S
C416 H429 0.929 . S
C417 C416 1.373 . S
C417 C418 1.396 . S
C417 C424 1.403 . S
C418 C408 1.476 . S
C418 N413 1.318 . S
C418 C417 1.396 . S
H419 C414 0.929 . S
O420 Mn396 2.385 . S
O420 C398 1.234 . S
O421 Mn396 2.209 . S
O421 Mn397 2.215 . S
O421 C398 1.283 . S
O422 Mn396 2.094 . S
O422 C400 1.240 . S
O423 Mn397 2.117 . S
O423 C400 1.264 . S
C424 C417 1.403 . S
C424 C425 1.399 . S
C424 H430 0.929 . S
C425 C405 1.449 . S
C425 C424 1.399 . S
C425 H431 0.930 . S
H426 C406 0.931 . S
H427 C407 0.930 . S
H428 C415 0.931 . S
H429 C416 0.929 . S
H430 C424 0.929 . S
H431 C425 0.930 . S
Mn432 O437 2.095 . S
Mn432 O447 2.162 1_455 S
Mn432 O448 2.297 . S
Mn432 O456 2.385 . S
Mn432 O457 2.209 . S
Mn432 O458 2.094 . S
Mn433 O438 2.121 . S
Mn433 N440 2.257 . S
Mn433 N449 2.282 . S
Mn433 O457 2.215 . S
Mn433 O459 2.117 . S
C434 O456 1.234 . S
C434 O457 1.283 . S
C435 O447 1.281 . S
C435 O448 1.236 1_655 S
C436 O458 1.240 . S
C436 O459 1.264 . S
O437 Mn432 2.095 . S
O437 C446 1.250 . S
O438 Mn433 2.121 . S
O438 C446 1.258 . S
C439 N440 1.326 . S
C439 C443 1.460 . S
C439 H445 0.929 . S
N440 Mn433 2.257 . S
N440 C439 1.326 . S
N440 C444 1.362 . S
C441 C442 1.258 . S
C441 C444 1.431 . S
C441 C461 1.449 . S
C442 C441 1.258 . S
C442 C443 1.477 . S
C442 H462 0.931 . S
C443 C439 1.460 . S
C443 C442 1.477 . S
C443 H463 0.930 . S
C444 N440 1.362 . S
C444 C441 1.431 . S
C444 C454 1.476 . S
H445 C439 0.929 . S
C446 O437 1.250 . S
C446 O438 1.258 . S
O447 Mn432 2.162 1_655 S
O447 C435 1.281 . S
O448 Mn432 2.297 . S
O448 C435 1.236 1_455 S
N449 Mn433 2.282 . S
N449 C450 1.328 . S
N449 C454 1.318 . S
C450 N449 1.328 . S
C450 C451 1.457 . S
C450 H455 0.929 . S
C451 C450 1.457 . S
C451 C452 1.291 . S
C451 H464 0.931 . S
C452 C451 1.291 . S
C452 C453 1.373 . S
C452 H465 0.929 . S
C453 C452 1.373 . S
C453 C454 1.396 . S
C453 C460 1.403 . S
C454 C444 1.476 . S
C454 N449 1.318 . S
C454 C453 1.396 . S
H455 C450 0.929 . S
O456 Mn432 2.385 . S
O456 C434 1.234 . S
O457 Mn432 2.209 . S
O457 Mn433 2.215 . S
O457 C434 1.283 . S
O458 Mn432 2.094 . S
O458 C436 1.240 . S
O459 Mn433 2.117 . S
O459 C436 1.264 . S
C460 C453 1.403 . S
C460 C461 1.399 . S
C460 H466 0.929 . S
C461 C441 1.449 . S
C461 C460 1.399 . S
C461 H467 0.930 . S
H462 C442 0.931 . S
H463 C443 0.930 . S
H464 C451 0.931 . S
H465 C452 0.929 . S
H466 C460 0.929 . S
H467 C461 0.930 . S
Mn468 O473 2.095 . S
Mn468 O483 2.162 . S
Mn468 O484 2.297 . S
Mn468 O492 2.385 . S
Mn468 O493 2.209 . S
Mn468 O494 2.094 . S
Mn469 O474 2.121 . S
Mn469 N476 2.257 . S
Mn469 N485 2.282 . S
Mn469 O493 2.215 . S
Mn469 O495 2.117 . S
C470 O492 1.234 . S
C470 O493 1.283 . S
C471 O483 1.281 . S
C471 O484 1.236 . S
C472 O494 1.240 . S
C472 O495 1.264 . S
O473 Mn468 2.095 . S
O473 C482 1.250 . S
O474 Mn469 2.121 . S
O474 C482 1.258 . S
C475 N476 1.326 . S
C475 C479 1.460 . S
C475 H481 0.929 . S
N476 Mn469 2.257 . S
N476 C475 1.326 . S
N476 C480 1.362 . S
C477 C478 1.258 . S
C477 C480 1.431 . S
C477 C497 1.449 . S
C478 C477 1.258 . S
C478 C479 1.477 . S
C478 H498 0.931 . S
C479 C475 1.460 . S
C479 C478 1.477 . S
C479 H499 0.930 . S
C480 N476 1.362 . S
C480 C477 1.431 . S
C480 C490 1.476 . S
H481 C475 0.929 . S
C482 O473 1.250 . S
C482 O474 1.258 . S
O483 Mn468 2.162 . S
O483 C471 1.281 . S
O484 Mn468 2.297 . S
O484 C471 1.236 . S
N485 Mn469 2.282 . S
N485 C486 1.328 . S
N485 C490 1.318 . S
C486 N485 1.328 . S
C486 C487 1.457 . S
C486 H491 0.929 . S
C487 C486 1.457 . S
C487 C488 1.291 . S
C487 H500 0.931 . S
C488 C487 1.291 . S
C488 C489 1.373 . S
C488 H501 0.929 . S
C489 C488 1.373 . S
C489 C490 1.396 . S
C489 C496 1.403 . S
C490 C480 1.476 . S
C490 N485 1.318 . S
C490 C489 1.396 . S
H491 C486 0.929 . S
O492 Mn468 2.385 . S
O492 C470 1.234 . S
O493 Mn468 2.209 . S
O493 Mn469 2.215 . S
O493 C470 1.283 . S
O494 Mn468 2.094 . S
O494 C472 1.240 . S
O495 Mn469 2.117 . S
O495 C472 1.264 . S
C496 C489 1.403 . S
C496 C497 1.399 . S
C496 H502 0.929 . S
C497 C477 1.449 . S
C497 C496 1.399 . S
C497 H503 0.930 . S
H498 C478 0.931 . S
H499 C479 0.930 . S
H500 C487 0.931 . S
H501 C488 0.929 . S
H502 C496 0.929 . S
H503 C497 0.930 . S
Mn504 O509 2.095 . S
Mn504 O519 2.162 1_565 S
Mn504 O520 2.297 1_565 S
Mn504 O528 2.385 . S
Mn504 O529 2.209 . S
Mn504 O530 2.094 . S
Mn505 O510 2.121 . S
Mn505 N512 2.257 . S
Mn505 N521 2.282 . S
Mn505 O529 2.215 . S
Mn505 O531 2.117 . S
C506 O528 1.234 . S
C506 O529 1.283 . S
C507 O519 1.281 . S
C507 O520 1.236 . S
C508 O530 1.240 . S
C508 O531 1.264 . S
O509 Mn504 2.095 . S
O509 C518 1.250 . S
O510 Mn505 2.121 . S
O510 C518 1.258 . S
C511 N512 1.326 . S
C511 C515 1.460 . S
C511 H517 0.929 . S
N512 Mn505 2.257 . S
N512 C511 1.326 . S
N512 C516 1.362 . S
C513 C514 1.258 . S
C513 C516 1.431 . S
C513 C533 1.449 . S
C514 C513 1.258 . S
C514 C515 1.477 . S
C514 H534 0.931 . S
C515 C511 1.460 . S
C515 C514 1.477 . S
C515 H535 0.930 . S
C516 N512 1.362 . S
C516 C513 1.431 . S
C516 C526 1.476 . S
H517 C511 0.929 . S
C518 O509 1.250 . S
C518 O510 1.258 . S
O519 Mn504 2.162 1_545 S
O519 C507 1.281 . S
O520 Mn504 2.297 1_545 S
O520 C507 1.236 . S
N521 Mn505 2.282 . S
N521 C522 1.328 . S
N521 C526 1.318 . S
C522 N521 1.328 . S
C522 C523 1.457 . S
C522 H527 0.929 . S
C523 C522 1.457 . S
C523 C524 1.291 . S
C523 H536 0.931 . S
C524 C523 1.291 . S
C524 C525 1.373 . S
C524 H537 0.929 . S
C525 C524 1.373 . S
C525 C526 1.396 . S
C525 C532 1.403 . S
C526 C516 1.476 . S
C526 N521 1.318 . S
C526 C525 1.396 . S
H527 C522 0.929 . S
O528 Mn504 2.385 . S
O528 C506 1.234 . S
O529 Mn504 2.209 . S
O529 Mn505 2.215 . S
O529 C506 1.283 . S
O530 Mn504 2.094 . S
O530 C508 1.240 . S
O531 Mn505 2.117 . S
O531 C508 1.264 . S
C532 C525 1.403 . S
C532 C533 1.399 . S
C532 H538 0.929 . S
C533 C513 1.449 . S
C533 C532 1.399 . S
C533 H539 0.930 . S
H534 C514 0.931 . S
H535 C515 0.930 . S
H536 C523 0.931 . S
H537 C524 0.929 . S
H538 C532 0.929 . S
H539 C533 0.930 . S
Mn540 O545 2.095 . S
Mn540 O555 2.162 . S
Mn540 O556 2.297 . S
Mn540 O564 2.385 . S
Mn540 O565 2.209 . S
Mn540 O566 2.094 . S
Mn541 O546 2.121 . S
Mn541 N548 2.257 . S
Mn541 N557 2.282 . S
Mn541 O565 2.215 . S
Mn541 O567 2.117 . S
C542 O564 1.234 . S
C542 O565 1.283 . S
C543 O555 1.281 . S
C543 O556 1.236 . S
C544 O566 1.240 . S
C544 O567 1.264 . S
O545 Mn540 2.095 . S
O545 C554 1.250 . S
O546 Mn541 2.121 . S
O546 C554 1.258 . S
C547 N548 1.326 . S
C547 C551 1.460 . S
C547 H553 0.929 . S
N548 Mn541 2.257 . S
N548 C547 1.326 . S
N548 C552 1.362 . S
C549 C550 1.258 . S
C549 C552 1.431 . S
C549 C569 1.449 . S
C550 C549 1.258 . S
C550 C551 1.477 . S
C550 H570 0.931 . S
C551 C547 1.460 . S
C551 C550 1.477 . S
C551 H571 0.930 . S
C552 N548 1.362 . S
C552 C549 1.431 . S
C552 C562 1.476 . S
H553 C547 0.929 . S
C554 O545 1.250 . S
C554 O546 1.258 . S
O555 Mn540 2.162 . S
O555 C543 1.281 . S
O556 Mn540 2.297 . S
O556 C543 1.236 . S
N557 Mn541 2.282 . S
N557 C558 1.328 . S
N557 C562 1.318 . S
C558 N557 1.328 . S
C558 C559 1.457 . S
C558 H563 0.929 . S
C559 C558 1.457 . S
C559 C560 1.291 . S
C559 H572 0.931 . S
C560 C559 1.291 . S
C560 C561 1.373 . S
C560 H573 0.929 . S
C561 C560 1.373 . S
C561 C562 1.396 . S
C561 C568 1.403 . S
C562 C552 1.476 . S
C562 N557 1.318 . S
C562 C561 1.396 . S
H563 C558 0.929 . S
O564 Mn540 2.385 . S
O564 C542 1.234 . S
O565 Mn540 2.209 . S
O565 Mn541 2.215 . S
O565 C542 1.283 . S
O566 Mn540 2.094 . S
O566 C544 1.240 . S
O567 Mn541 2.117 . S
O567 C544 1.264 . S
C568 C561 1.403 . S
C568 C569 1.399 . S
C568 H574 0.929 . S
C569 C549 1.449 . S
C569 C568 1.399 . S
C569 H575 0.930 . S
H570 C550 0.931 . S
H571 C551 0.930 . S
H572 C559 0.931 . S
H573 C560 0.929 . S
H574 C568 0.929 . S
H575 C569 0.930 . S
Mn576 O581 2.095 1_565 S
Mn576 O591 2.162 . S
Mn576 O592 2.307 . S
Mn576 O600 2.385 . S
Mn576 O601 2.209 . S
Mn576 O602 2.094 . S
Mn577 O582 2.121 1_565 S
Mn577 N584 2.257 . S
Mn577 N593 2.282 . S
Mn577 O601 2.215 . S
Mn577 O603 2.117 . S
C578 O600 1.234 . S
C578 O601 1.283 . S
C579 O591 1.281 . S
C579 O592 1.233 . S
C580 O602 1.240 . S
C580 O603 1.264 . S
O581 Mn576 2.095 1_545 S
O581 C590 1.250 . S
O582 Mn577 2.121 1_545 S
O582 C590 1.258 . S
C583 N584 1.326 1_545 S
C583 C587 1.460 . S
C583 H589 0.929 . S
N584 Mn577 2.257 . S
N584 C583 1.326 1_565 S
N584 C588 1.362 . S
C585 C586 1.258 . S
C585 C588 1.431 . S
C585 C605 1.449 . S
C586 C585 1.258 . S
C586 C587 1.477 1_565 S
C586 H606 0.931 1_565 S
C587 C583 1.460 . S
C587 C586 1.477 1_545 S
C587 H607 0.930 . S
C588 N584 1.362 . S
C588 C585 1.431 . S
C588 C598 1.476 . S
H589 C583 0.929 . S
C590 O581 1.250 . S
C590 O582 1.258 . S
O591 Mn576 2.162 . S
O591 C579 1.281 . S
O592 Mn576 2.307 . S
O592 C579 1.233 . S
N593 Mn577 2.282 . S
N593 C594 1.328 . S
N593 C598 1.318 . S
C594 N593 1.328 . S
C594 C595 1.457 . S
C594 H599 0.929 . S
C595 C594 1.457 . S
C595 C596 1.291 . S
C595 H608 0.931 . S
C596 C595 1.291 . S
C596 C597 1.373 . S
C596 H609 0.929 . S
C597 C596 1.373 . S
C597 C598 1.396 . S
C597 C604 1.403 . S
C598 C588 1.476 . S
C598 N593 1.318 . S
C598 C597 1.396 . S
H599 C594 0.929 . S
O600 Mn576 2.385 . S
O600 C578 1.234 . S
O601 Mn576 2.209 . S
O601 Mn577 2.215 . S
O601 C578 1.283 . S
O602 Mn576 2.094 . S
O602 C580 1.240 . S
O603 Mn577 2.117 . S
O603 C580 1.264 . S
C604 C597 1.403 . S
C604 C605 1.399 . S
C604 H610 0.929 . S
C605 C585 1.449 . S
C605 C604 1.399 . S
C605 H611 0.930 . S
H606 C586 0.931 1_545 S
H607 C587 0.930 . S
H608 C595 0.931 . S
H609 C596 0.929 . S
H610 C604 0.929 . S
H611 C605 0.930 . S
Mn612 O617 2.095 . S
Mn612 O627 2.162 1_455 S
Mn612 O628 2.297 . S
Mn612 O636 2.385 . S
Mn612 O637 2.209 . S
Mn612 O638 2.094 . S
Mn613 O618 2.121 . S
Mn613 N620 2.257 . S
Mn613 N629 2.282 . S
Mn613 O637 2.215 . S
Mn613 O639 2.117 . S
C614 O636 1.234 . S
C614 O637 1.283 . S
C615 O627 1.281 . S
C615 O628 1.236 1_655 S
C616 O638 1.240 . S
C616 O639 1.264 . S
O617 Mn612 2.095 . S
O617 C626 1.250 . S
O618 Mn613 2.121 . S
O618 C626 1.258 . S
C619 N620 1.326 . S
C619 C623 1.460 . S
C619 H625 0.929 . S
N620 Mn613 2.257 . S
N620 C619 1.326 . S
N620 C624 1.362 . S
C621 C622 1.258 . S
C621 C624 1.431 . S
C621 C641 1.449 . S
C622 C621 1.258 . S
C622 C623 1.477 . S
C622 H642 0.931 . S
C623 C619 1.460 . S
C623 C622 1.477 . S
C623 H643 0.930 . S
C624 N620 1.362 . S
C624 C621 1.431 . S
C624 C634 1.476 . S
H625 C619 0.929 . S
C626 O617 1.250 . S
C626 O618 1.258 . S
O627 Mn612 2.162 1_655 S
O627 C615 1.281 . S
O628 Mn612 2.297 . S
O628 C615 1.236 1_455 S
N629 Mn613 2.282 . S
N629 C630 1.328 . S
N629 C634 1.318 . S
C630 N629 1.328 . S
C630 C631 1.457 . S
C630 H635 0.929 . S
C631 C630 1.457 . S
C631 C632 1.291 . S
C631 H644 0.931 . S
C632 C631 1.291 . S
C632 C633 1.373 . S
C632 H645 0.929 . S
C633 C632 1.373 . S
C633 C634 1.396 . S
C633 C640 1.403 . S
C634 C624 1.476 . S
C634 N629 1.318 . S
C634 C633 1.396 . S
H635 C630 0.929 . S
O636 Mn612 2.385 . S
O636 C614 1.234 . S
O637 Mn612 2.209 . S
O637 Mn613 2.215 . S
O637 C614 1.283 . S
O638 Mn612 2.094 . S
O638 C616 1.240 . S
O639 Mn613 2.117 . S
O639 C616 1.264 . S
C640 C633 1.403 . S
C640 C641 1.399 . S
C640 H646 0.929 . S
C641 C621 1.449 . S
C641 C640 1.399 . S
C641 H647 0.930 . S
H642 C622 0.931 . S
H643 C623 0.930 . S
H644 C631 0.931 . S
H645 C632 0.929 . S
H646 C640 0.929 . S
H647 C641 0.930 . S
Zn648 O654 1.920 1_455 S
Zn648 O660 1.898 1_445 S
Zn648 O663 1.905 . S
Zn649 O657 1.905 1_445 S
Zn649 O658 1.898 . S
Zn649 O666 1.920 1_455 S
Zn650 O653 2.080 . S
Zn650 O656 2.114 1_545 S
Zn650 O659 2.120 . S
Zn650 O661 2.120 1_445 S
Zn650 O662 2.114 . S
Zn650 O665 2.080 1_455 S
C651 O656 1.166 . S
C651 O657 1.182 1_455 S
C652 O658 1.167 . S
C652 O659 1.299 . S
O653 Zn650 2.080 . S
O653 C667 1.305 1_455 S
O654 Zn648 1.920 1_655 S
O654 C667 1.234 . S
C655 O660 1.167 . S
C655 O661 1.299 . S
O656 Zn650 2.114 1_565 S
O656 C651 1.166 . S
O657 Zn649 1.905 1_665 S
O657 C651 1.182 1_655 S
O658 Zn649 1.898 . S
O658 C652 1.167 . S
O659 Zn650 2.120 . S
O659 C652 1.299 . S
O660 Zn648 1.898 1_665 S
O660 C655 1.167 . S
O661 Zn650 2.120 1_665 S
O661 C655 1.299 . S
O662 Zn650 2.114 . S
O662 C664 1.166 . S
O663 Zn648 1.905 . S
O663 C664 1.182 . S
C664 O662 1.166 . S
C664 O663 1.182 . S
O665 Zn650 2.080 1_655 S
O665 C668 1.305 . S
O666 Zn649 1.920 1_655 S
O666 C668 1.234 . S
C667 O653 1.305 1_655 S
C667 O654 1.234 . S
C668 O665 1.305 . S
C668 O666 1.234 . S
Zn669 O675 1.920 1_545 S
Zn669 O681 1.898 . S
Zn669 O684 1.905 1_455 S
Zn670 O678 1.905 . S
Zn670 O679 1.898 1_445 S
Zn670 O687 1.915 1_545 S
Zn671 O674 2.080 1_545 S
Zn671 O677 2.114 . S
Zn671 O680 2.120 1_445 S
Zn671 O682 2.120 . S
Zn671 O683 2.114 1_455 S
Zn671 O686 2.080 . S
C672 O677 1.166 . S
C672 O678 1.182 . S
C673 O679 1.167 . S
C673 O680 1.299 . S
O674 Zn671 2.080 1_565 S
O674 C688 1.305 . S
O675 Zn669 1.920 1_565 S
O675 C688 1.234 . S
C676 O681 1.167 . S
C676 O682 1.299 . S
O677 Zn671 2.114 . S
O677 C672 1.166 . S
O678 Zn670 1.905 . S
O678 C672 1.182 . S
O679 Zn670 1.898 1_665 S
O679 C673 1.167 . S
O680 Zn671 2.120 1_665 S
O680 C673 1.299 . S
O681 Zn669 1.898 . S
O681 C676 1.167 . S
O682 Zn671 2.120 . S
O682 C676 1.299 . S
O683 Zn671 2.114 1_655 S
O683 C685 1.166 . S
O684 Zn669 1.905 1_655 S
O684 C685 1.182 . S
C685 O683 1.166 . S
C685 O684 1.182 . S
O686 Zn671 2.080 . S
O686 C689 1.305 . S
O687 Zn670 1.915 1_565 S
O687 C689 1.235 1_565 S
C688 O674 1.305 . S
C688 O675 1.234 . S
C689 O686 1.305 . S
C689 O687 1.235 1_545 S
Zn690 O696 1.920 1_545 S
Zn690 O702 1.898 . S
Zn690 O705 1.905 1_445 S
Zn691 O699 1.905 . S
Zn691 O700 1.898 1_445 S
Zn691 O708 1.920 1_545 S
Zn692 O695 2.080 1_545 S
Zn692 O698 2.114 . S
Zn692 O701 2.120 1_445 S
Zn692 O703 2.120 . S
Zn692 O704 2.114 1_455 S
Zn692 O707 2.080 . S
C693 O698 1.166 . S
C693 O699 1.182 . S
C694 O700 1.167 . S
C694 O701 1.299 . S
O695 Zn692 2.080 1_565 S
O695 C709 1.305 . S
O696 Zn690 1.920 1_565 S
O696 C709 1.234 . S
C697 O702 1.167 . S
C697 O703 1.299 . S
O698 Zn692 2.114 . S
O698 C693 1.166 . S
O699 Zn691 1.905 . S
O699 C693 1.182 . S
O700 Zn691 1.898 1_665 S
O700 C694 1.167 . S
O701 Zn692 2.120 1_665 S
O701 C694 1.299 . S
O702 Zn690 1.898 . S
O702 C697 1.167 . S
O703 Zn692 2.120 . S
O703 C697 1.299 . S
O704 Zn692 2.114 1_655 S
O704 C706 1.166 1_545 S
O705 Zn690 1.905 1_665 S
O705 C706 1.182 . S
C706 O704 1.166 1_565 S
C706 O705 1.182 . S
O707 Zn692 2.080 . S
O707 C710 1.305 1_545 S
O708 Zn691 1.920 1_565 S
O708 C710 1.234 . S
C709 O695 1.305 . S
C709 O696 1.234 . S
C710 O707 1.305 1_565 S
C710 O708 1.234 . S
Zn711 O717 1.920 . S
Zn711 O723 1.898 1_445 S
Zn711 O726 1.905 . S
Zn712 O720 1.905 1_445 S
Zn712 O721 1.898 . S
Zn712 O729 1.920 1_455 S
Zn713 O716 2.080 . S
Zn713 O719 2.114 1_545 S
Zn713 O722 2.120 . S
Zn713 O724 2.120 1_445 S
Zn713 O725 2.114 . S
Zn713 O728 2.080 1_455 S
C714 O719 1.168 . S
C714 O720 1.180 1_455 S
C715 O721 1.167 . S
C715 O722 1.299 . S
O716 Zn713 2.080 . S
O716 C730 1.305 . S
O717 Zn711 1.920 . S
O717 C730 1.234 . S
C718 O723 1.167 . S
C718 O724 1.299 . S
O719 Zn713 2.114 1_565 S
O719 C714 1.168 . S
O720 Zn712 1.905 1_665 S
O720 C714 1.180 1_655 S
O721 Zn712 1.898 . S
O721 C715 1.167 . S
O722 Zn713 2.120 . S
O722 C715 1.299 . S
O723 Zn711 1.898 1_665 S
O723 C718 1.167 . S
O724 Zn713 2.120 1_665 S
O724 C718 1.299 . S
O725 Zn713 2.114 . S
O725 C727 1.166 . S
O726 Zn711 1.905 . S
O726 C727 1.182 . S
C727 O725 1.166 . S
C727 O726 1.182 . S
O728 Zn713 2.080 1_655 S
O728 C731 1.305 . S
O729 Zn712 1.920 1_655 S
O729 C731 1.234 . S
C730 O716 1.305 . S
C730 O717 1.234 . S
C731 O728 1.305 . S
C731 O729 1.234 . S
Zn732 O738 1.920 . S
Zn732 O744 1.898 . S
Zn732 O747 1.905 . S
Zn733 O741 1.905 . S
Zn733 O742 1.898 . S
Zn733 O750 1.920 . S
Zn734 O737 2.080 . S
Zn734 O740 2.114 . S
Zn734 O743 2.120 . S
Zn734 O745 2.120 . S
Zn734 O746 2.114 . S
Zn734 O749 2.080 . S
C735 O740 1.166 . S
C735 O741 1.182 . S
C736 O742 1.167 . S
C736 O743 1.299 . S
O737 Zn734 2.080 . S
O737 C751 1.305 . S
O738 Zn732 1.920 . S
O738 C751 1.234 . S
C739 O744 1.167 . S
C739 O745 1.299 . S
O740 Zn734 2.114 . S
O740 C735 1.166 . S
O741 Zn733 1.905 . S
O741 C735 1.182 . S
O742 Zn733 1.898 . S
O742 C736 1.167 . S
O743 Zn734 2.120 . S
O743 C736 1.299 . S
O744 Zn732 1.898 . S
O744 C739 1.167 . S
O745 Zn734 2.120 . S
O745 C739 1.299 . S
O746 Zn734 2.114 . S
O746 C748 1.166 . S
O747 Zn732 1.905 . S
O747 C748 1.182 . S
C748 O746 1.166 . S
C748 O747 1.182 . S
O749 Zn734 2.080 . S
O749 C752 1.305 . S
O750 Zn733 1.920 . S
O750 C752 1.234 . S
C751 O737 1.305 . S
C751 O738 1.234 . S
C752 O749 1.305 . S
C752 O750 1.234 . S
Zn753 O759 1.920 . S
Zn753 O765 1.898 . S
Zn753 O768 1.905 . S
Zn754 O762 1.905 . S
Zn754 O763 1.898 . S
Zn754 O771 1.920 . S
Zn755 O758 2.080 . S
Zn755 O761 2.114 . S
Zn755 O764 2.120 . S
Zn755 O766 2.120 . S
Zn755 O767 2.114 . S
Zn755 O770 2.080 . S
C756 O761 1.166 . S
C756 O762 1.182 . S
C757 O763 1.167 . S
C757 O764 1.299 . S
O758 Zn755 2.080 . S
O758 C772 1.305 . S
O759 Zn753 1.920 . S
O759 C772 1.234 . S
C760 O765 1.167 . S
C760 O766 1.299 . S
O761 Zn755 2.114 . S
O761 C756 1.166 . S
O762 Zn754 1.905 . S
O762 C756 1.182 . S
O763 Zn754 1.898 . S
O763 C757 1.167 . S
O764 Zn755 2.120 . S
O764 C757 1.299 . S
O765 Zn753 1.898 . S
O765 C760 1.167 . S
O766 Zn755 2.120 . S
O766 C760 1.299 . S
O767 Zn755 2.114 . S
O767 C769 1.166 . S
O768 Zn753 1.905 . S
O768 C769 1.182 . S
C769 O767 1.166 . S
C769 O768 1.182 . S
O770 Zn755 2.080 . S
O770 C773 1.305 . S
O771 Zn754 1.920 . S
O771 C773 1.234 . S
C772 O758 1.305 . S
C772 O759 1.234 . S
C773 O770 1.305 . S
C773 O771 1.234 . S
Zn774 O780 1.920 . S
Zn774 O786 1.898 . S
Zn774 O789 1.905 . S
Zn775 O783 1.905 . S
Zn775 O784 1.898 . S
Zn775 O792 1.920 . S
Zn776 O779 2.080 . S
Zn776 O782 2.114 . S
Zn776 O785 2.120 . S
Zn776 O787 2.120 . S
Zn776 O788 2.114 . S
Zn776 O791 2.080 . S
C777 O782 1.166 . S
C777 O783 1.182 . S
C778 O784 1.167 . S
C778 O785 1.299 . S
O779 Zn776 2.080 . S
O779 C793 1.305 . S
O780 Zn774 1.920 . S
O780 C793 1.234 . S
C781 O786 1.167 . S
C781 O787 1.299 . S
O782 Zn776 2.114 . S
O782 C777 1.166 . S
O783 Zn775 1.905 . S
O783 C777 1.182 . S
O784 Zn775 1.898 . S
O784 C778 1.167 . S
O785 Zn776 2.120 . S
O785 C778 1.299 . S
O786 Zn774 1.898 . S
O786 C781 1.167 . S
O787 Zn776 2.120 . S
O787 C781 1.299 . S
O788 Zn776 2.114 . S
O788 C790 1.166 . S
O789 Zn774 1.905 . S
O789 C790 1.182 . S
C790 O788 1.166 . S
C790 O789 1.182 . S
O791 Zn776 2.080 . S
O791 C794 1.305 . S
O792 Zn775 1.920 . S
O792 C794 1.234 . S
C793 O779 1.305 . S
C793 O780 1.234 . S
C794 O791 1.305 . S
C794 O792 1.234 . S
Zn795 O801 1.920 . S
Zn795 O807 1.898 . S
Zn795 O810 1.905 . S
Zn796 O804 1.905 . S
Zn796 O805 1.898 . S
Zn796 O813 1.920 . S
Zn797 O800 2.080 . S
Zn797 O803 2.114 . S
Zn797 O806 2.120 . S
Zn797 O808 2.120 . S
Zn797 O809 2.114 . S
Zn797 O812 2.080 . S
C798 O803 1.166 . S
C798 O804 1.182 . S
C799 O805 1.167 . S
C799 O806 1.299 . S
O800 Zn797 2.080 . S
O800 C814 1.305 1_556 S
O801 Zn795 1.920 . S
O801 C814 1.234 . S
C802 O807 1.167 . S
C802 O808 1.299 1_554 S
O803 Zn797 2.114 . S
O803 C798 1.166 . S
O804 Zn796 1.905 . S
O804 C798 1.182 . S
O805 Zn796 1.898 . S
O805 C799 1.167 . S
O806 Zn797 2.120 . S
O806 C799 1.299 . S
O807 Zn795 1.898 . S
O807 C802 1.167 . S
O808 Zn797 2.120 . S
O808 C802 1.299 1_556 S
O809 Zn797 2.114 . S
O809 C811 1.166 1_556 S
O810 Zn795 1.905 . S
O810 C811 1.182 . S
C811 O809 1.166 1_554 S
C811 O810 1.182 . S
O812 Zn797 2.080 . S
O812 C815 1.305 . S
O813 Zn796 1.920 . S
O813 C815 1.234 . S
C814 O800 1.305 1_554 S
C814 O801 1.234 . S
C815 O812 1.305 . S
C815 O813 1.234 . S
Zn816 O822 1.920 . S
Zn816 O828 1.898 . S
Zn816 O831 1.905 . S
Zn817 O825 1.905 . S
Zn817 O826 1.898 . S
Zn817 O834 1.920 . S
Zn818 O821 2.080 . S
Zn818 O824 2.114 . S
Zn818 O827 2.120 . S
Zn818 O829 2.120 . S
Zn818 O830 2.114 . S
Zn818 O833 2.080 . S
C819 O824 1.166 . S
C819 O825 1.182 . S
C820 O826 1.167 . S
C820 O827 1.299 . S
O821 Zn818 2.080 . S
O821 C835 1.305 . S
O822 Zn816 1.920 . S
O822 C835 1.234 . S
C823 O828 1.167 . S
C823 O829 1.299 . S
O824 Zn818 2.114 . S
O824 C819 1.166 . S
O825 Zn817 1.905 . S
O825 C819 1.182 . S
O826 Zn817 1.898 . S
O826 C820 1.167 . S
O827 Zn818 2.120 . S
O827 C820 1.299 . S
O828 Zn816 1.898 . S
O828 C823 1.167 . S
O829 Zn818 2.120 . S
O829 C823 1.299 . S
O830 Zn818 2.114 . S
O830 C832 1.166 . S
O831 Zn816 1.905 . S
O831 C832 1.182 . S
C832 O830 1.166 . S
C832 O831 1.182 . S
O833 Zn818 2.080 . S
O833 C836 1.305 . S
O834 Zn817 1.920 . S
O834 C836 1.234 . S
C835 O821 1.305 . S
C835 O822 1.234 . S
C836 O833 1.305 . S
C836 O834 1.234 . S
Zn837 O843 1.920 . S
Zn837 O849 1.898 . S
Zn837 O852 1.905 . S
Zn838 O846 1.905 . S
Zn838 O847 1.898 . S
Zn838 O855 1.920 . S
Zn839 O842 2.080 . S
Zn839 O845 2.114 . S
Zn839 O848 2.120 . S
Zn839 O850 2.120 . S
Zn839 O851 2.114 . S
Zn839 O854 2.080 . S
C840 O845 1.166 1_556 S
C840 O846 1.182 . S
C841 O847 1.167 . S
C841 O848 1.299 1_556 S
O842 Zn839 2.080 . S
O842 C856 1.305 . S
O843 Zn837 1.920 . S
O843 C856 1.234 . S
C844 O849 1.167 . S
C844 O850 1.299 . S
O845 Zn839 2.114 . S
O845 C840 1.166 1_554 S
O846 Zn838 1.905 . S
O846 C840 1.182 . S
O847 Zn838 1.898 . S
O847 C841 1.167 . S
O848 Zn839 2.120 . S
O848 C841 1.299 1_554 S
O849 Zn837 1.898 . S
O849 C844 1.167 . S
O850 Zn839 2.120 . S
O850 C844 1.299 . S
O851 Zn839 2.114 . S
O851 C853 1.166 . S
O852 Zn837 1.905 . S
O852 C853 1.182 . S
C853 O851 1.166 . S
C853 O852 1.182 . S
O854 Zn839 2.080 . S
O854 C857 1.305 1_554 S
O855 Zn838 1.920 . S
O855 C857 1.234 . S
C856 O842 1.305 . S
C856 O843 1.234 . S
C857 O854 1.305 1_556 S
C857 O855 1.234 . S
Zn858 O864 1.920 . S
Zn858 O870 1.898 . S
Zn858 O873 1.905 . S
Zn859 O867 1.905 . S
Zn859 O868 1.898 . S
Zn859 O876 1.920 . S
Zn860 O863 2.080 . S
Zn860 O866 2.114 . S
Zn860 O869 2.120 . S
Zn860 O871 2.120 . S
Zn860 O872 2.114 . S
Zn860 O875 2.080 . S
C861 O866 1.166 . S
C861 O867 1.182 . S
C862 O868 1.167 . S
C862 O869 1.299 . S
O863 Zn860 2.080 . S
O863 C877 1.305 . S
O864 Zn858 1.920 . S
O864 C877 1.234 . S
C865 O870 1.167 . S
C865 O871 1.299 . S
O866 Zn860 2.114 . S
O866 C861 1.166 . S
O867 Zn859 1.905 . S
O867 C861 1.182 . S
O868 Zn859 1.898 . S
O868 C862 1.167 . S
O869 Zn860 2.120 . S
O869 C862 1.299 . S
O870 Zn858 1.898 . S
O870 C865 1.167 . S
O871 Zn860 2.120 . S
O871 C865 1.299 . S
O872 Zn860 2.114 . S
O872 C874 1.166 . S
O873 Zn858 1.905 . S
O873 C874 1.182 . S
C874 O872 1.166 . S
C874 O873 1.182 . S
O875 Zn860 2.080 . S
O875 C878 1.305 . S
O876 Zn859 1.920 . S
O876 C878 1.234 . S
C877 O863 1.305 . S
C877 O864 1.234 . S
C878 O875 1.305 . S
C878 O876 1.234 . S
Zn879 O885 1.920 . S
Zn879 O891 1.898 . S
Zn879 O894 1.905 . S
Zn880 O888 1.905 . S
Zn880 O889 1.898 . S
Zn880 O897 1.920 . S
Zn881 O884 2.080 . S
Zn881 O887 2.114 . S
Zn881 O890 2.120 . S
Zn881 O892 2.120 . S
Zn881 O893 2.114 . S
Zn881 O896 2.080 . S
C882 O887 1.166 . S
C882 O888 1.182 . S
C883 O889 1.167 . S
C883 O890 1.299 . S
O884 Zn881 2.080 . S
O884 C898 1.305 . S
O885 Zn879 1.920 . S
O885 C898 1.234 . S
C886 O891 1.167 . S
C886 O892 1.299 . S
O887 Zn881 2.114 . S
O887 C882 1.166 . S
O888 Zn880 1.905 . S
O888 C882 1.182 . S
O889 Zn880 1.898 . S
O889 C883 1.167 . S
O890 Zn881 2.120 . S
O890 C883 1.299 . S
O891 Zn879 1.898 . S
O891 C886 1.167 . S
O892 Zn881 2.120 . S
O892 C886 1.299 . S
O893 Zn881 2.114 . S
O893 C895 1.166 . S
O894 Zn879 1.905 . S
O894 C895 1.182 . S
C895 O893 1.166 . S
C895 O894 1.182 . S
O896 Zn881 2.080 . S
O896 C899 1.305 . S
O897 Zn880 1.920 . S
O897 C899 1.234 . S
C898 O884 1.305 . S
C898 O885 1.234 . S
C899 O896 1.305 . S
C899 O897 1.234 . S
H900 C906 0.930 . S
H901 C909 0.930 . S
H902 C910 0.930 . S
H903 C911 0.930 . S
H904 C914 0.930 . S
H905 C915 0.930 . S
C906 H900 0.930 . S
C906 C907 1.355 . S
C906 C908 1.415 . S
C907 C906 1.355 . S
C907 C909 1.419 . S
C908 C906 1.415 . S
C908 C913 1.425 . S
C908 C915 1.409 . S
C909 H901 0.930 . S
C909 C907 1.419 . S
C909 C910 1.362 . S
C910 H902 0.930 . S
C910 C909 1.362 . S
C910 C913 1.409 . S
C911 H903 0.930 . S
C911 C912 1.355 . S
C911 C913 1.415 . S
C912 C911 1.355 . S
C912 C914 1.419 . S
C913 C908 1.425 . S
C913 C910 1.409 . S
C913 C911 1.415 . S
C914 H904 0.930 . S
C914 C912 1.419 . S
C914 C915 1.362 . S
C915 H905 0.930 . S
C915 C908 1.409 . S
C915 C914 1.362 . S
H916 C922 0.930 . S
H917 C925 0.930 . S
H918 C926 0.930 . S
H919 C927 0.930 . S
H920 C930 0.930 . S
H921 C931 0.930 . S
C922 H916 0.930 . S
C922 C923 1.355 1_565 S
C922 C924 1.415 1_565 S
C923 C922 1.355 1_545 S
C923 C925 1.419 . S
C924 C922 1.415 1_545 S
C924 C929 1.425 . S
C924 C931 1.409 1_545 S
C925 H917 0.930 . S
C925 C923 1.419 . S
C925 C926 1.362 . S
C926 H918 0.930 . S
C926 C925 1.362 . S
C926 C929 1.409 . S
C927 H919 0.930 . S
C927 C928 1.355 . S
C927 C929 1.415 . S
C928 C927 1.355 . S
C928 C930 1.419 1_545 S
C929 C924 1.425 . S
C929 C926 1.409 . S
C929 C927 1.415 . S
C930 H920 0.930 . S
C930 C928 1.419 1_565 S
C930 C931 1.362 . S
C931 H921 0.930 . S
C931 C924 1.409 1_565 S
C931 C930 1.362 . S
H932 C938 0.930 . S
H933 C941 0.930 . S
H934 C942 0.930 . S
H935 C943 0.930 . S
H936 C946 0.930 . S
H937 C947 0.930 . S
C938 H932 0.930 . S
C938 C939 1.355 . S
C938 C940 1.415 . S
C939 C938 1.355 . S
C939 C941 1.419 . S
C940 C938 1.415 . S
C940 C945 1.425 . S
C940 C947 1.409 . S
C941 H933 0.930 . S
C941 C939 1.419 . S
C941 C942 1.362 . S
C942 H934 0.930 . S
C942 C941 1.362 . S
C942 C945 1.409 . S
C943 H935 0.930 . S
C943 C944 1.355 . S
C943 C945 1.415 . S
C944 C943 1.355 . S
C944 C946 1.419 . S
C945 C940 1.425 . S
C945 C942 1.409 . S
C945 C943 1.415 . S
C946 H936 0.930 . S
C946 C944 1.419 . S
C946 C947 1.362 . S
C947 H937 0.930 . S
C947 C940 1.409 . S
C947 C946 1.362 . S
H948 C954 0.930 . S
H949 C957 0.930 . S
H950 C958 0.930 . S
H951 C959 0.930 . S
H952 C962 0.930 . S
H953 C963 0.930 . S
C954 H948 0.930 . S
C954 C955 1.355 . S
C954 C956 1.415 . S
C955 C954 1.355 . S
C955 C957 1.419 . S
C956 C954 1.415 . S
C956 C961 1.425 . S
C956 C963 1.409 . S
C957 H949 0.930 . S
C957 C955 1.419 . S
C957 C958 1.362 . S
C958 H950 0.930 . S
C958 C957 1.362 . S
C958 C961 1.409 . S
C959 H951 0.930 . S
C959 C960 1.355 . S
C959 C961 1.415 . S
C960 C959 1.355 . S
C960 C962 1.419 . S
C961 C956 1.425 . S
C961 C958 1.409 . S
C961 C959 1.415 . S
C962 H952 0.930 . S
C962 C960 1.419 . S
C962 C963 1.362 . S
C963 H953 0.930 . S
C963 C956 1.409 . S
C963 C962 1.362 . S
H964 C970 0.930 . S
H965 C973 0.930 . S
H966 C974 0.930 . S
H967 C975 0.930 . S
H968 C978 0.930 . S
H969 C979 0.930 . S
C970 H964 0.930 . S
C970 C971 1.355 . S
C970 C972 1.415 . S
C971 C970 1.355 . S
C971 C973 1.419 1_545 S
C972 C970 1.415 . S
C972 C977 1.425 1_545 S
C972 C979 1.409 . S
C973 H965 0.930 . S
C973 C971 1.419 1_565 S
C973 C974 1.362 . S
C974 H966 0.930 . S
C974 C973 1.362 . S
C974 C977 1.409 . S
C975 H967 0.930 . S
C975 C976 1.355 1_565 S
C975 C977 1.415 . S
C976 C975 1.355 1_545 S
C976 C978 1.419 . S
C977 C972 1.425 1_565 S
C977 C974 1.409 . S
C977 C975 1.415 . S
C978 H968 0.930 . S
C978 C976 1.419 . S
C978 C979 1.362 . S
C979 H969 0.930 . S
C979 C972 1.409 . S
C979 C978 1.362 . S
H980 C986 0.930 . S
H981 C989 0.930 . S
H982 C990 0.930 . S
H983 C991 0.930 1_655 S
H984 C994 0.930 . S
H985 C995 0.930 . S
C986 H980 0.930 . S
C986 C987 1.355 . S
C986 C988 1.415 . S
C987 C986 1.355 . S
C987 C989 1.419 1_455 S
C988 C986 1.415 . S
C988 C993 1.425 . S
C988 C995 1.409 . S
C989 H981 0.930 . S
C989 C987 1.419 1_655 S
C989 C990 1.362 . S
C990 H982 0.930 . S
C990 C989 1.362 . S
C990 C993 1.409 1_655 S
C991 H983 0.930 1_455 S
C991 C992 1.355 . S
C991 C993 1.415 . S
C992 C991 1.355 . S
C992 C994 1.419 . S
C993 C988 1.425 . S
C993 C990 1.409 1_455 S
C993 C991 1.415 . S
C994 H984 0.930 . S
C994 C992 1.419 . S
C994 C995 1.362 . S
C995 H985 0.930 . S
C995 C988 1.409 . S
C995 C994 1.362 . S
H996 C1002 0.930 . S
H997 C1005 0.930 . S
H998 C1006 0.930 . S
H999 C1007 0.930 . S
H1000 C1010 0.930 . S
H1001 C1011 0.930 . S
C1002 H996 0.930 . S
C1002 C1003 1.355 . S
C1002 C1004 1.415 . S
C1003 C1002 1.355 . S
C1003 C1005 1.419 . S
C1004 C1002 1.415 . S
C1004 C1009 1.425 . S
C1004 C1011 1.409 . S
C1005 H997 0.930 . S
C1005 C1003 1.419 . S
C1005 C1006 1.362 . S
C1006 H998 0.930 . S
C1006 C1005 1.362 . S
C1006 C1009 1.409 . S
C1007 H999 0.930 . S
C1007 C1008 1.355 . S
C1007 C1009 1.415 . S
C1008 C1007 1.355 . S
C1008 C1010 1.419 . S
C1009 C1004 1.425 . S
C1009 C1006 1.409 . S
C1009 C1007 1.415 . S
C1010 H1000 0.930 . S
C1010 C1008 1.419 . S
C1010 C1011 1.362 . S
C1011 H1001 0.930 . S
C1011 C1004 1.409 . S
C1011 C1010 1.362 . S
H1012 C1018 0.930 . S
H1013 C1021 0.930 . S
H1014 C1022 0.930 . S
H1015 C1023 0.930 . S
H1016 C1026 0.930 . S
H1017 C1027 0.930 . S
C1018 H1012 0.930 . S
C1018 C1019 1.355 . S
C1018 C1020 1.415 . S
C1019 C1018 1.355 . S
C1019 C1021 1.419 1_545 S
C1020 C1018 1.415 . S
C1020 C1025 1.425 1_545 S
C1020 C1027 1.409 . S
C1021 H1013 0.930 . S
C1021 C1019 1.419 1_565 S
C1021 C1022 1.362 . S
C1022 H1014 0.930 . S
C1022 C1021 1.362 . S
C1022 C1025 1.409 . S
C1023 H1015 0.930 . S
C1023 C1024 1.361 . S
C1023 C1025 1.415 . S
C1024 C1023 1.361 . S
C1024 C1026 1.413 1_565 S
C1025 C1020 1.425 1_565 S
C1025 C1022 1.409 . S
C1025 C1023 1.415 . S
C1026 H1016 0.930 . S
C1026 C1024 1.413 1_545 S
C1026 C1027 1.362 . S
C1027 H1017 0.930 . S
C1027 C1020 1.409 . S
C1027 C1026 1.362 . S
H1028 C1034 0.930 1_655 S
H1029 C1037 0.930 . S
H1030 C1038 0.930 . S
H1031 C1039 0.930 . S
H1032 C1042 0.930 1_655 S
H1033 C1043 0.930 . S
C1034 H1028 0.930 1_455 S
C1034 C1035 1.355 . S
C1034 C1036 1.415 . S
C1035 C1034 1.355 . S
C1035 C1037 1.419 . S
C1036 C1034 1.415 . S
C1036 C1041 1.425 . S
C1036 C1043 1.409 1_455 S
C1037 H1029 0.930 . S
C1037 C1035 1.419 . S
C1037 C1038 1.362 . S
C1038 H1030 0.930 . S
C1038 C1037 1.362 . S
C1038 C1041 1.409 . S
C1039 H1031 0.930 . S
C1039 C1040 1.355 . S
C1039 C1041 1.415 . S
C1040 C1039 1.355 . S
C1040 C1042 1.419 . S
C1041 C1036 1.425 . S
C1041 C1038 1.409 . S
C1041 C1039 1.415 . S
C1042 H1032 0.930 1_455 S
C1042 C1040 1.419 . S
C1042 C1043 1.362 1_455 S
C1043 H1033 0.930 . S
C1043 C1036 1.409 1_655 S
C1043 C1042 1.362 1_655 S
H1044 C1050 0.930 . S
H1045 C1053 0.930 . S
H1046 C1054 0.930 . S
H1047 C1055 0.930 . S
H1048 C1058 0.930 . S
H1049 C1059 0.930 . S
C1050 H1044 0.930 . S
C1050 C1051 1.355 . S
C1050 C1052 1.415 . S
C1051 C1050 1.355 . S
C1051 C1053 1.419 . S
C1052 C1050 1.415 . S
C1052 C1057 1.425 . S
C1052 C1059 1.409 . S
C1053 H1045 0.930 . S
C1053 C1051 1.419 . S
C1053 C1054 1.362 . S
C1054 H1046 0.930 . S
C1054 C1053 1.362 . S
C1054 C1057 1.409 . S
C1055 H1047 0.930 . S
C1055 C1056 1.355 . S
C1055 C1057 1.415 . S
C1056 C1055 1.355 . S
C1056 C1058 1.419 . S
C1057 C1052 1.425 . S
C1057 C1054 1.409 . S
C1057 C1055 1.415 . S
C1058 H1048 0.930 . S
C1058 C1056 1.419 . S
C1058 C1059 1.362 . S
C1059 H1049 0.930 . S
C1059 C1052 1.409 . S
C1059 C1058 1.362 . S
H1060 C1066 0.930 . S
H1061 C1069 0.930 . S
H1062 C1070 0.930 . S
H1063 C1071 0.930 . S
H1064 C1074 0.930 . S
H1065 C1075 0.930 . S
C1066 H1060 0.930 . S
C1066 C1067 1.355 . S
C1066 C1068 1.415 . S
C1067 C1066 1.355 . S
C1067 C1069 1.419 . S
C1068 C1066 1.415 . S
C1068 C1073 1.425 . S
C1068 C1075 1.409 . S
C1069 H1061 0.930 . S
C1069 C1067 1.419 . S
C1069 C1070 1.362 . S
C1070 H1062 0.930 . S
C1070 C1069 1.362 . S
C1070 C1073 1.409 . S
C1071 H1063 0.930 . S
C1071 C1072 1.355 . S
C1071 C1073 1.415 . S
C1072 C1071 1.355 . S
C1072 C1074 1.419 . S
C1073 C1068 1.425 . S
C1073 C1070 1.409 . S
C1073 C1071 1.415 . S
C1074 H1064 0.930 . S
C1074 C1072 1.419 . S
C1074 C1075 1.362 . S
C1075 H1065 0.930 . S
C1075 C1068 1.409 . S
C1075 C1074 1.362 . S
H1076 C1082 0.930 . S
H1077 C1085 0.930 . S
H1078 C1086 0.930 1_655 S
H1079 C1087 0.930 1_655 S
H1080 C1090 0.930 . S
H1081 C1091 0.930 . S
C1082 H1076 0.930 . S
C1082 C1083 1.355 . S
C1082 C1084 1.415 . S
C1083 C1082 1.355 . S
C1083 C1085 1.419 . S
C1084 C1082 1.415 . S
C1084 C1089 1.425 . S
C1084 C1091 1.409 . S
C1085 H1077 0.930 . S
C1085 C1083 1.419 . S
C1085 C1086 1.362 . S
C1086 H1078 0.930 1_455 S
C1086 C1085 1.362 . S
C1086 C1089 1.409 . S
C1087 H1079 0.930 1_455 S
C1087 C1088 1.355 . S
C1087 C1089 1.415 . S
C1088 C1087 1.355 . S
C1088 C1090 1.419 . S
C1089 C1084 1.425 . S
C1089 C1086 1.409 . S
C1089 C1087 1.415 . S
C1090 H1080 0.930 . S
C1090 C1088 1.419 . S
C1090 C1091 1.362 . S
C1091 H1081 0.930 . S
C1091 C1084 1.409 . S
C1091 C1090 1.362 . S
H1092 C1098 0.930 . S
H1093 C1101 0.930 . S
H1094 C1102 0.930 . S
H1095 C1103 0.930 . S
H1096 C1106 0.930 . S
H1097 C1107 0.930 . S
C1098 H1092 0.930 . S
C1098 C1099 1.355 . S
C1098 C1100 1.415 . S
C1099 C1098 1.355 . S
C1099 C1101 1.419 . S
C1100 C1098 1.415 . S
C1100 C1105 1.425 . S
C1100 C1107 1.409 . S
C1101 H1093 0.930 . S
C1101 C1099 1.419 . S
C1101 C1102 1.362 . S
C1102 H1094 0.930 . S
C1102 C1101 1.362 . S
C1102 C1105 1.409 . S
C1103 H1095 0.930 . S
C1103 C1104 1.355 . S
C1103 C1105 1.415 . S
C1104 C1103 1.355 . S
C1104 C1106 1.419 . S
C1105 C1100 1.425 . S
C1105 C1102 1.409 . S
C1105 C1103 1.415 . S
C1106 H1096 0.930 . S
C1106 C1104 1.419 . S
C1106 C1107 1.362 . S
C1107 H1097 0.930 . S
C1107 C1100 1.409 . S
C1107 C1106 1.362 . S
H1108 C1114 0.930 . S
H1109 C1117 0.930 . S
H1110 C1118 0.930 . S
H1111 C1119 0.930 . S
H1112 C1122 0.930 . S
H1113 C1123 0.930 . S
C1114 H1108 0.930 . S
C1114 C1115 1.355 . S
C1114 C1116 1.415 . S
C1115 C1114 1.355 . S
C1115 C1117 1.419 . S
C1116 C1114 1.415 . S
C1116 C1121 1.425 . S
C1116 C1123 1.409 . S
C1117 H1109 0.930 . S
C1117 C1115 1.419 . S
C1117 C1118 1.362 . S
C1118 H1110 0.930 . S
C1118 C1117 1.362 . S
C1118 C1121 1.409 . S
C1119 H1111 0.930 . S
C1119 C1120 1.355 . S
C1119 C1121 1.415 . S
C1120 C1119 1.355 . S
C1120 C1122 1.419 . S
C1121 C1116 1.425 . S
C1121 C1118 1.409 . S
C1121 C1119 1.415 . S
C1122 H1112 0.930 . S
C1122 C1120 1.419 . S
C1122 C1123 1.362 . S
C1123 H1113 0.930 . S
C1123 C1116 1.409 . S
C1123 C1122 1.362 . S
H1124 C1130 0.930 . S
H1125 C1133 0.930 . S
H1126 C1134 0.930 . S
H1127 C1135 0.930 . S
H1128 C1138 0.930 . S
H1129 C1139 0.930 . S
C1130 H1124 0.930 . S
C1130 C1131 1.355 . S
C1130 C1132 1.415 . S
C1131 C1130 1.355 . S
C1131 C1133 1.419 . S
C1132 C1130 1.415 . S
C1132 C1137 1.425 . S
C1132 C1139 1.409 . S
C1133 H1125 0.930 . S
C1133 C1131 1.419 . S
C1133 C1134 1.362 . S
C1134 H1126 0.930 . S
C1134 C1133 1.362 . S
C1134 C1137 1.409 . S
C1135 H1127 0.930 . S
C1135 C1136 1.355 . S
C1135 C1137 1.415 . S
C1136 C1135 1.355 . S
C1136 C1138 1.419 . S
C1137 C1132 1.425 . S
C1137 C1134 1.409 . S
C1137 C1135 1.415 . S
C1138 H1128 0.930 . S
C1138 C1136 1.419 . S
C1138 C1139 1.362 . S
C1139 H1129 0.930 . S
C1139 C1132 1.409 . S
C1139 C1138 1.362 . S
H1140 C1146 0.930 . S
H1141 C1149 0.930 . S
H1142 C1150 0.930 . S
H1143 C1151 0.930 . S
H1144 C1154 0.930 . S
H1145 C1155 0.930 . S
C1146 H1140 0.930 . S
C1146 C1147 1.355 . S
C1146 C1148 1.415 . S
C1147 C1146 1.355 . S
C1147 C1149 1.419 . S
C1148 C1146 1.415 . S
C1148 C1153 1.425 . S
C1148 C1155 1.409 . S
C1149 H1141 0.930 . S
C1149 C1147 1.419 . S
C1149 C1150 1.362 . S
C1150 H1142 0.930 . S
C1150 C1149 1.362 . S
C1150 C1153 1.409 . S
C1151 H1143 0.930 . S
C1151 C1152 1.355 . S
C1151 C1153 1.415 . S
C1152 C1151 1.355 . S
C1152 C1154 1.419 . S
C1153 C1148 1.425 . S
C1153 C1150 1.409 . S
C1153 C1151 1.415 . S
C1154 H1144 0.930 . S
C1154 C1152 1.419 . S
C1154 C1155 1.362 . S
C1155 H1145 0.930 . S
C1155 C1148 1.409 . S
C1155 C1154 1.362 . S
H1156 C1162 0.930 . S
H1157 C1165 0.930 . S
H1158 C1166 0.930 . S
H1159 C1167 0.930 . S
H1160 C1170 0.930 . S
H1161 C1171 0.930 . S
C1162 H1156 0.930 . S
C1162 C1163 1.355 . S
C1162 C1164 1.415 . S
C1163 C1162 1.355 . S
C1163 C1165 1.419 . S
C1164 C1162 1.415 . S
C1164 C1169 1.425 . S
C1164 C1171 1.409 . S
C1165 H1157 0.930 . S
C1165 C1163 1.419 . S
C1165 C1166 1.362 . S
C1166 H1158 0.930 . S
C1166 C1165 1.362 . S
C1166 C1169 1.409 . S
C1167 H1159 0.930 . S
C1167 C1168 1.355 . S
C1167 C1169 1.415 . S
C1168 C1167 1.355 . S
C1168 C1170 1.419 . S
C1169 C1164 1.425 . S
C1169 C1166 1.409 . S
C1169 C1167 1.415 . S
C1170 H1160 0.930 . S
C1170 C1168 1.419 . S
C1170 C1171 1.362 . S
C1171 H1161 0.930 . S
C1171 C1164 1.409 . S
C1171 C1170 1.362 . S
H1172 C1178 0.930 . S
H1173 C1181 0.930 . S
H1174 C1182 0.930 . S
H1175 C1183 0.930 . S
H1176 C1186 0.930 . S
H1177 C1187 0.930 . S
C1178 H1172 0.930 . S
C1178 C1179 1.355 . S
C1178 C1180 1.415 . S
C1179 C1178 1.355 . S
C1179 C1181 1.419 . S
C1180 C1178 1.415 . S
C1180 C1185 1.425 . S
C1180 C1187 1.409 . S
C1181 H1173 0.930 . S
C1181 C1179 1.419 . S
C1181 C1182 1.362 . S
C1182 H1174 0.930 . S
C1182 C1181 1.362 . S
C1182 C1185 1.409 . S
C1183 H1175 0.930 . S
C1183 C1184 1.355 . S
C1183 C1185 1.415 . S
C1184 C1183 1.355 . S
C1184 C1186 1.419 . S
C1185 C1180 1.425 . S
C1185 C1182 1.409 . S
C1185 C1183 1.415 . S
C1186 H1176 0.930 . S
C1186 C1184 1.419 . S
C1186 C1187 1.362 . S
C1187 H1177 0.930 . S
C1187 C1180 1.409 . S
C1187 C1186 1.362 . S
H1188 C1194 0.930 . S
H1189 C1197 0.930 . S
H1190 C1198 0.930 . S
H1191 C1199 0.930 . S
H1192 C1202 0.930 . S
H1193 C1203 0.930 . S
C1194 H1188 0.930 . S
C1194 C1195 1.355 . S
C1194 C1196 1.415 . S
C1195 C1194 1.355 . S
C1195 C1197 1.419 . S
C1196 C1194 1.415 . S
C1196 C1201 1.425 . S
C1196 C1203 1.409 . S
C1197 H1189 0.930 . S
C1197 C1195 1.419 . S
C1197 C1198 1.362 . S
C1198 H1190 0.930 . S
C1198 C1197 1.362 . S
C1198 C1201 1.409 . S
C1199 H1191 0.930 . S
C1199 C1200 1.355 . S
C1199 C1201 1.415 . S
C1200 C1199 1.355 . S
C1200 C1202 1.419 . S
C1201 C1196 1.425 . S
C1201 C1198 1.409 . S
C1201 C1199 1.415 . S
C1202 H1192 0.930 . S
C1202 C1200 1.419 . S
C1202 C1203 1.362 . S
C1203 H1193 0.930 . S
C1203 C1196 1.409 . S
C1203 C1202 1.362 . S
H1204 C1210 0.930 . S
H1205 C1213 0.930 . S
H1206 C1214 0.930 . S
H1207 C1215 0.930 . S
H1208 C1218 0.930 . S
H1209 C1219 0.930 . S
C1210 H1204 0.930 . S
C1210 C1211 1.355 . S
C1210 C1212 1.415 . S
C1211 C1210 1.355 . S
C1211 C1213 1.419 . S
C1212 C1210 1.415 . S
C1212 C1217 1.425 . S
C1212 C1219 1.409 . S
C1213 H1205 0.930 . S
C1213 C1211 1.419 . S
C1213 C1214 1.362 . S
C1214 H1206 0.930 . S
C1214 C1213 1.362 . S
C1214 C1217 1.409 . S
C1215 H1207 0.930 . S
C1215 C1216 1.355 . S
C1215 C1217 1.415 . S
C1216 C1215 1.355 . S
C1216 C1218 1.419 . S
C1217 C1212 1.425 . S
C1217 C1214 1.409 . S
C1217 C1215 1.415 . S
C1218 H1208 0.930 . S
C1218 C1216 1.419 . S
C1218 C1219 1.362 . S
C1219 H1209 0.930 . S
C1219 C1212 1.409 . S
C1219 C1218 1.362 . S
H1220 C1226 0.930 . S
H1221 C1229 0.930 . S
H1222 C1230 0.930 . S
H1223 C1231 0.930 . S
H1224 C1234 0.930 . S
H1225 C1235 0.930 . S
C1226 H1220 0.930 . S
C1226 C1227 1.355 . S
C1226 C1228 1.415 . S
C1227 C1226 1.355 . S
C1227 C1229 1.419 . S
C1228 C1226 1.415 . S
C1228 C1233 1.425 . S
C1228 C1235 1.409 . S
C1229 H1221 0.930 . S
C1229 C1227 1.419 . S
C1229 C1230 1.362 . S
C1230 H1222 0.930 . S
C1230 C1229 1.362 . S
C1230 C1233 1.409 . S
C1231 H1223 0.930 . S
C1231 C1232 1.355 . S
C1231 C1233 1.415 . S
C1232 C1231 1.355 . S
C1232 C1234 1.419 . S
C1233 C1228 1.425 . S
C1233 C1230 1.409 . S
C1233 C1231 1.415 . S
C1234 H1224 0.930 . S
C1234 C1232 1.419 . S
C1234 C1235 1.362 . S
C1235 H1225 0.930 . S
C1235 C1228 1.409 . S
C1235 C1234 1.362 . S
H1236 C1242 0.930 . S
H1237 C1245 0.930 . S
H1238 C1246 0.930 . S
H1239 C1247 0.930 . S
H1240 C1250 0.918 1_556 S
H1241 C1251 0.930 . S
C1242 H1236 0.930 . S
C1242 C1243 1.355 . S
C1242 C1244 1.415 . S
C1243 C1242 1.355 . S
C1243 C1245 1.419 . S
C1244 C1242 1.415 . S
C1244 C1249 1.425 . S
C1244 C1251 1.409 . S
C1245 H1237 0.930 . S
C1245 C1243 1.419 . S
C1245 C1246 1.362 . S
C1246 H1238 0.930 . S
C1246 C1245 1.362 . S
C1246 C1249 1.409 . S
C1247 H1239 0.930 . S
C1247 C1248 1.355 . S
C1247 C1249 1.415 . S
C1248 C1247 1.355 . S
C1248 C1250 1.419 . S
C1249 C1244 1.425 . S
C1249 C1246 1.409 . S
C1249 C1247 1.415 . S
C1250 H1240 0.918 1_554 S
C1250 C1248 1.419 . S
C1250 C1251 1.362 . S
C1251 H1241 0.930 . S
C1251 C1244 1.409 . S
C1251 C1250 1.362 . S
H1252 C1258 0.930 . S
H1253 C1261 0.930 . S
H1254 C1262 0.930 . S
H1255 C1263 0.930 . S
H1256 C1266 0.930 . S
H1257 C1267 0.930 . S
C1258 H1252 0.930 . S
C1258 C1259 1.355 . S
C1258 C1260 1.415 . S
C1259 C1258 1.355 . S
C1259 C1261 1.419 . S
C1260 C1258 1.415 . S
C1260 C1265 1.425 . S
C1260 C1267 1.409 . S
C1261 H1253 0.930 . S
C1261 C1259 1.419 . S
C1261 C1262 1.362 . S
C1262 H1254 0.930 . S
C1262 C1261 1.362 . S
C1262 C1265 1.409 . S
C1263 H1255 0.930 . S
C1263 C1264 1.355 . S
C1263 C1265 1.415 . S
C1264 C1263 1.355 . S
C1264 C1266 1.419 . S
C1265 C1260 1.425 . S
C1265 C1262 1.409 . S
C1265 C1263 1.415 . S
C1266 H1256 0.930 . S
C1266 C1264 1.419 . S
C1266 C1267 1.362 . S
C1267 H1257 0.930 . S
C1267 C1260 1.409 . S
C1267 C1266 1.362 . S
H1268 C1274 0.930 . S
H1269 C1277 0.930 . S
H1270 C1278 0.930 . S
H1271 C1279 0.930 . S
H1272 C1282 0.930 . S
H1273 C1283 0.930 . S
C1274 H1268 0.930 . S
C1274 C1275 1.355 . S
C1274 C1276 1.415 . S
C1275 C1274 1.355 . S
C1275 C1277 1.419 . S
C1276 C1274 1.415 . S
C1276 C1281 1.425 . S
C1276 C1283 1.409 . S
C1277 H1269 0.930 . S
C1277 C1275 1.419 . S
C1277 C1278 1.362 . S
C1278 H1270 0.930 . S
C1278 C1277 1.362 . S
C1278 C1281 1.409 . S
C1279 H1271 0.930 . S
C1279 C1280 1.355 . S
C1279 C1281 1.415 . S
C1280 C1279 1.355 . S
C1280 C1282 1.419 . S
C1281 C1276 1.425 . S
C1281 C1278 1.409 . S
C1281 C1279 1.415 . S
C1282 H1272 0.930 . S
C1282 C1280 1.419 . S
C1282 C1283 1.362 . S
C1283 H1273 0.930 . S
C1283 C1276 1.409 . S
C1283 C1282 1.362 . S
H1284 C1290 0.930 . S
H1285 C1293 0.930 . S
H1286 C1294 0.930 . S
H1287 C1295 0.930 . S
H1288 C1298 0.930 . S
H1289 C1299 0.930 . S
C1290 H1284 0.930 . S
C1290 C1291 1.355 . S
C1290 C1292 1.415 . S
C1291 C1290 1.355 . S
C1291 C1293 1.419 . S
C1292 C1290 1.415 . S
C1292 C1297 1.425 . S
C1292 C1299 1.409 . S
C1293 H1285 0.930 . S
C1293 C1291 1.419 . S
C1293 C1294 1.362 . S
C1294 H1286 0.930 . S
C1294 C1293 1.362 . S
C1294 C1297 1.409 . S
C1295 H1287 0.930 . S
C1295 C1296 1.355 . S
C1295 C1297 1.415 . S
C1296 C1295 1.355 . S
C1296 C1298 1.419 . S
C1297 C1292 1.425 . S
C1297 C1294 1.409 . S
C1297 C1295 1.415 . S
C1298 H1288 0.930 . S
C1298 C1296 1.419 . S
C1298 C1299 1.362 . S
C1299 H1289 0.930 . S
C1299 C1292 1.409 . S
C1299 C1298 1.362 . S
H1300 C1306 0.930 . S
H1301 C1309 0.930 . S
H1302 C1310 0.930 . S
H1303 C1311 0.930 . S
H1304 C1314 0.930 . S
H1305 C1315 0.930 . S
C1306 H1300 0.930 . S
C1306 C1307 1.355 . S
C1306 C1308 1.415 . S
C1307 C1306 1.355 . S
C1307 C1309 1.419 . S
C1308 C1306 1.415 . S
C1308 C1313 1.425 . S
C1308 C1315 1.409 . S
C1309 H1301 0.930 . S
C1309 C1307 1.419 . S
C1309 C1310 1.362 . S
C1310 H1302 0.930 . S
C1310 C1309 1.362 . S
C1310 C1313 1.409 . S
C1311 H1303 0.930 . S
C1311 C1312 1.355 . S
C1311 C1313 1.415 . S
C1312 C1311 1.355 . S
C1312 C1314 1.419 . S
C1313 C1308 1.425 . S
C1313 C1310 1.409 . S
C1313 C1311 1.415 . S
C1314 H1304 0.930 . S
C1314 C1312 1.419 . S
C1314 C1315 1.362 . S
C1315 H1305 0.930 . S
C1315 C1308 1.409 . S
C1315 C1314 1.362 . S
H1316 C1322 0.930 . S
H1317 C1325 0.930 . S
H1318 C1326 0.930 . S
H1319 C1327 0.930 . S
H1320 C1330 0.930 . S
H1321 C1331 0.930 . S
C1322 H1316 0.930 . S
C1322 C1323 1.355 . S
C1322 C1324 1.415 . S
C1323 C1322 1.355 . S
C1323 C1325 1.419 . S
C1324 C1322 1.415 . S
C1324 C1329 1.425 . S
C1324 C1331 1.409 . S
C1325 H1317 0.930 . S
C1325 C1323 1.419 . S
C1325 C1326 1.362 . S
C1326 H1318 0.930 . S
C1326 C1325 1.362 . S
C1326 C1329 1.409 . S
C1327 H1319 0.930 . S
C1327 C1328 1.355 . S
C1327 C1329 1.415 . S
C1328 C1327 1.355 . S
C1328 C1330 1.419 . S
C1329 C1324 1.425 . S
C1329 C1326 1.409 . S
C1329 C1327 1.415 . S
C1330 H1320 0.930 . S
C1330 C1328 1.419 . S
C1330 C1331 1.362 . S
C1331 H1321 0.930 . S
C1331 C1324 1.409 . S
C1331 C1330 1.362 . S
H1332 C1338 0.930 . S
H1333 C1341 0.930 . S
H1334 C1342 0.930 . S
H1335 C1343 0.930 . S
H1336 C1346 0.930 1_554 S
H1337 C1347 0.930 . S
C1338 H1332 0.930 . S
C1338 C1339 1.355 . S
C1338 C1340 1.415 . S
C1339 C1338 1.355 . S
C1339 C1341 1.419 . S
C1340 C1338 1.415 . S
C1340 C1345 1.425 . S
C1340 C1347 1.409 . S
C1341 H1333 0.930 . S
C1341 C1339 1.419 . S
C1341 C1342 1.362 . S
C1342 H1334 0.930 . S
C1342 C1341 1.362 . S
C1342 C1345 1.409 . S
C1343 H1335 0.930 . S
C1343 C1344 1.355 . S
C1343 C1345 1.415 . S
C1344 C1343 1.355 . S
C1344 C1346 1.419 . S
C1345 C1340 1.425 . S
C1345 C1342 1.409 . S
C1345 C1343 1.415 . S
C1346 H1336 0.930 1_556 S
C1346 C1344 1.419 . S
C1346 C1347 1.362 . S
C1347 H1337 0.930 . S
C1347 C1340 1.409 . S
C1347 C1346 1.362 . S
H1348 C1354 0.930 . S
H1349 C1357 0.930 . S
H1350 C1358 0.930 . S
H1351 C1359 0.930 . S
H1352 C1362 0.930 1_554 S
H1353 C1363 0.930 . S
C1354 H1348 0.930 . S
C1354 C1355 1.355 . S
C1354 C1356 1.415 . S
C1355 C1354 1.355 . S
C1355 C1357 1.419 . S
C1356 C1354 1.415 . S
C1356 C1361 1.425 . S
C1356 C1363 1.409 . S
C1357 H1349 0.930 . S
C1357 C1355 1.419 . S
C1357 C1358 1.362 . S
C1358 H1350 0.930 . S
C1358 C1357 1.362 . S
C1358 C1361 1.409 . S
C1359 H1351 0.930 . S
C1359 C1360 1.355 . S
C1359 C1361 1.415 . S
C1360 C1359 1.355 . S
C1360 C1362 1.419 . S
C1361 C1356 1.425 . S
C1361 C1358 1.409 . S
C1361 C1359 1.415 . S
C1362 H1352 0.930 1_556 S
C1362 C1360 1.419 . S
C1362 C1363 1.362 . S
C1363 H1353 0.930 . S
C1363 C1356 1.409 . S
C1363 C1362 1.362 . S
H1364 C1370 0.930 . S
H1365 C1373 0.930 . S
H1366 C1374 0.930 . S
H1367 C1375 0.930 . S
H1368 C1378 0.930 1_554 S
H1369 C1379 0.930 . S
C1370 H1364 0.930 . S
C1370 C1371 1.355 . S
C1370 C1372 1.415 . S
C1371 C1370 1.355 . S
C1371 C1373 1.419 . S
C1372 C1370 1.415 . S
C1372 C1377 1.425 . S
C1372 C1379 1.409 . S
C1373 H1365 0.930 . S
C1373 C1371 1.419 . S
C1373 C1374 1.362 . S
C1374 H1366 0.930 . S
C1374 C1373 1.362 . S
C1374 C1377 1.409 . S
C1375 H1367 0.930 . S
C1375 C1376 1.355 . S
C1375 C1377 1.415 . S
C1376 C1375 1.355 . S
C1376 C1378 1.419 . S
C1377 C1372 1.425 . S
C1377 C1374 1.409 . S
C1377 C1375 1.415 . S
C1378 H1368 0.930 1_556 S
C1378 C1376 1.419 . S
C1378 C1379 1.362 . S
C1379 H1369 0.930 . S
C1379 C1372 1.409 . S
C1379 C1378 1.362 . S
H1380 C1386 0.930 . S
H1381 C1389 0.930 . S
H1382 C1390 0.930 . S
H1383 C1391 0.930 . S
H1384 C1394 0.930 . S
H1385 C1395 0.930 . S
C1386 H1380 0.930 . S
C1386 C1387 1.355 . S
C1386 C1388 1.415 . S
C1387 C1386 1.355 . S
C1387 C1389 1.419 . S
C1388 C1386 1.415 . S
C1388 C1393 1.425 . S
C1388 C1395 1.409 . S
C1389 H1381 0.930 . S
C1389 C1387 1.419 . S
C1389 C1390 1.362 . S
C1390 H1382 0.930 . S
C1390 C1389 1.362 . S
C1390 C1393 1.409 . S
C1391 H1383 0.930 . S
C1391 C1392 1.355 . S
C1391 C1393 1.415 . S
C1392 C1391 1.355 . S
C1392 C1394 1.419 . S
C1393 C1388 1.425 . S
C1393 C1390 1.409 . S
C1393 C1391 1.415 . S
C1394 H1384 0.930 . S
C1394 C1392 1.419 . S
C1394 C1395 1.362 . S
C1395 H1385 0.930 . S
C1395 C1388 1.409 . S
C1395 C1394 1.362 . S
H1396 C1402 0.930 . S
H1397 C1405 0.930 . S
H1398 C1406 0.930 . S
H1399 C1407 0.930 . S
H1400 C1410 0.930 . S
H1401 C1411 0.930 . S
C1402 H1396 0.930 . S
C1402 C1403 1.355 . S
C1402 C1404 1.415 . S
C1403 C1402 1.355 . S
C1403 C1405 1.419 . S
C1404 C1402 1.415 . S
C1404 C1409 1.425 . S
C1404 C1411 1.409 . S
C1405 H1397 0.930 . S
C1405 C1403 1.419 . S
C1405 C1406 1.362 . S
C1406 H1398 0.930 . S
C1406 C1405 1.362 . S
C1406 C1409 1.409 . S
C1407 H1399 0.930 . S
C1407 C1408 1.355 . S
C1407 C1409 1.415 . S
C1408 C1407 1.355 . S
C1408 C1410 1.419 . S
C1409 C1404 1.425 . S
C1409 C1406 1.409 . S
C1409 C1407 1.415 . S
C1410 H1400 0.930 . S
C1410 C1408 1.419 . S
C1410 C1411 1.362 . S
C1411 H1401 0.930 . S
C1411 C1404 1.409 . S
C1411 C1410 1.362 . S
H1412 C1418 0.930 . S
H1413 C1421 0.930 . S
H1414 C1422 0.930 . S
H1415 C1423 0.930 . S
H1416 C1426 0.930 . S
H1417 C1427 0.930 . S
C1418 H1412 0.930 . S
C1418 C1419 1.355 . S
C1418 C1420 1.415 . S
C1419 C1418 1.355 . S
C1419 C1421 1.419 . S
C1420 C1418 1.415 . S
C1420 C1425 1.425 . S
C1420 C1427 1.409 . S
C1421 H1413 0.930 . S
C1421 C1419 1.419 . S
C1421 C1422 1.362 . S
C1422 H1414 0.930 . S
C1422 C1421 1.362 . S
C1422 C1425 1.409 . S
C1423 H1415 0.930 . S
C1423 C1424 1.355 . S
C1423 C1425 1.415 . S
C1424 C1423 1.355 . S
C1424 C1426 1.419 . S
C1425 C1420 1.425 . S
C1425 C1422 1.409 . S
C1425 C1423 1.415 . S
C1426 H1416 0.930 . S
C1426 C1424 1.419 . S
C1426 C1427 1.362 . S
C1427 H1417 0.930 . S
C1427 C1420 1.409 . S
C1427 C1426 1.362 . S
H1428 C1434 0.930 . S
H1429 C1437 0.930 . S
H1430 C1438 0.930 . S
H1431 C1439 0.930 . S
H1432 C1442 0.930 . S
H1433 C1443 0.930 . S
C1434 H1428 0.930 . S
C1434 C1435 1.355 . S
C1434 C1436 1.415 . S
C1435 C1434 1.355 . S
C1435 C1437 1.419 . S
C1436 C1434 1.415 . S
C1436 C1441 1.425 . S
C1436 C1443 1.409 . S
C1437 H1429 0.930 . S
C1437 C1435 1.419 . S
C1437 C1438 1.362 . S
C1438 H1430 0.930 . S
C1438 C1437 1.362 . S
C1438 C1441 1.409 . S
C1439 H1431 0.930 . S
C1439 C1440 1.355 . S
C1439 C1441 1.415 . S
C1440 C1439 1.355 . S
C1440 C1442 1.419 . S
C1441 C1436 1.425 . S
C1441 C1438 1.409 . S
C1441 C1439 1.415 . S
C1442 H1432 0.930 . S
C1442 C1440 1.419 . S
C1442 C1443 1.362 . S
C1443 H1433 0.930 . S
C1443 C1436 1.409 . S
C1443 C1442 1.362 . S
H1444 C1450 0.930 . S
H1445 C1453 0.930 . S
H1446 C1454 0.930 . S
H1447 C1455 0.930 . S
H1448 C1458 0.930 . S
H1449 C1459 0.930 . S
C1450 H1444 0.930 . S
C1450 C1451 1.355 . S
C1450 C1452 1.415 . S
C1451 C1450 1.355 . S
C1451 C1453 1.419 . S
C1452 C1450 1.415 . S
C1452 C1457 1.425 . S
C1452 C1459 1.409 . S
C1453 H1445 0.930 . S
C1453 C1451 1.419 . S
C1453 C1454 1.362 . S
C1454 H1446 0.930 . S
C1454 C1453 1.362 . S
C1454 C1457 1.409 . S
C1455 H1447 0.930 . S
C1455 C1456 1.355 . S
C1455 C1457 1.415 . S
C1456 C1455 1.355 . S
C1456 C1458 1.419 . S
C1457 C1452 1.425 . S
C1457 C1454 1.409 . S
C1457 C1455 1.415 . S
C1458 H1448 0.930 . S
C1458 C1456 1.419 . S
C1458 C1459 1.362 . S
C1459 H1449 0.930 . S
C1459 C1452 1.409 . S
C1459 C1458 1.362 . S
H1460 C1466 0.930 . S
H1461 C1469 0.930 . S
H1462 C1470 0.930 . S
H1463 C1471 0.930 . S
H1464 C1474 0.930 . S
H1465 C1475 0.930 . S
C1466 H1460 0.930 . S
C1466 C1467 1.355 . S
C1466 C1468 1.415 . S
C1467 C1466 1.355 . S
C1467 C1469 1.419 . S
C1468 C1466 1.415 . S
C1468 C1473 1.425 . S
C1468 C1475 1.409 . S
C1469 H1461 0.930 . S
C1469 C1467 1.419 . S
C1469 C1470 1.362 . S
C1470 H1462 0.930 . S
C1470 C1469 1.362 . S
C1470 C1473 1.409 . S
C1471 H1463 0.930 . S
C1471 C1472 1.355 . S
C1471 C1473 1.415 . S
C1472 C1471 1.355 . S
C1472 C1474 1.419 . S
C1473 C1468 1.425 . S
C1473 C1470 1.409 . S
C1473 C1471 1.415 . S
C1474 H1464 0.930 . S
C1474 C1472 1.419 . S
C1474 C1475 1.362 . S
C1475 H1465 0.930 . S
C1475 C1468 1.409 . S
C1475 C1474 1.362 . S
H1476 C1482 0.930 . S
H1477 C1485 0.930 . S
H1478 C1486 0.930 . S
H1479 C1487 0.930 . S
H1480 C1490 0.930 . S
H1481 C1491 0.930 . S
C1482 H1476 0.930 . S
C1482 C1483 1.355 . S
C1482 C1484 1.415 . S
C1483 C1482 1.355 . S
C1483 C1485 1.419 . S
C1484 C1482 1.415 . S
C1484 C1489 1.425 . S
C1484 C1491 1.409 . S
C1485 H1477 0.930 . S
C1485 C1483 1.419 . S
C1485 C1486 1.362 . S
C1486 H1478 0.930 . S
C1486 C1485 1.362 . S
C1486 C1489 1.409 . S
C1487 H1479 0.930 . S
C1487 C1488 1.355 . S
C1487 C1489 1.415 . S
C1488 C1487 1.355 . S
C1488 C1490 1.419 . S
C1489 C1484 1.425 . S
C1489 C1486 1.409 . S
C1489 C1487 1.415 . S
C1490 H1480 0.930 . S
C1490 C1488 1.419 . S
C1490 C1491 1.362 . S
C1491 H1481 0.930 . S
C1491 C1484 1.409 . S
C1491 C1490 1.362 . S
H1492 C1498 0.930 . S
H1493 C1501 0.930 . S
H1494 C1502 0.930 . S
H1495 C1503 0.930 . S
H1496 C1506 0.930 . S
H1497 C1507 0.930 . S
C1498 H1492 0.930 . S
C1498 C1499 1.355 . S
C1498 C1500 1.415 . S
C1499 C1498 1.355 . S
C1499 C1501 1.419 1_655 S
C1500 C1498 1.415 . S
C1500 C1505 1.425 . S
C1500 C1507 1.409 . S
C1501 H1493 0.930 . S
C1501 C1499 1.419 1_455 S
C1501 C1502 1.362 . S
C1502 H1494 0.930 . S
C1502 C1501 1.362 . S
C1502 C1505 1.409 1_455 S
C1503 H1495 0.930 . S
C1503 C1504 1.355 1_455 S
C1503 C1505 1.415 1_455 S
C1504 C1503 1.355 1_655 S
C1504 C1506 1.419 . S
C1505 C1500 1.425 . S
C1505 C1502 1.409 1_655 S
C1505 C1503 1.415 1_655 S
C1506 H1496 0.930 . S
C1506 C1504 1.419 . S
C1506 C1507 1.362 . S
C1507 H1497 0.930 . S
C1507 C1500 1.409 . S
C1507 C1506 1.362 . S
H1508 C1514 0.930 . S
H1509 C1517 0.930 . S
H1510 C1518 0.930 . S
H1511 C1519 0.930 . S
H1512 C1522 0.930 . S
H1513 C1523 0.930 . S
C1514 H1508 0.930 . S
C1514 C1515 1.355 . S
C1514 C1516 1.415 . S
C1515 C1514 1.355 . S
C1515 C1517 1.419 . S
C1516 C1514 1.415 . S
C1516 C1521 1.425 . S
C1516 C1523 1.409 . S
C1517 H1509 0.930 . S
C1517 C1515 1.419 . S
C1517 C1518 1.362 . S
C1518 H1510 0.930 . S
C1518 C1517 1.362 . S
C1518 C1521 1.409 . S
C1519 H1511 0.930 . S
C1519 C1520 1.355 . S
C1519 C1521 1.415 . S
C1520 C1519 1.355 . S
C1520 C1522 1.419 . S
C1521 C1516 1.425 . S
C1521 C1518 1.409 . S
C1521 C1519 1.415 . S
C1522 H1512 0.930 . S
C1522 C1520 1.419 . S
C1522 C1523 1.362 . S
C1523 H1513 0.930 . S
C1523 C1516 1.409 . S
C1523 C1522 1.362 . S
H1524 C1530 0.930 . S
H1525 C1533 0.930 . S
H1526 C1534 0.930 . S
H1527 C1535 0.930 . S
H1528 C1538 0.930 . S
H1529 C1539 0.930 . S
C1530 H1524 0.930 . S
C1530 C1531 1.355 . S
C1530 C1532 1.415 . S
C1531 C1530 1.355 . S
C1531 C1533 1.419 . S
C1532 C1530 1.415 . S
C1532 C1537 1.425 . S
C1532 C1539 1.409 . S
C1533 H1525 0.930 . S
C1533 C1531 1.419 . S
C1533 C1534 1.362 . S
C1534 H1526 0.930 . S
C1534 C1533 1.362 . S
C1534 C1537 1.409 . S
C1535 H1527 0.930 . S
C1535 C1536 1.355 . S
C1535 C1537 1.415 . S
C1536 C1535 1.355 . S
C1536 C1538 1.419 . S
C1537 C1532 1.425 . S
C1537 C1534 1.409 . S
C1537 C1535 1.415 . S
C1538 H1528 0.930 . S
C1538 C1536 1.419 . S
C1538 C1539 1.362 . S
C1539 H1529 0.930 . S
C1539 C1532 1.409 . S
C1539 C1538 1.362 . S
H1540 C1546 0.930 . S
H1541 C1549 0.930 . S
H1542 C1550 0.930 . S
H1543 C1551 0.930 . S
H1544 C1554 0.930 . S
H1545 C1555 0.930 . S
C1546 H1540 0.930 . S
C1546 C1547 1.355 . S
C1546 C1548 1.415 . S
C1547 C1546 1.355 . S
C1547 C1549 1.419 . S
C1548 C1546 1.415 . S
C1548 C1553 1.425 . S
C1548 C1555 1.409 . S
C1549 H1541 0.930 . S
C1549 C1547 1.419 . S
C1549 C1550 1.362 . S
C1550 H1542 0.930 . S
C1550 C1549 1.362 . S
C1550 C1553 1.409 . S
C1551 H1543 0.930 . S
C1551 C1552 1.355 . S
C1551 C1553 1.415 . S
C1552 C1551 1.355 . S
C1552 C1554 1.419 . S
C1553 C1548 1.425 . S
C1553 C1550 1.409 . S
C1553 C1551 1.415 . S
C1554 H1544 0.930 . S
C1554 C1552 1.419 . S
C1554 C1555 1.362 . S
C1555 H1545 0.930 . S
C1555 C1548 1.409 . S
C1555 C1554 1.362 . S
H1556 C1562 0.930 . S
H1557 C1565 0.930 . S
H1558 C1566 0.930 . S
H1559 C1567 0.930 . S
H1560 C1570 0.930 . S
H1561 C1571 0.930 . S
C1562 H1556 0.930 . S
C1562 C1563 1.355 . S
C1562 C1564 1.415 . S
C1563 C1562 1.355 . S
C1563 C1565 1.419 1_565 S
C1564 C1562 1.415 . S
C1564 C1569 1.425 1_565 S
C1564 C1571 1.409 . S
C1565 H1557 0.930 . S
C1565 C1563 1.419 1_545 S
C1565 C1566 1.362 . S
C1566 H1558 0.930 . S
C1566 C1565 1.362 . S
C1566 C1569 1.409 . S
C1567 H1559 0.930 . S
C1567 C1568 1.355 1_545 S
C1567 C1569 1.415 . S
C1568 C1567 1.355 1_565 S
C1568 C1570 1.419 . S
C1569 C1564 1.425 1_545 S
C1569 C1566 1.409 . S
C1569 C1567 1.415 . S
C1570 H1560 0.930 . S
C1570 C1568 1.419 . S
C1570 C1571 1.362 . S
C1571 H1561 0.930 . S
C1571 C1564 1.409 . S
C1571 C1570 1.362 . S
H1572 C1578 0.930 . S
H1573 C1581 0.930 1_545 S
H1574 C1582 0.926 1_545 S
H1575 C1583 0.930 . S
H1576 C1586 0.930 . S
H1577 C1587 0.930 . S
C1578 H1572 0.930 . S
C1578 C1579 1.355 . S
C1578 C1580 1.415 . S
C1579 C1578 1.355 . S
C1579 C1581 1.419 . S
C1580 C1578 1.415 . S
C1580 C1585 1.425 . S
C1580 C1587 1.409 . S
C1581 H1573 0.930 1_565 S
C1581 C1579 1.419 . S
C1581 C1582 1.355 . S
C1582 H1574 0.926 1_565 S
C1582 C1581 1.355 . S
C1582 C1585 1.420 . S
C1583 H1575 0.930 . S
C1583 C1584 1.355 . S
C1583 C1585 1.415 . S
C1584 C1583 1.355 . S
C1584 C1586 1.419 . S
C1585 C1580 1.425 . S
C1585 C1582 1.420 . S
C1585 C1583 1.415 . S
C1586 H1576 0.930 . S
C1586 C1584 1.419 . S
C1586 C1587 1.362 . S
C1587 H1577 0.930 . S
C1587 C1580 1.409 . S
C1587 C1586 1.362 . S
H1588 C1594 0.930 . S
H1589 C1597 0.930 . S
H1590 C1598 0.930 . S
H1591 C1599 0.930 . S
H1592 C1602 0.930 . S
H1593 C1603 0.930 . S
C1594 H1588 0.930 . S
C1594 C1595 1.355 . S
C1594 C1596 1.415 . S
C1595 C1594 1.355 . S
C1595 C1597 1.419 . S
C1596 C1594 1.415 . S
C1596 C1601 1.425 . S
C1596 C1603 1.409 . S
C1597 H1589 0.930 . S
C1597 C1595 1.419 . S
C1597 C1598 1.362 . S
C1598 H1590 0.930 . S
C1598 C1597 1.362 . S
C1598 C1601 1.409 . S
C1599 H1591 0.930 . S
C1599 C1600 1.355 . S
C1599 C1601 1.415 . S
C1600 C1599 1.355 . S
C1600 C1602 1.419 . S
C1601 C1596 1.425 . S
C1601 C1598 1.409 . S
C1601 C1599 1.415 . S
C1602 H1592 0.930 . S
C1602 C1600 1.419 . S
C1602 C1603 1.362 . S
C1603 H1593 0.930 . S
C1603 C1596 1.409 . S
C1603 C1602 1.362 . S
H1604 C1610 0.930 . S
H1605 C1613 0.930 . S
H1606 C1614 0.930 . S
H1607 C1615 0.930 . S
H1608 C1618 0.930 . S
H1609 C1619 0.930 . S
C1610 H1604 0.930 . S
C1610 C1611 1.355 . S
C1610 C1612 1.415 . S
C1611 C1610 1.355 . S
C1611 C1613 1.419 . S
C1612 C1610 1.415 . S
C1612 C1617 1.425 . S
C1612 C1619 1.409 . S
C1613 H1605 0.930 . S
C1613 C1611 1.419 . S
C1613 C1614 1.362 . S
C1614 H1606 0.930 . S
C1614 C1613 1.362 . S
C1614 C1617 1.409 . S
C1615 H1607 0.930 . S
C1615 C1616 1.355 . S
C1615 C1617 1.415 . S
C1616 C1615 1.355 . S
C1616 C1618 1.419 . S
C1617 C1612 1.425 . S
C1617 C1614 1.409 . S
C1617 C1615 1.415 . S
C1618 H1608 0.930 . S
C1618 C1616 1.419 . S
C1618 C1619 1.362 . S
C1619 H1609 0.930 . S
C1619 C1612 1.409 . S
C1619 C1618 1.362 . S
H1620 C1626 0.930 . S
H1621 C1629 0.930 . S
H1622 C1630 0.930 . S
H1623 C1631 0.930 . S
H1624 C1634 0.930 . S
H1625 C1635 0.930 . S
C1626 H1620 0.930 . S
C1626 C1627 1.355 1_455 S
C1626 C1628 1.415 . S
C1627 C1626 1.355 1_655 S
C1627 C1629 1.419 . S
C1628 C1626 1.415 . S
C1628 C1633 1.425 1_455 S
C1628 C1635 1.409 . S
C1629 H1621 0.930 . S
C1629 C1627 1.419 . S
C1629 C1630 1.362 . S
C1630 H1622 0.930 . S
C1630 C1629 1.362 . S
C1630 C1633 1.409 . S
C1631 H1623 0.930 . S
C1631 C1632 1.355 . S
C1631 C1633 1.415 . S
C1632 C1631 1.355 . S
C1632 C1634 1.419 1_655 S
C1633 C1628 1.425 1_655 S
C1633 C1630 1.409 . S
C1633 C1631 1.415 . S
C1634 H1624 0.930 . S
C1634 C1632 1.419 1_455 S
C1634 C1635 1.362 . S
C1635 H1625 0.930 . S
C1635 C1628 1.409 . S
C1635 C1634 1.362 . S
H1636 C1642 0.930 . S
H1637 C1645 0.930 . S
H1638 C1646 0.930 . S
H1639 C1647 0.930 . S
H1640 C1650 0.930 . S
H1641 C1651 0.930 . S
C1642 H1636 0.930 . S
C1642 C1643 1.355 . S
C1642 C1644 1.415 . S
C1643 C1642 1.355 . S
C1643 C1645 1.419 . S
C1644 C1642 1.415 . S
C1644 C1649 1.425 . S
C1644 C1651 1.409 . S
C1645 H1637 0.930 . S
C1645 C1643 1.419 . S
C1645 C1646 1.362 . S
C1646 H1638 0.930 . S
C1646 C1645 1.362 . S
C1646 C1649 1.409 . S
C1647 H1639 0.930 . S
C1647 C1648 1.355 . S
C1647 C1649 1.415 . S
C1648 C1647 1.355 . S
C1648 C1650 1.419 . S
C1649 C1644 1.425 . S
C1649 C1646 1.409 . S
C1649 C1647 1.415 . S
C1650 H1640 0.930 . S
C1650 C1648 1.419 . S
C1650 C1651 1.362 . S
C1651 H1641 0.930 . S
C1651 C1644 1.409 . S
C1651 C1650 1.362 . S
H1652 C1658 0.930 . S
H1653 C1661 0.930 . S
H1654 C1662 0.930 . S
H1655 C1663 0.930 . S
H1656 C1666 0.930 . S
H1657 C1667 0.930 . S
C1658 H1652 0.930 . S
C1658 C1659 1.355 . S
C1658 C1660 1.415 . S
C1659 C1658 1.355 . S
C1659 C1661 1.419 . S
C1660 C1658 1.415 . S
C1660 C1665 1.425 . S
C1660 C1667 1.409 . S
C1661 H1653 0.930 . S
C1661 C1659 1.419 . S
C1661 C1662 1.362 . S
C1662 H1654 0.930 . S
C1662 C1661 1.362 . S
C1662 C1665 1.409 . S
C1663 H1655 0.930 . S
C1663 C1664 1.355 . S
C1663 C1665 1.415 . S
C1664 C1663 1.355 . S
C1664 C1666 1.419 . S
C1665 C1660 1.425 . S
C1665 C1662 1.409 . S
C1665 C1663 1.415 . S
C1666 H1656 0.930 . S
C1666 C1664 1.419 . S
C1666 C1667 1.362 . S
C1667 H1657 0.930 . S
C1667 C1660 1.409 . S
C1667 C1666 1.362 . S
H1668 C1674 0.930 . S
H1669 C1677 0.930 . S
H1670 C1678 0.930 . S
H1671 C1679 0.930 . S
H1672 C1682 0.930 . S
H1673 C1683 0.930 . S
C1674 H1668 0.930 . S
C1674 C1675 1.355 . S
C1674 C1676 1.415 . S
C1675 C1674 1.355 . S
C1675 C1677 1.419 . S
C1676 C1674 1.415 . S
C1676 C1681 1.425 . S
C1676 C1683 1.409 . S
C1677 H1669 0.930 . S
C1677 C1675 1.419 . S
C1677 C1678 1.362 . S
C1678 H1670 0.930 . S
C1678 C1677 1.362 . S
C1678 C1681 1.409 . S
C1679 H1671 0.930 . S
C1679 C1680 1.355 . S
C1679 C1681 1.415 . S
C1680 C1679 1.355 . S
C1680 C1682 1.419 . S
C1681 C1676 1.425 . S
C1681 C1678 1.409 . S
C1681 C1679 1.415 . S
C1682 H1672 0.930 . S
C1682 C1680 1.419 . S
C1682 C1683 1.362 . S
C1683 H1673 0.930 . S
C1683 C1676 1.409 . S
C1683 C1682 1.362 . S
H1684 C1690 0.930 . S
H1685 C1693 0.930 . S
H1686 C1694 0.930 . S
H1687 C1695 0.930 . S
H1688 C1698 0.930 . S
H1689 C1699 0.930 . S
C1690 H1684 0.930 . S
C1690 C1691 1.355 . S
C1690 C1692 1.415 . S
C1691 C1690 1.355 . S
C1691 C1693 1.419 . S
C1692 C1690 1.415 . S
C1692 C1697 1.425 . S
C1692 C1699 1.409 . S
C1693 H1685 0.930 . S
C1693 C1691 1.419 . S
C1693 C1694 1.362 . S
C1694 H1686 0.930 . S
C1694 C1693 1.362 . S
C1694 C1697 1.409 . S
C1695 H1687 0.930 . S
C1695 C1696 1.355 . S
C1695 C1697 1.415 . S
C1696 C1695 1.355 . S
C1696 C1698 1.419 . S
C1697 C1692 1.425 . S
C1697 C1694 1.409 . S
C1697 C1695 1.415 . S
C1698 H1688 0.930 . S
C1698 C1696 1.419 . S
C1698 C1699 1.362 . S
C1699 H1689 0.930 . S
C1699 C1692 1.409 . S
C1699 C1698 1.362 . S
H1700 C1706 0.930 . S
H1701 C1709 0.930 . S
H1702 C1710 0.930 . S
H1703 C1711 0.930 . S
H1704 C1714 0.930 . S
H1705 C1715 0.930 . S
C1706 H1700 0.930 . S
C1706 C1707 1.355 . S
C1706 C1708 1.415 . S
C1707 C1706 1.355 . S
C1707 C1709 1.419 . S
C1708 C1706 1.415 . S
C1708 C1713 1.425 . S
C1708 C1715 1.409 . S
C1709 H1701 0.930 . S
C1709 C1707 1.419 . S
C1709 C1710 1.362 . S
C1710 H1702 0.930 . S
C1710 C1709 1.362 . S
C1710 C1713 1.409 . S
C1711 H1703 0.930 . S
C1711 C1712 1.355 . S
C1711 C1713 1.415 . S
C1712 C1711 1.355 . S
C1712 C1714 1.419 . S
C1713 C1708 1.425 . S
C1713 C1710 1.409 . S
C1713 C1711 1.415 . S
C1714 H1704 0.930 . S
C1714 C1712 1.419 . S
C1714 C1715 1.362 . S
C1715 H1705 0.930 . S
C1715 C1708 1.409 . S
C1715 C1714 1.362 . S
H1716 C1722 0.930 . S
H1717 C1725 0.930 . S
H1718 C1726 0.930 . S
H1719 C1727 0.930 . S
H1720 C1730 0.930 . S
H1721 C1731 0.930 . S
C1722 H1716 0.930 . S
C1722 C1723 1.355 . S
C1722 C1724 1.415 . S
C1723 C1722 1.355 . S
C1723 C1725 1.419 . S
C1724 C1722 1.415 . S
C1724 C1729 1.425 . S
C1724 C1731 1.409 . S
C1725 H1717 0.930 . S
C1725 C1723 1.419 . S
C1725 C1726 1.362 . S
C1726 H1718 0.930 . S
C1726 C1725 1.362 . S
C1726 C1729 1.409 . S
C1727 H1719 0.930 . S
C1727 C1728 1.355 . S
C1727 C1729 1.415 . S
C1728 C1727 1.355 . S
C1728 C1730 1.419 . S
C1729 C1724 1.425 . S
C1729 C1726 1.409 . S
C1729 C1727 1.415 . S
C1730 H1720 0.930 . S
C1730 C1728 1.419 . S
C1730 C1731 1.362 . S
C1731 H1721 0.930 . S
C1731 C1724 1.409 . S
C1731 C1730 1.362 . S
H1732 C1738 0.930 . S
H1733 C1741 0.930 . S
H1734 C1742 0.930 . S
H1735 C1743 0.930 . S
H1736 C1746 0.930 . S
H1737 C1747 0.930 . S
C1738 H1732 0.930 . S
C1738 C1739 1.355 . S
C1738 C1740 1.415 . S
C1739 C1738 1.355 . S
C1739 C1741 1.419 . S
C1740 C1738 1.415 . S
C1740 C1745 1.425 . S
C1740 C1747 1.409 . S
C1741 H1733 0.930 . S
C1741 C1739 1.419 . S
C1741 C1742 1.362 . S
C1742 H1734 0.930 . S
C1742 C1741 1.362 . S
C1742 C1745 1.409 . S
C1743 H1735 0.930 . S
C1743 C1744 1.355 . S
C1743 C1745 1.415 . S
C1744 C1743 1.355 . S
C1744 C1746 1.419 . S
C1745 C1740 1.425 . S
C1745 C1742 1.409 . S
C1745 C1743 1.415 . S
C1746 H1736 0.930 . S
C1746 C1744 1.419 . S
C1746 C1747 1.362 . S
C1747 H1737 0.930 . S
C1747 C1740 1.409 . S
C1747 C1746 1.362 . S
H1748 C1754 0.930 . S
H1749 C1757 0.930 . S
H1750 C1758 0.930 . S
H1751 C1759 0.930 . S
H1752 C1762 0.930 . S
H1753 C1763 0.930 . S
C1754 H1748 0.930 . S
C1754 C1755 1.355 . S
C1754 C1756 1.415 . S
C1755 C1754 1.355 . S
C1755 C1757 1.419 . S
C1756 C1754 1.415 . S
C1756 C1761 1.425 . S
C1756 C1763 1.409 . S
C1757 H1749 0.930 . S
C1757 C1755 1.419 . S
C1757 C1758 1.362 . S
C1758 H1750 0.930 . S
C1758 C1757 1.362 . S
C1758 C1761 1.409 . S
C1759 H1751 0.930 . S
C1759 C1760 1.355 . S
C1759 C1761 1.415 . S
C1760 C1759 1.355 . S
C1760 C1762 1.419 . S
C1761 C1756 1.425 . S
C1761 C1758 1.409 . S
C1761 C1759 1.415 . S
C1762 H1752 0.930 . S
C1762 C1760 1.419 . S
C1762 C1763 1.362 . S
C1763 H1753 0.930 . S
C1763 C1756 1.409 . S
C1763 C1762 1.362 . S
H1764 C1770 0.930 . S
H1765 C1773 0.930 . S
H1766 C1774 0.930 . S
H1767 C1775 0.930 . S
H1768 C1778 0.930 . S
H1769 C1779 0.930 . S
C1770 H1764 0.930 . S
C1770 C1771 1.355 . S
C1770 C1772 1.415 . S
C1771 C1770 1.355 . S
C1771 C1773 1.419 . S
C1772 C1770 1.415 . S
C1772 C1777 1.425 . S
C1772 C1779 1.409 . S
C1773 H1765 0.930 . S
C1773 C1771 1.419 . S
C1773 C1774 1.362 . S
C1774 H1766 0.930 . S
C1774 C1773 1.362 . S
C1774 C1777 1.409 . S
C1775 H1767 0.930 . S
C1775 C1776 1.355 . S
C1775 C1777 1.415 . S
C1776 C1775 1.355 . S
C1776 C1778 1.419 . S
C1777 C1772 1.425 . S
C1777 C1774 1.409 . S
C1777 C1775 1.415 . S
C1778 H1768 0.930 . S
C1778 C1776 1.419 . S
C1778 C1779 1.362 . S
C1779 H1769 0.930 . S
C1779 C1772 1.409 . S
C1779 C1778 1.362 . S
H1780 C1786 0.930 . S
H1781 C1789 0.930 . S
H1782 C1790 0.930 . S
H1783 C1791 0.930 . S
H1784 C1794 0.930 . S
H1785 C1795 0.930 . S
C1786 H1780 0.930 . S
C1786 C1787 1.355 . S
C1786 C1788 1.415 . S
C1787 C1786 1.355 . S
C1787 C1789 1.419 . S
C1788 C1786 1.415 . S
C1788 C1793 1.425 . S
C1788 C1795 1.409 . S
C1789 H1781 0.930 . S
C1789 C1787 1.419 . S
C1789 C1790 1.362 . S
C1790 H1782 0.930 . S
C1790 C1789 1.362 . S
C1790 C1793 1.409 . S
C1791 H1783 0.930 . S
C1791 C1792 1.355 . S
C1791 C1793 1.415 . S
C1792 C1791 1.355 . S
C1792 C1794 1.419 . S
C1793 C1788 1.425 . S
C1793 C1790 1.409 . S
C1793 C1791 1.415 . S
C1794 H1784 0.930 . S
C1794 C1792 1.419 . S
C1794 C1795 1.362 . S
C1795 H1785 0.930 . S
C1795 C1788 1.409 . S
C1795 C1794 1.362 . S
H1796 C1802 0.930 . S
H1797 C1805 0.930 . S
H1798 C1806 0.930 . S
H1799 C1807 0.930 . S
H1800 C1810 0.930 . S
H1801 C1811 0.930 . S
C1802 H1796 0.930 . S
C1802 C1803 1.355 . S
C1802 C1804 1.415 . S
C1803 C1802 1.355 . S
C1803 C1805 1.419 . S
C1804 C1802 1.415 . S
C1804 C1809 1.425 . S
C1804 C1811 1.409 . S
C1805 H1797 0.930 . S
C1805 C1803 1.419 . S
C1805 C1806 1.362 . S
C1806 H1798 0.930 . S
C1806 C1805 1.362 . S
C1806 C1809 1.409 . S
C1807 H1799 0.930 . S
C1807 C1808 1.355 . S
C1807 C1809 1.415 . S
C1808 C1807 1.355 . S
C1808 C1810 1.419 . S
C1809 C1804 1.425 . S
C1809 C1806 1.409 . S
C1809 C1807 1.415 . S
C1810 H1800 0.930 . S
C1810 C1808 1.419 . S
C1810 C1811 1.362 . S
C1811 H1801 0.930 . S
C1811 C1804 1.409 . S
C1811 C1810 1.362 . S
H1812 C1818 0.930 . S
H1813 C1821 0.930 . S
H1814 C1822 0.930 . S
H1815 C1823 0.930 . S
H1816 C1826 0.930 . S
H1817 C1827 0.930 . S
C1818 H1812 0.930 . S
C1818 C1819 1.355 . S
C1818 C1820 1.415 . S
C1819 C1818 1.355 . S
C1819 C1821 1.419 . S
C1820 C1818 1.415 . S
C1820 C1825 1.425 . S
C1820 C1827 1.409 . S
C1821 H1813 0.930 . S
C1821 C1819 1.419 . S
C1821 C1822 1.362 . S
C1822 H1814 0.930 . S
C1822 C1821 1.362 . S
C1822 C1825 1.409 . S
C1823 H1815 0.930 . S
C1823 C1824 1.355 . S
C1823 C1825 1.415 . S
C1824 C1823 1.355 . S
C1824 C1826 1.419 . S
C1825 C1820 1.425 . S
C1825 C1822 1.409 . S
C1825 C1823 1.415 . S
C1826 H1816 0.930 . S
C1826 C1824 1.419 . S
C1826 C1827 1.362 . S
C1827 H1817 0.930 . S
C1827 C1820 1.409 . S
C1827 C1826 1.362 . S
H1828 C1834 0.930 . S
H1829 C1837 0.930 . S
H1830 C1838 0.930 . S
H1831 C1839 0.930 . S
H1832 C1842 0.930 . S
H1833 C1843 0.930 . S
C1834 H1828 0.930 . S
C1834 C1835 1.355 . S
C1834 C1836 1.415 . S
C1835 C1834 1.355 . S
C1835 C1837 1.419 . S
C1836 C1834 1.415 . S
C1836 C1841 1.425 . S
C1836 C1843 1.409 . S
C1837 H1829 0.930 . S
C1837 C1835 1.419 . S
C1837 C1838 1.362 . S
C1838 H1830 0.930 . S
C1838 C1837 1.362 . S
C1838 C1841 1.409 . S
C1839 H1831 0.930 . S
C1839 C1840 1.355 . S
C1839 C1841 1.415 . S
C1840 C1839 1.355 . S
C1840 C1842 1.419 . S
C1841 C1836 1.425 . S
C1841 C1838 1.409 . S
C1841 C1839 1.415 . S
C1842 H1832 0.930 . S
C1842 C1840 1.419 . S
C1842 C1843 1.362 . S
C1843 H1833 0.930 . S
C1843 C1836 1.409 . S
C1843 C1842 1.362 . S
H1844 C1850 0.930 . S
H1845 C1853 0.930 . S
H1846 C1854 0.930 . S
H1847 C1855 0.930 . S
H1848 C1858 0.930 . S
H1849 C1859 0.930 . S
C1850 H1844 0.930 . S
C1850 C1851 1.355 . S
C1850 C1852 1.415 . S
C1851 C1850 1.355 . S
C1851 C1853 1.419 . S
C1852 C1850 1.415 . S
C1852 C1857 1.425 . S
C1852 C1859 1.409 . S
C1853 H1845 0.930 . S
C1853 C1851 1.419 . S
C1853 C1854 1.362 . S
C1854 H1846 0.930 . S
C1854 C1853 1.362 . S
C1854 C1857 1.409 . S
C1855 H1847 0.930 . S
C1855 C1856 1.355 . S
C1855 C1857 1.415 . S
C1856 C1855 1.355 . S
C1856 C1858 1.419 . S
C1857 C1852 1.425 . S
C1857 C1854 1.409 . S
C1857 C1855 1.415 . S
C1858 H1848 0.930 . S
C1858 C1856 1.419 . S
C1858 C1859 1.362 . S
C1859 H1849 0.930 . S
C1859 C1852 1.409 . S
C1859 C1858 1.362 . S
H1860 C1866 0.930 . S
H1861 C1869 0.930 . S
H1862 C1870 0.930 . S
H1863 C1871 0.930 . S
H1864 C1874 0.930 . S
H1865 C1875 0.930 . S
C1866 H1860 0.930 . S
C1866 C1867 1.355 . S
C1866 C1868 1.415 . S
C1867 C1866 1.355 . S
C1867 C1869 1.419 . S
C1868 C1866 1.415 . S
C1868 C1873 1.425 . S
C1868 C1875 1.409 . S
C1869 H1861 0.930 . S
C1869 C1867 1.419 . S
C1869 C1870 1.362 . S
C1870 H1862 0.930 . S
C1870 C1869 1.362 . S
C1870 C1873 1.409 . S
C1871 H1863 0.930 . S
C1871 C1872 1.355 . S
C1871 C1873 1.415 . S
C1872 C1871 1.355 . S
C1872 C1874 1.419 . S
C1873 C1868 1.425 . S
C1873 C1870 1.409 . S
C1873 C1871 1.415 . S
C1874 H1864 0.930 . S
C1874 C1872 1.419 . S
C1874 C1875 1.362 . S
C1875 H1865 0.930 . S
C1875 C1868 1.409 . S
C1875 C1874 1.362 . S
H1876 C1882 0.930 . S
H1877 C1885 0.930 . S
H1878 C1886 0.930 . S
H1879 C1887 0.930 . S
H1880 C1890 0.930 . S
H1881 C1891 0.930 . S
C1882 H1876 0.930 . S
C1882 C1883 1.355 . S
C1882 C1884 1.415 . S
C1883 C1882 1.355 . S
C1883 C1885 1.419 . S
C1884 C1882 1.415 . S
C1884 C1889 1.425 . S
C1884 C1891 1.409 . S
C1885 H1877 0.930 . S
C1885 C1883 1.419 . S
C1885 C1886 1.362 . S
C1886 H1878 0.930 . S
C1886 C1885 1.362 . S
C1886 C1889 1.409 . S
C1887 H1879 0.930 . S
C1887 C1888 1.355 . S
C1887 C1889 1.415 . S
C1888 C1887 1.355 . S
C1888 C1890 1.419 . S
C1889 C1884 1.425 . S
C1889 C1886 1.409 . S
C1889 C1887 1.415 . S
C1890 H1880 0.930 . S
C1890 C1888 1.419 . S
C1890 C1891 1.362 . S
C1891 H1881 0.930 . S
C1891 C1884 1.409 . S
C1891 C1890 1.362 . S
H1892 C1898 0.930 . S
H1893 C1901 0.930 . S
H1894 C1902 0.930 . S
H1895 C1903 0.930 . S
H1896 C1906 0.930 . S
H1897 C1907 0.930 . S
C1898 H1892 0.930 . S
C1898 C1899 1.355 . S
C1898 C1900 1.415 . S
C1899 C1898 1.355 . S
C1899 C1901 1.419 . S
C1900 C1898 1.415 . S
C1900 C1905 1.425 . S
C1900 C1907 1.409 . S
C1901 H1893 0.930 . S
C1901 C1899 1.419 . S
C1901 C1902 1.362 . S
C1902 H1894 0.930 . S
C1902 C1901 1.362 . S
C1902 C1905 1.409 . S
C1903 H1895 0.930 . S
C1903 C1904 1.355 . S
C1903 C1905 1.415 . S
C1904 C1903 1.355 . S
C1904 C1906 1.419 . S
C1905 C1900 1.425 . S
C1905 C1902 1.409 . S
C1905 C1903 1.415 . S
C1906 H1896 0.930 . S
C1906 C1904 1.419 . S
C1906 C1907 1.362 . S
C1907 H1897 0.930 . S
C1907 C1900 1.409 . S
C1907 C1906 1.362 . S
H1908 C1914 0.930 . S
H1909 C1917 0.930 . S
H1910 C1918 0.930 . S
H1911 C1919 0.930 . S
H1912 C1922 0.930 . S
H1913 C1923 0.930 . S
C1914 H1908 0.930 . S
C1914 C1915 1.355 . S
C1914 C1916 1.415 . S
C1915 C1914 1.355 . S
C1915 C1917 1.419 . S
C1916 C1914 1.415 . S
C1916 C1921 1.425 . S
C1916 C1923 1.409 . S
C1917 H1909 0.930 . S
C1917 C1915 1.419 . S
C1917 C1918 1.362 . S
C1918 H1910 0.930 . S
C1918 C1917 1.362 . S
C1918 C1921 1.409 . S
C1919 H1911 0.930 . S
C1919 C1920 1.355 . S
C1919 C1921 1.415 . S
C1920 C1919 1.355 . S
C1920 C1922 1.419 . S
C1921 C1916 1.425 . S
C1921 C1918 1.409 . S
C1921 C1919 1.415 . S
C1922 H1912 0.930 . S
C1922 C1920 1.419 . S
C1922 C1923 1.362 . S
C1923 H1913 0.930 . S
C1923 C1916 1.409 . S
C1923 C1922 1.362 . S
H1924 C1930 0.930 . S
H1925 C1933 0.930 . S
H1926 C1934 0.930 . S
H1927 C1935 0.930 . S
H1928 C1938 0.930 . S
H1929 C1939 0.930 . S
C1930 H1924 0.930 . S
C1930 C1931 1.355 . S
C1930 C1932 1.415 . S
C1931 C1930 1.355 . S
C1931 C1933 1.419 . S
C1932 C1930 1.415 . S
C1932 C1937 1.425 . S
C1932 C1939 1.409 . S
C1933 H1925 0.930 . S
C1933 C1931 1.419 . S
C1933 C1934 1.362 . S
C1934 H1926 0.930 . S
C1934 C1933 1.362 . S
C1934 C1937 1.409 . S
C1935 H1927 0.930 . S
C1935 C1936 1.355 . S
C1935 C1937 1.415 . S
C1936 C1935 1.355 . S
C1936 C1938 1.419 . S
C1937 C1932 1.425 . S
C1937 C1934 1.409 . S
C1937 C1935 1.415 . S
C1938 H1928 0.930 . S
C1938 C1936 1.419 . S
C1938 C1939 1.362 . S
C1939 H1929 0.930 . S
C1939 C1932 1.409 . S
C1939 C1938 1.362 . S
H1940 C1946 0.930 . S
H1941 C1949 0.930 . S
H1942 C1950 0.930 . S
H1943 C1951 0.930 . S
H1944 C1954 0.930 . S
H1945 C1955 0.930 . S
C1946 H1940 0.930 . S
C1946 C1947 1.355 . S
C1946 C1948 1.415 . S
C1947 C1946 1.355 . S
C1947 C1949 1.419 . S
C1948 C1946 1.415 . S
C1948 C1953 1.425 . S
C1948 C1955 1.409 . S
C1949 H1941 0.930 . S
C1949 C1947 1.419 . S
C1949 C1950 1.362 . S
C1950 H1942 0.930 . S
C1950 C1949 1.362 . S
C1950 C1953 1.409 . S
C1951 H1943 0.930 . S
C1951 C1952 1.355 . S
C1951 C1953 1.415 . S
C1952 C1951 1.355 . S
C1952 C1954 1.419 . S
C1953 C1948 1.425 . S
C1953 C1950 1.409 . S
C1953 C1951 1.415 . S
C1954 H1944 0.930 . S
C1954 C1952 1.419 . S
C1954 C1955 1.362 . S
C1955 H1945 0.930 . S
C1955 C1948 1.409 . S
C1955 C1954 1.362 . S
H1956 C1962 0.930 . S
H1957 C1965 0.930 . S
H1958 C1966 0.930 . S
H1959 C1967 0.930 . S
H1960 C1970 0.930 . S
H1961 C1971 0.930 . S
C1962 H1956 0.930 . S
C1962 C1963 1.355 . S
C1962 C1964 1.415 . S
C1963 C1962 1.355 . S
C1963 C1965 1.419 . S
C1964 C1962 1.415 . S
C1964 C1969 1.425 . S
C1964 C1971 1.409 . S
C1965 H1957 0.930 . S
C1965 C1963 1.419 . S
C1965 C1966 1.362 . S
C1966 H1958 0.930 . S
C1966 C1965 1.362 . S
C1966 C1969 1.409 . S
C1967 H1959 0.930 . S
C1967 C1968 1.355 . S
C1967 C1969 1.415 . S
C1968 C1967 1.355 . S
C1968 C1970 1.419 . S
C1969 C1964 1.425 . S
C1969 C1966 1.409 . S
C1969 C1967 1.415 . S
C1970 H1960 0.930 . S
C1970 C1968 1.419 . S
C1970 C1971 1.362 . S
C1971 H1961 0.930 . S
C1971 C1964 1.409 . S
C1971 C1970 1.362 . S
H1972 C1978 0.930 . S
H1973 C1981 0.930 . S
H1974 C1982 0.930 . S
H1975 C1983 0.930 . S
H1976 C1986 0.930 . S
H1977 C1987 0.930 . S
C1978 H1972 0.930 . S
C1978 C1979 1.355 . S
C1978 C1980 1.415 . S
C1979 C1978 1.355 . S
C1979 C1981 1.419 . S
C1980 C1978 1.415 . S
C1980 C1985 1.425 . S
C1980 C1987 1.409 . S
C1981 H1973 0.930 . S
C1981 C1979 1.419 . S
C1981 C1982 1.362 . S
C1982 H1974 0.930 . S
C1982 C1981 1.362 . S
C1982 C1985 1.409 . S
C1983 H1975 0.930 . S
C1983 C1984 1.355 . S
C1983 C1985 1.415 . S
C1984 C1983 1.355 . S
C1984 C1986 1.419 . S
C1985 C1980 1.425 . S
C1985 C1982 1.409 . S
C1985 C1983 1.415 . S
C1986 H1976 0.930 . S
C1986 C1984 1.419 . S
C1986 C1987 1.362 . S
C1987 H1977 0.930 . S
C1987 C1980 1.409 . S
C1987 C1986 1.362 . S
H1988 C1994 0.930 . S
H1989 C1997 0.930 . S
H1990 C1998 0.930 . S
H1991 C1999 0.930 . S
H1992 C2002 0.930 . S
H1993 C2003 0.930 . S
C1994 H1988 0.930 . S
C1994 C1995 1.355 . S
C1994 C1996 1.415 . S
C1995 C1994 1.355 . S
C1995 C1997 1.419 . S
C1996 C1994 1.415 . S
C1996 C2001 1.425 . S
C1996 C2003 1.409 . S
C1997 H1989 0.930 . S
C1997 C1995 1.419 . S
C1997 C1998 1.362 . S
C1998 H1990 0.930 . S
C1998 C1997 1.362 . S
C1998 C2001 1.409 . S
C1999 H1991 0.930 . S
C1999 C2000 1.355 . S
C1999 C2001 1.415 . S
C2000 C1999 1.355 . S
C2000 C2002 1.419 . S
C2001 C1996 1.425 . S
C2001 C1998 1.409 . S
C2001 C1999 1.415 . S
C2002 H1992 0.930 . S
C2002 C2000 1.419 . S
C2002 C2003 1.362 . S
C2003 H1993 0.930 . S
C2003 C1996 1.409 . S
C2003 C2002 1.362 . S
H2004 C2010 0.930 . S
H2005 C2013 0.930 . S
H2006 C2014 0.930 . S
H2007 C2015 0.930 . S
H2008 C2018 0.930 . S
H2009 C2019 0.930 . S
C2010 H2004 0.930 . S
C2010 C2011 1.355 . S
C2010 C2012 1.415 . S
C2011 C2010 1.355 . S
C2011 C2013 1.419 . S
C2012 C2010 1.415 . S
C2012 C2017 1.425 . S
C2012 C2019 1.409 . S
C2013 H2005 0.930 . S
C2013 C2011 1.419 . S
C2013 C2014 1.362 . S
C2014 H2006 0.930 . S
C2014 C2013 1.362 . S
C2014 C2017 1.409 . S
C2015 H2007 0.930 . S
C2015 C2016 1.355 . S
C2015 C2017 1.415 . S
C2016 C2015 1.355 . S
C2016 C2018 1.419 . S
C2017 C2012 1.425 . S
C2017 C2014 1.409 . S
C2017 C2015 1.415 . S
C2018 H2008 0.930 . S
C2018 C2016 1.419 . S
C2018 C2019 1.362 . S
C2019 H2009 0.930 . S
C2019 C2012 1.409 . S
C2019 C2018 1.362 . S
H2020 C2026 0.930 . S
H2021 C2029 0.930 . S
H2022 C2030 0.930 . S
H2023 C2031 0.930 . S
H2024 C2034 0.930 . S
H2025 C2035 0.930 . S
C2026 H2020 0.930 . S
C2026 C2027 1.355 . S
C2026 C2028 1.415 . S
C2027 C2026 1.355 . S
C2027 C2029 1.419 . S
C2028 C2026 1.415 . S
C2028 C2033 1.425 . S
C2028 C2035 1.409 . S
C2029 H2021 0.930 . S
C2029 C2027 1.419 . S
C2029 C2030 1.362 . S
C2030 H2022 0.930 . S
C2030 C2029 1.362 . S
C2030 C2033 1.409 . S
C2031 H2023 0.930 . S
C2031 C2032 1.355 . S
C2031 C2033 1.415 . S
C2032 C2031 1.355 . S
C2032 C2034 1.419 . S
C2033 C2028 1.425 . S
C2033 C2030 1.409 . S
C2033 C2031 1.415 . S
C2034 H2024 0.930 . S
C2034 C2032 1.419 . S
C2034 C2035 1.362 . S
C2035 H2025 0.930 . S
C2035 C2028 1.409 . S
C2035 C2034 1.362 . S
H2036 C2042 0.930 . S
H2037 C2045 0.930 . S
H2038 C2046 0.930 . S
H2039 C2047 0.930 . S
H2040 C2050 0.930 . S
H2041 C2051 0.930 . S
C2042 H2036 0.930 . S
C2042 C2043 1.355 . S
C2042 C2044 1.415 . S
C2043 C2042 1.355 . S
C2043 C2045 1.419 . S
C2044 C2042 1.415 . S
C2044 C2049 1.425 . S
C2044 C2051 1.409 . S
C2045 H2037 0.930 . S
C2045 C2043 1.419 . S
C2045 C2046 1.362 . S
C2046 H2038 0.930 . S
C2046 C2045 1.362 . S
C2046 C2049 1.409 . S
C2047 H2039 0.930 . S
C2047 C2048 1.355 . S
C2047 C2049 1.415 . S
C2048 C2047 1.355 . S
C2048 C2050 1.419 . S
C2049 C2044 1.425 . S
C2049 C2046 1.409 . S
C2049 C2047 1.415 . S
C2050 H2040 0.930 . S
C2050 C2048 1.419 . S
C2050 C2051 1.362 . S
C2051 H2041 0.930 . S
C2051 C2044 1.409 . S
C2051 C2050 1.362 . S
C907 C76 1.235 . S
C912 C652 1.104 . S
C923 C4 1.240 . S
C928 C668 1.042 . S
C944 C651 1.145 . S
C939 C38 1.385 . S
C960 C676 1.174 . S
C955 C74 1.416 . S
C971 C2 1.294 . S
C976 C685 1.212 . S
C992 C688 1.047 . S
C987 C40 1.260 . S
C1003 C182 1.404 . S
C1008 C694 1.150 . S
C1024 C710 1.075 . S
C1019 C112 1.262 . S
C1040 C693 1.141 . S
C1035 C148 1.218 . S
C1051 C184 1.226 . S
C1056 C718 1.050 . S
C1072 C727 1.139 . S
C1067 C110 1.374 . S
C1088 C730 1.224 . S
C1083 C146 1.305 . S
C1104 C739 1.070 . S
C1099 C292 1.300 . S
C1120 C751 1.017 . S
C1115 C220 1.259 . S
C1136 C748 1.293 . S
C1131 C254 1.376 . S
C1147 C290 1.420 . S
C1152 C757 1.213 . S
C1168 C756 1.211 . S
C1163 C218 1.293 . S
C1179 C256 1.201 . S
C1184 C773 1.141 . S
C1200 C778 1.130 . S
C1195 C398 1.393 . S
C1216 C794 1.182 . S
C1211 C328 1.300 . S
C1227 C364 1.278 . S
C1232 C777 1.108 . S
C1248 C802 1.079 . S
C1243 C400 1.219 . S
C1264 C811 1.141 . S
C1259 C326 1.336 . S
C1275 C362 1.313 . S
C1280 C814 1.125 . S
C1291 C508 1.293 . S
C1296 C823 1.147 . S
C1312 C835 1.156 . S
C1307 C436 1.229 . S
C1328 C832 1.290 . S
C1323 C470 1.368 . S
C1339 C506 1.370 . S
C1344 C841 1.284 . S
C1360 C840 1.255 . S
C1355 C434 1.330 . S
C1371 C472 1.199 . S
C1376 C857 1.131 . S
C1392 C862 1.244 . S
C1387 C614 1.403 . S
C1408 C878 1.198 . S
C1403 C544 1.268 . S
C1419 C580 1.261 . S
C1424 C861 1.166 . S
C1440 C883 1.176 . S
C1435 C616 1.237 . S
C1456 C882 1.241 . S
C1451 C542 1.319 . S
C1472 C899 1.106 . S
C1467 C578 1.327 . S
C1488 C664 1.392 . S
C1483 C399 1.527 . S
C1499 C338 1.567 . S
C1504 C667 1.553 . S
C1520 C655 1.480 . S
C1515 C374 1.497 . S
C1531 C626 1.508 . S
C1536 C672 1.505 . S
C1547 C543 1.608 . S
C1552 C673 1.503 . S
C1568 C689 1.442 1_565 S
C1563 C579 1.492 . S
C1584 C706 1.514 . S
C1579 C518 1.563 . S
C1600 C709 1.423 . S
C1595 C446 1.403 . S
C1611 C471 1.568 . S
C1616 C697 1.502 . S
C1632 C714 1.460 1_655 S
C1627 C291 1.573 . S
C1643 C219 1.484 . S
C1648 C715 1.332 . S
C1659 C266 1.505 . S
C1664 C731 1.519 . S
C1675 C615 1.523 . S
C1680 C735 1.395 . S
C1691 C554 1.563 . S
C1696 C752 1.523 . S
C1712 C736 1.467 . S
C1707 C590 1.501 . S
C1728 C769 1.434 . S
C1723 C194 1.438 . S
C1744 C760 1.504 . S
C1739 C111 1.630 . S
C1755 C147 1.492 . S
C1760 C772 1.442 . S
C1776 C790 1.500 . S
C1771 C86 1.547 . S
C1792 C793 1.430 . S
C1787 C14 1.451 . S
C1803 C39 1.549 . S
C1808 C781 1.431 . S
C1824 C798 1.471 . S
C1819 C507 1.594 . S
C1840 C799 1.395 . S
C1835 C435 1.478 . S
C1856 C815 1.523 . S
C1851 C482 1.510 . S
C1872 C819 1.483 . S
C1867 C183 1.536 . S
C1888 C836 1.492 . S
C1883 C122 1.485 . S
C1899 C158 1.446 . S
C1904 C820 1.390 . S
C1915 C410 1.447 . S
C1920 C853 1.454 . S
C1931 C327 1.608 . S
C1936 C844 1.508 . S
C1952 C856 1.349 . S
C1947 C363 1.483 . S
C1963 C302 1.535 . S
C1968 C874 1.493 . S
C1979 C230 1.451 . S
C1984 C877 1.432 . S
C2000 C865 1.487 . S
C1995 C255 1.571 . S
C2016 C895 1.519 . S
C2011 C75 1.581 . S
C2032 C886 1.400 . S
C2027 C3 1.500 . S
C2043 C50 1.553 . S
C2048 C898 1.514 . S
