# Generated by pormake.
# Topology zzz, (3,6)-cn, num edge types: 1
# Building blocks:
#     Node 0, Type 0, BuildingBlock: OLANEW_clean_sbu_2, # of connection points: 3
#     Node 1, Type 0, BuildingBlock: OLANEW_clean_sbu_2, # of connection points: 3
#     Node 2, Type 0, BuildingBlock: OLANEW_clean_sbu_2, # of connection points: 3
#     Node 3, Type 0, BuildingBlock: OLANEW_clean_sbu_2, # of connection points: 3
#     Node 4, Type 0, BuildingBlock: OLANEW_clean_sbu_2, # of connection points: 3
#     Node 5, Type 0, BuildingBlock: OLANEW_clean_sbu_2, # of connection points: 3
#     Node 6, Type 0, BuildingBlock: OLANEW_clean_sbu_2, # of connection points: 3
#     Node 7, Type 0, BuildingBlock: OLANEW_clean_sbu_2, # of connection points: 3
#     Node 8, Type 1, BuildingBlock: BETFEN_clean_sbu_0, # of connection points: 6
#     Node 9, Type 1, BuildingBlock: BETFEN_clean_sbu_0, # of connection points: 6
#     Node 10, Type 1, BuildingBlock: BETFEN_clean_sbu_0, # of connection points: 6
#     Node 11, Type 1, BuildingBlock: BETFEN_clean_sbu_0, # of connection points: 6
#     Edge 12, Type (0, 1), BuildingBlock: XIVTED_clean_linker_0, # of connection points: 2
#     Edge 13, Type (0, 1), BuildingBlock: XIVTED_clean_linker_0, # of connection points: 2
#     Edge 14, Type (0, 1), BuildingBlock: XIVTED_clean_linker_0, # of connection points: 2
#     Edge 15, Type (0, 1), BuildingBlock: XIVTED_clean_linker_0, # of connection points: 2
#     Edge 16, Type (0, 1), BuildingBlock: XIVTED_clean_linker_0, # of connection points: 2
#     Edge 17, Type (0, 1), BuildingBlock: XIVTED_clean_linker_0, # of connection points: 2
#     Edge 18, Type (0, 1), BuildingBlock: XIVTED_clean_linker_0, # of connection points: 2
#     Edge 19, Type (0, 1), BuildingBlock: XIVTED_clean_linker_0, # of connection points: 2
#     Edge 20, Type (0, 1), BuildingBlock: XIVTED_clean_linker_0, # of connection points: 2
#     Edge 21, Type (0, 1), BuildingBlock: XIVTED_clean_linker_0, # of connection points: 2
#     Edge 22, Type (0, 1), BuildingBlock: XIVTED_clean_linker_0, # of connection points: 2
#     Edge 23, Type (0, 1), BuildingBlock: XIVTED_clean_linker_0, # of connection points: 2
#     Edge 24, Type (0, 1), BuildingBlock: XIVTED_clean_linker_0, # of connection points: 2
#     Edge 25, Type (0, 1), BuildingBlock: XIVTED_clean_linker_0, # of connection points: 2
#     Edge 26, Type (0, 1), BuildingBlock: XIVTED_clean_linker_0, # of connection points: 2
#     Edge 27, Type (0, 1), BuildingBlock: XIVTED_clean_linker_0, # of connection points: 2
#     Edge 28, Type (0, 1), BuildingBlock: XIVTED_clean_linker_0, # of connection points: 2
#     Edge 29, Type (0, 1), BuildingBlock: XIVTED_clean_linker_0, # of connection points: 2
#     Edge 30, Type (0, 1), BuildingBlock: XIVTED_clean_linker_0, # of connection points: 2
#     Edge 31, Type (0, 1), BuildingBlock: XIVTED_clean_linker_0, # of connection points: 2
#     Edge 32, Type (0, 1), BuildingBlock: XIVTED_clean_linker_0, # of connection points: 2
#     Edge 33, Type (0, 1), BuildingBlock: XIVTED_clean_linker_0, # of connection points: 2
#     Edge 34, Type (0, 1), BuildingBlock: XIVTED_clean_linker_0, # of connection points: 2
#     Edge 35, Type (0, 1), BuildingBlock: XIVTED_clean_linker_0, # of connection points: 2
# Relax obj value: 0.254
# Max RMSD: 0.192
# Mean RMSD: 0.172
data_MOF--net-zzz--node1-OLANEW_clean_sbu_2--node2-BETFEN_clean_sbu_0--edge1-XIVTED_clean_linker_0
_symmetry_space_group_name_H-M    P1
_symmetry_Int_Tables_number       1
_symmetry_cell_setting            triclinic
loop_
_symmetry_equiv_pos_as_xyz
'x, y, z'
_cell_length_a     56.785393
_cell_length_b     56.80952
_cell_length_c     15.185284
_cell_angle_alpha  89.841816
_cell_angle_beta   89.9956
_cell_angle_gamma 90.035665
loop_
_atom_site_label
_atom_site_type_symbol
_atom_site_fract_x
_atom_site_fract_y
_atom_site_fract_z
_atom_type_partial_charge
O0 O 0.73567 0.58314 0.17146 0.0
Cd1 Cd 0.69856 0.60324 0.2012 0.0
O2 O 0.73339 0.56634 0.30146 0.0
Cd3 Cd 0.75064 0.5466 0.40634 0.0
O4 O 0.78165 0.53176 0.4695 0.0
C5 C 0.80132 0.5401 0.44447 0.0
O6 O 0.80158 0.55741 0.38693 0.0
C7 C 0.74419 0.56927 0.22886 0.0
C8 C 0.66312 0.58527 0.09425 0.0
O9 O 0.67604 0.60247 0.0685 0.0
O10 O 0.66679 0.57673 0.17126 0.0
O11 O 0.98373 0.72203 0.26641 0.0
Cd12 Cd 0.98301 0.68369 0.33927 0.0
O13 O 0.95882 0.73145 0.37029 0.0
Cd14 Cd 0.93657 0.75623 0.44068 0.0
O15 O 0.93071 0.79004 0.50243 0.0
C16 C 0.92558 0.80759 0.45425 0.0
O17 O 0.92151 0.80425 0.37001 0.0
C18 C 0.97129 0.73752 0.3044 0.0
C19 C 0.98839 0.64605 0.22483 0.0
O20 O 0.96788 0.65385 0.24452 0.0
O21 O 0.00636 0.65625 0.2587 0.0
O22 O 0.77257 0.90003 0.2442 0.0
Cd23 Cd 0.81111 0.88465 0.28627 0.0
O24 O 0.78425 0.93367 0.29979 0.0
Cd25 Cd 0.77462 0.96869 0.34549 0.0
O26 O 0.74087 0.98219 0.38985 0.0
C27 C 0.73157 0.97022 0.45143 0.0
O28 O 0.74356 0.95275 0.48631 0.0
C29 C 0.76858 0.92157 0.26059 0.0
C30 C 0.84527 0.90845 0.18924 0.0
O31 O 0.83579 0.88949 0.16045 0.0
O32 O 0.83903 0.91588 0.26536 0.0
O33 O 0.5602 0.77724 0.29415 0.0
Cd34 Cd 0.5581 0.8159 0.36335 0.0
O35 O 0.52197 0.78149 0.27937 0.0
Cd36 Cd 0.48867 0.76335 0.25603 0.0
O37 O 0.48317 0.7267 0.29294 0.0
C38 C 0.49273 0.72175 0.36632 0.0
O39 O 0.50254 0.7388 0.41171 0.0
C40 C 0.5405 0.76927 0.26814 0.0
C41 C 0.54982 0.85038 0.23675 0.0
O42 O 0.57053 0.84731 0.26825 0.0
O43 O 0.53306 0.83741 0.26576 0.0
O44 O 0.26927 0.4445 0.12676 0.0
Cd45 Cd 0.30766 0.43096 0.07626 0.0
O46 O 0.26239 0.40818 0.17027 0.0
Cd47 Cd 0.23503 0.38389 0.21546 0.0
O48 O 0.19771 0.38676 0.18291 0.0
C49 C 0.19463 0.39246 0.10278 0.0
O50 O 0.21313 0.39393 0.05108 0.0
C51 C 0.25587 0.42953 0.16353 0.0
C52 C 0.34202 0.44566 0.1946 0.0
O53 O 0.33716 0.45787 0.12587 0.0
O54 O 0.33089 0.42628 0.20656 0.0
O55 O 0.98129 0.2748 0.05244 0.0
Cd56 Cd 0.98307 0.31534 0.00059 0.0
O57 O 0.01837 0.27783 0.09305 0.0
Cd58 Cd 0.04937 0.25848 0.13859 0.0
O59 O 0.05363 0.22102 0.11249 0.0
C60 C 0.04912 0.2159 0.03287 0.0
O61 O 0.0452 0.23315 0.97691 0.0
C62 C 0.99937 0.26598 0.08899 0.0
C63 C 0.98416 0.34343 0.15009 0.0
O64 O 0.96457 0.33758 0.1144 0.0
O65 O 0.00328 0.33667 0.1131 0.0
O66 O 0.23105 0.03228 0.21267 0.0
Cd67 Cd 0.19288 0.04502 0.15619 0.0
O68 O 0.24493 0.0642 0.15014 0.0
Cd69 Cd 0.27499 0.08455 0.10344 0.0
O70 O 0.31085 0.08443 0.05362 0.0
C71 C 0.31397 0.07538 0.97815 0.0
O72 O 0.29553 0.06825 0.93323 0.0
C73 C 0.24838 0.04563 0.19536 0.0
C74 C 0.15718 0.03817 0.27903 0.0
O75 O 0.16139 0.02272 0.21968 0.0
O76 O 0.16985 0.05684 0.28009 0.0
O77 O 0.47695 0.23041 0.07696 0.0
Cd78 Cd 0.46508 0.19091 0.03279 0.0
O79 O 0.43954 0.24021 0.07218 0.0
Cd80 Cd 0.41485 0.26956 0.07264 0.0
O81 O 0.42152 0.30574 0.03225 0.0
C82 C 0.43368 0.30744 0.96226 0.0
O83 O 0.43936 0.28812 0.91985 0.0
C84 C 0.46088 0.24567 0.0874 0.0
C85 C 0.47564 0.15915 0.16685 0.0
O86 O 0.48993 0.16246 0.10265 0.0
O87 O 0.4562 0.1706 0.16687 0.0
Pr88 Pr 0.99574 0.99861 0.84815 0.0
Pr89 Pr 0.97854 0.02097 0.67041 0.0
C90 C 0.0015 0.97386 0.99841 0.0
C91 C 0.99476 0.95068 0.03355 0.0
C92 C 0.00692 0.94143 0.10599 0.0
C93 C 0.00182 0.9188 0.13693 0.0
C94 C 0.98452 0.90494 0.09557 0.0
C95 C 0.97205 0.9145 0.02374 0.0
C96 C 0.9771 0.93722 0.99312 0.0
C97 C 0.03082 0.00826 0.72533 0.0
C98 C 0.97398 0.96439 0.6882 0.0
C99 C 0.97169 0.04324 0.51559 0.0
C100 C 0.97697 0.0651 0.46775 0.0
C101 C 0.96213 0.07206 0.39882 0.0
C102 C 0.96648 0.09291 0.3527 0.0
C103 C 0.98583 0.10721 0.37463 0.0
C104 C 0.00082 0.10001 0.44358 0.0
C105 C 0.9964 0.07914 0.48992 0.0
C106 C 0.94321 0.00884 0.78964 0.0
C107 C 0.00069 0.05533 0.82956 0.0
O108 O 0.98451 0.98911 0.98675 0.0
O109 O 0.01678 0.97372 0.934 0.0
O110 O 0.01099 -0.00051 0.70809 0.0
O111 O 0.03365 0.01154 0.80937 0.0
O112 O 0.97709 0.98165 0.63125 0.0
O113 O 0.97722 0.96734 0.77375 0.0
O114 O 0.98927 0.02884 0.53016 0.0
O115 O 0.95706 0.04484 0.58189 0.0
O116 O 0.96252 0.0185 0.80898 0.0
O117 O 0.94094 0.00681 0.70489 0.0
O118 O 0.99819 0.03807 0.88718 0.0
O119 O 0.99702 0.05226 0.74423 0.0
H120 H 0.02068 0.95156 0.13769 0.0
H121 H 0.01195 0.91189 0.19161 0.0
H122 H 0.95844 0.9044 0.99108 0.0
H123 H 0.96744 0.94416 0.93728 0.0
H124 H 0.947 0.06143 0.38112 0.0
H125 H 0.95433 0.09807 0.30119 0.0
H126 H 0.01603 0.11045 0.46162 0.0
H127 H 0.00806 0.074 0.54309 0.0
Pr128 Pr 0.5315 0.02089 0.7984 0.0
Pr129 Pr 0.50886 0.00045 0.62834 0.0
C130 C 0.55715 0.02883 0.94466 0.0
C131 C 0.57697 0.01691 0.98808 0.0
C132 C 0.59033 0.02884 0.05136 0.0
C133 C 0.60989 0.01797 0.08995 0.0
C134 C 0.61638 0.99496 0.06587 0.0
C135 C 0.60263 0.98293 0.00338 0.0
C136 C 0.58315 0.99385 0.96458 0.0
C137 C 0.52275 0.05343 0.66511 0.0
C138 C 0.56512 0.9954 0.64668 0.0
C139 C 0.48371 0.99292 0.48054 0.0
C140 C 0.45962 0.99796 0.44777 0.0
C141 C 0.44134 0.98156 0.46003 0.0
C142 C 0.41851 0.98653 0.43098 0.0
C143 C 0.41343 0.00795 0.38842 0.0
C144 C 0.43184 0.02414 0.37456 0.0
C145 C 0.45466 0.01919 0.40375 0.0
C146 C 0.51817 0.96728 0.75882 0.0
C147 C 0.47501 0.02679 0.78082 0.0
O148 O 0.53708 0.01754 0.9453 0.0
O149 O 0.56183 0.03868 0.8687 0.0
O150 O 0.53103 0.03311 0.65477 0.0
O151 O 0.51971 0.0583 0.7479 0.0
O152 O 0.54825 0.99851 0.58812 0.0
O153 O 0.56131 0.99833 0.73183 0.0
O154 O 0.49791 0.01088 0.49043 0.0
O155 O 0.48572 0.9773 0.54361 0.0
O156 O 0.50993 0.98759 0.77226 0.0
O157 O 0.52051 0.96292 0.67526 0.0
O158 O 0.49245 0.02594 0.83806 0.0
O159 O 0.47777 0.02056 0.69761 0.0
H160 H 0.58579 0.04665 0.07021 0.0
H161 H 0.61997 0.02761 0.1385 0.0
H162 H 0.60732 0.96533 0.98249 0.0
H163 H 0.57311 0.98443 0.91526 0.0
H164 H 0.4446 0.96494 0.49293 0.0
H165 H 0.40475 0.97375 0.4435 0.0
H166 H 0.42867 0.04061 0.34055 0.0
H167 H 0.46838 0.03208 0.39204 0.0
Pr168 Pr 0.49323 0.51942 0.75344 0.0
Pr169 Pr 0.50927 0.49872 0.57201 0.0
C170 C 0.48928 0.54257 0.90767 0.0
C171 C 0.49622 0.56542 0.9445 0.0
C172 C 0.50558 0.58303 0.89002 0.0
C173 C 0.51182 0.60488 0.92508 0.0
C174 C 0.50891 0.60945 0.0155 0.0
C175 C 0.49994 0.59153 0.07019 0.0
C176 C 0.4936 0.5697 0.03482 0.0
C177 C 0.45705 0.50527 0.64168 0.0
C178 C 0.50512 0.55555 0.58428 0.0
C179 C 0.51556 0.47495 0.42057 0.0
C180 C 0.50861 0.45232 0.38115 0.0
C181 C 0.52517 0.43947 0.33267 0.0
C182 C 0.5192 0.41765 0.2966 0.0
C183 C 0.49645 0.40828 0.30806 0.0
C184 C 0.47978 0.42143 0.35594 0.0
C185 C 0.48583 0.44317 0.3925 0.0
C186 C 0.54527 0.51441 0.68143 0.0
C187 C 0.49234 0.46271 0.73599 0.0
O188 O 0.50647 0.52801 0.89015 0.0
O189 O 0.47304 0.54301 0.84648 0.0
O190 O 0.47541 0.51606 0.61906 0.0
O191 O 0.45598 0.50244 0.72667 0.0
O192 O 0.50379 0.53761 0.52959 0.0
O193 O 0.50514 0.55259 0.67087 0.0
O194 O 0.49894 0.49062 0.43173 0.0
O195 O 0.53042 0.47389 0.48633 0.0
O196 O 0.52754 0.50279 0.7059 0.0
O197 O 0.54557 0.51733 0.59654 0.0
O198 O 0.49487 0.48006 0.79262 0.0
O199 O 0.49406 0.46609 0.64991 0.0
H200 H 0.50798 0.57989 0.82037 0.0
H201 H 0.51902 0.61816 0.88141 0.0
H202 H 0.49731 0.59456 0.13989 0.0
H203 H 0.48648 0.55622 0.07787 0.0
H204 H 0.54287 0.4462 0.32356 0.0
H205 H 0.53261 0.40791 0.26152 0.0
H206 H 0.46201 0.41496 0.36511 0.0
H207 H 0.47274 0.45275 0.42993 0.0
Pr208 Pr 0.98382 0.46051 0.86132 0.0
Pr209 Pr 0.01117 0.47399 0.69126 0.0
C210 C 0.96321 0.45883 0.0207 0.0
C211 C 0.9421 0.47092 0.05369 0.0
C212 C 0.93128 0.46404 0.13265 0.0
C213 C 0.91059 0.47523 0.16083 0.0
C214 C 0.90053 0.49349 0.11035 0.0
C215 C 0.9116 0.50027 0.03145 0.0
C216 C 0.93211 0.4891 0.00351 0.0
C217 C 0.98529 0.42583 0.73216 0.0
C218 C 0.95309 0.48221 0.69965 0.0
C219 C 0.02958 0.47964 0.52889 0.0
C220 C 0.05128 0.47321 0.48225 0.0
C221 C 0.0594 0.48738 0.41295 0.0
C222 C 0.08093 0.4825 0.37224 0.0
C223 C 0.09471 0.46333 0.40038 0.0
C224 C 0.0861 0.44878 0.46843 0.0
C225 C 0.06464 0.45375 0.5093 0.0
C226 C 0.00893 0.50887 0.81931 0.0
C227 C 0.04185 0.45036 0.85067 0.0
O228 O 0.98119 0.47251 0.00285 0.0
O229 O 0.95937 0.44307 0.95967 0.0
O230 O 0.00222 0.43874 0.7548 0.0
O231 O 0.96687 0.42948 0.78106 0.0
O232 O 0.97148 0.47811 0.64863 0.0
O233 O 0.95446 0.48047 0.78595 0.0
O234 O 0.01528 0.46242 0.5497 0.0
O235 O 0.03195 0.49518 0.5916 0.0
O236 O 0.99208 0.49589 0.7962 0.0
O237 O 0.0278 0.5047 0.77357 0.0
O238 O 0.02342 0.45402 0.90233 0.0
O239 O 0.0408 0.45366 0.76459 0.0
H240 H 0.9387 0.44995 0.17203 0.0
H241 H 0.90255 0.46968 0.22214 0.0
H242 H 0.90413 0.51388 0.98997 0.0
H243 H 0.94004 0.49449 0.94192 0.0
H244 H 0.04933 0.50256 0.39166 0.0
H245 H 0.08713 0.49421 0.32084 0.0
H246 H 0.09605 0.43365 0.49077 0.0
H247 H 0.05869 0.44263 0.56296 0.0
H248 H 0.14964 0.06256 0.43149 0.0
H249 H 0.03065 0.99511 0.5529 0.0
H250 H 0.12179 0.00549 0.27579 0.0
H251 H 0.07184 0.03275 0.74531 0.0
H252 H 0.06116 0.00291 0.44268 0.0
H253 H 0.11845 0.0559 0.54002 0.0
C254 C 0.13693 0.04867 0.42002 0.0
C255 C 0.13832 0.03451 0.34463 0.0
C256 C 0.06353 0.00943 0.50905 0.0
C257 C 0.10259 0.02695 0.46806 0.0
C258 C 0.04612 0.00506 0.5718 0.0
C259 C 0.04888 0.01321 0.65824 0.0
C260 C 0.08365 0.0223 0.53276 0.0
C261 C 0.06918 0.02605 0.67941 0.0
C262 C 0.11921 0.04484 0.4821 0.0
C263 C 0.12142 0.01675 0.33319 0.0
N264 N 0.08581 0.03027 0.61692 0.0
N265 N 0.10418 0.01353 0.39411 0.0
H266 H 0.45403 0.15512 0.32724 0.0
H267 H 0.53432 0.0486 0.49226 0.0
H268 H 0.51102 0.12652 0.17283 0.0
H269 H 0.49556 0.09309 0.67055 0.0
H270 H 0.52221 0.07383 0.36958 0.0
H271 H 0.46522 0.12918 0.44921 0.0
C272 C 0.46882 0.14331 0.31883 0.0
C273 C 0.48166 0.14301 0.23986 0.0
C274 C 0.51643 0.07812 0.43556 0.0
C275 C 0.49445 0.1133 0.37884 0.0
C276 C 0.52328 0.06374 0.50548 0.0
C277 C 0.51599 0.06891 0.59147 0.0
C278 C 0.50195 0.09766 0.4517 0.0
C279 C 0.50168 0.08865 0.60517 0.0
C280 C 0.47525 0.12861 0.38858 0.0
C281 C 0.5007 0.12739 0.23269 0.0
N282 N 0.49502 0.1023 0.53582 0.0
N283 N 0.50648 0.1131 0.30122 0.0
H284 H 0.37295 0.48227 0.17716 0.0
H285 H 0.42078 0.47444 0.67148 0.0
H286 H 0.35094 0.42812 0.35944 0.0
H287 H 0.45442 0.51521 0.467 0.0
H288 H 0.39293 0.45913 0.56193 0.0
H289 H 0.40106 0.49651 0.28649 0.0
C290 C 0.37406 0.47334 0.24014 0.0
C291 C 0.35959 0.45397 0.25921 0.0
C292 C 0.40643 0.47141 0.54118 0.0
C293 C 0.39161 0.47028 0.38494 0.0
C294 C 0.42221 0.48021 0.60363 0.0
C295 C 0.43979 0.49613 0.57805 0.0
C296 C 0.40819 0.47882 0.45301 0.0
C297 C 0.44108 0.50295 0.48935 0.0
C298 C 0.39014 0.48145 0.30248 0.0
C299 C 0.36181 0.44307 0.34191 0.0
N300 N 0.42543 0.49433 0.4301 0.0
N301 N 0.37744 0.45145 0.40197 0.0
H302 H 0.02269 0.35971 0.23969 0.0
H303 H 0.94744 0.40579 0.65069 0.0
H304 H 0.94679 0.35665 0.25235 0.0
H305 H 0.02253 0.41529 0.62625 0.0
H306 H 0.94706 0.38598 0.50778 0.0
H307 H 0.02317 0.37912 0.38305 0.0
C308 C 0.00611 0.36323 0.27239 0.0
C309 C 0.98466 0.35654 0.23398 0.0
C310 C 0.96364 0.39234 0.53374 0.0
C311 C 0.9851 0.37854 0.3985 0.0
C312 C 0.96387 0.4035 0.61548 0.0
C313 C 0.98503 0.41219 0.64991 0.0
C314 C 0.98476 0.38978 0.48645 0.0
C315 C 0.00582 0.40889 0.60167 0.0
C316 C 0.0064 0.37427 0.35435 0.0
C317 C 0.96373 0.36153 0.27942 0.0
N318 N 0.00516 0.39799 0.52222 0.0
N319 N 0.96448 0.37214 0.35942 0.0
H320 H 0.85877 0.89916 0.02033 0.0
H321 H 0.94154 0.01242 0.96953 0.0
H322 H 0.86962 0.94861 0.23192 0.0
H323 H 0.91337 0.97299 0.75123 0.0
H324 H 0.91953 0.98684 0.07135 0.0
H325 H 0.88372 0.9233 0.92563 0.0
C326 C 0.86653 0.91502 0.04714 0.0
C327 C 0.86195 0.92197 0.13401 0.0
C328 C 0.91815 0.98389 0.00111 0.0
C329 C 0.89046 0.94979 0.02558 0.0
C330 C 0.93066 0.99844 0.94323 0.0
C331 C 0.92914 0.99482 0.85213 0.0
C332 C 0.90424 0.96555 0.96726 0.0
C333 C 0.91484 0.97652 0.82104 0.0
C334 C 0.8807 0.92886 0.99285 0.0
C335 C 0.87258 0.94268 0.16516 0.0
N336 N 0.90303 0.96252 0.87849 0.0
N337 N 0.88631 0.95593 0.11084 0.0
H338 H 0.57143 0.89295 0.21423 0.0
H339 H 0.52287 0.91977 0.74162 0.0
H340 H 0.51838 0.84767 0.10199 0.0
H341 H 0.52377 0.97522 0.93476 0.0
H342 H 0.53053 0.89105 0.8595 0.0
H343 H 0.56355 0.92203 0.09734 0.0
C344 C 0.55822 0.88914 0.16481 0.0
C345 C 0.54542 0.86803 0.16755 0.0
C346 C 0.52913 0.90956 0.87554 0.0
C347 C 0.5369 0.90062 0.03388 0.0
C348 C 0.52484 0.92591 0.80869 0.0
C349 C 0.5228 0.94989 0.8288 0.0
C350 C 0.5321 0.91742 0.96224 0.0
C351 C 0.5254 0.95694 0.91668 0.0
C352 C 0.55371 0.90569 0.09877 0.0
C353 C 0.52846 0.86386 0.1023 0.0
N354 N 0.53022 0.94079 0.98035 0.0
N355 N 0.52486 0.87992 0.03725 0.0
H356 H 0.63103 0.55065 0.13238 0.0
H357 H 0.57963 0.54617 0.64199 0.0
H358 H 0.65375 0.59694 0.923 0.0
H359 H 0.55009 0.50657 0.85816 0.0
H360 H 0.60782 0.56402 0.74349 0.0
H361 H 0.60189 0.53351 0.03276 0.0
C362 C 0.62986 0.55726 0.06555 0.0
C363 C 0.64488 0.57524 0.03591 0.0
C364 C 0.59516 0.55146 0.76888 0.0
C365 C 0.61168 0.55562 0.92151 0.0
C366 C 0.57914 0.54121 0.71091 0.0
C367 C 0.56256 0.52492 0.74196 0.0
C368 C 0.59468 0.54524 0.85848 0.0
C369 C 0.56256 0.51916 0.83181 0.0
C370 C 0.61321 0.54747 0.00874 0.0
C371 C 0.64255 0.58312 0.94869 0.0
N372 N 0.57843 0.52928 0.88701 0.0
N373 N 0.62633 0.5732 0.89451 0.0
H374 H 0.95385 0.61849 0.15321 0.0
H375 H 0.04345 0.53796 0.88073 0.0
H376 H 0.02937 0.62711 0.16187 0.0
H377 H 0.96888 0.52434 0.89911 0.0
H378 H 0.03868 0.57128 0.98111 0.0
H379 H 0.95896 0.58458 0.05666 0.0
C380 C 0.97152 0.61328 0.13469 0.0
C381 C 0.99122 0.62567 0.16558 0.0
C382 C 0.02337 0.56095 0.96347 0.0
C383 C 0.99719 0.58685 0.05507 0.0
C384 C 0.02609 0.54197 0.90621 0.0
C385 C 0.00652 0.52845 0.88185 0.0
C386 C 0.00088 0.56647 0.99604 0.0
C387 C 0.98443 0.53429 0.91668 0.0
C388 C 0.97442 0.59387 0.07974 0.0
C389 C 0.01368 0.61807 0.13962 0.0
N390 N 0.98218 0.55293 0.97179 0.0
N391 N 0.01606 0.59918 0.0857 0.0
H392 H 0.01581 0.2527 0.24882 0.0
H393 H 0.98005 0.1172 0.19828 0.0
H394 H 0.97996 0.22582 0.02002 0.0
H395 H 0.0003 0.14925 0.4445 0.0
H396 H 0.98394 0.15555 0.12584 0.0
H397 H 0.0143 0.21355 0.31545 0.0
C398 C 0.00778 0.23841 0.21241 0.0
C399 C 0.99829 0.24229 0.1285 0.0
C400 C 0.98754 0.15413 0.19568 0.0
C401 C 0.99616 0.19754 0.20463 0.0
C402 C 0.98528 0.13227 0.23723 0.0
C403 C 0.9897 0.12996 0.32798 0.0
C404 C 0.9944 0.17382 0.24506 0.0
C405 C 0.99694 0.15003 0.37441 0.0
C406 C 0.00679 0.21613 0.25059 0.0
C407 C 0.98754 0.22342 0.08483 0.0
N408 N 0.999 0.17108 0.3325 0.0
N409 N 0.98687 0.20175 0.12325 0.0
H410 H 0.26846 0.00191 0.20405 0.0
H411 H 0.3905 0.05035 0.39744 0.0
H412 H 0.28237 0.07508 0.2577 0.0
H413 H 0.38046 0.97837 0.31487 0.0
H414 H 0.3504 0.0593 0.35086 0.0
H415 H 0.30871 0.9923 0.251 0.0
C416 C 0.28004 0.01593 0.22553 0.0
C417 C 0.27234 0.03938 0.2251 0.0
C418 C 0.35696 0.04154 0.34278 0.0
C419 C 0.31818 0.0286 0.27936 0.0
C420 C 0.37995 0.03644 0.36889 0.0
C421 C 0.38898 0.01357 0.35987 0.0
C422 C 0.34273 0.02366 0.30758 0.0
C423 C 0.3742 0.99619 0.3241 0.0
C424 C 0.30299 0.01048 0.25198 0.0
C425 C 0.28789 0.05688 0.25424 0.0
N426 N 0.35182 0.00158 0.29929 0.0
N427 N 0.31005 0.05115 0.28007 0.0
H428 H 0.49552 0.2751 0.02617 0.0
H429 H 0.46886 0.37424 0.38455 0.0
H430 H 0.43957 0.27034 0.2171 0.0
H431 H 0.51038 0.38798 0.15164 0.0
H432 H 0.45995 0.33514 0.32843 0.0
H433 H 0.50376 0.31546 0.07625 0.0
C434 C 0.48508 0.28258 0.0788 0.0
C435 C 0.46673 0.26962 0.11721 0.0
C436 C 0.47094 0.34674 0.28935 0.0
C437 C 0.4761 0.31532 0.17526 0.0
C438 C 0.47592 0.36919 0.32113 0.0
C439 C 0.4904 0.38458 0.27287 0.0
C440 C 0.48064 0.33937 0.20899 0.0
C441 C 0.49945 0.37666 0.19191 0.0
C442 C 0.48965 0.30557 0.10697 0.0
C443 C 0.45367 0.27995 0.18514 0.0
N444 N 0.4945 0.35457 0.16269 0.0
N445 N 0.45863 0.30215 0.21217 0.0
H446 H 0.23861 0.4199 0.32515 0.0
H447 H 0.10911 0.46769 0.22741 0.0
H448 H 0.22102 0.45506 0.08215 0.0
H449 H 0.13473 0.44985 0.48691 0.0
H450 H 0.14883 0.46132 0.16871 0.0
H451 H 0.19945 0.42885 0.38187 0.0
C452 C 0.22641 0.42961 0.28396 0.0
C453 C 0.23282 0.4366 0.19885 0.0
C454 C 0.14569 0.45889 0.23849 0.0
C455 C 0.18795 0.44689 0.26288 0.0
C456 C 0.12305 0.46254 0.27212 0.0
C457 C 0.11848 0.45918 0.36232 0.0
C458 C 0.16381 0.45169 0.29536 0.0
C459 C 0.13721 0.4522 0.41676 0.0
C460 C 0.20409 0.43476 0.31629 0.0
C461 C 0.2166 0.4494 0.14824 0.0
N462 N 0.15895 0.44863 0.38241 0.0
N463 N 0.19471 0.45395 0.18072 0.0
H464 H 0.97349 0.77706 0.40541 0.0
H465 H 0.97791 0.86564 0.99396 0.0
H466 H 0.97204 0.75408 0.13528 0.0
H467 H 0.98175 0.88804 0.26493 0.0
H468 H 0.97358 0.82493 0.04405 0.0
H469 H 0.97506 0.81794 0.35502 0.0
C470 C 0.97306 0.78069 0.33539 0.0
C471 C 0.97201 0.76226 0.27436 0.0
C472 C 0.97529 0.83875 0.09258 0.0
C473 C 0.97427 0.80898 0.2159 0.0
C474 C 0.97758 0.86204 0.06403 0.0
C475 C 0.98031 0.88032 0.1253 0.0
C476 C 0.97567 0.83363 0.18314 0.0
C477 C 0.98007 0.87451 0.21529 0.0
C478 C 0.97421 0.80402 0.30658 0.0
C479 C 0.97258 0.76785 0.18439 0.0
N480 N 0.97785 0.8517 0.24142 0.0
N481 N 0.97353 0.79073 0.1578 0.0
H482 H 0.76133 0.96554 0.19446 0.0
H483 H 0.62282 0.94933 0.12208 0.0
H484 H 0.72449 0.90188 0.26514 0.0
H485 H 0.65939 0.0155 0.09232 0.0
H486 H 0.6595 0.93127 0.1738 0.0
H487 H 0.72389 0.98382 0.1557 0.0
C488 C 0.74525 0.95554 0.20323 0.0
C489 C 0.7459 0.93242 0.23548 0.0
C490 C 0.65944 0.94977 0.15645 0.0
C491 C 0.70293 0.95293 0.1881 0.0
C492 C 0.63855 0.96006 0.12653 0.0
C493 C 0.63803 0.98396 0.10252 0.0
C494 C 0.68003 0.96341 0.16159 0.0
C495 C 0.65887 0.99709 0.11083 0.0
C496 C 0.72388 0.96592 0.18037 0.0
C497 C 0.72468 0.91986 0.24134 0.0
N498 N 0.679 0.98662 0.13907 0.0
N499 N 0.704 0.93029 0.218 0.0
H500 H 0.55991 0.72784 0.32613 0.0
H501 H 0.499 0.65239 0.94319 0.0
H502 H 0.51662 0.75735 0.12067 0.0
H503 H 0.5315 0.62035 0.17072 0.0
H504 H 0.5084 0.69111 0.00222 0.0
H505 H 0.553 0.68835 0.26485 0.0
C506 C 0.54922 0.72597 0.26749 0.0
C507 C 0.53863 0.7457 0.22854 0.0
C508 C 0.51353 0.67564 0.03936 0.0
C509 C 0.53073 0.70095 0.15825 0.0
C510 C 0.50829 0.6535 0.00534 0.0
C511 C 0.51459 0.63307 0.05175 0.0
C512 C 0.52529 0.67751 0.12042 0.0
C513 C 0.52619 0.63564 0.13296 0.0
C514 C 0.54514 0.7035 0.23297 0.0
C515 C 0.52485 0.74247 0.15306 0.0
N516 N 0.53124 0.65746 0.16464 0.0
N517 N 0.52126 0.72055 0.12049 0.0
H518 H 0.75646 0.52382 0.26626 0.0
H519 H 0.88944 0.54034 0.10118 0.0
H520 H 0.78346 0.58807 0.15331 0.0
H521 H 0.86072 0.47323 0.18086 0.0
H522 H 0.85148 0.55867 0.13133 0.0
H523 H 0.79499 0.5053 0.244 0.0
C524 C 0.7706 0.53404 0.23731 0.0
C525 C 0.767 0.5576 0.21301 0.0
C526 C 0.85345 0.53994 0.14242 0.0
C527 C 0.81096 0.53658 0.18671 0.0
C528 C 0.87514 0.52944 0.12508 0.0
C529 C 0.87823 0.50513 0.1374 0.0
C530 C 0.8346 0.52609 0.17248 0.0
C531 C 0.85919 0.49203 0.17064 0.0
C532 C 0.79251 0.52345 0.22414 0.0
C533 C 0.78561 0.56991 0.17347 0.0
N534 N 0.83815 0.50265 0.18651 0.0
N535 N 0.80685 0.55931 0.16214 0.0
H536 H 0.04521 0.17637 0.13708 0.0
H537 H 0.00968 0.09442 0.72973 0.0
H538 H 0.04302 0.19956 0.8662 0.0
H539 H 0.01003 0.06968 0.99902 0.0
H540 H 0.02328 0.13268 0.77995 0.0
H541 H 0.03419 0.13669 0.08906 0.0
C542 C 0.04273 0.17305 0.06746 0.0
C543 C 0.04502 0.1913 0.00549 0.0
C544 C 0.0204 0.11891 0.82824 0.0
C545 C 0.03226 0.1461 0.95036 0.0
C546 C 0.01257 0.09701 0.7996 0.0
C547 C 0.00862 0.07875 0.86024 0.0
C548 C 0.02435 0.12275 0.91838 0.0
C549 C 0.01279 0.08323 0.9499 0.0
C550 C 0.03632 0.15044 0.04019 0.0
C551 C 0.04138 0.18606 0.91633 0.0
N552 N 0.02041 0.10481 0.9763 0.0
N553 N 0.03513 0.16401 0.89158 0.0
H554 H 0.32671 0.05912 0.81581 0.0
H555 H 0.46252 0.04397 0.94294 0.0
H556 H 0.35587 0.08072 0.0655 0.0
H557 H 0.43428 0.02916 0.68475 0.0
H558 H 0.42369 0.05771 0.98905 0.0
H559 H 0.36618 0.04859 0.76611 0.0
C560 C 0.34145 0.0618 0.86001 0.0
C561 C 0.33798 0.07076 0.94502 0.0
C562 C 0.42602 0.05152 0.92225 0.0
C563 C 0.38322 0.05855 0.88878 0.0
C564 C 0.44818 0.0436 0.89588 0.0
C565 C 0.45168 0.0353 0.80989 0.0
C566 C 0.40719 0.05106 0.86233 0.0
C567 C 0.43244 0.03535 0.75176 0.0
C568 C 0.36399 0.05577 0.83159 0.0
C569 C 0.35773 0.07389 0.99936 0.0
N570 N 0.41103 0.04302 0.77916 0.0
N571 N 0.37949 0.06765 0.9705 0.0
H572 H 0.43618 0.349 0.05325 0.0
H573 H 0.48666 0.42183 0.64264 0.0
H574 H 0.4517 0.31802 0.80059 0.0
H575 H 0.48221 0.45001 0.90606 0.0
H576 H 0.47299 0.38388 0.69865 0.0
H577 H 0.45187 0.38658 0.9998 0.0
C578 C 0.44271 0.35017 0.98633 0.0
C579 C 0.44245 0.33044 0.93095 0.0
C580 C 0.47514 0.39834 0.74428 0.0
C581 C 0.46046 0.37326 0.86951 0.0
C582 C 0.48296 0.42003 0.71233 0.0
C583 C 0.48558 0.43919 0.76965 0.0
C584 C 0.46972 0.39579 0.8341 0.0
C585 C 0.48048 0.43576 0.85934 0.0
C586 C 0.45179 0.37156 0.95603 0.0
C587 C 0.4515 0.33281 0.84539 0.0
N588 N 0.47267 0.41453 0.88868 0.0
N589 N 0.46002 0.35385 0.81717 0.0
H590 H 0.15373 0.40028 0.19597 0.0
H591 H 0.08268 0.43981 0.7644 0.0
H592 H 0.18239 0.40101 0.93263 0.0
H593 H 0.0519 0.44066 0.02457 0.0
H594 H 0.11913 0.42499 0.8271 0.0
H595 H 0.116 0.41423 0.13664 0.0
C596 C 0.15202 0.40312 0.12566 0.0
C597 C 0.17121 0.39939 0.06906 0.0
C598 C 0.10444 0.42839 0.87073 0.0
C599 C 0.12829 0.41544 0.00109 0.0
C600 C 0.08355 0.4369 0.83489 0.0
C601 C 0.06412 0.44151 0.88922 0.0
C602 C 0.10609 0.4244 0.96185 0.0
C603 C 0.06642 0.43735 0.98013 0.0
C604 C 0.13053 0.41117 0.09196 0.0
C605 C 0.16811 0.40364 0.97879 0.0
N606 N 0.08705 0.42903 0.01366 0.0
N607 N 0.14712 0.41142 0.94779 0.0
H608 H 0.92756 0.84898 0.36192 0.0
H609 H 0.96355 0.92483 0.78442 0.0
H610 H 0.93088 0.82076 0.62602 0.0
H611 H 0.96468 0.95171 0.518 0.0
H612 H 0.94878 0.88735 0.72895 0.0
H613 H 0.93766 0.88777 0.41972 0.0
C614 C 0.93003 0.85101 0.43228 0.0
C615 C 0.92845 0.8316 0.48927 0.0
C616 C 0.95225 0.90146 0.68266 0.0
C617 C 0.94028 0.87586 0.55566 0.0
C618 C 0.96077 0.92286 0.71423 0.0
C619 C 0.96552 0.94142 0.65572 0.0
C620 C 0.94844 0.8986 0.5919 0.0
C621 C 0.96138 0.93787 0.56554 0.0
C622 C 0.93595 0.87313 0.46514 0.0
C623 C 0.93204 0.83524 0.57968 0.0
N624 N 0.95312 0.91687 0.53644 0.0
N625 N 0.93791 0.8569 0.61 0.0
H626 H 0.69681 0.99344 0.36118 0.0
H627 H 0.6021 0.97993 0.74627 0.0
H628 H 0.7105 0.95619 0.60391 0.0
H629 H 0.58311 0.99849 0.47959 0.0
H630 H 0.6426 0.97367 0.69809 0.0
H631 H 0.65571 0.99848 0.40664 0.0
C632 C 0.69122 0.98654 0.42438 0.0
C633 C 0.70707 0.97452 0.47924 0.0
C634 C 0.62954 0.97896 0.64998 0.0
C635 C 0.66024 0.98012 0.53131 0.0
C636 C 0.60641 0.98255 0.67745 0.0
C637 C 0.58919 0.98974 0.61682 0.0
C638 C 0.63561 0.98288 0.56151 0.0
C639 C 0.59581 0.99284 0.52846 0.0
C640 C 0.66775 0.98924 0.44993 0.0
C641 C 0.69885 0.96559 0.55974 0.0
N642 N 0.61856 0.98957 0.50352 0.0
N643 N 0.67602 0.96867 0.58356 0.0
H644 H 0.50724 0.70666 0.52766 0.0
H645 H 0.49774 0.56961 0.41345 0.0
H646 H 0.48312 0.68095 0.27609 0.0
H647 H 0.51278 0.59676 0.67279 0.0
H648 H 0.49532 0.60999 0.35785 0.0
H649 H 0.51187 0.66624 0.57816 0.0
C650 C 0.50282 0.69249 0.48306 0.0
C651 C 0.49458 0.69719 0.39777 0.0
C652 C 0.49919 0.60707 0.42688 0.0
C653 C 0.50004 0.65072 0.45508 0.0
C654 C 0.50069 0.58402 0.45864 0.0
C655 C 0.50532 0.57976 0.54819 0.0
C656 C 0.50242 0.62597 0.48499 0.0
C657 C 0.50896 0.59915 0.60352 0.0
C658 C 0.5055 0.66937 0.51197 0.0
C659 C 0.48924 0.67811 0.34273 0.0
N660 N 0.50737 0.62137 0.57109 0.0
N661 N 0.4921 0.65565 0.37234 0.0
H662 H 0.84517 0.54455 0.37272 0.0
H663 H 0.91018 0.48473 0.77991 0.0
H664 H 0.80813 0.51331 0.59209 0.0
H665 H 0.94445 0.49617 0.52944 0.0
H666 H 0.87304 0.49746 0.71516 0.0
H667 H 0.88218 0.52909 0.43157 0.0
C668 C 0.84485 0.53448 0.4334 0.0
C669 C 0.82362 0.53036 0.47816 0.0
C670 C 0.88865 0.49708 0.67422 0.0
C671 C 0.8658 0.51276 0.5458 0.0
C672 C 0.90991 0.48991 0.71121 0.0
C673 C 0.93049 0.48946 0.66003 0.0
C674 C 0.88796 0.50414 0.58565 0.0
C675 C 0.92901 0.49625 0.57127 0.0
C676 C 0.86594 0.52557 0.46663 0.0
C677 C 0.82413 0.51694 0.55572 0.0
N678 N 0.90811 0.50348 0.53697 0.0
N679 N 0.84494 0.50878 0.58754 0.0
loop_
_geom_bond_atom_site_label_1
_geom_bond_atom_site_label_2
_geom_bond_distance
_geom_bond_site_symmetry_2
_ccdc_geom_bond_type
O0 Cd1 2.300 . S
O0 C7 1.275 . S
Cd1 O0 2.300 . S
Cd1 O9 2.381 . S
Cd1 O10 2.378 . S
O2 Cd3 2.385 . S
O2 C7 1.255 . S
Cd3 O2 2.385 . S
Cd3 O4 2.317 . S
O4 Cd3 2.317 . S
O4 C5 1.232 . S
C5 O4 1.232 . S
C5 O6 1.218 . S
O6 C5 1.218 . S
C7 O0 1.275 . S
C7 O2 1.255 . S
C8 O9 1.258 . S
C8 O10 1.256 . S
O9 Cd1 2.381 . S
O9 C8 1.258 . S
O10 Cd1 2.378 . S
O10 C8 1.256 . S
O11 Cd12 2.300 1_655 S
O11 C18 1.275 1_655 S
Cd12 O11 2.300 1_455 S
Cd12 O20 2.381 1_455 S
Cd12 O21 2.378 . S
O13 Cd14 2.385 . S
O13 C18 1.255 . S
Cd14 O13 2.385 . S
Cd14 O15 2.317 . S
O15 Cd14 2.317 . S
O15 C16 1.232 . S
C16 O15 1.232 . S
C16 O17 1.218 . S
O17 C16 1.218 . S
C18 O11 1.275 1_455 S
C18 O13 1.255 . S
C19 O20 1.258 1_455 S
C19 O21 1.256 . S
O20 Cd12 2.381 1_655 S
O20 C19 1.258 1_655 S
O21 Cd12 2.378 . S
O21 C19 1.256 . S
O22 Cd23 2.300 1_565 S
O22 C29 1.275 1_565 S
Cd23 O22 2.300 1_545 S
Cd23 O31 2.381 1_545 S
Cd23 O32 2.378 . S
O24 Cd25 2.385 . S
O24 C29 1.255 . S
Cd25 O24 2.385 . S
Cd25 O26 2.317 . S
O26 Cd25 2.317 . S
O26 C27 1.232 . S
C27 O26 1.232 . S
C27 O28 1.218 . S
O28 C27 1.218 . S
C29 O22 1.275 1_545 S
C29 O24 1.255 . S
C30 O31 1.258 1_545 S
C30 O32 1.256 . S
O31 Cd23 2.381 1_565 S
O31 C30 1.258 1_565 S
O32 Cd23 2.378 . S
O32 C30 1.256 . S
O33 Cd34 2.300 . S
O33 C40 1.275 . S
Cd34 O33 2.300 . S
Cd34 O42 2.381 . S
Cd34 O43 2.378 . S
O35 Cd36 2.385 . S
O35 C40 1.255 . S
Cd36 O35 2.385 . S
Cd36 O37 2.317 . S
O37 Cd36 2.317 . S
O37 C38 1.232 . S
C38 O37 1.232 . S
C38 O39 1.218 . S
O39 C38 1.218 . S
C40 O33 1.275 . S
C40 O35 1.255 . S
C41 O42 1.258 . S
C41 O43 1.256 . S
O42 Cd34 2.381 . S
O42 C41 1.258 . S
O43 Cd34 2.378 . S
O43 C41 1.256 . S
O44 Cd45 2.300 . S
O44 C51 1.275 . S
Cd45 O44 2.300 . S
Cd45 O53 2.381 . S
Cd45 O54 2.378 . S
O46 Cd47 2.385 1_554 S
O46 C51 1.255 . S
Cd47 O46 2.385 1_556 S
Cd47 O48 2.317 . S
O48 Cd47 2.317 . S
O48 C49 1.232 . S
C49 O48 1.232 . S
C49 O50 1.218 . S
O50 C49 1.218 . S
C51 O44 1.275 . S
C51 O46 1.255 . S
C52 O53 1.258 . S
C52 O54 1.256 . S
O53 Cd45 2.381 . S
O53 C52 1.258 . S
O54 Cd45 2.378 . S
O54 C52 1.256 . S
O55 Cd56 2.300 1_655 S
O55 C62 1.275 1_655 S
Cd56 O55 2.300 1_455 S
Cd56 O64 2.381 1_455 S
Cd56 O65 2.378 . S
O57 Cd58 2.385 1_554 S
O57 C62 1.255 . S
Cd58 O57 2.385 1_556 S
Cd58 O59 2.317 . S
O59 Cd58 2.317 . S
O59 C60 1.232 . S
C60 O59 1.232 . S
C60 O61 1.218 . S
O61 C60 1.218 . S
C62 O55 1.275 1_455 S
C62 O57 1.255 . S
C63 O64 1.258 1_455 S
C63 O65 1.256 . S
O64 Cd56 2.381 1_655 S
O64 C63 1.258 1_655 S
O65 Cd56 2.378 . S
O65 C63 1.256 . S
O66 Cd67 2.300 1_565 S
O66 C73 1.275 1_565 S
Cd67 O66 2.300 1_545 S
Cd67 O75 2.381 1_545 S
Cd67 O76 2.378 . S
O68 Cd69 2.385 1_554 S
O68 C73 1.255 . S
Cd69 O68 2.385 1_556 S
Cd69 O70 2.317 . S
O70 Cd69 2.317 . S
O70 C71 1.232 . S
C71 O70 1.232 . S
C71 O72 1.218 . S
O72 C71 1.218 . S
C73 O66 1.275 1_545 S
C73 O68 1.255 . S
C74 O75 1.258 1_545 S
C74 O76 1.256 . S
O75 Cd67 2.381 1_565 S
O75 C74 1.258 1_565 S
O76 Cd67 2.378 . S
O76 C74 1.256 . S
O77 Cd78 2.300 . S
O77 C84 1.275 . S
Cd78 O77 2.300 . S
Cd78 O86 2.381 . S
Cd78 O87 2.378 . S
O79 Cd80 2.385 1_554 S
O79 C84 1.255 . S
Cd80 O79 2.385 1_556 S
Cd80 O81 2.317 . S
O81 Cd80 2.317 . S
O81 C82 1.232 . S
C82 O81 1.232 . S
C82 O83 1.218 . S
O83 C82 1.218 . S
C84 O77 1.275 . S
C84 O79 1.255 . S
C85 O86 1.258 . S
C85 O87 1.256 . S
O86 Cd78 2.381 . S
O86 C85 1.258 . S
O87 Cd78 2.378 . S
O87 C85 1.256 . S
Pr88 C90 2.880 . S
Pr88 O108 2.562 . S
Pr88 O109 2.490 . S
Pr88 O110 2.695 1_565 S
Pr88 O111 2.512 . S
Pr88 O113 2.437 . S
Pr88 O116 2.436 1_455 S
Pr88 O118 2.438 1_565 S
Pr89 C99 2.880 . S
Pr89 O110 2.436 1_655 S
Pr89 O112 2.438 1_545 S
Pr89 O114 2.562 . S
Pr89 O115 2.490 . S
Pr89 O116 2.695 1_545 S
Pr89 O117 2.512 . S
Pr89 O119 2.437 . S
C90 Pr88 2.880 . S
C90 C91 1.491 . S
C90 O108 1.254 . S
C90 O109 1.225 . S
C91 C90 1.491 . S
C91 C92 1.392 . S
C91 C96 1.356 . S
C92 C91 1.392 . S
C92 C93 1.368 . S
C92 H120 0.929 . S
C93 C92 1.368 . S
C93 C94 1.386 1_556 S
C93 H121 0.929 1_556 S
C94 C93 1.386 1_554 S
C94 C95 1.373 . S
C95 C94 1.373 . S
C95 C96 1.409 1_554 S
C95 H122 0.931 1_455 S
C96 C91 1.356 . S
C96 C95 1.409 1_556 S
C96 H123 0.930 1_455 S
C97 O110 1.270 1_565 S
C97 O111 1.248 . S
C98 O112 1.267 . S
C98 O113 1.278 1_655 S
C99 Pr89 2.880 . S
C99 C100 1.491 . S
C99 O114 1.254 . S
C99 O115 1.225 . S
C100 C99 1.491 . S
C100 C101 1.392 . S
C100 C105 1.356 . S
C101 C100 1.392 . S
C101 C102 1.368 . S
C101 H124 0.929 . S
C102 C101 1.368 . S
C102 C103 1.386 . S
C102 H125 0.929 . S
C103 C102 1.386 . S
C103 C104 1.373 . S
C104 C103 1.373 . S
C104 C105 1.409 . S
C104 H126 0.931 1_655 S
C105 C100 1.356 . S
C105 C104 1.409 . S
C105 H127 0.930 1_655 S
C106 O116 1.270 1_545 S
C106 O117 1.248 . S
C107 O118 1.267 . S
C107 O119 1.278 1_455 S
O108 Pr88 2.562 . S
O108 C90 1.254 . S
O109 Pr88 2.490 . S
O109 C90 1.225 . S
O110 Pr88 2.695 1_545 S
O110 Pr89 2.436 1_455 S
O110 C97 1.270 1_545 S
O111 Pr88 2.512 . S
O111 C97 1.248 . S
O112 Pr89 2.438 1_565 S
O112 C98 1.267 . S
O113 Pr88 2.437 . S
O113 C98 1.278 1_455 S
O114 Pr89 2.562 . S
O114 C99 1.254 . S
O115 Pr89 2.490 . S
O115 C99 1.225 . S
O116 Pr88 2.436 1_655 S
O116 Pr89 2.695 1_565 S
O116 C106 1.270 1_565 S
O117 Pr89 2.512 . S
O117 C106 1.248 . S
O118 Pr88 2.438 1_545 S
O118 C107 1.267 . S
O119 Pr89 2.437 . S
O119 C107 1.278 1_655 S
H120 C92 0.929 . S
H121 C93 0.929 1_554 S
H122 C95 0.931 1_655 S
H123 C96 0.930 1_655 S
H124 C101 0.929 . S
H125 C102 0.929 . S
H126 C104 0.931 1_455 S
H127 C105 0.930 1_455 S
Pr128 C130 2.880 . S
Pr128 O148 2.562 . S
Pr128 O149 2.490 . S
Pr128 O150 2.695 . S
Pr128 O151 2.512 . S
Pr128 O153 2.437 . S
Pr128 O156 2.436 1_545 S
Pr128 O158 2.438 . S
Pr129 C139 2.880 . S
Pr129 O150 2.436 1_565 S
Pr129 O152 2.438 . S
Pr129 O154 2.562 . S
Pr129 O155 2.490 . S
Pr129 O156 2.695 . S
Pr129 O157 2.512 . S
Pr129 O159 2.437 . S
C130 Pr128 2.880 . S
C130 C131 1.491 . S
C130 O148 1.254 . S
C130 O149 1.225 . S
C131 C130 1.491 . S
C131 C132 1.392 . S
C131 C136 1.356 . S
C132 C131 1.392 . S
C132 C133 1.374 . S
C132 H160 0.929 . S
C133 C132 1.374 . S
C133 C134 1.383 1_556 S
C133 H161 0.926 1_556 S
C134 C133 1.383 1_554 S
C134 C135 1.373 . S
C135 C134 1.373 . S
C135 C136 1.409 1_554 S
C135 H162 0.931 1_545 S
C136 C131 1.356 . S
C136 C135 1.409 1_556 S
C136 H163 0.930 1_545 S
C137 O150 1.270 . S
C137 O151 1.248 . S
C138 O152 1.267 . S
C138 O153 1.278 1_565 S
C139 Pr129 2.880 . S
C139 C140 1.491 . S
C139 O154 1.254 . S
C139 O155 1.225 . S
C140 C139 1.491 . S
C140 C141 1.392 . S
C140 C145 1.356 . S
C141 C140 1.392 . S
C141 C142 1.368 . S
C141 H164 0.929 . S
C142 C141 1.368 . S
C142 C143 1.386 . S
C142 H165 0.929 . S
C143 C142 1.386 . S
C143 C144 1.373 . S
C144 C143 1.373 . S
C144 C145 1.409 . S
C144 H166 0.931 1_565 S
C145 C140 1.356 . S
C145 C144 1.409 . S
C145 H167 0.930 1_565 S
C146 O156 1.270 . S
C146 O157 1.248 . S
C147 O158 1.267 . S
C147 O159 1.278 1_545 S
O148 Pr128 2.562 . S
O148 C130 1.254 . S
O149 Pr128 2.490 . S
O149 C130 1.225 . S
O150 Pr128 2.695 . S
O150 Pr129 2.436 1_545 S
O150 C137 1.270 . S
O151 Pr128 2.512 . S
O151 C137 1.248 . S
O152 Pr129 2.438 . S
O152 C138 1.267 . S
O153 Pr128 2.437 . S
O153 C138 1.278 1_545 S
O154 Pr129 2.562 . S
O154 C139 1.254 . S
O155 Pr129 2.490 . S
O155 C139 1.225 . S
O156 Pr128 2.436 1_565 S
O156 Pr129 2.695 . S
O156 C146 1.270 . S
O157 Pr129 2.512 . S
O157 C146 1.248 . S
O158 Pr128 2.438 . S
O158 C147 1.267 . S
O159 Pr129 2.437 . S
O159 C147 1.278 1_565 S
H160 C132 0.929 . S
H161 C133 0.926 1_554 S
H162 C135 0.931 1_565 S
H163 C136 0.930 1_565 S
H164 C141 0.929 . S
H165 C142 0.929 . S
H166 C144 0.931 1_545 S
H167 C145 0.930 1_545 S
Pr168 C170 2.880 . S
Pr168 O188 2.562 . S
Pr168 O189 2.490 . S
Pr168 O190 2.695 . S
Pr168 O191 2.512 . S
Pr168 O193 2.437 . S
Pr168 O196 2.436 . S
Pr168 O198 2.438 . S
Pr169 C179 2.880 . S
Pr169 O190 2.436 . S
Pr169 O192 2.438 . S
Pr169 O194 2.562 . S
Pr169 O195 2.490 . S
Pr169 O196 2.695 . S
Pr169 O197 2.512 . S
Pr169 O199 2.437 . S
C170 Pr168 2.880 . S
C170 C171 1.491 . S
C170 O188 1.254 . S
C170 O189 1.225 . S
C171 C170 1.491 . S
C171 C172 1.392 . S
C171 C176 1.356 . S
C172 C171 1.392 . S
C172 C173 1.369 . S
C172 H200 0.929 . S
C173 C172 1.369 . S
C173 C174 1.386 1_556 S
C173 H201 0.928 1_556 S
C174 C173 1.386 1_554 S
C174 C175 1.373 . S
C175 C174 1.373 . S
C175 C176 1.409 1_554 S
C175 H202 0.931 . S
C176 C171 1.356 . S
C176 C175 1.409 1_556 S
C176 H203 0.930 . S
C177 O190 1.270 . S
C177 O191 1.248 . S
C178 O192 1.267 . S
C178 O193 1.278 . S
C179 Pr169 2.880 . S
C179 C180 1.491 . S
C179 O194 1.254 . S
C179 O195 1.225 . S
C180 C179 1.491 . S
C180 C181 1.392 . S
C180 C185 1.356 . S
C181 C180 1.392 . S
C181 C182 1.368 . S
C181 H204 0.929 . S
C182 C181 1.368 . S
C182 C183 1.386 . S
C182 H205 0.929 . S
C183 C182 1.386 . S
C183 C184 1.373 . S
C184 C183 1.373 . S
C184 C185 1.409 . S
C184 H206 0.931 . S
C185 C180 1.356 . S
C185 C184 1.409 . S
C185 H207 0.930 . S
C186 O196 1.270 . S
C186 O197 1.248 . S
C187 O198 1.267 . S
C187 O199 1.278 . S
O188 Pr168 2.562 . S
O188 C170 1.254 . S
O189 Pr168 2.490 . S
O189 C170 1.225 . S
O190 Pr168 2.695 . S
O190 Pr169 2.436 . S
O190 C177 1.270 . S
O191 Pr168 2.512 . S
O191 C177 1.248 . S
O192 Pr169 2.438 . S
O192 C178 1.267 . S
O193 Pr168 2.437 . S
O193 C178 1.278 . S
O194 Pr169 2.562 . S
O194 C179 1.254 . S
O195 Pr169 2.490 . S
O195 C179 1.225 . S
O196 Pr168 2.436 . S
O196 Pr169 2.695 . S
O196 C186 1.270 . S
O197 Pr169 2.512 . S
O197 C186 1.248 . S
O198 Pr168 2.438 . S
O198 C187 1.267 . S
O199 Pr169 2.437 . S
O199 C187 1.278 . S
H200 C172 0.929 . S
H201 C173 0.928 1_554 S
H202 C175 0.931 . S
H203 C176 0.930 . S
H204 C181 0.929 . S
H205 C182 0.929 . S
H206 C184 0.931 . S
H207 C185 0.930 . S
Pr208 C210 2.880 . S
Pr208 O228 2.562 . S
Pr208 O229 2.490 . S
Pr208 O230 2.695 1_655 S
Pr208 O231 2.512 . S
Pr208 O233 2.437 . S
Pr208 O236 2.436 . S
Pr208 O238 2.438 1_655 S
Pr209 C219 2.880 . S
Pr209 O230 2.436 . S
Pr209 O232 2.438 1_455 S
Pr209 O234 2.562 . S
Pr209 O235 2.490 . S
Pr209 O236 2.695 1_455 S
Pr209 O237 2.512 . S
Pr209 O239 2.437 . S
C210 Pr208 2.880 . S
C210 C211 1.491 . S
C210 O228 1.254 . S
C210 O229 1.225 . S
C211 C210 1.491 . S
C211 C212 1.392 . S
C211 C216 1.356 . S
C212 C211 1.392 . S
C212 C213 1.371 . S
C212 H240 0.929 . S
C213 C212 1.371 . S
C213 C214 1.385 1_556 S
C213 H241 0.927 1_556 S
C214 C213 1.385 1_554 S
C214 C215 1.373 . S
C215 C214 1.373 . S
C215 C216 1.409 1_554 S
C215 H242 0.931 . S
C216 C211 1.356 . S
C216 C215 1.409 1_556 S
C216 H243 0.930 . S
C217 O230 1.256 1_655 S
C217 O231 1.272 . S
C218 O232 1.267 . S
C218 O233 1.278 . S
C219 Pr209 2.880 . S
C219 C220 1.491 . S
C219 O234 1.254 . S
C219 O235 1.225 . S
C220 C219 1.491 . S
C220 C221 1.392 . S
C220 C225 1.356 . S
C221 C220 1.392 . S
C221 C222 1.368 . S
C221 H244 0.929 . S
C222 C221 1.368 . S
C222 C223 1.386 . S
C222 H245 0.929 . S
C223 C222 1.386 . S
C223 C224 1.373 . S
C224 C223 1.373 . S
C224 C225 1.409 . S
C224 H246 0.931 . S
C225 C220 1.356 . S
C225 C224 1.409 . S
C225 H247 0.930 . S
C226 O236 1.270 1_455 S
C226 O237 1.248 . S
C227 O238 1.267 . S
C227 O239 1.278 . S
O228 Pr208 2.562 . S
O228 C210 1.254 . S
O229 Pr208 2.490 . S
O229 C210 1.225 . S
O230 Pr208 2.695 1_455 S
O230 Pr209 2.436 . S
O230 C217 1.256 1_455 S
O231 Pr208 2.512 . S
O231 C217 1.272 . S
O232 Pr209 2.438 1_655 S
O232 C218 1.267 . S
O233 Pr208 2.437 . S
O233 C218 1.278 . S
O234 Pr209 2.562 . S
O234 C219 1.254 . S
O235 Pr209 2.490 . S
O235 C219 1.225 . S
O236 Pr208 2.436 . S
O236 Pr209 2.695 1_655 S
O236 C226 1.270 1_655 S
O237 Pr209 2.512 . S
O237 C226 1.248 . S
O238 Pr208 2.438 1_455 S
O238 C227 1.267 . S
O239 Pr209 2.437 . S
O239 C227 1.278 . S
H240 C212 0.929 . S
H241 C213 0.927 1_554 S
H242 C215 0.931 . S
H243 C216 0.930 . S
H244 C221 0.929 . S
H245 C222 0.929 . S
H246 C224 0.931 . S
H247 C225 0.930 . S
H248 C254 0.930 . S
H249 C258 0.930 . S
H250 C263 0.929 . S
H251 C261 0.929 . S
H252 C256 0.929 . S
H253 C262 0.929 . S
C254 H248 0.930 . S
C254 C255 1.399 . S
C254 C262 1.378 . S
C255 C254 1.399 . S
C255 C263 1.401 1_545 S
C256 H252 0.929 . S
C256 C258 1.378 . S
C256 C260 1.348 1_565 S
C257 C260 1.463 . S
C257 C262 1.350 . S
C257 N265 1.427 1_545 S
C258 H249 0.930 . S
C258 C256 1.378 . S
C258 C259 1.334 1_565 S
C259 C258 1.334 1_545 S
C259 C261 1.467 . S
C260 C256 1.348 1_545 S
C260 C257 1.463 . S
C260 N264 1.430 . S
C261 H251 0.929 . S
C261 C259 1.467 . S
C261 N264 1.384 . S
C262 H253 0.929 . S
C262 C254 1.378 . S
C262 C257 1.350 . S
C263 H250 0.929 . S
C263 C255 1.401 1_565 S
C263 N265 1.384 . S
N264 C260 1.430 . S
N264 C261 1.384 . S
N265 C257 1.427 1_565 S
N265 C263 1.384 . S
H266 C272 0.930 . S
H267 C276 0.930 . S
H268 C281 0.929 . S
H269 C279 0.929 . S
H270 C274 0.929 . S
H271 C280 0.929 . S
C272 H266 0.930 . S
C272 C273 1.367 . S
C272 C280 1.378 . S
C273 C272 1.367 . S
C273 C281 1.433 . S
C274 H270 0.929 . S
C274 C276 1.378 . S
C274 C278 1.350 . S
C275 C278 1.463 . S
C275 C280 1.350 . S
C275 N283 1.427 . S
C276 H267 0.930 . S
C276 C274 1.378 . S
C276 C277 1.367 . S
C277 C276 1.367 . S
C277 C279 1.433 . S
C278 C274 1.350 . S
C278 C275 1.463 . S
C278 N282 1.427 . S
C279 H269 0.929 . S
C279 C277 1.433 . S
C279 N282 1.384 . S
C280 H271 0.929 . S
C280 C272 1.378 . S
C280 C275 1.350 . S
C281 H268 0.929 . S
C281 C273 1.433 . S
C281 N283 1.384 . S
N282 C278 1.427 . S
N282 C279 1.384 . S
N283 C275 1.427 . S
N283 C281 1.384 . S
H284 C290 0.930 . S
H285 C294 0.930 . S
H286 C299 0.929 . S
H287 C297 0.929 . S
H288 C292 0.929 . S
H289 C298 0.929 . S
C290 H284 0.930 . S
C290 C291 1.367 . S
C290 C298 1.378 . S
C291 C290 1.367 . S
C291 C299 1.433 . S
C292 H288 0.929 . S
C292 C294 1.378 . S
C292 C296 1.350 . S
C293 C296 1.463 . S
C293 C298 1.350 . S
C293 N301 1.427 . S
C294 H285 0.930 . S
C294 C292 1.378 . S
C294 C295 1.367 . S
C295 C294 1.367 . S
C295 C297 1.433 . S
C296 C292 1.350 . S
C296 C293 1.463 . S
C296 N300 1.427 . S
C297 H287 0.929 . S
C297 C295 1.433 . S
C297 N300 1.384 . S
C298 H289 0.929 . S
C298 C290 1.378 . S
C298 C293 1.350 . S
C299 H286 0.929 . S
C299 C291 1.433 . S
C299 N301 1.384 . S
N300 C296 1.427 . S
N300 C297 1.384 . S
N301 C293 1.427 . S
N301 C299 1.384 . S
H302 C308 0.930 . S
H303 C312 0.930 . S
H304 C317 0.929 . S
H305 C315 0.929 . S
H306 C310 0.929 . S
H307 C316 0.929 . S
C308 H302 0.930 . S
C308 C309 1.395 . S
C308 C316 1.378 . S
C309 C308 1.395 . S
C309 C317 1.406 1_455 S
C310 H306 0.929 . S
C310 C312 1.378 . S
C310 C314 1.339 1_655 S
C311 C314 1.463 . S
C311 C316 1.350 . S
C311 N319 1.427 1_455 S
C312 H303 0.930 . S
C312 C310 1.378 . S
C312 C313 1.367 1_655 S
C313 C312 1.367 1_455 S
C313 C315 1.433 . S
C314 C310 1.339 1_455 S
C314 C311 1.463 . S
C314 N318 1.439 . S
C315 H305 0.929 . S
C315 C313 1.433 . S
C315 N318 1.384 . S
C316 H307 0.929 . S
C316 C308 1.378 . S
C316 C311 1.350 . S
C317 H304 0.929 . S
C317 C309 1.406 1_655 S
C317 N319 1.384 . S
N318 C314 1.439 . S
N318 C315 1.384 . S
N319 C311 1.427 1_655 S
N319 C317 1.384 . S
H320 C326 0.930 . S
H321 C330 0.930 . S
H322 C335 0.929 . S
H323 C333 0.929 . S
H324 C328 0.929 . S
H325 C334 0.929 . S
C326 H320 0.930 . S
C326 C327 1.379 . S
C326 C334 1.378 . S
C327 C326 1.379 . S
C327 C335 1.421 1_565 S
C328 H324 0.929 . S
C328 C330 1.378 1_554 S
C328 C332 1.349 1_545 S
C329 C332 1.463 . S
C329 C334 1.350 . S
C329 N337 1.427 1_565 S
C330 H321 0.930 . S
C330 C328 1.378 1_556 S
C330 C331 1.345 1_545 S
C331 C330 1.345 1_565 S
C331 C333 1.455 . S
C332 C328 1.349 1_565 S
C332 C329 1.463 . S
C332 N336 1.428 1_554 S
C333 H323 0.929 . S
C333 C331 1.455 . S
C333 N336 1.384 . S
C334 H325 0.929 . S
C334 C326 1.378 . S
C334 C329 1.350 . S
C335 H322 0.929 . S
C335 C327 1.421 1_545 S
C335 N337 1.384 . S
N336 C332 1.428 1_556 S
N336 C333 1.384 . S
N337 C329 1.427 1_545 S
N337 C335 1.384 . S
H338 C344 0.930 . S
H339 C348 0.930 . S
H340 C353 0.929 . S
H341 C351 0.929 . S
H342 C346 0.929 . S
H343 C352 0.929 . S
C344 H338 0.930 . S
C344 C345 1.367 . S
C344 C352 1.378 . S
C345 C344 1.367 . S
C345 C353 1.433 . S
C346 H342 0.929 . S
C346 C348 1.378 . S
C346 C350 1.350 1_556 S
C347 C350 1.463 . S
C347 C352 1.350 . S
C347 N355 1.427 . S
C348 H339 0.930 . S
C348 C346 1.378 . S
C348 C349 1.367 . S
C349 C348 1.367 . S
C349 C351 1.433 . S
C350 C346 1.350 1_554 S
C350 C347 1.463 . S
C350 N354 1.427 . S
C351 H341 0.929 . S
C351 C349 1.433 . S
C351 N354 1.384 1_556 S
C352 H343 0.929 . S
C352 C344 1.378 . S
C352 C347 1.350 . S
C353 H340 0.929 . S
C353 C345 1.433 . S
C353 N355 1.384 . S
N354 C350 1.427 . S
N354 C351 1.384 1_554 S
N355 C347 1.427 . S
N355 C353 1.384 . S
H356 C362 0.930 . S
H357 C366 0.930 . S
H358 C371 0.929 . S
H359 C369 0.929 . S
H360 C364 0.929 . S
H361 C370 0.929 . S
C362 H356 0.930 . S
C362 C363 1.367 . S
C362 C370 1.378 . S
C363 C362 1.367 . S
C363 C371 1.433 . S
C364 H360 0.929 . S
C364 C366 1.378 . S
C364 C368 1.350 1_556 S
C365 C368 1.463 . S
C365 C370 1.350 . S
C365 N373 1.427 . S
C366 H357 0.930 . S
C366 C364 1.378 . S
C366 C367 1.367 . S
C367 C366 1.367 . S
C367 C369 1.433 . S
C368 C364 1.350 1_554 S
C368 C365 1.463 . S
C368 N372 1.427 . S
C369 H359 0.929 . S
C369 C367 1.433 . S
C369 N372 1.384 1_556 S
C370 H361 0.929 . S
C370 C362 1.378 . S
C370 C365 1.350 . S
C371 H358 0.929 . S
C371 C363 1.433 . S
C371 N373 1.384 . S
N372 C368 1.427 . S
N372 C369 1.384 1_554 S
N373 C365 1.427 . S
N373 C371 1.384 . S
H374 C380 0.930 . S
H375 C384 0.930 . S
H376 C389 0.929 . S
H377 C387 0.929 . S
H378 C382 0.929 . S
H379 C388 0.929 . S
C380 H374 0.930 . S
C380 C381 1.387 . S
C380 C388 1.378 . S
C381 C380 1.387 . S
C381 C389 1.414 1_655 S
C382 H378 0.929 . S
C382 C384 1.378 . S
C382 C386 1.337 1_456 S
C383 C386 1.463 . S
C383 C388 1.350 . S
C383 N391 1.427 1_655 S
C384 H375 0.930 . S
C384 C382 1.378 . S
C384 C385 1.367 1_455 S
C385 C384 1.367 1_655 S
C385 C387 1.433 . S
C386 C382 1.337 1_654 S
C386 C383 1.463 . S
C386 N390 1.441 . S
C387 H377 0.929 . S
C387 C385 1.433 . S
C387 N390 1.384 1_556 S
C388 H379 0.929 . S
C388 C380 1.378 . S
C388 C383 1.350 . S
C389 H376 0.929 . S
C389 C381 1.414 1_455 S
C389 N391 1.384 . S
N390 C386 1.441 . S
N390 C387 1.384 1_554 S
N391 C383 1.427 1_455 S
N391 C389 1.384 . S
H392 C398 0.930 . S
H393 C402 0.930 . S
H394 C407 0.929 . S
H395 C405 0.929 1_455 S
H396 C400 0.929 . S
H397 C406 0.929 . S
C398 H392 0.930 . S
C398 C399 1.367 . S
C398 C406 1.378 . S
C399 C398 1.367 . S
C399 C407 1.433 1_455 S
C400 H396 0.929 . S
C400 C402 1.378 . S
C400 C404 1.350 . S
C401 C404 1.463 . S
C401 C406 1.350 1_655 S
C401 N409 1.427 . S
C402 H393 0.930 . S
C402 C400 1.378 . S
C402 C403 1.367 . S
C403 C402 1.367 . S
C403 C405 1.433 . S
C404 C400 1.350 . S
C404 C401 1.463 . S
C404 N408 1.427 . S
C405 H395 0.929 1_655 S
C405 C403 1.433 . S
C405 N408 1.384 . S
C406 H397 0.929 . S
C406 C398 1.378 . S
C406 C401 1.350 1_455 S
C407 H394 0.929 . S
C407 C399 1.433 1_655 S
C407 N409 1.384 . S
N408 C404 1.427 . S
N408 C405 1.384 . S
N409 C401 1.427 . S
N409 C407 1.384 . S
H410 C416 0.930 . S
H411 C420 0.930 . S
H412 C425 0.929 . S
H413 C423 0.929 . S
H414 C418 0.929 1_545 S
H415 C424 0.929 . S
C416 H410 0.930 . S
C416 C417 1.347 1_565 S
C416 C424 1.378 . S
C417 C416 1.347 1_545 S
C417 C425 1.447 . S
C418 H414 0.929 1_565 S
C418 C420 1.378 . S
C418 C422 1.350 . S
C419 C422 1.463 . S
C419 C424 1.350 . S
C419 N427 1.427 1_565 S
C420 H411 0.930 . S
C420 C418 1.378 . S
C420 C421 1.367 . S
C421 C420 1.367 . S
C421 C423 1.433 . S
C422 C418 1.350 . S
C422 C419 1.463 . S
C422 N426 1.427 . S
C423 H413 0.929 . S
C423 C421 1.433 . S
C423 N426 1.384 . S
C424 H415 0.929 . S
C424 C416 1.378 . S
C424 C419 1.350 . S
C425 H412 0.929 . S
C425 C417 1.447 . S
C425 N427 1.384 . S
N426 C422 1.427 . S
N426 C423 1.384 . S
N427 C419 1.427 1_545 S
N427 C425 1.384 . S
H428 C434 0.930 . S
H429 C438 0.930 . S
H430 C443 0.929 . S
H431 C441 0.929 . S
H432 C436 0.929 . S
H433 C442 0.929 . S
C434 H428 0.930 . S
C434 C435 1.367 . S
C434 C442 1.378 . S
C435 C434 1.367 . S
C435 C443 1.433 . S
C436 H432 0.929 . S
C436 C438 1.378 . S
C436 C440 1.350 . S
C437 C440 1.463 . S
C437 C442 1.350 . S
C437 N445 1.427 . S
C438 H429 0.930 . S
C438 C436 1.378 . S
C438 C439 1.367 . S
C439 C438 1.367 . S
C439 C441 1.433 . S
C440 C436 1.350 . S
C440 C437 1.463 . S
C440 N444 1.427 . S
C441 H431 0.929 . S
C441 C439 1.433 . S
C441 N444 1.384 . S
C442 H433 0.929 . S
C442 C434 1.378 . S
C442 C437 1.350 . S
C443 H430 0.929 . S
C443 C435 1.433 . S
C443 N445 1.384 . S
N444 C440 1.427 . S
N444 C441 1.384 . S
N445 C437 1.427 . S
N445 C443 1.384 . S
H446 C452 0.930 . S
H447 C456 0.930 . S
H448 C461 0.929 . S
H449 C459 0.929 . S
H450 C454 0.929 . S
H451 C460 0.929 . S
C452 H446 0.930 . S
C452 C453 1.367 . S
C452 C460 1.378 . S
C453 C452 1.367 . S
C453 C461 1.433 . S
C454 H450 0.929 . S
C454 C456 1.378 . S
C454 C458 1.350 . S
C455 C458 1.463 . S
C455 C460 1.350 . S
C455 N463 1.427 . S
C456 H447 0.930 . S
C456 C454 1.378 . S
C456 C457 1.367 . S
C457 C456 1.367 . S
C457 C459 1.433 . S
C458 C454 1.350 . S
C458 C455 1.463 . S
C458 N462 1.427 . S
C459 H449 0.929 . S
C459 C457 1.433 . S
C459 N462 1.384 . S
C460 H451 0.929 . S
C460 C452 1.378 . S
C460 C455 1.350 . S
C461 H448 0.929 . S
C461 C453 1.433 . S
C461 N463 1.384 . S
N462 C458 1.427 . S
N462 C459 1.384 . S
N463 C455 1.427 . S
N463 C461 1.384 . S
H464 C470 0.930 . S
H465 C474 0.930 1_556 S
H466 C479 0.929 . S
H467 C477 0.929 . S
H468 C472 0.896 1_655 S
H469 C478 0.929 . S
C470 H464 0.930 . S
C470 C471 1.345 1_455 S
C470 C478 1.378 . S
C471 C470 1.345 1_655 S
C471 C479 1.447 . S
C472 H468 0.896 1_455 S
C472 C474 1.378 . S
C472 C476 1.350 . S
C473 C476 1.463 . S
C473 C478 1.350 . S
C473 N481 1.427 1_455 S
C474 H465 0.930 1_554 S
C474 C472 1.378 . S
C474 C475 1.367 . S
C475 C474 1.367 . S
C475 C477 1.433 . S
C476 C472 1.350 . S
C476 C473 1.463 . S
C476 N480 1.427 . S
C477 H467 0.929 . S
C477 C475 1.433 . S
C477 N480 1.384 . S
C478 H469 0.929 . S
C478 C470 1.378 . S
C478 C473 1.350 . S
C479 H466 0.929 . S
C479 C471 1.447 . S
C479 N481 1.384 . S
N480 C476 1.427 . S
N480 C477 1.384 . S
N481 C473 1.427 1_655 S
N481 C479 1.384 . S
H482 C488 0.930 . S
H483 C492 0.930 . S
H484 C497 0.929 . S
H485 C495 0.929 1_556 S
H486 C490 0.929 1_565 S
H487 C496 0.929 . S
C488 H482 0.930 . S
C488 C489 1.354 1_545 S
C488 C496 1.378 . S
C489 C488 1.354 1_565 S
C489 C497 1.442 . S
C490 H486 0.929 1_545 S
C490 C492 1.378 . S
C490 C494 1.350 . S
C491 C494 1.463 . S
C491 C496 1.350 . S
C491 N499 1.427 1_545 S
C492 H483 0.930 . S
C492 C490 1.378 . S
C492 C493 1.367 . S
C493 C492 1.367 . S
C493 C495 1.433 . S
C494 C490 1.350 . S
C494 C491 1.463 . S
C494 N498 1.427 . S
C495 H485 0.929 1_554 S
C495 C493 1.433 . S
C495 N498 1.384 . S
C496 H487 0.929 . S
C496 C488 1.378 . S
C496 C491 1.350 . S
C497 H484 0.929 . S
C497 C489 1.442 . S
C497 N499 1.384 . S
N498 C494 1.427 . S
N498 C495 1.384 . S
N499 C491 1.427 1_565 S
N499 C497 1.384 . S
H500 C506 0.930 . S
H501 C510 0.930 . S
H502 C515 0.929 . S
H503 C513 0.929 . S
H504 C508 0.929 . S
H505 C514 0.929 . S
C506 H500 0.930 . S
C506 C507 1.367 . S
C506 C514 1.378 . S
C507 C506 1.367 . S
C507 C515 1.433 . S
C508 H504 0.929 . S
C508 C510 1.378 . S
C508 C512 1.350 . S
C509 C512 1.463 . S
C509 C514 1.350 . S
C509 N517 1.427 . S
C510 H501 0.930 . S
C510 C508 1.378 . S
C510 C511 1.367 . S
C511 C510 1.367 . S
C511 C513 1.433 1_554 S
C512 C508 1.350 . S
C512 C509 1.463 . S
C512 N516 1.427 . S
C513 H503 0.929 . S
C513 C511 1.433 1_556 S
C513 N516 1.384 1_556 S
C514 H505 0.929 . S
C514 C506 1.378 . S
C514 C509 1.350 . S
C515 H502 0.929 . S
C515 C507 1.433 . S
C515 N517 1.384 . S
N516 C512 1.427 . S
N516 C513 1.384 1_554 S
N517 C509 1.427 . S
N517 C515 1.384 . S
H518 C524 0.930 . S
H519 C528 0.930 . S
H520 C533 0.929 . S
H521 C531 0.929 . S
H522 C526 0.929 . S
H523 C532 0.929 . S
C524 H518 0.930 . S
C524 C525 1.367 . S
C524 C532 1.378 . S
C525 C524 1.367 . S
C525 C533 1.433 . S
C526 H522 0.929 . S
C526 C528 1.378 . S
C526 C530 1.350 . S
C527 C530 1.463 . S
C527 C532 1.350 . S
C527 N535 1.427 . S
C528 H519 0.930 . S
C528 C526 1.378 . S
C528 C529 1.367 . S
C529 C528 1.367 . S
C529 C531 1.433 . S
C530 C526 1.350 . S
C530 C527 1.463 . S
C530 N534 1.427 . S
C531 H521 0.929 . S
C531 C529 1.433 . S
C531 N534 1.384 . S
C532 H523 0.929 . S
C532 C524 1.378 . S
C532 C527 1.350 . S
C533 H520 0.929 . S
C533 C525 1.433 . S
C533 N535 1.384 . S
N534 C530 1.427 . S
N534 C531 1.384 . S
N535 C527 1.427 . S
N535 C533 1.384 . S
H536 C542 0.930 . S
H537 C546 0.930 . S
H538 C551 0.929 . S
H539 C549 0.929 1_655 S
H540 C544 0.929 . S
H541 C550 0.929 . S
C542 H536 0.930 . S
C542 C543 1.367 1_655 S
C542 C550 1.378 . S
C543 C542 1.367 1_455 S
C543 C551 1.433 . S
C544 H540 0.929 . S
C544 C546 1.378 . S
C544 C548 1.350 . S
C545 C548 1.463 . S
C545 C550 1.350 1_455 S
C545 N553 1.427 . S
C546 H537 0.930 . S
C546 C544 1.378 . S
C546 C547 1.367 . S
C547 C546 1.367 . S
C547 C549 1.433 . S
C548 C544 1.350 . S
C548 C545 1.463 . S
C548 N552 1.427 . S
C549 H539 0.929 1_455 S
C549 C547 1.433 . S
C549 N552 1.383 . S
C550 H541 0.929 . S
C550 C542 1.378 . S
C550 C545 1.350 1_655 S
C551 H538 0.929 . S
C551 C543 1.433 . S
C551 N553 1.384 . S
N552 C548 1.427 . S
N552 C549 1.383 . S
N553 C545 1.427 . S
N553 C551 1.384 . S
H554 C560 0.930 . S
H555 C564 0.930 . S
H556 C569 0.929 . S
H557 C567 0.940 . S
H558 C562 0.929 . S
H559 C568 0.929 . S
C560 H554 0.930 . S
C560 C561 1.367 1_565 S
C560 C568 1.378 . S
C561 C560 1.367 1_545 S
C561 C569 1.433 . S
C562 H558 0.929 . S
C562 C564 1.378 . S
C562 C566 1.350 . S
C563 C566 1.463 . S
C563 C568 1.350 1_545 S
C563 N571 1.427 . S
C564 H555 0.930 . S
C564 C562 1.378 . S
C564 C565 1.367 . S
C565 C564 1.367 . S
C565 C567 1.433 . S
C566 C562 1.350 . S
C566 C563 1.463 . S
C566 N570 1.427 . S
C567 H557 0.940 . S
C567 C565 1.433 . S
C567 N570 1.384 . S
C568 H559 0.929 . S
C568 C560 1.378 . S
C568 C563 1.350 1_565 S
C569 H556 0.929 . S
C569 C561 1.433 . S
C569 N571 1.384 . S
N570 C566 1.427 . S
N570 C567 1.384 . S
N571 C563 1.427 . S
N571 C569 1.384 . S
H572 C578 0.930 . S
H573 C582 0.930 . S
H574 C587 0.929 . S
H575 C585 0.929 . S
H576 C580 0.929 . S
H577 C586 0.929 . S
C578 H572 0.930 . S
C578 C579 1.367 . S
C578 C586 1.378 . S
C579 C578 1.367 . S
C579 C587 1.433 . S
C580 H576 0.929 . S
C580 C582 1.378 . S
C580 C584 1.350 . S
C581 C584 1.463 . S
C581 C586 1.350 . S
C581 N589 1.427 . S
C582 H573 0.930 . S
C582 C580 1.378 . S
C582 C583 1.367 . S
C583 C582 1.367 . S
C583 C585 1.433 . S
C584 C580 1.350 . S
C584 C581 1.463 . S
C584 N588 1.427 . S
C585 H575 0.929 . S
C585 C583 1.433 . S
C585 N588 1.384 . S
C586 H577 0.929 . S
C586 C578 1.378 . S
C586 C581 1.350 . S
C587 H574 0.929 . S
C587 C579 1.433 . S
C587 N589 1.384 . S
N588 C584 1.427 . S
N588 C585 1.384 . S
N589 C581 1.427 . S
N589 C587 1.384 . S
H590 C596 0.930 . S
H591 C600 0.930 . S
H592 C605 0.929 . S
H593 C603 0.929 . S
H594 C598 0.929 . S
H595 C604 0.929 . S
C596 H590 0.930 . S
C596 C597 1.367 . S
C596 C604 1.378 . S
C597 C596 1.367 . S
C597 C605 1.433 . S
C598 H594 0.929 . S
C598 C600 1.378 . S
C598 C602 1.350 . S
C599 C602 1.463 . S
C599 C604 1.350 . S
C599 N607 1.427 . S
C600 H591 0.930 . S
C600 C598 1.378 . S
C600 C601 1.367 . S
C601 C600 1.367 . S
C601 C603 1.433 . S
C602 C598 1.350 . S
C602 C599 1.463 . S
C602 N606 1.427 . S
C603 H593 0.929 . S
C603 C601 1.433 . S
C603 N606 1.384 . S
C604 H595 0.929 . S
C604 C596 1.378 . S
C604 C599 1.350 . S
C605 H592 0.929 . S
C605 C597 1.433 . S
C605 N607 1.384 . S
N606 C602 1.427 . S
N606 C603 1.384 . S
N607 C599 1.427 . S
N607 C605 1.384 . S
H608 C614 0.930 . S
H609 C618 0.930 . S
H610 C623 0.929 . S
H611 C621 0.929 . S
H612 C616 0.929 . S
H613 C622 0.929 . S
C614 H608 0.930 . S
C614 C615 1.367 . S
C614 C622 1.378 . S
C615 C614 1.367 . S
C615 C623 1.433 1_655 S
C616 H612 0.929 . S
C616 C618 1.378 . S
C616 C620 1.350 1_455 S
C617 C620 1.463 . S
C617 C622 1.350 . S
C617 N625 1.427 1_655 S
C618 H609 0.930 . S
C618 C616 1.378 . S
C618 C619 1.367 1_455 S
C619 C618 1.367 1_655 S
C619 C621 1.433 . S
C620 C616 1.350 1_655 S
C620 C617 1.463 . S
C620 N624 1.427 . S
C621 H611 0.929 . S
C621 C619 1.433 . S
C621 N624 1.384 . S
C622 H613 0.929 . S
C622 C614 1.378 . S
C622 C617 1.350 . S
C623 H610 0.929 . S
C623 C615 1.433 1_455 S
C623 N625 1.384 . S
N624 C620 1.427 . S
N624 C621 1.384 . S
N625 C617 1.427 1_455 S
N625 C623 1.384 . S
H626 C632 0.930 . S
H627 C636 0.930 . S
H628 C641 0.929 . S
H629 C639 0.929 . S
H630 C634 0.929 . S
H631 C640 0.929 . S
C632 H626 0.930 . S
C632 C633 1.367 . S
C632 C640 1.378 . S
C633 C632 1.367 . S
C633 C641 1.433 1_565 S
C634 H630 0.929 . S
C634 C636 1.378 . S
C634 C638 1.350 1_545 S
C635 C638 1.463 . S
C635 C640 1.350 . S
C635 N643 1.427 1_565 S
C636 H627 0.930 . S
C636 C634 1.378 . S
C636 C637 1.367 1_545 S
C637 C636 1.367 1_565 S
C637 C639 1.433 . S
C638 C634 1.350 1_565 S
C638 C635 1.463 . S
C638 N642 1.427 . S
C639 H629 0.929 . S
C639 C637 1.433 . S
C639 N642 1.384 . S
C640 H631 0.929 . S
C640 C632 1.378 . S
C640 C635 1.350 . S
C641 H628 0.929 . S
C641 C633 1.433 1_545 S
C641 N643 1.384 . S
N642 C638 1.427 . S
N642 C639 1.384 . S
N643 C635 1.427 1_545 S
N643 C641 1.384 . S
H644 C650 0.930 . S
H645 C654 0.930 . S
H646 C659 0.929 . S
H647 C657 0.929 . S
H648 C652 0.929 . S
H649 C658 0.929 . S
C650 H644 0.930 . S
C650 C651 1.367 . S
C650 C658 1.378 . S
C651 C650 1.367 . S
C651 C659 1.433 . S
C652 H648 0.929 . S
C652 C654 1.378 . S
C652 C656 1.350 . S
C653 C656 1.463 . S
C653 C658 1.350 . S
C653 N661 1.427 . S
C654 H645 0.930 . S
C654 C652 1.378 . S
C654 C655 1.367 . S
C655 C654 1.367 . S
C655 C657 1.433 . S
C656 C652 1.350 . S
C656 C653 1.463 . S
C656 N660 1.427 . S
C657 H647 0.929 . S
C657 C655 1.433 . S
C657 N660 1.384 . S
C658 H649 0.929 . S
C658 C650 1.378 . S
C658 C653 1.350 . S
C659 H646 0.929 . S
C659 C651 1.433 . S
C659 N661 1.384 . S
N660 C656 1.427 . S
N660 C657 1.384 . S
N661 C653 1.427 . S
N661 C659 1.384 . S
H662 C668 0.930 . S
H663 C672 0.930 . S
H664 C677 0.929 . S
H665 C675 0.929 . S
H666 C670 0.929 . S
H667 C676 0.929 . S
C668 H662 0.930 . S
C668 C669 1.367 . S
C668 C676 1.378 . S
C669 C668 1.367 . S
C669 C677 1.433 . S
C670 H666 0.929 . S
C670 C672 1.378 . S
C670 C674 1.350 . S
C671 C674 1.463 . S
C671 C676 1.350 . S
C671 N679 1.427 . S
C672 H663 0.930 . S
C672 C670 1.378 . S
C672 C673 1.367 . S
C673 C672 1.367 . S
C673 C675 1.433 . S
C674 C670 1.350 . S
C674 C671 1.463 . S
C674 N678 1.427 . S
C675 H665 0.929 . S
C675 C673 1.433 . S
C675 N678 1.384 . S
C676 H667 0.929 . S
C676 C668 1.378 . S
C676 C671 1.350 . S
C677 H664 0.929 . S
C677 C669 1.433 . S
C677 N679 1.384 . S
N678 C674 1.427 . S
N678 C675 1.384 . S
N679 C671 1.427 . S
N679 C677 1.384 . S
C255 C74 1.779 . S
C259 C97 1.869 1_545 S
C277 C137 1.879 . S
C273 C85 1.771 . S
C295 C177 1.881 . S
C291 C52 1.789 . S
C313 C217 1.873 1_455 S
C309 C63 1.783 . S
C331 C106 1.874 1_565 S
C327 C30 1.778 1_565 S
C345 C41 1.792 . S
C349 C146 1.882 . S
C363 C8 1.790 . S
C367 C186 1.883 . S
C381 C19 1.785 1_655 S
C385 C226 1.877 1_655 S
C403 C103 0.617 . S
C399 C62 0.576 . S
C421 C143 0.592 . S
C417 C73 0.601 . S
C439 C183 0.601 . S
C435 C84 0.595 . S
C453 C51 0.580 . S
C457 C223 0.609 . S
C471 C18 0.600 1_655 S
C475 C94 0.593 . S
C493 C134 0.592 . S
C489 C29 0.595 1_565 S
C511 C174 0.615 . S
C507 C40 0.632 . S
C525 C7 0.603 . S
C529 C214 0.594 . S
C543 C60 1.713 . S
C547 C107 2.244 . S
C561 C71 1.717 . S
C565 C147 2.240 . S
C583 C187 2.236 . S
C579 C82 1.696 . S
C601 C227 2.240 . S
C597 C49 1.690 . S
C615 C16 1.798 1_655 S
C619 C98 2.251 . S
C637 C138 2.237 . S
C633 C27 1.777 1_565 S
C655 C178 2.237 . S
C651 C38 1.783 . S
C669 C5 1.798 . S
C673 C218 2.246 . S
