# Generated by pormake.
# Topology pyr, (3,6)-cn, num edge types: 1
# Building blocks:
#     Node 0, Type 0, BuildingBlock: OLANEW_clean_sbu_2, # of connection points: 3
#     Node 1, Type 0, BuildingBlock: OLANEW_clean_sbu_2, # of connection points: 3
#     Node 2, Type 0, BuildingBlock: OLANEW_clean_sbu_2, # of connection points: 3
#     Node 3, Type 0, BuildingBlock: OLANEW_clean_sbu_2, # of connection points: 3
#     Node 4, Type 0, BuildingBlock: OLANEW_clean_sbu_2, # of connection points: 3
#     Node 5, Type 0, BuildingBlock: OLANEW_clean_sbu_2, # of connection points: 3
#     Node 6, Type 0, BuildingBlock: OLANEW_clean_sbu_2, # of connection points: 3
#     Node 7, Type 0, BuildingBlock: OLANEW_clean_sbu_2, # of connection points: 3
#     Node 8, Type 1, BuildingBlock: PAMTOO_clean_sbu_0, # of connection points: 6
#     Node 9, Type 1, BuildingBlock: PAMTOO_clean_sbu_0, # of connection points: 6
#     Node 10, Type 1, BuildingBlock: PAMTOO_clean_sbu_0, # of connection points: 6
#     Node 11, Type 1, BuildingBlock: PAMTOO_clean_sbu_0, # of connection points: 6
#     Edge 12, Type (0, 1), BuildingBlock: AJUNOK_clean_linker_0, # of connection points: 2
#     Edge 13, Type (0, 1), BuildingBlock: AJUNOK_clean_linker_0, # of connection points: 2
#     Edge 14, Type (0, 1), BuildingBlock: AJUNOK_clean_linker_0, # of connection points: 2
#     Edge 15, Type (0, 1), BuildingBlock: AJUNOK_clean_linker_0, # of connection points: 2
#     Edge 16, Type (0, 1), BuildingBlock: AJUNOK_clean_linker_0, # of connection points: 2
#     Edge 17, Type (0, 1), BuildingBlock: AJUNOK_clean_linker_0, # of connection points: 2
#     Edge 18, Type (0, 1), BuildingBlock: AJUNOK_clean_linker_0, # of connection points: 2
#     Edge 19, Type (0, 1), BuildingBlock: AJUNOK_clean_linker_0, # of connection points: 2
#     Edge 20, Type (0, 1), BuildingBlock: AJUNOK_clean_linker_0, # of connection points: 2
#     Edge 21, Type (0, 1), BuildingBlock: AJUNOK_clean_linker_0, # of connection points: 2
#     Edge 22, Type (0, 1), BuildingBlock: AJUNOK_clean_linker_0, # of connection points: 2
#     Edge 23, Type (0, 1), BuildingBlock: AJUNOK_clean_linker_0, # of connection points: 2
#     Edge 24, Type (0, 1), BuildingBlock: AJUNOK_clean_linker_0, # of connection points: 2
#     Edge 25, Type (0, 1), BuildingBlock: AJUNOK_clean_linker_0, # of connection points: 2
#     Edge 26, Type (0, 1), BuildingBlock: AJUNOK_clean_linker_0, # of connection points: 2
#     Edge 27, Type (0, 1), BuildingBlock: AJUNOK_clean_linker_0, # of connection points: 2
#     Edge 28, Type (0, 1), BuildingBlock: AJUNOK_clean_linker_0, # of connection points: 2
#     Edge 29, Type (0, 1), BuildingBlock: AJUNOK_clean_linker_0, # of connection points: 2
#     Edge 30, Type (0, 1), BuildingBlock: AJUNOK_clean_linker_0, # of connection points: 2
#     Edge 31, Type (0, 1), BuildingBlock: AJUNOK_clean_linker_0, # of connection points: 2
#     Edge 32, Type (0, 1), BuildingBlock: AJUNOK_clean_linker_0, # of connection points: 2
#     Edge 33, Type (0, 1), BuildingBlock: AJUNOK_clean_linker_0, # of connection points: 2
#     Edge 34, Type (0, 1), BuildingBlock: AJUNOK_clean_linker_0, # of connection points: 2
#     Edge 35, Type (0, 1), BuildingBlock: AJUNOK_clean_linker_0, # of connection points: 2
# Relax obj value: 0.183
# Max RMSD: 0.225
# Mean RMSD: 0.129
data_MOF--net-pyr--node1-OLANEW_clean_sbu_2--node2-PAMTOO_clean_sbu_0--edge1-AJUNOK_clean_linker_0
_symmetry_space_group_name_H-M    P1
_symmetry_Int_Tables_number       1
_symmetry_cell_setting            triclinic
loop_
_symmetry_equiv_pos_as_xyz
'x, y, z'
_cell_length_a     29.427963
_cell_length_b     33.002965
_cell_length_c     32.283509
_cell_angle_alpha  94.522909
_cell_angle_beta   89.178023
_cell_angle_gamma 106.95489
loop_
_atom_site_label
_atom_site_type_symbol
_atom_site_fract_x
_atom_site_fract_y
_atom_site_fract_z
_atom_type_partial_charge
O0 O 0.44264 0.2905 0.18668 0.0
Cd1 Cd 0.41968 0.35261 0.21603 0.0
O2 O 0.36902 0.25706 0.19955 0.0
Cd3 Cd 0.31486 0.20093 0.21499 0.0
O4 O 0.28761 0.19242 0.27689 0.0
C5 C 0.31716 0.20248 0.30695 0.0
O6 O 0.36297 0.21469 0.29956 0.0
C7 C 0.40981 0.2558 0.18771 0.0
C8 C 0.33788 0.36737 0.18492 0.0
O9 O 0.37911 0.38397 0.16997 0.0
O10 O 0.33474 0.34194 0.21359 0.0
O11 O 0.16589 0.7932 0.78383 0.0
Cd12 Cd 0.12491 0.73413 0.73548 0.0
O13 O 0.11064 0.77961 0.83146 0.0
Cd14 Cd 0.05925 0.75904 0.78115 0.0
O15 O 0.04162 0.79947 0.73794 0.0
C16 C 0.06544 0.83848 0.74257 0.0
O17 O 0.09764 0.851 0.77231 0.0
C18 C 0.15305 0.79789 0.82116 0.0
C19 C 0.1991 0.70213 0.71041 0.0
O20 O 0.18499 0.72619 0.68757 0.0
O21 O 0.17648 0.69101 0.74379 0.0
O22 O 0.74609 0.45176 0.88374 0.0
Cd23 Cd 0.66987 0.43392 0.84167 0.0
O24 O 0.72052 0.39856 0.92364 0.0
Cd25 Cd 0.66281 0.34162 0.94004 0.0
O26 O 0.61115 0.28368 0.96211 0.0
C27 C 0.62855 0.2552 0.97342 0.0
O28 O 0.67476 0.26214 0.97082 0.0
C29 C 0.75334 0.43125 0.91392 0.0
C30 C 0.65099 0.47401 0.771 0.0
O31 O 0.64913 0.49038 0.80815 0.0
O32 O 0.66459 0.44035 0.7669 0.0
O33 O 0.96844 0.78067 0.38517 0.0
Cd34 Cd 0.93692 0.71085 0.33973 0.0
O35 O 0.92429 0.7568 0.4391 0.0
Cd36 Cd 0.89387 0.69082 0.4176 0.0
O37 O 0.82819 0.65236 0.44306 0.0
C38 C 0.80797 0.67254 0.46883 0.0
O39 O 0.82789 0.71344 0.47742 0.0
C40 C 0.95308 0.78698 0.42178 0.0
C41 C 0.96641 0.6683 0.26737 0.0
O42 O 0.96834 0.70776 0.26871 0.0
O43 O 0.95339 0.6494 0.3006 0.0
O44 O 0.65384 0.74473 0.82268 0.0
Cd45 Cd 0.62 0.70819 0.88288 0.0
O46 O 0.66471 0.79504 0.87251 0.0
Cd47 Cd 0.69171 0.85806 0.9029 0.0
O48 O 0.65937 0.89606 0.94391 0.0
C49 C 0.61773 0.89585 0.93395 0.0
O50 O 0.59827 0.87488 0.89926 0.0
C51 C 0.6728 0.78323 0.83553 0.0
C52 C 0.6998 0.69565 0.91728 0.0
O53 O 0.66914 0.665 0.89715 0.0
O54 O 0.69153 0.73163 0.92332 0.0
O55 O 0.87896 0.25196 0.38132 0.0
Cd56 Cd 0.95369 0.27959 0.41675 0.0
O57 O 0.89085 0.30509 0.34206 0.0
Cd58 Cd 0.92963 0.3451 0.39443 0.0
O59 O 0.8761 0.36944 0.42723 0.0
C60 C 0.84889 0.37959 0.40229 0.0
O61 O 0.85755 0.37658 0.36232 0.0
C62 C 0.86682 0.26819 0.35067 0.0
C63 C 0.96226 0.21004 0.45356 0.0
O64 O 0.97926 0.21763 0.41729 0.0
O65 O 0.94338 0.23625 0.47306 0.0
O66 O 0.45627 0.80461 0.26285 0.0
Cd67 Cd 0.43934 0.72994 0.29216 0.0
O68 O 0.40033 0.78607 0.21341 0.0
Cd69 Cd 0.35593 0.72145 0.2204 0.0
O70 O 0.28993 0.68135 0.19016 0.0
C71 C 0.28914 0.67723 0.15061 0.0
O72 O 0.32793 0.69541 0.13049 0.0
C73 C 0.43528 0.81367 0.23155 0.0
C74 C 0.46805 0.68952 0.36044 0.0
O75 O 0.49215 0.69518 0.32679 0.0
O76 O 0.43322 0.70565 0.36344 0.0
O77 O 0.17519 0.44537 0.80691 0.0
Cd78 Cd 0.19312 0.4108 0.73882 0.0
O79 O 0.10928 0.39299 0.8139 0.0
Cd80 Cd 0.12011 0.34597 0.7656 0.0
O81 O 0.11285 0.28489 0.7294 0.0
C82 C 0.07282 0.25648 0.72876 0.0
O83 O 0.03744 0.26503 0.74934 0.0
C84 C 0.13664 0.42945 0.82625 0.0
C85 C 0.27311 0.44416 0.68801 0.0
O86 O 0.23918 0.46127 0.69162 0.0
O87 O 0.2709 0.41294 0.70998 0.0
Dy88 Dy 0.06641 0.02755 0.56917 0.0
Dy89 Dy 0.95556 1.00303 0.6026 0.0
C90 C 0.03618 0.09055 0.63549 0.0
O91 O 0.07221 0.98817 0.61956 0.0
O92 O 0.99239 0.96442 0.63467 0.0
O93 O 0.14144 0.06126 0.57093 0.0
O94 O 0.10947 0.02066 0.5165 0.0
O95 O 0.95229 0.95612 0.54723 0.0
O96 O 0.03169 0.96112 0.54326 0.0
O97 O 0.94948 0.04381 0.55342 0.0
O98 O 0.02907 0.06583 0.53704 0.0
O99 O 0.88 0.97123 0.60454 0.0
O100 O 0.91601 1.01283 0.65696 0.0
C101 C 0.03639 0.96372 0.63869 0.0
O102 O 0.07058 0.07512 0.62267 0.0
O103 O 0.99158 0.07055 0.62611 0.0
C104 C 0.16828 0.08407 0.50446 0.0
C105 C 0.21689 0.14462 0.45098 0.0
C106 C 0.21868 0.15527 0.49387 0.0
C107 C 0.19412 0.12512 0.52062 0.0
C108 C 0.16464 0.07476 0.46123 0.0
C109 C 0.18849 0.10491 0.43475 0.0
C110 C 0.14649 0.05014 0.53184 0.0
C111 C 0.98739 0.94212 0.53231 0.0
C112 C 0.98546 0.06805 0.53422 0.0
C113 C 0.85264 0.95415 0.67307 0.0
C114 C 0.80232 0.89766 0.73038 0.0
C115 C 0.80434 0.88375 0.68827 0.0
C116 C 0.82942 0.91166 0.65991 0.0
C117 C 0.85139 0.96784 0.71536 0.0
C118 C 0.82658 0.93984 0.74376 0.0
C119 C 0.87691 0.985 0.64329 0.0
H120 H 0.24075 0.18592 0.50664 0.0
H121 H 0.19695 0.13337 0.55381 0.0
H122 H 0.14483 0.04358 0.44778 0.0
H123 H 0.18722 0.0963 0.40157 0.0
H124 H 0.78515 0.85163 0.67692 0.0
H125 H 0.82969 0.90012 0.62759 0.0
H126 H 0.86901 1.00047 0.7264 0.0
H127 H 0.82578 0.95132 0.77607 0.0
Dy128 Dy 0.43851 0.02443 0.07726 0.0
Dy129 Dy 0.53821 0.05372 0.12645 0.0
C130 C 0.4617 0.97119 0.14931 0.0
O131 O 0.42583 0.06346 0.13318 0.0
O132 O 0.50276 0.10338 0.14582 0.0
O133 O 0.36435 0.98858 0.07147 0.0
O134 O 0.39831 0.03041 0.02415 0.0
O135 O 0.54989 0.07906 0.06414 0.0
O136 O 0.47813 0.09006 0.05926 0.0
O137 O 0.54083 0.9971 0.08544 0.0
O138 O 0.48737 1.00037 0.03595 0.0
O139 O 0.60941 0.09552 0.12942 0.0
O140 O 0.58636 0.04762 0.17379 0.0
C141 C 0.45695 0.09847 0.14836 0.0
O142 O 0.44484 0.96847 0.11122 0.0
O143 O 0.48841 1.00783 0.16574 0.0
C144 C 0.33744 0.96965 1.00148 0.0
C145 C 0.28718 0.9101 0.93914 0.0
C146 C 0.30895 0.89679 0.97184 0.0
C147 C 0.33406 0.92644 1.00288 0.0
C148 C 0.31801 0.98308 0.96758 0.0
C149 C 0.29317 0.95356 0.93657 0.0
C150 C 0.36036 1.00154 0.03484 0.0
C151 C 0.52344 0.10067 0.05012 0.0
C152 C 0.52242 0.98695 0.04794 0.0
C153 C 0.64469 0.11111 0.19601 0.0
C154 C 0.70383 0.1691 0.25437 0.0
C155 C 0.67894 0.18367 0.22492 0.0
C156 C 0.64932 0.15477 0.19583 0.0
C157 C 0.66791 0.09661 0.22649 0.0
C158 C 0.69742 0.12532 0.25529 0.0
C159 C 0.61994 0.08035 0.16278 0.0
H160 H 0.30557 0.86343 0.97385 0.0
H161 H 0.34983 0.91551 0.02829 0.0
H162 H 0.32099 0.0164 0.96568 0.0
H163 H 0.27683 0.96454 0.91154 0.0
H164 H 0.68351 0.21734 0.22366 0.0
H165 H 0.63152 0.16667 0.17251 0.0
H166 H 0.66493 0.06312 0.22685 0.0
H167 H 0.7172 0.11329 0.2769 0.0
Dy168 Dy 0.53213 0.51174 0.53375 0.0
Dy169 Dy 0.52991 0.59897 0.58751 0.0
C170 C 0.57416 0.53308 0.62759 0.0
O171 O 0.45563 0.49685 0.55424 0.0
O172 O 0.46707 0.54893 0.60793 0.0
O173 O 0.53235 0.44605 0.52888 0.0
O174 O 0.54146 0.48064 0.4739 0.0
O175 O 0.48528 0.59434 0.53067 0.0
O176 O 0.52539 0.55897 0.48831 0.0
O177 O 0.59611 0.6175 0.55005 0.0
O178 O 0.6074 0.55169 0.54091 0.0
O179 O 0.52684 0.66378 0.59042 0.0
O180 O 0.52652 0.63255 0.64698 0.0
C181 C 0.44083 0.51385 0.58828 0.0
O182 O 0.55152 0.50371 0.59907 0.0
O183 O 0.57786 0.5734 0.62449 0.0
C184 C 0.58859 0.43454 0.47954 0.0
C185 C 0.67422 0.41674 0.45621 0.0
C186 C 0.66868 0.43363 0.4967 0.0
C187 C 0.62641 0.44276 0.50817 0.0
C188 C 0.59356 0.41658 0.43957 0.0
C189 C 0.63579 0.40756 0.42807 0.0
C190 C 0.54509 0.44681 0.49009 0.0
C191 C 0.50008 0.58593 0.49339 0.0
C192 C 0.62296 0.59298 0.53902 0.0
C193 C 0.472 0.67171 0.64289 0.0
C194 C 0.38139 0.67732 0.66726 0.0
C195 C 0.39518 0.67996 0.62547 0.0
C196 C 0.43992 0.67701 0.61335 0.0
C197 C 0.45821 0.66907 0.68463 0.0
C198 C 0.4132 0.6713 0.6966 0.0
C199 C 0.51725 0.66385 0.63004 0.0
H200 H 0.69764 0.4412 0.51903 0.0
H201 H 0.62374 0.45712 0.53913 0.0
H202 H 0.56492 0.41003 0.41701 0.0
H203 H 0.63839 0.39345 0.39702 0.0
H204 H 0.3715 0.68463 0.60213 0.0
H205 H 0.44898 0.67832 0.58075 0.0
H206 H 0.48184 0.6641 0.70787 0.0
H207 H 0.40314 0.66776 0.72881 0.0
Dy208 Dy 0.02225 0.57978 1.01184 0.0
Dy209 Dy 0.02562 0.49903 0.06145 0.0
C210 C 0.99646 0.57593 0.10991 0.0
O211 O 0.09923 0.59371 0.02879 0.0
O212 O 0.08677 0.55344 0.08493 0.0
O213 O 0.02918 0.64651 1.00928 0.0
O214 O 0.00865 0.60343 0.95423 0.0
O215 O 0.07749 0.50434 1.00865 0.0
O216 O 0.03593 0.53116 0.9651 0.0
O217 O 0.95835 0.47608 0.02192 0.0
O218 O 0.94673 0.54097 1.01715 0.0
O219 O 0.03125 0.43496 0.05765 0.0
O220 O 0.03142 0.46902 0.11767 0.0
C221 C 0.11336 0.58421 0.06426 0.0
O222 O 0.01415 0.59882 0.07882 0.0
O223 O 0.98756 0.53417 0.10614 0.0
C224 C 0.96801 0.65428 0.96682 0.0
C225 C 0.88045 0.66997 0.95442 0.0
C226 C 0.89498 0.66537 0.99456 0.0
C227 C 0.93828 0.65732 1.00071 0.0
C228 C 0.95389 0.65961 0.92686 0.0
C229 C 0.91045 0.66743 0.92068 0.0
C230 C 0.01082 0.64075 0.97201 0.0
C231 C 0.06685 0.51059 0.97085 0.0
C232 C 0.93159 0.49943 1.01103 0.0
C233 C 0.08456 0.42741 0.10921 0.0
C234 C 0.16935 0.41133 0.13376 0.0
C235 C 0.16348 0.42105 0.09287 0.0
C236 C 0.12173 0.42931 0.08079 0.0
C237 C 0.09051 0.41804 0.15006 0.0
C238 C 0.13241 0.41015 0.16223 0.0
C239 C 0.04029 0.43656 0.09728 0.0
H240 H 0.87275 0.6678 1.02113 0.0
H241 H 0.94797 0.65263 0.03184 0.0
H242 H 0.97589 0.65657 0.90028 0.0
H243 H 0.89978 0.67051 0.88939 0.0
H244 H 0.19078 0.4215 0.06991 0.0
H245 H 0.11854 0.43698 0.04915 0.0
H246 H 0.06269 0.41695 0.17266 0.0
H247 H 0.13598 0.40323 0.19406 0.0
C248 C 0.25972 0.21029 0.36158 0.0
C249 C 0.29958 0.19708 0.34939 0.0
C250 C 0.23538 0.19717 0.39799 0.0
C251 C 0.25044 0.17054 0.42288 0.0
H252 H 0.24569 0.22874 0.34159 0.0
H253 H 0.20268 0.20503 0.40494 0.0
S254 S 0.35391 0.12922 0.40579 0.0
N255 N 0.35469 0.15837 0.36631 0.0
N256 N 0.30841 0.13327 0.43463 0.0
C257 C 0.29213 0.15975 0.41265 0.0
C258 C 0.31701 0.17323 0.3758 0.0
C259 C 0.22714 0.85649 0.83822 0.0
C260 C 0.18756 0.82498 0.85185 0.0
C261 C 0.26008 0.88322 0.86659 0.0
C262 C 0.25493 0.87894 0.90948 0.0
H263 H 0.23225 0.86116 0.80544 0.0
H264 H 0.28952 0.90768 0.85495 0.0
S265 S 0.15858 0.80071 0.96104 0.0
N266 N 0.14577 0.79041 0.91098 0.0
N267 N 0.20789 0.84072 0.96433 0.0
C268 C 0.21615 0.84707 0.92348 0.0
C269 C 0.18232 0.82014 0.89465 0.0
C270 C 0.62384 0.46625 0.69621 0.0
C271 C 0.63458 0.49138 0.73421 0.0
C272 C 0.60472 0.48006 0.66208 0.0
C273 C 0.59599 0.51996 0.66403 0.0
H274 H 0.62917 0.43505 0.69297 0.0
H275 H 0.59663 0.45909 0.63391 0.0
S276 S 0.61871 0.59873 0.75577 0.0
N277 N 0.63541 0.5587 0.77128 0.0
N278 N 0.60026 0.58475 0.70726 0.0
C279 C 0.60738 0.54583 0.70153 0.0
C280 C 0.62637 0.53154 0.73649 0.0
C281 C 0.95616 0.60031 0.2209 0.0
C282 C 0.97636 0.64476 0.22807 0.0
C283 C 0.96264 0.57806 0.18301 0.0
C284 C 0.98975 0.59924 0.15055 0.0
H285 H 0.93424 0.58259 0.24446 0.0
H286 H 0.94577 0.54412 0.17899 0.0
S287 S 0.05495 0.71477 0.15539 0.0
N288 N 0.02737 0.70838 0.20033 0.0
N289 N 0.04031 0.66729 0.13015 0.0
C290 C 0.0114 0.64353 0.15803 0.0
C291 C 1.00451 0.66603 0.19636 0.0
C292 C 0.45894 0.20707 0.19767 0.0
C293 C 0.41973 0.21468 0.17892 0.0
C294 C 0.46936 0.16839 0.18923 0.0
C295 C 0.441 0.13604 0.16166 0.0
H296 H 0.48178 0.23124 0.21895 0.0
H297 H 0.50039 0.1641 0.20382 0.0
S298 S 0.33644 0.14214 0.10204 0.0
N299 N 0.35349 0.18783 0.13058 0.0
N300 N 0.37326 0.11537 0.11397 0.0
C301 C 0.40153 0.14338 0.14276 0.0
C302 C 0.39087 0.18268 0.15158 0.0
C303 C 0.09218 0.90942 0.71341 0.0
C304 C 0.05782 0.86954 0.71492 0.0
C305 C 0.08577 0.93972 0.68788 0.0
C306 C 0.04442 0.93131 0.6637 0.0
H307 H 0.12436 0.91735 0.73201 0.0
H308 H 0.11276 0.97015 0.68778 0.0
S309 S 0.94473 0.83164 0.65468 0.0
N310 N 0.98161 0.82315 0.68874 0.0
N311 N 0.96981 0.88007 0.64074 0.0
C312 C 0.01023 0.89148 0.66423 0.0
C313 C 0.01684 0.86057 0.6899 0.0
C314 C 0.82989 0.48766 0.93427 0.0
C315 C 0.79901 0.44668 0.93871 0.0
C316 C 0.87186 0.50402 0.9581 0.0
C317 C 0.88584 0.48012 0.98721 0.0
H318 H 0.82135 0.50776 0.91251 0.0
H319 H 0.89393 0.53581 0.95316 0.0
S320 S 0.81872 0.3705 1.01061 0.0
N321 N 0.786 0.3822 0.97482 0.0
N322 N 0.86542 0.41269 1.01861 0.0
C323 C 0.85594 0.43874 0.99156 0.0
C324 C 0.81252 0.42219 0.96771 0.0
C325 C 0.73647 0.6755 0.51044 0.0
C326 C 0.76198 0.65112 0.48793 0.0
C327 C 0.692 0.65641 0.52742 0.0
C328 C 0.67137 0.6121 0.52293 0.0
H329 H 0.75049 0.70978 0.51447 0.0
H330 H 0.67357 0.67669 0.54393 0.0
S331 S 0.72433 0.53383 0.46765 0.0
N332 N 0.76389 0.58024 0.46285 0.0
N333 N 0.6805 0.54424 0.49469 0.0
C334 C 0.69698 0.58724 0.50117 0.0
C335 C 0.74217 0.60676 0.48368 0.0
C336 C 0.24949 0.35475 0.1815 0.0
C337 C 0.2955 0.37866 0.17076 0.0
C338 C 0.20914 0.36562 0.16952 0.0
C339 C 0.21304 0.401 0.14649 0.0
H340 H 0.24448 0.32724 0.19919 0.0
H341 H 0.17449 0.34581 0.178 0.0
S342 S 0.32557 0.47616 0.11338 0.0
N343 N 0.34261 0.44052 0.13717 0.0
N344 N 0.267 0.46138 0.11554 0.0
C345 C 0.25887 0.42559 0.13611 0.0
C346 C 0.29996 0.41434 0.14803 0.0
C347 C 0.62041 0.18413 0.99931 0.0
C348 C 0.59865 0.21518 0.9903 0.0
C349 C 0.59524 0.147 1.01727 0.0
C350 C 0.54685 0.13884 0.02733 0.0
H351 H 0.65772 0.18859 0.99297 0.0
H352 H 0.61449 0.12483 0.02395 0.0
S353 S 0.47179 0.2087 1.00868 0.0
N354 N 0.52471 0.2344 0.99149 0.0
N355 N 0.47738 0.16445 0.02565 0.0
C356 C 0.52395 0.16894 1.01758 0.0
C357 C 0.54978 0.20707 0.99904 0.0
C358 C 1.00712 0.847 0.46646 0.0
C359 C 0.96419 0.82978 0.4444 0.0
C360 C 0.01402 0.88317 0.49464 0.0
C361 C 0.97813 0.90348 0.50231 0.0
H362 H 0.0349 0.83152 0.46309 0.0
H363 H 0.04763 0.89471 0.51123 0.0
S364 S 0.85908 0.8704 0.45179 0.0
N365 N 0.88524 0.8354 0.43185 0.0
N366 N 0.89813 0.90332 0.48429 0.0
C367 C 0.93512 0.88654 0.48005 0.0
C368 C 0.92821 0.84977 0.45134 0.0
C369 C 0.24909 0.66685 0.66632 0.0
C370 C 0.24423 0.69283 0.7016 0.0
C371 C 0.29335 0.66099 0.656 0.0
C372 C 0.33429 0.68173 0.68017 0.0
H373 H 0.2186 0.65123 0.64653 0.0
H374 H 0.2956 0.64039 0.62871 0.0
S375 S 0.33983 0.75556 0.77416 0.0
N376 N 0.2832 0.73998 0.7603 0.0
N377 N 0.36685 0.73087 0.73997 0.0
C378 C 0.32953 0.70798 0.71549 0.0
C379 C 0.28436 0.71313 0.72639 0.0
C380 C 0.70724 0.85516 0.80954 0.0
C381 C 0.70647 0.81239 0.80945 0.0
C382 C 0.73946 0.88299 0.78483 0.0
C383 C 0.7721 0.86896 0.75947 0.0
H384 H 0.68197 0.86692 0.82787 0.0
H385 H 0.7378 0.91534 0.78461 0.0
S386 S 0.78876 0.76152 0.7533 0.0
N387 N 0.74364 0.75827 0.78513 0.0
N388 N 0.80489 0.81075 0.73935 0.0
C389 C 0.77299 0.82675 0.76068 0.0
C390 C 0.73993 0.7984 0.78546 0.0
C391 C 0.81679 0.25416 0.28647 0.0
C392 C 0.82304 0.24537 0.32752 0.0
C393 C 0.77628 0.23107 0.26352 0.0
C394 C 0.74065 0.19897 0.2812 0.0
H395 H 0.84413 0.27783 0.27148 0.0
H396 H 0.77405 0.23692 0.23116 0.0
S397 S 0.73639 0.16874 0.3896 0.0
N398 N 0.78796 0.2054 0.38626 0.0
N399 N 0.7111 0.16334 0.34341 0.0
C400 C 0.74493 0.19206 0.32307 0.0
C401 C 0.78641 0.21485 0.34615 0.0
C402 C 0.4477 0.65489 0.42861 0.0
C403 C 0.47788 0.66317 0.39388 0.0
C404 C 0.45463 0.6295 0.45985 0.0
C405 C 0.49178 0.6104 0.45799 0.0
H406 H 0.41814 0.66817 0.43185 0.0
H407 H 0.43041 0.62478 0.48581 0.0
S408 S 0.58207 0.62209 0.3746 0.0
N409 N 0.54741 0.65001 0.36032 0.0
N410 N 0.55997 0.60238 0.4185 0.0
C411 C 0.5222 0.61807 0.42342 0.0
C412 C 0.51542 0.64432 0.39168 0.0
C413 C 0.07292 0.45069 0.86655 0.0
C414 C 0.12137 0.4531 0.86249 0.0
C415 C 0.05606 0.47015 0.90128 0.0
C416 C 0.08661 0.49163 0.93417 0.0
H417 H 0.04767 0.43358 0.84255 0.0
H418 H 0.01848 0.4674 0.90286 0.0
S419 S 0.21656 0.50788 0.93903 0.0
N420 N 0.19998 0.48012 0.89406 0.0
N421 N 0.16779 0.51505 0.96031 0.0
C422 C 0.13512 0.49445 0.93068 0.0
C423 C 0.15263 0.47569 0.89459 0.0
C424 C 0.59765 0.91862 1.00513 0.0
C425 C 0.59097 0.91743 0.96203 0.0
C426 C 0.57419 0.94023 0.03271 0.0
C427 C 0.54359 0.96176 1.01811 0.0
H428 H 0.6212 0.90271 1.01767 0.0
H429 H 0.58056 0.94037 0.0657 0.0
S430 S 0.51485 0.9686 0.90768 0.0
N431 N 0.55152 0.93899 0.90574 0.0
N432 N 0.50809 0.98075 0.95751 0.0
C433 C 0.53611 0.96033 0.97496 0.0
C434 C 0.55964 0.93782 0.94691 0.0
C435 C 0.93089 0.13559 0.47292 0.0
C436 C 0.96783 0.1739 0.47383 0.0
C437 C 0.93637 0.10091 0.49268 0.0
C438 C 0.97907 0.10392 0.51337 0.0
H439 H 0.89784 0.13246 0.45682 0.0
H440 H 0.90747 0.07164 0.49139 0.0
S441 S 0.08368 0.19962 0.52805 0.0
N442 N 0.04641 0.21415 0.49892 0.0
N443 N 0.05691 0.14971 0.53675 0.0
C444 C 0.0155 0.14276 0.51535 0.0
C445 C 0.00983 0.17766 0.49529 0.0
C446 C 0.20036 0.64899 0.14652 0.0
C447 C 0.24477 0.65405 0.12742 0.0
C448 C 0.15798 0.62732 0.1252 0.0
C449 C 0.15837 0.61024 0.08394 0.0
H450 H 0.19824 0.6619 0.17816 0.0
H451 H 0.12456 0.62373 0.14121 0.0
S452 S 0.26467 0.61239 1.02056 0.0
N453 N 0.28626 0.63858 0.0651 0.0
N454 N 0.20627 0.59837 0.02515 0.0
C455 C 0.20218 0.61518 0.06432 0.0
C456 C 0.24547 0.63696 0.08606 0.0
C457 C 0.32972 0.50366 0.65295 0.0
C458 C 0.3136 0.46017 0.6594 0.0
C459 C 0.36941 0.52007 0.62808 0.0
C460 C 0.39411 0.49364 0.60758 0.0
H461 H 0.31262 0.52554 0.66848 0.0
H462 H 0.3816 0.55411 0.62569 0.0
S463 S 0.3628 0.37658 0.61024 0.0
N464 N 0.32326 0.39033 0.64072 0.0
N465 N 0.39711 0.42111 0.59308 0.0
C466 C 0.37676 0.44972 0.61181 0.0
C467 C 0.33684 0.43305 0.638 0.0
C468 C 0.78784 0.71761 0.91588 0.0
C469 C 0.74526 0.69052 0.93002 0.0
C470 C 0.83153 0.71083 0.92413 0.0
C471 C 0.83399 0.67725 0.94743 0.0
H472 H 0.78723 0.74334 0.8972 0.0
H473 H 0.86359 0.73191 0.91211 0.0
S474 S 0.73215 0.59874 0.99267 0.0
N475 N 0.70774 0.62978 0.96881 0.0
N476 N 0.78995 0.61722 0.98518 0.0
C477 C 0.79156 0.65061 0.96254 0.0
C478 C 0.7471 0.65716 0.95351 0.0
C479 C 0.45887 0.858 0.1708 0.0
C480 C 0.4499 0.85623 0.21384 0.0
C481 C 0.46227 0.89495 0.15024 0.0
C482 C 0.45665 0.93199 0.1717 0.0
H483 H 0.46198 0.82996 0.15252 0.0
H484 H 0.46934 0.89447 0.11719 0.0
S485 S 0.42869 0.94356 0.2836 0.0
N486 N 0.4328 0.89459 0.27649 0.0
N487 N 0.44011 0.96412 0.2382 0.0
C488 C 0.44803 0.93091 0.21471 0.0
C489 C 0.44433 0.89311 0.23564 0.0
C490 C 0.01893 0.18701 0.69906 0.0
C491 C 0.06535 0.21445 0.70498 0.0
C492 C 0.01018 0.14721 0.67688 0.0
C493 C 0.04743 0.13273 0.65973 0.0
H494 H 0.98876 0.19635 0.71142 0.0
H495 H 0.97363 0.12769 0.67324 0.0
S496 S 0.1759 0.19232 0.66632 0.0
N497 N 0.14935 0.22426 0.69186 0.0
N498 N 0.13301 0.1495 0.65014 0.0
C499 C 0.09421 0.1598 0.66544 0.0
C500 C 0.10311 0.20057 0.68799 0.0
C501 C 0.78604 0.38034 0.4557 0.0
C502 C 0.80637 0.39183 0.41702 0.0
C503 C 0.74367 0.38894 0.46845 0.0
C504 C 0.72015 0.40944 0.44305 0.0
H505 H 0.80221 0.36357 0.47582 0.0
H506 H 0.72863 0.37853 0.49797 0.0
S507 S 0.76172 0.45035 0.34105 0.0
N508 N 0.80142 0.42734 0.35474 0.0
N509 N 0.72282 0.44432 0.37909 0.0
C510 C 0.74114 0.42244 0.40502 0.0
C511 C 0.78394 0.41343 0.39193 0.0
loop_
_geom_bond_atom_site_label_1
_geom_bond_atom_site_label_2
_geom_bond_distance
_geom_bond_site_symmetry_2
_ccdc_geom_bond_type
O0 Cd1 2.300 . S
O0 C7 1.275 . S
Cd1 O0 2.300 . S
Cd1 O9 2.381 . S
Cd1 O10 2.378 . S
O2 Cd3 2.385 . S
O2 C7 1.255 . S
Cd3 O2 2.385 . S
Cd3 O4 2.317 . S
O4 Cd3 2.317 . S
O4 C5 1.232 . S
C5 O4 1.232 . S
C5 O6 1.218 . S
O6 C5 1.218 . S
C7 O0 1.275 . S
C7 O2 1.255 . S
C8 O9 1.258 . S
C8 O10 1.256 . S
O9 Cd1 2.381 . S
O9 C8 1.258 . S
O10 Cd1 2.378 . S
O10 C8 1.256 . S
O11 Cd12 2.300 . S
O11 C18 1.275 . S
Cd12 O11 2.300 . S
Cd12 O20 2.381 . S
Cd12 O21 2.378 . S
O13 Cd14 2.385 . S
O13 C18 1.255 . S
Cd14 O13 2.385 . S
Cd14 O15 2.317 . S
O15 Cd14 2.317 . S
O15 C16 1.232 . S
C16 O15 1.232 . S
C16 O17 1.218 . S
O17 C16 1.218 . S
C18 O11 1.275 . S
C18 O13 1.255 . S
C19 O20 1.258 . S
C19 O21 1.256 . S
O20 Cd12 2.381 . S
O20 C19 1.258 . S
O21 Cd12 2.378 . S
O21 C19 1.256 . S
O22 Cd23 2.300 . S
O22 C29 1.275 . S
Cd23 O22 2.300 . S
Cd23 O31 2.381 . S
Cd23 O32 2.378 . S
O24 Cd25 2.385 . S
O24 C29 1.255 . S
Cd25 O24 2.385 . S
Cd25 O26 2.317 . S
O26 Cd25 2.317 . S
O26 C27 1.232 . S
C27 O26 1.232 . S
C27 O28 1.218 . S
O28 C27 1.218 . S
C29 O22 1.275 . S
C29 O24 1.255 . S
C30 O31 1.258 . S
C30 O32 1.256 . S
O31 Cd23 2.381 . S
O31 C30 1.258 . S
O32 Cd23 2.378 . S
O32 C30 1.256 . S
O33 Cd34 2.300 . S
O33 C40 1.275 . S
Cd34 O33 2.300 . S
Cd34 O42 2.381 . S
Cd34 O43 2.378 . S
O35 Cd36 2.385 . S
O35 C40 1.255 . S
Cd36 O35 2.385 . S
Cd36 O37 2.317 . S
O37 Cd36 2.317 . S
O37 C38 1.232 . S
C38 O37 1.232 . S
C38 O39 1.218 . S
O39 C38 1.218 . S
C40 O33 1.275 . S
C40 O35 1.255 . S
C41 O42 1.258 . S
C41 O43 1.256 . S
O42 Cd34 2.381 . S
O42 C41 1.258 . S
O43 Cd34 2.378 . S
O43 C41 1.256 . S
O44 Cd45 2.300 . S
O44 C51 1.275 . S
Cd45 O44 2.300 . S
Cd45 O53 2.381 . S
Cd45 O54 2.378 . S
O46 Cd47 2.385 . S
O46 C51 1.255 . S
Cd47 O46 2.385 . S
Cd47 O48 2.317 . S
O48 Cd47 2.317 . S
O48 C49 1.232 . S
C49 O48 1.232 . S
C49 O50 1.218 . S
O50 C49 1.218 . S
C51 O44 1.275 . S
C51 O46 1.255 . S
C52 O53 1.258 . S
C52 O54 1.256 . S
O53 Cd45 2.381 . S
O53 C52 1.258 . S
O54 Cd45 2.378 . S
O54 C52 1.256 . S
O55 Cd56 2.300 . S
O55 C62 1.275 . S
Cd56 O55 2.300 . S
Cd56 O64 2.381 . S
Cd56 O65 2.378 1_655 S
O57 Cd58 2.385 . S
O57 C62 1.255 . S
Cd58 O57 2.385 . S
Cd58 O59 2.317 . S
O59 Cd58 2.317 . S
O59 C60 1.232 . S
C60 O59 1.232 . S
C60 O61 1.218 . S
O61 C60 1.218 . S
C62 O55 1.275 . S
C62 O57 1.255 . S
C63 O64 1.258 . S
C63 O65 1.256 1_655 S
O64 Cd56 2.381 . S
O64 C63 1.258 . S
O65 Cd56 2.378 1_455 S
O65 C63 1.256 1_455 S
O66 Cd67 2.300 . S
O66 C73 1.275 . S
Cd67 O66 2.300 . S
Cd67 O75 2.381 . S
Cd67 O76 2.378 . S
O68 Cd69 2.385 . S
O68 C73 1.255 . S
Cd69 O68 2.385 . S
Cd69 O70 2.317 . S
O70 Cd69 2.317 . S
O70 C71 1.232 . S
C71 O70 1.232 . S
C71 O72 1.218 . S
O72 C71 1.218 . S
C73 O66 1.275 . S
C73 O68 1.255 . S
C74 O75 1.258 . S
C74 O76 1.256 . S
O75 Cd67 2.381 . S
O75 C74 1.258 . S
O76 Cd67 2.378 . S
O76 C74 1.256 . S
O77 Cd78 2.300 . S
O77 C84 1.275 . S
Cd78 O77 2.300 . S
Cd78 O86 2.381 . S
Cd78 O87 2.378 . S
O79 Cd80 2.385 . S
O79 C84 1.255 . S
Cd80 O79 2.385 . S
Cd80 O81 2.317 . S
O81 Cd80 2.317 . S
O81 C82 1.232 . S
C82 O81 1.232 . S
C82 O83 1.218 . S
O83 C82 1.218 . S
C84 O77 1.275 . S
C84 O79 1.255 . S
C85 O86 1.258 . S
C85 O87 1.256 . S
O86 Cd78 2.381 . S
O86 C85 1.258 . S
O87 Cd78 2.378 . S
O87 C85 1.256 . S
Dy88 O91 2.307 1_545 S
Dy88 O93 2.395 . S
Dy88 O94 2.379 . S
Dy88 O96 2.339 1_545 S
Dy88 O98 2.298 . S
Dy88 O102 2.275 . S
Dy88 C110 2.738 . S
Dy89 O92 2.298 1_645 S
Dy89 O95 2.275 1_545 S
Dy89 O97 2.307 . S
Dy89 O99 2.395 1_545 S
Dy89 O100 2.379 1_545 S
Dy89 O103 2.339 . S
Dy89 C119 2.738 1_545 S
C90 O102 1.254 . S
C90 O103 1.257 1_455 S
O91 Dy88 2.307 1_565 S
O91 C101 1.266 . S
O92 Dy89 2.298 1_465 S
O92 C101 1.236 . S
O93 Dy88 2.395 . S
O93 C110 1.255 . S
O94 Dy88 2.379 . S
O94 C110 1.249 . S
O95 Dy89 2.275 1_565 S
O95 C111 1.254 . S
O96 Dy88 2.339 1_565 S
O96 C111 1.257 1_455 S
O97 Dy89 2.307 . S
O97 C112 1.266 . S
O98 Dy88 2.298 . S
O98 C112 1.236 1_455 S
O99 Dy89 2.395 1_565 S
O99 C119 1.255 . S
O100 Dy89 2.379 1_565 S
O100 C119 1.249 . S
C101 O91 1.266 . S
C101 O92 1.236 . S
O102 Dy88 2.275 . S
O102 C90 1.254 . S
O103 Dy89 2.339 . S
O103 C90 1.257 1_655 S
C104 C107 1.344 . S
C104 C108 1.328 . S
C104 C110 1.516 . S
C105 C106 1.304 . S
C105 C109 1.323 . S
C106 C105 1.304 . S
C106 C107 1.371 . S
C106 H120 0.930 . S
C107 C104 1.344 . S
C107 C106 1.371 . S
C107 H121 0.931 . S
C108 C104 1.328 . S
C108 C109 1.433 . S
C108 H122 0.931 . S
C109 C105 1.323 . S
C109 C108 1.433 . S
C109 H123 0.933 . S
C110 Dy88 2.738 . S
C110 O93 1.255 . S
C110 O94 1.249 . S
C110 C104 1.516 . S
C111 O95 1.254 . S
C111 O96 1.257 1_655 S
C112 O97 1.266 . S
C112 O98 1.236 1_655 S
C113 C116 1.344 . S
C113 C117 1.328 . S
C113 C119 1.516 . S
C114 C115 1.304 . S
C114 C118 1.323 . S
C115 C114 1.304 . S
C115 C116 1.371 . S
C115 H124 0.930 . S
C116 C113 1.344 . S
C116 C115 1.371 . S
C116 H125 0.931 . S
C117 C113 1.328 . S
C117 C118 1.433 . S
C117 H126 0.931 . S
C118 C114 1.323 . S
C118 C117 1.433 . S
C118 H127 0.933 . S
C119 Dy89 2.738 1_565 S
C119 O99 1.255 . S
C119 O100 1.249 . S
C119 C113 1.516 . S
H120 C106 0.930 . S
H121 C107 0.931 . S
H122 C108 0.931 . S
H123 C109 0.933 . S
H124 C115 0.930 . S
H125 C116 0.931 . S
H126 C117 0.931 . S
H127 C118 0.933 . S
Dy128 O131 2.307 . S
Dy128 O133 2.395 1_545 S
Dy128 O134 2.379 1_554 S
Dy128 O136 2.339 . S
Dy128 O138 2.298 1_545 S
Dy128 O142 2.275 1_545 S
Dy128 C150 2.738 1_544 S
Dy129 O132 2.298 . S
Dy129 O135 2.275 . S
Dy129 O137 2.307 1_545 S
Dy129 O139 2.395 . S
Dy129 O140 2.379 . S
Dy129 O143 2.339 1_545 S
Dy129 C159 2.738 . S
C130 O142 1.254 . S
C130 O143 1.257 . S
O131 Dy128 2.307 . S
O131 C141 1.266 . S
O132 Dy129 2.298 . S
O132 C141 1.236 . S
O133 Dy128 2.395 1_565 S
O133 C150 1.255 1_554 S
O134 Dy128 2.379 1_556 S
O134 C150 1.249 1_545 S
O135 Dy129 2.275 . S
O135 C151 1.254 . S
O136 Dy128 2.339 . S
O136 C151 1.257 . S
O137 Dy129 2.307 1_565 S
O137 C152 1.266 . S
O138 Dy128 2.298 1_565 S
O138 C152 1.236 . S
O139 Dy129 2.395 . S
O139 C159 1.255 . S
O140 Dy129 2.379 . S
O140 C159 1.249 . S
C141 O131 1.266 . S
C141 O132 1.236 . S
O142 Dy128 2.275 1_565 S
O142 C130 1.254 . S
O143 Dy129 2.339 1_565 S
O143 C130 1.257 . S
C144 C147 1.344 . S
C144 C148 1.328 . S
C144 C150 1.516 . S
C145 C146 1.304 . S
C145 C149 1.323 . S
C146 C145 1.304 . S
C146 C147 1.371 . S
C146 H160 0.930 . S
C147 C144 1.344 . S
C147 C146 1.371 . S
C147 H161 0.931 . S
C148 C144 1.328 . S
C148 C149 1.433 . S
C148 H162 0.931 . S
C149 C145 1.323 . S
C149 C148 1.433 . S
C149 H163 0.933 . S
C150 Dy128 2.738 1_566 S
C150 O133 1.255 1_556 S
C150 O134 1.249 1_565 S
C150 C144 1.516 . S
C151 O135 1.254 . S
C151 O136 1.257 . S
C152 O137 1.266 . S
C152 O138 1.236 . S
C153 C156 1.344 . S
C153 C157 1.328 . S
C153 C159 1.516 . S
C154 C155 1.304 . S
C154 C158 1.323 . S
C155 C154 1.304 . S
C155 C156 1.371 . S
C155 H164 0.930 . S
C156 C153 1.344 . S
C156 C155 1.371 . S
C156 H165 0.931 . S
C157 C153 1.328 . S
C157 C158 1.433 . S
C157 H166 0.931 . S
C158 C154 1.323 . S
C158 C157 1.433 . S
C158 H167 0.933 . S
C159 Dy129 2.738 . S
C159 O139 1.255 . S
C159 O140 1.249 . S
C159 C153 1.516 . S
H160 C146 0.930 . S
H161 C147 0.931 . S
H162 C148 0.931 . S
H163 C149 0.933 . S
H164 C155 0.930 . S
H165 C156 0.931 . S
H166 C157 0.931 . S
H167 C158 0.933 . S
Dy168 O171 2.307 . S
Dy168 O173 2.395 . S
Dy168 O174 2.379 . S
Dy168 O176 2.339 . S
Dy168 O178 2.298 . S
Dy168 O182 2.275 . S
Dy168 C190 2.738 . S
Dy169 O172 2.298 . S
Dy169 O175 2.275 . S
Dy169 O177 2.307 . S
Dy169 O179 2.395 . S
Dy169 O180 2.379 . S
Dy169 O183 2.339 . S
Dy169 C199 2.738 . S
C170 O182 1.254 . S
C170 O183 1.257 . S
O171 Dy168 2.307 . S
O171 C181 1.266 . S
O172 Dy169 2.298 . S
O172 C181 1.236 . S
O173 Dy168 2.395 . S
O173 C190 1.255 . S
O174 Dy168 2.379 . S
O174 C190 1.249 . S
O175 Dy169 2.275 . S
O175 C191 1.254 . S
O176 Dy168 2.339 . S
O176 C191 1.257 . S
O177 Dy169 2.307 . S
O177 C192 1.266 . S
O178 Dy168 2.298 . S
O178 C192 1.236 . S
O179 Dy169 2.395 . S
O179 C199 1.255 . S
O180 Dy169 2.379 . S
O180 C199 1.249 . S
C181 O171 1.266 . S
C181 O172 1.236 . S
O182 Dy168 2.275 . S
O182 C170 1.254 . S
O183 Dy169 2.339 . S
O183 C170 1.257 . S
C184 C187 1.344 . S
C184 C188 1.328 . S
C184 C190 1.516 . S
C185 C186 1.304 . S
C185 C189 1.323 . S
C186 C185 1.304 . S
C186 C187 1.371 . S
C186 H200 0.930 . S
C187 C184 1.344 . S
C187 C186 1.371 . S
C187 H201 0.931 . S
C188 C184 1.328 . S
C188 C189 1.433 . S
C188 H202 0.931 . S
C189 C185 1.323 . S
C189 C188 1.433 . S
C189 H203 0.933 . S
C190 Dy168 2.738 . S
C190 O173 1.255 . S
C190 O174 1.249 . S
C190 C184 1.516 . S
C191 O175 1.254 . S
C191 O176 1.257 . S
C192 O177 1.266 . S
C192 O178 1.236 . S
C193 C196 1.344 . S
C193 C197 1.328 . S
C193 C199 1.516 . S
C194 C195 1.304 . S
C194 C198 1.323 . S
C195 C194 1.304 . S
C195 C196 1.371 . S
C195 H204 0.930 . S
C196 C193 1.344 . S
C196 C195 1.371 . S
C196 H205 0.931 . S
C197 C193 1.328 . S
C197 C198 1.433 . S
C197 H206 0.931 . S
C198 C194 1.323 . S
C198 C197 1.433 . S
C198 H207 0.933 . S
C199 Dy169 2.738 . S
C199 O179 1.255 . S
C199 O180 1.249 . S
C199 C193 1.516 . S
H200 C186 0.930 . S
H201 C187 0.931 . S
H202 C188 0.931 . S
H203 C189 0.933 . S
H204 C195 0.930 . S
H205 C196 0.931 . S
H206 C197 0.931 . S
H207 C198 0.933 . S
Dy208 O211 2.307 1_556 S
Dy208 O213 2.395 1_455 S
Dy208 O214 2.379 1_455 S
Dy208 O216 2.339 . S
Dy208 O218 2.298 1_455 S
Dy208 O222 2.275 1_556 S
Dy208 C230 2.738 1_455 S
Dy209 O212 2.298 . S
Dy209 O215 2.275 1_554 S
Dy209 O217 2.307 1_455 S
Dy209 O219 2.395 . S
Dy209 O220 2.379 . S
Dy209 O223 2.339 1_455 S
Dy209 C239 2.738 . S
C210 O222 1.254 1_655 S
C210 O223 1.257 . S
O211 Dy208 2.307 1_554 S
O211 C221 1.266 . S
O212 Dy209 2.298 . S
O212 C221 1.236 . S
O213 Dy208 2.395 1_655 S
O213 C230 1.255 . S
O214 Dy208 2.379 1_655 S
O214 C230 1.249 . S
O215 Dy209 2.275 1_556 S
O215 C231 1.254 . S
O216 Dy208 2.339 . S
O216 C231 1.257 . S
O217 Dy209 2.307 1_655 S
O217 C232 1.266 1_554 S
O218 Dy208 2.298 1_655 S
O218 C232 1.236 . S
O219 Dy209 2.395 . S
O219 C239 1.255 . S
O220 Dy209 2.379 . S
O220 C239 1.249 . S
C221 O211 1.266 . S
C221 O212 1.236 . S
O222 Dy208 2.275 1_554 S
O222 C210 1.254 1_455 S
O223 Dy209 2.339 1_655 S
O223 C210 1.257 . S
C224 C227 1.344 . S
C224 C228 1.328 . S
C224 C230 1.516 . S
C225 C226 1.304 . S
C225 C229 1.323 . S
C226 C225 1.304 . S
C226 C227 1.371 . S
C226 H240 0.930 . S
C227 C224 1.344 . S
C227 C226 1.371 . S
C227 H241 0.931 . S
C228 C224 1.328 . S
C228 C229 1.433 . S
C228 H242 0.931 . S
C229 C225 1.323 . S
C229 C228 1.433 . S
C229 H243 0.933 . S
C230 Dy208 2.738 1_655 S
C230 O213 1.255 . S
C230 O214 1.249 . S
C230 C224 1.516 . S
C231 O215 1.254 . S
C231 O216 1.257 . S
C232 O217 1.266 1_556 S
C232 O218 1.236 . S
C233 C236 1.344 . S
C233 C237 1.328 . S
C233 C239 1.516 . S
C234 C235 1.304 . S
C234 C238 1.323 . S
C235 C234 1.304 . S
C235 C236 1.371 . S
C235 H244 0.930 . S
C236 C233 1.344 . S
C236 C235 1.371 . S
C236 H245 0.931 . S
C237 C233 1.328 . S
C237 C238 1.433 . S
C237 H246 0.931 . S
C238 C234 1.323 . S
C238 C237 1.433 . S
C238 H247 0.933 . S
C239 Dy209 2.738 . S
C239 O219 1.255 . S
C239 O220 1.249 . S
C239 C233 1.516 . S
H240 C226 0.930 . S
H241 C227 0.931 . S
H242 C228 0.931 . S
H243 C229 0.933 . S
H244 C235 0.930 . S
H245 C236 0.931 . S
H246 C237 0.931 . S
H247 C238 0.933 . S
C248 C249 1.369 . S
C248 C250 1.419 . S
C248 H252 0.930 . S
C249 C248 1.369 . S
C249 C258 1.429 . S
C250 C248 1.419 . S
C250 C251 1.363 . S
C250 H253 0.929 . S
C251 C250 1.363 . S
C251 C257 1.428 . S
H252 C248 0.930 . S
H253 C250 0.929 . S
S254 N255 1.613 . S
S254 N256 1.610 . S
N255 S254 1.613 . S
N255 C258 1.350 . S
N256 S254 1.610 . S
N256 C257 1.351 . S
C257 C251 1.428 . S
C257 N256 1.351 . S
C257 C258 1.434 . S
C258 C249 1.429 . S
C258 N255 1.350 . S
C258 C257 1.434 . S
C259 C260 1.369 . S
C259 C261 1.419 . S
C259 H263 0.930 . S
C260 C259 1.369 . S
C260 C269 1.429 . S
C261 C259 1.419 . S
C261 C262 1.363 . S
C261 H264 0.929 . S
C262 C261 1.363 . S
C262 C268 1.428 . S
H263 C259 0.930 . S
H264 C261 0.929 . S
S265 N266 1.613 . S
S265 N267 1.610 . S
N266 S265 1.613 . S
N266 C269 1.350 . S
N267 S265 1.610 . S
N267 C268 1.351 . S
C268 C262 1.428 . S
C268 N267 1.351 . S
C268 C269 1.434 . S
C269 C260 1.429 . S
C269 N266 1.350 . S
C269 C268 1.434 . S
C270 C271 1.369 . S
C270 C272 1.419 . S
C270 H274 0.930 . S
C271 C270 1.369 . S
C271 C280 1.429 . S
C272 C270 1.419 . S
C272 C273 1.363 . S
C272 H275 0.929 . S
C273 C272 1.363 . S
C273 C279 1.428 . S
H274 C270 0.930 . S
H275 C272 0.929 . S
S276 N277 1.613 . S
S276 N278 1.610 . S
N277 S276 1.613 . S
N277 C280 1.350 . S
N278 S276 1.610 . S
N278 C279 1.351 . S
C279 C273 1.428 . S
C279 N278 1.351 . S
C279 C280 1.434 . S
C280 C271 1.429 . S
C280 N277 1.350 . S
C280 C279 1.434 . S
C281 C282 1.369 . S
C281 C283 1.419 . S
C281 H285 0.930 . S
C282 C281 1.369 . S
C282 C291 1.429 . S
C283 C281 1.419 . S
C283 C284 1.363 . S
C283 H286 0.929 . S
C284 C283 1.363 . S
C284 C290 1.428 . S
H285 C281 0.930 . S
H286 C283 0.929 . S
S287 N288 1.613 . S
S287 N289 1.610 . S
N288 S287 1.613 . S
N288 C291 1.350 1_455 S
N289 S287 1.610 . S
N289 C290 1.351 1_455 S
C290 C284 1.428 . S
C290 N289 1.351 1_655 S
C290 C291 1.434 . S
C291 C282 1.429 . S
C291 N288 1.350 1_655 S
C291 C290 1.434 . S
C292 C293 1.369 . S
C292 C294 1.419 . S
C292 H296 0.930 . S
C293 C292 1.369 . S
C293 C302 1.429 . S
C294 C292 1.419 . S
C294 C295 1.363 . S
C294 H297 0.929 . S
C295 C294 1.363 . S
C295 C301 1.428 . S
H296 C292 0.930 . S
H297 C294 0.929 . S
S298 N299 1.613 . S
S298 N300 1.610 . S
N299 S298 1.613 . S
N299 C302 1.350 . S
N300 S298 1.610 . S
N300 C301 1.351 . S
C301 C295 1.428 . S
C301 N300 1.351 . S
C301 C302 1.434 . S
C302 C293 1.429 . S
C302 N299 1.350 . S
C302 C301 1.434 . S
C303 C304 1.369 . S
C303 C305 1.419 . S
C303 H307 0.930 . S
C304 C303 1.369 . S
C304 C313 1.429 1_455 S
C305 C303 1.419 . S
C305 C306 1.363 . S
C305 H308 0.929 . S
C306 C305 1.363 . S
C306 C312 1.428 1_455 S
H307 C303 0.930 . S
H308 C305 0.929 . S
S309 N310 1.613 . S
S309 N311 1.610 . S
N310 S309 1.613 . S
N310 C313 1.350 . S
N311 S309 1.610 . S
N311 C312 1.351 . S
C312 C306 1.428 1_655 S
C312 N311 1.351 . S
C312 C313 1.434 . S
C313 C304 1.429 1_655 S
C313 N310 1.350 . S
C313 C312 1.434 . S
C314 C315 1.369 . S
C314 C316 1.419 . S
C314 H318 0.930 . S
C315 C314 1.369 . S
C315 C324 1.429 . S
C316 C314 1.419 . S
C316 C317 1.363 . S
C316 H319 0.929 . S
C317 C316 1.363 . S
C317 C323 1.428 . S
H318 C314 0.930 . S
H319 C316 0.929 . S
S320 N321 1.613 1_554 S
S320 N322 1.610 . S
N321 S320 1.613 1_556 S
N321 C324 1.350 . S
N322 S320 1.610 . S
N322 C323 1.351 1_554 S
C323 C317 1.428 . S
C323 N322 1.351 1_556 S
C323 C324 1.434 . S
C324 C315 1.429 . S
C324 N321 1.350 . S
C324 C323 1.434 . S
C325 C326 1.369 . S
C325 C327 1.419 . S
C325 H329 0.930 . S
C326 C325 1.369 . S
C326 C335 1.429 . S
C327 C325 1.419 . S
C327 C328 1.363 . S
C327 H330 0.929 . S
C328 C327 1.363 . S
C328 C334 1.428 . S
H329 C325 0.930 . S
H330 C327 0.929 . S
S331 N332 1.613 . S
S331 N333 1.610 . S
N332 S331 1.613 . S
N332 C335 1.350 . S
N333 S331 1.610 . S
N333 C334 1.351 . S
C334 C328 1.428 . S
C334 N333 1.351 . S
C334 C335 1.434 . S
C335 C326 1.429 . S
C335 N332 1.350 . S
C335 C334 1.434 . S
C336 C337 1.369 . S
C336 C338 1.419 . S
C336 H340 0.930 . S
C337 C336 1.369 . S
C337 C346 1.429 . S
C338 C336 1.419 . S
C338 C339 1.363 . S
C338 H341 0.929 . S
C339 C338 1.363 . S
C339 C345 1.428 . S
H340 C336 0.930 . S
H341 C338 0.929 . S
S342 N343 1.613 . S
S342 N344 1.610 . S
N343 S342 1.613 . S
N343 C346 1.350 . S
N344 S342 1.610 . S
N344 C345 1.351 . S
C345 C339 1.428 . S
C345 N344 1.351 . S
C345 C346 1.434 . S
C346 C337 1.429 . S
C346 N343 1.350 . S
C346 C345 1.434 . S
C347 C348 1.369 . S
C347 C349 1.419 . S
C347 H351 0.930 . S
C348 C347 1.369 . S
C348 C357 1.429 . S
C349 C347 1.419 . S
C349 C350 1.363 . S
C349 H352 0.929 . S
C350 C349 1.363 . S
C350 C356 1.428 . S
H351 C347 0.930 . S
H352 C349 0.929 . S
S353 N354 1.613 . S
S353 N355 1.610 1_556 S
N354 S353 1.613 . S
N354 C357 1.350 . S
N355 S353 1.610 1_554 S
N355 C356 1.351 1_554 S
C356 C350 1.428 . S
C356 N355 1.351 1_556 S
C356 C357 1.434 . S
C357 C348 1.429 . S
C357 N354 1.350 . S
C357 C356 1.434 . S
C358 C359 1.369 . S
C358 C360 1.419 . S
C358 H362 0.930 . S
C359 C358 1.369 . S
C359 C368 1.429 . S
C360 C358 1.419 . S
C360 C361 1.363 . S
C360 H363 0.929 1_655 S
C361 C360 1.363 . S
C361 C367 1.428 . S
H362 C358 0.930 . S
H363 C360 0.929 1_455 S
S364 N365 1.613 . S
S364 N366 1.610 . S
N365 S364 1.613 . S
N365 C368 1.350 . S
N366 S364 1.610 . S
N366 C367 1.351 . S
C367 C361 1.428 . S
C367 N366 1.351 . S
C367 C368 1.434 . S
C368 C359 1.429 . S
C368 N365 1.350 . S
C368 C367 1.434 . S
C369 C370 1.369 . S
C369 C371 1.419 . S
C369 H373 0.930 . S
C370 C369 1.369 . S
C370 C379 1.429 . S
C371 C369 1.419 . S
C371 C372 1.363 . S
C371 H374 0.929 . S
C372 C371 1.363 . S
C372 C378 1.428 . S
H373 C369 0.930 . S
H374 C371 0.929 . S
S375 N376 1.613 . S
S375 N377 1.610 . S
N376 S375 1.613 . S
N376 C379 1.350 . S
N377 S375 1.610 . S
N377 C378 1.351 . S
C378 C372 1.428 . S
C378 N377 1.351 . S
C378 C379 1.434 . S
C379 C370 1.429 . S
C379 N376 1.350 . S
C379 C378 1.434 . S
C380 C381 1.369 . S
C380 C382 1.419 . S
C380 H384 0.930 . S
C381 C380 1.369 . S
C381 C390 1.429 . S
C382 C380 1.419 . S
C382 C383 1.363 . S
C382 H385 0.929 . S
C383 C382 1.363 . S
C383 C389 1.428 . S
H384 C380 0.930 . S
H385 C382 0.929 . S
S386 N387 1.613 . S
S386 N388 1.610 . S
N387 S386 1.613 . S
N387 C390 1.350 . S
N388 S386 1.610 . S
N388 C389 1.351 . S
C389 C383 1.428 . S
C389 N388 1.351 . S
C389 C390 1.434 . S
C390 C381 1.429 . S
C390 N387 1.350 . S
C390 C389 1.434 . S
C391 C392 1.369 . S
C391 C393 1.419 . S
C391 H395 0.930 . S
C392 C391 1.369 . S
C392 C401 1.429 . S
C393 C391 1.419 . S
C393 C394 1.363 . S
C393 H396 0.929 . S
C394 C393 1.363 . S
C394 C400 1.428 . S
H395 C391 0.930 . S
H396 C393 0.929 . S
S397 N398 1.613 . S
S397 N399 1.610 . S
N398 S397 1.613 . S
N398 C401 1.350 . S
N399 S397 1.610 . S
N399 C400 1.351 . S
C400 C394 1.428 . S
C400 N399 1.351 . S
C400 C401 1.434 . S
C401 C392 1.429 . S
C401 N398 1.350 . S
C401 C400 1.434 . S
C402 C403 1.369 . S
C402 C404 1.419 . S
C402 H406 0.930 . S
C403 C402 1.369 . S
C403 C412 1.429 . S
C404 C402 1.419 . S
C404 C405 1.363 . S
C404 H407 0.929 . S
C405 C404 1.363 . S
C405 C411 1.428 . S
H406 C402 0.930 . S
H407 C404 0.929 . S
S408 N409 1.613 . S
S408 N410 1.610 . S
N409 S408 1.613 . S
N409 C412 1.350 . S
N410 S408 1.610 . S
N410 C411 1.351 . S
C411 C405 1.428 . S
C411 N410 1.351 . S
C411 C412 1.434 . S
C412 C403 1.429 . S
C412 N409 1.350 . S
C412 C411 1.434 . S
C413 C414 1.369 . S
C413 C415 1.419 . S
C413 H417 0.930 . S
C414 C413 1.369 . S
C414 C423 1.429 . S
C415 C413 1.419 . S
C415 C416 1.363 . S
C415 H418 0.929 . S
C416 C415 1.363 . S
C416 C422 1.428 . S
H417 C413 0.930 . S
H418 C415 0.929 . S
S419 N420 1.613 . S
S419 N421 1.610 . S
N420 S419 1.613 . S
N420 C423 1.350 . S
N421 S419 1.610 . S
N421 C422 1.351 . S
C422 C416 1.428 . S
C422 N421 1.351 . S
C422 C423 1.434 . S
C423 C414 1.429 . S
C423 N420 1.350 . S
C423 C422 1.434 . S
C424 C425 1.369 . S
C424 C426 1.419 . S
C424 H428 0.930 . S
C425 C424 1.369 . S
C425 C434 1.429 . S
C426 C424 1.419 . S
C426 C427 1.363 . S
C426 H429 0.929 1_556 S
C427 C426 1.363 . S
C427 C433 1.428 . S
H428 C424 0.930 . S
H429 C426 0.929 1_554 S
S430 N431 1.613 . S
S430 N432 1.610 . S
N431 S430 1.613 . S
N431 C434 1.350 . S
N432 S430 1.610 . S
N432 C433 1.351 . S
C433 C427 1.428 . S
C433 N432 1.351 . S
C433 C434 1.434 . S
C434 C425 1.429 . S
C434 N431 1.350 . S
C434 C433 1.434 . S
C435 C436 1.369 . S
C435 C437 1.419 . S
C435 H439 0.930 . S
C436 C435 1.369 . S
C436 C445 1.429 1_655 S
C437 C435 1.419 . S
C437 C438 1.363 . S
C437 H440 0.929 . S
C438 C437 1.363 . S
C438 C444 1.428 1_655 S
H439 C435 0.930 . S
H440 C437 0.929 . S
S441 N442 1.613 . S
S441 N443 1.610 . S
N442 S441 1.613 . S
N442 C445 1.350 . S
N443 S441 1.610 . S
N443 C444 1.351 . S
C444 C438 1.428 1_455 S
C444 N443 1.351 . S
C444 C445 1.434 . S
C445 C436 1.429 1_455 S
C445 N442 1.350 . S
C445 C444 1.434 . S
C446 C447 1.369 . S
C446 C448 1.419 . S
C446 H450 0.930 . S
C447 C446 1.369 . S
C447 C456 1.429 . S
C448 C446 1.419 . S
C448 C449 1.363 . S
C448 H451 0.929 . S
C449 C448 1.363 . S
C449 C455 1.428 . S
H450 C446 0.930 . S
H451 C448 0.929 . S
S452 N453 1.613 . S
S452 N454 1.610 . S
N453 S452 1.613 . S
N453 C456 1.350 . S
N454 S452 1.610 . S
N454 C455 1.351 . S
C455 C449 1.428 . S
C455 N454 1.351 . S
C455 C456 1.434 . S
C456 C447 1.429 . S
C456 N453 1.350 . S
C456 C455 1.434 . S
C457 C458 1.369 . S
C457 C459 1.419 . S
C457 H461 0.930 . S
C458 C457 1.369 . S
C458 C467 1.429 . S
C459 C457 1.419 . S
C459 C460 1.363 . S
C459 H462 0.929 . S
C460 C459 1.363 . S
C460 C466 1.428 . S
H461 C457 0.930 . S
H462 C459 0.929 . S
S463 N464 1.613 . S
S463 N465 1.610 . S
N464 S463 1.613 . S
N464 C467 1.350 . S
N465 S463 1.610 . S
N465 C466 1.351 . S
C466 C460 1.428 . S
C466 N465 1.351 . S
C466 C467 1.434 . S
C467 C458 1.429 . S
C467 N464 1.350 . S
C467 C466 1.434 . S
C468 C469 1.369 . S
C468 C470 1.419 . S
C468 H472 0.930 . S
C469 C468 1.369 . S
C469 C478 1.429 . S
C470 C468 1.419 . S
C470 C471 1.363 . S
C470 H473 0.929 . S
C471 C470 1.363 . S
C471 C477 1.428 . S
H472 C468 0.930 . S
H473 C470 0.929 . S
S474 N475 1.613 . S
S474 N476 1.610 . S
N475 S474 1.613 . S
N475 C478 1.350 . S
N476 S474 1.610 . S
N476 C477 1.351 . S
C477 C471 1.428 . S
C477 N476 1.351 . S
C477 C478 1.434 . S
C478 C469 1.429 . S
C478 N475 1.350 . S
C478 C477 1.434 . S
C479 C480 1.369 . S
C479 C481 1.419 . S
C479 H483 0.930 . S
C480 C479 1.369 . S
C480 C489 1.429 . S
C481 C479 1.419 . S
C481 C482 1.363 . S
C481 H484 0.929 . S
C482 C481 1.363 . S
C482 C488 1.428 . S
H483 C479 0.930 . S
H484 C481 0.929 . S
S485 N486 1.613 . S
S485 N487 1.610 . S
N486 S485 1.613 . S
N486 C489 1.350 . S
N487 S485 1.610 . S
N487 C488 1.351 . S
C488 C482 1.428 . S
C488 N487 1.351 . S
C488 C489 1.434 . S
C489 C480 1.429 . S
C489 N486 1.350 . S
C489 C488 1.434 . S
C490 C491 1.369 . S
C490 C492 1.419 . S
C490 H494 0.930 1_455 S
C491 C490 1.369 . S
C491 C500 1.429 . S
C492 C490 1.419 . S
C492 C493 1.363 . S
C492 H495 0.929 1_455 S
C493 C492 1.363 . S
C493 C499 1.428 . S
H494 C490 0.930 1_655 S
H495 C492 0.929 1_655 S
S496 N497 1.613 . S
S496 N498 1.610 . S
N497 S496 1.613 . S
N497 C500 1.350 . S
N498 S496 1.610 . S
N498 C499 1.351 . S
C499 C493 1.428 . S
C499 N498 1.351 . S
C499 C500 1.434 . S
C500 C491 1.429 . S
C500 N497 1.350 . S
C500 C499 1.434 . S
C501 C502 1.369 . S
C501 C503 1.419 . S
C501 H505 0.930 . S
C502 C501 1.369 . S
C502 C511 1.429 . S
C503 C501 1.419 . S
C503 C504 1.363 . S
C503 H506 0.929 . S
C504 C503 1.363 . S
C504 C510 1.428 . S
H505 C501 0.930 . S
H506 C503 0.929 . S
S507 N508 1.613 . S
S507 N509 1.610 . S
N508 S507 1.613 . S
N508 C511 1.350 . S
N509 S507 1.610 . S
N509 C510 1.351 . S
C510 C504 1.428 . S
C510 N509 1.351 . S
C510 C511 1.434 . S
C511 C502 1.429 . S
C511 N508 1.350 . S
C511 C510 1.434 . S
C249 C5 0.937 . S
C251 C105 1.199 . S
C260 C18 1.078 . S
C262 C145 1.156 . S
C273 C170 2.331 . S
C271 C30 2.367 . S
C282 C41 2.295 . S
C284 C210 2.234 . S
C295 C141 1.756 . S
C293 C7 1.540 . S
C306 C101 1.843 . S
C304 C16 1.835 . S
C317 C232 1.831 . S
C315 C29 1.814 . S
C328 C192 1.440 . S
C326 C38 1.269 . S
C337 C8 1.348 . S
C339 C234 1.445 . S
C350 C151 2.383 1_556 S
C348 C27 2.144 . S
C359 C40 2.370 . S
C361 C111 2.310 . S
C370 C19 1.470 . S
C372 C194 1.465 . S
C383 C114 1.254 . S
C381 C51 1.002 . S
C392 C62 1.518 . S
C394 C154 1.464 . S
C403 C74 2.489 . S
C405 C191 2.471 . S
C414 C84 2.235 . S
C416 C231 2.342 . S
C425 C49 1.439 . S
C427 C152 2.058 1_556 S
C438 C112 1.949 . S
C436 C63 1.898 . S
C449 C221 1.654 . S
C447 C71 1.498 . S
C460 C181 1.653 . S
C458 C85 1.676 . S
C469 C52 1.499 . S
C471 C225 1.595 . S
C482 C130 2.524 . S
C480 C73 2.536 . S
C493 C90 1.995 . S
C491 C82 1.773 . S
C502 C60 1.426 . S
C504 C185 1.466 . S
