# Generated by pormake.
# Topology apo, (3,6)-cn, num edge types: 1
# Building blocks:
#     Node 0, Type 0, BuildingBlock: WUSLED_clean_sbu_0, # of connection points: 3
#     Node 1, Type 0, BuildingBlock: WUSLED_clean_sbu_0, # of connection points: 3
#     Node 2, Type 0, BuildingBlock: WUSLED_clean_sbu_0, # of connection points: 3
#     Node 3, Type 0, BuildingBlock: WUSLED_clean_sbu_0, # of connection points: 3
#     Node 4, Type 0, BuildingBlock: WUSLED_clean_sbu_0, # of connection points: 3
#     Node 5, Type 0, BuildingBlock: WUSLED_clean_sbu_0, # of connection points: 3
#     Node 6, Type 0, BuildingBlock: WUSLED_clean_sbu_0, # of connection points: 3
#     Node 7, Type 0, BuildingBlock: WUSLED_clean_sbu_0, # of connection points: 3
#     Node 8, Type 1, BuildingBlock: MIDCAF_clean_sbu_0, # of connection points: 6
#     Node 9, Type 1, BuildingBlock: MIDCAF_clean_sbu_0, # of connection points: 6
#     Node 10, Type 1, BuildingBlock: MIDCAF_clean_sbu_0, # of connection points: 6
#     Node 11, Type 1, BuildingBlock: MIDCAF_clean_sbu_0, # of connection points: 6
#     Edge 12, Type (0, 1), BuildingBlock: CIFDUS_clean_linker_0, # of connection points: 2
#     Edge 13, Type (0, 1), BuildingBlock: CIFDUS_clean_linker_0, # of connection points: 2
#     Edge 14, Type (0, 1), BuildingBlock: CIFDUS_clean_linker_0, # of connection points: 2
#     Edge 15, Type (0, 1), BuildingBlock: CIFDUS_clean_linker_0, # of connection points: 2
#     Edge 16, Type (0, 1), BuildingBlock: CIFDUS_clean_linker_0, # of connection points: 2
#     Edge 17, Type (0, 1), BuildingBlock: CIFDUS_clean_linker_0, # of connection points: 2
#     Edge 18, Type (0, 1), BuildingBlock: CIFDUS_clean_linker_0, # of connection points: 2
#     Edge 19, Type (0, 1), BuildingBlock: CIFDUS_clean_linker_0, # of connection points: 2
#     Edge 20, Type (0, 1), BuildingBlock: CIFDUS_clean_linker_0, # of connection points: 2
#     Edge 21, Type (0, 1), BuildingBlock: CIFDUS_clean_linker_0, # of connection points: 2
#     Edge 22, Type (0, 1), BuildingBlock: CIFDUS_clean_linker_0, # of connection points: 2
#     Edge 23, Type (0, 1), BuildingBlock: CIFDUS_clean_linker_0, # of connection points: 2
#     Edge 24, Type (0, 1), BuildingBlock: CIFDUS_clean_linker_0, # of connection points: 2
#     Edge 25, Type (0, 1), BuildingBlock: CIFDUS_clean_linker_0, # of connection points: 2
#     Edge 26, Type (0, 1), BuildingBlock: CIFDUS_clean_linker_0, # of connection points: 2
#     Edge 27, Type (0, 1), BuildingBlock: CIFDUS_clean_linker_0, # of connection points: 2
#     Edge 28, Type (0, 1), BuildingBlock: CIFDUS_clean_linker_0, # of connection points: 2
#     Edge 29, Type (0, 1), BuildingBlock: CIFDUS_clean_linker_0, # of connection points: 2
#     Edge 30, Type (0, 1), BuildingBlock: CIFDUS_clean_linker_0, # of connection points: 2
#     Edge 31, Type (0, 1), BuildingBlock: CIFDUS_clean_linker_0, # of connection points: 2
#     Edge 32, Type (0, 1), BuildingBlock: CIFDUS_clean_linker_0, # of connection points: 2
#     Edge 33, Type (0, 1), BuildingBlock: CIFDUS_clean_linker_0, # of connection points: 2
#     Edge 34, Type (0, 1), BuildingBlock: CIFDUS_clean_linker_0, # of connection points: 2
#     Edge 35, Type (0, 1), BuildingBlock: CIFDUS_clean_linker_0, # of connection points: 2
# Relax obj value: 0.081
# Max RMSD: 0.098
# Mean RMSD: 0.087
data_MOF--net-apo--node1-WUSLED_clean_sbu_0--node2-MIDCAF_clean_sbu_0--edge1-CIFDUS_clean_linker_0
_symmetry_space_group_name_H-M    P1
_symmetry_Int_Tables_number       1
_symmetry_cell_setting            triclinic
loop_
_symmetry_equiv_pos_as_xyz
'x, y, z'
_cell_length_a     40.803524
_cell_length_b     48.930259
_cell_length_c     42.678793
_cell_angle_alpha  90.369558
_cell_angle_beta   90.016091
_cell_angle_gamma 90.106608
loop_
_atom_site_label
_atom_site_type_symbol
_atom_site_fract_x
_atom_site_fract_y
_atom_site_fract_z
_atom_type_partial_charge
C0 C 0.3609 0.4007 0.3536 0.0
C1 C 0.36059 0.42217 0.37558 0.0
C2 C 0.40354 0.44595 0.34675 0.0
C3 C 0.38146 0.44459 0.37207 0.0
C4 C 0.40389 0.42432 0.32484 0.0
C5 C 0.38271 0.40196 0.32823 0.0
U6 U 0.32358 0.34508 0.40426 0.0
O7 O 0.27343 0.32916 0.40774 0.0
O8 O 0.31325 0.30174 0.39318 0.0
C9 C 0.28145 0.30501 0.39646 0.0
C10 C 0.33912 0.37676 0.35716 0.0
C11 C 0.26061 0.29455 0.37071 0.0
C12 C 0.2219 0.30235 0.32828 0.0
C13 C 0.24492 0.31238 0.34983 0.0
C14 C 0.23158 0.25636 0.34667 0.0
C15 C 0.21436 0.27429 0.32699 0.0
C16 C 0.25438 0.26642 0.36839 0.0
C17 C 0.35302 0.34585 0.49158 0.0
C18 C 0.36552 0.31062 0.52974 0.0
C19 C 0.36327 0.35804 0.54608 0.0
C20 C 0.35497 0.36555 0.51553 0.0
C21 C 0.36992 0.3306 0.55333 0.0
C22 C 0.3572 0.31817 0.49913 0.0
C23 C 0.35113 0.35527 0.45879 0.0
O24 O 0.354 0.35349 0.36273 0.0
O25 O 0.31282 0.38043 0.37449 0.0
O26 O 0.32364 0.36679 0.4498 0.0
O27 O 0.36429 0.33942 0.43722 0.0
H28 H 0.34416 0.42173 0.3955 0.0
H29 H 0.37991 0.46105 0.38907 0.0
H30 H 0.42075 0.42448 0.30526 0.0
H31 H 0.3835 0.38553 0.3111 0.0
H32 H 0.2092 0.31665 0.3133 0.0
H33 H 0.24956 0.33417 0.35092 0.0
H34 H 0.22606 0.23469 0.34657 0.0
H35 H 0.26622 0.25232 0.38424 0.0
H36 H 0.37002 0.28926 0.53461 0.0
H37 H 0.36677 0.37404 0.56342 0.0
H38 H 0.35196 0.38703 0.51023 0.0
H39 H 0.35564 0.30252 0.48112 0.0
C40 C 0.15959 0.16108 0.99262 0.0
C41 C 0.16192 0.13946 1.01392 0.0
C42 C 0.1486 0.16997 0.05747 0.0
C43 C 0.15656 0.14381 0.0459 0.0
C44 C 0.148 0.19195 0.03628 0.0
C45 C 0.15337 0.18755 1.00416 0.0
U46 U 0.18802 0.16648 0.90512 0.0
O47 O 0.20325 0.20944 0.89893 0.0
O48 O 0.23981 0.178 0.90981 0.0
C49 C 0.23454 0.20346 0.90151 0.0
C50 C 0.15971 0.15455 0.95868 0.0
C51 C 0.25657 0.21466 0.87718 0.0
C52 C 0.28461 0.25403 0.85508 0.0
C53 C 0.26122 0.24302 0.87543 0.0
C54 C 0.29831 0.20849 0.83695 0.0
C55 C 0.30403 0.23685 0.83618 0.0
C56 C 0.27473 0.1975 0.85713 0.0
C57 C 0.14568 0.11725 0.84889 0.0
C58 C 0.13081 0.07546 0.82117 0.0
C59 C 0.09638 0.09232 0.86324 0.0
C60 C 0.11758 0.11452 0.86758 0.0
C61 C 0.10307 0.07218 0.8404 0.0
C62 C 0.15188 0.0978 0.82539 0.0
C63 C 0.16961 0.13929 0.85485 0.0
O64 O 0.1854 0.14142 0.94778 0.0
O65 O 0.14839 0.17309 0.9393 0.0
O66 O 0.19495 0.13227 0.872 0.0
O67 O 0.15732 0.16316 0.86287 0.0
H68 H 0.16637 0.11882 1.00562 0.0
H69 H 0.15674 0.12627 0.06124 0.0
H70 H 0.14236 0.21243 0.04437 0.0
H71 H 0.15146 0.20467 0.98831 0.0
H72 H 0.28866 0.27592 0.85539 0.0
H73 H 0.24756 0.25665 0.89066 0.0
H74 H 0.3127 0.19474 0.82251 0.0
H75 H 0.27147 0.17554 0.85773 0.0
H76 H 0.13706 0.0602 0.80369 0.0
H77 H 0.07505 0.09068 0.87821 0.0
H78 H 0.11235 0.12924 0.88597 0.0
H79 H 0.17355 0.09948 0.81085 0.0
C80 C 0.86046 0.10708 0.68514 0.0
C81 C 0.86132 0.08623 0.66241 0.0
C82 C 0.90243 0.06161 0.6926 0.0
C83 C 0.88184 0.06369 0.66622 0.0
C84 C 0.90163 0.08264 0.71525 0.0
C85 C 0.88079 0.10512 0.71155 0.0
U86 U 0.82462 0.16267 0.63371 0.0
O87 O 0.77479 0.17895 0.62948 0.0
O88 O 0.81487 0.20616 0.64427 0.0
C89 C 0.78307 0.20315 0.64053 0.0
C90 C 0.83909 0.13115 0.68124 0.0
C91 C 0.76196 0.21415 0.66573 0.0
C92 C 0.72199 0.20733 0.70731 0.0
C93 C 0.74531 0.19676 0.68646 0.0
C94 C 0.73329 0.25299 0.68855 0.0
C95 C 0.71511 0.2355 0.70802 0.0
C96 C 0.7564 0.24238 0.66754 0.0
C97 C 0.85466 0.16154 0.54682 0.0
C98 C 0.86598 0.19722 0.50885 0.0
C99 C 0.86548 0.1498 0.49233 0.0
C100 C 0.85742 0.14197 0.52282 0.0
C101 C 0.87109 0.17745 0.48519 0.0
C102 C 0.85788 0.18934 0.53941 0.0
C103 C 0.85258 0.15201 0.57954 0.0
O104 O 0.85438 0.15427 0.67567 0.0
O105 O 0.81295 0.12756 0.66362 0.0
O106 O 0.82487 0.14069 0.58836 0.0
O107 O 0.86581 0.1678 0.60118 0.0
H108 H 0.84606 0.08727 0.64168 0.0
H109 H 0.8812 0.0477 0.64857 0.0
H110 H 0.91736 0.08194 0.73566 0.0
H111 H 0.88069 0.12109 0.72926 0.0
H112 H 0.70856 0.19337 0.72216 0.0
H113 H 0.74941 0.1749 0.68576 0.0
H114 H 0.72831 0.27472 0.68823 0.0
H115 H 0.76898 0.25615 0.65179 0.0
H116 H 0.86969 0.21871 0.50407 0.0
H117 H 0.86956 0.13397 0.47492 0.0
H118 H 0.85513 0.1204 0.52803 0.0
H119 H 0.85565 0.20488 0.55747 0.0
C120 C 0.66426 0.3478 0.04987 0.0
C121 C 0.66222 0.36792 0.02669 0.0
C122 C 0.64564 0.33375 0.988 0.0
C123 C 0.65311 0.36099 0.99603 0.0
C124 C 0.65012 0.31335 1.01074 0.0
C125 C 0.65938 0.3203 0.0414 0.0
U126 U 0.69215 0.34082 0.13669 0.0
O127 O 0.69639 0.29614 0.14134 0.0
O128 O 0.74043 0.3211 0.13348 0.0
C129 C 0.72852 0.29663 0.13914 0.0
C130 C 0.66687 0.35644 0.08304 0.0
C131 C 0.74666 0.27973 0.16173 0.0
C132 C 0.77096 0.23579 0.17363 0.0
C133 C 0.75258 0.25239 0.15387 0.0
C134 C 0.7777 0.27358 0.21 0.0
C135 C 0.78386 0.24607 0.20198 0.0
C136 C 0.75914 0.29028 0.19005 0.0
C137 C 0.65812 0.39461 0.19155 0.0
C138 C 0.61804 0.4202 0.22218 0.0
C139 C 0.63645 0.43751 0.17215 0.0
C140 C 0.65681 0.41483 0.16843 0.0
C141 C 0.61642 0.44037 0.19885 0.0
C142 C 0.63871 0.39752 0.21852 0.0
C143 C 0.67822 0.36985 0.18683 0.0
O144 O 0.69565 0.36486 0.09307 0.0
O145 O 0.65123 0.3412 0.10343 0.0
O146 O 0.70531 0.37313 0.17053 0.0
O147 O 0.66171 0.34787 0.17861 0.0
H148 H 0.66579 0.38927 0.03273 0.0
H149 H 0.64961 0.37724 0.97926 0.0
H150 H 0.64492 0.29215 1.00522 0.0
H151 H 0.66101 0.30435 0.05881 0.0
H152 H 0.77581 0.215 0.16616 0.0
H153 H 0.7434 0.24393 0.13203 0.0
H154 H 0.78716 0.28215 0.23164 0.0
H155 H 0.75483 0.31141 0.19654 0.0
H156 H 0.60283 0.42159 0.24291 0.0
H157 H 0.63649 0.45287 0.154 0.0
H158 H 0.67133 0.41301 0.14727 0.0
H159 H 0.63915 0.38202 0.23653 0.0
C160 C 0.66975 0.60789 0.68651 0.0
C161 C 0.63944 0.60075 0.67306 0.0
C162 C 0.63892 0.55821 0.70249 0.0
C163 C 0.62403 0.57612 0.68115 0.0
C164 C 0.66888 0.56582 0.71633 0.0
C165 C 0.68407 0.59041 0.70845 0.0
U166 U 0.69587 0.66399 0.62843 0.0
O167 O 0.70395 0.70793 0.63789 0.0
O168 O 0.74448 0.68219 0.62135 0.0
C169 C 0.73565 0.70607 0.63279 0.0
C170 C 0.68742 0.63305 0.67789 0.0
C171 C 0.75728 0.7175 0.6574 0.0
C172 C 0.79621 0.71128 0.70003 0.0
C173 C 0.77316 0.70046 0.679 0.0
C174 C 0.78642 0.75654 0.67946 0.0
C175 C 0.80357 0.73939 0.70011 0.0
C176 C 0.76359 0.74567 0.65826 0.0
C177 C 0.6625 0.66083 0.54297 0.0
C178 C 0.65312 0.69657 0.50456 0.0
C179 C 0.65065 0.64905 0.48865 0.0
C180 C 0.65823 0.64119 0.51925 0.0
C181 C 0.64709 0.67683 0.48103 0.0
C182 C 0.66075 0.68866 0.53525 0.0
C183 C 0.66589 0.65148 0.57568 0.0
O184 O 0.71176 0.62981 0.65807 0.0
O185 O 0.66949 0.65473 0.67207 0.0
O186 O 0.65284 0.66702 0.59763 0.0
O187 O 0.69442 0.64123 0.58365 0.0
H188 H 0.62799 0.61393 0.65597 0.0
H189 H 0.60112 0.57063 0.66991 0.0
H190 H 0.6808 0.55252 0.73302 0.0
H191 H 0.70735 0.59561 0.71919 0.0
H192 H 0.80881 0.69757 0.71578 0.0
H193 H 0.76846 0.67866 0.67901 0.0
H194 H 0.79178 0.77821 0.67862 0.0
H195 H 0.75159 0.75917 0.64184 0.0
H196 H 0.65096 0.71815 0.49948 0.0
H197 H 0.64574 0.63322 0.47142 0.0
H198 H 0.6594 0.61961 0.52469 0.0
H199 H 0.66418 0.70423 0.55311 0.0
C200 C 0.84735 0.81109 0.04746 0.0
C201 C 0.83169 0.80164 0.02014 0.0
C202 C 0.88139 0.80954 0.98982 0.0
C203 C 0.84852 0.80099 0.99146 0.0
C204 C 0.89664 0.81961 1.01716 0.0
C205 C 0.87978 0.82048 0.04562 0.0
U206 U 0.83749 0.83799 0.13075 0.0
O207 O 0.79334 0.84772 0.15825 0.0
O208 O 0.82756 0.81653 0.1749 0.0
C209 C 0.79915 0.82863 0.17905 0.0
C210 C 0.83004 0.81092 0.07781 0.0
C211 C 0.77149 0.81029 0.18585 0.0
C212 C 0.73299 0.77522 0.16935 0.0
C213 C 0.75986 0.79203 0.16299 0.0
C214 C 0.7294 0.7943 0.22176 0.0
C215 C 0.71713 0.77639 0.19866 0.0
C216 C 0.75634 0.81116 0.21535 0.0
C217 C 0.89591 0.89536 0.15854 0.0
C218 C 0.88798 0.93633 0.19026 0.0
C219 C 0.94201 0.91634 0.18595 0.0
C220 C 0.92928 0.89569 0.16657 0.0
C221 C 0.92165 0.9373 0.19752 0.0
C222 C 0.87525 0.91559 0.17112 0.0
C223 C 0.88377 0.8752 0.13522 0.0
O224 O 0.84709 0.80165 0.10164 0.0
O225 O 0.8136 0.83324 0.08465 0.0
O226 O 0.85469 0.87993 0.12314 0.0
O227 O 0.88873 0.84927 0.14154 0.0
H228 H 0.80657 0.79447 0.02107 0.0
H229 H 0.83617 0.79316 0.97079 0.0
H230 H 0.92175 0.82682 1.01654 0.0
H231 H 0.89221 0.82822 0.0663 0.0
H232 H 0.72451 0.76134 0.1512 0.0
H233 H 0.77142 0.79095 0.14016 0.0
H234 H 0.71763 0.79583 0.24445 0.0
H235 H 0.7651 0.82513 0.23329 0.0
H236 H 0.87155 0.95227 0.19823 0.0
H237 H 0.96793 0.91614 0.19137 0.0
H238 H 0.94572 0.88032 0.15718 0.0
H239 H 0.84939 0.91596 0.16542 0.0
C240 C 0.17349 0.90471 0.35546 0.0
C241 C 0.14154 0.91026 0.36609 0.0
C242 C 0.14317 0.95502 0.34138 0.0
C243 C 0.12643 0.93517 0.35893 0.0
C244 C 0.17491 0.94915 0.33043 0.0
C245 C 0.18983 0.92424 0.33734 0.0
U246 U 0.19779 0.84657 0.41126 0.0
O247 O 0.20399 0.80264 0.40061 0.0
O248 O 0.24558 0.82694 0.41791 0.0
C249 C 0.23571 0.80348 0.40599 0.0
C250 C 0.19055 0.87898 0.36292 0.0
C251 C 0.25702 0.79169 0.38145 0.0
C252 C 0.29633 0.79721 0.33904 0.0
C253 C 0.27333 0.80842 0.35979 0.0
C254 C 0.28557 0.75221 0.35999 0.0
C255 C 0.30323 0.76904 0.33935 0.0
C256 C 0.26277 0.76346 0.38089 0.0
C257 C 0.16428 0.84815 0.49655 0.0
C258 C 0.15225 0.8115 0.53313 0.0
C259 C 0.15306 0.85844 0.55137 0.0
C260 C 0.16135 0.86707 0.5212 0.0
C261 C 0.14738 0.83062 0.55753 0.0
C262 C 0.16063 0.82018 0.50291 0.0
C263 C 0.16814 0.85848 0.46429 0.0
O264 O 0.21502 0.88114 0.38282 0.0
O265 O 0.17208 0.85737 0.36777 0.0
O266 O 0.15448 0.844 0.4417 0.0
O267 O 0.19713 0.86819 0.4568 0.0
H268 H 0.12843 0.89552 0.38021 0.0
H269 H 0.10209 0.93926 0.36792 0.0
H270 H 0.1883 0.96393 0.31662 0.0
H271 H 0.21439 0.92033 0.32877 0.0
H272 H 0.30932 0.81068 0.32326 0.0
H273 H 0.26906 0.83026 0.35958 0.0
H274 H 0.29057 0.7305 0.36113 0.0
H275 H 0.25044 0.7502 0.39738 0.0
H276 H 0.14843 0.78989 0.53713 0.0
H277 H 0.14912 0.8738 0.56935 0.0
H278 H 0.16404 0.88876 0.51682 0.0
H279 H 0.16303 0.80513 0.48433 0.0
C280 C 0.33837 0.69691 0.9953 0.0
C281 C 0.37062 0.68724 0.99768 0.0
C282 C 0.37105 0.69727 0.05368 0.0
C283 C 0.38682 0.68757 0.0265 0.0
C284 C 0.33831 0.70595 0.05157 0.0
C285 C 0.32214 0.70591 0.0225 0.0
U286 U 0.33002 0.67005 0.91216 0.0
O287 O 0.28671 0.66304 0.88225 0.0
O288 O 0.32536 0.69117 0.86708 0.0
C289 C 0.29607 0.68112 0.86138 0.0
C290 C 0.32199 0.69787 0.96446 0.0
C291 C 0.27138 0.70139 0.85202 0.0
C292 C 0.2365 0.74009 0.86442 0.0
C293 C 0.2582 0.71969 0.874 0.0
C294 C 0.24036 0.72383 0.81082 0.0
C295 C 0.22768 0.74271 0.83262 0.0
C296 C 0.26209 0.70339 0.82046 0.0
C297 C 0.38668 0.61023 0.88923 0.0
C298 C 0.37991 0.58094 0.84348 0.0
C299 C 0.4266 0.57477 0.87777 0.0
C300 C 0.4158 0.59652 0.89647 0.0
C301 C 0.40836 0.56626 0.85147 0.0
C302 C 0.36916 0.60276 0.8622 0.0
C303 C 0.37399 0.63087 0.91131 0.0
O304 O 0.34048 0.70629 0.94117 0.0
O305 O 0.3042 0.67636 0.95708 0.0
O306 O 0.34354 0.62729 0.92047 0.0
O307 O 0.38099 0.65647 0.905 0.0
H308 H 0.38349 0.6798 0.97714 0.0
H309 H 0.41188 0.68035 0.02752 0.0
H310 H 0.32561 0.71348 0.07216 0.0
H311 H 0.29715 0.71326 0.02117 0.0
H312 H 0.22672 0.75393 0.88196 0.0
H313 H 0.26508 0.71845 0.89847 0.0
H314 H 0.23426 0.72534 0.78619 0.0
H315 H 0.27217 0.68946 0.80315 0.0
H316 H 0.36549 0.5751 0.8232 0.0
H317 H 0.44833 0.56374 0.88488 0.0
H318 H 0.4296 0.60201 0.91728 0.0
H319 H 0.34669 0.61324 0.85614 0.0
Zn320 Zn 0.03807 0.14869 0.32119 0.0
Zn321 Zn 0.97733 0.13425 0.21719 0.0
Zn322 Zn 1.00932 0.14077 0.26905 0.0
C323 C 0.03313 0.16473 0.20234 0.0
C324 C 0.99235 0.08211 0.2363 0.0
O325 O 0.97355 0.15915 0.30323 0.0
O326 O 1.00131 0.16002 0.34769 0.0
C327 C 0.07229 0.1803 0.28001 0.0
O328 O 0.03892 0.16106 0.23174 0.0
O329 O 1.00704 0.15571 0.19019 0.0
O330 O 0.97875 0.09419 0.2138 0.0
O331 O 1.00514 0.09587 0.25914 0.0
O332 O 0.0686 0.17754 0.30911 0.0
O333 O 0.05387 0.16693 0.26065 0.0
O334 O 0.02491 0.09967 0.28577 0.0
O335 O 0.05621 0.1114 0.32593 0.0
C336 C 0.04513 0.09315 0.30774 0.0
O337 O 0.96021 0.16151 0.27296 0.0
O338 O 0.93525 0.15105 0.22843 0.0
C339 C 0.97499 0.16405 0.33297 0.0
C340 C 0.93501 0.16299 0.25469 0.0
Zn341 Zn 0.53682 0.36355 0.71676 0.0
Zn342 Zn 0.48068 0.36933 0.82159 0.0
Zn343 Zn 0.50958 0.36883 0.76912 0.0
C344 C 0.48092 0.42314 0.80055 0.0
C345 C 0.4431 0.33516 0.78635 0.0
O346 O 0.55558 0.34404 0.77508 0.0
O347 O 0.5675 0.33394 0.72583 0.0
C348 C 0.5426 0.41869 0.73325 0.0
O349 O 0.50096 0.41272 0.78043 0.0
O350 O 0.46644 0.408 0.81998 0.0
O351 O 0.44737 0.34116 0.81478 0.0
O352 O 0.46226 0.34511 0.76517 0.0
O353 O 0.55482 0.40115 0.71487 0.0
O354 O 0.52194 0.4112 0.75439 0.0
O355 O 0.4736 0.35005 0.73512 0.0
O356 O 0.49967 0.35372 0.68993 0.0
C357 C 0.47422 0.34736 0.70498 0.0
O358 O 0.54385 0.351 0.80465 0.0
O359 O 0.51744 0.35913 0.84897 0.0
C360 C 0.57292 0.33093 0.75464 0.0
C361 C 0.54259 0.35054 0.83488 0.0
Zn362 Zn 0.03713 0.87156 0.82683 0.0
Zn363 Zn 0.98462 0.86476 0.71738 0.0
Zn364 Zn 0.01061 0.8665 0.77298 0.0
C365 C 0.98455 0.91933 0.73386 0.0
C366 C 0.94321 0.83467 0.75579 0.0
O367 O 0.05885 0.84452 0.77094 0.0
O368 O 0.07865 0.85283 0.81822 0.0
C369 C 0.03019 0.92422 0.80857 0.0
O370 O 0.99811 0.90882 0.75831 0.0
O371 O 0.97656 0.90423 0.71101 0.0
O372 O 0.94689 0.84155 0.72761 0.0
O373 O 0.96402 0.84236 0.77687 0.0
O374 O 0.03932 0.91136 0.83252 0.0
O375 O 0.01864 0.91096 0.78471 0.0
O376 O 0.97708 0.84575 0.80715 0.0
O377 O 1.0047 0.85118 0.85132 0.0
C378 C 0.97991 0.8421 0.83697 0.0
O379 O 0.04692 0.84711 0.74001 0.0
O380 O 0.02076 0.84739 0.69461 0.0
C381 C 0.08172 0.8418 0.79161 0.0
C382 C 0.04603 0.84182 0.71033 0.0
Zn383 Zn 0.53049 0.63561 0.21045 0.0
Zn384 Zn 0.48595 0.64255 0.32192 0.0
Zn385 Zn 0.51014 0.64112 0.26584 0.0
C386 C 0.54838 0.66505 0.32688 0.0
C387 C 0.48632 0.5879 0.30535 0.0
O388 O 0.47345 0.6607 0.23324 0.0
O389 O 0.49315 0.64917 0.18675 0.0
C390 C 0.57363 0.67206 0.24071 0.0
O391 O 0.54816 0.66079 0.29695 0.0
O392 O 0.52374 0.6589 0.34321 0.0
O393 O 0.47761 0.60304 0.32789 0.0
O394 O 0.4998 0.5985 0.2809 0.0
O395 O 0.5666 0.66194 0.2143 0.0
O396 O 0.5568 0.66527 0.26506 0.0
O397 O 0.52022 0.59684 0.25469 0.0
O398 O 0.54104 0.59663 0.20694 0.0
C399 C 0.53314 0.58383 0.23133 0.0
O400 O 0.46283 0.66443 0.26412 0.0
O401 O 0.44827 0.66643 0.31408 0.0
C402 C 0.47138 0.66069 0.20302 0.0
C403 C 0.44318 0.67267 0.28591 0.0
H404 H 0.08132 0.96767 0.32072 0.0
H405 H 0.17277 0.00403 0.35031 0.0
H406 H 0.15048 0.04953 0.34186 0.0
H407 H 0.10538 0.07907 0.32667 0.0
H408 H 0.01332 0.04422 0.29727 0.0
H409 H 0.03546 0.99803 0.3045 0.0
C410 C 0.09623 0.9856 0.32538 0.0
C411 C 0.12873 0.98247 0.33603 0.0
C412 C 0.08325 0.0119 0.32026 0.0
C413 C 0.14788 0.00587 0.34174 0.0
C414 C 0.13512 0.0319 0.33704 0.0
C415 C 0.09009 0.06136 0.32185 0.0
C416 C 0.05785 0.065 0.31107 0.0
C417 C 0.10291 0.03515 0.32636 0.0
C418 C 0.03845 0.04189 0.30474 0.0
C419 C 0.05103 0.01553 0.30928 0.0
H420 H 0.46928 0.54794 0.83392 0.0
H421 H 0.36671 0.52606 0.83223 0.0
H422 H 0.38036 0.48089 0.81208 0.0
H423 H 0.42142 0.44575 0.80126 0.0
H424 H 0.5241 0.46598 0.8042 0.0
H425 H 0.5106 0.51367 0.8172 0.0
C426 C 0.44994 0.53336 0.82882 0.0
C427 C 0.417 0.54042 0.8348 0.0
C428 C 0.45801 0.50708 0.8176 0.0
C429 C 0.3922 0.52139 0.82761 0.0
C430 C 0.39999 0.49541 0.81631 0.0
C431 C 0.44078 0.46081 0.8041 0.0
C432 C 0.47363 0.45261 0.80169 0.0
C433 C 0.43279 0.48781 0.81209 0.0
C434 C 0.49862 0.47206 0.80554 0.0
C435 C 0.49087 0.49919 0.81327 0.0
H436 H 0.57554 0.54459 0.71782 0.0
H437 H 0.67115 0.51002 0.70057 0.0
H438 H 0.64975 0.46431 0.70985 0.0
H439 H 0.60419 0.434 0.7216 0.0
H440 H 0.50801 0.46682 0.73903 0.0
H441 H 0.52924 0.51344 0.73153 0.0
C442 C 0.59156 0.52698 0.7161 0.0
C443 C 0.62493 0.53069 0.7086 0.0
C444 C 0.57906 0.50055 0.72171 0.0
C445 C 0.64551 0.50775 0.70665 0.0
C446 C 0.63328 0.48159 0.71184 0.0
C447 C 0.58786 0.45138 0.72385 0.0
C448 C 0.55468 0.44711 0.73108 0.0
C449 C 0.60017 0.47777 0.71925 0.0
C450 C 0.5338 0.46973 0.7341 0.0
C451 C 0.5459 0.4963 0.72947 0.0
H452 H 0.98001 0.96325 0.18725 0.0
H453 H 0.89455 0.96564 0.24686 0.0
H454 H 0.91236 0.00947 0.26851 0.0
H455 H 0.94791 0.05014 0.26465 0.0
H456 H 0.03254 0.04795 0.20456 0.0
H457 H 0.02018 1.00054 0.1899 0.0
C458 C 0.96571 0.97285 0.20566 0.0
C459 C 0.93556 0.96128 0.21485 0.0
C460 C 0.97607 0.99813 0.21802 0.0
C461 C 0.91736 0.97435 0.23861 0.0
C462 C 0.92763 0.99939 0.25119 0.0
C463 C 0.96426 0.0388 0.24933 0.0
C464 C 0.99131 0.05213 0.23598 0.0
C465 C 0.95631 0.01192 0.24025 0.0
C466 C 0.01195 0.03774 0.21549 0.0
C467 C 1.00463 0.01081 0.20684 0.0
H468 H 0.91769 0.03436 0.74667 0.0
H469 H 0.93643 0.03412 0.64705 0.0
H470 H 0.96603 0.9912 0.65165 0.0
H471 H 0.98227 0.95169 0.68297 0.0
H472 H 0.96512 0.95197 0.78261 0.0
H473 H 0.94039 0.99742 0.77919 0.0
C474 C 0.92881 0.02529 0.72604 0.0
C475 C 0.92403 0.03727 0.69642 0.0
C476 C 0.94623 1.00062 0.72886 0.0
C477 C 0.93869 0.02501 0.67 0.0
C478 C 0.9559 1.00052 0.67261 0.0
C479 C 0.97358 0.96192 0.704 0.0
C480 C 0.97538 0.94852 0.73295 0.0
C481 C 0.95907 0.9878 0.70176 0.0
C482 C 0.96425 0.962 0.76008 0.0
C483 C 0.94983 0.98787 0.75807 0.0
H484 H 0.60124 0.47038 0.25166 0.0
H485 H 0.58024 0.46406 0.15265 0.0
H486 H 0.54936 0.50646 0.15501 0.0
H487 H 0.53332 0.54768 0.18362 0.0
H488 H 0.55248 0.55447 0.28265 0.0
H489 H 0.5779 0.50904 0.28214 0.0
C490 C 0.58938 0.47796 0.23073 0.0
C491 C 0.59399 0.46432 0.20181 0.0
C492 C 0.57122 0.50242 0.23226 0.0
C493 C 0.57821 0.47453 0.175 0.0
C494 C 0.56025 0.4987 0.17634 0.0
C495 C 0.54254 0.53898 0.20522 0.0
C496 C 0.54141 0.55446 0.23304 0.0
C497 C 0.55744 0.5132 0.20459 0.0
C498 C 0.55302 0.54288 0.26094 0.0
C499 C 0.56784 0.51704 0.26056 0.0
H500 H 0.42196 0.47178 0.29262 0.0
H501 H 0.43512 0.47459 0.39304 0.0
H502 H 0.46484 0.51755 0.38856 0.0
H503 H 0.48231 0.55648 0.35691 0.0
H504 H 0.47065 0.55373 0.25655 0.0
H505 H 0.4464 0.50805 0.26012 0.0
C506 C 0.43192 0.48142 0.31349 0.0
C507 C 0.42547 0.47018 0.34322 0.0
C508 C 0.4494 0.50612 0.31076 0.0
C509 C 0.43866 0.48314 0.36994 0.0
C510 C 0.45594 0.50765 0.36741 0.0
C511 C 0.47496 0.54567 0.33577 0.0
C512 C 0.47805 0.55849 0.30656 0.0
C513 C 0.46063 0.51968 0.33807 0.0
C514 C 0.46875 0.5442 0.27931 0.0
C515 C 0.45455 0.5182 0.28138 0.0
H516 H 0.08383 0.04345 0.78796 0.0
H517 H 0.07752 0.04318 0.889 0.0
H518 H 0.04976 0.99922 0.88732 0.0
H519 H 0.03294 0.9586 0.85805 0.0
H520 H 0.04239 0.9565 0.75746 0.0
H521 H 0.06264 1.00366 0.75801 0.0
C522 C 0.07626 0.03382 0.80959 0.0
C523 C 0.08298 0.04671 0.83857 0.0
C524 C 0.06082 0.00805 0.80856 0.0
C525 C 0.07242 0.03407 0.86632 0.0
C526 C 0.05672 0.00874 0.86544 0.0
C527 C 0.03894 0.96861 0.83616 0.0
C528 C 0.03611 0.95408 0.80776 0.0
C529 C 0.05157 0.99527 0.8368 0.0
C530 C 0.04385 0.96735 0.77961 0.0
C531 C 0.05584 0.99421 0.77997 0.0
H532 H 0.09823 0.20134 0.07891 0.0
H533 H 0.17288 0.14565 0.11065 0.0
H534 H 0.14668 0.14339 0.16207 0.0
H535 H 0.09724 0.15114 0.19466 0.0
H536 H 0.02179 0.20494 0.16095 0.0
H537 H 0.05424 0.21501 0.11439 0.0
C538 C 0.10949 0.1894 0.0973 0.0
C539 C 0.13722 0.17331 0.09057 0.0
C540 C 0.09401 0.18785 0.12665 0.0
C541 C 0.15111 0.15776 0.11484 0.0
C542 C 0.13618 0.15651 0.14435 0.0
C543 C 0.08864 0.16588 0.17767 0.0
C544 C 0.05726 0.17734 0.18112 0.0
C545 C 0.10683 0.17057 0.15011 0.0
C546 C 0.04597 0.19601 0.15874 0.0
C547 C 0.06437 0.20153 0.13196 0.0
H548 H 0.35645 0.35023 0.61258 0.0
H549 H 0.42124 0.29602 0.56188 0.0
H550 H 0.45604 0.29202 0.60777 0.0
H551 H 0.47365 0.31053 0.65835 0.0
H552 H 0.41109 0.3658 0.7094 0.0
H553 H 0.36966 0.36248 0.66776 0.0
C554 C 0.37787 0.33717 0.61179 0.0
C555 C 0.38633 0.32375 0.58353 0.0
C556 C 0.39838 0.33533 0.63829 0.0
C557 C 0.41387 0.30649 0.58317 0.0
C558 C 0.43407 0.30436 0.6094 0.0
C559 C 0.45042 0.32111 0.6608 0.0
C560 C 0.4454 0.33853 0.68662 0.0
C561 C 0.42732 0.31959 0.63653 0.0
C562 C 0.41532 0.35212 0.68976 0.0
C563 C 0.39187 0.35049 0.66573 0.0
H564 H 0.65962 0.35242 0.92877 0.0
H565 H 0.59197 0.30158 0.98003 0.0
H566 H 0.55668 0.29816 0.93428 0.0
H567 H 0.54037 0.31588 0.88315 0.0
H568 H 0.60653 0.36698 0.83108 0.0
H569 H 0.6473 0.36369 0.87326 0.0
C570 C 0.63746 0.3402 0.92967 0.0
C571 C 0.62837 0.32751 0.95799 0.0
C572 C 0.61688 0.33852 0.90316 0.0
C573 C 0.59978 0.31142 0.95863 0.0
C574 C 0.57936 0.30962 0.93249 0.0
C575 C 0.56418 0.32554 0.88064 0.0
C576 C 0.57052 0.34172 0.85428 0.0
C577 C 0.58703 0.32392 0.90512 0.0
C578 C 0.60133 0.35419 0.85111 0.0
C579 C 0.62441 0.3526 0.87542 0.0
H580 H 0.85793 0.15768 0.42593 0.0
H581 H 0.92109 0.21347 0.47657 0.0
H582 H 0.95542 0.21863 0.43052 0.0
H583 H 0.97332 0.20082 0.37976 0.0
H584 H 0.9124 0.14398 0.32877 0.0
H585 H 0.87116 0.14604 0.37062 0.0
C586 C 0.87889 0.17133 0.42668 0.0
C587 C 0.88706 0.18486 0.45496 0.0
C588 C 0.89913 0.17383 0.40008 0.0
C589 C 0.91396 0.20289 0.45527 0.0
C590 C 0.93389 0.20568 0.42894 0.0
C591 C 0.95049 0.18957 0.37738 0.0
C592 C 0.94598 0.17202 0.35154 0.0
C593 C 0.92751 0.19037 0.40177 0.0
C594 C 0.91632 0.15768 0.34846 0.0
C595 C 0.89297 0.15861 0.3726 0.0
H596 H 0.86386 0.82612 0.93067 0.0
H597 H 0.94196 0.78796 0.98261 0.0
H598 H 0.97751 0.79001 0.93687 0.0
H599 H 0.98909 0.8085 0.88526 0.0
H600 H 0.91309 0.84856 0.83285 0.0
H601 H 0.87364 0.83905 0.87496 0.0
C602 C 0.88844 0.81779 0.93168 0.0
C603 C 0.90053 0.80745 0.96023 0.0
C604 C 0.90909 0.81936 0.90519 0.0
C605 C 0.93238 0.79662 0.96118 0.0
C606 C 0.95268 0.79766 0.93499 0.0
C607 C 0.96362 0.81448 0.88268 0.0
C608 C 0.95399 0.82935 0.8562 0.0
C609 C 0.94169 0.80985 0.90732 0.0
C610 C 0.92098 0.83688 0.85294 0.0
C611 C 0.89859 0.83179 0.87726 0.0
H612 H 0.66083 0.6552 0.42285 0.0
H613 H 0.60108 0.71586 0.46937 0.0
H614 H 0.56984 0.72254 0.42153 0.0
H615 H 0.55248 0.70471 0.37038 0.0
H616 H 0.60902 0.64194 0.32461 0.0
H617 H 0.64881 0.64291 0.36766 0.0
C618 C 0.6413 0.67018 0.42237 0.0
C619 C 0.63311 0.68467 0.45 0.0
C620 C 0.62271 0.67349 0.3948 0.0
C621 C 0.60816 0.70445 0.44864 0.0
C622 C 0.59001 0.70816 0.42126 0.0
C623 C 0.57433 0.69213 0.36924 0.0
C624 C 0.578 0.67343 0.34433 0.0
C625 C 0.59615 0.69197 0.3947 0.0
C626 C 0.60603 0.65687 0.34326 0.0
C627 C 0.62844 0.65708 0.36818 0.0
H628 H 0.35411 0.67768 0.11174 0.0
H629 H 0.43012 0.72112 0.06238 0.0
H630 H 0.46576 0.71849 0.10804 0.0
H631 H 0.47854 0.69765 0.1582 0.0
H632 H 0.40502 0.65191 0.2077 0.0
H633 H 0.36476 0.66231 0.16653 0.0
C634 C 0.37821 0.68704 0.11136 0.0
C635 C 0.38976 0.69912 0.08352 0.0
C636 C 0.39897 0.68501 0.13774 0.0
C637 C 0.42099 0.71124 0.08329 0.0
C638 C 0.44134 0.70982 0.10942 0.0
C639 C 0.45333 0.69078 0.16047 0.0
C640 C 0.44461 0.67412 0.18579 0.0
C641 C 0.43106 0.69589 0.13625 0.0
C642 C 0.41208 0.6651 0.18856 0.0
C643 C 0.38928 0.67069 0.16475 0.0
H644 H 0.16184 0.84861 0.61723 0.0
H645 H 0.09751 0.79436 0.56581 0.0
H646 H 0.06423 0.78783 0.61237 0.0
H647 H 0.04722 0.80459 0.66392 0.0
H648 H 0.10916 0.86022 0.71549 0.0
H649 H 0.14987 0.85867 0.67318 0.0
C650 C 0.14087 0.83499 0.6164 0.0
C651 C 0.132 0.82234 0.58778 0.0
C652 C 0.12125 0.8317 0.64332 0.0
C653 C 0.10511 0.80431 0.58735 0.0
C654 C 0.08581 0.80071 0.61399 0.0
C655 C 0.07024 0.81555 0.66638 0.0
C656 C 0.07511 0.83272 0.69251 0.0
C657 C 0.09281 0.81524 0.6416 0.0
C658 C 0.10498 0.84677 0.69562 0.0
C659 C 0.12799 0.8462 0.67118 0.0
H660 H 0.21026 0.22854 0.28972 0.0
H661 H 0.15381 0.29709 0.32365 0.0
H662 H 0.10374 0.27626 0.30357 0.0
H663 H 0.07518 0.23457 0.28673 0.0
H664 H 0.13046 0.1651 0.25453 0.0
H665 H 0.18174 0.19039 0.26254 0.0
C666 C 0.18706 0.23914 0.29207 0.0
C667 C 0.18575 0.26415 0.3086 0.0
C668 C 0.15811 0.22681 0.28077 0.0
C669 C 0.1556 0.27788 0.31103 0.0
C670 C 0.12685 0.26588 0.29971 0.0
C671 C 0.09843 0.22555 0.27994 0.0
C672 C 0.09922 0.19817 0.26996 0.0
C673 C 0.12766 0.23985 0.28584 0.0
C674 C 0.12935 0.18635 0.26177 0.0
C675 C 0.15867 0.20065 0.26696 0.0
H676 H 0.30634 0.28268 0.7996 0.0
H677 H 0.36616 0.21686 0.83439 0.0
H678 H 0.41524 0.23932 0.81466 0.0
H679 H 0.44178 0.28136 0.79648 0.0
H680 H 0.38303 0.34819 0.76354 0.0
H681 H 0.33298 0.32156 0.77272 0.0
C682 C 0.33009 0.27307 0.80233 0.0
C683 C 0.33256 0.24827 0.81881 0.0
C684 C 0.35844 0.28632 0.79122 0.0
C685 C 0.36345 0.23585 0.82175 0.0
C686 C 0.39163 0.24878 0.81063 0.0
C687 C 0.41804 0.28951 0.78995 0.0
C688 C 0.41592 0.31645 0.77901 0.0
C689 C 0.38952 0.27447 0.79643 0.0
C690 C 0.38514 0.32724 0.77134 0.0
C691 C 0.35655 0.31218 0.77714 0.0
H692 H 0.71116 0.28172 0.74452 0.0
H693 H 0.65396 0.21353 0.71023 0.0
H694 H 0.60397 0.23502 0.7293 0.0
H695 H 0.57588 0.27687 0.74606 0.0
H696 H 0.63193 0.34593 0.77877 0.0
H697 H 0.68293 0.32034 0.77089 0.0
C698 C 0.6878 0.27137 0.74183 0.0
C699 C 0.68629 0.24622 0.72558 0.0
C700 C 0.6589 0.28406 0.75256 0.0
C701 C 0.65591 0.23283 0.72269 0.0
C702 C 0.62721 0.2452 0.73342 0.0
C703 C 0.59923 0.28576 0.75286 0.0
C704 C 0.60034 0.31304 0.76318 0.0
C705 C 0.6283 0.27127 0.74717 0.0
C706 C 0.63059 0.32473 0.77136 0.0
C707 C 0.65974 0.31025 0.76628 0.0
H708 H 0.84049 0.25929 0.23371 0.0
H709 H 0.77433 0.19212 0.2152 0.0
H710 H 0.81398 0.16013 0.2365 0.0
H711 H 0.87098 0.1505 0.25081 0.0
H712 H 0.93729 0.21692 0.27047 0.0
H713 H 0.89371 0.25 0.25959 0.0
C714 C 0.8343 0.23779 0.2352 0.0
C715 C 0.80484 0.22808 0.22176 0.0
C716 C 0.85732 0.21932 0.24767 0.0
C717 C 0.79727 0.20009 0.22423 0.0
C718 C 0.81987 0.18174 0.2366 0.0
C719 C 0.87541 0.17222 0.254 0.0
C720 C 0.90719 0.18135 0.26121 0.0
C721 C 0.85052 0.19098 0.24698 0.0
C722 C 0.91287 0.20946 0.26521 0.0
C723 C 0.88807 0.22836 0.25847 0.0
H724 H 0.80564 0.78641 0.73523 0.0
H725 H 0.8643 0.71725 0.70696 0.0
H726 H 0.9129 0.73861 0.72966 0.0
H727 H 0.94025 0.78039 0.74846 0.0
H728 H 0.88265 0.85052 0.77433 0.0
H729 H 0.83214 0.82528 0.76262 0.0
C730 C 0.82898 0.77585 0.73455 0.0
C731 C 0.83136 0.75042 0.71903 0.0
C732 C 0.85706 0.78846 0.74734 0.0
C733 C 0.86167 0.73678 0.71878 0.0
C734 C 0.88958 0.74907 0.73163 0.0
C735 C 0.91652 0.78958 0.75302 0.0
C736 C 0.91498 0.81703 0.76269 0.0
C737 C 0.88779 0.77532 0.74488 0.0
C738 C 0.88427 0.82917 0.7676 0.0
C739 C 0.85546 0.81489 0.76033 0.0
H740 H 0.69986 0.74723 0.25121 0.0
H741 H 0.66619 0.769 0.1587 0.0
H742 H 0.61813 0.74017 0.16508 0.0
H743 H 0.58721 0.70721 0.19509 0.0
H744 H 0.61888 0.68408 0.28742 0.0
H745 H 0.66573 0.71563 0.28345 0.0
C746 C 0.6818 0.74584 0.23263 0.0
C747 C 0.68702 0.75989 0.20422 0.0
C748 C 0.65388 0.72911 0.23647 0.0
C749 C 0.66332 0.7579 0.18042 0.0
C750 C 0.63566 0.74157 0.18412 0.0
C751 C 0.60428 0.70908 0.2145 0.0
C752 C 0.59982 0.69309 0.24143 0.0
C753 C 0.63103 0.72678 0.21174 0.0
C754 C 0.62173 0.69621 0.26656 0.0
C755 C 0.64863 0.71409 0.2641 0.0
H756 H 0.30531 0.7215 0.30513 0.0
H757 H 0.36426 0.79084 0.33292 0.0
H758 H 0.41297 0.76895 0.3114 0.0
H759 H 0.44016 0.72689 0.29361 0.0
H760 H 0.38231 0.65663 0.26802 0.0
H761 H 0.33185 0.68211 0.27891 0.0
C762 C 0.32875 0.73197 0.30597 0.0
C763 C 0.33115 0.75764 0.32099 0.0
C764 C 0.3569 0.71905 0.29388 0.0
C765 C 0.36161 0.77115 0.32145 0.0
C766 C 0.38958 0.75856 0.3093 0.0
C767 C 0.41641 0.71767 0.28904 0.0
C768 C 0.41474 0.69017 0.27962 0.0
C769 C 0.38772 0.73212 0.29656 0.0
C770 C 0.38401 0.67802 0.27459 0.0
C771 C 0.35523 0.69245 0.28135 0.0
H772 H 0.17717 0.74163 0.7898 0.0
H773 H 0.2303 0.79566 0.85216 0.0
H774 H 0.19243 0.83255 0.84047 0.0
H775 H 0.14115 0.84796 0.81758 0.0
H776 H 0.08628 0.79481 0.756 0.0
H777 H 0.12866 0.75951 0.76115 0.0
C778 C 0.18076 0.76161 0.80041 0.0
C779 C 0.20615 0.76561 0.82249 0.0
C780 C 0.1587 0.78294 0.79356 0.0
C781 C 0.21045 0.7917 0.83588 0.0
C782 C 0.18896 0.81292 0.829 0.0
C783 C 0.13878 0.82885 0.80471 0.0
C784 C 0.11047 0.82384 0.78677 0.0
C785 C 0.16253 0.80853 0.80863 0.0
C786 C 0.1079 0.79918 0.7699 0.0
C787 C 0.13193 0.77888 0.77321 0.0
loop_
_geom_bond_atom_site_label_1
_geom_bond_atom_site_label_2
_geom_bond_distance
_geom_bond_site_symmetry_2
_ccdc_geom_bond_type
C0 C1 1.264 . S
C0 C5 1.479 . S
C0 C10 1.465 . S
C1 C0 1.264 . S
C1 C3 1.339 . S
C1 H28 0.931 . S
C2 C3 1.395 . S
C2 C4 1.320 . S
C3 C1 1.339 . S
C3 C2 1.395 . S
C3 H29 0.929 . S
C4 C2 1.320 . S
C4 C5 1.405 . S
C4 H30 0.930 . S
C5 C0 1.479 . S
C5 C4 1.405 . S
C5 H31 0.931 . S
U6 O7 2.454 . S
U6 O8 2.458 . S
U6 C9 2.984 . S
U6 C10 2.847 . S
U6 C23 2.882 . S
U6 O24 2.441 . S
U6 O25 2.420 . S
U6 O26 2.455 . S
U6 O27 2.449 . S
O7 U6 2.454 . S
O7 C9 1.353 . S
O8 U6 2.458 . S
O8 C9 1.286 . S
C9 U6 2.984 . S
C9 O7 1.353 . S
C9 O8 1.286 . S
C9 C11 1.363 . S
C10 C0 1.465 . S
C10 U6 2.847 . S
C10 O24 1.249 . S
C10 O25 1.202 . S
C11 C9 1.363 . S
C11 C13 1.408 . S
C11 C16 1.342 . S
C12 C13 1.310 . S
C12 C15 1.461 . S
C12 H32 0.932 . S
C13 C11 1.408 . S
C13 C12 1.310 . S
C13 H33 0.930 . S
C14 C15 1.474 . S
C14 C16 1.285 . S
C14 H34 0.929 . S
C15 C12 1.461 . S
C15 C14 1.474 . S
C16 C11 1.342 . S
C16 C14 1.285 . S
C16 H35 0.930 . S
C17 C20 1.424 . S
C17 C22 1.245 . S
C17 C23 1.428 . S
C18 C21 1.260 . S
C18 C22 1.477 . S
C18 H36 0.932 . S
C19 C20 1.384 . S
C19 C21 1.479 . S
C19 H37 0.929 . S
C20 C17 1.424 . S
C20 C19 1.384 . S
C20 H38 0.928 . S
C21 C18 1.260 . S
C21 C19 1.479 . S
C22 C17 1.245 . S
C22 C18 1.477 . S
C22 H39 0.932 . S
C23 U6 2.882 . S
C23 C17 1.428 . S
C23 O26 1.301 . S
C23 O27 1.282 . S
O24 U6 2.441 . S
O24 C10 1.249 . S
O25 U6 2.420 . S
O25 C10 1.202 . S
O26 U6 2.455 . S
O26 C23 1.301 . S
O27 U6 2.449 . S
O27 C23 1.282 . S
H28 C1 0.931 . S
H29 C3 0.929 . S
H30 C4 0.930 . S
H31 C5 0.931 . S
H32 C12 0.932 . S
H33 C13 0.930 . S
H34 C14 0.929 . S
H35 C16 0.930 . S
H36 C18 0.932 . S
H37 C19 0.929 . S
H38 C20 0.928 . S
H39 C22 0.932 . S
C40 C41 1.264 . S
C40 C45 1.479 . S
C40 C50 1.465 . S
C41 C40 1.264 . S
C41 C43 1.339 1_556 S
C41 H68 0.931 . S
C42 C43 1.395 . S
C42 C44 1.320 . S
C43 C41 1.339 1_554 S
C43 C42 1.395 . S
C43 H69 0.929 . S
C44 C42 1.320 . S
C44 C45 1.405 1_554 S
C44 H70 0.930 . S
C45 C40 1.479 . S
C45 C44 1.405 1_556 S
C45 H71 0.931 . S
U46 O47 2.454 . S
U46 O48 2.458 . S
U46 C49 2.984 . S
U46 C50 2.847 . S
U46 C63 2.882 . S
U46 O64 2.441 . S
U46 O65 2.420 . S
U46 O66 2.455 . S
U46 O67 2.449 . S
O47 U46 2.454 . S
O47 C49 1.353 . S
O48 U46 2.458 . S
O48 C49 1.286 . S
C49 U46 2.984 . S
C49 O47 1.353 . S
C49 O48 1.286 . S
C49 C51 1.363 . S
C50 C40 1.465 . S
C50 U46 2.847 . S
C50 O64 1.249 . S
C50 O65 1.202 . S
C51 C49 1.363 . S
C51 C53 1.408 . S
C51 C56 1.342 . S
C52 C53 1.310 . S
C52 C55 1.461 . S
C52 H72 0.932 . S
C53 C51 1.408 . S
C53 C52 1.310 . S
C53 H73 0.930 . S
C54 C55 1.474 . S
C54 C56 1.285 . S
C54 H74 0.929 . S
C55 C52 1.461 . S
C55 C54 1.474 . S
C56 C51 1.342 . S
C56 C54 1.285 . S
C56 H75 0.930 . S
C57 C60 1.424 . S
C57 C62 1.245 . S
C57 C63 1.428 . S
C58 C61 1.260 . S
C58 C62 1.477 . S
C58 H76 0.932 . S
C59 C60 1.384 . S
C59 C61 1.479 . S
C59 H77 0.929 . S
C60 C57 1.424 . S
C60 C59 1.384 . S
C60 H78 0.928 . S
C61 C58 1.260 . S
C61 C59 1.479 . S
C62 C57 1.245 . S
C62 C58 1.477 . S
C62 H79 0.932 . S
C63 U46 2.882 . S
C63 C57 1.428 . S
C63 O66 1.301 . S
C63 O67 1.282 . S
O64 U46 2.441 . S
O64 C50 1.249 . S
O65 U46 2.420 . S
O65 C50 1.202 . S
O66 U46 2.455 . S
O66 C63 1.301 . S
O67 U46 2.449 . S
O67 C63 1.282 . S
H68 C41 0.931 . S
H69 C43 0.929 . S
H70 C44 0.930 . S
H71 C45 0.931 . S
H72 C52 0.932 . S
H73 C53 0.930 . S
H74 C54 0.929 . S
H75 C56 0.930 . S
H76 C58 0.932 . S
H77 C59 0.929 . S
H78 C60 0.928 . S
H79 C62 0.932 . S
C80 C81 1.264 . S
C80 C85 1.479 . S
C80 C90 1.465 . S
C81 C80 1.264 . S
C81 C83 1.339 . S
C81 H108 0.931 . S
C82 C83 1.395 . S
C82 C84 1.320 . S
C83 C81 1.339 . S
C83 C82 1.395 . S
C83 H109 0.929 . S
C84 C82 1.320 . S
C84 C85 1.405 . S
C84 H110 0.930 . S
C85 C80 1.479 . S
C85 C84 1.405 . S
C85 H111 0.931 . S
U86 O87 2.454 . S
U86 O88 2.458 . S
U86 C89 2.984 . S
U86 C90 2.847 . S
U86 C103 2.882 . S
U86 O104 2.441 . S
U86 O105 2.420 . S
U86 O106 2.455 . S
U86 O107 2.449 . S
O87 U86 2.454 . S
O87 C89 1.353 . S
O88 U86 2.458 . S
O88 C89 1.286 . S
C89 U86 2.984 . S
C89 O87 1.353 . S
C89 O88 1.286 . S
C89 C91 1.363 . S
C90 C80 1.465 . S
C90 U86 2.847 . S
C90 O104 1.249 . S
C90 O105 1.202 . S
C91 C89 1.363 . S
C91 C93 1.408 . S
C91 C96 1.342 . S
C92 C93 1.310 . S
C92 C95 1.461 . S
C92 H112 0.932 . S
C93 C91 1.408 . S
C93 C92 1.310 . S
C93 H113 0.930 . S
C94 C95 1.474 . S
C94 C96 1.285 . S
C94 H114 0.929 . S
C95 C92 1.461 . S
C95 C94 1.474 . S
C96 C91 1.342 . S
C96 C94 1.285 . S
C96 H115 0.930 . S
C97 C100 1.424 . S
C97 C102 1.245 . S
C97 C103 1.428 . S
C98 C101 1.260 . S
C98 C102 1.477 . S
C98 H116 0.932 . S
C99 C100 1.384 . S
C99 C101 1.479 . S
C99 H117 0.929 . S
C100 C97 1.424 . S
C100 C99 1.384 . S
C100 H118 0.928 . S
C101 C98 1.260 . S
C101 C99 1.479 . S
C102 C97 1.245 . S
C102 C98 1.477 . S
C102 H119 0.932 . S
C103 U86 2.882 . S
C103 C97 1.428 . S
C103 O106 1.301 . S
C103 O107 1.282 . S
O104 U86 2.441 . S
O104 C90 1.249 . S
O105 U86 2.420 . S
O105 C90 1.202 . S
O106 U86 2.455 . S
O106 C103 1.301 . S
O107 U86 2.449 . S
O107 C103 1.282 . S
H108 C81 0.931 . S
H109 C83 0.929 . S
H110 C84 0.930 . S
H111 C85 0.931 . S
H112 C92 0.932 . S
H113 C93 0.930 . S
H114 C94 0.929 . S
H115 C96 0.930 . S
H116 C98 0.932 . S
H117 C99 0.929 . S
H118 C100 0.928 . S
H119 C102 0.932 . S
C120 C121 1.264 . S
C120 C125 1.479 . S
C120 C130 1.465 . S
C121 C120 1.264 . S
C121 C123 1.339 1_554 S
C121 H148 0.931 . S
C122 C123 1.395 . S
C122 C124 1.320 . S
C123 C121 1.339 1_556 S
C123 C122 1.395 . S
C123 H149 0.929 . S
C124 C122 1.320 . S
C124 C125 1.405 1_556 S
C124 H150 0.930 . S
C125 C120 1.479 . S
C125 C124 1.405 1_554 S
C125 H151 0.931 . S
U126 O127 2.454 . S
U126 O128 2.458 . S
U126 C129 2.984 . S
U126 C130 2.847 . S
U126 C143 2.882 . S
U126 O144 2.441 . S
U126 O145 2.420 . S
U126 O146 2.455 . S
U126 O147 2.449 . S
O127 U126 2.454 . S
O127 C129 1.353 . S
O128 U126 2.458 . S
O128 C129 1.286 . S
C129 U126 2.984 . S
C129 O127 1.353 . S
C129 O128 1.286 . S
C129 C131 1.363 . S
C130 C120 1.465 . S
C130 U126 2.847 . S
C130 O144 1.249 . S
C130 O145 1.202 . S
C131 C129 1.363 . S
C131 C133 1.408 . S
C131 C136 1.342 . S
C132 C133 1.310 . S
C132 C135 1.461 . S
C132 H152 0.932 . S
C133 C131 1.408 . S
C133 C132 1.310 . S
C133 H153 0.930 . S
C134 C135 1.474 . S
C134 C136 1.285 . S
C134 H154 0.929 . S
C135 C132 1.461 . S
C135 C134 1.474 . S
C136 C131 1.342 . S
C136 C134 1.285 . S
C136 H155 0.930 . S
C137 C140 1.424 . S
C137 C142 1.245 . S
C137 C143 1.428 . S
C138 C141 1.260 . S
C138 C142 1.477 . S
C138 H156 0.932 . S
C139 C140 1.384 . S
C139 C141 1.479 . S
C139 H157 0.929 . S
C140 C137 1.424 . S
C140 C139 1.384 . S
C140 H158 0.928 . S
C141 C138 1.260 . S
C141 C139 1.479 . S
C142 C137 1.245 . S
C142 C138 1.477 . S
C142 H159 0.932 . S
C143 U126 2.882 . S
C143 C137 1.428 . S
C143 O146 1.301 . S
C143 O147 1.282 . S
O144 U126 2.441 . S
O144 C130 1.249 . S
O145 U126 2.420 . S
O145 C130 1.202 . S
O146 U126 2.455 . S
O146 C143 1.301 . S
O147 U126 2.449 . S
O147 C143 1.282 . S
H148 C121 0.931 . S
H149 C123 0.929 . S
H150 C124 0.930 . S
H151 C125 0.931 . S
H152 C132 0.932 . S
H153 C133 0.930 . S
H154 C134 0.929 . S
H155 C136 0.930 . S
H156 C138 0.932 . S
H157 C139 0.929 . S
H158 C140 0.928 . S
H159 C142 0.932 . S
C160 C161 1.264 . S
C160 C165 1.479 . S
C160 C170 1.465 . S
C161 C160 1.264 . S
C161 C163 1.339 . S
C161 H188 0.931 . S
C162 C163 1.395 . S
C162 C164 1.320 . S
C163 C161 1.339 . S
C163 C162 1.395 . S
C163 H189 0.929 . S
C164 C162 1.320 . S
C164 C165 1.405 . S
C164 H190 0.930 . S
C165 C160 1.479 . S
C165 C164 1.405 . S
C165 H191 0.931 . S
U166 O167 2.454 . S
U166 O168 2.458 . S
U166 C169 2.984 . S
U166 C170 2.847 . S
U166 C183 2.882 . S
U166 O184 2.441 . S
U166 O185 2.420 . S
U166 O186 2.455 . S
U166 O187 2.449 . S
O167 U166 2.454 . S
O167 C169 1.353 . S
O168 U166 2.458 . S
O168 C169 1.286 . S
C169 U166 2.984 . S
C169 O167 1.353 . S
C169 O168 1.286 . S
C169 C171 1.363 . S
C170 C160 1.465 . S
C170 U166 2.847 . S
C170 O184 1.249 . S
C170 O185 1.202 . S
C171 C169 1.363 . S
C171 C173 1.408 . S
C171 C176 1.342 . S
C172 C173 1.310 . S
C172 C175 1.461 . S
C172 H192 0.932 . S
C173 C171 1.408 . S
C173 C172 1.310 . S
C173 H193 0.930 . S
C174 C175 1.474 . S
C174 C176 1.285 . S
C174 H194 0.929 . S
C175 C172 1.461 . S
C175 C174 1.474 . S
C176 C171 1.342 . S
C176 C174 1.285 . S
C176 H195 0.930 . S
C177 C180 1.424 . S
C177 C182 1.245 . S
C177 C183 1.428 . S
C178 C181 1.260 . S
C178 C182 1.477 . S
C178 H196 0.932 . S
C179 C180 1.384 . S
C179 C181 1.479 . S
C179 H197 0.929 . S
C180 C177 1.424 . S
C180 C179 1.384 . S
C180 H198 0.928 . S
C181 C178 1.260 . S
C181 C179 1.479 . S
C182 C177 1.245 . S
C182 C178 1.477 . S
C182 H199 0.932 . S
C183 U166 2.882 . S
C183 C177 1.428 . S
C183 O186 1.301 . S
C183 O187 1.282 . S
O184 U166 2.441 . S
O184 C170 1.249 . S
O185 U166 2.420 . S
O185 C170 1.202 . S
O186 U166 2.455 . S
O186 C183 1.301 . S
O187 U166 2.449 . S
O187 C183 1.282 . S
H188 C161 0.931 . S
H189 C163 0.929 . S
H190 C164 0.930 . S
H191 C165 0.931 . S
H192 C172 0.932 . S
H193 C173 0.930 . S
H194 C174 0.929 . S
H195 C176 0.930 . S
H196 C178 0.932 . S
H197 C179 0.929 . S
H198 C180 0.928 . S
H199 C182 0.932 . S
C200 C201 1.264 . S
C200 C205 1.479 1_554 S
C200 C210 1.465 . S
C201 C200 1.264 . S
C201 C203 1.339 1_554 S
C201 H228 0.931 . S
C202 C203 1.395 . S
C202 C204 1.320 . S
C203 C201 1.339 1_556 S
C203 C202 1.395 . S
C203 H229 0.929 . S
C204 C202 1.320 . S
C204 C205 1.405 . S
C204 H230 0.930 . S
C205 C200 1.479 1_556 S
C205 C204 1.405 . S
C205 H231 0.931 1_556 S
U206 O207 2.454 . S
U206 O208 2.458 . S
U206 C209 2.984 . S
U206 C210 2.847 . S
U206 C223 2.882 . S
U206 O224 2.441 . S
U206 O225 2.420 . S
U206 O226 2.455 . S
U206 O227 2.449 . S
O207 U206 2.454 . S
O207 C209 1.353 . S
O208 U206 2.458 . S
O208 C209 1.286 . S
C209 U206 2.984 . S
C209 O207 1.353 . S
C209 O208 1.286 . S
C209 C211 1.363 . S
C210 C200 1.465 . S
C210 U206 2.847 . S
C210 O224 1.249 . S
C210 O225 1.202 . S
C211 C209 1.363 . S
C211 C213 1.408 . S
C211 C216 1.342 . S
C212 C213 1.310 . S
C212 C215 1.461 . S
C212 H232 0.932 . S
C213 C211 1.408 . S
C213 C212 1.310 . S
C213 H233 0.930 . S
C214 C215 1.474 . S
C214 C216 1.285 . S
C214 H234 0.929 . S
C215 C212 1.461 . S
C215 C214 1.474 . S
C216 C211 1.342 . S
C216 C214 1.285 . S
C216 H235 0.930 . S
C217 C220 1.424 . S
C217 C222 1.245 . S
C217 C223 1.428 . S
C218 C221 1.260 . S
C218 C222 1.477 . S
C218 H236 0.932 . S
C219 C220 1.384 . S
C219 C221 1.479 . S
C219 H237 0.929 . S
C220 C217 1.424 . S
C220 C219 1.384 . S
C220 H238 0.928 . S
C221 C218 1.260 . S
C221 C219 1.479 . S
C222 C217 1.245 . S
C222 C218 1.477 . S
C222 H239 0.932 . S
C223 U206 2.882 . S
C223 C217 1.428 . S
C223 O226 1.301 . S
C223 O227 1.282 . S
O224 U206 2.441 . S
O224 C210 1.249 . S
O225 U206 2.420 . S
O225 C210 1.202 . S
O226 U206 2.455 . S
O226 C223 1.301 . S
O227 U206 2.449 . S
O227 C223 1.282 . S
H228 C201 0.931 . S
H229 C203 0.929 . S
H230 C204 0.930 . S
H231 C205 0.931 1_554 S
H232 C212 0.932 . S
H233 C213 0.930 . S
H234 C214 0.929 . S
H235 C216 0.930 . S
H236 C218 0.932 . S
H237 C219 0.929 . S
H238 C220 0.928 . S
H239 C222 0.932 . S
C240 C241 1.264 . S
C240 C245 1.479 . S
C240 C250 1.465 . S
C241 C240 1.264 . S
C241 C243 1.339 . S
C241 H268 0.931 . S
C242 C243 1.395 . S
C242 C244 1.320 . S
C243 C241 1.339 . S
C243 C242 1.395 . S
C243 H269 0.929 . S
C244 C242 1.320 . S
C244 C245 1.405 . S
C244 H270 0.930 . S
C245 C240 1.479 . S
C245 C244 1.405 . S
C245 H271 0.931 . S
U246 O247 2.454 . S
U246 O248 2.458 . S
U246 C249 2.984 . S
U246 C250 2.847 . S
U246 C263 2.882 . S
U246 O264 2.441 . S
U246 O265 2.420 . S
U246 O266 2.455 . S
U246 O267 2.449 . S
O247 U246 2.454 . S
O247 C249 1.353 . S
O248 U246 2.458 . S
O248 C249 1.286 . S
C249 U246 2.984 . S
C249 O247 1.353 . S
C249 O248 1.286 . S
C249 C251 1.363 . S
C250 C240 1.465 . S
C250 U246 2.847 . S
C250 O264 1.249 . S
C250 O265 1.202 . S
C251 C249 1.363 . S
C251 C253 1.408 . S
C251 C256 1.342 . S
C252 C253 1.310 . S
C252 C255 1.461 . S
C252 H272 0.932 . S
C253 C251 1.408 . S
C253 C252 1.310 . S
C253 H273 0.930 . S
C254 C255 1.474 . S
C254 C256 1.285 . S
C254 H274 0.929 . S
C255 C252 1.461 . S
C255 C254 1.474 . S
C256 C251 1.342 . S
C256 C254 1.285 . S
C256 H275 0.930 . S
C257 C260 1.424 . S
C257 C262 1.245 . S
C257 C263 1.428 . S
C258 C261 1.260 . S
C258 C262 1.477 . S
C258 H276 0.932 . S
C259 C260 1.384 . S
C259 C261 1.479 . S
C259 H277 0.929 . S
C260 C257 1.424 . S
C260 C259 1.384 . S
C260 H278 0.928 . S
C261 C258 1.260 . S
C261 C259 1.479 . S
C262 C257 1.245 . S
C262 C258 1.477 . S
C262 H279 0.932 . S
C263 U246 2.882 . S
C263 C257 1.428 . S
C263 O266 1.301 . S
C263 O267 1.282 . S
O264 U246 2.441 . S
O264 C250 1.249 . S
O265 U246 2.420 . S
O265 C250 1.202 . S
O266 U246 2.455 . S
O266 C263 1.301 . S
O267 U246 2.449 . S
O267 C263 1.282 . S
H268 C241 0.931 . S
H269 C243 0.929 . S
H270 C244 0.930 . S
H271 C245 0.931 . S
H272 C252 0.932 . S
H273 C253 0.930 . S
H274 C254 0.929 . S
H275 C256 0.930 . S
H276 C258 0.932 . S
H277 C259 0.929 . S
H278 C260 0.928 . S
H279 C262 0.932 . S
C280 C281 1.264 . S
C280 C285 1.479 1_556 S
C280 C290 1.465 . S
C281 C280 1.264 . S
C281 C283 1.339 1_556 S
C281 H308 0.931 . S
C282 C283 1.395 . S
C282 C284 1.320 . S
C283 C281 1.339 1_554 S
C283 C282 1.395 . S
C283 H309 0.929 . S
C284 C282 1.320 . S
C284 C285 1.405 . S
C284 H310 0.930 . S
C285 C280 1.479 1_554 S
C285 C284 1.405 . S
C285 H311 0.931 1_554 S
U286 O287 2.454 . S
U286 O288 2.458 . S
U286 C289 2.984 . S
U286 C290 2.847 . S
U286 C303 2.882 . S
U286 O304 2.441 . S
U286 O305 2.420 . S
U286 O306 2.455 . S
U286 O307 2.449 . S
O287 U286 2.454 . S
O287 C289 1.353 . S
O288 U286 2.458 . S
O288 C289 1.286 . S
C289 U286 2.984 . S
C289 O287 1.353 . S
C289 O288 1.286 . S
C289 C291 1.363 . S
C290 C280 1.465 . S
C290 U286 2.847 . S
C290 O304 1.249 . S
C290 O305 1.202 . S
C291 C289 1.363 . S
C291 C293 1.408 . S
C291 C296 1.342 . S
C292 C293 1.310 . S
C292 C295 1.461 . S
C292 H312 0.932 . S
C293 C291 1.408 . S
C293 C292 1.310 . S
C293 H313 0.930 . S
C294 C295 1.474 . S
C294 C296 1.285 . S
C294 H314 0.929 . S
C295 C292 1.461 . S
C295 C294 1.474 . S
C296 C291 1.342 . S
C296 C294 1.285 . S
C296 H315 0.930 . S
C297 C300 1.424 . S
C297 C302 1.245 . S
C297 C303 1.428 . S
C298 C301 1.260 . S
C298 C302 1.477 . S
C298 H316 0.932 . S
C299 C300 1.384 . S
C299 C301 1.479 . S
C299 H317 0.929 . S
C300 C297 1.424 . S
C300 C299 1.384 . S
C300 H318 0.928 . S
C301 C298 1.260 . S
C301 C299 1.479 . S
C302 C297 1.245 . S
C302 C298 1.477 . S
C302 H319 0.932 . S
C303 U286 2.882 . S
C303 C297 1.428 . S
C303 O306 1.301 . S
C303 O307 1.282 . S
O304 U286 2.441 . S
O304 C290 1.249 . S
O305 U286 2.420 . S
O305 C290 1.202 . S
O306 U286 2.455 . S
O306 C303 1.301 . S
O307 U286 2.449 . S
O307 C303 1.282 . S
H308 C281 0.931 . S
H309 C283 0.929 . S
H310 C284 0.930 . S
H311 C285 0.931 1_556 S
H312 C292 0.932 . S
H313 C293 0.930 . S
H314 C294 0.929 . S
H315 C296 0.930 . S
H316 C298 0.932 . S
H317 C299 0.929 . S
H318 C300 0.928 . S
H319 C302 0.932 . S
Zn320 O326 1.920 1_455 S
Zn320 O332 1.898 . S
Zn320 O335 1.905 . S
Zn321 O329 1.905 1_655 S
Zn321 O330 1.898 . S
Zn321 O338 1.920 . S
Zn322 O325 2.080 1_455 S
Zn322 O328 2.114 . S
Zn322 O331 2.120 1_455 S
Zn322 O333 2.120 . S
Zn322 O334 2.114 . S
Zn322 O337 2.080 1_455 S
C323 O328 1.166 . S
C323 O329 1.182 . S
C324 O330 1.167 . S
C324 O331 1.299 . S
O325 Zn322 2.080 1_655 S
O325 C339 1.305 . S
O326 Zn320 1.920 1_655 S
O326 C339 1.234 . S
C327 O332 1.167 . S
C327 O333 1.299 . S
O328 Zn322 2.114 . S
O328 C323 1.166 . S
O329 Zn321 1.905 1_455 S
O329 C323 1.182 . S
O330 Zn321 1.898 . S
O330 C324 1.167 . S
O331 Zn322 2.120 1_655 S
O331 C324 1.299 . S
O332 Zn320 1.898 . S
O332 C327 1.167 . S
O333 Zn322 2.120 . S
O333 C327 1.299 . S
O334 Zn322 2.114 . S
O334 C336 1.166 . S
O335 Zn320 1.905 . S
O335 C336 1.182 . S
C336 O334 1.166 . S
C336 O335 1.182 . S
O337 Zn322 2.080 1_655 S
O337 C340 1.305 . S
O338 Zn321 1.920 . S
O338 C340 1.234 . S
C339 O325 1.305 . S
C339 O326 1.234 . S
C340 O337 1.305 . S
C340 O338 1.234 . S
Zn341 O347 1.920 . S
Zn341 O353 1.898 . S
Zn341 O356 1.905 . S
Zn342 O350 1.905 . S
Zn342 O351 1.898 . S
Zn342 O359 1.920 . S
Zn343 O346 2.080 . S
Zn343 O349 2.114 . S
Zn343 O352 2.120 . S
Zn343 O354 2.120 . S
Zn343 O355 2.114 . S
Zn343 O358 2.080 . S
C344 O349 1.166 . S
C344 O350 1.182 . S
C345 O351 1.167 . S
C345 O352 1.299 . S
O346 Zn343 2.080 . S
O346 C360 1.305 . S
O347 Zn341 1.920 . S
O347 C360 1.234 . S
C348 O353 1.167 . S
C348 O354 1.299 . S
O349 Zn343 2.114 . S
O349 C344 1.166 . S
O350 Zn342 1.905 . S
O350 C344 1.182 . S
O351 Zn342 1.898 . S
O351 C345 1.167 . S
O352 Zn343 2.120 . S
O352 C345 1.299 . S
O353 Zn341 1.898 . S
O353 C348 1.167 . S
O354 Zn343 2.120 . S
O354 C348 1.299 . S
O355 Zn343 2.114 . S
O355 C357 1.166 . S
O356 Zn341 1.905 . S
O356 C357 1.182 . S
C357 O355 1.166 . S
C357 O356 1.182 . S
O358 Zn343 2.080 . S
O358 C361 1.305 . S
O359 Zn342 1.920 . S
O359 C361 1.234 . S
C360 O346 1.305 . S
C360 O347 1.234 . S
C361 O358 1.305 . S
C361 O359 1.234 . S
Zn362 O368 1.920 . S
Zn362 O374 1.898 . S
Zn362 O377 1.905 . S
Zn363 O371 1.905 . S
Zn363 O372 1.898 . S
Zn363 O380 1.920 1_655 S
Zn364 O367 2.080 . S
Zn364 O370 2.114 1_455 S
Zn364 O373 2.120 1_455 S
Zn364 O375 2.120 . S
Zn364 O376 2.114 1_455 S
Zn364 O379 2.080 . S
C365 O370 1.166 . S
C365 O371 1.182 . S
C366 O372 1.167 . S
C366 O373 1.299 . S
O367 Zn364 2.080 . S
O367 C381 1.305 . S
O368 Zn362 1.920 . S
O368 C381 1.234 . S
C369 O374 1.167 . S
C369 O375 1.299 . S
O370 Zn364 2.114 1_655 S
O370 C365 1.166 . S
O371 Zn363 1.905 . S
O371 C365 1.182 . S
O372 Zn363 1.898 . S
O372 C366 1.167 . S
O373 Zn364 2.120 1_655 S
O373 C366 1.299 . S
O374 Zn362 1.898 . S
O374 C369 1.167 . S
O375 Zn364 2.120 . S
O375 C369 1.299 . S
O376 Zn364 2.114 1_655 S
O376 C378 1.166 . S
O377 Zn362 1.905 . S
O377 C378 1.182 1_455 S
C378 O376 1.166 . S
C378 O377 1.182 1_655 S
O379 Zn364 2.080 . S
O379 C382 1.305 . S
O380 Zn363 1.920 1_455 S
O380 C382 1.234 . S
C381 O367 1.305 . S
C381 O368 1.234 . S
C382 O379 1.305 . S
C382 O380 1.234 . S
Zn383 O389 1.920 . S
Zn383 O395 1.898 . S
Zn383 O398 1.905 . S
Zn384 O392 1.905 . S
Zn384 O393 1.898 . S
Zn384 O401 1.920 . S
Zn385 O388 2.080 . S
Zn385 O391 2.114 . S
Zn385 O394 2.120 . S
Zn385 O396 2.120 . S
Zn385 O397 2.114 . S
Zn385 O400 2.080 . S
C386 O391 1.166 . S
C386 O392 1.182 . S
C387 O393 1.167 . S
C387 O394 1.299 . S
O388 Zn385 2.080 . S
O388 C402 1.305 . S
O389 Zn383 1.920 . S
O389 C402 1.234 . S
C390 O395 1.167 . S
C390 O396 1.299 . S
O391 Zn385 2.114 . S
O391 C386 1.166 . S
O392 Zn384 1.905 . S
O392 C386 1.182 . S
O393 Zn384 1.898 . S
O393 C387 1.167 . S
O394 Zn385 2.120 . S
O394 C387 1.299 . S
O395 Zn383 1.898 . S
O395 C390 1.167 . S
O396 Zn385 2.120 . S
O396 C390 1.299 . S
O397 Zn385 2.114 . S
O397 C399 1.166 . S
O398 Zn383 1.905 . S
O398 C399 1.182 . S
C399 O397 1.166 . S
C399 O398 1.182 . S
O400 Zn385 2.080 . S
O400 C403 1.305 . S
O401 Zn384 1.920 . S
O401 C403 1.234 . S
C402 O388 1.305 . S
C402 O389 1.234 . S
C403 O400 1.305 . S
C403 O401 1.234 . S
H404 C410 0.930 . S
H405 C413 0.930 . S
H406 C414 0.930 . S
H407 C415 0.930 . S
H408 C418 0.930 . S
H409 C419 0.930 . S
C410 H404 0.930 . S
C410 C411 1.355 . S
C410 C412 1.415 1_565 S
C411 C410 1.355 . S
C411 C413 1.419 1_565 S
C412 C410 1.415 1_545 S
C412 C417 1.425 . S
C412 C419 1.409 . S
C413 H405 0.930 . S
C413 C411 1.419 1_545 S
C413 C414 1.362 . S
C414 H406 0.930 . S
C414 C413 1.362 . S
C414 C417 1.409 . S
C415 H407 0.930 . S
C415 C416 1.355 . S
C415 C417 1.415 . S
C416 C415 1.355 . S
C416 C418 1.419 . S
C417 C412 1.425 . S
C417 C414 1.409 . S
C417 C415 1.415 . S
C418 H408 0.930 . S
C418 C416 1.419 . S
C418 C419 1.362 . S
C419 H409 0.930 . S
C419 C412 1.409 . S
C419 C418 1.362 . S
H420 C426 0.930 . S
H421 C429 0.930 . S
H422 C430 0.930 . S
H423 C431 0.930 . S
H424 C434 0.930 . S
H425 C435 0.930 . S
C426 H420 0.930 . S
C426 C427 1.355 . S
C426 C428 1.415 . S
C427 C426 1.355 . S
C427 C429 1.419 . S
C428 C426 1.415 . S
C428 C433 1.425 . S
C428 C435 1.409 . S
C429 H421 0.930 . S
C429 C427 1.419 . S
C429 C430 1.362 . S
C430 H422 0.930 . S
C430 C429 1.362 . S
C430 C433 1.409 . S
C431 H423 0.930 . S
C431 C432 1.355 . S
C431 C433 1.415 . S
C432 C431 1.355 . S
C432 C434 1.419 . S
C433 C428 1.425 . S
C433 C430 1.409 . S
C433 C431 1.415 . S
C434 H424 0.930 . S
C434 C432 1.419 . S
C434 C435 1.362 . S
C435 H425 0.930 . S
C435 C428 1.409 . S
C435 C434 1.362 . S
H436 C442 0.930 . S
H437 C445 0.930 . S
H438 C446 0.930 . S
H439 C447 0.930 . S
H440 C450 0.930 . S
H441 C451 0.930 . S
C442 H436 0.930 . S
C442 C443 1.355 . S
C442 C444 1.415 . S
C443 C442 1.355 . S
C443 C445 1.419 . S
C444 C442 1.415 . S
C444 C449 1.425 . S
C444 C451 1.409 . S
C445 H437 0.930 . S
C445 C443 1.419 . S
C445 C446 1.362 . S
C446 H438 0.930 . S
C446 C445 1.362 . S
C446 C449 1.409 . S
C447 H439 0.930 . S
C447 C448 1.355 . S
C447 C449 1.415 . S
C448 C447 1.355 . S
C448 C450 1.419 . S
C449 C444 1.425 . S
C449 C446 1.409 . S
C449 C447 1.415 . S
C450 H440 0.930 . S
C450 C448 1.419 . S
C450 C451 1.362 . S
C451 H441 0.930 . S
C451 C444 1.409 . S
C451 C450 1.362 . S
H452 C458 0.930 . S
H453 C461 0.930 . S
H454 C462 0.930 . S
H455 C463 0.930 . S
H456 C466 0.930 . S
H457 C467 0.930 . S
C458 H452 0.930 . S
C458 C459 1.355 . S
C458 C460 1.415 1_565 S
C459 C458 1.355 . S
C459 C461 1.419 . S
C460 C458 1.415 1_545 S
C460 C465 1.425 . S
C460 C467 1.409 . S
C461 H453 0.930 . S
C461 C459 1.419 . S
C461 C462 1.362 1_565 S
C462 H454 0.930 . S
C462 C461 1.362 1_545 S
C462 C465 1.409 . S
C463 H455 0.930 . S
C463 C464 1.355 . S
C463 C465 1.415 . S
C464 C463 1.355 . S
C464 C466 1.419 . S
C465 C460 1.425 . S
C465 C462 1.409 . S
C465 C463 1.415 . S
C466 H456 0.930 . S
C466 C464 1.419 . S
C466 C467 1.362 . S
C467 H457 0.930 . S
C467 C460 1.409 . S
C467 C466 1.362 . S
H468 C474 0.930 . S
H469 C477 0.930 . S
H470 C478 0.931 1_545 S
H471 C479 0.930 . S
H472 C482 0.930 . S
H473 C483 0.930 . S
C474 H468 0.930 . S
C474 C475 1.355 1_565 S
C474 C476 1.415 . S
C475 C474 1.355 1_545 S
C475 C477 1.419 . S
C476 C474 1.415 . S
C476 C481 1.425 . S
C476 C483 1.409 . S
C477 H469 0.930 . S
C477 C475 1.419 . S
C477 C478 1.365 1_545 S
C478 H470 0.931 1_565 S
C478 C477 1.365 1_565 S
C478 C481 1.406 . S
C479 H471 0.930 . S
C479 C480 1.355 . S
C479 C481 1.415 . S
C480 C479 1.355 . S
C480 C482 1.419 . S
C481 C476 1.425 . S
C481 C478 1.406 . S
C481 C479 1.415 . S
C482 H472 0.930 . S
C482 C480 1.419 . S
C482 C483 1.362 . S
C483 H473 0.930 . S
C483 C476 1.409 . S
C483 C482 1.362 . S
H484 C490 0.930 . S
H485 C493 0.930 . S
H486 C494 0.930 . S
H487 C495 0.930 . S
H488 C498 0.930 . S
H489 C499 0.930 . S
C490 H484 0.930 . S
C490 C491 1.355 . S
C490 C492 1.415 . S
C491 C490 1.355 . S
C491 C493 1.419 . S
C492 C490 1.415 . S
C492 C497 1.425 . S
C492 C499 1.409 . S
C493 H485 0.930 . S
C493 C491 1.419 . S
C493 C494 1.362 . S
C494 H486 0.930 . S
C494 C493 1.362 . S
C494 C497 1.409 . S
C495 H487 0.930 . S
C495 C496 1.355 . S
C495 C497 1.415 . S
C496 C495 1.355 . S
C496 C498 1.419 . S
C497 C492 1.425 . S
C497 C494 1.409 . S
C497 C495 1.415 . S
C498 H488 0.930 . S
C498 C496 1.419 . S
C498 C499 1.362 . S
C499 H489 0.930 . S
C499 C492 1.409 . S
C499 C498 1.362 . S
H500 C506 0.930 . S
H501 C509 0.930 . S
H502 C510 0.930 . S
H503 C511 0.930 . S
H504 C514 0.930 . S
H505 C515 0.930 . S
C506 H500 0.930 . S
C506 C507 1.355 . S
C506 C508 1.415 . S
C507 C506 1.355 . S
C507 C509 1.419 . S
C508 C506 1.415 . S
C508 C513 1.425 . S
C508 C515 1.409 . S
C509 H501 0.930 . S
C509 C507 1.419 . S
C509 C510 1.362 . S
C510 H502 0.930 . S
C510 C509 1.362 . S
C510 C513 1.409 . S
C511 H503 0.930 . S
C511 C512 1.355 . S
C511 C513 1.415 . S
C512 C511 1.355 . S
C512 C514 1.419 . S
C513 C508 1.425 . S
C513 C510 1.409 . S
C513 C511 1.415 . S
C514 H504 0.930 . S
C514 C512 1.419 . S
C514 C515 1.362 . S
C515 H505 0.930 . S
C515 C508 1.409 . S
C515 C514 1.362 . S
H516 C522 0.930 . S
H517 C525 0.930 . S
H518 C526 0.930 . S
H519 C527 0.930 . S
H520 C530 0.930 . S
H521 C531 0.930 . S
C522 H516 0.930 . S
C522 C523 1.355 . S
C522 C524 1.415 1_545 S
C523 C522 1.355 . S
C523 C525 1.419 . S
C524 C522 1.415 1_565 S
C524 C529 1.425 . S
C524 C531 1.409 . S
C525 H517 0.930 . S
C525 C523 1.419 . S
C525 C526 1.362 1_545 S
C526 H518 0.930 . S
C526 C525 1.362 1_565 S
C526 C529 1.409 . S
C527 H519 0.930 . S
C527 C528 1.355 . S
C527 C529 1.415 . S
C528 C527 1.355 . S
C528 C530 1.419 . S
C529 C524 1.425 . S
C529 C526 1.409 . S
C529 C527 1.415 . S
C530 H520 0.930 . S
C530 C528 1.419 . S
C530 C531 1.362 . S
C531 H521 0.930 . S
C531 C524 1.409 . S
C531 C530 1.362 . S
H532 C538 0.930 . S
H533 C541 0.930 . S
H534 C542 0.930 . S
H535 C543 0.930 . S
H536 C546 0.930 . S
H537 C547 0.930 . S
C538 H532 0.930 . S
C538 C539 1.355 . S
C538 C540 1.415 . S
C539 C538 1.355 . S
C539 C541 1.419 . S
C540 C538 1.415 . S
C540 C545 1.425 . S
C540 C547 1.409 . S
C541 H533 0.930 . S
C541 C539 1.419 . S
C541 C542 1.362 . S
C542 H534 0.930 . S
C542 C541 1.362 . S
C542 C545 1.409 . S
C543 H535 0.930 . S
C543 C544 1.355 . S
C543 C545 1.415 . S
C544 C543 1.355 . S
C544 C546 1.419 . S
C545 C540 1.425 . S
C545 C542 1.409 . S
C545 C543 1.415 . S
C546 H536 0.930 . S
C546 C544 1.419 . S
C546 C547 1.362 . S
C547 H537 0.930 . S
C547 C540 1.409 . S
C547 C546 1.362 . S
H548 C554 0.930 . S
H549 C557 0.930 . S
H550 C558 0.930 . S
H551 C559 0.930 . S
H552 C562 0.930 . S
H553 C563 0.930 . S
C554 H548 0.930 . S
C554 C555 1.355 . S
C554 C556 1.415 . S
C555 C554 1.355 . S
C555 C557 1.419 . S
C556 C554 1.415 . S
C556 C561 1.425 . S
C556 C563 1.409 . S
C557 H549 0.930 . S
C557 C555 1.419 . S
C557 C558 1.362 . S
C558 H550 0.930 . S
C558 C557 1.362 . S
C558 C561 1.409 . S
C559 H551 0.930 . S
C559 C560 1.355 . S
C559 C561 1.415 . S
C560 C559 1.355 . S
C560 C562 1.419 . S
C561 C556 1.425 . S
C561 C558 1.409 . S
C561 C559 1.415 . S
C562 H552 0.930 . S
C562 C560 1.419 . S
C562 C563 1.362 . S
C563 H553 0.930 . S
C563 C556 1.409 . S
C563 C562 1.362 . S
H564 C570 0.930 . S
H565 C573 0.930 . S
H566 C574 0.930 . S
H567 C575 0.930 . S
H568 C578 0.930 . S
H569 C579 0.930 . S
C570 H564 0.930 . S
C570 C571 1.355 . S
C570 C572 1.415 . S
C571 C570 1.355 . S
C571 C573 1.419 . S
C572 C570 1.415 . S
C572 C577 1.425 . S
C572 C579 1.409 . S
C573 H565 0.930 . S
C573 C571 1.419 . S
C573 C574 1.362 . S
C574 H566 0.930 . S
C574 C573 1.362 . S
C574 C577 1.409 . S
C575 H567 0.930 . S
C575 C576 1.355 . S
C575 C577 1.415 . S
C576 C575 1.355 . S
C576 C578 1.419 . S
C577 C572 1.425 . S
C577 C574 1.409 . S
C577 C575 1.415 . S
C578 H568 0.930 . S
C578 C576 1.419 . S
C578 C579 1.362 . S
C579 H569 0.930 . S
C579 C572 1.409 . S
C579 C578 1.362 . S
H580 C586 0.930 . S
H581 C589 0.930 . S
H582 C590 0.930 . S
H583 C591 0.930 . S
H584 C594 0.930 . S
H585 C595 0.930 . S
C586 H580 0.930 . S
C586 C587 1.355 . S
C586 C588 1.415 . S
C587 C586 1.355 . S
C587 C589 1.419 . S
C588 C586 1.415 . S
C588 C593 1.425 . S
C588 C595 1.409 . S
C589 H581 0.930 . S
C589 C587 1.419 . S
C589 C590 1.362 . S
C590 H582 0.930 . S
C590 C589 1.362 . S
C590 C593 1.409 . S
C591 H583 0.930 . S
C591 C592 1.355 . S
C591 C593 1.415 . S
C592 C591 1.355 . S
C592 C594 1.419 . S
C593 C588 1.425 . S
C593 C590 1.409 . S
C593 C591 1.415 . S
C594 H584 0.930 . S
C594 C592 1.419 . S
C594 C595 1.362 . S
C595 H585 0.930 . S
C595 C588 1.409 . S
C595 C594 1.362 . S
H596 C602 0.930 . S
H597 C605 0.930 . S
H598 C606 0.930 . S
H599 C607 0.930 . S
H600 C610 0.930 . S
H601 C611 0.930 . S
C602 H596 0.930 . S
C602 C603 1.355 . S
C602 C604 1.415 . S
C603 C602 1.355 . S
C603 C605 1.419 . S
C604 C602 1.415 . S
C604 C609 1.425 . S
C604 C611 1.409 . S
C605 H597 0.930 . S
C605 C603 1.419 . S
C605 C606 1.362 . S
C606 H598 0.930 . S
C606 C605 1.362 . S
C606 C609 1.409 . S
C607 H599 0.930 . S
C607 C608 1.355 . S
C607 C609 1.415 . S
C608 C607 1.355 . S
C608 C610 1.419 . S
C609 C604 1.425 . S
C609 C606 1.409 . S
C609 C607 1.415 . S
C610 H600 0.930 . S
C610 C608 1.419 . S
C610 C611 1.362 . S
C611 H601 0.930 . S
C611 C604 1.409 . S
C611 C610 1.362 . S
H612 C618 0.930 . S
H613 C621 0.930 . S
H614 C622 0.930 . S
H615 C623 0.930 . S
H616 C626 0.930 . S
H617 C627 0.930 . S
C618 H612 0.930 . S
C618 C619 1.355 . S
C618 C620 1.415 . S
C619 C618 1.355 . S
C619 C621 1.419 . S
C620 C618 1.415 . S
C620 C625 1.425 . S
C620 C627 1.409 . S
C621 H613 0.930 . S
C621 C619 1.419 . S
C621 C622 1.362 . S
C622 H614 0.930 . S
C622 C621 1.362 . S
C622 C625 1.409 . S
C623 H615 0.930 . S
C623 C624 1.355 . S
C623 C625 1.415 . S
C624 C623 1.355 . S
C624 C626 1.419 . S
C625 C620 1.425 . S
C625 C622 1.409 . S
C625 C623 1.415 . S
C626 H616 0.930 . S
C626 C624 1.419 . S
C626 C627 1.362 . S
C627 H617 0.930 . S
C627 C620 1.409 . S
C627 C626 1.362 . S
H628 C634 0.930 . S
H629 C637 0.930 . S
H630 C638 0.930 . S
H631 C639 0.930 . S
H632 C642 0.930 . S
H633 C643 0.930 . S
C634 H628 0.930 . S
C634 C635 1.355 . S
C634 C636 1.415 . S
C635 C634 1.355 . S
C635 C637 1.419 . S
C636 C634 1.415 . S
C636 C641 1.425 . S
C636 C643 1.409 . S
C637 H629 0.930 . S
C637 C635 1.419 . S
C637 C638 1.362 . S
C638 H630 0.930 . S
C638 C637 1.362 . S
C638 C641 1.409 . S
C639 H631 0.930 . S
C639 C640 1.355 . S
C639 C641 1.415 . S
C640 C639 1.355 . S
C640 C642 1.419 . S
C641 C636 1.425 . S
C641 C638 1.409 . S
C641 C639 1.415 . S
C642 H632 0.930 . S
C642 C640 1.419 . S
C642 C643 1.362 . S
C643 H633 0.930 . S
C643 C636 1.409 . S
C643 C642 1.362 . S
H644 C650 0.930 . S
H645 C653 0.930 . S
H646 C654 0.930 . S
H647 C655 0.930 . S
H648 C658 0.930 . S
H649 C659 0.930 . S
C650 H644 0.930 . S
C650 C651 1.355 . S
C650 C652 1.415 . S
C651 C650 1.355 . S
C651 C653 1.419 . S
C652 C650 1.415 . S
C652 C657 1.425 . S
C652 C659 1.409 . S
C653 H645 0.930 . S
C653 C651 1.419 . S
C653 C654 1.362 . S
C654 H646 0.930 . S
C654 C653 1.362 . S
C654 C657 1.409 . S
C655 H647 0.930 . S
C655 C656 1.355 . S
C655 C657 1.415 . S
C656 C655 1.355 . S
C656 C658 1.419 . S
C657 C652 1.425 . S
C657 C654 1.409 . S
C657 C655 1.415 . S
C658 H648 0.930 . S
C658 C656 1.419 . S
C658 C659 1.362 . S
C659 H649 0.930 . S
C659 C652 1.409 . S
C659 C658 1.362 . S
H660 C666 0.930 . S
H661 C669 0.930 . S
H662 C670 0.930 . S
H663 C671 0.930 . S
H664 C674 0.930 . S
H665 C675 0.930 . S
C666 H660 0.930 . S
C666 C667 1.355 . S
C666 C668 1.415 . S
C667 C666 1.355 . S
C667 C669 1.419 . S
C668 C666 1.415 . S
C668 C673 1.425 . S
C668 C675 1.409 . S
C669 H661 0.930 . S
C669 C667 1.419 . S
C669 C670 1.362 . S
C670 H662 0.930 . S
C670 C669 1.362 . S
C670 C673 1.409 . S
C671 H663 0.930 . S
C671 C672 1.355 . S
C671 C673 1.415 . S
C672 C671 1.355 . S
C672 C674 1.419 . S
C673 C668 1.425 . S
C673 C670 1.409 . S
C673 C671 1.415 . S
C674 H664 0.930 . S
C674 C672 1.419 . S
C674 C675 1.362 . S
C675 H665 0.930 . S
C675 C668 1.409 . S
C675 C674 1.362 . S
H676 C682 0.930 . S
H677 C685 0.930 . S
H678 C686 0.930 . S
H679 C687 0.930 . S
H680 C690 0.930 . S
H681 C691 0.930 . S
C682 H676 0.930 . S
C682 C683 1.355 . S
C682 C684 1.415 . S
C683 C682 1.355 . S
C683 C685 1.419 . S
C684 C682 1.415 . S
C684 C689 1.425 . S
C684 C691 1.409 . S
C685 H677 0.930 . S
C685 C683 1.419 . S
C685 C686 1.362 . S
C686 H678 0.930 . S
C686 C685 1.362 . S
C686 C689 1.409 . S
C687 H679 0.930 . S
C687 C688 1.355 . S
C687 C689 1.415 . S
C688 C687 1.355 . S
C688 C690 1.419 . S
C689 C684 1.425 . S
C689 C686 1.409 . S
C689 C687 1.415 . S
C690 H680 0.930 . S
C690 C688 1.419 . S
C690 C691 1.362 . S
C691 H681 0.930 . S
C691 C684 1.409 . S
C691 C690 1.362 . S
H692 C698 0.930 . S
H693 C701 0.930 . S
H694 C702 0.930 . S
H695 C703 0.930 . S
H696 C706 0.930 . S
H697 C707 0.930 . S
C698 H692 0.930 . S
C698 C699 1.355 . S
C698 C700 1.415 . S
C699 C698 1.355 . S
C699 C701 1.419 . S
C700 C698 1.415 . S
C700 C705 1.425 . S
C700 C707 1.409 . S
C701 H693 0.930 . S
C701 C699 1.419 . S
C701 C702 1.362 . S
C702 H694 0.930 . S
C702 C701 1.362 . S
C702 C705 1.409 . S
C703 H695 0.930 . S
C703 C704 1.355 . S
C703 C705 1.415 . S
C704 C703 1.355 . S
C704 C706 1.419 . S
C705 C700 1.425 . S
C705 C702 1.409 . S
C705 C703 1.415 . S
C706 H696 0.930 . S
C706 C704 1.419 . S
C706 C707 1.362 . S
C707 H697 0.930 . S
C707 C700 1.409 . S
C707 C706 1.362 . S
H708 C714 0.930 . S
H709 C717 0.930 . S
H710 C718 0.930 . S
H711 C719 0.930 . S
H712 C722 0.930 . S
H713 C723 0.930 . S
C714 H708 0.930 . S
C714 C715 1.355 . S
C714 C716 1.415 . S
C715 C714 1.355 . S
C715 C717 1.419 . S
C716 C714 1.415 . S
C716 C721 1.425 . S
C716 C723 1.409 . S
C717 H709 0.930 . S
C717 C715 1.419 . S
C717 C718 1.362 . S
C718 H710 0.930 . S
C718 C717 1.362 . S
C718 C721 1.409 . S
C719 H711 0.930 . S
C719 C720 1.355 . S
C719 C721 1.415 . S
C720 C719 1.355 . S
C720 C722 1.419 . S
C721 C716 1.425 . S
C721 C718 1.409 . S
C721 C719 1.415 . S
C722 H712 0.930 . S
C722 C720 1.419 . S
C722 C723 1.362 . S
C723 H713 0.930 . S
C723 C716 1.409 . S
C723 C722 1.362 . S
H724 C730 0.930 . S
H725 C733 0.930 . S
H726 C734 0.930 . S
H727 C735 0.930 . S
H728 C738 0.930 . S
H729 C739 0.930 . S
C730 H724 0.930 . S
C730 C731 1.355 . S
C730 C732 1.415 . S
C731 C730 1.355 . S
C731 C733 1.419 . S
C732 C730 1.415 . S
C732 C737 1.425 . S
C732 C739 1.409 . S
C733 H725 0.930 . S
C733 C731 1.419 . S
C733 C734 1.362 . S
C734 H726 0.930 . S
C734 C733 1.362 . S
C734 C737 1.409 . S
C735 H727 0.930 . S
C735 C736 1.355 . S
C735 C737 1.415 . S
C736 C735 1.355 . S
C736 C738 1.419 . S
C737 C732 1.425 . S
C737 C734 1.409 . S
C737 C735 1.415 . S
C738 H728 0.930 . S
C738 C736 1.419 . S
C738 C739 1.362 . S
C739 H729 0.930 . S
C739 C732 1.409 . S
C739 C738 1.362 . S
H740 C746 0.930 . S
H741 C749 0.930 . S
H742 C750 0.930 . S
H743 C751 0.930 . S
H744 C754 0.930 . S
H745 C755 0.930 . S
C746 H740 0.930 . S
C746 C747 1.355 . S
C746 C748 1.415 . S
C747 C746 1.355 . S
C747 C749 1.419 . S
C748 C746 1.415 . S
C748 C753 1.425 . S
C748 C755 1.409 . S
C749 H741 0.930 . S
C749 C747 1.419 . S
C749 C750 1.362 . S
C750 H742 0.930 . S
C750 C749 1.362 . S
C750 C753 1.409 . S
C751 H743 0.930 . S
C751 C752 1.355 . S
C751 C753 1.415 . S
C752 C751 1.355 . S
C752 C754 1.419 . S
C753 C748 1.425 . S
C753 C750 1.409 . S
C753 C751 1.415 . S
C754 H744 0.930 . S
C754 C752 1.419 . S
C754 C755 1.362 . S
C755 H745 0.930 . S
C755 C748 1.409 . S
C755 C754 1.362 . S
H756 C762 0.930 . S
H757 C765 0.930 . S
H758 C766 0.930 . S
H759 C767 0.930 . S
H760 C770 0.930 . S
H761 C771 0.930 . S
C762 H756 0.930 . S
C762 C763 1.355 . S
C762 C764 1.415 . S
C763 C762 1.355 . S
C763 C765 1.419 . S
C764 C762 1.415 . S
C764 C769 1.425 . S
C764 C771 1.409 . S
C765 H757 0.930 . S
C765 C763 1.419 . S
C765 C766 1.362 . S
C766 H758 0.930 . S
C766 C765 1.362 . S
C766 C769 1.409 . S
C767 H759 0.930 . S
C767 C768 1.355 . S
C767 C769 1.415 . S
C768 C767 1.355 . S
C768 C770 1.419 . S
C769 C764 1.425 . S
C769 C766 1.409 . S
C769 C767 1.415 . S
C770 H760 0.930 . S
C770 C768 1.419 . S
C770 C771 1.362 . S
C771 H761 0.930 . S
C771 C764 1.409 . S
C771 C770 1.362 . S
H772 C778 0.930 . S
H773 C781 0.930 . S
H774 C782 0.930 . S
H775 C783 0.930 . S
H776 C786 0.930 . S
H777 C787 0.930 . S
C778 H772 0.930 . S
C778 C779 1.355 . S
C778 C780 1.415 . S
C779 C778 1.355 . S
C779 C781 1.419 . S
C780 C778 1.415 . S
C780 C785 1.425 . S
C780 C787 1.409 . S
C781 H773 0.930 . S
C781 C779 1.419 . S
C781 C782 1.362 . S
C782 H774 0.930 . S
C782 C781 1.362 . S
C782 C785 1.409 . S
C783 H775 0.930 . S
C783 C784 1.355 . S
C783 C785 1.415 . S
C784 C783 1.355 . S
C784 C786 1.419 . S
C785 C780 1.425 . S
C785 C782 1.409 . S
C785 C783 1.415 . S
C786 H776 0.930 . S
C786 C784 1.419 . S
C786 C787 1.362 . S
C787 H777 0.930 . S
C787 C780 1.409 . S
C787 C786 1.362 . S
C411 C242 1.486 . S
C416 C336 1.428 . S
C432 C344 1.442 . S
C427 C301 1.479 . S
C448 C348 1.401 . S
C443 C162 1.471 . S
C459 C221 1.473 . S
C464 C324 1.409 . S
C480 C365 1.384 . S
C475 C82 1.470 . S
C496 C399 1.453 . S
C491 C141 1.455 . S
C507 C2 1.448 . S
C512 C387 1.370 . S
C523 C61 1.445 . S
C528 C369 1.444 . S
C544 C323 1.271 . S
C539 C42 1.491 . S
C560 C357 1.386 . S
C555 C21 1.448 . S
C576 C361 1.346 . S
C571 C122 1.476 . S
C592 C339 1.390 . S
C587 C101 1.433 . S
C608 C378 1.272 . S
C603 C202 1.453 . S
C619 C181 1.466 . S
C624 C386 1.325 . S
C640 C402 1.383 . S
C635 C282 1.475 . S
C651 C261 1.445 . S
C656 C382 1.375 . S
C672 C327 1.298 . S
C667 C15 1.491 . S
C688 C345 1.362 . S
C683 C55 1.501 . S
C699 C95 1.479 . S
C704 C360 1.275 . S
C720 C340 1.327 . S
C715 C135 1.498 . S
C736 C366 1.278 . S
C731 C175 1.495 . S
C747 C215 1.498 . S
C752 C390 1.370 . S
C763 C255 1.490 . S
C768 C403 1.370 . S
C779 C295 1.499 . S
C784 C381 1.293 . S
