# Generated by pormake.
# Topology zzz, (3,6)-cn, num edge types: 1
# Building blocks:
#     Node 0, Type 0, BuildingBlock: WUSLED_clean_sbu_0, # of connection points: 3
#     Node 1, Type 0, BuildingBlock: WUSLED_clean_sbu_0, # of connection points: 3
#     Node 2, Type 0, BuildingBlock: WUSLED_clean_sbu_0, # of connection points: 3
#     Node 3, Type 0, BuildingBlock: WUSLED_clean_sbu_0, # of connection points: 3
#     Node 4, Type 0, BuildingBlock: WUSLED_clean_sbu_0, # of connection points: 3
#     Node 5, Type 0, BuildingBlock: WUSLED_clean_sbu_0, # of connection points: 3
#     Node 6, Type 0, BuildingBlock: WUSLED_clean_sbu_0, # of connection points: 3
#     Node 7, Type 0, BuildingBlock: WUSLED_clean_sbu_0, # of connection points: 3
#     Node 8, Type 1, BuildingBlock: BETDEL_clean_sbu_0, # of connection points: 6
#     Node 9, Type 1, BuildingBlock: BETDEL_clean_sbu_0, # of connection points: 6
#     Node 10, Type 1, BuildingBlock: BETDEL_clean_sbu_0, # of connection points: 6
#     Node 11, Type 1, BuildingBlock: BETDEL_clean_sbu_0, # of connection points: 6
#     Edge 12, Type (0, 1), BuildingBlock: XIVTED_clean_linker_0, # of connection points: 2
#     Edge 13, Type (0, 1), BuildingBlock: XIVTED_clean_linker_0, # of connection points: 2
#     Edge 14, Type (0, 1), BuildingBlock: XIVTED_clean_linker_0, # of connection points: 2
#     Edge 15, Type (0, 1), BuildingBlock: XIVTED_clean_linker_0, # of connection points: 2
#     Edge 16, Type (0, 1), BuildingBlock: XIVTED_clean_linker_0, # of connection points: 2
#     Edge 17, Type (0, 1), BuildingBlock: XIVTED_clean_linker_0, # of connection points: 2
#     Edge 18, Type (0, 1), BuildingBlock: XIVTED_clean_linker_0, # of connection points: 2
#     Edge 19, Type (0, 1), BuildingBlock: XIVTED_clean_linker_0, # of connection points: 2
#     Edge 20, Type (0, 1), BuildingBlock: XIVTED_clean_linker_0, # of connection points: 2
#     Edge 21, Type (0, 1), BuildingBlock: XIVTED_clean_linker_0, # of connection points: 2
#     Edge 22, Type (0, 1), BuildingBlock: XIVTED_clean_linker_0, # of connection points: 2
#     Edge 23, Type (0, 1), BuildingBlock: XIVTED_clean_linker_0, # of connection points: 2
#     Edge 24, Type (0, 1), BuildingBlock: XIVTED_clean_linker_0, # of connection points: 2
#     Edge 25, Type (0, 1), BuildingBlock: XIVTED_clean_linker_0, # of connection points: 2
#     Edge 26, Type (0, 1), BuildingBlock: XIVTED_clean_linker_0, # of connection points: 2
#     Edge 27, Type (0, 1), BuildingBlock: XIVTED_clean_linker_0, # of connection points: 2
#     Edge 28, Type (0, 1), BuildingBlock: XIVTED_clean_linker_0, # of connection points: 2
#     Edge 29, Type (0, 1), BuildingBlock: XIVTED_clean_linker_0, # of connection points: 2
#     Edge 30, Type (0, 1), BuildingBlock: XIVTED_clean_linker_0, # of connection points: 2
#     Edge 31, Type (0, 1), BuildingBlock: XIVTED_clean_linker_0, # of connection points: 2
#     Edge 32, Type (0, 1), BuildingBlock: XIVTED_clean_linker_0, # of connection points: 2
#     Edge 33, Type (0, 1), BuildingBlock: XIVTED_clean_linker_0, # of connection points: 2
#     Edge 34, Type (0, 1), BuildingBlock: XIVTED_clean_linker_0, # of connection points: 2
#     Edge 35, Type (0, 1), BuildingBlock: XIVTED_clean_linker_0, # of connection points: 2
# Relax obj value: 0.314
# Max RMSD: 0.219
# Mean RMSD: 0.203
data_MOF--net-zzz--node1-WUSLED_clean_sbu_0--node2-BETDEL_clean_sbu_0--edge1-XIVTED_clean_linker_0
_symmetry_space_group_name_H-M    P1
_symmetry_Int_Tables_number       1
_symmetry_cell_setting            triclinic
loop_
_symmetry_equiv_pos_as_xyz
'x, y, z'
_cell_length_a     61.656719
_cell_length_b     61.258828
_cell_length_c     21.498797
_cell_angle_alpha  91.29815
_cell_angle_beta   89.344225
_cell_angle_gamma 96.075997
loop_
_atom_site_label
_atom_site_type_symbol
_atom_site_fract_x
_atom_site_fract_y
_atom_site_fract_z
_atom_type_partial_charge
C0 C 0.7865 0.4844 0.20745 0.0
C1 C 0.80605 0.48925 0.17398 0.0
C2 C 0.8272 0.4839 0.26679 0.0
C3 C 0.82619 0.48883 0.20321 0.0
C4 C 0.8075 0.47877 0.29966 0.0
C5 C 0.78744 0.47894 0.27023 0.0
U6 U 0.74333 0.47758 0.07623 0.0
O7 O 0.72073 0.50163 0.05409 0.0
O8 O 0.70785 0.46875 0.08422 0.0
C9 C 0.70335 0.48765 0.06255 0.0
C10 C 0.76498 0.48637 0.17996 0.0
C11 C 0.68724 0.48661 0.01244 0.0
C12 C 0.65263 0.4964 0.9753 0.0
C13 C 0.66782 0.49608 0.02285 0.0
C14 C 0.67608 0.47756 0.90597 0.0
C15 C 0.65654 0.48718 0.91616 0.0
C16 C 0.69134 0.47729 0.95376 0.0
C17 C 0.78502 0.45322 0.97123 0.0
C18 C 0.8124 0.44358 0.89696 0.0
C19 C 0.82253 0.45308 0.00366 0.0
C20 C 0.80082 0.45582 0.01792 0.0
C21 C 0.82859 0.44743 0.94264 0.0
C22 C 0.79077 0.44657 0.91117 0.0
C23 C 0.7631 0.45953 0.98286 0.0
O24 O 0.7644 0.50048 0.135 0.0
O25 O 0.75235 0.46797 0.17 0.0
O26 O 0.75131 0.44802 0.02442 0.0
O27 O 0.7622 0.48079 0.98926 0.0
H28 H 0.8058 0.49375 0.1256 0.0
H29 H 0.84095 0.49253 0.17597 0.0
H30 H 0.80748 0.4753 0.34881 0.0
H31 H 0.77256 0.47538 0.29712 0.0
H32 H 0.638 0.50431 0.98464 0.0
H33 H 0.66451 0.50354 0.06769 0.0
H34 H 0.67953 0.47012 0.86127 0.0
H35 H 0.70636 0.46999 0.94487 0.0
H36 H 0.81664 0.43948 0.84939 0.0
H37 H 0.83467 0.45597 0.0398 0.0
H38 H 0.79646 0.46071 0.06468 0.0
H39 H 0.77871 0.44457 0.87464 0.0
C40 C 0.95623 0.76981 0.26024 0.0
C41 C 0.96434 0.78749 0.22323 0.0
C42 C 0.96066 0.81316 0.30997 0.0
C43 C 0.96659 0.80892 0.24783 0.0
C44 C 0.95194 0.79537 0.34633 0.0
C45 C 0.94982 0.77389 0.32169 0.0
U46 U 0.96106 0.7339 0.11978 0.0
O47 O 0.97809 0.70445 0.10583 0.0
O48 O 0.94309 0.70297 0.08584 0.0
C49 C 0.96081 0.6927 0.08288 0.0
C50 C 0.95517 0.74722 0.23471 0.0
C51 C 0.9644 0.67931 0.02599 0.0
C52 C 0.95046 0.65847 0.93422 0.0
C53 C 0.94748 0.67322 0.98362 0.0
C54 C 0.98738 0.65587 0.968 0.0
C55 C 0.97033 0.64932 0.92655 0.0
C56 C 0.98443 0.67059 0.01715 0.0
C57 C 0.97316 0.77543 0.97954 0.0
C58 C 1.00002 0.79617 0.91435 0.0
C59 C 0.96188 0.80189 0.90746 0.0
C60 C 0.95664 0.78562 0.95102 0.0
C61 C 0.98378 0.80827 0.89149 0.0
C62 C 0.99477 0.77996 0.95833 0.0
C63 C 0.96856 0.76573 0.04095 0.0
O64 O 0.93891 0.7415 0.19666 0.0
O65 O 0.9739 0.74156 0.21355 0.0
O66 O 0.98421 0.75741 0.07064 0.0
O67 O 0.94885 0.75629 0.05315 0.0
H68 H 0.96936 0.78466 0.17554 0.0
H69 H 0.97362 0.82204 0.21858 0.0
H70 H 0.94682 0.79801 0.394 0.0
H71 H 0.9434 0.76046 0.35081 0.0
H72 H 0.93694 0.65361 0.90342 0.0
H73 H 0.93173 0.67936 0.98949 0.0
H74 H 0.003 0.6494 0.96291 0.0
H75 H 0.99773 0.67471 0.04924 0.0
H76 H 0.01698 0.80031 0.9017 0.0
H77 H 0.9489 0.81084 0.89116 0.0
H78 H 0.93986 0.78265 0.96684 0.0
H79 H 0.0079 0.77239 0.97945 0.0
C80 C 0.71681 0.98865 0.1995 0.0
C81 C 0.7037 0.0055 0.18775 0.0
C82 C 0.67482 0.98816 0.25495 0.0
C83 C 0.68289 0.00527 0.21534 0.0
C84 C 0.68804 0.9713 0.26583 0.0
C85 C 0.70872 0.97156 0.23845 0.0
U86 U 0.76423 0.99652 0.07638 0.0
O87 O 0.79871 0.00837 0.09297 0.0
O88 O 0.78971 0.97427 0.06249 0.0
C89 C 0.80564 0.98984 0.07314 0.0
C90 C 0.73941 0.98873 0.17547 0.0
C91 C 0.823 0.99178 0.02525 0.0
C92 C 0.85964 0.98537 0.99198 0.0
C93 C 0.84317 0.98428 0.03749 0.0
C94 C 0.83596 0.0016 0.92119 0.0
C95 C 0.85628 0.99401 0.93311 0.0
C96 C 0.81947 0.00047 0.9668 0.0
C97 C 0.72716 0.01609 0.94824 0.0
C98 C 0.70399 0.01571 0.8579 0.0
C99 C 0.69535 0.03637 0.95077 0.0
C100 C 0.71354 0.02959 0.98032 0.0
C101 C 0.6906 0.02976 0.88884 0.0
C102 C 0.7221 0.00903 0.88726 0.0
C103 C 0.74758 0.01025 0.97461 0.0
O104 O 0.7428 0.97361 0.13318 0.0
O105 O 0.75053 0.00787 0.16502 0.0
O106 O 0.75688 0.02359 0.01762 0.0
O107 O 0.74842 0.98936 0.98589 0.0
H108 H 0.70957 0.01888 0.15783 0.0
H109 H 0.67309 0.01841 0.2054 0.0
H110 H 0.68265 0.95808 0.29681 0.0
H111 H 0.71861 0.95851 0.24867 0.0
H112 H 0.87489 0.97904 0.00266 0.0
H113 H 0.84613 0.97738 0.08219 0.0
H114 H 0.83283 0.00861 0.87681 0.0
H115 H 0.80395 0.0063 0.95641 0.0
H116 H 0.70048 0.00985 0.8108 0.0
H117 H 0.68534 0.04719 0.97581 0.0
H118 H 0.71716 0.03522 0.02757 0.0
H119 H 0.73241 0.99859 0.86182 0.0
C120 C 0.5514 0.72709 0.239 0.0
C121 C 0.53472 0.71064 0.22183 0.0
C122 C 0.55031 0.68424 0.28677 0.0
C123 C 0.53424 0.68945 0.24526 0.0
C124 C 0.56725 0.70059 0.30264 0.0
C125 C 0.56775 0.72175 0.27912 0.0
U126 U 0.55249 0.77111 0.11357 0.0
O127 O 0.53354 0.79949 0.11181 0.0
O128 O 0.5693 0.8047 0.11154 0.0
C129 C 0.55097 0.81361 0.10538 0.0
C130 C 0.55138 0.75008 0.21882 0.0
C131 C 0.55023 0.82858 0.05306 0.0
C132 C 0.54939 0.86557 0.0155 0.0
C133 C 0.55139 0.85126 0.06445 0.0
C134 C 0.54535 0.8346 0.94293 0.0
C135 C 0.54611 0.8574 0.9542 0.0
C136 C 0.54743 0.82032 0.99191 0.0
C137 C 0.5547 0.72371 0.9981 0.0
C138 C 0.56028 0.69436 0.92431 0.0
C139 C 0.54728 0.68574 0.02873 0.0
C140 C 0.5482 0.70815 0.04336 0.0
C141 C 0.55307 0.67864 0.96877 0.0
C142 C 0.56104 0.71674 0.9389 0.0
C143 C 0.55433 0.7472 0.01154 0.0
O144 O 0.56959 0.75917 0.19362 0.0
O145 O 0.53381 0.75497 0.19041 0.0
O146 O 0.53597 0.75275 0.03575 0.0
O147 O 0.57177 0.75693 0.03914 0.0
H148 H 0.52178 0.71419 0.19122 0.0
H149 H 0.52082 0.67739 0.23252 0.0
H150 H 0.58008 0.6971 0.33373 0.0
H151 H 0.58075 0.7341 0.29322 0.0
H152 H 0.5498 0.88298 0.02598 0.0
H153 H 0.55346 0.8579 0.11141 0.0
H154 H 0.54313 0.82778 0.89623 0.0
H155 H 0.54654 0.80281 0.98225 0.0
H156 H 0.56457 0.68938 0.87749 0.0
H157 H 0.54184 0.67399 0.06399 0.0
H158 H 0.54345 0.71337 0.0895 0.0
H159 H 0.56614 0.72859 0.90355 0.0
C160 C 0.23191 0.52311 0.91779 0.0
C161 C 0.21334 0.52119 0.95653 0.0
C162 C 0.1898 0.52081 0.86573 0.0
C163 C 0.19244 0.52007 0.9307 0.0
C164 C 0.20858 0.52288 0.82756 0.0
C165 C 0.22935 0.52408 0.85336 0.0
U166 U 0.27584 0.53049 0.04644 0.0
O167 O 0.30213 0.50942 0.05788 0.0
O168 O 0.31021 0.54442 0.03947 0.0
C169 C 0.31754 0.52587 0.05457 0.0
C170 C 0.25411 0.52315 0.94232 0.0
C171 C 0.33333 0.52724 0.10559 0.0
C172 C 0.36929 0.52147 0.14257 0.0
C173 C 0.35449 0.52176 0.09389 0.0
C174 C 0.34199 0.53251 0.21532 0.0
C175 C 0.36317 0.52662 0.20401 0.0
C176 C 0.32717 0.53276 0.16651 0.0
C177 C 0.2322 0.54379 0.16522 0.0
C178 C 0.20345 0.53774 0.24231 0.0
C179 C 0.19527 0.55084 0.1404 0.0
C180 C 0.21719 0.55065 0.12298 0.0
C181 C 0.18826 0.5439 0.19975 0.0
C182 C 0.22528 0.53778 0.2252 0.0
C183 C 0.25474 0.54116 0.14711 0.0
O184 O 0.26431 0.5424 0.95796 0.0
O185 O 0.25705 0.5077 0.98187 0.0
O186 O 0.25836 0.5209 0.13266 0.0
O187 O 0.2644 0.55579 0.10925 0.0
H188 H 0.215 0.5203 0.00648 0.0
H189 H 0.17839 0.5187 0.96159 0.0
H190 H 0.20729 0.52304 0.7774 0.0
H191 H 0.24348 0.52537 0.82269 0.0
H192 H 0.38555 0.51719 0.13202 0.0
H193 H 0.35948 0.51741 0.04714 0.0
H194 H 0.33665 0.53634 0.2621 0.0
H195 H 0.3108 0.53687 0.17643 0.0
H196 H 0.19829 0.53241 0.28839 0.0
H197 H 0.18368 0.5555 0.10693 0.0
H198 H 0.22228 0.55526 0.07627 0.0
H199 H 0.23666 0.53243 0.25825 0.0
C200 C 0.06642 0.23386 0.8786 0.0
C201 C 0.07131 0.21629 0.9149 0.0
C202 C 0.0629 0.19068 0.82788 0.0
C203 C 0.06967 0.19494 0.88971 0.0
C204 C 0.0582 0.20844 0.79163 0.0
C205 C 0.05996 0.22981 0.8168 0.0
U206 U 0.064 0.27154 0.02005 0.0
O207 O 0.08237 0.30335 0.04481 0.0
O208 O 0.04691 0.30103 0.03165 0.0
C209 C 0.06458 0.3134 0.04932 0.0
C210 C 0.06698 0.2562 0.90567 0.0
C211 C 0.06225 0.32696 0.10592 0.0
C212 C 0.06703 0.36295 0.15634 0.0
C213 C 0.07059 0.3491 0.10562 0.0
C214 C 0.04731 0.33245 0.20971 0.0
C215 C 0.05496 0.35493 0.20847 0.0
C216 C 0.0509 0.31856 0.15874 0.0
C217 C 0.05557 0.22697 0.15773 0.0
C218 C 0.03236 0.20915 0.23749 0.0
C219 C 0.06493 0.19333 0.2028 0.0
C220 C 0.06986 0.21079 0.16265 0.0
C221 C 0.04573 0.19194 0.23933 0.0
C222 C 0.03711 0.22638 0.19652 0.0
C223 C 0.05867 0.24302 0.108 0.0
O224 O 0.04853 0.26094 0.93107 0.0
O225 O 0.08408 0.2628 0.93986 0.0
O226 O 0.07817 0.25118 0.08914 0.0
O227 O 0.04208 0.25031 0.08009 0.0
H228 H 0.0762 0.21906 0.96293 0.0
H229 H 0.07372 0.18177 0.91877 0.0
H230 H 0.0526 0.20579 0.74423 0.0
H231 H 0.05592 0.24315 0.78829 0.0
H232 H 0.07353 0.38005 0.15439 0.0
H233 H 0.07948 0.35584 0.06544 0.0
H234 H 0.03788 0.32578 0.24902 0.0
H235 H 0.04438 0.30144 0.1599 0.0
H236 H 0.01779 0.20896 0.26616 0.0
H237 H 0.07553 0.18033 0.20229 0.0
H238 H 0.08416 0.21093 0.13284 0.0
H239 H 0.02601 0.2389 0.19384 0.0
C240 C 0.29156 0.01284 0.88921 0.0
C241 C 0.30728 1.00029 0.91267 0.0
C242 C 0.3325 0.01233 0.82902 0.0
C243 C 0.32753 0.99997 0.88273 0.0
C244 C 0.31663 0.02485 0.80577 0.0
C245 C 0.29636 0.02508 0.83561 0.0
U246 U 0.25541 0.00201 0.03159 0.0
O247 O 0.2324 0.0226 0.0767 0.0
O248 O 0.2205 0.98998 0.0385 0.0
C249 C 0.21559 0.00774 0.06868 0.0
C250 C 0.27039 0.01372 0.9211 0.0
C251 C 0.19991 0.00454 0.12078 0.0
C252 C 0.16206 0.00201 0.15519 0.0
C253 C 0.17764 0.00353 0.10742 0.0
C254 C 0.1908 0.00206 0.23105 0.0
C255 C 0.16839 0.00151 0.21775 0.0
C256 C 0.20645 0.00361 0.18292 0.0
C257 C 0.28758 0.97537 0.16419 0.0
C258 C 0.30238 0.94523 0.21517 0.0
C259 C 0.30607 0.98151 0.2633 0.0
C260 C 0.2944 0.9893 0.21467 0.0
C261 C 0.31121 0.95967 0.26229 0.0
C262 C 0.29076 0.95303 0.16646 0.0
C263 C 0.28258 0.9846 0.10381 0.0
O264 O 0.2593 0.99462 0.93168 0.0
O265 O 0.27063 0.02735 0.96918 0.0
O266 O 0.28121 0.00585 0.10147 0.0
O267 O 0.26915 0.9728 0.066 0.0
H268 H 0.30393 0.99087 0.9544 0.0
H269 H 0.33946 0.9904 0.90237 0.0
H270 H 0.31979 0.03435 0.76416 0.0
H271 H 0.28444 0.03489 0.81692 0.0
H272 H 0.145 0.00118 0.14294 0.0
H273 H 0.17226 0.00421 0.05974 0.0
H274 H 0.19627 0.00183 0.27868 0.0
H275 H 0.2236 0.00441 0.19424 0.0
H276 H 0.30571 0.92821 0.2137 0.0
H277 H 0.3127 0.99315 0.29863 0.0
H278 H 0.29236 0.00664 0.21425 0.0
H279 H 0.28583 0.94192 0.12804 0.0
C280 C 0.45666 0.27638 0.87752 0.0
C281 C 0.4648 0.29445 0.91469 0.0
C282 C 0.45808 0.31956 0.83199 0.0
C283 C 0.46521 0.31582 0.89259 0.0
C284 C 0.4499 0.30126 0.79513 0.0
C285 C 0.44907 0.27997 0.81788 0.0
U286 U 0.45525 0.2314 0.00148 0.0
O287 O 0.47616 0.20462 0.99918 0.0
O288 O 0.44061 0.19684 0.99956 0.0
C289 C 0.45969 0.1894 0.00615 0.0
C290 C 0.4572 0.25362 0.89804 0.0
C291 C 0.4616 0.17435 0.05827 0.0
C292 C 0.45084 0.13952 0.10795 0.0
C293 C 0.44863 0.15414 0.05982 0.0
C294 C 0.47906 0.16514 0.15388 0.0
C295 C 0.46629 0.14471 0.15534 0.0
C296 C 0.47664 0.17982 0.10631 0.0
C297 C 0.44999 0.2741 0.1347 0.0
C298 C 0.45429 0.29798 0.2258 0.0
C299 C 0.45411 0.31364 0.12324 0.0
C300 C 0.45061 0.29248 0.0968 0.0
C301 C 0.45687 0.31649 0.18787 0.0
C302 C 0.451 0.27696 0.19933 0.0
C303 C 0.451 0.25198 0.10855 0.0
O304 O 0.47448 0.2498 0.92965 0.0
O305 O 0.43889 0.24374 0.92055 0.0
O306 O 0.46993 0.24838 0.08398 0.0
O307 O 0.43425 0.24347 0.07552 0.0
H308 H 0.47128 0.29205 0.96026 0.0
H309 H 0.47129 0.32933 0.92306 0.0
H310 H 0.44472 0.30319 0.74784 0.0
H311 H 0.443 0.26622 0.78809 0.0
H312 H 0.44039 0.12416 0.10796 0.0
H313 H 0.43682 0.14961 0.02359 0.0
H314 H 0.49136 0.16969 0.18868 0.0
H315 H 0.48683 0.19536 0.10683 0.0
H316 H 0.45582 0.29972 0.27586 0.0
H317 H 0.45593 0.32762 0.09294 0.0
H318 H 0.44934 0.29041 0.04691 0.0
H319 H 0.45033 0.26289 0.22924 0.0
Dy320 Dy 0.01787 0.98834 0.63274 0.0
C321 C 0.00417 0.04622 0.42847 0.0
C322 C 0.00916 0.95938 0.72537 0.0
Dy323 Dy 0.00446 0.01501 0.5163 0.0
O324 O 0.02804 0.97074 0.71667 0.0
O325 O 0.99512 0.96481 0.68553 0.0
O326 O 0.05166 0.98176 0.59876 0.0
O327 O 0.03161 0.99857 0.54504 0.0
C328 C 0.05001 0.99146 0.54601 0.0
C329 C 0.97311 0.00354 0.6005 0.0
O330 O 0.99981 0.9813 0.47313 0.0
O331 O 1.00114 0.96312 0.56702 0.0
O332 O 0.99125 0.0444 0.47655 0.0
O333 O 0.01657 0.03035 0.42696 0.0
O334 O 0.9693 0.00508 0.54138 0.0
O335 O 0.99292 0.00956 0.61131 0.0
O336 O 0.02575 0.0223 0.67184 0.0
O337 O 0.02465 0.03988 0.57658 0.0
C338 C 0.99748 0.96314 0.50626 0.0
C339 C 0.02921 0.04002 0.63701 0.0
Dy340 Dy 0.48917 0.98405 0.52356 0.0
C341 C 0.55836 0.03845 0.64336 0.0
C342 C 0.44943 0.96508 0.4856 0.0
Dy343 Dy 0.52218 0.01759 0.58783 0.0
O344 O 0.46786 0.96178 0.45876 0.0
O345 O 0.45287 0.97846 0.5328 0.0
O346 O 0.51605 0.9667 0.4801 0.0
O347 O 0.52085 0.00084 0.49746 0.0
C348 C 0.53003 0.98424 0.47987 0.0
C349 C 0.4811 0.01729 0.62868 0.0
O350 O 0.51367 0.03909 0.5112 0.0
O351 O 0.4842 0.01542 0.47528 0.0
O352 O 0.55779 0.03024 0.58709 0.0
O353 O 0.53908 0.03572 0.66849 0.0
O354 O 0.49455 0.0351 0.62577 0.0
O355 O 0.49071 0.00073 0.61371 0.0
O356 O 0.49809 0.96287 0.59998 0.0
O357 O 0.52921 0.98539 0.6284 0.0
C358 C 0.49645 0.03462 0.47483 0.0
C359 C 0.51638 0.96661 0.63196 0.0
Dy360 Dy 0.50424 0.51761 0.62773 0.0
C361 C 0.50614 0.45677 0.41134 0.0
C362 C 0.51746 0.54207 0.72944 0.0
Dy363 Dy 0.5108 0.48706 0.5059 0.0
O364 O 0.49763 0.53275 0.72138 0.0
O365 O 0.52981 0.53797 0.68213 0.0
O366 O 0.47179 0.52898 0.59899 0.0
O367 O 0.48737 0.50691 0.54524 0.0
C368 C 0.47085 0.5172 0.54756 0.0
C369 C 0.54471 0.49563 0.58336 0.0
O370 O 0.51745 0.5204 0.46517 0.0
O371 O 0.5221 0.54041 0.55904 0.0
O372 O 0.51893 0.45602 0.45861 0.0
O373 O 0.49613 0.47439 0.4149 0.0
O374 O 0.54718 0.49231 0.52373 0.0
O375 O 0.52481 0.49275 0.59731 0.0
O376 O 0.49402 0.48429 0.66524 0.0
O377 O 0.49012 0.46463 0.57044 0.0
C378 C 0.52308 0.53892 0.4972 0.0
C379 C 0.48784 0.46612 0.63212 0.0
Dy380 Dy 0.99606 0.48721 0.62388 0.0
C381 C 0.04716 0.52039 0.41768 0.0
C382 C 0.96854 0.47535 0.71996 0.0
Dy383 Dy 0.01942 0.51166 0.51527 0.0
O384 O 0.97638 0.46175 0.68068 0.0
O385 O 0.97586 0.49539 0.70704 0.0
O386 O 0.01296 0.45741 0.59948 0.0
O387 O 0.0047 0.47833 0.5292 0.0
C388 C 0.01442 0.46177 0.54053 0.0
C389 C 1.00111 0.5372 0.59866 0.0
O390 O 0.98703 0.5041 0.47074 0.0
O391 O 0.96814 0.49329 0.56112 0.0
O392 O 0.03831 0.53526 0.4504 0.0
O393 O 0.04079 0.50102 0.43826 0.0
O394 O 0.00304 0.54184 0.53988 0.0
O395 O 0.0107 0.52055 0.60977 0.0
O396 O 0.02856 0.49493 0.66888 0.0
O397 O 0.04725 0.50677 0.5791 0.0
C398 C 0.96858 0.49845 0.50127 0.0
C399 C 0.04694 0.50134 0.63867 0.0
H400 H 0.16677 0.97806 0.32589 0.0
H401 H 0.05135 0.01501 0.43844 0.0
H402 H 0.13149 0.02302 0.22533 0.0
H403 H 0.08825 0.97307 0.54368 0.0
H404 H 0.08034 0.01806 0.35934 0.0
H405 H 0.1383 0.97616 0.40635 0.0
C406 C 0.15315 0.98766 0.32085 0.0
C407 C 0.15155 0.00063 0.26838 0.0
C408 C 0.08212 0.00817 0.39972 0.0
C409 C 0.11867 0.99833 0.36027 0.0
C410 C 0.06548 0.00641 0.44474 0.0
C411 C 0.06729 0.99373 0.49746 0.0
C412 C 0.10073 0.99709 0.40748 0.0
C413 C 0.08617 0.98303 0.50367 0.0
C414 C 0.1368 0.98646 0.3667 0.0
C415 C 0.13329 0.01248 0.26426 0.0
N416 N 0.1021 0.98491 0.45925 0.0
N417 N 0.1176 0.01101 0.30939 0.0
H418 H 0.4771 0.15326 0.27849 0.0
H419 H 0.47103 0.02764 0.37166 0.0
H420 H 0.46307 0.09954 0.14633 0.0
H421 H 0.5097 0.07895 0.47416 0.0
H422 H 0.46288 0.0545 0.29553 0.0
H423 H 0.48432 0.12685 0.35715 0.0
C424 C 0.47559 0.13598 0.26568 0.0
C425 C 0.46955 0.12876 0.20508 0.0
C426 C 0.47314 0.05988 0.3347 0.0
C427 C 0.47731 0.0984 0.29591 0.0
C428 C 0.47774 0.04458 0.37841 0.0
C429 C 0.49113 0.05104 0.42942 0.0
C430 C 0.48169 0.08191 0.34233 0.0
C431 C 0.49941 0.07323 0.4354 0.0
C432 C 0.47964 0.12092 0.31088 0.0
C433 C 0.46734 0.10601 0.19233 0.0
N434 N 0.49448 0.08791 0.39249 0.0
N435 N 0.47117 0.09169 0.2373 0.0
H436 H 0.37033 0.55467 0.3052 0.0
H437 H 0.46153 0.48769 0.45216 0.0
H438 H 0.39134 0.49558 0.22193 0.0
H439 H 0.44244 0.54782 0.53252 0.0
H440 H 0.43542 0.48993 0.36822 0.0
H441 H 0.39591 0.55204 0.3902 0.0
C442 C 0.38024 0.54109 0.30488 0.0
C443 C 0.37869 0.52537 0.2561 0.0
C444 C 0.43697 0.50271 0.40402 0.0
C445 C 0.40816 0.52233 0.35321 0.0
C446 C 0.45204 0.5015 0.4515 0.0
C447 C 0.45447 0.51781 0.49829 0.0
C448 C 0.42411 0.52034 0.4036 0.0
C449 C 0.44111 0.53495 0.49699 0.0
C450 C 0.39493 0.53965 0.3533 0.0
C451 C 0.39217 0.50828 0.25792 0.0
N452 N 0.42655 0.53582 0.45027 0.0
N453 N 0.4063 0.50722 0.30558 0.0
H454 H 0.05501 0.34891 0.33533 0.0
H455 H 0.01205 0.46542 0.41469 0.0
H456 H 0.04223 0.39601 0.19767 0.0
H457 H 0.03246 0.4233 0.55601 0.0
H458 H 0.0226 0.43956 0.33486 0.0
H459 H 0.04588 0.37502 0.41739 0.0
C460 C 0.05026 0.3647 0.32235 0.0
C461 C 0.04955 0.37032 0.25947 0.0
C462 C 0.0249 0.43596 0.38327 0.0
C463 C 0.03915 0.40025 0.35296 0.0
C464 C 0.01896 0.4508 0.42889 0.0
C465 C 0.02155 0.44657 0.49201 0.0
C466 C 0.03329 0.41657 0.40078 0.0
C467 C 0.03026 0.42718 0.50778 0.0
C468 C 0.04518 0.37963 0.36919 0.0
C469 C 0.04341 0.39108 0.24544 0.0
N470 N 0.03575 0.41283 0.46245 0.0
N471 N 0.03843 0.40521 0.29167 0.0
H472 H 0.90057 0.00357 0.94815 0.0
H473 H 0.9293 0.99333 0.58456 0.0
H474 H 0.8522 0.98658 0.80665 0.0
H475 H 0.97787 0.0067 0.72701 0.0
H476 H 0.90085 0.99039 0.66526 0.0
H477 H 0.92905 0.00449 0.86811 0.0
C478 C 0.89589 0.99989 0.90036 0.0
C479 C 0.87384 0.99495 0.88444 0.0
C480 C 0.91772 0.99388 0.67898 0.0
C481 C 0.90654 0.99626 0.79201 0.0
C482 C 0.93397 0.99551 0.6329 0.0
C483 C 0.95595 1.00029 0.64912 0.0
C484 C 0.92348 0.99711 0.74186 0.0
C485 C 0.9611 0.00298 0.71246 0.0
C486 C 0.91221 0.00054 0.85454 0.0
C487 C 0.86888 0.99077 0.8213 0.0
N488 N 0.945 0.00144 0.75647 0.0
N489 N 0.88507 0.99152 0.77755 0.0
H490 H 0.51682 0.8513 0.85856 0.0
H491 H 0.55068 0.96944 0.71295 0.0
H492 H 0.56775 0.89813 0.93256 0.0
H493 H 0.49546 0.92539 0.6509 0.0
H494 H 0.55895 0.94234 0.78825 0.0
H495 H 0.51069 0.87696 0.77678 0.0
C496 C 0.52687 0.86689 0.85731 0.0
C497 C 0.54281 0.87255 0.90272 0.0
C498 C 0.54507 0.93856 0.75803 0.0
C499 C 0.53569 0.90218 0.80936 0.0
C500 C 0.54034 0.95403 0.71481 0.0
C501 C 0.52227 0.94977 0.6755 0.0
C502 C 0.53169 0.9186 0.76206 0.0
C503 C 0.50951 0.92947 0.68029 0.0
C504 C 0.52325 0.88161 0.8108 0.0
C505 C 0.55509 0.89316 0.89912 0.0
N506 N 0.51443 0.91468 0.72283 0.0
N507 N 0.55126 0.90721 0.85338 0.0
H508 H 0.61196 0.48133 0.92595 0.0
H509 H 0.58907 0.49723 0.56452 0.0
H510 H 0.66384 0.4945 0.79106 0.0
H511 H 0.53979 0.49478 0.70898 0.0
H512 H 0.61694 0.49509 0.64455 0.0
H513 H 0.58541 0.48453 0.8447 0.0
C514 C 0.61782 0.48501 0.87927 0.0
C515 C 0.64025 0.48786 0.86569 0.0
C516 C 0.60003 0.49517 0.6586 0.0
C517 C 0.60972 0.49128 0.77161 0.0
C518 C 0.58417 0.49645 0.61302 0.0
C519 C 0.56213 0.49623 0.63019 0.0
C520 C 0.59371 0.49351 0.72155 0.0
C521 C 0.5566 0.49508 0.69361 0.0
C522 C 0.6026 0.48675 0.83271 0.0
C523 C 0.64674 0.49202 0.80374 0.0
N524 N 0.57223 0.49367 0.7368 0.0
N525 N 0.63155 0.49365 0.75901 0.0
H526 H 0.95706 0.64826 0.80446 0.0
H527 H 0.00496 0.5341 0.72431 0.0
H528 H 0.98974 0.61145 0.9368 0.0
H529 H 0.98206 0.57512 0.58396 0.0
H530 H 0.99584 0.56065 0.80429 0.0
H531 H 0.9626 0.62012 0.72453 0.0
C532 C 0.9653 0.63423 0.81679 0.0
C533 C 0.97312 0.63234 0.87734 0.0
C534 C 0.99272 0.56385 0.75606 0.0
C535 C 0.97951 0.60011 0.78619 0.0
C536 C 0.99783 0.54863 0.71039 0.0
C537 C 0.99429 0.55247 0.64746 0.0
C538 C 0.98396 0.58308 0.73877 0.0
C539 C 0.98511 0.57161 0.63202 0.0
C540 C 0.96855 0.61823 0.77109 0.0
C541 C 0.98379 0.61384 0.89053 0.0
N542 N 0.9803 0.58626 0.67737 0.0
N543 N 0.98666 0.5985 0.84543 0.0
H544 H 0.00403 0.17219 0.25587 0.0
H545 H 0.04083 0.05956 0.3627 0.0
H546 H 0.07106 0.16485 0.30033 0.0
H547 H 0.97814 0.07924 0.41787 0.0
H548 H 0.05081 0.09612 0.32085 0.0
H549 H 0.99297 0.13668 0.30171 0.0
C550 C 0.01644 0.16339 0.27618 0.0
C551 C 0.03861 0.17161 0.27377 0.0
C552 C 0.03481 0.09234 0.3417 0.0
C553 C 0.02596 0.13051 0.32387 0.0
C554 C 0.029 0.07145 0.36473 0.0
C555 C 0.0086 0.06647 0.39335 0.0
C556 C 0.01996 0.10813 0.34639 0.0
C557 C 0.99398 0.08251 0.39578 0.0
C558 C 0.01006 0.143 0.30176 0.0
C559 C 0.05387 0.15903 0.2997 0.0
N560 N 0.99992 0.10271 0.37237 0.0
N561 N 0.04728 0.13897 0.32297 0.0
H562 H 0.3444 0.93505 0.23164 0.0
H563 H 0.41052 0.97161 0.53921 0.0
H564 H 0.318 0.97024 0.38629 0.0
H565 H 0.43871 0.94222 0.37738 0.0
H566 H 0.37451 0.9645 0.49239 0.0
H567 H 0.37646 0.93052 0.29312 0.0
C568 C 0.34503 0.94134 0.27914 0.0
C569 C 0.32848 0.95321 0.30363 0.0
C570 C 0.3885 0.95932 0.46739 0.0
C571 C 0.36557 0.94854 0.37378 0.0
C572 C 0.40905 0.96334 0.49412 0.0
C573 C 0.42757 0.9577 0.46164 0.0
C574 C 0.38649 0.94969 0.40759 0.0
C575 C 0.4248 0.94693 0.40367 0.0
C576 C 0.36351 0.93893 0.31402 0.0
C577 C 0.3305 0.96129 0.36515 0.0
N578 N 0.40463 0.9435 0.37808 0.0
N579 N 0.34884 0.95903 0.39784 0.0
H580 H 0.48935 0.32517 0.27154 0.0
H581 H 0.4743 0.45195 0.32255 0.0
H582 H 0.44318 0.35708 0.16576 0.0
H583 H 0.5261 0.41958 0.40118 0.0
H584 H 0.46299 0.41842 0.26118 0.0
H585 H 0.50284 0.36034 0.31812 0.0
C586 C 0.48192 0.33963 0.25847 0.0
C587 C 0.46488 0.33816 0.21547 0.0
C588 C 0.477 0.4188 0.29126 0.0
C589 C 0.48058 0.37879 0.26803 0.0
C590 C 0.4835 0.43791 0.326 0.0
C591 C 0.50106 0.43837 0.36708 0.0
C592 C 0.48814 0.40016 0.29824 0.0
C593 C 0.5124 0.41983 0.37026 0.0
C594 C 0.48979 0.35979 0.28464 0.0
C595 C 0.4563 0.35754 0.19895 0.0
N596 N 0.50562 0.40143 0.33675 0.0
N597 N 0.46414 0.37712 0.22571 0.0
H598 H 0.15992 0.57544 0.20872 0.0
H599 H 0.06559 0.49009 0.34734 0.0
H600 H 0.16421 0.50623 0.22962 0.0
H601 H 0.06762 0.56 0.38061 0.0
H602 H 0.0976 0.49625 0.28011 0.0
H603 H 0.1222 0.57042 0.24949 0.0
C604 C 0.15272 0.55919 0.22098 0.0
C605 C 0.16498 0.54122 0.21657 0.0
C606 C 0.09094 0.5103 0.3015 0.0
C607 C 0.12239 0.53535 0.26224 0.0
C608 C 0.07265 0.50679 0.33973 0.0
C609 C 0.06423 0.52456 0.37003 0.0
C610 C 0.10095 0.53174 0.29373 0.0
C611 C 0.07381 0.54588 0.35826 0.0
C612 C 0.13137 0.55634 0.24431 0.0
C613 C 0.15521 0.52047 0.23299 0.0
N614 N 0.09192 0.5489 0.32143 0.0
N615 N 0.1345 0.51812 0.25534 0.0
H616 H 0.96235 0.82629 0.79686 0.0
H617 H 0.0387 0.93975 0.79365 0.0
H618 H 0.01826 0.8391 0.91664 0.0
H619 H 0.97177 0.93213 0.73322 0.0
H620 H 0.03379 0.90203 0.83192 0.0
H621 H 0.96859 0.86399 0.76103 0.0
C622 C 0.97605 0.83692 0.8152 0.0
C623 C 0.98967 0.82948 0.86025 0.0
C624 C 0.02015 0.90878 0.8109 0.0
C625 C 0.99691 0.87264 0.81937 0.0
C626 C 0.02289 0.9303 0.78968 0.0
C627 C 0.00561 0.93898 0.76036 0.0
C628 C 1.00012 0.89593 0.80175 0.0
C629 C 0.98551 0.92604 0.75559 0.0
C630 C 0.97956 0.85845 0.7949 0.0
C631 C 0.00745 0.84394 0.88138 0.0
N632 N 0.98339 0.90507 0.77539 0.0
N633 N 0.0105 0.86487 0.86098 0.0
H634 H 0.64944 0.03397 0.93466 0.0
H635 H 0.60011 0.0433 0.59869 0.0
H636 H 0.68892 0.04261 0.76811 0.0
H637 H 0.56218 0.0475 0.76757 0.0
H638 H 0.63337 0.0468 0.66051 0.0
H639 H 0.61779 0.04246 0.87591 0.0
C640 C 0.65153 0.03797 0.886 0.0
C641 C 0.67177 0.0372 0.85601 0.0
C642 C 0.61781 0.04734 0.68406 0.0
C643 C 0.63561 0.04663 0.78832 0.0
C644 C 0.59885 0.04541 0.64873 0.0
C645 C 0.57846 0.04492 0.67826 0.0
C646 C 0.61626 0.04846 0.74934 0.0
C647 C 0.57765 0.0477 0.74313 0.0
C648 C 0.63344 0.04275 0.8524 0.0
C649 C 0.67349 0.04242 0.79274 0.0
N650 N 0.59629 0.04899 0.77668 0.0
N651 N 0.6556 0.04665 0.76086 0.0
H652 H 0.51825 0.64859 0.99416 0.0
H653 H 0.55856 0.56077 0.75186 0.0
H654 H 0.58097 0.65521 0.90146 0.0
H655 H 0.49252 0.55863 0.82164 0.0
H656 H 0.56942 0.59084 0.82511 0.0
H657 H 0.51119 0.61137 0.95022 0.0
C658 C 0.53072 0.64204 0.96559 0.0
C659 C 0.5501 0.65508 0.95066 0.0
C660 C 0.5526 0.58363 0.82505 0.0
C661 C 0.54203 0.61271 0.89976 0.0
C662 C 0.54641 0.56646 0.78333 0.0
C663 C 0.52456 0.55753 0.78024 0.0
C664 C 0.53678 0.59201 0.86362 0.0
C665 C 0.5095 0.56527 0.82235 0.0
C666 C 0.52662 0.62086 0.94023 0.0
C667 C 0.56563 0.64584 0.9131 0.0
N668 N 0.51583 0.58234 0.86186 0.0
N669 N 0.56117 0.62529 0.88842 0.0
H670 H 0.84799 0.41782 0.86912 0.0
H671 H 0.95209 0.50186 0.80778 0.0
H672 H 0.86181 0.4786 0.97349 0.0
H673 H 0.94605 0.43513 0.73651 0.0
H674 H 0.92034 0.49265 0.87492 0.0
H675 H 0.88502 0.4225 0.82584 0.0
C676 C 0.85896 0.43197 0.88358 0.0
C677 C 0.85183 0.44793 0.92451 0.0
C678 C 0.92614 0.47991 0.84534 0.0
C679 C 0.89401 0.45352 0.87492 0.0
C680 C 0.94423 0.48518 0.80704 0.0
C681 C 0.95148 0.46925 0.76643 0.0
C682 C 0.9151 0.45864 0.84218 0.0
C683 C 0.94084 0.44788 0.76713 0.0
C684 C 0.88008 0.43461 0.85906 0.0
C685 C 0.86669 0.46586 0.94228 0.0
N686 N 0.92294 0.44325 0.80381 0.0
N687 N 0.88699 0.46834 0.91663 0.0
H688 H 0.04722 0.15281 0.88706 0.0
H689 H 0.04586 0.07748 0.57912 0.0
H690 H 0.07205 0.17615 0.70928 0.0
H691 H 0.03085 0.05156 0.76152 0.0
H692 H 0.056 0.11356 0.62651 0.0
H693 H 0.04165 0.11562 0.84276 0.0
C694 C 0.05174 0.15014 0.8389 0.0
C695 C 0.06011 0.16778 0.80193 0.0
C696 C 0.05065 0.09998 0.65631 0.0
C697 C 0.05336 0.12511 0.75056 0.0
C698 C 0.04482 0.07931 0.62927 0.0
C699 C 0.03736 0.06142 0.66635 0.0
C700 C 0.04884 0.10294 0.72102 0.0
C701 C 0.03652 0.06485 0.73109 0.0
C702 C 0.04843 0.12886 0.81355 0.0
C703 C 0.06523 0.16322 0.73942 0.0
N704 N 0.04199 0.08526 0.75633 0.0
N705 N 0.06169 0.14239 0.71573 0.0
H706 H 0.35665 0.97763 0.80717 0.0
H707 H 0.45755 0.05158 0.65439 0.0
H708 H 0.35796 0.04734 0.77992 0.0
H709 H 0.45418 0.98107 0.66419 0.0
H710 H 0.42117 0.05026 0.70156 0.0
H711 H 0.39253 0.97845 0.75685 0.0
C712 C 0.3645 0.99313 0.79083 0.0
C713 C 0.35422 0.01245 0.79786 0.0
C714 C 0.42831 0.03504 0.69323 0.0
C715 C 0.39529 0.01348 0.73977 0.0
C716 C 0.44909 0.0358 0.66635 0.0
C717 C 0.45884 0.01641 0.6553 0.0
C718 C 0.41721 0.01473 0.70962 0.0
C719 C 0.44718 0.9964 0.67163 0.0
C720 C 0.38494 0.99355 0.76174 0.0
C721 C 0.36509 0.03199 0.77491 0.0
N722 N 0.42699 0.99607 0.69817 0.0
N723 N 0.38501 0.032 0.74715 0.0
H724 H 0.43172 0.33681 0.74632 0.0
H725 H 0.49523 0.45703 0.75346 0.0
H726 H 0.48899 0.35449 0.85828 0.0
H727 H 0.4636 0.42894 0.58768 0.0
H728 H 0.48614 0.42209 0.8055 0.0
H729 H 0.43701 0.37302 0.69977 0.0
C730 C 0.44542 0.34814 0.76127 0.0
C731 C 0.46003 0.34222 0.80629 0.0
C732 C 0.48104 0.42368 0.75792 0.0
C733 C 0.46559 0.38411 0.75431 0.0
C734 C 0.48606 0.44364 0.72827 0.0
C735 C 0.48021 0.44591 0.66599 0.0
C736 C 0.46975 0.40593 0.72551 0.0
C737 C 0.46853 0.42789 0.6356 0.0
C738 C 0.44829 0.3689 0.73483 0.0
C739 C 0.47704 0.35814 0.8247 0.0
N740 N 0.46365 0.40864 0.66569 0.0
N741 N 0.4793 0.3783 0.79876 0.0
H742 H 0.15243 0.49508 0.9014 0.0
H743 H 0.08633 0.52128 0.5994 0.0
H744 H 0.17664 0.54223 0.76417 0.0
H745 H 0.05522 0.48783 0.75669 0.0
H746 H 0.1203 0.52672 0.65702 0.0
H747 H 0.11721 0.49058 0.84843 0.0
C748 C 0.15034 0.50467 0.86061 0.0
C749 C 0.16772 0.51893 0.83705 0.0
C750 C 0.10606 0.5182 0.67907 0.0
C751 C 0.12752 0.51347 0.77551 0.0
C752 C 0.08662 0.51496 0.646 0.0
C753 C 0.06781 0.50403 0.67311 0.0
C754 C 0.1069 0.5103 0.73971 0.0
C755 C 0.06928 0.49636 0.73391 0.0
C756 C 0.13024 0.50196 0.83017 0.0
C757 C 0.16399 0.53067 0.78343 0.0
N758 N 0.08851 0.49957 0.7651 0.0
N759 N 0.14442 0.52756 0.7544 0.0
H760 H 0.95638 0.85282 0.25473 0.0
H761 H 0.99219 0.92323 0.56106 0.0
H762 H 0.97419 0.82542 0.42793 0.0
H763 H 0.98728 0.95331 0.38259 0.0
H764 H 0.98223 0.88757 0.51301 0.0
H765 H 0.96465 0.88974 0.30044 0.0
C766 C 0.96203 0.85449 0.30227 0.0
C767 C 0.96453 0.83582 0.33746 0.0
C768 C 0.98331 0.9019 0.48409 0.0
C769 C 0.97375 0.87811 0.39014 0.0
C770 C 0.98899 0.92243 0.51158 0.0
C771 C 0.99072 0.94149 0.47587 0.0
C772 C 0.97917 0.90011 0.4201 0.0
C773 C 0.98623 0.93911 0.41196 0.0
C774 C 0.96667 0.87561 0.32832 0.0
C775 C 0.97159 0.83915 0.39913 0.0
N776 N 0.98067 0.91876 0.38602 0.0
N777 N 0.97593 0.8598 0.4233 0.0
H778 H 0.64471 0.95261 0.27522 0.0
H779 H 0.55866 0.02074 0.45754 0.0
H780 H 0.65483 0.02283 0.30551 0.0
H781 H 0.55055 0.9504 0.43043 0.0
H782 H 0.59377 0.02215 0.40212 0.0
H783 H 0.61003 0.95183 0.33106 0.0
C784 C 0.63971 0.9679 0.29374 0.0
C785 C 0.65292 0.98781 0.28579 0.0
C786 C 0.58434 0.00641 0.40839 0.0
C787 C 0.6128 0.98703 0.34973 0.0
C788 C 0.56433 0.00558 0.44023 0.0
C789 C 0.55168 0.9854 0.44868 0.0
C790 C 0.59174 0.98691 0.38468 0.0
C791 C 0.55975 0.9663 0.42494 0.0
C792 C 0.61979 0.96744 0.3255 0.0
C793 C 0.64519 0.00711 0.30989 0.0
N794 N 0.57921 0.96753 0.39401 0.0
N795 N 0.62571 0.00623 0.34089 0.0
H796 H 0.559 0.67475 0.4074 0.0
H797 H 0.52154 0.54578 0.37113 0.0
H798 H 0.5378 0.64353 0.23328 0.0
H799 H 0.53981 0.57891 0.54513 0.0
H800 H 0.53006 0.58059 0.31771 0.0
H801 H 0.55483 0.63903 0.45615 0.0
C802 C 0.55371 0.66036 0.3791 0.0
C803 C 0.54876 0.66226 0.31597 0.0
C804 C 0.53231 0.58018 0.36753 0.0
C805 C 0.54355 0.62108 0.37217 0.0
C806 C 0.52752 0.56027 0.39809 0.0
C807 C 0.52984 0.55935 0.4629 0.0
C808 C 0.53952 0.59931 0.40196 0.0
C809 C 0.53761 0.57875 0.49524 0.0
C810 C 0.55117 0.63992 0.40719 0.0
C811 C 0.54155 0.64295 0.28223 0.0
N812 N 0.54207 0.59787 0.46452 0.0
N813 N 0.53912 0.62321 0.31075 0.0
H814 H 0.839 0.45804 0.36153 0.0
H815 H 0.96124 0.51499 0.38697 0.0
H816 H 0.86433 0.51226 0.24745 0.0
H817 H 0.92871 0.47772 0.53543 0.0
H818 H 0.92721 0.51092 0.3285 0.0
H819 H 0.87318 0.46175 0.4189 0.0
C820 C 0.85165 0.47078 0.34849 0.0
C821 C 0.84855 0.48495 0.29954 0.0
C822 C 0.92752 0.50369 0.37395 0.0
C823 C 0.88802 0.48895 0.36467 0.0
C824 C 0.94695 0.50597 0.40737 0.0
C825 C 0.94785 0.49673 0.46637 0.0
C826 C 0.90888 0.49183 0.39921 0.0
C827 C 0.92876 0.48524 0.49035 0.0
C828 C 0.87122 0.47281 0.38124 0.0
C829 C 0.86592 0.50073 0.28409 0.0
N830 N 0.91011 0.48301 0.45655 0.0
N831 N 0.88486 0.50229 0.31649 0.0
loop_
_geom_bond_atom_site_label_1
_geom_bond_atom_site_label_2
_geom_bond_distance
_geom_bond_site_symmetry_2
_ccdc_geom_bond_type
C0 C1 1.264 . S
C0 C5 1.479 . S
C0 C10 1.465 . S
C1 C0 1.264 . S
C1 C3 1.339 . S
C1 H28 0.931 . S
C2 C3 1.395 . S
C2 C4 1.320 . S
C3 C1 1.339 . S
C3 C2 1.395 . S
C3 H29 0.929 . S
C4 C2 1.320 . S
C4 C5 1.405 . S
C4 H30 0.930 . S
C5 C0 1.479 . S
C5 C4 1.405 . S
C5 H31 0.931 . S
U6 O7 2.454 . S
U6 O8 2.458 1_554 S
U6 C9 2.984 1_554 S
U6 C10 2.847 . S
U6 C23 2.882 1_554 S
U6 O24 2.441 . S
U6 O25 2.420 . S
U6 O26 2.455 1_554 S
U6 O27 2.449 1_554 S
O7 U6 2.454 . S
O7 C9 1.353 1_554 S
O8 U6 2.458 1_556 S
O8 C9 1.286 . S
C9 U6 2.984 1_556 S
C9 O7 1.353 1_556 S
C9 O8 1.286 . S
C9 C11 1.363 . S
C10 C0 1.465 . S
C10 U6 2.847 . S
C10 O24 1.249 . S
C10 O25 1.202 . S
C11 C9 1.363 . S
C11 C13 1.408 1_556 S
C11 C16 1.342 . S
C12 C13 1.310 . S
C12 C15 1.461 1_554 S
C12 H32 0.932 . S
C13 C11 1.408 1_554 S
C13 C12 1.310 . S
C13 H33 0.930 . S
C14 C15 1.474 . S
C14 C16 1.285 . S
C14 H34 0.929 . S
C15 C12 1.461 1_556 S
C15 C14 1.474 . S
C16 C11 1.342 . S
C16 C14 1.285 . S
C16 H35 0.930 . S
C17 C20 1.424 . S
C17 C22 1.245 . S
C17 C23 1.428 . S
C18 C21 1.260 . S
C18 C22 1.477 . S
C18 H36 0.932 . S
C19 C20 1.384 . S
C19 C21 1.479 . S
C19 H37 0.929 . S
C20 C17 1.424 . S
C20 C19 1.384 . S
C20 H38 0.928 . S
C21 C18 1.260 . S
C21 C19 1.479 . S
C22 C17 1.245 . S
C22 C18 1.477 . S
C22 H39 0.932 . S
C23 U6 2.882 1_556 S
C23 C17 1.428 . S
C23 O26 1.301 . S
C23 O27 1.282 . S
O24 U6 2.441 . S
O24 C10 1.249 . S
O25 U6 2.420 . S
O25 C10 1.202 . S
O26 U6 2.455 1_556 S
O26 C23 1.301 . S
O27 U6 2.449 1_556 S
O27 C23 1.282 . S
H28 C1 0.931 . S
H29 C3 0.929 . S
H30 C4 0.930 . S
H31 C5 0.931 . S
H32 C12 0.932 . S
H33 C13 0.930 . S
H34 C14 0.929 . S
H35 C16 0.930 . S
H36 C18 0.932 . S
H37 C19 0.929 . S
H38 C20 0.928 . S
H39 C22 0.932 . S
C40 C41 1.264 . S
C40 C45 1.479 . S
C40 C50 1.465 . S
C41 C40 1.264 . S
C41 C43 1.339 . S
C41 H68 0.931 . S
C42 C43 1.395 . S
C42 C44 1.320 . S
C43 C41 1.339 . S
C43 C42 1.395 . S
C43 H69 0.929 . S
C44 C42 1.320 . S
C44 C45 1.405 . S
C44 H70 0.930 . S
C45 C40 1.479 . S
C45 C44 1.405 . S
C45 H71 0.931 . S
U46 O47 2.454 . S
U46 O48 2.458 1_554 S
U46 C49 2.984 1_554 S
U46 C50 2.847 . S
U46 C63 2.882 1_554 S
U46 O64 2.441 . S
U46 O65 2.420 . S
U46 O66 2.455 1_554 S
U46 O67 2.449 1_554 S
O47 U46 2.454 . S
O47 C49 1.353 1_554 S
O48 U46 2.458 1_556 S
O48 C49 1.286 . S
C49 U46 2.984 1_556 S
C49 O47 1.353 1_556 S
C49 O48 1.286 . S
C49 C51 1.363 . S
C50 C40 1.465 . S
C50 U46 2.847 . S
C50 O64 1.249 . S
C50 O65 1.202 . S
C51 C49 1.363 . S
C51 C53 1.408 1_556 S
C51 C56 1.342 . S
C52 C53 1.310 1_556 S
C52 C55 1.461 . S
C52 H72 0.932 1_556 S
C53 C51 1.408 1_554 S
C53 C52 1.310 1_554 S
C53 H73 0.930 . S
C54 C55 1.474 . S
C54 C56 1.285 . S
C54 H74 0.929 . S
C55 C52 1.461 . S
C55 C54 1.474 . S
C56 C51 1.342 . S
C56 C54 1.285 . S
C56 H75 0.930 . S
C57 C60 1.424 . S
C57 C62 1.245 . S
C57 C63 1.428 . S
C58 C61 1.260 . S
C58 C62 1.477 . S
C58 H76 0.932 . S
C59 C60 1.384 . S
C59 C61 1.479 . S
C59 H77 0.929 . S
C60 C57 1.424 . S
C60 C59 1.384 . S
C60 H78 0.928 . S
C61 C58 1.260 . S
C61 C59 1.479 . S
C62 C57 1.245 . S
C62 C58 1.477 . S
C62 H79 0.932 . S
C63 U46 2.882 1_556 S
C63 C57 1.428 . S
C63 O66 1.301 . S
C63 O67 1.282 . S
O64 U46 2.441 . S
O64 C50 1.249 . S
O65 U46 2.420 . S
O65 C50 1.202 . S
O66 U46 2.455 1_556 S
O66 C63 1.301 . S
O67 U46 2.449 1_556 S
O67 C63 1.282 . S
H68 C41 0.931 . S
H69 C43 0.929 . S
H70 C44 0.930 . S
H71 C45 0.931 . S
H72 C52 0.932 1_554 S
H73 C53 0.930 . S
H74 C54 0.929 . S
H75 C56 0.930 . S
H76 C58 0.932 . S
H77 C59 0.929 . S
H78 C60 0.928 . S
H79 C62 0.932 . S
C80 C81 1.264 . S
C80 C85 1.479 . S
C80 C90 1.465 . S
C81 C80 1.264 . S
C81 C83 1.339 . S
C81 H108 0.931 . S
C82 C83 1.395 . S
C82 C84 1.320 . S
C83 C81 1.339 . S
C83 C82 1.395 . S
C83 H109 0.929 . S
C84 C82 1.320 . S
C84 C85 1.405 . S
C84 H110 0.917 1_545 S
C85 C80 1.479 . S
C85 C84 1.405 . S
C85 H111 0.931 . S
U86 O87 2.454 . S
U86 O88 2.458 1_554 S
U86 C89 2.984 . S
U86 C90 2.847 . S
U86 C103 2.882 1_554 S
U86 O104 2.441 . S
U86 O105 2.420 . S
U86 O106 2.455 1_554 S
U86 O107 2.446 1_554 S
O87 U86 2.454 . S
O87 C89 1.353 . S
O88 U86 2.458 1_556 S
O88 C89 1.286 1_556 S
C89 U86 2.984 . S
C89 O87 1.353 . S
C89 O88 1.286 1_554 S
C89 C91 1.363 1_554 S
C90 C80 1.465 . S
C90 U86 2.847 . S
C90 O104 1.249 . S
C90 O105 1.202 . S
C91 C89 1.363 1_556 S
C91 C93 1.408 1_556 S
C91 C96 1.342 . S
C92 C93 1.310 . S
C92 C95 1.461 1_554 S
C92 H112 0.932 . S
C93 C91 1.408 1_554 S
C93 C92 1.310 . S
C93 H113 0.930 . S
C94 C95 1.475 1_565 S
C94 C96 1.284 1_565 S
C94 H114 0.930 . S
C95 C92 1.461 1_556 S
C95 C94 1.475 1_545 S
C96 C91 1.342 . S
C96 C94 1.284 1_545 S
C96 H115 0.929 . S
C97 C100 1.424 . S
C97 C102 1.245 . S
C97 C103 1.428 . S
C98 C101 1.260 . S
C98 C102 1.477 . S
C98 H116 0.932 . S
C99 C100 1.384 . S
C99 C101 1.479 . S
C99 H117 0.929 . S
C100 C97 1.424 . S
C100 C99 1.384 . S
C100 H118 0.928 . S
C101 C98 1.260 . S
C101 C99 1.479 . S
C102 C97 1.245 . S
C102 C98 1.477 . S
C102 H119 0.932 . S
C103 U86 2.882 1_556 S
C103 C97 1.428 . S
C103 O106 1.301 . S
C103 O107 1.291 . S
O104 U86 2.441 . S
O104 C90 1.249 . S
O105 U86 2.420 . S
O105 C90 1.202 . S
O106 U86 2.455 1_556 S
O106 C103 1.301 . S
O107 U86 2.446 1_556 S
O107 C103 1.291 . S
H108 C81 0.931 . S
H109 C83 0.929 . S
H110 C84 0.917 1_565 S
H111 C85 0.931 . S
H112 C92 0.932 . S
H113 C93 0.930 . S
H114 C94 0.930 . S
H115 C96 0.929 . S
H116 C98 0.932 . S
H117 C99 0.929 . S
H118 C100 0.928 . S
H119 C102 0.932 . S
C120 C121 1.264 . S
C120 C125 1.479 . S
C120 C130 1.465 . S
C121 C120 1.264 . S
C121 C123 1.339 . S
C121 H148 0.931 . S
C122 C123 1.395 . S
C122 C124 1.320 . S
C123 C121 1.339 . S
C123 C122 1.395 . S
C123 H149 0.929 . S
C124 C122 1.320 . S
C124 C125 1.405 . S
C124 H150 0.930 . S
C125 C120 1.479 . S
C125 C124 1.405 . S
C125 H151 0.931 . S
U126 O127 2.454 . S
U126 O128 2.458 1_554 S
U126 C129 2.984 . S
U126 C130 2.847 . S
U126 C143 2.882 1_554 S
U126 O144 2.441 . S
U126 O145 2.420 . S
U126 O146 2.455 1_554 S
U126 O147 2.449 . S
O127 U126 2.454 . S
O127 C129 1.353 . S
O128 U126 2.458 1_556 S
O128 C129 1.286 1_556 S
C129 U126 2.984 . S
C129 O127 1.353 . S
C129 O128 1.286 1_554 S
C129 C131 1.363 . S
C130 C120 1.465 . S
C130 U126 2.847 . S
C130 O144 1.249 . S
C130 O145 1.202 . S
C131 C129 1.363 . S
C131 C133 1.408 . S
C131 C136 1.342 1_554 S
C132 C133 1.310 . S
C132 C135 1.461 1_554 S
C132 H152 0.932 . S
C133 C131 1.408 . S
C133 C132 1.310 . S
C133 H153 0.930 . S
C134 C135 1.474 . S
C134 C136 1.285 . S
C134 H154 0.929 . S
C135 C132 1.461 1_556 S
C135 C134 1.474 . S
C136 C131 1.342 1_556 S
C136 C134 1.285 . S
C136 H155 0.930 . S
C137 C140 1.424 . S
C137 C142 1.245 . S
C137 C143 1.428 . S
C138 C141 1.260 . S
C138 C142 1.477 . S
C138 H156 0.932 . S
C139 C140 1.384 . S
C139 C141 1.479 . S
C139 H157 0.929 . S
C140 C137 1.424 . S
C140 C139 1.384 . S
C140 H158 0.928 . S
C141 C138 1.260 . S
C141 C139 1.479 . S
C142 C137 1.245 . S
C142 C138 1.477 . S
C142 H159 0.932 . S
C143 U126 2.882 1_556 S
C143 C137 1.428 . S
C143 O146 1.301 . S
C143 O147 1.282 1_556 S
O144 U126 2.441 . S
O144 C130 1.249 . S
O145 U126 2.420 . S
O145 C130 1.202 . S
O146 U126 2.455 1_556 S
O146 C143 1.301 . S
O147 U126 2.449 . S
O147 C143 1.282 1_554 S
H148 C121 0.931 . S
H149 C123 0.929 . S
H150 C124 0.930 . S
H151 C125 0.931 . S
H152 C132 0.932 . S
H153 C133 0.930 . S
H154 C134 0.929 . S
H155 C136 0.930 . S
H156 C138 0.932 . S
H157 C139 0.929 . S
H158 C140 0.928 . S
H159 C142 0.932 . S
C160 C161 1.264 . S
C160 C165 1.479 . S
C160 C170 1.465 . S
C161 C160 1.264 . S
C161 C163 1.339 . S
C161 H188 0.931 . S
C162 C163 1.395 . S
C162 C164 1.320 . S
C163 C161 1.339 . S
C163 C162 1.395 . S
C163 H189 0.929 . S
C164 C162 1.320 . S
C164 C165 1.405 . S
C164 H190 0.930 . S
C165 C160 1.479 . S
C165 C164 1.405 . S
C165 H191 0.931 . S
U166 O167 2.454 . S
U166 O168 2.458 . S
U166 C169 2.984 . S
U166 C170 2.847 1_554 S
U166 C183 2.882 . S
U166 O184 2.441 1_554 S
U166 O185 2.420 . S
U166 O186 2.455 . S
U166 O187 2.449 . S
O167 U166 2.454 . S
O167 C169 1.353 . S
O168 U166 2.458 . S
O168 C169 1.286 . S
C169 U166 2.984 . S
C169 O167 1.353 . S
C169 O168 1.286 . S
C169 C171 1.363 . S
C170 C160 1.465 . S
C170 U166 2.847 1_556 S
C170 O184 1.249 . S
C170 O185 1.202 1_556 S
C171 C169 1.363 . S
C171 C173 1.408 . S
C171 C176 1.342 . S
C172 C173 1.310 . S
C172 C175 1.461 . S
C172 H192 0.932 . S
C173 C171 1.408 . S
C173 C172 1.310 . S
C173 H193 0.930 . S
C174 C175 1.474 . S
C174 C176 1.285 . S
C174 H194 0.929 . S
C175 C172 1.461 . S
C175 C174 1.474 . S
C176 C171 1.342 . S
C176 C174 1.285 . S
C176 H195 0.930 . S
C177 C180 1.424 . S
C177 C182 1.245 . S
C177 C183 1.428 . S
C178 C181 1.260 . S
C178 C182 1.477 . S
C178 H196 0.932 . S
C179 C180 1.384 . S
C179 C181 1.479 . S
C179 H197 0.929 . S
C180 C177 1.424 . S
C180 C179 1.384 . S
C180 H198 0.928 . S
C181 C178 1.260 . S
C181 C179 1.479 . S
C182 C177 1.245 . S
C182 C178 1.477 . S
C182 H199 0.932 . S
C183 U166 2.882 . S
C183 C177 1.428 . S
C183 O186 1.301 . S
C183 O187 1.282 . S
O184 U166 2.441 1_556 S
O184 C170 1.249 . S
O185 U166 2.420 . S
O185 C170 1.202 1_554 S
O186 U166 2.455 . S
O186 C183 1.301 . S
O187 U166 2.449 . S
O187 C183 1.282 . S
H188 C161 0.931 . S
H189 C163 0.929 . S
H190 C164 0.930 . S
H191 C165 0.931 . S
H192 C172 0.932 . S
H193 C173 0.930 . S
H194 C174 0.929 . S
H195 C176 0.930 . S
H196 C178 0.932 . S
H197 C179 0.929 . S
H198 C180 0.928 . S
H199 C182 0.932 . S
C200 C201 1.264 . S
C200 C205 1.479 . S
C200 C210 1.465 . S
C201 C200 1.264 . S
C201 C203 1.339 . S
C201 H228 0.931 . S
C202 C203 1.395 . S
C202 C204 1.320 . S
C203 C201 1.339 . S
C203 C202 1.395 . S
C203 H229 0.929 . S
C204 C202 1.320 . S
C204 C205 1.405 . S
C204 H230 0.930 . S
C205 C200 1.479 . S
C205 C204 1.405 . S
C205 H231 0.931 . S
U206 O207 2.454 . S
U206 O208 2.458 . S
U206 C209 2.984 . S
U206 C210 2.847 1_554 S
U206 C223 2.882 . S
U206 O224 2.441 . S
U206 O225 2.420 . S
U206 O226 2.455 . S
U206 O227 2.449 . S
O207 U206 2.454 . S
O207 C209 1.353 . S
O208 U206 2.458 . S
O208 C209 1.286 . S
C209 U206 2.984 . S
C209 O207 1.353 . S
C209 O208 1.286 . S
C209 C211 1.363 . S
C210 C200 1.465 . S
C210 U206 2.847 1_556 S
C210 O224 1.249 1_556 S
C210 O225 1.202 1_556 S
C211 C209 1.363 . S
C211 C213 1.408 . S
C211 C216 1.342 . S
C212 C213 1.310 . S
C212 C215 1.461 . S
C212 H232 0.932 . S
C213 C211 1.408 . S
C213 C212 1.310 . S
C213 H233 0.930 . S
C214 C215 1.474 . S
C214 C216 1.285 . S
C214 H234 0.929 . S
C215 C212 1.461 . S
C215 C214 1.474 . S
C216 C211 1.342 . S
C216 C214 1.285 . S
C216 H235 0.930 . S
C217 C220 1.424 . S
C217 C222 1.245 . S
C217 C223 1.428 . S
C218 C221 1.260 . S
C218 C222 1.477 . S
C218 H236 0.932 . S
C219 C220 1.384 . S
C219 C221 1.479 . S
C219 H237 0.929 . S
C220 C217 1.424 . S
C220 C219 1.384 . S
C220 H238 0.928 . S
C221 C218 1.260 . S
C221 C219 1.479 . S
C222 C217 1.245 . S
C222 C218 1.477 . S
C222 H239 0.932 . S
C223 U206 2.882 . S
C223 C217 1.428 . S
C223 O226 1.301 . S
C223 O227 1.282 . S
O224 U206 2.441 . S
O224 C210 1.249 1_554 S
O225 U206 2.420 . S
O225 C210 1.202 1_554 S
O226 U206 2.455 . S
O226 C223 1.301 . S
O227 U206 2.449 . S
O227 C223 1.282 . S
H228 C201 0.931 . S
H229 C203 0.929 . S
H230 C204 0.930 . S
H231 C205 0.931 . S
H232 C212 0.932 . S
H233 C213 0.930 . S
H234 C214 0.929 . S
H235 C216 0.930 . S
H236 C218 0.932 . S
H237 C219 0.929 . S
H238 C220 0.928 . S
H239 C222 0.932 . S
C240 C241 1.264 . S
C240 C245 1.479 . S
C240 C250 1.465 . S
C241 C240 1.264 . S
C241 C243 1.339 . S
C241 H268 0.931 . S
C242 C243 1.395 . S
C242 C244 1.320 . S
C243 C241 1.339 . S
C243 C242 1.395 . S
C243 H269 0.929 . S
C244 C242 1.320 . S
C244 C245 1.405 . S
C244 H270 0.926 1_545 S
C245 C240 1.479 . S
C245 C244 1.405 . S
C245 H271 0.931 . S
U246 O247 2.454 . S
U246 O248 2.458 . S
U246 C249 2.984 . S
U246 C250 2.847 1_554 S
U246 C263 2.882 . S
U246 O264 2.441 1_554 S
U246 O265 2.420 . S
U246 O266 2.455 . S
U246 O267 2.449 . S
O247 U246 2.454 . S
O247 C249 1.353 . S
O248 U246 2.458 . S
O248 C249 1.286 . S
C249 U246 2.984 . S
C249 O247 1.353 . S
C249 O248 1.286 . S
C249 C251 1.363 . S
C250 C240 1.465 . S
C250 U246 2.847 1_556 S
C250 O264 1.249 . S
C250 O265 1.202 1_556 S
C251 C249 1.363 . S
C251 C253 1.408 . S
C251 C256 1.342 . S
C252 C253 1.310 . S
C252 C255 1.462 . S
C252 H272 0.932 . S
C253 C251 1.408 . S
C253 C252 1.310 . S
C253 H273 0.930 . S
C254 C255 1.473 1_565 S
C254 C256 1.285 1_565 S
C254 H274 0.929 . S
C255 C252 1.462 . S
C255 C254 1.473 1_545 S
C256 C251 1.342 . S
C256 C254 1.285 1_545 S
C256 H275 0.938 . S
C257 C260 1.424 . S
C257 C262 1.245 . S
C257 C263 1.428 . S
C258 C261 1.260 . S
C258 C262 1.477 . S
C258 H276 0.932 . S
C259 C260 1.384 . S
C259 C261 1.479 . S
C259 H277 0.929 . S
C260 C257 1.424 . S
C260 C259 1.384 . S
C260 H278 0.928 . S
C261 C258 1.260 . S
C261 C259 1.479 . S
C262 C257 1.245 . S
C262 C258 1.477 . S
C262 H279 0.932 . S
C263 U246 2.882 . S
C263 C257 1.428 . S
C263 O266 1.301 . S
C263 O267 1.282 . S
O264 U246 2.441 1_556 S
O264 C250 1.249 . S
O265 U246 2.420 . S
O265 C250 1.202 1_554 S
O266 U246 2.455 . S
O266 C263 1.301 . S
O267 U246 2.449 . S
O267 C263 1.282 . S
H268 C241 0.931 . S
H269 C243 0.929 . S
H270 C244 0.926 1_565 S
H271 C245 0.931 . S
H272 C252 0.932 . S
H273 C253 0.930 . S
H274 C254 0.929 . S
H275 C256 0.938 . S
H276 C258 0.932 . S
H277 C259 0.929 . S
H278 C260 0.928 . S
H279 C262 0.932 . S
C280 C281 1.264 . S
C280 C285 1.479 . S
C280 C290 1.465 . S
C281 C280 1.264 . S
C281 C283 1.339 . S
C281 H308 0.931 . S
C282 C283 1.395 . S
C282 C284 1.320 . S
C283 C281 1.339 . S
C283 C282 1.395 . S
C283 H309 0.929 . S
C284 C282 1.320 . S
C284 C285 1.405 . S
C284 H310 0.930 . S
C285 C280 1.479 . S
C285 C284 1.405 . S
C285 H311 0.931 . S
U286 O287 2.454 . S
U286 O288 2.458 . S
U286 C289 2.984 . S
U286 C290 2.847 1_554 S
U286 C303 2.882 . S
U286 O304 2.441 1_554 S
U286 O305 2.420 1_554 S
U286 O306 2.455 . S
U286 O307 2.449 . S
O287 U286 2.454 . S
O287 C289 1.353 . S
O288 U286 2.458 . S
O288 C289 1.286 . S
C289 U286 2.984 . S
C289 O287 1.353 . S
C289 O288 1.286 . S
C289 C291 1.363 . S
C290 C280 1.465 . S
C290 U286 2.847 1_556 S
C290 O304 1.249 . S
C290 O305 1.202 . S
C291 C289 1.363 . S
C291 C293 1.408 . S
C291 C296 1.342 . S
C292 C293 1.310 . S
C292 C295 1.461 . S
C292 H312 0.932 . S
C293 C291 1.408 . S
C293 C292 1.310 . S
C293 H313 0.930 . S
C294 C295 1.474 . S
C294 C296 1.285 . S
C294 H314 0.929 . S
C295 C292 1.461 . S
C295 C294 1.474 . S
C296 C291 1.342 . S
C296 C294 1.285 . S
C296 H315 0.930 . S
C297 C300 1.424 . S
C297 C302 1.245 . S
C297 C303 1.428 . S
C298 C301 1.260 . S
C298 C302 1.477 . S
C298 H316 0.932 . S
C299 C300 1.384 . S
C299 C301 1.479 . S
C299 H317 0.929 . S
C300 C297 1.424 . S
C300 C299 1.384 . S
C300 H318 0.928 . S
C301 C298 1.260 . S
C301 C299 1.479 . S
C302 C297 1.245 . S
C302 C298 1.477 . S
C302 H319 0.932 . S
C303 U286 2.882 . S
C303 C297 1.428 . S
C303 O306 1.301 . S
C303 O307 1.282 . S
O304 U286 2.441 1_556 S
O304 C290 1.249 . S
O305 U286 2.420 1_556 S
O305 C290 1.202 . S
O306 U286 2.455 . S
O306 C303 1.301 . S
O307 U286 2.449 . S
O307 C303 1.282 . S
H308 C281 0.931 . S
H309 C283 0.929 . S
H310 C284 0.930 . S
H311 C285 0.931 . S
H312 C292 0.932 . S
H313 C293 0.930 . S
H314 C294 0.929 . S
H315 C296 0.930 . S
H316 C298 0.932 . S
H317 C299 0.929 . S
H318 C300 0.928 . S
H319 C302 0.932 . S
Dy320 O324 2.398 . S
Dy320 O325 2.491 1_455 S
Dy320 O326 2.403 . S
Dy320 O327 2.664 1_565 S
Dy320 O331 2.326 . S
Dy320 O335 2.310 1_455 S
Dy320 O336 2.351 1_565 S
C321 O332 1.185 1_455 S
C321 O333 1.355 . S
C322 O324 1.185 . S
C322 O325 1.355 1_455 S
Dy323 O327 2.310 1_655 S
Dy323 O330 2.351 1_545 S
Dy323 O332 2.398 . S
Dy323 O333 2.491 1_655 S
Dy323 O334 2.403 . S
Dy323 O335 2.664 1_545 S
Dy323 O337 2.326 1_655 S
O324 Dy320 2.398 . S
O324 C322 1.185 . S
O325 Dy320 2.491 1_655 S
O325 C322 1.355 1_655 S
O326 Dy320 2.403 . S
O326 C328 1.254 . S
O327 Dy320 2.664 1_545 S
O327 Dy323 2.310 1_455 S
O327 C328 1.268 1_545 S
C328 O326 1.254 . S
C328 O327 1.268 1_565 S
C329 O334 1.254 . S
C329 O335 1.268 1_545 S
O330 Dy323 2.351 1_565 S
O330 C338 1.249 . S
O331 Dy320 2.326 . S
O331 C338 1.267 1_455 S
O332 C321 1.185 1_655 S
O332 Dy323 2.398 . S
O333 C321 1.355 . S
O333 Dy323 2.491 1_455 S
O334 Dy323 2.403 . S
O334 C329 1.254 . S
O335 Dy320 2.310 1_655 S
O335 Dy323 2.664 1_565 S
O335 C329 1.268 1_565 S
O336 Dy320 2.351 1_545 S
O336 C339 1.249 . S
O337 Dy323 2.326 1_455 S
O337 C339 1.267 . S
C338 O330 1.249 . S
C338 O331 1.267 1_655 S
C339 O336 1.249 . S
C339 O337 1.267 . S
Dy340 O344 2.398 . S
Dy340 O345 2.491 . S
Dy340 O346 2.403 . S
Dy340 O347 2.664 . S
Dy340 O351 2.326 1_565 S
Dy340 O355 2.310 1_565 S
Dy340 O356 2.351 . S
C341 O352 1.185 . S
C341 O353 1.355 . S
C342 O344 1.185 . S
C342 O345 1.355 . S
Dy343 O347 2.310 1_545 S
Dy343 O350 2.351 . S
Dy343 O352 2.398 . S
Dy343 O353 2.491 . S
Dy343 O354 2.403 . S
Dy343 O355 2.664 . S
Dy343 O357 2.326 1_545 S
O344 Dy340 2.398 . S
O344 C342 1.185 . S
O345 Dy340 2.491 . S
O345 C342 1.355 . S
O346 Dy340 2.403 . S
O346 C348 1.254 . S
O347 Dy340 2.664 . S
O347 Dy343 2.310 1_565 S
O347 C348 1.268 . S
C348 O346 1.254 . S
C348 O347 1.268 . S
C349 O354 1.254 . S
C349 O355 1.268 . S
O350 Dy343 2.351 . S
O350 C358 1.249 . S
O351 Dy340 2.326 1_545 S
O351 C358 1.267 . S
O352 C341 1.185 . S
O352 Dy343 2.398 . S
O353 C341 1.355 . S
O353 Dy343 2.491 . S
O354 Dy343 2.403 . S
O354 C349 1.254 . S
O355 Dy340 2.310 1_545 S
O355 Dy343 2.664 . S
O355 C349 1.268 . S
O356 Dy340 2.351 . S
O356 C359 1.249 . S
O357 Dy343 2.326 1_565 S
O357 C359 1.267 . S
C358 O350 1.249 . S
C358 O351 1.267 . S
C359 O356 1.249 . S
C359 O357 1.267 . S
Dy360 O364 2.398 . S
Dy360 O365 2.491 . S
Dy360 O366 2.403 . S
Dy360 O367 2.664 . S
Dy360 O371 2.326 . S
Dy360 O375 2.310 . S
Dy360 O376 2.351 . S
C361 O372 1.185 . S
C361 O373 1.355 . S
C362 O364 1.185 . S
C362 O365 1.355 . S
Dy363 O367 2.310 . S
Dy363 O370 2.351 . S
Dy363 O372 2.398 . S
Dy363 O373 2.491 . S
Dy363 O374 2.403 . S
Dy363 O375 2.664 . S
Dy363 O377 2.326 . S
O364 Dy360 2.398 . S
O364 C362 1.185 . S
O365 Dy360 2.491 . S
O365 C362 1.355 . S
O366 Dy360 2.403 . S
O366 C368 1.254 . S
O367 Dy360 2.664 . S
O367 Dy363 2.310 . S
O367 C368 1.268 . S
C368 O366 1.254 . S
C368 O367 1.268 . S
C369 O374 1.254 . S
C369 O375 1.268 . S
O370 Dy363 2.351 . S
O370 C378 1.249 . S
O371 Dy360 2.326 . S
O371 C378 1.267 . S
O372 C361 1.185 . S
O372 Dy363 2.398 . S
O373 C361 1.355 . S
O373 Dy363 2.491 . S
O374 Dy363 2.403 . S
O374 C369 1.254 . S
O375 Dy360 2.310 . S
O375 Dy363 2.664 . S
O375 C369 1.268 . S
O376 Dy360 2.351 . S
O376 C379 1.249 . S
O377 Dy363 2.326 . S
O377 C379 1.267 . S
C378 O370 1.249 . S
C378 O371 1.267 . S
C379 O376 1.249 . S
C379 O377 1.267 . S
Dy380 O384 2.398 . S
Dy380 O385 2.491 . S
Dy380 O386 2.403 1_655 S
Dy380 O387 2.664 1_655 S
Dy380 O391 2.326 . S
Dy380 O395 2.310 . S
Dy380 O396 2.351 1_655 S
C381 O392 1.185 . S
C381 O393 1.355 . S
C382 O384 1.185 . S
C382 O385 1.355 . S
Dy383 O387 2.310 . S
Dy383 O390 2.351 1_455 S
Dy383 O392 2.398 . S
Dy383 O393 2.491 . S
Dy383 O394 2.403 . S
Dy383 O395 2.664 1_455 S
Dy383 O397 2.326 . S
O384 Dy380 2.398 . S
O384 C382 1.185 . S
O385 Dy380 2.491 . S
O385 C382 1.355 . S
O386 Dy380 2.403 1_455 S
O386 C388 1.254 . S
O387 Dy380 2.664 1_455 S
O387 Dy383 2.310 . S
O387 C388 1.268 . S
C388 O386 1.254 . S
C388 O387 1.268 . S
C389 O394 1.254 1_655 S
C389 O395 1.268 . S
O390 Dy383 2.351 1_655 S
O390 C398 1.249 . S
O391 Dy380 2.326 . S
O391 C398 1.267 . S
O392 C381 1.185 . S
O392 Dy383 2.398 . S
O393 C381 1.355 . S
O393 Dy383 2.491 . S
O394 Dy383 2.403 . S
O394 C389 1.254 1_455 S
O395 Dy380 2.310 . S
O395 Dy383 2.664 1_655 S
O395 C389 1.268 . S
O396 Dy380 2.351 1_455 S
O396 C399 1.249 . S
O397 Dy383 2.326 . S
O397 C399 1.267 . S
C398 O390 1.249 . S
C398 O391 1.267 . S
C399 O396 1.249 . S
C399 O397 1.267 . S
H400 C406 0.930 . S
H401 C410 0.930 . S
H402 C415 0.929 . S
H403 C413 0.929 . S
H404 C408 0.929 . S
H405 C414 0.929 . S
C406 H400 0.930 . S
C406 C407 1.394 . S
C406 C414 1.378 . S
C407 C406 1.394 . S
C407 C415 1.405 1_565 S
C408 H404 0.929 . S
C408 C410 1.378 . S
C408 C412 1.350 1_545 S
C409 C412 1.463 . S
C409 C414 1.350 . S
C409 N417 1.427 1_565 S
C410 H401 0.930 . S
C410 C408 1.378 . S
C410 C411 1.367 1_545 S
C411 C410 1.367 1_565 S
C411 C413 1.433 . S
C412 C408 1.350 1_565 S
C412 C409 1.463 . S
C412 N416 1.427 . S
C413 H403 0.929 . S
C413 C411 1.433 . S
C413 N416 1.384 . S
C414 H405 0.929 . S
C414 C406 1.378 . S
C414 C409 1.350 . S
C415 H402 0.929 . S
C415 C407 1.405 1_545 S
C415 N417 1.384 . S
N416 C412 1.427 . S
N416 C413 1.384 . S
N417 C409 1.427 1_545 S
N417 C415 1.384 . S
H418 C424 0.930 . S
H419 C428 0.930 . S
H420 C433 0.929 . S
H421 C431 0.929 . S
H422 C426 0.929 . S
H423 C432 0.929 . S
C424 H418 0.930 . S
C424 C425 1.367 . S
C424 C432 1.378 . S
C425 C424 1.367 . S
C425 C433 1.433 . S
C426 H422 0.929 . S
C426 C428 1.378 . S
C426 C430 1.350 . S
C427 C430 1.463 . S
C427 C432 1.350 . S
C427 N435 1.427 . S
C428 H419 0.930 . S
C428 C426 1.378 . S
C428 C429 1.367 . S
C429 C428 1.367 . S
C429 C431 1.433 . S
C430 C426 1.350 . S
C430 C427 1.463 . S
C430 N434 1.427 . S
C431 H421 0.929 . S
C431 C429 1.433 . S
C431 N434 1.384 . S
C432 H423 0.929 . S
C432 C424 1.378 . S
C432 C427 1.350 . S
C433 H420 0.929 . S
C433 C425 1.433 . S
C433 N435 1.384 . S
N434 C430 1.427 . S
N434 C431 1.384 . S
N435 C427 1.427 . S
N435 C433 1.384 . S
H436 C442 0.930 . S
H437 C446 0.930 . S
H438 C451 0.929 . S
H439 C449 0.929 . S
H440 C444 0.929 . S
H441 C450 0.929 . S
C442 H436 0.930 . S
C442 C443 1.367 . S
C442 C450 1.378 . S
C443 C442 1.367 . S
C443 C451 1.433 . S
C444 H440 0.929 . S
C444 C446 1.378 . S
C444 C448 1.350 . S
C445 C448 1.463 . S
C445 C450 1.350 . S
C445 N453 1.427 . S
C446 H437 0.930 . S
C446 C444 1.378 . S
C446 C447 1.367 . S
C447 C446 1.367 . S
C447 C449 1.433 . S
C448 C444 1.350 . S
C448 C445 1.463 . S
C448 N452 1.427 . S
C449 H439 0.929 . S
C449 C447 1.433 . S
C449 N452 1.384 . S
C450 H441 0.929 . S
C450 C442 1.378 . S
C450 C445 1.350 . S
C451 H438 0.929 . S
C451 C443 1.433 . S
C451 N453 1.384 . S
N452 C448 1.427 . S
N452 C449 1.384 . S
N453 C445 1.427 . S
N453 C451 1.384 . S
H454 C460 0.930 . S
H455 C464 0.930 . S
H456 C469 0.929 . S
H457 C467 0.929 . S
H458 C462 0.929 . S
H459 C468 0.929 . S
C460 H454 0.930 . S
C460 C461 1.367 . S
C460 C468 1.378 . S
C461 C460 1.367 . S
C461 C469 1.433 . S
C462 H458 0.929 . S
C462 C464 1.378 . S
C462 C466 1.350 . S
C463 C466 1.463 . S
C463 C468 1.350 . S
C463 N471 1.427 . S
C464 H455 0.930 . S
C464 C462 1.378 . S
C464 C465 1.367 . S
C465 C464 1.367 . S
C465 C467 1.433 . S
C466 C462 1.350 . S
C466 C463 1.463 . S
C466 N470 1.427 . S
C467 H457 0.929 . S
C467 C465 1.433 . S
C467 N470 1.384 . S
C468 H459 0.929 . S
C468 C460 1.378 . S
C468 C463 1.350 . S
C469 H456 0.929 . S
C469 C461 1.433 . S
C469 N471 1.384 . S
N470 C466 1.427 . S
N470 C467 1.384 . S
N471 C463 1.427 . S
N471 C469 1.384 . S
H472 C478 0.930 . S
H473 C482 0.930 . S
H474 C487 0.929 . S
H475 C485 0.929 . S
H476 C480 0.929 . S
H477 C486 0.929 . S
C478 H472 0.930 . S
C478 C479 1.367 . S
C478 C486 1.378 . S
C479 C478 1.367 . S
C479 C487 1.433 1_545 S
C480 H476 0.929 . S
C480 C482 1.378 . S
C480 C484 1.350 1_565 S
C481 C484 1.463 . S
C481 C486 1.350 . S
C481 N489 1.427 1_545 S
C482 H473 0.930 . S
C482 C480 1.378 . S
C482 C483 1.367 1_565 S
C483 C482 1.367 1_545 S
C483 C485 1.433 . S
C484 C480 1.350 1_545 S
C484 C481 1.463 . S
C484 N488 1.427 . S
C485 H475 0.929 . S
C485 C483 1.433 . S
C485 N488 1.384 . S
C486 H477 0.929 . S
C486 C478 1.378 . S
C486 C481 1.350 . S
C487 H474 0.929 . S
C487 C479 1.433 1_565 S
C487 N489 1.384 . S
N488 C484 1.427 . S
N488 C485 1.384 . S
N489 C481 1.427 1_565 S
N489 C487 1.384 . S
H490 C496 0.930 . S
H491 C500 0.930 . S
H492 C505 0.929 . S
H493 C503 0.929 . S
H494 C498 0.929 . S
H495 C504 0.929 . S
C496 H490 0.930 . S
C496 C497 1.367 . S
C496 C504 1.378 . S
C497 C496 1.367 . S
C497 C505 1.433 . S
C498 H494 0.929 . S
C498 C500 1.378 . S
C498 C502 1.350 . S
C499 C502 1.463 . S
C499 C504 1.350 . S
C499 N507 1.427 . S
C500 H491 0.930 . S
C500 C498 1.378 . S
C500 C501 1.367 . S
C501 C500 1.367 . S
C501 C503 1.433 . S
C502 C498 1.350 . S
C502 C499 1.463 . S
C502 N506 1.427 . S
C503 H493 0.929 . S
C503 C501 1.433 . S
C503 N506 1.384 . S
C504 H495 0.929 . S
C504 C496 1.378 . S
C504 C499 1.350 . S
C505 H492 0.929 . S
C505 C497 1.433 . S
C505 N507 1.384 . S
N506 C502 1.427 . S
N506 C503 1.384 . S
N507 C499 1.427 . S
N507 C505 1.384 . S
H508 C514 0.930 . S
H509 C518 0.930 . S
H510 C523 0.929 . S
H511 C521 0.929 . S
H512 C516 0.929 . S
H513 C522 0.929 . S
C514 H508 0.930 . S
C514 C515 1.367 . S
C514 C522 1.378 . S
C515 C514 1.367 . S
C515 C523 1.433 . S
C516 H512 0.929 . S
C516 C518 1.378 . S
C516 C520 1.350 . S
C517 C520 1.463 . S
C517 C522 1.350 . S
C517 N525 1.427 . S
C518 H509 0.930 . S
C518 C516 1.378 . S
C518 C519 1.367 . S
C519 C518 1.367 . S
C519 C521 1.433 . S
C520 C516 1.350 . S
C520 C517 1.463 . S
C520 N524 1.427 . S
C521 H511 0.929 . S
C521 C519 1.433 . S
C521 N524 1.384 . S
C522 H513 0.929 . S
C522 C514 1.378 . S
C522 C517 1.350 . S
C523 H510 0.929 . S
C523 C515 1.433 . S
C523 N525 1.384 . S
N524 C520 1.427 . S
N524 C521 1.384 . S
N525 C517 1.427 . S
N525 C523 1.384 . S
H526 C532 0.930 . S
H527 C536 0.930 1_455 S
H528 C541 0.929 . S
H529 C539 0.929 . S
H530 C534 0.929 . S
H531 C540 0.929 . S
C532 H526 0.930 . S
C532 C533 1.367 . S
C532 C540 1.378 . S
C533 C532 1.367 . S
C533 C541 1.433 . S
C534 H530 0.929 . S
C534 C536 1.378 . S
C534 C538 1.350 . S
C535 C538 1.463 . S
C535 C540 1.350 . S
C535 N543 1.427 . S
C536 H527 0.930 1_655 S
C536 C534 1.378 . S
C536 C537 1.367 . S
C537 C536 1.367 . S
C537 C539 1.433 . S
C538 C534 1.350 . S
C538 C535 1.463 . S
C538 N542 1.427 . S
C539 H529 0.929 . S
C539 C537 1.433 . S
C539 N542 1.384 . S
C540 H531 0.929 . S
C540 C532 1.378 . S
C540 C535 1.350 . S
C541 H528 0.929 . S
C541 C533 1.433 . S
C541 N543 1.384 . S
N542 C538 1.427 . S
N542 C539 1.384 . S
N543 C535 1.427 . S
N543 C541 1.384 . S
H544 C550 0.930 . S
H545 C554 0.930 . S
H546 C559 0.929 . S
H547 C557 0.929 1_655 S
H548 C552 0.929 . S
H549 C558 0.929 . S
C550 H544 0.930 . S
C550 C551 1.367 . S
C550 C558 1.378 . S
C551 C550 1.367 . S
C551 C559 1.433 . S
C552 H548 0.929 . S
C552 C554 1.378 . S
C552 C556 1.350 . S
C553 C556 1.463 . S
C553 C558 1.350 . S
C553 N561 1.427 . S
C554 H545 0.930 . S
C554 C552 1.378 . S
C554 C555 1.367 . S
C555 C554 1.367 . S
C555 C557 1.433 . S
C556 C552 1.350 . S
C556 C553 1.463 . S
C556 N560 1.427 . S
C557 H547 0.929 1_455 S
C557 C555 1.433 . S
C557 N560 1.384 . S
C558 H549 0.929 . S
C558 C550 1.378 . S
C558 C553 1.350 . S
C559 H546 0.929 . S
C559 C551 1.433 . S
C559 N561 1.384 . S
N560 C556 1.427 . S
N560 C557 1.384 . S
N561 C553 1.427 . S
N561 C559 1.384 . S
H562 C568 0.930 . S
H563 C572 0.930 . S
H564 C577 0.929 . S
H565 C575 0.929 . S
H566 C570 0.929 1_545 S
H567 C576 0.929 . S
C568 H562 0.930 . S
C568 C569 1.367 1_565 S
C568 C576 1.378 . S
C569 C568 1.367 1_545 S
C569 C577 1.433 . S
C570 H566 0.929 1_565 S
C570 C572 1.378 . S
C570 C574 1.350 . S
C571 C574 1.463 . S
C571 C576 1.350 . S
C571 N579 1.427 1_565 S
C572 H563 0.930 . S
C572 C570 1.378 . S
C572 C573 1.367 . S
C573 C572 1.367 . S
C573 C575 1.433 . S
C574 C570 1.350 . S
C574 C571 1.463 . S
C574 N578 1.427 . S
C575 H565 0.929 . S
C575 C573 1.433 . S
C575 N578 1.384 . S
C576 H567 0.929 . S
C576 C568 1.378 . S
C576 C571 1.350 . S
C577 H564 0.929 . S
C577 C569 1.433 . S
C577 N579 1.384 . S
N578 C574 1.427 . S
N578 C575 1.384 . S
N579 C571 1.427 1_545 S
N579 C577 1.384 . S
H580 C586 0.930 . S
H581 C590 0.930 . S
H582 C595 0.929 . S
H583 C593 0.929 . S
H584 C588 0.929 . S
H585 C594 0.929 . S
C586 H580 0.930 . S
C586 C587 1.367 . S
C586 C594 1.378 . S
C587 C586 1.367 . S
C587 C595 1.433 . S
C588 H584 0.929 . S
C588 C590 1.378 . S
C588 C592 1.350 . S
C589 C592 1.463 . S
C589 C594 1.350 . S
C589 N597 1.427 . S
C590 H581 0.930 . S
C590 C588 1.378 . S
C590 C591 1.367 . S
C591 C590 1.367 . S
C591 C593 1.433 . S
C592 C588 1.350 . S
C592 C589 1.463 . S
C592 N596 1.427 . S
C593 H583 0.929 . S
C593 C591 1.433 . S
C593 N596 1.384 . S
C594 H585 0.929 . S
C594 C586 1.378 . S
C594 C589 1.350 . S
C595 H582 0.929 . S
C595 C587 1.433 . S
C595 N597 1.384 . S
N596 C592 1.427 . S
N596 C593 1.384 . S
N597 C589 1.427 . S
N597 C595 1.384 . S
H598 C604 0.930 . S
H599 C608 0.930 . S
H600 C613 0.929 . S
H601 C611 0.929 . S
H602 C606 0.929 . S
H603 C612 0.929 . S
C604 H598 0.930 . S
C604 C605 1.367 . S
C604 C612 1.378 . S
C605 C604 1.367 . S
C605 C613 1.433 . S
C606 H602 0.929 . S
C606 C608 1.378 . S
C606 C610 1.350 . S
C607 C610 1.463 . S
C607 C612 1.350 . S
C607 N615 1.427 . S
C608 H599 0.930 . S
C608 C606 1.378 . S
C608 C609 1.367 . S
C609 C608 1.367 . S
C609 C611 1.433 . S
C610 C606 1.350 . S
C610 C607 1.463 . S
C610 N614 1.427 . S
C611 H601 0.929 . S
C611 C609 1.433 . S
C611 N614 1.384 . S
C612 H603 0.929 . S
C612 C604 1.378 . S
C612 C607 1.350 . S
C613 H600 0.929 . S
C613 C605 1.433 . S
C613 N615 1.384 . S
N614 C610 1.427 . S
N614 C611 1.384 . S
N615 C607 1.427 . S
N615 C613 1.384 . S
H616 C622 0.930 . S
H617 C626 0.930 1_455 S
H618 C631 0.929 . S
H619 C629 0.929 . S
H620 C624 0.929 . S
H621 C630 0.929 . S
C622 H616 0.930 . S
C622 C623 1.367 . S
C622 C630 1.378 . S
C623 C622 1.367 . S
C623 C631 1.433 . S
C624 H620 0.929 . S
C624 C626 1.378 . S
C624 C628 1.350 . S
C625 C628 1.463 . S
C625 C630 1.350 . S
C625 N633 1.427 . S
C626 H617 0.930 1_655 S
C626 C624 1.378 . S
C626 C627 1.367 . S
C627 C626 1.367 . S
C627 C629 1.433 . S
C628 C624 1.350 . S
C628 C625 1.463 . S
C628 N632 1.427 . S
C629 H619 0.929 . S
C629 C627 1.433 . S
C629 N632 1.384 . S
C630 H621 0.929 . S
C630 C622 1.378 . S
C630 C625 1.350 . S
C631 H618 0.929 . S
C631 C623 1.433 . S
C631 N633 1.384 . S
N632 C628 1.427 . S
N632 C629 1.384 . S
N633 C625 1.427 . S
N633 C631 1.384 . S
H634 C640 0.930 . S
H635 C644 0.930 . S
H636 C649 0.929 . S
H637 C647 0.929 . S
H638 C642 0.929 . S
H639 C648 0.929 . S
C640 H634 0.930 . S
C640 C641 1.367 . S
C640 C648 1.378 . S
C641 C640 1.367 . S
C641 C649 1.433 1_565 S
C642 H638 0.929 . S
C642 C644 1.378 . S
C642 C646 1.350 . S
C643 C646 1.463 . S
C643 C648 1.350 1_545 S
C643 N651 1.427 . S
C644 H635 0.930 . S
C644 C642 1.378 . S
C644 C645 1.367 . S
C645 C644 1.367 . S
C645 C647 1.433 . S
C646 C642 1.350 . S
C646 C643 1.463 . S
C646 N650 1.427 . S
C647 H637 0.929 . S
C647 C645 1.433 . S
C647 N650 1.384 . S
C648 H639 0.929 . S
C648 C640 1.378 . S
C648 C643 1.350 1_565 S
C649 H636 0.929 . S
C649 C641 1.433 1_545 S
C649 N651 1.384 . S
N650 C646 1.427 . S
N650 C647 1.384 . S
N651 C643 1.427 . S
N651 C649 1.384 . S
H652 C658 0.930 . S
H653 C662 0.930 . S
H654 C667 0.929 . S
H655 C665 0.929 . S
H656 C660 0.929 . S
H657 C666 0.929 . S
C658 H652 0.930 . S
C658 C659 1.367 . S
C658 C666 1.378 . S
C659 C658 1.367 . S
C659 C667 1.433 . S
C660 H656 0.929 . S
C660 C662 1.378 . S
C660 C664 1.350 . S
C661 C664 1.463 . S
C661 C666 1.350 . S
C661 N669 1.427 . S
C662 H653 0.930 . S
C662 C660 1.378 . S
C662 C663 1.367 . S
C663 C662 1.367 . S
C663 C665 1.433 . S
C664 C660 1.350 . S
C664 C661 1.463 . S
C664 N668 1.427 . S
C665 H655 0.929 . S
C665 C663 1.433 . S
C665 N668 1.384 . S
C666 H657 0.929 . S
C666 C658 1.378 . S
C666 C661 1.350 . S
C667 H654 0.929 . S
C667 C659 1.433 . S
C667 N669 1.384 . S
N668 C664 1.427 . S
N668 C665 1.384 . S
N669 C661 1.427 . S
N669 C667 1.384 . S
H670 C676 0.930 . S
H671 C680 0.930 . S
H672 C685 0.929 . S
H673 C683 0.929 . S
H674 C678 0.929 . S
H675 C684 0.929 . S
C676 H670 0.930 . S
C676 C677 1.367 . S
C676 C684 1.378 . S
C677 C676 1.367 . S
C677 C685 1.433 . S
C678 H674 0.929 . S
C678 C680 1.378 . S
C678 C682 1.350 . S
C679 C682 1.463 . S
C679 C684 1.350 . S
C679 N687 1.427 . S
C680 H671 0.930 . S
C680 C678 1.378 . S
C680 C681 1.367 . S
C681 C680 1.367 . S
C681 C683 1.433 . S
C682 C678 1.350 . S
C682 C679 1.463 . S
C682 N686 1.427 . S
C683 H673 0.929 . S
C683 C681 1.433 . S
C683 N686 1.384 . S
C684 H675 0.929 . S
C684 C676 1.378 . S
C684 C679 1.350 . S
C685 H672 0.929 . S
C685 C677 1.433 . S
C685 N687 1.384 . S
N686 C682 1.427 . S
N686 C683 1.384 . S
N687 C679 1.427 . S
N687 C685 1.384 . S
H688 C694 0.930 . S
H689 C698 0.930 . S
H690 C703 0.929 . S
H691 C701 0.929 . S
H692 C696 0.929 . S
H693 C702 0.929 . S
C694 H688 0.930 . S
C694 C695 1.367 . S
C694 C702 1.378 . S
C695 C694 1.367 . S
C695 C703 1.433 . S
C696 H692 0.929 . S
C696 C698 1.378 . S
C696 C700 1.350 . S
C697 C700 1.463 . S
C697 C702 1.350 . S
C697 N705 1.427 . S
C698 H689 0.930 . S
C698 C696 1.378 . S
C698 C699 1.367 . S
C699 C698 1.367 . S
C699 C701 1.433 . S
C700 C696 1.350 . S
C700 C697 1.463 . S
C700 N704 1.427 . S
C701 H691 0.929 . S
C701 C699 1.433 . S
C701 N704 1.384 . S
C702 H693 0.929 . S
C702 C694 1.378 . S
C702 C697 1.350 . S
C703 H690 0.929 . S
C703 C695 1.433 . S
C703 N705 1.384 . S
N704 C700 1.427 . S
N704 C701 1.384 . S
N705 C697 1.427 . S
N705 C703 1.384 . S
H706 C712 0.930 . S
H707 C716 0.930 . S
H708 C721 0.929 . S
H709 C719 0.929 . S
H710 C714 0.929 . S
H711 C720 0.929 . S
C712 H706 0.930 . S
C712 C713 1.357 1_565 S
C712 C720 1.378 . S
C713 C712 1.357 1_545 S
C713 C721 1.443 . S
C714 H710 0.929 . S
C714 C716 1.378 . S
C714 C718 1.350 . S
C715 C718 1.463 . S
C715 C720 1.350 1_545 S
C715 N723 1.427 . S
C716 H707 0.930 . S
C716 C714 1.378 . S
C716 C717 1.367 . S
C717 C716 1.367 . S
C717 C719 1.433 1_545 S
C718 C714 1.350 . S
C718 C715 1.463 . S
C718 N722 1.427 1_545 S
C719 H709 0.929 . S
C719 C717 1.433 1_565 S
C719 N722 1.384 . S
C720 H711 0.929 . S
C720 C712 1.378 . S
C720 C715 1.350 1_565 S
C721 H708 0.929 . S
C721 C713 1.443 . S
C721 N723 1.384 . S
N722 C718 1.427 1_565 S
N722 C719 1.384 . S
N723 C715 1.427 . S
N723 C721 1.384 . S
H724 C730 0.930 . S
H725 C734 0.930 . S
H726 C739 0.929 . S
H727 C737 0.929 . S
H728 C732 0.929 . S
H729 C738 0.929 . S
C730 H724 0.930 . S
C730 C731 1.367 . S
C730 C738 1.378 . S
C731 C730 1.367 . S
C731 C739 1.433 . S
C732 H728 0.929 . S
C732 C734 1.378 . S
C732 C736 1.350 . S
C733 C736 1.463 . S
C733 C738 1.350 . S
C733 N741 1.427 . S
C734 H725 0.930 . S
C734 C732 1.378 . S
C734 C735 1.367 . S
C735 C734 1.367 . S
C735 C737 1.433 . S
C736 C732 1.350 . S
C736 C733 1.463 . S
C736 N740 1.427 . S
C737 H727 0.929 . S
C737 C735 1.433 . S
C737 N740 1.384 . S
C738 H729 0.929 . S
C738 C730 1.378 . S
C738 C733 1.350 . S
C739 H726 0.929 . S
C739 C731 1.433 . S
C739 N741 1.384 . S
N740 C736 1.427 . S
N740 C737 1.384 . S
N741 C733 1.427 . S
N741 C739 1.384 . S
H742 C748 0.930 . S
H743 C752 0.930 . S
H744 C757 0.929 . S
H745 C755 0.929 . S
H746 C750 0.929 . S
H747 C756 0.929 . S
C748 H742 0.930 . S
C748 C749 1.367 . S
C748 C756 1.378 . S
C749 C748 1.367 . S
C749 C757 1.433 . S
C750 H746 0.929 . S
C750 C752 1.378 . S
C750 C754 1.350 . S
C751 C754 1.463 . S
C751 C756 1.350 . S
C751 N759 1.427 . S
C752 H743 0.930 . S
C752 C750 1.378 . S
C752 C753 1.367 . S
C753 C752 1.367 . S
C753 C755 1.433 . S
C754 C750 1.350 . S
C754 C751 1.463 . S
C754 N758 1.427 . S
C755 H745 0.929 . S
C755 C753 1.433 . S
C755 N758 1.384 . S
C756 H747 0.929 . S
C756 C748 1.378 . S
C756 C751 1.350 . S
C757 H744 0.929 . S
C757 C749 1.433 . S
C757 N759 1.384 . S
N758 C754 1.427 . S
N758 C755 1.384 . S
N759 C751 1.427 . S
N759 C757 1.384 . S
H760 C766 0.930 . S
H761 C770 0.930 . S
H762 C775 0.929 . S
H763 C773 0.929 . S
H764 C768 0.929 . S
H765 C774 0.929 . S
C766 H760 0.930 . S
C766 C767 1.367 . S
C766 C774 1.378 . S
C767 C766 1.367 . S
C767 C775 1.433 . S
C768 H764 0.929 . S
C768 C770 1.378 . S
C768 C772 1.350 . S
C769 C772 1.463 . S
C769 C774 1.350 . S
C769 N777 1.427 . S
C770 H761 0.930 . S
C770 C768 1.378 . S
C770 C771 1.367 . S
C771 C770 1.367 . S
C771 C773 1.433 . S
C772 C768 1.350 . S
C772 C769 1.463 . S
C772 N776 1.427 . S
C773 H763 0.929 . S
C773 C771 1.433 . S
C773 N776 1.384 . S
C774 H765 0.929 . S
C774 C766 1.378 . S
C774 C769 1.350 . S
C775 H762 0.929 . S
C775 C767 1.433 . S
C775 N777 1.384 . S
N776 C772 1.427 . S
N776 C773 1.384 . S
N777 C769 1.427 . S
N777 C775 1.384 . S
H778 C784 0.930 . S
H779 C788 0.930 . S
H780 C793 0.929 . S
H781 C791 0.929 . S
H782 C786 0.929 . S
H783 C792 0.929 . S
C784 H778 0.930 . S
C784 C785 1.381 . S
C784 C792 1.378 . S
C785 C784 1.381 . S
C785 C793 1.416 1_565 S
C786 H782 0.929 . S
C786 C788 1.378 . S
C786 C790 1.350 1_545 S
C787 C790 1.463 . S
C787 C792 1.350 . S
C787 N795 1.427 1_565 S
C788 H779 0.930 . S
C788 C786 1.378 . S
C788 C789 1.367 1_545 S
C789 C788 1.367 1_565 S
C789 C791 1.433 . S
C790 C786 1.350 1_565 S
C790 C787 1.463 . S
C790 N794 1.427 . S
C791 H781 0.929 . S
C791 C789 1.433 . S
C791 N794 1.384 . S
C792 H783 0.929 . S
C792 C784 1.378 . S
C792 C787 1.350 . S
C793 H780 0.929 . S
C793 C785 1.416 1_545 S
C793 N795 1.384 . S
N794 C790 1.427 . S
N794 C791 1.384 . S
N795 C787 1.427 1_545 S
N795 C793 1.384 . S
H796 C802 0.930 . S
H797 C806 0.930 . S
H798 C811 0.929 . S
H799 C809 0.929 . S
H800 C804 0.929 . S
H801 C810 0.929 . S
C802 H796 0.930 . S
C802 C803 1.367 . S
C802 C810 1.378 . S
C803 C802 1.367 . S
C803 C811 1.433 . S
C804 H800 0.929 . S
C804 C806 1.378 . S
C804 C808 1.350 . S
C805 C808 1.463 . S
C805 C810 1.350 . S
C805 N813 1.427 . S
C806 H797 0.930 . S
C806 C804 1.378 . S
C806 C807 1.367 . S
C807 C806 1.367 . S
C807 C809 1.433 . S
C808 C804 1.350 . S
C808 C805 1.463 . S
C808 N812 1.427 . S
C809 H799 0.929 . S
C809 C807 1.433 . S
C809 N812 1.384 . S
C810 H801 0.929 . S
C810 C802 1.378 . S
C810 C805 1.350 . S
C811 H798 0.929 . S
C811 C803 1.433 . S
C811 N813 1.384 . S
N812 C808 1.427 . S
N812 C809 1.384 . S
N813 C805 1.427 . S
N813 C811 1.384 . S
H814 C820 0.930 . S
H815 C824 0.930 . S
H816 C829 0.929 . S
H817 C827 0.929 . S
H818 C822 0.929 . S
H819 C828 0.929 . S
C820 H814 0.930 . S
C820 C821 1.367 . S
C820 C828 1.378 . S
C821 C820 1.367 . S
C821 C829 1.433 . S
C822 H818 0.929 . S
C822 C824 1.378 . S
C822 C826 1.350 . S
C823 C826 1.463 . S
C823 C828 1.350 . S
C823 N831 1.427 . S
C824 H815 0.930 . S
C824 C822 1.378 . S
C824 C825 1.367 . S
C825 C824 1.367 . S
C825 C827 1.433 . S
C826 C822 1.350 . S
C826 C823 1.463 . S
C826 N830 1.427 . S
C827 H817 0.929 . S
C827 C825 1.433 . S
C827 N830 1.384 . S
C828 H819 0.929 . S
C828 C820 1.378 . S
C828 C823 1.350 . S
C829 H816 0.929 . S
C829 C821 1.433 . S
C829 N831 1.384 . S
N830 C826 1.427 . S
N830 C827 1.384 . S
N831 C823 1.427 . S
N831 C829 1.384 . S
C407 C255 1.754 1_565 S
C411 C328 1.840 . S
C429 C358 2.569 . S
C425 C295 2.449 . S
C447 C368 1.961 . S
C443 C175 1.865 . S
C465 C388 1.874 . S
C461 C215 1.733 . S
C483 C329 1.841 . S
C479 C95 1.756 . S
C497 C135 2.434 . S
C501 C359 2.573 . S
C515 C15 1.881 . S
C519 C369 1.963 . S
C533 C55 1.736 . S
C537 C389 1.875 . S
C555 C321 0.877 . S
C551 C221 0.860 . S
C573 C342 0.315 . S
C569 C261 0.427 . S
C591 C361 1.206 . S
C587 C301 1.184 . S
C605 C181 0.631 . S
C609 C381 0.581 . S
C623 C61 0.853 . S
C627 C322 0.892 1_655 S
C645 C341 0.311 . S
C641 C101 0.475 1_565 S
C663 C362 1.204 . S
C659 C141 1.069 . S
C677 C21 0.592 . S
C681 C382 0.581 . S
C695 C202 2.539 . S
C699 C339 2.691 . S
C713 C242 1.987 . S
C717 C349 2.184 . S
C735 C379 2.947 . S
C731 C282 2.770 . S
C753 C399 2.762 . S
C749 C162 2.525 . S
C767 C42 2.450 . S
C771 C338 2.697 . S
C789 C348 2.189 . S
C785 C82 2.000 1_565 S
C807 C378 2.950 . S
C803 C122 2.655 . S
C821 C2 2.637 . S
C825 C398 2.765 . S
