# Generated by pormake.
# Topology pth, (4,4)-cn, num edge types: 1
# Building blocks:
#     Node 0, Type 0, BuildingBlock: AZAVOO_clean_sbu_0, # of connection points: 4
#     Node 1, Type 0, BuildingBlock: AZAVOO_clean_sbu_0, # of connection points: 4
#     Node 2, Type 0, BuildingBlock: AZAVOO_clean_sbu_0, # of connection points: 4
#     Node 3, Type 1, BuildingBlock: MUDLON_clean_sbu_0, # of connection points: 4
#     Node 4, Type 1, BuildingBlock: MUDLON_clean_sbu_0, # of connection points: 4
#     Node 5, Type 1, BuildingBlock: MUDLON_clean_sbu_0, # of connection points: 4
#     Edge 6, Type (0, 1), BuildingBlock: ZUJKAS_clean_linker_0, # of connection points: 2
#     Edge 7, Type (0, 1), BuildingBlock: ZUJKAS_clean_linker_0, # of connection points: 2
#     Edge 8, Type (0, 1), BuildingBlock: ZUJKAS_clean_linker_0, # of connection points: 2
#     Edge 9, Type (0, 1), BuildingBlock: ZUJKAS_clean_linker_0, # of connection points: 2
#     Edge 10, Type (0, 1), BuildingBlock: ZUJKAS_clean_linker_0, # of connection points: 2
#     Edge 11, Type (0, 1), BuildingBlock: ZUJKAS_clean_linker_0, # of connection points: 2
#     Edge 12, Type (0, 1), BuildingBlock: ZUJKAS_clean_linker_0, # of connection points: 2
#     Edge 13, Type (0, 1), BuildingBlock: ZUJKAS_clean_linker_0, # of connection points: 2
#     Edge 14, Type (0, 1), BuildingBlock: ZUJKAS_clean_linker_0, # of connection points: 2
#     Edge 15, Type (0, 1), BuildingBlock: ZUJKAS_clean_linker_0, # of connection points: 2
#     Edge 16, Type (0, 1), BuildingBlock: ZUJKAS_clean_linker_0, # of connection points: 2
#     Edge 17, Type (0, 1), BuildingBlock: ZUJKAS_clean_linker_0, # of connection points: 2
# Relax obj value: 0.104
# Max RMSD: 0.230
# Mean RMSD: 0.137
data_MOF--net-pth--node1-AZAVOO_clean_sbu_0--node2-MUDLON_clean_sbu_0--edge1-ZUJKAS_clean_linker_0
_symmetry_space_group_name_H-M    P1
_symmetry_Int_Tables_number       1
_symmetry_cell_setting            triclinic
loop_
_symmetry_equiv_pos_as_xyz
'x, y, z'
_cell_length_a     29.104466
_cell_length_b     29.684426
_cell_length_c     76.995269
_cell_angle_alpha  90.863237
_cell_angle_beta   92.950648
_cell_angle_gamma 121.99434
loop_
_atom_site_label
_atom_site_type_symbol
_atom_site_fract_x
_atom_site_fract_y
_atom_site_fract_z
_atom_type_partial_charge
Mg0 Mg 0.1375 0.13334 0.08944 0.0
O1 O 0.06187 0.08573 0.07034 0.0
O2 O 0.05598 0.14452 0.0541 0.0
Mg3 Mg 0.12713 0.22824 0.06238 0.0
C4 C 0.03806 0.09675 0.05825 0.0
C5 C 0.11878 0.02493 0.10114 0.0
O6 O 0.13794 0.02732 0.08588 0.0
O7 O 0.09241 0.16081 0.1055 0.0
O8 O 0.09135 0.22163 0.08904 0.0
O9 O 0.18933 0.12843 0.07011 0.0
O10 O 0.17376 0.19342 0.07181 0.0
C11 C 0.0805 0.19598 0.10298 0.0
C12 C 0.19551 0.17144 0.06391 0.0
O13 O 0.11126 0.06148 0.10607 0.0
Mg14 Mg 0.98726 0.06569 0.41203 0.0
O15 O 0.06225 0.09318 0.43106 0.0
O16 O 0.071 0.15876 0.4484 0.0
Mg17 Mg 1.00264 0.17272 0.44086 0.0
C18 C 0.08703 0.12822 0.4436 0.0
C19 C 0.98632 0.00443 0.37954 0.0
O20 O 0.95488 0.02189 0.37452 0.0
O21 O 0.03521 0.14038 0.3966 0.0
O22 O 0.03861 0.20233 0.41444 0.0
O23 O 0.93307 0.00772 0.43098 0.0
O24 O 0.9532 0.09047 0.43008 0.0
C25 C 0.0487 0.18831 0.40006 0.0
C26 C 0.92898 0.0458 0.43751 0.0
O27 O 0.00946 0.01762 0.39483 0.0
Mg28 Mg 0.028 0.05104 0.74575 0.0
O29 O 0.08052 0.12284 0.7653 0.0
O30 O 0.0215 0.13021 0.78079 0.0
Mg31 Mg 0.93496 0.06113 0.77335 0.0
C32 C 0.06994 0.14657 0.77697 0.0
C33 C 0.0835 0.05151 0.71345 0.0
O34 O 0.03129 0.02089 0.70898 0.0
O35 O 1.00034 0.09859 0.73012 0.0
O36 O 0.93881 0.09685 0.74676 0.0
O37 O 0.03179 0.99551 0.76412 0.0
O38 O 0.96866 0.01536 0.76357 0.0
C39 C 0.96397 0.10915 0.7328 0.0
C40 C 0.98918 0.99023 0.77065 0.0
O41 O 0.09822 0.07433 0.72858 0.0
Mg42 Mg 0.05338 0.57348 0.25013 0.0
C43 C 0.11704 0.5655 0.28094 0.0
O44 O 0.09921 0.59256 0.28865 0.0
C45 C 0.06604 0.62691 0.21666 0.0
O46 O 0.02418 0.57883 0.21261 0.0
C47 C 0.99278 0.45619 0.23957 0.0
O48 O 0.01223 0.45445 0.25515 0.0
O49 O 0.99858 0.49976 0.23494 0.0
O50 O 0.10874 0.55696 0.26451 0.0
O51 O 0.01672 0.59894 0.26867 0.0
C52 C 0.9969 0.62624 0.26374 0.0
O53 O 0.99261 0.6328 0.24703 0.0
O54 O 0.09011 0.63669 0.23179 0.0
Mg55 Mg 0.55527 0.10448 0.57862 0.0
C56 C 0.5047 0.11437 0.54537 0.0
O57 O 0.50617 0.07173 0.54187 0.0
C58 C 0.63638 0.16997 0.60863 0.0
O59 O 0.59134 0.15536 0.61616 0.0
C60 C 0.44519 0.05057 0.59354 0.0
O61 O 0.42949 0.04586 0.57695 0.0
O62 O 0.49513 0.06971 0.59786 0.0
O63 O 0.5258 0.13972 0.55997 0.0
O64 O 0.56909 0.04975 0.56422 0.0
C65 C 0.60433 0.03978 0.57 0.0
O66 O 0.62601 0.05621 0.58599 0.0
O67 O 0.63354 0.15892 0.59244 0.0
Mg68 Mg 0.58427 0.58483 0.91929 0.0
C69 C 0.46716 0.52539 0.90497 0.0
O70 O 0.45998 0.51058 0.9211 0.0
C71 C 0.63445 0.65244 0.95107 0.0
O72 O 0.64252 0.61321 0.95302 0.0
C73 C 0.53506 0.4692 0.92978 0.0
O74 O 0.52146 0.45758 0.91304 0.0
O75 O 0.56439 0.5177 0.93515 0.0
O76 O 0.51465 0.56019 0.9009 0.0
O77 O 0.65539 0.61422 0.90455 0.0
C78 C 0.65205 0.60153 0.8885 0.0
O79 O 0.60507 0.56363 0.88115 0.0
O80 O 0.60683 0.65131 0.93751 0.0
H81 H 0.0518 0.27026 0.10283 0.0
H82 H 0.01948 0.2984 0.12683 0.0
H83 H 0.02025 0.18072 0.15876 0.0
H84 H 0.05329 0.15256 0.1349 0.0
H85 H 0.92704 0.24272 0.14713 0.0
H86 H 0.12283 0.32276 0.18652 0.0
H87 H 0.11504 0.30474 0.1636 0.0
H88 H 0.08894 0.25402 0.17922 0.0
C89 C 0.04477 0.24997 0.11489 0.0
C90 C 0.05589 0.20955 0.11697 0.0
C91 C 0.02608 0.26604 0.12859 0.0
C92 C 0.01824 0.24218 0.14464 0.0
C93 C 0.0269 0.20024 0.14655 0.0
H94 H 0.98356 0.3606 0.24425 0.0
H95 H 0.97802 0.29899 0.22161 0.0
C96 C 0.04566 0.18412 0.13287 0.0
C97 C 1.00417 0.26351 0.15961 0.0
H98 H 0.05588 0.33144 0.19896 0.0
C99 C 0.95494 0.26178 0.15854 0.0
C100 C 0.04068 0.28831 0.17447 0.0
C101 C 0.09505 0.2931 0.17606 0.0
C102 C 0.94145 0.28464 0.17191 0.0
C103 C 0.97865 0.31071 0.18656 0.0
C104 C 0.0272 0.31116 0.18779 0.0
C105 C 0.97068 0.34152 0.20015 0.0
C106 C 0.88754 0.28065 0.17022 0.0
C107 C 0.96661 0.385 0.19565 0.0
C108 C 0.96945 0.42016 0.20857 0.0
C109 C 0.97718 0.41293 0.22626 0.0
C110 C 0.97776 0.36747 0.23077 0.0
C111 C 0.97469 0.33221 0.21783 0.0
H112 H 0.85722 0.24552 0.16177 0.0
H113 H 0.87111 0.27786 0.18313 0.0
H114 H 0.89299 0.31667 0.16414 0.0
H115 H 0.96464 0.39371 0.18212 0.0
H116 H 0.969 0.4548 0.20461 0.0
H117 H 0.88269 0.9605 0.45832 0.0
H118 H 0.82685 0.94735 0.4828 0.0
H119 H 0.84715 0.10052 0.47547 0.0
H120 H 0.90358 0.11435 0.45133 0.0
H121 H 0.85989 0.08465 0.50958 0.0
H122 H 0.67054 0.91023 0.47864 0.0
H123 H 0.72791 0.90277 0.4806 0.0
H124 H 0.72936 0.95147 0.46666 0.0
C125 C 0.87542 0.99145 0.46199 0.0
C126 C 0.89756 0.03847 0.45288 0.0
C127 C 0.84319 0.9837 0.4759 0.0
C128 C 0.83206 0.02256 0.48078 0.0
C129 C 0.85508 0.06992 0.47191 0.0
H130 H 0.58477 0.02351 0.53463 0.0
H131 H 0.63911 0.01156 0.51413 0.0
C132 C 0.88746 0.07781 0.45811 0.0
C133 C 0.79652 0.01454 0.49508 0.0
H134 H 0.66617 0.93826 0.507 0.0
C135 C 0.81764 0.05239 0.5091 0.0
C136 C 0.74126 0.97269 0.49432 0.0
C137 C 0.71561 0.93216 0.4792 0.0
C138 C 0.78481 0.05044 0.52216 0.0
C139 C 0.72953 0.00852 0.52144 0.0
C140 C 0.70866 0.96995 0.50762 0.0
C141 C 0.6918 0.00717 0.53399 0.0
C142 C 0.80907 0.09482 0.5361 0.0
C143 C 0.70167 0.00607 0.55198 0.0
C144 C 0.67093 0.01342 0.56378 0.0
C145 C 0.62932 0.02127 0.55777 0.0
C146 C 0.61669 0.01788 0.53973 0.0
C147 C 0.64775 0.01104 0.52796 0.0
H148 H 0.84803 0.12983 0.53251 0.0
H149 H 0.78062 0.10797 0.53864 0.0
H150 H 0.8173 0.0804 0.54837 0.0
H151 H 0.73455 1.00169 0.5569 0.0
H152 H 0.68133 0.01522 0.57759 0.0
H153 H 0.91218 0.98428 0.79118 0.0
H154 H 0.86424 0.9196 0.813 0.0
H155 H 0.95759 0.84834 0.80366 0.0
H156 H 0.00733 0.91443 0.78239 0.0
H157 H 0.79981 0.81715 0.80769 0.0
H158 H 0.96581 0.85336 0.85555 0.0
H159 H 0.97563 0.89874 0.83874 0.0
H160 H 0.9772 0.84002 0.83393 0.0
C161 C 0.9233 0.95558 0.79401 0.0
C162 C 0.96373 0.95468 0.78509 0.0
C163 C 0.89574 0.91846 0.80647 0.0
C164 C 0.90762 0.87933 0.81016 0.0
C165 C 0.94861 0.8789 0.80144 0.0
H166 H 0.66356 0.58375 0.85444 0.0
H167 H 0.7295 0.64816 0.83532 0.0
C168 C 0.97681 0.91658 0.78918 0.0
C169 C 0.8741 0.83663 0.82204 0.0
H170 H 0.88019 0.77265 0.85778 0.0
C171 C 0.81745 0.80766 0.8187 0.0
C172 C 0.89699 0.82443 0.83649 0.0
C173 C 0.9572 0.85615 0.84151 0.0
C174 C 0.78306 0.76702 0.82936 0.0
C175 C 0.806 0.75338 0.84342 0.0
C176 C 0.86266 0.78244 0.84682 0.0
C177 C 0.77153 0.71145 0.85536 0.0
C178 C 0.72243 0.74045 0.82575 0.0
C179 C 0.77572 0.7243 0.87322 0.0
C180 C 0.73897 0.68718 0.88425 0.0
C181 C 0.69694 0.63658 0.87759 0.0
C182 C 0.69503 0.6226 0.85992 0.0
C183 C 0.73239 0.65954 0.84895 0.0
H184 H 0.71201 0.76521 0.81783 0.0
H185 H 0.70633 0.70208 0.81833 0.0
H186 H 0.70158 0.73236 0.83804 0.0
H187 H 0.80587 0.76391 0.87851 0.0
H188 H 0.74179 0.69927 0.8978 0.0
H189 H 0.13464 0.94348 0.09485 0.0
H190 H 0.12768 0.87777 0.11506 0.0
H191 H 0.08039 0.94648 0.1547 0.0
H192 H 0.08667 0.01216 0.13452 0.0
H193 H 0.18571 0.89734 0.14757 0.0
H194 H 0.96283 0.78716 0.15381 0.0
H195 H 0.99488 0.83194 0.1366 0.0
H196 H 0.99772 0.85781 0.15814 0.0
C197 C 0.12224 0.94439 0.10781 0.0
C198 C 0.11104 0.98302 0.11304 0.0
C199 C 0.11851 0.90691 0.11936 0.0
C200 C 0.10318 0.90704 0.13633 0.0
C201 C 0.09152 0.9452 0.14158 0.0
H202 H 0.13612 0.73477 0.22274 0.0
H203 H 0.14887 0.8051 0.20349 0.0
C204 C 0.09524 0.98277 0.13003 0.0
C205 C 0.10054 0.86779 0.14857 0.0
H206 H 0.01348 0.76313 0.17208 0.0
C207 C 0.14811 0.868 0.15297 0.0
C208 C 0.05134 0.82941 0.15548 0.0
C209 C 0.99862 0.82603 0.15069 0.0
C210 C 0.14775 0.83073 0.16408 0.0
C211 C 0.09865 0.79268 0.17111 0.0
C212 C 0.05115 0.79259 0.16675 0.0
C213 C 0.09477 0.7509 0.18237 0.0
C214 C 0.19951 0.83144 0.16788 0.0
C215 C 0.06037 0.69726 0.17686 0.0
C216 C 0.05295 0.65718 0.18778 0.0
C217 C 0.07959 0.66986 0.20453 0.0
C218 C 0.11532 0.72369 0.20988 0.0
C219 C 0.1227 0.76391 0.19889 0.0
H220 H 0.2306 0.85562 0.15863 0.0
H221 H 0.21657 0.84888 0.18123 0.0
H222 H 0.19145 0.79043 0.16724 0.0
H223 H 0.0385 0.68638 0.16416 0.0
H224 H 0.02521 0.61618 0.18322 0.0
H225 H 0.1333 0.06941 0.43828 0.0
H226 H 0.21068 0.07596 0.45501 0.0
H227 H 0.22785 0.20498 0.48709 0.0
H228 H 0.15048 0.19858 0.47065 0.0
H229 H 0.31999 0.1646 0.46122 0.0
H230 H 0.21463 0.09656 0.52242 0.0
H231 H 0.17868 0.08784 0.5016 0.0
H232 H 0.2144 0.15164 0.51317 0.0
C233 C 0.15352 0.09924 0.44888 0.0
C234 C 0.13524 0.13315 0.45318 0.0
C235 C 0.1978 0.10297 0.4584 0.0
C236 C 0.22444 0.14042 0.47244 0.0
C237 C 0.20722 0.17514 0.47651 0.0
H238 H 0.47734 0.1888 0.55067 0.0
H239 H 0.41451 0.20193 0.53224 0.0
C240 C 0.16303 0.17149 0.46702 0.0
C241 C 0.26989 0.14283 0.48297 0.0
H242 H 0.30734 0.12474 0.52376 0.0
C243 C 0.31732 0.15593 0.47489 0.0
C244 C 0.26635 0.13179 0.50083 0.0
C245 C 0.21567 0.11572 0.51004 0.0
C246 C 0.36144 0.15841 0.48423 0.0
C247 C 0.35754 0.14649 0.50203 0.0
C248 C 0.3104 0.13418 0.51015 0.0
C249 C 0.40019 0.14306 0.51223 0.0
C250 C 0.41197 0.17423 0.47499 0.0
C251 C 0.41334 0.10598 0.50703 0.0
C252 C 0.4492 0.09851 0.51747 0.0
C253 C 0.47239 0.12764 0.53344 0.0
C254 C 0.46041 0.16591 0.53842 0.0
C255 C 0.4244 0.17334 0.52793 0.0
H256 H 0.41531 0.19785 0.46354 0.0
H257 H 0.4491 0.19782 0.48387 0.0
H258 H 0.41021 0.13783 0.47024 0.0
H259 H 0.39428 0.08131 0.49518 0.0
H260 H 0.45734 0.06858 0.51325 0.0
H261 H 0.07055 0.23342 0.78891 0.0
H262 H 0.14061 0.30768 0.80779 0.0
H263 H 0.23834 0.2378 0.80786 0.0
H264 H 0.16961 0.16519 0.78803 0.0
H265 H 0.17096 0.30673 0.83888 0.0
H266 H 0.3543 0.38652 0.80215 0.0
H267 H 0.2875 0.33876 0.79239 0.0
H268 H 0.32536 0.3171 0.80518 0.0
C269 C 0.10756 0.23458 0.79268 0.0
C270 C 0.11482 0.19374 0.78697 0.0
C271 C 0.14757 0.27698 0.80351 0.0
C272 C 0.19533 0.279 0.80918 0.0
C273 C 0.20286 0.23837 0.80329 0.0
H274 H 0.37661 0.42686 0.90688 0.0
H275 H 0.31037 0.37098 0.8833 0.0
C276 C 0.16337 0.19659 0.79204 0.0
C277 C 0.23461 0.32097 0.82238 0.0
H278 H 0.3696 0.40954 0.83295 0.0
C279 C 0.21433 0.32968 0.83741 0.0
C280 C 0.29125 0.35191 0.82047 0.0
C281 C 0.31574 0.3485 0.80408 0.0
C282 C 0.24892 0.36704 0.85072 0.0
C283 C 0.30581 0.39498 0.84941 0.0
C284 C 0.32608 0.38764 0.83414 0.0
C285 C 0.345 0.43035 0.86394 0.0
C286 C 0.22374 0.37649 0.8659 0.0
C287 C 0.38774 0.48211 0.86093 0.0
C288 C 0.42665 0.51388 0.87438 0.0
C289 C 0.42323 0.49467 0.89115 0.0
C290 C 0.37985 0.44331 0.89422 0.0
C291 C 0.34167 0.41129 0.88072 0.0
H292 H 0.1826 0.36826 0.86198 0.0
H293 H 0.21914 0.34901 0.87624 0.0
H294 H 0.2491 0.41801 0.87143 0.0
H295 H 0.39145 0.49771 0.8481 0.0
H296 H 0.45983 0.55315 0.8716 0.0
H297 H 0.89143 0.14064 0.73453 0.0
H298 H 0.85565 0.16974 0.71096 0.0
H299 H 0.96297 0.16218 0.67613 0.0
H300 H 0.99863 0.13191 0.69965 0.0
H301 H 0.90255 0.25528 0.68891 0.0
H302 H 0.81179 0.06011 0.65226 0.0
H303 H 0.83849 0.0704 0.67461 0.0
H304 H 0.88389 0.09569 0.65739 0.0
C305 C 0.90792 0.14551 0.72192 0.0
C306 C 0.94745 0.13315 0.71896 0.0
C307 C 0.88749 0.1624 0.70846 0.0
C308 C 0.90597 0.16728 0.69173 0.0
C309 C 0.94744 0.15773 0.68888 0.0
H310 H 0.7315 0.18342 0.59829 0.0
H311 H 0.80752 0.19456 0.6171 0.0
C312 C 0.96796 0.14069 0.70237 0.0
C313 C 0.87887 0.17896 0.67721 0.0
H314 H 0.79255 0.12139 0.64084 0.0
C315 C 0.87906 0.22634 0.67826 0.0
C316 C 0.84829 0.14119 0.66331 0.0
C317 C 0.84505 0.08878 0.66179 0.0
C318 C 0.84822 0.23626 0.66607 0.0
C319 C 0.81575 0.19741 0.65264 0.0
C320 C 0.81758 0.1512 0.65112 0.0
C321 C 0.77534 0.20085 0.6411 0.0
C322 C 0.8501 0.28789 0.66782 0.0
C323 C 0.7326 0.20197 0.64831 0.0
C324 C 0.68909 0.19564 0.63761 0.0
C325 C 0.68724 0.18763 0.61947 0.0
C326 C 0.73164 0.18961 0.6122 0.0
C327 C 0.77512 0.19585 0.62293 0.0
H328 H 0.889 0.31966 0.67457 0.0
H329 H 0.84503 0.30147 0.6549 0.0
H330 H 0.81667 0.28203 0.67572 0.0
H331 H 0.73124 0.20465 0.6623 0.0
H332 H 0.65559 0.19424 0.64365 0.0
H333 H 0.97554 0.10473 0.03214 0.0
H334 H 0.89664 0.03266 0.01515 0.0
H335 H 0.91033 0.91746 0.04463 0.0
H336 H 0.98896 0.98924 0.06188 0.0
H337 H 0.8944 0.95507 0.99445 0.0
H338 H 0.74914 0.86344 0.04569 0.0
H339 H 0.80994 0.92893 0.04864 0.0
H340 H 0.81348 0.87069 0.05121 0.0
C341 C 0.96158 0.0641 0.03516 0.0
C342 C 0.98873 0.05289 0.04843 0.0
C343 C 0.91638 0.02295 0.02542 0.0
C344 C 0.89709 0.96972 0.02878 0.0
C345 C 0.92375 0.95828 0.04207 0.0
H346 H 0.68741 0.66062 0.9822 0.0
H347 H 0.74537 0.74035 1.00087 0.0
C348 C 0.96899 0.99942 0.05185 0.0
C349 C 0.85138 0.92618 0.01765 0.0
H350 H 0.72712 0.81168 0.01895 0.0
C351 C 0.85744 0.9241 0.99974 0.0
C352 C 0.80318 0.88596 0.02459 0.0
C353 C 0.79318 0.88751 0.04356 0.0
C354 C 0.81779 0.88151 0.98872 0.0
C355 C 0.77032 0.84038 0.99576 0.0
C356 C 0.76348 0.84333 0.01357 0.0
C357 C 0.73011 0.79154 0.9852 0.0
C358 C 0.82828 0.87957 0.9698 0.0
C359 C 0.70078 0.79344 0.97045 0.0
C360 C 0.66744 0.74767 0.95964 0.0
C361 C 0.66299 0.69938 0.96348 0.0
C362 C 0.69024 0.69723 0.97877 0.0
C363 C 0.72334 0.74278 0.98951 0.0
H364 H 0.87113 0.90904 0.96723 0.0
H365 H 0.81864 0.83932 0.96564 0.0
H366 H 0.80176 0.8885 0.96166 0.0
H367 H 0.70471 0.83056 0.96707 0.0
H368 H 0.64682 0.75056 0.948 0.0
H369 H 0.94639 0.97363 0.34576 0.0
H370 H 0.948 0.90698 0.32725 0.0
H371 H 0.03717 0.88245 0.36852 0.0
H372 H 0.03566 0.94916 0.38724 0.0
H373 H 0.04093 0.90519 0.31704 0.0
H374 H 0.90296 0.73108 0.35482 0.0
H375 H 0.90784 0.79413 0.3572 0.0
H376 H 0.96033 0.7862 0.36694 0.0
C377 C 0.96654 0.95426 0.35092 0.0
C378 C 0.99069 0.96658 0.36802 0.0
C379 C 0.96737 0.91615 0.34031 0.0
C380 C 0.99195 0.88925 0.34661 0.0
C381 C 0.01718 0.90216 0.36352 0.0
H382 H 0.02298 0.63947 0.29893 0.0
H383 H 0.02063 0.70215 0.31931 0.0
C384 C 0.0166 0.94055 0.37415 0.0
C385 C 0.99134 0.84803 0.33531 0.0
H386 H 0.93943 0.71453 0.3306 0.0
C387 C 0.01877 0.86349 0.31998 0.0
C388 C 0.96257 0.79375 0.33926 0.0
C389 C 0.93135 0.77494 0.35538 0.0
C390 C 0.01852 0.82616 0.30851 0.0
C391 C 0.98876 0.77163 0.31224 0.0
C392 C 0.96189 0.75625 0.3277 0.0
C393 C 0.98544 0.73019 0.30025 0.0
C394 C 0.05104 0.8457 0.29266 0.0
C395 C 0.96441 0.72358 0.28294 0.0
C396 C 0.96593 0.688 0.27123 0.0
C397 C 0.98788 0.65781 0.27667 0.0
C398 C 0.0059 0.66217 0.29429 0.0
C399 C 0.0047 0.69808 0.30596 0.0
H400 H 0.08312 0.88865 0.29429 0.0
H401 H 0.07053 0.82302 0.2899 0.0
H402 H 0.02359 0.84031 0.2812 0.0
H403 H 0.94794 0.74686 0.27836 0.0
H404 H 0.95123 0.68524 0.2578 0.0
H405 H 0.06391 0.0117 0.67992 0.0
H406 H 0.12823 0.01162 0.66081 0.0
H407 H 0.25804 0.09882 0.70064 0.0
H408 H 0.19371 0.09892 0.72001 0.0
H409 H 0.22556 0.10074 0.64914 0.0
H410 H 0.26519 0.9661 0.68761 0.0
H411 H 0.20744 0.97208 0.69057 0.0
H412 H 0.27386 0.02332 0.6993 0.0
C413 C 0.10616 0.03108 0.68465 0.0
C414 C 0.12363 0.05512 0.70154 0.0
C415 C 0.14284 0.03094 0.67369 0.0
C416 C 0.19766 0.05447 0.67941 0.0
C417 C 0.21566 0.07964 0.6961 0.0
H418 H 0.46921 0.07762 0.62846 0.0
H419 H 0.40915 0.07736 0.64959 0.0
C420 C 0.17894 0.07999 0.70709 0.0
C421 C 0.23568 0.05275 0.66773 0.0
H422 H 0.31374 0.99968 0.6625 0.0
C423 C 0.24491 0.07871 0.65205 0.0
C424 C 0.26093 0.0241 0.67162 0.0
C425 C 0.25124 0.99441 0.68812 0.0
C426 C 0.27899 0.07705 0.64015 0.0
C427 C 0.30336 0.04741 0.64383 0.0
C428 C 0.29473 0.02204 0.65965 0.0
C429 C 0.33823 0.04274 0.63144 0.0
C430 C 0.28932 0.10793 0.62389 0.0
C431 C 0.31777 0.02135 0.61441 0.0
C432 C 0.35203 0.02169 0.60226 0.0
C433 C 0.4073 0.04281 0.60699 0.0
C434 C 0.42689 0.06117 0.62436 0.0
C435 C 0.39264 0.06116 0.63646 0.0
H436 H 0.28054 0.13989 0.62539 0.0
H437 H 0.33206 0.1262 0.6205 0.0
H438 H 0.26234 0.08056 0.61287 0.0
H439 H 0.27552 0.00553 0.61038 0.0
H440 H 0.3355 0.00675 0.58905 0.0
H441 H 0.23767 0.12887 0.04304 0.0
H442 H 0.29427 0.16956 0.01862 0.0
H443 H 0.28155 0.30691 0.02555 0.0
H444 H 0.22424 0.26619 0.0498 0.0
H445 H 0.26941 0.27351 0.991 0.0
H446 H 0.45292 0.2916 0.02421 0.0
H447 H 0.39394 0.22532 0.02244 0.0
H448 H 0.39384 0.27584 0.03557 0.0
C449 C 0.24666 0.16762 0.03931 0.0
C450 C 0.22664 0.19442 0.04841 0.0
C451 C 0.2793 0.19094 0.02542 0.0
C452 C 0.29296 0.24167 0.02048 0.0
C453 C 0.2717 0.2678 0.0292 0.0
H454 H 0.55067 0.48141 0.96524 0.0
H455 H 0.49194 0.42006 0.9863 0.0
C456 C 0.23889 0.24445 0.04305 0.0
C457 C 0.32995 0.26806 0.00639 0.0
H458 H 0.46003 0.31852 0.99526 0.0
C459 C 0.31099 0.28309 0.99185 0.0
C460 C 0.38436 0.28095 0.00766 0.0
C461 C 0.4078 0.26808 0.02336 0.0
C462 C 0.34513 0.31129 0.97864 0.0
C463 C 0.39944 0.32383 0.97983 0.0
C464 C 0.4182 0.30822 0.99427 0.0
C465 C 0.43865 0.35741 0.96707 0.0
C466 C 0.32337 0.32933 0.9639 0.0
C467 C 0.42963 0.34166 0.9493 0.0
C468 C 0.46314 0.37684 0.93716 0.0
C469 C 0.50639 0.42823 0.94261 0.0
C470 C 0.51752 0.4423 0.96055 0.0
C471 C 0.48396 0.40724 0.97264 0.0
H472 H 0.28504 0.32655 0.9669 0.0
H473 H 0.35357 0.37105 0.96096 0.0
H474 H 0.31485 0.30372 0.95203 0.0
H475 H 0.3956 0.30286 0.94477 0.0
H476 H 0.45357 0.36461 0.92346 0.0
H477 H 0.08285 0.29353 0.4031 0.0
H478 H 0.11355 0.35746 0.38039 0.0
H479 H 0.10308 0.23991 0.34404 0.0
H480 H 0.07093 0.17474 0.36669 0.0
H481 H 0.20007 0.39965 0.35927 0.0
H482 H 1.00221 0.28006 0.32026 0.0
H483 H 0.01175 0.26566 0.34235 0.0
H484 H 0.03799 0.24704 0.32488 0.0
C485 C 0.08736 0.28109 0.39033 0.0
C486 C 0.07358 0.22858 0.38669 0.0
C487 C 0.10519 0.31792 0.37736 0.0
C488 C 0.10972 0.30325 0.36044 0.0
C489 C 0.09882 0.25177 0.35693 0.0
H490 H 0.13324 0.48719 0.2697 0.0
H491 H 0.14358 0.42552 0.28772 0.0
C492 C 0.08071 0.21465 0.36993 0.0
C493 C 0.12256 0.34129 0.34646 0.0
H494 H 0.06584 0.36302 0.31016 0.0
C495 C 0.17106 0.39142 0.34839 0.0
C496 C 0.0847 0.33051 0.33225 0.0
C497 C 0.03103 0.27812 0.32979 0.0
C498 C 0.18189 0.43157 0.33683 0.0
C499 C 0.14294 0.4215 0.32311 0.0
C500 C 0.09573 0.3706 0.32067 0.0
C501 C 0.14713 0.46421 0.31222 0.0
C502 C 0.23452 0.48468 0.33957 0.0
C503 C 0.14701 0.50722 0.32001 0.0
C504 C 0.14101 0.54249 0.30976 0.0
C505 C 0.13471 0.53528 0.29151 0.0
C506 C 0.13813 0.49403 0.28371 0.0
C507 C 0.1439 0.45862 0.29399 0.0
H508 H 0.26651 0.4808 0.34657 0.0
H509 H 0.24935 0.50312 0.32699 0.0
H510 H 0.2279 0.51181 0.34762 0.0
H511 H 0.14836 0.51177 0.33404 0.0
H512 H 0.1385 0.57374 0.31619 0.0
loop_
_geom_bond_atom_site_label_1
_geom_bond_atom_site_label_2
_geom_bond_distance
_geom_bond_site_symmetry_2
_ccdc_geom_bond_type
Mg0 O1 2.028 . S
Mg0 O7 1.986 . S
Mg0 O9 2.114 . S
Mg0 O10 2.251 . S
Mg0 O13 2.010 . S
O1 Mg0 2.028 . S
O1 C4 1.250 . S
O2 Mg3 2.028 . S
O2 C4 1.248 . S
Mg3 O2 2.028 . S
Mg3 O8 2.032 . S
Mg3 O10 2.079 . S
C4 O1 1.250 . S
C4 O2 1.248 . S
C5 O6 1.264 . S
C5 O13 1.249 . S
O6 C5 1.264 . S
O7 Mg0 1.986 . S
O7 C11 1.246 . S
O8 Mg3 2.032 . S
O8 C11 1.259 . S
O9 Mg0 2.114 . S
O9 C12 1.252 . S
O10 Mg0 2.251 . S
O10 Mg3 2.079 . S
O10 C12 1.273 . S
C11 O7 1.246 . S
C11 O8 1.259 . S
C12 O9 1.252 . S
C12 O10 1.273 . S
O13 Mg0 2.010 . S
O13 C5 1.249 . S
Mg14 O15 2.028 1_655 S
Mg14 O21 1.986 1_655 S
Mg14 O23 2.114 . S
Mg14 O24 2.251 . S
Mg14 O27 2.010 1_545 S
O15 Mg14 2.028 1_455 S
O15 C18 1.250 . S
O16 Mg17 2.028 . S
O16 C18 1.248 . S
Mg17 O16 2.028 . S
Mg17 O22 2.032 . S
Mg17 O24 2.079 1_455 S
C18 O15 1.250 . S
C18 O16 1.248 . S
C19 O20 1.264 . S
C19 O27 1.249 . S
O20 C19 1.264 . S
O21 Mg14 1.986 1_455 S
O21 C25 1.246 . S
O22 Mg17 2.032 . S
O22 C25 1.259 . S
O23 Mg14 2.114 . S
O23 C26 1.252 . S
O24 Mg14 2.251 . S
O24 Mg17 2.079 1_655 S
O24 C26 1.273 . S
C25 O21 1.246 . S
C25 O22 1.259 . S
C26 O23 1.252 . S
C26 O24 1.273 . S
O27 Mg14 2.010 1_565 S
O27 C19 1.249 . S
Mg28 O29 2.028 . S
Mg28 O35 1.986 . S
Mg28 O37 2.114 1_545 S
Mg28 O38 2.251 1_455 S
Mg28 O41 2.010 . S
O29 Mg28 2.028 . S
O29 C32 1.250 . S
O30 Mg31 2.028 1_455 S
O30 C32 1.248 . S
Mg31 O30 2.028 1_655 S
Mg31 O36 2.032 . S
Mg31 O38 2.079 . S
C32 O29 1.250 . S
C32 O30 1.248 . S
C33 O34 1.264 1_545 S
C33 O41 1.249 . S
O34 C33 1.264 1_565 S
O35 Mg28 1.986 . S
O35 C39 1.246 1_455 S
O36 Mg31 2.032 . S
O36 C39 1.259 . S
O37 Mg28 2.114 1_565 S
O37 C40 1.252 1_455 S
O38 Mg28 2.251 1_655 S
O38 Mg31 2.079 . S
O38 C40 1.273 1_545 S
C39 O35 1.246 1_655 S
C39 O36 1.259 . S
C40 O37 1.252 1_655 S
C40 O38 1.273 1_565 S
O41 Mg28 2.010 . S
O41 C33 1.249 . S
Mg42 O49 2.141 . S
Mg42 O50 2.048 . S
Mg42 O51 2.048 . S
Mg42 O54 2.141 . S
C43 O44 1.313 1_455 S
C43 O50 1.195 . S
O44 C43 1.313 1_655 S
C45 O46 1.245 . S
C45 O54 1.289 . S
O46 C45 1.245 . S
C47 O48 1.245 . S
C47 O49 1.289 . S
O48 C47 1.245 . S
O49 Mg42 2.141 . S
O49 C47 1.289 . S
O50 Mg42 2.048 . S
O50 C43 1.195 . S
O51 Mg42 2.048 . S
O51 C52 1.195 . S
C52 O51 1.195 . S
C52 O53 1.313 1_455 S
O53 C52 1.313 1_655 S
O54 Mg42 2.141 . S
O54 C45 1.289 . S
Mg55 O62 2.141 . S
Mg55 O63 2.048 . S
Mg55 O64 2.048 . S
Mg55 O67 2.141 . S
C56 O57 1.313 . S
C56 O63 1.195 . S
O57 C56 1.313 . S
C58 O59 1.245 . S
C58 O67 1.289 . S
O59 C58 1.245 . S
C60 O61 1.245 . S
C60 O62 1.289 . S
O61 C60 1.245 . S
O62 Mg55 2.141 . S
O62 C60 1.289 . S
O63 Mg55 2.048 . S
O63 C56 1.195 . S
O64 Mg55 2.048 . S
O64 C65 1.195 . S
C65 O64 1.195 . S
C65 O66 1.313 . S
O66 C65 1.313 . S
O67 Mg55 2.141 . S
O67 C58 1.289 . S
Mg68 O75 2.141 . S
Mg68 O76 2.048 . S
Mg68 O77 2.048 . S
Mg68 O80 2.141 . S
C69 O70 1.313 . S
C69 O76 1.195 . S
O70 C69 1.313 . S
C71 O72 1.245 . S
C71 O80 1.289 . S
O72 C71 1.245 . S
C73 O74 1.245 . S
C73 O75 1.289 . S
O74 C73 1.245 . S
O75 Mg68 2.141 . S
O75 C73 1.289 . S
O76 Mg68 2.048 . S
O76 C69 1.195 . S
O77 Mg68 2.048 . S
O77 C78 1.195 . S
C78 O77 1.195 . S
C78 O79 1.313 . S
O79 C78 1.313 . S
O80 Mg68 2.141 . S
O80 C71 1.289 . S
H81 C89 0.929 . S
H82 C91 0.930 . S
H83 C93 0.930 . S
H84 C96 0.929 . S
H85 C99 0.930 1_655 S
H86 C101 0.960 . S
H87 C101 0.960 . S
H88 C101 0.960 . S
C89 H81 0.929 . S
C89 C90 1.377 . S
C89 C91 1.384 . S
C90 C89 1.377 . S
C90 C96 1.390 . S
C91 H82 0.930 . S
C91 C89 1.384 . S
C91 C92 1.372 . S
C92 C91 1.372 . S
C92 C93 1.400 . S
C92 C97 1.490 . S
C93 H83 0.930 . S
C93 C92 1.400 . S
C93 C96 1.386 . S
H94 C110 0.930 . S
H95 C111 0.931 . S
C96 H84 0.929 . S
C96 C90 1.390 . S
C96 C93 1.386 . S
C97 C92 1.490 . S
C97 C99 1.395 . S
C97 C100 1.403 . S
H98 C104 0.930 . S
C99 H85 0.930 1_455 S
C99 C97 1.395 . S
C99 C102 1.403 . S
C100 C97 1.403 . S
C100 C101 1.524 . S
C100 C104 1.400 . S
C101 H86 0.960 . S
C101 H87 0.960 . S
C101 H88 0.960 . S
C101 C100 1.524 . S
C102 C99 1.403 . S
C102 C103 1.392 . S
C102 C106 1.495 1_455 S
C103 C102 1.392 . S
C103 C104 1.385 . S
C103 C105 1.478 . S
C104 H98 0.930 . S
C104 C100 1.400 . S
C104 C103 1.385 . S
C105 C103 1.478 . S
C105 C107 1.381 . S
C105 C111 1.383 . S
C106 C102 1.495 1_655 S
C106 H112 0.959 . S
C106 H113 0.961 . S
C106 H114 0.960 . S
C107 C105 1.381 . S
C107 C108 1.394 . S
C107 H115 0.930 . S
C108 C107 1.394 . S
C108 C109 1.383 . S
C108 H116 0.929 . S
C109 C108 1.383 . S
C109 C110 1.377 . S
C110 H94 0.930 . S
C110 C109 1.377 . S
C110 C111 1.379 . S
C111 H95 0.931 . S
C111 C105 1.383 . S
C111 C110 1.379 . S
H112 C106 0.959 . S
H113 C106 0.961 . S
H114 C106 0.960 . S
H115 C107 0.930 . S
H116 C108 0.929 . S
H117 C125 0.934 . S
H118 C127 0.930 1_565 S
H119 C129 0.930 . S
H120 C132 0.929 . S
H121 C135 0.930 . S
H122 C137 0.960 . S
H123 C137 0.960 . S
H124 C137 0.960 . S
C125 H117 0.934 . S
C125 C126 1.375 1_565 S
C125 C127 1.382 1_565 S
C126 C125 1.375 1_545 S
C126 C132 1.390 . S
C127 H118 0.930 1_545 S
C127 C125 1.382 1_545 S
C127 C128 1.372 . S
C128 C127 1.372 . S
C128 C129 1.400 . S
C128 C133 1.490 . S
C129 H119 0.930 . S
C129 C128 1.400 . S
C129 C132 1.386 . S
H130 C146 0.930 . S
H131 C147 0.931 . S
C132 H120 0.929 . S
C132 C126 1.390 . S
C132 C129 1.386 . S
C133 C128 1.490 . S
C133 C135 1.395 . S
C133 C136 1.403 . S
H134 C140 0.930 . S
C135 H121 0.930 . S
C135 C133 1.395 . S
C135 C138 1.403 . S
C136 C133 1.403 . S
C136 C137 1.524 . S
C136 C140 1.400 . S
C137 H122 0.960 . S
C137 H123 0.960 . S
C137 H124 0.960 . S
C137 C136 1.524 . S
C138 C135 1.403 . S
C138 C139 1.392 . S
C138 C142 1.495 . S
C139 C138 1.392 . S
C139 C140 1.385 . S
C139 C141 1.478 . S
C140 H134 0.930 . S
C140 C136 1.400 . S
C140 C139 1.385 . S
C141 C139 1.478 . S
C141 C143 1.381 . S
C141 C147 1.383 . S
C142 C138 1.495 . S
C142 H148 0.959 . S
C142 H149 0.961 . S
C142 H150 0.960 1_545 S
C143 C141 1.381 . S
C143 C144 1.394 . S
C143 H151 0.930 . S
C144 C143 1.394 . S
C144 C145 1.383 . S
C144 H152 0.929 . S
C145 C144 1.383 . S
C145 C146 1.377 . S
C146 H130 0.930 . S
C146 C145 1.377 . S
C146 C147 1.379 . S
C147 H131 0.931 . S
C147 C141 1.383 . S
C147 C146 1.379 . S
H148 C142 0.959 . S
H149 C142 0.961 . S
H150 C142 0.960 1_565 S
H151 C143 0.930 . S
H152 C144 0.929 . S
H153 C161 0.929 1_545 S
H154 C163 0.930 . S
H155 C165 0.930 . S
H156 C168 0.929 . S
H157 C171 0.930 . S
H158 C173 0.960 . S
H159 C173 0.960 . S
H160 C173 0.960 . S
C161 H153 0.929 1_565 S
C161 C162 1.377 . S
C161 C163 1.384 . S
C162 C161 1.377 . S
C162 C168 1.390 . S
C163 H154 0.930 . S
C163 C161 1.384 . S
C163 C164 1.372 . S
C164 C163 1.372 . S
C164 C165 1.400 . S
C164 C169 1.490 . S
C165 H155 0.930 . S
C165 C164 1.400 . S
C165 C168 1.386 . S
H166 C182 0.930 . S
H167 C183 0.931 . S
C168 H156 0.929 . S
C168 C162 1.390 . S
C168 C165 1.386 . S
C169 C164 1.490 . S
C169 C171 1.395 . S
C169 C172 1.403 . S
H170 C176 0.930 . S
C171 H157 0.930 . S
C171 C169 1.395 . S
C171 C174 1.403 . S
C172 C169 1.403 . S
C172 C173 1.524 . S
C172 C176 1.400 . S
C173 H158 0.960 . S
C173 H159 0.960 . S
C173 H160 0.960 . S
C173 C172 1.524 . S
C174 C171 1.403 . S
C174 C175 1.392 . S
C174 C178 1.495 . S
C175 C174 1.392 . S
C175 C176 1.385 . S
C175 C177 1.478 . S
C176 H170 0.930 . S
C176 C172 1.400 . S
C176 C175 1.385 . S
C177 C175 1.478 . S
C177 C179 1.381 . S
C177 C183 1.383 . S
C178 C174 1.495 . S
C178 H184 0.959 . S
C178 H185 0.961 . S
C178 H186 0.960 . S
C179 C177 1.381 . S
C179 C180 1.394 . S
C179 H187 0.930 . S
C180 C179 1.394 . S
C180 C181 1.383 . S
C180 H188 0.929 . S
C181 C180 1.383 . S
C181 C182 1.377 . S
C182 H166 0.930 . S
C182 C181 1.377 . S
C182 C183 1.379 . S
C183 H167 0.931 . S
C183 C177 1.383 . S
C183 C182 1.379 . S
H184 C178 0.959 . S
H185 C178 0.961 . S
H186 C178 0.960 . S
H187 C179 0.930 . S
H188 C180 0.929 . S
H189 C197 0.929 . S
H190 C199 0.930 . S
H191 C201 0.930 . S
H192 C204 0.929 . S
H193 C207 0.930 . S
H194 C209 0.960 1_655 S
H195 C209 0.960 1_655 S
H196 C209 0.960 . S
C197 H189 0.929 . S
C197 C198 1.377 . S
C197 C199 1.384 . S
C198 C197 1.377 . S
C198 C204 1.390 1_565 S
C199 H190 0.930 . S
C199 C197 1.384 . S
C199 C200 1.372 . S
C200 C199 1.372 . S
C200 C201 1.400 . S
C200 C205 1.490 . S
C201 H191 0.930 . S
C201 C200 1.400 . S
C201 C204 1.386 1_565 S
H202 C218 0.930 . S
H203 C219 0.931 . S
C204 H192 0.929 . S
C204 C198 1.390 1_545 S
C204 C201 1.386 1_545 S
C205 C200 1.490 . S
C205 C207 1.395 . S
C205 C208 1.403 . S
H206 C212 0.930 . S
C207 H193 0.930 . S
C207 C205 1.395 . S
C207 C210 1.403 . S
C208 C205 1.403 . S
C208 C209 1.524 . S
C208 C212 1.400 . S
C209 H194 0.960 1_455 S
C209 H195 0.960 1_455 S
C209 H196 0.960 . S
C209 C208 1.524 . S
C210 C207 1.403 . S
C210 C211 1.392 . S
C210 C214 1.495 . S
C211 C210 1.392 . S
C211 C212 1.385 . S
C211 C213 1.478 . S
C212 H206 0.930 . S
C212 C208 1.400 . S
C212 C211 1.385 . S
C213 C211 1.478 . S
C213 C215 1.381 . S
C213 C219 1.383 . S
C214 C210 1.495 . S
C214 H220 0.959 . S
C214 H221 0.961 . S
C214 H222 0.960 . S
C215 C213 1.381 . S
C215 C216 1.394 . S
C215 H223 0.930 . S
C216 C215 1.394 . S
C216 C217 1.383 . S
C216 H224 0.929 . S
C217 C216 1.383 . S
C217 C218 1.377 . S
C218 H202 0.930 . S
C218 C217 1.377 . S
C218 C219 1.379 . S
C219 H203 0.931 . S
C219 C213 1.383 . S
C219 C218 1.379 . S
H220 C214 0.959 . S
H221 C214 0.961 . S
H222 C214 0.960 . S
H223 C215 0.930 . S
H224 C216 0.929 . S
H225 C233 0.929 . S
H226 C235 0.930 . S
H227 C237 0.930 . S
H228 C240 0.929 . S
H229 C243 0.930 . S
H230 C245 0.960 . S
H231 C245 0.960 . S
H232 C245 0.960 . S
C233 H225 0.929 . S
C233 C234 1.377 . S
C233 C235 1.384 . S
C234 C233 1.377 . S
C234 C240 1.390 . S
C235 H226 0.930 . S
C235 C233 1.384 . S
C235 C236 1.372 . S
C236 C235 1.372 . S
C236 C237 1.400 . S
C236 C241 1.490 . S
C237 H227 0.930 . S
C237 C236 1.400 . S
C237 C240 1.386 . S
H238 C254 0.930 . S
H239 C255 0.931 . S
C240 H228 0.929 . S
C240 C234 1.390 . S
C240 C237 1.386 . S
C241 C236 1.490 . S
C241 C243 1.395 . S
C241 C244 1.403 . S
H242 C248 0.930 . S
C243 H229 0.930 . S
C243 C241 1.395 . S
C243 C246 1.403 . S
C244 C241 1.403 . S
C244 C245 1.524 . S
C244 C248 1.400 . S
C245 H230 0.960 . S
C245 H231 0.960 . S
C245 H232 0.960 . S
C245 C244 1.524 . S
C246 C243 1.403 . S
C246 C247 1.392 . S
C246 C250 1.495 1_545 S
C247 C246 1.392 . S
C247 C248 1.385 . S
C247 C249 1.478 . S
C248 H242 0.930 . S
C248 C244 1.400 . S
C248 C247 1.385 . S
C249 C247 1.478 . S
C249 C251 1.381 . S
C249 C255 1.383 . S
C250 C246 1.495 1_565 S
C250 H256 0.959 . S
C250 H257 0.961 1_565 S
C250 H258 0.960 . S
C251 C249 1.381 . S
C251 C252 1.394 . S
C251 H259 0.930 . S
C252 C251 1.394 . S
C252 C253 1.383 . S
C252 H260 0.929 . S
C253 C252 1.383 . S
C253 C254 1.377 . S
C254 H238 0.930 . S
C254 C253 1.377 . S
C254 C255 1.379 . S
C255 H239 0.931 . S
C255 C249 1.383 . S
C255 C254 1.379 . S
H256 C250 0.959 . S
H257 C250 0.961 1_545 S
H258 C250 0.960 . S
H259 C251 0.930 . S
H260 C252 0.929 . S
H261 C269 0.929 . S
H262 C271 0.930 . S
H263 C273 0.930 . S
H264 C276 0.929 . S
H265 C279 0.930 . S
H266 C281 0.960 . S
H267 C281 0.960 . S
H268 C281 0.960 . S
C269 H261 0.929 . S
C269 C270 1.377 . S
C269 C271 1.384 . S
C270 C269 1.377 . S
C270 C276 1.390 . S
C271 H262 0.930 . S
C271 C269 1.384 . S
C271 C272 1.372 . S
C272 C271 1.372 . S
C272 C273 1.400 . S
C272 C277 1.490 . S
C273 H263 0.930 . S
C273 C272 1.400 . S
C273 C276 1.386 . S
H274 C290 0.930 . S
H275 C291 0.931 . S
C276 H264 0.929 . S
C276 C270 1.390 . S
C276 C273 1.386 . S
C277 C272 1.490 . S
C277 C279 1.395 . S
C277 C280 1.403 . S
H278 C284 0.930 . S
C279 H265 0.930 . S
C279 C277 1.395 . S
C279 C282 1.403 . S
C280 C277 1.403 . S
C280 C281 1.524 . S
C280 C284 1.400 . S
C281 H266 0.960 . S
C281 H267 0.960 . S
C281 H268 0.960 . S
C281 C280 1.524 . S
C282 C279 1.403 . S
C282 C283 1.392 . S
C282 C286 1.495 . S
C283 C282 1.392 . S
C283 C284 1.385 . S
C283 C285 1.478 . S
C284 H278 0.930 . S
C284 C280 1.400 . S
C284 C283 1.385 . S
C285 C283 1.478 . S
C285 C287 1.381 . S
C285 C291 1.383 . S
C286 C282 1.495 . S
C286 H292 0.959 . S
C286 H293 0.961 . S
C286 H294 0.960 . S
C287 C285 1.381 . S
C287 C288 1.394 . S
C287 H295 0.930 . S
C288 C287 1.394 . S
C288 C289 1.383 . S
C288 H296 0.929 . S
C289 C288 1.383 . S
C289 C290 1.377 . S
C290 H274 0.930 . S
C290 C289 1.377 . S
C290 C291 1.379 . S
C291 H275 0.931 . S
C291 C285 1.383 . S
C291 C290 1.379 . S
H292 C286 0.959 . S
H293 C286 0.961 . S
H294 C286 0.960 . S
H295 C287 0.930 . S
H296 C288 0.929 . S
H297 C305 0.929 . S
H298 C307 0.930 . S
H299 C309 0.930 . S
H300 C312 0.929 . S
H301 C315 0.930 . S
H302 C317 0.960 . S
H303 C317 0.960 . S
H304 C317 0.960 . S
C305 H297 0.929 . S
C305 C306 1.377 . S
C305 C307 1.384 . S
C306 C305 1.377 . S
C306 C312 1.390 . S
C307 H298 0.930 . S
C307 C305 1.384 . S
C307 C308 1.372 . S
C308 C307 1.372 . S
C308 C309 1.400 . S
C308 C313 1.490 . S
C309 H299 0.930 . S
C309 C308 1.400 . S
C309 C312 1.386 . S
H310 C326 0.930 . S
H311 C327 0.931 . S
C312 H300 0.929 . S
C312 C306 1.390 . S
C312 C309 1.386 . S
C313 C308 1.490 . S
C313 C315 1.395 . S
C313 C316 1.403 . S
H314 C320 0.930 . S
C315 H301 0.930 . S
C315 C313 1.395 . S
C315 C318 1.403 . S
C316 C313 1.403 . S
C316 C317 1.524 . S
C316 C320 1.400 . S
C317 H302 0.960 . S
C317 H303 0.960 . S
C317 H304 0.960 . S
C317 C316 1.524 . S
C318 C315 1.403 . S
C318 C319 1.392 . S
C318 C322 1.495 . S
C319 C318 1.392 . S
C319 C320 1.385 . S
C319 C321 1.478 . S
C320 H314 0.930 . S
C320 C316 1.400 . S
C320 C319 1.385 . S
C321 C319 1.478 . S
C321 C323 1.381 . S
C321 C327 1.383 . S
C322 C318 1.495 . S
C322 H328 0.959 . S
C322 H329 0.961 . S
C322 H330 0.960 . S
C323 C321 1.381 . S
C323 C324 1.394 . S
C323 H331 0.930 . S
C324 C323 1.394 . S
C324 C325 1.383 . S
C324 H332 0.929 . S
C325 C324 1.383 . S
C325 C326 1.377 . S
C326 H310 0.930 . S
C326 C325 1.377 . S
C326 C327 1.379 . S
C327 H311 0.931 . S
C327 C321 1.383 . S
C327 C326 1.379 . S
H328 C322 0.959 . S
H329 C322 0.961 . S
H330 C322 0.960 . S
H331 C323 0.930 . S
H332 C324 0.929 . S
H333 C341 0.929 . S
H334 C343 0.930 . S
H335 C345 0.930 . S
H336 C348 0.942 . S
H337 C351 0.930 . S
H338 C353 0.960 . S
H339 C353 0.960 . S
H340 C353 0.960 . S
C341 H333 0.929 . S
C341 C342 1.377 . S
C341 C343 1.384 1_545 S
C342 C341 1.377 . S
C342 C348 1.390 1_545 S
C343 H334 0.930 . S
C343 C341 1.384 1_565 S
C343 C344 1.372 . S
C344 C343 1.372 . S
C344 C345 1.400 . S
C344 C349 1.490 . S
C345 H335 0.930 . S
C345 C344 1.400 . S
C345 C348 1.386 . S
H346 C362 0.930 . S
H347 C363 0.931 . S
C348 H336 0.942 . S
C348 C342 1.390 1_565 S
C348 C345 1.386 . S
C349 C344 1.490 . S
C349 C351 1.395 1_554 S
C349 C352 1.403 . S
H350 C356 0.930 . S
C351 H337 0.930 . S
C351 C349 1.395 1_556 S
C351 C354 1.403 . S
C352 C349 1.403 . S
C352 C353 1.524 . S
C352 C356 1.400 . S
C353 H338 0.960 . S
C353 H339 0.960 . S
C353 H340 0.960 . S
C353 C352 1.524 . S
C354 C351 1.403 . S
C354 C355 1.392 . S
C354 C358 1.495 . S
C355 C354 1.392 . S
C355 C356 1.385 1_556 S
C355 C357 1.478 . S
C356 H350 0.930 . S
C356 C352 1.400 . S
C356 C355 1.385 1_554 S
C357 C355 1.478 . S
C357 C359 1.381 . S
C357 C363 1.383 . S
C358 C354 1.495 . S
C358 H364 0.959 . S
C358 H365 0.961 . S
C358 H366 0.960 . S
C359 C357 1.381 . S
C359 C360 1.394 . S
C359 H367 0.930 . S
C360 C359 1.394 . S
C360 C361 1.383 . S
C360 H368 0.929 . S
C361 C360 1.383 . S
C361 C362 1.377 . S
C362 H346 0.930 . S
C362 C361 1.377 . S
C362 C363 1.379 . S
C363 H347 0.931 . S
C363 C357 1.383 . S
C363 C362 1.379 . S
H364 C358 0.959 . S
H365 C358 0.961 . S
H366 C358 0.960 . S
H367 C359 0.930 . S
H368 C360 0.929 . S
H369 C377 0.929 . S
H370 C379 0.930 . S
H371 C381 0.930 . S
H372 C384 0.929 . S
H373 C387 0.930 . S
H374 C389 0.960 . S
H375 C389 0.960 1_655 S
H376 C389 0.960 . S
C377 H369 0.929 . S
C377 C378 1.377 . S
C377 C379 1.384 . S
C378 C377 1.377 . S
C378 C384 1.390 1_655 S
C379 H370 0.930 . S
C379 C377 1.384 . S
C379 C380 1.372 . S
C380 C379 1.372 . S
C380 C381 1.400 1_655 S
C380 C385 1.490 1_655 S
C381 H371 0.930 . S
C381 C380 1.400 1_455 S
C381 C384 1.386 . S
H382 C398 0.930 . S
H383 C399 0.931 . S
C384 H372 0.929 . S
C384 C378 1.390 1_455 S
C384 C381 1.386 . S
C385 C380 1.490 1_455 S
C385 C387 1.395 1_455 S
C385 C388 1.403 . S
H386 C392 0.930 . S
C387 H373 0.930 . S
C387 C385 1.395 1_655 S
C387 C390 1.403 1_655 S
C388 C385 1.403 . S
C388 C389 1.524 . S
C388 C392 1.400 . S
C389 H374 0.960 . S
C389 H375 0.960 1_455 S
C389 H376 0.960 . S
C389 C388 1.524 . S
C390 C387 1.403 1_455 S
C390 C391 1.392 . S
C390 C394 1.495 1_455 S
C391 C390 1.392 . S
C391 C392 1.385 . S
C391 C393 1.478 . S
C392 H386 0.930 . S
C392 C388 1.400 . S
C392 C391 1.385 . S
C393 C391 1.478 . S
C393 C395 1.381 1_455 S
C393 C399 1.383 . S
C394 C390 1.495 1_655 S
C394 H400 0.959 . S
C394 H401 0.961 1_655 S
C394 H402 0.960 . S
C395 C393 1.381 1_655 S
C395 C396 1.394 . S
C395 H403 0.930 . S
C396 C395 1.394 . S
C396 C397 1.383 1_655 S
C396 H404 0.929 . S
C397 C396 1.383 1_455 S
C397 C398 1.377 . S
C398 H382 0.930 . S
C398 C397 1.377 . S
C398 C399 1.379 . S
C399 H383 0.931 . S
C399 C393 1.383 . S
C399 C398 1.379 . S
H400 C394 0.959 . S
H401 C394 0.961 1_455 S
H402 C394 0.960 . S
H403 C395 0.930 . S
H404 C396 0.929 . S
H405 C413 0.929 1_565 S
H406 C415 0.930 1_565 S
H407 C417 0.930 . S
H408 C420 0.929 . S
H409 C423 0.930 . S
H410 C425 0.960 . S
H411 C425 0.960 . S
H412 C425 0.960 . S
C413 H405 0.929 1_545 S
C413 C414 1.377 . S
C413 C415 1.384 . S
C414 C413 1.377 . S
C414 C420 1.390 . S
C415 H406 0.930 1_545 S
C415 C413 1.384 . S
C415 C416 1.372 . S
C416 C415 1.372 . S
C416 C417 1.400 . S
C416 C421 1.490 . S
C417 H407 0.930 . S
C417 C416 1.400 . S
C417 C420 1.386 . S
H418 C434 0.930 . S
H419 C435 0.931 . S
C420 H408 0.929 . S
C420 C414 1.390 . S
C420 C417 1.386 . S
C421 C416 1.490 . S
C421 C423 1.395 . S
C421 C424 1.403 . S
H422 C428 0.930 . S
C423 H409 0.930 . S
C423 C421 1.395 . S
C423 C426 1.403 . S
C424 C421 1.403 . S
C424 C425 1.524 . S
C424 C428 1.400 . S
C425 H410 0.960 . S
C425 H411 0.960 . S
C425 H412 0.960 . S
C425 C424 1.524 . S
C426 C423 1.403 . S
C426 C427 1.392 . S
C426 C430 1.495 . S
C427 C426 1.392 . S
C427 C428 1.385 . S
C427 C429 1.478 . S
C428 H422 0.930 . S
C428 C424 1.400 . S
C428 C427 1.385 . S
C429 C427 1.478 . S
C429 C431 1.381 . S
C429 C435 1.383 . S
C430 C426 1.495 . S
C430 H436 0.959 . S
C430 H437 0.961 . S
C430 H438 0.960 . S
C431 C429 1.381 . S
C431 C432 1.394 . S
C431 H439 0.930 . S
C432 C431 1.394 . S
C432 C433 1.383 . S
C432 H440 0.929 . S
C433 C432 1.383 . S
C433 C434 1.377 . S
C434 H418 0.930 . S
C434 C433 1.377 . S
C434 C435 1.379 . S
C435 H419 0.931 . S
C435 C429 1.383 . S
C435 C434 1.379 . S
H436 C430 0.959 . S
H437 C430 0.961 . S
H438 C430 0.960 . S
H439 C431 0.930 . S
H440 C432 0.929 . S
H441 C449 0.929 . S
H442 C451 0.930 . S
H443 C453 0.930 . S
H444 C456 0.929 . S
H445 C459 0.930 . S
H446 C461 0.960 . S
H447 C461 0.960 . S
H448 C461 0.960 . S
C449 H441 0.929 . S
C449 C450 1.377 . S
C449 C451 1.384 . S
C450 C449 1.377 . S
C450 C456 1.390 . S
C451 H442 0.930 . S
C451 C449 1.384 . S
C451 C452 1.372 . S
C452 C451 1.372 . S
C452 C453 1.400 . S
C452 C457 1.490 . S
C453 H443 0.930 . S
C453 C452 1.400 . S
C453 C456 1.386 . S
H454 C470 0.930 . S
H455 C471 0.931 . S
C456 H444 0.929 . S
C456 C450 1.390 . S
C456 C453 1.386 . S
C457 C452 1.490 . S
C457 C459 1.395 1_554 S
C457 C460 1.403 . S
H458 C464 0.930 . S
C459 H445 0.930 . S
C459 C457 1.395 1_556 S
C459 C462 1.403 . S
C460 C457 1.403 . S
C460 C461 1.524 . S
C460 C464 1.400 . S
C461 H446 0.960 . S
C461 H447 0.960 . S
C461 H448 0.960 . S
C461 C460 1.524 . S
C462 C459 1.403 . S
C462 C463 1.392 . S
C462 C466 1.495 . S
C463 C462 1.392 . S
C463 C464 1.385 1_556 S
C463 C465 1.478 . S
C464 H458 0.930 . S
C464 C460 1.400 . S
C464 C463 1.385 1_554 S
C465 C463 1.478 . S
C465 C467 1.381 . S
C465 C471 1.383 . S
C466 C462 1.495 . S
C466 H472 0.959 . S
C466 H473 0.961 . S
C466 H474 0.960 . S
C467 C465 1.381 . S
C467 C468 1.394 . S
C467 H475 0.930 . S
C468 C467 1.394 . S
C468 C469 1.383 . S
C468 H476 0.929 . S
C469 C468 1.383 . S
C469 C470 1.377 . S
C470 H454 0.930 . S
C470 C469 1.377 . S
C470 C471 1.379 . S
C471 H455 0.931 . S
C471 C465 1.383 . S
C471 C470 1.379 . S
H472 C466 0.959 . S
H473 C466 0.961 . S
H474 C466 0.960 . S
H475 C467 0.930 . S
H476 C468 0.929 . S
H477 C485 0.929 . S
H478 C487 0.930 . S
H479 C489 0.930 . S
H480 C492 0.929 . S
H481 C495 0.930 . S
H482 C497 0.960 . S
H483 C497 0.960 . S
H484 C497 0.960 . S
C485 H477 0.929 . S
C485 C486 1.377 . S
C485 C487 1.384 . S
C486 C485 1.377 . S
C486 C492 1.390 . S
C487 H478 0.930 . S
C487 C485 1.384 . S
C487 C488 1.372 . S
C488 C487 1.372 . S
C488 C489 1.400 . S
C488 C493 1.490 . S
C489 H479 0.930 . S
C489 C488 1.400 . S
C489 C492 1.386 . S
H490 C506 0.930 . S
H491 C507 0.931 . S
C492 H480 0.929 . S
C492 C486 1.390 . S
C492 C489 1.386 . S
C493 C488 1.490 . S
C493 C495 1.395 . S
C493 C496 1.403 . S
H494 C500 0.930 1_655 S
C495 H481 0.930 . S
C495 C493 1.395 . S
C495 C498 1.403 . S
C496 C493 1.403 . S
C496 C497 1.524 1_455 S
C496 C500 1.400 . S
C497 H482 0.960 . S
C497 H483 0.960 . S
C497 H484 0.960 . S
C497 C496 1.524 1_655 S
C498 C495 1.403 . S
C498 C499 1.392 . S
C498 C502 1.495 . S
C499 C498 1.392 . S
C499 C500 1.385 . S
C499 C501 1.478 . S
C500 H494 0.930 1_455 S
C500 C496 1.400 . S
C500 C499 1.385 . S
C501 C499 1.478 . S
C501 C503 1.381 . S
C501 C507 1.383 . S
C502 C498 1.495 . S
C502 H508 0.959 . S
C502 H509 0.961 . S
C502 H510 0.960 . S
C503 C501 1.381 . S
C503 C504 1.394 . S
C503 H511 0.930 . S
C504 C503 1.394 . S
C504 C505 1.383 . S
C504 H512 0.929 . S
C505 C504 1.383 . S
C505 C506 1.377 . S
C506 H490 0.930 . S
C506 C505 1.377 . S
C506 C507 1.379 . S
C507 H491 0.931 . S
C507 C501 1.383 . S
C507 C506 1.379 . S
H508 C502 0.959 . S
H509 C502 0.961 . S
H510 C502 0.960 . S
H511 C503 0.930 . S
H512 C504 0.929 . S
C109 C47 1.278 . S
C90 C11 1.296 . S
C126 C26 1.486 . S
C145 C65 1.474 . S
C162 C40 1.375 . S
C181 C78 1.383 . S
C198 C5 1.135 1_565 S
C217 C45 1.285 . S
C253 C56 1.502 . S
C234 C18 1.494 . S
C270 C32 1.372 . S
C289 C69 1.395 . S
C325 C58 1.163 . S
C306 C39 1.167 . S
C342 C4 1.306 1_655 S
C361 C71 1.319 . S
C397 C52 1.354 . S
C378 C19 1.198 . S
C433 C60 1.187 . S
C414 C33 1.052 . S
C469 C73 1.292 . S
C450 C12 1.309 . S
C486 C25 1.379 . S
C505 C43 1.397 . S
