# Generated by pormake.
# Topology anh, (6,3)-cn, num edge types: 1
# Building blocks:
#     Node 0, Type 0, BuildingBlock: CUKXOW_clean_sbu_0, # of connection points: 6
#     Node 1, Type 0, BuildingBlock: CUKXOW_clean_sbu_0, # of connection points: 6
#     Node 2, Type 0, BuildingBlock: CUKXOW_clean_sbu_0, # of connection points: 6
#     Node 3, Type 1, BuildingBlock: OLANEW_clean_sbu_2, # of connection points: 3
#     Node 4, Type 1, BuildingBlock: OLANEW_clean_sbu_2, # of connection points: 3
#     Node 5, Type 1, BuildingBlock: OLANEW_clean_sbu_2, # of connection points: 3
#     Node 6, Type 1, BuildingBlock: OLANEW_clean_sbu_2, # of connection points: 3
#     Node 7, Type 1, BuildingBlock: OLANEW_clean_sbu_2, # of connection points: 3
#     Node 8, Type 1, BuildingBlock: OLANEW_clean_sbu_2, # of connection points: 3
#     Edge 9, Type (0, 1), BuildingBlock: CIFDUS_clean_linker_0, # of connection points: 2
#     Edge 10, Type (0, 1), BuildingBlock: CIFDUS_clean_linker_0, # of connection points: 2
#     Edge 11, Type (0, 1), BuildingBlock: CIFDUS_clean_linker_0, # of connection points: 2
#     Edge 12, Type (0, 1), BuildingBlock: CIFDUS_clean_linker_0, # of connection points: 2
#     Edge 13, Type (0, 1), BuildingBlock: CIFDUS_clean_linker_0, # of connection points: 2
#     Edge 14, Type (0, 1), BuildingBlock: CIFDUS_clean_linker_0, # of connection points: 2
#     Edge 15, Type (0, 1), BuildingBlock: CIFDUS_clean_linker_0, # of connection points: 2
#     Edge 16, Type (0, 1), BuildingBlock: CIFDUS_clean_linker_0, # of connection points: 2
#     Edge 17, Type (0, 1), BuildingBlock: CIFDUS_clean_linker_0, # of connection points: 2
#     Edge 18, Type (0, 1), BuildingBlock: CIFDUS_clean_linker_0, # of connection points: 2
#     Edge 19, Type (0, 1), BuildingBlock: CIFDUS_clean_linker_0, # of connection points: 2
#     Edge 20, Type (0, 1), BuildingBlock: CIFDUS_clean_linker_0, # of connection points: 2
#     Edge 21, Type (0, 1), BuildingBlock: CIFDUS_clean_linker_0, # of connection points: 2
#     Edge 22, Type (0, 1), BuildingBlock: CIFDUS_clean_linker_0, # of connection points: 2
#     Edge 23, Type (0, 1), BuildingBlock: CIFDUS_clean_linker_0, # of connection points: 2
#     Edge 24, Type (0, 1), BuildingBlock: CIFDUS_clean_linker_0, # of connection points: 2
#     Edge 25, Type (0, 1), BuildingBlock: CIFDUS_clean_linker_0, # of connection points: 2
#     Edge 26, Type (0, 1), BuildingBlock: CIFDUS_clean_linker_0, # of connection points: 2
# Relax obj value: 0.082
# Max RMSD: 0.150
# Mean RMSD: 0.110
data_MOF--net-anh--node1-CUKXOW_clean_sbu_0--node2-OLANEW_clean_sbu_2--edge1-CIFDUS_clean_linker_0
_symmetry_space_group_name_H-M    P1
_symmetry_Int_Tables_number       1
_symmetry_cell_setting            triclinic
loop_
_symmetry_equiv_pos_as_xyz
'x, y, z'
_cell_length_a     29.261162
_cell_length_b     27.98205
_cell_length_c     43.716924
_cell_angle_alpha  95.03435
_cell_angle_beta   90.116307
_cell_angle_gamma 115.55216
loop_
_atom_site_label
_atom_site_type_symbol
_atom_site_fract_x
_atom_site_fract_y
_atom_site_fract_z
_atom_type_partial_charge
Tb0 Tb 0.06368 0.53488 0.16804 0.0
C1 C 0.00697 0.46497 0.22118 0.0
Tb2 Tb 0.97991 0.42326 0.15127 0.0
O3 O 0.01473 0.57138 0.15485 0.0
O4 O 0.98356 0.49652 0.17102 0.0
O5 O 0.0488 0.50459 0.21302 0.0
C6 C 0.88916 0.34663 0.13218 0.0
O7 O 0.97071 0.43264 0.20079 0.0
C8 C 0.07154 0.42896 0.15866 0.0
C9 C 0.03848 0.49529 0.09814 0.0
O10 O 0.92296 0.34019 0.14844 0.0
O11 O 0.9073 0.39575 0.12604 0.0
O12 O 0.03038 0.38631 0.16229 0.0
O13 O 0.05908 0.46187 0.14777 0.0
O14 O 0.9982 0.45262 0.10561 0.0
O15 O 0.07281 0.52942 0.11889 0.0
C16 C 0.15115 0.61531 0.18838 0.0
O17 O 0.1122 0.62009 0.17751 0.0
O18 O 0.14076 0.56534 0.18797 0.0
C19 C 0.97292 0.52991 0.15888 0.0
Tb20 Tb 0.47189 0.00726 0.4967 0.0
C21 C 0.53589 0.05589 0.43949 0.0
Tb22 Tb 0.58065 0.09295 0.50829 0.0
O23 O 0.44191 0.06172 0.51714 0.0
O24 O 0.5102 0.09093 0.49529 0.0
O25 O 0.49432 0.01707 0.44902 0.0
C26 C 0.66997 0.17768 0.51078 0.0
O27 O 0.5728 0.09073 0.45865 0.0
C28 C 0.56674 0.99538 0.515 0.0
C29 C 0.51575 0.04987 0.56432 0.0
O30 O 0.66097 0.13016 0.49888 0.0
O31 O 0.62847 0.17775 0.52132 0.0
O32 O 0.60076 0.03727 0.53054 0.0
O33 O 0.54493 0.00957 0.4953 0.0
O34 O 0.55044 0.0932 0.55363 0.0
O35 O 0.48555 0.0075 0.54589 0.0
C36 C 0.38726 0.91773 0.48454 0.0
O37 O 0.39579 0.96348 0.47515 0.0
O38 O 0.42677 0.92221 0.50034 0.0
C39 C 0.48097 0.10438 0.51099 0.0
Tb40 Tb 0.50879 0.51894 0.82805 0.0
C41 C 0.56609 0.52276 0.88905 0.0
Tb42 Tb 0.6171 0.53289 0.82411 0.0
O43 O 0.48431 0.43972 0.8435 0.0
O44 O 0.54454 0.46948 0.81422 0.0
O45 O 0.52877 0.53105 0.87692 0.0
C46 C 0.70333 0.52295 0.82388 0.0
O47 O 0.60144 0.51699 0.87214 0.0
C48 C 0.60602 0.62048 0.82166 0.0
C49 C 0.55935 0.5273 0.76317 0.0
O50 O 0.6974 0.56297 0.83733 0.0
O51 O 0.66062 0.48821 0.81102 0.0
O52 O 0.64204 0.61204 0.80867 0.0
O53 O 0.58139 0.58281 0.8376 0.0
O54 O 0.59647 0.51908 0.77542 0.0
O55 O 0.52469 0.53432 0.78005 0.0
C56 C 0.42176 0.52692 0.82364 0.0
O57 O 0.42883 0.48599 0.81314 0.0
O58 O 0.46337 0.56299 0.83705 0.0
C59 C 0.52028 0.43169 0.8301 0.0
O60 O 0.52293 0.11127 0.2509 0.0
Cd61 Cd 0.51602 0.11268 0.19526 0.0
O62 O 0.51652 0.03177 0.23679 0.0
Cd63 Cd 0.50522 0.95183 0.2443 0.0
O64 O 0.43753 0.87755 0.23709 0.0
C65 C 0.39998 0.88487 0.22802 0.0
O66 O 0.40673 0.93363 0.22453 0.0
C67 C 0.5193 0.06686 0.25814 0.0
C68 C 0.61088 0.15435 0.1703 0.0
O69 O 0.58719 0.18317 0.17619 0.0
O70 O 0.58946 0.10553 0.17596 0.0
O71 O 0.53338 0.52827 0.56895 0.0
Cd72 Cd 0.52446 0.50574 0.51353 0.0
O73 O 0.4756 0.55895 0.57424 0.0
Cd74 Cd 0.47158 0.5764 0.52683 0.0
O75 O 0.47805 0.64862 0.50749 0.0
C76 C 0.49274 0.68825 0.5278 0.0
O77 O 0.50192 0.68111 0.55608 0.0
C78 C 0.5065 0.54407 0.58602 0.0
C79 C 0.5231 0.40489 0.50508 0.0
O80 O 0.56426 0.44693 0.50283 0.0
O81 O 0.48243 0.41046 0.50999 0.0
O82 O 0.07774 0.54635 0.91037 0.0
Cd83 Cd 0.08841 0.57745 0.8591 0.0
O84 O 0.05152 0.4609 0.89593 0.0
Cd85 Cd 0.03998 0.47441 0.84903 0.0
O86 O 0.98309 0.49558 0.83045 0.0
C87 C 0.97141 0.52503 0.84951 0.0
O88 O 0.99462 0.54012 0.87678 0.0
C89 C 0.0645 0.49898 0.91715 0.0
C90 C 0.1811 0.58525 0.84028 0.0
O91 O 0.17754 0.62521 0.85485 0.0
O92 O 0.14036 0.54258 0.83356 0.0
O93 O 0.04329 0.52151 0.42298 0.0
Cd94 Cd 0.046 0.55487 0.47661 0.0
O95 O 0.97691 0.53402 0.40969 0.0
Cd96 Cd 0.95837 0.54658 0.45705 0.0
O97 O 0.90254 0.4978 0.48763 0.0
C98 C 0.90301 0.45297 0.48944 0.0
O99 O 0.9391 0.44398 0.47603 0.0
C100 C 0.01244 0.5212 0.40238 0.0
C101 C 0.13844 0.64456 0.4867 0.0
O102 O 0.1339 0.59887 0.49298 0.0
O103 O 0.09883 0.64802 0.47679 0.0
O104 O 0.49471 0.9507 0.7527 0.0
Cd105 Cd 0.50907 0.94763 0.80758 0.0
O106 O 0.52327 0.03802 0.75728 0.0
Cd107 Cd 0.5333 0.05885 0.80682 0.0
O108 O 0.5424 0.13753 0.82567 0.0
C109 C 0.50993 0.14495 0.84219 0.0
O110 O 0.4714 0.1036 0.85132 0.0
C111 C 0.50648 0.99394 0.74056 0.0
C112 C 0.52525 0.85862 0.8177 0.0
O113 O 0.48159 0.85808 0.82138 0.0
O114 O 0.56108 0.90109 0.8095 0.0
O115 O 0.56216 0.48052 0.08119 0.0
Cd116 Cd 0.58403 0.47281 0.13448 0.0
O117 O 0.48374 0.47452 0.08173 0.0
Cd118 Cd 0.44826 0.46107 0.12642 0.0
O119 O 0.37486 0.45446 0.14366 0.0
C120 C 0.36274 0.49084 0.13668 0.0
O121 O 0.3954 0.52954 0.12203 0.0
C122 C 0.52366 0.48071 0.06752 0.0
C123 C 0.68086 0.47467 0.1418 0.0
O124 O 0.64065 0.43056 0.13878 0.0
O125 O 0.67555 0.5177 0.14114 0.0
H126 H 0.15576 0.50989 0.14095 0.0
H127 H 0.10451 0.35695 0.17619 0.0
H128 H 0.19066 0.36302 0.17391 0.0
H129 H 0.28035 0.41105 0.15994 0.0
H130 H 0.32979 0.5652 0.12592 0.0
H131 H 0.245 0.55994 0.13051 0.0
C132 C 0.16351 0.47825 0.14867 0.0
C133 C 0.12384 0.43319 0.15891 0.0
C134 C 0.21298 0.48227 0.14753 0.0
C135 C 0.13443 0.3921 0.16825 0.0
C136 C 0.1837 0.3956 0.16694 0.0
C137 C 0.27266 0.44365 0.15379 0.0
C138 C 0.3116 0.48828 0.14235 0.0
C139 C 0.22329 0.44038 0.15636 0.0
C140 C 0.30076 0.53017 0.13457 0.0
C141 C 0.25213 0.52724 0.13713 0.0
H142 H 0.69038 0.28171 0.52497 0.0
H143 H 0.75937 0.17793 0.49513 0.0
H144 H 0.83975 0.25476 0.48949 0.0
H145 H 0.88803 0.35054 0.48868 0.0
H146 H 0.81892 0.45544 0.51582 0.0
H147 H 0.74129 0.37917 0.52742 0.0
C148 C 0.72328 0.27613 0.51761 0.0
C149 C 0.7191 0.22446 0.51029 0.0
C150 C 0.76924 0.32059 0.51388 0.0
C151 C 0.76175 0.21746 0.50071 0.0
C152 C 0.80769 0.26132 0.49749 0.0
C153 C 0.85631 0.35695 0.49754 0.0
C154 C 0.85914 0.40857 0.50109 0.0
C155 C 0.81154 0.31298 0.50337 0.0
C156 C 0.81767 0.41606 0.51272 0.0
C157 C 0.77318 0.37244 0.51924 0.0
H158 H 0.53813 0.64925 0.85121 0.0
H159 H 0.65658 0.70017 0.78632 0.0
H160 H 0.64349 0.7793 0.78033 0.0
H161 H 0.59713 0.83307 0.79247 0.0
H162 H 0.47257 0.77809 0.85312 0.0
H163 H 0.48802 0.70064 0.86113 0.0
C164 C 0.5601 0.67696 0.83522 0.0
C165 C 0.59755 0.66831 0.81882 0.0
C166 C 0.55118 0.72158 0.83108 0.0
C167 C 0.62732 0.7058 0.79913 0.0
C168 C 0.61981 0.75103 0.79562 0.0
C169 C 0.57346 0.80419 0.80751 0.0
C170 C 0.53406 0.81147 0.82237 0.0
C171 C 0.5817 0.75919 0.81135 0.0
C172 C 0.50318 0.77334 0.84143 0.0
C173 C 0.51205 0.72913 0.84606 0.0
H174 H 0.88139 0.44893 0.1703 0.0
H175 H 0.94886 0.60444 0.13736 0.0
H176 H 0.86506 0.60161 0.12969 0.0
H177 H 0.77243 0.55512 0.13208 0.0
H178 H 0.70383 0.39708 0.16157 0.0
H179 H 0.78783 0.40056 0.17063 0.0
C180 C 0.87765 0.48188 0.16111 0.0
C181 C 0.92138 0.52671 0.15423 0.0
C182 C 0.82904 0.47954 0.15611 0.0
C183 C 0.91589 0.56943 0.1428 0.0
C184 C 0.86792 0.56784 0.13837 0.0
C185 C 0.77584 0.52137 0.14043 0.0
C186 C 0.73184 0.47605 0.14628 0.0
C187 C 0.82422 0.52313 0.14491 0.0
C188 C 0.737 0.43247 0.15681 0.0
C189 C 0.78508 0.43443 0.16203 0.0
H190 H 0.3641 0.82218 0.50584 0.0
H191 H 0.30079 0.90701 0.45548 0.0
H192 H 0.2178 0.83032 0.45239 0.0
H193 H 0.16304 0.73989 0.46468 0.0
H194 H 0.22621 0.65411 0.51441 0.0
H195 H 0.30938 0.73059 0.51729 0.0
C196 C 0.33213 0.82363 0.49404 0.0
C197 C 0.33836 0.87 0.4809 0.0
C198 C 0.28449 0.77947 0.49248 0.0
C199 C 0.29681 0.87159 0.4657 0.0
C200 C 0.24935 0.82788 0.46404 0.0
C201 C 0.19491 0.73798 0.47631 0.0
C202 C 0.18835 0.69149 0.48947 0.0
C203 C 0.24268 0.78179 0.47754 0.0
C204 C 0.2302 0.68949 0.50415 0.0
C205 C 0.2778 0.73316 0.50576 0.0
H206 H 0.4748 0.3521 0.86642 0.0
H207 H 0.58083 0.40104 0.79425 0.0
H208 H 0.59129 0.319 0.79415 0.0
H209 H 0.5662 0.2311 0.81224 0.0
H210 H 0.45563 0.17899 0.88196 0.0
H211 H 0.45109 0.26454 0.88545 0.0
C212 C 0.50034 0.3448 0.85079 0.0
C213 C 0.5275 0.38275 0.83061 0.0
C214 C 0.50517 0.29692 0.85036 0.0
C215 C 0.56035 0.37289 0.81041 0.0
C216 C 0.56602 0.3258 0.81019 0.0
C217 C 0.54158 0.23863 0.82852 0.0
C218 C 0.51128 0.19864 0.84682 0.0
C219 C 0.53821 0.2873 0.82983 0.0
C220 C 0.47928 0.20902 0.86757 0.0
C221 C 0.47656 0.25787 0.86951 0.0
H222 H 0.51598 0.90323 0.47766 0.0
H223 H 0.58717 0.96486 0.56808 0.0
H224 H 0.56879 0.87516 0.58023 0.0
H225 H 0.53561 0.78018 0.56483 0.0
H226 H 0.46715 0.7167 0.47393 0.0
H227 H 0.48137 0.80604 0.46224 0.0
C228 C 0.52715 0.89671 0.50002 0.0
C229 C 0.55309 0.94039 0.52192 0.0
C230 C 0.51726 0.84488 0.50668 0.0
C231 C 0.56759 0.93179 0.55078 0.0
C232 C 0.55704 0.88055 0.55777 0.0
C233 C 0.5236 0.78566 0.54244 0.0
C234 C 0.50045 0.74178 0.52028 0.0
C235 C 0.53245 0.83694 0.5358 0.0
C236 C 0.48528 0.74984 0.49138 0.0
C237 C 0.49335 0.80091 0.4847 0.0
H238 H 0.79231 0.5909 0.85224 0.0
H239 H 0.72098 0.44421 0.79318 0.0
H240 H 0.80046 0.43504 0.7928 0.0
H241 H 0.8885 0.46594 0.81219 0.0
H242 H 0.95757 0.60986 0.87382 0.0
H243 H 0.88094 0.62358 0.86987 0.0
C244 C 0.79435 0.55711 0.83919 0.0
C245 C 0.7512 0.51812 0.82294 0.0
C246 C 0.83974 0.55181 0.83943 0.0
C247 C 0.75396 0.47451 0.80602 0.0
C248 C 0.79931 0.46933 0.80573 0.0
C249 C 0.88697 0.50077 0.82424 0.0
C250 C 0.9283 0.53686 0.84324 0.0
C251 C 0.84225 0.50741 0.82269 0.0
C252 C 0.92591 0.58151 0.85913 0.0
C253 C 0.88216 0.58927 0.85697 0.0
H254 H 0.17586 0.71997 0.18945 0.0
H255 H 0.23605 0.60926 0.20902 0.0
H256 H 0.3187 0.68324 0.22383 0.0
H257 H 0.37403 0.77938 0.23005 0.0
H258 H 0.31323 0.8895 0.20967 0.0
H259 H 0.23056 0.81569 0.19636 0.0
C260 C 0.20708 0.71216 0.19708 0.0
C261 C 0.2002 0.65961 0.19824 0.0
C262 C 0.2543 0.75469 0.20533 0.0
C263 C 0.2407 0.64967 0.20808 0.0
C264 C 0.28788 0.69186 0.21647 0.0
C265 C 0.34265 0.7872 0.22279 0.0
C266 C 0.34982 0.83982 0.2208 0.0
C267 C 0.29516 0.74454 0.21503 0.0
C268 C 0.30879 0.84935 0.21135 0.0
C269 C 0.26145 0.80719 0.20372 0.0
H270 H 0.5546 0.19433 0.49182 0.0
H271 H 0.4111 0.1346 0.53548 0.0
H272 H 0.41078 0.22194 0.53661 0.0
H273 H 0.45057 0.31477 0.52453 0.0
H274 H 0.59584 0.376 0.48287 0.0
H275 H 0.59629 0.28861 0.48166 0.0
C276 C 0.52356 0.20066 0.50186 0.0
C277 C 0.48292 0.15818 0.51355 0.0
C278 C 0.52378 0.25108 0.50257 0.0
C279 C 0.4428 0.16675 0.52635 0.0
C280 C 0.44253 0.21661 0.52692 0.0
C281 C 0.48219 0.30894 0.515 0.0
C282 C 0.52285 0.35169 0.50351 0.0
C283 C 0.4826 0.25893 0.51488 0.0
C284 C 0.56395 0.34368 0.49172 0.0
C285 C 0.56427 0.29375 0.49106 0.0
H286 H 0.40597 0.61346 0.8406 0.0
H287 H 0.33085 0.45055 0.80066 0.0
H288 H 0.24981 0.45619 0.79928 0.0
H289 H 0.19982 0.5052 0.81307 0.0
H290 H 0.27451 0.66774 0.85403 0.0
H291 H 0.35662 0.66485 0.85081 0.0
C292 C 0.37182 0.57937 0.83147 0.0
C293 C 0.37388 0.53148 0.82112 0.0
C294 C 0.32552 0.58289 0.83086 0.0
C295 C 0.3298 0.48768 0.80897 0.0
C296 C 0.28358 0.4909 0.80816 0.0
C297 C 0.23408 0.54026 0.82093 0.0
C298 C 0.23105 0.5864 0.83406 0.0
C299 C 0.2809 0.538 0.81955 0.0
C300 C 0.27582 0.6316 0.84397 0.0
C301 C 0.32275 0.62993 0.84228 0.0
H302 H 0.84409 0.24584 0.14856 0.0
H303 H 0.81281 0.3658 0.10986 0.0
H304 H 0.72226 0.31435 0.11619 0.0
H305 H 0.65359 0.24109 0.13879 0.0
H306 H 0.68407 0.11989 0.17654 0.0
H307 H 0.77323 0.16563 0.16426 0.0
C308 C 0.81724 0.25994 0.14083 0.0
C309 C 0.83493 0.3097 0.12917 0.0
C310 C 0.76523 0.23033 0.14476 0.0
C311 C 0.79997 0.32759 0.11903 0.0
C312 C 0.74822 0.29839 0.12282 0.0
C313 C 0.67968 0.22441 0.14397 0.0
C314 C 0.66266 0.17781 0.159 0.0
C315 C 0.73068 0.2507 0.13669 0.0
C316 C 0.69647 0.15596 0.1651 0.0
C317 C 0.74745 0.18215 0.15817 0.0
H318 H 0.0067 0.42073 0.0487 0.0
H319 H 0.0927 0.58903 0.07479 0.0
H320 H 0.11078 0.60451 0.02122 0.0
H321 H 0.10062 0.5709 0.96706 0.0
H322 H 0.01657 0.40255 0.94034 0.0
H323 H 6e-05 0.38632 0.99415 0.0
C324 C 0.02916 0.46075 0.04256 0.0
C325 C 0.048 0.50372 0.06555 0.0
C326 C 0.04017 0.46932 0.01171 0.0
C327 C 0.07777 0.5553 0.05744 0.0
C328 C 0.08817 0.56422 0.02685 0.0
C329 C 0.07899 0.53057 0.97298 0.0
C330 C 0.05963 0.48809 0.94973 0.0
C331 C 0.06948 0.52158 0.00382 0.0
C332 C 0.03204 0.43601 0.95783 0.0
C333 C 0.02227 0.42671 0.98856 0.0
H334 H 0.47934 0.98754 0.39062 0.0
H335 H 0.60225 0.1434 0.41389 0.0
H336 H 0.60741 0.16058 0.36019 0.0
H337 H 0.57623 0.13259 0.30643 0.0
H338 H 0.4552 0.97653 0.28243 0.0
H339 H 0.45016 0.95818 0.3363 0.0
C340 C 0.50737 0.02513 0.38391 0.0
C341 C 0.54024 0.06399 0.40638 0.0
C342 C 0.51053 0.03483 0.35276 0.0
C343 C 0.57654 0.11247 0.39719 0.0
C344 C 0.57947 0.12258 0.36642 0.0
C345 C 0.54887 0.09459 0.31309 0.0
C346 C 0.51661 0.05572 0.29059 0.0
C347 C 0.5465 0.08424 0.34404 0.0
C348 C 0.48128 0.00657 0.29933 0.0
C349 C 0.47811 0.99624 0.33016 0.0
H350 H 0.49574 0.55345 0.73043 0.0
H351 H 0.61654 0.50442 0.72012 0.0
H352 H 0.61102 0.50571 0.66454 0.0
H353 H 0.57144 0.51979 0.61887 0.0
H354 H 0.45111 0.56951 0.62925 0.0
H355 H 0.45709 0.56888 0.68486 0.0
C356 C 0.52086 0.54296 0.71608 0.0
C357 C 0.55635 0.52866 0.72949 0.0
C358 C 0.51762 0.54388 0.68413 0.0
C359 C 0.58882 0.51557 0.71047 0.0
C360 C 0.58569 0.51624 0.67865 0.0
C361 C 0.54649 0.53052 0.63325 0.0
C362 C 0.51077 0.5445 0.61982 0.0
C363 C 0.55015 0.53019 0.66523 0.0
C364 C 0.47894 0.55851 0.6389 0.0
C365 C 0.48228 0.55814 0.67074 0.0
H366 H 0.47909 0.96158 0.59542 0.0
H367 H 0.54802 0.13333 0.60857 0.0
H368 H 0.54963 0.13062 0.66415 0.0
H369 H 0.53437 0.08016 0.70867 0.0
H370 H 0.46807 0.90842 0.69643 0.0
H371 H 0.4625 0.9105 0.64069 0.0
C372 C 0.49387 0.99837 0.61049 0.0
C373 C 0.51327 0.04762 0.59791 0.0
C374 C 0.49549 0.99655 0.6425 0.0
C375 C 0.53301 0.09495 0.61768 0.0
C376 C 0.53396 0.09344 0.64946 0.0
C377 C 0.51847 0.04301 0.69393 0.0
C378 C 0.50171 0.99418 0.7068 0.0
C379 C 0.5158 0.04453 0.66207 0.0
C380 C 0.48135 0.94658 0.68718 0.0
C381 C 0.47812 0.94775 0.65531 0.0
H382 H 0.49339 0.51574 0.9295 0.0
H383 H 0.64112 0.51683 0.92383 0.0
H384 H 0.64141 0.50427 0.97839 0.0
H385 H 0.59909 0.49159 0.02772 0.0
H386 H 0.45064 0.48917 0.03253 0.0
H387 H 0.45151 0.50351 0.97844 0.0
C388 C 0.52586 0.51358 0.94017 0.0
C389 C 0.56718 0.51736 0.92248 0.0
C390 C 0.52563 0.50583 0.97149 0.0
C391 C 0.6087 0.51403 0.93679 0.0
C392 C 0.60893 0.5068 0.96804 0.0
C393 C 0.56693 0.4942 0.01697 0.0
C394 C 0.52489 0.48917 0.03436 0.0
C395 C 0.56746 0.50236 0.98561 0.0
C396 C 0.48356 0.4927 0.01988 0.0
C397 C 0.48396 0.50101 0.98886 0.0
H398 H 0.07764 0.49381 0.26743 0.0
H399 H 0.91643 0.43209 0.24893 0.0
H400 H 0.90348 0.44269 0.30395 0.0
H401 H 0.93915 0.4766 0.35682 0.0
H402 H 0.10008 0.53468 0.37521 0.0
H403 H 0.1121 0.51843 0.32065 0.0
C404 C 0.03962 0.48205 0.27554 0.0
C405 C 0.99809 0.46268 0.25428 0.0
C406 C 0.03254 0.48816 0.30707 0.0
C407 C 0.94895 0.4469 0.26495 0.0
C408 C 0.94159 0.45338 0.29635 0.0
C409 C 0.97677 0.48542 0.34883 0.0
C410 C 0.01879 0.50749 0.36983 0.0
C411 C 0.98327 0.47516 0.31753 0.0
C412 C 0.06722 0.51783 0.3594 0.0
C413 C 0.07412 0.50864 0.32824 0.0
loop_
_geom_bond_atom_site_label_1
_geom_bond_atom_site_label_2
_geom_bond_distance
_geom_bond_site_symmetry_2
_ccdc_geom_bond_type
Tb0 O3 2.453 1_455 S
Tb0 O4 2.596 1_455 S
Tb0 O5 2.374 . S
Tb0 O13 2.343 . S
Tb0 O15 2.353 . S
Tb0 O17 2.427 . S
Tb0 O18 2.513 . S
C1 O5 1.251 . S
C1 O7 1.263 . S
Tb2 O4 2.343 1_455 S
Tb2 O7 2.353 . S
Tb2 O10 2.427 1_455 S
Tb2 O11 2.513 1_455 S
Tb2 O12 2.453 . S
Tb2 O13 2.596 . S
Tb2 O14 2.374 . S
O3 Tb0 2.453 1_655 S
O3 C19 1.245 . S
O4 Tb0 2.596 1_655 S
O4 Tb2 2.343 1_655 S
O4 C19 1.259 . S
O5 Tb0 2.374 . S
O5 C1 1.251 . S
C6 O10 1.275 . S
C6 O11 1.246 . S
O7 C1 1.263 . S
O7 Tb2 2.353 . S
C8 O12 1.245 . S
C8 O13 1.259 . S
C9 O14 1.250 . S
C9 O15 1.263 . S
O10 Tb2 2.427 1_655 S
O10 C6 1.275 . S
O11 Tb2 2.513 1_655 S
O11 C6 1.246 . S
O12 Tb2 2.453 . S
O12 C8 1.245 . S
O13 Tb0 2.343 . S
O13 Tb2 2.596 . S
O13 C8 1.259 . S
O14 Tb2 2.374 . S
O14 C9 1.250 . S
O15 Tb0 2.353 . S
O15 C9 1.263 . S
C16 O17 1.275 . S
C16 O18 1.246 . S
O17 Tb0 2.427 . S
O17 C16 1.275 . S
O18 Tb0 2.513 . S
O18 C16 1.246 . S
C19 O3 1.245 . S
C19 O4 1.259 . S
Tb20 O23 2.453 . S
Tb20 O24 2.596 . S
Tb20 O25 2.374 . S
Tb20 O33 2.343 1_545 S
Tb20 O35 2.353 . S
Tb20 O37 2.427 1_545 S
Tb20 O38 2.513 1_545 S
C21 O25 1.251 . S
C21 O27 1.263 . S
Tb22 O24 2.343 . S
Tb22 O27 2.353 . S
Tb22 O30 2.427 . S
Tb22 O31 2.513 . S
Tb22 O32 2.453 1_545 S
Tb22 O33 2.596 1_545 S
Tb22 O34 2.374 . S
O23 Tb20 2.453 . S
O23 C39 1.245 . S
O24 Tb20 2.596 . S
O24 Tb22 2.343 . S
O24 C39 1.259 . S
O25 Tb20 2.374 . S
O25 C21 1.251 . S
C26 O30 1.275 . S
C26 O31 1.246 . S
O27 C21 1.263 . S
O27 Tb22 2.353 . S
C28 O32 1.245 . S
C28 O33 1.259 . S
C29 O34 1.250 . S
C29 O35 1.263 . S
O30 Tb22 2.427 . S
O30 C26 1.275 . S
O31 Tb22 2.513 . S
O31 C26 1.246 . S
O32 Tb22 2.453 1_565 S
O32 C28 1.245 . S
O33 Tb20 2.343 1_565 S
O33 Tb22 2.596 1_565 S
O33 C28 1.259 . S
O34 Tb22 2.374 . S
O34 C29 1.250 . S
O35 Tb20 2.353 . S
O35 C29 1.263 . S
C36 O37 1.275 . S
C36 O38 1.246 . S
O37 Tb20 2.427 1_565 S
O37 C36 1.275 . S
O38 Tb20 2.513 1_565 S
O38 C36 1.246 . S
C39 O23 1.245 . S
C39 O24 1.259 . S
Tb40 O43 2.453 . S
Tb40 O44 2.596 . S
Tb40 O45 2.374 . S
Tb40 O53 2.343 . S
Tb40 O55 2.353 . S
Tb40 O57 2.427 . S
Tb40 O58 2.513 . S
C41 O45 1.251 . S
C41 O47 1.263 . S
Tb42 O44 2.343 . S
Tb42 O47 2.353 . S
Tb42 O50 2.427 . S
Tb42 O51 2.513 . S
Tb42 O52 2.453 . S
Tb42 O53 2.596 . S
Tb42 O54 2.374 . S
O43 Tb40 2.453 . S
O43 C59 1.245 . S
O44 Tb40 2.596 . S
O44 Tb42 2.343 . S
O44 C59 1.259 . S
O45 Tb40 2.374 . S
O45 C41 1.251 . S
C46 O50 1.275 . S
C46 O51 1.246 . S
O47 C41 1.263 . S
O47 Tb42 2.353 . S
C48 O52 1.245 . S
C48 O53 1.259 . S
C49 O54 1.250 . S
C49 O55 1.263 . S
O50 Tb42 2.427 . S
O50 C46 1.275 . S
O51 Tb42 2.513 . S
O51 C46 1.246 . S
O52 Tb42 2.453 . S
O52 C48 1.245 . S
O53 Tb40 2.343 . S
O53 Tb42 2.596 . S
O53 C48 1.259 . S
O54 Tb42 2.374 . S
O54 C49 1.250 . S
O55 Tb40 2.353 . S
O55 C49 1.263 . S
C56 O57 1.275 . S
C56 O58 1.246 . S
O57 Tb40 2.427 . S
O57 C56 1.275 . S
O58 Tb40 2.513 . S
O58 C56 1.246 . S
C59 O43 1.245 . S
C59 O44 1.259 . S
O60 Cd61 2.300 . S
O60 C67 1.275 . S
Cd61 O60 2.300 . S
Cd61 O69 2.381 . S
Cd61 O70 2.378 . S
O62 Cd63 2.385 . S
O62 C67 1.255 1_565 S
Cd63 O62 2.385 . S
Cd63 O64 2.317 . S
O64 Cd63 2.317 . S
O64 C65 1.232 . S
C65 O64 1.232 . S
C65 O66 1.218 . S
O66 C65 1.218 . S
C67 O60 1.275 . S
C67 O62 1.255 1_545 S
C68 O69 1.258 . S
C68 O70 1.256 . S
O69 Cd61 2.381 . S
O69 C68 1.258 . S
O70 Cd61 2.378 . S
O70 C68 1.256 . S
O71 Cd72 2.300 . S
O71 C78 1.275 . S
Cd72 O71 2.300 . S
Cd72 O80 2.381 . S
Cd72 O81 2.378 . S
O73 Cd74 2.385 . S
O73 C78 1.255 . S
Cd74 O73 2.385 . S
Cd74 O75 2.317 . S
O75 Cd74 2.317 . S
O75 C76 1.232 . S
C76 O75 1.232 . S
C76 O77 1.218 . S
O77 C76 1.218 . S
C78 O71 1.275 . S
C78 O73 1.255 . S
C79 O80 1.258 . S
C79 O81 1.256 . S
O80 Cd72 2.381 . S
O80 C79 1.258 . S
O81 Cd72 2.378 . S
O81 C79 1.256 . S
O82 Cd83 2.300 . S
O82 C89 1.275 . S
Cd83 O82 2.300 . S
Cd83 O91 2.381 . S
Cd83 O92 2.378 . S
O84 Cd85 2.385 1_455 S
O84 C89 1.255 . S
Cd85 O84 2.385 1_655 S
Cd85 O86 2.317 . S
O86 Cd85 2.317 . S
O86 C87 1.232 . S
C87 O86 1.232 . S
C87 O88 1.218 . S
O88 C87 1.218 . S
C89 O82 1.275 . S
C89 O84 1.255 . S
C90 O91 1.258 . S
C90 O92 1.256 . S
O91 Cd83 2.381 . S
O91 C90 1.258 . S
O92 Cd83 2.378 . S
O92 C90 1.256 . S
O93 Cd94 2.300 . S
O93 C100 1.275 1_455 S
Cd94 O93 2.300 . S
Cd94 O102 2.381 . S
Cd94 O103 2.378 . S
O95 Cd96 2.385 . S
O95 C100 1.255 . S
Cd96 O95 2.385 . S
Cd96 O97 2.317 . S
O97 Cd96 2.317 . S
O97 C98 1.232 . S
C98 O97 1.232 . S
C98 O99 1.218 . S
O99 C98 1.218 . S
C100 O93 1.275 1_655 S
C100 O95 1.255 . S
C101 O102 1.258 . S
C101 O103 1.256 . S
O102 Cd94 2.381 . S
O102 C101 1.258 . S
O103 Cd94 2.378 . S
O103 C101 1.256 . S
O104 Cd105 2.300 . S
O104 C111 1.275 1_565 S
Cd105 O104 2.300 . S
Cd105 O113 2.381 . S
Cd105 O114 2.378 . S
O106 Cd107 2.385 . S
O106 C111 1.255 . S
Cd107 O106 2.385 . S
Cd107 O108 2.317 . S
O108 Cd107 2.317 . S
O108 C109 1.232 . S
C109 O108 1.232 . S
C109 O110 1.218 . S
O110 C109 1.218 . S
C111 O104 1.275 1_545 S
C111 O106 1.255 . S
C112 O113 1.258 . S
C112 O114 1.256 . S
O113 Cd105 2.381 . S
O113 C112 1.258 . S
O114 Cd105 2.378 . S
O114 C112 1.256 . S
O115 Cd116 2.300 . S
O115 C122 1.275 . S
Cd116 O115 2.300 . S
Cd116 O124 2.381 . S
Cd116 O125 2.378 . S
O117 Cd118 2.385 . S
O117 C122 1.255 . S
Cd118 O117 2.385 . S
Cd118 O119 2.317 . S
O119 Cd118 2.317 . S
O119 C120 1.232 . S
C120 O119 1.232 . S
C120 O121 1.218 . S
O121 C120 1.218 . S
C122 O115 1.275 . S
C122 O117 1.255 . S
C123 O124 1.258 . S
C123 O125 1.256 . S
O124 Cd116 2.381 . S
O124 C123 1.258 . S
O125 Cd116 2.378 . S
O125 C123 1.256 . S
H126 C132 0.930 . S
H127 C135 0.930 . S
H128 C136 0.930 . S
H129 C137 0.930 . S
H130 C140 0.930 . S
H131 C141 0.930 . S
C132 H126 0.930 . S
C132 C133 1.355 . S
C132 C134 1.415 . S
C133 C132 1.355 . S
C133 C135 1.419 . S
C134 C132 1.415 . S
C134 C139 1.425 . S
C134 C141 1.409 . S
C135 H127 0.930 . S
C135 C133 1.419 . S
C135 C136 1.362 . S
C136 H128 0.930 . S
C136 C135 1.362 . S
C136 C139 1.409 . S
C137 H129 0.930 . S
C137 C138 1.355 . S
C137 C139 1.415 . S
C138 C137 1.355 . S
C138 C140 1.419 . S
C139 C134 1.425 . S
C139 C136 1.409 . S
C139 C137 1.415 . S
C140 H130 0.930 . S
C140 C138 1.419 . S
C140 C141 1.362 . S
C141 H131 0.930 . S
C141 C134 1.409 . S
C141 C140 1.362 . S
H142 C148 0.930 . S
H143 C151 0.930 . S
H144 C152 0.930 . S
H145 C153 0.930 . S
H146 C156 0.930 . S
H147 C157 0.930 . S
C148 H142 0.930 . S
C148 C149 1.355 . S
C148 C150 1.415 . S
C149 C148 1.355 . S
C149 C151 1.419 . S
C150 C148 1.415 . S
C150 C155 1.425 . S
C150 C157 1.409 . S
C151 H143 0.930 . S
C151 C149 1.419 . S
C151 C152 1.362 . S
C152 H144 0.930 . S
C152 C151 1.362 . S
C152 C155 1.409 . S
C153 H145 0.930 . S
C153 C154 1.355 . S
C153 C155 1.415 . S
C154 C153 1.355 . S
C154 C156 1.419 . S
C155 C150 1.425 . S
C155 C152 1.409 . S
C155 C153 1.415 . S
C156 H146 0.930 . S
C156 C154 1.419 . S
C156 C157 1.362 . S
C157 H147 0.930 . S
C157 C150 1.409 . S
C157 C156 1.362 . S
H158 C164 0.930 . S
H159 C167 0.930 . S
H160 C168 0.930 . S
H161 C169 0.930 . S
H162 C172 0.930 . S
H163 C173 0.930 . S
C164 H158 0.930 . S
C164 C165 1.355 . S
C164 C166 1.415 . S
C165 C164 1.355 . S
C165 C167 1.419 . S
C166 C164 1.415 . S
C166 C171 1.425 . S
C166 C173 1.409 . S
C167 H159 0.930 . S
C167 C165 1.419 . S
C167 C168 1.362 . S
C168 H160 0.930 . S
C168 C167 1.362 . S
C168 C171 1.409 . S
C169 H161 0.930 . S
C169 C170 1.355 . S
C169 C171 1.415 . S
C170 C169 1.355 . S
C170 C172 1.419 . S
C171 C166 1.425 . S
C171 C168 1.409 . S
C171 C169 1.415 . S
C172 H162 0.930 . S
C172 C170 1.419 . S
C172 C173 1.362 . S
C173 H163 0.930 . S
C173 C166 1.409 . S
C173 C172 1.362 . S
H174 C180 0.930 . S
H175 C183 0.930 . S
H176 C184 0.930 . S
H177 C185 0.930 . S
H178 C188 0.930 . S
H179 C189 0.930 . S
C180 H174 0.930 . S
C180 C181 1.355 . S
C180 C182 1.415 . S
C181 C180 1.355 . S
C181 C183 1.419 . S
C182 C180 1.415 . S
C182 C187 1.425 . S
C182 C189 1.409 . S
C183 H175 0.930 . S
C183 C181 1.419 . S
C183 C184 1.362 . S
C184 H176 0.930 . S
C184 C183 1.362 . S
C184 C187 1.409 . S
C185 H177 0.930 . S
C185 C186 1.355 . S
C185 C187 1.415 . S
C186 C185 1.355 . S
C186 C188 1.419 . S
C187 C182 1.425 . S
C187 C184 1.409 . S
C187 C185 1.415 . S
C188 H178 0.930 . S
C188 C186 1.419 . S
C188 C189 1.362 . S
C189 H179 0.930 . S
C189 C182 1.409 . S
C189 C188 1.362 . S
H190 C196 0.930 . S
H191 C199 0.930 . S
H192 C200 0.930 . S
H193 C201 0.930 . S
H194 C204 0.930 . S
H195 C205 0.930 . S
C196 H190 0.930 . S
C196 C197 1.355 . S
C196 C198 1.415 . S
C197 C196 1.355 . S
C197 C199 1.419 . S
C198 C196 1.415 . S
C198 C203 1.425 . S
C198 C205 1.409 . S
C199 H191 0.930 . S
C199 C197 1.419 . S
C199 C200 1.362 . S
C200 H192 0.930 . S
C200 C199 1.362 . S
C200 C203 1.409 . S
C201 H193 0.930 . S
C201 C202 1.355 . S
C201 C203 1.415 . S
C202 C201 1.355 . S
C202 C204 1.419 . S
C203 C198 1.425 . S
C203 C200 1.409 . S
C203 C201 1.415 . S
C204 H194 0.930 . S
C204 C202 1.419 . S
C204 C205 1.362 . S
C205 H195 0.930 . S
C205 C198 1.409 . S
C205 C204 1.362 . S
H206 C212 0.930 . S
H207 C215 0.930 . S
H208 C216 0.930 . S
H209 C217 0.930 . S
H210 C220 0.930 . S
H211 C221 0.930 . S
C212 H206 0.930 . S
C212 C213 1.355 . S
C212 C214 1.415 . S
C213 C212 1.355 . S
C213 C215 1.419 . S
C214 C212 1.415 . S
C214 C219 1.425 . S
C214 C221 1.409 . S
C215 H207 0.930 . S
C215 C213 1.419 . S
C215 C216 1.362 . S
C216 H208 0.930 . S
C216 C215 1.362 . S
C216 C219 1.409 . S
C217 H209 0.930 . S
C217 C218 1.355 . S
C217 C219 1.415 . S
C218 C217 1.355 . S
C218 C220 1.419 . S
C219 C214 1.425 . S
C219 C216 1.409 . S
C219 C217 1.415 . S
C220 H210 0.930 . S
C220 C218 1.419 . S
C220 C221 1.362 . S
C221 H211 0.930 . S
C221 C214 1.409 . S
C221 C220 1.362 . S
H222 C228 0.930 . S
H223 C231 0.930 . S
H224 C232 0.930 . S
H225 C233 0.930 . S
H226 C236 0.930 . S
H227 C237 0.930 . S
C228 H222 0.930 . S
C228 C229 1.355 . S
C228 C230 1.415 . S
C229 C228 1.355 . S
C229 C231 1.419 . S
C230 C228 1.415 . S
C230 C235 1.425 . S
C230 C237 1.409 . S
C231 H223 0.930 . S
C231 C229 1.419 . S
C231 C232 1.362 . S
C232 H224 0.930 . S
C232 C231 1.362 . S
C232 C235 1.409 . S
C233 H225 0.930 . S
C233 C234 1.355 . S
C233 C235 1.415 . S
C234 C233 1.355 . S
C234 C236 1.419 . S
C235 C230 1.425 . S
C235 C232 1.409 . S
C235 C233 1.415 . S
C236 H226 0.930 . S
C236 C234 1.419 . S
C236 C237 1.362 . S
C237 H227 0.930 . S
C237 C230 1.409 . S
C237 C236 1.362 . S
H238 C244 0.930 . S
H239 C247 0.930 . S
H240 C248 0.930 . S
H241 C249 0.930 . S
H242 C252 0.930 . S
H243 C253 0.930 . S
C244 H238 0.930 . S
C244 C245 1.355 . S
C244 C246 1.415 . S
C245 C244 1.355 . S
C245 C247 1.419 . S
C246 C244 1.415 . S
C246 C251 1.425 . S
C246 C253 1.409 . S
C247 H239 0.930 . S
C247 C245 1.419 . S
C247 C248 1.362 . S
C248 H240 0.930 . S
C248 C247 1.362 . S
C248 C251 1.409 . S
C249 H241 0.930 . S
C249 C250 1.355 . S
C249 C251 1.415 . S
C250 C249 1.355 . S
C250 C252 1.419 . S
C251 C246 1.425 . S
C251 C248 1.409 . S
C251 C249 1.415 . S
C252 H242 0.930 . S
C252 C250 1.419 . S
C252 C253 1.362 . S
C253 H243 0.930 . S
C253 C246 1.409 . S
C253 C252 1.362 . S
H254 C260 0.930 . S
H255 C263 0.930 . S
H256 C264 0.930 . S
H257 C265 0.930 . S
H258 C268 0.930 . S
H259 C269 0.930 . S
C260 H254 0.930 . S
C260 C261 1.355 . S
C260 C262 1.415 . S
C261 C260 1.355 . S
C261 C263 1.419 . S
C262 C260 1.415 . S
C262 C267 1.425 . S
C262 C269 1.409 . S
C263 H255 0.930 . S
C263 C261 1.419 . S
C263 C264 1.362 . S
C264 H256 0.930 . S
C264 C263 1.362 . S
C264 C267 1.409 . S
C265 H257 0.930 . S
C265 C266 1.355 . S
C265 C267 1.415 . S
C266 C265 1.355 . S
C266 C268 1.419 . S
C267 C262 1.425 . S
C267 C264 1.409 . S
C267 C265 1.415 . S
C268 H258 0.930 . S
C268 C266 1.419 . S
C268 C269 1.362 . S
C269 H259 0.930 . S
C269 C262 1.409 . S
C269 C268 1.362 . S
H270 C276 0.930 . S
H271 C279 0.930 . S
H272 C280 0.930 . S
H273 C281 0.930 . S
H274 C284 0.930 . S
H275 C285 0.930 . S
C276 H270 0.930 . S
C276 C277 1.355 . S
C276 C278 1.415 . S
C277 C276 1.355 . S
C277 C279 1.419 . S
C278 C276 1.415 . S
C278 C283 1.425 . S
C278 C285 1.409 . S
C279 H271 0.930 . S
C279 C277 1.419 . S
C279 C280 1.362 . S
C280 H272 0.930 . S
C280 C279 1.362 . S
C280 C283 1.409 . S
C281 H273 0.930 . S
C281 C282 1.355 . S
C281 C283 1.415 . S
C282 C281 1.355 . S
C282 C284 1.419 . S
C283 C278 1.425 . S
C283 C280 1.409 . S
C283 C281 1.415 . S
C284 H274 0.930 . S
C284 C282 1.419 . S
C284 C285 1.362 . S
C285 H275 0.930 . S
C285 C278 1.409 . S
C285 C284 1.362 . S
H286 C292 0.930 . S
H287 C295 0.930 . S
H288 C296 0.930 . S
H289 C297 0.930 . S
H290 C300 0.930 . S
H291 C301 0.930 . S
C292 H286 0.930 . S
C292 C293 1.355 . S
C292 C294 1.415 . S
C293 C292 1.355 . S
C293 C295 1.419 . S
C294 C292 1.415 . S
C294 C299 1.425 . S
C294 C301 1.409 . S
C295 H287 0.930 . S
C295 C293 1.419 . S
C295 C296 1.362 . S
C296 H288 0.930 . S
C296 C295 1.362 . S
C296 C299 1.409 . S
C297 H289 0.930 . S
C297 C298 1.355 . S
C297 C299 1.415 . S
C298 C297 1.355 . S
C298 C300 1.419 . S
C299 C294 1.425 . S
C299 C296 1.409 . S
C299 C297 1.415 . S
C300 H290 0.930 . S
C300 C298 1.419 . S
C300 C301 1.362 . S
C301 H291 0.930 . S
C301 C294 1.409 . S
C301 C300 1.362 . S
H302 C308 0.930 . S
H303 C311 0.930 . S
H304 C312 0.930 . S
H305 C313 0.930 . S
H306 C316 0.930 . S
H307 C317 0.930 . S
C308 H302 0.930 . S
C308 C309 1.355 . S
C308 C310 1.415 . S
C309 C308 1.355 . S
C309 C311 1.419 . S
C310 C308 1.415 . S
C310 C315 1.425 . S
C310 C317 1.409 . S
C311 H303 0.930 . S
C311 C309 1.419 . S
C311 C312 1.362 . S
C312 H304 0.930 . S
C312 C311 1.362 . S
C312 C315 1.409 . S
C313 H305 0.930 . S
C313 C314 1.355 . S
C313 C315 1.415 . S
C314 C313 1.355 . S
C314 C316 1.419 . S
C315 C310 1.425 . S
C315 C312 1.409 . S
C315 C313 1.415 . S
C316 H306 0.930 . S
C316 C314 1.419 . S
C316 C317 1.362 . S
C317 H307 0.930 . S
C317 C310 1.409 . S
C317 C316 1.362 . S
H318 C324 0.930 1_655 S
H319 C327 0.930 . S
H320 C328 0.930 . S
H321 C329 0.930 . S
H322 C332 0.930 . S
H323 C333 0.930 . S
C324 H318 0.930 1_455 S
C324 C325 1.355 . S
C324 C326 1.415 . S
C325 C324 1.355 . S
C325 C327 1.419 . S
C326 C324 1.415 . S
C326 C331 1.425 . S
C326 C333 1.409 1_454 S
C327 H319 0.930 . S
C327 C325 1.419 . S
C327 C328 1.362 . S
C328 H320 0.930 . S
C328 C327 1.362 . S
C328 C331 1.409 . S
C329 H321 0.930 . S
C329 C330 1.355 . S
C329 C331 1.415 1_556 S
C330 C329 1.355 . S
C330 C332 1.419 1_455 S
C331 C326 1.425 . S
C331 C328 1.409 . S
C331 C329 1.415 1_554 S
C332 H322 0.930 . S
C332 C330 1.419 1_655 S
C332 C333 1.362 . S
C333 H323 0.930 . S
C333 C326 1.409 1_656 S
C333 C332 1.362 . S
H334 C340 0.930 1_565 S
H335 C343 0.930 . S
H336 C344 0.930 . S
H337 C345 0.930 . S
H338 C348 0.930 . S
H339 C349 0.930 . S
C340 H334 0.930 1_545 S
C340 C341 1.355 . S
C340 C342 1.415 . S
C341 C340 1.355 . S
C341 C343 1.419 . S
C342 C340 1.415 . S
C342 C347 1.425 . S
C342 C349 1.409 1_545 S
C343 H335 0.930 . S
C343 C341 1.419 . S
C343 C344 1.362 . S
C344 H336 0.930 . S
C344 C343 1.362 . S
C344 C347 1.409 . S
C345 H337 0.930 . S
C345 C346 1.355 . S
C345 C347 1.415 . S
C346 C345 1.355 . S
C346 C348 1.419 1_545 S
C347 C342 1.425 . S
C347 C344 1.409 . S
C347 C345 1.415 . S
C348 H338 0.930 . S
C348 C346 1.419 1_565 S
C348 C349 1.362 . S
C349 H339 0.930 . S
C349 C342 1.409 1_565 S
C349 C348 1.362 . S
H350 C356 0.930 . S
H351 C359 0.930 . S
H352 C360 0.930 . S
H353 C361 0.930 . S
H354 C364 0.930 . S
H355 C365 0.930 . S
C356 H350 0.930 . S
C356 C357 1.355 . S
C356 C358 1.415 . S
C357 C356 1.355 . S
C357 C359 1.419 . S
C358 C356 1.415 . S
C358 C363 1.425 . S
C358 C365 1.409 . S
C359 H351 0.930 . S
C359 C357 1.419 . S
C359 C360 1.362 . S
C360 H352 0.930 . S
C360 C359 1.362 . S
C360 C363 1.409 . S
C361 H353 0.930 . S
C361 C362 1.355 . S
C361 C363 1.415 . S
C362 C361 1.355 . S
C362 C364 1.419 . S
C363 C358 1.425 . S
C363 C360 1.409 . S
C363 C361 1.415 . S
C364 H354 0.930 . S
C364 C362 1.419 . S
C364 C365 1.362 . S
C365 H355 0.930 . S
C365 C358 1.409 . S
C365 C364 1.362 . S
H366 C372 0.930 . S
H367 C375 0.930 . S
H368 C376 0.930 . S
H369 C377 0.930 . S
H370 C380 0.930 . S
H371 C381 0.930 . S
C372 H366 0.930 . S
C372 C373 1.355 1_565 S
C372 C374 1.415 . S
C373 C372 1.355 1_545 S
C373 C375 1.419 . S
C374 C372 1.415 . S
C374 C379 1.425 1_565 S
C374 C381 1.409 . S
C375 H367 0.930 . S
C375 C373 1.419 . S
C375 C376 1.362 . S
C376 H368 0.930 . S
C376 C375 1.362 . S
C376 C379 1.409 . S
C377 H369 0.930 . S
C377 C378 1.355 . S
C377 C379 1.415 . S
C378 C377 1.355 . S
C378 C380 1.419 1_545 S
C379 C374 1.425 1_545 S
C379 C376 1.409 . S
C379 C377 1.415 . S
C380 H370 0.930 . S
C380 C378 1.419 1_565 S
C380 C381 1.362 . S
C381 H371 0.930 . S
C381 C374 1.409 . S
C381 C380 1.362 . S
H382 C388 0.930 . S
H383 C391 0.930 . S
H384 C392 0.930 . S
H385 C393 0.930 . S
H386 C396 0.930 . S
H387 C397 0.930 . S
C388 H382 0.930 . S
C388 C389 1.355 . S
C388 C390 1.415 . S
C389 C388 1.355 . S
C389 C391 1.419 . S
C390 C388 1.415 . S
C390 C395 1.425 . S
C390 C397 1.409 . S
C391 H383 0.930 . S
C391 C389 1.419 . S
C391 C392 1.362 . S
C392 H384 0.930 . S
C392 C391 1.362 . S
C392 C395 1.409 . S
C393 H385 0.930 . S
C393 C394 1.355 . S
C393 C395 1.415 1_554 S
C394 C393 1.355 . S
C394 C396 1.419 . S
C395 C390 1.425 . S
C395 C392 1.409 . S
C395 C393 1.415 1_556 S
C396 H386 0.930 . S
C396 C394 1.419 . S
C396 C397 1.362 1_554 S
C397 H387 0.930 . S
C397 C390 1.409 . S
C397 C396 1.362 1_556 S
H398 C404 0.930 . S
H399 C407 0.930 . S
H400 C408 0.930 . S
H401 C409 0.930 . S
H402 C412 0.930 . S
H403 C413 0.930 . S
C404 H398 0.930 . S
C404 C405 1.355 . S
C404 C406 1.415 . S
C405 C404 1.355 . S
C405 C407 1.419 1_455 S
C406 C404 1.415 . S
C406 C411 1.425 1_455 S
C406 C413 1.409 . S
C407 H399 0.930 . S
C407 C405 1.419 1_655 S
C407 C408 1.362 . S
C408 H400 0.930 . S
C408 C407 1.362 . S
C408 C411 1.409 . S
C409 H401 0.930 . S
C409 C410 1.355 . S
C409 C411 1.415 . S
C410 C409 1.355 . S
C410 C412 1.419 1_655 S
C411 C406 1.425 1_655 S
C411 C408 1.409 . S
C411 C409 1.415 . S
C412 H402 0.930 . S
C412 C410 1.419 1_455 S
C412 C413 1.362 . S
C413 H403 0.930 . S
C413 C406 1.409 . S
C413 C412 1.362 . S
C133 C8 2.056 . S
C138 C120 1.785 . S
C149 C26 1.454 . S
C154 C98 1.272 . S
C165 C48 1.424 . S
C170 C112 1.473 . S
C181 C19 1.691 . S
C186 C123 1.738 . S
C202 C101 1.381 . S
C197 C36 1.324 . S
C218 C109 1.544 . S
C213 C59 1.742 . S
C229 C28 1.683 . S
C234 C76 1.520 . S
C245 C46 1.324 . S
C250 C87 1.161 . S
C261 C16 1.627 . S
C266 C65 1.377 . S
C282 C79 1.567 . S
C277 C39 1.496 . S
C298 C90 0.875 . S
C293 C56 0.936 . S
C309 C6 1.308 . S
C314 C68 1.209 . S
C330 C89 1.432 . S
C325 C9 1.475 . S
C341 C21 1.508 . S
C346 C67 1.465 . S
C357 C49 1.518 . S
C362 C78 1.478 . S
C378 C111 1.386 . S
C373 C29 1.431 . S
C394 C122 1.539 . S
C389 C41 1.571 . S
C405 C1 1.548 . S
C410 C100 1.440 . S
