# Generated by pormake.
# Topology zzz, (3,6)-cn, num edge types: 1
# Building blocks:
#     Node 0, Type 0, BuildingBlock: OLANEW_clean_sbu_2, # of connection points: 3
#     Node 1, Type 0, BuildingBlock: OLANEW_clean_sbu_2, # of connection points: 3
#     Node 2, Type 0, BuildingBlock: OLANEW_clean_sbu_2, # of connection points: 3
#     Node 3, Type 0, BuildingBlock: OLANEW_clean_sbu_2, # of connection points: 3
#     Node 4, Type 0, BuildingBlock: OLANEW_clean_sbu_2, # of connection points: 3
#     Node 5, Type 0, BuildingBlock: OLANEW_clean_sbu_2, # of connection points: 3
#     Node 6, Type 0, BuildingBlock: OLANEW_clean_sbu_2, # of connection points: 3
#     Node 7, Type 0, BuildingBlock: OLANEW_clean_sbu_2, # of connection points: 3
#     Node 8, Type 1, BuildingBlock: BETDEL_clean_sbu_0, # of connection points: 6
#     Node 9, Type 1, BuildingBlock: BETDEL_clean_sbu_0, # of connection points: 6
#     Node 10, Type 1, BuildingBlock: BETDEL_clean_sbu_0, # of connection points: 6
#     Node 11, Type 1, BuildingBlock: BETDEL_clean_sbu_0, # of connection points: 6
#     Edge 12, Type (0, 1), BuildingBlock: XIVTED_clean_linker_0, # of connection points: 2
#     Edge 13, Type (0, 1), BuildingBlock: XIVTED_clean_linker_0, # of connection points: 2
#     Edge 14, Type (0, 1), BuildingBlock: XIVTED_clean_linker_0, # of connection points: 2
#     Edge 15, Type (0, 1), BuildingBlock: XIVTED_clean_linker_0, # of connection points: 2
#     Edge 16, Type (0, 1), BuildingBlock: XIVTED_clean_linker_0, # of connection points: 2
#     Edge 17, Type (0, 1), BuildingBlock: XIVTED_clean_linker_0, # of connection points: 2
#     Edge 18, Type (0, 1), BuildingBlock: XIVTED_clean_linker_0, # of connection points: 2
#     Edge 19, Type (0, 1), BuildingBlock: XIVTED_clean_linker_0, # of connection points: 2
#     Edge 20, Type (0, 1), BuildingBlock: XIVTED_clean_linker_0, # of connection points: 2
#     Edge 21, Type (0, 1), BuildingBlock: XIVTED_clean_linker_0, # of connection points: 2
#     Edge 22, Type (0, 1), BuildingBlock: XIVTED_clean_linker_0, # of connection points: 2
#     Edge 23, Type (0, 1), BuildingBlock: XIVTED_clean_linker_0, # of connection points: 2
#     Edge 24, Type (0, 1), BuildingBlock: XIVTED_clean_linker_0, # of connection points: 2
#     Edge 25, Type (0, 1), BuildingBlock: XIVTED_clean_linker_0, # of connection points: 2
#     Edge 26, Type (0, 1), BuildingBlock: XIVTED_clean_linker_0, # of connection points: 2
#     Edge 27, Type (0, 1), BuildingBlock: XIVTED_clean_linker_0, # of connection points: 2
#     Edge 28, Type (0, 1), BuildingBlock: XIVTED_clean_linker_0, # of connection points: 2
#     Edge 29, Type (0, 1), BuildingBlock: XIVTED_clean_linker_0, # of connection points: 2
#     Edge 30, Type (0, 1), BuildingBlock: XIVTED_clean_linker_0, # of connection points: 2
#     Edge 31, Type (0, 1), BuildingBlock: XIVTED_clean_linker_0, # of connection points: 2
#     Edge 32, Type (0, 1), BuildingBlock: XIVTED_clean_linker_0, # of connection points: 2
#     Edge 33, Type (0, 1), BuildingBlock: XIVTED_clean_linker_0, # of connection points: 2
#     Edge 34, Type (0, 1), BuildingBlock: XIVTED_clean_linker_0, # of connection points: 2
#     Edge 35, Type (0, 1), BuildingBlock: XIVTED_clean_linker_0, # of connection points: 2
# Relax obj value: 0.150
# Max RMSD: 0.173
# Mean RMSD: 0.121
data_MOF--net-zzz--node1-OLANEW_clean_sbu_2--node2-BETDEL_clean_sbu_0--edge1-XIVTED_clean_linker_0
_symmetry_space_group_name_H-M    P1
_symmetry_Int_Tables_number       1
_symmetry_cell_setting            triclinic
loop_
_symmetry_equiv_pos_as_xyz
'x, y, z'
_cell_length_a     53.220762
_cell_length_b     53.346272
_cell_length_c     16.602716
_cell_angle_alpha  91.705437
_cell_angle_beta   88.629459
_cell_angle_gamma 95.823529
loop_
_atom_site_label
_atom_site_type_symbol
_atom_site_fract_x
_atom_site_fract_y
_atom_site_fract_z
_atom_type_partial_charge
O0 O 0.78969 0.58817 0.92286 0.0
Cd1 Cd 0.75051 0.60641 0.95777 0.0
O2 O 0.77164 0.55008 0.9458 0.0
Cd3 Cd 0.77658 0.51096 0.97037 0.0
O4 O 0.80687 0.49573 0.03258 0.0
C5 C 0.80821 0.50243 0.10646 0.0
O6 O 0.79044 0.5152 0.13849 0.0
C7 C 0.79109 0.56457 0.92543 0.0
C8 C 0.70901 0.57845 0.88954 0.0
O9 O 0.72194 0.59591 0.85064 0.0
O10 O 0.71568 0.57421 0.96115 0.0
O11 O 0.90115 0.76779 0.84824 0.0
Cd12 Cd 0.88107 0.72471 0.86182 0.0
O13 O 0.91229 0.76711 0.97433 0.0
Cd14 Cd 0.9267 0.78668 0.08333 0.0
O15 O 0.9392 0.815 0.17454 0.0
C16 C 0.93582 0.83776 0.16168 0.0
O17 O 0.92458 0.84305 0.0956 0.0
C18 C 0.91192 0.77883 0.90888 0.0
C19 C 0.9086 0.68805 0.78908 0.0
O20 O 0.89266 0.69893 0.7493 0.0
O21 O 0.91175 0.69468 0.86329 0.0
O22 O 0.72262 0.95248 0.83818 0.0
Cd23 Cd 0.75205 0.92413 0.88477 0.0
O24 O 0.72739 0.97377 0.95249 0.0
Cd25 Cd 0.71842 0.00221 0.04269 0.0
O26 O 0.69267 0.01069 0.14091 0.0
C27 C 0.68548 0.99182 0.18359 0.0
O28 O 0.69525 0.9705 0.16802 0.0
C29 C 0.71683 0.97045 0.88456 0.0
C30 C 0.80116 0.94319 0.84645 0.0
O31 O 0.78802 0.92874 0.79679 0.0
O32 O 0.79117 0.9483 0.91522 0.0
O33 O 0.61752 0.73636 0.84103 0.0
Cd34 Cd 0.63628 0.77967 0.82691 0.0
O35 O 0.60704 0.74257 0.96838 0.0
Cd36 Cd 0.59363 0.72693 0.08332 0.0
O37 O 0.583 0.6992 0.17487 0.0
C38 C 0.58932 0.67714 0.16046 0.0
O39 O 0.60221 0.67272 0.09398 0.0
C40 C 0.60756 0.72801 0.90647 0.0
C41 C 0.60079 0.81361 0.80365 0.0
O42 O 0.60911 0.80064 0.74444 0.0
O43 O 0.60902 0.81032 0.87411 0.0
O44 O 0.25355 0.57659 0.24711 0.0
Cd45 Cd 0.29833 0.59081 0.23176 0.0
O46 O 0.25725 0.54352 0.16725 0.0
Cd47 Cd 0.23854 0.51327 0.09248 0.0
O48 O 0.20557 0.5014 0.02078 0.0
C49 C 0.20655 0.50653 0.94654 0.0
O50 O 0.2279 0.51687 0.91525 0.0
C51 C 0.24356 0.55683 0.21123 0.0
C52 C 0.32902 0.56549 0.328 0.0
O53 O 0.31851 0.58464 0.35567 0.0
O54 O 0.32474 0.5581 0.25499 0.0
O55 O 0.09447 0.24511 0.23314 0.0
Cd56 Cd 0.11084 0.28325 0.16375 0.0
O57 O 0.13259 0.23417 0.2493 0.0
Cd58 Cd 0.14177 0.24828 0.12991 0.0
O59 O 0.1232 0.21793 0.05364 0.0
C60 C 0.1237 0.19561 0.07848 0.0
O61 O 0.13697 0.19215 0.14218 0.0
C62 C 0.10912 0.23135 0.26655 0.0
C63 C 0.09123 0.32447 0.24085 0.0
O64 O 0.08079 0.31379 0.17822 0.0
O65 O 0.11122 0.31599 0.26606 0.0
O66 O 0.24868 0.89329 0.26611 0.0
Cd67 Cd 0.20477 0.88333 0.2301 0.0
O68 O 0.24988 0.92756 0.19558 0.0
Cd69 Cd 0.27129 0.96022 0.14143 0.0
O70 O 0.30145 0.97948 0.0681 0.0
C71 C 0.30647 0.9682 0.00208 0.0
O72 O 0.29281 0.94709 0.98246 0.0
C73 C 0.26062 0.91358 0.24197 0.0
C74 C 0.17615 0.91379 0.32615 0.0
O75 O 0.18173 0.89251 0.35056 0.0
O76 O 0.18362 0.92045 0.25528 0.0
O77 O 0.40769 0.26721 0.2391 0.0
Cd78 Cd 0.39046 0.22735 0.17764 0.0
O79 O 0.44488 0.26259 0.18462 0.0
Cd80 Cd 0.42665 0.24852 0.07423 0.0
O81 O 0.43144 0.28081 0.99428 0.0
C82 C 0.42696 0.30214 0.02486 0.0
O83 O 0.41703 0.30314 0.09786 0.0
C84 C 0.43134 0.2736 0.23568 0.0
C85 C 0.41331 0.18879 0.2476 0.0
O86 O 0.42092 0.19705 0.17858 0.0
O87 O 0.39467 0.19837 0.2826 0.0
Dy88 Dy 0.00808 0.99433 0.7391 0.0
C89 C 0.03623 0.06946 0.50359 0.0
C90 C 0.98548 0.9562 0.83052 0.0
Dy91 Dy 0.01588 0.03252 0.6018 0.0
O92 O 0.00971 0.9621 0.82338 0.0
O93 O 0.97377 0.97182 0.79055 0.0
O94 O 0.05 0.99278 0.74508 0.0
O95 O 0.0337 0.99966 0.63567 0.0
C96 C 0.05436 0.99863 0.67014 0.0
C97 C 0.96918 0.02543 0.66331 0.0
O98 O 0.00764 0.99815 0.52411 0.0
O99 O 0.99225 0.97259 0.62922 0.0
O100 O 0.01229 0.06461 0.52002 0.0
O101 O 0.04902 0.05363 0.53899 0.0
O102 O 0.97409 0.03109 0.58856 0.0
O103 O 0.98934 0.0262 0.70223 0.0
O104 O 0.01769 0.0291 0.81649 0.0
O105 O 0.03169 0.05445 0.70912 0.0
C106 C 0.99567 0.97691 0.551 0.0
C107 C 0.02875 0.05052 0.78737 0.0
Dy108 Dy 0.47418 0.98576 0.5418 0.0
C109 C 0.56207 0.03438 0.69825 0.0
C110 C 0.42831 0.96773 0.48333 0.0
Dy111 Dy 0.5156 0.01863 0.63834 0.0
O112 O 0.44952 0.95884 0.4634 0.0
O113 O 0.43217 0.98623 0.53559 0.0
O114 O 0.50351 0.96975 0.46228 0.0
O115 O 0.51036 0.00635 0.51334 0.0
C116 C 0.52012 0.98901 0.47455 0.0
C117 C 0.46945 0.01401 0.706 0.0
O118 O 0.50293 0.0496 0.56659 0.0
O119 O 0.46941 0.02524 0.50422 0.0
O120 O 0.54137 0.03052 0.74123 0.0
O121 O 0.55703 0.03073 0.62244 0.0
O122 O 0.48541 0.03395 0.71751 0.0
O123 O 0.47987 0.99725 0.66659 0.0
O124 O 0.48542 0.95625 0.62236 0.0
O125 O 0.52341 0.97863 0.65908 0.0
C126 C 0.48297 0.04715 0.5194 0.0
C127 C 0.50802 0.95745 0.65493 0.0
Dy128 Dy 0.51444 0.51608 0.71105 0.0
C129 C 0.4956 0.4438 0.45111 0.0
C130 C 0.53391 0.55225 0.81883 0.0
Dy131 Dy 0.5118 0.48034 0.56097 0.0
O132 O 0.51009 0.54757 0.80271 0.0
O133 O 0.54673 0.53658 0.77822 0.0
O134 O 0.47218 0.51514 0.71604 0.0
O135 O 0.4912 0.51129 0.60475 0.0
C136 C 0.46976 0.51035 0.63907 0.0
C137 C 0.55666 0.48796 0.63044 0.0
O138 O 0.5199 0.51592 0.49547 0.0
O139 O 0.53179 0.54028 0.60963 0.0
O140 O 0.51896 0.44941 0.47131 0.0
O141 O 0.48126 0.45877 0.4889 0.0
O142 O 0.5541 0.48397 0.55331 0.0
O143 O 0.53539 0.48567 0.66604 0.0
O144 O 0.50428 0.47977 0.77523 0.0
O145 O 0.49335 0.45649 0.65833 0.0
C146 C 0.53027 0.53707 0.52993 0.0
C147 C 0.49434 0.45881 0.73786 0.0
Dy148 Dy 0.98918 0.50135 0.60689 0.0
C149 C 0.06163 0.51653 0.34332 0.0
C150 C 0.95255 0.50545 0.72303 0.0
Dy151 Dy 0.02332 0.51394 0.45607 0.0
O152 O 0.95395 0.48603 0.67449 0.0
O153 O 0.97158 0.52209 0.70962 0.0
O154 O 0.00318 0.46295 0.61062 0.0
O155 O 0.00079 0.48084 0.49993 0.0
C156 C 0.00837 0.46222 0.53345 0.0
C157 C 0.00351 0.55291 0.52875 0.0
O158 O 0.98709 0.5027 0.3937 0.0
O159 O 0.96239 0.50847 0.5089 0.0
O160 O 0.04843 0.53489 0.36465 0.0
O161 O 0.05325 0.49639 0.38167 0.0
O162 O 0.00804 0.55154 0.4516 0.0
O163 O 0.0116 0.53462 0.56293 0.0
O164 O 0.02585 0.50651 0.66985 0.0
O165 O 0.0511 0.50892 0.55308 0.0
C166 C 0.96487 0.5051 0.42956 0.0
C167 C 0.04821 0.50739 0.63254 0.0
H168 H 0.15374 0.95544 0.28445 0.0
H169 H 0.09505 0.97747 0.72615 0.0
H170 H 0.16548 0.90948 0.48721 0.0
H171 H 0.06529 0.00563 0.51087 0.0
H172 H 0.12844 0.96024 0.64408 0.0
H173 H 0.1281 0.9811 0.37172 0.0
C174 C 0.15105 0.95083 0.34738 0.0
C175 C 0.16148 0.93011 0.37845 0.0
C176 C 0.1148 0.97052 0.61506 0.0
C177 C 0.13251 0.95951 0.4785 0.0
C178 C 0.09587 0.98049 0.66188 0.0
C179 C 0.07727 0.99272 0.62496 0.0
C180 C 0.11517 0.97301 0.53103 0.0
C181 C 0.0792 0.99616 0.54152 0.0
C182 C 0.13645 0.96548 0.39706 0.0
C183 C 0.15752 0.92509 0.46053 0.0
N184 N 0.09768 0.98614 0.49716 0.0
N185 N 0.14329 0.93965 0.50768 0.0
H186 H 0.4393 0.15245 0.17448 0.0
H187 H 0.48506 0.09595 0.57729 0.0
H188 H 0.41569 0.18004 0.40829 0.0
H189 H 0.46415 0.04875 0.36925 0.0
H190 H 0.46973 0.1319 0.51024 0.0
H191 H 0.4587 0.11875 0.24013 0.0
C192 C 0.43836 0.1515 0.23958 0.0
C193 C 0.42572 0.16886 0.28611 0.0
C194 C 0.46871 0.11365 0.47941 0.0
C195 C 0.44823 0.13092 0.36112 0.0
C196 C 0.47754 0.09327 0.51726 0.0
C197 C 0.47568 0.06942 0.47875 0.0
C198 C 0.45868 0.11018 0.40193 0.0
C199 C 0.46568 0.06682 0.40117 0.0
C200 C 0.44935 0.1323 0.27681 0.0
C201 C 0.42504 0.16683 0.37027 0.0
N202 N 0.45767 0.08699 0.36504 0.0
N203 N 0.43628 0.14825 0.40526 0.0
H204 H 0.33646 0.57159 0.49023 0.0
H205 H 0.46237 0.50419 0.47763 0.0
H206 H 0.36167 0.53135 0.27886 0.0
H207 H 0.4244 0.52287 0.70058 0.0
H208 H 0.4254 0.51342 0.40372 0.0
H209 H 0.36823 0.55374 0.56891 0.0
C210 C 0.34855 0.55884 0.4605 0.0
C211 C 0.34656 0.5531 0.37773 0.0
C212 C 0.42499 0.51517 0.46888 0.0
C213 C 0.38307 0.5328 0.46722 0.0
C214 C 0.44607 0.50985 0.51109 0.0
C215 C 0.44642 0.51284 0.59524 0.0
C216 C 0.4043 0.52397 0.51107 0.0
C217 C 0.42489 0.5204 0.63562 0.0
C218 C 0.36662 0.54859 0.50552 0.0
C219 C 0.36261 0.53636 0.34246 0.0
N220 N 0.40479 0.52605 0.59305 0.0
N221 N 0.3804 0.52704 0.38719 0.0
H222 H 0.10167 0.34366 0.39253 0.0
H223 H 0.01109 0.45351 0.37134 0.0
H224 H 0.05542 0.35306 0.1877 0.0
H225 H 0.03414 0.4258 0.59666 0.0
H226 H 0.03202 0.42047 0.29928 0.0
H227 H 0.08188 0.37753 0.4646 0.0
C228 C 0.08746 0.35294 0.36254 0.0
C229 C 0.08014 0.34551 0.28401 0.0
C230 C 0.03245 0.42158 0.36448 0.0
C231 C 0.05758 0.38428 0.36594 0.0
C232 C 0.02058 0.44044 0.40559 0.0
C233 C 0.02084 0.44224 0.48999 0.0
C234 C 0.04495 0.4046 0.40804 0.0
C235 C 0.03341 0.42489 0.53152 0.0
C236 C 0.0761 0.37216 0.40387 0.0
C237 C 0.06156 0.35812 0.24824 0.0
N238 N 0.0451 0.40682 0.49007 0.0
N239 N 0.05099 0.37695 0.28935 0.0
H240 H 0.83581 0.97094 0.94151 0.0
H241 H 0.93033 0.0054 0.57192 0.0
H242 H 0.82467 0.94107 0.69899 0.0
H243 H 0.9519 0.01962 0.81913 0.0
H244 H 0.88989 0.98465 0.6183 0.0
H245 H 0.87724 0.99115 0.89912 0.0
C246 C 0.84211 0.96855 0.8795 0.0
C247 C 0.82675 0.95438 0.82358 0.0
C248 C 0.90342 0.99228 0.66259 0.0
C249 C 0.87385 0.97758 0.77478 0.0
C250 C 0.92642 0.00428 0.63613 0.0
C251 C 0.94438 0.01413 0.69196 0.0
C252 C 0.89819 0.99035 0.74557 0.0
C253 C 0.93847 0.01212 0.77438 0.0
C254 C 0.86574 0.98006 0.85544 0.0
C255 C 0.83586 0.95183 0.74412 0.0
N256 N 0.91578 0.00043 0.79891 0.0
N257 N 0.85873 0.96345 0.72202 0.0
H258 H 0.58992 0.85263 0.90466 0.0
H259 H 0.49535 0.90839 0.60587 0.0
H260 H 0.57165 0.81811 0.67214 0.0
H261 H 0.54173 0.95443 0.77411 0.0
H262 H 0.51475 0.87121 0.64891 0.0
H263 H 0.5636 0.88626 0.8762 0.0
C264 C 0.58013 0.85195 0.84806 0.0
C265 C 0.58315 0.83269 0.79031 0.0
C266 C 0.52041 0.88946 0.67682 0.0
C267 C 0.55292 0.87091 0.75789 0.0
C268 C 0.50928 0.91059 0.65274 0.0
C269 C 0.5171 0.93448 0.6862 0.0
C270 C 0.53906 0.89228 0.73575 0.0
C271 C 0.53534 0.93636 0.74629 0.0
C272 C 0.56521 0.87117 0.83182 0.0
C273 C 0.57003 0.83276 0.71796 0.0
N274 N 0.54571 0.91554 0.76917 0.0
N275 N 0.55548 0.85162 0.70368 0.0
H276 H 0.67392 0.54456 0.96158 0.0
H277 H 0.59802 0.51144 0.55536 0.0
H278 H 0.69404 0.5787 0.73338 0.0
H279 H 0.56876 0.48911 0.78972 0.0
H280 H 0.63585 0.53234 0.61841 0.0
H281 H 0.63741 0.52073 0.89869 0.0
C282 C 0.6707 0.547 0.89825 0.0
C283 C 0.68702 0.56368 0.85266 0.0
C284 C 0.62122 0.52282 0.65616 0.0
C285 C 0.64545 0.5364 0.78041 0.0
C286 C 0.59972 0.51076 0.62014 0.0
C287 C 0.58027 0.49876 0.66769 0.0
C288 C 0.62336 0.52268 0.7403 0.0
C289 C 0.58334 0.49839 0.75124 0.0
C290 C 0.64985 0.53342 0.86248 0.0
C291 C 0.68193 0.56612 0.7709 0.0
N292 N 0.60448 0.51029 0.7851 0.0
N293 N 0.66163 0.5526 0.73741 0.0
H294 H 0.90834 0.67216 0.63095 0.0
H295 H 0.00118 0.56517 0.68998 0.0
H296 H 0.94094 0.65866 0.85933 0.0
H297 H 0.97537 0.58569 0.45909 0.0
H298 H 0.97775 0.59784 0.75496 0.0
H299 H 0.93141 0.63916 0.5684 0.0
C300 C 0.92037 0.66227 0.66799 0.0
C301 C 0.92274 0.66823 0.75051 0.0
C302 C 0.97722 0.59519 0.69009 0.0
C303 C 0.94921 0.63029 0.67919 0.0
C304 C 0.99044 0.57647 0.65315 0.0
C305 C 0.98996 0.57264 0.5693 0.0
C306 C 0.96349 0.61017 0.6426 0.0
C307 C 0.9762 0.58806 0.52399 0.0
C308 C 0.93357 0.64342 0.63219 0.0
C309 C 0.93861 0.65474 0.79545 0.0
N310 N 0.96347 0.6061 0.56121 0.0
N311 N 0.95121 0.63637 0.75924 0.0
H312 H 0.05948 0.21742 0.30444 0.0
H313 H 0.08623 0.08447 0.47774 0.0
H314 H 0.13438 0.19466 0.33091 0.0
H315 H 0.01164 0.10651 0.44138 0.0
H316 H 0.10443 0.12493 0.42562 0.0
H317 H 0.04175 0.17764 0.36092 0.0
C318 C 0.07224 0.20422 0.32317 0.0
C319 C 0.09847 0.20935 0.31259 0.0
C320 C 0.08408 0.12087 0.42866 0.0
C321 C 0.07825 0.16357 0.37613 0.0
C322 C 0.07372 0.09775 0.45786 0.0
C323 C 0.04744 0.09225 0.4636 0.0
C324 C 0.068 0.13857 0.40542 0.0
C325 C 0.03202 0.11006 0.43765 0.0
C326 C 0.06208 0.18141 0.35489 0.0
C327 C 0.11405 0.1915 0.33788 0.0
N328 N 0.04253 0.1325 0.40995 0.0
N329 N 0.10368 0.16931 0.36798 0.0
H330 H 0.29826 0.88352 0.26539 0.0
H331 H 0.38518 0.99087 0.49742 0.0
H332 H 0.28076 0.96063 0.28711 0.0
H333 H 0.41569 0.92569 0.38886 0.0
H334 H 0.34473 0.97769 0.43438 0.0
H335 H 0.33987 0.89639 0.32289 0.0
C336 C 0.30334 0.90318 0.28143 0.0
C337 C 0.28636 0.92116 0.2702 0.0
C338 C 0.36028 0.96629 0.42427 0.0
C339 C 0.33333 0.93582 0.33743 0.0
C340 C 0.38329 0.97371 0.46055 0.0
C341 C 0.4037 0.95932 0.44806 0.0
C342 C 0.35759 0.94412 0.37623 0.0
C343 C 0.40034 0.93729 0.39969 0.0
C344 C 0.327 0.91049 0.31406 0.0
C345 C 0.29361 0.94633 0.29274 0.0
N346 N 0.37761 0.93024 0.36571 0.0
N347 N 0.31649 0.9529 0.3259 0.0
H348 H 0.48075 0.29372 0.23731 0.0
H349 H 0.4466 0.42573 0.42752 0.0
H350 H 0.40609 0.30763 0.32363 0.0
H351 H 0.52311 0.40819 0.38181 0.0
H352 H 0.43116 0.38349 0.37809 0.0
H353 H 0.49667 0.33603 0.28432 0.0
C354 C 0.46777 0.30551 0.26727 0.0
C355 C 0.44202 0.29713 0.2764 0.0
C356 C 0.45132 0.38892 0.37837 0.0
C357 C 0.46004 0.34572 0.32875 0.0
C358 C 0.46012 0.41308 0.40578 0.0
C359 C 0.48613 0.42032 0.40874 0.0
C360 C 0.4687 0.37195 0.35368 0.0
C361 C 0.50288 0.40326 0.38037 0.0
C362 C 0.47685 0.32973 0.29357 0.0
C363 C 0.42608 0.31327 0.3154 0.0
N364 N 0.49387 0.37976 0.35432 0.0
N365 N 0.43532 0.33687 0.33952 0.0
H366 H 0.2068 0.58878 0.21383 0.0
H367 H 0.0955 0.48187 0.31456 0.0
H368 H 0.21783 0.51004 0.22571 0.0
H369 H 0.08395 0.55952 0.27736 0.0
H370 H 0.13954 0.49076 0.26899 0.0
H371 H 0.16118 0.57783 0.22794 0.0
C372 C 0.19954 0.56916 0.21887 0.0
C373 C 0.21599 0.55025 0.21755 0.0
C374 C 0.12728 0.50576 0.26959 0.0
C375 C 0.16389 0.53751 0.23422 0.0
C376 C 0.10211 0.50065 0.29512 0.0
C377 C 0.08621 0.52006 0.30028 0.0
C378 C 0.13654 0.5305 0.24986 0.0
C379 C 0.09567 0.54406 0.27467 0.0
C380 C 0.17351 0.56288 0.22646 0.0
C381 C 0.2057 0.52512 0.22449 0.0
N382 N 0.12032 0.54868 0.25158 0.0
N383 N 0.1803 0.51948 0.233 0.0
H384 H 0.95662 0.80038 0.96934 0.0
H385 H 0.9357 0.9386 0.8251 0.0
H386 H 0.89203 0.81734 0.83694 0.0
H387 H 0.00786 0.91847 0.90032 0.0
H388 H 0.91715 0.89569 0.85092 0.0
H389 H 0.97387 0.84472 0.96242 0.0
C390 C 0.94599 0.81353 0.93947 0.0
C391 C 0.92277 0.80535 0.90439 0.0
C392 C 0.93699 0.9007 0.86256 0.0
C393 C 0.94228 0.85595 0.8963 0.0
C394 C 0.94754 0.92525 0.84848 0.0
C395 C 0.97338 0.93201 0.86024 0.0
C396 C 0.95236 0.88279 0.88884 0.0
C397 C 0.98786 0.91397 0.89039 0.0
C398 C 0.95589 0.83876 0.93514 0.0
C399 C 0.90999 0.82296 0.86483 0.0
N400 N 0.97719 0.8901 0.90318 0.0
N401 N 0.91983 0.84746 0.86227 0.0
H402 H 0.70896 0.98676 0.73458 0.0
H403 H 0.57551 0.03388 0.856 0.0
H404 H 0.67936 0.98879 0.97838 0.0
H405 H 0.60656 0.0343 0.61363 0.0
H406 H 0.61618 0.02389 0.90546 0.0
H407 H 0.67413 0.00951 0.6919 0.0
C408 C 0.69531 0.99237 0.77931 0.0
C409 C 0.69725 0.98626 0.8603 0.0
C410 C 0.61426 0.02662 0.84162 0.0
C411 C 0.65714 0.012 0.81199 0.0
C412 C 0.59109 0.0325 0.81347 0.0
C413 C 0.58765 0.03467 0.73061 0.0
C414 C 0.634 0.02271 0.78632 0.0
C415 C 0.60841 0.03264 0.67802 0.0
C416 C 0.67547 0.00541 0.75505 0.0
C417 C 0.67904 0.99382 0.91585 0.0
N418 N 0.63058 0.02639 0.70662 0.0
N419 N 0.6596 0.00609 0.89054 0.0
H420 H 0.56294 0.70833 0.97538 0.0
H421 H 0.58399 0.567 0.83526 0.0
H422 H 0.62888 0.68728 0.8446 0.0
H423 H 0.51022 0.59094 0.88855 0.0
H424 H 0.60302 0.60926 0.87232 0.0
H425 H 0.54557 0.66382 0.97387 0.0
C426 C 0.57389 0.69425 0.94746 0.0
C427 C 0.59739 0.70132 0.9104 0.0
C428 C 0.58269 0.60518 0.87704 0.0
C429 C 0.57778 0.65069 0.90846 0.0
C430 C 0.57183 0.58102 0.85649 0.0
C431 C 0.54548 0.57562 0.85804 0.0
C432 C 0.5671 0.62403 0.8995 0.0
C433 C 0.53062 0.59445 0.88612 0.0
C434 C 0.56394 0.66896 0.94624 0.0
C435 C 0.61067 0.68253 0.87371 0.0
N436 N 0.54162 0.61797 0.90497 0.0
N437 N 0.60071 0.65806 0.8738 0.0
H438 H 0.8384 0.58591 0.96181 0.0
H439 H 0.90754 0.47611 0.73679 0.0
H440 H 0.79915 0.52045 0.84569 0.0
H441 H 0.94628 0.54699 0.8178 0.0
H442 H 0.86829 0.48874 0.79819 0.0
H443 H 0.87868 0.56917 0.92793 0.0
C444 C 0.83829 0.56789 0.92985 0.0
C445 C 0.81544 0.5543 0.90781 0.0
C446 C 0.88545 0.5014 0.80343 0.0
C447 C 0.8613 0.53507 0.86865 0.0
C448 C 0.90786 0.49412 0.76888 0.0
C449 C 0.93008 0.51061 0.77192 0.0
C450 C 0.8853 0.52535 0.84105 0.0
C451 C 0.9295 0.53376 0.81395 0.0
C452 C 0.86123 0.55831 0.91078 0.0
C453 C 0.8163 0.53114 0.8661 0.0
N454 N 0.9074 0.54055 0.84624 0.0
N455 N 0.83885 0.52227 0.84774 0.0
H456 H 0.11801 0.14649 0.12523 0.0
H457 H 0.02911 0.10005 0.75823 0.0
H458 H 0.09381 0.19541 0.94611 0.0
H459 H 0.05007 0.04952 0.93738 0.0
H460 H 0.05025 0.13542 0.83372 0.0
H461 H 0.09182 0.11112 0.06325 0.0
C462 C 0.10726 0.14981 0.0727 0.0
C463 C 0.1083 0.17397 0.04036 0.0
C464 C 0.05013 0.1167 0.85728 0.0
C465 C 0.07809 0.13352 0.9697 0.0
C466 C 0.03799 0.09644 0.81421 0.0
C467 C 0.03804 0.07178 0.84131 0.0
C468 C 0.06276 0.1124 0.92793 0.0
C469 C 0.04959 0.06826 0.91458 0.0
C470 C 0.09221 0.12959 0.03766 0.0
C471 C 0.09375 0.17713 0.97282 0.0
N472 N 0.06182 0.08837 0.95503 0.0
N473 N 0.07934 0.15715 0.93969 0.0
H474 H 0.32343 0.94654 0.86293 0.0
H475 H 0.44555 0.04578 0.80813 0.0
H476 H 0.33992 0.0105 0.02542 0.0
H477 H 0.43609 0.97218 0.69149 0.0
H478 H 0.40412 0.03669 0.87552 0.0
H479 H 0.3617 0.95958 0.78534 0.0
C480 C 0.33501 0.96344 0.88209 0.0
C481 C 0.32856 0.97731 0.9513 0.0
C482 C 0.41111 0.02265 0.83473 0.0
C483 C 0.37256 0.99232 0.86255 0.0
C484 C 0.43467 0.02782 0.79629 0.0
C485 C 0.44417 0.0097 0.74424 0.0
C486 C 0.397 0.99928 0.82026 0.0
C487 C 0.4294 0.98673 0.73088 0.0
C488 C 0.35692 0.97084 0.83779 0.0
C489 C 0.34426 0.99915 0.97276 0.0
N490 N 0.40659 0.98219 0.76863 0.0
N491 N 0.36564 0.00594 0.92872 0.0
H492 H 0.42901 0.3505 0.08653 0.0
H493 H 0.48352 0.41126 0.67701 0.0
H494 H 0.44475 0.30774 0.86952 0.0
H495 H 0.48292 0.45438 0.90138 0.0
H496 H 0.46655 0.37401 0.74679 0.0
H497 H 0.44558 0.38922 0.01974 0.0
C498 C 0.43574 0.34924 0.02459 0.0
C499 C 0.43541 0.32579 0.98336 0.0
C500 C 0.47013 0.39153 0.78118 0.0
C501 C 0.45451 0.37006 0.90706 0.0
C502 C 0.47981 0.413 0.74126 0.0
C503 C 0.48464 0.4362 0.78328 0.0
C504 C 0.46498 0.39297 0.86419 0.0
C505 C 0.47954 0.43693 0.86663 0.0
C506 C 0.44535 0.37137 0.98682 0.0
C507 C 0.4446 0.32534 0.90361 0.0
N508 N 0.46986 0.41559 0.90447 0.0
N509 N 0.45372 0.34713 0.86815 0.0
H510 H 0.20261 0.5126 0.78472 0.0
H511 H 0.05148 0.50071 0.79553 0.0
H512 H 0.15769 0.49447 -0.00095 0.0
H513 H 0.09734 0.51128 0.57859 0.0
H514 H 0.08993 0.49836 0.87179 0.0
H515 H 0.16395 0.51162 0.70827 0.0
C516 C 0.18461 0.50823 0.81561 0.0
C517 C 0.18339 0.50369 0.89842 0.0
C518 C 0.09151 0.50115 0.80746 0.0
C519 C 0.13896 0.50277 0.81138 0.0
C520 C 0.06958 0.50259 0.76391 0.0
C521 C 0.07113 0.5063 0.6805 0.0
C522 C 0.11515 0.50352 0.76733 0.0
C523 C 0.09513 0.50846 0.64277 0.0
C524 C 0.16252 0.5077 0.77193 0.0
C525 C 0.15952 0.49806 0.93523 0.0
N526 N 0.11614 0.5071 0.68647 0.0
N527 N 0.13822 0.49793 0.89155 0.0
H528 H 0.95117 0.83316 0.31614 0.0
H529 H 0.99143 0.98022 0.38754 0.0
H530 H 0.94069 0.88858 0.13889 0.0
H531 H 0.97962 0.92769 0.58109 0.0
H532 H 0.97682 0.94635 0.29206 0.0
H533 H 0.96575 0.86718 0.41096 0.0
C534 C 0.95195 0.85248 0.29717 0.0
C535 C 0.94463 0.85807 0.21967 0.0
C536 C 0.97739 0.9423 0.35548 0.0
C537 C 0.96141 0.89702 0.32756 0.0
C538 C 0.98581 0.96159 0.40997 0.0
C539 C 0.98676 0.95678 0.49243 0.0
C540 C 0.97017 0.91801 0.38358 0.0
C541 C 0.97914 0.93229 0.51811 0.0
C542 C 0.96019 0.87188 0.35137 0.0
C543 C 0.946 0.88344 0.19827 0.0
N544 N 0.97128 0.91379 0.46382 0.0
N545 N 0.95434 0.902 0.25187 0.0
H546 H 0.66253 0.95314 0.27103 0.0
H547 H 0.55297 0.03134 0.45377 0.0
H548 H 0.65973 0.03228 0.22861 0.0
H549 H 0.54647 0.95035 0.42455 0.0
H550 H 0.596 0.03319 0.39568 0.0
H551 H 0.62406 0.95327 0.35367 0.0
C552 C 0.654 0.97063 0.27979 0.0
C553 C 0.66418 0.99266 0.24193 0.0
C554 C 0.58517 0.01504 0.4025 0.0
C555 C 0.62007 0.99287 0.33637 0.0
C556 C 0.56073 0.01397 0.43575 0.0
C557 C 0.54627 0.99066 0.44331 0.0
C558 C 0.59512 0.9926 0.37757 0.0
C559 C 0.557 0.9687 0.41892 0.0
C560 C 0.63198 0.97065 0.32678 0.0
C561 C 0.65238 0.01481 0.25605 0.0
N562 N 0.5808 0.9702 0.38705 0.0
N563 N 0.6308 0.01432 0.30177 0.0
H564 H 0.58995 0.62663 0.13098 0.0
H565 H 0.54303 0.58666 0.57367 0.0
H566 H 0.57102 0.68063 0.31575 0.0
H567 H 0.5393 0.53528 0.3673 0.0
H568 H 0.55818 0.62107 0.48486 0.0
H569 H 0.57637 0.59255 0.22214 0.0
C570 C 0.58306 0.63133 0.19091 0.0
C571 C 0.5816 0.6565 0.21588 0.0
C572 C 0.554 0.60225 0.4592 0.0
C573 C 0.56608 0.61758 0.32047 0.0
C574 C 0.54545 0.58259 0.5098 0.0
C575 C 0.53978 0.55807 0.47779 0.0
C576 C 0.55723 0.59726 0.37628 0.0
C577 C 0.54325 0.55391 0.39457 0.0
C578 C 0.5752 0.61185 0.24275 0.0
C579 C 0.57236 0.66147 0.29402 0.0
N580 N 0.55182 0.57329 0.34677 0.0
N581 N 0.56502 0.64216 0.34374 0.0
H582 H 0.85383 0.48813 0.0509 0.0
H583 H 0.9169 0.51083 0.48301 0.0
H584 H 0.81422 0.50953 0.26816 0.0
H585 H 0.95987 0.4952 0.26646 0.0
H586 H 0.8787 0.50749 0.40497 0.0
H587 H 0.89226 0.48717 0.1289 0.0
C588 C 0.85312 0.49229 0.11514 0.0
C589 C 0.83081 0.49898 0.15316 0.0
C590 C 0.89644 0.50477 0.37426 0.0
C591 C 0.87464 0.49815 0.24223 0.0
C592 C 0.91837 0.5067 0.41889 0.0
C593 C 0.94174 0.50337 0.38126 0.0
C594 C 0.89772 0.49946 0.29107 0.0
C595 C 0.94229 0.49801 0.29792 0.0
C596 C 0.87509 0.49189 0.15945 0.0
C597 C 0.83101 0.5044 0.23629 0.0
N598 N 0.92057 0.49625 0.2555 0.0
N599 N 0.85257 0.50394 0.27786 0.0
loop_
_geom_bond_atom_site_label_1
_geom_bond_atom_site_label_2
_geom_bond_distance
_geom_bond_site_symmetry_2
_ccdc_geom_bond_type
O0 Cd1 2.302 . S
O0 C7 1.275 . S
Cd1 O0 2.302 . S
Cd1 O9 2.383 . S
Cd1 O10 2.378 1_556 S
O2 Cd3 2.385 . S
O2 C7 1.255 1_554 S
Cd3 O2 2.385 . S
Cd3 O4 2.317 . S
O4 Cd3 2.317 . S
O4 C5 1.232 . S
C5 O4 1.232 . S
C5 O6 1.218 . S
O6 C5 1.218 . S
C7 O0 1.275 . S
C7 O2 1.255 1_556 S
C8 O9 1.258 . S
C8 O10 1.256 1_556 S
O9 Cd1 2.383 . S
O9 C8 1.258 . S
O10 Cd1 2.378 1_554 S
O10 C8 1.256 1_554 S
O11 Cd12 2.300 . S
O11 C18 1.275 . S
Cd12 O11 2.300 . S
Cd12 O20 2.381 . S
Cd12 O21 2.378 1_556 S
O13 Cd14 2.385 1_656 S
O13 C18 1.255 . S
Cd14 O13 2.385 1_454 S
Cd14 O15 2.317 1_455 S
O15 Cd14 2.317 1_655 S
O15 C16 1.232 . S
C16 O15 1.232 . S
C16 O17 1.218 . S
O17 C16 1.218 . S
C18 O11 1.275 . S
C18 O13 1.255 . S
C19 O20 1.258 . S
C19 O21 1.256 1_556 S
O20 Cd12 2.381 . S
O20 C19 1.258 . S
O21 Cd12 2.378 1_554 S
O21 C19 1.256 1_554 S
O22 Cd23 2.300 1_565 S
O22 C29 1.275 . S
Cd23 O22 2.300 1_545 S
Cd23 O31 2.381 1_545 S
Cd23 O32 2.378 1_556 S
O24 Cd25 2.385 1_556 S
O24 C29 1.255 1_545 S
Cd25 O24 2.385 1_554 S
Cd25 O26 2.317 . S
O26 Cd25 2.317 . S
O26 C27 1.232 1_545 S
C27 O26 1.232 1_565 S
C27 O28 1.218 1_565 S
O28 C27 1.218 1_545 S
C29 O22 1.275 . S
C29 O24 1.255 1_565 S
C30 O31 1.258 . S
C30 O32 1.256 1_566 S
O31 Cd23 2.381 1_565 S
O31 C30 1.258 . S
O32 Cd23 2.378 1_554 S
O32 C30 1.256 1_544 S
O33 Cd34 2.300 1_556 S
O33 C40 1.275 . S
Cd34 O33 2.300 1_554 S
Cd34 O42 2.381 1_554 S
Cd34 O43 2.378 . S
O35 Cd36 2.385 . S
O35 C40 1.255 1_554 S
Cd36 O35 2.385 . S
Cd36 O37 2.317 . S
O37 Cd36 2.317 . S
O37 C38 1.232 . S
C38 O37 1.232 . S
C38 O39 1.218 . S
O39 C38 1.218 . S
C40 O33 1.275 . S
C40 O35 1.255 1_556 S
C41 O42 1.258 1_554 S
C41 O43 1.256 . S
O42 Cd34 2.381 1_556 S
O42 C41 1.258 1_556 S
O43 Cd34 2.378 . S
O43 C41 1.256 . S
O44 Cd45 2.300 . S
O44 C51 1.275 . S
Cd45 O44 2.300 . S
Cd45 O53 2.381 . S
Cd45 O54 2.378 . S
O46 Cd47 2.385 . S
O46 C51 1.255 . S
Cd47 O46 2.385 . S
Cd47 O48 2.317 1_554 S
O48 Cd47 2.317 1_556 S
O48 C49 1.232 . S
C49 O48 1.232 . S
C49 O50 1.218 . S
O50 C49 1.218 . S
C51 O44 1.275 . S
C51 O46 1.255 . S
C52 O53 1.258 . S
C52 O54 1.256 . S
O53 Cd45 2.381 . S
O53 C52 1.258 . S
O54 Cd45 2.378 . S
O54 C52 1.256 . S
O55 Cd56 2.300 . S
O55 C62 1.275 . S
Cd56 O55 2.300 . S
Cd56 O64 2.381 . S
Cd56 O65 2.378 . S
O57 Cd58 2.385 . S
O57 C62 1.255 . S
Cd58 O57 2.385 . S
Cd58 O59 2.317 . S
O59 Cd58 2.317 . S
O59 C60 1.232 1_554 S
C60 O59 1.232 1_556 S
C60 O61 1.218 . S
O61 C60 1.218 . S
C62 O55 1.275 . S
C62 O57 1.255 . S
C63 O64 1.258 . S
C63 O65 1.256 . S
O64 Cd56 2.381 . S
O64 C63 1.258 . S
O65 Cd56 2.378 . S
O65 C63 1.256 . S
O66 Cd67 2.300 . S
O66 C73 1.275 . S
Cd67 O66 2.300 . S
Cd67 O75 2.381 . S
Cd67 O76 2.378 . S
O68 Cd69 2.385 . S
O68 C73 1.255 . S
Cd69 O68 2.385 . S
Cd69 O70 2.317 . S
O70 Cd69 2.317 . S
O70 C71 1.232 1_554 S
C71 O70 1.232 1_556 S
C71 O72 1.218 . S
O72 C71 1.218 . S
C73 O66 1.275 . S
C73 O68 1.255 . S
C74 O75 1.258 . S
C74 O76 1.256 . S
O75 Cd67 2.381 . S
O75 C74 1.258 . S
O76 Cd67 2.378 . S
O76 C74 1.256 . S
O77 Cd78 2.300 . S
O77 C84 1.275 . S
Cd78 O77 2.300 . S
Cd78 O86 2.381 . S
Cd78 O87 2.378 . S
O79 Cd80 2.385 . S
O79 C84 1.255 . S
Cd80 O79 2.385 . S
Cd80 O81 2.317 1_554 S
O81 Cd80 2.317 1_556 S
O81 C82 1.232 . S
C82 O81 1.232 . S
C82 O83 1.218 . S
O83 C82 1.218 . S
C84 O77 1.275 . S
C84 O79 1.255 . S
C85 O86 1.258 . S
C85 O87 1.256 . S
O86 Cd78 2.381 . S
O86 C85 1.258 . S
O87 Cd78 2.378 . S
O87 C85 1.256 . S
Dy88 O92 2.398 . S
Dy88 O93 2.491 1_455 S
Dy88 O94 2.403 . S
Dy88 O95 2.664 1_565 S
Dy88 O99 2.326 . S
Dy88 O103 2.310 1_455 S
Dy88 O104 2.351 1_565 S
C89 O100 1.185 1_455 S
C89 O101 1.355 . S
C90 O92 1.185 . S
C90 O93 1.355 1_455 S
Dy91 O95 2.310 1_655 S
Dy91 O98 2.351 1_545 S
Dy91 O100 2.398 . S
Dy91 O101 2.491 1_655 S
Dy91 O102 2.403 . S
Dy91 O103 2.664 1_545 S
Dy91 O105 2.326 1_655 S
O92 Dy88 2.398 . S
O92 C90 1.185 . S
O93 Dy88 2.491 1_655 S
O93 C90 1.355 1_655 S
O94 Dy88 2.403 . S
O94 C96 1.226 1_565 S
O95 Dy88 2.664 1_545 S
O95 Dy91 2.310 1_455 S
O95 C96 1.287 . S
C96 O94 1.226 1_545 S
C96 O95 1.287 . S
C97 O102 1.254 . S
C97 O103 1.268 1_545 S
O98 Dy91 2.351 1_565 S
O98 C106 1.249 . S
O99 Dy88 2.326 . S
O99 C106 1.267 1_455 S
O100 C89 1.185 1_655 S
O100 Dy91 2.398 . S
O101 C89 1.355 . S
O101 Dy91 2.491 1_455 S
O102 Dy91 2.403 . S
O102 C97 1.254 . S
O103 Dy88 2.310 1_655 S
O103 Dy91 2.664 1_565 S
O103 C97 1.268 1_565 S
O104 Dy88 2.351 1_545 S
O104 C107 1.249 . S
O105 Dy91 2.326 1_455 S
O105 C107 1.267 . S
C106 O98 1.249 . S
C106 O99 1.267 1_655 S
C107 O104 1.249 . S
C107 O105 1.267 . S
Dy108 O112 2.398 . S
Dy108 O113 2.491 1_565 S
Dy108 O114 2.403 . S
Dy108 O115 2.672 . S
Dy108 O119 2.326 1_565 S
Dy108 O123 2.310 1_565 S
Dy108 O124 2.351 . S
C109 O120 1.185 . S
C109 O121 1.355 . S
C110 O112 1.185 . S
C110 O113 1.355 1_565 S
Dy111 O115 2.290 1_545 S
Dy111 O118 2.351 . S
Dy111 O120 2.398 . S
Dy111 O121 2.491 . S
Dy111 O122 2.403 . S
Dy111 O123 2.664 . S
Dy111 O125 2.326 1_545 S
O112 Dy108 2.398 . S
O112 C110 1.185 . S
O113 Dy108 2.491 1_545 S
O113 C110 1.355 1_545 S
O114 Dy108 2.403 . S
O114 C116 1.254 . S
O115 Dy108 2.672 . S
O115 Dy111 2.290 1_565 S
O115 C116 1.279 . S
C116 O114 1.254 . S
C116 O115 1.279 . S
C117 O122 1.254 . S
C117 O123 1.268 . S
O118 Dy111 2.351 . S
O118 C126 1.249 . S
O119 Dy108 2.326 1_545 S
O119 C126 1.267 . S
O120 C109 1.185 . S
O120 Dy111 2.398 . S
O121 C109 1.355 . S
O121 Dy111 2.491 . S
O122 Dy111 2.403 . S
O122 C117 1.254 . S
O123 Dy108 2.310 1_545 S
O123 Dy111 2.664 . S
O123 C117 1.268 . S
O124 Dy108 2.351 . S
O124 C127 1.249 . S
O125 Dy111 2.326 1_565 S
O125 C127 1.267 . S
C126 O118 1.249 . S
C126 O119 1.267 . S
C127 O124 1.249 . S
C127 O125 1.267 . S
Dy128 O132 2.398 . S
Dy128 O133 2.491 . S
Dy128 O134 2.403 . S
Dy128 O135 2.664 . S
Dy128 O139 2.326 . S
Dy128 O143 2.310 . S
Dy128 O144 2.351 . S
C129 O140 1.185 . S
C129 O141 1.355 . S
C130 O132 1.185 . S
C130 O133 1.355 . S
Dy131 O135 2.310 . S
Dy131 O138 2.351 . S
Dy131 O140 2.398 . S
Dy131 O141 2.491 . S
Dy131 O142 2.403 . S
Dy131 O143 2.664 . S
Dy131 O145 2.326 . S
O132 Dy128 2.398 . S
O132 C130 1.185 . S
O133 Dy128 2.491 . S
O133 C130 1.355 . S
O134 Dy128 2.403 . S
O134 C136 1.254 . S
O135 Dy128 2.664 . S
O135 Dy131 2.310 . S
O135 C136 1.268 . S
C136 O134 1.254 . S
C136 O135 1.268 . S
C137 O142 1.254 . S
C137 O143 1.268 . S
O138 Dy131 2.351 . S
O138 C146 1.249 . S
O139 Dy128 2.326 . S
O139 C146 1.267 . S
O140 C129 1.185 . S
O140 Dy131 2.398 . S
O141 C129 1.355 . S
O141 Dy131 2.491 . S
O142 Dy131 2.403 . S
O142 C137 1.254 . S
O143 Dy128 2.310 . S
O143 Dy131 2.664 . S
O143 C137 1.268 . S
O144 Dy128 2.351 . S
O144 C147 1.249 . S
O145 Dy131 2.326 . S
O145 C147 1.267 . S
C146 O138 1.249 . S
C146 O139 1.267 . S
C147 O144 1.249 . S
C147 O145 1.267 . S
Dy148 O152 2.398 . S
Dy148 O153 2.491 . S
Dy148 O154 2.403 . S
Dy148 O155 2.664 1_655 S
Dy148 O159 2.326 . S
Dy148 O163 2.310 . S
Dy148 O164 2.351 1_655 S
C149 O160 1.185 . S
C149 O161 1.355 . S
C150 O152 1.185 . S
C150 O153 1.355 . S
Dy151 O155 2.310 . S
Dy151 O158 2.351 1_455 S
Dy151 O160 2.398 . S
Dy151 O161 2.491 . S
Dy151 O162 2.403 . S
Dy151 O163 2.664 1_455 S
Dy151 O165 2.326 . S
O152 Dy148 2.398 . S
O152 C150 1.185 . S
O153 Dy148 2.491 . S
O153 C150 1.355 . S
O154 Dy148 2.403 . S
O154 C156 1.254 1_655 S
O155 Dy148 2.664 1_455 S
O155 Dy151 2.310 . S
O155 C156 1.268 . S
C156 O154 1.254 1_455 S
C156 O155 1.268 . S
C157 O162 1.254 . S
C157 O163 1.268 1_455 S
O158 Dy151 2.351 1_655 S
O158 C166 1.249 . S
O159 Dy148 2.326 . S
O159 C166 1.267 . S
O160 C149 1.185 . S
O160 Dy151 2.398 . S
O161 C149 1.355 . S
O161 Dy151 2.491 . S
O162 Dy151 2.403 . S
O162 C157 1.254 . S
O163 Dy148 2.310 . S
O163 Dy151 2.664 1_655 S
O163 C157 1.268 1_655 S
O164 Dy148 2.351 1_455 S
O164 C167 1.249 . S
O165 Dy151 2.326 . S
O165 C167 1.267 . S
C166 O158 1.249 . S
C166 O159 1.267 . S
C167 O164 1.249 . S
C167 O165 1.267 . S
H168 C174 0.930 . S
H169 C178 0.930 . S
H170 C183 0.929 1_565 S
H171 C181 0.929 . S
H172 C176 0.929 . S
H173 C182 0.929 . S
C174 H168 0.930 . S
C174 C175 1.367 . S
C174 C182 1.378 . S
C175 C174 1.367 . S
C175 C183 1.433 . S
C176 H172 0.929 . S
C176 C178 1.378 . S
C176 C180 1.350 1_565 S
C177 C180 1.463 . S
C177 C182 1.350 . S
C177 N185 1.427 . S
C178 H169 0.930 . S
C178 C176 1.378 . S
C178 C179 1.367 1_565 S
C179 C178 1.367 1_545 S
C179 C181 1.433 . S
C180 C176 1.350 1_545 S
C180 C177 1.463 . S
C180 N184 1.427 . S
C181 H171 0.929 . S
C181 C179 1.433 . S
C181 N184 1.384 . S
C182 H173 0.929 . S
C182 C174 1.378 . S
C182 C177 1.350 . S
C183 H170 0.929 1_545 S
C183 C175 1.433 . S
C183 N185 1.384 . S
N184 C180 1.427 . S
N184 C181 1.384 . S
N185 C177 1.427 . S
N185 C183 1.384 . S
H186 C192 0.930 . S
H187 C196 0.930 . S
H188 C201 0.929 . S
H189 C199 0.929 . S
H190 C194 0.929 . S
H191 C200 0.929 . S
C192 H186 0.930 . S
C192 C193 1.367 . S
C192 C200 1.378 . S
C193 C192 1.367 . S
C193 C201 1.433 . S
C194 H190 0.929 . S
C194 C196 1.378 . S
C194 C198 1.350 . S
C195 C198 1.463 . S
C195 C200 1.350 . S
C195 N203 1.427 . S
C196 H187 0.930 . S
C196 C194 1.378 . S
C196 C197 1.367 . S
C197 C196 1.367 . S
C197 C199 1.433 . S
C198 C194 1.350 . S
C198 C195 1.463 . S
C198 N202 1.427 . S
C199 H189 0.929 . S
C199 C197 1.433 . S
C199 N202 1.384 . S
C200 H191 0.929 . S
C200 C192 1.378 . S
C200 C195 1.350 . S
C201 H188 0.929 . S
C201 C193 1.433 . S
C201 N203 1.384 . S
N202 C198 1.427 . S
N202 C199 1.384 . S
N203 C195 1.427 . S
N203 C201 1.384 . S
H204 C210 0.930 . S
H205 C214 0.930 . S
H206 C219 0.929 . S
H207 C217 0.929 . S
H208 C212 0.929 . S
H209 C218 0.929 . S
C210 H204 0.930 . S
C210 C211 1.367 . S
C210 C218 1.378 . S
C211 C210 1.367 . S
C211 C219 1.433 . S
C212 H208 0.929 . S
C212 C214 1.378 . S
C212 C216 1.350 . S
C213 C216 1.463 . S
C213 C218 1.350 . S
C213 N221 1.427 . S
C214 H205 0.930 . S
C214 C212 1.378 . S
C214 C215 1.367 . S
C215 C214 1.367 . S
C215 C217 1.433 . S
C216 C212 1.350 . S
C216 C213 1.463 . S
C216 N220 1.427 . S
C217 H207 0.929 . S
C217 C215 1.433 . S
C217 N220 1.384 . S
C218 H209 0.929 . S
C218 C210 1.378 . S
C218 C213 1.350 . S
C219 H206 0.929 . S
C219 C211 1.433 . S
C219 N221 1.384 . S
N220 C216 1.427 . S
N220 C217 1.384 . S
N221 C213 1.427 . S
N221 C219 1.384 . S
H222 C228 0.930 . S
H223 C232 0.930 1_655 S
H224 C237 0.929 . S
H225 C235 0.929 . S
H226 C230 0.929 1_655 S
H227 C236 0.929 . S
C228 H222 0.930 . S
C228 C229 1.367 . S
C228 C236 1.378 . S
C229 C228 1.367 . S
C229 C237 1.433 . S
C230 H226 0.929 1_455 S
C230 C232 1.378 . S
C230 C234 1.350 . S
C231 C234 1.463 . S
C231 C236 1.350 . S
C231 N239 1.427 . S
C232 H223 0.930 1_455 S
C232 C230 1.378 . S
C232 C233 1.367 . S
C233 C232 1.367 . S
C233 C235 1.433 . S
C234 C230 1.350 . S
C234 C231 1.463 . S
C234 N238 1.427 . S
C235 H225 0.929 . S
C235 C233 1.433 . S
C235 N238 1.384 . S
C236 H227 0.929 . S
C236 C228 1.378 . S
C236 C231 1.350 . S
C237 H224 0.929 . S
C237 C229 1.433 . S
C237 N239 1.384 . S
N238 C234 1.427 . S
N238 C235 1.384 . S
N239 C231 1.427 . S
N239 C237 1.384 . S
H240 C246 0.930 1_554 S
H241 C250 0.930 . S
H242 C255 0.929 . S
H243 C253 0.929 . S
H244 C248 0.929 . S
H245 C254 0.929 1_545 S
C246 H240 0.930 1_556 S
C246 C247 1.367 . S
C246 C254 1.378 . S
C247 C246 1.367 . S
C247 C255 1.433 . S
C248 H244 0.929 . S
C248 C250 1.378 . S
C248 C252 1.350 . S
C249 C252 1.463 . S
C249 C254 1.350 . S
C249 N257 1.427 . S
C250 H241 0.930 . S
C250 C248 1.378 . S
C250 C251 1.369 . S
C251 C250 1.369 . S
C251 C253 1.431 1_565 S
C252 C248 1.350 . S
C252 C249 1.463 . S
C252 N256 1.427 1_565 S
C253 H243 0.929 . S
C253 C251 1.431 1_545 S
C253 N256 1.384 . S
C254 H245 0.929 1_565 S
C254 C246 1.378 . S
C254 C249 1.350 . S
C255 H242 0.929 . S
C255 C247 1.433 . S
C255 N257 1.384 . S
N256 C252 1.427 1_545 S
N256 C253 1.384 . S
N257 C249 1.427 . S
N257 C255 1.384 . S
H258 C264 0.930 1_554 S
H259 C268 0.930 . S
H260 C273 0.929 . S
H261 C271 0.929 . S
H262 C266 0.929 . S
H263 C272 0.929 . S
C264 H258 0.930 1_556 S
C264 C265 1.367 . S
C264 C272 1.378 . S
C265 C264 1.367 . S
C265 C273 1.433 . S
C266 H262 0.929 . S
C266 C268 1.378 . S
C266 C270 1.350 . S
C267 C270 1.463 . S
C267 C272 1.350 . S
C267 N275 1.427 . S
C268 H259 0.930 . S
C268 C266 1.378 . S
C268 C269 1.367 . S
C269 C268 1.367 . S
C269 C271 1.433 . S
C270 C266 1.350 . S
C270 C267 1.463 . S
C270 N274 1.427 . S
C271 H261 0.929 . S
C271 C269 1.433 . S
C271 N274 1.384 . S
C272 H263 0.929 . S
C272 C264 1.378 . S
C272 C267 1.350 . S
C273 H260 0.929 . S
C273 C265 1.433 . S
C273 N275 1.384 . S
N274 C270 1.427 . S
N274 C271 1.384 . S
N275 C267 1.427 . S
N275 C273 1.384 . S
H276 C282 0.930 1_554 S
H277 C286 0.930 . S
H278 C291 0.929 . S
H279 C289 0.929 . S
H280 C284 0.929 . S
H281 C290 0.929 . S
C282 H276 0.930 1_556 S
C282 C283 1.367 . S
C282 C290 1.378 . S
C283 C282 1.367 . S
C283 C291 1.433 . S
C284 H280 0.929 . S
C284 C286 1.378 . S
C284 C288 1.350 . S
C285 C288 1.463 . S
C285 C290 1.350 . S
C285 N293 1.427 . S
C286 H277 0.930 . S
C286 C284 1.378 . S
C286 C287 1.367 . S
C287 C286 1.367 . S
C287 C289 1.433 . S
C288 C284 1.350 . S
C288 C285 1.463 . S
C288 N292 1.427 . S
C289 H279 0.929 . S
C289 C287 1.433 . S
C289 N292 1.384 . S
C290 H281 0.929 . S
C290 C282 1.378 . S
C290 C285 1.350 . S
C291 H278 0.929 . S
C291 C283 1.433 . S
C291 N293 1.384 . S
N292 C288 1.427 . S
N292 C289 1.384 . S
N293 C285 1.427 . S
N293 C291 1.384 . S
H294 C300 0.930 . S
H295 C304 0.930 . S
H296 C309 0.929 . S
H297 C307 0.929 . S
H298 C302 0.929 . S
H299 C308 0.929 . S
C300 H294 0.930 . S
C300 C301 1.367 . S
C300 C308 1.378 . S
C301 C300 1.367 . S
C301 C309 1.433 . S
C302 H298 0.929 . S
C302 C304 1.378 . S
C302 C306 1.350 1_455 S
C303 C306 1.463 . S
C303 C308 1.350 . S
C303 N311 1.427 . S
C304 H295 0.930 . S
C304 C302 1.378 . S
C304 C305 1.367 1_455 S
C305 C304 1.367 1_655 S
C305 C307 1.433 . S
C306 C302 1.350 1_655 S
C306 C303 1.463 . S
C306 N310 1.427 . S
C307 H297 0.929 . S
C307 C305 1.433 . S
C307 N310 1.384 . S
C308 H299 0.929 . S
C308 C300 1.378 . S
C308 C303 1.350 . S
C309 H296 0.929 . S
C309 C301 1.433 . S
C309 N311 1.384 . S
N310 C306 1.427 . S
N310 C307 1.384 . S
N311 C303 1.427 . S
N311 C309 1.384 . S
H312 C318 0.930 . S
H313 C322 0.930 . S
H314 C327 0.929 . S
H315 C325 0.929 . S
H316 C320 0.929 . S
H317 C326 0.929 . S
C318 H312 0.930 . S
C318 C319 1.367 . S
C318 C326 1.378 . S
C319 C318 1.367 . S
C319 C327 1.433 . S
C320 H316 0.929 . S
C320 C322 1.378 . S
C320 C324 1.350 . S
C321 C324 1.463 . S
C321 C326 1.350 . S
C321 N329 1.427 . S
C322 H313 0.930 . S
C322 C320 1.378 . S
C322 C323 1.367 . S
C323 C322 1.367 . S
C323 C325 1.433 1_455 S
C324 C320 1.350 . S
C324 C321 1.463 . S
C324 N328 1.466 . S
C325 H315 0.929 . S
C325 C323 1.433 1_655 S
C325 N328 1.374 1_655 S
C326 H317 0.929 . S
C326 C318 1.378 . S
C326 C321 1.350 . S
C327 H314 0.929 . S
C327 C319 1.433 . S
C327 N329 1.384 . S
N328 C324 1.466 . S
N328 C325 1.374 1_455 S
N329 C321 1.427 . S
N329 C327 1.384 . S
H330 C336 0.930 . S
H331 C340 0.930 . S
H332 C345 0.929 . S
H333 C343 0.937 . S
H334 C338 0.929 . S
H335 C344 0.929 . S
C336 H330 0.930 . S
C336 C337 1.367 . S
C336 C344 1.378 . S
C337 C336 1.367 . S
C337 C345 1.433 . S
C338 H334 0.929 . S
C338 C340 1.378 . S
C338 C342 1.350 . S
C339 C342 1.463 . S
C339 C344 1.350 . S
C339 N347 1.427 . S
C340 H331 0.930 . S
C340 C338 1.378 . S
C340 C341 1.362 1_545 S
C341 C340 1.362 1_565 S
C341 C343 1.434 . S
C342 C338 1.350 . S
C342 C339 1.463 . S
C342 N346 1.427 . S
C343 H333 0.937 . S
C343 C341 1.434 . S
C343 N346 1.375 1_565 S
C344 H335 0.929 . S
C344 C336 1.378 . S
C344 C339 1.350 . S
C345 H332 0.929 . S
C345 C337 1.433 . S
C345 N347 1.384 . S
N346 C342 1.427 . S
N346 C343 1.375 1_545 S
N347 C339 1.427 . S
N347 C345 1.384 . S
H348 C354 0.930 . S
H349 C358 0.930 . S
H350 C363 0.929 . S
H351 C361 0.929 . S
H352 C356 0.929 . S
H353 C362 0.929 . S
C354 H348 0.930 . S
C354 C355 1.367 . S
C354 C362 1.378 . S
C355 C354 1.367 . S
C355 C363 1.433 . S
C356 H352 0.929 . S
C356 C358 1.378 . S
C356 C360 1.350 . S
C357 C360 1.463 . S
C357 C362 1.350 . S
C357 N365 1.427 . S
C358 H349 0.930 . S
C358 C356 1.378 . S
C358 C359 1.367 . S
C359 C358 1.367 . S
C359 C361 1.433 . S
C360 C356 1.350 . S
C360 C357 1.463 . S
C360 N364 1.427 . S
C361 H351 0.929 . S
C361 C359 1.433 . S
C361 N364 1.384 . S
C362 H353 0.929 . S
C362 C354 1.378 . S
C362 C357 1.350 . S
C363 H350 0.929 . S
C363 C355 1.433 . S
C363 N365 1.384 . S
N364 C360 1.427 . S
N364 C361 1.384 . S
N365 C357 1.427 . S
N365 C363 1.384 . S
H366 C372 0.930 . S
H367 C376 0.930 . S
H368 C381 0.929 . S
H369 C379 0.929 . S
H370 C374 0.929 . S
H371 C380 0.929 . S
C372 H366 0.930 . S
C372 C373 1.367 . S
C372 C380 1.378 . S
C373 C372 1.367 . S
C373 C381 1.433 . S
C374 H370 0.929 . S
C374 C376 1.378 . S
C374 C378 1.350 . S
C375 C378 1.463 . S
C375 C380 1.350 . S
C375 N383 1.427 . S
C376 H367 0.930 . S
C376 C374 1.378 . S
C376 C377 1.367 . S
C377 C376 1.367 . S
C377 C379 1.433 . S
C378 C374 1.350 . S
C378 C375 1.463 . S
C378 N382 1.427 . S
C379 H369 0.929 . S
C379 C377 1.433 . S
C379 N382 1.384 . S
C380 H371 0.929 . S
C380 C372 1.378 . S
C380 C375 1.350 . S
C381 H368 0.929 . S
C381 C373 1.433 . S
C381 N383 1.384 . S
N382 C378 1.427 . S
N382 C379 1.384 . S
N383 C375 1.427 . S
N383 C381 1.384 . S
H384 C390 0.930 . S
H385 C394 0.930 . S
H386 C399 0.929 . S
H387 C397 0.929 . S
H388 C392 0.929 . S
H389 C398 0.929 1_455 S
C390 H384 0.930 . S
C390 C391 1.367 . S
C390 C398 1.378 . S
C391 C390 1.367 . S
C391 C399 1.433 . S
C392 H388 0.929 . S
C392 C394 1.378 . S
C392 C396 1.350 . S
C393 C396 1.463 . S
C393 C398 1.350 . S
C393 N401 1.427 . S
C394 H385 0.930 . S
C394 C392 1.378 . S
C394 C395 1.367 1_655 S
C395 C394 1.367 1_455 S
C395 C397 1.433 . S
C396 C392 1.350 . S
C396 C393 1.463 . S
C396 N400 1.427 1_655 S
C397 H387 0.929 . S
C397 C395 1.433 . S
C397 N400 1.384 . S
C398 H389 0.929 1_655 S
C398 C390 1.378 . S
C398 C393 1.350 . S
C399 H386 0.929 . S
C399 C391 1.433 . S
C399 N401 1.384 . S
N400 C396 1.427 1_455 S
N400 C397 1.384 . S
N401 C393 1.427 . S
N401 C399 1.384 . S
H402 C408 0.930 . S
H403 C412 0.930 . S
H404 C417 0.929 . S
H405 C415 0.929 . S
H406 C410 0.929 . S
H407 C416 0.929 . S
C408 H402 0.930 . S
C408 C409 1.367 . S
C408 C416 1.378 . S
C409 C408 1.367 . S
C409 C417 1.433 1_565 S
C410 H406 0.929 . S
C410 C412 1.378 . S
C410 C414 1.350 1_545 S
C411 C414 1.463 . S
C411 C416 1.350 . S
C411 N419 1.427 1_565 S
C412 H403 0.930 . S
C412 C410 1.378 . S
C412 C413 1.367 . S
C413 C412 1.367 . S
C413 C415 1.433 1_545 S
C414 C410 1.350 1_565 S
C414 C411 1.463 . S
C414 N418 1.427 . S
C415 H405 0.929 . S
C415 C413 1.433 1_565 S
C415 N418 1.384 . S
C416 H407 0.929 . S
C416 C408 1.378 . S
C416 C411 1.350 . S
C417 H404 0.929 . S
C417 C409 1.433 1_545 S
C417 N419 1.384 . S
N418 C414 1.427 . S
N418 C415 1.384 . S
N419 C411 1.427 1_545 S
N419 C417 1.384 . S
H420 C426 0.930 1_554 S
H421 C430 0.930 . S
H422 C435 0.929 . S
H423 C433 0.929 . S
H424 C428 0.929 . S
H425 C434 0.929 . S
C426 H420 0.930 1_556 S
C426 C427 1.367 . S
C426 C434 1.378 . S
C427 C426 1.367 . S
C427 C435 1.433 . S
C428 H424 0.929 . S
C428 C430 1.378 . S
C428 C432 1.350 . S
C429 C432 1.463 . S
C429 C434 1.350 . S
C429 N437 1.427 . S
C430 H421 0.930 . S
C430 C428 1.378 . S
C430 C431 1.367 . S
C431 C430 1.367 . S
C431 C433 1.433 . S
C432 C428 1.350 . S
C432 C429 1.463 . S
C432 N436 1.427 . S
C433 H423 0.929 . S
C433 C431 1.433 . S
C433 N436 1.384 . S
C434 H425 0.929 . S
C434 C426 1.378 . S
C434 C429 1.350 . S
C435 H422 0.929 . S
C435 C427 1.433 . S
C435 N437 1.384 . S
N436 C432 1.427 . S
N436 C433 1.384 . S
N437 C429 1.427 . S
N437 C435 1.384 . S
H438 C444 0.930 . S
H439 C448 0.930 . S
H440 C453 0.929 . S
H441 C451 0.929 . S
H442 C446 0.929 . S
H443 C452 0.929 . S
C444 H438 0.930 . S
C444 C445 1.367 . S
C444 C452 1.378 . S
C445 C444 1.367 . S
C445 C453 1.433 . S
C446 H442 0.929 . S
C446 C448 1.378 . S
C446 C450 1.350 . S
C447 C450 1.463 . S
C447 C452 1.350 . S
C447 N455 1.427 . S
C448 H439 0.930 . S
C448 C446 1.378 . S
C448 C449 1.367 . S
C449 C448 1.367 . S
C449 C451 1.433 . S
C450 C446 1.350 . S
C450 C447 1.463 . S
C450 N454 1.427 . S
C451 H441 0.929 . S
C451 C449 1.433 . S
C451 N454 1.384 . S
C452 H443 0.929 . S
C452 C444 1.378 . S
C452 C447 1.350 . S
C453 H440 0.929 . S
C453 C445 1.433 . S
C453 N455 1.384 . S
N454 C450 1.427 . S
N454 C451 1.384 . S
N455 C447 1.427 . S
N455 C453 1.384 . S
H456 C462 0.930 1_554 S
H457 C466 0.930 . S
H458 C471 0.929 . S
H459 C469 0.929 . S
H460 C464 0.929 . S
H461 C470 0.929 . S
C462 H456 0.930 1_556 S
C462 C463 1.367 . S
C462 C470 1.378 . S
C463 C462 1.367 . S
C463 C471 1.433 . S
C464 H460 0.929 . S
C464 C466 1.378 . S
C464 C468 1.350 . S
C465 C468 1.463 . S
C465 C470 1.350 . S
C465 N473 1.427 . S
C466 H457 0.930 . S
C466 C464 1.378 . S
C466 C467 1.367 . S
C467 C466 1.367 . S
C467 C469 1.433 . S
C468 C464 1.350 . S
C468 C465 1.463 . S
C468 N472 1.427 . S
C469 H459 0.929 . S
C469 C467 1.433 . S
C469 N472 1.384 . S
C470 H461 0.929 . S
C470 C462 1.378 . S
C470 C465 1.350 . S
C471 H458 0.929 . S
C471 C463 1.433 . S
C471 N473 1.384 . S
N472 C468 1.427 . S
N472 C469 1.384 . S
N473 C465 1.427 . S
N473 C471 1.384 . S
H474 C480 0.930 . S
H475 C484 0.930 . S
H476 C489 0.929 . S
H477 C487 0.929 . S
H478 C482 0.929 . S
H479 C488 0.929 . S
C480 H474 0.930 . S
C480 C481 1.367 1_565 S
C480 C488 1.378 . S
C481 C480 1.367 1_545 S
C481 C489 1.433 . S
C482 H478 0.929 . S
C482 C484 1.378 . S
C482 C486 1.350 . S
C483 C486 1.463 . S
C483 C488 1.350 1_545 S
C483 N491 1.427 . S
C484 H475 0.930 . S
C484 C482 1.378 . S
C484 C485 1.367 . S
C485 C484 1.367 . S
C485 C487 1.433 1_545 S
C486 C482 1.350 . S
C486 C483 1.463 . S
C486 N490 1.427 1_545 S
C487 H477 0.929 . S
C487 C485 1.433 1_565 S
C487 N490 1.384 . S
C488 H479 0.929 . S
C488 C480 1.378 . S
C488 C483 1.350 1_565 S
C489 H476 0.929 . S
C489 C481 1.433 . S
C489 N491 1.384 . S
N490 C486 1.427 1_565 S
N490 C487 1.384 . S
N491 C483 1.427 . S
N491 C489 1.384 . S
H492 C498 0.930 . S
H493 C502 0.930 . S
H494 C507 0.929 . S
H495 C505 0.929 . S
H496 C500 0.929 . S
H497 C506 0.929 . S
C498 H492 0.930 . S
C498 C499 1.367 . S
C498 C506 1.378 . S
C499 C498 1.367 . S
C499 C507 1.433 . S
C500 H496 0.929 . S
C500 C502 1.378 . S
C500 C504 1.350 . S
C501 C504 1.463 . S
C501 C506 1.350 . S
C501 N509 1.427 . S
C502 H493 0.930 . S
C502 C500 1.378 . S
C502 C503 1.367 . S
C503 C502 1.367 . S
C503 C505 1.433 . S
C504 C500 1.350 . S
C504 C501 1.463 . S
C504 N508 1.427 . S
C505 H495 0.929 . S
C505 C503 1.433 . S
C505 N508 1.384 . S
C506 H497 0.929 . S
C506 C498 1.378 . S
C506 C501 1.350 . S
C507 H494 0.929 . S
C507 C499 1.433 . S
C507 N509 1.384 . S
N508 C504 1.427 . S
N508 C505 1.384 . S
N509 C501 1.427 . S
N509 C507 1.384 . S
H510 C516 0.930 . S
H511 C520 0.930 . S
H512 C525 0.929 . S
H513 C523 0.929 . S
H514 C518 0.929 . S
H515 C524 0.929 . S
C516 H510 0.930 . S
C516 C517 1.367 . S
C516 C524 1.378 . S
C517 C516 1.367 . S
C517 C525 1.433 . S
C518 H514 0.929 . S
C518 C520 1.378 . S
C518 C522 1.350 . S
C519 C522 1.463 . S
C519 C524 1.350 . S
C519 N527 1.427 . S
C520 H511 0.930 . S
C520 C518 1.378 . S
C520 C521 1.367 . S
C521 C520 1.367 . S
C521 C523 1.433 . S
C522 C518 1.350 . S
C522 C519 1.463 . S
C522 N526 1.427 . S
C523 H513 0.929 . S
C523 C521 1.433 . S
C523 N526 1.384 . S
C524 H515 0.929 . S
C524 C516 1.378 . S
C524 C519 1.350 . S
C525 H512 0.929 . S
C525 C517 1.433 . S
C525 N527 1.384 . S
N526 C522 1.427 . S
N526 C523 1.384 . S
N527 C519 1.427 . S
N527 C525 1.384 . S
H528 C534 0.930 . S
H529 C538 0.930 . S
H530 C543 0.929 . S
H531 C541 0.929 . S
H532 C536 0.929 . S
H533 C542 0.929 . S
C534 H528 0.930 . S
C534 C535 1.367 . S
C534 C542 1.378 . S
C535 C534 1.367 . S
C535 C543 1.433 . S
C536 H532 0.929 . S
C536 C538 1.378 . S
C536 C540 1.350 . S
C537 C540 1.463 . S
C537 C542 1.350 . S
C537 N545 1.427 . S
C538 H529 0.930 . S
C538 C536 1.378 . S
C538 C539 1.367 . S
C539 C538 1.367 . S
C539 C541 1.433 . S
C540 C536 1.350 . S
C540 C537 1.463 . S
C540 N544 1.427 . S
C541 H531 0.929 . S
C541 C539 1.433 . S
C541 N544 1.384 . S
C542 H533 0.929 . S
C542 C534 1.378 . S
C542 C537 1.350 . S
C543 H530 0.929 . S
C543 C535 1.433 . S
C543 N545 1.384 . S
N544 C540 1.427 . S
N544 C541 1.384 . S
N545 C537 1.427 . S
N545 C543 1.384 . S
H546 C552 0.930 . S
H547 C556 0.943 . S
H548 C561 0.929 . S
H549 C559 0.929 . S
H550 C554 0.929 . S
H551 C560 0.929 . S
C552 H546 0.930 . S
C552 C553 1.367 . S
C552 C560 1.378 . S
C553 C552 1.367 . S
C553 C561 1.433 . S
C554 H550 0.929 . S
C554 C556 1.378 . S
C554 C558 1.350 . S
C555 C558 1.463 . S
C555 C560 1.350 . S
C555 N563 1.427 . S
C556 H547 0.943 . S
C556 C554 1.378 . S
C556 C557 1.367 . S
C557 C556 1.367 . S
C557 C559 1.433 . S
C558 C554 1.350 . S
C558 C555 1.463 . S
C558 N562 1.427 . S
C559 H549 0.929 . S
C559 C557 1.433 . S
C559 N562 1.384 . S
C560 H551 0.929 . S
C560 C552 1.378 . S
C560 C555 1.350 . S
C561 H548 0.929 . S
C561 C553 1.433 . S
C561 N563 1.384 . S
N562 C558 1.427 . S
N562 C559 1.384 . S
N563 C555 1.427 . S
N563 C561 1.384 . S
H564 C570 0.930 . S
H565 C574 0.930 . S
H566 C579 0.929 . S
H567 C577 0.929 . S
H568 C572 0.929 . S
H569 C578 0.929 . S
C570 H564 0.930 . S
C570 C571 1.367 . S
C570 C578 1.378 . S
C571 C570 1.367 . S
C571 C579 1.433 . S
C572 H568 0.929 . S
C572 C574 1.378 . S
C572 C576 1.350 . S
C573 C576 1.463 . S
C573 C578 1.350 . S
C573 N581 1.427 . S
C574 H565 0.930 . S
C574 C572 1.378 . S
C574 C575 1.367 . S
C575 C574 1.367 . S
C575 C577 1.433 . S
C576 C572 1.350 . S
C576 C573 1.463 . S
C576 N580 1.427 . S
C577 H567 0.929 . S
C577 C575 1.433 . S
C577 N580 1.384 . S
C578 H569 0.929 . S
C578 C570 1.378 . S
C578 C573 1.350 . S
C579 H566 0.929 . S
C579 C571 1.433 . S
C579 N581 1.384 . S
N580 C576 1.427 . S
N580 C577 1.384 . S
N581 C573 1.427 . S
N581 C579 1.384 . S
H582 C588 0.930 . S
H583 C592 0.930 . S
H584 C597 0.929 . S
H585 C595 0.929 . S
H586 C590 0.929 . S
H587 C596 0.929 . S
C588 H582 0.930 . S
C588 C589 1.367 . S
C588 C596 1.378 . S
C589 C588 1.367 . S
C589 C597 1.433 . S
C590 H586 0.929 . S
C590 C592 1.378 . S
C590 C594 1.350 . S
C591 C594 1.463 . S
C591 C596 1.350 . S
C591 N599 1.427 . S
C592 H583 0.930 . S
C592 C590 1.378 . S
C592 C593 1.367 . S
C593 C592 1.367 . S
C593 C595 1.433 . S
C594 C590 1.350 . S
C594 C591 1.463 . S
C594 N598 1.427 . S
C595 H585 0.929 . S
C595 C593 1.433 . S
C595 N598 1.384 . S
C596 H587 0.929 . S
C596 C588 1.378 . S
C596 C591 1.350 . S
C597 H584 0.929 . S
C597 C589 1.433 . S
C597 N599 1.384 . S
N598 C594 1.427 . S
N598 C595 1.384 . S
N599 C591 1.427 . S
N599 C597 1.384 . S
C175 C74 1.577 . S
C179 C96 1.593 . S
C197 C126 1.887 . S
C193 C85 1.871 . S
C215 C136 1.482 . S
C211 C52 1.432 . S
C233 C156 1.384 . S
C229 C63 1.363 . S
C251 C97 1.589 1_565 S
C247 C30 1.561 . S
C265 C41 1.807 1_556 S
C269 C127 1.887 . S
C283 C8 1.468 . S
C287 C137 1.482 . S
C301 C19 1.338 . S
C305 C157 1.382 1_655 S
C323 C89 0.911 . S
C319 C62 0.919 . S
C341 C110 0.547 . S
C337 C73 0.539 . S
C359 C129 1.158 . S
C355 C84 1.165 . S
C373 C51 0.794 . S
C377 C149 0.804 . S
C391 C18 0.878 . S
C395 C90 0.904 . S
C413 C109 0.544 . S
C409 C29 0.586 . S
C431 C130 1.153 . S
C427 C40 1.072 . S
C445 C7 0.804 . S
C449 C150 0.803 . S
C463 C60 1.421 . S
C467 C107 1.682 . S
C481 C71 1.169 . S
C485 C117 1.416 . S
C503 C147 1.877 . S
C499 C82 1.625 . S
C521 C167 1.817 . S
C517 C49 1.406 . S
C535 C16 1.303 . S
C539 C106 1.682 . S
C557 C116 1.419 . S
C553 C27 1.123 . S
C575 C146 1.875 . S
C571 C38 1.383 . S
C589 C5 1.552 . S
C593 C166 1.817 . S
