# Generated by pormake.
# Topology zzz, (3,6)-cn, num edge types: 1
# Building blocks:
#     Node 0, Type 0, BuildingBlock: OLANEW_clean_sbu_2, # of connection points: 3
#     Node 1, Type 0, BuildingBlock: OLANEW_clean_sbu_2, # of connection points: 3
#     Node 2, Type 0, BuildingBlock: OLANEW_clean_sbu_2, # of connection points: 3
#     Node 3, Type 0, BuildingBlock: OLANEW_clean_sbu_2, # of connection points: 3
#     Node 4, Type 0, BuildingBlock: OLANEW_clean_sbu_2, # of connection points: 3
#     Node 5, Type 0, BuildingBlock: OLANEW_clean_sbu_2, # of connection points: 3
#     Node 6, Type 0, BuildingBlock: OLANEW_clean_sbu_2, # of connection points: 3
#     Node 7, Type 0, BuildingBlock: OLANEW_clean_sbu_2, # of connection points: 3
#     Node 8, Type 1, BuildingBlock: LEVNOQ01_clean_sbu_1, # of connection points: 6
#     Node 9, Type 1, BuildingBlock: LEVNOQ01_clean_sbu_1, # of connection points: 6
#     Node 10, Type 1, BuildingBlock: LEVNOQ01_clean_sbu_1, # of connection points: 6
#     Node 11, Type 1, BuildingBlock: LEVNOQ01_clean_sbu_1, # of connection points: 6
#     Edge 12, Type (0, 1), BuildingBlock: KIFKEQ_clean_linker_1, # of connection points: 2
#     Edge 13, Type (0, 1), BuildingBlock: KIFKEQ_clean_linker_1, # of connection points: 2
#     Edge 14, Type (0, 1), BuildingBlock: KIFKEQ_clean_linker_1, # of connection points: 2
#     Edge 15, Type (0, 1), BuildingBlock: KIFKEQ_clean_linker_1, # of connection points: 2
#     Edge 16, Type (0, 1), BuildingBlock: KIFKEQ_clean_linker_1, # of connection points: 2
#     Edge 17, Type (0, 1), BuildingBlock: KIFKEQ_clean_linker_1, # of connection points: 2
#     Edge 18, Type (0, 1), BuildingBlock: KIFKEQ_clean_linker_1, # of connection points: 2
#     Edge 19, Type (0, 1), BuildingBlock: KIFKEQ_clean_linker_1, # of connection points: 2
#     Edge 20, Type (0, 1), BuildingBlock: KIFKEQ_clean_linker_1, # of connection points: 2
#     Edge 21, Type (0, 1), BuildingBlock: KIFKEQ_clean_linker_1, # of connection points: 2
#     Edge 22, Type (0, 1), BuildingBlock: KIFKEQ_clean_linker_1, # of connection points: 2
#     Edge 23, Type (0, 1), BuildingBlock: KIFKEQ_clean_linker_1, # of connection points: 2
#     Edge 24, Type (0, 1), BuildingBlock: KIFKEQ_clean_linker_1, # of connection points: 2
#     Edge 25, Type (0, 1), BuildingBlock: KIFKEQ_clean_linker_1, # of connection points: 2
#     Edge 26, Type (0, 1), BuildingBlock: KIFKEQ_clean_linker_1, # of connection points: 2
#     Edge 27, Type (0, 1), BuildingBlock: KIFKEQ_clean_linker_1, # of connection points: 2
#     Edge 28, Type (0, 1), BuildingBlock: KIFKEQ_clean_linker_1, # of connection points: 2
#     Edge 29, Type (0, 1), BuildingBlock: KIFKEQ_clean_linker_1, # of connection points: 2
#     Edge 30, Type (0, 1), BuildingBlock: KIFKEQ_clean_linker_1, # of connection points: 2
#     Edge 31, Type (0, 1), BuildingBlock: KIFKEQ_clean_linker_1, # of connection points: 2
#     Edge 32, Type (0, 1), BuildingBlock: KIFKEQ_clean_linker_1, # of connection points: 2
#     Edge 33, Type (0, 1), BuildingBlock: KIFKEQ_clean_linker_1, # of connection points: 2
#     Edge 34, Type (0, 1), BuildingBlock: KIFKEQ_clean_linker_1, # of connection points: 2
#     Edge 35, Type (0, 1), BuildingBlock: KIFKEQ_clean_linker_1, # of connection points: 2
# Relax obj value: 0.132
# Max RMSD: 0.181
# Mean RMSD: 0.111
data_MOF--net-zzz--node1-OLANEW_clean_sbu_2--node2-LEVNOQ01_clean_sbu_1--edge1-KIFKEQ_clean_linker_1
_symmetry_space_group_name_H-M    P1
_symmetry_Int_Tables_number       1
_symmetry_cell_setting            triclinic
loop_
_symmetry_equiv_pos_as_xyz
'x, y, z'
_cell_length_a     53.291081
_cell_length_b     53.284699
_cell_length_c     17.856536
_cell_angle_alpha  90.098748
_cell_angle_beta   89.803678
_cell_angle_gamma 90.047065
loop_
_atom_site_label
_atom_site_type_symbol
_atom_site_fract_x
_atom_site_fract_y
_atom_site_fract_z
_atom_type_partial_charge
O0 O 0.79972 0.61308 0.94893 0.0
Cd1 Cd 0.75825 0.63196 0.93417 0.0
O2 O 0.78782 0.58722 0.03777 0.0
Cd3 Cd 0.79715 0.5611 0.12696 0.0
O4 O 0.82091 0.54755 0.21677 0.0
C5 C 0.84216 0.55823 0.22209 0.0
O6 O 0.84799 0.57607 0.17441 0.0
C7 C 0.80494 0.59575 0.99501 0.0
C8 C 0.71892 0.59794 0.9179 0.0
O9 O 0.72164 0.60996 0.97953 0.0
O10 O 0.73486 0.60163 0.86525 0.0
O11 O 0.90912 0.79659 0.99143 0.0
Cd12 Cd 0.89001 0.75651 0.0281 0.0
O13 O 0.94268 0.78601 0.05418 0.0
Cd14 Cd 0.97684 0.79543 0.11438 0.0
O15 O 0.99107 0.82313 0.19231 0.0
C16 C 0.97456 0.83911 0.21144 0.0
O17 O 0.95191 0.83715 0.18322 0.0
C18 C 0.93085 0.80213 0.01541 0.0
C19 C 0.91306 0.71396 0.96801 0.0
O20 O 0.89528 0.72515 0.93333 0.0
O21 O 0.92023 0.72311 0.03086 0.0
O22 O 0.72736 0.91116 0.00246 0.0
Cd23 Cd 0.76796 0.89356 0.04056 0.0
O24 O 0.73521 0.94446 0.07067 0.0
Cd25 Cd 0.72141 0.97693 0.1325 0.0
O26 O 0.69335 0.99159 0.2094 0.0
C27 C 0.6743 0.97758 0.21893 0.0
O28 O 0.67281 0.95649 0.18097 0.0
C29 C 0.72036 0.93221 0.02865 0.0
C30 C 0.81027 0.91569 0.97578 0.0
O31 O 0.79892 0.89738 0.94382 0.0
O32 O 0.80135 0.92387 0.03798 0.0
O33 O 0.61652 0.72215 0.98446 0.0
Cd34 Cd 0.6356 0.76215 0.02113 0.0
O35 O 0.58502 0.73122 0.0588 0.0
Cd36 Cd 0.54985 0.72319 0.11707 0.0
O37 O 0.53286 0.69928 0.20158 0.0
C38 C 0.54814 0.6934 0.25306 0.0
O39 O 0.57054 0.70374 0.25292 0.0
C40 C 0.59587 0.71582 0.01477 0.0
C41 C 0.60896 0.80378 0.97088 0.0
O42 O 0.62692 0.79442 0.93196 0.0
O43 O 0.60352 0.79336 0.03354 0.0
O44 O 0.23202 0.43024 0.44693 0.0
Cd45 Cd 0.2684 0.40662 0.40057 0.0
O46 O 0.21162 0.40067 0.38912 0.0
Cd47 Cd 0.18114 0.38265 0.32916 0.0
O48 O 0.1552 0.39825 0.24951 0.0
C49 C 0.16415 0.41742 0.21677 0.0
O50 O 0.18729 0.42434 0.23169 0.0
C51 C 0.21114 0.42113 0.42615 0.0
C52 C 0.31393 0.4225 0.46017 0.0
O53 O 0.30514 0.43262 0.4007 0.0
O54 O 0.30109 0.40501 0.49131 0.0
O55 O 0.07468 0.23342 0.38237 0.0
Cd56 Cd 0.09377 0.27251 0.33791 0.0
O57 O 0.11137 0.21549 0.36685 0.0
Cd58 Cd 0.13149 0.18053 0.34913 0.0
O59 O 0.11881 0.15539 0.26133 0.0
C60 C 0.10581 0.13607 0.27641 0.0
O61 O 0.10289 0.12935 0.34661 0.0
C62 C 0.08834 0.21393 0.38484 0.0
C63 C 0.07908 0.3136 0.42401 0.0
O64 O 0.06591 0.30606 0.3684 0.0
O65 O 0.09939 0.30177 0.43879 0.0
O66 O 0.29294 0.06718 0.3801 0.0
Cd67 Cd 0.25479 0.08247 0.31827 0.0
O68 O 0.30936 0.10495 0.37932 0.0
Cd69 Cd 0.28948 0.11292 0.27585 0.0
O70 O 0.31201 0.09838 0.18254 0.0
C71 C 0.33545 0.09813 0.19607 0.0
O72 O 0.34344 0.10803 0.25906 0.0
C73 C 0.31006 0.08228 0.4011 0.0
C74 C 0.21133 0.07321 0.40248 0.0
O75 O 0.21852 0.05795 0.35115 0.0
O76 O 0.22468 0.09285 0.41413 0.0
O77 O 0.43362 0.2831 0.44883 0.0
Cd78 Cd 0.415 0.24525 0.39371 0.0
O79 O 0.40266 0.30165 0.39148 0.0
Cd80 Cd 0.38619 0.33411 0.33696 0.0
O81 O 0.39779 0.361 0.2527 0.0
C82 C 0.4215 0.36302 0.24843 0.0
O83 O 0.43547 0.34975 0.29401 0.0
C84 C 0.42232 0.30322 0.43139 0.0
C85 C 0.42942 0.20087 0.46332 0.0
O86 O 0.44185 0.20947 0.40736 0.0
O87 O 0.41033 0.21336 0.48629 0.0
O88 O 0.03422 0.95992 0.85374 0.0
Mg89 Mg 0.05145 0.96868 0.75028 0.0
O90 O 0.0001 0.97922 0.81404 0.0
Mg91 Mg 0.00952 0.01209 0.72986 0.0
O92 O 0.052 0.00575 0.72858 0.0
O93 O 0.0872 0.98415 0.74288 0.0
O94 O 0.01758 0.04516 0.64318 0.0
O95 O 0.01534 0.03889 0.82912 0.0
Mg96 Mg 0.96725 0.05771 0.73121 0.0
O97 O 0.9677 0.01963 0.734 0.0
O98 O 0.98383 0.06925 0.62974 0.0
O99 O 0.98684 0.06945 0.83056 0.0
O100 O 0.9319 0.04039 0.73533 0.0
C101 C 0.0157 0.96358 0.61373 0.0
C102 C 0.01074 0.96334 0.85723 0.0
C103 C 0.07623 0.00474 0.72409 0.0
C104 C 0.00599 0.06324 0.61069 0.0
C105 C 0.00592 0.05859 0.85862 0.0
C106 C 0.94357 0.01929 0.73983 0.0
O107 O 0.0338 0.95452 0.65155 0.0
O108 O 0.00446 0.98392 0.63209 0.0
O109 O 0.44665 0.98689 0.81911 0.0
Mg110 Mg 0.46577 0.96774 0.73078 0.0
O111 O 0.47849 0.01136 0.85254 0.0
Mg112 Mg 0.50897 0.00519 0.76151 0.0
O113 O 0.50212 0.96212 0.76077 0.0
O114 O 0.47512 0.93076 0.74136 0.0
O115 O 0.53964 0.0011 0.66985 0.0
O116 O 0.53973 0.99538 0.85248 0.0
Mg117 Mg 0.55246 0.04785 0.79536 0.0
O118 O 0.51624 0.04674 0.7655 0.0
O119 O 0.56936 0.0288 0.70212 0.0
O120 O 0.55666 0.02983 0.8998 0.0
O121 O 0.5352 0.08307 0.7816 0.0
C122 C 0.46463 0.00573 0.62178 0.0
C123 C 0.45593 0.0037 0.86147 0.0
C124 C 0.49736 0.93819 0.75936 0.0
C125 C 0.56106 0.01148 0.65933 0.0
C126 C 0.5541 0.00617 0.90016 0.0
C127 C 0.5156 0.07083 0.76049 0.0
O128 O 0.46139 0.98225 0.62253 0.0
O129 O 0.47879 0.01606 0.6706 0.0
O130 O 0.52415 0.4471 0.79915 0.0
Mg131 Mg 0.5443 0.46311 0.70665 0.0
O132 O 0.50221 0.48129 0.82837 0.0
Mg133 Mg 0.50881 0.50908 0.73261 0.0
O134 O 0.55107 0.49977 0.73195 0.0
O135 O 0.58178 0.47199 0.71438 0.0
O136 O 0.51425 0.53808 0.63745 0.0
O137 O 0.51993 0.54087 0.81814 0.0
Mg138 Mg 0.46662 0.55533 0.75724 0.0
O139 O 0.46805 0.51846 0.73758 0.0
O140 O 0.48595 0.56851 0.6595 0.0
O141 O 0.48656 0.5621 0.85796 0.0
O142 O 0.43145 0.53697 0.74785 0.0
C143 C 0.5055 0.46201 0.59965 0.0
C144 C 0.50862 0.45865 0.84119 0.0
C145 C 0.57483 0.49446 0.73151 0.0
C146 C 0.50379 0.559 0.62107 0.0
C147 C 0.5099 0.55737 0.86114 0.0
C148 C 0.44408 0.51708 0.73184 0.0
O149 O 0.52882 0.45776 0.5998 0.0
O150 O 0.4961 0.47754 0.64671 0.0
O151 O 0.96587 0.49259 0.88204 0.0
Mg152 Mg 0.97216 0.4784 0.77381 0.0
O153 O 0.98179 0.52549 0.82617 0.0
Mg154 Mg 0.01258 0.51433 0.73661 0.0
O155 O 0.00762 0.47049 0.73834 0.0
O156 O 0.97928 0.44119 0.7694 0.0
O157 O 0.04394 0.50598 0.64513 0.0
O158 O 0.04166 0.50896 0.8288 0.0
Mg159 Mg 0.05771 0.55725 0.72849 0.0
O160 O 0.01977 0.55629 0.73665 0.0
O161 O 0.06807 0.53953 0.627 0.0
O162 O 0.07106 0.53865 0.82748 0.0
O163 O 0.04005 0.59239 0.73237 0.0
C164 C 0.96082 0.5097 0.6356 0.0
C165 C 0.968 0.51609 0.87761 0.0
C166 C 0.00128 0.44693 0.74418 0.0
C167 C 0.06172 0.51727 0.6099 0.0
C168 C 0.06152 0.51883 0.85548 0.0
C169 C 0.0192 0.58046 0.74065 0.0
O170 O 0.95219 0.49381 0.68208 0.0
O171 O 0.98269 0.51924 0.64344 0.0
H172 H 0.19613 0.09667 0.53137 0.0
H173 H 0.17514 0.03795 0.37658 0.0
H174 H 0.16009 0.08612 0.61056 0.0
H175 H 0.13921 0.02751 0.45552 0.0
H176 H 0.06775 0.02252 0.58518 0.0
H177 H 0.09822 0.04394 0.50458 0.0
H178 H 0.1499 0.04836 0.68993 0.0
H179 H 0.11932 0.02699 0.77006 0.0
C180 C 0.1837 0.0817 0.51383 0.0
C181 C 0.18861 0.06801 0.44798 0.0
C182 C 0.1631 0.07566 0.55926 0.0
C183 C 0.1468 0.05604 0.53923 0.0
C184 C 0.15123 0.04295 0.47202 0.0
C185 C 0.17196 0.04878 0.42712 0.0
C186 C 0.08522 0.02907 0.60927 0.0
C187 C 0.09104 0.02375 0.68407 0.0
C188 C 0.10279 0.04096 0.56296 0.0
C189 C 0.12652 0.04768 0.5908 0.0
C190 C 0.13168 0.0437 0.66705 0.0
C191 C 0.1142 0.03157 0.71303 0.0
H192 H 0.4675 0.16889 0.42447 0.0
H193 H 0.40912 0.18031 0.58965 0.0
H194 H 0.48296 0.13304 0.49555 0.0
H195 H 0.42455 0.14438 0.66031 0.0
H196 H 0.48988 0.11143 0.80909 0.0
H197 H 0.46438 0.13956 0.73291 0.0
H198 H 0.47301 0.08965 0.54365 0.0
H199 H 0.49849 0.06146 0.62066 0.0
C200 C 0.45777 0.16356 0.47539 0.0
C201 C 0.43732 0.17767 0.50204 0.0
C202 C 0.46649 0.14288 0.51573 0.0
C203 C 0.45502 0.13601 0.5837 0.0
C204 C 0.43389 0.14942 0.6085 0.0
C205 C 0.42507 0.16998 0.56797 0.0
C206 C 0.48551 0.10611 0.75201 0.0
C207 C 0.49557 0.08415 0.72097 0.0
C208 C 0.47096 0.12216 0.70833 0.0
C209 C 0.46673 0.1168 0.63228 0.0
C210 C 0.47606 0.09427 0.60202 0.0
C211 C 0.49031 0.07801 0.64622 0.0
H212 H 0.33788 0.40369 0.58276 0.0
H213 H 0.34375 0.4613 0.41351 0.0
H214 H 0.37441 0.42111 0.64635 0.0
H215 H 0.38002 0.4789 0.4778 0.0
H216 H 0.45176 0.50039 0.59094 0.0
H217 H 0.42396 0.47279 0.51913 0.0
H218 H 0.37893 0.4607 0.71757 0.0
H219 H 0.40665 0.48842 0.78849 0.0
C220 C 0.34709 0.41993 0.55874 0.0
C221 C 0.33766 0.43139 0.49382 0.0
C222 C 0.368 0.42989 0.59522 0.0
C223 C 0.37992 0.4515 0.56755 0.0
C224 C 0.37137 0.46211 0.50024 0.0
C225 C 0.35044 0.45215 0.46373 0.0
C226 C 0.4364 0.49105 0.61947 0.0
C227 C 0.43148 0.49595 0.69531 0.0
C228 C 0.42032 0.47558 0.57828 0.0
C229 C 0.39925 0.4646 0.61268 0.0
C230 C 0.39524 0.46851 0.68975 0.0
C231 C 0.41105 0.48433 0.73045 0.0
H232 H 0.03339 0.33632 0.42206 0.0
H233 H 0.10531 0.33865 0.53302 0.0
H234 H 0.01779 0.36878 0.50608 0.0
H235 H 0.08951 0.37144 0.61745 0.0
H236 H 0.05019 0.44922 0.69433 0.0
H237 H 0.07176 0.41752 0.61662 0.0
H238 H 0.00903 0.36723 0.64625 0.0
H239 H 0.98762 0.39847 0.7214 0.0
C240 C 0.04595 0.3439 0.46399 0.0
C241 C 0.07049 0.33471 0.47146 0.0
C242 C 0.03697 0.36241 0.51233 0.0
C243 C 0.05236 0.37232 0.5689 0.0
C244 C 0.07728 0.36404 0.57442 0.0
C245 C 0.08623 0.34522 0.52638 0.0
C246 C 0.04119 0.43135 0.68398 0.0
C247 C 0.0169 0.42673 0.71147 0.0
C248 C 0.05353 0.41322 0.6402 0.0
C249 C 0.04163 0.39032 0.62356 0.0
C250 C 0.0183 0.38502 0.65639 0.0
C251 C 0.00613 0.40293 0.70001 0.0
H252 H 0.83185 0.90423 0.84096 0.0
H253 H 0.84005 0.95285 0.0333 0.0
H254 H 0.86795 0.92438 0.7817 0.0
H255 H 0.87606 0.97303 0.97373 0.0
H256 H 0.95005 0.99452 0.86997 0.0
H257 H 0.92017 0.96558 0.92883 0.0
H258 H 0.87455 0.96752 0.72941 0.0
H259 H 0.90438 0.99656 0.67138 0.0
C260 C 0.84142 0.91912 0.87079 0.0
C261 C 0.8329 0.92712 0.94152 0.0
C262 C 0.86209 0.93064 0.83679 0.0
C263 C 0.87481 0.95028 0.87299 0.0
C264 C 0.86682 0.95774 0.94479 0.0
C265 C 0.84604 0.94633 0.97861 0.0
C266 C 0.93408 0.98795 0.83798 0.0
C267 C 0.92969 0.99716 0.76569 0.0
C268 C 0.91683 0.97172 0.87193 0.0
C269 C 0.89498 0.96437 0.83382 0.0
C270 C 0.89137 0.97257 0.75981 0.0
C271 C 0.90843 0.9891 0.72643 0.0
H272 H 0.6183 0.8322 0.84644 0.0
H273 H 0.5671 0.82484 0.03337 0.0
H274 H 0.59282 0.86635 0.79655 0.0
H275 H 0.54184 0.85908 0.98379 0.0
H276 H 0.48624 0.89294 0.8191 0.0
H277 H 0.51464 0.86239 0.87279 0.0
H278 H 0.57765 0.91035 0.82034 0.0
H279 H 0.54882 0.94117 0.76478 0.0
C280 C 0.60173 0.838 0.8772 0.0
C281 C 0.59455 0.82561 0.94339 0.0
C282 C 0.58726 0.85768 0.84887 0.0
C283 C 0.56524 0.86524 0.88589 0.0
C284 C 0.55854 0.85341 0.95343 0.0
C285 C 0.57305 0.83385 0.98195 0.0
C286 C 0.50616 0.897 0.81853 0.0
C287 C 0.51536 0.91956 0.78833 0.0
C288 C 0.52241 0.87959 0.85015 0.0
C289 C 0.54833 0.88414 0.85192 0.0
C290 C 0.55771 0.90641 0.81998 0.0
C291 C 0.54129 0.92406 0.78868 0.0
H292 H 0.71946 0.55104 0.85962 0.0
H293 H 0.66977 0.60794 0.9465 0.0
H294 H 0.68351 0.52583 0.82194 0.0
H295 H 0.63351 0.58379 0.90366 0.0
H296 H 0.57229 0.52487 0.85409 0.0
H297 H 0.60673 0.54882 0.90996 0.0
H298 H 0.65487 0.52682 0.7255 0.0
H299 H 0.62081 0.50232 0.67262 0.0
C300 C 0.70073 0.55806 0.87065 0.0
C301 C 0.69725 0.58139 0.90525 0.0
C302 C 0.68008 0.54382 0.84828 0.0
C303 C 0.65548 0.55307 0.85738 0.0
C304 C 0.65207 0.57596 0.89568 0.0
C305 C 0.67281 0.58987 0.92013 0.0
C306 C 0.59014 0.52579 0.82502 0.0
C307 C 0.59388 0.51224 0.75851 0.0
C308 C 0.60996 0.5393 0.8572 0.0
C309 C 0.63385 0.53952 0.82308 0.0
C310 C 0.63708 0.52656 0.75492 0.0
C311 C 0.61745 0.51284 0.72367 0.0
H312 H 0.95081 0.68573 0.02831 0.0
H313 H 0.90235 0.69073 0.83537 0.0
H314 H 0.97206 0.64981 0.97201 0.0
H315 H 0.9234 0.65458 0.77961 0.0
H316 H 0.99458 0.61778 0.66922 0.0
H317 H 0.96538 0.64771 0.72586 0.0
H318 H 0.96727 0.60576 0.93266 0.0
H319 H 0.99658 0.57593 0.87536 0.0
C320 C 0.94453 0.67903 0.97422 0.0
C321 C 0.92507 0.69128 0.93594 0.0
C322 C 0.95656 0.65829 0.94224 0.0
C323 C 0.94944 0.64937 0.87121 0.0
C324 C 0.9295 0.66118 0.834 0.0
C325 C 0.91743 0.68187 0.86604 0.0
C326 C 0.98797 0.61455 0.72583 0.0
C327 C 0.99716 0.59431 0.76746 0.0
C328 C 0.97132 0.63167 0.75843 0.0
C329 C 0.96405 0.62914 0.83388 0.0
C330 C 0.97267 0.60832 0.87464 0.0
C331 C 0.9891 0.59105 0.84163 0.0
H332 H 0.10417 0.18334 0.49531 0.0
H333 H 0.04833 0.18978 0.32259 0.0
H334 H 0.08527 0.14428 0.53767 0.0
H335 H 0.03036 0.14945 0.36012 0.0
H336 H 0.98513 0.09685 0.514 0.0
H337 H 0.00592 0.13124 0.45077 0.0
H338 H 0.0779 0.10231 0.52126 0.0
H339 H 0.05654 0.06939 0.59082 0.0
C340 C 0.08804 0.17601 0.46565 0.0
C341 C 0.07751 0.18953 0.4064 0.0
C342 C 0.07729 0.15343 0.48924 0.0
C343 C 0.05616 0.14336 0.45249 0.0
C344 C 0.04622 0.15669 0.39113 0.0
C345 C 0.05655 0.17973 0.36915 0.0
C346 C 0.00544 0.09761 0.5152 0.0
C347 C 0.01922 0.08021 0.55763 0.0
C348 C 0.01748 0.11735 0.47816 0.0
C349 C 0.04373 0.12008 0.48151 0.0
C350 C 0.05763 0.10142 0.51888 0.0
C351 C 0.04547 0.08198 0.5573 0.0
H352 H 0.35054 0.1093 0.45009 0.0
H353 H 0.3213 0.03372 0.43718 0.0
H354 H 0.39034 0.09303 0.49642 0.0
H355 H 0.36099 0.01756 0.48413 0.0
H356 H 0.44164 0.99349 0.49053 0.0
H357 H 0.40459 0.01358 0.43722 0.0
H358 H 0.4085 0.07146 0.60644 0.0
H359 H 0.44515 0.05115 0.66026 0.0
C360 C 0.35244 0.08926 0.45818 0.0
C361 C 0.33271 0.07281 0.43979 0.0
C362 C 0.37529 0.07995 0.48454 0.0
C363 C 0.37895 0.054 0.49268 0.0
C364 C 0.35894 0.03763 0.47678 0.0
C365 C 0.33606 0.04693 0.45081 0.0
C366 C 0.43495 0.01087 0.51503 0.0
C367 C 0.44659 0.02098 0.5788 0.0
C368 C 0.4136 0.02221 0.48509 0.0
C369 C 0.4034 0.04388 0.51839 0.0
C370 C 0.41597 0.05488 0.57923 0.0
C371 C 0.43723 0.04343 0.60946 0.0
H372 H 0.47171 0.31588 0.44407 0.0
H373 H 0.39703 0.34635 0.46575 0.0
H374 H 0.48943 0.357 0.4738 0.0
H375 H 0.41469 0.38766 0.49395 0.0
H376 H 0.46018 0.44405 0.64521 0.0
H377 H 0.43821 0.40734 0.5973 0.0
H378 H 0.49369 0.39986 0.4218 0.0
H379 H 0.51544 0.43704 0.46926 0.0
C380 C 0.4591 0.3314 0.45501 0.0
C381 C 0.433 0.32798 0.45165 0.0
C382 C 0.46923 0.35504 0.47108 0.0
C383 C 0.45347 0.37571 0.48526 0.0
C384 C 0.42734 0.37216 0.48304 0.0
C385 C 0.41722 0.34856 0.46634 0.0
C386 C 0.46701 0.43535 0.59425 0.0
C387 C 0.48925 0.44379 0.56011 0.0
C388 C 0.45458 0.41406 0.56728 0.0
C389 C 0.46439 0.40046 0.50631 0.0
C390 C 0.4859 0.40969 0.46964 0.0
C391 C 0.4982 0.43111 0.49632 0.0
H392 H 0.16208 0.40395 0.42154 0.0
H393 H 0.20614 0.46994 0.46998 0.0
H394 H 0.12394 0.4275 0.44101 0.0
H395 H 0.16808 0.49281 0.49925 0.0
H396 H 0.09858 0.53614 0.5187 0.0
H397 H 0.13266 0.51305 0.46045 0.0
H398 H 0.09841 0.44331 0.53093 0.0
H399 H 0.06335 0.46658 0.58317 0.0
C400 C 0.16376 0.4236 0.43455 0.0
C401 C 0.1874 0.43513 0.44093 0.0
C402 C 0.14167 0.4371 0.44812 0.0
C403 C 0.14253 0.46232 0.4716 0.0
C404 C 0.16628 0.47372 0.47917 0.0
C405 C 0.18831 0.46041 0.46347 0.0
C406 C 0.09799 0.51582 0.52014 0.0
C407 C 0.07858 0.50318 0.55826 0.0
C408 C 0.11784 0.50251 0.48759 0.0
C409 C 0.11912 0.47619 0.49338 0.0
C410 C 0.09848 0.46351 0.52546 0.0
C411 C 0.07832 0.47687 0.55644 0.0
H412 H 0.98006 0.81547 0.99579 0.0
H413 H 0.90517 0.84617 0.00214 0.0
H414 H 0.99712 0.85725 0.97396 0.0
H415 H 0.92222 0.8881 0.97854 0.0
H416 H 0.02403 0.93659 0.98148 0.0
H417 H 0.00313 0.89919 0.03078 0.0
H418 H 0.94299 0.90934 0.87221 0.0
H419 H 0.96415 0.94618 0.82216 0.0
C420 C 0.96729 0.83123 0.99448 0.0
C421 C 0.94131 0.82756 0.00232 0.0
C422 C 0.97706 0.85522 0.98165 0.0
C423 C 0.96106 0.8761 0.97529 0.0
C424 C 0.93504 0.87242 0.98301 0.0
C425 C 0.92529 0.84841 0.99632 0.0
C426 C 0.00601 0.93119 0.9586 0.0
C427 C 0.99551 0.94465 0.89877 0.0
C428 C 0.99414 0.90967 0.98642 0.0
C429 C 0.97151 0.90112 0.95494 0.0
C430 C 0.96023 0.91553 0.8984 0.0
C431 C 0.97221 0.93692 0.87027 0.0
H432 H 0.70525 0.98033 0.00394 0.0
H433 H 0.67729 0.90459 0.02223 0.0
H434 H 0.66258 0.99575 0.98828 0.0
H435 H 0.63432 0.91996 0.00725 0.0
H436 H 0.5678 0.95736 0.87737 0.0
H437 H 0.607 0.93785 0.9151 0.0
H438 H 0.62364 0.00223 0.05377 0.0
H439 H 0.58468 0.02195 0.01399 0.0
C440 C 0.68988 0.96703 0.00573 0.0
C441 C 0.69453 0.94134 0.01557 0.0
C442 C 0.66538 0.97585 -0.00296 0.0
C443 C 0.64486 0.95917 -0.00219 0.0
C444 C 0.64962 0.93334 0.00627 0.0
C445 C 0.67421 0.92452 0.0147 0.0
C446 C 0.57941 0.96699 0.91757 0.0
C447 C 0.57322 0.99136 0.94137 0.0
C448 C 0.60202 0.95584 0.93921 0.0
C449 C 0.61889 0.96878 0.98587 0.0
C450 C 0.61148 0.99208 0.01579 0.0
C451 C 0.58895 0.00326 0.9937 0.0
H452 H 0.57282 0.6842 0.11352 0.0
H453 H 0.5963 0.69003 0.88321 0.0
H454 H 0.5544 0.64308 0.08839 0.0
H455 H 0.57824 0.64882 0.85742 0.0
H456 H 0.55909 0.56858 0.83463 0.0
H457 H 0.58245 0.60455 0.88129 0.0
H458 H 0.5193 0.62511 0.0208 0.0
H459 H 0.49648 0.58832 0.97686 0.0
C460 C 0.57348 0.67692 0.05716 0.0
C461 C 0.58512 0.6907 -0.00018 0.0
C462 C 0.56326 0.6532 0.04285 0.0
C463 C 0.56476 0.64259 0.9708 0.0
C464 C 0.57703 0.65619 0.91386 0.0
C465 C 0.58721 0.67991 0.92835 0.0
C466 C 0.55065 0.58002 0.87792 0.0
C467 C 0.52601 0.57535 0.9025 0.0
C468 C 0.56383 0.60105 0.90345 0.0
C469 C 0.55258 0.61806 0.95365 0.0
C470 C 0.52861 0.61242 0.98231 0.0
C471 C 0.51548 0.59131 0.95699 0.0
H472 H 0.81999 0.54717 0.01427 0.0
H473 H 0.84828 0.62218 0.97979 0.0
H474 H 0.86256 0.53062 0.00509 0.0
H475 H 0.89097 0.60574 0.97115 0.0
H476 H 0.94836 0.55983 0.82821 0.0
H477 H 0.91152 0.58141 0.87459 0.0
H478 H 0.90533 0.52792 0.05533 0.0
H479 H 0.94302 0.5065 0.0091 0.0
C480 C 0.83541 0.56019 0.00711 0.0
C481 C 0.83086 0.58597 -0.00168 0.0
C482 C 0.85984 0.55072 0.00185 0.0
C483 C 0.88021 0.56685 0.98723 0.0
C484 C 0.87569 0.59278 0.98162 0.0
C485 C 0.85127 0.6022 0.98658 0.0
C486 C 0.94006 0.55345 0.88019 0.0
C487 C 0.94908 0.53187 0.91606 0.0
C488 C 0.91863 0.56568 0.90645 0.0
C489 C 0.90536 0.55636 0.96863 0.0
C490 C 0.91501 0.53543 0.00688 0.0
C491 C 0.93667 0.52329 0.98079 0.0
H492 H 0.10182 0.15032 0.1302 0.0
H493 H 0.07659 0.09397 0.28743 0.0
H494 H 0.07573 0.13154 0.03326 0.0
H495 H 0.05062 0.07508 0.18961 0.0
H496 H 0.03557 0.03444 0.95932 0.0
H497 H 0.05895 0.05284 0.06321 0.0
H498 H 0.02822 0.12566 0.01105 0.0
H499 H 0.00455 0.10725 0.90735 0.0
C500 C 0.09087 0.13381 0.14399 0.0
C501 C 0.0914 0.12353 0.21646 0.0
C502 C 0.07576 0.12323 0.08861 0.0
C503 C 0.06108 0.10199 0.10421 0.0
C504 C 0.06186 0.09142 0.17619 0.0
C505 C 0.07676 0.1022 0.23201 0.0
C506 C 0.03362 0.05434 0.97043 0.0
C507 C 0.0183 0.06944 0.9251 0.0
C508 C 0.0469 0.06481 0.03008 0.0
C509 C 0.04545 0.09065 0.04477 0.0
C510 C 0.02978 0.1057 0.00042 0.0
C511 C 0.01613 0.09514 0.9415 0.0
H512 H 0.38489 0.08893 0.222 0.0
H513 H 0.32671 0.07776 0.05722 0.0
H514 H 0.41424 0.06564 0.14416 0.0
H515 H 0.35643 0.05492 0.97801 0.0
H516 H 0.40735 0.99199 0.89631 0.0
H517 H 0.37857 0.01524 0.97633 0.0
H518 H 0.43751 0.06812 0.02843 0.0
H519 H 0.46654 0.04456 0.94945 0.0
C520 C 0.37842 0.08176 0.16865 0.0
C521 C 0.35342 0.08521 0.14579 0.0
C522 C 0.39532 0.06846 0.12387 0.0
C523 C 0.38771 0.05835 0.05491 0.0
C524 C 0.3628 0.06212 0.03142 0.0
C525 C 0.34581 0.07536 0.07649 0.0
C526 C 0.4143 0.00841 0.92543 0.0
C527 C 0.43932 0.01635 0.91649 0.0
C528 C 0.39768 0.02191 0.97072 0.0
C529 C 0.40563 0.04369 0.00822 0.0
C530 C 0.43081 0.0513 0.00081 0.0
C531 C 0.44747 0.03778 0.95551 0.0
H532 H 0.40061 0.38157 0.12026 0.0
H533 H 0.46966 0.37972 0.24671 0.0
H534 H 0.42197 0.4054 0.02119 0.0
H535 H 0.49065 0.40371 0.14796 0.0
H536 H 0.48817 0.47862 0.96812 0.0
H537 H 0.46618 0.45613 0.06857 0.0
H538 H 0.47873 0.38604 0.95353 0.0
H539 H 0.50111 0.40825 0.85344 0.0
C540 C 0.42019 0.38649 0.12725 0.0
C541 C 0.43351 0.37879 0.19097 0.0
C542 C 0.43233 0.39997 0.07069 0.0
C543 C 0.45777 0.40615 0.07782 0.0
C544 C 0.47097 0.399 0.14191 0.0
C545 C 0.45896 0.38531 0.19802 0.0
C546 C 0.48632 0.45841 0.96444 0.0
C547 C 0.49646 0.44513 0.90337 0.0
C548 C 0.47375 0.44566 0.02159 0.0
C549 C 0.47083 0.41958 0.01769 0.0
C550 C 0.48087 0.40623 0.95698 0.0
C551 C 0.49376 0.4189 0.90035 0.0
H552 H 0.17949 0.45543 0.12556 0.0
H553 H 0.11372 0.41367 0.19361 0.0
H554 H 0.15384 0.48077 0.04241 0.0
H555 H 0.08787 0.43963 0.11267 0.0
H556 H 0.05544 0.47007 0.89561 0.0
H557 H 0.08001 0.44609 0.98401 0.0
H558 H 0.1224 0.51271 0.0402 0.0
H559 H 0.09832 0.53664 0.94863 0.0
C560 C 0.15951 0.45176 0.12304 0.0
C561 C 0.14861 0.43249 0.16576 0.0
C562 C 0.14477 0.46646 0.07592 0.0
C563 C 0.11877 0.46232 0.07102 0.0
C564 C 0.10789 0.4431 0.11424 0.0
C565 C 0.12268 0.42825 0.16081 0.0
C566 C 0.06979 0.47974 0.9274 0.0
C567 C 0.07494 0.50528 0.91517 0.0
C568 C 0.08385 0.46596 0.9784 0.0
C569 C 0.10319 0.47744 0.01929 0.0
C570 C 0.1079 0.50319 0.00865 0.0
C571 C 0.09401 0.51695 0.95669 0.0
H572 H 0.94324 0.87597 0.26151 0.0
H573 H 0.01883 0.84769 0.28409 0.0
H574 H 0.9523 0.90882 0.35233 0.0
H575 H 0.02766 0.88 0.37672 0.0
H576 H 0.0447 0.95159 0.49529 0.0
H577 H 0.03418 0.92363 0.3917 0.0
H578 H 0.95938 0.9146 0.48285 0.0
H579 H 0.96977 0.94383 0.58405 0.0
C580 C 0.9618 0.87675 0.28595 0.0
C581 C 0.98033 0.85923 0.26565 0.0
C582 C 0.96694 0.8955 0.33839 0.0
C583 C 0.99071 0.89712 0.37184 0.0
C584 C 0.00928 0.87963 0.35111 0.0
C585 C 0.00417 0.86095 0.29842 0.0
C586 C 0.02588 0.94396 0.49188 0.0
C587 C 0.00795 0.94978 0.54674 0.0
C588 C 0.01991 0.92775 0.43324 0.0
C589 C 0.99605 0.91653 0.4295 0.0
C590 C 0.97783 0.92312 0.48343 0.0
C591 C 0.9837 0.9398 0.54135 0.0
H592 H 0.67244 0.01874 0.31028 0.0
H593 H 0.63348 0.94964 0.25932 0.0
H594 H 0.64367 0.02631 0.41403 0.0
H595 H 0.60515 0.95685 0.36454 0.0
H596 H 0.54595 0.99037 0.5266 0.0
H597 H 0.5718 0.9829 0.41515 0.0
H598 H 0.63729 0.00833 0.53575 0.0
H599 H 0.6115 0.01642 0.64542 0.0
C600 C 0.65768 0.00521 0.32103 0.0
C601 C 0.65543 0.98345 0.27717 0.0
C602 C 0.6413 0.00944 0.38086 0.0
C603 C 0.62238 0.99195 0.39839 0.0
C604 C 0.61947 0.97072 0.35248 0.0
C605 C 0.6358 0.96654 0.29239 0.0
C606 C 0.56591 0.99412 0.52923 0.0
C607 C 0.57668 0.0042 0.59439 0.0
C608 C 0.58071 0.98986 0.46549 0.0
C609 C 0.60654 0.99544 0.46617 0.0
C610 C 0.61735 0.00454 0.53253 0.0
C611 C 0.60259 0.00899 0.59565 0.0
H612 H 0.5807 0.66891 0.34394 0.0
H613 H 0.50254 0.67152 0.28093 0.0
H614 H 0.57212 0.63364 0.42593 0.0
H615 H 0.49364 0.63678 0.36585 0.0
H616 H 0.48765 0.56125 0.47732 0.0
H617 H 0.49953 0.59282 0.38398 0.0
H618 H 0.55256 0.62452 0.541 0.0
H619 H 0.54131 0.59232 0.6319 0.0
C620 C 0.56158 0.66215 0.34837 0.0
C621 C 0.54227 0.67304 0.30619 0.0
C622 C 0.55665 0.64191 0.39555 0.0
C623 C 0.53219 0.63229 0.40253 0.0
C624 C 0.51279 0.64337 0.36075 0.0
C625 C 0.51781 0.66347 0.31272 0.0
C626 C 0.50237 0.57459 0.49033 0.0
C627 C 0.514 0.57432 0.56052 0.0
C628 C 0.50891 0.59287 0.43768 0.0
C629 C 0.52686 0.61138 0.45516 0.0
C630 C 0.53897 0.61039 0.52501 0.0
C631 C 0.53261 0.59198 0.57713 0.0
H632 H 0.89147 0.57133 0.23322 0.0
H633 H 0.83316 0.52903 0.34482 0.0
H634 H 0.92107 0.55948 0.33051 0.0
H635 H 0.86242 0.51798 0.44366 0.0
H636 H 0.92536 0.4811 0.56853 0.0
H637 H 0.89763 0.49259 0.46663 0.0
H638 H 0.93179 0.56619 0.45812 0.0
H639 H 0.96047 0.55408 0.55841 0.0
C640 C 0.88493 0.55963 0.27888 0.0
C641 C 0.86001 0.55104 0.28131 0.0
C642 C 0.90188 0.55297 0.33494 0.0
C643 C 0.8942 0.53774 0.39501 0.0
C644 C 0.86916 0.52933 0.39754 0.0
C645 C 0.8523 0.53577 0.34108 0.0
C646 C 0.927 0.49972 0.54467 0.0
C647 C 0.94497 0.51676 0.57149 0.0
C648 C 0.91097 0.50638 0.48655 0.0
C649 C 0.9122 0.53044 0.45462 0.0
C650 C 0.93049 0.5474 0.48079 0.0
C651 C 0.94687 0.54054 0.53834 0.0
loop_
_geom_bond_atom_site_label_1
_geom_bond_atom_site_label_2
_geom_bond_distance
_geom_bond_site_symmetry_2
_ccdc_geom_bond_type
O0 Cd1 2.300 1_556 S
O0 C7 1.275 1_556 S
Cd1 O0 2.300 1_554 S
Cd1 O9 2.381 1_554 S
Cd1 O10 2.378 . S
O2 Cd3 2.385 . S
O2 C7 1.255 . S
Cd3 O2 2.385 . S
Cd3 O4 2.317 . S
O4 Cd3 2.317 . S
O4 C5 1.232 . S
C5 O4 1.232 . S
C5 O6 1.218 . S
O6 C5 1.218 . S
C7 O0 1.275 1_554 S
C7 O2 1.255 . S
C8 O9 1.258 1_554 S
C8 O10 1.256 . S
O9 Cd1 2.381 1_556 S
O9 C8 1.258 1_556 S
O10 Cd1 2.378 . S
O10 C8 1.256 . S
O11 Cd12 2.300 1_556 S
O11 C18 1.275 1_556 S
Cd12 O11 2.300 1_554 S
Cd12 O20 2.381 1_554 S
Cd12 O21 2.378 . S
O13 Cd14 2.385 1_655 S
O13 C18 1.255 . S
Cd14 O13 2.385 1_455 S
Cd14 O15 2.317 1_455 S
O15 Cd14 2.317 1_655 S
O15 C16 1.232 . S
C16 O15 1.232 . S
C16 O17 1.218 . S
O17 C16 1.218 . S
C18 O11 1.275 1_554 S
C18 O13 1.255 . S
C19 O20 1.258 1_554 S
C19 O21 1.256 . S
O20 Cd12 2.381 1_556 S
O20 C19 1.258 1_556 S
O21 Cd12 2.378 . S
O21 C19 1.256 . S
O22 Cd23 2.300 1_556 S
O22 C29 1.275 1_556 S
Cd23 O22 2.300 1_554 S
Cd23 O31 2.381 1_554 S
Cd23 O32 2.378 . S
O24 Cd25 2.385 1_565 S
O24 C29 1.255 . S
Cd25 O24 2.385 1_545 S
Cd25 O26 2.317 1_545 S
O26 Cd25 2.317 1_565 S
O26 C27 1.232 . S
C27 O26 1.232 . S
C27 O28 1.218 . S
O28 C27 1.218 . S
C29 O22 1.275 1_554 S
C29 O24 1.255 . S
C30 O31 1.258 1_554 S
C30 O32 1.256 . S
O31 Cd23 2.381 1_556 S
O31 C30 1.258 1_556 S
O32 Cd23 2.378 . S
O32 C30 1.256 . S
O33 Cd34 2.300 1_556 S
O33 C40 1.275 1_556 S
Cd34 O33 2.300 1_554 S
Cd34 O42 2.381 1_554 S
Cd34 O43 2.378 . S
O35 Cd36 2.385 . S
O35 C40 1.255 . S
Cd36 O35 2.385 . S
Cd36 O37 2.317 . S
O37 Cd36 2.317 . S
O37 C38 1.232 . S
C38 O37 1.232 . S
C38 O39 1.218 . S
O39 C38 1.218 . S
C40 O33 1.275 1_554 S
C40 O35 1.255 . S
C41 O42 1.258 1_554 S
C41 O43 1.256 . S
O42 Cd34 2.381 1_556 S
O42 C41 1.258 1_556 S
O43 Cd34 2.378 . S
O43 C41 1.256 . S
O44 Cd45 2.300 . S
O44 C51 1.275 . S
Cd45 O44 2.300 . S
Cd45 O53 2.381 . S
Cd45 O54 2.378 . S
O46 Cd47 2.385 . S
O46 C51 1.255 . S
Cd47 O46 2.385 . S
Cd47 O48 2.317 . S
O48 Cd47 2.317 . S
O48 C49 1.232 . S
C49 O48 1.232 . S
C49 O50 1.218 . S
O50 C49 1.218 . S
C51 O44 1.275 . S
C51 O46 1.255 . S
C52 O53 1.258 . S
C52 O54 1.256 . S
O53 Cd45 2.381 . S
O53 C52 1.258 . S
O54 Cd45 2.378 . S
O54 C52 1.256 . S
O55 Cd56 2.300 . S
O55 C62 1.275 . S
Cd56 O55 2.300 . S
Cd56 O64 2.381 . S
Cd56 O65 2.378 . S
O57 Cd58 2.385 . S
O57 C62 1.255 . S
Cd58 O57 2.385 . S
Cd58 O59 2.317 . S
O59 Cd58 2.317 . S
O59 C60 1.232 . S
C60 O59 1.232 . S
C60 O61 1.218 . S
O61 C60 1.218 . S
C62 O55 1.275 . S
C62 O57 1.255 . S
C63 O64 1.258 . S
C63 O65 1.256 . S
O64 Cd56 2.381 . S
O64 C63 1.258 . S
O65 Cd56 2.378 . S
O65 C63 1.256 . S
O66 Cd67 2.300 . S
O66 C73 1.275 . S
Cd67 O66 2.300 . S
Cd67 O75 2.381 . S
Cd67 O76 2.378 . S
O68 Cd69 2.385 . S
O68 C73 1.255 . S
Cd69 O68 2.385 . S
Cd69 O70 2.317 . S
O70 Cd69 2.317 . S
O70 C71 1.232 . S
C71 O70 1.232 . S
C71 O72 1.218 . S
O72 C71 1.218 . S
C73 O66 1.275 . S
C73 O68 1.255 . S
C74 O75 1.258 . S
C74 O76 1.256 . S
O75 Cd67 2.381 . S
O75 C74 1.258 . S
O76 Cd67 2.378 . S
O76 C74 1.256 . S
O77 Cd78 2.300 . S
O77 C84 1.275 . S
Cd78 O77 2.300 . S
Cd78 O86 2.381 . S
Cd78 O87 2.378 . S
O79 Cd80 2.385 . S
O79 C84 1.255 . S
Cd80 O79 2.385 . S
Cd80 O81 2.317 . S
O81 Cd80 2.317 . S
O81 C82 1.232 . S
C82 O81 1.232 . S
C82 O83 1.218 . S
O83 C82 1.218 . S
C84 O77 1.275 . S
C84 O79 1.255 . S
C85 O86 1.258 . S
C85 O87 1.256 . S
O86 Cd78 2.381 . S
O86 C85 1.258 . S
O87 Cd78 2.378 . S
O87 C85 1.256 . S
O88 Mg89 1.990 . S
O88 C102 1.253 . S
Mg89 O88 1.990 . S
Mg89 O92 2.213 . S
Mg89 O93 2.117 . S
Mg89 O107 2.030 . S
O90 Mg91 2.072 1_565 S
O90 C102 1.260 . S
Mg91 O90 2.072 1_545 S
Mg91 O92 2.090 1_545 S
Mg91 O94 2.079 . S
Mg91 O95 2.072 . S
Mg91 O97 2.099 1_455 S
Mg91 O108 2.079 1_445 S
O92 Mg89 2.213 . S
O92 Mg91 2.090 1_565 S
O92 C103 1.277 1_565 S
O93 Mg89 2.117 . S
O93 C103 1.228 1_565 S
O94 Mg91 2.079 . S
O94 C104 1.264 . S
O95 Mg91 2.072 . S
O95 C105 1.260 . S
Mg96 O97 2.180 . S
Mg96 O98 2.030 . S
Mg96 O99 1.990 . S
Mg96 O100 2.117 . S
O97 Mg91 2.099 1_655 S
O97 Mg96 2.180 . S
O97 C106 1.279 . S
O98 Mg96 2.030 . S
O98 C104 1.248 1_655 S
O99 Mg96 1.990 . S
O99 C105 1.253 1_655 S
O100 Mg96 2.117 . S
O100 C106 1.250 . S
C101 O107 1.251 1_655 S
C101 O108 1.263 . S
C102 O88 1.253 . S
C102 O90 1.260 . S
C103 O92 1.277 1_545 S
C103 O93 1.228 1_545 S
C104 O94 1.264 . S
C104 O98 1.248 1_455 S
C105 O95 1.260 . S
C105 O99 1.253 1_455 S
C106 O97 1.279 . S
C106 O100 1.250 . S
O107 Mg89 2.030 . S
O107 C101 1.251 1_455 S
O108 Mg91 2.079 1_665 S
O108 C101 1.263 . S
O109 Mg110 1.990 . S
O109 C123 1.253 1_565 S
Mg110 O109 1.990 . S
Mg110 O113 2.180 . S
Mg110 O114 2.117 . S
Mg110 O128 2.030 . S
O111 Mg112 2.072 . S
O111 C123 1.260 . S
Mg112 O111 2.072 . S
Mg112 O113 2.099 1_545 S
Mg112 O115 2.079 1_545 S
Mg112 O116 2.072 . S
Mg112 O118 2.099 . S
Mg112 O129 2.079 . S
O113 Mg110 2.180 . S
O113 Mg112 2.099 1_565 S
O113 C124 1.279 . S
O114 Mg110 2.117 . S
O114 C124 1.250 . S
O115 Mg112 2.079 1_565 S
O115 C125 1.267 . S
O116 Mg112 2.072 . S
O116 C126 1.260 . S
Mg117 O118 2.180 . S
Mg117 O119 2.030 . S
Mg117 O120 1.990 . S
Mg117 O121 2.117 . S
O118 Mg112 2.099 . S
O118 Mg117 2.180 . S
O118 C127 1.279 . S
O119 Mg117 2.030 . S
O119 C125 1.235 1_545 S
O120 Mg117 1.990 . S
O120 C126 1.253 . S
O121 Mg117 2.117 . S
O121 C127 1.250 . S
C122 O128 1.248 1_545 S
C122 O129 1.264 . S
C123 O109 1.253 1_545 S
C123 O111 1.260 . S
C124 O113 1.279 . S
C124 O114 1.250 . S
C125 O115 1.267 . S
C125 O119 1.235 1_565 S
C126 O116 1.260 . S
C126 O120 1.253 . S
C127 O118 1.279 . S
C127 O121 1.250 . S
O128 Mg110 2.030 . S
O128 C122 1.248 1_565 S
O129 Mg112 2.079 . S
O129 C122 1.264 . S
O130 Mg131 1.990 . S
O130 C144 1.253 . S
Mg131 O130 1.990 . S
Mg131 O134 2.180 . S
Mg131 O135 2.117 . S
Mg131 O149 2.030 . S
O132 Mg133 2.072 . S
O132 C144 1.260 . S
Mg133 O132 2.072 . S
Mg133 O134 2.099 . S
Mg133 O136 2.079 . S
Mg133 O137 2.072 . S
Mg133 O139 2.099 . S
Mg133 O150 2.079 . S
O134 Mg131 2.180 . S
O134 Mg133 2.099 . S
O134 C145 1.279 . S
O135 Mg131 2.117 . S
O135 C145 1.250 . S
O136 Mg133 2.079 . S
O136 C146 1.264 . S
O137 Mg133 2.072 . S
O137 C147 1.260 . S
Mg138 O139 2.180 . S
Mg138 O140 2.030 . S
Mg138 O141 1.990 . S
Mg138 O142 2.117 . S
O139 Mg133 2.099 . S
O139 Mg138 2.180 . S
O139 C148 1.279 . S
O140 Mg138 2.030 . S
O140 C146 1.248 . S
O141 Mg138 1.990 . S
O141 C147 1.253 . S
O142 Mg138 2.117 . S
O142 C148 1.250 . S
C143 O149 1.248 . S
C143 O150 1.264 . S
C144 O130 1.253 . S
C144 O132 1.260 . S
C145 O134 1.279 . S
C145 O135 1.250 . S
C146 O136 1.264 . S
C146 O140 1.248 . S
C147 O137 1.260 . S
C147 O141 1.253 . S
C148 O139 1.279 . S
C148 O142 1.250 . S
O149 Mg131 2.030 . S
O149 C143 1.248 . S
O150 Mg133 2.079 . S
O150 C143 1.264 . S
O151 Mg152 1.990 . S
O151 C165 1.253 . S
Mg152 O151 1.990 . S
Mg152 O155 2.183 . S
Mg152 O156 2.117 . S
Mg152 O170 2.030 . S
O153 Mg154 2.072 1_655 S
O153 C165 1.260 . S
Mg154 O153 2.072 1_455 S
Mg154 O155 2.098 1_455 S
Mg154 O157 2.079 . S
Mg154 O158 2.072 . S
Mg154 O160 2.099 . S
Mg154 O171 2.079 1_455 S
O155 Mg152 2.183 . S
O155 Mg154 2.098 1_655 S
O155 C166 1.279 1_655 S
O156 Mg152 2.117 . S
O156 C166 1.250 1_655 S
O157 Mg154 2.079 . S
O157 C167 1.264 . S
O158 Mg154 2.072 . S
O158 C168 1.260 . S
Mg159 O160 2.180 . S
Mg159 O161 2.030 . S
Mg159 O162 1.990 . S
Mg159 O163 2.117 . S
O160 Mg154 2.099 . S
O160 Mg159 2.180 . S
O160 C169 1.279 . S
O161 Mg159 2.030 . S
O161 C167 1.248 . S
O162 Mg159 1.990 . S
O162 C168 1.253 . S
O163 Mg159 2.117 . S
O163 C169 1.250 . S
C164 O170 1.248 . S
C164 O171 1.264 . S
C165 O151 1.253 . S
C165 O153 1.260 . S
C166 O155 1.279 1_455 S
C166 O156 1.250 1_455 S
C167 O157 1.264 . S
C167 O161 1.248 . S
C168 O158 1.260 . S
C168 O162 1.253 . S
C169 O160 1.279 . S
C169 O163 1.250 . S
O170 Mg152 2.030 . S
O170 C164 1.248 . S
O171 Mg154 2.079 1_655 S
O171 C164 1.264 . S
H172 C180 0.950 . S
H173 C185 0.950 . S
H174 C182 0.950 . S
H175 C184 0.950 . S
H176 C186 0.948 1_565 S
H177 C188 0.950 . S
H178 C190 0.950 . S
H179 C191 0.950 . S
C180 H172 0.950 . S
C180 C181 1.386 . S
C180 C182 1.391 . S
C181 C180 1.386 . S
C181 C185 1.393 . S
C182 H174 0.950 . S
C182 C180 1.391 . S
C182 C183 1.400 . S
C183 C182 1.400 . S
C183 C184 1.398 . S
C183 C189 1.491 . S
C184 H175 0.950 . S
C184 C183 1.398 . S
C184 C185 1.391 . S
C185 H173 0.950 . S
C185 C181 1.393 . S
C185 C184 1.391 . S
C186 H176 0.948 1_545 S
C186 C187 1.386 . S
C186 C188 1.391 . S
C187 C186 1.386 . S
C187 C191 1.393 . S
C188 H177 0.950 . S
C188 C186 1.391 . S
C188 C189 1.400 . S
C189 C183 1.491 . S
C189 C188 1.400 . S
C189 C190 1.398 . S
C190 H178 0.950 . S
C190 C189 1.398 . S
C190 C191 1.391 . S
C191 H179 0.950 . S
C191 C187 1.393 . S
C191 C190 1.391 . S
H192 C200 0.950 . S
H193 C205 0.950 . S
H194 C202 0.950 . S
H195 C204 0.950 . S
H196 C206 0.950 . S
H197 C208 0.950 . S
H198 C210 0.950 . S
H199 C211 0.950 . S
C200 H192 0.950 . S
C200 C201 1.386 . S
C200 C202 1.391 . S
C201 C200 1.386 . S
C201 C205 1.393 . S
C202 H194 0.950 . S
C202 C200 1.391 . S
C202 C203 1.400 . S
C203 C202 1.400 . S
C203 C204 1.398 . S
C203 C209 1.491 . S
C204 H195 0.950 . S
C204 C203 1.398 . S
C204 C205 1.391 . S
C205 H193 0.950 . S
C205 C201 1.393 . S
C205 C204 1.391 . S
C206 H196 0.950 . S
C206 C207 1.386 . S
C206 C208 1.391 . S
C207 C206 1.386 . S
C207 C211 1.393 . S
C208 H197 0.950 . S
C208 C206 1.391 . S
C208 C209 1.400 . S
C209 C203 1.491 . S
C209 C208 1.400 . S
C209 C210 1.398 . S
C210 H198 0.950 . S
C210 C209 1.398 . S
C210 C211 1.391 . S
C211 H199 0.950 . S
C211 C207 1.393 . S
C211 C210 1.391 . S
H212 C220 0.950 . S
H213 C225 0.950 . S
H214 C222 0.950 . S
H215 C224 0.950 . S
H216 C226 0.950 . S
H217 C228 0.950 . S
H218 C230 0.950 . S
H219 C231 0.950 . S
C220 H212 0.950 . S
C220 C221 1.386 . S
C220 C222 1.391 . S
C221 C220 1.386 . S
C221 C225 1.393 . S
C222 H214 0.950 . S
C222 C220 1.391 . S
C222 C223 1.400 . S
C223 C222 1.400 . S
C223 C224 1.398 . S
C223 C229 1.491 . S
C224 H215 0.950 . S
C224 C223 1.398 . S
C224 C225 1.391 . S
C225 H213 0.950 . S
C225 C221 1.393 . S
C225 C224 1.391 . S
C226 H216 0.950 . S
C226 C227 1.386 . S
C226 C228 1.391 . S
C227 C226 1.386 . S
C227 C231 1.393 . S
C228 H217 0.950 . S
C228 C226 1.391 . S
C228 C229 1.400 . S
C229 C223 1.491 . S
C229 C228 1.400 . S
C229 C230 1.398 . S
C230 H218 0.950 . S
C230 C229 1.398 . S
C230 C231 1.391 . S
C231 H219 0.950 . S
C231 C227 1.393 . S
C231 C230 1.391 . S
H232 C240 0.950 . S
H233 C245 0.950 . S
H234 C242 0.950 . S
H235 C244 0.950 . S
H236 C246 0.950 . S
H237 C248 0.950 . S
H238 C250 0.950 1_655 S
H239 C251 0.952 1_655 S
C240 H232 0.950 . S
C240 C241 1.386 . S
C240 C242 1.391 . S
C241 C240 1.386 . S
C241 C245 1.393 . S
C242 H234 0.950 . S
C242 C240 1.391 . S
C242 C243 1.400 . S
C243 C242 1.400 . S
C243 C244 1.398 . S
C243 C249 1.491 . S
C244 H235 0.950 . S
C244 C243 1.398 . S
C244 C245 1.391 . S
C245 H233 0.950 . S
C245 C241 1.393 . S
C245 C244 1.391 . S
C246 H236 0.950 . S
C246 C247 1.386 . S
C246 C248 1.391 . S
C247 C246 1.386 . S
C247 C251 1.391 . S
C248 H237 0.950 . S
C248 C246 1.391 . S
C248 C249 1.400 . S
C249 C243 1.491 . S
C249 C248 1.400 . S
C249 C250 1.398 . S
C250 H238 0.950 1_455 S
C250 C249 1.398 . S
C250 C251 1.390 . S
C251 H239 0.952 1_455 S
C251 C247 1.391 . S
C251 C250 1.390 . S
H252 C260 0.950 . S
H253 C265 0.950 1_545 S
H254 C262 0.950 . S
H255 C264 0.950 1_545 S
H256 C266 0.950 . S
H257 C268 0.950 . S
H258 C270 0.950 . S
H259 C271 0.950 . S
C260 H252 0.950 . S
C260 C261 1.386 . S
C260 C262 1.391 . S
C261 C260 1.386 . S
C261 C265 1.393 1_556 S
C262 H254 0.950 . S
C262 C260 1.391 . S
C262 C263 1.400 . S
C263 C262 1.400 . S
C263 C264 1.398 . S
C263 C269 1.491 . S
C264 H255 0.950 1_565 S
C264 C263 1.398 . S
C264 C265 1.391 1_556 S
C265 H253 0.950 1_565 S
C265 C261 1.393 1_554 S
C265 C264 1.391 1_554 S
C266 H256 0.950 . S
C266 C267 1.366 1_545 S
C266 C268 1.391 . S
C267 C266 1.366 1_565 S
C267 C271 1.421 . S
C268 H257 0.950 . S
C268 C266 1.391 . S
C268 C269 1.400 1_545 S
C269 C263 1.491 . S
C269 C268 1.400 1_565 S
C269 C270 1.398 . S
C270 H258 0.950 . S
C270 C269 1.398 . S
C270 C271 1.391 . S
C271 H259 0.950 . S
C271 C267 1.421 . S
C271 C270 1.391 . S
H272 C280 0.950 . S
H273 C285 0.950 . S
H274 C282 0.950 . S
H275 C284 0.950 . S
H276 C286 0.950 . S
H277 C288 0.950 . S
H278 C290 0.950 . S
H279 C291 0.950 . S
C280 H272 0.950 . S
C280 C281 1.386 . S
C280 C282 1.391 . S
C281 C280 1.386 . S
C281 C285 1.393 . S
C282 H274 0.950 . S
C282 C280 1.391 . S
C282 C283 1.400 . S
C283 C282 1.400 . S
C283 C284 1.398 . S
C283 C289 1.491 . S
C284 H275 0.950 . S
C284 C283 1.398 . S
C284 C285 1.391 . S
C285 H273 0.950 . S
C285 C281 1.393 . S
C285 C284 1.391 . S
C286 H276 0.950 . S
C286 C287 1.386 . S
C286 C288 1.391 . S
C287 C286 1.386 . S
C287 C291 1.393 . S
C288 H277 0.950 . S
C288 C286 1.391 . S
C288 C289 1.400 . S
C289 C283 1.491 . S
C289 C288 1.400 . S
C289 C290 1.398 . S
C290 H278 0.950 . S
C290 C289 1.398 . S
C290 C291 1.391 . S
C291 H279 0.950 . S
C291 C287 1.393 . S
C291 C290 1.391 . S
H292 C300 0.950 . S
H293 C305 0.950 . S
H294 C302 0.950 . S
H295 C304 0.950 . S
H296 C306 0.950 . S
H297 C308 0.950 . S
H298 C310 0.950 . S
H299 C311 0.950 . S
C300 H292 0.950 . S
C300 C301 1.386 . S
C300 C302 1.391 . S
C301 C300 1.386 . S
C301 C305 1.393 . S
C302 H294 0.950 . S
C302 C300 1.391 . S
C302 C303 1.400 . S
C303 C302 1.400 . S
C303 C304 1.398 . S
C303 C309 1.491 . S
C304 H295 0.950 . S
C304 C303 1.398 . S
C304 C305 1.391 . S
C305 H293 0.950 . S
C305 C301 1.393 . S
C305 C304 1.391 . S
C306 H296 0.950 . S
C306 C307 1.386 . S
C306 C308 1.391 . S
C307 C306 1.386 . S
C307 C311 1.393 . S
C308 H297 0.950 . S
C308 C306 1.391 . S
C308 C309 1.400 . S
C309 C303 1.491 . S
C309 C308 1.400 . S
C309 C310 1.398 . S
C310 H298 0.950 . S
C310 C309 1.398 . S
C310 C311 1.391 . S
C311 H299 0.950 . S
C311 C307 1.393 . S
C311 C310 1.391 . S
H312 C320 0.950 . S
H313 C325 0.950 . S
H314 C322 0.950 1_554 S
H315 C324 0.950 . S
H316 C326 0.950 . S
H317 C328 0.950 . S
H318 C330 0.953 . S
H319 C331 0.950 . S
C320 H312 0.950 . S
C320 C321 1.386 1_554 S
C320 C322 1.391 1_554 S
C321 C320 1.386 1_556 S
C321 C325 1.393 . S
C322 H314 0.950 1_556 S
C322 C320 1.391 1_556 S
C322 C323 1.400 . S
C323 C322 1.400 . S
C323 C324 1.398 . S
C323 C329 1.491 . S
C324 H315 0.950 . S
C324 C323 1.398 . S
C324 C325 1.391 . S
C325 H313 0.950 . S
C325 C321 1.393 . S
C325 C324 1.391 . S
C326 H316 0.950 . S
C326 C327 1.386 1_655 S
C326 C328 1.391 . S
C327 C326 1.386 1_455 S
C327 C331 1.393 . S
C328 H317 0.950 . S
C328 C326 1.391 . S
C328 C329 1.400 . S
C329 C323 1.491 . S
C329 C328 1.400 . S
C329 C330 1.398 . S
C330 H318 0.953 . S
C330 C329 1.398 . S
C330 C331 1.391 1_655 S
C331 H319 0.950 . S
C331 C327 1.393 . S
C331 C330 1.391 1_455 S
H332 C340 0.950 . S
H333 C345 0.950 . S
H334 C342 0.950 . S
H335 C344 0.950 . S
H336 C346 0.950 1_655 S
H337 C348 0.950 . S
H338 C350 0.950 . S
H339 C351 0.950 . S
C340 H332 0.950 . S
C340 C341 1.386 . S
C340 C342 1.391 . S
C341 C340 1.386 . S
C341 C345 1.393 . S
C342 H334 0.950 . S
C342 C340 1.391 . S
C342 C343 1.400 . S
C343 C342 1.400 . S
C343 C344 1.398 . S
C343 C349 1.491 . S
C344 H335 0.950 . S
C344 C343 1.398 . S
C344 C345 1.391 . S
C345 H333 0.950 . S
C345 C341 1.393 . S
C345 C344 1.391 . S
C346 H336 0.950 1_455 S
C346 C347 1.386 . S
C346 C348 1.391 . S
C347 C346 1.386 . S
C347 C351 1.393 . S
C348 H337 0.950 . S
C348 C346 1.391 . S
C348 C349 1.400 . S
C349 C343 1.491 . S
C349 C348 1.400 . S
C349 C350 1.398 . S
C350 H338 0.950 . S
C350 C349 1.398 . S
C350 C351 1.391 . S
C351 H339 0.950 . S
C351 C347 1.393 . S
C351 C350 1.391 . S
H352 C360 0.950 . S
H353 C365 0.950 . S
H354 C362 0.950 . S
H355 C364 0.975 . S
H356 C366 0.950 . S
H357 C368 0.950 . S
H358 C370 0.950 . S
H359 C371 0.950 . S
C360 H352 0.950 . S
C360 C361 1.386 . S
C360 C362 1.391 . S
C361 C360 1.386 . S
C361 C365 1.393 . S
C362 H354 0.950 . S
C362 C360 1.391 . S
C362 C363 1.400 . S
C363 C362 1.400 . S
C363 C364 1.398 . S
C363 C369 1.491 . S
C364 H355 0.975 . S
C364 C363 1.398 . S
C364 C365 1.391 . S
C365 H353 0.950 . S
C365 C361 1.393 . S
C365 C364 1.391 . S
C366 H356 0.950 . S
C366 C367 1.386 1_565 S
C366 C368 1.391 . S
C367 C366 1.386 1_545 S
C367 C371 1.393 . S
C368 H357 0.950 . S
C368 C366 1.391 . S
C368 C369 1.400 1_565 S
C369 C363 1.491 . S
C369 C368 1.400 1_545 S
C369 C370 1.398 . S
C370 H358 0.950 . S
C370 C369 1.398 . S
C370 C371 1.391 . S
C371 H359 0.950 . S
C371 C367 1.393 . S
C371 C370 1.391 . S
H372 C380 0.950 . S
H373 C385 0.950 . S
H374 C382 0.950 . S
H375 C384 0.950 . S
H376 C386 0.950 . S
H377 C388 0.950 . S
H378 C390 0.950 . S
H379 C391 0.950 . S
C380 H372 0.950 . S
C380 C381 1.386 . S
C380 C382 1.391 . S
C381 C380 1.386 . S
C381 C385 1.393 . S
C382 H374 0.950 . S
C382 C380 1.391 . S
C382 C383 1.400 . S
C383 C382 1.400 . S
C383 C384 1.398 . S
C383 C389 1.491 . S
C384 H375 0.950 . S
C384 C383 1.398 . S
C384 C385 1.391 . S
C385 H373 0.950 . S
C385 C381 1.393 . S
C385 C384 1.391 . S
C386 H376 0.950 . S
C386 C387 1.386 . S
C386 C388 1.391 . S
C387 C386 1.386 . S
C387 C391 1.393 . S
C388 H377 0.950 . S
C388 C386 1.391 . S
C388 C389 1.400 . S
C389 C383 1.491 . S
C389 C388 1.400 . S
C389 C390 1.398 . S
C390 H378 0.950 . S
C390 C389 1.398 . S
C390 C391 1.391 . S
C391 H379 0.950 . S
C391 C387 1.393 . S
C391 C390 1.391 . S
H392 C400 0.950 . S
H393 C405 0.950 . S
H394 C402 0.950 . S
H395 C404 0.950 . S
H396 C406 0.950 . S
H397 C408 0.950 . S
H398 C410 0.950 . S
H399 C411 0.950 . S
C400 H392 0.950 . S
C400 C401 1.386 . S
C400 C402 1.391 . S
C401 C400 1.386 . S
C401 C405 1.393 . S
C402 H394 0.950 . S
C402 C400 1.391 . S
C402 C403 1.400 . S
C403 C402 1.400 . S
C403 C404 1.398 . S
C403 C409 1.491 . S
C404 H395 0.950 . S
C404 C403 1.398 . S
C404 C405 1.391 . S
C405 H393 0.950 . S
C405 C401 1.393 . S
C405 C404 1.391 . S
C406 H396 0.950 . S
C406 C407 1.386 . S
C406 C408 1.391 . S
C407 C406 1.386 . S
C407 C411 1.393 . S
C408 H397 0.950 . S
C408 C406 1.391 . S
C408 C409 1.400 . S
C409 C403 1.491 . S
C409 C408 1.400 . S
C409 C410 1.398 . S
C410 H398 0.950 . S
C410 C409 1.398 . S
C410 C411 1.391 . S
C411 H399 0.950 . S
C411 C407 1.393 . S
C411 C410 1.391 . S
H412 C420 0.950 . S
H413 C425 0.950 . S
H414 C422 0.950 . S
H415 C424 0.950 . S
H416 C426 0.950 . S
H417 C428 0.950 . S
H418 C430 0.950 . S
H419 C431 0.950 . S
C420 H412 0.950 . S
C420 C421 1.386 . S
C420 C422 1.391 . S
C421 C420 1.386 . S
C421 C425 1.393 1_556 S
C422 H414 0.950 . S
C422 C420 1.391 . S
C422 C423 1.400 . S
C423 C422 1.400 . S
C423 C424 1.398 1_556 S
C423 C429 1.491 . S
C424 H415 0.950 . S
C424 C423 1.398 1_554 S
C424 C425 1.391 . S
C425 H413 0.950 . S
C425 C421 1.393 1_554 S
C425 C424 1.391 . S
C426 H416 0.950 . S
C426 C427 1.386 . S
C426 C428 1.391 1_455 S
C427 C426 1.386 . S
C427 C431 1.393 . S
C428 H417 0.950 . S
C428 C426 1.391 1_655 S
C428 C429 1.400 . S
C429 C423 1.491 . S
C429 C428 1.400 . S
C429 C430 1.398 . S
C430 H418 0.950 . S
C430 C429 1.398 . S
C430 C431 1.391 1_655 S
C431 H419 0.950 . S
C431 C427 1.393 . S
C431 C430 1.391 1_455 S
H432 C440 0.952 1_545 S
H433 C445 0.950 1_554 S
H434 C442 0.950 1_545 S
H435 C444 0.950 . S
H436 C446 0.950 . S
H437 C448 0.950 . S
H438 C450 0.950 . S
H439 C451 0.950 . S
C440 H432 0.952 1_565 S
C440 C441 1.386 . S
C440 C442 1.391 . S
C441 C440 1.386 . S
C441 C445 1.393 . S
C442 H434 0.950 1_565 S
C442 C440 1.391 . S
C442 C443 1.400 . S
C443 C442 1.400 . S
C443 C444 1.398 . S
C443 C449 1.491 . S
C444 H435 0.950 . S
C444 C443 1.398 . S
C444 C445 1.391 . S
C445 H433 0.950 1_556 S
C445 C441 1.393 . S
C445 C444 1.391 . S
C446 H436 0.950 . S
C446 C447 1.386 1_565 S
C446 C448 1.391 . S
C447 C446 1.386 1_545 S
C447 C451 1.393 . S
C448 H437 0.950 . S
C448 C446 1.391 . S
C448 C449 1.400 . S
C449 C443 1.491 . S
C449 C448 1.400 . S
C449 C450 1.398 1_565 S
C450 H438 0.950 . S
C450 C449 1.398 1_545 S
C450 C451 1.391 . S
C451 H439 0.950 . S
C451 C447 1.393 . S
C451 C450 1.391 . S
H452 C460 0.950 . S
H453 C465 0.950 . S
H454 C462 0.950 . S
H455 C464 0.950 . S
H456 C466 0.950 . S
H457 C468 0.950 . S
H458 C470 0.950 . S
H459 C471 0.950 . S
C460 H452 0.950 . S
C460 C461 1.386 1_554 S
C460 C462 1.391 . S
C461 C460 1.386 1_556 S
C461 C465 1.393 . S
C462 H454 0.950 . S
C462 C460 1.391 . S
C462 C463 1.400 1_554 S
C463 C462 1.400 1_556 S
C463 C464 1.398 . S
C463 C469 1.491 . S
C464 H455 0.950 . S
C464 C463 1.398 . S
C464 C465 1.391 . S
C465 H453 0.950 . S
C465 C461 1.393 . S
C465 C464 1.391 . S
C466 H456 0.950 . S
C466 C467 1.386 . S
C466 C468 1.391 . S
C467 C466 1.386 . S
C467 C471 1.393 . S
C468 H457 0.950 . S
C468 C466 1.391 . S
C468 C469 1.400 . S
C469 C463 1.491 . S
C469 C468 1.400 . S
C469 C470 1.398 . S
C470 H458 0.950 . S
C470 C469 1.398 . S
C470 C471 1.391 . S
C471 H459 0.950 . S
C471 C467 1.393 . S
C471 C470 1.391 . S
H472 C480 0.950 . S
H473 C485 0.950 . S
H474 C482 0.950 . S
H475 C484 0.950 . S
H476 C486 0.950 . S
H477 C488 0.950 . S
H478 C490 0.950 . S
H479 C491 0.950 . S
C480 H472 0.950 . S
C480 C481 1.386 1_554 S
C480 C482 1.391 1_554 S
C481 C480 1.386 1_556 S
C481 C485 1.393 . S
C482 H474 0.950 . S
C482 C480 1.391 1_556 S
C482 C483 1.400 . S
C483 C482 1.400 . S
C483 C484 1.398 . S
C483 C489 1.491 . S
C484 H475 0.950 . S
C484 C483 1.398 . S
C484 C485 1.391 . S
C485 H473 0.950 . S
C485 C481 1.393 . S
C485 C484 1.391 . S
C486 H476 0.950 . S
C486 C487 1.386 . S
C486 C488 1.391 . S
C487 C486 1.386 . S
C487 C491 1.393 . S
C488 H477 0.950 . S
C488 C486 1.391 . S
C488 C489 1.400 . S
C489 C483 1.491 . S
C489 C488 1.400 . S
C489 C490 1.398 . S
C490 H478 0.950 . S
C490 C489 1.398 . S
C490 C491 1.391 . S
C491 H479 0.950 . S
C491 C487 1.393 . S
C491 C490 1.391 . S
H492 C500 0.950 . S
H493 C505 0.950 . S
H494 C502 0.950 1_556 S
H495 C504 0.950 . S
H496 C506 0.950 . S
H497 C508 0.950 . S
H498 C510 0.950 . S
H499 C511 0.950 . S
C500 H492 0.950 . S
C500 C501 1.386 . S
C500 C502 1.391 . S
C501 C500 1.386 . S
C501 C505 1.393 . S
C502 H494 0.950 1_554 S
C502 C500 1.391 . S
C502 C503 1.400 . S
C503 C502 1.400 . S
C503 C504 1.398 . S
C503 C509 1.491 1_554 S
C504 H495 0.950 . S
C504 C503 1.398 . S
C504 C505 1.391 . S
C505 H493 0.950 . S
C505 C501 1.393 . S
C505 C504 1.391 . S
C506 H496 0.950 . S
C506 C507 1.386 . S
C506 C508 1.391 1_556 S
C507 C506 1.386 . S
C507 C511 1.393 . S
C508 H497 0.950 . S
C508 C506 1.391 1_554 S
C508 C509 1.400 1_554 S
C509 C503 1.491 1_556 S
C509 C508 1.400 1_556 S
C509 C510 1.398 . S
C510 H498 0.950 . S
C510 C509 1.398 . S
C510 C511 1.391 . S
C511 H499 0.950 . S
C511 C507 1.393 . S
C511 C510 1.391 . S
H512 C520 0.950 . S
H513 C525 0.950 . S
H514 C522 0.950 . S
H515 C524 0.950 1_556 S
H516 C526 0.950 . S
H517 C528 0.950 . S
H518 C530 0.950 . S
H519 C531 0.950 . S
C520 H512 0.950 . S
C520 C521 1.386 . S
C520 C522 1.391 . S
C521 C520 1.386 . S
C521 C525 1.393 . S
C522 H514 0.950 . S
C522 C520 1.391 . S
C522 C523 1.400 . S
C523 C522 1.400 . S
C523 C524 1.398 . S
C523 C529 1.491 1_554 S
C524 H515 0.950 1_554 S
C524 C523 1.398 . S
C524 C525 1.391 . S
C525 H513 0.950 . S
C525 C521 1.393 . S
C525 C524 1.391 . S
C526 H516 0.950 . S
C526 C527 1.386 . S
C526 C528 1.391 . S
C527 C526 1.386 . S
C527 C531 1.393 . S
C528 H517 0.950 . S
C528 C526 1.391 . S
C528 C529 1.400 . S
C529 C523 1.491 1_556 S
C529 C528 1.400 . S
C529 C530 1.398 1_556 S
C530 H518 0.950 . S
C530 C529 1.398 1_554 S
C530 C531 1.391 1_554 S
C531 H519 0.950 . S
C531 C527 1.393 . S
C531 C530 1.391 1_556 S
H532 C540 0.950 . S
H533 C545 0.950 . S
H534 C542 0.950 1_556 S
H535 C544 0.950 . S
H536 C546 0.950 . S
H537 C548 0.950 . S
H538 C550 0.950 . S
H539 C551 0.950 . S
C540 H532 0.950 . S
C540 C541 1.386 . S
C540 C542 1.391 . S
C541 C540 1.386 . S
C541 C545 1.393 . S
C542 H534 0.950 1_554 S
C542 C540 1.391 . S
C542 C543 1.400 . S
C543 C542 1.400 . S
C543 C544 1.398 . S
C543 C549 1.491 1_554 S
C544 H535 0.950 . S
C544 C543 1.398 . S
C544 C545 1.391 . S
C545 H533 0.950 . S
C545 C541 1.393 . S
C545 C544 1.391 . S
C546 H536 0.950 . S
C546 C547 1.386 . S
C546 C548 1.391 1_556 S
C547 C546 1.386 . S
C547 C551 1.393 . S
C548 H537 0.950 . S
C548 C546 1.391 1_554 S
C548 C549 1.400 1_554 S
C549 C543 1.491 1_556 S
C549 C548 1.400 1_556 S
C549 C550 1.398 . S
C550 H538 0.950 . S
C550 C549 1.398 . S
C550 C551 1.391 . S
C551 H539 0.950 . S
C551 C547 1.393 . S
C551 C550 1.391 . S
H552 C560 0.950 . S
H553 C565 0.950 . S
H554 C562 0.950 . S
H555 C564 0.950 . S
H556 C566 0.950 . S
H557 C568 0.950 . S
H558 C570 0.959 . S
H559 C571 0.950 . S
C560 H552 0.950 . S
C560 C561 1.386 . S
C560 C562 1.391 . S
C561 C560 1.386 . S
C561 C565 1.393 . S
C562 H554 0.950 . S
C562 C560 1.391 . S
C562 C563 1.400 . S
C563 C562 1.400 . S
C563 C564 1.398 . S
C563 C569 1.485 1_554 S
C564 H555 0.950 . S
C564 C563 1.398 . S
C564 C565 1.391 . S
C565 H553 0.950 . S
C565 C561 1.393 . S
C565 C564 1.391 . S
C566 H556 0.950 . S
C566 C567 1.386 . S
C566 C568 1.391 . S
C567 C566 1.386 . S
C567 C571 1.393 . S
C568 H557 0.950 . S
C568 C566 1.391 . S
C568 C569 1.406 . S
C569 C563 1.485 1_556 S
C569 C568 1.406 . S
C569 C570 1.398 1_556 S
C570 H558 0.959 . S
C570 C569 1.398 1_554 S
C570 C571 1.382 1_554 S
C571 H559 0.950 . S
C571 C567 1.393 . S
C571 C570 1.382 1_556 S
H572 C580 0.950 . S
H573 C585 0.950 1_455 S
H574 C582 0.950 . S
H575 C584 0.950 1_455 S
H576 C586 0.950 . S
H577 C588 0.950 . S
H578 C590 0.950 . S
H579 C591 0.950 . S
C580 H572 0.950 . S
C580 C581 1.386 . S
C580 C582 1.391 . S
C581 C580 1.386 . S
C581 C585 1.393 . S
C582 H574 0.950 . S
C582 C580 1.391 . S
C582 C583 1.400 . S
C583 C582 1.400 . S
C583 C584 1.398 . S
C583 C589 1.491 . S
C584 H575 0.950 1_655 S
C584 C583 1.398 . S
C584 C585 1.391 . S
C585 H573 0.950 1_655 S
C585 C581 1.393 . S
C585 C584 1.391 . S
C586 H576 0.950 . S
C586 C587 1.386 1_455 S
C586 C588 1.391 . S
C587 C586 1.386 1_655 S
C587 C591 1.393 . S
C588 H577 0.950 . S
C588 C586 1.391 . S
C588 C589 1.400 1_455 S
C589 C583 1.491 . S
C589 C588 1.400 1_655 S
C589 C590 1.398 . S
C590 H578 0.950 . S
C590 C589 1.398 . S
C590 C591 1.391 . S
C591 H579 0.950 . S
C591 C587 1.393 . S
C591 C590 1.391 . S
H592 C600 0.950 . S
H593 C605 0.950 . S
H594 C602 0.950 . S
H595 C604 0.950 . S
H596 C606 0.950 . S
H597 C608 0.950 . S
H598 C610 0.950 . S
H599 C611 0.950 . S
C600 H592 0.950 . S
C600 C601 1.386 . S
C600 C602 1.391 . S
C601 C600 1.386 . S
C601 C605 1.393 . S
C602 H594 0.950 . S
C602 C600 1.391 . S
C602 C603 1.400 . S
C603 C602 1.400 . S
C603 C604 1.398 . S
C603 C609 1.491 . S
C604 H595 0.950 . S
C604 C603 1.398 . S
C604 C605 1.391 . S
C605 H593 0.950 . S
C605 C601 1.393 . S
C605 C604 1.391 . S
C606 H596 0.950 . S
C606 C607 1.386 . S
C606 C608 1.391 . S
C607 C606 1.386 . S
C607 C611 1.393 . S
C608 H597 0.950 . S
C608 C606 1.391 . S
C608 C609 1.400 . S
C609 C603 1.491 . S
C609 C608 1.400 . S
C609 C610 1.398 . S
C610 H598 0.950 . S
C610 C609 1.398 . S
C610 C611 1.391 . S
C611 H599 0.950 . S
C611 C607 1.393 . S
C611 C610 1.391 . S
H612 C620 0.950 . S
H613 C625 0.950 . S
H614 C622 0.950 . S
H615 C624 0.950 . S
H616 C626 0.950 . S
H617 C628 0.950 . S
H618 C630 0.950 . S
H619 C631 0.950 . S
C620 H612 0.950 . S
C620 C621 1.386 . S
C620 C622 1.391 . S
C621 C620 1.386 . S
C621 C625 1.393 . S
C622 H614 0.950 . S
C622 C620 1.391 . S
C622 C623 1.400 . S
C623 C622 1.400 . S
C623 C624 1.398 . S
C623 C629 1.491 . S
C624 H615 0.950 . S
C624 C623 1.398 . S
C624 C625 1.391 . S
C625 H613 0.950 . S
C625 C621 1.393 . S
C625 C624 1.391 . S
C626 H616 0.950 . S
C626 C627 1.386 . S
C626 C628 1.391 . S
C627 C626 1.386 . S
C627 C631 1.393 . S
C628 H617 0.950 . S
C628 C626 1.391 . S
C628 C629 1.400 . S
C629 C623 1.491 . S
C629 C628 1.400 . S
C629 C630 1.398 . S
C630 H618 0.950 . S
C630 C629 1.398 . S
C630 C631 1.391 . S
C631 H619 0.950 . S
C631 C627 1.393 . S
C631 C630 1.391 . S
H632 C640 0.950 . S
H633 C645 0.950 . S
H634 C642 0.950 . S
H635 C644 0.950 . S
H636 C646 0.950 . S
H637 C648 0.950 . S
H638 C650 0.950 . S
H639 C651 0.950 . S
C640 H632 0.950 . S
C640 C641 1.386 . S
C640 C642 1.391 . S
C641 C640 1.386 . S
C641 C645 1.393 . S
C642 H634 0.950 . S
C642 C640 1.391 . S
C642 C643 1.400 . S
C643 C642 1.400 . S
C643 C644 1.398 . S
C643 C649 1.491 . S
C644 H635 0.950 . S
C644 C643 1.398 . S
C644 C645 1.391 . S
C645 H633 0.950 . S
C645 C641 1.393 . S
C645 C644 1.391 . S
C646 H636 0.950 . S
C646 C647 1.386 . S
C646 C648 1.391 . S
C647 C646 1.386 . S
C647 C651 1.393 . S
C648 H637 0.950 . S
C648 C646 1.391 . S
C648 C649 1.400 . S
C649 C643 1.491 . S
C649 C648 1.400 . S
C649 C650 1.398 . S
C650 H638 0.950 . S
C650 C649 1.398 . S
C650 C651 1.391 . S
C651 H639 0.950 . S
C651 C647 1.393 . S
C651 C650 1.391 . S
C181 C74 1.576 . S
C187 C103 1.415 . S
C207 C127 1.431 . S
C201 C85 1.571 . S
C227 C148 1.419 . S
C221 C52 1.578 . S
C247 C166 1.397 . S
C241 C63 1.568 . S
C267 C106 1.324 1_565 S
C261 C30 1.444 1_556 S
C281 C41 1.452 1_556 S
C287 C124 1.330 . S
C301 C8 1.461 1_556 S
C307 C145 1.343 . S
C321 C19 1.468 1_556 S
C327 C169 1.317 . S
C347 C104 0.674 . S
C341 C62 0.646 . S
C367 C122 0.690 . S
C361 C73 0.644 . S
C387 C143 0.637 . S
C381 C84 0.652 . S
C401 C51 0.646 . S
C407 C167 0.683 . S
C421 C18 0.793 1_556 S
C427 C102 0.756 . S
C447 C126 0.773 . S
C441 C29 0.776 1_556 S
C467 C147 0.781 . S
C461 C40 0.738 1_556 S
C481 C7 0.748 1_556 S
C487 C165 0.782 . S
C501 C60 1.408 . S
C507 C105 1.551 . S
C521 C71 1.444 . S
C527 C123 1.576 . S
C547 C144 1.553 . S
C541 C82 1.409 . S
C567 C168 1.571 . S
C561 C49 1.445 . S
C581 C16 1.196 . S
C587 C101 1.437 . S
C607 C125 1.445 . S
C601 C27 1.164 . S
C627 C146 1.441 . S
C621 C38 1.189 . S
C641 C5 1.209 . S
C647 C164 1.432 . S
