# Generated by pormake.
# Topology gar, (4,6)-cn, num edge types: 1
# Building blocks:
#     Node 0, Type 0, BuildingBlock: UXUYUI_clean_sbu_0, # of connection points: 4
#     Node 1, Type 0, BuildingBlock: UXUYUI_clean_sbu_0, # of connection points: 4
#     Node 2, Type 0, BuildingBlock: UXUYUI_clean_sbu_0, # of connection points: 4
#     Node 3, Type 0, BuildingBlock: UXUYUI_clean_sbu_0, # of connection points: 4
#     Node 4, Type 0, BuildingBlock: UXUYUI_clean_sbu_0, # of connection points: 4
#     Node 5, Type 0, BuildingBlock: UXUYUI_clean_sbu_0, # of connection points: 4
#     Node 6, Type 0, BuildingBlock: UXUYUI_clean_sbu_0, # of connection points: 4
#     Node 7, Type 0, BuildingBlock: UXUYUI_clean_sbu_0, # of connection points: 4
#     Node 8, Type 0, BuildingBlock: UXUYUI_clean_sbu_0, # of connection points: 4
#     Node 9, Type 0, BuildingBlock: UXUYUI_clean_sbu_0, # of connection points: 4
#     Node 10, Type 0, BuildingBlock: UXUYUI_clean_sbu_0, # of connection points: 4
#     Node 11, Type 0, BuildingBlock: UXUYUI_clean_sbu_0, # of connection points: 4
#     Node 12, Type 0, BuildingBlock: UXUYUI_clean_sbu_0, # of connection points: 4
#     Node 13, Type 0, BuildingBlock: UXUYUI_clean_sbu_0, # of connection points: 4
#     Node 14, Type 0, BuildingBlock: UXUYUI_clean_sbu_0, # of connection points: 4
#     Node 15, Type 0, BuildingBlock: UXUYUI_clean_sbu_0, # of connection points: 4
#     Node 16, Type 0, BuildingBlock: UXUYUI_clean_sbu_0, # of connection points: 4
#     Node 17, Type 0, BuildingBlock: UXUYUI_clean_sbu_0, # of connection points: 4
#     Node 18, Type 0, BuildingBlock: UXUYUI_clean_sbu_0, # of connection points: 4
#     Node 19, Type 0, BuildingBlock: UXUYUI_clean_sbu_0, # of connection points: 4
#     Node 20, Type 0, BuildingBlock: UXUYUI_clean_sbu_0, # of connection points: 4
#     Node 21, Type 0, BuildingBlock: UXUYUI_clean_sbu_0, # of connection points: 4
#     Node 22, Type 0, BuildingBlock: UXUYUI_clean_sbu_0, # of connection points: 4
#     Node 23, Type 0, BuildingBlock: UXUYUI_clean_sbu_0, # of connection points: 4
#     Node 24, Type 1, BuildingBlock: HISSIN_clean_sbu_0, # of connection points: 6
#     Node 25, Type 1, BuildingBlock: HISSIN_clean_sbu_0, # of connection points: 6
#     Node 26, Type 1, BuildingBlock: HISSIN_clean_sbu_0, # of connection points: 6
#     Node 27, Type 1, BuildingBlock: HISSIN_clean_sbu_0, # of connection points: 6
#     Node 28, Type 1, BuildingBlock: HISSIN_clean_sbu_0, # of connection points: 6
#     Node 29, Type 1, BuildingBlock: HISSIN_clean_sbu_0, # of connection points: 6
#     Node 30, Type 1, BuildingBlock: HISSIN_clean_sbu_0, # of connection points: 6
#     Node 31, Type 1, BuildingBlock: HISSIN_clean_sbu_0, # of connection points: 6
#     Node 32, Type 1, BuildingBlock: HISSIN_clean_sbu_0, # of connection points: 6
#     Node 33, Type 1, BuildingBlock: HISSIN_clean_sbu_0, # of connection points: 6
#     Node 34, Type 1, BuildingBlock: HISSIN_clean_sbu_0, # of connection points: 6
#     Node 35, Type 1, BuildingBlock: HISSIN_clean_sbu_0, # of connection points: 6
#     Node 36, Type 1, BuildingBlock: HISSIN_clean_sbu_0, # of connection points: 6
#     Node 37, Type 1, BuildingBlock: HISSIN_clean_sbu_0, # of connection points: 6
#     Node 38, Type 1, BuildingBlock: HISSIN_clean_sbu_0, # of connection points: 6
#     Node 39, Type 1, BuildingBlock: HISSIN_clean_sbu_0, # of connection points: 6
#     Edge 40, Type (0, 1), BuildingBlock: AJUNOK_clean_linker_0, # of connection points: 2
#     Edge 41, Type (0, 1), BuildingBlock: AJUNOK_clean_linker_0, # of connection points: 2
#     Edge 42, Type (0, 1), BuildingBlock: AJUNOK_clean_linker_0, # of connection points: 2
#     Edge 43, Type (0, 1), BuildingBlock: AJUNOK_clean_linker_0, # of connection points: 2
#     Edge 44, Type (0, 1), BuildingBlock: AJUNOK_clean_linker_0, # of connection points: 2
#     Edge 45, Type (0, 1), BuildingBlock: AJUNOK_clean_linker_0, # of connection points: 2
#     Edge 46, Type (0, 1), BuildingBlock: AJUNOK_clean_linker_0, # of connection points: 2
#     Edge 47, Type (0, 1), BuildingBlock: AJUNOK_clean_linker_0, # of connection points: 2
#     Edge 48, Type (0, 1), BuildingBlock: AJUNOK_clean_linker_0, # of connection points: 2
#     Edge 49, Type (0, 1), BuildingBlock: AJUNOK_clean_linker_0, # of connection points: 2
#     Edge 50, Type (0, 1), BuildingBlock: AJUNOK_clean_linker_0, # of connection points: 2
#     Edge 51, Type (0, 1), BuildingBlock: AJUNOK_clean_linker_0, # of connection points: 2
#     Edge 52, Type (0, 1), BuildingBlock: AJUNOK_clean_linker_0, # of connection points: 2
#     Edge 53, Type (0, 1), BuildingBlock: AJUNOK_clean_linker_0, # of connection points: 2
#     Edge 54, Type (0, 1), BuildingBlock: AJUNOK_clean_linker_0, # of connection points: 2
#     Edge 55, Type (0, 1), BuildingBlock: AJUNOK_clean_linker_0, # of connection points: 2
#     Edge 56, Type (0, 1), BuildingBlock: AJUNOK_clean_linker_0, # of connection points: 2
#     Edge 57, Type (0, 1), BuildingBlock: AJUNOK_clean_linker_0, # of connection points: 2
#     Edge 58, Type (0, 1), BuildingBlock: AJUNOK_clean_linker_0, # of connection points: 2
#     Edge 59, Type (0, 1), BuildingBlock: AJUNOK_clean_linker_0, # of connection points: 2
#     Edge 60, Type (0, 1), BuildingBlock: AJUNOK_clean_linker_0, # of connection points: 2
#     Edge 61, Type (0, 1), BuildingBlock: AJUNOK_clean_linker_0, # of connection points: 2
#     Edge 62, Type (0, 1), BuildingBlock: AJUNOK_clean_linker_0, # of connection points: 2
#     Edge 63, Type (0, 1), BuildingBlock: AJUNOK_clean_linker_0, # of connection points: 2
#     Edge 64, Type (0, 1), BuildingBlock: AJUNOK_clean_linker_0, # of connection points: 2
#     Edge 65, Type (0, 1), BuildingBlock: AJUNOK_clean_linker_0, # of connection points: 2
#     Edge 66, Type (0, 1), BuildingBlock: AJUNOK_clean_linker_0, # of connection points: 2
#     Edge 67, Type (0, 1), BuildingBlock: AJUNOK_clean_linker_0, # of connection points: 2
#     Edge 68, Type (0, 1), BuildingBlock: AJUNOK_clean_linker_0, # of connection points: 2
#     Edge 69, Type (0, 1), BuildingBlock: AJUNOK_clean_linker_0, # of connection points: 2
#     Edge 70, Type (0, 1), BuildingBlock: AJUNOK_clean_linker_0, # of connection points: 2
#     Edge 71, Type (0, 1), BuildingBlock: AJUNOK_clean_linker_0, # of connection points: 2
#     Edge 72, Type (0, 1), BuildingBlock: AJUNOK_clean_linker_0, # of connection points: 2
#     Edge 73, Type (0, 1), BuildingBlock: AJUNOK_clean_linker_0, # of connection points: 2
#     Edge 74, Type (0, 1), BuildingBlock: AJUNOK_clean_linker_0, # of connection points: 2
#     Edge 75, Type (0, 1), BuildingBlock: AJUNOK_clean_linker_0, # of connection points: 2
#     Edge 76, Type (0, 1), BuildingBlock: AJUNOK_clean_linker_0, # of connection points: 2
#     Edge 77, Type (0, 1), BuildingBlock: AJUNOK_clean_linker_0, # of connection points: 2
#     Edge 78, Type (0, 1), BuildingBlock: AJUNOK_clean_linker_0, # of connection points: 2
#     Edge 79, Type (0, 1), BuildingBlock: AJUNOK_clean_linker_0, # of connection points: 2
#     Edge 80, Type (0, 1), BuildingBlock: AJUNOK_clean_linker_0, # of connection points: 2
#     Edge 81, Type (0, 1), BuildingBlock: AJUNOK_clean_linker_0, # of connection points: 2
#     Edge 82, Type (0, 1), BuildingBlock: AJUNOK_clean_linker_0, # of connection points: 2
#     Edge 83, Type (0, 1), BuildingBlock: AJUNOK_clean_linker_0, # of connection points: 2
#     Edge 84, Type (0, 1), BuildingBlock: AJUNOK_clean_linker_0, # of connection points: 2
#     Edge 85, Type (0, 1), BuildingBlock: AJUNOK_clean_linker_0, # of connection points: 2
#     Edge 86, Type (0, 1), BuildingBlock: AJUNOK_clean_linker_0, # of connection points: 2
#     Edge 87, Type (0, 1), BuildingBlock: AJUNOK_clean_linker_0, # of connection points: 2
#     Edge 88, Type (0, 1), BuildingBlock: AJUNOK_clean_linker_0, # of connection points: 2
#     Edge 89, Type (0, 1), BuildingBlock: AJUNOK_clean_linker_0, # of connection points: 2
#     Edge 90, Type (0, 1), BuildingBlock: AJUNOK_clean_linker_0, # of connection points: 2
#     Edge 91, Type (0, 1), BuildingBlock: AJUNOK_clean_linker_0, # of connection points: 2
#     Edge 92, Type (0, 1), BuildingBlock: AJUNOK_clean_linker_0, # of connection points: 2
#     Edge 93, Type (0, 1), BuildingBlock: AJUNOK_clean_linker_0, # of connection points: 2
#     Edge 94, Type (0, 1), BuildingBlock: AJUNOK_clean_linker_0, # of connection points: 2
#     Edge 95, Type (0, 1), BuildingBlock: AJUNOK_clean_linker_0, # of connection points: 2
#     Edge 96, Type (0, 1), BuildingBlock: AJUNOK_clean_linker_0, # of connection points: 2
#     Edge 97, Type (0, 1), BuildingBlock: AJUNOK_clean_linker_0, # of connection points: 2
#     Edge 98, Type (0, 1), BuildingBlock: AJUNOK_clean_linker_0, # of connection points: 2
#     Edge 99, Type (0, 1), BuildingBlock: AJUNOK_clean_linker_0, # of connection points: 2
#     Edge 100, Type (0, 1), BuildingBlock: AJUNOK_clean_linker_0, # of connection points: 2
#     Edge 101, Type (0, 1), BuildingBlock: AJUNOK_clean_linker_0, # of connection points: 2
#     Edge 102, Type (0, 1), BuildingBlock: AJUNOK_clean_linker_0, # of connection points: 2
#     Edge 103, Type (0, 1), BuildingBlock: AJUNOK_clean_linker_0, # of connection points: 2
#     Edge 104, Type (0, 1), BuildingBlock: AJUNOK_clean_linker_0, # of connection points: 2
#     Edge 105, Type (0, 1), BuildingBlock: AJUNOK_clean_linker_0, # of connection points: 2
#     Edge 106, Type (0, 1), BuildingBlock: AJUNOK_clean_linker_0, # of connection points: 2
#     Edge 107, Type (0, 1), BuildingBlock: AJUNOK_clean_linker_0, # of connection points: 2
#     Edge 108, Type (0, 1), BuildingBlock: AJUNOK_clean_linker_0, # of connection points: 2
#     Edge 109, Type (0, 1), BuildingBlock: AJUNOK_clean_linker_0, # of connection points: 2
#     Edge 110, Type (0, 1), BuildingBlock: AJUNOK_clean_linker_0, # of connection points: 2
#     Edge 111, Type (0, 1), BuildingBlock: AJUNOK_clean_linker_0, # of connection points: 2
#     Edge 112, Type (0, 1), BuildingBlock: AJUNOK_clean_linker_0, # of connection points: 2
#     Edge 113, Type (0, 1), BuildingBlock: AJUNOK_clean_linker_0, # of connection points: 2
#     Edge 114, Type (0, 1), BuildingBlock: AJUNOK_clean_linker_0, # of connection points: 2
#     Edge 115, Type (0, 1), BuildingBlock: AJUNOK_clean_linker_0, # of connection points: 2
#     Edge 116, Type (0, 1), BuildingBlock: AJUNOK_clean_linker_0, # of connection points: 2
#     Edge 117, Type (0, 1), BuildingBlock: AJUNOK_clean_linker_0, # of connection points: 2
#     Edge 118, Type (0, 1), BuildingBlock: AJUNOK_clean_linker_0, # of connection points: 2
#     Edge 119, Type (0, 1), BuildingBlock: AJUNOK_clean_linker_0, # of connection points: 2
#     Edge 120, Type (0, 1), BuildingBlock: AJUNOK_clean_linker_0, # of connection points: 2
#     Edge 121, Type (0, 1), BuildingBlock: AJUNOK_clean_linker_0, # of connection points: 2
#     Edge 122, Type (0, 1), BuildingBlock: AJUNOK_clean_linker_0, # of connection points: 2
#     Edge 123, Type (0, 1), BuildingBlock: AJUNOK_clean_linker_0, # of connection points: 2
#     Edge 124, Type (0, 1), BuildingBlock: AJUNOK_clean_linker_0, # of connection points: 2
#     Edge 125, Type (0, 1), BuildingBlock: AJUNOK_clean_linker_0, # of connection points: 2
#     Edge 126, Type (0, 1), BuildingBlock: AJUNOK_clean_linker_0, # of connection points: 2
#     Edge 127, Type (0, 1), BuildingBlock: AJUNOK_clean_linker_0, # of connection points: 2
#     Edge 128, Type (0, 1), BuildingBlock: AJUNOK_clean_linker_0, # of connection points: 2
#     Edge 129, Type (0, 1), BuildingBlock: AJUNOK_clean_linker_0, # of connection points: 2
#     Edge 130, Type (0, 1), BuildingBlock: AJUNOK_clean_linker_0, # of connection points: 2
#     Edge 131, Type (0, 1), BuildingBlock: AJUNOK_clean_linker_0, # of connection points: 2
#     Edge 132, Type (0, 1), BuildingBlock: AJUNOK_clean_linker_0, # of connection points: 2
#     Edge 133, Type (0, 1), BuildingBlock: AJUNOK_clean_linker_0, # of connection points: 2
#     Edge 134, Type (0, 1), BuildingBlock: AJUNOK_clean_linker_0, # of connection points: 2
#     Edge 135, Type (0, 1), BuildingBlock: AJUNOK_clean_linker_0, # of connection points: 2
# Relax obj value: 0.214
# Max RMSD: 0.289
# Mean RMSD: 0.189
data_MOF--net-gar--node1-UXUYUI_clean_sbu_0--node2-HISSIN_clean_sbu_0--edge1-AJUNOK_clean_linker_0
_symmetry_space_group_name_H-M    P1
_symmetry_Int_Tables_number       1
_symmetry_cell_setting            triclinic
loop_
_symmetry_equiv_pos_as_xyz
'x, y, z'
_cell_length_a     58.434212
_cell_length_b     58.386921
_cell_length_c     56.45312
_cell_angle_alpha  100.71362
_cell_angle_beta   93.296451
_cell_angle_gamma 100.98652
loop_
_atom_site_label
_atom_site_type_symbol
_atom_site_fract_x
_atom_site_fract_y
_atom_site_fract_z
_atom_type_partial_charge
Li0 Li 0.09082 0.31383 0.38462 0.0
Li1 Li 0.10847 0.34459 0.41687 0.0
Li2 Li 0.13275 0.32384 0.39057 0.0
Li3 Li 0.10809 0.30383 0.42063 0.0
C4 C 0.10145 0.35206 0.36426 0.0
N5 N 0.08009 0.36785 0.32719 0.0
C6 C 0.08088 0.36072 0.3675 0.0
C7 C 0.11125 0.35162 0.3422 0.0
C8 C 0.07032 0.36856 0.34853 0.0
C9 C 0.10016 0.35965 0.32368 0.0
C10 C 0.06801 0.32811 0.43474 0.0
C11 C 0.05714 0.33414 0.47571 0.0
N12 N 0.04147 0.34697 0.46941 0.0
C13 C 0.05162 0.34118 0.42865 0.0
C14 C 0.0707 0.32444 0.45845 0.0
C15 C 0.03846 0.35065 0.44645 0.0
C16 C 0.04344 0.30074 0.3691 0.0
N17 N 0.06483 0.30393 0.36059 0.0
C18 C 0.04793 0.30463 0.32129 0.0
C19 C 0.06724 0.30419 0.33679 0.0
C20 C 0.02619 0.30445 0.33055 0.0
C21 C 0.02368 0.30085 0.35423 0.0
H22 H 0.04194 0.29991 0.38791 0.0
H23 H 0.08441 0.30625 0.33035 0.0
C24 C 0.10969 0.39355 0.42107 0.0
N25 N 0.10705 0.3758 0.43389 0.0
C26 C 0.10613 0.41604 0.43139 0.0
C27 C 0.09917 0.40225 0.46865 0.0
C28 C 0.10267 0.37997 0.45753 0.0
C29 C 0.10048 0.42041 0.45533 0.0
H30 H 0.11429 0.39025 0.40271 0.0
H31 H 0.10155 0.36597 0.4677 0.0
C32 C 0.10263 0.27399 0.3662 0.0
N33 N 0.08197 0.23945 0.32648 0.0
C34 C 0.08381 0.25612 0.36869 0.0
C35 C 0.11102 0.27424 0.34354 0.0
C36 C 0.07357 0.23884 0.34838 0.0
C37 C 0.10034 0.25662 0.32368 0.0
C38 C 0.14679 0.34918 0.44532 0.0
C39 C 0.1608 0.36939 0.43987 0.0
C40 C 0.14374 0.34791 0.46944 0.0
C41 C 0.17136 0.38819 0.45873 0.0
C42 C 0.15465 0.36708 0.48779 0.0
N43 N 0.16809 0.38666 0.4821 0.0
C44 C 0.16885 0.34755 0.36809 0.0
C45 C 0.16958 0.30714 0.36863 0.0
C46 C 0.18691 0.34888 0.35294 0.0
N47 N 0.16028 0.32672 0.375 0.0
C48 C 0.18762 0.30767 0.35355 0.0
C49 C 0.19605 0.32856 0.34507 0.0
H50 H 0.16091 0.36277 0.37343 0.0
H51 H 0.16228 0.29084 0.37441 0.0
C52 C 0.08271 0.26768 0.43944 0.0
N53 N 0.10471 0.28087 0.44052 0.0
C54 C 0.07785 0.25081 0.45391 0.0
C55 C 0.11849 0.26116 0.47027 0.0
C56 C 0.12258 0.27794 0.45543 0.0
C57 C 0.09583 0.24741 0.46962 0.0
H58 H 0.06883 0.27059 0.42755 0.0
H59 H 0.13989 0.2888 0.45597 0.0
O60 O 0.11201 0.3442 0.38263 0.0
O61 O 0.08104 0.31866 0.41751 0.0
O62 O 0.11263 0.2913 0.38579 0.0
O63 O 0.13596 0.3308 0.42709 0.0
H64 H 0.07314 0.36132 0.38446 0.0
H65 H 0.12701 0.34479 0.33923 0.0
H66 H 0.05435 0.37519 0.35078 0.0
H67 H 0.10747 0.35925 0.30646 0.0
H68 H 0.0592 0.3316 0.49415 0.0
H69 H 0.04902 0.34395 0.41037 0.0
H70 H 0.08347 0.3147 0.46368 0.0
H71 H 0.02581 0.36089 0.44199 0.0
H72 H 0.05036 0.30718 0.30301 0.0
H73 H 1.00694 0.30003 0.36169 0.0
H74 H 0.10774 0.42986 0.4208 0.0
H75 H 0.09493 0.40509 0.48726 0.0
H76 H 0.07705 0.25571 0.38606 0.0
H77 H 0.12537 0.28811 0.34121 0.0
H78 H 0.05892 0.22497 0.35001 0.0
H79 H 0.10656 0.25668 0.306 0.0
H80 H 0.16325 0.37063 0.42126 0.0
H81 H 0.13285 0.33242 0.47392 0.0
H82 H 0.18212 0.40403 0.45479 0.0
H83 H 0.15235 0.36643 0.50655 0.0
H84 H 0.19291 0.36521 0.34662 0.0
H85 H 0.19451 0.29173 0.34804 0.0
H86 H 0.0602 0.24047 0.45279 0.0
H87 H 0.13273 0.25925 0.48241 0.0
Li88 Li 0.01514 0.7923 0.63628 0.0
Li89 Li 0.03261 0.78132 0.67029 0.0
Li90 Li 0.01518 0.75059 0.63733 0.0
Li91 Li 0.99111 0.7719 0.66523 0.0
C92 C 0.04958 0.77374 0.61426 0.0
N93 N 0.0643 0.76796 0.56822 0.0
C94 C 0.07341 0.77937 0.6111 0.0
C95 C 0.03324 0.76523 0.59391 0.0
C96 C 0.0805 0.77632 0.58771 0.0
C97 C 0.04103 0.76241 0.57082 0.0
C98 C 0.02082 0.82254 0.68935 0.0
C99 C 0.01993 0.84515 0.72953 0.0
N100 N 0.04033 0.85985 0.72708 0.0
C101 C 0.04167 0.83797 0.68715 0.0
C102 C 1.00976 0.8262 0.71064 0.0
C103 C 0.05131 0.85668 0.70647 0.0
C104 C 1.0 0.81822 0.60172 0.0
N105 N 0.01813 0.81538 0.61634 0.0
C106 C 0.04476 0.84466 0.60161 0.0
C107 C 0.04015 0.82829 0.61666 0.0
C108 C 0.02652 0.84789 0.58613 0.0
C109 C 1.00383 0.83457 0.58635 0.0
H110 H 0.98269 0.80759 0.60175 0.0
H111 H 0.05427 0.82554 0.62832 0.0
C112 C 0.07924 0.78497 0.68587 0.0
N113 N 0.05892 0.7897 0.69414 0.0
C114 C 0.09875 0.78704 0.70204 0.0
C115 C 0.07631 0.79924 0.73506 0.0
C116 C 0.05725 0.79718 0.71818 0.0
C117 C 0.09718 0.79369 0.72697 0.0
H118 H 0.07996 0.77852 0.66678 0.0
H119 H 0.04082 0.80033 0.72446 0.0
C120 C 0.96789 0.7485 0.61833 0.0
N121 N 0.92743 0.71619 0.59819 0.0
C122 C 0.95816 0.73062 0.63033 0.0
C123 C 0.95709 0.74993 0.59607 0.0
C124 C 0.93767 0.71448 0.61987 0.0
C125 C 0.93665 0.73341 0.58617 0.0
C126 C 0.02151 0.74482 0.69193 0.0
C127 C 0.0384 0.73071 0.68984 0.0
C128 C 0.01484 0.7532 0.71482 0.0
C129 C 0.04849 0.72541 0.71067 0.0
C130 C 0.02527 0.74742 0.73521 0.0
N131 N 0.04176 0.73379 0.73274 0.0
C132 C 0.04166 0.71765 0.62253 0.0
C133 C 1.00217 0.70361 0.60593 0.0
C134 C 0.04743 0.69624 0.61207 0.0
N135 N 0.01931 0.72084 0.61963 0.0
C136 C 1.00714 0.68176 0.59527 0.0
C137 C 0.02996 0.6779 0.59859 0.0
H138 H 0.05499 0.7317 0.63338 0.0
H139 H 0.98468 0.70658 0.60326 0.0
C140 C 0.95194 0.78747 0.68332 0.0
N141 N 0.9637 0.76941 0.68155 0.0
C142 C 0.93385 0.78815 0.69831 0.0
C143 C 0.93967 0.75107 0.70849 0.0
C144 C 0.95757 0.75105 0.69319 0.0
C145 C 0.92795 0.77008 0.71157 0.0
H146 H 0.95729 0.80183 0.67387 0.0
H147 H 0.96725 0.73689 0.69142 0.0
O148 O 0.0425 0.77681 0.63719 0.0
O149 O 1.01107 0.80413 0.67065 0.0
O150 O 0.98766 0.76484 0.62842 0.0
O151 O 1.01161 0.75045 0.67173 0.0
H152 H 0.08633 0.78614 0.62657 0.0
H153 H 0.01474 0.76078 0.59578 0.0
H154 H 0.09889 0.78062 0.58504 0.0
H155 H 0.02856 0.75582 0.55497 0.0
H156 H 1.01164 0.84812 0.74616 0.0
H157 H 0.05048 0.83534 0.67085 0.0
H158 H 0.99364 0.8144 0.71267 0.0
H159 H 0.06754 0.86865 0.7051 0.0
H160 H 0.06245 0.8547 0.60207 0.0
H161 H 0.98937 0.8364 0.57444 0.0
H162 H 0.11455 0.78231 0.69523 0.0
H163 H 0.07455 0.80438 0.75421 0.0
H164 H 0.96665 0.72885 0.64719 0.0
H165 H 0.96443 0.76364 0.58653 0.0
H166 H 0.93001 0.70049 0.62892 0.0
H167 H 0.92811 0.73429 0.56894 0.0
H168 H 0.04379 0.72399 0.67238 0.0
H169 H 1.00223 0.76461 0.71695 0.0
H170 H 0.06168 0.71462 0.7093 0.0
H171 H 0.02041 0.75398 0.75303 0.0
H172 H 0.06526 0.69386 0.61488 0.0
H173 H 0.99337 0.66809 0.58448 0.0
H174 H 0.92499 0.80299 0.70006 0.0
H175 H 0.93579 0.73697 0.7186 0.0
Li176 Li 0.59445 0.82025 0.89148 0.0
Li177 Li 0.61959 0.84926 0.92246 0.0
Li178 Li 0.6351 0.82106 0.89593 0.0
Li179 Li 0.61089 0.80807 0.92809 0.0
C180 C 0.63519 0.85599 0.87331 0.0
N181 N 0.66755 0.87538 0.8449 0.0
C182 C 0.65311 0.87541 0.88364 0.0
C183 C 0.63362 0.84655 0.84848 0.0
C184 C 0.6693 0.88495 0.86897 0.0
C185 C 0.6502 0.85655 0.83445 0.0
C186 C 0.57767 0.84376 0.93989 0.0
C187 C 0.57006 0.86288 0.97947 0.0
N188 N 0.55627 0.87526 0.96895 0.0
C189 C 0.56329 0.85652 0.92945 0.0
C190 C 0.58102 0.84684 0.96508 0.0
C191 C 0.55268 0.87242 0.94446 0.0
C192 C 0.54695 0.80251 0.87325 0.0
N193 N 0.56733 0.81723 0.8708 0.0
C194 C 0.54819 0.83429 0.84221 0.0
C195 C 0.56836 0.83276 0.85554 0.0
C196 C 0.52687 0.81979 0.84481 0.0
C197 C 0.5263 0.8033 0.86003 0.0
H198 H 0.54664 0.79082 0.88607 0.0
H199 H 0.58463 0.84474 0.85455 0.0
C200 C 0.62492 0.89046 0.96173 0.0
N201 N 0.62062 0.88169 0.93749 0.0
C202 C 0.6197 0.91239 0.97167 0.0
C203 C 0.60617 0.91609 0.93157 0.0
C204 C 0.61185 0.89425 0.92239 0.0
C205 C 0.6096 0.92515 0.95657 0.0
H206 H 0.63077 0.87982 0.97361 0.0
H207 H 0.60762 0.88652 0.90335 0.0
C208 C 0.59308 0.77444 0.87876 0.0
N209 N 0.55959 0.73835 0.8504 0.0
C210 C 0.58079 0.75626 0.88892 0.0
C211 C 0.58846 0.77411 0.85409 0.0
C212 C 0.5639 0.73821 0.8743 0.0
C213 C 0.57141 0.75577 0.84009 0.0
C214 C 0.65447 0.84443 0.95263 0.0
C215 C 0.67185 0.86403 0.95105 0.0
C216 C 0.64977 0.83941 0.97535 0.0
C217 C 0.68414 0.8784 0.97226 0.0
C218 C 0.66249 0.85418 0.99613 0.0
N219 N 0.67925 0.87322 0.99417 0.0
C220 C 0.68177 0.8297 0.8831 0.0
C221 C 0.65454 0.79963 0.85593 0.0
C222 C 0.69874 0.82847 0.86678 0.0
N223 N 0.66007 0.81567 0.8772 0.0
C224 C 0.67082 0.79802 0.83896 0.0
C225 C 0.69318 0.81272 0.84422 0.0
H226 H 0.68559 0.84247 0.90002 0.0
H227 H 0.63714 0.78886 0.85165 0.0
C228 C 0.58192 0.78318 0.95628 0.0
N229 N 0.60399 0.78674 0.94935 0.0
C230 C 0.57481 0.766 0.96996 0.0
C231 C 0.61344 0.75677 0.96956 0.0
C232 C 0.61983 0.77417 0.95582 0.0
C233 C 0.59051 0.75224 0.97633 0.0
H234 H 0.56961 0.7932 0.95055 0.0
H235 H 0.63719 0.77726 0.94979 0.0
O236 O 0.61949 0.84601 0.88749 0.0
O237 O 0.58872 0.8286 0.92552 0.0
O238 O 0.60972 0.79227 0.89283 0.0
O239 O 0.64247 0.82993 0.93207 0.0
H240 H 0.65464 0.88293 0.9028 0.0
H241 H 0.62 0.83137 0.84022 0.0
H242 H 0.68332 0.89991 0.87675 0.0
H243 H 0.64934 0.84927 0.81527 0.0
H244 H 0.57263 0.8656 0.999 0.0
H245 H 0.5606 0.8544 0.90997 0.0
H246 H 0.59224 0.83721 0.97343 0.0
H247 H 0.54167 0.88257 0.93665 0.0
H248 H 0.54906 0.84722 0.83061 0.0
H249 H 0.50995 0.79206 0.86251 0.0
H250 H 0.62247 0.91874 0.9911 0.0
H251 H 0.59777 0.92495 0.91938 0.0
H252 H 0.58428 0.75597 0.90785 0.0
H253 H 0.5975 0.78818 0.84592 0.0
H254 H 0.55424 0.72407 0.88195 0.0
H255 H 0.56751 0.75546 0.82105 0.0
H256 H 0.6757 0.86823 0.93367 0.0
H257 H 0.63638 0.82438 0.97696 0.0
H258 H 0.69755 0.89369 0.9713 0.0
H259 H 0.65899 0.85055 1.01382 0.0
H260 H 0.7159 0.83994 0.87159 0.0
H261 H 0.66568 0.78596 0.82164 0.0
H262 H 0.55707 0.7632 0.97512 0.0
H263 H 0.62597 0.7464 0.97411 0.0
Li264 Li 0.51625 0.28855 0.13116 0.0
Li265 Li 0.53101 0.27494 0.16804 0.0
Li266 Li 0.50951 0.24704 0.1337 0.0
Li267 Li 0.48922 0.2713 0.16009 0.0
C268 C 0.55206 0.25624 0.11948 0.0
N269 N 0.57516 0.22799 0.08859 0.0
C270 C 0.56578 0.2421 0.12862 0.0
C271 C 0.55021 0.25615 0.09466 0.0
C272 C 0.57725 0.22787 0.11268 0.0
C273 C 0.56204 0.24175 0.07934 0.0
C274 C 0.52534 0.32069 0.18314 0.0
C275 C 0.53417 0.3426 0.22436 0.0
N276 N 0.54902 0.36003 0.21666 0.0
C277 C 0.54055 0.33892 0.17561 0.0
C278 C 0.52196 0.32263 0.20769 0.0
C279 C 0.55239 0.35864 0.19283 0.0
C280 C 0.50627 0.3217 0.1028 0.0
N281 N 0.52318 0.31153 0.11153 0.0
C282 C 0.55242 0.33504 0.09328 0.0
C283 C 0.54587 0.31777 0.10701 0.0
C284 C 0.53549 0.34623 0.08437 0.0
C285 C 0.51208 0.33919 0.08902 0.0
H286 H 0.48836 0.31639 0.10676 0.0
H287 H 0.55896 0.30946 0.11431 0.0
C288 C 0.55763 0.25667 0.1978 0.0
N289 N 0.5561 0.27783 0.19177 0.0
C290 C 0.57629 0.25498 0.21324 0.0
C291 C 0.59175 0.29701 0.21626 0.0
C292 C 0.5726 0.29792 0.20068 0.0
C293 C 0.59386 0.27517 0.22215 0.0
H294 H 0.54484 0.24078 0.18979 0.0
H295 H 0.57151 0.31434 0.19498 0.0
C296 C 0.47351 0.24901 0.10432 0.0
N297 N 0.44883 0.21654 0.06499 0.0
C298 C 0.45928 0.22797 0.10769 0.0
C299 C 0.4751 0.25364 0.08099 0.0
C300 C 0.44699 0.21173 0.08756 0.0
C301 C 0.46247 0.23698 0.06133 0.0
C302 C 0.49691 0.23847 0.18677 0.0
C303 C 0.48286 0.2156 0.18283 0.0
C304 C 0.50141 0.25223 0.21024 0.0
C305 C 0.47337 0.207 0.2024 0.0
C306 C 0.49159 0.243 0.22933 0.0
N307 N 0.47788 0.22077 0.22505 0.0
C308 C 0.51568 0.20106 0.13129 0.0
C309 C 0.50877 0.20903 0.09212 0.0
C310 C 0.52019 0.17889 0.12145 0.0
N311 N 0.5101 0.21564 0.11666 0.0
C312 C 0.51354 0.18706 0.08147 0.0
C313 C 0.51949 0.17188 0.09631 0.0
H314 H 0.51796 0.20715 0.15068 0.0
H315 H 0.50531 0.22125 0.08083 0.0
C316 C 0.46002 0.29398 0.19052 0.0
N317 N 0.46225 0.27297 0.17674 0.0
C318 C 0.44251 0.29454 0.20631 0.0
C319 C 0.42991 0.2519 0.19314 0.0
C320 C 0.44711 0.25231 0.1771 0.0
C321 C 0.42762 0.27316 0.20831 0.0
H322 H 0.4721 0.31022 0.18959 0.0
H323 H 0.449 0.23593 0.16566 0.0
O324 O 0.54018 0.26979 0.13469 0.0
O325 O 0.5135 0.30131 0.16651 0.0
O326 O 0.48559 0.26518 0.12377 0.0
O327 O 0.50622 0.24727 0.16775 0.0
H328 H 0.56733 0.2419 0.14776 0.0
H329 H 0.53942 0.26675 0.08724 0.0
H330 H 0.58777 0.21669 0.11947 0.0
H331 H 0.56063 0.24137 0.06008 0.0
H332 H 0.53179 0.34426 0.24343 0.0
H333 H 0.54328 0.33785 0.15671 0.0
H334 H 0.50997 0.30895 0.21384 0.0
H335 H 0.56429 0.37282 0.18726 0.0
H336 H 0.57056 0.3396 0.08968 0.0
H337 H 0.49853 0.34744 0.08247 0.0
H338 H 0.57753 0.23782 0.21736 0.0
H339 H 0.60532 0.31282 0.22258 0.0
H340 H 0.45802 0.22405 0.1256 0.0
H341 H 0.48603 0.26987 0.0781 0.0
H342 H 0.43605 0.19529 0.08987 0.0
H343 H 0.46357 0.24028 0.04315 0.0
H344 H 0.47895 0.20475 0.16476 0.0
H345 H 0.51244 0.2698 0.21368 0.0
H346 H 0.46233 0.18941 0.19956 0.0
H347 H 0.4949 0.25349 0.24757 0.0
H348 H 0.5254 0.16789 0.13341 0.0
H349 H 0.51325 0.18227 0.06196 0.0
H350 H 0.44072 0.31152 0.21678 0.0
H351 H 0.4188 0.235 0.19392 0.0
Li352 Li 0.1043 0.81029 0.11818 0.0
Li353 Li 0.1249 0.79882 0.15196 0.0
Li354 Li 0.10474 0.76974 0.11824 0.0
Li355 Li 0.08278 0.78975 0.14706 0.0
C356 C 0.14654 0.78516 0.10334 0.0
N357 N 0.17534 0.76274 0.07401 0.0
C358 C 0.16841 0.78295 0.11295 0.0
C359 C 0.13949 0.77629 0.07871 0.0
C360 C 0.18268 0.77149 0.09785 0.0
C361 C 0.15423 0.76491 0.06422 0.0
C362 C 0.10218 0.8327 0.17735 0.0
C363 C 0.1021 0.83133 0.2198 0.0
N364 N 0.09871 0.85408 0.2246 0.0
C365 C 0.09864 0.85604 0.1827 0.0
C366 C 0.10388 0.82021 0.19603 0.0
C367 C 0.09697 0.86655 0.20671 0.0
C368 C 0.08688 0.8458 0.1015 0.0
N369 N 0.10358 0.83252 0.09857 0.0
C370 C 0.11532 0.84783 0.06385 0.0
C371 C 0.11803 0.83354 0.0806 0.0
C372 C 0.09792 0.86132 0.06621 0.0
C373 C 0.08382 0.86062 0.08543 0.0
H374 H 0.07557 0.84432 0.11589 0.0
H375 H 0.13112 0.82271 0.07881 0.0
C376 C 0.15953 0.78683 0.17814 0.0
N377 N 0.15085 0.80601 0.17463 0.0
C378 C 0.17871 0.78969 0.19485 0.0
C379 C 0.17931 0.83202 0.20444 0.0
C380 C 0.16022 0.82836 0.1872 0.0
C381 C 0.18885 0.81251 0.20818 0.0
H382 H 0.15169 0.76936 0.16759 0.0
H383 H 0.15282 0.84324 0.18394 0.0
C384 C 0.06149 0.77717 0.09193 0.0
N385 N 0.02918 0.76402 0.0516 0.0
C386 C 0.03826 0.7667 0.09394 0.0
C387 C 0.06826 0.78092 0.06938 0.0
C388 C 0.0222 0.76016 0.07334 0.0
C389 C 0.05167 0.77418 0.04922 0.0
C390 C 0.09251 0.7464 0.1554 0.0
C391 C 0.07086 0.73598 0.14222 0.0
C392 C 0.10245 0.73404 0.17084 0.0
C393 C 0.0595 0.71336 0.14471 0.0
C394 C 0.09055 0.71144 0.17283 0.0
N395 N 0.0695 0.70165 0.15983 0.0
C396 C 0.12412 0.72986 0.10513 0.0
C397 C 0.08744 0.72735 0.08346 0.0
C398 C 0.12496 0.70682 0.09364 0.0
N399 N 0.10561 0.73962 0.09976 0.0
C400 C 0.08726 0.7041 0.07201 0.0
C401 C 0.10605 0.69347 0.0773 0.0
H402 H 0.13798 0.73982 0.11875 0.0
H403 H 0.07259 0.7351 0.08004 0.0
C404 C 0.0385 0.79807 0.15599 0.0
N405 N 0.05589 0.78796 0.1637 0.0
C406 C 0.01844 0.79784 0.1682 0.0
C407 C 0.0349 0.77717 0.19623 0.0
C408 C 0.05459 0.77778 0.18348 0.0
C409 C 0.01655 0.78723 0.18854 0.0
H410 H 0.04038 0.80647 0.14047 0.0
H411 H 0.06895 0.77042 0.18958 0.0
O412 O 0.13228 0.7962 0.11793 0.0
O413 O 0.10345 0.82209 0.15384 0.0
O414 O 0.0774 0.78358 0.11197 0.0
O415 O 0.10428 0.76833 0.15288 0.0
H416 H 0.17435 0.79004 0.13184 0.0
H417 H 0.12264 0.77781 0.07095 0.0
H418 H 0.19961 0.76956 0.10508 0.0
H419 H 0.14887 0.75774 0.0452 0.0
H420 H 0.10338 0.82187 0.23441 0.0
H421 H 0.09716 0.86589 0.16842 0.0
H422 H 0.10653 0.80211 0.19227 0.0
H423 H 0.09424 0.88461 0.21112 0.0
H424 H 0.12638 0.84812 0.04912 0.0
H425 H 0.07017 0.87087 0.0875 0.0
H426 H 0.18583 0.77428 0.197 0.0
H427 H 0.1865 0.84982 0.21467 0.0
H428 H 0.0327 0.76347 0.11118 0.0
H429 H 0.08612 0.78885 0.0674 0.0
H430 H 1.00419 0.752 0.07465 0.0
H431 H 0.05669 0.777 0.03167 0.0
H432 H 0.06292 0.74519 0.13013 0.0
H433 H 0.11921 0.7418 0.18116 0.0
H434 H 0.04276 0.70509 0.13458 0.0
H435 H 0.09805 0.70166 0.1847 0.0
H436 H 0.13993 0.69939 0.09793 0.0
H437 H 0.07209 0.69424 0.05991 0.0
H438 H 1.00479 0.80622 0.16212 0.0
H439 H 0.03399 0.76892 0.21192 0.0
Li440 Li 0.52149 0.82527 0.4384 0.0
Li441 Li 0.50089 0.79236 0.40737 0.0
Li442 Li 0.52244 0.78552 0.44276 0.0
Li443 Li 0.54207 0.80144 0.41083 0.0
C444 C 0.48034 0.79105 0.457 0.0
N445 N 0.45129 0.77095 0.48786 0.0
C446 C 0.46041 0.77355 0.44762 0.0
C447 C 0.48549 0.79831 0.48208 0.0
C448 C 0.44593 0.76363 0.46353 0.0
C449 C 0.4706 0.78791 0.49738 0.0
C450 C 0.50823 0.83002 0.38679 0.0
C451 C 0.4925 0.8278 0.34575 0.0
N452 N 0.47994 0.84451 0.35396 0.0
C453 C 0.4952 0.84723 0.3948 0.0
C454 C 0.50693 0.82028 0.36204 0.0
C455 C 0.48101 0.85431 0.37792 0.0
C456 C 0.53887 0.87349 0.44998 0.0
N457 N 0.5221 0.8561 0.45514 0.0
C458 C 0.50963 0.88369 0.48578 0.0
C459 C 0.50719 0.8607 0.47218 0.0
C460 C 0.52766 0.90162 0.48166 0.0
C461 C 0.54215 0.89655 0.46331 0.0
H462 H 0.55003 0.86923 0.43587 0.0
H463 H 0.49366 0.84654 0.47541 0.0
C464 C 0.47219 0.76874 0.36384 0.0
N465 N 0.47379 0.78338 0.38588 0.0
C466 C 0.45299 0.76652 0.34706 0.0
C467 C 0.4373 0.79354 0.37668 0.0
C468 C 0.45679 0.79544 0.39265 0.0
C469 C 0.43552 0.7793 0.3535 0.0
H470 H 0.4862 0.75966 0.35893 0.0
H471 H 0.45894 0.80735 0.41011 0.0
C472 C 0.56361 0.8305 0.46143 0.0
N473 N 0.59185 0.86897 0.49252 0.0
C474 C 0.58288 0.8439 0.45321 0.0
C475 C 0.55886 0.83651 0.48554 0.0
C476 C 0.59693 0.86331 0.46921 0.0
C477 C 0.57328 0.85609 0.50094 0.0
C478 C 0.53444 0.75539 0.3956 0.0
C479 C 0.54653 0.74149 0.40724 0.0
C480 C 0.53655 0.7555 0.37107 0.0
C481 C 0.56078 0.7281 0.39416 0.0
C482 C 0.55104 0.74194 0.35866 0.0
N483 N 0.56275 0.72864 0.37037 0.0
C484 C 0.5073 0.74912 0.46942 0.0
C485 C 0.54584 0.77209 0.47991 0.0
C486 C 0.51007 0.73659 0.4878 0.0
N487 N 0.52495 0.76678 0.4662 0.0
C488 C 0.54952 0.75977 0.49812 0.0
C489 C 0.53143 0.74193 0.50244 0.0
H490 H 0.49116 0.74469 0.45772 0.0
H491 H 0.55987 0.78561 0.4764 0.0
C492 C 0.57057 0.8142 0.37552 0.0
N493 N 0.56901 0.80283 0.39443 0.0
C494 C 0.59012 0.81499 0.36257 0.0
C495 C 0.60637 0.79293 0.38934 0.0
C496 C 0.58649 0.79265 0.40183 0.0
C497 C 0.60813 0.80403 0.36934 0.0
H498 H 0.55663 0.82262 0.37048 0.0
H499 H 0.58485 0.78421 0.41733 0.0
O500 O 0.49462 0.80116 0.44173 0.0
O501 O 0.52194 0.82254 0.40309 0.0
O502 O 0.54938 0.81168 0.44596 0.0
O503 O 0.52077 0.76897 0.40823 0.0
H504 H 0.45627 0.76747 0.42829 0.0
H505 H 0.50096 0.81164 0.48967 0.0
H506 H 0.43047 0.75005 0.45651 0.0
H507 H 0.47444 0.79329 0.51682 0.0
H508 H 0.4912 0.82026 0.32659 0.0
H509 H 0.49579 0.85486 0.41384 0.0
H510 H 0.5166 0.8067 0.35551 0.0
H511 H 0.47077 0.86753 0.38389 0.0
H512 H 0.49801 0.88732 0.49966 0.0
H513 H 0.5559 0.91026 0.45945 0.0
H514 H 0.45198 0.7554 0.32924 0.0
H515 H 0.4242 0.80385 0.38203 0.0
H516 H 0.5868 0.83956 0.43461 0.0
H517 H 0.54403 0.82631 0.49219 0.0
H518 H 0.61181 0.87392 0.46306 0.0
H519 H 0.56969 0.86107 0.51957 0.0
H520 H 0.54506 0.74119 0.4262 0.0
H521 H 0.52761 0.76643 0.36186 0.0
H522 H 0.57033 0.71735 0.40296 0.0
H523 H 0.55309 0.7421 0.33976 0.0
H524 H 0.49584 0.72261 0.49027 0.0
H525 H 0.56666 0.76364 0.50809 0.0
H526 H 0.59105 0.82379 0.34726 0.0
H527 H 0.62023 0.78475 0.39529 0.0
Li528 Li 0.60603 0.30876 0.61745 0.0
Li529 Li 0.61928 0.29621 0.65455 0.0
Li530 Li 0.60576 0.26704 0.61794 0.0
Li531 Li 0.57942 0.28629 0.64084 0.0
C532 C 0.65042 0.28242 0.61551 0.0
N533 N 0.6831 0.25607 0.59943 0.0
C534 C 0.66081 0.27042 0.63102 0.0
C535 C 0.6567 0.28106 0.59185 0.0
C536 C 0.6773 0.25721 0.62255 0.0
C537 C 0.67323 0.26762 0.58405 0.0
C538 C 0.60803 0.33708 0.66979 0.0
C539 C 0.61204 0.35537 0.7122 0.0
N540 N 0.62874 0.37343 0.70796 0.0
C541 C 0.62516 0.35587 0.66583 0.0
C542 C 0.60131 0.33686 0.69312 0.0
C543 C 0.63544 0.37407 0.68538 0.0
C544 C 0.59719 0.34963 0.60398 0.0
N545 N 0.60647 0.33017 0.59673 0.0
C546 C 0.60491 0.33561 0.55585 0.0
C547 C 0.61073 0.32312 0.57335 0.0
C548 C 0.59433 0.35514 0.56268 0.0
C549 C 0.59111 0.36258 0.58714 0.0
H550 H 0.59301 0.3541 0.62246 0.0
H551 H 0.61699 0.30685 0.568 0.0
C552 C 0.63876 0.28969 0.69839 0.0
N553 N 0.64142 0.30408 0.68197 0.0
C554 C 0.65643 0.29191 0.7167 0.0
C555 C 0.6789 0.32454 0.70163 0.0
C556 C 0.6608 0.32155 0.68341 0.0
C557 C 0.67698 0.30905 0.71796 0.0
H558 H 0.62371 0.2754 0.69637 0.0
H559 H 0.6628 0.33215 0.66958 0.0
C560 C 0.55933 0.26873 0.59493 0.0
N561 N 0.51555 0.24467 0.57343 0.0
C562 C 0.55207 0.2444 0.59452 0.0
C563 C 0.54434 0.28083 0.58441 0.0
C564 C 0.52988 0.23255 0.58356 0.0
C565 C 0.52225 0.26834 0.57363 0.0
C566 C 0.58401 0.25116 0.66357 0.0
C567 C 0.57573 0.22683 0.65441 0.0
C568 C 0.57722 0.26164 0.6857 0.0
C569 C 0.56072 0.21344 0.66749 0.0
C570 C 0.56218 0.24765 0.69821 0.0
N571 N 0.5543 0.22404 0.68892 0.0
C572 C 0.61706 0.22184 0.60652 0.0
C573 C 0.60369 0.23713 0.57331 0.0
C574 C 0.61613 0.19983 0.5915 0.0
N575 N 0.60994 0.23949 0.59733 0.0
C576 C 0.60232 0.21538 0.55767 0.0
C577 C 0.60769 0.19625 0.56705 0.0
H578 H 0.62216 0.22448 0.62571 0.0
H579 H 0.59842 0.25173 0.56662 0.0
C580 C 0.54307 0.30534 0.65991 0.0
N581 N 0.54863 0.28419 0.65042 0.0
C582 C 0.52222 0.30587 0.67047 0.0
C583 C 0.5125 0.26284 0.66007 0.0
C584 C 0.53341 0.26318 0.64935 0.0
C585 C 0.50702 0.2844 0.67133 0.0
H586 H 0.5552 0.32182 0.65999 0.0
H587 H 0.53798 0.24659 0.64133 0.0
O588 O 0.63361 0.29473 0.6232 0.0
O589 O 0.59801 0.31891 0.65095 0.0
O590 O 0.58106 0.28066 0.6054 0.0
O591 O 0.59901 0.26452 0.65118 0.0
H592 H 0.65592 0.27093 0.64926 0.0
H593 H 0.64877 0.29012 0.57957 0.0
H594 H 0.68538 0.24773 0.63432 0.0
H595 H 0.67816 0.26633 0.56575 0.0
H596 H 0.60708 0.35537 0.73037 0.0
H597 H 0.63075 0.35619 0.64793 0.0
H598 H 0.58799 0.32253 0.69649 0.0
H599 H 0.64883 0.38863 0.68261 0.0
H600 H 0.60721 0.32918 0.53705 0.0
H601 H 0.5829 0.37757 0.59294 0.0
H602 H 0.65475 0.27936 0.72874 0.0
H603 H 0.69491 0.33749 0.70178 0.0
H604 H 0.56333 0.2348 0.6028 0.0
H605 H 0.54974 0.29966 0.58455 0.0
H606 H 0.52403 0.21374 0.58317 0.0
H607 H 0.51045 0.27746 0.5654 0.0
H608 H 0.58069 0.21835 0.63734 0.0
H609 H 0.58335 0.28043 0.69304 0.0
H610 H 0.55414 0.19462 0.66057 0.0
H611 H 0.55671 0.25558 0.71527 0.0
H612 H 0.62024 0.18529 0.59926 0.0
H613 H 0.5958 0.21308 0.53885 0.0
H614 H 0.51841 0.32286 0.67866 0.0
H615 H 0.50141 0.24587 0.66065 0.0
Li616 Li 0.01772 0.33138 0.93874 0.0
Li617 Li 1.0023 0.30814 0.89957 0.0
Li618 Li 0.02111 0.29141 0.93071 0.0
Li619 Li 0.04471 0.31768 0.90915 0.0
C620 C 0.97582 0.31147 0.94598 0.0
N621 N 0.94474 0.32973 0.97553 0.0
C622 C 0.95707 0.31943 0.93602 0.0
C623 C 0.97857 0.3125 0.97095 0.0
C624 C 0.94159 0.32866 0.95126 0.0
C625 C 0.96274 0.32189 0.98559 0.0
C626 C 0.02319 0.3531 0.88874 0.0
C627 C 0.03197 0.35927 0.84884 0.0
N628 N 0.02276 0.37919 0.85254 0.0
C629 C 1.01419 0.37391 0.89228 0.0
C630 C 0.03246 0.34596 0.86695 0.0
C631 C 1.01397 0.38674 0.87372 0.0
C632 C 0.02758 0.36167 0.98424 0.0
N633 N 1.01408 0.35681 0.96282 0.0
C634 C 1.00067 0.39307 0.97285 0.0
C635 C 0.99976 0.37128 0.95745 0.0
C636 C 0.01634 0.3996 0.9939 0.0
C637 C 0.02864 0.38298 1.00044 0.0
H638 H 0.03869 0.34981 0.9881 0.0
H639 H 0.9888 0.36656 0.94049 0.0
C640 C 0.96989 0.27941 0.86263 0.0
N641 N 0.97807 0.30215 0.87485 0.0
C642 C 0.95109 0.27437 0.84489 0.0
C643 C 0.94942 0.3162 0.8531 0.0
C644 C 0.96834 0.32044 0.87045 0.0
C645 C 0.94043 0.29289 0.84034 0.0
H646 H 0.97775 0.26518 0.86694 0.0
H647 H 0.97461 0.33812 0.88114 0.0
C648 C 0.06019 0.31278 0.96131 0.0
N649 N 0.08787 0.29836 0.9948 0.0
C650 C 0.08356 0.31208 0.9578 0.0
C651 C 0.0511 0.30662 0.9822 0.0
C652 C 0.09723 0.30464 0.97485 0.0
C653 C 0.0653 0.29922 0.9988 0.0
C654 C 0.02931 0.27344 0.87416 0.0
C655 C 0.03808 0.25269 0.8738 0.0
C656 C 0.02487 0.28055 0.85231 0.0
C657 C 0.04308 0.24003 0.85184 0.0
C658 C 0.03005 0.2674 0.83071 0.0
N659 N 0.03904 0.24761 0.83093 0.0
C660 C 1.00737 0.25737 0.95951 0.0
C661 C 0.04294 0.25737 0.94108 0.0
C662 C 1.01273 0.24134 0.97336 0.0
N663 N 0.02277 0.26529 0.94425 0.0
C664 C 0.04893 0.24138 0.95437 0.0
C665 C 0.03397 0.23369 0.97108 0.0
H666 H 0.99158 0.26432 0.96171 0.0
H667 H 0.05515 0.26484 0.9295 0.0
C668 C 0.08407 0.34471 0.89248 0.0
N669 N 0.07397 0.32318 0.89701 0.0
C670 C 0.10496 0.34721 0.88156 0.0
C671 C 0.10546 0.30595 0.88223 0.0
C672 C 0.08443 0.30415 0.89268 0.0
C673 C 0.11561 0.32754 0.87616 0.0
H674 H 0.07562 0.3597 0.89676 0.0
H675 H 0.07635 0.28754 0.89732 0.0
O676 O 0.99144 0.30282 0.93139 0.0
O677 O 0.02338 0.34026 0.90678 0.0
O678 O 0.04645 0.31967 0.94451 0.0
O679 O 0.02429 0.28604 0.89564 0.0
H680 H 0.95454 0.31862 0.91676 0.0
H681 H 0.99294 0.30645 0.97901 0.0
H682 H 0.92708 0.33501 0.9438 0.0
H683 H 0.96481 0.32299 1.00496 0.0
H684 H 0.03909 0.35385 0.8319 0.0
H685 H 1.00735 0.38011 0.90911 0.0
H686 H 0.04051 0.33067 0.8642 0.0
H687 H 1.00687 0.40274 0.87619 0.0
H688 H 0.99086 0.40546 0.96728 0.0
H689 H 0.04056 0.38734 0.0168 0.0
H690 H 0.94463 0.2562 0.83526 0.0
H691 H 0.94126 0.33083 0.85043 0.0
H692 H 0.09118 0.31736 0.94218 0.0
H693 H 0.03313 0.30712 0.98535 0.0
H694 H 0.11529 0.30391 0.97225 0.0
H695 H 0.05835 0.29409 1.01483 0.0
H696 H 0.04099 0.24631 0.89023 0.0
H697 H 0.01693 0.29568 0.85181 0.0
H698 H 0.05007 0.2241 0.85142 0.0
H699 H 0.02673 0.27282 0.81374 0.0
H700 H 1.00076 0.23536 0.98595 0.0
H701 H 0.06554 0.23591 0.95242 0.0
H702 H 0.11254 0.36412 0.87708 0.0
H703 H 0.1133 0.29045 0.87816 0.0
Li704 Li 0.43196 0.04693 0.3349 0.0
Li705 Li 0.3939 0.02356 0.32151 0.0
Li706 Li 0.42047 0.03363 0.29155 0.0
Li707 Li 0.40163 0.06212 0.3151 0.0
C708 C 0.444 1.0049 0.31269 0.0
N709 N 0.48368 0.9862 0.3056 0.0
C710 C 0.44351 0.98105 0.31358 0.0
C711 C 0.4647 0.01925 0.30821 0.0
C712 C 0.46374 0.97193 0.30994 0.0
C713 C 0.48456 1.00946 0.30467 0.0
C714 C 0.38794 0.0453 0.36375 0.0
C715 C 0.34945 0.03363 0.37646 0.0
N716 N 0.35929 0.02813 0.39655 0.0
C717 C 0.39767 0.03982 0.38467 0.0
C718 C 0.36364 0.04245 0.35975 0.0
C719 C 0.3829 0.03107 0.40098 0.0
C720 C 0.47567 0.07036 0.3635 0.0
N721 N 0.45758 0.05116 0.35849 0.0
C722 C 0.47452 0.03317 0.38785 0.0
C723 C 0.45695 0.03256 0.36993 0.0
C724 C 0.49283 0.05318 0.39402 0.0
C725 C 0.4936 0.07176 0.38138 0.0
H726 H 0.4763 0.08474 0.35397 0.0
H727 H 0.44248 0.01739 0.36538 0.0
C728 C 0.35034 0.99175 0.3153 0.0
N729 N 0.3721 0.9977 0.32736 0.0
C730 C 0.33641 0.96941 0.31461 0.0
C731 C 0.36698 0.96062 0.34017 0.0
C732 C 0.38024 0.98319 0.34051 0.0
C733 C 0.34538 0.95314 0.32599 0.0
H734 H 0.34452 1.00359 0.3048 0.0
H735 H 0.39777 0.98844 0.34965 0.0
C736 C 0.44883 0.08807 0.31635 0.0
N737 N 0.47692 0.13284 0.33163 0.0
C738 C 0.44258 0.10441 0.33501 0.0
C739 C 0.46941 0.09447 0.30556 0.0
C740 C 0.45699 0.12699 0.34241 0.0
C741 C 0.48338 0.11718 0.31355 0.0
C742 C 0.37212 0.04105 0.27594 0.0
C743 C 0.37836 0.04444 0.25311 0.0
C744 C 0.35102 0.04633 0.28358 0.0
C745 C 0.36363 0.05347 0.2385 0.0
C746 C 0.33681 0.05541 0.26848 0.0
N747 N 0.34336 0.05878 0.24645 0.0
C748 C 0.43275 1.00151 0.25246 0.0
C749 C 0.44346 0.04286 0.25246 0.0
C750 C 0.44529 0.99616 0.23257 0.0
N751 N 0.43258 0.0246 0.26216 0.0
C752 C 0.45624 0.03836 0.23275 0.0
C753 C 0.45761 0.01484 0.22298 0.0
H754 H 0.42399 0.98743 0.26078 0.0
H755 H 0.44269 0.06096 0.26049 0.0
C756 C 0.37246 0.0955 0.32582 0.0
N757 N 0.38897 0.08866 0.3117 0.0
C758 C 0.35939 0.11132 0.31917 0.0
C759 C 0.38188 0.11389 0.28469 0.0
C760 C 0.3945 0.0981 0.29202 0.0
C761 C 0.36364 0.12008 0.29796 0.0
H762 H 0.36853 0.08765 0.34138 0.0
H763 H 0.40759 0.092 0.28107 0.0
O764 O 0.42421 1.01395 0.31611 0.0
O765 O 0.40212 0.05349 0.34733 0.0
O766 O 0.43504 0.06587 0.30866 0.0
O767 O 0.38656 0.03262 0.29068 0.0
H768 H 0.42761 0.96971 0.31701 0.0
H769 H 0.46547 0.03773 0.30742 0.0
H770 H 0.4636 0.95349 0.31056 0.0
H771 H 0.50068 0.02035 0.30117 0.0
H772 H 0.3306 0.03106 0.37342 0.0
H773 H 0.41642 0.04237 0.38837 0.0
H774 H 0.35577 0.04654 0.34366 0.0
H775 H 0.39021 0.02665 0.41718 0.0
H776 H 0.47334 0.0186 0.39743 0.0
H777 H 0.50768 0.08736 0.38562 0.0
H778 H 0.31973 0.96418 0.30366 0.0
H779 H 0.37448 0.94841 0.34898 0.0
H780 H 0.42698 0.09964 0.34392 0.0
H781 H 0.47469 0.08195 0.29133 0.0
H782 H 0.45239 0.13981 0.35682 0.0
H783 H 0.49939 0.12233 0.30541 0.0
H784 H 0.39443 0.04025 0.24672 0.0
H785 H 0.34589 0.04394 0.30118 0.0
H786 H 0.36834 0.0563 0.22086 0.0
H787 H 0.32062 0.05988 0.27433 0.0
H788 H 0.44619 0.97784 0.22543 0.0
H789 H 0.46542 0.05311 0.22555 0.0
H790 H 0.34551 0.11589 0.32987 0.0
H791 H 0.38536 0.11996 0.26801 0.0
Li792 Li 0.29262 0.22292 0.53317 0.0
Li793 Li 0.30871 0.19089 0.50957 0.0
Li794 Li 0.291 0.21913 0.487 0.0
Li795 Li 0.26552 0.18809 0.50688 0.0
C796 C 0.33521 0.24646 0.51931 0.0
N797 N 0.36803 0.28829 0.53462 0.0
C798 C 0.35655 0.24626 0.53171 0.0
C799 C 0.33062 0.26786 0.51451 0.0
C800 C 0.3729 0.26762 0.53936 0.0
C801 C 0.34743 0.28884 0.52244 0.0
C802 C 0.29326 0.17402 0.54915 0.0
C803 C 0.29401 0.13422 0.55489 0.0
N804 N 0.30612 0.14342 0.57698 0.0
C805 C 0.30562 0.18306 0.57198 0.0
C806 C 0.28731 0.14939 0.54058 0.0
C807 C 0.312 0.16731 0.58574 0.0
C808 C 0.27939 0.23347 0.58085 0.0
N809 N 0.29586 0.24185 0.5667 0.0
C810 C 0.31783 0.26829 0.60203 0.0
C811 C 0.31469 0.25932 0.57686 0.0
C812 C 0.30151 0.25927 0.61713 0.0
C813 C 0.28179 0.24199 0.606 0.0
H814 H 0.26489 0.21914 0.57277 0.0
H815 H 0.32779 0.26588 0.56574 0.0
C816 C 0.33877 0.15936 0.49092 0.0
N817 N 0.33398 0.17424 0.51072 0.0
C818 C 0.35715 0.14726 0.49257 0.0
C819 C 0.36548 0.16629 0.53479 0.0
C820 C 0.3473 0.1783 0.53221 0.0
C821 C 0.37056 0.15033 0.51489 0.0
H822 H 0.32841 0.15697 0.47381 0.0
H823 H 0.34382 0.19092 0.54743 0.0
C824 C 0.25371 0.23837 0.522 0.0
N825 N 0.23131 0.26993 0.54965 0.0
C826 C 0.23554 0.22996 0.53521 0.0
C827 C 0.26038 0.26279 0.52268 0.0
C828 C 0.22447 0.24621 0.54913 0.0
C829 C 0.24887 0.27847 0.53681 0.0
C830 C 0.27489 0.163 0.4639 0.0
C831 C 0.26129 0.16484 0.44343 0.0
C832 C 0.27655 0.14052 0.46814 0.0
C833 C 0.24931 0.1441 0.42767 0.0
C834 C 0.26431 0.12021 0.45197 0.0
N835 N 0.25103 0.1224 0.43224 0.0
C836 C 0.3162 0.24114 0.4514 0.0
C837 C 0.27515 0.23235 0.44202 0.0
C838 C 0.31953 0.24894 0.42946 0.0
N839 N 0.29426 0.23303 0.4574 0.0
C840 C 0.27772 0.23964 0.41969 0.0
C841 C 0.30017 0.24814 0.41306 0.0
H842 H 0.33127 0.24111 0.46343 0.0
H843 H 0.25783 0.22562 0.44679 0.0
C844 C 0.23075 0.15699 0.52535 0.0
N845 N 0.2352 0.16653 0.50543 0.0
C846 C 0.20974 0.14103 0.52593 0.0
C847 C 0.19729 0.14578 0.48597 0.0
C848 C 0.21879 0.16149 0.48602 0.0
C849 C 0.19273 0.13503 0.50601 0.0
H850 H 0.24344 0.16193 0.54103 0.0
H851 H 0.22227 0.16972 0.47061 0.0
O852 O 0.319 0.22575 0.51167 0.0
O853 O 0.28698 0.18918 0.53529 0.0
O854 O 0.26498 0.22278 0.50858 0.0
O855 O 0.28655 0.18311 0.47968 0.0
H856 H 0.36043 0.22983 0.53545 0.0
H857 H 0.31429 0.26825 0.50472 0.0
H858 H 0.38945 0.26777 0.54907 0.0
H859 H 0.3441 0.30555 0.51891 0.0
H860 H 0.28952 0.11514 0.54844 0.0
H861 H 0.31065 0.20204 0.57886 0.0
H862 H 0.27746 0.14205 0.52316 0.0
H863 H 0.3217 0.17408 0.60335 0.0
H864 H 0.33306 0.28198 0.6096 0.0
H865 H 0.26876 0.23435 0.61677 0.0
H866 H 0.36091 0.13584 0.47649 0.0
H867 H 0.37531 0.16933 0.55234 0.0
H868 H 0.23018 0.2111 0.53487 0.0
H869 H 0.2743 0.26955 0.51242 0.0
H870 H 0.21046 0.23997 0.55955 0.0
H871 H 0.25388 0.29742 0.53757 0.0
H872 H 0.25983 0.18208 0.43984 0.0
H873 H 0.28727 0.13876 0.48368 0.0
H874 H 0.23861 0.14527 0.41182 0.0
H875 H 0.2654 0.1027 0.45507 0.0
H876 H 0.33719 0.25498 0.4251 0.0
H877 H 0.26226 0.23871 0.40773 0.0
H878 H 0.20668 0.1337 0.54201 0.0
H879 H 0.1845 0.14186 0.47036 0.0
Li880 Li 0.20447 0.05711 0.78291 0.0
Li881 Li 0.17023 0.02967 0.80536 0.0
Li882 Li 0.20122 1.00386 0.77774 0.0
Li883 Li 0.16968 0.02642 0.7554 0.0
C884 C 0.21929 0.04111 0.83027 0.0
N885 N 0.24459 0.0563 0.87513 0.0
C886 C 0.2206 0.06426 0.84318 0.0
C887 C 0.23087 0.02568 0.84008 0.0
C888 C 0.23345 0.07159 0.86587 0.0
C889 C 0.24359 0.03371 0.86282 0.0
C890 C 0.1513 0.06609 0.78541 0.0
C891 C 0.10988 0.06517 0.78547 0.0
N892 N 0.11434 0.08938 0.78956 0.0
C893 C 0.15552 0.09095 0.78981 0.0
C894 C 0.12834 0.05307 0.7834 0.0
C895 C 0.13658 0.1024 0.79177 0.0
C896 C 0.2149 0.10639 0.76784 0.0
N897 N 0.22355 0.09383 0.78339 0.0
C898 C 0.25401 0.13002 0.79871 0.0
C899 C 0.24302 0.10575 0.79875 0.0
C900 C 0.2455 0.14346 0.78277 0.0
C901 C 0.22529 0.13063 0.76733 0.0
H902 H 0.19944 0.09775 0.75564 0.0
H903 H 0.2502 0.09665 0.81152 0.0
C904 C 0.13305 0.01445 0.84243 0.0
N905 N 0.15169 0.03177 0.83956 0.0
C906 C 0.12111 0.01557 0.86418 0.0
C907 C 0.14697 0.05228 0.88111 0.0
C908 C 0.15837 0.0506 0.85897 0.0
C909 C 0.12778 0.03457 0.88479 0.0
H910 H 0.127 0.99933 0.82773 0.0
H911 H 0.17282 0.06478 0.85763 0.0
C912 C 0.20867 0.02596 0.72993 0.0
N913 N 0.21385 0.02005 0.681 0.0
C914 C 0.21179 1.00409 0.71702 0.0
C915 C 0.20825 0.04484 0.71803 0.0
C916 C 0.21438 1.00147 0.69227 0.0
C917 C 0.21087 0.04149 0.69325 0.0
C918 C 0.14717 0.98207 0.7629 0.0
C919 C 0.15252 0.96735 0.74238 0.0
C920 C 0.12406 0.97953 0.76881 0.0
C921 C 0.13463 0.95004 0.72825 0.0
C922 C 0.10666 0.962 0.75423 0.0
N923 N 0.11227 0.94773 0.73443 0.0
C924 C 0.24234 0.97264 0.783 0.0
C925 C 0.20636 0.94766 0.76878 0.0
C926 C 0.25331 0.95217 0.78232 0.0
N927 N 0.21886 0.97082 0.77622 0.0
C928 C 0.21673 0.92676 0.76778 0.0
C929 C 0.241 0.92794 0.77438 0.0
H930 H 0.25314 0.99022 0.78934 0.0
H931 H 0.18782 0.94485 0.76344 0.0
C932 C 0.13798 0.04456 0.71892 0.0
N933 N 0.15023 0.02692 0.72051 0.0
C934 C 0.12667 0.047 0.69652 0.0
C935 C 0.14029 1.01342 0.67629 0.0
C936 C 0.1511 1.01134 0.69919 0.0
C937 C 0.12777 0.0317 0.67399 0.0
H938 H 0.13696 0.05735 0.73509 0.0
H939 H 0.16067 0.99726 0.69953 0.0
O940 O 0.20707 0.03378 0.80791 0.0
O941 O 0.16953 0.05448 0.78351 0.0
O942 O 0.20557 0.02867 0.75403 0.0
O943 O 0.16443 0.99936 0.77664 0.0
H944 H 0.21179 0.07642 0.83571 0.0
H945 H 0.23009 1.00774 0.83021 0.0
H946 H 0.2346 0.08945 0.8761 0.0
H947 H 0.25268 0.02199 0.87066 0.0
H948 H 0.09201 0.05532 0.78383 0.0
H949 H 0.1732 0.1013 0.79183 0.0
H950 H 0.12484 0.03381 0.78012 0.0
H951 H 0.13956 0.12163 0.79511 0.0
H952 H 0.26894 0.13829 0.81175 0.0
H953 H 0.21744 0.1392 0.75448 0.0
H954 H 0.10622 1.00145 0.8643 0.0
H955 H 0.15363 0.06756 0.89551 0.0
H956 H 0.21207 0.98929 0.72601 0.0
H957 H 0.20569 0.06181 0.72776 0.0
H958 H 0.21675 0.98463 0.68201 0.0
H959 H 0.21046 0.0559 0.68376 0.0
H960 H 0.17028 0.96939 0.73735 0.0
H961 H 0.11958 0.99101 0.78443 0.0
H962 H 0.13852 0.93849 0.71233 0.0
H963 H 0.0887 0.95978 0.75862 0.0
H964 H 0.27166 0.95581 0.78872 0.0
H965 H 0.20538 0.90947 0.76147 0.0
H966 H 0.11681 0.06095 0.6973 0.0
H967 H 0.14228 1.00078 0.6603 0.0
Li968 Li 0.27597 0.97898 1.00849 0.0
Li969 Li 0.29692 0.95187 0.02555 0.0
Li970 Li 0.32426 0.98257 1.01026 0.0
Li971 Li 0.29699 0.94709 0.98115 0.0
C972 C 0.30081 0.98905 0.06091 0.0
N973 N 0.29893 0.99 0.10987 0.0
C974 C 0.27947 0.98147 0.0699 0.0
C975 C 0.32114 0.99741 0.07685 0.0
C976 C 0.2789 0.98201 0.09469 0.0
C977 C 0.31984 0.99767 0.10154 0.0
C978 C 0.25165 0.92547 1.00446 0.0
C979 C 0.23296 0.88395 0.99802 0.0
N980 N 0.21557 0.8899 1.0114 0.0
C981 C 0.23343 0.93119 0.01793 0.0
C982 C 0.25127 0.90168 0.99418 0.0
C983 C 0.21541 0.91294 0.02131 0.0
C984 C 0.22639 0.98319 0.99568 0.0
N985 N 0.24558 0.99248 1.01212 0.0
C986 C 0.22148 0.01475 0.03721 0.0
C987 C 0.24324 1.00821 0.0326 0.0
C988 C 0.20125 1.00537 0.02067 0.0
C989 C 0.20431 0.98933 0.99958 0.0
H990 H 0.2279 0.9703 0.9797 0.0
H991 H 0.25813 0.01524 0.04599 0.0
C992 C 0.32026 0.93629 0.06181 0.0
N993 N 0.29822 0.93481 0.05164 0.0
C994 C 0.32399 0.92451 0.08058 0.0
C995 C 0.28218 0.91065 0.07903 0.0
C996 C 0.27926 0.92254 0.06007 0.0
C997 C 0.30482 0.91126 0.08929 0.0
H998 H 0.33504 0.9466 0.05523 0.0
H999 H 0.26186 0.92213 0.05243 0.0
C1000 C 0.30797 0.99824 0.96781 0.0
N1001 N 0.32496 0.03025 0.93948 0.0
C1002 C 0.31979 0.99104 0.94781 0.0
C1003 C 0.30469 0.02165 0.97338 0.0
C1004 C 0.32828 1.00751 0.93372 0.0
C1005 C 0.31345 0.03759 0.95883 0.0
C1006 C 0.33325 0.92933 1.00433 0.0
C1007 C 0.35738 0.9321 1.00277 0.0
C1008 C 0.31987 0.90684 1.00452 0.0
C1009 C 0.36772 0.91227 1.00146 0.0
C1010 C 0.33086 0.88745 1.00323 0.0
N1011 N 0.35436 0.89054 1.00173 0.0
C1012 C 0.37216 0.99453 0.03341 0.0
C1013 C 0.37008 1.00933 0.99746 0.0
C1014 C 0.39689 1.00107 0.03586 0.0
N1015 N 0.35899 0.99862 1.01442 0.0
C1016 C 0.39484 0.01605 0.99917 0.0
C1017 C 0.40894 1.01194 0.01856 0.0
H1018 H 0.36356 0.9851 0.04627 0.0
H1019 H 0.35988 1.0119 0.98197 0.0
C1020 C 0.27924 0.91049 0.93685 0.0
N1021 N 0.29841 0.92475 0.95065 0.0
C1022 C 0.28182 0.89348 0.91645 0.0
C1023 C 0.32369 0.90586 0.92483 0.0
C1024 C 0.32033 0.92282 0.94472 0.0
C1025 C 0.30433 0.89086 0.91011 0.0
H1026 H 0.26192 0.91208 0.94181 0.0
H1027 H 0.33541 0.93427 0.95573 0.0
O1028 O 0.3018 0.98792 0.03657 0.0
O1029 O 0.26922 0.94313 1.00055 0.0
O1030 O 0.29945 0.98238 0.98177 0.0
O1031 O 0.3228 0.94856 1.00558 0.0
H1032 H 0.26361 0.97481 0.05778 0.0
H1033 H 0.33772 1.00365 0.07026 0.0
H1034 H 0.26254 0.97596 0.10185 0.0
H1035 H 0.33546 1.00398 0.11407 0.0
H1036 H 0.23252 0.86546 0.99025 0.0
H1037 H 0.23333 0.94946 0.02597 0.0
H1038 H 0.26487 0.89694 0.98321 0.0
H1039 H 0.20131 0.91711 0.03185 0.0
H1040 H 0.22048 0.02656 0.05415 0.0
H1041 H 0.18967 0.98142 0.98605 0.0
H1042 H 0.34176 0.92551 0.08796 0.0
H1043 H 0.26685 0.90127 0.0857 0.0
H1044 H 0.32244 0.97297 0.94327 0.0
H1045 H 0.2955 0.02743 0.98879 0.0
H1046 H 0.33752 1.00222 0.91821 0.0
H1047 H 0.31108 0.05579 0.96292 0.0
H1048 H 0.36798 0.94932 1.00231 0.0
H1049 H 0.30127 0.90443 1.00596 0.0
H1050 H 0.38636 0.91414 1.00019 0.0
H1051 H 0.32071 0.86995 1.00346 0.0
H1052 H 0.4065 0.99733 0.05117 0.0
H1053 H 0.40282 0.02358 0.98476 0.0
H1054 H 0.26628 0.8825 0.90573 0.0
H1055 H 0.34141 0.90427 0.92142 0.0
Li1056 Li 0.31411 0.4011 0.04506 0.0
Li1057 Li 0.32995 0.37325 0.06553 0.0
Li1058 Li 0.35723 0.40595 0.04662 0.0
Li1059 Li 0.32865 0.37109 0.01791 0.0
C1060 C 0.33397 0.42472 0.09409 0.0
N1061 N 0.32775 0.45675 0.13466 0.0
C1062 C 0.31924 0.41717 0.11103 0.0
C1063 C 0.34587 0.44845 0.09802 0.0
C1064 C 0.31625 0.43367 0.13137 0.0
C1065 C 0.34237 0.46441 0.11856 0.0
C1066 C 0.27928 0.36266 0.03932 0.0
C1067 C 0.24065 0.34952 0.01795 0.0
N1068 N 0.23126 0.35811 0.03842 0.0
C1069 C 0.26921 0.37106 0.06022 0.0
C1070 C 0.26488 0.35156 0.01807 0.0
C1071 C 0.24492 0.36871 0.05937 0.0
C1072 C 0.27524 0.41278 0.02241 0.0
N1073 N 0.28842 0.41801 0.04413 0.0
C1074 C 0.26423 0.44477 0.06052 0.0
C1075 C 0.2833 0.43377 0.06307 0.0
C1076 C 0.25025 0.43948 0.03832 0.0
C1077 C 0.25614 0.42338 0.01906 0.0
H1078 H 0.27965 0.40032 1.00756 0.0
H1079 H 0.29387 0.4379 0.08017 0.0
C1080 C 0.34441 0.36287 0.11214 0.0
N1081 N 0.3268 0.35739 0.09384 0.0
C1082 C 0.34127 0.35446 0.13382 0.0
C1083 C 0.30194 0.33485 0.11775 0.0
C1084 C 0.30591 0.34338 0.09629 0.0
C1085 C 0.3197 0.34034 0.13714 0.0
H1086 H 0.36078 0.37435 0.11021 0.0
H1087 H 0.29191 0.3394 0.08185 0.0
C1088 C 0.32979 0.42506 1.01072 0.0
N1089 N 0.3185 0.46399 0.99501 0.0
C1090 C 0.3224 0.42336 0.98634 0.0
C1091 C 0.33185 0.44671 0.02699 0.0
C1092 C 0.31668 0.44321 0.97878 0.0
C1093 C 0.32593 0.46614 0.01874 0.0
C1094 C 0.37021 0.35581 0.03354 0.0
C1095 C 0.38862 0.36422 0.02062 0.0
C1096 C 0.36653 0.33238 0.03707 0.0
C1097 C 0.40308 0.34892 1.01132 0.0
C1098 C 0.38136 0.31763 0.02744 0.0
N1099 N 0.39917 0.32613 1.01488 0.0
C1100 C 0.40557 0.42839 0.06596 0.0
C1101 C 0.39124 0.4411 0.03163 0.0
C1102 C 0.42742 0.44376 0.06655 0.0
N1103 N 0.38791 0.42736 0.04868 0.0
C1104 C 0.41255 0.45692 0.03182 0.0
C1105 C 0.43102 0.4585 0.04945 0.0
H1106 H 0.40275 0.4172 0.07923 0.0
H1107 H 0.37744 0.43969 0.0176 0.0
C1108 C 0.30676 0.35824 0.97007 0.0
N1109 N 0.32395 0.35289 0.98413 0.0
C1110 C 0.30341 0.34943 0.94498 0.0
C1111 C 0.33489 0.32872 0.94889 0.0
C1112 C 0.33778 0.33813 0.97399 0.0
C1113 C 0.31764 0.33451 0.93383 0.0
H1114 H 0.29611 0.37022 0.97826 0.0
H1115 H 0.35147 0.33402 0.98514 0.0
O1116 O 0.33743 0.40879 0.07425 0.0
O1117 O 0.30309 0.3653 0.03962 0.0
O1118 O 0.335 0.4057 0.01869 0.0
O1119 O 0.35593 0.3705 0.04285 0.0
H1120 H 0.3102 0.39882 0.10854 0.0
H1121 H 0.35778 0.45447 0.08541 0.0
H1122 H 0.30483 0.4281 0.14457 0.0
H1123 H 0.35137 0.48285 0.12176 0.0
H1124 H 0.22932 0.3411 1.00159 0.0
H1125 H 0.28007 0.37967 0.07681 0.0
H1126 H 0.27231 0.34457 1.00184 0.0
H1127 H 0.23693 0.37539 0.07534 0.0
H1128 H 0.26034 0.45713 0.07583 0.0
H1129 H 0.24629 0.41925 1.00143 0.0
H1130 H 0.35564 0.35921 0.14798 0.0
H1131 H 0.28475 0.32472 0.11936 0.0
H1132 H 0.32122 0.40698 0.97334 0.0
H1133 H 0.33764 0.44837 0.04585 0.0
H1134 H 0.31083 0.44209 0.95999 0.0
H1135 H 0.32721 0.48291 0.03122 0.0
H1136 H 0.39166 0.38234 0.01776 0.0
H1137 H 0.35235 0.32568 0.04709 0.0
H1138 H 0.41738 0.35514 1.00124 0.0
H1139 H 0.37872 0.29942 0.02997 0.0
H1140 H 0.44127 0.4443 0.08037 0.0
H1141 H 0.4147 0.46754 0.01797 0.0
H1142 H 0.29034 0.35512 0.93435 0.0
H1143 H 0.34629 0.31724 0.9413 0.0
Li1144 Li 0.83085 0.1449 0.07465 0.0
Li1145 Li 0.84915 0.11248 0.04772 0.0
Li1146 Li 0.82743 0.14212 0.02956 0.0
Li1147 Li 0.80326 0.1111 0.04838 0.0
C1148 C 0.87636 0.1647 0.06119 0.0
N1149 N 0.91707 0.19726 0.07981 0.0
C1150 C 0.8922 0.15924 0.07772 0.0
C1151 C 0.8812 0.18668 0.0541 0.0
C1152 C 0.9127 0.17595 0.08693 0.0
C1153 C 0.90188 0.20292 0.06374 0.0
C1154 C 0.81911 0.09003 0.08417 0.0
C1155 C 0.81168 0.04734 0.08002 0.0
N1156 N 0.80085 0.04936 0.10078 0.0
C1157 C 0.80795 0.09171 0.10548 0.0
C1158 C 0.82104 0.06771 0.07134 0.0
C1159 C 0.79883 0.07093 0.11358 0.0
C1160 C 0.81463 0.1644 0.11962 0.0
N1161 N 0.83225 0.16853 0.10517 0.0
C1162 C 0.84637 0.20746 0.13018 0.0
C1163 C 0.84797 0.1897 0.11017 0.0
C1164 C 0.82834 0.20368 0.14538 0.0
C1165 C 0.81235 0.1817 0.13978 0.0
H1166 H 0.80171 0.14796 0.11497 0.0
H1167 H 0.86135 0.19333 0.09825 0.0
C1168 C 0.8956 0.11167 0.03042 0.0
N1169 N 0.87965 0.09944 0.04278 0.0
C1170 C 0.91764 0.10555 0.02672 0.0
C1171 C 0.90706 0.07368 0.04786 0.0
C1172 C 0.88521 0.08057 0.05142 0.0
C1173 C 0.92405 0.08636 0.03559 0.0
H1174 H 0.89134 0.12656 0.02345 0.0
H1175 H 0.87286 0.07083 0.06138 0.0
C1176 C 0.79556 0.165 0.06138 0.0
N1177 N 0.78002 0.20547 0.08138 0.0
C1178 C 0.77502 0.16308 0.07303 0.0
C1179 C 0.8082 0.18748 0.05986 0.0
C1180 C 0.76745 0.18377 0.08302 0.0
C1181 C 0.80005 0.20773 0.0701 0.0
C1182 C 0.80985 0.08854 1.00289 0.0
C1183 C 0.79207 0.09335 0.98812 0.0
C1184 C 0.81349 0.06528 1.00044 0.0
C1185 C 0.77795 0.07468 0.97133 0.0
C1186 C 0.79902 0.0471 0.9834 0.0
N1187 N 0.78168 0.05213 0.96934 0.0
C1188 C 0.84487 0.1676 0.99298 0.0
C1189 C 0.80439 0.16353 0.99794 0.0
C1190 C 0.84269 0.1808 0.97492 0.0
N1191 N 0.82585 0.15944 1.00415 0.0
C1192 C 0.80142 0.17659 0.98007 0.0
C1193 C 0.82071 0.18549 0.96833 0.0
H1194 H 0.86174 0.16407 0.99826 0.0
H1195 H 0.78953 0.15671 1.00701 0.0
C1196 C 0.7581 0.07769 0.05604 0.0
N1197 N 0.76854 0.09519 0.0448 0.0
C1198 C 0.73334 0.07066 0.05454 0.0
C1199 C 0.73011 0.09919 0.02959 0.0
C1200 C 0.75478 0.10568 0.03157 0.0
C1201 C 0.71871 0.08168 0.04146 0.0
H1202 H 0.7688 0.06938 0.06665 0.0
H1203 H 0.76295 0.11984 0.02302 0.0
O1204 O 0.85624 0.14857 0.05194 0.0
O1205 O 0.82813 0.11011 0.07588 0.0
O1206 O 0.80369 0.14503 0.05217 0.0
O1207 O 0.82359 0.10651 0.01971 0.0
H1208 H 0.88865 0.14229 0.08339 0.0
H1209 H 0.86903 0.19123 0.04144 0.0
H1210 H 0.92513 0.17199 0.09974 0.0
H1211 H 0.90584 0.22004 0.05849 0.0
H1212 H 0.81301 0.02994 0.07023 0.0
H1213 H 0.80641 0.10884 0.11572 0.0
H1214 H 0.82962 0.06614 0.05483 0.0
H1215 H 0.79013 0.07196 0.13004 0.0
H1216 H 0.85876 0.2243 0.13326 0.0
H1217 H 0.79809 0.17792 0.15083 0.0
H1218 H 0.92951 0.11577 0.01668 0.0
H1219 H 0.9108 0.05878 0.05519 0.0
H1220 H 0.76519 0.14582 0.07458 0.0
H1221 H 0.82429 0.18926 0.05116 0.0
H1222 H 0.75164 0.18258 0.09219 0.0
H1223 H 0.8097 0.22524 0.06917 0.0
H1224 H 0.78914 0.11128 0.9897 0.0
H1225 H 0.82739 0.06133 1.01151 0.0
H1226 H 0.76403 0.07811 0.95987 0.0
H1227 H 0.80159 0.029 0.98133 0.0
H1228 H 0.85807 0.18764 0.96656 0.0
H1229 H 0.78416 0.17962 0.97541 0.0
H1230 H 0.72577 0.05666 0.06363 0.0
H1231 H 0.72003 0.10848 0.01938 0.0
Li1232 Li 0.23114 0.58063 0.23638 0.0
Li1233 Li 0.20297 0.56151 0.26148 0.0
Li1234 Li 0.23017 0.54138 0.24062 0.0
Li1235 Li 0.19742 0.54967 0.21706 0.0
C1236 C 0.25393 0.5646 0.28143 0.0
N1237 N 0.28737 0.55131 0.30964 0.0
C1238 C 0.24744 0.55318 0.30042 0.0
C1239 C 0.27748 0.56954 0.27699 0.0
C1240 C 0.2646 0.54654 0.31442 0.0
C1241 C 0.29411 0.5626 0.2914 0.0
C1242 C 0.18497 0.5983 0.24044 0.0
C1243 C 0.1485 0.61158 0.23645 0.0
N1244 N 0.15962 0.6341 0.2471 0.0
C1245 C 0.19602 0.62164 0.25125 0.0
C1246 C 0.16099 0.59327 0.23287 0.0
C1247 C 0.18291 0.63946 0.25449 0.0
C1248 C 0.24601 0.62024 0.21462 0.0
N1249 N 0.24886 0.61041 0.23432 0.0
C1250 C 0.27409 0.64602 0.25575 0.0
C1251 C 0.26274 0.62262 0.25453 0.0
C1252 C 0.27126 0.65689 0.23587 0.0
C1253 C 0.25754 0.64351 0.21482 0.0
H1254 H 0.23435 0.61024 0.19902 0.0
H1255 H 0.26406 0.61457 0.27017 0.0
C1256 C 0.18017 0.54671 0.2997 0.0
N1257 N 0.18708 0.56588 0.28946 0.0
C1258 C 0.1665 0.54845 0.31907 0.0
C1259 C 0.16821 0.58991 0.31763 0.0
C1260 C 0.18201 0.5874 0.29841 0.0
C1261 C 0.16001 0.57013 0.32779 0.0
H1262 H 0.1849 0.52994 0.2925 0.0
H1263 H 0.18843 0.60255 0.29054 0.0
C1264 C 0.24398 0.56228 0.19356 0.0
N1265 N 0.27085 0.58232 0.16102 0.0
C1266 C 0.23398 0.56217 0.17044 0.0
C1267 C 0.26775 0.57226 0.19999 0.0
C1268 C 0.24783 0.57247 0.15428 0.0
C1269 C 0.281 0.58241 0.18333 0.0
C1270 C 0.17383 0.51637 0.24188 0.0
C1271 C 0.1694 0.49163 0.23955 0.0
C1272 C 0.15529 0.52835 0.24434 0.0
C1273 C 0.14644 0.47928 0.23958 0.0
C1274 C 0.13259 0.51539 0.24433 0.0
N1275 N 0.12866 0.49131 0.24195 0.0
C1276 C 0.24167 0.50341 0.25832 0.0
C1277 C 0.26983 0.52077 0.23469 0.0
C1278 C 0.25637 0.48884 0.26447 0.0
N1279 N 0.2488 0.51916 0.244 0.0
C1280 C 0.28517 0.50666 0.24051 0.0
C1281 C 0.27853 0.49063 0.25576 0.0
H1282 H 0.22491 0.50283 0.26566 0.0
H1283 H 0.27506 0.53366 0.22358 0.0
C1284 C 0.17197 0.56048 0.18048 0.0
N1285 N 0.17444 0.5418 0.19085 0.0
C1286 C 0.15394 0.55794 0.16248 0.0
C1287 C 0.14151 0.51677 0.16586 0.0
C1288 C 0.15997 0.52008 0.18375 0.0
C1289 C 0.13837 0.53593 0.15513 0.0
H1290 H 0.18389 0.57748 0.18652 0.0
H1291 H 0.16247 0.50548 0.1922 0.0
O1292 O 0.23728 0.57061 0.26706 0.0
O1293 O 0.19762 0.58063 0.23683 0.0
O1294 O 0.23066 0.55224 0.2096 0.0
O1295 O 0.19623 0.5286 0.24162 0.0
H1296 H 0.22933 0.54921 0.30411 0.0
H1297 H 0.28281 0.57833 0.26235 0.0
H1298 H 0.25979 0.5375 0.32904 0.0
H1299 H 0.31235 0.56611 0.28802 0.0
H1300 H 0.12995 0.60788 0.2307 0.0
H1301 H 0.21444 0.62595 0.25748 0.0
H1302 H 0.15206 0.57546 0.22418 0.0
H1303 H 0.19126 0.65755 0.26295 0.0
H1304 H 0.28413 0.65583 0.2725 0.0
H1305 H 0.25524 0.65109 0.19896 0.0
H1306 H 0.16052 0.5329 0.3267 0.0
H1307 H 0.16389 0.60703 0.32441 0.0
H1308 H 0.21575 0.55412 0.16495 0.0
H1309 H 0.27577 0.57267 0.21784 0.0
H1310 H 0.24028 0.57259 0.13636 0.0
H1311 H 0.29934 0.59043 0.18818 0.0
H1312 H 0.18357 0.48208 0.23761 0.0
H1313 H 0.15845 0.54746 0.24644 0.0
H1314 H 0.14275 0.46012 0.23771 0.0
H1315 H 0.1181 0.52447 0.24625 0.0
H1316 H 0.25061 0.47651 0.27613 0.0
H1317 H 0.30227 0.50878 0.23377 0.0
H1318 H 0.15229 0.57299 0.15428 0.0
H1319 H 0.12972 0.49956 0.16065 0.0
Li1320 Li 0.81344 0.90454 0.54752 0.0
Li1321 Li 0.83136 0.87709 0.56792 0.0
Li1322 Li 0.85704 0.9074 0.54899 0.0
Li1323 Li 0.83083 0.87248 0.52219 0.0
C1324 C 0.84209 0.93618 0.5877 0.0
N1325 N 0.85334 0.98357 0.61046 0.0
C1326 C 0.85023 0.94255 0.61226 0.0
C1327 C 0.83968 0.95388 0.57469 0.0
C1328 C 0.85581 0.96662 0.62345 0.0
C1329 C 0.84547 0.97774 0.58653 0.0
C1330 C 0.78874 0.85336 0.55212 0.0
C1331 C 0.77362 0.81315 0.55655 0.0
N1332 N 0.75974 0.82146 0.57326 0.0
C1333 C 0.77428 0.86152 0.56925 0.0
C1334 C 0.7884 0.82901 0.54563 0.0
C1335 C 0.75976 0.84509 0.57977 0.0
C1336 C 0.77815 0.91964 0.52323 0.0
N1337 N 0.78818 0.92089 0.54587 0.0
C1338 C 0.76132 0.944 0.5632 0.0
C1339 C 0.78017 0.93269 0.56578 0.0
C1340 C 0.75052 0.94284 0.53997 0.0
C1341 C 0.7593 0.93059 0.51983 0.0
H1342 H 0.78485 0.91008 0.50775 0.0
H1343 H 0.78835 0.93326 0.58362 0.0
C1344 C 0.83421 0.84324 0.60159 0.0
N1345 N 0.82784 0.86373 0.59801 0.0
C1346 C 0.83157 0.83575 0.62383 0.0
C1347 C 0.81592 0.8704 0.63855 0.0
C1348 C 0.81868 0.87713 0.61605 0.0
C1349 C 0.82256 0.84952 0.64292 0.0
H1350 H 0.84157 0.83271 0.58737 0.0
H1351 H 0.81349 0.89325 0.61301 0.0
C1352 C 0.84427 0.91532 0.50264 0.0
N1353 N 0.86439 0.93251 0.46467 0.0
C1354 C 0.86246 0.90588 0.49224 0.0
C1355 C 0.83632 0.93351 0.49379 0.0
C1356 C 0.87239 0.9148 0.47303 0.0
C1357 C 0.84673 0.94197 0.47457 0.0
C1358 C 0.86865 0.85506 0.53735 0.0
C1359 C 0.88966 0.86026 0.52692 0.0
C1360 C 0.85879 0.83145 0.53801 0.0
C1361 C 0.90055 0.84171 0.51743 0.0
C1362 C 0.87025 0.8134 0.52837 0.0
N1363 N 0.89071 0.81886 0.51836 0.0
C1364 C 0.9069 0.92448 0.56063 0.0
C1365 C 0.88765 0.95038 0.54321 0.0
C1366 C 0.92865 0.93984 0.56116 0.0
N1367 N 0.88694 0.9298 0.55147 0.0
C1368 C 0.90896 0.96621 0.5434 0.0
C1369 C 0.92994 0.96105 0.55238 0.0
H1370 H 0.90601 0.90811 0.56722 0.0
H1371 H 0.87168 0.95442 0.53603 0.0
C1372 C 0.80992 0.86174 0.47411 0.0
N1373 N 0.8259 0.85453 0.48806 0.0
C1374 C 0.80636 0.85337 0.44891 0.0
C1375 C 0.83518 0.82945 0.45244 0.0
C1376 C 0.83841 0.83852 0.47762 0.0
C1377 C 0.81907 0.83694 0.43751 0.0
H1378 H 0.80045 0.87483 0.48248 0.0
H1379 H 0.85137 0.83314 0.48853 0.0
O1380 O 0.83664 0.9127 0.57649 0.0
O1381 O 0.80358 0.86921 0.5422 0.0
O1382 O 0.83443 0.90698 0.52158 0.0
O1383 O 0.85789 0.873 0.54702 0.0
H1384 H 0.85223 0.92903 0.62256 0.0
H1385 H 0.83348 0.94925 0.55565 0.0
H1386 H 0.86213 0.97183 0.64246 0.0
H1387 H 0.84372 0.99164 0.57668 0.0
H1388 H 0.7732 0.79424 0.55176 0.0
H1389 H 0.77448 0.88036 0.57455 0.0
H1390 H 0.7995 0.82246 0.53236 0.0
H1391 H 0.74856 0.85115 0.59316 0.0
H1392 H 0.75505 0.95328 0.57918 0.0
H1393 H 0.75184 0.92969 0.50159 0.0
H1394 H 0.83698 0.81952 0.62622 0.0
H1395 H 0.80841 0.8814 0.65235 0.0
H1396 H 0.86883 0.89185 0.49895 0.0
H1397 H 0.82236 0.9411 0.50179 0.0
H1398 H 0.88647 0.90766 0.46478 0.0
H1399 H 0.84079 0.95607 0.46755 0.0
H1400 H 0.89749 0.87843 0.52615 0.0
H1401 H 0.84233 0.82708 0.54559 0.0
H1402 H 0.91682 0.84547 0.50931 0.0
H1403 H 0.8628 0.79504 0.52873 0.0
H1404 H 0.94433 0.93511 0.56829 0.0
H1405 H 0.90904 0.982 0.53591 0.0
H1406 H 0.79432 0.86046 0.43842 0.0
H1407 H 0.84546 0.81685 0.44471 0.0
Li1408 Li 0.95414 0.06857 0.30214 0.0
Li1409 Li 0.91836 0.03778 0.2731 0.0
Li1410 Li 0.95191 0.06499 0.25214 0.0
Li1411 Li 0.92186 0.09089 0.27714 0.0
C1412 C 0.96945 0.02668 0.26968 0.0
N1413 N 1.00215 0.99848 0.26069 0.0
C1414 C 0.96275 1.00376 0.25549 0.0
C1415 C 0.99276 0.03535 0.27918 0.0
C1416 C 0.97956 0.98975 0.25119 0.0
C1417 C 1.00904 0.0208 0.27445 0.0
C1418 C 0.91142 0.06659 0.32484 0.0
C1419 C 0.89729 0.08589 0.36098 0.0
N1420 N 0.89897 0.06693 0.37133 0.0
C1421 C 0.91301 0.04729 0.33579 0.0
C1422 C 0.90355 0.08608 0.33749 0.0
C1423 C 0.90666 0.04782 0.35934 0.0
C1424 C 0.98152 0.08655 0.35522 0.0
N1425 N 0.97286 0.06721 0.33687 0.0
C1426 C 0.98628 0.04246 0.36361 0.0
C1427 C 0.97524 0.04536 0.34128 0.0
C1428 C 0.99565 0.06205 0.38291 0.0
C1429 C 0.99268 0.08438 0.3779 0.0
H1430 H 0.97976 0.10404 0.35258 0.0
H1431 H 0.96823 0.02966 0.32747 0.0
C1432 C 0.87862 0.98993 0.26006 0.0
N1433 N 0.89979 1.00122 0.27278 0.0
C1434 C 0.86818 0.96556 0.26025 0.0
C1435 C 0.90085 0.96376 0.28657 0.0
C1436 C 0.91065 0.98807 0.28595 0.0
C1437 C 0.87919 0.95139 0.27343 0.0
H1438 H 0.86956 0.99966 0.24939 0.0
H1439 H 0.92732 0.99636 0.29621 0.0
C1440 C 0.97664 0.11171 0.27595 0.0
N1441 N 1.01335 0.14445 0.26536 0.0
C1442 C 0.97245 0.12718 0.26082 0.0
C1443 C 0.99944 0.11284 0.28571 0.0
C1444 C 0.99126 0.14362 0.25568 0.0
C1445 C 0.01778 0.12955 0.28014 0.0
C1446 C 0.90823 0.05775 0.22388 0.0
C1447 C 0.91078 0.07757 0.21295 0.0
C1448 C 0.89856 0.03511 0.21015 0.0
C1449 C 0.90366 0.07436 0.1883 0.0
C1450 C 0.89164 0.03265 0.18554 0.0
N1451 N 0.89433 0.05216 0.17522 0.0
C1452 C 0.96181 0.04606 0.19772 0.0
C1453 C 0.99291 0.07594 0.21766 0.0
C1454 C 0.97346 0.04375 0.17581 0.0
N1455 N 0.9712 0.06217 0.21866 0.0
C1456 C 1.00519 0.07406 0.19615 0.0
C1457 C 0.99578 0.0579 0.17401 0.0
H1458 H 0.94496 0.03456 0.19765 0.0
H1459 H 1.00123 0.08859 0.23373 0.0
C1460 C 0.91608 0.1469 0.28835 0.0
N1461 N 0.90422 0.12389 0.27859 0.0
C1462 C 0.9057 0.16779 0.28914 0.0
C1463 C 0.87044 0.14264 0.26983 0.0
C1464 C 0.88142 0.1222 0.26933 0.0
C1465 C 0.88207 0.1667 0.28003 0.0
H1466 H 0.9341 0.14956 0.29577 0.0
H1467 H 0.8712 0.10475 0.2611 0.0
O1468 O 0.95329 0.04063 0.27427 0.0
O1469 O 0.91787 0.06653 0.30196 0.0
O1470 O 0.95852 0.09535 0.28097 0.0
O1471 O 0.91532 0.0605 0.24789 0.0
H1472 H 0.94477 0.99688 0.2479 0.0
H1473 H 0.99818 0.05311 0.29015 0.0
H1474 H 0.97464 0.97194 0.2403 0.0
H1475 H 0.02714 0.02723 0.28174 0.0
H1476 H 0.89112 0.10083 0.371 0.0
H1477 H 0.91924 0.03217 0.32626 0.0
H1478 H 0.9023 0.10117 0.32923 0.0
H1479 H 0.90786 0.03304 0.36808 0.0
H1480 H 0.98681 0.02455 0.36576 0.0
H1481 H 0.99919 0.10043 0.39143 0.0
H1482 H 0.85159 0.95775 0.24963 0.0
H1483 H 0.91034 0.95491 0.29782 0.0
H1484 H 0.95486 0.12643 0.2531 0.0
H1485 H 1.00292 0.10092 0.29742 0.0
H1486 H 0.98832 0.1557 0.24397 0.0
H1487 H 0.03554 0.13064 0.28754 0.0
H1488 H 0.91826 0.09521 0.2234 0.0
H1489 H 0.89657 0.0196 0.21839 0.0
H1490 H 0.90557 0.08952 0.17955 0.0
H1491 H 0.88419 0.01523 0.17464 0.0
H1492 H 0.9646 0.03084 0.16013 0.0
H1493 H 0.02244 0.08515 0.19738 0.0
H1494 H 0.91648 0.18497 0.29733 0.0
H1495 H 0.85269 0.1392 0.2615 0.0
Li1496 Li 0.32866 0.64696 0.57228 0.0
Li1497 Li 0.34797 0.61411 0.54605 0.0
Li1498 Li 0.32608 0.64248 0.52734 0.0
Li1499 Li 0.30188 0.61176 0.54531 0.0
C1500 C 0.37328 0.66778 0.5615 0.0
N1501 N 0.41055 0.70308 0.58439 0.0
C1502 C 0.39196 0.66191 0.57404 0.0
C1503 C 0.37355 0.6916 0.5606 0.0
C1504 C 0.41066 0.68002 0.58547 0.0
C1505 C 0.39254 0.70918 0.57231 0.0
C1506 C 0.31422 0.59538 0.58481 0.0
C1507 C 0.30293 0.55466 0.58946 0.0
N1508 N 0.2886 0.56146 0.6064 0.0
C1509 C 0.29952 0.60201 0.60238 0.0
C1510 C 0.31606 0.57156 0.57836 0.0
C1511 C 0.28665 0.58457 0.61303 0.0
C1512 C 0.30665 0.67295 0.60842 0.0
N1513 N 0.3284 0.67058 0.60219 0.0
C1514 C 0.34573 0.70297 0.63503 0.0
C1515 C 0.34783 0.68512 0.61525 0.0
C1516 C 0.32343 0.70586 0.64179 0.0
C1517 C 0.30377 0.69046 0.62806 0.0
H1518 H 0.29136 0.66136 0.59788 0.0
H1519 H 0.36501 0.68318 0.61027 0.0
C1520 C 0.39208 0.60982 0.52501 0.0
N1521 N 0.37837 0.60105 0.54144 0.0
C1522 C 0.41411 0.60375 0.52112 0.0
C1523 C 0.40813 0.57914 0.55071 0.0
C1524 C 0.38615 0.58577 0.55415 0.0
C1525 C 0.4229 0.58836 0.5342 0.0
H1526 H 0.38606 0.62194 0.51492 0.0
H1527 H 0.37552 0.57888 0.56733 0.0
C1528 C 0.29077 0.66329 0.54541 0.0
N1529 N 0.26879 0.69912 0.53635 0.0
C1530 C 0.26807 0.65767 0.53374 0.0
C1531 C 0.30225 0.68711 0.55254 0.0
C1532 C 0.25727 0.67605 0.5293 0.0
C1533 C 0.29085 0.70497 0.54779 0.0
C1534 C 0.31348 0.58628 0.50186 0.0
C1535 C 0.2991 0.58612 0.48115 0.0
C1536 C 0.31862 0.56496 0.50628 0.0
C1537 C 0.28983 0.56448 0.4653 0.0
C1538 C 0.30899 0.5437 0.49002 0.0
N1539 N 0.2949 0.5439 0.47005 0.0
C1540 C 0.34418 0.6753 0.49762 0.0
C1541 C 0.30433 0.65593 0.48817 0.0
C1542 C 0.34229 0.68899 0.47998 0.0
N1543 N 0.3252 0.65947 0.50162 0.0
C1544 C 0.30163 0.66922 0.47046 0.0
C1545 C 0.32069 0.68619 0.46635 0.0
H1546 H 0.36067 0.67759 0.50837 0.0
H1547 H 0.28959 0.64307 0.49154 0.0
C1548 C 0.25538 0.60648 0.56075 0.0
N1549 N 0.26743 0.59561 0.5435 0.0
C1550 C 0.23074 0.60044 0.55974 0.0
C1551 C 0.23049 0.57164 0.5233 0.0
C1552 C 0.25529 0.57822 0.52502 0.0
C1553 C 0.21761 0.58284 0.54075 0.0
H1554 H 0.26484 0.62083 0.57489 0.0
H1555 H 0.26461 0.5698 0.51109 0.0
O1556 O 0.35488 0.65027 0.55014 0.0
O1557 O 0.32658 0.61211 0.57385 0.0
O1558 O 0.30177 0.64553 0.54963 0.0
O1559 O 0.32279 0.60724 0.51755 0.0
H1560 H 0.39197 0.6436 0.57507 0.0
H1561 H 0.35925 0.69649 0.55103 0.0
H1562 H 0.42523 0.67574 0.59525 0.0
H1563 H 0.39296 0.72769 0.5718 0.0
H1564 H 0.30413 0.53614 0.58461 0.0
H1565 H 0.29799 0.6204 0.60763 0.0
H1566 H 0.3275 0.5662 0.56493 0.0
H1567 H 0.27511 0.58942 0.62656 0.0
H1568 H 0.36147 0.71461 0.64471 0.0
H1569 H 0.28624 0.69176 0.63259 0.0
H1570 H 0.42409 0.61103 0.5077 0.0
H1571 H 0.41374 0.56726 0.5614 0.0
H1572 H 0.25899 0.63932 0.52788 0.0
H1573 H 0.31977 0.69176 0.56165 0.0
H1574 H 0.23975 0.67196 0.52018 0.0
H1575 H 0.29955 0.72349 0.55318 0.0
H1576 H 0.29508 0.60248 0.47738 0.0
H1577 H 0.33 0.56488 0.52205 0.0
H1578 H 0.27859 0.56406 0.44925 0.0
H1579 H 0.31275 0.52704 0.49325 0.0
H1580 H 0.35734 0.70206 0.47752 0.0
H1581 H 0.28476 0.66638 0.46017 0.0
H1582 H 0.22201 0.61026 0.57334 0.0
H1583 H 0.22147 0.55798 0.50826 0.0
Li1584 Li 0.41807 0.53778 0.77277 0.0
Li1585 Li 0.45276 0.56826 0.80233 0.0
Li1586 Li 0.4203 0.59041 0.77689 0.0
Li1587 Li 0.45137 0.5653 0.7513 0.0
C1588 C 0.40822 0.56483 0.82354 0.0
N1589 N 0.39199 0.56297 0.86826 0.0
C1590 C 0.40833 0.54471 0.8336 0.0
C1591 C 0.39986 0.584 0.83617 0.0
C1592 C 0.40004 0.54411 0.85624 0.0
C1593 C 0.39172 0.58271 0.85878 0.0
C1594 C 0.46251 0.52141 0.77416 0.0
C1595 C 0.48357 0.49201 0.756 0.0
N1596 N 0.48065 0.48126 0.77534 0.0
C1597 C 0.45971 0.51011 0.79386 0.0
C1598 C 0.47451 0.51234 0.75505 0.0
C1599 C 0.46901 0.48981 0.79411 0.0
C1600 C 0.40712 0.48196 0.75839 0.0
N1601 N 0.39916 0.50082 0.77127 0.0
C1602 C 0.36958 0.47101 0.78469 0.0
C1603 C 0.38044 0.49519 0.78429 0.0
C1604 C 0.37745 0.4511 0.77164 0.0
C1605 C 0.39684 0.45755 0.75846 0.0
H1606 H 0.4219 0.4856 0.74801 0.0
H1607 H 0.37387 0.50949 0.79497 0.0
C1608 C 0.4642 0.57547 0.85941 0.0
N1609 N 0.47202 0.56769 0.83738 0.0
C1610 C 0.47534 0.57322 0.88205 0.0
C1611 C 0.50332 0.55548 0.86036 0.0
C1612 C 0.49163 0.55793 0.8381 0.0
C1613 C 0.49534 0.56275 0.88342 0.0
H1614 H 0.44887 0.58333 0.85977 0.0
H1615 H 0.49844 0.55165 0.82122 0.0
C1616 C 0.40753 0.55686 0.72331 0.0
N1617 N 0.3938 0.54989 0.67446 0.0
C1618 C 0.40833 0.57639 0.71214 0.0
C1619 C 0.39972 0.53379 0.70973 0.0
C1620 C 0.40132 0.57249 0.68739 0.0
C1621 C 0.39285 0.53064 0.68502 0.0
C1622 C 0.47504 0.61241 0.77699 0.0
C1623 C 0.47081 0.62854 0.76266 0.0
C1624 C 0.49777 0.6136 0.78698 0.0
C1625 C 0.48952 0.64574 0.75858 0.0
C1626 C 0.516 0.63107 0.78248 0.0
N1627 N 0.51153 0.64663 0.7685 0.0
C1628 C 0.41389 0.64629 0.78706 0.0
C1629 C 0.37877 0.62088 0.77042 0.0
C1630 C 0.4031 0.66693 0.7879 0.0
N1631 N 0.40203 0.62305 0.77842 0.0
C1632 C 0.36737 0.64106 0.77103 0.0
C1633 C 0.37902 0.66534 0.78005 0.0
H1634 H 0.43222 0.64935 0.79353 0.0
H1635 H 0.36849 0.60323 0.76313 0.0
C1636 C 0.4627 0.54609 0.69736 0.0
N1637 N 0.47064 0.56364 0.71766 0.0
C1638 C 0.47431 0.54439 0.67539 0.0
C1639 C 0.50295 0.57847 0.69427 0.0
C1640 C 0.49079 0.57962 0.71589 0.0
C1641 C 0.49502 0.56075 0.6728 0.0
H1642 H 0.44709 0.53293 0.69788 0.0
H1643 H 0.49795 0.59358 0.73141 0.0
O1644 O 0.41654 0.56588 0.80157 0.0
O1645 O 0.45348 0.54124 0.77353 0.0
O1646 O 0.41466 0.5603 0.7474 0.0
O1647 O 0.45704 0.59527 0.78091 0.0
H1648 H 0.41486 0.52978 0.82407 0.0
H1649 H 0.39974 0.59972 0.8286 0.0
H1650 H 0.40007 0.52868 0.86429 0.0
H1651 H 0.38522 0.59742 0.8688 0.0
H1652 H 0.49291 0.48477 0.74135 0.0
H1653 H 0.45043 0.51693 0.80876 0.0
H1654 H 0.4768 0.52092 0.73968 0.0
H1655 H 0.46697 0.48085 0.80924 0.0
H1656 H 0.35534 0.46814 0.79591 0.0
H1657 H 0.40413 0.44372 0.74787 0.0
H1658 H 0.46778 0.57938 0.8985 0.0
H1659 H 0.51891 0.54808 0.85919 0.0
H1660 H 0.41441 0.59435 0.72247 0.0
H1661 H 0.39911 0.51851 0.71817 0.0
H1662 H 0.40188 0.58742 0.67845 0.0
H1663 H 0.38682 0.51289 0.67424 0.0
H1664 H 0.4533 0.62769 0.75468 0.0
H1665 H 0.50128 0.60113 0.79804 0.0
H1666 H 0.48654 0.65834 0.74751 0.0
H1667 H 0.53371 0.63222 0.79008 0.0
H1668 H 0.41394 0.68432 0.79514 0.0
H1669 H 0.34925 0.63722 0.76374 0.0
H1670 H 0.46664 0.53016 0.66026 0.0
H1671 H 0.51897 0.59143 0.69488 0.0
Li1672 Li 0.69802 0.06074 0.76479 0.0
Li1673 Li 0.72472 0.07571 0.73691 0.0
Li1674 Li 0.68707 0.05038 0.72244 0.0
Li1675 Li 0.7186 0.03521 0.73971 0.0
C1676 C 0.68574 0.09993 0.75766 0.0
N1677 N 0.67059 0.13499 0.78917 0.0
C1678 C 0.70083 0.12186 0.76686 0.0
C1679 C 0.66289 0.0959 0.76453 0.0
C1680 C 0.69284 0.13935 0.78272 0.0
C1681 C 0.6556 0.11381 0.7805 0.0
C1682 C 0.74783 0.05585 0.77942 0.0
C1683 C 0.78576 0.04628 0.78598 0.0
N1684 N 0.77927 0.03887 0.80651 0.0
C1685 C 0.74155 0.0482 0.80063 0.0
C1686 C 0.77014 0.055 0.77207 0.0
C1687 C 0.75769 0.03965 0.81406 0.0
C1688 C 0.6667 0.05182 0.79814 0.0
N1689 N 0.68624 0.06722 0.79492 0.0
C1690 C 0.68381 0.09341 0.83209 0.0
C1691 C 0.69543 0.08734 0.81165 0.0
C1692 C 0.66275 0.0785 0.83494 0.0
C1693 C 0.65456 0.05716 0.81815 0.0
H1694 H 0.66016 0.03574 0.78479 0.0
H1695 H 0.71117 0.09911 0.80857 0.0
C1696 C 0.73688 0.11461 0.71577 0.0
N1697 N 0.74516 0.10288 0.73194 0.0
C1698 C 0.74843 0.13746 0.71472 0.0
C1699 C 0.77746 0.13519 0.74612 0.0
C1700 C 0.76536 0.11227 0.7465 0.0
C1701 C 0.76841 0.1483 0.73073 0.0
H1702 H 0.72038 0.10688 0.70497 0.0
H1703 H 0.7711 0.10272 0.75961 0.0
C1704 C 0.667 1.01119 0.73398 0.0
N1705 N 0.63032 0.97657 0.70872 0.0
C1706 C 0.67137 0.99028 0.72012 0.0
C1707 C 0.64395 0.01447 0.73501 0.0
C1708 C 0.65259 0.97299 0.7075 0.0
C1709 C 0.62566 0.99677 0.72208 0.0
C1710 C 0.73004 0.05632 0.69252 0.0
C1711 C 0.71846 0.06204 0.67274 0.0
C1712 C 0.7545 0.0604 0.69501 0.0
C1713 C 0.73159 0.07194 0.65585 0.0
C1714 C 0.767 0.07038 0.67776 0.0
N1715 N 0.75538 0.07589 0.6587 0.0
C1716 C 0.649 0.06285 0.70095 0.0
C1717 C 0.65794 0.02726 0.67925 0.0
C1718 C 0.63183 0.06256 0.68284 0.0
N1719 N 0.66186 0.04564 0.69868 0.0
C1720 C 0.6409 0.02629 0.66054 0.0
C1721 C 0.62824 0.04457 0.66208 0.0
H1722 H 0.65282 0.07753 0.7162 0.0
H1723 H 0.66877 1.01406 0.6778 0.0
C1724 C 0.72721 0.99805 0.75924 0.0
N1725 N 0.73331 1.00968 0.74112 0.0
C1726 C 0.74091 0.98307 0.76637 0.0
C1727 C 0.76578 0.99083 0.73467 0.0
C1728 C 0.75164 1.00587 0.72825 0.0
C1729 C 0.76082 0.97998 0.75449 0.0
H1730 H 0.71266 1.00178 0.76925 0.0
H1731 H 0.75612 0.0156 0.71409 0.0
O1732 O 0.69328 0.08244 0.74223 0.0
O1733 O 0.73218 0.06405 0.76588 0.0
O1734 O 0.6852 0.02852 0.74615 0.0
O1735 O 0.7175 0.0469 0.70942 0.0
H1736 H 0.7186 0.12535 0.76204 0.0
H1737 H 0.65106 0.07891 0.75803 0.0
H1738 H 0.70437 0.15636 0.78998 0.0
H1739 H 0.63807 0.11082 0.78611 0.0
H1740 H 0.80301 0.04533 0.78041 0.0
H1741 H 0.72433 0.04861 0.80654 0.0
H1742 H 0.77523 0.06071 0.75563 0.0
H1743 H 0.75303 0.03355 0.83044 0.0
H1744 H 0.69066 0.10986 0.84498 0.0
H1745 H 0.6387 0.04496 0.8203 0.0
H1746 H 0.7409 0.14723 0.70283 0.0
H1747 H 0.7925 0.14327 0.75913 0.0
H1748 H 0.68907 0.9875 0.71891 0.0
H1749 H 0.64025 0.03071 0.74529 0.0
H1750 H 0.65572 0.95676 0.69665 0.0
H1751 H 0.60777 0.99916 0.72258 0.0
H1752 H 0.69956 0.05911 0.67055 0.0
H1753 H 0.76376 0.05638 0.71036 0.0
H1754 H 0.72287 0.07656 0.64051 0.0
H1755 H 0.78594 0.07383 0.67958 0.0
H1756 H 0.62239 0.07696 0.68439 0.0
H1757 H 0.63865 1.01236 0.64446 0.0
H1758 H 0.73662 0.97482 0.78166 0.0
H1759 H 0.78114 0.98883 0.72526 0.0
Li1760 Li 0.79395 0.72436 0.03618 0.0
Li1761 Li 0.81065 0.69267 1.01272 0.0
Li1762 Li 0.7937 0.72185 0.99025 0.0
Li1763 Li 0.76703 0.68984 1.00881 0.0
C1764 C 0.83802 0.7475 0.02446 0.0
N1765 N 0.87255 0.78748 0.04227 0.0
C1766 C 0.85721 0.74604 0.03966 0.0
C1767 C 0.83649 0.76922 0.01813 0.0
C1768 C 0.87446 0.76648 0.04852 0.0
C1769 C 0.8541 0.78926 0.02738 0.0
C1770 C 0.78913 0.67215 0.04912 0.0
C1771 C 0.78099 0.63022 0.04977 0.0
N1772 N 0.79148 0.63517 0.0728 0.0
C1773 C 0.79969 0.67685 0.07285 0.0
C1774 C 0.77959 0.64867 0.03751 0.0
C1775 C 0.80077 0.6579 0.08448 0.0
C1776 C 0.78166 0.73276 0.08444 0.0
N1777 N 0.797 0.74265 0.07005 0.0
C1778 C 0.8179 0.77033 0.10521 0.0
C1779 C 0.81465 0.76153 0.07999 0.0
C1780 C 0.80278 0.75984 0.12054 0.0
C1781 C 0.78414 0.74114 0.10963 0.0
H1782 H 0.76793 0.7176 0.07646 0.0
H1783 H 0.82668 0.76949 0.06862 0.0
C1784 C 0.843 0.66291 0.99514 0.0
N1785 N 0.83581 0.67595 1.01484 0.0
C1786 C 0.86183 0.65157 0.99781 0.0
C1787 C 0.86564 0.66756 0.04082 0.0
C1788 C 0.84682 0.67851 0.03733 0.0
C1789 C 0.87352 0.65402 0.0209 0.0
H1790 H 0.83431 0.66149 0.97734 0.0
H1791 H 0.84115 0.68936 0.05263 0.0
C1792 C 0.75978 0.74481 0.02255 0.0
N1793 N 0.74597 0.7851 0.046 0.0
C1794 C 0.74411 0.74318 0.04024 0.0
C1795 C 0.76827 0.76686 0.01661 0.0
C1796 C 0.7374 0.76378 0.05195 0.0
C1797 C 0.76111 0.78704 0.02871 0.0
C1798 C 0.78171 0.66665 0.96402 0.0
C1799 C 0.77189 0.66965 0.94192 0.0
C1800 C 0.78406 0.64395 0.96701 0.0
C1801 C 0.76443 0.64979 0.92318 0.0
C1802 C 0.77637 0.62455 0.94784 0.0
N1803 N 0.76679 0.62784 0.9265 0.0
C1804 C 0.819 0.7413 0.95296 0.0
C1805 C 0.77839 0.74043 0.94857 0.0
C1806 C 0.8219 0.74958 0.93117 0.0
N1807 N 0.79744 0.73667 0.96122 0.0
C1808 C 0.78051 0.74861 0.92667 0.0
C1809 C 0.80244 0.75295 0.9173 0.0
H1810 H 0.83397 0.73806 0.96301 0.0
H1811 H 0.76135 0.73661 0.95521 0.0
C1812 C 0.72551 0.66994 0.02745 0.0
N1813 N 0.73646 0.66806 1.00674 0.0
C1814 C 0.70391 0.65499 0.02853 0.0
C1815 C 0.7052 0.63574 0.98713 0.0
C1816 C 0.72666 0.65134 0.9867 0.0
C1817 C 0.69341 0.63758 1.00819 0.0
H1818 H 0.73368 0.68299 0.04331 0.0
H1819 H 0.73538 0.64995 0.97033 0.0
O1820 O 0.82103 0.72768 0.01545 0.0
O1821 O 0.78797 0.69049 0.03743 0.0
O1822 O 0.76691 0.72495 1.01119 0.0
O1823 O 0.78911 0.68589 0.98253 0.0
H1824 H 0.85874 0.72936 0.04464 0.0
H1825 H 0.8219 0.7706 1.00618 0.0
H1826 H 0.88936 0.76564 0.06038 0.0
H1827 H 0.85311 0.80621 0.02269 0.0
H1828 H 0.77371 0.61195 0.04099 0.0
H1829 H 0.80724 0.69492 0.08209 0.0
H1830 H 0.77114 0.64473 0.01927 0.0
H1831 H 0.80903 0.66127 0.10279 0.0
H1832 H 0.83221 0.78515 0.11264 0.0
H1833 H 0.77201 0.73242 0.12057 0.0
H1834 H 0.86744 0.64135 0.98198 0.0
H1835 H 0.87386 0.66959 0.05898 0.0
H1836 H 0.73732 0.72623 0.04497 0.0
H1837 H 0.78021 0.76835 1.00277 0.0
H1838 H 0.72538 0.76282 0.06578 0.0
H1839 H 0.76757 0.80424 0.02434 0.0
H1840 H 0.76999 0.68711 0.9393 0.0
H1841 H 0.79179 0.64135 0.98392 0.0
H1842 H 0.75674 0.65182 0.90599 0.0
H1843 H 0.77805 0.60687 0.94991 0.0
H1844 H 0.83917 0.7526 0.92486 0.0
H1845 H 0.765 0.75141 0.9171 0.0
H1846 H 0.6956 0.65684 0.04525 0.0
H1847 H 0.69771 0.62261 0.97102 0.0
Li1848 Li 0.90019 0.51877 0.82036 0.0
Li1849 Li 0.93695 0.54539 0.8366 0.0
Li1850 Li 0.90609 0.5588 0.81609 0.0
Li1851 Li 0.92841 0.53288 0.79396 0.0
C1852 C 0.89313 0.53746 0.86346 0.0
N1853 N 0.86831 0.5147 0.89564 0.0
C1854 C 0.90497 0.52992 0.88185 0.0
C1855 C 0.86867 0.53354 0.8615 0.0
C1856 C 0.8921 0.51843 0.89793 0.0
C1857 C 0.85645 0.52195 0.87792 0.0
C1858 C 0.94298 0.49635 0.80524 0.0
C1859 C 0.97719 0.48565 0.78778 0.0
N1860 N 0.96438 0.4636 0.77782 0.0
C1861 C 0.93017 0.47357 0.7948 0.0
C1862 C 0.96671 0.50242 0.80173 0.0
C1863 C 0.94131 0.45726 0.78104 0.0
C1864 C 0.85743 0.48568 0.81153 0.0
N1865 N 0.87887 0.49154 0.8242 0.0
C1866 C 0.87322 0.45404 0.8363 0.0
C1867 C 0.88663 0.47669 0.83721 0.0
C1868 C 0.8516 0.44692 0.82208 0.0
C1869 C 0.84329 0.46338 0.81041 0.0
H1870 H 0.85187 0.49775 0.80118 0.0
H1871 H 0.90395 0.48182 0.84683 0.0
C1872 C 0.96485 0.57433 0.87769 0.0
N1873 N 0.96119 0.55314 0.8618 0.0
C1874 C 0.9828 0.57982 0.89642 0.0
C1875 C 0.99236 0.54134 0.8823 0.0
C1876 C 0.97441 0.53672 0.86376 0.0
C1877 C 0.99663 0.56306 0.89897 0.0
H1878 H 0.9536 0.58675 0.87602 0.0
H1879 H 0.97052 0.51968 0.85147 0.0
C1880 C 0.88037 0.53795 0.77493 0.0
N1881 N 0.85301 0.5563 0.74465 0.0
C1882 C 0.88883 0.54436 0.75391 0.0
C1883 C 0.85791 0.54075 0.78045 0.0
C1884 C 0.87473 0.5536 0.73884 0.0
C1885 C 0.84439 0.55013 0.76496 0.0
C1886 C 0.958 0.58378 0.82218 0.0
C1887 C 0.95364 0.60578 0.83337 0.0
C1888 C 0.98106 0.58037 0.82218 0.0
C1889 C 0.97243 0.62398 0.84439 0.0
C1890 C 0.99935 0.599 0.83345 0.0
N1891 N 0.99469 0.62024 0.84423 0.0
C1892 C 0.87274 0.58805 0.82463 0.0
C1893 C 0.89928 0.59622 0.79547 0.0
C1894 C 0.85974 0.60393 0.818 0.0
N1895 N 0.89171 0.58418 0.81288 0.0
C1896 C 0.88694 0.61234 0.78841 0.0
C1897 C 0.86668 0.6159 0.79941 0.0
H1898 H 0.86709 0.57797 0.83821 0.0
H1899 H 0.91423 0.59234 0.78624 0.0
C1900 C 0.93381 0.50414 0.74932 0.0
N1901 N 0.94186 0.52522 0.76503 0.0
C1902 C 0.94596 0.4977 0.72943 0.0
C1903 C 0.97335 0.5355 0.74167 0.0
C1904 C 0.96075 0.54113 0.76123 0.0
C1905 C 0.96633 0.5133 0.72596 0.0
H1906 H 0.91838 0.49211 0.75267 0.0
H1907 H 0.96622 0.55805 0.77358 0.0
O1908 O 0.90538 0.54815 0.84713 0.0
O1909 O 0.9323 0.51274 0.81847 0.0
O1910 O 0.89413 0.52936 0.79022 0.0
O1911 O 0.93981 0.56564 0.81143 0.0
H1912 H 0.92387 0.53267 0.88357 0.0
H1913 H 0.85921 0.53891 0.84715 0.0
H1914 H 0.90103 0.51241 0.91219 0.0
H1915 H 0.83751 0.51861 0.87649 0.0
H1916 H 0.99547 0.4902 0.78477 0.0
H1917 H 0.91174 0.46859 0.79694 0.0
H1918 H 0.97686 0.52005 0.80935 0.0
H1919 H 0.93157 0.43961 0.77279 0.0
H1920 H 0.88052 0.44171 0.84509 0.0
H1921 H 0.82669 0.4585 0.79931 0.0
H1922 H 0.98535 0.59658 0.90925 0.0
H1923 H 1.00193 0.52754 0.88429 0.0
H1924 H 0.90618 0.54253 0.74935 0.0
H1925 H 0.85121 0.53639 0.79687 0.0
H1926 H 0.88112 0.55873 0.72259 0.0
H1927 H 0.82711 0.55267 0.76919 0.0
H1928 H 0.93596 0.60873 0.83386 0.0
H1929 H 0.98479 0.56341 0.81389 0.0
H1930 H 0.96929 0.64105 0.8532 0.0
H1931 H 0.01724 0.59653 0.83371 0.0
H1932 H 0.84416 0.6064 0.82682 0.0
H1933 H 0.89252 0.62106 0.77377 0.0
H1934 H 0.93993 0.48061 0.7173 0.0
H1935 H 0.98853 0.54828 0.73892 0.0
Li1936 Li 0.7952 0.45286 0.52478 0.0
Li1937 Li 0.77577 0.48205 0.50942 0.0
Li1938 Li 0.79452 0.45003 0.48131 0.0
Li1939 Li 0.8233 0.48321 0.5096 0.0
C1940 C 0.751 0.42931 0.50845 0.0
N1941 N 0.71877 0.39498 0.52339 0.0
C1942 C 0.73094 0.43509 0.51835 0.0
C1943 C 0.75461 0.40604 0.50613 0.0
C1944 C 0.71485 0.41749 0.52577 0.0
C1945 C 0.73815 0.38896 0.51382 0.0
C1946 C 0.80441 0.48932 0.56114 0.0
C1947 C 0.82878 0.49172 0.59784 0.0
N1948 N 0.80932 0.48846 0.60992 0.0
C1949 C 0.78465 0.48603 0.57392 0.0
C1950 C 0.82667 0.49226 0.57318 0.0
C1951 C 0.7875 0.48567 0.59858 0.0
C1952 C 0.81685 0.42972 0.5557 0.0
N1953 N 0.79566 0.43481 0.55018 0.0
C1954 C 0.77949 0.41618 0.5816 0.0
C1955 C 0.77714 0.42849 0.56286 0.0
C1956 C 0.80121 0.41073 0.58758 0.0
C1957 C 0.81999 0.41754 0.57427 0.0
H1958 H 0.83149 0.43538 0.54583 0.0
H1959 H 0.76067 0.43342 0.55887 0.0
C1960 C 0.72928 0.49156 0.49425 0.0
N1961 N 0.74646 0.49723 0.51309 0.0
C1962 C 0.70722 0.49803 0.49688 0.0
C1963 C 0.72038 0.51675 0.53814 0.0
C1964 C 0.74232 0.51013 0.53468 0.0
C1965 C 0.70191 0.51029 0.51931 0.0
H1966 H 0.73234 0.48127 0.47715 0.0
H1967 H 0.75579 0.51481 0.54969 0.0
C1968 C 0.83147 0.43192 0.49255 0.0
N1969 N 0.85266 0.39772 0.4673 0.0
C1970 C 0.84964 0.43847 0.47852 0.0
C1971 C 0.82423 0.408 0.49389 0.0
C1972 C 0.8601 0.42091 0.46586 0.0
C1973 C 0.83512 0.39097 0.48095 0.0
C1974 C 0.80701 0.50707 0.47623 0.0
C1975 C 0.82126 0.50857 0.4573 0.0
C1976 C 0.80134 0.52769 0.48926 0.0
C1977 C 0.8296 0.53079 0.45167 0.0
C1978 C 0.81003 0.54958 0.48307 0.0
N1979 N 0.82387 0.55066 0.46457 0.0
C1980 C 0.77819 0.40622 0.4453 0.0
C1981 C 0.80991 0.4329 0.43481 0.0
C1982 C 0.7803 0.38851 0.42544 0.0
N1983 N 0.79326 0.42779 0.45004 0.0
C1984 C 0.81268 0.41571 0.4148 0.0
C1985 C 0.79816 0.39286 0.41017 0.0
H1986 H 0.76493 0.40238 0.45734 0.0
H1987 H 0.82182 0.45002 0.4388 0.0
C1988 C 0.87193 0.4855 0.52442 0.0
N1989 N 0.85833 0.49836 0.51415 0.0
C1990 C 0.89663 0.49172 0.52645 0.0
C1991 C 0.89375 0.52533 0.50849 0.0
C1992 C 0.86896 0.51827 0.50649 0.0
C1993 C 0.90828 0.51174 0.51813 0.0
H1994 H 0.8636 0.46975 0.53055 0.0
H1995 H 0.85834 0.52867 0.49854 0.0
O1996 O 0.76684 0.44629 0.50087 0.0
O1997 O 0.80197 0.48896 0.53682 0.0
O1998 O 0.82054 0.44878 0.50455 0.0
O1999 O 0.79876 0.48554 0.48213 0.0
H2000 H 0.72782 0.45297 0.5204 0.0
H2001 H 0.77008 0.40126 0.49873 0.0
H2002 H 0.69927 0.42174 0.53347 0.0
H2003 H 0.74081 0.37092 0.51223 0.0
H2004 H 0.84589 0.49383 0.60735 0.0
H2005 H 0.76726 0.4831 0.56476 0.0
H2006 H 0.84212 0.49473 0.56353 0.0
H2007 H 0.77235 0.48292 0.60865 0.0
H2008 H 0.76465 0.41139 0.59161 0.0
H2009 H 0.83694 0.41338 0.57808 0.0
H2010 H 0.69442 0.49328 0.48125 0.0
H2011 H 0.71773 0.52625 0.55581 0.0
H2012 H 0.85527 0.45684 0.47698 0.0
H2013 H 0.81035 0.4026 0.50479 0.0
H2014 H 0.87402 0.4257 0.45475 0.0
H2015 H 0.82961 0.37238 0.48175 0.0
H2016 H 0.8259 0.49278 0.44713 0.0
H2017 H 0.79039 0.5268 0.50403 0.0
H2018 H 0.84068 0.53225 0.43709 0.0
H2019 H 0.8058 0.56571 0.49299 0.0
H2020 H 0.76856 0.37128 0.42255 0.0
H2021 H 0.82629 0.42021 0.40322 0.0
H2022 H 0.9065 0.4804 0.53397 0.0
H2023 H 0.90135 0.54143 0.50254 0.0
Li2024 Li 0.67245 0.53085 0.30571 0.0
Li2025 Li 0.70614 0.55839 0.28456 0.0
Li2026 Li 0.67117 0.52729 0.2558 0.0
Li2027 Li 0.70346 0.50519 0.27925 0.0
C2028 C 0.65618 0.56965 0.29215 0.0
N2029 N 0.62603 0.59817 0.31035 0.0
C2030 C 0.66503 0.59184 0.30719 0.0
C2031 C 0.63201 0.56181 0.28661 0.0
C2032 C 0.64949 0.60605 0.31614 0.0
C2033 C 0.61705 0.57653 0.29593 0.0
C2034 C 0.71733 0.54036 0.33328 0.0
C2035 C 0.72906 0.52764 0.36954 0.0
N2036 N 0.73334 0.55063 0.38181 0.0
C2037 C 0.72188 0.56386 0.3462 0.0
C2038 C 0.72094 0.52207 0.34496 0.0
C2039 C 0.72995 0.56869 0.37075 0.0
C2040 C 0.63488 0.51568 0.3424 0.0
N2041 N 0.65345 0.53305 0.33949 0.0
C2042 C 0.6483 0.55399 0.38068 0.0
C2043 C 0.65985 0.55213 0.35866 0.0
C2044 C 0.6292 0.53625 0.38445 0.0
C2045 C 0.62277 0.51698 0.36405 0.0
H2046 H 0.62903 0.5004 0.32781 0.0
H2047 H 0.67419 0.56638 0.3572 0.0
C2048 C 0.71395 0.60824 0.2719 0.0
N2049 N 0.72471 0.59508 0.28516 0.0
C2050 C 0.72375 0.63257 0.27135 0.0
C2051 C 0.75624 0.6308 0.29791 0.0
C2052 C 0.74579 0.60641 0.29805 0.0
C2053 C 0.74534 0.64496 0.28462 0.0
H2054 H 0.69734 0.59991 0.26151 0.0
H2055 H 0.75477 0.5967 0.30881 0.0
C2056 C 0.648 0.4829 0.26754 0.0
N2057 N 0.60994 0.44739 0.24724 0.0
C2058 C 0.65136 0.46199 0.25284 0.0
C2059 C 0.62533 0.48586 0.27182 0.0
C2060 C 0.63187 0.44421 0.24277 0.0
C2061 C 0.6063 0.46767 0.26142 0.0
C2062 C 0.71226 0.52896 0.2319 0.0
C2063 C 0.71737 0.50815 0.21862 0.0
C2064 C 0.71167 0.54842 0.22091 0.0
C2065 C 0.72182 0.50717 0.19444 0.0
C2066 C 0.71617 0.54671 0.19667 0.0
N2067 N 0.7211 0.52629 0.18405 0.0
C2068 C 0.63764 0.54359 0.21904 0.0
C2069 C 0.65532 0.5137 0.1993 0.0
C2070 C 0.62638 0.54558 0.19637 0.0
N2071 N 0.65199 0.52769 0.22074 0.0
C2072 C 0.64466 0.5154 0.17624 0.0
C2073 C 0.62943 0.53142 0.17383 0.0
H2074 H 0.63493 0.55534 0.23535 0.0
H2075 H 0.66684 0.50129 0.19969 0.0
C2076 C 0.70988 0.4515 0.2836 0.0
N2077 N 0.7214 0.47237 0.27773 0.0
C2078 C 0.71998 0.43049 0.28284 0.0
C2079 C 0.75449 0.4511 0.27019 0.0
C2080 C 0.74375 0.47179 0.2711 0.0
C2081 C 0.74295 0.42913 0.27586 0.0
H2082 H 0.69239 0.45076 0.28916 0.0
H2083 H 0.75381 0.48754 0.26627 0.0
O2084 O 0.67107 0.55533 0.28353 0.0
O2085 O 0.70927 0.5353 0.30932 0.0
O2086 O 0.66682 0.50054 0.27743 0.0
O2087 O 0.70736 0.53007 0.2554 0.0
H2088 H 0.68369 0.59797 0.31199 0.0
H2089 H 0.62489 0.5445 0.27528 0.0
H2090 H 0.65609 0.62331 0.32774 0.0
H2091 H 0.59829 0.57074 0.29173 0.0
H2092 H 0.73194 0.51368 0.37886 0.0
H2093 H 0.71908 0.57818 0.33736 0.0
H2094 H 0.71748 0.50378 0.33515 0.0
H2095 H 0.73349 0.58679 0.38101 0.0
H2096 H 0.65476 0.56947 0.39491 0.0
H2097 H 0.60796 0.5028 0.36425 0.0
H2098 H 0.71433 0.64141 0.26002 0.0
H2099 H 0.77277 0.63863 0.30865 0.0
H2100 H 0.66882 0.45955 0.24922 0.0
H2101 H 0.62248 0.50205 0.28304 0.0
H2102 H 0.63419 0.42789 0.23137 0.0
H2103 H 0.58864 0.46968 0.2646 0.0
H2104 H 0.71777 0.49291 0.2269 0.0
H2105 H 0.70755 0.56457 0.23093 0.0
H2106 H 0.72576 0.49117 0.1839 0.0
H2107 H 0.71567 0.56159 0.18787 0.0
H2108 H 0.61518 0.55838 0.19675 0.0
H2109 H 0.64917 0.50441 0.16032 0.0
H2110 H 0.70952 0.4154 0.28837 0.0
H2111 H 0.77202 0.45245 0.26462 0.0
Eu2112 Eu 0.07569 0.07107 0.03781 0.0
Eu2113 Eu 0.04894 0.01761 0.02193 0.0
C2114 C 0.07973 0.04187 0.98086 0.0
C2115 C 0.08508 0.13569 0.04302 0.0
C2116 C 0.06425 0.12972 0.02768 0.0
C2117 C 0.08652 0.17741 0.04299 0.0
C2118 C 0.05465 0.14719 0.01994 0.0
C2119 C 0.096 0.15965 0.05121 0.0
C2120 C 0.06611 0.17103 0.02677 0.0
C2121 C 0.09558 0.11623 0.04823 0.0
O2122 O 0.0877 0.01433 0.02631 0.0
O2123 O 0.10521 0.05211 0.04528 0.0
C2124 C 0.10686 0.0302 0.03573 0.0
O2125 O 0.0603 0.06537 0.07399 0.0
O2126 O 0.02811 0.98773 0.99538 0.0
O2127 O 0.03795 0.98337 0.03177 0.0
O2128 O 0.03849 0.02777 0.06168 0.0
C2129 C 0.04455 0.04756 0.07868 0.0
O2130 O 0.03741 0.07475 0.03074 0.0
O2131 O 0.01832 0.03618 0.01747 0.0
O2132 O 0.06655 0.02287 0.98661 0.0
O2133 O 0.08573 0.10491 0.06395 0.0
O2134 O 0.09873 0.10161 0.02892 0.0
O2135 O 0.08332 0.06234 0.99691 0.0
C2136 C 0.03816 0.95163 1.00065 0.0
C2137 C 0.06152 0.9544 0.9951 0.0
C2138 C 0.0385 0.91158 1.00588 0.0
C2139 C 0.07383 0.93646 0.99688 0.0
C2140 C 0.02624 0.9296 1.00428 0.0
C2141 C 0.06276 0.91574 1.00415 0.0
C2142 C 0.02901 0.97278 1.00983 0.0
C2143 C 0.01768 0.05889 0.02402 0.0
H2144 H 0.05608 0.1114 0.02044 0.0
H2145 H 0.09573 0.1958 0.04815 0.0
H2146 H 0.03897 0.14193 1.00735 0.0
H2147 H 0.11223 0.16447 0.06293 0.0
H2148 H 0.07097 0.9714 0.9923 0.0
H2149 H 0.02966 0.89572 1.01156 0.0
H2150 H 0.09253 0.93991 0.99542 0.0
H2151 H 1.00825 0.92729 1.00871 0.0
Eu2152 Eu 0.32821 0.80997 0.25616 0.0
Eu2153 Eu 0.30425 0.79834 0.30615 0.0
C2154 C 0.27478 0.81237 0.26319 0.0
C2155 C 0.33804 0.83413 0.19889 0.0
C2156 C 0.31444 0.83489 0.19353 0.0
C2157 C 0.34914 0.85967 0.17029 0.0
C2158 C 0.30822 0.84764 0.17637 0.0
C2159 C 0.35534 0.84675 0.18731 0.0
C2160 C 0.3255 0.86 0.16447 0.0
C2161 C 0.34477 0.82037 0.21656 0.0
O2162 O 0.31163 0.76461 0.28468 0.0
O2163 O 0.30524 0.77343 0.24748 0.0
C2164 C 0.30592 0.7579 0.26132 0.0
O2165 O 0.3538 0.79348 0.27507 0.0
O2166 O 0.27965 0.77501 0.32339 0.0
O2167 O 0.30257 0.80647 0.34517 0.0
O2168 O 0.34318 0.80478 0.31339 0.0
C2169 C 0.35759 0.79648 0.29868 0.0
O2170 O 0.33705 0.84305 0.28521 0.0
O2171 O 0.3059 0.83728 0.308 0.0
O2172 O 0.2745 0.79853 0.27913 0.0
O2173 O 0.35293 0.83251 0.23815 0.0
O2174 O 0.33015 0.80068 0.21724 0.0
O2175 O 0.2943 0.82233 0.25558 0.0
C2176 C 0.29376 0.77221 0.36265 0.0
C2177 C 0.31674 0.77547 0.37351 0.0
C2178 C 0.28135 0.74088 0.38491 0.0
C2179 C 0.32191 0.76165 0.39007 0.0
C2180 C 0.27617 0.75478 0.36848 0.0
C2181 C 0.30427 0.74417 0.39592 0.0
C2182 C 0.2878 0.78664 0.34522 0.0
C2183 C 0.3227 0.85128 0.30007 0.0
H2184 H 0.3008 0.82551 0.20248 0.0
H2185 H 0.36278 0.86905 0.16134 0.0
H2186 H 0.28992 0.84791 0.17245 0.0
H2187 H 0.37364 0.8465 0.19132 0.0
H2188 H 0.3307 0.78879 0.36935 0.0
H2189 H 0.26742 0.72746 0.38895 0.0
H2190 H 0.33963 0.76494 0.39859 0.0
H2191 H 0.25836 0.75191 0.36028 0.0
Eu2192 Eu 0.58723 0.04419 0.51702 0.0
Eu2193 Eu 0.53602 0.05234 0.53746 0.0
C2194 C 0.57877 0.05019 0.57328 0.0
C2195 C 0.64334 0.0197 0.50919 0.0
C2196 C 0.65012 0.01999 0.53358 0.0
C2197 C 0.6693 0.99263 0.49686 0.0
C2198 C 0.66659 1.00687 0.53952 0.0
C2199 C 0.65301 1.00586 0.49094 0.0
C2200 C 0.67627 0.99298 0.5212 0.0
C2201 C 0.62624 0.03352 0.50232 0.0
O2202 O 0.56009 0.08829 0.54386 0.0
O2203 O 0.58789 0.08261 0.51695 0.0
C2204 C 0.57719 0.09643 0.53151 0.0
O2205 O 0.5615 0.04036 0.48444 0.0
O2206 O 0.51481 0.0704 0.5626 0.0
O2207 O 0.49803 0.04156 0.53318 0.0
O2208 O 0.53724 0.06374 0.50202 0.0
C2209 C 0.54577 0.0535 0.48288 0.0
O2210 O 0.57004 1.01173 0.5298 0.0
O2211 O 0.53263 1.01406 0.51927 0.0
O2212 O 0.55612 0.04264 0.56788 0.0
O2213 O 0.60552 0.0213 0.49321 0.0
O2214 O 0.62524 0.05314 0.51736 0.0
O2215 O 0.59291 0.05652 0.55733 0.0
C2216 C 0.47836 0.0734 0.54385 0.0
C2217 C 0.47188 0.07384 0.51955 0.0
C2218 C 0.45179 0.09973 0.55659 0.0
C2219 C 0.45512 0.08668 0.51385 0.0
C2220 C 0.46834 0.08665 0.56229 0.0
C2221 C 0.44477 0.09955 0.53231 0.0
C2222 C 0.49511 0.05893 0.55019 0.0
C2223 C 0.54818 1.00139 0.52315 0.0
H2224 H 0.64276 0.03039 0.54802 0.0
H2225 H 0.67676 0.98241 0.48237 0.0
H2226 H 0.67162 1.00741 0.55842 0.0
H2227 H 0.64803 1.00539 0.47203 0.0
H2228 H 0.47956 0.06407 0.50492 0.0
H2229 H 0.44405 0.10954 0.57113 0.0
H2230 H 0.45022 0.08655 0.49501 0.0
H2231 H 0.47313 0.08666 0.58112 0.0
Eu2232 Eu 0.28609 0.30289 0.77314 0.0
Eu2233 Eu 0.33681 0.29097 0.77814 0.0
C2234 C 0.28925 0.24762 0.77923 0.0
C2235 C 0.22638 0.31712 0.78449 0.0
C2236 C 0.2194 0.29988 0.79837 0.0
C2237 C 0.19862 0.33964 0.80197 0.0
C2238 C 0.20196 0.30248 0.81389 0.0
C2239 C 0.21584 0.33689 0.78624 0.0
C2240 C 0.19168 0.32257 0.81607 0.0
C2241 C 0.24596 0.31596 0.76973 0.0
O2242 O 0.32998 0.28664 0.7373 0.0
O2243 O 0.29224 0.29188 0.73395 0.0
C2244 C 0.31085 0.28684 0.72395 0.0
O2245 O 0.31091 0.33939 0.7732 0.0
O2246 O 0.35832 0.26445 0.76994 0.0
O2247 O 0.37334 0.29863 0.79307 0.0
O2248 O 0.34727 0.33051 0.77382 0.0
C2249 C 0.33389 0.34644 0.77314 0.0
O2250 O 0.29196 0.305 0.81364 0.0
O2251 O 0.33095 0.3041 0.81721 0.0
O2252 O 0.31235 0.25527 0.78156 0.0
O2253 O 0.26547 0.33035 0.77922 0.0
O2254 O 0.24905 0.29488 0.75986 0.0
O2255 O 0.27573 0.26279 0.77561 0.0
C2256 C 0.39725 0.28074 0.76592 0.0
C2257 C 0.40703 0.30242 0.75955 0.0
C2258 C 0.42246 0.26091 0.74032 0.0
C2259 C 0.42449 0.30331 0.74374 0.0
C2260 C 0.40522 0.26007 0.75638 0.0
C2261 C 0.43204 0.2825 0.73381 0.0
C2262 C 0.37741 0.27886 0.78069 0.0
C2263 C 0.31161 0.30692 0.82709 0.0
H2264 H 0.22759 0.28461 0.79742 0.0
H2265 H 0.19099 0.35531 0.80338 0.0
H2266 H 0.1965 0.28875 0.82411 0.0
H2267 H 0.2213 0.35047 0.77582 0.0
H2268 H 0.40095 0.31857 0.76642 0.0
H2269 H 0.42835 0.24475 0.73301 0.0
H2270 H 0.43179 0.32011 0.73888 0.0
H2271 H 0.39776 0.24318 0.76098 0.0
Eu2272 Eu 0.05524 0.07132 0.54041 0.0
Eu2273 Eu 0.06924 0.02242 0.5158 0.0
C2274 C 0.10407 0.07241 0.51581 0.0
C2275 C 0.05524 0.13639 0.54972 0.0
C2276 C 0.07818 0.15015 0.55477 0.0
C2277 C 0.04625 0.16246 0.52307 0.0
C2278 C 0.08524 0.16935 0.54352 0.0
C2279 C 0.03917 0.14319 0.53427 0.0
C2280 C 0.06952 0.17529 0.52708 0.0
C2281 C 0.04891 0.11383 0.55854 0.0
O2282 O 0.07907 0.02345 0.55672 0.0
O2283 O 0.07591 0.06152 0.57262 0.0
C2284 C 0.08234 0.04148 0.57559 0.0
O2285 O 0.02494 0.04442 0.54875 0.0
O2286 O 0.09236 0.99686 0.51273 0.0
O2287 O 0.06081 0.98956 0.48844 0.0
O2288 O 0.03347 1.0102 0.52732 0.0
C2289 C 0.01963 0.02127 0.54054 0.0
O2290 O 0.03807 0.06582 0.50092 0.0
O2291 O 0.05491 0.03583 0.48228 0.0
O2292 O 0.1024 0.04977 0.51619 0.0
O2293 O 0.03249 0.09724 0.54542 0.0
O2294 O 0.06641 0.10515 0.56587 0.0
O2295 O 0.08624 0.08268 0.52003 0.0
C2296 C 0.06969 0.95766 0.50534 0.0
C2297 C 0.04608 0.94561 0.50123 0.0
C2298 C 0.07757 0.92973 0.53028 0.0
C2299 C 0.03822 0.92626 0.51205 0.0
C2300 C 0.08546 0.94904 0.51939 0.0
C2301 C 0.05375 0.91858 0.52727 0.0
C2302 C 0.07727 0.98062 0.4976 0.0
C2303 C 0.04165 0.05181 0.48067 0.0
H2304 H 0.09096 0.14563 0.56681 0.0
H2305 H 0.03376 0.16676 0.51053 0.0
H2306 H 0.10313 0.17932 0.54736 0.0
H2307 H 0.02135 0.13309 0.53013 0.0
H2308 H 0.03342 0.95161 0.49035 0.0
H2309 H 0.08995 0.92416 0.54189 0.0
H2310 H 0.01989 0.9176 0.50889 0.0
H2311 H 0.10374 0.95788 0.52283 0.0
Eu2312 Eu 0.33295 0.81095 0.77141 0.0
Eu2313 Eu 0.28467 0.77988 0.77825 0.0
C2314 C 0.31274 0.81954 0.82391 0.0
C2315 C 0.39767 0.83594 0.77681 0.0
C2316 C 0.40206 0.84089 0.80218 0.0
C2317 C 0.43693 0.82865 0.77328 0.0
C2318 C 0.42369 0.8396 0.81297 0.0
C2319 C 0.41535 0.83016 0.76244 0.0
C2320 C 0.44113 0.8332 0.79859 0.0
C2321 C 0.37415 0.83436 0.76523 0.0
O2322 O 0.27357 0.81577 0.77171 0.0
O2323 O 0.30922 0.83917 0.77025 0.0
C2324 C 0.28618 0.83732 0.7709 0.0
O2325 O 0.31597 0.7955 0.73326 0.0
O2326 O 0.25875 0.76056 0.79772 0.0
O2327 O 0.25112 0.76081 0.75956 0.0
O2328 O 0.2974 0.76205 0.74375 0.0
C2329 C 0.30683 0.77274 0.72729 0.0
O2330 O 0.34406 0.77495 0.77718 0.0
O2331 O 0.30948 0.75376 0.7856 0.0
O2332 O 0.29294 0.8052 0.81446 0.0
O2333 O 0.36437 0.81362 0.75216 0.0
O2334 O 0.35959 0.8437 0.77867 0.0
O2335 O 0.33151 0.82074 0.81203 0.0
C2336 C 0.22022 0.76166 0.78344 0.0
C2337 C 0.19966 0.74464 0.77515 0.0
C2338 C 0.19768 0.79278 0.78886 0.0
C2339 C 0.17829 0.75175 0.77285 0.0
C2340 C 0.21905 0.78564 0.79118 0.0
C2341 C 0.17729 0.776 0.77877 0.0
C2342 C 0.24282 0.7552 0.7792 0.0
C2343 C 0.33209 0.75468 0.78212 0.0
H2344 H 0.38862 0.84506 0.81372 0.0
H2345 H 0.45026 0.82369 0.76194 0.0
H2346 H 0.42654 0.84286 0.83255 0.0
H2347 H 0.4122 0.8261 0.74286 0.0
H2348 H 0.20037 0.72613 0.76875 0.0
H2349 H 0.19736 0.81157 0.79346 0.0
H2350 H 0.16297 0.7385 0.76452 0.0
H2351 H 0.23486 0.79904 0.79738 0.0
Eu2352 Eu 0.56455 0.03561 0.05462 0.0
Eu2353 Eu 0.56349 0.0599 1.00765 0.0
C2354 C 0.55462 0.0873 0.05834 0.0
C2355 C 0.54974 1.01355 0.11148 0.0
C2356 C 0.52707 0.01778 0.10824 0.0
C2357 C 0.54143 1.00262 0.14982 0.0
C2358 C 0.51165 0.01457 0.12581 0.0
C2359 C 0.55684 1.00577 0.13217 0.0
C2360 C 0.51877 1.0071 0.14679 0.0
C2361 C 0.56608 0.01773 0.09347 0.0
O2362 O 0.60217 0.05881 1.01397 0.0
O2363 O 0.60239 0.05555 0.05373 0.0
C2364 C 0.61387 0.05957 0.03489 0.0
O2365 O 0.57572 1.00939 0.02596 0.0
O2366 O 0.57338 0.09201 0.99317 0.0
O2367 O 0.54985 0.06113 0.97128 0.0
O2368 O 0.56776 0.02289 0.99121 0.0
C2369 C 0.57421 1.007 1.00239 0.0
O2370 O 0.52596 0.02348 0.03925 0.0
O2371 O 0.52495 0.05056 1.0148 0.0
O2372 O 0.56846 0.08853 0.0411 0.0
O2373 O 0.55945 1.0049 0.0718 0.0
O2374 O 0.57444 0.04008 0.09324 0.0
O2375 O 0.54727 0.06686 0.06447 0.0
C2376 C 0.57714 0.08405 0.9519 0.0
C2377 C 0.59351 0.06943 0.94771 0.0
C2378 C 0.59017 0.10333 0.91925 0.0
C2379 C 0.60802 0.07159 0.92923 0.0
C2380 C 0.57556 0.10109 0.93775 0.0
C2381 C 0.60639 0.08848 0.91479 0.0
C2382 C 0.56261 0.0822 0.97181 0.0
C2383 C 0.51391 0.03431 0.02591 0.0
H2384 H 0.52147 0.02397 0.09234 0.0
H2385 H 0.54727 0.99701 0.16598 0.0
H2386 H 0.49447 0.0187 0.12339 0.0
H2387 H 0.57435 1.00249 0.13482 0.0
H2388 H 0.59505 0.05638 0.95876 0.0
H2389 H 0.58886 0.11666 0.90849 0.0
H2390 H 0.62027 0.05982 0.92597 0.0
H2391 H 0.56316 0.11269 0.9411 0.0
Eu2392 Eu 0.32494 0.3209 0.28896 0.0
Eu2393 Eu 0.29224 0.26949 0.26183 0.0
C2394 C 0.3073 0.31045 0.23117 0.0
C2395 C 0.34379 0.38502 0.29917 0.0
C2396 C 0.32817 0.38177 0.27846 0.0
C2397 C 0.34662 0.42769 0.30484 0.0
C2398 C 0.32171 0.40114 0.27104 0.0
C2399 C 0.35314 0.40806 0.31235 0.0
C2400 C 0.3308 0.42429 0.28411 0.0
C2401 C 0.34811 0.36376 0.30734 0.0
O2402 O 0.32875 0.26954 0.25218 0.0
O2403 O 0.35002 0.29598 0.28439 0.0
C2404 C 0.34879 0.27949 0.26487 0.0
O2405 O 0.31519 0.30199 0.31962 0.0
O2406 O 0.28388 0.24002 0.23061 0.0
O2407 O 0.26353 0.2393 0.2612 0.0
O2408 O 0.30527 0.26331 0.29867 0.0
C2409 C 0.31009 0.27899 0.31934 0.0
O2410 O 0.28851 0.32775 0.28362 0.0
O2411 O 0.26765 0.28979 0.28046 0.0
O2412 O 0.29017 0.29334 0.23442 0.0
O2413 O 0.3307 0.35299 0.31728 0.0
O2414 O 0.35609 0.34892 0.29128 0.0
O2415 O 0.32397 0.32082 0.24864 0.0
C2416 C 0.27561 0.20392 0.24436 0.0
C2417 C 0.27075 0.19467 0.26526 0.0
C2418 C 0.30252 0.17725 0.23513 0.0
C2419 C 0.28277 0.17796 0.27175 0.0
C2420 C 0.29046 0.1939 0.22857 0.0
C2421 C 0.29969 0.17023 0.2574 0.0
C2422 C 0.26946 0.22678 0.24177 0.0
C2423 C 0.26911 0.31281 0.28516 0.0
H2424 H 0.32032 0.36408 0.26842 0.0
H2425 H 0.35356 0.44541 0.31539 0.0
H2426 H 0.30881 0.39788 0.25558 0.0
H2427 H 0.36494 0.41079 0.32859 0.0
H2428 H 0.25913 0.20172 0.27764 0.0
H2429 H 0.31514 0.17099 0.22355 0.0
H2430 H 0.28017 0.17254 0.28891 0.0
H2431 H 0.29425 0.20033 0.21212 0.0
Eu2432 Eu 0.5549 0.57143 0.04133 0.0
Eu2433 Eu 0.57053 0.52358 0.01598 0.0
C2434 C 0.60393 0.57472 0.01659 0.0
C2435 C 0.55038 0.63422 0.04749 0.0
C2436 C 0.55247 0.63095 0.02251 0.0
C2437 C 0.55958 0.67705 0.05028 0.0
C2438 C 0.55802 0.65047 1.01148 0.0
C2439 C 0.55398 0.65738 0.06137 0.0
C2440 C 0.56157 0.67371 0.02521 0.0
C2441 C 0.54697 0.61337 0.05897 0.0
O2442 O 0.58107 0.52484 0.05664 0.0
O2443 O 0.57512 0.56157 0.074 0.0
C2444 C 0.58296 0.54199 0.07615 0.0
O2445 O 0.52462 0.5438 0.04812 0.0
O2446 O 0.5947 0.49901 1.01305 0.0
O2447 O 0.56306 0.49063 0.98869 0.0
O2448 O 0.5352 0.50993 0.02831 0.0
C2449 C 0.52041 0.52059 0.04052 0.0
O2450 O 0.53813 0.56612 1.00157 0.0
O2451 O 0.55506 0.53634 0.98261 0.0
O2452 O 0.60309 0.55197 0.01596 0.0
O2453 O 0.53049 0.59542 0.04826 0.0
O2454 O 0.56623 0.60662 0.06459 0.0
O2455 O 0.58552 0.58392 0.02115 0.0
C2456 C 0.57316 0.45961 1.00612 0.0
C2457 C 0.54986 0.45148 1.01064 0.0
C2458 C 0.58457 0.42797 0.02368 0.0
C2459 C 0.54407 0.43206 0.02188 0.0
C2460 C 0.59038 0.4474 1.01235 0.0
C2461 C 0.56145 0.42046 0.02902 0.0
C2462 C 0.57998 0.48238 0.99796 0.0
C2463 C 0.54166 0.55223 0.9812 0.0
H2464 H 0.55041 0.61325 1.01156 0.0
H2465 H 0.56239 0.69484 0.06124 0.0
H2466 H 0.5601 0.64736 0.99227 0.0
H2467 H 0.55289 0.66023 0.08075 0.0
H2468 H 0.53619 0.46064 1.00632 0.0
H2469 H 0.59824 0.41908 0.02869 0.0
H2470 H 0.52615 0.42674 0.02588 0.0
H2471 H 0.60845 0.45342 1.00921 0.0
Eu2472 Eu 0.83809 0.31475 0.27946 0.0
Eu2473 Eu 0.78849 0.28215 0.27692 0.0
C2474 C 0.81018 0.32121 0.32594 0.0
C2475 C 0.90193 0.33729 0.27479 0.0
C2476 C 0.90526 0.31379 0.27179 0.0
C2477 C 0.94387 0.35175 0.2815 0.0
C2478 C 0.9277 0.3094 0.2753 0.0
C2479 C 0.92135 0.35616 0.27842 0.0
C2480 C 0.94704 0.32848 0.28166 0.0
C2481 C 0.87871 0.34218 0.27881 0.0
O2482 O 0.77655 0.31754 0.27174 0.0
O2483 O 0.8127 0.34168 0.27528 0.0
C2484 C 0.78937 0.3394 0.27313 0.0
O2485 O 0.83555 0.28779 0.24451 0.0
O2486 O 0.76382 0.26166 0.29673 0.0
O2487 O 0.756 0.26029 0.25833 0.0
O2488 O 0.79616 0.27452 0.23771 0.0
C2489 C 0.81717 0.27481 0.23063 0.0
O2490 O 0.8499 0.27873 0.28302 0.0
O2491 O 0.81366 0.2555 0.28207 0.0
O2492 O 0.79142 0.30975 0.31166 0.0
O2493 O 0.86292 0.33572 0.2602 0.0
O2494 O 0.8707 0.33618 0.29838 0.0
O2495 O 0.83094 0.32021 0.31876 0.0
C2496 C 0.72449 0.25781 0.2815 0.0
C2497 C 0.7197 0.28075 0.28415 0.0
C2498 C 0.68314 0.24076 0.27287 0.0
C2499 C 0.69677 0.28358 0.27968 0.0
C2500 C 0.70606 0.23792 0.27716 0.0
C2501 C 0.6786 0.26348 0.27247 0.0
C2502 C 0.74821 0.25431 0.27799 0.0
C2503 C 0.83687 0.2572 0.28282 0.0
H2504 H 0.89039 0.299 0.26878 0.0
H2505 H 0.95863 0.36669 0.28568 0.0
H2506 H 0.92963 0.29129 0.27518 0.0
H2507 H 0.91902 0.37439 0.28061 0.0
H2508 H 0.73384 0.29628 0.28757 0.0
H2509 H 0.66923 0.22506 0.26781 0.0
H2510 H 0.6936 0.30125 0.27967 0.0
H2511 H 0.70955 0.22012 0.27511 0.0
Eu2512 Eu 0.06446 0.53739 0.5528 0.0
Eu2513 Eu 0.06188 0.55842 0.50419 0.0
C2514 C 0.05474 0.58907 0.55503 0.0
C2515 C 0.05154 0.51446 0.60977 0.0
C2516 C 0.03251 0.52579 0.61275 0.0
C2517 C 0.04056 0.49381 0.64205 0.0
C2518 C 0.01784 0.52152 0.63067 0.0
C2519 C 0.05535 0.49822 0.62418 0.0
C2520 C 0.02196 0.50576 0.64568 0.0
C2521 C 0.06705 0.5191 0.59122 0.0
O2522 O 0.10097 0.55851 0.51119 0.0
O2523 O 0.10133 0.55911 0.55178 0.0
C2524 C 0.11279 0.56149 0.53258 0.0
O2525 O 0.08005 0.51368 0.52557 0.0
O2526 O 0.07287 0.58739 0.48533 0.0
O2527 O 0.04541 0.55732 0.46833 0.0
O2528 O 0.06365 0.52004 0.49036 0.0
C2529 C 0.07505 0.50768 0.50215 0.0
O2530 O 0.02567 0.52458 0.53818 0.0
O2531 O 0.02379 0.5506 0.51279 0.0
O2532 O 0.0659 0.5892 0.53562 0.0
O2533 O 0.05977 0.50642 0.5696 0.0
O2534 O 0.0752 0.54154 0.59112 0.0
O2535 O 0.04856 0.56943 0.5631 0.0
C2536 C 0.07139 0.57486 0.44354 0.0
C2537 C 0.08021 0.55447 0.43494 0.0
C2538 C 0.08914 0.59373 0.41251 0.0
C2539 C 0.09346 0.55374 0.41522 0.0
C2540 C 0.0757 0.59438 0.43215 0.0
C2541 C 0.09825 0.57345 0.40403 0.0
C2542 C 0.0595 0.57666 0.4656 0.0
C2543 C 1.01319 0.53468 0.52445 0.0
H2544 H 0.02923 0.53815 0.60144 0.0
H2545 H 0.04379 0.48132 0.6532 0.0
H2546 H 1.00369 0.53105 0.63327 0.0
H2547 H 0.06982 0.48911 0.62171 0.0
H2548 H 0.07729 0.53935 0.44379 0.0
H2549 H 0.09302 0.60933 0.40447 0.0
H2550 H 0.10026 0.53789 0.40892 0.0
H2551 H 0.06925 0.61035 0.43889 0.0
Eu2552 Eu 0.78717 0.80482 0.27635 0.0
Eu2553 Eu 0.83742 0.79163 0.2817 0.0
C2554 C 0.78951 0.74909 0.2823 0.0
C2555 C 0.72566 0.81241 0.28518 0.0
C2556 C 0.72543 0.79986 0.30409 0.0
C2557 C 0.68725 0.81979 0.29298 0.0
C2558 C 0.70621 0.79745 0.31756 0.0
C2559 C 0.70651 0.82222 0.27953 0.0
C2560 C 0.68704 0.80749 0.31215 0.0
C2561 C 0.74633 0.81617 0.27212 0.0
O2562 O 0.83102 0.78677 0.24075 0.0
O2563 O 0.79407 0.79421 0.23728 0.0
C2564 C 0.81231 0.78804 0.22736 0.0
O2565 O 0.812 0.84101 0.27563 0.0
O2566 O 0.85961 0.76567 0.27429 0.0
O2567 O 0.8736 0.7999 0.29771 0.0
O2568 O 0.84793 0.83101 0.27694 0.0
C2569 C 0.83506 0.84732 0.27575 0.0
O2570 O 0.79295 0.80804 0.31706 0.0
O2571 O 0.83108 0.80402 0.32078 0.0
O2572 O 0.81265 0.75575 0.28375 0.0
O2573 O 0.76467 0.83032 0.28477 0.0
O2574 O 0.75133 0.79702 0.2595 0.0
O2575 O 0.77656 0.76504 0.27977 0.0
C2576 C 0.89863 0.78271 0.27242 0.0
C2577 C 0.89877 0.79417 0.25268 0.0
C2578 C 0.93674 0.77432 0.26471 0.0
C2579 C 0.9178 0.79555 0.23887 0.0
C2580 C 0.91767 0.77292 0.2785 0.0
C2581 C 0.9368 0.78542 0.24466 0.0
C2582 C 0.87823 0.78013 0.28603 0.0
C2583 C 0.81217 0.80852 0.33059 0.0
H2584 H 0.74028 0.79233 0.30867 0.0
H2585 H 0.67258 0.8276 0.28852 0.0
H2586 H 0.70655 0.78826 0.33254 0.0
H2587 H 0.70661 0.832 0.26499 0.0
H2588 H 0.88408 0.80182 0.24786 0.0
H2589 H 0.95123 0.76636 0.2694 0.0
H2590 H 0.91768 0.80451 0.22371 0.0
H2591 H 0.91766 0.76396 0.29367 0.0
Eu2592 Eu 0.81758 0.30173 0.75071 0.0
Eu2593 Eu 0.79976 0.29333 0.80404 0.0
C2594 C 0.76491 0.30243 0.7637 0.0
C2595 C 0.82566 0.32547 0.69232 0.0
C2596 C 0.80366 0.33169 0.69027 0.0
C2597 C 0.8386 0.34868 0.6623 0.0
C2598 C 0.79914 0.34623 0.67416 0.0
C2599 C 0.84305 0.33405 0.67825 0.0
C2600 C 0.81664 0.355 0.66017 0.0
C2601 C 0.83098 0.3105 0.70934 0.0
O2602 O 0.78656 0.25958 0.77635 0.0
O2603 O 0.81521 0.26289 0.75029 0.0
C2604 C 0.79821 0.25007 0.75924 0.0
O2605 O 0.84947 0.30331 0.77558 0.0
O2606 O 0.77555 0.27535 0.82627 0.0
O2607 O 0.80574 0.30222 0.84337 0.0
O2608 O 0.83247 0.27904 0.79989 0.0
C2609 C 0.85101 0.28917 0.79088 0.0
O2610 O 0.81101 0.33651 0.77042 0.0
O2611 O 0.81951 0.33114 0.8087 0.0
O2612 O 0.77177 0.30824 0.78695 0.0
O2613 O 0.84182 0.32182 0.73029 0.0
O2614 O 0.81441 0.29265 0.71125 0.0
O2615 O 0.7783 0.29455 0.74749 0.0
C2616 C 0.79387 0.26995 0.86286 0.0
C2617 C 0.81658 0.2657 0.86643 0.0
C2618 C 0.78112 0.24547 0.89197 0.0
C2619 C 0.82157 0.25165 0.88286 0.0
C2620 C 0.77617 0.25959 0.87563 0.0
C2621 C 0.80389 0.24143 0.89587 0.0
C2622 C 0.78848 0.28559 0.84645 0.0
C2623 C 0.81735 0.3452 0.79348 0.0
H2624 H 0.79004 0.32539 0.70114 0.0
H2625 H 0.85226 0.35487 0.65142 0.0
H2626 H 0.78209 0.35087 0.67285 0.0
H2627 H 0.86012 0.32944 0.67962 0.0
H2628 H 0.83058 0.27352 0.85682 0.0
H2629 H 0.7671 0.23772 0.90161 0.0
H2630 H 0.83936 0.24926 0.88578 0.0
H2631 H 0.75854 0.26261 0.87313 0.0
Eu2632 Eu 0.82671 0.82633 0.79457 0.0
Eu2633 Eu 0.79965 0.77388 0.76441 0.0
C2634 C 0.81317 0.81791 0.73642 0.0
C2635 C 0.84099 0.89228 0.81276 0.0
C2636 C 0.85022 0.90258 0.79381 0.0
C2637 C 0.81364 0.91897 0.81686 0.0
C2638 C 0.84035 0.91998 0.78563 0.0
C2639 C 0.82353 0.90164 0.82511 0.0
C2640 C 0.82119 0.92733 0.7963 0.0
C2641 C 0.84638 0.86949 0.81673 0.0
O2642 O 0.83657 0.77081 0.77442 0.0
O2643 O 0.85358 0.80943 0.77566 0.0
C2644 C 0.85473 0.78695 0.77215 0.0
O2645 O 0.82904 0.80171 0.82128 0.0
O2646 O 0.79926 0.74314 0.73563 0.0
O2647 O 0.77051 0.74321 0.75811 0.0
O2648 O 0.79708 0.77298 0.80431 0.0
C2649 C 0.81234 0.78354 0.82305 0.0
O2650 O 0.78873 0.82283 0.80054 0.0
O2651 O 0.77184 0.79555 0.76658 0.0
O2652 O 0.81022 0.79482 0.73537 0.0
O2653 O 0.83008 0.85581 0.82546 0.0
O2654 O 0.85525 0.8574 0.79906 0.0
O2655 O 0.81501 0.83286 0.75746 0.0
C2656 C 0.78659 0.70899 0.75064 0.0
C2657 C 0.7933 0.71034 0.77523 0.0
C2658 C 0.8004 0.67207 0.74061 0.0
C2659 C 0.80406 0.69317 0.78238 0.0
C2660 C 0.78961 0.68942 0.73339 0.0
C2661 C 0.80835 0.67442 0.76504 0.0
C2662 C 0.78142 0.73027 0.74309 0.0
C2663 C 0.77028 0.81127 0.78592 0.0
H2664 H 0.86398 0.8961 0.7842 0.0
H2665 H 0.799 0.92459 0.82553 0.0
H2666 H 0.84688 0.9268 0.77019 0.0
H2667 H 0.81631 0.89435 0.84002 0.0
H2668 H 0.79169 0.72552 0.78879 0.0
H2669 H 0.80381 0.65768 0.72704 0.0
H2670 H 0.81021 0.69523 0.80129 0.0
H2671 H 0.78498 0.68837 0.7143 0.0
Eu2672 Eu 0.57516 0.57587 0.53584 0.0
Eu2673 Eu 0.54913 0.52155 0.52149 0.0
C2674 C 0.58048 0.54513 0.48003 0.0
C2675 C 0.58725 0.64231 0.55759 0.0
C2676 C 0.6005 0.6643 0.55533 0.0
C2677 C 0.55327 0.66001 0.56367 0.0
C2678 C 0.58978 0.68376 0.5558 0.0
C2679 C 0.56401 0.6406 0.56331 0.0
C2680 C 0.56571 0.68116 0.55829 0.0
C2681 C 0.59552 0.62067 0.5481 0.0
O2682 O 0.58774 0.51867 0.52675 0.0
O2683 O 0.6062 0.55754 0.53964 0.0
C2684 C 0.60725 0.53495 0.53285 0.0
O2685 O 0.55707 0.57113 0.57115 0.0
O2686 O 0.53037 0.49009 0.49514 0.0
O2687 O 0.53655 0.48839 0.53292 0.0
O2688 O 0.54018 0.53162 0.56168 0.0
C2689 C 0.54377 0.55237 0.57725 0.0
O2690 O 0.53674 0.57912 0.52885 0.0
O2691 O 0.51832 0.53996 0.5172 0.0
O2692 O 0.56664 0.52651 0.48589 0.0
O2693 O 0.59609 0.60561 0.56248 0.0
O2694 O 0.58627 0.61025 0.52624 0.0
O2695 O 0.58463 0.56579 0.49583 0.0
C2696 C 0.53963 0.45498 0.50481 0.0
C2697 C 0.56355 0.45682 0.51086 0.0
C2698 C 0.53417 0.41198 0.49752 0.0
C2699 C 0.57257 0.4366 0.51156 0.0
C2700 C 0.52509 0.43245 0.49711 0.0
C2701 C 0.55779 0.41398 0.50596 0.0
C2702 C 0.52974 0.47633 0.51097 0.0
C2703 C 0.51727 0.56267 0.52283 0.0
H2704 H 0.61841 0.6658 0.55075 0.0
H2705 H 0.5347 0.65776 0.56565 0.0
H2706 H 0.5996 0.69985 0.55134 0.0
H2707 H 0.55353 0.62365 0.56501 0.0
H2708 H 0.5748 0.47402 0.51748 0.0
H2709 H 0.52238 0.39474 0.49312 0.0
H2710 H 0.59056 0.43901 0.51898 0.0
H2711 H 0.5065 0.43072 0.49248 0.0
Eu2712 Eu 0.08656 0.54087 0.01721 0.0
Eu2713 Eu 0.03819 0.55381 0.0417 0.0
C2714 C 0.07822 0.5373 0.0718 0.0
C2715 C 0.14129 0.51449 1.00794 0.0
C2716 C 0.1504 0.51712 0.03214 0.0
C2717 C 0.16491 0.48497 0.99583 0.0
C2718 C 0.16697 0.50411 0.03803 0.0
C2719 C 0.14853 0.49815 0.98992 0.0
C2720 C 0.17445 0.48797 0.01991 0.0
C2721 C 0.12461 0.52885 1.00109 0.0
O2722 O 0.06024 0.58715 0.03448 0.0
O2723 O 0.09564 0.57716 0.04124 0.0
C2724 C 0.08285 0.59314 0.04043 0.0
O2725 O 0.06976 0.55823 0.99053 0.0
O2726 O 0.02133 0.57769 0.06625 0.0
O2727 O 1.00045 0.54567 0.0433 0.0
O2728 O 0.03217 0.54904 1.00138 0.0
C2729 C 0.04705 0.55625 0.98637 0.0
O2730 O 0.05646 0.50983 1.00586 0.0
O2731 O 0.03525 0.51458 0.0387 0.0
O2732 O 0.06388 0.55225 0.07254 0.0
O2733 O 0.10356 0.51731 0.99241 0.0
O2734 O 0.12442 0.54875 0.01597 0.0
O2735 O 0.0847 0.52698 0.05137 0.0
C2736 C 0.98294 0.57945 0.05148 0.0
C2737 C 0.97437 0.57748 0.02723 0.0
C2738 C 0.95772 0.60728 0.064 0.0
C2739 C 0.95749 0.59021 0.02146 0.0
C2740 C 0.97452 0.5945 0.06977 0.0
C2741 C 0.94903 0.60529 0.03979 0.0
C2742 C 1.00024 0.56567 0.0581 0.0
C2743 C 0.04224 0.50102 0.02057 0.0
H2744 H 0.14492 0.52939 0.0465 0.0
H2745 H 0.17056 0.47285 0.98148 0.0
H2746 H 0.17396 0.50665 0.05674 0.0
H2747 H 0.14172 0.49578 0.97117 0.0
H2748 H 0.98057 0.56599 1.01275 0.0
H2749 H 0.95121 0.6184 0.07855 0.0
H2750 H 0.95113 0.58836 1.00265 0.0
H2751 H 0.98078 0.59619 0.08858 0.0
C2752 C 0.04785 0.1971 0.97463 0.0
C2753 C 0.0411 0.21786 0.98607 0.0
C2754 C 0.05641 0.18246 0.98819 0.0
C2755 C 0.05841 0.18803 1.01363 0.0
H2756 H 0.04659 0.19221 0.95505 0.0
H2757 H 0.06149 0.16657 0.97867 0.0
S2758 S 0.04355 0.24069 0.05216 0.0
N2759 N 0.03741 0.24378 0.02412 0.0
N2760 N 0.05326 0.21564 0.04984 0.0
C2761 C 0.05188 0.20879 0.02537 0.0
C2762 C 0.04312 0.22381 1.01149 0.0
C2763 C 0.2107 0.79975 0.24083 0.0
C2764 C 0.20995 0.8156 0.22501 0.0
C2765 C 0.23156 0.79964 0.25412 0.0
C2766 C 0.25242 0.81539 0.25201 0.0
H2767 H 0.19519 0.78674 0.24231 0.0
H2768 H 0.23147 0.78637 0.26523 0.0
S2769 S 0.25902 0.86244 0.21526 0.0
N2770 N 0.2313 0.84867 0.20931 0.0
N2771 N 0.27047 0.8491 0.23494 0.0
C2772 C 0.25155 0.83245 0.23749 0.0
C2773 C 0.2303 0.83243 0.22384 0.0
C2774 C 0.51446 0.93954 0.49487 0.0
C2775 C 0.53156 0.92582 0.49618 0.0
C2776 C 0.51954 0.9639 0.50499 0.0
C2777 C 0.54186 0.97516 0.51673 0.0
H2778 H 0.49756 0.93168 0.48482 0.0
H2779 H 0.50625 0.97411 0.5025 0.0
S2780 S 0.59117 0.94549 0.52821 0.0
N2781 N 0.57042 0.92403 0.51229 0.0
N2782 N 0.58013 0.96979 0.53173 0.0
C2783 C 0.55845 0.96104 0.51976 0.0
C2784 C 0.55326 0.93633 0.50931 0.0
C2785 C 0.49044 0.29866 0.70964 0.0
C2786 C 0.48698 0.28453 0.68613 0.0
C2787 C 0.47238 0.29821 0.7248 0.0
C2788 C 0.45036 0.28343 0.71705 0.0
H2789 H 0.50742 0.30972 0.71665 0.0
H2790 H 0.47582 0.30905 0.74292 0.0
S2791 S 0.43157 0.24452 0.65669 0.0
N2792 N 0.45932 0.25655 0.6553 0.0
N2793 N 0.42542 0.25533 0.68422 0.0
C2794 C 0.44642 0.26954 0.69352 0.0
C2795 C 0.46475 0.27016 0.67795 0.0
C2796 C 0.05067 0.86409 0.55555 0.0
C2797 C 0.03165 0.86491 0.56967 0.0
C2798 C 0.05728 0.88112 0.5414 0.0
C2799 C 0.04515 0.89965 0.54082 0.0
H2800 H 0.06069 0.85029 0.55565 0.0
H2801 H 0.07218 0.87991 0.531 0.0
S2802 S 0.99433 0.91001 0.57487 0.0
N2803 N 1.00077 0.88575 0.58228 0.0
N2804 N 1.01328 0.91793 0.55579 0.0
C2805 C 0.02581 0.90044 0.55452 0.0
C2806 C 0.01904 0.88303 0.56891 0.0
C2807 C 0.49087 0.80483 0.81609 0.0
C2808 C 0.50509 0.82337 0.83316 0.0
C2809 C 0.47033 0.80831 0.80454 0.0
C2810 C 0.46333 0.83029 0.8101 0.0
H2811 H 0.49579 0.78768 0.81151 0.0
H2812 H 0.45965 0.79364 0.7915 0.0
S2813 S 0.49443 0.88414 0.85392 0.0
N2814 N 0.51085 0.86424 0.85531 0.0
N2815 N 0.47206 0.87073 0.83372 0.0
C2816 C 0.47735 0.84886 0.82727 0.0
C2817 C 0.49832 0.84541 0.83879 0.0
C2818 C 0.54658 0.15116 0.07223 0.0
C2819 C 0.52729 0.14987 0.08599 0.0
C2820 C 0.55556 0.13089 0.06382 0.0
C2821 C 0.54554 0.10858 0.06884 0.0
H2822 H 0.55507 0.16806 0.06835 0.0
H2823 H 0.57051 0.1328 0.05333 0.0
S2824 S 0.49369 0.09581 0.103 0.0
N2825 N 0.49784 0.1247 0.10363 0.0
N2826 N 0.51449 0.08638 0.08768 0.0
C2827 C 0.526 0.10707 0.08239 0.0
C2828 C 0.51693 0.12777 0.09099 0.0
C2829 C 0.20944 0.30974 0.30667 0.0
C2830 C 0.21346 0.32832 0.32712 0.0
C2831 C 0.22704 0.30636 0.29149 0.0
C2832 C 0.24931 0.32144 0.29623 0.0
H2833 H 0.19291 0.297 0.30304 0.0
H2834 H 0.22363 0.29088 0.27684 0.0
S2835 S 0.2676 0.37472 0.34561 0.0
N2836 N 0.24034 0.36356 0.34993 0.0
N2837 N 0.27361 0.35727 0.32121 0.0
C2838 C 0.25289 0.3414 0.31532 0.0
C2839 C 0.23489 0.34481 0.33088 0.0
C2840 C 1.00518 0.03395 0.13208 0.0
C2841 C 1.00875 0.05557 0.14983 0.0
C2842 C 0.01664 0.03142 0.10996 0.0
C2843 C 0.03283 0.05025 0.10343 0.0
H2844 H 0.99339 0.01838 0.13529 0.0
H2845 H 1.0126 0.01424 0.09773 0.0
S2846 S 0.04805 0.11152 0.14161 0.0
N2847 N 0.02962 0.09685 0.15736 0.0
N2848 N 0.05081 0.09204 0.11726 0.0
C2849 C 0.03646 0.07202 0.12083 0.0
C2850 C 0.02474 0.07464 0.14331 0.0
C2851 C 0.29838 0.71283 0.44919 0.0
C2852 C 0.31753 0.7014 0.44855 0.0
C2853 C 0.29442 0.72675 0.43226 0.0
C2854 C 0.30941 0.72977 0.41396 0.0
H2855 H 0.28638 0.7111 0.46299 0.0
H2856 H 0.27952 0.73532 0.43362 0.0
S2857 S 0.36156 0.70284 0.40379 0.0
N2858 N 0.35142 0.69362 0.42785 0.0
N2859 N 0.34389 0.71966 0.39585 0.0
C2860 C 0.3287 0.7185 0.41314 0.0
C2861 C 0.33277 0.70436 0.43047 0.0
C2862 C 0.59477 0.02924 0.63003 0.0
C2863 C 0.61417 0.04706 0.64072 0.0
C2864 C 0.58231 0.03101 0.60872 0.0
C2865 C 0.58934 0.05037 0.59742 0.0
H2866 H 0.58948 1.01377 0.638 0.0
H2867 H 0.56784 0.01665 0.60046 0.0
S2868 S 0.63849 0.10193 0.61885 0.0
N2869 N 0.63936 0.08492 0.63907 0.0
N2870 N 0.6161 0.08808 0.59887 0.0
C2871 C 0.60833 0.06853 0.60831 0.0
C2872 C 0.62075 0.0669 0.63004 0.0
C2873 C 0.3356 0.3267 0.89405 0.0
C2874 C 0.3154 0.32623 0.90664 0.0
C2875 C 0.33413 0.32022 0.86859 0.0
C2876 C 0.3124 0.31301 0.8543 0.0
H2877 H 0.35281 0.33267 0.9039 0.0
H2878 H 0.35033 0.32131 0.86005 0.0
S2879 S 0.25404 0.30673 0.8782 0.0
N2880 N 0.2728 0.31632 0.90266 0.0
N2881 N 0.27007 0.30472 0.85504 0.0
C2882 C 0.29201 0.31203 0.86665 0.0
C2883 C 0.29351 0.31849 0.89264 0.0
C2884 C 1.00618 0.07423 0.4303 0.0
C2885 C 1.00786 0.05925 0.40769 0.0
C2886 C 0.01683 0.07175 0.45313 0.0
C2887 C 0.03033 0.05422 0.45545 0.0
H2888 H 0.99612 0.08801 0.43056 0.0
H2889 H 1.01434 0.08392 0.46929 0.0
S2890 S 0.04212 1.01095 0.40242 0.0
N2891 N 0.02573 0.02651 0.39 0.0
N2892 N 0.04505 0.02193 0.43182 0.0
C2893 C 0.03246 0.03933 0.43301 0.0
C2894 C 0.02153 0.04178 0.40975 0.0
C2895 C 0.30352 0.73847 0.66201 0.0
C2896 C 0.32053 0.72431 0.66327 0.0
C2897 C 0.29972 0.75494 0.68242 0.0
C2898 C 0.3127 0.75784 0.70492 0.0
H2899 H 0.29292 0.73668 0.64514 0.0
H2900 H 0.28612 0.76498 0.68074 0.0
S2901 S 0.35914 0.72541 0.71821 0.0
N2902 N 0.35029 0.71458 0.68932 0.0
N2903 N 0.34337 0.74551 0.72717 0.0
C2904 C 0.32991 0.74414 0.70633 0.0
C2905 C 0.33381 0.72746 0.68568 0.0
C2906 C 0.65912 0.08841 0.87915 0.0
C2907 C 0.64903 0.08487 0.85526 0.0
C2908 C 0.64532 0.09068 0.89854 0.0
C2909 C 0.62112 0.08967 0.89457 0.0
H2910 H 0.67749 0.08825 0.88275 0.0
H2911 H 0.65346 0.09249 0.91671 0.0
S2912 S 0.58703 0.08298 0.83537 0.0
N2913 N 0.61408 0.08243 0.82864 0.0
N2914 N 0.58798 0.08635 0.86513 0.0
C2915 C 0.61114 0.08745 0.87083 0.0
C2916 C 0.62516 0.0851 0.85113 0.0
C2917 C 0.32474 0.34768 0.18319 0.0
C2918 C 0.31563 0.33227 0.16089 0.0
C2919 C 0.32156 0.34064 0.20559 0.0
C2920 C 0.30885 0.31789 0.20702 0.0
H2921 H 0.33438 0.36552 0.18343 0.0
H2922 H 0.3292 0.35326 0.222 0.0
S2923 S 0.2822 0.27008 0.15433 0.0
N2924 N 0.29404 0.29252 0.14201 0.0
N2925 N 0.28754 0.27972 0.18391 0.0
C2926 C 0.29945 0.30233 0.18497 0.0
C2927 C 0.30294 0.30938 0.16207 0.0
C2928 C 0.15602 0.99477 0.01919 0.0
C2929 C 0.1773 1.0119 0.02543 0.0
C2930 C 0.1337 1.00051 0.02319 0.0
C2931 C 0.13112 0.02378 0.03373 0.0
H2932 H 0.15652 0.97656 1.01115 0.0
H2933 H 0.11826 0.98649 0.01765 0.0
S2934 S 0.18083 0.07586 0.05244 0.0
N2935 N 0.19367 0.05368 0.04203 0.0
N2936 N 0.15254 0.06423 0.04981 0.0
C2937 C 0.15226 0.04106 0.0401 0.0
C2938 C 0.17495 0.03522 0.03595 0.0
C2939 C 0.66742 0.59671 1.00371 0.0
C2940 C 0.6702 0.6217 1.00903 0.0
C2941 C 0.64598 0.58163 1.00583 0.0
C2942 C 0.62624 0.59088 1.01298 0.0
H2943 H 0.68214 0.58876 0.99846 0.0
H2944 H 0.64496 0.56257 1.00203 0.0
S2945 S 0.62405 0.65532 0.02717 0.0
N2946 N 0.65117 0.655 0.02061 0.0
N2947 N 0.61104 0.62713 0.02432 0.0
C2948 C 0.62874 0.61595 0.01762 0.0
C2949 C 0.65061 0.6312 0.01574 0.0
C2950 C 0.77933 0.40689 0.27773 0.0
C2951 C 0.75455 0.40585 0.27471 0.0
C2952 C 0.79008 0.3862 0.27705 0.0
C2953 C 0.77729 0.36206 0.27308 0.0
H2954 H 0.79094 0.4242 0.28109 0.0
H2955 H 0.80899 0.38937 0.27989 0.0
S2956 S 0.71198 0.34729 0.26209 0.0
N2957 N 0.7179 0.37662 0.2661 0.0
N2958 N 0.73741 0.33926 0.26514 0.0
C2959 C 0.75256 0.36065 0.26969 0.0
C2960 C 0.74158 0.38171 0.27041 0.0
C2961 C 0.94928 0.51419 0.53907 0.0
C2962 C 0.93513 0.51796 0.51945 0.0
C2963 C 0.97416 0.51926 0.54045 0.0
C2964 C 0.98649 0.52862 0.5224 0.0
H2965 H 0.94109 0.50746 0.55381 0.0
H2966 H 0.98382 0.51612 0.55609 0.0
S2967 S 0.95851 0.54019 0.46613 0.0
N2968 N 0.93613 0.53034 0.48064 0.0
N2969 N 0.98223 0.54045 0.48361 0.0
C2970 C 0.97265 0.53232 0.50261 0.0
C2971 C 0.94732 0.52691 0.50106 0.0
C2972 C 0.32336 0.12469 0.28589 0.0
C2973 C 0.34769 0.13364 0.28834 0.0
C2974 C 0.30785 0.13643 0.27554 0.0
C2975 C 0.31622 0.15733 0.26711 0.0
H2976 H 0.31629 0.10829 0.29165 0.0
H2977 H 0.28922 0.12904 0.27395 0.0
S2978 S 0.37814 0.18899 0.27108 0.0
N2979 N 0.37931 0.16526 0.28275 0.0
N2980 N 0.35014 0.18729 0.2631 0.0
C2981 C 0.34046 0.16662 0.26973 0.0
C2982 C 0.35622 0.15476 0.28038 0.0
C2983 C 0.41098 0.14898 0.53171 0.0
C2984 C 0.3898 0.13719 0.51771 0.0
C2985 C 0.42877 0.13677 0.5361 0.0
C2986 C 0.42626 0.11237 0.52639 0.0
H2987 H 0.41384 0.16782 0.53947 0.0
H2988 H 0.44462 0.1465 0.54722 0.0
S2989 S 0.3744 0.07291 0.48903 0.0
N2990 N 0.36733 0.09933 0.49468 0.0
N2991 N 0.40114 0.0767 0.50233 0.0
C2992 C 0.40548 0.1004 0.51203 0.0
C2993 C 0.38719 0.11272 0.50781 0.0
C2994 C 0.78088 0.68062 0.28555 0.0
C2995 C 0.75627 0.67183 0.28442 0.0
C2996 C 0.79119 0.70495 0.28493 0.0
C2997 C 0.77783 0.72273 0.28331 0.0
H2998 H 0.79255 0.66842 0.28655 0.0
H2999 H 0.81008 0.7098 0.28562 0.0
S3000 S 0.71271 0.71077 0.28181 0.0
N3001 N 0.71904 0.68459 0.28298 0.0
N3002 N 0.73797 0.72908 0.28165 0.0
C3003 C 0.75324 0.71434 0.28259 0.0
C3004 C 0.74272 0.68955 0.28316 0.0
C3005 C 0.83371 0.41053 0.79155 0.0
C3006 C 0.83989 0.42151 0.81602 0.0
C3007 C 0.82567 0.38597 0.78461 0.0
C3008 C 0.82364 0.37132 0.80186 0.0
H3009 H 0.83609 0.42085 0.77745 0.0
H3010 H 0.82185 0.3784 0.76544 0.0
S3011 S 0.83496 0.39177 0.86861 0.0
N3012 N 0.84146 0.41637 0.85777 0.0
N3013 N 0.82654 0.3699 0.84479 0.0
C3014 C 0.82874 0.38219 0.82655 0.0
C3015 C 0.83686 0.40734 0.83361 0.0
C3016 C 0.08106 0.86406 0.02575 0.0
C3017 C 0.09353 0.87543 0.04818 0.0
C3018 C 0.07254 0.87735 1.01027 0.0
C3019 C 0.07669 0.90231 0.01671 0.0
H3020 H 0.07663 0.84479 0.02089 0.0
H3021 H 0.0616 0.86807 0.99385 0.0
S3022 S 0.10972 0.94019 0.07302 0.0
N3023 N 0.11061 0.91267 0.07568 0.0
N3024 N 0.095 0.93785 0.04653 0.0
C3025 C 0.0904 0.91383 0.0385 0.0
C3026 C 0.09871 0.90031 0.05432 0.0
C3027 C 0.91623 0.30273 0.8075 0.0
C3028 C 0.91864 0.28806 0.82418 0.0
C3029 C 0.89441 0.30191 0.79557 0.0
C3030 C 0.87426 0.28645 0.80003 0.0
H3031 H 0.93113 0.31572 0.80451 0.0
H3032 H 0.89322 0.3144 0.78379 0.0
S3033 S 0.87205 0.24198 0.83959 0.0
N3034 N 0.89969 0.25608 0.84294 0.0
N3035 N 0.85868 0.25393 0.81994 0.0
C3036 C 0.87682 0.27031 0.81521 0.0
C3037 C 0.89905 0.27125 0.82744 0.0
C3038 C 0.61678 0.15677 0.55022 0.0
C3039 C 0.60058 0.17181 0.55294 0.0
C3040 C 0.60924 0.13226 0.54132 0.0
C3041 C 0.5853 0.12223 0.53552 0.0
H3042 H 0.63517 0.16385 0.55605 0.0
H3043 H 0.622 0.12095 0.54057 0.0
S3044 S 0.53625 0.15421 0.53767 0.0
N3045 N 0.55984 0.17523 0.54753 0.0
N3046 N 0.5457 0.12906 0.53121 0.0
C3047 C 0.56913 0.13722 0.53694 0.0
C3048 C 0.57679 0.16211 0.54556 0.0
C3049 C 0.64073 0.82617 0.35093 0.0
C3050 C 0.62872 0.80444 0.3555 0.0
C3051 C 0.65969 0.82697 0.33695 0.0
C3052 C 0.6672 0.80606 0.32708 0.0
H3053 H 0.63544 0.84266 0.35825 0.0
H3054 H 0.66861 0.84407 0.33392 0.0
S3055 S 0.64094 0.74461 0.33294 0.0
N3056 N 0.62515 0.76149 0.34868 0.0
N3057 N 0.66098 0.763 0.32228 0.0
C3058 C 0.6554 0.78421 0.33157 0.0
C3059 C 0.63608 0.7834 0.34584 0.0
C3060 C 0.07094 0.22954 0.49878 0.0
C3061 C 0.09053 0.22974 0.48537 0.0
C3062 C 0.06451 0.21213 0.51255 0.0
C3063 C 0.07746 0.19431 0.51349 0.0
H3064 H 0.0604 0.2429 0.49851 0.0
H3065 H 0.04922 0.21256 0.52248 0.0
S3066 S 0.12971 0.18637 0.48097 0.0
N3067 N 0.12256 0.21031 0.4735 0.0
N3068 N 0.11049 0.17755 0.49944 0.0
C3069 C 0.09723 0.19441 0.50037 0.0
C3070 C 0.10378 0.21215 0.48632 0.0
C3071 C 0.62321 0.28553 0.25858 0.0
C3072 C 0.61548 0.27246 0.23505 0.0
C3073 C 0.64348 0.28228 0.27101 0.0
C3074 C 0.65644 0.26584 0.2602 0.0
H3075 H 0.61342 0.29811 0.26745 0.0
H3076 H 0.64904 0.29262 0.28913 0.0
S3077 S 0.64482 0.2296 0.19773 0.0
N3078 N 0.62312 0.24401 0.20073 0.0
N3079 N 0.6612 0.238 0.22387 0.0
C3080 C 0.64911 0.25319 0.23641 0.0
C3081 C 0.62862 0.25649 0.22388 0.0
C3082 C 0.58673 0.94524 0.98688 0.0
C3083 C 0.60024 0.94628 0.96714 0.0
C3084 C 0.57763 0.96474 0.99747 0.0
C3085 C 0.58141 0.98596 0.98859 0.0
H3086 H 0.58313 0.9292 0.99424 0.0
H3087 H 0.56773 0.96324 1.01296 0.0
S3088 S 0.61558 0.99799 0.93734 0.0
N3089 N 0.61704 0.97037 0.93911 0.0
N3090 N 0.59944 1.00699 0.95888 0.0
C3091 C 0.59435 0.98714 0.96849 0.0
C3092 C 0.60389 0.9673 0.9578 0.0
C3093 C 0.91268 0.79393 0.74593 0.0
C3094 C 0.91071 0.77218 0.72962 0.0
C3095 C 0.89532 0.79775 0.76128 0.0
C3096 C 0.87524 0.77997 0.7609 0.0
H3097 H 0.92743 0.80844 0.74627 0.0
H3098 H 0.89714 0.81525 0.77265 0.0
S3099 S 0.86329 0.71866 0.72379 0.0
N3100 N 0.8884 0.73172 0.71563 0.0
N3101 N 0.85565 0.73881 0.74474 0.0
C3102 C 0.87394 0.75743 0.74609 0.0
C3103 C 0.8917 0.75356 0.73034 0.0
C3104 C 0.11465 0.05814 0.92515 0.0
C3105 C 0.11515 0.03609 0.90927 0.0
C3106 C 0.10337 0.05993 0.94743 0.0
C3107 C 0.09136 0.03985 0.956 0.0
H3108 H 0.12299 0.07459 0.92029 0.0
H3109 H 0.10412 0.07754 0.9581 0.0
S3110 S 0.08828 0.97735 0.92359 0.0
N3111 N 0.10301 0.99328 0.90603 0.0
N3112 N 0.08203 0.99668 0.94629 0.0
C3113 C 0.09188 0.01771 0.94054 0.0
C3114 C 0.10348 0.01584 0.91794 0.0
C3115 C 0.78869 0.37643 0.60813 0.0
C3116 C 0.80437 0.39777 0.60742 0.0
C3117 C 0.79243 0.36296 0.62563 0.0
C3118 C 0.812 0.37037 0.64301 0.0
H3119 H 0.77383 0.36971 0.5946 0.0
H3120 H 0.78033 0.34628 0.62511 0.0
S3121 S 0.85641 0.42649 0.65095 0.0
N3122 N 0.83887 0.42681 0.62706 0.0
N3123 N 0.84596 0.40145 0.65982 0.0
C3124 C 0.82724 0.39214 0.64309 0.0
C3125 C 0.82342 0.40585 0.62535 0.0
C3126 C 0.52156 0.03712 0.41721 0.0
C3127 C 0.50957 0.05549 0.4152 0.0
C3128 C 0.53467 0.03731 0.43882 0.0
C3129 C 0.53582 0.0557 0.4591 0.0
H3130 H 0.52009 0.02213 0.40226 0.0
H3131 H 0.54282 0.02234 0.44003 0.0
S3132 S 0.50896 0.10882 0.4623 0.0
N3133 N 0.50072 0.09315 0.43462 0.0
N3134 N 0.52554 0.09374 0.47517 0.0
C3135 C 0.52494 0.07481 0.45682 0.0
C3136 C 0.51173 0.07465 0.43485 0.0
C3137 C 0.78706 0.77221 0.16071 0.0
C3138 C 0.80621 0.76804 0.1477 0.0
C3139 C 0.7894 0.77898 0.18616 0.0
C3140 C 0.811 0.78169 0.20008 0.0
H3141 H 0.76999 0.77026 0.1511 0.0
H3142 H 0.77391 0.78178 0.19498 0.0
S3143 S 0.86675 0.77257 0.17493 0.0
N3144 N 0.84766 0.76703 0.15079 0.0
N3145 N 0.85209 0.77959 0.19846 0.0
C3146 C 0.83039 0.77765 0.18728 0.0
C3147 C 0.82801 0.77093 0.16124 0.0
C3148 C 0.10839 0.01506 0.62896 0.0
C3149 C 0.11618 0.03462 0.64887 0.0
C3150 C 0.09776 0.01729 0.606 0.0
C3151 C 0.09381 0.03928 0.60083 0.0
H3152 H 0.11024 0.99744 0.63108 0.0
H3153 H 0.09242 1.00132 0.59209 0.0
S3154 S 0.11211 0.097 0.64494 0.0
N3155 N 0.11998 0.07761 0.65997 0.0
N3156 N 0.09989 0.08143 0.61827 0.0
C3157 C 0.10166 0.05903 0.62037 0.0
C3158 C 0.11269 0.05683 0.64368 0.0
C3159 C 0.78236 0.3598 0.3739 0.0
C3160 C 0.80162 0.37371 0.38965 0.0
C3161 C 0.78526 0.34239 0.35401 0.0
C3162 C 0.80757 0.3379 0.34891 0.0
H3163 H 0.76488 0.36282 0.37656 0.0
H3164 H 0.76982 0.3328 0.34218 0.0
S3165 S 0.86354 0.36768 0.38614 0.0
N3166 N 0.84365 0.38043 0.39988 0.0
N3167 N 0.84918 0.34805 0.36256 0.0
C3168 C 0.82691 0.35115 0.36504 0.0
C3169 C 0.82393 0.36891 0.3853 0.0
C3170 C 0.49687 0.02183 0.20809 0.0
C3171 C 0.47317 1.01035 0.20388 0.0
C3172 C 0.51177 0.01976 0.1897 0.0
C3173 C 0.50337 1.00632 0.16648 0.0
H3174 H 0.50381 0.03287 0.2256 0.0
H3175 H 0.52975 0.02952 0.19342 0.0
S3176 S 0.44304 0.97177 0.14677 0.0
N3177 N 0.44214 0.98426 0.17539 0.0
N3178 N 0.47026 0.98035 0.14056 0.0
C3179 C 0.47988 0.99412 0.16227 0.0
C3180 C 0.46474 0.99609 0.18109 0.0
C3181 C 0.82324 0.77894 0.89005 0.0
C3182 C 0.80493 0.76036 0.89306 0.0
C3183 C 0.82562 0.7862 0.86757 0.0
C3184 C 0.80994 0.77515 0.84682 0.0
H3185 H 0.83569 0.78826 0.90534 0.0
H3186 H 0.83988 0.80075 0.86654 0.0
S3187 S 0.75978 0.72443 0.84446 0.0
N3188 N 0.77157 0.73025 0.87275 0.0
N3189 N 0.77564 0.7439 0.83107 0.0
C3190 C 0.79174 0.75628 0.84958 0.0
C3191 C 0.78934 0.74894 0.87243 0.0
C3192 C 0.95043 0.05584 0.02496 0.0
C3193 C 0.9481 0.07978 0.03214 0.0
C3194 C 0.97257 0.04944 0.02166 0.0
C3195 C 0.99392 0.06653 0.02559 0.0
H3196 H 0.93491 0.04176 0.02166 0.0
H3197 H 0.97288 0.03072 0.01632 0.0
S3198 S 0.99815 0.13179 0.04593 0.0
N3199 N 0.96976 0.12065 0.04376 0.0
N3200 N 1.01071 0.10884 0.03796 0.0
C3201 C 0.99181 0.09055 0.03295 0.0
C3202 C 0.96926 0.09707 0.03607 0.0
C3203 C 0.47483 0.46635 0.04764 0.0
C3204 C 0.45399 0.47507 0.04937 0.0
C3205 C 0.49622 0.48126 0.04523 0.0
C3206 C 0.49782 0.50564 0.04494 0.0
H3207 H 0.47445 0.44768 0.04734 0.0
H3208 H 0.51163 0.47352 0.04341 0.0
S3209 S 0.44848 0.53749 0.05028 0.0
N3210 N 0.43644 0.5098 0.05149 0.0
N3211 N 0.47651 0.53782 0.04743 0.0
C3212 C 0.47721 0.51471 0.04748 0.0
C3213 C 0.45537 0.49944 0.04953 0.0
C3214 C 0.37925 0.71171 0.78037 0.0
C3215 C 0.36674 0.68817 0.78108 0.0
C3216 C 0.36849 0.73239 0.78096 0.0
C3217 C 0.34402 0.73197 0.7826 0.0
H3218 H 0.39791 0.71435 0.7789 0.0
H3219 H 0.37977 0.74911 0.77991 0.0
S3220 S 0.30214 0.67608 0.78645 0.0
N3221 N 0.3273 0.66726 0.78463 0.0
N3222 N 0.30791 0.70469 0.78553 0.0
C3223 C 0.33133 0.70873 0.78369 0.0
C3224 C 0.34224 0.68763 0.78297 0.0
C3225 C 0.1772 0.57399 0.51663 0.0
C3226 C 0.19085 0.57686 0.53892 0.0
C3227 C 0.15232 0.56928 0.51477 0.0
C3228 C 0.13954 0.56703 0.53507 0.0
H3229 H 0.18584 0.57579 0.50041 0.0
H3230 H 0.14303 0.56741 0.49713 0.0
S3231 S 0.16654 0.57125 0.59752 0.0
N3232 N 0.1892 0.5758 0.5816 0.0
N3233 N 0.1431 0.56724 0.57826 0.0
C3234 C 0.153 0.56951 0.55741 0.0
C3235 C 0.17831 0.57434 0.55928 0.0
C3236 C 0.78653 0.97431 0.78858 0.0
C3237 C 0.77728 0.9671 0.76419 0.0
C3238 C 0.80142 0.96183 0.79869 0.0
C3239 C 0.80748 0.94173 0.78472 0.0
H3240 H 0.78205 0.9896 0.79996 0.0
H3241 H 0.808 0.96774 0.81762 0.0
S3242 S 0.78684 0.91504 0.7203 0.0
N3243 N 0.77478 0.9386 0.72643 0.0
N3244 N 0.80239 0.91465 0.74554 0.0
C3245 C 0.79841 0.93443 0.76026 0.0
C3246 C 0.78339 0.94726 0.74994 0.0
C3247 C 0.73205 0.97871 0.54772 0.0
C3248 C 0.73053 0.95473 0.53655 0.0
C3249 C 0.71414 0.99079 0.5432 0.0
C3250 C 0.69409 0.97935 0.52731 0.0
H3251 H 0.74752 0.98842 0.55945 0.0
H3252 H 0.71636 1.00943 0.55159 0.0
S3253 S 0.68014 0.91587 0.49614 0.0
N3254 N 0.70627 0.9194 0.51078 0.0
N3255 N 0.67276 0.94213 0.50223 0.0
C3256 C 0.69192 0.95514 0.51683 0.0
C3257 C 0.71009 0.94284 0.52145 0.0
C3258 C 0.37928 0.40613 0.77103 0.0
C3259 C 0.36598 0.42434 0.77188 0.0
C3260 C 0.36916 0.38167 0.77148 0.0
C3261 C 0.34478 0.37316 0.77252 0.0
H3262 H 0.39803 0.41083 0.77037 0.0
H3263 H 0.38079 0.36923 0.77099 0.0
S3264 S 0.30108 0.41227 0.77353 0.0
N3265 N 0.32612 0.43069 0.77278 0.0
N3266 N 0.30763 0.38601 0.77365 0.0
C3267 C 0.33123 0.39108 0.77304 0.0
C3268 C 0.34154 0.41599 0.77274 0.0
C3269 C 0.30381 0.69211 0.25031 0.0
C3270 C 0.28127 0.68257 0.23828 0.0
C3271 C 0.3121 0.71669 0.25695 0.0
C3272 C 0.29841 0.73249 0.25113 0.0
H3273 H 0.31477 0.68049 0.2555 0.0
H3274 H 0.32908 0.72341 0.26721 0.0
S3275 S 0.23882 0.7171 0.21906 0.0
N3276 N 0.24558 0.69117 0.22056 0.0
N3277 N 0.26196 0.73748 0.23195 0.0
C3278 C 0.27651 0.7234 0.23791 0.0
C3279 C 0.26774 0.69836 0.23167 0.0
C3280 C 0.53016 0.70209 0.5125 0.0
C3281 C 0.53608 0.72698 0.51992 0.0
C3282 C 0.53847 0.68737 0.52628 0.0
C3283 C 0.55286 0.69695 0.54802 0.0
H3284 H 0.52051 0.6939 0.49507 0.0
H3285 H 0.53516 0.66843 0.51887 0.0
S3286 S 0.57079 0.76066 0.57714 0.0
N3287 N 0.55495 0.7605 0.55188 0.0
N3288 N 0.57111 0.73248 0.5775 0.0
C3289 C 0.55775 0.72164 0.55647 0.0
C3290 C 0.54914 0.73674 0.54252 0.0
C3291 C 0.70685 0.28637 0.72659 0.0
C3292 C 0.69795 0.30719 0.73245 0.0
C3293 C 0.72829 0.28476 0.73757 0.0
C3294 C 0.74126 0.30376 0.75507 0.0
H3295 H 0.69765 0.27159 0.71264 0.0
H3296 H 0.73502 0.26873 0.73196 0.0
S3297 S 0.72489 0.36159 0.77765 0.0
N3298 N 0.7031 0.34688 0.75724 0.0
N3299 N 0.74347 0.3436 0.77859 0.0
C3300 C 0.73212 0.3243 0.76191 0.0
C3301 C 0.71042 0.32612 0.75032 0.0
C3302 C 1.0065 0.43863 1.0116 0.0
C3303 C 0.02347 0.42493 1.00555 0.0
C3304 C 1.01278 0.46352 0.01784 0.0
C3305 C 0.03607 0.47519 0.01765 0.0
H3306 H 0.9882 0.4301 1.01051 0.0
H3307 H 0.99923 0.47368 0.0215 0.0
S3308 S 0.08738 0.44759 1.0056 0.0
N3309 N 0.06482 0.42496 1.00156 0.0
N3310 N 0.07644 0.47164 1.01346 0.0
C3311 C 0.05334 0.46172 1.01307 0.0
C3312 C 0.04708 0.43654 1.00697 0.0
C3313 C 0.99889 0.79522 0.22749 0.0
C3314 C 0.99585 0.78718 0.20223 0.0
C3315 C 0.97963 0.79478 0.24107 0.0
C3316 C 0.95673 0.78632 0.22981 0.0
H3317 H 0.01629 0.80197 0.23681 0.0
H3318 H 0.98266 0.80118 0.2605 0.0
S3319 S 0.93949 0.76221 0.16437 0.0
N3320 N 0.96836 0.76987 0.16655 0.0
N3321 N 0.93201 0.76906 0.19218 0.0
C3322 C 0.95342 0.77825 0.20458 0.0
C3323 C 0.97304 0.77868 0.19075 0.0
C3324 C 0.52966 0.36479 0.04839 0.0
C3325 C 0.54234 0.36531 0.07051 0.0
C3326 C 0.5361 0.38252 0.03491 0.0
C3327 C 0.55549 0.40135 0.04303 0.0
H3328 H 0.51481 0.35043 0.04132 0.0
H3329 H 0.52592 0.38141 0.01793 0.0
S3330 S 0.59311 0.41203 0.10082 0.0
N3331 N 0.57421 0.38707 0.10067 0.0
N3332 N 0.58646 0.42016 0.07522 0.0
C3333 C 0.56811 0.40222 0.06525 0.0
C3334 C 0.5615 0.38428 0.07902 0.0
C3335 C 0.99804 0.29919 0.29379 0.0
C3336 C 1.00722 0.31162 0.31718 0.0
C3337 C 0.97913 0.30538 0.28175 0.0
C3338 C 0.96915 0.32439 0.29263 0.0
H3339 H 1.00505 0.28421 0.2851 0.0
H3340 H 0.97193 0.29492 0.26407 0.0
S3341 S 0.98826 0.36342 0.35313 0.0
N3342 N 1.00619 0.34462 0.35014 0.0
N3343 N 0.97042 0.35591 0.32795 0.0
C3344 C 0.97886 0.33744 0.3157 0.0
C3345 C 0.99797 0.33113 0.32787 0.0
C3346 C 0.05438 0.65468 0.57314 0.0
C3347 C 0.03583 0.65496 0.58785 0.0
C3348 C 0.06052 0.63327 0.56288 0.0
C3349 C 0.04852 0.61138 0.56723 0.0
H3350 H 0.06405 0.67115 0.5693 0.0
H3351 H 0.0748 0.63393 0.55145 0.0
S3352 S 0.99891 0.60274 0.6051 0.0
N3353 N 1.00572 0.63181 0.60672 0.0
N3354 N 0.01727 0.59136 0.5875 0.0
C3355 C 0.03008 0.61146 0.5822 0.0
C3356 C 0.02369 0.6333 0.59245 0.0
C3357 C 0.72394 0.83318 0.82189 0.0
C3358 C 0.71064 0.81186 0.82627 0.0
C3359 C 0.74225 0.8329 0.80696 0.0
C3360 C 0.74748 0.8113 0.79549 0.0
H3361 H 0.72067 0.85023 0.83068 0.0
H3362 H 0.75304 0.84968 0.80522 0.0
S3363 S 0.71796 0.75063 0.80083 0.0
N3364 N 0.70404 0.76858 0.81786 0.0
N3365 N 0.73787 0.76811 0.78909 0.0
C3366 C 0.73361 0.78985 0.7987 0.0
C3367 C 0.71529 0.79011 0.81427 0.0
C3368 C 0.50689 0.53707 0.63192 0.0
C3369 C 0.50793 0.55905 0.64853 0.0
C3370 C 0.51835 0.53504 0.60979 0.0
C3371 C 0.53199 0.5548 0.60202 0.0
H3372 H 0.49718 0.52082 0.6361 0.0
H3373 H 0.51636 0.51749 0.59853 0.0
S3374 S 0.53984 0.61717 0.6368 0.0
N3375 N 0.52359 0.60156 0.6536 0.0
N3376 N 0.54473 0.59773 0.61341 0.0
C3377 C 0.53305 0.57692 0.61823 0.0
C3378 C 0.52135 0.57902 0.64077 0.0
C3379 C 0.80522 0.2185 0.95462 0.0
C3380 C 0.81769 0.20003 0.94976 0.0
C3381 C 0.80107 0.23184 0.93719 0.0
C3382 C 0.80918 0.22727 0.91413 0.0
H3383 H 0.79863 0.22273 0.97212 0.0
H3384 H 0.79148 0.24594 0.94187 0.0
S3385 S 0.84199 0.18029 0.89192 0.0
N3386 N 0.83773 0.17754 0.92002 0.0
N3387 N 0.82988 0.2026 0.88718 0.0
C3388 C 0.82181 0.20895 0.90904 0.0
C3389 C 0.82607 0.19536 0.92686 0.0
C3390 C 0.10582 0.55042 0.1361 0.0
C3391 C 0.1197 0.53314 0.1355 0.0
C3392 C 0.09098 0.55068 0.11588 0.0
C3393 C 0.08963 0.5337 0.09439 0.0
H3394 H 0.10725 0.56446 0.15198 0.0
H3395 H 0.08164 0.56511 0.11667 0.0
S3396 S 0.12028 0.48295 0.08469 0.0
N3397 N 0.12977 0.49752 0.11253 0.0
N3398 N 0.10135 0.49744 0.07467 0.0
C3399 C 0.10207 0.51522 0.09423 0.0
C3400 C 0.11726 0.51507 0.11478 0.0
C3401 C 0.83642 0.82691 0.39762 0.0
C3402 C 0.81648 0.82872 0.41025 0.0
C3403 C 0.83475 0.82017 0.37215 0.0
C3404 C 0.81306 0.81494 0.35784 0.0
H3405 H 0.85366 0.83125 0.40744 0.0
H3406 H 0.8508 0.81945 0.36362 0.0
S3407 S 0.75513 0.81515 0.38178 0.0
N3408 N 0.77399 0.82318 0.40623 0.0
N3409 N 0.77095 0.81111 0.35863 0.0
C3410 C 0.7929 0.81631 0.37022 0.0
C3411 C 0.79458 0.82304 0.39623 0.0
C3412 C 0.50717 0.57558 0.93071 0.0
C3413 C 0.50747 0.5597 0.90824 0.0
C3414 C 0.518 0.57317 0.95351 0.0
C3415 C 0.53014 0.55463 0.95602 0.0
H3416 H 0.49863 0.59049 0.93083 0.0
H3417 H 0.51685 0.58626 0.96948 0.0
S3418 S 0.53546 0.50678 0.90401 0.0
N3419 N 0.52064 0.52352 0.89136 0.0
N3420 N 0.54079 0.51945 0.93299 0.0
C3421 C 0.53047 0.53851 0.93383 0.0
C3422 C 0.51937 0.5409 0.9106 0.0
C3423 C 0.80401 0.22825 0.17119 0.0
C3424 C 0.826 0.22258 0.1667 0.0
C3425 C 0.80137 0.24556 0.19136 0.0
C3426 C 0.8206 0.25811 0.20799 0.0
H3427 H 0.78864 0.21921 0.15897 0.0
H3428 H 0.78401 0.24894 0.19403 0.0
S3429 S 0.88184 0.24904 0.2053 0.0
N3430 N 0.86721 0.23038 0.18124 0.0
N3431 N 0.86249 0.26288 0.21868 0.0
C3432 C 0.84273 0.25263 0.20361 0.0
C3433 C 0.84536 0.23496 0.18315 0.0
C3434 C 0.15025 0.56528 0.36902 0.0
C3435 C 0.14434 0.57187 0.34717 0.0
C3436 C 0.13524 0.56602 0.3874 0.0
C3437 C 0.11379 0.57319 0.38439 0.0
H3438 H 0.16662 0.5596 0.37194 0.0
H3439 H 0.14052 0.56105 0.40413 0.0
S3440 S 0.08983 0.59087 0.32985 0.0
N3441 N 0.11554 0.58512 0.32308 0.0
N3442 N 0.08703 0.5862 0.35761 0.0
C3443 C 0.10766 0.57974 0.36254 0.0
C3444 C 0.12303 0.57913 0.3439 0.0
C3445 C 0.80999 0.81842 0.66824 0.0
C3446 C 0.82 0.84211 0.66709 0.0
C3447 C 0.80751 0.81104 0.69057 0.0
C3448 C 0.81492 0.82692 0.71302 0.0
H3449 H 0.80384 0.80542 0.65167 0.0
H3450 H 0.7997 0.79257 0.69016 0.0
S3451 S 0.84432 0.89044 0.72018 0.0
N3452 N 0.83863 0.88113 0.69059 0.0
N3453 N 0.8339 0.86741 0.73232 0.0
C3454 C 0.82511 0.85065 0.71214 0.0
C3455 C 0.82766 0.85817 0.68934 0.0
C3456 C 0.67473 0.53772 0.53771 0.0
C3457 C 0.67752 0.51603 0.52313 0.0
C3458 C 0.65232 0.54349 0.54107 0.0
C3459 C 0.63116 0.52785 0.53034 0.0
H3460 H 0.69009 0.55073 0.54631 0.0
H3461 H 0.65167 0.56057 0.55214 0.0
S3462 S 0.62798 0.46853 0.49061 0.0
N3463 N 0.65628 0.47851 0.49845 0.0
N3464 N 0.61506 0.4896 0.50388 0.0
C3465 C 0.6337 0.50608 0.51581 0.0
C3466 C 0.65646 0.50017 0.51244 0.0
C3467 C 0.14861 0.12481 0.50305 0.0
C3468 C 0.17022 0.11805 0.5066 0.0
C3469 C 0.12736 0.1098 0.50562 0.0
C3470 C 0.12676 0.0872 0.51144 0.0
H3471 H 0.14818 0.14215 0.49902 0.0
H3472 H 0.11128 0.11615 0.50328 0.0
S3473 S 0.17863 0.0606 0.52108 0.0
N3474 N 0.18972 0.08694 0.51525 0.0
N3475 N 0.15 0.05864 0.51977 0.0
C3476 C 0.14828 0.07997 0.51425 0.0
C3477 C 0.1699 0.0954 0.51194 0.0
C3478 C 0.23994 0.88139 0.77411 0.0
C3479 C 0.25279 0.90476 0.77318 0.0
C3480 C 0.25025 0.86037 0.77325 0.0
C3481 C 0.27457 0.86031 0.77116 0.0
H3482 H 0.22135 0.87911 0.77592 0.0
H3483 H 0.23874 0.84381 0.77439 0.0
S3484 S 0.31718 0.91549 0.76654 0.0
N3485 N 0.29233 0.92487 0.76883 0.0
N3486 N 0.31093 0.88695 0.76762 0.0
C3487 C 0.2876 0.8834 0.76996 0.0
C3488 C 0.27713 0.90478 0.77084 0.0
C3489 C 0.44945 1.00297 0.02864 0.0
C3490 C 0.43579 0.01812 0.02046 0.0
C3491 C 0.47435 1.00823 0.03042 0.0
C3492 C 0.48717 0.0289 0.02398 0.0
H3493 H 0.44083 0.98658 0.03346 0.0
H3494 H 0.48361 0.99577 0.03671 0.0
S3495 S 0.4605 0.07589 1.00369 0.0
N3496 N 0.43773 0.05584 1.00755 0.0
N3497 N 0.48382 0.06536 1.01034 0.0
C3498 C 0.47378 0.04439 0.01613 0.0
C3499 C 0.44845 0.03912 1.01448 0.0
C3500 C 0.82833 0.62159 0.78253 0.0
C3501 C 0.85211 0.63103 0.79049 0.0
C3502 C 0.81423 0.6355 0.77349 0.0
C3503 C 0.82354 0.65922 0.77243 0.0
H3504 H 0.82067 0.60332 0.78316 0.0
H3505 H 0.79591 0.62788 0.76775 0.0
S3506 S 0.88463 0.69211 0.7907 0.0
N3507 N 0.88435 0.66532 0.79643 0.0
N3508 N 0.85773 0.69153 0.77954 0.0
C3509 C 0.84727 0.66877 0.78009 0.0
C3510 C 0.86163 0.65462 0.7891 0.0
C3511 C 0.89191 0.61803 1.01448 0.0
C3512 C 0.89367 0.64234 0.02443 0.0
C3513 C 0.91008 0.60629 0.01908 0.0
C3514 C 0.93068 0.61842 0.03381 0.0
H3515 H 0.87609 0.60782 1.00365 0.0
H3516 H 0.90769 0.58742 1.01161 0.0
S3517 S 0.94528 0.68286 0.06147 0.0
N3518 N 0.91863 0.67861 0.04777 0.0
N3519 N 0.95264 0.65656 0.05645 0.0
C3520 C 0.93303 0.64292 0.04307 0.0
C3521 C 0.91458 0.65486 0.03837 0.0
C3522 C 0.24367 0.18699 0.77709 0.0
C3523 C 0.25707 0.17014 0.78222 0.0
C3524 C 0.25383 0.21138 0.77642 0.0
C3525 C 0.27834 0.22108 0.78056 0.0
H3526 H 0.22483 0.18141 0.77378 0.0
H3527 H 0.24213 0.22278 0.77245 0.0
S3528 S 0.32228 0.18521 0.79364 0.0
N3529 N 0.29713 0.16595 0.79075 0.0
N3530 N 0.31569 0.21055 0.78956 0.0
C3531 C 0.29198 0.20441 0.78551 0.0
C3532 C 0.28163 0.17963 0.78635 0.0
C3533 C 0.33125 0.91365 0.33703 0.0
C3534 C 0.33509 0.92747 0.31915 0.0
C3535 C 0.3259 0.88871 0.33072 0.0
C3536 C 0.32489 0.87708 0.30646 0.0
H3537 H 0.33324 0.92217 0.356 0.0
H3538 H 0.32381 0.87851 0.34493 0.0
S3539 S 0.33168 0.90495 0.25277 0.0
N3540 N 0.33597 0.92757 0.27607 0.0
N3541 N 0.32611 0.88077 0.2644 0.0
C3542 C 0.32756 0.89063 0.28839 0.0
C3543 C 0.33262 0.91587 0.29469 0.0
C3544 C 0.5609 0.36855 0.54442 0.0
C3545 C 0.58444 0.36646 0.54435 0.0
C3546 C 0.55168 0.3821 0.52985 0.0
C3547 C 0.56569 0.39409 0.51468 0.0
H3548 H 0.5498 0.36053 0.55667 0.0
H3549 H 0.53398 0.38467 0.53201 0.0
S3550 S 0.62748 0.39113 0.50525 0.0
N3551 N 0.62093 0.37515 0.52612 0.0
N3552 N 0.60344 0.40035 0.49812 0.0
C3553 C 0.58871 0.39038 0.5129 0.0
C3554 C 0.59814 0.37662 0.52789 0.0
C3555 C 0.39297 0.77364 0.34312 0.0
C3556 C 0.41572 0.77906 0.3362 0.0
C3557 C 0.37413 0.77844 0.33004 0.0
C3558 C 0.37741 0.78877 0.30958 0.0
H3559 H 0.38991 0.76672 0.35946 0.0
H3560 H 0.35694 0.77471 0.33645 0.0
S3561 S 0.43333 0.80459 0.28302 0.0
N3562 N 0.4405 0.79394 0.30693 0.0
N3563 N 0.40468 0.8027 0.28191 0.0
C3564 C 0.39979 0.79283 0.30149 0.0
C3565 C 0.41911 0.78803 0.31496 0.0
C3566 C 0.09577 0.65882 0.04273 0.0
C3567 C 0.10465 0.668 0.06705 0.0
C3568 C 0.08981 0.6343 0.03375 0.0
C3569 C 0.09324 0.6183 0.04861 0.0
H3570 H 0.09238 0.67064 0.03085 0.0
H3571 H 0.08175 0.62779 0.01534 0.0
S3572 S 0.117 0.63277 0.11297 0.0
N3573 N 0.11708 0.65888 0.10563 0.0
N3574 N 0.107 0.61269 0.08806 0.0
C3575 C 0.1035 0.62705 0.07238 0.0
C3576 C 0.10902 0.65201 0.08179 0.0
C3577 C 0.1343 0.33323 0.83886 0.0
C3578 C 0.13616 0.32871 0.86237 0.0
C3579 C 0.15254 0.33155 0.82413 0.0
C3580 C 0.17327 0.32548 0.83254 0.0
H3581 H 0.11828 0.33718 0.83151 0.0
H3582 H 0.15011 0.33432 0.80578 0.0
S3583 S 0.18747 0.31458 0.89386 0.0
N3584 N 0.16053 0.31943 0.8941 0.0
N3585 N 0.19534 0.31698 0.86664 0.0
C3586 C 0.17566 0.32187 0.85643 0.0
C3587 C 0.15696 0.32333 0.87131 0.0
C3588 C 0.59535 0.73074 1.01024 0.0
C3589 C 0.5826 0.73248 0.98897 0.0
C3590 C 0.58809 0.71201 0.02228 0.0
C3591 C 0.56801 0.69428 1.01327 0.0
H3592 H 0.61099 0.74397 0.01763 0.0
H3593 H 0.59855 0.7111 0.03842 0.0
S3594 S 0.52878 0.69062 0.95806 0.0
N3595 N 0.54917 0.71475 0.95923 0.0
N3596 N 0.53538 0.6798 0.98201 0.0
C3597 C 0.5551 0.6959 0.99207 0.0
C3598 C 0.56242 0.71494 0.9799 0.0
C3599 C 0.13947 0.80479 0.74201 0.0
C3600 C 0.11676 0.79265 0.74416 0.0
C3601 C 0.15891 0.80063 0.75489 0.0
C3602 C 0.1563 0.78395 0.77014 0.0
H3603 H 0.14228 0.81679 0.72945 0.0
H3604 H 0.1762 0.80936 0.75162 0.0
S3605 S 0.1003 0.74914 0.78355 0.0
N3606 N 0.09249 0.7646 0.76388 0.0
N3607 N 0.12915 0.75677 0.78822 0.0
C3608 C 0.13357 0.77274 0.77351 0.0
C3609 C 0.11374 0.77712 0.76051 0.0
C3610 C 0.07817 0.45292 0.45525 0.0
C3611 C 0.09561 0.44372 0.46636 0.0
C3612 C 0.072 0.4741 0.46652 0.0
C3613 C 0.08309 0.48668 0.48924 0.0
H3614 H 0.06875 0.44327 0.43812 0.0
H3615 H 0.05798 0.48021 0.45776 0.0
S3616 S 0.13236 0.47162 0.52388 0.0
N3617 N 0.12547 0.4498 0.49986 0.0
N3618 N 0.11421 0.48963 0.52109 0.0
C3619 C 0.10142 0.47819 0.49986 0.0
C3620 C 0.10758 0.45667 0.48842 0.0
C3621 C 0.38654 0.25875 0.21682 0.0
C3622 C 0.4088 0.27302 0.22493 0.0
C3623 C 0.36781 0.25959 0.23093 0.0
C3624 C 0.37029 0.27518 0.25362 0.0
H3625 H 0.38315 0.24754 0.19889 0.0
H3626 H 0.35093 0.24876 0.22322 0.0
S3627 S 0.42587 0.31347 0.28496 0.0
N3628 N 0.43317 0.30071 0.25864 0.0
N3629 N 0.39748 0.30324 0.28483 0.0
C3630 C 0.39278 0.28848 0.26272 0.0
C3631 C 0.41209 0.28729 0.24841 0.0
C3632 C 0.61576 0.56029 0.42428 0.0
C3633 C 0.61638 0.53806 0.4088 0.0
C3634 C 0.60436 0.56243 0.44645 0.0
C3635 C 0.59229 0.54256 0.45531 0.0
H3636 H 0.6241 0.57661 0.41918 0.0
H3637 H 0.60502 0.58016 0.45681 0.0
S3638 S 0.58951 0.47976 0.42407 0.0
N3639 N 0.6043 0.49534 0.40627 0.0
N3640 N 0.58308 0.49939 0.44638 0.0
C3641 C 0.59292 0.52024 0.44027 0.0
C3642 C 0.60467 0.51801 0.41777 0.0
C3643 C 0.32491 0.90926 0.12911 0.0
C3644 C 0.30872 0.89816 0.10891 0.0
C3645 C 0.33001 0.8969 0.14714 0.0
C3646 C 0.31899 0.87303 0.14576 0.0
H3647 H 0.33381 0.92765 0.13099 0.0
H3648 H 0.3427 0.9061 0.16229 0.0
S3649 S 0.27583 0.83549 0.09636 0.0
N3650 N 0.28211 0.86162 0.08838 0.0
N3651 N 0.29144 0.83858 0.12251 0.0
C3652 C 0.30255 0.86177 0.12587 0.0
C3653 C 0.29747 0.87429 0.10741 0.0
C3654 C 1.0039 0.57213 0.94363 0.0
C3655 C 1.01252 0.56622 0.92108 0.0
C3656 C 0.01603 0.57004 0.96481 0.0
C3657 C 0.03721 0.562 0.96424 0.0
H3658 H 0.9869 0.57689 0.94482 0.0
H3659 H 1.00824 0.57388 0.98168 0.0
S3660 S 0.069 0.54786 0.91024 0.0
N3661 N 0.04485 0.55484 0.89962 0.0
N3662 N 0.06771 0.55068 0.93977 0.0
C3663 C 0.04702 0.55786 0.94213 0.0
C3664 C 0.0346 0.55996 0.92042 0.0
C3665 C 0.28613 0.27287 0.6572 0.0
C3666 C 0.30494 0.26733 0.64429 0.0
C3667 C 0.28842 0.27945 0.68266 0.0
C3668 C 0.30961 0.28068 0.69668 0.0
H3669 H 0.26937 0.27214 0.64752 0.0
H3670 H 0.27319 0.28336 0.69139 0.0
S3671 S 0.36432 0.26747 0.67184 0.0
N3672 N 0.34559 0.26327 0.64762 0.0
N3673 N 0.34995 0.27566 0.69527 0.0
C3674 C 0.32868 0.27531 0.68398 0.0
C3675 C 0.32635 0.26869 0.65795 0.0
C3676 C 0.61079 0.55516 0.14469 0.0
C3677 C 0.6173 0.53369 0.14868 0.0
C3678 C 0.59987 0.5577 0.12197 0.0
C3679 C 0.59447 0.539 0.10108 0.0
H3680 H 0.61445 0.57064 0.15928 0.0
H3681 H 0.59579 0.5748 0.1208 0.0
S3682 S 0.60592 0.47825 0.10067 0.0
N3683 N 0.61561 0.49269 0.12849 0.0
N3684 N 0.59628 0.49761 0.08688 0.0
C3685 C 0.60063 0.51739 0.10477 0.0
C3686 C 0.6116 0.51474 0.12792 0.0
C3687 C 0.2931 0.84954 0.8834 0.0
C3688 C 0.30763 0.87249 0.8886 0.0
C3689 C 0.29552 0.83223 0.86315 0.0
C3690 C 0.31278 0.83686 0.84721 0.0
H3691 H 0.27964 0.84485 0.89507 0.0
H3692 H 0.28348 0.81514 0.85978 0.0
S3693 S 0.3546 0.89437 0.85161 0.0
N3694 N 0.33934 0.89904 0.87511 0.0
N3695 N 0.34432 0.86647 0.83782 0.0
C3696 C 0.32764 0.85959 0.85233 0.0
C3697 C 0.32496 0.87734 0.87275 0.0
C3698 C 0.96959 0.50134 0.68189 0.0
C3699 C 0.98019 0.50703 0.70576 0.0
C3700 C 0.9832 0.49961 0.66232 0.0
C3701 C 1.00774 0.50338 0.66611 0.0
H3702 H 0.95084 0.49954 0.67836 0.0
H3703 H 0.97457 0.49623 0.64414 0.0
S3704 S 0.04346 0.5162 0.7253 0.0
N3705 N 0.01618 0.51416 0.73225 0.0
N3706 N 0.04192 0.51146 0.69544 0.0
C3707 C 0.01838 0.50763 0.6899 0.0
C3708 C 1.00453 0.50935 0.70976 0.0
C3709 C 0.29256 0.24126 0.36716 0.0
C3710 C 0.30338 0.256 0.38922 0.0
C3711 C 0.29541 0.24838 0.34468 0.0
C3712 C 0.30885 0.27082 0.34319 0.0
H3713 H 0.28189 0.22394 0.36725 0.0
H3714 H 0.28653 0.23638 0.32838 0.0
S3715 S 0.3408 0.31623 0.39565 0.0
N3716 N 0.32819 0.2941 0.40796 0.0
N3717 N 0.33332 0.30759 0.36623 0.0
C3718 C 0.31981 0.28567 0.36517 0.0
C3719 C 0.31716 0.27826 0.38795 0.0
C3720 C 0.45066 0.55863 0.52936 0.0
C3721 C 0.44711 0.58214 0.53072 0.0
C3722 C 0.4729 0.55253 0.52605 0.0
C3723 C 0.49322 0.56959 0.52426 0.0
H3724 H 0.43599 0.5446 0.53067 0.0
H3725 H 0.47421 0.53418 0.5254 0.0
S3726 S 0.49408 0.63392 0.5272 0.0
N3727 N 0.46654 0.62268 0.53022 0.0
N3728 N 0.50778 0.61144 0.52431 0.0
C3729 C 0.48995 0.5932 0.52568 0.0
C3730 C 0.46722 0.59935 0.52877 0.0
C3731 C 0.97175 0.96708 0.54213 0.0
C3732 C 0.95309 0.97696 0.55126 0.0
C3733 C 0.99314 0.98153 0.53926 0.0
C3734 C 0.99705 1.00664 0.5455 0.0
H3735 H 0.96961 0.94795 0.53648 0.0
H3736 H 1.00664 0.9728 0.53175 0.0
S3737 S 0.95447 0.04145 0.57216 0.0
N3738 N 0.94044 1.01344 0.56803 0.0
N3739 N 0.98051 0.04062 0.5625 0.0
C3740 C 0.97877 0.01676 0.55539 0.0
C3741 C 0.95688 1.00197 0.55824 0.0
C3742 C 0.88326 0.21347 0.28172 0.0
C3743 C 0.87022 0.1898 0.281 0.0
C3744 C 0.87289 0.23442 0.2824 0.0
C3745 C 0.84832 0.23412 0.28269 0.0
H3746 H 0.90206 0.21603 0.28141 0.0
H3747 H 0.88458 0.25125 0.28258 0.0
S3748 S 0.80504 0.17792 0.28233 0.0
N3749 N 0.83014 0.16887 0.28162 0.0
N3750 N 0.81146 0.20676 0.28265 0.0
C3751 C 0.83508 0.21071 0.2822 0.0
C3752 C 0.84559 0.18936 0.28143 0.0
C3753 C 0.67792 0.07366 0.01842 0.0
C3754 C 0.69195 0.07546 0.04024 0.0
C3755 C 0.65307 0.06856 0.0169 0.0
C3756 C 0.64062 0.06509 0.03716 0.0
H3757 H 0.68621 0.07601 1.00212 0.0
H3758 H 0.64354 0.06733 0.99953 0.0
S3759 S 0.66861 0.06893 0.0991 0.0
N3760 N 0.691 0.07406 0.08292 0.0
N3761 N 0.64487 0.06441 0.08012 0.0
C3762 C 0.65443 0.06696 0.05916 0.0
C3763 C 0.67977 0.07209 0.06067 0.0
C3764 C 0.29832 0.47453 0.28742 0.0
C3765 C 0.29463 0.47592 0.26293 0.0
C3766 C 0.31159 0.45893 0.29444 0.0
C3767 C 0.32157 0.44421 0.27718 0.0
H3768 H 0.29034 0.48511 0.30117 0.0
H3769 H 0.31293 0.45744 0.3133 0.0
S3770 S 0.31884 0.44266 0.21107 0.0
N3771 N 0.30307 0.46228 0.22159 0.0
N3772 N 0.32866 0.43346 0.23491 0.0
C3773 C 0.31916 0.44646 0.25283 0.0
C3774 C 0.30553 0.46221 0.24567 0.0
C3775 C 0.23274 0.47601 0.04272 0.0
C3776 C 0.23009 0.45121 0.03493 0.0
C3777 C 0.21447 0.48767 0.03833 0.0
C3778 C 0.19289 0.475 0.02588 0.0
H3779 H 0.24929 0.48661 0.05168 0.0
H3780 H 0.2175 0.50685 0.04409 0.0
S3781 S 0.17593 0.40957 1.00433 0.0
N3782 N 0.20333 0.41414 0.01614 0.0
N3783 N 0.16923 0.43614 1.00757 0.0
C3784 C 0.18972 0.45014 0.01871 0.0
C3785 C 0.20824 0.43824 0.0233 0.0
C3786 C 0.84368 0.91579 0.27269 0.0
C3787 C 0.86828 0.92454 0.27366 0.0
C3788 C 0.83338 0.89148 0.27333 0.0
C3789 C 0.84674 0.87367 0.27476 0.0
H3790 H 0.83201 0.92801 0.27181 0.0
H3791 H 0.8145 0.88665 0.27276 0.0
S3792 S 0.91184 0.88558 0.27601 0.0
N3793 N 0.90551 0.91176 0.2749 0.0
N3794 N 0.88659 0.86727 0.27622 0.0
C3795 C 0.87132 0.88202 0.27534 0.0
C3796 C 0.88183 0.90681 0.27479 0.0
C3797 C 0.7603 0.18884 0.74068 0.0
C3798 C 0.77661 0.1743 0.73495 0.0
C3799 C 0.76753 0.21345 0.748 0.0
C3800 C 0.79127 0.2244 0.74959 0.0
H3801 H 0.74189 0.18105 0.74047 0.0
H3802 H 0.75443 0.22394 0.75279 0.0
S3803 S 0.84076 0.19439 0.7356 0.0
N3804 N 0.8174 0.17251 0.73063 0.0
N3805 N 0.83108 0.21917 0.74417 0.0
C3806 C 0.80772 0.21024 0.74312 0.0
C3807 C 0.80037 0.18503 0.73593 0.0
loop_
_geom_bond_atom_site_label_1
_geom_bond_atom_site_label_2
_geom_bond_distance
_geom_bond_site_symmetry_2
_ccdc_geom_bond_type
Li0 N17 1.990 . S
Li0 O60 1.956 . S
Li0 O61 1.970 . S
Li0 O62 1.961 . S
Li1 N25 1.990 . S
Li1 O60 1.970 . S
Li1 O61 1.956 . S
Li1 O63 1.961 . S
Li2 N47 1.990 . S
Li2 O60 1.961 . S
Li2 O62 1.956 . S
Li2 O63 1.970 . S
Li3 N53 1.990 . S
Li3 O61 1.961 . S
Li3 O62 1.970 . S
Li3 O63 1.956 . S
C4 C6 1.348 . S
C4 C7 1.356 . S
C4 O60 1.325 . S
N5 C8 1.314 . S
N5 C9 1.279 . S
C6 C4 1.348 . S
C6 C8 1.353 . S
C6 H64 0.929 . S
C7 C4 1.356 . S
C7 C9 1.358 . S
C7 H65 0.930 . S
C8 N5 1.314 . S
C8 C6 1.353 . S
C8 H66 0.930 . S
C9 N5 1.279 . S
C9 C7 1.358 . S
C9 H67 0.930 . S
C10 C13 1.348 . S
C10 C14 1.356 . S
C10 O61 1.325 . S
C11 N12 1.279 . S
C11 C14 1.358 . S
C11 H68 0.930 . S
N12 C11 1.279 . S
N12 C15 1.314 . S
C13 C10 1.348 . S
C13 C15 1.353 . S
C13 H69 0.929 . S
C14 C10 1.356 . S
C14 C11 1.358 . S
C14 H70 0.930 . S
C15 N12 1.314 . S
C15 C13 1.353 . S
C15 H71 0.930 . S
C16 N17 1.314 . S
C16 C21 1.353 . S
C16 H22 0.930 . S
N17 Li0 1.990 . S
N17 C16 1.314 . S
N17 C19 1.279 . S
C18 C19 1.358 . S
C18 C20 1.356 . S
C18 H72 0.930 . S
C19 N17 1.279 . S
C19 C18 1.358 . S
C19 H23 0.930 . S
C20 C18 1.356 . S
C20 C21 1.348 . S
C21 C16 1.353 . S
C21 C20 1.348 . S
C21 H73 0.922 1_455 S
H22 C16 0.930 . S
H23 C19 0.930 . S
C24 N25 1.314 . S
C24 C26 1.353 . S
C24 H30 0.930 . S
N25 Li1 1.990 . S
N25 C24 1.314 . S
N25 C28 1.279 . S
C26 C24 1.353 . S
C26 C29 1.348 . S
C26 H74 0.929 . S
C27 C28 1.358 . S
C27 C29 1.356 . S
C27 H75 0.930 . S
C28 N25 1.279 . S
C28 C27 1.358 . S
C28 H31 0.930 . S
C29 C26 1.348 . S
C29 C27 1.356 . S
H30 C24 0.930 . S
H31 C28 0.930 . S
C32 C34 1.348 . S
C32 C35 1.356 . S
C32 O62 1.325 . S
N33 C36 1.314 . S
N33 C37 1.279 . S
C34 C32 1.348 . S
C34 C36 1.353 . S
C34 H76 0.929 . S
C35 C32 1.356 . S
C35 C37 1.358 . S
C35 H77 0.930 . S
C36 N33 1.314 . S
C36 C34 1.353 . S
C36 H78 0.930 . S
C37 N33 1.279 . S
C37 C35 1.358 . S
C37 H79 0.930 . S
C38 C39 1.348 . S
C38 C40 1.356 . S
C38 O63 1.325 . S
C39 C38 1.348 . S
C39 C41 1.353 . S
C39 H80 0.929 . S
C40 C38 1.356 . S
C40 C42 1.358 . S
C40 H81 0.930 . S
C41 C39 1.353 . S
C41 N43 1.314 . S
C41 H82 0.930 . S
C42 C40 1.358 . S
C42 N43 1.279 . S
C42 H83 0.930 . S
N43 C41 1.314 . S
N43 C42 1.279 . S
C44 C46 1.353 . S
C44 N47 1.314 . S
C44 H50 0.930 . S
C45 N47 1.279 . S
C45 C48 1.358 . S
C45 H51 0.930 . S
C46 C44 1.353 . S
C46 C49 1.348 . S
C46 H84 0.929 . S
N47 Li2 1.990 . S
N47 C44 1.314 . S
N47 C45 1.279 . S
C48 C45 1.358 . S
C48 C49 1.356 . S
C48 H85 0.930 . S
C49 C46 1.348 . S
C49 C48 1.356 . S
H50 C44 0.930 . S
H51 C45 0.930 . S
C52 N53 1.314 . S
C52 C54 1.353 . S
C52 H58 0.930 . S
N53 Li3 1.990 . S
N53 C52 1.314 . S
N53 C56 1.279 . S
C54 C52 1.353 . S
C54 C57 1.348 . S
C54 H86 0.929 . S
C55 C56 1.358 . S
C55 C57 1.356 . S
C55 H87 0.930 . S
C56 N53 1.279 . S
C56 C55 1.358 . S
C56 H59 0.930 . S
C57 C54 1.348 . S
C57 C55 1.356 . S
H58 C52 0.930 . S
H59 C56 0.930 . S
O60 Li0 1.956 . S
O60 Li1 1.970 . S
O60 Li2 1.961 . S
O60 C4 1.325 . S
O61 Li0 1.970 . S
O61 Li1 1.956 . S
O61 Li3 1.961 . S
O61 C10 1.325 . S
O62 Li0 1.961 . S
O62 Li2 1.956 . S
O62 Li3 1.970 . S
O62 C32 1.325 . S
O63 Li1 1.961 . S
O63 Li2 1.970 . S
O63 Li3 1.956 . S
O63 C38 1.325 . S
H64 C6 0.929 . S
H65 C7 0.930 . S
H66 C8 0.930 . S
H67 C9 0.930 . S
H68 C11 0.930 . S
H69 C13 0.929 . S
H70 C14 0.930 . S
H71 C15 0.930 . S
H72 C18 0.930 . S
H73 C21 0.922 1_655 S
H74 C26 0.929 . S
H75 C27 0.930 . S
H76 C34 0.929 . S
H77 C35 0.930 . S
H78 C36 0.930 . S
H79 C37 0.930 . S
H80 C39 0.929 . S
H81 C40 0.930 . S
H82 C41 0.930 . S
H83 C42 0.930 . S
H84 C46 0.929 . S
H85 C48 0.930 . S
H86 C54 0.929 . S
H87 C55 0.930 . S
Li88 N105 1.990 . S
Li88 O148 1.956 . S
Li88 O149 1.970 . S
Li88 O150 1.961 1_455 S
Li89 N113 1.990 . S
Li89 O148 1.970 . S
Li89 O149 1.956 . S
Li89 O151 1.933 1_455 S
Li90 N135 1.990 . S
Li90 O148 1.961 1_655 S
Li90 O150 1.956 . S
Li90 O151 1.972 . S
Li91 N141 1.990 . S
Li91 O149 1.961 1_655 S
Li91 O150 1.970 . S
Li91 O151 1.994 . S
C92 C94 1.348 . S
C92 C95 1.356 . S
C92 O148 1.325 . S
N93 C96 1.314 . S
N93 C97 1.279 . S
C94 C92 1.348 . S
C94 C96 1.353 . S
C94 H152 0.929 . S
C95 C92 1.356 . S
C95 C97 1.358 . S
C95 H153 0.930 . S
C96 N93 1.314 . S
C96 C94 1.353 . S
C96 H154 0.930 . S
C97 N93 1.279 . S
C97 C95 1.358 . S
C97 H155 0.930 . S
C98 C101 1.348 . S
C98 C102 1.356 . S
C98 O149 1.325 . S
C99 N100 1.279 . S
C99 C102 1.358 . S
C99 H156 0.930 . S
N100 C99 1.279 . S
N100 C103 1.314 . S
C101 C98 1.348 . S
C101 C103 1.353 . S
C101 H157 0.929 . S
C102 C98 1.356 . S
C102 C99 1.358 . S
C102 H158 0.927 1_455 S
C103 N100 1.314 . S
C103 C101 1.353 . S
C103 H159 0.930 . S
C104 N105 1.314 1_655 S
C104 C109 1.353 . S
C104 H110 0.930 . S
N105 Li88 1.990 . S
N105 C104 1.314 1_455 S
N105 C107 1.279 . S
C106 C107 1.358 . S
C106 C108 1.356 . S
C106 H160 0.930 . S
C107 N105 1.279 . S
C107 C106 1.358 . S
C107 H111 0.930 . S
C108 C106 1.356 . S
C108 C109 1.348 1_455 S
C109 C104 1.353 . S
C109 C108 1.348 1_655 S
C109 H161 0.929 . S
H110 C104 0.930 . S
H111 C107 0.930 . S
C112 N113 1.314 . S
C112 C114 1.353 . S
C112 H118 0.930 . S
N113 Li89 1.990 . S
N113 C112 1.314 . S
N113 C116 1.279 . S
C114 C112 1.353 . S
C114 C117 1.348 . S
C114 H162 0.929 . S
C115 C116 1.358 . S
C115 C117 1.356 . S
C115 H163 0.930 . S
C116 N113 1.279 . S
C116 C115 1.358 . S
C116 H119 0.930 . S
C117 C114 1.348 . S
C117 C115 1.356 . S
H118 C112 0.930 . S
H119 C116 0.930 . S
C120 C122 1.348 . S
C120 C123 1.356 . S
C120 O150 1.325 . S
N121 C124 1.314 . S
N121 C125 1.279 . S
C122 C120 1.348 . S
C122 C124 1.353 . S
C122 H164 0.929 . S
C123 C120 1.356 . S
C123 C125 1.358 . S
C123 H165 0.930 . S
C124 N121 1.314 . S
C124 C122 1.353 . S
C124 H166 0.930 . S
C125 N121 1.279 . S
C125 C123 1.358 . S
C125 H167 0.930 . S
C126 C127 1.348 . S
C126 C128 1.356 1_655 S
C126 O151 1.324 . S
C127 C126 1.348 . S
C127 C129 1.353 . S
C127 H168 0.929 . S
C128 C126 1.356 1_455 S
C128 C130 1.358 . S
C128 H169 0.930 . S
C129 C127 1.353 . S
C129 N131 1.314 . S
C129 H170 0.930 . S
C130 C128 1.358 . S
C130 N131 1.279 1_455 S
C130 H171 0.930 . S
N131 C129 1.314 . S
N131 C130 1.279 1_655 S
C132 C134 1.353 . S
C132 N135 1.314 1_455 S
C132 H138 0.930 . S
C133 N135 1.279 . S
C133 C136 1.358 . S
C133 H139 0.930 . S
C134 C132 1.353 . S
C134 C137 1.348 1_455 S
C134 H172 0.929 . S
N135 Li90 1.990 . S
N135 C132 1.314 1_655 S
N135 C133 1.279 . S
C136 C133 1.358 . S
C136 C137 1.356 . S
C136 H173 0.930 . S
C137 C134 1.348 1_655 S
C137 C136 1.356 . S
H138 C132 0.930 . S
H139 C133 0.930 . S
C140 N141 1.314 . S
C140 C142 1.353 . S
C140 H146 0.930 . S
N141 Li91 1.990 . S
N141 C140 1.314 . S
N141 C144 1.279 . S
C142 C140 1.353 . S
C142 C145 1.348 . S
C142 H174 0.929 . S
C143 C144 1.358 . S
C143 C145 1.356 . S
C143 H175 0.930 . S
C144 N141 1.279 . S
C144 C143 1.358 . S
C144 H147 0.930 . S
C145 C142 1.348 . S
C145 C143 1.356 . S
H146 C140 0.930 . S
H147 C144 0.930 . S
O148 Li88 1.956 . S
O148 Li89 1.970 . S
O148 Li90 1.961 1_455 S
O148 C92 1.325 . S
O149 Li88 1.970 . S
O149 Li89 1.956 . S
O149 Li91 1.961 1_455 S
O149 C98 1.325 . S
O150 Li88 1.961 1_655 S
O150 Li90 1.956 . S
O150 Li91 1.970 . S
O150 C120 1.325 . S
O151 Li89 1.933 1_655 S
O151 Li90 1.972 . S
O151 Li91 1.994 . S
O151 C126 1.324 . S
H152 C94 0.929 . S
H153 C95 0.930 . S
H154 C96 0.930 . S
H155 C97 0.930 . S
H156 C99 0.930 . S
H157 C101 0.929 . S
H158 C102 0.927 1_655 S
H159 C103 0.930 . S
H160 C106 0.930 . S
H161 C109 0.929 . S
H162 C114 0.929 . S
H163 C115 0.930 . S
H164 C122 0.929 . S
H165 C123 0.930 . S
H166 C124 0.930 . S
H167 C125 0.930 . S
H168 C127 0.929 . S
H169 C128 0.930 . S
H170 C129 0.930 . S
H171 C130 0.930 . S
H172 C134 0.929 . S
H173 C136 0.930 . S
H174 C142 0.929 . S
H175 C143 0.930 . S
Li176 N193 1.990 . S
Li176 O236 1.956 . S
Li176 O237 1.970 . S
Li176 O238 1.961 . S
Li177 N201 1.990 . S
Li177 O236 1.970 . S
Li177 O237 1.956 . S
Li177 O239 1.961 . S
Li178 N223 1.990 . S
Li178 O236 1.961 . S
Li178 O238 1.956 . S
Li178 O239 1.970 . S
Li179 N229 1.990 . S
Li179 O237 1.961 . S
Li179 O238 1.970 . S
Li179 O239 1.956 . S
C180 C182 1.348 . S
C180 C183 1.356 . S
C180 O236 1.325 . S
N181 C184 1.314 . S
N181 C185 1.279 . S
C182 C180 1.348 . S
C182 C184 1.353 . S
C182 H240 0.929 . S
C183 C180 1.356 . S
C183 C185 1.358 . S
C183 H241 0.930 . S
C184 N181 1.314 . S
C184 C182 1.353 . S
C184 H242 0.930 . S
C185 N181 1.279 . S
C185 C183 1.358 . S
C185 H243 0.930 . S
C186 C189 1.348 . S
C186 C190 1.356 . S
C186 O237 1.325 . S
C187 N188 1.279 . S
C187 C190 1.358 . S
C187 H244 0.930 . S
N188 C187 1.279 . S
N188 C191 1.314 . S
C189 C186 1.348 . S
C189 C191 1.353 . S
C189 H245 0.929 . S
C190 C186 1.356 . S
C190 C187 1.358 . S
C190 H246 0.930 . S
C191 N188 1.314 . S
C191 C189 1.353 . S
C191 H247 0.930 . S
C192 N193 1.314 . S
C192 C197 1.353 . S
C192 H198 0.930 . S
N193 Li176 1.990 . S
N193 C192 1.314 . S
N193 C195 1.279 . S
C194 C195 1.358 . S
C194 C196 1.356 . S
C194 H248 0.930 . S
C195 N193 1.279 . S
C195 C194 1.358 . S
C195 H199 0.930 . S
C196 C194 1.356 . S
C196 C197 1.348 . S
C197 C192 1.353 . S
C197 C196 1.348 . S
C197 H249 0.929 . S
H198 C192 0.930 . S
H199 C195 0.930 . S
C200 N201 1.314 . S
C200 C202 1.353 . S
C200 H206 0.930 . S
N201 Li177 1.990 . S
N201 C200 1.314 . S
N201 C204 1.279 . S
C202 C200 1.353 . S
C202 C205 1.348 . S
C202 H250 0.929 . S
C203 C204 1.358 . S
C203 C205 1.356 . S
C203 H251 0.930 . S
C204 N201 1.279 . S
C204 C203 1.358 . S
C204 H207 0.930 . S
C205 C202 1.348 . S
C205 C203 1.356 . S
H206 C200 0.930 . S
H207 C204 0.930 . S
C208 C210 1.348 . S
C208 C211 1.356 . S
C208 O238 1.325 . S
N209 C212 1.314 . S
N209 C213 1.279 . S
C210 C208 1.348 . S
C210 C212 1.353 . S
C210 H252 0.929 . S
C211 C208 1.356 . S
C211 C213 1.358 . S
C211 H253 0.930 . S
C212 N209 1.314 . S
C212 C210 1.353 . S
C212 H254 0.930 . S
C213 N209 1.279 . S
C213 C211 1.358 . S
C213 H255 0.930 . S
C214 C215 1.348 . S
C214 C216 1.356 . S
C214 O239 1.325 . S
C215 C214 1.348 . S
C215 C217 1.353 . S
C215 H256 0.929 . S
C216 C214 1.356 . S
C216 C218 1.358 . S
C216 H257 0.930 . S
C217 C215 1.353 . S
C217 N219 1.314 . S
C217 H258 0.930 . S
C218 C216 1.358 . S
C218 N219 1.279 . S
C218 H259 0.930 . S
N219 C217 1.314 . S
N219 C218 1.279 . S
C220 C222 1.353 . S
C220 N223 1.314 . S
C220 H226 0.930 . S
C221 N223 1.279 . S
C221 C224 1.358 . S
C221 H227 0.930 . S
C222 C220 1.353 . S
C222 C225 1.348 . S
C222 H260 0.929 . S
N223 Li178 1.990 . S
N223 C220 1.314 . S
N223 C221 1.279 . S
C224 C221 1.358 . S
C224 C225 1.356 . S
C224 H261 0.930 . S
C225 C222 1.348 . S
C225 C224 1.356 . S
H226 C220 0.930 . S
H227 C221 0.930 . S
C228 N229 1.314 . S
C228 C230 1.353 . S
C228 H234 0.930 . S
N229 Li179 1.990 . S
N229 C228 1.314 . S
N229 C232 1.279 . S
C230 C228 1.353 . S
C230 C233 1.348 . S
C230 H262 0.929 . S
C231 C232 1.358 . S
C231 C233 1.356 . S
C231 H263 0.930 . S
C232 N229 1.279 . S
C232 C231 1.358 . S
C232 H235 0.930 . S
C233 C230 1.348 . S
C233 C231 1.356 . S
H234 C228 0.930 . S
H235 C232 0.930 . S
O236 Li176 1.956 . S
O236 Li177 1.970 . S
O236 Li178 1.961 . S
O236 C180 1.325 . S
O237 Li176 1.970 . S
O237 Li177 1.956 . S
O237 Li179 1.961 . S
O237 C186 1.325 . S
O238 Li176 1.961 . S
O238 Li178 1.956 . S
O238 Li179 1.970 . S
O238 C208 1.325 . S
O239 Li177 1.961 . S
O239 Li178 1.970 . S
O239 Li179 1.956 . S
O239 C214 1.325 . S
H240 C182 0.929 . S
H241 C183 0.930 . S
H242 C184 0.930 . S
H243 C185 0.930 . S
H244 C187 0.930 . S
H245 C189 0.929 . S
H246 C190 0.930 . S
H247 C191 0.930 . S
H248 C194 0.930 . S
H249 C197 0.929 . S
H250 C202 0.929 . S
H251 C203 0.930 . S
H252 C210 0.929 . S
H253 C211 0.930 . S
H254 C212 0.930 . S
H255 C213 0.930 . S
H256 C215 0.929 . S
H257 C216 0.930 . S
H258 C217 0.930 . S
H259 C218 0.930 . S
H260 C222 0.929 . S
H261 C224 0.930 . S
H262 C230 0.929 . S
H263 C231 0.930 . S
Li264 N281 1.990 . S
Li264 O324 1.956 . S
Li264 O325 1.970 . S
Li264 O326 1.961 . S
Li265 N289 1.990 . S
Li265 O324 1.970 . S
Li265 O325 1.956 . S
Li265 O327 1.961 . S
Li266 N311 1.990 . S
Li266 O324 1.961 . S
Li266 O326 1.956 . S
Li266 O327 1.970 . S
Li267 N317 1.990 . S
Li267 O325 1.961 . S
Li267 O326 1.970 . S
Li267 O327 1.956 . S
C268 C270 1.348 . S
C268 C271 1.356 . S
C268 O324 1.325 . S
N269 C272 1.314 . S
N269 C273 1.279 . S
C270 C268 1.348 . S
C270 C272 1.353 . S
C270 H328 0.929 . S
C271 C268 1.356 . S
C271 C273 1.358 . S
C271 H329 0.930 . S
C272 N269 1.314 . S
C272 C270 1.353 . S
C272 H330 0.930 . S
C273 N269 1.279 . S
C273 C271 1.358 . S
C273 H331 0.930 . S
C274 C277 1.348 . S
C274 C278 1.356 . S
C274 O325 1.325 . S
C275 N276 1.279 . S
C275 C278 1.358 . S
C275 H332 0.930 . S
N276 C275 1.279 . S
N276 C279 1.314 . S
C277 C274 1.348 . S
C277 C279 1.353 . S
C277 H333 0.929 . S
C278 C274 1.356 . S
C278 C275 1.358 . S
C278 H334 0.930 . S
C279 N276 1.314 . S
C279 C277 1.353 . S
C279 H335 0.930 . S
C280 N281 1.314 . S
C280 C285 1.353 . S
C280 H286 0.930 . S
N281 Li264 1.990 . S
N281 C280 1.314 . S
N281 C283 1.279 . S
C282 C283 1.358 . S
C282 C284 1.356 . S
C282 H336 0.930 . S
C283 N281 1.279 . S
C283 C282 1.358 . S
C283 H287 0.930 . S
C284 C282 1.356 . S
C284 C285 1.348 . S
C285 C280 1.353 . S
C285 C284 1.348 . S
C285 H337 0.929 . S
H286 C280 0.930 . S
H287 C283 0.930 . S
C288 N289 1.314 . S
C288 C290 1.353 . S
C288 H294 0.930 . S
N289 Li265 1.990 . S
N289 C288 1.314 . S
N289 C292 1.279 . S
C290 C288 1.353 . S
C290 C293 1.348 . S
C290 H338 0.929 . S
C291 C292 1.358 . S
C291 C293 1.356 . S
C291 H339 0.930 . S
C292 N289 1.279 . S
C292 C291 1.358 . S
C292 H295 0.930 . S
C293 C290 1.348 . S
C293 C291 1.356 . S
H294 C288 0.930 . S
H295 C292 0.930 . S
C296 C298 1.348 . S
C296 C299 1.356 . S
C296 O326 1.325 . S
N297 C300 1.314 . S
N297 C301 1.279 . S
C298 C296 1.348 . S
C298 C300 1.353 . S
C298 H340 0.929 . S
C299 C296 1.356 . S
C299 C301 1.358 . S
C299 H341 0.930 . S
C300 N297 1.314 . S
C300 C298 1.353 . S
C300 H342 0.930 . S
C301 N297 1.279 . S
C301 C299 1.358 . S
C301 H343 0.930 . S
C302 C303 1.348 . S
C302 C304 1.356 . S
C302 O327 1.325 . S
C303 C302 1.348 . S
C303 C305 1.353 . S
C303 H344 0.929 . S
C304 C302 1.356 . S
C304 C306 1.358 . S
C304 H345 0.930 . S
C305 C303 1.353 . S
C305 N307 1.314 . S
C305 H346 0.930 . S
C306 C304 1.358 . S
C306 N307 1.279 . S
C306 H347 0.930 . S
N307 C305 1.314 . S
N307 C306 1.279 . S
C308 C310 1.353 . S
C308 N311 1.314 . S
C308 H314 0.930 . S
C309 N311 1.279 . S
C309 C312 1.358 . S
C309 H315 0.930 . S
C310 C308 1.353 . S
C310 C313 1.348 . S
C310 H348 0.929 . S
N311 Li266 1.990 . S
N311 C308 1.314 . S
N311 C309 1.279 . S
C312 C309 1.358 . S
C312 C313 1.356 . S
C312 H349 0.930 . S
C313 C310 1.348 . S
C313 C312 1.356 . S
H314 C308 0.930 . S
H315 C309 0.930 . S
C316 N317 1.314 . S
C316 C318 1.353 . S
C316 H322 0.930 . S
N317 Li267 1.990 . S
N317 C316 1.314 . S
N317 C320 1.279 . S
C318 C316 1.353 . S
C318 C321 1.348 . S
C318 H350 0.929 . S
C319 C320 1.358 . S
C319 C321 1.356 . S
C319 H351 0.930 . S
C320 N317 1.279 . S
C320 C319 1.358 . S
C320 H323 0.930 . S
C321 C318 1.348 . S
C321 C319 1.356 . S
H322 C316 0.930 . S
H323 C320 0.930 . S
O324 Li264 1.956 . S
O324 Li265 1.970 . S
O324 Li266 1.961 . S
O324 C268 1.325 . S
O325 Li264 1.970 . S
O325 Li265 1.956 . S
O325 Li267 1.961 . S
O325 C274 1.325 . S
O326 Li264 1.961 . S
O326 Li266 1.956 . S
O326 Li267 1.970 . S
O326 C296 1.325 . S
O327 Li265 1.961 . S
O327 Li266 1.970 . S
O327 Li267 1.956 . S
O327 C302 1.325 . S
H328 C270 0.929 . S
H329 C271 0.930 . S
H330 C272 0.930 . S
H331 C273 0.930 . S
H332 C275 0.930 . S
H333 C277 0.929 . S
H334 C278 0.930 . S
H335 C279 0.930 . S
H336 C282 0.930 . S
H337 C285 0.929 . S
H338 C290 0.929 . S
H339 C291 0.930 . S
H340 C298 0.929 . S
H341 C299 0.930 . S
H342 C300 0.930 . S
H343 C301 0.930 . S
H344 C303 0.929 . S
H345 C304 0.930 . S
H346 C305 0.930 . S
H347 C306 0.930 . S
H348 C310 0.929 . S
H349 C312 0.930 . S
H350 C318 0.929 . S
H351 C319 0.930 . S
Li352 N369 1.990 . S
Li352 O412 1.956 . S
Li352 O413 1.970 . S
Li352 O414 1.961 . S
Li353 N377 1.990 . S
Li353 O412 1.970 . S
Li353 O413 1.956 . S
Li353 O415 1.961 . S
Li354 N399 1.990 . S
Li354 O412 1.961 . S
Li354 O414 1.956 . S
Li354 O415 1.970 . S
Li355 N405 1.990 . S
Li355 O413 1.961 . S
Li355 O414 1.970 . S
Li355 O415 1.956 . S
C356 C358 1.348 . S
C356 C359 1.356 . S
C356 O412 1.325 . S
N357 C360 1.314 . S
N357 C361 1.279 . S
C358 C356 1.348 . S
C358 C360 1.353 . S
C358 H416 0.929 . S
C359 C356 1.356 . S
C359 C361 1.358 . S
C359 H417 0.930 . S
C360 N357 1.314 . S
C360 C358 1.353 . S
C360 H418 0.930 . S
C361 N357 1.279 . S
C361 C359 1.358 . S
C361 H419 0.930 . S
C362 C365 1.348 . S
C362 C366 1.356 . S
C362 O413 1.325 . S
C363 N364 1.279 . S
C363 C366 1.358 . S
C363 H420 0.930 . S
N364 C363 1.279 . S
N364 C367 1.314 . S
C365 C362 1.348 . S
C365 C367 1.353 . S
C365 H421 0.929 . S
C366 C362 1.356 . S
C366 C363 1.358 . S
C366 H422 0.930 . S
C367 N364 1.314 . S
C367 C365 1.353 . S
C367 H423 0.930 . S
C368 N369 1.314 . S
C368 C373 1.353 . S
C368 H374 0.930 . S
N369 Li352 1.990 . S
N369 C368 1.314 . S
N369 C371 1.279 . S
C370 C371 1.358 . S
C370 C372 1.356 . S
C370 H424 0.930 . S
C371 N369 1.279 . S
C371 C370 1.358 . S
C371 H375 0.930 . S
C372 C370 1.356 . S
C372 C373 1.348 . S
C373 C368 1.353 . S
C373 C372 1.348 . S
C373 H425 0.929 . S
H374 C368 0.930 . S
H375 C371 0.930 . S
C376 N377 1.314 . S
C376 C378 1.353 . S
C376 H382 0.930 . S
N377 Li353 1.990 . S
N377 C376 1.314 . S
N377 C380 1.279 . S
C378 C376 1.353 . S
C378 C381 1.348 . S
C378 H426 0.929 . S
C379 C380 1.358 . S
C379 C381 1.356 . S
C379 H427 0.930 . S
C380 N377 1.279 . S
C380 C379 1.358 . S
C380 H383 0.930 . S
C381 C378 1.348 . S
C381 C379 1.356 . S
H382 C376 0.930 . S
H383 C380 0.930 . S
C384 C386 1.348 . S
C384 C387 1.356 . S
C384 O414 1.325 . S
N385 C388 1.314 . S
N385 C389 1.279 1_655 S
C386 C384 1.348 . S
C386 C388 1.353 1_455 S
C386 H428 0.929 . S
C387 C384 1.356 . S
C387 C389 1.358 . S
C387 H429 0.930 . S
C388 N385 1.314 . S
C388 C386 1.353 1_655 S
C388 H430 0.930 . S
C389 N385 1.279 1_455 S
C389 C387 1.358 . S
C389 H431 0.930 . S
C390 C391 1.348 . S
C390 C392 1.356 . S
C390 O415 1.325 . S
C391 C390 1.348 . S
C391 C393 1.353 . S
C391 H432 0.929 . S
C392 C390 1.356 . S
C392 C394 1.358 . S
C392 H433 0.930 . S
C393 C391 1.353 . S
C393 N395 1.314 . S
C393 H434 0.930 . S
C394 C392 1.358 . S
C394 N395 1.279 . S
C394 H435 0.930 . S
N395 C393 1.314 . S
N395 C394 1.279 . S
C396 C398 1.353 . S
C396 N399 1.314 . S
C396 H402 0.930 . S
C397 N399 1.279 . S
C397 C400 1.358 . S
C397 H403 0.930 . S
C398 C396 1.353 . S
C398 C401 1.348 . S
C398 H436 0.929 . S
N399 Li354 1.990 . S
N399 C396 1.314 . S
N399 C397 1.279 . S
C400 C397 1.358 . S
C400 C401 1.356 . S
C400 H437 0.930 . S
C401 C398 1.348 . S
C401 C400 1.356 . S
H402 C396 0.930 . S
H403 C397 0.930 . S
C404 N405 1.314 . S
C404 C406 1.353 . S
C404 H410 0.930 . S
N405 Li355 1.990 . S
N405 C404 1.314 . S
N405 C408 1.279 . S
C406 C404 1.353 . S
C406 C409 1.348 1_455 S
C406 H438 0.916 1_455 S
C407 C408 1.358 . S
C407 C409 1.356 1_455 S
C407 H439 0.930 . S
C408 N405 1.279 . S
C408 C407 1.358 . S
C408 H411 0.930 . S
C409 C406 1.348 1_655 S
C409 C407 1.356 1_655 S
H410 C404 0.930 . S
H411 C408 0.930 . S
O412 Li352 1.956 . S
O412 Li353 1.970 . S
O412 Li354 1.961 . S
O412 C356 1.325 . S
O413 Li352 1.970 . S
O413 Li353 1.956 . S
O413 Li355 1.961 . S
O413 C362 1.325 . S
O414 Li352 1.961 . S
O414 Li354 1.956 . S
O414 Li355 1.970 . S
O414 C384 1.325 . S
O415 Li353 1.961 . S
O415 Li354 1.970 . S
O415 Li355 1.956 . S
O415 C390 1.325 . S
H416 C358 0.929 . S
H417 C359 0.930 . S
H418 C360 0.930 . S
H419 C361 0.930 . S
H420 C363 0.930 . S
H421 C365 0.929 . S
H422 C366 0.930 . S
H423 C367 0.930 . S
H424 C370 0.930 . S
H425 C373 0.929 . S
H426 C378 0.929 . S
H427 C379 0.930 . S
H428 C386 0.929 . S
H429 C387 0.930 . S
H430 C388 0.930 . S
H431 C389 0.930 . S
H432 C391 0.929 . S
H433 C392 0.930 . S
H434 C393 0.930 . S
H435 C394 0.930 . S
H436 C398 0.929 . S
H437 C400 0.930 . S
H438 C406 0.916 1_655 S
H439 C407 0.930 . S
Li440 N457 1.990 . S
Li440 O500 1.956 . S
Li440 O501 1.970 . S
Li440 O502 1.961 . S
Li441 N465 1.990 . S
Li441 O500 1.970 . S
Li441 O501 1.956 . S
Li441 O503 1.961 . S
Li442 N487 1.990 . S
Li442 O500 1.961 . S
Li442 O502 1.956 . S
Li442 O503 1.970 . S
Li443 N493 1.990 . S
Li443 O501 1.961 . S
Li443 O502 1.970 . S
Li443 O503 1.956 . S
C444 C446 1.348 . S
C444 C447 1.356 . S
C444 O500 1.325 . S
N445 C448 1.314 . S
N445 C449 1.279 . S
C446 C444 1.348 . S
C446 C448 1.353 . S
C446 H504 0.929 . S
C447 C444 1.356 . S
C447 C449 1.358 . S
C447 H505 0.930 . S
C448 N445 1.314 . S
C448 C446 1.353 . S
C448 H506 0.930 . S
C449 N445 1.279 . S
C449 C447 1.358 . S
C449 H507 0.930 . S
C450 C453 1.348 . S
C450 C454 1.356 . S
C450 O501 1.325 . S
C451 N452 1.279 . S
C451 C454 1.358 . S
C451 H508 0.930 . S
N452 C451 1.279 . S
N452 C455 1.314 . S
C453 C450 1.348 . S
C453 C455 1.353 . S
C453 H509 0.929 . S
C454 C450 1.356 . S
C454 C451 1.358 . S
C454 H510 0.930 . S
C455 N452 1.314 . S
C455 C453 1.353 . S
C455 H511 0.930 . S
C456 N457 1.314 . S
C456 C461 1.353 . S
C456 H462 0.930 . S
N457 Li440 1.990 . S
N457 C456 1.314 . S
N457 C459 1.279 . S
C458 C459 1.358 . S
C458 C460 1.356 . S
C458 H512 0.930 . S
C459 N457 1.279 . S
C459 C458 1.358 . S
C459 H463 0.930 . S
C460 C458 1.356 . S
C460 C461 1.348 . S
C461 C456 1.353 . S
C461 C460 1.348 . S
C461 H513 0.929 . S
H462 C456 0.930 . S
H463 C459 0.930 . S
C464 N465 1.314 . S
C464 C466 1.353 . S
C464 H470 0.930 . S
N465 Li441 1.990 . S
N465 C464 1.314 . S
N465 C468 1.279 . S
C466 C464 1.353 . S
C466 C469 1.348 . S
C466 H514 0.929 . S
C467 C468 1.358 . S
C467 C469 1.356 . S
C467 H515 0.930 . S
C468 N465 1.279 . S
C468 C467 1.358 . S
C468 H471 0.930 . S
C469 C466 1.348 . S
C469 C467 1.356 . S
H470 C464 0.930 . S
H471 C468 0.930 . S
C472 C474 1.348 . S
C472 C475 1.356 . S
C472 O502 1.325 . S
N473 C476 1.314 . S
N473 C477 1.279 . S
C474 C472 1.348 . S
C474 C476 1.353 . S
C474 H516 0.929 . S
C475 C472 1.356 . S
C475 C477 1.358 . S
C475 H517 0.930 . S
C476 N473 1.314 . S
C476 C474 1.353 . S
C476 H518 0.930 . S
C477 N473 1.279 . S
C477 C475 1.358 . S
C477 H519 0.930 . S
C478 C479 1.348 . S
C478 C480 1.356 . S
C478 O503 1.325 . S
C479 C478 1.348 . S
C479 C481 1.353 . S
C479 H520 0.929 . S
C480 C478 1.356 . S
C480 C482 1.358 . S
C480 H521 0.930 . S
C481 C479 1.353 . S
C481 N483 1.314 . S
C481 H522 0.930 . S
C482 C480 1.358 . S
C482 N483 1.279 . S
C482 H523 0.930 . S
N483 C481 1.314 . S
N483 C482 1.279 . S
C484 C486 1.353 . S
C484 N487 1.314 . S
C484 H490 0.930 . S
C485 N487 1.279 . S
C485 C488 1.358 . S
C485 H491 0.930 . S
C486 C484 1.353 . S
C486 C489 1.348 . S
C486 H524 0.929 . S
N487 Li442 1.990 . S
N487 C484 1.314 . S
N487 C485 1.279 . S
C488 C485 1.358 . S
C488 C489 1.356 . S
C488 H525 0.930 . S
C489 C486 1.348 . S
C489 C488 1.356 . S
H490 C484 0.930 . S
H491 C485 0.930 . S
C492 N493 1.314 . S
C492 C494 1.353 . S
C492 H498 0.930 . S
N493 Li443 1.990 . S
N493 C492 1.314 . S
N493 C496 1.279 . S
C494 C492 1.353 . S
C494 C497 1.348 . S
C494 H526 0.929 . S
C495 C496 1.358 . S
C495 C497 1.356 . S
C495 H527 0.930 . S
C496 N493 1.279 . S
C496 C495 1.358 . S
C496 H499 0.930 . S
C497 C494 1.348 . S
C497 C495 1.356 . S
H498 C492 0.930 . S
H499 C496 0.930 . S
O500 Li440 1.956 . S
O500 Li441 1.970 . S
O500 Li442 1.961 . S
O500 C444 1.325 . S
O501 Li440 1.970 . S
O501 Li441 1.956 . S
O501 Li443 1.961 . S
O501 C450 1.325 . S
O502 Li440 1.961 . S
O502 Li442 1.956 . S
O502 Li443 1.970 . S
O502 C472 1.325 . S
O503 Li441 1.961 . S
O503 Li442 1.970 . S
O503 Li443 1.956 . S
O503 C478 1.325 . S
H504 C446 0.929 . S
H505 C447 0.930 . S
H506 C448 0.930 . S
H507 C449 0.930 . S
H508 C451 0.930 . S
H509 C453 0.929 . S
H510 C454 0.930 . S
H511 C455 0.930 . S
H512 C458 0.930 . S
H513 C461 0.929 . S
H514 C466 0.929 . S
H515 C467 0.930 . S
H516 C474 0.929 . S
H517 C475 0.930 . S
H518 C476 0.930 . S
H519 C477 0.930 . S
H520 C479 0.929 . S
H521 C480 0.930 . S
H522 C481 0.930 . S
H523 C482 0.930 . S
H524 C486 0.929 . S
H525 C488 0.930 . S
H526 C494 0.929 . S
H527 C495 0.930 . S
Li528 N545 1.990 . S
Li528 O588 1.956 . S
Li528 O589 1.970 . S
Li528 O590 1.961 . S
Li529 N553 1.990 . S
Li529 O588 1.970 . S
Li529 O589 1.956 . S
Li529 O591 1.961 . S
Li530 N575 1.990 . S
Li530 O588 1.961 . S
Li530 O590 1.956 . S
Li530 O591 1.970 . S
Li531 N581 1.990 . S
Li531 O589 1.961 . S
Li531 O590 1.970 . S
Li531 O591 1.956 . S
C532 C534 1.348 . S
C532 C535 1.356 . S
C532 O588 1.325 . S
N533 C536 1.314 . S
N533 C537 1.279 . S
C534 C532 1.348 . S
C534 C536 1.353 . S
C534 H592 0.929 . S
C535 C532 1.356 . S
C535 C537 1.358 . S
C535 H593 0.930 . S
C536 N533 1.314 . S
C536 C534 1.353 . S
C536 H594 0.930 . S
C537 N533 1.279 . S
C537 C535 1.358 . S
C537 H595 0.930 . S
C538 C541 1.348 . S
C538 C542 1.356 . S
C538 O589 1.325 . S
C539 N540 1.279 . S
C539 C542 1.358 . S
C539 H596 0.930 . S
N540 C539 1.279 . S
N540 C543 1.314 . S
C541 C538 1.348 . S
C541 C543 1.353 . S
C541 H597 0.929 . S
C542 C538 1.356 . S
C542 C539 1.358 . S
C542 H598 0.930 . S
C543 N540 1.314 . S
C543 C541 1.353 . S
C543 H599 0.930 . S
C544 N545 1.314 . S
C544 C549 1.353 . S
C544 H550 0.930 . S
N545 Li528 1.990 . S
N545 C544 1.314 . S
N545 C547 1.279 . S
C546 C547 1.358 . S
C546 C548 1.356 . S
C546 H600 0.930 . S
C547 N545 1.279 . S
C547 C546 1.358 . S
C547 H551 0.930 . S
C548 C546 1.356 . S
C548 C549 1.348 . S
C549 C544 1.353 . S
C549 C548 1.348 . S
C549 H601 0.929 . S
H550 C544 0.930 . S
H551 C547 0.930 . S
C552 N553 1.314 . S
C552 C554 1.353 . S
C552 H558 0.930 . S
N553 Li529 1.990 . S
N553 C552 1.314 . S
N553 C556 1.279 . S
C554 C552 1.353 . S
C554 C557 1.348 . S
C554 H602 0.929 . S
C555 C556 1.358 . S
C555 C557 1.356 . S
C555 H603 0.930 . S
C556 N553 1.279 . S
C556 C555 1.358 . S
C556 H559 0.930 . S
C557 C554 1.348 . S
C557 C555 1.356 . S
H558 C552 0.930 . S
H559 C556 0.930 . S
C560 C562 1.348 . S
C560 C563 1.356 . S
C560 O590 1.325 . S
N561 C564 1.314 . S
N561 C565 1.279 . S
C562 C560 1.348 . S
C562 C564 1.353 . S
C562 H604 0.929 . S
C563 C560 1.356 . S
C563 C565 1.358 . S
C563 H605 0.930 . S
C564 N561 1.314 . S
C564 C562 1.353 . S
C564 H606 0.930 . S
C565 N561 1.279 . S
C565 C563 1.358 . S
C565 H607 0.930 . S
C566 C567 1.348 . S
C566 C568 1.356 . S
C566 O591 1.325 . S
C567 C566 1.348 . S
C567 C569 1.353 . S
C567 H608 0.929 . S
C568 C566 1.356 . S
C568 C570 1.358 . S
C568 H609 0.930 . S
C569 C567 1.353 . S
C569 N571 1.314 . S
C569 H610 0.930 . S
C570 C568 1.358 . S
C570 N571 1.279 . S
C570 H611 0.930 . S
N571 C569 1.314 . S
N571 C570 1.279 . S
C572 C574 1.353 . S
C572 N575 1.314 . S
C572 H578 0.930 . S
C573 N575 1.279 . S
C573 C576 1.358 . S
C573 H579 0.930 . S
C574 C572 1.353 . S
C574 C577 1.348 . S
C574 H612 0.929 . S
N575 Li530 1.990 . S
N575 C572 1.314 . S
N575 C573 1.279 . S
C576 C573 1.358 . S
C576 C577 1.356 . S
C576 H613 0.930 . S
C577 C574 1.348 . S
C577 C576 1.356 . S
H578 C572 0.930 . S
H579 C573 0.930 . S
C580 N581 1.314 . S
C580 C582 1.353 . S
C580 H586 0.930 . S
N581 Li531 1.990 . S
N581 C580 1.314 . S
N581 C584 1.279 . S
C582 C580 1.353 . S
C582 C585 1.348 . S
C582 H614 0.929 . S
C583 C584 1.358 . S
C583 C585 1.356 . S
C583 H615 0.930 . S
C584 N581 1.279 . S
C584 C583 1.358 . S
C584 H587 0.930 . S
C585 C582 1.348 . S
C585 C583 1.356 . S
H586 C580 0.930 . S
H587 C584 0.930 . S
O588 Li528 1.956 . S
O588 Li529 1.970 . S
O588 Li530 1.961 . S
O588 C532 1.325 . S
O589 Li528 1.970 . S
O589 Li529 1.956 . S
O589 Li531 1.961 . S
O589 C538 1.325 . S
O590 Li528 1.961 . S
O590 Li530 1.956 . S
O590 Li531 1.970 . S
O590 C560 1.325 . S
O591 Li529 1.961 . S
O591 Li530 1.970 . S
O591 Li531 1.956 . S
O591 C566 1.325 . S
H592 C534 0.929 . S
H593 C535 0.930 . S
H594 C536 0.930 . S
H595 C537 0.930 . S
H596 C539 0.930 . S
H597 C541 0.929 . S
H598 C542 0.930 . S
H599 C543 0.930 . S
H600 C546 0.930 . S
H601 C549 0.929 . S
H602 C554 0.929 . S
H603 C555 0.930 . S
H604 C562 0.929 . S
H605 C563 0.930 . S
H606 C564 0.930 . S
H607 C565 0.930 . S
H608 C567 0.929 . S
H609 C568 0.930 . S
H610 C569 0.930 . S
H611 C570 0.930 . S
H612 C574 0.929 . S
H613 C576 0.930 . S
H614 C582 0.929 . S
H615 C583 0.930 . S
Li616 N633 1.990 . S
Li616 O676 1.956 1_455 S
Li616 O677 1.970 . S
Li616 O678 1.961 . S
Li617 N641 1.990 . S
Li617 O676 1.970 . S
Li617 O677 1.956 1_655 S
Li617 O679 1.961 1_655 S
Li618 N663 1.990 . S
Li618 O676 1.961 1_455 S
Li618 O678 1.956 . S
Li618 O679 1.970 . S
Li619 N669 1.990 . S
Li619 O677 1.961 . S
Li619 O678 1.970 . S
Li619 O679 1.956 . S
C620 C622 1.348 . S
C620 C623 1.356 . S
C620 O676 1.325 . S
N621 C624 1.314 . S
N621 C625 1.279 . S
C622 C620 1.348 . S
C622 C624 1.353 . S
C622 H680 0.929 . S
C623 C620 1.356 . S
C623 C625 1.358 . S
C623 H681 0.930 . S
C624 N621 1.314 . S
C624 C622 1.353 . S
C624 H682 0.930 . S
C625 N621 1.279 . S
C625 C623 1.358 . S
C625 H683 0.930 . S
C626 C629 1.348 . S
C626 C630 1.356 . S
C626 O677 1.325 . S
C627 N628 1.279 . S
C627 C630 1.358 . S
C627 H684 0.930 . S
N628 C627 1.279 . S
N628 C631 1.314 . S
C629 C626 1.348 . S
C629 C631 1.353 . S
C629 H685 0.929 . S
C630 C626 1.356 . S
C630 C627 1.358 . S
C630 H686 0.930 . S
C631 N628 1.314 . S
C631 C629 1.353 . S
C631 H687 0.930 . S
C632 N633 1.314 . S
C632 C637 1.353 . S
C632 H638 0.930 . S
N633 Li616 1.990 . S
N633 C632 1.314 . S
N633 C635 1.279 . S
C634 C635 1.358 . S
C634 C636 1.356 . S
C634 H688 0.930 1_455 S
C635 N633 1.279 . S
C635 C634 1.358 . S
C635 H639 0.930 1_455 S
C636 C634 1.356 . S
C636 C637 1.348 . S
C637 C632 1.353 . S
C637 C636 1.348 . S
C637 H689 0.929 . S
H638 C632 0.930 . S
H639 C635 0.930 1_655 S
C640 N641 1.314 . S
C640 C642 1.353 . S
C640 H646 0.930 . S
N641 Li617 1.990 . S
N641 C640 1.314 . S
N641 C644 1.279 . S
C642 C640 1.353 . S
C642 C645 1.348 . S
C642 H690 0.929 . S
C643 C644 1.358 . S
C643 C645 1.356 . S
C643 H691 0.930 . S
C644 N641 1.279 . S
C644 C643 1.358 . S
C644 H647 0.930 . S
C645 C642 1.348 . S
C645 C643 1.356 . S
H646 C640 0.930 . S
H647 C644 0.930 . S
C648 C650 1.348 . S
C648 C651 1.356 . S
C648 O678 1.325 . S
N649 C652 1.314 . S
N649 C653 1.279 . S
C650 C648 1.348 . S
C650 C652 1.353 . S
C650 H692 0.929 . S
C651 C648 1.356 . S
C651 C653 1.358 . S
C651 H693 0.930 . S
C652 N649 1.314 . S
C652 C650 1.353 . S
C652 H694 0.930 . S
C653 N649 1.279 . S
C653 C651 1.358 . S
C653 H695 0.930 . S
C654 C655 1.348 . S
C654 C656 1.356 . S
C654 O679 1.325 . S
C655 C654 1.348 . S
C655 C657 1.353 . S
C655 H696 0.929 . S
C656 C654 1.356 . S
C656 C658 1.359 1_455 S
C656 H697 0.929 . S
C657 C655 1.353 . S
C657 N659 1.314 . S
C657 H698 0.930 . S
C658 C656 1.359 1_655 S
C658 N659 1.279 1_655 S
C658 H699 0.930 . S
N659 C657 1.314 . S
N659 C658 1.279 1_455 S
C660 C662 1.353 . S
C660 N663 1.314 1_655 S
C660 H666 0.930 . S
C661 N663 1.279 . S
C661 C664 1.358 . S
C661 H667 0.930 . S
C662 C660 1.353 . S
C662 C665 1.348 1_655 S
C662 H700 0.929 . S
N663 Li618 1.990 . S
N663 C660 1.314 1_455 S
N663 C661 1.279 . S
C664 C661 1.358 . S
C664 C665 1.356 . S
C664 H701 0.930 . S
C665 C662 1.348 1_455 S
C665 C664 1.356 . S
H666 C660 0.930 . S
H667 C661 0.930 . S
C668 N669 1.314 . S
C668 C670 1.353 . S
C668 H674 0.930 . S
N669 Li619 1.990 . S
N669 C668 1.314 . S
N669 C672 1.279 . S
C670 C668 1.353 . S
C670 C673 1.348 . S
C670 H702 0.929 . S
C671 C672 1.358 . S
C671 C673 1.356 . S
C671 H703 0.930 . S
C672 N669 1.279 . S
C672 C671 1.358 . S
C672 H675 0.930 . S
C673 C670 1.348 . S
C673 C671 1.356 . S
H674 C668 0.930 . S
H675 C672 0.930 . S
O676 Li616 1.956 1_655 S
O676 Li617 1.970 . S
O676 Li618 1.961 1_655 S
O676 C620 1.325 . S
O677 Li616 1.970 . S
O677 Li617 1.956 1_455 S
O677 Li619 1.961 . S
O677 C626 1.325 . S
O678 Li616 1.961 . S
O678 Li618 1.956 . S
O678 Li619 1.970 . S
O678 C648 1.325 . S
O679 Li617 1.961 1_455 S
O679 Li618 1.970 . S
O679 Li619 1.956 . S
O679 C654 1.325 . S
H680 C622 0.929 . S
H681 C623 0.930 . S
H682 C624 0.930 . S
H683 C625 0.930 . S
H684 C627 0.930 . S
H685 C629 0.929 . S
H686 C630 0.930 . S
H687 C631 0.930 . S
H688 C634 0.930 1_655 S
H689 C637 0.929 . S
H690 C642 0.929 . S
H691 C643 0.930 . S
H692 C650 0.929 . S
H693 C651 0.930 . S
H694 C652 0.930 . S
H695 C653 0.930 . S
H696 C655 0.929 . S
H697 C656 0.929 . S
H698 C657 0.930 . S
H699 C658 0.930 . S
H700 C662 0.929 . S
H701 C664 0.930 . S
H702 C670 0.929 . S
H703 C671 0.930 . S
Li704 N721 1.990 . S
Li704 O764 1.956 1_545 S
Li704 O765 1.970 . S
Li704 O766 1.961 . S
Li705 N729 1.990 . S
Li705 O764 1.970 . S
Li705 O765 1.956 1_565 S
Li705 O767 1.961 . S
Li706 N751 1.990 . S
Li706 O764 1.961 1_545 S
Li706 O766 1.956 . S
Li706 O767 1.970 1_545 S
Li707 N757 1.990 . S
Li707 O765 1.961 . S
Li707 O766 1.970 . S
Li707 O767 1.956 1_545 S
C708 C710 1.348 . S
C708 C711 1.356 . S
C708 O764 1.325 . S
N709 C712 1.314 . S
N709 C713 1.279 . S
C710 C708 1.348 . S
C710 C712 1.353 . S
C710 H768 0.929 . S
C711 C708 1.356 . S
C711 C713 1.358 . S
C711 H769 0.930 . S
C712 N709 1.314 . S
C712 C710 1.353 . S
C712 H770 0.930 . S
C713 N709 1.279 . S
C713 C711 1.358 . S
C713 H771 0.930 . S
C714 C717 1.341 1_545 S
C714 C718 1.356 . S
C714 O765 1.325 . S
C715 N716 1.279 . S
C715 C718 1.358 . S
C715 H772 0.930 . S
N716 C715 1.279 . S
N716 C719 1.306 1_545 S
C717 C714 1.341 1_565 S
C717 C719 1.353 . S
C717 H773 0.935 . S
C718 C714 1.356 . S
C718 C715 1.358 . S
C718 H774 0.930 . S
C719 N716 1.306 1_565 S
C719 C717 1.353 . S
C719 H775 0.940 . S
C720 N721 1.314 . S
C720 C725 1.353 . S
C720 H726 0.930 . S
N721 Li704 1.990 . S
N721 C720 1.314 . S
N721 C723 1.279 1_545 S
C722 C723 1.363 1_545 S
C722 C724 1.378 . S
C722 H776 0.903 1_545 S
C723 N721 1.279 1_565 S
C723 C722 1.363 1_565 S
C723 H727 0.930 . S
C724 C722 1.378 . S
C724 C725 1.348 . S
C725 C720 1.353 . S
C725 C724 1.348 . S
C725 H777 0.929 . S
H726 C720 0.930 . S
H727 C723 0.930 . S
C728 N729 1.314 . S
C728 C730 1.353 . S
C728 H734 0.930 . S
N729 Li705 1.990 . S
N729 C728 1.314 . S
N729 C732 1.279 . S
C730 C728 1.353 . S
C730 C733 1.348 . S
C730 H778 0.929 . S
C731 C732 1.358 . S
C731 C733 1.356 . S
C731 H779 0.930 . S
C732 N729 1.279 . S
C732 C731 1.358 . S
C732 H735 0.930 . S
C733 C730 1.348 . S
C733 C731 1.356 . S
H734 C728 0.930 . S
H735 C732 0.930 . S
C736 C738 1.348 . S
C736 C739 1.356 . S
C736 O766 1.325 . S
N737 C740 1.314 . S
N737 C741 1.279 . S
C738 C736 1.348 . S
C738 C740 1.353 . S
C738 H780 0.929 . S
C739 C736 1.356 . S
C739 C741 1.358 . S
C739 H781 0.930 . S
C740 N737 1.314 . S
C740 C738 1.353 . S
C740 H782 0.930 . S
C741 N737 1.279 . S
C741 C739 1.358 . S
C741 H783 0.930 . S
C742 C743 1.363 . S
C742 C744 1.356 . S
C742 O767 1.325 . S
C743 C742 1.363 . S
C743 C745 1.348 . S
C743 H784 0.921 1_565 S
C744 C742 1.356 . S
C744 C746 1.358 . S
C744 H785 0.930 . S
C745 C743 1.348 . S
C745 N747 1.314 . S
C745 H786 0.930 . S
C746 C744 1.358 . S
C746 N747 1.279 . S
C746 H787 0.930 . S
N747 C745 1.314 . S
N747 C746 1.279 . S
C748 C750 1.353 . S
C748 N751 1.314 1_565 S
C748 H754 0.930 . S
C749 N751 1.279 . S
C749 C752 1.358 . S
C749 H755 0.930 . S
C750 C748 1.353 . S
C750 C753 1.348 1_565 S
C750 H788 0.929 . S
N751 Li706 1.990 . S
N751 C748 1.314 1_545 S
N751 C749 1.279 . S
C752 C749 1.358 . S
C752 C753 1.356 . S
C752 H789 0.930 . S
C753 C750 1.348 1_545 S
C753 C752 1.356 . S
H754 C748 0.930 . S
H755 C749 0.930 . S
C756 N757 1.314 . S
C756 C758 1.353 . S
C756 H762 0.930 . S
N757 Li707 1.990 . S
N757 C756 1.314 . S
N757 C760 1.279 . S
C758 C756 1.353 . S
C758 C761 1.348 . S
C758 H790 0.929 . S
C759 C760 1.358 . S
C759 C761 1.356 . S
C759 H791 0.930 . S
C760 N757 1.279 . S
C760 C759 1.358 . S
C760 H763 0.930 . S
C761 C758 1.348 . S
C761 C759 1.356 . S
H762 C756 0.930 . S
H763 C760 0.930 . S
O764 Li704 1.956 1_565 S
O764 Li705 1.970 . S
O764 Li706 1.961 1_565 S
O764 C708 1.325 . S
O765 Li704 1.970 . S
O765 Li705 1.956 1_545 S
O765 Li707 1.961 . S
O765 C714 1.325 . S
O766 Li704 1.961 . S
O766 Li706 1.956 . S
O766 Li707 1.970 . S
O766 C736 1.325 . S
O767 Li705 1.961 . S
O767 Li706 1.970 1_565 S
O767 Li707 1.956 1_565 S
O767 C742 1.325 . S
H768 C710 0.929 . S
H769 C711 0.930 . S
H770 C712 0.930 . S
H771 C713 0.930 . S
H772 C715 0.930 . S
H773 C717 0.935 . S
H774 C718 0.930 . S
H775 C719 0.940 . S
H776 C722 0.903 1_565 S
H777 C725 0.929 . S
H778 C730 0.929 . S
H779 C731 0.930 . S
H780 C738 0.929 . S
H781 C739 0.930 . S
H782 C740 0.930 . S
H783 C741 0.930 . S
H784 C743 0.921 1_545 S
H785 C744 0.930 . S
H786 C745 0.930 . S
H787 C746 0.930 . S
H788 C750 0.929 . S
H789 C752 0.930 . S
H790 C758 0.929 . S
H791 C759 0.930 . S
Li792 N809 1.990 . S
Li792 O852 1.956 . S
Li792 O853 1.970 . S
Li792 O854 1.961 . S
Li793 N817 1.990 . S
Li793 O852 1.970 . S
Li793 O853 1.956 . S
Li793 O855 1.961 . S
Li794 N839 1.990 . S
Li794 O852 1.961 . S
Li794 O854 1.956 . S
Li794 O855 1.970 . S
Li795 N845 1.990 . S
Li795 O853 1.961 . S
Li795 O854 1.970 . S
Li795 O855 1.956 . S
C796 C798 1.348 . S
C796 C799 1.356 . S
C796 O852 1.325 . S
N797 C800 1.314 . S
N797 C801 1.279 . S
C798 C796 1.348 . S
C798 C800 1.353 . S
C798 H856 0.929 . S
C799 C796 1.356 . S
C799 C801 1.358 . S
C799 H857 0.930 . S
C800 N797 1.314 . S
C800 C798 1.353 . S
C800 H858 0.930 . S
C801 N797 1.279 . S
C801 C799 1.358 . S
C801 H859 0.930 . S
C802 C805 1.348 . S
C802 C806 1.356 . S
C802 O853 1.325 . S
C803 N804 1.279 . S
C803 C806 1.358 . S
C803 H860 0.930 . S
N804 C803 1.279 . S
N804 C807 1.314 . S
C805 C802 1.348 . S
C805 C807 1.353 . S
C805 H861 0.929 . S
C806 C802 1.356 . S
C806 C803 1.358 . S
C806 H862 0.930 . S
C807 N804 1.314 . S
C807 C805 1.353 . S
C807 H863 0.930 . S
C808 N809 1.314 . S
C808 C813 1.353 . S
C808 H814 0.930 . S
N809 Li792 1.990 . S
N809 C808 1.314 . S
N809 C811 1.279 . S
C810 C811 1.358 . S
C810 C812 1.356 . S
C810 H864 0.930 . S
C811 N809 1.279 . S
C811 C810 1.358 . S
C811 H815 0.930 . S
C812 C810 1.356 . S
C812 C813 1.348 . S
C813 C808 1.353 . S
C813 C812 1.348 . S
C813 H865 0.929 . S
H814 C808 0.930 . S
H815 C811 0.930 . S
C816 N817 1.314 . S
C816 C818 1.353 . S
C816 H822 0.930 . S
N817 Li793 1.990 . S
N817 C816 1.314 . S
N817 C820 1.279 . S
C818 C816 1.353 . S
C818 C821 1.348 . S
C818 H866 0.929 . S
C819 C820 1.358 . S
C819 C821 1.356 . S
C819 H867 0.930 . S
C820 N817 1.279 . S
C820 C819 1.358 . S
C820 H823 0.930 . S
C821 C818 1.348 . S
C821 C819 1.356 . S
H822 C816 0.930 . S
H823 C820 0.930 . S
C824 C826 1.348 . S
C824 C827 1.356 . S
C824 O854 1.325 . S
N825 C828 1.314 . S
N825 C829 1.279 . S
C826 C824 1.348 . S
C826 C828 1.353 . S
C826 H868 0.929 . S
C827 C824 1.356 . S
C827 C829 1.358 . S
C827 H869 0.930 . S
C828 N825 1.314 . S
C828 C826 1.353 . S
C828 H870 0.930 . S
C829 N825 1.279 . S
C829 C827 1.358 . S
C829 H871 0.930 . S
C830 C831 1.348 . S
C830 C832 1.356 . S
C830 O855 1.325 . S
C831 C830 1.348 . S
C831 C833 1.353 . S
C831 H872 0.929 . S
C832 C830 1.356 . S
C832 C834 1.358 . S
C832 H873 0.930 . S
C833 C831 1.353 . S
C833 N835 1.314 . S
C833 H874 0.930 . S
C834 C832 1.358 . S
C834 N835 1.279 . S
C834 H875 0.930 . S
N835 C833 1.314 . S
N835 C834 1.279 . S
C836 C838 1.353 . S
C836 N839 1.314 . S
C836 H842 0.930 . S
C837 N839 1.279 . S
C837 C840 1.358 . S
C837 H843 0.930 . S
C838 C836 1.353 . S
C838 C841 1.348 . S
C838 H876 0.929 . S
N839 Li794 1.990 . S
N839 C836 1.314 . S
N839 C837 1.279 . S
C840 C837 1.358 . S
C840 C841 1.356 . S
C840 H877 0.930 . S
C841 C838 1.348 . S
C841 C840 1.356 . S
H842 C836 0.930 . S
H843 C837 0.930 . S
C844 N845 1.314 . S
C844 C846 1.353 . S
C844 H850 0.930 . S
N845 Li795 1.990 . S
N845 C844 1.314 . S
N845 C848 1.279 . S
C846 C844 1.353 . S
C846 C849 1.348 . S
C846 H878 0.929 . S
C847 C848 1.358 . S
C847 C849 1.356 . S
C847 H879 0.930 . S
C848 N845 1.279 . S
C848 C847 1.358 . S
C848 H851 0.930 . S
C849 C846 1.348 . S
C849 C847 1.356 . S
H850 C844 0.930 . S
H851 C848 0.930 . S
O852 Li792 1.956 . S
O852 Li793 1.970 . S
O852 Li794 1.961 . S
O852 C796 1.325 . S
O853 Li792 1.970 . S
O853 Li793 1.956 . S
O853 Li795 1.961 . S
O853 C802 1.325 . S
O854 Li792 1.961 . S
O854 Li794 1.956 . S
O854 Li795 1.970 . S
O854 C824 1.325 . S
O855 Li793 1.961 . S
O855 Li794 1.970 . S
O855 Li795 1.956 . S
O855 C830 1.325 . S
H856 C798 0.929 . S
H857 C799 0.930 . S
H858 C800 0.930 . S
H859 C801 0.930 . S
H860 C803 0.930 . S
H861 C805 0.929 . S
H862 C806 0.930 . S
H863 C807 0.930 . S
H864 C810 0.930 . S
H865 C813 0.929 . S
H866 C818 0.929 . S
H867 C819 0.930 . S
H868 C826 0.929 . S
H869 C827 0.930 . S
H870 C828 0.930 . S
H871 C829 0.930 . S
H872 C831 0.929 . S
H873 C832 0.930 . S
H874 C833 0.930 . S
H875 C834 0.930 . S
H876 C838 0.929 . S
H877 C840 0.930 . S
H878 C846 0.929 . S
H879 C847 0.930 . S
Li880 N897 1.990 . S
Li880 O940 1.956 . S
Li880 O941 1.970 . S
Li880 O942 1.961 . S
Li881 N905 1.990 . S
Li881 O940 1.970 . S
Li881 O941 1.956 . S
Li881 O943 1.961 1_545 S
Li882 N927 1.990 . S
Li882 O940 1.961 1_565 S
Li882 O942 1.956 1_565 S
Li882 O943 1.970 . S
Li883 N933 1.990 1_545 S
Li883 O941 1.961 . S
Li883 O942 1.970 . S
Li883 O943 1.956 1_545 S
C884 C886 1.348 . S
C884 C887 1.356 . S
C884 O940 1.325 . S
N885 C888 1.314 . S
N885 C889 1.279 . S
C886 C884 1.348 . S
C886 C888 1.353 . S
C886 H944 0.929 . S
C887 C884 1.356 . S
C887 C889 1.358 . S
C887 H945 0.930 . S
C888 N885 1.314 . S
C888 C886 1.353 . S
C888 H946 0.930 . S
C889 N885 1.279 . S
C889 C887 1.358 . S
C889 H947 0.930 . S
C890 C893 1.348 . S
C890 C894 1.356 . S
C890 O941 1.325 . S
C891 N892 1.279 . S
C891 C894 1.358 . S
C891 H948 0.930 . S
N892 C891 1.279 . S
N892 C895 1.314 . S
C893 C890 1.348 . S
C893 C895 1.353 . S
C893 H949 0.929 . S
C894 C890 1.356 . S
C894 C891 1.358 . S
C894 H950 0.930 . S
C895 N892 1.314 . S
C895 C893 1.353 . S
C895 H951 0.930 . S
C896 N897 1.314 . S
C896 C901 1.353 . S
C896 H902 0.930 . S
N897 Li880 1.990 . S
N897 C896 1.314 . S
N897 C899 1.279 . S
C898 C899 1.358 . S
C898 C900 1.356 . S
C898 H952 0.930 . S
C899 N897 1.279 . S
C899 C898 1.358 . S
C899 H903 0.930 . S
C900 C898 1.356 . S
C900 C901 1.348 . S
C901 C896 1.353 . S
C901 C900 1.348 . S
C901 H953 0.929 . S
H902 C896 0.930 . S
H903 C899 0.930 . S
C904 N905 1.314 1_565 S
C904 C906 1.353 . S
C904 H910 0.930 . S
N905 Li881 1.990 . S
N905 C904 1.314 1_545 S
N905 C908 1.279 . S
C906 C904 1.353 . S
C906 C909 1.348 1_565 S
C906 H954 0.929 . S
C907 C908 1.358 . S
C907 C909 1.356 . S
C907 H955 0.930 . S
C908 N905 1.279 . S
C908 C907 1.358 . S
C908 H911 0.930 . S
C909 C906 1.348 1_545 S
C909 C907 1.356 . S
H910 C904 0.930 . S
H911 C908 0.930 . S
C912 C914 1.348 1_545 S
C912 C915 1.356 . S
C912 O942 1.325 . S
N913 C916 1.314 . S
N913 C917 1.279 . S
C914 C912 1.348 1_565 S
C914 C916 1.353 1_565 S
C914 H956 0.929 . S
C915 C912 1.356 . S
C915 C917 1.358 . S
C915 H957 0.930 . S
C916 N913 1.314 . S
C916 C914 1.353 1_545 S
C916 H958 0.929 1_545 S
C917 N913 1.279 . S
C917 C915 1.358 . S
C917 H959 0.930 . S
C918 C919 1.348 . S
C918 C920 1.356 . S
C918 O943 1.325 . S
C919 C918 1.348 . S
C919 C921 1.353 . S
C919 H960 0.929 . S
C920 C918 1.356 . S
C920 C922 1.358 . S
C920 H961 0.930 . S
C921 C919 1.353 . S
C921 N923 1.314 . S
C921 H962 0.930 . S
C922 C920 1.358 . S
C922 N923 1.279 . S
C922 H963 0.930 . S
N923 C921 1.314 . S
N923 C922 1.279 . S
C924 C926 1.353 . S
C924 N927 1.314 . S
C924 H930 0.930 . S
C925 N927 1.279 . S
C925 C928 1.358 . S
C925 H931 0.930 . S
C926 C924 1.353 . S
C926 C929 1.348 . S
C926 H964 0.929 . S
N927 Li882 1.990 . S
N927 C924 1.314 . S
N927 C925 1.279 . S
C928 C925 1.358 . S
C928 C929 1.356 . S
C928 H965 0.930 . S
C929 C926 1.348 . S
C929 C928 1.356 . S
H930 C924 0.930 . S
H931 C925 0.930 . S
C932 N933 1.314 1_545 S
C932 C934 1.353 . S
C932 H938 0.930 . S
N933 Li883 1.990 1_565 S
N933 C932 1.314 1_565 S
N933 C936 1.279 . S
C934 C932 1.353 . S
C934 C937 1.348 1_545 S
C934 H966 0.929 . S
C935 C936 1.358 . S
C935 C937 1.356 . S
C935 H967 0.930 . S
C936 N933 1.279 . S
C936 C935 1.358 . S
C936 H939 0.930 . S
C937 C934 1.348 1_565 S
C937 C935 1.356 . S
H938 C932 0.930 . S
H939 C936 0.930 . S
O940 Li880 1.956 . S
O940 Li881 1.970 . S
O940 Li882 1.961 1_545 S
O940 C884 1.325 . S
O941 Li880 1.970 . S
O941 Li881 1.956 . S
O941 Li883 1.961 . S
O941 C890 1.325 . S
O942 Li880 1.961 . S
O942 Li882 1.956 1_545 S
O942 Li883 1.970 . S
O942 C912 1.325 . S
O943 Li881 1.961 1_565 S
O943 Li882 1.970 . S
O943 Li883 1.956 1_565 S
O943 C918 1.325 . S
H944 C886 0.929 . S
H945 C887 0.930 . S
H946 C888 0.930 . S
H947 C889 0.930 . S
H948 C891 0.930 . S
H949 C893 0.929 . S
H950 C894 0.930 . S
H951 C895 0.930 . S
H952 C898 0.930 . S
H953 C901 0.929 . S
H954 C906 0.929 . S
H955 C907 0.930 . S
H956 C914 0.929 . S
H957 C915 0.930 . S
H958 C916 0.929 1_565 S
H959 C917 0.930 . S
H960 C919 0.929 . S
H961 C920 0.930 . S
H962 C921 0.930 . S
H963 C922 0.930 . S
H964 C926 0.929 . S
H965 C928 0.930 . S
H966 C934 0.929 . S
H967 C935 0.930 . S
Li968 N985 1.990 . S
Li968 O1028 1.956 . S
Li968 O1029 1.970 . S
Li968 O1030 1.961 1_554 S
Li969 N993 1.990 . S
Li969 O1028 1.970 . S
Li969 O1029 1.956 . S
Li969 O1031 1.961 . S
Li970 N1015 1.990 . S
Li970 O1028 1.961 . S
Li970 O1030 1.956 1_554 S
Li970 O1031 1.970 . S
Li971 N1021 1.990 . S
Li971 O1029 1.961 1_556 S
Li971 O1030 1.970 . S
Li971 O1031 1.956 1_556 S
C972 C974 1.348 . S
C972 C975 1.404 . S
C972 O1028 1.325 . S
N973 C976 1.314 1_545 S
N973 C977 1.279 . S
C974 C972 1.348 . S
C974 C976 1.353 . S
C974 H1032 0.929 . S
C975 C972 1.404 . S
C975 C977 1.336 1_565 S
C975 H1033 0.906 1_565 S
C976 N973 1.314 1_565 S
C976 C974 1.353 . S
C976 H1034 0.930 . S
C977 N973 1.279 . S
C977 C975 1.336 1_545 S
C977 H1035 0.930 . S
C978 C981 1.348 1_556 S
C978 C982 1.356 . S
C978 O1029 1.325 1_556 S
C979 N980 1.279 . S
C979 C982 1.358 . S
C979 H1036 0.930 . S
N980 C979 1.279 . S
N980 C983 1.314 1_556 S
C981 C978 1.348 1_554 S
C981 C983 1.353 . S
C981 H1037 0.929 . S
C982 C978 1.356 . S
C982 C979 1.358 . S
C982 H1038 0.930 . S
C983 N980 1.314 1_554 S
C983 C981 1.353 . S
C983 H1039 0.930 . S
C984 N985 1.314 1_556 S
C984 C989 1.353 . S
C984 H990 0.930 . S
N985 Li968 1.990 . S
N985 C984 1.314 1_554 S
N985 C987 1.279 . S
C986 C987 1.358 . S
C986 C988 1.356 . S
C986 H1040 0.930 1_565 S
C987 N985 1.279 . S
C987 C986 1.358 . S
C987 H991 0.930 . S
C988 C986 1.356 . S
C988 C989 1.348 1_554 S
C989 C984 1.353 . S
C989 C988 1.348 1_556 S
C989 H1041 0.929 . S
H990 C984 0.930 . S
H991 C987 0.930 . S
C992 N993 1.314 . S
C992 C994 1.353 . S
C992 H998 0.930 . S
N993 Li969 1.990 . S
N993 C992 1.314 . S
N993 C996 1.279 . S
C994 C992 1.353 . S
C994 C997 1.348 . S
C994 H1042 0.929 . S
C995 C996 1.358 . S
C995 C997 1.356 . S
C995 H1043 0.930 . S
C996 N993 1.279 . S
C996 C995 1.358 . S
C996 H999 0.930 . S
C997 C994 1.348 . S
C997 C995 1.356 . S
H998 C992 0.930 . S
H999 C996 0.930 . S
C1000 C1002 1.348 . S
C1000 C1003 1.356 . S
C1000 O1030 1.325 . S
N1001 C1004 1.314 . S
N1001 C1005 1.279 1_565 S
C1002 C1000 1.348 . S
C1002 C1004 1.353 . S
C1002 H1044 0.929 . S
C1003 C1000 1.356 . S
C1003 C1005 1.358 1_565 S
C1003 H1045 0.944 . S
C1004 N1001 1.314 . S
C1004 C1002 1.353 . S
C1004 H1046 0.930 . S
C1005 N1001 1.279 1_545 S
C1005 C1003 1.358 1_545 S
C1005 H1047 0.930 . S
C1006 C1007 1.339 1_554 S
C1006 C1008 1.356 . S
C1006 O1031 1.325 . S
C1007 C1006 1.339 1_556 S
C1007 C1009 1.353 . S
C1007 H1048 0.939 . S
C1008 C1006 1.356 . S
C1008 C1010 1.358 . S
C1008 H1049 0.930 . S
C1009 C1007 1.353 . S
C1009 N1011 1.312 1_556 S
C1009 H1050 0.930 . S
C1010 C1008 1.358 . S
C1010 N1011 1.281 . S
C1010 H1051 0.930 . S
N1011 C1009 1.312 1_554 S
N1011 C1010 1.281 . S
C1012 C1014 1.353 1_565 S
C1012 N1015 1.314 . S
C1012 H1018 0.930 . S
C1013 N1015 1.279 1_556 S
C1013 C1016 1.356 1_565 S
C1013 H1019 0.930 . S
C1014 C1012 1.353 1_545 S
C1014 C1017 1.348 . S
C1014 H1052 0.929 . S
N1015 Li970 1.990 . S
N1015 C1012 1.314 . S
N1015 C1013 1.279 1_554 S
C1016 C1013 1.356 1_545 S
C1016 C1017 1.328 1_556 S
C1016 H1053 0.961 . S
C1017 C1014 1.348 . S
C1017 C1016 1.328 1_554 S
H1018 C1012 0.930 . S
H1019 C1013 0.930 . S
C1020 N1021 1.314 . S
C1020 C1022 1.353 . S
C1020 H1026 0.930 . S
N1021 Li971 1.990 . S
N1021 C1020 1.314 . S
N1021 C1024 1.279 . S
C1022 C1020 1.353 . S
C1022 C1025 1.348 . S
C1022 H1054 0.929 . S
C1023 C1024 1.358 . S
C1023 C1025 1.356 . S
C1023 H1055 0.930 . S
C1024 N1021 1.279 . S
C1024 C1023 1.358 . S
C1024 H1027 0.930 . S
C1025 C1022 1.348 . S
C1025 C1023 1.356 . S
H1026 C1020 0.930 . S
H1027 C1024 0.930 . S
O1028 Li968 1.956 . S
O1028 Li969 1.970 . S
O1028 Li970 1.961 . S
O1028 C972 1.325 . S
O1029 Li968 1.970 . S
O1029 Li969 1.956 . S
O1029 Li971 1.961 1_554 S
O1029 C978 1.325 1_554 S
O1030 Li968 1.961 1_556 S
O1030 Li970 1.956 1_556 S
O1030 Li971 1.970 . S
O1030 C1000 1.325 . S
O1031 Li969 1.961 . S
O1031 Li970 1.970 . S
O1031 Li971 1.956 1_554 S
O1031 C1006 1.325 . S
H1032 C974 0.929 . S
H1033 C975 0.906 1_545 S
H1034 C976 0.930 . S
H1035 C977 0.930 . S
H1036 C979 0.930 . S
H1037 C981 0.929 . S
H1038 C982 0.930 . S
H1039 C983 0.930 . S
H1040 C986 0.930 1_545 S
H1041 C989 0.929 . S
H1042 C994 0.929 . S
H1043 C995 0.930 . S
H1044 C1002 0.929 . S
H1045 C1003 0.944 . S
H1046 C1004 0.930 . S
H1047 C1005 0.930 . S
H1048 C1007 0.939 . S
H1049 C1008 0.930 . S
H1050 C1009 0.930 . S
H1051 C1010 0.930 . S
H1052 C1014 0.929 . S
H1053 C1016 0.961 . S
H1054 C1022 0.929 . S
H1055 C1023 0.930 . S
Li1056 N1073 1.990 . S
Li1056 O1116 1.956 . S
Li1056 O1117 1.970 . S
Li1056 O1118 1.961 1_554 S
Li1057 N1081 1.990 . S
Li1057 O1116 1.970 . S
Li1057 O1117 1.956 . S
Li1057 O1119 1.961 . S
Li1058 N1103 1.990 . S
Li1058 O1116 1.961 . S
Li1058 O1118 1.956 1_554 S
Li1058 O1119 1.970 . S
Li1059 N1109 1.990 . S
Li1059 O1117 1.961 1_556 S
Li1059 O1118 1.970 . S
Li1059 O1119 1.956 1_556 S
C1060 C1062 1.348 . S
C1060 C1063 1.356 . S
C1060 O1116 1.325 . S
N1061 C1064 1.314 . S
N1061 C1065 1.279 . S
C1062 C1060 1.348 . S
C1062 C1064 1.353 . S
C1062 H1120 0.929 . S
C1063 C1060 1.356 . S
C1063 C1065 1.358 . S
C1063 H1121 0.930 . S
C1064 N1061 1.314 . S
C1064 C1062 1.353 . S
C1064 H1122 0.930 . S
C1065 N1061 1.279 . S
C1065 C1063 1.358 . S
C1065 H1123 0.930 . S
C1066 C1069 1.348 . S
C1066 C1070 1.356 . S
C1066 O1117 1.325 . S
C1067 N1068 1.279 . S
C1067 C1070 1.358 . S
C1067 H1124 0.930 1_554 S
N1068 C1067 1.279 . S
N1068 C1071 1.314 . S
C1069 C1066 1.348 . S
C1069 C1071 1.353 . S
C1069 H1125 0.929 . S
C1070 C1066 1.356 . S
C1070 C1067 1.358 . S
C1070 H1126 0.930 . S
C1071 N1068 1.314 . S
C1071 C1069 1.353 . S
C1071 H1127 0.930 . S
C1072 N1073 1.314 . S
C1072 C1077 1.353 . S
C1072 H1078 0.930 1_554 S
N1073 Li1056 1.990 . S
N1073 C1072 1.314 . S
N1073 C1075 1.279 . S
C1074 C1075 1.358 . S
C1074 C1076 1.356 . S
C1074 H1128 0.930 . S
C1075 N1073 1.279 . S
C1075 C1074 1.358 . S
C1075 H1079 0.930 . S
C1076 C1074 1.356 . S
C1076 C1077 1.348 . S
C1077 C1072 1.353 . S
C1077 C1076 1.348 . S
C1077 H1129 0.929 1_554 S
H1078 C1072 0.930 1_556 S
H1079 C1075 0.930 . S
C1080 N1081 1.314 . S
C1080 C1082 1.353 . S
C1080 H1086 0.930 . S
N1081 Li1057 1.990 . S
N1081 C1080 1.314 . S
N1081 C1084 1.279 . S
C1082 C1080 1.353 . S
C1082 C1085 1.348 . S
C1082 H1130 0.929 . S
C1083 C1084 1.358 . S
C1083 C1085 1.356 . S
C1083 H1131 0.930 . S
C1084 N1081 1.279 . S
C1084 C1083 1.358 . S
C1084 H1087 0.930 . S
C1085 C1082 1.348 . S
C1085 C1083 1.356 . S
H1086 C1080 0.930 . S
H1087 C1084 0.930 . S
C1088 C1090 1.348 . S
C1088 C1091 1.356 . S
C1088 O1118 1.325 . S
N1089 C1092 1.314 . S
N1089 C1093 1.279 . S
C1090 C1088 1.348 . S
C1090 C1092 1.353 . S
C1090 H1132 0.929 . S
C1091 C1088 1.356 . S
C1091 C1093 1.358 . S
C1091 H1133 0.930 . S
C1092 N1089 1.314 . S
C1092 C1090 1.353 . S
C1092 H1134 0.930 . S
C1093 N1089 1.279 . S
C1093 C1091 1.358 . S
C1093 H1135 0.930 . S
C1094 C1095 1.348 . S
C1094 C1096 1.356 . S
C1094 O1119 1.325 . S
C1095 C1094 1.348 . S
C1095 C1097 1.353 . S
C1095 H1136 0.929 . S
C1096 C1094 1.356 . S
C1096 C1098 1.358 . S
C1096 H1137 0.930 . S
C1097 C1095 1.353 . S
C1097 N1099 1.314 . S
C1097 H1138 0.930 . S
C1098 C1096 1.358 . S
C1098 N1099 1.279 . S
C1098 H1139 0.930 . S
N1099 C1097 1.314 . S
N1099 C1098 1.279 . S
C1100 C1102 1.353 . S
C1100 N1103 1.314 . S
C1100 H1106 0.930 . S
C1101 N1103 1.279 . S
C1101 C1104 1.358 . S
C1101 H1107 0.930 1_554 S
C1102 C1100 1.353 . S
C1102 C1105 1.348 . S
C1102 H1140 0.929 . S
N1103 Li1058 1.990 . S
N1103 C1100 1.314 . S
N1103 C1101 1.279 . S
C1104 C1101 1.358 . S
C1104 C1105 1.356 . S
C1104 H1141 0.887 1_554 S
C1105 C1102 1.348 . S
C1105 C1104 1.356 . S
H1106 C1100 0.930 . S
H1107 C1101 0.930 1_556 S
C1108 N1109 1.314 . S
C1108 C1110 1.353 . S
C1108 H1114 0.930 . S
N1109 Li1059 1.990 . S
N1109 C1108 1.314 . S
N1109 C1112 1.279 . S
C1110 C1108 1.353 . S
C1110 C1113 1.348 . S
C1110 H1142 0.929 . S
C1111 C1112 1.358 . S
C1111 C1113 1.356 . S
C1111 H1143 0.930 . S
C1112 N1109 1.279 . S
C1112 C1111 1.358 . S
C1112 H1115 0.930 . S
C1113 C1110 1.348 . S
C1113 C1111 1.356 . S
H1114 C1108 0.930 . S
H1115 C1112 0.930 . S
O1116 Li1056 1.956 . S
O1116 Li1057 1.970 . S
O1116 Li1058 1.961 . S
O1116 C1060 1.325 . S
O1117 Li1056 1.970 . S
O1117 Li1057 1.956 . S
O1117 Li1059 1.961 1_554 S
O1117 C1066 1.325 . S
O1118 Li1056 1.961 1_556 S
O1118 Li1058 1.956 1_556 S
O1118 Li1059 1.970 . S
O1118 C1088 1.325 . S
O1119 Li1057 1.961 . S
O1119 Li1058 1.970 . S
O1119 Li1059 1.956 1_554 S
O1119 C1094 1.325 . S
H1120 C1062 0.929 . S
H1121 C1063 0.930 . S
H1122 C1064 0.930 . S
H1123 C1065 0.930 . S
H1124 C1067 0.930 1_556 S
H1125 C1069 0.929 . S
H1126 C1070 0.930 . S
H1127 C1071 0.930 . S
H1128 C1074 0.930 . S
H1129 C1077 0.929 1_556 S
H1130 C1082 0.929 . S
H1131 C1083 0.930 . S
H1132 C1090 0.929 . S
H1133 C1091 0.930 . S
H1134 C1092 0.930 . S
H1135 C1093 0.930 . S
H1136 C1095 0.929 . S
H1137 C1096 0.930 . S
H1138 C1097 0.930 . S
H1139 C1098 0.930 . S
H1140 C1102 0.929 . S
H1141 C1104 0.887 1_556 S
H1142 C1110 0.929 . S
H1143 C1111 0.930 . S
Li1144 N1161 1.990 . S
Li1144 O1204 1.956 . S
Li1144 O1205 1.970 . S
Li1144 O1206 1.961 . S
Li1145 N1169 1.990 . S
Li1145 O1204 1.970 . S
Li1145 O1205 1.956 . S
Li1145 O1207 1.961 1_554 S
Li1146 N1191 2.003 . S
Li1146 O1204 1.952 1_556 S
Li1146 O1206 1.946 1_556 S
Li1146 O1207 1.970 . S
Li1147 N1197 1.990 . S
Li1147 O1205 1.961 . S
Li1147 O1206 1.970 . S
Li1147 O1207 1.956 1_554 S
C1148 C1150 1.348 . S
C1148 C1151 1.356 . S
C1148 O1204 1.325 . S
N1149 C1152 1.314 . S
N1149 C1153 1.279 . S
C1150 C1148 1.348 . S
C1150 C1152 1.353 . S
C1150 H1208 0.929 . S
C1151 C1148 1.356 . S
C1151 C1153 1.358 . S
C1151 H1209 0.930 . S
C1152 N1149 1.314 . S
C1152 C1150 1.353 . S
C1152 H1210 0.930 . S
C1153 N1149 1.279 . S
C1153 C1151 1.358 . S
C1153 H1211 0.930 . S
C1154 C1157 1.348 . S
C1154 C1158 1.356 . S
C1154 O1205 1.325 . S
C1155 N1156 1.279 . S
C1155 C1158 1.358 . S
C1155 H1212 0.930 . S
N1156 C1155 1.279 . S
N1156 C1159 1.314 . S
C1157 C1154 1.348 . S
C1157 C1159 1.353 . S
C1157 H1213 0.929 . S
C1158 C1154 1.356 . S
C1158 C1155 1.358 . S
C1158 H1214 0.930 . S
C1159 N1156 1.314 . S
C1159 C1157 1.353 . S
C1159 H1215 0.930 . S
C1160 N1161 1.314 . S
C1160 C1165 1.353 . S
C1160 H1166 0.930 . S
N1161 Li1144 1.990 . S
N1161 C1160 1.314 . S
N1161 C1163 1.279 . S
C1162 C1163 1.358 . S
C1162 C1164 1.356 . S
C1162 H1216 0.930 . S
C1163 N1161 1.279 . S
C1163 C1162 1.358 . S
C1163 H1167 0.930 . S
C1164 C1162 1.356 . S
C1164 C1165 1.348 . S
C1165 C1160 1.353 . S
C1165 C1164 1.348 . S
C1165 H1217 0.929 . S
H1166 C1160 0.930 . S
H1167 C1163 0.930 . S
C1168 N1169 1.310 . S
C1168 C1170 1.353 1_554 S
C1168 H1174 0.934 1_554 S
N1169 Li1145 1.990 . S
N1169 C1168 1.310 . S
N1169 C1172 1.279 . S
C1170 C1168 1.353 1_556 S
C1170 C1173 1.348 1_556 S
C1170 H1218 0.929 . S
C1171 C1172 1.358 . S
C1171 C1173 1.356 . S
C1171 H1219 0.930 . S
C1172 N1169 1.279 . S
C1172 C1171 1.358 . S
C1172 H1175 0.930 . S
C1173 C1170 1.348 1_554 S
C1173 C1171 1.356 . S
H1174 C1168 0.934 1_556 S
H1175 C1172 0.930 . S
C1176 C1178 1.348 . S
C1176 C1179 1.356 . S
C1176 O1206 1.325 . S
N1177 C1180 1.314 . S
N1177 C1181 1.279 . S
C1178 C1176 1.348 . S
C1178 C1180 1.353 . S
C1178 H1220 0.929 . S
C1179 C1176 1.356 . S
C1179 C1181 1.358 . S
C1179 H1221 0.930 . S
C1180 N1177 1.314 . S
C1180 C1178 1.353 . S
C1180 H1222 0.930 . S
C1181 N1177 1.279 . S
C1181 C1179 1.358 . S
C1181 H1223 0.930 . S
C1182 C1183 1.348 . S
C1182 C1184 1.356 . S
C1182 O1207 1.325 . S
C1183 C1182 1.348 . S
C1183 C1185 1.353 . S
C1183 H1224 0.929 . S
C1184 C1182 1.356 . S
C1184 C1186 1.358 . S
C1184 H1225 0.930 . S
C1185 C1183 1.353 . S
C1185 N1187 1.314 . S
C1185 H1226 0.930 . S
C1186 C1184 1.358 . S
C1186 N1187 1.279 . S
C1186 H1227 0.930 . S
N1187 C1185 1.314 . S
N1187 C1186 1.279 . S
C1188 C1190 1.353 . S
C1188 N1191 1.314 . S
C1188 H1194 0.930 . S
C1189 N1191 1.279 . S
C1189 C1192 1.358 . S
C1189 H1195 0.930 . S
C1190 C1188 1.353 . S
C1190 C1193 1.348 . S
C1190 H1228 0.929 . S
N1191 Li1146 2.003 . S
N1191 C1188 1.314 . S
N1191 C1189 1.279 . S
C1192 C1189 1.358 . S
C1192 C1193 1.356 . S
C1192 H1229 0.930 . S
C1193 C1190 1.348 . S
C1193 C1192 1.356 . S
H1194 C1188 0.930 . S
H1195 C1189 0.930 . S
C1196 N1197 1.314 . S
C1196 C1198 1.353 . S
C1196 H1202 0.930 . S
N1197 Li1147 1.990 . S
N1197 C1196 1.314 . S
N1197 C1200 1.279 1_554 S
C1198 C1196 1.353 . S
C1198 C1201 1.348 . S
C1198 H1230 0.929 . S
C1199 C1200 1.358 . S
C1199 C1201 1.356 1_556 S
C1199 H1231 0.930 . S
C1200 N1197 1.279 1_556 S
C1200 C1199 1.358 . S
C1200 H1203 0.930 . S
C1201 C1198 1.348 . S
C1201 C1199 1.356 1_554 S
H1202 C1196 0.930 . S
H1203 C1200 0.930 . S
O1204 Li1144 1.956 . S
O1204 Li1145 1.970 . S
O1204 Li1146 1.952 1_554 S
O1204 C1148 1.325 . S
O1205 Li1144 1.970 . S
O1205 Li1145 1.956 . S
O1205 Li1147 1.961 . S
O1205 C1154 1.325 . S
O1206 Li1144 1.961 . S
O1206 Li1146 1.946 1_554 S
O1206 Li1147 1.970 . S
O1206 C1176 1.325 . S
O1207 Li1145 1.961 1_556 S
O1207 Li1146 1.970 . S
O1207 Li1147 1.956 1_556 S
O1207 C1182 1.325 . S
H1208 C1150 0.929 . S
H1209 C1151 0.930 . S
H1210 C1152 0.930 . S
H1211 C1153 0.930 . S
H1212 C1155 0.930 . S
H1213 C1157 0.929 . S
H1214 C1158 0.930 . S
H1215 C1159 0.930 . S
H1216 C1162 0.930 . S
H1217 C1165 0.929 . S
H1218 C1170 0.929 . S
H1219 C1171 0.930 . S
H1220 C1178 0.929 . S
H1221 C1179 0.930 . S
H1222 C1180 0.930 . S
H1223 C1181 0.930 . S
H1224 C1183 0.929 . S
H1225 C1184 0.930 . S
H1226 C1185 0.930 . S
H1227 C1186 0.930 . S
H1228 C1190 0.929 . S
H1229 C1192 0.930 . S
H1230 C1198 0.929 . S
H1231 C1199 0.930 . S
Li1232 N1249 1.990 . S
Li1232 O1292 1.956 . S
Li1232 O1293 1.970 . S
Li1232 O1294 1.961 . S
Li1233 N1257 1.990 . S
Li1233 O1292 1.970 . S
Li1233 O1293 1.956 . S
Li1233 O1295 1.961 . S
Li1234 N1279 1.990 . S
Li1234 O1292 1.961 . S
Li1234 O1294 1.956 . S
Li1234 O1295 1.970 . S
Li1235 N1285 1.990 . S
Li1235 O1293 1.961 . S
Li1235 O1294 1.970 . S
Li1235 O1295 1.956 . S
C1236 C1238 1.348 . S
C1236 C1239 1.356 . S
C1236 O1292 1.325 . S
N1237 C1240 1.314 . S
N1237 C1241 1.279 . S
C1238 C1236 1.348 . S
C1238 C1240 1.353 . S
C1238 H1296 0.929 . S
C1239 C1236 1.356 . S
C1239 C1241 1.358 . S
C1239 H1297 0.930 . S
C1240 N1237 1.314 . S
C1240 C1238 1.353 . S
C1240 H1298 0.930 . S
C1241 N1237 1.279 . S
C1241 C1239 1.358 . S
C1241 H1299 0.930 . S
C1242 C1245 1.348 . S
C1242 C1246 1.356 . S
C1242 O1293 1.325 . S
C1243 N1244 1.279 . S
C1243 C1246 1.358 . S
C1243 H1300 0.930 . S
N1244 C1243 1.279 . S
N1244 C1247 1.314 . S
C1245 C1242 1.348 . S
C1245 C1247 1.353 . S
C1245 H1301 0.929 . S
C1246 C1242 1.356 . S
C1246 C1243 1.358 . S
C1246 H1302 0.930 . S
C1247 N1244 1.314 . S
C1247 C1245 1.353 . S
C1247 H1303 0.930 . S
C1248 N1249 1.314 . S
C1248 C1253 1.353 . S
C1248 H1254 0.930 . S
N1249 Li1232 1.990 . S
N1249 C1248 1.314 . S
N1249 C1251 1.279 . S
C1250 C1251 1.358 . S
C1250 C1252 1.356 . S
C1250 H1304 0.930 . S
C1251 N1249 1.279 . S
C1251 C1250 1.358 . S
C1251 H1255 0.930 . S
C1252 C1250 1.356 . S
C1252 C1253 1.348 . S
C1253 C1248 1.353 . S
C1253 C1252 1.348 . S
C1253 H1305 0.929 . S
H1254 C1248 0.930 . S
H1255 C1251 0.930 . S
C1256 N1257 1.314 . S
C1256 C1258 1.353 . S
C1256 H1262 0.930 . S
N1257 Li1233 1.990 . S
N1257 C1256 1.314 . S
N1257 C1260 1.279 . S
C1258 C1256 1.353 . S
C1258 C1261 1.348 . S
C1258 H1306 0.929 . S
C1259 C1260 1.358 . S
C1259 C1261 1.356 . S
C1259 H1307 0.930 . S
C1260 N1257 1.279 . S
C1260 C1259 1.358 . S
C1260 H1263 0.930 . S
C1261 C1258 1.348 . S
C1261 C1259 1.356 . S
H1262 C1256 0.930 . S
H1263 C1260 0.930 . S
C1264 C1266 1.348 . S
C1264 C1267 1.356 . S
C1264 O1294 1.325 . S
N1265 C1268 1.314 . S
N1265 C1269 1.279 . S
C1266 C1264 1.348 . S
C1266 C1268 1.353 . S
C1266 H1308 0.929 . S
C1267 C1264 1.356 . S
C1267 C1269 1.358 . S
C1267 H1309 0.930 . S
C1268 N1265 1.314 . S
C1268 C1266 1.353 . S
C1268 H1310 0.930 . S
C1269 N1265 1.279 . S
C1269 C1267 1.358 . S
C1269 H1311 0.930 . S
C1270 C1271 1.348 . S
C1270 C1272 1.356 . S
C1270 O1295 1.325 . S
C1271 C1270 1.348 . S
C1271 C1273 1.353 . S
C1271 H1312 0.929 . S
C1272 C1270 1.356 . S
C1272 C1274 1.358 . S
C1272 H1313 0.930 . S
C1273 C1271 1.353 . S
C1273 N1275 1.314 . S
C1273 H1314 0.930 . S
C1274 C1272 1.358 . S
C1274 N1275 1.279 . S
C1274 H1315 0.930 . S
N1275 C1273 1.314 . S
N1275 C1274 1.279 . S
C1276 C1278 1.353 . S
C1276 N1279 1.314 . S
C1276 H1282 0.930 . S
C1277 N1279 1.279 . S
C1277 C1280 1.358 . S
C1277 H1283 0.930 . S
C1278 C1276 1.353 . S
C1278 C1281 1.348 . S
C1278 H1316 0.929 . S
N1279 Li1234 1.990 . S
N1279 C1276 1.314 . S
N1279 C1277 1.279 . S
C1280 C1277 1.358 . S
C1280 C1281 1.356 . S
C1280 H1317 0.930 . S
C1281 C1278 1.348 . S
C1281 C1280 1.356 . S
H1282 C1276 0.930 . S
H1283 C1277 0.930 . S
C1284 N1285 1.314 . S
C1284 C1286 1.353 . S
C1284 H1290 0.930 . S
N1285 Li1235 1.990 . S
N1285 C1284 1.314 . S
N1285 C1288 1.279 . S
C1286 C1284 1.353 . S
C1286 C1289 1.348 . S
C1286 H1318 0.929 . S
C1287 C1288 1.358 . S
C1287 C1289 1.356 . S
C1287 H1319 0.930 . S
C1288 N1285 1.279 . S
C1288 C1287 1.358 . S
C1288 H1291 0.930 . S
C1289 C1286 1.348 . S
C1289 C1287 1.356 . S
H1290 C1284 0.930 . S
H1291 C1288 0.930 . S
O1292 Li1232 1.956 . S
O1292 Li1233 1.970 . S
O1292 Li1234 1.961 . S
O1292 C1236 1.325 . S
O1293 Li1232 1.970 . S
O1293 Li1233 1.956 . S
O1293 Li1235 1.961 . S
O1293 C1242 1.325 . S
O1294 Li1232 1.961 . S
O1294 Li1234 1.956 . S
O1294 Li1235 1.970 . S
O1294 C1264 1.325 . S
O1295 Li1233 1.961 . S
O1295 Li1234 1.970 . S
O1295 Li1235 1.956 . S
O1295 C1270 1.325 . S
H1296 C1238 0.929 . S
H1297 C1239 0.930 . S
H1298 C1240 0.930 . S
H1299 C1241 0.930 . S
H1300 C1243 0.930 . S
H1301 C1245 0.929 . S
H1302 C1246 0.930 . S
H1303 C1247 0.930 . S
H1304 C1250 0.930 . S
H1305 C1253 0.929 . S
H1306 C1258 0.929 . S
H1307 C1259 0.930 . S
H1308 C1266 0.929 . S
H1309 C1267 0.930 . S
H1310 C1268 0.930 . S
H1311 C1269 0.930 . S
H1312 C1271 0.929 . S
H1313 C1272 0.930 . S
H1314 C1273 0.930 . S
H1315 C1274 0.930 . S
H1316 C1278 0.929 . S
H1317 C1280 0.930 . S
H1318 C1286 0.929 . S
H1319 C1287 0.930 . S
Li1320 N1337 1.990 . S
Li1320 O1380 1.956 . S
Li1320 O1381 1.970 . S
Li1320 O1382 1.961 . S
Li1321 N1345 1.990 . S
Li1321 O1380 1.970 . S
Li1321 O1381 1.956 . S
Li1321 O1383 1.961 . S
Li1322 N1367 1.990 . S
Li1322 O1380 1.961 . S
Li1322 O1382 1.956 . S
Li1322 O1383 1.970 . S
Li1323 N1373 1.990 . S
Li1323 O1381 1.961 . S
Li1323 O1382 1.970 . S
Li1323 O1383 1.956 . S
C1324 C1326 1.348 . S
C1324 C1327 1.356 . S
C1324 O1380 1.325 . S
N1325 C1328 1.314 . S
N1325 C1329 1.279 . S
C1326 C1324 1.348 . S
C1326 C1328 1.353 . S
C1326 H1384 0.929 . S
C1327 C1324 1.356 . S
C1327 C1329 1.358 . S
C1327 H1385 0.930 . S
C1328 N1325 1.314 . S
C1328 C1326 1.353 . S
C1328 H1386 0.930 . S
C1329 N1325 1.279 . S
C1329 C1327 1.358 . S
C1329 H1387 0.930 . S
C1330 C1333 1.348 . S
C1330 C1334 1.356 . S
C1330 O1381 1.325 . S
C1331 N1332 1.279 . S
C1331 C1334 1.358 . S
C1331 H1388 0.930 . S
N1332 C1331 1.279 . S
N1332 C1335 1.314 . S
C1333 C1330 1.348 . S
C1333 C1335 1.353 . S
C1333 H1389 0.929 . S
C1334 C1330 1.356 . S
C1334 C1331 1.358 . S
C1334 H1390 0.930 . S
C1335 N1332 1.314 . S
C1335 C1333 1.353 . S
C1335 H1391 0.930 . S
C1336 N1337 1.314 . S
C1336 C1341 1.353 . S
C1336 H1342 0.930 . S
N1337 Li1320 1.990 . S
N1337 C1336 1.314 . S
N1337 C1339 1.279 . S
C1338 C1339 1.358 . S
C1338 C1340 1.356 . S
C1338 H1392 0.930 . S
C1339 N1337 1.279 . S
C1339 C1338 1.358 . S
C1339 H1343 0.930 . S
C1340 C1338 1.356 . S
C1340 C1341 1.348 . S
C1341 C1336 1.353 . S
C1341 C1340 1.348 . S
C1341 H1393 0.929 . S
H1342 C1336 0.930 . S
H1343 C1339 0.930 . S
C1344 N1345 1.314 . S
C1344 C1346 1.353 . S
C1344 H1350 0.930 . S
N1345 Li1321 1.990 . S
N1345 C1344 1.314 . S
N1345 C1348 1.279 . S
C1346 C1344 1.353 . S
C1346 C1349 1.348 . S
C1346 H1394 0.929 . S
C1347 C1348 1.358 . S
C1347 C1349 1.356 . S
C1347 H1395 0.930 . S
C1348 N1345 1.279 . S
C1348 C1347 1.358 . S
C1348 H1351 0.930 . S
C1349 C1346 1.348 . S
C1349 C1347 1.356 . S
H1350 C1344 0.930 . S
H1351 C1348 0.930 . S
C1352 C1354 1.348 . S
C1352 C1355 1.356 . S
C1352 O1382 1.325 . S
N1353 C1356 1.314 . S
N1353 C1357 1.279 . S
C1354 C1352 1.348 . S
C1354 C1356 1.353 . S
C1354 H1396 0.929 . S
C1355 C1352 1.356 . S
C1355 C1357 1.358 . S
C1355 H1397 0.930 . S
C1356 N1353 1.314 . S
C1356 C1354 1.353 . S
C1356 H1398 0.930 . S
C1357 N1353 1.279 . S
C1357 C1355 1.358 . S
C1357 H1399 0.930 . S
C1358 C1359 1.348 . S
C1358 C1360 1.356 . S
C1358 O1383 1.325 . S
C1359 C1358 1.348 . S
C1359 C1361 1.353 . S
C1359 H1400 0.929 . S
C1360 C1358 1.356 . S
C1360 C1362 1.358 . S
C1360 H1401 0.930 . S
C1361 C1359 1.353 . S
C1361 N1363 1.314 . S
C1361 H1402 0.930 . S
C1362 C1360 1.358 . S
C1362 N1363 1.279 . S
C1362 H1403 0.930 . S
N1363 C1361 1.314 . S
N1363 C1362 1.279 . S
C1364 C1366 1.353 . S
C1364 N1367 1.314 . S
C1364 H1370 0.930 . S
C1365 N1367 1.279 . S
C1365 C1368 1.358 . S
C1365 H1371 0.930 . S
C1366 C1364 1.353 . S
C1366 C1369 1.348 . S
C1366 H1404 0.929 . S
N1367 Li1322 1.990 . S
N1367 C1364 1.314 . S
N1367 C1365 1.279 . S
C1368 C1365 1.358 . S
C1368 C1369 1.356 . S
C1368 H1405 0.930 . S
C1369 C1366 1.348 . S
C1369 C1368 1.356 . S
H1370 C1364 0.930 . S
H1371 C1365 0.930 . S
C1372 N1373 1.314 . S
C1372 C1374 1.353 . S
C1372 H1378 0.930 . S
N1373 Li1323 1.990 . S
N1373 C1372 1.314 . S
N1373 C1376 1.279 . S
C1374 C1372 1.353 . S
C1374 C1377 1.348 . S
C1374 H1406 0.929 . S
C1375 C1376 1.358 . S
C1375 C1377 1.356 . S
C1375 H1407 0.930 . S
C1376 N1373 1.279 . S
C1376 C1375 1.358 . S
C1376 H1379 0.930 . S
C1377 C1374 1.348 . S
C1377 C1375 1.356 . S
H1378 C1372 0.930 . S
H1379 C1376 0.930 . S
O1380 Li1320 1.956 . S
O1380 Li1321 1.970 . S
O1380 Li1322 1.961 . S
O1380 C1324 1.325 . S
O1381 Li1320 1.970 . S
O1381 Li1321 1.956 . S
O1381 Li1323 1.961 . S
O1381 C1330 1.325 . S
O1382 Li1320 1.961 . S
O1382 Li1322 1.956 . S
O1382 Li1323 1.970 . S
O1382 C1352 1.325 . S
O1383 Li1321 1.961 . S
O1383 Li1322 1.970 . S
O1383 Li1323 1.956 . S
O1383 C1358 1.325 . S
H1384 C1326 0.929 . S
H1385 C1327 0.930 . S
H1386 C1328 0.930 . S
H1387 C1329 0.930 . S
H1388 C1331 0.930 . S
H1389 C1333 0.929 . S
H1390 C1334 0.930 . S
H1391 C1335 0.930 . S
H1392 C1338 0.930 . S
H1393 C1341 0.929 . S
H1394 C1346 0.929 . S
H1395 C1347 0.930 . S
H1396 C1354 0.929 . S
H1397 C1355 0.930 . S
H1398 C1356 0.930 . S
H1399 C1357 0.930 . S
H1400 C1359 0.929 . S
H1401 C1360 0.930 . S
H1402 C1361 0.930 . S
H1403 C1362 0.930 . S
H1404 C1366 0.929 . S
H1405 C1368 0.930 . S
H1406 C1374 0.929 . S
H1407 C1375 0.930 . S
Li1408 N1425 1.990 . S
Li1408 O1468 1.956 . S
Li1408 O1469 1.970 . S
Li1408 O1470 1.961 . S
Li1409 N1433 1.990 . S
Li1409 O1468 1.970 . S
Li1409 O1469 1.956 . S
Li1409 O1471 1.961 . S
Li1410 N1455 1.990 . S
Li1410 O1468 1.961 . S
Li1410 O1470 1.956 . S
Li1410 O1471 1.970 . S
Li1411 N1461 1.990 . S
Li1411 O1469 1.961 . S
Li1411 O1470 1.970 . S
Li1411 O1471 1.956 . S
C1412 C1414 1.348 1_545 S
C1412 C1415 1.356 . S
C1412 O1468 1.325 . S
N1413 C1416 1.314 . S
N1413 C1417 1.279 1_565 S
C1414 C1412 1.348 1_565 S
C1414 C1416 1.353 . S
C1414 H1472 0.929 . S
C1415 C1412 1.356 . S
C1415 C1417 1.358 . S
C1415 H1473 0.930 . S
C1416 N1413 1.314 . S
C1416 C1414 1.353 . S
C1416 H1474 0.930 . S
C1417 N1413 1.279 1_545 S
C1417 C1415 1.358 . S
C1417 H1475 0.930 1_655 S
C1418 C1421 1.348 . S
C1418 C1422 1.356 . S
C1418 O1469 1.325 . S
C1419 N1420 1.279 . S
C1419 C1422 1.358 . S
C1419 H1476 0.930 . S
N1420 C1419 1.279 . S
N1420 C1423 1.314 . S
C1421 C1418 1.348 . S
C1421 C1423 1.353 . S
C1421 H1477 0.929 . S
C1422 C1418 1.356 . S
C1422 C1419 1.358 . S
C1422 H1478 0.930 . S
C1423 N1420 1.314 . S
C1423 C1421 1.353 . S
C1423 H1479 0.930 . S
C1424 N1425 1.314 . S
C1424 C1429 1.353 . S
C1424 H1430 0.930 . S
N1425 Li1408 1.990 . S
N1425 C1424 1.314 . S
N1425 C1427 1.279 . S
C1426 C1427 1.374 . S
C1426 C1428 1.358 1_655 S
C1426 H1480 0.913 1_655 S
C1427 N1425 1.279 . S
C1427 C1426 1.374 . S
C1427 H1431 0.930 . S
C1428 C1426 1.358 1_455 S
C1428 C1429 1.348 1_455 S
C1429 C1424 1.353 . S
C1429 C1428 1.348 1_655 S
C1429 H1481 0.929 . S
H1430 C1424 0.930 . S
H1431 C1427 0.930 . S
C1432 N1433 1.314 1_565 S
C1432 C1434 1.353 . S
C1432 H1438 0.930 . S
N1433 Li1409 1.990 . S
N1433 C1432 1.314 1_545 S
N1433 C1436 1.279 1_545 S
C1434 C1432 1.353 . S
C1434 C1437 1.348 . S
C1434 H1482 0.929 . S
C1435 C1436 1.358 . S
C1435 C1437 1.356 . S
C1435 H1483 0.930 . S
C1436 N1433 1.279 1_565 S
C1436 C1435 1.358 . S
C1436 H1439 0.930 1_565 S
C1437 C1434 1.348 . S
C1437 C1435 1.356 . S
H1438 C1432 0.930 . S
H1439 C1436 0.930 1_545 S
C1440 C1442 1.348 . S
C1440 C1443 1.356 . S
C1440 O1470 1.325 . S
N1441 C1444 1.314 1_455 S
N1441 C1445 1.279 . S
C1442 C1440 1.348 . S
C1442 C1444 1.353 . S
C1442 H1484 0.929 . S
C1443 C1440 1.356 . S
C1443 C1445 1.358 1_655 S
C1443 H1485 0.930 . S
C1444 N1441 1.314 1_655 S
C1444 C1442 1.353 . S
C1444 H1486 0.930 . S
C1445 N1441 1.279 . S
C1445 C1443 1.358 1_455 S
C1445 H1487 0.930 . S
C1446 C1447 1.348 . S
C1446 C1448 1.356 . S
C1446 O1471 1.325 . S
C1447 C1446 1.348 . S
C1447 C1449 1.353 . S
C1447 H1488 0.929 . S
C1448 C1446 1.356 . S
C1448 C1450 1.358 . S
C1448 H1489 0.930 . S
C1449 C1447 1.353 . S
C1449 N1451 1.314 . S
C1449 H1490 0.930 . S
C1450 C1448 1.358 . S
C1450 N1451 1.279 . S
C1450 H1491 0.930 . S
N1451 C1449 1.314 . S
N1451 C1450 1.279 . S
C1452 C1454 1.353 . S
C1452 N1455 1.314 . S
C1452 H1458 0.930 . S
C1453 N1455 1.279 . S
C1453 C1456 1.358 . S
C1453 H1459 0.930 . S
C1454 C1452 1.353 . S
C1454 C1457 1.348 . S
C1454 H1492 0.929 . S
N1455 Li1410 1.990 . S
N1455 C1452 1.314 . S
N1455 C1453 1.279 . S
C1456 C1453 1.358 . S
C1456 C1457 1.356 . S
C1456 H1493 0.930 1_655 S
C1457 C1454 1.348 . S
C1457 C1456 1.356 . S
H1458 C1452 0.930 . S
H1459 C1453 0.930 . S
C1460 N1461 1.314 . S
C1460 C1462 1.353 . S
C1460 H1466 0.930 . S
N1461 Li1411 1.990 . S
N1461 C1460 1.314 . S
N1461 C1464 1.279 . S
C1462 C1460 1.353 . S
C1462 C1465 1.348 . S
C1462 H1494 0.929 . S
C1463 C1464 1.358 . S
C1463 C1465 1.356 . S
C1463 H1495 0.930 . S
C1464 N1461 1.279 . S
C1464 C1463 1.358 . S
C1464 H1467 0.930 . S
C1465 C1462 1.348 . S
C1465 C1463 1.356 . S
H1466 C1460 0.930 . S
H1467 C1464 0.930 . S
O1468 Li1408 1.956 . S
O1468 Li1409 1.970 . S
O1468 Li1410 1.961 . S
O1468 C1412 1.325 . S
O1469 Li1408 1.970 . S
O1469 Li1409 1.956 . S
O1469 Li1411 1.961 . S
O1469 C1418 1.325 . S
O1470 Li1408 1.961 . S
O1470 Li1410 1.956 . S
O1470 Li1411 1.970 . S
O1470 C1440 1.325 . S
O1471 Li1409 1.961 . S
O1471 Li1410 1.970 . S
O1471 Li1411 1.956 . S
O1471 C1446 1.325 . S
H1472 C1414 0.929 . S
H1473 C1415 0.930 . S
H1474 C1416 0.930 . S
H1475 C1417 0.930 1_455 S
H1476 C1419 0.930 . S
H1477 C1421 0.929 . S
H1478 C1422 0.930 . S
H1479 C1423 0.930 . S
H1480 C1426 0.913 1_455 S
H1481 C1429 0.929 . S
H1482 C1434 0.929 . S
H1483 C1435 0.930 . S
H1484 C1442 0.929 . S
H1485 C1443 0.930 . S
H1486 C1444 0.930 . S
H1487 C1445 0.930 . S
H1488 C1447 0.929 . S
H1489 C1448 0.930 . S
H1490 C1449 0.930 . S
H1491 C1450 0.930 . S
H1492 C1454 0.929 . S
H1493 C1456 0.930 1_455 S
H1494 C1462 0.929 . S
H1495 C1463 0.930 . S
Li1496 N1513 1.990 . S
Li1496 O1556 1.956 . S
Li1496 O1557 1.970 . S
Li1496 O1558 1.961 . S
Li1497 N1521 1.990 . S
Li1497 O1556 1.970 . S
Li1497 O1557 1.956 . S
Li1497 O1559 1.961 . S
Li1498 N1543 1.990 . S
Li1498 O1556 1.961 . S
Li1498 O1558 1.956 . S
Li1498 O1559 1.970 . S
Li1499 N1549 1.990 . S
Li1499 O1557 1.961 . S
Li1499 O1558 1.970 . S
Li1499 O1559 1.956 . S
C1500 C1502 1.348 . S
C1500 C1503 1.356 . S
C1500 O1556 1.325 . S
N1501 C1504 1.314 . S
N1501 C1505 1.279 . S
C1502 C1500 1.348 . S
C1502 C1504 1.353 . S
C1502 H1560 0.929 . S
C1503 C1500 1.356 . S
C1503 C1505 1.358 . S
C1503 H1561 0.930 . S
C1504 N1501 1.314 . S
C1504 C1502 1.353 . S
C1504 H1562 0.930 . S
C1505 N1501 1.279 . S
C1505 C1503 1.358 . S
C1505 H1563 0.930 . S
C1506 C1509 1.348 . S
C1506 C1510 1.356 . S
C1506 O1557 1.325 . S
C1507 N1508 1.279 . S
C1507 C1510 1.358 . S
C1507 H1564 0.930 . S
N1508 C1507 1.279 . S
N1508 C1511 1.314 . S
C1509 C1506 1.348 . S
C1509 C1511 1.353 . S
C1509 H1565 0.929 . S
C1510 C1506 1.356 . S
C1510 C1507 1.358 . S
C1510 H1566 0.930 . S
C1511 N1508 1.314 . S
C1511 C1509 1.353 . S
C1511 H1567 0.930 . S
C1512 N1513 1.314 . S
C1512 C1517 1.353 . S
C1512 H1518 0.930 . S
N1513 Li1496 1.990 . S
N1513 C1512 1.314 . S
N1513 C1515 1.279 . S
C1514 C1515 1.358 . S
C1514 C1516 1.356 . S
C1514 H1568 0.930 . S
C1515 N1513 1.279 . S
C1515 C1514 1.358 . S
C1515 H1519 0.930 . S
C1516 C1514 1.356 . S
C1516 C1517 1.348 . S
C1517 C1512 1.353 . S
C1517 C1516 1.348 . S
C1517 H1569 0.929 . S
H1518 C1512 0.930 . S
H1519 C1515 0.930 . S
C1520 N1521 1.314 . S
C1520 C1522 1.353 . S
C1520 H1526 0.930 . S
N1521 Li1497 1.990 . S
N1521 C1520 1.314 . S
N1521 C1524 1.279 . S
C1522 C1520 1.353 . S
C1522 C1525 1.348 . S
C1522 H1570 0.929 . S
C1523 C1524 1.358 . S
C1523 C1525 1.356 . S
C1523 H1571 0.930 . S
C1524 N1521 1.279 . S
C1524 C1523 1.358 . S
C1524 H1527 0.930 . S
C1525 C1522 1.348 . S
C1525 C1523 1.356 . S
H1526 C1520 0.930 . S
H1527 C1524 0.930 . S
C1528 C1530 1.348 . S
C1528 C1531 1.356 . S
C1528 O1558 1.325 . S
N1529 C1532 1.314 . S
N1529 C1533 1.279 . S
C1530 C1528 1.348 . S
C1530 C1532 1.353 . S
C1530 H1572 0.929 . S
C1531 C1528 1.356 . S
C1531 C1533 1.358 . S
C1531 H1573 0.930 . S
C1532 N1529 1.314 . S
C1532 C1530 1.353 . S
C1532 H1574 0.930 . S
C1533 N1529 1.279 . S
C1533 C1531 1.358 . S
C1533 H1575 0.930 . S
C1534 C1535 1.348 . S
C1534 C1536 1.356 . S
C1534 O1559 1.325 . S
C1535 C1534 1.348 . S
C1535 C1537 1.353 . S
C1535 H1576 0.929 . S
C1536 C1534 1.356 . S
C1536 C1538 1.358 . S
C1536 H1577 0.930 . S
C1537 C1535 1.353 . S
C1537 N1539 1.314 . S
C1537 H1578 0.930 . S
C1538 C1536 1.358 . S
C1538 N1539 1.279 . S
C1538 H1579 0.930 . S
N1539 C1537 1.314 . S
N1539 C1538 1.279 . S
C1540 C1542 1.353 . S
C1540 N1543 1.314 . S
C1540 H1546 0.930 . S
C1541 N1543 1.279 . S
C1541 C1544 1.358 . S
C1541 H1547 0.930 . S
C1542 C1540 1.353 . S
C1542 C1545 1.348 . S
C1542 H1580 0.929 . S
N1543 Li1498 1.990 . S
N1543 C1540 1.314 . S
N1543 C1541 1.279 . S
C1544 C1541 1.358 . S
C1544 C1545 1.356 . S
C1544 H1581 0.930 . S
C1545 C1542 1.348 . S
C1545 C1544 1.356 . S
H1546 C1540 0.930 . S
H1547 C1541 0.930 . S
C1548 N1549 1.314 . S
C1548 C1550 1.353 . S
C1548 H1554 0.930 . S
N1549 Li1499 1.990 . S
N1549 C1548 1.314 . S
N1549 C1552 1.279 . S
C1550 C1548 1.353 . S
C1550 C1553 1.348 . S
C1550 H1582 0.929 . S
C1551 C1552 1.358 . S
C1551 C1553 1.356 . S
C1551 H1583 0.930 . S
C1552 N1549 1.279 . S
C1552 C1551 1.358 . S
C1552 H1555 0.930 . S
C1553 C1550 1.348 . S
C1553 C1551 1.356 . S
H1554 C1548 0.930 . S
H1555 C1552 0.930 . S
O1556 Li1496 1.956 . S
O1556 Li1497 1.970 . S
O1556 Li1498 1.961 . S
O1556 C1500 1.325 . S
O1557 Li1496 1.970 . S
O1557 Li1497 1.956 . S
O1557 Li1499 1.961 . S
O1557 C1506 1.325 . S
O1558 Li1496 1.961 . S
O1558 Li1498 1.956 . S
O1558 Li1499 1.970 . S
O1558 C1528 1.325 . S
O1559 Li1497 1.961 . S
O1559 Li1498 1.970 . S
O1559 Li1499 1.956 . S
O1559 C1534 1.325 . S
H1560 C1502 0.929 . S
H1561 C1503 0.930 . S
H1562 C1504 0.930 . S
H1563 C1505 0.930 . S
H1564 C1507 0.930 . S
H1565 C1509 0.929 . S
H1566 C1510 0.930 . S
H1567 C1511 0.930 . S
H1568 C1514 0.930 . S
H1569 C1517 0.929 . S
H1570 C1522 0.929 . S
H1571 C1523 0.930 . S
H1572 C1530 0.929 . S
H1573 C1531 0.930 . S
H1574 C1532 0.930 . S
H1575 C1533 0.930 . S
H1576 C1535 0.929 . S
H1577 C1536 0.930 . S
H1578 C1537 0.930 . S
H1579 C1538 0.930 . S
H1580 C1542 0.929 . S
H1581 C1544 0.930 . S
H1582 C1550 0.929 . S
H1583 C1551 0.930 . S
Li1584 N1601 1.990 . S
Li1584 O1644 1.956 . S
Li1584 O1645 1.970 . S
Li1584 O1646 1.961 . S
Li1585 N1609 1.990 . S
Li1585 O1644 1.970 . S
Li1585 O1645 1.956 . S
Li1585 O1647 1.961 . S
Li1586 N1631 1.990 . S
Li1586 O1644 1.961 . S
Li1586 O1646 1.956 . S
Li1586 O1647 1.970 . S
Li1587 N1637 1.990 . S
Li1587 O1645 1.961 . S
Li1587 O1646 1.970 . S
Li1587 O1647 1.956 . S
C1588 C1590 1.348 . S
C1588 C1591 1.356 . S
C1588 O1644 1.325 . S
N1589 C1592 1.314 . S
N1589 C1593 1.279 . S
C1590 C1588 1.348 . S
C1590 C1592 1.353 . S
C1590 H1648 0.929 . S
C1591 C1588 1.356 . S
C1591 C1593 1.358 . S
C1591 H1649 0.930 . S
C1592 N1589 1.314 . S
C1592 C1590 1.353 . S
C1592 H1650 0.930 . S
C1593 N1589 1.279 . S
C1593 C1591 1.358 . S
C1593 H1651 0.930 . S
C1594 C1597 1.348 . S
C1594 C1598 1.356 . S
C1594 O1645 1.325 . S
C1595 N1596 1.279 . S
C1595 C1598 1.358 . S
C1595 H1652 0.930 . S
N1596 C1595 1.279 . S
N1596 C1599 1.314 . S
C1597 C1594 1.348 . S
C1597 C1599 1.353 . S
C1597 H1653 0.929 . S
C1598 C1594 1.356 . S
C1598 C1595 1.358 . S
C1598 H1654 0.930 . S
C1599 N1596 1.314 . S
C1599 C1597 1.353 . S
C1599 H1655 0.930 . S
C1600 N1601 1.314 . S
C1600 C1605 1.353 . S
C1600 H1606 0.930 . S
N1601 Li1584 1.990 . S
N1601 C1600 1.314 . S
N1601 C1603 1.279 . S
C1602 C1603 1.358 . S
C1602 C1604 1.356 . S
C1602 H1656 0.930 . S
C1603 N1601 1.279 . S
C1603 C1602 1.358 . S
C1603 H1607 0.930 . S
C1604 C1602 1.356 . S
C1604 C1605 1.348 . S
C1605 C1600 1.353 . S
C1605 C1604 1.348 . S
C1605 H1657 0.929 . S
H1606 C1600 0.930 . S
H1607 C1603 0.930 . S
C1608 N1609 1.314 . S
C1608 C1610 1.353 . S
C1608 H1614 0.930 . S
N1609 Li1585 1.990 . S
N1609 C1608 1.314 . S
N1609 C1612 1.279 . S
C1610 C1608 1.353 . S
C1610 C1613 1.348 . S
C1610 H1658 0.929 . S
C1611 C1612 1.358 . S
C1611 C1613 1.356 . S
C1611 H1659 0.930 . S
C1612 N1609 1.279 . S
C1612 C1611 1.358 . S
C1612 H1615 0.930 . S
C1613 C1610 1.348 . S
C1613 C1611 1.356 . S
H1614 C1608 0.930 . S
H1615 C1612 0.930 . S
C1616 C1618 1.348 . S
C1616 C1619 1.356 . S
C1616 O1646 1.325 . S
N1617 C1620 1.314 . S
N1617 C1621 1.279 . S
C1618 C1616 1.348 . S
C1618 C1620 1.353 . S
C1618 H1660 0.929 . S
C1619 C1616 1.356 . S
C1619 C1621 1.358 . S
C1619 H1661 0.930 . S
C1620 N1617 1.314 . S
C1620 C1618 1.353 . S
C1620 H1662 0.930 . S
C1621 N1617 1.279 . S
C1621 C1619 1.358 . S
C1621 H1663 0.930 . S
C1622 C1623 1.348 . S
C1622 C1624 1.356 . S
C1622 O1647 1.325 . S
C1623 C1622 1.348 . S
C1623 C1625 1.353 . S
C1623 H1664 0.929 . S
C1624 C1622 1.356 . S
C1624 C1626 1.358 . S
C1624 H1665 0.930 . S
C1625 C1623 1.353 . S
C1625 N1627 1.314 . S
C1625 H1666 0.930 . S
C1626 C1624 1.358 . S
C1626 N1627 1.279 . S
C1626 H1667 0.930 . S
N1627 C1625 1.314 . S
N1627 C1626 1.279 . S
C1628 C1630 1.353 . S
C1628 N1631 1.314 . S
C1628 H1634 0.930 . S
C1629 N1631 1.279 . S
C1629 C1632 1.358 . S
C1629 H1635 0.930 . S
C1630 C1628 1.353 . S
C1630 C1633 1.348 . S
C1630 H1668 0.929 . S
N1631 Li1586 1.990 . S
N1631 C1628 1.314 . S
N1631 C1629 1.279 . S
C1632 C1629 1.358 . S
C1632 C1633 1.356 . S
C1632 H1669 0.930 . S
C1633 C1630 1.348 . S
C1633 C1632 1.356 . S
H1634 C1628 0.930 . S
H1635 C1629 0.930 . S
C1636 N1637 1.314 . S
C1636 C1638 1.353 . S
C1636 H1642 0.930 . S
N1637 Li1587 1.990 . S
N1637 C1636 1.314 . S
N1637 C1640 1.279 . S
C1638 C1636 1.353 . S
C1638 C1641 1.348 . S
C1638 H1670 0.929 . S
C1639 C1640 1.358 . S
C1639 C1641 1.356 . S
C1639 H1671 0.930 . S
C1640 N1637 1.279 . S
C1640 C1639 1.358 . S
C1640 H1643 0.930 . S
C1641 C1638 1.348 . S
C1641 C1639 1.356 . S
H1642 C1636 0.930 . S
H1643 C1640 0.930 . S
O1644 Li1584 1.956 . S
O1644 Li1585 1.970 . S
O1644 Li1586 1.961 . S
O1644 C1588 1.325 . S
O1645 Li1584 1.970 . S
O1645 Li1585 1.956 . S
O1645 Li1587 1.961 . S
O1645 C1594 1.325 . S
O1646 Li1584 1.961 . S
O1646 Li1586 1.956 . S
O1646 Li1587 1.970 . S
O1646 C1616 1.325 . S
O1647 Li1585 1.961 . S
O1647 Li1586 1.970 . S
O1647 Li1587 1.956 . S
O1647 C1622 1.325 . S
H1648 C1590 0.929 . S
H1649 C1591 0.930 . S
H1650 C1592 0.930 . S
H1651 C1593 0.930 . S
H1652 C1595 0.930 . S
H1653 C1597 0.929 . S
H1654 C1598 0.930 . S
H1655 C1599 0.930 . S
H1656 C1602 0.930 . S
H1657 C1605 0.929 . S
H1658 C1610 0.929 . S
H1659 C1611 0.930 . S
H1660 C1618 0.929 . S
H1661 C1619 0.930 . S
H1662 C1620 0.930 . S
H1663 C1621 0.930 . S
H1664 C1623 0.929 . S
H1665 C1624 0.930 . S
H1666 C1625 0.930 . S
H1667 C1626 0.930 . S
H1668 C1630 0.929 . S
H1669 C1632 0.930 . S
H1670 C1638 0.929 . S
H1671 C1639 0.930 . S
Li1672 N1689 1.990 . S
Li1672 O1732 1.956 . S
Li1672 O1733 1.970 . S
Li1672 O1734 1.961 . S
Li1673 N1697 1.990 . S
Li1673 O1732 1.970 . S
Li1673 O1733 1.956 . S
Li1673 O1735 1.961 . S
Li1674 N1719 1.990 . S
Li1674 O1732 1.961 . S
Li1674 O1734 1.956 . S
Li1674 O1735 1.970 . S
Li1675 N1725 1.990 . S
Li1675 O1733 1.961 . S
Li1675 O1734 1.970 . S
Li1675 O1735 1.956 . S
C1676 C1678 1.348 . S
C1676 C1679 1.356 . S
C1676 O1732 1.325 . S
N1677 C1680 1.314 . S
N1677 C1681 1.279 . S
C1678 C1676 1.348 . S
C1678 C1680 1.353 . S
C1678 H1736 0.929 . S
C1679 C1676 1.356 . S
C1679 C1681 1.358 . S
C1679 H1737 0.930 . S
C1680 N1677 1.314 . S
C1680 C1678 1.353 . S
C1680 H1738 0.930 . S
C1681 N1677 1.279 . S
C1681 C1679 1.358 . S
C1681 H1739 0.930 . S
C1682 C1685 1.348 . S
C1682 C1686 1.356 . S
C1682 O1733 1.325 . S
C1683 N1684 1.279 . S
C1683 C1686 1.358 . S
C1683 H1740 0.930 . S
N1684 C1683 1.279 . S
N1684 C1687 1.314 . S
C1685 C1682 1.348 . S
C1685 C1687 1.353 . S
C1685 H1741 0.929 . S
C1686 C1682 1.356 . S
C1686 C1683 1.358 . S
C1686 H1742 0.930 . S
C1687 N1684 1.314 . S
C1687 C1685 1.353 . S
C1687 H1743 0.930 . S
C1688 N1689 1.314 . S
C1688 C1693 1.353 . S
C1688 H1694 0.930 . S
N1689 Li1672 1.990 . S
N1689 C1688 1.314 . S
N1689 C1691 1.279 . S
C1690 C1691 1.358 . S
C1690 C1692 1.356 . S
C1690 H1744 0.930 . S
C1691 N1689 1.279 . S
C1691 C1690 1.358 . S
C1691 H1695 0.930 . S
C1692 C1690 1.356 . S
C1692 C1693 1.348 . S
C1693 C1688 1.353 . S
C1693 C1692 1.348 . S
C1693 H1745 0.929 . S
H1694 C1688 0.930 . S
H1695 C1691 0.930 . S
C1696 N1697 1.314 . S
C1696 C1698 1.353 . S
C1696 H1702 0.930 . S
N1697 Li1673 1.990 . S
N1697 C1696 1.314 . S
N1697 C1700 1.279 . S
C1698 C1696 1.353 . S
C1698 C1701 1.348 . S
C1698 H1746 0.929 . S
C1699 C1700 1.358 . S
C1699 C1701 1.356 . S
C1699 H1747 0.930 . S
C1700 N1697 1.279 . S
C1700 C1699 1.358 . S
C1700 H1703 0.930 . S
C1701 C1698 1.348 . S
C1701 C1699 1.356 . S
H1702 C1696 0.930 . S
H1703 C1700 0.930 . S
C1704 C1706 1.348 1_545 S
C1704 C1707 1.356 . S
C1704 O1734 1.325 . S
N1705 C1708 1.314 . S
N1705 C1709 1.279 . S
C1706 C1704 1.348 1_565 S
C1706 C1708 1.353 . S
C1706 H1748 0.929 . S
C1707 C1704 1.356 . S
C1707 C1709 1.358 1_545 S
C1707 H1749 0.930 . S
C1708 N1705 1.314 . S
C1708 C1706 1.353 . S
C1708 H1750 0.930 . S
C1709 N1705 1.279 . S
C1709 C1707 1.358 1_565 S
C1709 H1751 0.930 . S
C1710 C1711 1.348 . S
C1710 C1712 1.356 . S
C1710 O1735 1.325 . S
C1711 C1710 1.348 . S
C1711 C1713 1.353 . S
C1711 H1752 0.929 . S
C1712 C1710 1.356 . S
C1712 C1714 1.358 . S
C1712 H1753 0.930 . S
C1713 C1711 1.353 . S
C1713 N1715 1.314 . S
C1713 H1754 0.930 . S
C1714 C1712 1.358 . S
C1714 N1715 1.279 . S
C1714 H1755 0.930 . S
N1715 C1713 1.314 . S
N1715 C1714 1.279 . S
C1716 C1718 1.353 . S
C1716 N1719 1.314 . S
C1716 H1722 0.930 . S
C1717 N1719 1.279 . S
C1717 C1720 1.358 . S
C1717 H1723 0.930 . S
C1718 C1716 1.353 . S
C1718 C1721 1.348 . S
C1718 H1756 0.929 . S
N1719 Li1674 1.990 . S
N1719 C1716 1.314 . S
N1719 C1717 1.279 . S
C1720 C1717 1.358 . S
C1720 C1721 1.356 . S
C1720 H1757 0.930 . S
C1721 C1718 1.348 . S
C1721 C1720 1.356 . S
H1722 C1716 0.930 . S
H1723 C1717 0.930 . S
C1724 N1725 1.314 . S
C1724 C1726 1.353 1_545 S
C1724 H1730 0.930 . S
N1725 Li1675 1.990 . S
N1725 C1724 1.314 . S
N1725 C1728 1.279 . S
C1726 C1724 1.353 1_565 S
C1726 C1729 1.348 . S
C1726 H1758 0.929 . S
C1727 C1728 1.358 1_565 S
C1727 C1729 1.356 . S
C1727 H1759 0.930 . S
C1728 N1725 1.279 . S
C1728 C1727 1.358 1_545 S
C1728 H1731 0.930 . S
C1729 C1726 1.348 . S
C1729 C1727 1.356 . S
H1730 C1724 0.930 . S
H1731 C1728 0.930 . S
O1732 Li1672 1.956 . S
O1732 Li1673 1.970 . S
O1732 Li1674 1.961 . S
O1732 C1676 1.325 . S
O1733 Li1672 1.970 . S
O1733 Li1673 1.956 . S
O1733 Li1675 1.961 . S
O1733 C1682 1.325 . S
O1734 Li1672 1.961 . S
O1734 Li1674 1.956 . S
O1734 Li1675 1.970 . S
O1734 C1704 1.325 . S
O1735 Li1673 1.961 . S
O1735 Li1674 1.970 . S
O1735 Li1675 1.956 . S
O1735 C1710 1.325 . S
H1736 C1678 0.929 . S
H1737 C1679 0.930 . S
H1738 C1680 0.930 . S
H1739 C1681 0.930 . S
H1740 C1683 0.930 . S
H1741 C1685 0.929 . S
H1742 C1686 0.930 . S
H1743 C1687 0.930 . S
H1744 C1690 0.930 . S
H1745 C1693 0.929 . S
H1746 C1698 0.929 . S
H1747 C1699 0.930 . S
H1748 C1706 0.929 . S
H1749 C1707 0.930 . S
H1750 C1708 0.930 . S
H1751 C1709 0.930 . S
H1752 C1711 0.929 . S
H1753 C1712 0.930 . S
H1754 C1713 0.930 . S
H1755 C1714 0.930 . S
H1756 C1718 0.929 . S
H1757 C1720 0.930 . S
H1758 C1726 0.929 . S
H1759 C1727 0.930 . S
Li1760 N1777 1.990 . S
Li1760 O1820 1.956 . S
Li1760 O1821 1.970 . S
Li1760 O1822 1.961 . S
Li1761 N1785 1.990 . S
Li1761 O1820 1.970 . S
Li1761 O1821 1.956 . S
Li1761 O1823 1.961 1_554 S
Li1762 N1807 1.990 . S
Li1762 O1820 1.961 1_556 S
Li1762 O1822 1.956 1_556 S
Li1762 O1823 1.970 . S
Li1763 N1813 1.992 1_554 S
Li1763 O1821 1.961 . S
Li1763 O1822 1.970 . S
Li1763 O1823 1.956 1_554 S
C1764 C1766 1.348 . S
C1764 C1767 1.356 . S
C1764 O1820 1.325 . S
N1765 C1768 1.314 . S
N1765 C1769 1.279 . S
C1766 C1764 1.348 . S
C1766 C1768 1.353 . S
C1766 H1824 0.929 . S
C1767 C1764 1.356 . S
C1767 C1769 1.358 . S
C1767 H1825 0.930 . S
C1768 N1765 1.314 . S
C1768 C1766 1.353 . S
C1768 H1826 0.930 . S
C1769 N1765 1.279 . S
C1769 C1767 1.358 . S
C1769 H1827 0.930 . S
C1770 C1773 1.348 . S
C1770 C1774 1.356 . S
C1770 O1821 1.325 . S
C1771 N1772 1.279 . S
C1771 C1774 1.358 . S
C1771 H1828 0.930 . S
N1772 C1771 1.279 . S
N1772 C1775 1.314 . S
C1773 C1770 1.348 . S
C1773 C1775 1.353 . S
C1773 H1829 0.929 . S
C1774 C1770 1.356 . S
C1774 C1771 1.358 . S
C1774 H1830 0.930 . S
C1775 N1772 1.314 . S
C1775 C1773 1.353 . S
C1775 H1831 0.930 . S
C1776 N1777 1.314 . S
C1776 C1781 1.353 . S
C1776 H1782 0.930 . S
N1777 Li1760 1.990 . S
N1777 C1776 1.314 . S
N1777 C1779 1.279 . S
C1778 C1779 1.358 . S
C1778 C1780 1.356 . S
C1778 H1832 0.930 . S
C1779 N1777 1.279 . S
C1779 C1778 1.358 . S
C1779 H1783 0.930 . S
C1780 C1778 1.356 . S
C1780 C1781 1.348 . S
C1781 C1776 1.353 . S
C1781 C1780 1.348 . S
C1781 H1833 0.929 . S
H1782 C1776 0.930 . S
H1783 C1779 0.930 . S
C1784 N1785 1.314 1_556 S
C1784 C1786 1.353 . S
C1784 H1790 0.930 . S
N1785 Li1761 1.990 . S
N1785 C1784 1.314 1_554 S
N1785 C1788 1.279 . S
C1786 C1784 1.353 . S
C1786 C1789 1.348 1_556 S
C1786 H1834 0.929 . S
C1787 C1788 1.358 . S
C1787 C1789 1.356 . S
C1787 H1835 0.930 . S
C1788 N1785 1.279 . S
C1788 C1787 1.358 . S
C1788 H1791 0.930 . S
C1789 C1786 1.348 1_554 S
C1789 C1787 1.356 . S
H1790 C1784 0.930 . S
H1791 C1788 0.930 . S
C1792 C1794 1.348 . S
C1792 C1795 1.356 . S
C1792 O1822 1.325 . S
N1793 C1796 1.314 . S
N1793 C1797 1.279 . S
C1794 C1792 1.348 . S
C1794 C1796 1.353 . S
C1794 H1836 0.929 1_554 S
C1795 C1792 1.356 . S
C1795 C1797 1.358 . S
C1795 H1837 0.930 . S
C1796 N1793 1.314 . S
C1796 C1794 1.353 . S
C1796 H1838 0.930 1_554 S
C1797 N1793 1.279 . S
C1797 C1795 1.358 . S
C1797 H1839 0.930 . S
C1798 C1799 1.348 . S
C1798 C1800 1.356 . S
C1798 O1823 1.325 . S
C1799 C1798 1.348 . S
C1799 C1801 1.353 . S
C1799 H1840 0.929 . S
C1800 C1798 1.356 . S
C1800 C1802 1.358 . S
C1800 H1841 0.930 . S
C1801 C1799 1.353 . S
C1801 N1803 1.314 . S
C1801 H1842 0.930 . S
C1802 C1800 1.358 . S
C1802 N1803 1.279 . S
C1802 H1843 0.930 . S
N1803 C1801 1.314 . S
N1803 C1802 1.279 . S
C1804 C1806 1.353 . S
C1804 N1807 1.314 . S
C1804 H1810 0.930 . S
C1805 N1807 1.279 . S
C1805 C1808 1.358 . S
C1805 H1811 0.930 . S
C1806 C1804 1.353 . S
C1806 C1809 1.348 . S
C1806 H1844 0.929 . S
N1807 Li1762 1.990 . S
N1807 C1804 1.314 . S
N1807 C1805 1.279 . S
C1808 C1805 1.358 . S
C1808 C1809 1.356 . S
C1808 H1845 0.930 . S
C1809 C1806 1.348 . S
C1809 C1808 1.356 . S
H1810 C1804 0.930 . S
H1811 C1805 0.930 . S
C1812 N1813 1.290 1_554 S
C1812 C1814 1.353 . S
C1812 H1818 0.930 . S
N1813 Li1763 1.992 1_556 S
N1813 C1812 1.290 1_556 S
N1813 C1816 1.301 . S
C1814 C1812 1.353 . S
C1814 C1817 1.348 1_554 S
C1814 H1846 0.929 . S
C1815 C1816 1.358 . S
C1815 C1817 1.356 . S
C1815 H1847 0.930 . S
C1816 N1813 1.301 . S
C1816 C1815 1.358 . S
C1816 H1819 0.930 . S
C1817 C1814 1.348 1_556 S
C1817 C1815 1.356 . S
H1818 C1812 0.930 . S
H1819 C1816 0.930 . S
O1820 Li1760 1.956 . S
O1820 Li1761 1.970 . S
O1820 Li1762 1.961 1_554 S
O1820 C1764 1.325 . S
O1821 Li1760 1.970 . S
O1821 Li1761 1.956 . S
O1821 Li1763 1.961 . S
O1821 C1770 1.325 . S
O1822 Li1760 1.961 . S
O1822 Li1762 1.956 1_554 S
O1822 Li1763 1.970 . S
O1822 C1792 1.325 . S
O1823 Li1761 1.961 1_556 S
O1823 Li1762 1.970 . S
O1823 Li1763 1.956 1_556 S
O1823 C1798 1.325 . S
H1824 C1766 0.929 . S
H1825 C1767 0.930 . S
H1826 C1768 0.930 . S
H1827 C1769 0.930 . S
H1828 C1771 0.930 . S
H1829 C1773 0.929 . S
H1830 C1774 0.930 . S
H1831 C1775 0.930 . S
H1832 C1778 0.930 . S
H1833 C1781 0.929 . S
H1834 C1786 0.929 . S
H1835 C1787 0.930 . S
H1836 C1794 0.929 1_556 S
H1837 C1795 0.930 . S
H1838 C1796 0.930 1_556 S
H1839 C1797 0.930 . S
H1840 C1799 0.929 . S
H1841 C1800 0.930 . S
H1842 C1801 0.930 . S
H1843 C1802 0.930 . S
H1844 C1806 0.929 . S
H1845 C1808 0.930 . S
H1846 C1814 0.929 . S
H1847 C1815 0.930 . S
Li1848 N1865 1.990 . S
Li1848 O1908 1.956 . S
Li1848 O1909 1.970 . S
Li1848 O1910 1.961 . S
Li1849 N1873 1.990 . S
Li1849 O1908 1.970 . S
Li1849 O1909 1.956 . S
Li1849 O1911 1.961 . S
Li1850 N1895 1.990 . S
Li1850 O1908 1.961 . S
Li1850 O1910 1.956 . S
Li1850 O1911 1.970 . S
Li1851 N1901 1.990 . S
Li1851 O1909 1.961 . S
Li1851 O1910 1.970 . S
Li1851 O1911 1.956 . S
C1852 C1854 1.348 . S
C1852 C1855 1.356 . S
C1852 O1908 1.325 . S
N1853 C1856 1.314 . S
N1853 C1857 1.279 . S
C1854 C1852 1.348 . S
C1854 C1856 1.353 . S
C1854 H1912 0.929 . S
C1855 C1852 1.356 . S
C1855 C1857 1.358 . S
C1855 H1913 0.930 . S
C1856 N1853 1.314 . S
C1856 C1854 1.353 . S
C1856 H1914 0.930 . S
C1857 N1853 1.279 . S
C1857 C1855 1.358 . S
C1857 H1915 0.930 . S
C1858 C1861 1.348 . S
C1858 C1862 1.356 . S
C1858 O1909 1.325 . S
C1859 N1860 1.279 . S
C1859 C1862 1.358 . S
C1859 H1916 0.930 . S
N1860 C1859 1.279 . S
N1860 C1863 1.314 . S
C1861 C1858 1.348 . S
C1861 C1863 1.353 . S
C1861 H1917 0.929 . S
C1862 C1858 1.356 . S
C1862 C1859 1.358 . S
C1862 H1918 0.930 . S
C1863 N1860 1.314 . S
C1863 C1861 1.353 . S
C1863 H1919 0.930 . S
C1864 N1865 1.314 . S
C1864 C1869 1.353 . S
C1864 H1870 0.930 . S
N1865 Li1848 1.990 . S
N1865 C1864 1.314 . S
N1865 C1867 1.279 . S
C1866 C1867 1.358 . S
C1866 C1868 1.356 . S
C1866 H1920 0.930 . S
C1867 N1865 1.279 . S
C1867 C1866 1.358 . S
C1867 H1871 0.930 . S
C1868 C1866 1.356 . S
C1868 C1869 1.348 . S
C1869 C1864 1.353 . S
C1869 C1868 1.348 . S
C1869 H1921 0.929 . S
H1870 C1864 0.930 . S
H1871 C1867 0.930 . S
C1872 N1873 1.314 . S
C1872 C1874 1.353 . S
C1872 H1878 0.930 . S
N1873 Li1849 1.990 . S
N1873 C1872 1.314 . S
N1873 C1876 1.279 . S
C1874 C1872 1.353 . S
C1874 C1877 1.348 . S
C1874 H1922 0.929 . S
C1875 C1876 1.358 . S
C1875 C1877 1.356 . S
C1875 H1923 0.930 . S
C1876 N1873 1.279 . S
C1876 C1875 1.358 . S
C1876 H1879 0.930 . S
C1877 C1874 1.348 . S
C1877 C1875 1.356 . S
H1878 C1872 0.930 . S
H1879 C1876 0.930 . S
C1880 C1882 1.348 . S
C1880 C1883 1.356 . S
C1880 O1910 1.325 . S
N1881 C1884 1.314 . S
N1881 C1885 1.279 . S
C1882 C1880 1.348 . S
C1882 C1884 1.353 . S
C1882 H1924 0.929 . S
C1883 C1880 1.356 . S
C1883 C1885 1.358 . S
C1883 H1925 0.930 . S
C1884 N1881 1.314 . S
C1884 C1882 1.353 . S
C1884 H1926 0.930 . S
C1885 N1881 1.279 . S
C1885 C1883 1.358 . S
C1885 H1927 0.930 . S
C1886 C1887 1.348 . S
C1886 C1888 1.356 . S
C1886 O1911 1.325 . S
C1887 C1886 1.348 . S
C1887 C1889 1.353 . S
C1887 H1928 0.929 . S
C1888 C1886 1.356 . S
C1888 C1890 1.358 . S
C1888 H1929 0.930 . S
C1889 C1887 1.353 . S
C1889 N1891 1.314 . S
C1889 H1930 0.930 . S
C1890 C1888 1.358 . S
C1890 N1891 1.279 . S
C1890 H1931 0.930 1_655 S
N1891 C1889 1.314 . S
N1891 C1890 1.279 . S
C1892 C1894 1.353 . S
C1892 N1895 1.314 . S
C1892 H1898 0.930 . S
C1893 N1895 1.279 . S
C1893 C1896 1.358 . S
C1893 H1899 0.930 . S
C1894 C1892 1.353 . S
C1894 C1897 1.348 . S
C1894 H1932 0.929 . S
N1895 Li1850 1.990 . S
N1895 C1892 1.314 . S
N1895 C1893 1.279 . S
C1896 C1893 1.358 . S
C1896 C1897 1.356 . S
C1896 H1933 0.930 . S
C1897 C1894 1.348 . S
C1897 C1896 1.356 . S
H1898 C1892 0.930 . S
H1899 C1893 0.930 . S
C1900 N1901 1.314 . S
C1900 C1902 1.353 . S
C1900 H1906 0.930 . S
N1901 Li1851 1.990 . S
N1901 C1900 1.314 . S
N1901 C1904 1.279 . S
C1902 C1900 1.353 . S
C1902 C1905 1.348 . S
C1902 H1934 0.929 . S
C1903 C1904 1.358 . S
C1903 C1905 1.356 . S
C1903 H1935 0.930 . S
C1904 N1901 1.279 . S
C1904 C1903 1.358 . S
C1904 H1907 0.930 . S
C1905 C1902 1.348 . S
C1905 C1903 1.356 . S
H1906 C1900 0.930 . S
H1907 C1904 0.930 . S
O1908 Li1848 1.956 . S
O1908 Li1849 1.970 . S
O1908 Li1850 1.961 . S
O1908 C1852 1.325 . S
O1909 Li1848 1.970 . S
O1909 Li1849 1.956 . S
O1909 Li1851 1.961 . S
O1909 C1858 1.325 . S
O1910 Li1848 1.961 . S
O1910 Li1850 1.956 . S
O1910 Li1851 1.970 . S
O1910 C1880 1.325 . S
O1911 Li1849 1.961 . S
O1911 Li1850 1.970 . S
O1911 Li1851 1.956 . S
O1911 C1886 1.325 . S
H1912 C1854 0.929 . S
H1913 C1855 0.930 . S
H1914 C1856 0.930 . S
H1915 C1857 0.930 . S
H1916 C1859 0.930 . S
H1917 C1861 0.929 . S
H1918 C1862 0.930 . S
H1919 C1863 0.930 . S
H1920 C1866 0.930 . S
H1921 C1869 0.929 . S
H1922 C1874 0.929 . S
H1923 C1875 0.930 . S
H1924 C1882 0.929 . S
H1925 C1883 0.930 . S
H1926 C1884 0.930 . S
H1927 C1885 0.930 . S
H1928 C1887 0.929 . S
H1929 C1888 0.930 . S
H1930 C1889 0.930 . S
H1931 C1890 0.930 1_455 S
H1932 C1894 0.929 . S
H1933 C1896 0.930 . S
H1934 C1902 0.929 . S
H1935 C1903 0.930 . S
Li1936 N1953 1.990 . S
Li1936 O1996 1.956 . S
Li1936 O1997 1.970 . S
Li1936 O1998 1.961 . S
Li1937 N1961 1.990 . S
Li1937 O1996 1.970 . S
Li1937 O1997 1.956 . S
Li1937 O1999 1.961 . S
Li1938 N1983 1.990 . S
Li1938 O1996 1.961 . S
Li1938 O1998 1.956 . S
Li1938 O1999 1.970 . S
Li1939 N1989 1.990 . S
Li1939 O1997 1.961 . S
Li1939 O1998 1.970 . S
Li1939 O1999 1.956 . S
C1940 C1942 1.348 . S
C1940 C1943 1.356 . S
C1940 O1996 1.325 . S
N1941 C1944 1.314 . S
N1941 C1945 1.279 . S
C1942 C1940 1.348 . S
C1942 C1944 1.353 . S
C1942 H2000 0.929 . S
C1943 C1940 1.356 . S
C1943 C1945 1.358 . S
C1943 H2001 0.930 . S
C1944 N1941 1.314 . S
C1944 C1942 1.353 . S
C1944 H2002 0.930 . S
C1945 N1941 1.279 . S
C1945 C1943 1.358 . S
C1945 H2003 0.930 . S
C1946 C1949 1.348 . S
C1946 C1950 1.356 . S
C1946 O1997 1.325 . S
C1947 N1948 1.279 . S
C1947 C1950 1.358 . S
C1947 H2004 0.930 . S
N1948 C1947 1.279 . S
N1948 C1951 1.314 . S
C1949 C1946 1.348 . S
C1949 C1951 1.353 . S
C1949 H2005 0.929 . S
C1950 C1946 1.356 . S
C1950 C1947 1.358 . S
C1950 H2006 0.930 . S
C1951 N1948 1.314 . S
C1951 C1949 1.353 . S
C1951 H2007 0.930 . S
C1952 N1953 1.314 . S
C1952 C1957 1.353 . S
C1952 H1958 0.930 . S
N1953 Li1936 1.990 . S
N1953 C1952 1.314 . S
N1953 C1955 1.279 . S
C1954 C1955 1.358 . S
C1954 C1956 1.356 . S
C1954 H2008 0.930 . S
C1955 N1953 1.279 . S
C1955 C1954 1.358 . S
C1955 H1959 0.930 . S
C1956 C1954 1.356 . S
C1956 C1957 1.348 . S
C1957 C1952 1.353 . S
C1957 C1956 1.348 . S
C1957 H2009 0.929 . S
H1958 C1952 0.930 . S
H1959 C1955 0.930 . S
C1960 N1961 1.314 . S
C1960 C1962 1.353 . S
C1960 H1966 0.930 . S
N1961 Li1937 1.990 . S
N1961 C1960 1.314 . S
N1961 C1964 1.279 . S
C1962 C1960 1.353 . S
C1962 C1965 1.348 . S
C1962 H2010 0.929 . S
C1963 C1964 1.358 . S
C1963 C1965 1.356 . S
C1963 H2011 0.930 . S
C1964 N1961 1.279 . S
C1964 C1963 1.358 . S
C1964 H1967 0.930 . S
C1965 C1962 1.348 . S
C1965 C1963 1.356 . S
H1966 C1960 0.930 . S
H1967 C1964 0.930 . S
C1968 C1970 1.348 . S
C1968 C1971 1.356 . S
C1968 O1998 1.325 . S
N1969 C1972 1.314 . S
N1969 C1973 1.279 . S
C1970 C1968 1.348 . S
C1970 C1972 1.353 . S
C1970 H2012 0.929 . S
C1971 C1968 1.356 . S
C1971 C1973 1.358 . S
C1971 H2013 0.930 . S
C1972 N1969 1.314 . S
C1972 C1970 1.353 . S
C1972 H2014 0.930 . S
C1973 N1969 1.279 . S
C1973 C1971 1.358 . S
C1973 H2015 0.930 . S
C1974 C1975 1.348 . S
C1974 C1976 1.356 . S
C1974 O1999 1.325 . S
C1975 C1974 1.348 . S
C1975 C1977 1.353 . S
C1975 H2016 0.929 . S
C1976 C1974 1.356 . S
C1976 C1978 1.358 . S
C1976 H2017 0.930 . S
C1977 C1975 1.353 . S
C1977 N1979 1.314 . S
C1977 H2018 0.930 . S
C1978 C1976 1.358 . S
C1978 N1979 1.279 . S
C1978 H2019 0.930 . S
N1979 C1977 1.314 . S
N1979 C1978 1.279 . S
C1980 C1982 1.353 . S
C1980 N1983 1.314 . S
C1980 H1986 0.930 . S
C1981 N1983 1.279 . S
C1981 C1984 1.358 . S
C1981 H1987 0.930 . S
C1982 C1980 1.353 . S
C1982 C1985 1.348 . S
C1982 H2020 0.929 . S
N1983 Li1938 1.990 . S
N1983 C1980 1.314 . S
N1983 C1981 1.279 . S
C1984 C1981 1.358 . S
C1984 C1985 1.356 . S
C1984 H2021 0.930 . S
C1985 C1982 1.348 . S
C1985 C1984 1.356 . S
H1986 C1980 0.930 . S
H1987 C1981 0.930 . S
C1988 N1989 1.314 . S
C1988 C1990 1.353 . S
C1988 H1994 0.930 . S
N1989 Li1939 1.990 . S
N1989 C1988 1.314 . S
N1989 C1992 1.279 . S
C1990 C1988 1.353 . S
C1990 C1993 1.348 . S
C1990 H2022 0.929 . S
C1991 C1992 1.358 . S
C1991 C1993 1.356 . S
C1991 H2023 0.930 . S
C1992 N1989 1.279 . S
C1992 C1991 1.358 . S
C1992 H1995 0.930 . S
C1993 C1990 1.348 . S
C1993 C1991 1.356 . S
H1994 C1988 0.930 . S
H1995 C1992 0.930 . S
O1996 Li1936 1.956 . S
O1996 Li1937 1.970 . S
O1996 Li1938 1.961 . S
O1996 C1940 1.325 . S
O1997 Li1936 1.970 . S
O1997 Li1937 1.956 . S
O1997 Li1939 1.961 . S
O1997 C1946 1.325 . S
O1998 Li1936 1.961 . S
O1998 Li1938 1.956 . S
O1998 Li1939 1.970 . S
O1998 C1968 1.325 . S
O1999 Li1937 1.961 . S
O1999 Li1938 1.970 . S
O1999 Li1939 1.956 . S
O1999 C1974 1.325 . S
H2000 C1942 0.929 . S
H2001 C1943 0.930 . S
H2002 C1944 0.930 . S
H2003 C1945 0.930 . S
H2004 C1947 0.930 . S
H2005 C1949 0.929 . S
H2006 C1950 0.930 . S
H2007 C1951 0.930 . S
H2008 C1954 0.930 . S
H2009 C1957 0.929 . S
H2010 C1962 0.929 . S
H2011 C1963 0.930 . S
H2012 C1970 0.929 . S
H2013 C1971 0.930 . S
H2014 C1972 0.930 . S
H2015 C1973 0.930 . S
H2016 C1975 0.929 . S
H2017 C1976 0.930 . S
H2018 C1977 0.930 . S
H2019 C1978 0.930 . S
H2020 C1982 0.929 . S
H2021 C1984 0.930 . S
H2022 C1990 0.929 . S
H2023 C1991 0.930 . S
Li2024 N2041 1.990 . S
Li2024 O2084 1.956 . S
Li2024 O2085 1.970 . S
Li2024 O2086 1.961 . S
Li2025 N2049 1.990 . S
Li2025 O2084 1.970 . S
Li2025 O2085 1.956 . S
Li2025 O2087 1.961 . S
Li2026 N2071 1.990 . S
Li2026 O2084 1.961 . S
Li2026 O2086 1.956 . S
Li2026 O2087 1.970 . S
Li2027 N2077 1.990 . S
Li2027 O2085 1.961 . S
Li2027 O2086 1.970 . S
Li2027 O2087 1.956 . S
C2028 C2030 1.348 . S
C2028 C2031 1.356 . S
C2028 O2084 1.325 . S
N2029 C2032 1.314 . S
N2029 C2033 1.279 . S
C2030 C2028 1.348 . S
C2030 C2032 1.353 . S
C2030 H2088 0.929 . S
C2031 C2028 1.356 . S
C2031 C2033 1.358 . S
C2031 H2089 0.930 . S
C2032 N2029 1.314 . S
C2032 C2030 1.353 . S
C2032 H2090 0.930 . S
C2033 N2029 1.279 . S
C2033 C2031 1.358 . S
C2033 H2091 0.930 . S
C2034 C2037 1.348 . S
C2034 C2038 1.356 . S
C2034 O2085 1.325 . S
C2035 N2036 1.279 . S
C2035 C2038 1.358 . S
C2035 H2092 0.930 . S
N2036 C2035 1.279 . S
N2036 C2039 1.314 . S
C2037 C2034 1.348 . S
C2037 C2039 1.353 . S
C2037 H2093 0.929 . S
C2038 C2034 1.356 . S
C2038 C2035 1.358 . S
C2038 H2094 0.930 . S
C2039 N2036 1.314 . S
C2039 C2037 1.353 . S
C2039 H2095 0.930 . S
C2040 N2041 1.314 . S
C2040 C2045 1.353 . S
C2040 H2046 0.930 . S
N2041 Li2024 1.990 . S
N2041 C2040 1.314 . S
N2041 C2043 1.279 . S
C2042 C2043 1.358 . S
C2042 C2044 1.356 . S
C2042 H2096 0.930 . S
C2043 N2041 1.279 . S
C2043 C2042 1.358 . S
C2043 H2047 0.930 . S
C2044 C2042 1.356 . S
C2044 C2045 1.348 . S
C2045 C2040 1.353 . S
C2045 C2044 1.348 . S
C2045 H2097 0.929 . S
H2046 C2040 0.930 . S
H2047 C2043 0.930 . S
C2048 N2049 1.314 . S
C2048 C2050 1.353 . S
C2048 H2054 0.930 . S
N2049 Li2025 1.990 . S
N2049 C2048 1.314 . S
N2049 C2052 1.279 . S
C2050 C2048 1.353 . S
C2050 C2053 1.348 . S
C2050 H2098 0.929 . S
C2051 C2052 1.358 . S
C2051 C2053 1.356 . S
C2051 H2099 0.930 . S
C2052 N2049 1.279 . S
C2052 C2051 1.358 . S
C2052 H2055 0.930 . S
C2053 C2050 1.348 . S
C2053 C2051 1.356 . S
H2054 C2048 0.930 . S
H2055 C2052 0.930 . S
C2056 C2058 1.348 . S
C2056 C2059 1.356 . S
C2056 O2086 1.325 . S
N2057 C2060 1.314 . S
N2057 C2061 1.279 . S
C2058 C2056 1.348 . S
C2058 C2060 1.353 . S
C2058 H2100 0.929 . S
C2059 C2056 1.356 . S
C2059 C2061 1.358 . S
C2059 H2101 0.930 . S
C2060 N2057 1.314 . S
C2060 C2058 1.353 . S
C2060 H2102 0.930 . S
C2061 N2057 1.279 . S
C2061 C2059 1.358 . S
C2061 H2103 0.930 . S
C2062 C2063 1.348 . S
C2062 C2064 1.356 . S
C2062 O2087 1.325 . S
C2063 C2062 1.348 . S
C2063 C2065 1.353 . S
C2063 H2104 0.929 . S
C2064 C2062 1.356 . S
C2064 C2066 1.358 . S
C2064 H2105 0.930 . S
C2065 C2063 1.353 . S
C2065 N2067 1.314 . S
C2065 H2106 0.930 . S
C2066 C2064 1.358 . S
C2066 N2067 1.279 . S
C2066 H2107 0.930 . S
N2067 C2065 1.314 . S
N2067 C2066 1.279 . S
C2068 C2070 1.353 . S
C2068 N2071 1.314 . S
C2068 H2074 0.930 . S
C2069 N2071 1.279 . S
C2069 C2072 1.358 . S
C2069 H2075 0.930 . S
C2070 C2068 1.353 . S
C2070 C2073 1.348 . S
C2070 H2108 0.929 . S
N2071 Li2026 1.990 . S
N2071 C2068 1.314 . S
N2071 C2069 1.279 . S
C2072 C2069 1.358 . S
C2072 C2073 1.356 . S
C2072 H2109 0.930 . S
C2073 C2070 1.348 . S
C2073 C2072 1.356 . S
H2074 C2068 0.930 . S
H2075 C2069 0.930 . S
C2076 N2077 1.314 . S
C2076 C2078 1.353 . S
C2076 H2082 0.930 . S
N2077 Li2027 1.990 . S
N2077 C2076 1.314 . S
N2077 C2080 1.279 . S
C2078 C2076 1.353 . S
C2078 C2081 1.348 . S
C2078 H2110 0.929 . S
C2079 C2080 1.358 . S
C2079 C2081 1.356 . S
C2079 H2111 0.930 . S
C2080 N2077 1.279 . S
C2080 C2079 1.358 . S
C2080 H2083 0.930 . S
C2081 C2078 1.348 . S
C2081 C2079 1.356 . S
H2082 C2076 0.930 . S
H2083 C2080 0.930 . S
O2084 Li2024 1.956 . S
O2084 Li2025 1.970 . S
O2084 Li2026 1.961 . S
O2084 C2028 1.325 . S
O2085 Li2024 1.970 . S
O2085 Li2025 1.956 . S
O2085 Li2027 1.961 . S
O2085 C2034 1.325 . S
O2086 Li2024 1.961 . S
O2086 Li2026 1.956 . S
O2086 Li2027 1.970 . S
O2086 C2056 1.325 . S
O2087 Li2025 1.961 . S
O2087 Li2026 1.970 . S
O2087 Li2027 1.956 . S
O2087 C2062 1.325 . S
H2088 C2030 0.929 . S
H2089 C2031 0.930 . S
H2090 C2032 0.930 . S
H2091 C2033 0.930 . S
H2092 C2035 0.930 . S
H2093 C2037 0.929 . S
H2094 C2038 0.930 . S
H2095 C2039 0.930 . S
H2096 C2042 0.930 . S
H2097 C2045 0.929 . S
H2098 C2050 0.929 . S
H2099 C2051 0.930 . S
H2100 C2058 0.929 . S
H2101 C2059 0.930 . S
H2102 C2060 0.930 . S
H2103 C2061 0.930 . S
H2104 C2063 0.929 . S
H2105 C2064 0.930 . S
H2106 C2065 0.930 . S
H2107 C2066 0.930 . S
H2108 C2070 0.929 . S
H2109 C2072 0.930 . S
H2110 C2078 0.929 . S
H2111 C2079 0.930 . S
Eu2112 C2121 2.828 . S
Eu2112 O2123 2.392 . S
Eu2112 O2125 2.418 . S
Eu2112 O2130 2.373 . S
Eu2112 O2133 2.488 . S
Eu2112 O2134 2.471 1_554 S
Eu2112 O2135 2.349 1_554 S
Eu2113 O2122 2.375 1_565 S
Eu2113 O2126 2.510 1_554 S
Eu2113 O2127 2.488 . S
Eu2113 O2128 2.336 1_565 S
Eu2113 O2131 2.375 1_564 S
Eu2113 O2132 2.415 1_564 S
Eu2113 C2142 2.849 . S
C2114 O2132 1.246 . S
C2114 O2135 1.265 . S
C2115 C2116 1.379 1_554 S
C2115 C2119 1.373 . S
C2115 C2121 1.505 . S
C2116 C2115 1.379 1_556 S
C2116 C2118 1.369 . S
C2116 H2144 0.930 . S
C2117 C2119 1.383 . S
C2117 C2120 1.382 1_554 S
C2117 H2145 0.930 . S
C2118 C2116 1.369 . S
C2118 C2120 1.392 . S
C2118 H2146 0.930 . S
C2119 C2115 1.373 . S
C2119 C2117 1.383 . S
C2119 H2147 0.931 . S
C2120 C2117 1.382 1_556 S
C2120 C2118 1.392 . S
C2121 Eu2112 2.828 . S
C2121 C2115 1.505 . S
C2121 O2133 1.249 . S
C2121 O2134 1.244 1_554 S
O2122 Eu2113 2.375 1_545 S
O2122 C2124 1.258 . S
O2123 Eu2112 2.392 . S
O2123 C2124 1.242 . S
C2124 O2122 1.258 . S
C2124 O2123 1.242 . S
O2125 Eu2112 2.418 . S
O2125 C2129 1.244 . S
O2126 Eu2113 2.510 1_556 S
O2126 C2142 1.249 1_556 S
O2127 Eu2113 2.488 . S
O2127 C2142 1.244 . S
O2128 Eu2113 2.336 1_545 S
O2128 C2129 1.265 . S
C2129 O2125 1.244 . S
C2129 O2128 1.265 . S
O2130 Eu2112 2.373 . S
O2130 C2143 1.258 . S
O2131 Eu2113 2.375 1_546 S
O2131 C2143 1.242 1_556 S
O2132 Eu2113 2.415 1_546 S
O2132 C2114 1.246 . S
O2133 Eu2112 2.488 . S
O2133 C2121 1.249 . S
O2134 Eu2112 2.471 1_556 S
O2134 C2121 1.244 1_556 S
O2135 Eu2112 2.349 1_556 S
O2135 C2114 1.265 . S
C2136 C2137 1.379 . S
C2136 C2140 1.373 . S
C2136 C2142 1.505 . S
C2137 C2136 1.379 . S
C2137 C2139 1.369 . S
C2137 H2148 0.930 . S
C2138 C2140 1.383 . S
C2138 C2141 1.382 . S
C2138 H2149 0.930 . S
C2139 C2137 1.369 . S
C2139 C2141 1.392 . S
C2139 H2150 0.930 . S
C2140 C2136 1.373 . S
C2140 C2138 1.383 . S
C2140 H2151 0.931 1_554 S
C2141 C2138 1.382 . S
C2141 C2139 1.392 . S
C2142 Eu2113 2.849 . S
C2142 O2126 1.249 1_554 S
C2142 O2127 1.244 . S
C2142 C2136 1.505 . S
C2143 O2130 1.258 . S
C2143 O2131 1.242 1_554 S
H2144 C2116 0.930 . S
H2145 C2117 0.930 . S
H2146 C2118 0.930 . S
H2147 C2119 0.931 . S
H2148 C2137 0.930 . S
H2149 C2138 0.930 . S
H2150 C2139 0.930 . S
H2151 C2140 0.931 1_556 S
Eu2152 C2161 2.828 . S
Eu2152 O2163 2.392 . S
Eu2152 O2165 2.418 . S
Eu2152 O2170 2.373 . S
Eu2152 O2173 2.488 . S
Eu2152 O2174 2.471 . S
Eu2152 O2175 2.349 . S
Eu2153 O2162 2.373 . S
Eu2153 O2166 2.488 . S
Eu2153 O2167 2.471 . S
Eu2153 O2168 2.349 . S
Eu2153 O2171 2.392 . S
Eu2153 O2172 2.418 . S
Eu2153 C2182 2.828 . S
C2154 O2172 1.244 . S
C2154 O2175 1.265 . S
C2155 C2156 1.379 . S
C2155 C2159 1.373 . S
C2155 C2161 1.505 . S
C2156 C2155 1.379 . S
C2156 C2158 1.369 . S
C2156 H2184 0.930 . S
C2157 C2159 1.383 . S
C2157 C2160 1.382 . S
C2157 H2185 0.930 . S
C2158 C2156 1.369 . S
C2158 C2160 1.392 . S
C2158 H2186 0.930 . S
C2159 C2155 1.373 . S
C2159 C2157 1.383 . S
C2159 H2187 0.931 . S
C2160 C2157 1.382 . S
C2160 C2158 1.392 . S
C2161 Eu2152 2.828 . S
C2161 C2155 1.505 . S
C2161 O2173 1.249 . S
C2161 O2174 1.244 . S
O2162 Eu2153 2.373 . S
O2162 C2164 1.258 . S
O2163 Eu2152 2.392 . S
O2163 C2164 1.242 . S
C2164 O2162 1.258 . S
C2164 O2163 1.242 . S
O2165 Eu2152 2.418 . S
O2165 C2169 1.244 . S
O2166 Eu2153 2.488 . S
O2166 C2182 1.249 . S
O2167 Eu2153 2.471 . S
O2167 C2182 1.244 . S
O2168 Eu2153 2.349 . S
O2168 C2169 1.265 . S
C2169 O2165 1.244 . S
C2169 O2168 1.265 . S
O2170 Eu2152 2.373 . S
O2170 C2183 1.258 . S
O2171 Eu2153 2.392 . S
O2171 C2183 1.242 . S
O2172 Eu2153 2.418 . S
O2172 C2154 1.244 . S
O2173 Eu2152 2.488 . S
O2173 C2161 1.249 . S
O2174 Eu2152 2.471 . S
O2174 C2161 1.244 . S
O2175 Eu2152 2.349 . S
O2175 C2154 1.265 . S
C2176 C2177 1.379 . S
C2176 C2180 1.373 . S
C2176 C2182 1.505 . S
C2177 C2176 1.379 . S
C2177 C2179 1.369 . S
C2177 H2188 0.930 . S
C2178 C2180 1.383 . S
C2178 C2181 1.382 . S
C2178 H2189 0.930 . S
C2179 C2177 1.369 . S
C2179 C2181 1.392 . S
C2179 H2190 0.930 . S
C2180 C2176 1.373 . S
C2180 C2178 1.383 . S
C2180 H2191 0.931 . S
C2181 C2178 1.382 . S
C2181 C2179 1.392 . S
C2182 Eu2153 2.828 . S
C2182 O2166 1.249 . S
C2182 O2167 1.244 . S
C2182 C2176 1.505 . S
C2183 O2170 1.258 . S
C2183 O2171 1.242 . S
H2184 C2156 0.930 . S
H2185 C2157 0.930 . S
H2186 C2158 0.930 . S
H2187 C2159 0.931 . S
H2188 C2177 0.930 . S
H2189 C2178 0.930 . S
H2190 C2179 0.930 . S
H2191 C2180 0.931 . S
Eu2192 C2201 2.828 . S
Eu2192 O2203 2.392 . S
Eu2192 O2205 2.418 . S
Eu2192 O2210 2.373 1_545 S
Eu2192 O2213 2.488 . S
Eu2192 O2214 2.471 . S
Eu2192 O2215 2.349 . S
Eu2193 O2202 2.373 . S
Eu2193 O2206 2.488 . S
Eu2193 O2207 2.471 . S
Eu2193 O2208 2.349 . S
Eu2193 O2211 2.392 1_545 S
Eu2193 O2212 2.418 . S
Eu2193 C2222 2.828 . S
C2194 O2212 1.244 . S
C2194 O2215 1.265 . S
C2195 C2196 1.379 . S
C2195 C2199 1.373 . S
C2195 C2201 1.505 1_565 S
C2196 C2195 1.379 . S
C2196 C2198 1.369 . S
C2196 H2224 0.930 . S
C2197 C2199 1.383 . S
C2197 C2200 1.382 . S
C2197 H2225 0.930 . S
C2198 C2196 1.369 . S
C2198 C2200 1.392 . S
C2198 H2226 0.930 . S
C2199 C2195 1.373 . S
C2199 C2197 1.383 . S
C2199 H2227 0.931 1_565 S
C2200 C2197 1.382 . S
C2200 C2198 1.392 . S
C2201 Eu2192 2.828 . S
C2201 C2195 1.505 1_545 S
C2201 O2213 1.249 . S
C2201 O2214 1.244 . S
O2202 Eu2193 2.373 . S
O2202 C2204 1.258 . S
O2203 Eu2192 2.392 . S
O2203 C2204 1.242 . S
C2204 O2202 1.258 . S
C2204 O2203 1.242 . S
O2205 Eu2192 2.418 . S
O2205 C2209 1.244 . S
O2206 Eu2193 2.488 . S
O2206 C2222 1.249 . S
O2207 Eu2193 2.471 . S
O2207 C2222 1.244 . S
O2208 Eu2193 2.349 . S
O2208 C2209 1.265 . S
C2209 O2205 1.244 . S
C2209 O2208 1.265 . S
O2210 Eu2192 2.373 1_565 S
O2210 C2223 1.258 . S
O2211 Eu2193 2.392 1_565 S
O2211 C2223 1.242 . S
O2212 Eu2193 2.418 . S
O2212 C2194 1.244 . S
O2213 Eu2192 2.488 . S
O2213 C2201 1.249 . S
O2214 Eu2192 2.471 . S
O2214 C2201 1.244 . S
O2215 Eu2192 2.349 . S
O2215 C2194 1.265 . S
C2216 C2217 1.379 . S
C2216 C2220 1.373 . S
C2216 C2222 1.505 . S
C2217 C2216 1.379 . S
C2217 C2219 1.369 . S
C2217 H2228 0.930 . S
C2218 C2220 1.383 . S
C2218 C2221 1.382 . S
C2218 H2229 0.930 . S
C2219 C2217 1.369 . S
C2219 C2221 1.392 . S
C2219 H2230 0.930 . S
C2220 C2216 1.373 . S
C2220 C2218 1.383 . S
C2220 H2231 0.931 . S
C2221 C2218 1.382 . S
C2221 C2219 1.392 . S
C2222 Eu2193 2.828 . S
C2222 O2206 1.249 . S
C2222 O2207 1.244 . S
C2222 C2216 1.505 . S
C2223 O2210 1.258 . S
C2223 O2211 1.242 . S
H2224 C2196 0.930 . S
H2225 C2197 0.930 . S
H2226 C2198 0.930 . S
H2227 C2199 0.931 1_545 S
H2228 C2217 0.930 . S
H2229 C2218 0.930 . S
H2230 C2219 0.930 . S
H2231 C2220 0.931 . S
Eu2232 C2241 2.828 . S
Eu2232 O2243 2.392 . S
Eu2232 O2245 2.418 . S
Eu2232 O2250 2.373 . S
Eu2232 O2253 2.488 . S
Eu2232 O2254 2.471 . S
Eu2232 O2255 2.349 . S
Eu2233 O2242 2.373 . S
Eu2233 O2246 2.488 . S
Eu2233 O2247 2.471 . S
Eu2233 O2248 2.349 . S
Eu2233 O2251 2.392 . S
Eu2233 O2252 2.418 . S
Eu2233 C2262 2.828 . S
C2234 O2252 1.244 . S
C2234 O2255 1.265 . S
C2235 C2236 1.379 . S
C2235 C2239 1.373 . S
C2235 C2241 1.505 . S
C2236 C2235 1.379 . S
C2236 C2238 1.369 . S
C2236 H2264 0.930 . S
C2237 C2239 1.383 . S
C2237 C2240 1.382 . S
C2237 H2265 0.930 . S
C2238 C2236 1.369 . S
C2238 C2240 1.392 . S
C2238 H2266 0.930 . S
C2239 C2235 1.373 . S
C2239 C2237 1.383 . S
C2239 H2267 0.931 . S
C2240 C2237 1.382 . S
C2240 C2238 1.392 . S
C2241 Eu2232 2.828 . S
C2241 C2235 1.505 . S
C2241 O2253 1.249 . S
C2241 O2254 1.244 . S
O2242 Eu2233 2.373 . S
O2242 C2244 1.258 . S
O2243 Eu2232 2.392 . S
O2243 C2244 1.242 . S
C2244 O2242 1.258 . S
C2244 O2243 1.242 . S
O2245 Eu2232 2.418 . S
O2245 C2249 1.244 . S
O2246 Eu2233 2.488 . S
O2246 C2262 1.249 . S
O2247 Eu2233 2.471 . S
O2247 C2262 1.244 . S
O2248 Eu2233 2.349 . S
O2248 C2249 1.265 . S
C2249 O2245 1.244 . S
C2249 O2248 1.265 . S
O2250 Eu2232 2.373 . S
O2250 C2263 1.258 . S
O2251 Eu2233 2.392 . S
O2251 C2263 1.242 . S
O2252 Eu2233 2.418 . S
O2252 C2234 1.244 . S
O2253 Eu2232 2.488 . S
O2253 C2241 1.249 . S
O2254 Eu2232 2.471 . S
O2254 C2241 1.244 . S
O2255 Eu2232 2.349 . S
O2255 C2234 1.265 . S
C2256 C2257 1.379 . S
C2256 C2260 1.373 . S
C2256 C2262 1.505 . S
C2257 C2256 1.379 . S
C2257 C2259 1.369 . S
C2257 H2268 0.930 . S
C2258 C2260 1.383 . S
C2258 C2261 1.382 . S
C2258 H2269 0.930 . S
C2259 C2257 1.369 . S
C2259 C2261 1.392 . S
C2259 H2270 0.930 . S
C2260 C2256 1.373 . S
C2260 C2258 1.383 . S
C2260 H2271 0.931 . S
C2261 C2258 1.382 . S
C2261 C2259 1.392 . S
C2262 Eu2233 2.828 . S
C2262 O2246 1.249 . S
C2262 O2247 1.244 . S
C2262 C2256 1.505 . S
C2263 O2250 1.258 . S
C2263 O2251 1.242 . S
H2264 C2236 0.930 . S
H2265 C2237 0.930 . S
H2266 C2238 0.930 . S
H2267 C2239 0.931 . S
H2268 C2257 0.930 . S
H2269 C2258 0.930 . S
H2270 C2259 0.930 . S
H2271 C2260 0.931 . S
Eu2272 C2281 2.828 . S
Eu2272 O2283 2.392 . S
Eu2272 O2285 2.418 . S
Eu2272 O2290 2.373 . S
Eu2272 O2293 2.488 . S
Eu2272 O2294 2.471 . S
Eu2272 O2295 2.349 . S
Eu2273 O2282 2.373 . S
Eu2273 O2286 2.488 1_545 S
Eu2273 O2287 2.471 1_545 S
Eu2273 O2288 2.349 . S
Eu2273 O2291 2.392 . S
Eu2273 O2292 2.418 . S
Eu2273 C2302 2.828 1_545 S
C2274 O2292 1.244 . S
C2274 O2295 1.265 . S
C2275 C2276 1.379 . S
C2275 C2279 1.373 . S
C2275 C2281 1.505 . S
C2276 C2275 1.379 . S
C2276 C2278 1.369 . S
C2276 H2304 0.930 . S
C2277 C2279 1.383 . S
C2277 C2280 1.382 . S
C2277 H2305 0.930 1_455 S
C2278 C2276 1.369 . S
C2278 C2280 1.392 . S
C2278 H2306 0.930 . S
C2279 C2275 1.373 . S
C2279 C2277 1.383 . S
C2279 H2307 0.931 . S
C2280 C2277 1.382 . S
C2280 C2278 1.392 . S
C2281 Eu2272 2.828 . S
C2281 C2275 1.505 . S
C2281 O2293 1.249 . S
C2281 O2294 1.244 . S
O2282 Eu2273 2.373 . S
O2282 C2284 1.258 . S
O2283 Eu2272 2.392 . S
O2283 C2284 1.242 . S
C2284 O2282 1.258 . S
C2284 O2283 1.242 . S
O2285 Eu2272 2.418 . S
O2285 C2289 1.244 . S
O2286 Eu2273 2.488 1_565 S
O2286 C2302 1.249 . S
O2287 Eu2273 2.471 1_565 S
O2287 C2302 1.244 . S
O2288 Eu2273 2.349 . S
O2288 C2289 1.265 . S
C2289 O2285 1.244 . S
C2289 O2288 1.265 . S
O2290 Eu2272 2.373 . S
O2290 C2303 1.258 . S
O2291 Eu2273 2.392 . S
O2291 C2303 1.242 . S
O2292 Eu2273 2.418 . S
O2292 C2274 1.244 . S
O2293 Eu2272 2.488 . S
O2293 C2281 1.249 . S
O2294 Eu2272 2.471 . S
O2294 C2281 1.244 . S
O2295 Eu2272 2.349 . S
O2295 C2274 1.265 . S
C2296 C2297 1.379 . S
C2296 C2300 1.373 . S
C2296 C2302 1.505 . S
C2297 C2296 1.379 . S
C2297 C2299 1.369 . S
C2297 H2308 0.930 . S
C2298 C2300 1.383 . S
C2298 C2301 1.382 . S
C2298 H2309 0.930 . S
C2299 C2297 1.369 . S
C2299 C2301 1.392 . S
C2299 H2310 0.930 . S
C2300 C2296 1.373 . S
C2300 C2298 1.383 . S
C2300 H2311 0.931 . S
C2301 C2298 1.382 . S
C2301 C2299 1.392 . S
C2302 Eu2273 2.828 1_565 S
C2302 O2286 1.249 . S
C2302 O2287 1.244 . S
C2302 C2296 1.505 . S
C2303 O2290 1.258 . S
C2303 O2291 1.242 . S
H2304 C2276 0.930 . S
H2305 C2277 0.930 1_655 S
H2306 C2278 0.930 . S
H2307 C2279 0.931 . S
H2308 C2297 0.930 . S
H2309 C2298 0.930 . S
H2310 C2299 0.930 . S
H2311 C2300 0.931 . S
Eu2312 C2321 2.828 . S
Eu2312 O2323 2.392 . S
Eu2312 O2325 2.418 . S
Eu2312 O2330 2.373 . S
Eu2312 O2333 2.488 . S
Eu2312 O2334 2.471 . S
Eu2312 O2335 2.349 . S
Eu2313 O2322 2.373 . S
Eu2313 O2326 2.488 . S
Eu2313 O2327 2.471 . S
Eu2313 O2328 2.349 . S
Eu2313 O2331 2.392 . S
Eu2313 O2332 2.418 . S
Eu2313 C2342 2.828 . S
C2314 O2332 1.244 . S
C2314 O2335 1.265 . S
C2315 C2316 1.379 . S
C2315 C2319 1.373 . S
C2315 C2321 1.505 . S
C2316 C2315 1.379 . S
C2316 C2318 1.369 . S
C2316 H2344 0.930 . S
C2317 C2319 1.383 . S
C2317 C2320 1.382 . S
C2317 H2345 0.930 . S
C2318 C2316 1.369 . S
C2318 C2320 1.392 . S
C2318 H2346 0.930 . S
C2319 C2315 1.373 . S
C2319 C2317 1.383 . S
C2319 H2347 0.931 . S
C2320 C2317 1.382 . S
C2320 C2318 1.392 . S
C2321 Eu2312 2.828 . S
C2321 C2315 1.505 . S
C2321 O2333 1.249 . S
C2321 O2334 1.244 . S
O2322 Eu2313 2.373 . S
O2322 C2324 1.258 . S
O2323 Eu2312 2.392 . S
O2323 C2324 1.242 . S
C2324 O2322 1.258 . S
C2324 O2323 1.242 . S
O2325 Eu2312 2.418 . S
O2325 C2329 1.244 . S
O2326 Eu2313 2.488 . S
O2326 C2342 1.249 . S
O2327 Eu2313 2.471 . S
O2327 C2342 1.244 . S
O2328 Eu2313 2.349 . S
O2328 C2329 1.265 . S
C2329 O2325 1.244 . S
C2329 O2328 1.265 . S
O2330 Eu2312 2.373 . S
O2330 C2343 1.258 . S
O2331 Eu2313 2.392 . S
O2331 C2343 1.242 . S
O2332 Eu2313 2.418 . S
O2332 C2314 1.244 . S
O2333 Eu2312 2.488 . S
O2333 C2321 1.249 . S
O2334 Eu2312 2.471 . S
O2334 C2321 1.244 . S
O2335 Eu2312 2.349 . S
O2335 C2314 1.265 . S
C2336 C2337 1.379 . S
C2336 C2340 1.373 . S
C2336 C2342 1.505 . S
C2337 C2336 1.379 . S
C2337 C2339 1.369 . S
C2337 H2348 0.930 . S
C2338 C2340 1.383 . S
C2338 C2341 1.382 . S
C2338 H2349 0.930 . S
C2339 C2337 1.369 . S
C2339 C2341 1.392 . S
C2339 H2350 0.930 . S
C2340 C2336 1.373 . S
C2340 C2338 1.383 . S
C2340 H2351 0.931 . S
C2341 C2338 1.382 . S
C2341 C2339 1.392 . S
C2342 Eu2313 2.828 . S
C2342 O2326 1.249 . S
C2342 O2327 1.244 . S
C2342 C2336 1.505 . S
C2343 O2330 1.258 . S
C2343 O2331 1.242 . S
H2344 C2316 0.930 . S
H2345 C2317 0.930 . S
H2346 C2318 0.930 . S
H2347 C2319 0.931 . S
H2348 C2337 0.930 . S
H2349 C2338 0.930 . S
H2350 C2339 0.930 . S
H2351 C2340 0.931 . S
Eu2352 C2361 2.828 . S
Eu2352 O2363 2.392 . S
Eu2352 O2365 2.418 1_545 S
Eu2352 O2370 2.373 . S
Eu2352 O2373 2.488 1_545 S
Eu2352 O2374 2.471 . S
Eu2352 O2375 2.349 . S
Eu2353 O2362 2.373 . S
Eu2353 O2366 2.488 . S
Eu2353 O2367 2.471 . S
Eu2353 O2368 2.349 . S
Eu2353 O2371 2.392 . S
Eu2353 O2372 2.418 1_556 S
Eu2353 C2382 2.828 . S
C2354 O2372 1.244 . S
C2354 O2375 1.265 . S
C2355 C2356 1.379 . S
C2355 C2359 1.373 1_545 S
C2355 C2361 1.505 . S
C2356 C2355 1.379 . S
C2356 C2358 1.369 . S
C2356 H2384 0.930 . S
C2357 C2359 1.383 . S
C2357 C2360 1.386 . S
C2357 H2385 0.930 . S
C2358 C2356 1.369 . S
C2358 C2360 1.388 1_545 S
C2358 H2386 0.930 . S
C2359 C2355 1.373 1_565 S
C2359 C2357 1.383 . S
C2359 H2387 0.931 . S
C2360 C2357 1.386 . S
C2360 C2358 1.388 1_565 S
C2361 Eu2352 2.828 . S
C2361 C2355 1.505 . S
C2361 O2373 1.249 1_545 S
C2361 O2374 1.244 . S
O2362 Eu2353 2.373 . S
O2362 C2364 1.258 1_556 S
O2363 Eu2352 2.392 . S
O2363 C2364 1.242 . S
C2364 O2362 1.258 1_554 S
C2364 O2363 1.242 . S
O2365 Eu2352 2.418 1_565 S
O2365 C2369 1.227 1_554 S
O2366 Eu2353 2.488 . S
O2366 C2382 1.249 . S
O2367 Eu2353 2.471 . S
O2367 C2382 1.244 . S
O2368 Eu2353 2.349 . S
O2368 C2369 1.271 1_545 S
C2369 O2365 1.227 1_556 S
C2369 O2368 1.271 1_565 S
O2370 Eu2352 2.373 . S
O2370 C2383 1.258 . S
O2371 Eu2353 2.392 . S
O2371 C2383 1.242 1_556 S
O2372 Eu2353 2.418 1_554 S
O2372 C2354 1.244 . S
O2373 Eu2352 2.488 1_565 S
O2373 C2361 1.249 1_565 S
O2374 Eu2352 2.471 . S
O2374 C2361 1.244 . S
O2375 Eu2352 2.349 . S
O2375 C2354 1.265 . S
C2376 C2377 1.379 . S
C2376 C2380 1.373 . S
C2376 C2382 1.505 . S
C2377 C2376 1.379 . S
C2377 C2379 1.369 . S
C2377 H2388 0.930 . S
C2378 C2380 1.383 . S
C2378 C2381 1.382 . S
C2378 H2389 0.930 . S
C2379 C2377 1.369 . S
C2379 C2381 1.392 . S
C2379 H2390 0.930 . S
C2380 C2376 1.373 . S
C2380 C2378 1.383 . S
C2380 H2391 0.931 . S
C2381 C2378 1.382 . S
C2381 C2379 1.392 . S
C2382 Eu2353 2.828 . S
C2382 O2366 1.249 . S
C2382 O2367 1.244 . S
C2382 C2376 1.505 . S
C2383 O2370 1.258 . S
C2383 O2371 1.242 1_554 S
H2384 C2356 0.930 . S
H2385 C2357 0.930 . S
H2386 C2358 0.930 . S
H2387 C2359 0.931 . S
H2388 C2377 0.930 . S
H2389 C2378 0.930 . S
H2390 C2379 0.930 . S
H2391 C2380 0.931 . S
Eu2392 C2401 2.828 . S
Eu2392 O2403 2.392 . S
Eu2392 O2405 2.418 . S
Eu2392 O2410 2.373 . S
Eu2392 O2413 2.488 . S
Eu2392 O2414 2.471 . S
Eu2392 O2415 2.349 . S
Eu2393 O2402 2.373 . S
Eu2393 O2406 2.488 . S
Eu2393 O2407 2.471 . S
Eu2393 O2408 2.349 . S
Eu2393 O2411 2.392 . S
Eu2393 O2412 2.418 . S
Eu2393 C2422 2.828 . S
C2394 O2412 1.244 . S
C2394 O2415 1.265 . S
C2395 C2396 1.379 . S
C2395 C2399 1.373 . S
C2395 C2401 1.505 . S
C2396 C2395 1.379 . S
C2396 C2398 1.369 . S
C2396 H2424 0.930 . S
C2397 C2399 1.383 . S
C2397 C2400 1.382 . S
C2397 H2425 0.930 . S
C2398 C2396 1.369 . S
C2398 C2400 1.392 . S
C2398 H2426 0.930 . S
C2399 C2395 1.373 . S
C2399 C2397 1.383 . S
C2399 H2427 0.931 . S
C2400 C2397 1.382 . S
C2400 C2398 1.392 . S
C2401 Eu2392 2.828 . S
C2401 C2395 1.505 . S
C2401 O2413 1.249 . S
C2401 O2414 1.244 . S
O2402 Eu2393 2.373 . S
O2402 C2404 1.258 . S
O2403 Eu2392 2.392 . S
O2403 C2404 1.242 . S
C2404 O2402 1.258 . S
C2404 O2403 1.242 . S
O2405 Eu2392 2.418 . S
O2405 C2409 1.244 . S
O2406 Eu2393 2.488 . S
O2406 C2422 1.249 . S
O2407 Eu2393 2.471 . S
O2407 C2422 1.244 . S
O2408 Eu2393 2.349 . S
O2408 C2409 1.265 . S
C2409 O2405 1.244 . S
C2409 O2408 1.265 . S
O2410 Eu2392 2.373 . S
O2410 C2423 1.258 . S
O2411 Eu2393 2.392 . S
O2411 C2423 1.242 . S
O2412 Eu2393 2.418 . S
O2412 C2394 1.244 . S
O2413 Eu2392 2.488 . S
O2413 C2401 1.249 . S
O2414 Eu2392 2.471 . S
O2414 C2401 1.244 . S
O2415 Eu2392 2.349 . S
O2415 C2394 1.265 . S
C2416 C2417 1.379 . S
C2416 C2420 1.373 . S
C2416 C2422 1.505 . S
C2417 C2416 1.379 . S
C2417 C2419 1.369 . S
C2417 H2428 0.930 . S
C2418 C2420 1.383 . S
C2418 C2421 1.382 . S
C2418 H2429 0.930 . S
C2419 C2417 1.369 . S
C2419 C2421 1.392 . S
C2419 H2430 0.930 . S
C2420 C2416 1.373 . S
C2420 C2418 1.383 . S
C2420 H2431 0.931 . S
C2421 C2418 1.382 . S
C2421 C2419 1.392 . S
C2422 Eu2393 2.828 . S
C2422 O2406 1.249 . S
C2422 O2407 1.244 . S
C2422 C2416 1.505 . S
C2423 O2410 1.258 . S
C2423 O2411 1.242 . S
H2424 C2396 0.930 . S
H2425 C2397 0.930 . S
H2426 C2398 0.930 . S
H2427 C2399 0.931 . S
H2428 C2417 0.930 . S
H2429 C2418 0.930 . S
H2430 C2419 0.930 . S
H2431 C2420 0.931 . S
Eu2432 C2441 2.828 . S
Eu2432 O2443 2.392 . S
Eu2432 O2445 2.418 . S
Eu2432 O2450 2.373 1_554 S
Eu2432 O2453 2.488 . S
Eu2432 O2454 2.471 . S
Eu2432 O2455 2.349 . S
Eu2433 O2442 2.411 . S
Eu2433 O2446 2.503 . S
Eu2433 O2447 2.496 . S
Eu2433 O2448 2.363 . S
Eu2433 O2451 2.359 1_554 S
Eu2433 O2452 2.414 . S
Eu2433 C2462 2.851 . S
C2434 O2452 1.244 . S
C2434 O2455 1.265 . S
C2435 C2436 1.379 . S
C2435 C2439 1.373 . S
C2435 C2441 1.505 1_556 S
C2436 C2435 1.379 . S
C2436 C2438 1.369 . S
C2436 H2464 0.930 . S
C2437 C2439 1.383 . S
C2437 C2440 1.382 . S
C2437 H2465 0.930 . S
C2438 C2436 1.369 . S
C2438 C2440 1.392 . S
C2438 H2466 0.930 . S
C2439 C2435 1.373 . S
C2439 C2437 1.383 . S
C2439 H2467 0.931 1_556 S
C2440 C2437 1.382 . S
C2440 C2438 1.392 . S
C2441 Eu2432 2.828 . S
C2441 C2435 1.505 1_554 S
C2441 O2453 1.249 . S
C2441 O2454 1.244 . S
O2442 Eu2433 2.411 . S
O2442 C2444 1.258 . S
O2443 Eu2432 2.392 . S
O2443 C2444 1.242 . S
C2444 O2442 1.258 . S
C2444 O2443 1.242 . S
O2445 Eu2432 2.418 . S
O2445 C2449 1.244 . S
O2446 Eu2433 2.503 . S
O2446 C2462 1.249 . S
O2447 Eu2433 2.496 . S
O2447 C2462 1.244 . S
O2448 Eu2433 2.363 . S
O2448 C2449 1.265 . S
C2449 O2445 1.244 . S
C2449 O2448 1.265 . S
O2450 Eu2432 2.373 1_556 S
O2450 C2463 1.258 . S
O2451 Eu2433 2.359 1_556 S
O2451 C2463 1.242 . S
O2452 Eu2433 2.414 . S
O2452 C2434 1.244 . S
O2453 Eu2432 2.488 . S
O2453 C2441 1.249 . S
O2454 Eu2432 2.471 . S
O2454 C2441 1.244 . S
O2455 Eu2432 2.349 . S
O2455 C2434 1.265 . S
C2456 C2457 1.379 . S
C2456 C2460 1.373 . S
C2456 C2462 1.505 . S
C2457 C2456 1.379 . S
C2457 C2459 1.369 . S
C2457 H2468 0.930 . S
C2458 C2460 1.383 . S
C2458 C2461 1.382 . S
C2458 H2469 0.930 . S
C2459 C2457 1.369 . S
C2459 C2461 1.392 . S
C2459 H2470 0.930 . S
C2460 C2456 1.373 . S
C2460 C2458 1.383 . S
C2460 H2471 0.931 . S
C2461 C2458 1.382 . S
C2461 C2459 1.392 . S
C2462 Eu2433 2.851 . S
C2462 O2446 1.249 . S
C2462 O2447 1.244 . S
C2462 C2456 1.505 . S
C2463 O2450 1.258 . S
C2463 O2451 1.242 . S
H2464 C2436 0.930 . S
H2465 C2437 0.930 . S
H2466 C2438 0.930 . S
H2467 C2439 0.931 1_554 S
H2468 C2457 0.930 . S
H2469 C2458 0.930 . S
H2470 C2459 0.930 . S
H2471 C2460 0.931 . S
Eu2472 C2481 2.828 . S
Eu2472 O2483 2.392 . S
Eu2472 O2485 2.418 . S
Eu2472 O2490 2.373 . S
Eu2472 O2493 2.488 . S
Eu2472 O2494 2.471 . S
Eu2472 O2495 2.349 . S
Eu2473 O2482 2.373 . S
Eu2473 O2486 2.488 . S
Eu2473 O2487 2.471 . S
Eu2473 O2488 2.349 . S
Eu2473 O2491 2.392 . S
Eu2473 O2492 2.418 . S
Eu2473 C2502 2.828 . S
C2474 O2492 1.244 . S
C2474 O2495 1.265 . S
C2475 C2476 1.379 . S
C2475 C2479 1.373 . S
C2475 C2481 1.505 . S
C2476 C2475 1.379 . S
C2476 C2478 1.369 . S
C2476 H2504 0.930 . S
C2477 C2479 1.383 . S
C2477 C2480 1.382 . S
C2477 H2505 0.930 . S
C2478 C2476 1.369 . S
C2478 C2480 1.392 . S
C2478 H2506 0.930 . S
C2479 C2475 1.373 . S
C2479 C2477 1.383 . S
C2479 H2507 0.931 . S
C2480 C2477 1.382 . S
C2480 C2478 1.392 . S
C2481 Eu2472 2.828 . S
C2481 C2475 1.505 . S
C2481 O2493 1.249 . S
C2481 O2494 1.244 . S
O2482 Eu2473 2.373 . S
O2482 C2484 1.258 . S
O2483 Eu2472 2.392 . S
O2483 C2484 1.242 . S
C2484 O2482 1.258 . S
C2484 O2483 1.242 . S
O2485 Eu2472 2.418 . S
O2485 C2489 1.244 . S
O2486 Eu2473 2.488 . S
O2486 C2502 1.249 . S
O2487 Eu2473 2.471 . S
O2487 C2502 1.244 . S
O2488 Eu2473 2.349 . S
O2488 C2489 1.265 . S
C2489 O2485 1.244 . S
C2489 O2488 1.265 . S
O2490 Eu2472 2.373 . S
O2490 C2503 1.258 . S
O2491 Eu2473 2.392 . S
O2491 C2503 1.242 . S
O2492 Eu2473 2.418 . S
O2492 C2474 1.244 . S
O2493 Eu2472 2.488 . S
O2493 C2481 1.249 . S
O2494 Eu2472 2.471 . S
O2494 C2481 1.244 . S
O2495 Eu2472 2.349 . S
O2495 C2474 1.265 . S
C2496 C2497 1.379 . S
C2496 C2500 1.373 . S
C2496 C2502 1.505 . S
C2497 C2496 1.379 . S
C2497 C2499 1.369 . S
C2497 H2508 0.930 . S
C2498 C2500 1.383 . S
C2498 C2501 1.382 . S
C2498 H2509 0.930 . S
C2499 C2497 1.369 . S
C2499 C2501 1.392 . S
C2499 H2510 0.930 . S
C2500 C2496 1.373 . S
C2500 C2498 1.383 . S
C2500 H2511 0.931 . S
C2501 C2498 1.382 . S
C2501 C2499 1.392 . S
C2502 Eu2473 2.828 . S
C2502 O2486 1.249 . S
C2502 O2487 1.244 . S
C2502 C2496 1.505 . S
C2503 O2490 1.258 . S
C2503 O2491 1.242 . S
H2504 C2476 0.930 . S
H2505 C2477 0.930 . S
H2506 C2478 0.930 . S
H2507 C2479 0.931 . S
H2508 C2497 0.930 . S
H2509 C2498 0.930 . S
H2510 C2499 0.930 . S
H2511 C2500 0.931 . S
Eu2512 C2521 2.828 . S
Eu2512 O2523 2.392 . S
Eu2512 O2525 2.418 . S
Eu2512 O2530 2.373 . S
Eu2512 O2533 2.488 . S
Eu2512 O2534 2.471 . S
Eu2512 O2535 2.349 . S
Eu2513 O2522 2.373 . S
Eu2513 O2526 2.488 . S
Eu2513 O2527 2.471 . S
Eu2513 O2528 2.349 . S
Eu2513 O2531 2.392 . S
Eu2513 O2532 2.418 . S
Eu2513 C2542 2.828 . S
C2514 O2532 1.244 . S
C2514 O2535 1.265 . S
C2515 C2516 1.379 1_455 S
C2515 C2519 1.373 . S
C2515 C2521 1.505 . S
C2516 C2515 1.379 1_655 S
C2516 C2518 1.369 . S
C2516 H2544 0.930 . S
C2517 C2519 1.383 . S
C2517 C2520 1.382 1_455 S
C2517 H2545 0.923 . S
C2518 C2516 1.369 . S
C2518 C2520 1.392 . S
C2518 H2546 0.930 . S
C2519 C2515 1.373 . S
C2519 C2517 1.383 . S
C2519 H2547 0.931 . S
C2520 C2517 1.382 1_655 S
C2520 C2518 1.392 . S
C2521 Eu2512 2.828 . S
C2521 C2515 1.505 . S
C2521 O2533 1.249 . S
C2521 O2534 1.244 . S
O2522 Eu2513 2.373 . S
O2522 C2524 1.258 . S
O2523 Eu2512 2.392 . S
O2523 C2524 1.242 . S
C2524 O2522 1.258 . S
C2524 O2523 1.242 . S
O2525 Eu2512 2.418 . S
O2525 C2529 1.244 . S
O2526 Eu2513 2.488 . S
O2526 C2542 1.249 . S
O2527 Eu2513 2.471 . S
O2527 C2542 1.244 . S
O2528 Eu2513 2.349 . S
O2528 C2529 1.265 . S
C2529 O2525 1.244 . S
C2529 O2528 1.265 . S
O2530 Eu2512 2.373 . S
O2530 C2543 1.258 . S
O2531 Eu2513 2.392 . S
O2531 C2543 1.242 . S
O2532 Eu2513 2.418 . S
O2532 C2514 1.244 . S
O2533 Eu2512 2.488 . S
O2533 C2521 1.249 . S
O2534 Eu2512 2.471 . S
O2534 C2521 1.244 . S
O2535 Eu2512 2.349 . S
O2535 C2514 1.265 . S
C2536 C2537 1.379 . S
C2536 C2540 1.373 . S
C2536 C2542 1.505 . S
C2537 C2536 1.379 . S
C2537 C2539 1.369 . S
C2537 H2548 0.930 . S
C2538 C2540 1.383 . S
C2538 C2541 1.382 . S
C2538 H2549 0.930 . S
C2539 C2537 1.369 . S
C2539 C2541 1.392 . S
C2539 H2550 0.930 . S
C2540 C2536 1.373 . S
C2540 C2538 1.383 . S
C2540 H2551 0.931 . S
C2541 C2538 1.382 . S
C2541 C2539 1.392 . S
C2542 Eu2513 2.828 . S
C2542 O2526 1.249 . S
C2542 O2527 1.244 . S
C2542 C2536 1.505 . S
C2543 O2530 1.258 . S
C2543 O2531 1.242 . S
H2544 C2516 0.930 . S
H2545 C2517 0.923 . S
H2546 C2518 0.930 . S
H2547 C2519 0.931 . S
H2548 C2537 0.930 . S
H2549 C2538 0.930 . S
H2550 C2539 0.930 . S
H2551 C2540 0.931 . S
Eu2552 C2561 2.828 . S
Eu2552 O2563 2.392 . S
Eu2552 O2565 2.418 . S
Eu2552 O2570 2.373 . S
Eu2552 O2573 2.488 . S
Eu2552 O2574 2.471 . S
Eu2552 O2575 2.349 . S
Eu2553 O2562 2.373 . S
Eu2553 O2566 2.488 . S
Eu2553 O2567 2.471 . S
Eu2553 O2568 2.349 . S
Eu2553 O2571 2.392 . S
Eu2553 O2572 2.418 . S
Eu2553 C2582 2.828 . S
C2554 O2572 1.244 . S
C2554 O2575 1.265 . S
C2555 C2556 1.379 . S
C2555 C2559 1.373 . S
C2555 C2561 1.505 . S
C2556 C2555 1.379 . S
C2556 C2558 1.369 . S
C2556 H2584 0.930 . S
C2557 C2559 1.383 . S
C2557 C2560 1.382 . S
C2557 H2585 0.930 . S
C2558 C2556 1.369 . S
C2558 C2560 1.392 . S
C2558 H2586 0.930 . S
C2559 C2555 1.373 . S
C2559 C2557 1.383 . S
C2559 H2587 0.931 . S
C2560 C2557 1.382 . S
C2560 C2558 1.392 . S
C2561 Eu2552 2.828 . S
C2561 C2555 1.505 . S
C2561 O2573 1.249 . S
C2561 O2574 1.244 . S
O2562 Eu2553 2.373 . S
O2562 C2564 1.258 . S
O2563 Eu2552 2.392 . S
O2563 C2564 1.242 . S
C2564 O2562 1.258 . S
C2564 O2563 1.242 . S
O2565 Eu2552 2.418 . S
O2565 C2569 1.244 . S
O2566 Eu2553 2.488 . S
O2566 C2582 1.249 . S
O2567 Eu2553 2.471 . S
O2567 C2582 1.244 . S
O2568 Eu2553 2.349 . S
O2568 C2569 1.265 . S
C2569 O2565 1.244 . S
C2569 O2568 1.265 . S
O2570 Eu2552 2.373 . S
O2570 C2583 1.258 . S
O2571 Eu2553 2.392 . S
O2571 C2583 1.242 . S
O2572 Eu2553 2.418 . S
O2572 C2554 1.244 . S
O2573 Eu2552 2.488 . S
O2573 C2561 1.249 . S
O2574 Eu2552 2.471 . S
O2574 C2561 1.244 . S
O2575 Eu2552 2.349 . S
O2575 C2554 1.265 . S
C2576 C2577 1.379 . S
C2576 C2580 1.373 . S
C2576 C2582 1.505 . S
C2577 C2576 1.379 . S
C2577 C2579 1.369 . S
C2577 H2588 0.930 . S
C2578 C2580 1.383 . S
C2578 C2581 1.382 . S
C2578 H2589 0.930 . S
C2579 C2577 1.369 . S
C2579 C2581 1.392 . S
C2579 H2590 0.930 . S
C2580 C2576 1.373 . S
C2580 C2578 1.383 . S
C2580 H2591 0.931 . S
C2581 C2578 1.382 . S
C2581 C2579 1.392 . S
C2582 Eu2553 2.828 . S
C2582 O2566 1.249 . S
C2582 O2567 1.244 . S
C2582 C2576 1.505 . S
C2583 O2570 1.258 . S
C2583 O2571 1.242 . S
H2584 C2556 0.930 . S
H2585 C2557 0.930 . S
H2586 C2558 0.930 . S
H2587 C2559 0.931 . S
H2588 C2577 0.930 . S
H2589 C2578 0.930 . S
H2590 C2579 0.930 . S
H2591 C2580 0.931 . S
Eu2592 C2601 2.828 . S
Eu2592 O2603 2.392 . S
Eu2592 O2605 2.418 . S
Eu2592 O2610 2.373 . S
Eu2592 O2613 2.488 . S
Eu2592 O2614 2.471 . S
Eu2592 O2615 2.349 . S
Eu2593 O2602 2.373 . S
Eu2593 O2606 2.488 . S
Eu2593 O2607 2.471 . S
Eu2593 O2608 2.349 . S
Eu2593 O2611 2.392 . S
Eu2593 O2612 2.418 . S
Eu2593 C2622 2.828 . S
C2594 O2612 1.244 . S
C2594 O2615 1.265 . S
C2595 C2596 1.379 . S
C2595 C2599 1.373 . S
C2595 C2601 1.505 . S
C2596 C2595 1.379 . S
C2596 C2598 1.369 . S
C2596 H2624 0.930 . S
C2597 C2599 1.383 . S
C2597 C2600 1.382 . S
C2597 H2625 0.930 . S
C2598 C2596 1.369 . S
C2598 C2600 1.392 . S
C2598 H2626 0.930 . S
C2599 C2595 1.373 . S
C2599 C2597 1.383 . S
C2599 H2627 0.931 . S
C2600 C2597 1.382 . S
C2600 C2598 1.392 . S
C2601 Eu2592 2.828 . S
C2601 C2595 1.505 . S
C2601 O2613 1.249 . S
C2601 O2614 1.244 . S
O2602 Eu2593 2.373 . S
O2602 C2604 1.258 . S
O2603 Eu2592 2.392 . S
O2603 C2604 1.242 . S
C2604 O2602 1.258 . S
C2604 O2603 1.242 . S
O2605 Eu2592 2.418 . S
O2605 C2609 1.244 . S
O2606 Eu2593 2.488 . S
O2606 C2622 1.249 . S
O2607 Eu2593 2.471 . S
O2607 C2622 1.244 . S
O2608 Eu2593 2.349 . S
O2608 C2609 1.265 . S
C2609 O2605 1.244 . S
C2609 O2608 1.265 . S
O2610 Eu2592 2.373 . S
O2610 C2623 1.258 . S
O2611 Eu2593 2.392 . S
O2611 C2623 1.242 . S
O2612 Eu2593 2.418 . S
O2612 C2594 1.244 . S
O2613 Eu2592 2.488 . S
O2613 C2601 1.249 . S
O2614 Eu2592 2.471 . S
O2614 C2601 1.244 . S
O2615 Eu2592 2.349 . S
O2615 C2594 1.265 . S
C2616 C2617 1.379 . S
C2616 C2620 1.373 . S
C2616 C2622 1.505 . S
C2617 C2616 1.379 . S
C2617 C2619 1.369 . S
C2617 H2628 0.930 . S
C2618 C2620 1.383 . S
C2618 C2621 1.382 . S
C2618 H2629 0.930 . S
C2619 C2617 1.369 . S
C2619 C2621 1.392 . S
C2619 H2630 0.930 . S
C2620 C2616 1.373 . S
C2620 C2618 1.383 . S
C2620 H2631 0.931 . S
C2621 C2618 1.382 . S
C2621 C2619 1.392 . S
C2622 Eu2593 2.828 . S
C2622 O2606 1.249 . S
C2622 O2607 1.244 . S
C2622 C2616 1.505 . S
C2623 O2610 1.258 . S
C2623 O2611 1.242 . S
H2624 C2596 0.930 . S
H2625 C2597 0.930 . S
H2626 C2598 0.930 . S
H2627 C2599 0.931 . S
H2628 C2617 0.930 . S
H2629 C2618 0.930 . S
H2630 C2619 0.930 . S
H2631 C2620 0.931 . S
Eu2632 C2641 2.828 . S
Eu2632 O2643 2.392 . S
Eu2632 O2645 2.418 . S
Eu2632 O2650 2.373 . S
Eu2632 O2653 2.488 . S
Eu2632 O2654 2.471 . S
Eu2632 O2655 2.349 . S
Eu2633 O2642 2.373 . S
Eu2633 O2646 2.488 . S
Eu2633 O2647 2.471 . S
Eu2633 O2648 2.349 . S
Eu2633 O2651 2.392 . S
Eu2633 O2652 2.418 . S
Eu2633 C2662 2.828 . S
C2634 O2652 1.244 . S
C2634 O2655 1.265 . S
C2635 C2636 1.379 . S
C2635 C2639 1.373 . S
C2635 C2641 1.505 . S
C2636 C2635 1.379 . S
C2636 C2638 1.369 . S
C2636 H2664 0.930 . S
C2637 C2639 1.383 . S
C2637 C2640 1.382 . S
C2637 H2665 0.930 . S
C2638 C2636 1.369 . S
C2638 C2640 1.392 . S
C2638 H2666 0.930 . S
C2639 C2635 1.373 . S
C2639 C2637 1.383 . S
C2639 H2667 0.931 . S
C2640 C2637 1.382 . S
C2640 C2638 1.392 . S
C2641 Eu2632 2.828 . S
C2641 C2635 1.505 . S
C2641 O2653 1.249 . S
C2641 O2654 1.244 . S
O2642 Eu2633 2.373 . S
O2642 C2644 1.258 . S
O2643 Eu2632 2.392 . S
O2643 C2644 1.242 . S
C2644 O2642 1.258 . S
C2644 O2643 1.242 . S
O2645 Eu2632 2.418 . S
O2645 C2649 1.244 . S
O2646 Eu2633 2.488 . S
O2646 C2662 1.249 . S
O2647 Eu2633 2.471 . S
O2647 C2662 1.244 . S
O2648 Eu2633 2.349 . S
O2648 C2649 1.265 . S
C2649 O2645 1.244 . S
C2649 O2648 1.265 . S
O2650 Eu2632 2.373 . S
O2650 C2663 1.258 . S
O2651 Eu2633 2.392 . S
O2651 C2663 1.242 . S
O2652 Eu2633 2.418 . S
O2652 C2634 1.244 . S
O2653 Eu2632 2.488 . S
O2653 C2641 1.249 . S
O2654 Eu2632 2.471 . S
O2654 C2641 1.244 . S
O2655 Eu2632 2.349 . S
O2655 C2634 1.265 . S
C2656 C2657 1.379 . S
C2656 C2660 1.373 . S
C2656 C2662 1.505 . S
C2657 C2656 1.379 . S
C2657 C2659 1.369 . S
C2657 H2668 0.930 . S
C2658 C2660 1.383 . S
C2658 C2661 1.382 . S
C2658 H2669 0.930 . S
C2659 C2657 1.369 . S
C2659 C2661 1.392 . S
C2659 H2670 0.930 . S
C2660 C2656 1.373 . S
C2660 C2658 1.383 . S
C2660 H2671 0.931 . S
C2661 C2658 1.382 . S
C2661 C2659 1.392 . S
C2662 Eu2633 2.828 . S
C2662 O2646 1.249 . S
C2662 O2647 1.244 . S
C2662 C2656 1.505 . S
C2663 O2650 1.258 . S
C2663 O2651 1.242 . S
H2664 C2636 0.930 . S
H2665 C2637 0.930 . S
H2666 C2638 0.930 . S
H2667 C2639 0.931 . S
H2668 C2657 0.930 . S
H2669 C2658 0.930 . S
H2670 C2659 0.930 . S
H2671 C2660 0.931 . S
Eu2672 C2681 2.828 . S
Eu2672 O2683 2.392 . S
Eu2672 O2685 2.418 . S
Eu2672 O2690 2.373 . S
Eu2672 O2693 2.488 . S
Eu2672 O2694 2.471 . S
Eu2672 O2695 2.349 . S
Eu2673 O2682 2.373 . S
Eu2673 O2686 2.488 . S
Eu2673 O2687 2.471 . S
Eu2673 O2688 2.349 . S
Eu2673 O2691 2.392 . S
Eu2673 O2692 2.418 . S
Eu2673 C2702 2.828 . S
C2674 O2692 1.244 . S
C2674 O2695 1.265 . S
C2675 C2676 1.379 . S
C2675 C2679 1.373 . S
C2675 C2681 1.505 . S
C2676 C2675 1.379 . S
C2676 C2678 1.369 . S
C2676 H2704 0.930 . S
C2677 C2679 1.383 . S
C2677 C2680 1.382 . S
C2677 H2705 0.930 . S
C2678 C2676 1.369 . S
C2678 C2680 1.392 . S
C2678 H2706 0.930 . S
C2679 C2675 1.373 . S
C2679 C2677 1.383 . S
C2679 H2707 0.931 . S
C2680 C2677 1.382 . S
C2680 C2678 1.392 . S
C2681 Eu2672 2.828 . S
C2681 C2675 1.505 . S
C2681 O2693 1.249 . S
C2681 O2694 1.244 . S
O2682 Eu2673 2.373 . S
O2682 C2684 1.258 . S
O2683 Eu2672 2.392 . S
O2683 C2684 1.242 . S
C2684 O2682 1.258 . S
C2684 O2683 1.242 . S
O2685 Eu2672 2.418 . S
O2685 C2689 1.244 . S
O2686 Eu2673 2.488 . S
O2686 C2702 1.249 . S
O2687 Eu2673 2.471 . S
O2687 C2702 1.244 . S
O2688 Eu2673 2.349 . S
O2688 C2689 1.265 . S
C2689 O2685 1.244 . S
C2689 O2688 1.265 . S
O2690 Eu2672 2.373 . S
O2690 C2703 1.258 . S
O2691 Eu2673 2.392 . S
O2691 C2703 1.242 . S
O2692 Eu2673 2.418 . S
O2692 C2674 1.244 . S
O2693 Eu2672 2.488 . S
O2693 C2681 1.249 . S
O2694 Eu2672 2.471 . S
O2694 C2681 1.244 . S
O2695 Eu2672 2.349 . S
O2695 C2674 1.265 . S
C2696 C2697 1.379 . S
C2696 C2700 1.373 . S
C2696 C2702 1.505 . S
C2697 C2696 1.379 . S
C2697 C2699 1.369 . S
C2697 H2708 0.930 . S
C2698 C2700 1.383 . S
C2698 C2701 1.382 . S
C2698 H2709 0.930 . S
C2699 C2697 1.369 . S
C2699 C2701 1.392 . S
C2699 H2710 0.930 . S
C2700 C2696 1.373 . S
C2700 C2698 1.383 . S
C2700 H2711 0.931 . S
C2701 C2698 1.382 . S
C2701 C2699 1.392 . S
C2702 Eu2673 2.828 . S
C2702 O2686 1.249 . S
C2702 O2687 1.244 . S
C2702 C2696 1.505 . S
C2703 O2690 1.258 . S
C2703 O2691 1.242 . S
H2704 C2676 0.930 . S
H2705 C2677 0.930 . S
H2706 C2678 0.930 . S
H2707 C2679 0.931 . S
H2708 C2697 0.930 . S
H2709 C2698 0.930 . S
H2710 C2699 0.930 . S
H2711 C2700 0.931 . S
Eu2712 C2721 2.828 1_554 S
Eu2712 O2723 2.392 . S
Eu2712 O2725 2.418 1_554 S
Eu2712 O2730 2.373 1_554 S
Eu2712 O2733 2.488 1_554 S
Eu2712 O2734 2.471 . S
Eu2712 O2735 2.349 . S
Eu2713 O2722 2.373 . S
Eu2713 O2726 2.488 1_455 S
Eu2713 O2727 2.471 1_455 S
Eu2713 O2728 2.349 1_554 S
Eu2713 O2731 2.392 . S
Eu2713 O2732 2.418 . S
Eu2713 C2742 2.828 1_455 S
C2714 O2732 1.244 . S
C2714 O2735 1.265 . S
C2715 C2716 1.379 1_556 S
C2715 C2719 1.373 . S
C2715 C2721 1.505 . S
C2716 C2715 1.379 1_554 S
C2716 C2718 1.369 . S
C2716 H2744 0.930 . S
C2717 C2719 1.383 . S
C2717 C2720 1.382 . S
C2717 H2745 0.930 . S
C2718 C2716 1.369 . S
C2718 C2720 1.392 1_554 S
C2718 H2746 0.930 . S
C2719 C2715 1.373 . S
C2719 C2717 1.383 . S
C2719 H2747 0.931 . S
C2720 C2717 1.382 . S
C2720 C2718 1.392 1_556 S
C2721 Eu2712 2.828 1_556 S
C2721 C2715 1.505 . S
C2721 O2733 1.249 . S
C2721 O2734 1.244 1_556 S
O2722 Eu2713 2.373 . S
O2722 C2724 1.258 . S
O2723 Eu2712 2.392 . S
O2723 C2724 1.242 . S
C2724 O2722 1.258 . S
C2724 O2723 1.242 . S
O2725 Eu2712 2.418 1_556 S
O2725 C2729 1.244 . S
O2726 Eu2713 2.488 1_655 S
O2726 C2742 1.249 . S
O2727 Eu2713 2.471 1_655 S
O2727 C2742 1.244 . S
O2728 Eu2713 2.349 1_556 S
O2728 C2729 1.265 . S
C2729 O2725 1.244 . S
C2729 O2728 1.265 . S
O2730 Eu2712 2.373 1_556 S
O2730 C2743 1.258 1_556 S
O2731 Eu2713 2.392 . S
O2731 C2743 1.242 . S
O2732 Eu2713 2.418 . S
O2732 C2714 1.244 . S
O2733 Eu2712 2.488 1_556 S
O2733 C2721 1.249 . S
O2734 Eu2712 2.471 . S
O2734 C2721 1.244 1_554 S
O2735 Eu2712 2.349 . S
O2735 C2714 1.265 . S
C2736 C2737 1.379 . S
C2736 C2740 1.373 . S
C2736 C2742 1.505 . S
C2737 C2736 1.379 . S
C2737 C2739 1.369 . S
C2737 H2748 0.930 . S
C2738 C2740 1.383 . S
C2738 C2741 1.382 . S
C2738 H2749 0.930 . S
C2739 C2737 1.369 . S
C2739 C2741 1.392 . S
C2739 H2750 0.930 . S
C2740 C2736 1.373 . S
C2740 C2738 1.383 . S
C2740 H2751 0.931 . S
C2741 C2738 1.382 . S
C2741 C2739 1.392 . S
C2742 Eu2713 2.828 1_655 S
C2742 O2726 1.249 . S
C2742 O2727 1.244 . S
C2742 C2736 1.505 . S
C2743 O2730 1.258 1_554 S
C2743 O2731 1.242 . S
H2744 C2716 0.930 . S
H2745 C2717 0.930 . S
H2746 C2718 0.930 . S
H2747 C2719 0.931 . S
H2748 C2737 0.930 . S
H2749 C2738 0.930 . S
H2750 C2739 0.930 . S
H2751 C2740 0.931 . S
C2752 C2753 1.369 . S
C2752 C2754 1.419 . S
C2752 H2756 0.930 . S
C2753 C2752 1.369 . S
C2753 C2762 1.429 . S
C2754 C2752 1.419 . S
C2754 C2755 1.363 . S
C2754 H2757 0.929 . S
C2755 C2754 1.363 . S
C2755 C2761 1.428 . S
H2756 C2752 0.930 . S
H2757 C2754 0.929 . S
S2758 N2759 1.613 . S
S2758 N2760 1.610 1_655 S
N2759 S2758 1.613 . S
N2759 C2762 1.350 1_654 S
N2760 S2758 1.610 1_455 S
N2760 C2761 1.351 1_554 S
C2761 C2755 1.428 . S
C2761 N2760 1.351 1_556 S
C2761 C2762 1.434 . S
C2762 C2753 1.429 . S
C2762 N2759 1.350 1_456 S
C2762 C2761 1.434 . S
C2763 C2764 1.369 . S
C2763 C2765 1.419 . S
C2763 H2767 0.930 . S
C2764 C2763 1.369 . S
C2764 C2773 1.429 . S
C2765 C2763 1.419 . S
C2765 C2766 1.363 . S
C2765 H2768 0.929 . S
C2766 C2765 1.363 . S
C2766 C2772 1.428 . S
H2767 C2763 0.930 . S
H2768 C2765 0.929 . S
S2769 N2770 1.613 . S
S2769 N2771 1.610 . S
N2770 S2769 1.613 . S
N2770 C2773 1.350 . S
N2771 S2769 1.610 . S
N2771 C2772 1.351 . S
C2772 C2766 1.428 . S
C2772 N2771 1.351 . S
C2772 C2773 1.434 . S
C2773 C2764 1.429 . S
C2773 N2770 1.350 . S
C2773 C2772 1.434 . S
C2774 C2775 1.369 . S
C2774 C2776 1.419 . S
C2774 H2778 0.930 . S
C2775 C2774 1.369 . S
C2775 C2784 1.429 . S
C2776 C2774 1.419 . S
C2776 C2777 1.363 . S
C2776 H2779 0.929 . S
C2777 C2776 1.363 . S
C2777 C2783 1.428 . S
H2778 C2774 0.930 . S
H2779 C2776 0.929 . S
S2780 N2781 1.613 . S
S2780 N2782 1.610 . S
N2781 S2780 1.613 . S
N2781 C2784 1.350 . S
N2782 S2780 1.610 . S
N2782 C2783 1.351 . S
C2783 C2777 1.428 . S
C2783 N2782 1.351 . S
C2783 C2784 1.434 . S
C2784 C2775 1.429 . S
C2784 N2781 1.350 . S
C2784 C2783 1.434 . S
C2785 C2786 1.369 . S
C2785 C2787 1.419 . S
C2785 H2789 0.930 . S
C2786 C2785 1.369 . S
C2786 C2795 1.429 . S
C2787 C2785 1.419 . S
C2787 C2788 1.363 . S
C2787 H2790 0.929 . S
C2788 C2787 1.363 . S
C2788 C2794 1.428 . S
H2789 C2785 0.930 . S
H2790 C2787 0.929 . S
S2791 N2792 1.613 . S
S2791 N2793 1.610 . S
N2792 S2791 1.613 . S
N2792 C2795 1.350 . S
N2793 S2791 1.610 . S
N2793 C2794 1.351 . S
C2794 C2788 1.428 . S
C2794 N2793 1.351 . S
C2794 C2795 1.434 . S
C2795 C2786 1.429 . S
C2795 N2792 1.350 . S
C2795 C2794 1.434 . S
C2796 C2797 1.369 . S
C2796 C2798 1.419 . S
C2796 H2800 0.930 . S
C2797 C2796 1.369 . S
C2797 C2806 1.429 . S
C2798 C2796 1.419 . S
C2798 C2799 1.363 . S
C2798 H2801 0.929 . S
C2799 C2798 1.363 . S
C2799 C2805 1.428 . S
H2800 C2796 0.930 . S
H2801 C2798 0.929 . S
S2802 N2803 1.613 1_455 S
S2802 N2804 1.610 . S
N2803 S2802 1.613 1_655 S
N2803 C2806 1.350 1_655 S
N2804 S2802 1.610 . S
N2804 C2805 1.351 . S
C2805 C2799 1.428 . S
C2805 N2804 1.351 . S
C2805 C2806 1.434 . S
C2806 C2797 1.429 . S
C2806 N2803 1.350 1_455 S
C2806 C2805 1.434 . S
C2807 C2808 1.369 . S
C2807 C2809 1.419 . S
C2807 H2811 0.930 . S
C2808 C2807 1.369 . S
C2808 C2817 1.429 . S
C2809 C2807 1.419 . S
C2809 C2810 1.363 . S
C2809 H2812 0.929 . S
C2810 C2809 1.363 . S
C2810 C2816 1.428 . S
H2811 C2807 0.930 . S
H2812 C2809 0.929 . S
S2813 N2814 1.613 . S
S2813 N2815 1.610 . S
N2814 S2813 1.613 . S
N2814 C2817 1.350 . S
N2815 S2813 1.610 . S
N2815 C2816 1.351 . S
C2816 C2810 1.428 . S
C2816 N2815 1.351 . S
C2816 C2817 1.434 . S
C2817 C2808 1.429 . S
C2817 N2814 1.350 . S
C2817 C2816 1.434 . S
C2818 C2819 1.369 . S
C2818 C2820 1.419 . S
C2818 H2822 0.930 . S
C2819 C2818 1.369 . S
C2819 C2828 1.429 . S
C2820 C2818 1.419 . S
C2820 C2821 1.363 . S
C2820 H2823 0.929 . S
C2821 C2820 1.363 . S
C2821 C2827 1.428 . S
H2822 C2818 0.930 . S
H2823 C2820 0.929 . S
S2824 N2825 1.613 . S
S2824 N2826 1.610 . S
N2825 S2824 1.613 . S
N2825 C2828 1.350 . S
N2826 S2824 1.610 . S
N2826 C2827 1.351 . S
C2827 C2821 1.428 . S
C2827 N2826 1.351 . S
C2827 C2828 1.434 . S
C2828 C2819 1.429 . S
C2828 N2825 1.350 . S
C2828 C2827 1.434 . S
C2829 C2830 1.369 . S
C2829 C2831 1.419 . S
C2829 H2833 0.930 . S
C2830 C2829 1.369 . S
C2830 C2839 1.429 . S
C2831 C2829 1.419 . S
C2831 C2832 1.363 . S
C2831 H2834 0.929 . S
C2832 C2831 1.363 . S
C2832 C2838 1.428 . S
H2833 C2829 0.930 . S
H2834 C2831 0.929 . S
S2835 N2836 1.613 . S
S2835 N2837 1.610 . S
N2836 S2835 1.613 . S
N2836 C2839 1.350 . S
N2837 S2835 1.610 . S
N2837 C2838 1.351 . S
C2838 C2832 1.428 . S
C2838 N2837 1.351 . S
C2838 C2839 1.434 . S
C2839 C2830 1.429 . S
C2839 N2836 1.350 . S
C2839 C2838 1.434 . S
C2840 C2841 1.369 . S
C2840 C2842 1.419 . S
C2840 H2844 0.930 . S
C2841 C2840 1.369 . S
C2841 C2850 1.429 1_455 S
C2842 C2840 1.419 . S
C2842 C2843 1.363 . S
C2842 H2845 0.929 . S
C2843 C2842 1.363 . S
C2843 C2849 1.428 . S
H2844 C2840 0.930 . S
H2845 C2842 0.929 . S
S2846 N2847 1.613 . S
S2846 N2848 1.610 . S
N2847 S2846 1.613 . S
N2847 C2850 1.350 . S
N2848 S2846 1.610 . S
N2848 C2849 1.351 1_655 S
C2849 C2843 1.428 . S
C2849 N2848 1.351 1_455 S
C2849 C2850 1.434 1_455 S
C2850 C2841 1.429 1_655 S
C2850 N2847 1.350 . S
C2850 C2849 1.434 1_655 S
C2851 C2852 1.369 . S
C2851 C2853 1.419 . S
C2851 H2855 0.930 . S
C2852 C2851 1.369 . S
C2852 C2861 1.429 . S
C2853 C2851 1.419 . S
C2853 C2854 1.363 . S
C2853 H2856 0.929 . S
C2854 C2853 1.363 . S
C2854 C2860 1.428 . S
H2855 C2851 0.930 . S
H2856 C2853 0.929 . S
S2857 N2858 1.613 . S
S2857 N2859 1.610 . S
N2858 S2857 1.613 . S
N2858 C2861 1.350 . S
N2859 S2857 1.610 . S
N2859 C2860 1.351 . S
C2860 C2854 1.428 . S
C2860 N2859 1.351 . S
C2860 C2861 1.434 . S
C2861 C2852 1.429 . S
C2861 N2858 1.350 . S
C2861 C2860 1.434 . S
C2862 C2863 1.369 . S
C2862 C2864 1.419 . S
C2862 H2866 0.930 . S
C2863 C2862 1.369 . S
C2863 C2872 1.429 . S
C2864 C2862 1.419 . S
C2864 C2865 1.363 . S
C2864 H2867 0.929 . S
C2865 C2864 1.363 . S
C2865 C2871 1.428 . S
H2866 C2862 0.930 . S
H2867 C2864 0.929 . S
S2868 N2869 1.613 . S
S2868 N2870 1.610 . S
N2869 S2868 1.613 . S
N2869 C2872 1.350 . S
N2870 S2868 1.610 . S
N2870 C2871 1.351 . S
C2871 C2865 1.428 . S
C2871 N2870 1.351 . S
C2871 C2872 1.434 . S
C2872 C2863 1.429 . S
C2872 N2869 1.350 . S
C2872 C2871 1.434 . S
C2873 C2874 1.369 . S
C2873 C2875 1.419 . S
C2873 H2877 0.930 . S
C2874 C2873 1.369 . S
C2874 C2883 1.429 . S
C2875 C2873 1.419 . S
C2875 C2876 1.363 . S
C2875 H2878 0.929 . S
C2876 C2875 1.363 . S
C2876 C2882 1.428 . S
H2877 C2873 0.930 . S
H2878 C2875 0.929 . S
S2879 N2880 1.613 . S
S2879 N2881 1.610 . S
N2880 S2879 1.613 . S
N2880 C2883 1.350 . S
N2881 S2879 1.610 . S
N2881 C2882 1.351 . S
C2882 C2876 1.428 . S
C2882 N2881 1.351 . S
C2882 C2883 1.434 . S
C2883 C2874 1.429 . S
C2883 N2880 1.350 . S
C2883 C2882 1.434 . S
C2884 C2885 1.369 . S
C2884 C2886 1.419 . S
C2884 H2888 0.899 1_455 S
C2885 C2884 1.369 . S
C2885 C2894 1.429 . S
C2886 C2884 1.419 . S
C2886 C2887 1.363 . S
C2886 H2889 0.929 . S
C2887 C2886 1.363 . S
C2887 C2893 1.428 . S
H2888 C2884 0.899 1_655 S
H2889 C2886 0.929 . S
S2890 N2891 1.613 . S
S2890 N2892 1.610 . S
N2891 S2890 1.613 . S
N2891 C2894 1.350 . S
N2892 S2890 1.610 . S
N2892 C2893 1.351 . S
C2893 C2887 1.428 . S
C2893 N2892 1.351 . S
C2893 C2894 1.434 . S
C2894 C2885 1.429 . S
C2894 N2891 1.350 . S
C2894 C2893 1.434 . S
C2895 C2896 1.369 . S
C2895 C2897 1.419 . S
C2895 H2899 0.930 . S
C2896 C2895 1.369 . S
C2896 C2905 1.429 . S
C2897 C2895 1.419 . S
C2897 C2898 1.363 . S
C2897 H2900 0.929 . S
C2898 C2897 1.363 . S
C2898 C2904 1.428 . S
H2899 C2895 0.930 . S
H2900 C2897 0.929 . S
S2901 N2902 1.613 . S
S2901 N2903 1.610 . S
N2902 S2901 1.613 . S
N2902 C2905 1.350 . S
N2903 S2901 1.610 . S
N2903 C2904 1.351 . S
C2904 C2898 1.428 . S
C2904 N2903 1.351 . S
C2904 C2905 1.434 . S
C2905 C2896 1.429 . S
C2905 N2902 1.350 . S
C2905 C2904 1.434 . S
C2906 C2907 1.369 . S
C2906 C2908 1.419 . S
C2906 H2910 0.930 . S
C2907 C2906 1.369 . S
C2907 C2916 1.429 . S
C2908 C2906 1.419 . S
C2908 C2909 1.363 . S
C2908 H2911 0.929 . S
C2909 C2908 1.363 . S
C2909 C2915 1.428 . S
H2910 C2906 0.930 . S
H2911 C2908 0.929 . S
S2912 N2913 1.613 . S
S2912 N2914 1.610 . S
N2913 S2912 1.613 . S
N2913 C2916 1.350 . S
N2914 S2912 1.610 . S
N2914 C2915 1.351 . S
C2915 C2909 1.428 . S
C2915 N2914 1.351 . S
C2915 C2916 1.434 . S
C2916 C2907 1.429 . S
C2916 N2913 1.350 . S
C2916 C2915 1.434 . S
C2917 C2918 1.369 . S
C2917 C2919 1.419 . S
C2917 H2921 0.930 . S
C2918 C2917 1.369 . S
C2918 C2927 1.429 . S
C2919 C2917 1.419 . S
C2919 C2920 1.363 . S
C2919 H2922 0.929 . S
C2920 C2919 1.363 . S
C2920 C2926 1.428 . S
H2921 C2917 0.930 . S
H2922 C2919 0.929 . S
S2923 N2924 1.613 . S
S2923 N2925 1.610 . S
N2924 S2923 1.613 . S
N2924 C2927 1.350 . S
N2925 S2923 1.610 . S
N2925 C2926 1.351 . S
C2926 C2920 1.428 . S
C2926 N2925 1.351 . S
C2926 C2927 1.434 . S
C2927 C2918 1.429 . S
C2927 N2924 1.350 . S
C2927 C2926 1.434 . S
C2928 C2929 1.369 1_565 S
C2928 C2930 1.419 . S
C2928 H2932 0.930 1_554 S
C2929 C2928 1.369 1_545 S
C2929 C2938 1.429 . S
C2930 C2928 1.419 . S
C2930 C2931 1.363 1_565 S
C2930 H2933 0.929 1_554 S
C2931 C2930 1.363 1_545 S
C2931 C2937 1.428 . S
H2932 C2928 0.930 1_556 S
H2933 C2930 0.929 1_556 S
S2934 N2935 1.613 . S
S2934 N2936 1.610 . S
N2935 S2934 1.613 . S
N2935 C2938 1.350 . S
N2936 S2934 1.610 . S
N2936 C2937 1.351 . S
C2937 C2931 1.428 . S
C2937 N2936 1.351 . S
C2937 C2938 1.434 . S
C2938 C2929 1.429 . S
C2938 N2935 1.350 . S
C2938 C2937 1.434 . S
C2939 C2940 1.377 . S
C2939 C2941 1.409 1_556 S
C2939 H2943 0.933 . S
C2940 C2939 1.377 . S
C2940 C2949 1.433 . S
C2941 C2939 1.409 1_554 S
C2941 C2942 1.363 . S
C2941 H2944 0.929 . S
C2942 C2941 1.363 . S
C2942 C2948 1.428 . S
H2943 C2939 0.933 . S
H2944 C2941 0.929 . S
S2945 N2946 1.613 1_554 S
S2945 N2947 1.610 . S
N2946 S2945 1.613 1_556 S
N2946 C2949 1.358 . S
N2947 S2945 1.610 . S
N2947 C2948 1.351 . S
C2948 C2942 1.428 . S
C2948 N2947 1.351 . S
C2948 C2949 1.421 1_554 S
C2949 C2940 1.433 . S
C2949 N2946 1.358 . S
C2949 C2948 1.421 1_556 S
C2950 C2951 1.369 . S
C2950 C2952 1.419 . S
C2950 H2954 0.930 . S
C2951 C2950 1.369 . S
C2951 C2960 1.429 . S
C2952 C2950 1.419 . S
C2952 C2953 1.363 . S
C2952 H2955 0.929 . S
C2953 C2952 1.363 . S
C2953 C2959 1.428 . S
H2954 C2950 0.930 . S
H2955 C2952 0.929 . S
S2956 N2957 1.613 . S
S2956 N2958 1.610 . S
N2957 S2956 1.613 . S
N2957 C2960 1.350 . S
N2958 S2956 1.610 . S
N2958 C2959 1.351 . S
C2959 C2953 1.428 . S
C2959 N2958 1.351 . S
C2959 C2960 1.434 . S
C2960 C2951 1.429 . S
C2960 N2957 1.350 . S
C2960 C2959 1.434 . S
C2961 C2962 1.369 . S
C2961 C2963 1.419 . S
C2961 H2965 0.930 . S
C2962 C2961 1.369 . S
C2962 C2971 1.429 . S
C2963 C2961 1.419 . S
C2963 C2964 1.363 . S
C2963 H2966 0.929 . S
C2964 C2963 1.363 . S
C2964 C2970 1.428 . S
H2965 C2961 0.930 . S
H2966 C2963 0.929 . S
S2967 N2968 1.613 . S
S2967 N2969 1.610 . S
N2968 S2967 1.613 . S
N2968 C2971 1.350 . S
N2969 S2967 1.610 . S
N2969 C2970 1.351 . S
C2970 C2964 1.428 . S
C2970 N2969 1.351 . S
C2970 C2971 1.434 . S
C2971 C2962 1.429 . S
C2971 N2968 1.350 . S
C2971 C2970 1.434 . S
C2972 C2973 1.369 . S
C2972 C2974 1.419 . S
C2972 H2976 0.930 . S
C2973 C2972 1.369 . S
C2973 C2982 1.429 . S
C2974 C2972 1.419 . S
C2974 C2975 1.363 . S
C2974 H2977 0.929 . S
C2975 C2974 1.363 . S
C2975 C2981 1.428 . S
H2976 C2972 0.930 . S
H2977 C2974 0.929 . S
S2978 N2979 1.613 . S
S2978 N2980 1.610 . S
N2979 S2978 1.613 . S
N2979 C2982 1.350 . S
N2980 S2978 1.610 . S
N2980 C2981 1.351 . S
C2981 C2975 1.428 . S
C2981 N2980 1.351 . S
C2981 C2982 1.434 . S
C2982 C2973 1.429 . S
C2982 N2979 1.350 . S
C2982 C2981 1.434 . S
C2983 C2984 1.369 . S
C2983 C2985 1.419 . S
C2983 H2987 0.930 . S
C2984 C2983 1.369 . S
C2984 C2993 1.429 . S
C2985 C2983 1.419 . S
C2985 C2986 1.363 . S
C2985 H2988 0.929 . S
C2986 C2985 1.363 . S
C2986 C2992 1.428 . S
H2987 C2983 0.930 . S
H2988 C2985 0.929 . S
S2989 N2990 1.613 . S
S2989 N2991 1.610 . S
N2990 S2989 1.613 . S
N2990 C2993 1.350 . S
N2991 S2989 1.610 . S
N2991 C2992 1.351 . S
C2992 C2986 1.428 . S
C2992 N2991 1.351 . S
C2992 C2993 1.434 . S
C2993 C2984 1.429 . S
C2993 N2990 1.350 . S
C2993 C2992 1.434 . S
C2994 C2995 1.369 . S
C2994 C2996 1.419 . S
C2994 H2998 0.930 . S
C2995 C2994 1.369 . S
C2995 C3004 1.429 . S
C2996 C2994 1.419 . S
C2996 C2997 1.363 . S
C2996 H2999 0.929 . S
C2997 C2996 1.363 . S
C2997 C3003 1.428 . S
H2998 C2994 0.930 . S
H2999 C2996 0.929 . S
S3000 N3001 1.613 . S
S3000 N3002 1.610 . S
N3001 S3000 1.613 . S
N3001 C3004 1.350 . S
N3002 S3000 1.610 . S
N3002 C3003 1.351 . S
C3003 C2997 1.428 . S
C3003 N3002 1.351 . S
C3003 C3004 1.434 . S
C3004 C2995 1.429 . S
C3004 N3001 1.350 . S
C3004 C3003 1.434 . S
C3005 C3006 1.369 . S
C3005 C3007 1.419 . S
C3005 H3009 0.930 . S
C3006 C3005 1.369 . S
C3006 C3015 1.429 . S
C3007 C3005 1.419 . S
C3007 C3008 1.363 . S
C3007 H3010 0.929 . S
C3008 C3007 1.363 . S
C3008 C3014 1.428 . S
H3009 C3005 0.930 . S
H3010 C3007 0.929 . S
S3011 N3012 1.613 . S
S3011 N3013 1.610 . S
N3012 S3011 1.613 . S
N3012 C3015 1.350 . S
N3013 S3011 1.610 . S
N3013 C3014 1.351 . S
C3014 C3008 1.428 . S
C3014 N3013 1.351 . S
C3014 C3015 1.434 . S
C3015 C3006 1.429 . S
C3015 N3012 1.350 . S
C3015 C3014 1.434 . S
C3016 C3017 1.369 . S
C3016 C3018 1.419 . S
C3016 H3020 0.930 . S
C3017 C3016 1.369 . S
C3017 C3026 1.429 . S
C3018 C3016 1.419 . S
C3018 C3019 1.363 . S
C3018 H3021 0.929 . S
C3019 C3018 1.363 . S
C3019 C3025 1.428 . S
H3020 C3016 0.930 . S
H3021 C3018 0.929 . S
S3022 N3023 1.613 . S
S3022 N3024 1.610 . S
N3023 S3022 1.613 . S
N3023 C3026 1.350 . S
N3024 S3022 1.610 . S
N3024 C3025 1.351 . S
C3025 C3019 1.428 . S
C3025 N3024 1.351 . S
C3025 C3026 1.434 . S
C3026 C3017 1.429 . S
C3026 N3023 1.350 . S
C3026 C3025 1.434 . S
C3027 C3028 1.369 . S
C3027 C3029 1.419 . S
C3027 H3031 0.930 . S
C3028 C3027 1.369 . S
C3028 C3037 1.429 . S
C3029 C3027 1.419 . S
C3029 C3030 1.363 . S
C3029 H3032 0.929 . S
C3030 C3029 1.363 . S
C3030 C3036 1.428 . S
H3031 C3027 0.930 . S
H3032 C3029 0.929 . S
S3033 N3034 1.613 . S
S3033 N3035 1.610 . S
N3034 S3033 1.613 . S
N3034 C3037 1.350 . S
N3035 S3033 1.610 . S
N3035 C3036 1.351 . S
C3036 C3030 1.428 . S
C3036 N3035 1.351 . S
C3036 C3037 1.434 . S
C3037 C3028 1.429 . S
C3037 N3034 1.350 . S
C3037 C3036 1.434 . S
C3038 C3039 1.369 . S
C3038 C3040 1.419 . S
C3038 H3042 0.930 . S
C3039 C3038 1.369 . S
C3039 C3048 1.429 . S
C3040 C3038 1.419 . S
C3040 C3041 1.363 . S
C3040 H3043 0.929 . S
C3041 C3040 1.363 . S
C3041 C3047 1.428 . S
H3042 C3038 0.930 . S
H3043 C3040 0.929 . S
S3044 N3045 1.613 . S
S3044 N3046 1.610 . S
N3045 S3044 1.613 . S
N3045 C3048 1.350 . S
N3046 S3044 1.610 . S
N3046 C3047 1.351 . S
C3047 C3041 1.428 . S
C3047 N3046 1.351 . S
C3047 C3048 1.434 . S
C3048 C3039 1.429 . S
C3048 N3045 1.350 . S
C3048 C3047 1.434 . S
C3049 C3050 1.369 . S
C3049 C3051 1.419 . S
C3049 H3053 0.930 . S
C3050 C3049 1.369 . S
C3050 C3059 1.429 . S
C3051 C3049 1.419 . S
C3051 C3052 1.363 . S
C3051 H3054 0.929 . S
C3052 C3051 1.363 . S
C3052 C3058 1.428 . S
H3053 C3049 0.930 . S
H3054 C3051 0.929 . S
S3055 N3056 1.613 . S
S3055 N3057 1.610 . S
N3056 S3055 1.613 . S
N3056 C3059 1.350 . S
N3057 S3055 1.610 . S
N3057 C3058 1.351 . S
C3058 C3052 1.428 . S
C3058 N3057 1.351 . S
C3058 C3059 1.434 . S
C3059 C3050 1.429 . S
C3059 N3056 1.350 . S
C3059 C3058 1.434 . S
C3060 C3061 1.369 . S
C3060 C3062 1.419 . S
C3060 H3064 0.930 . S
C3061 C3060 1.369 . S
C3061 C3070 1.429 . S
C3062 C3060 1.419 . S
C3062 C3063 1.363 . S
C3062 H3065 0.929 . S
C3063 C3062 1.363 . S
C3063 C3069 1.428 . S
H3064 C3060 0.930 . S
H3065 C3062 0.929 . S
S3066 N3067 1.613 . S
S3066 N3068 1.610 . S
N3067 S3066 1.613 . S
N3067 C3070 1.350 . S
N3068 S3066 1.610 . S
N3068 C3069 1.351 . S
C3069 C3063 1.428 . S
C3069 N3068 1.351 . S
C3069 C3070 1.434 . S
C3070 C3061 1.429 . S
C3070 N3067 1.350 . S
C3070 C3069 1.434 . S
C3071 C3072 1.369 . S
C3071 C3073 1.419 . S
C3071 H3075 0.930 . S
C3072 C3071 1.369 . S
C3072 C3081 1.429 . S
C3073 C3071 1.419 . S
C3073 C3074 1.363 . S
C3073 H3076 0.929 . S
C3074 C3073 1.363 . S
C3074 C3080 1.428 . S
H3075 C3071 0.930 . S
H3076 C3073 0.929 . S
S3077 N3078 1.613 . S
S3077 N3079 1.610 . S
N3078 S3077 1.613 . S
N3078 C3081 1.350 . S
N3079 S3077 1.610 . S
N3079 C3080 1.351 . S
C3080 C3074 1.428 . S
C3080 N3079 1.351 . S
C3080 C3081 1.434 . S
C3081 C3072 1.429 . S
C3081 N3078 1.350 . S
C3081 C3080 1.434 . S
C3082 C3083 1.369 . S
C3082 C3084 1.419 . S
C3082 H3086 0.930 . S
C3083 C3082 1.369 . S
C3083 C3092 1.429 . S
C3084 C3082 1.419 . S
C3084 C3085 1.363 . S
C3084 H3087 0.929 . S
C3085 C3084 1.363 . S
C3085 C3091 1.428 . S
H3086 C3082 0.930 . S
H3087 C3084 0.929 . S
S3088 N3089 1.613 1_545 S
S3088 N3090 1.610 . S
N3089 S3088 1.613 1_565 S
N3089 C3092 1.350 . S
N3090 S3088 1.610 . S
N3090 C3091 1.351 1_545 S
C3091 C3085 1.428 . S
C3091 N3090 1.351 1_565 S
C3091 C3092 1.434 . S
C3092 C3083 1.429 . S
C3092 N3089 1.350 . S
C3092 C3091 1.434 . S
C3093 C3094 1.369 . S
C3093 C3095 1.419 . S
C3093 H3097 0.930 . S
C3094 C3093 1.369 . S
C3094 C3103 1.429 . S
C3095 C3093 1.419 . S
C3095 C3096 1.363 . S
C3095 H3098 0.929 . S
C3096 C3095 1.363 . S
C3096 C3102 1.428 . S
H3097 C3093 0.930 . S
H3098 C3095 0.929 . S
S3099 N3100 1.613 . S
S3099 N3101 1.610 . S
N3100 S3099 1.613 . S
N3100 C3103 1.350 . S
N3101 S3099 1.610 . S
N3101 C3102 1.351 . S
C3102 C3096 1.428 . S
C3102 N3101 1.351 . S
C3102 C3103 1.434 . S
C3103 C3094 1.429 . S
C3103 N3100 1.350 . S
C3103 C3102 1.434 . S
C3104 C3105 1.369 . S
C3104 C3106 1.419 . S
C3104 H3108 0.930 . S
C3105 C3104 1.369 . S
C3105 C3114 1.429 . S
C3106 C3104 1.419 . S
C3106 C3107 1.363 . S
C3106 H3109 0.929 . S
C3107 C3106 1.363 . S
C3107 C3113 1.428 . S
H3108 C3104 0.930 . S
H3109 C3106 0.929 . S
S3110 N3111 1.613 . S
S3110 N3112 1.610 . S
N3111 S3110 1.613 . S
N3111 C3114 1.350 1_565 S
N3112 S3110 1.610 . S
N3112 C3113 1.351 1_565 S
C3113 C3107 1.428 . S
C3113 N3112 1.351 1_545 S
C3113 C3114 1.434 . S
C3114 C3105 1.429 . S
C3114 N3111 1.350 1_545 S
C3114 C3113 1.434 . S
C3115 C3116 1.369 . S
C3115 C3117 1.419 . S
C3115 H3119 0.930 . S
C3116 C3115 1.369 . S
C3116 C3125 1.429 . S
C3117 C3115 1.419 . S
C3117 C3118 1.363 . S
C3117 H3120 0.929 . S
C3118 C3117 1.363 . S
C3118 C3124 1.428 . S
H3119 C3115 0.930 . S
H3120 C3117 0.929 . S
S3121 N3122 1.613 . S
S3121 N3123 1.610 . S
N3122 S3121 1.613 . S
N3122 C3125 1.350 . S
N3123 S3121 1.610 . S
N3123 C3124 1.351 . S
C3124 C3118 1.428 . S
C3124 N3123 1.351 . S
C3124 C3125 1.434 . S
C3125 C3116 1.429 . S
C3125 N3122 1.350 . S
C3125 C3124 1.434 . S
C3126 C3127 1.369 . S
C3126 C3128 1.419 . S
C3126 H3130 0.930 1_545 S
C3127 C3126 1.369 . S
C3127 C3136 1.429 . S
C3128 C3126 1.419 . S
C3128 C3129 1.363 . S
C3128 H3131 0.940 . S
C3129 C3128 1.363 . S
C3129 C3135 1.428 . S
H3130 C3126 0.930 1_565 S
H3131 C3128 0.940 . S
S3132 N3133 1.613 . S
S3132 N3134 1.610 . S
N3133 S3132 1.613 . S
N3133 C3136 1.350 . S
N3134 S3132 1.610 . S
N3134 C3135 1.351 . S
C3135 C3129 1.428 . S
C3135 N3134 1.351 . S
C3135 C3136 1.434 . S
C3136 C3127 1.429 . S
C3136 N3133 1.350 . S
C3136 C3135 1.434 . S
C3137 C3138 1.369 . S
C3137 C3139 1.419 . S
C3137 H3141 0.930 . S
C3138 C3137 1.369 . S
C3138 C3147 1.429 . S
C3139 C3137 1.419 . S
C3139 C3140 1.363 . S
C3139 H3142 0.929 . S
C3140 C3139 1.363 . S
C3140 C3146 1.428 . S
H3141 C3137 0.930 . S
H3142 C3139 0.929 . S
S3143 N3144 1.613 . S
S3143 N3145 1.610 . S
N3144 S3143 1.613 . S
N3144 C3147 1.350 . S
N3145 S3143 1.610 . S
N3145 C3146 1.351 . S
C3146 C3140 1.428 . S
C3146 N3145 1.351 . S
C3146 C3147 1.434 . S
C3147 C3138 1.429 . S
C3147 N3144 1.350 . S
C3147 C3146 1.434 . S
C3148 C3149 1.370 . S
C3148 C3150 1.419 . S
C3148 H3152 0.930 . S
C3149 C3148 1.370 . S
C3149 C3158 1.424 1_565 S
C3150 C3148 1.419 . S
C3150 C3151 1.363 1_565 S
C3150 H3153 0.929 . S
C3151 C3150 1.363 1_545 S
C3151 C3157 1.428 . S
H3152 C3148 0.930 . S
H3153 C3150 0.929 . S
S3154 N3155 1.613 . S
S3154 N3156 1.610 . S
N3155 S3154 1.613 . S
N3155 C3158 1.350 . S
N3156 S3154 1.610 . S
N3156 C3157 1.351 . S
C3157 C3151 1.428 . S
C3157 N3156 1.351 . S
C3157 C3158 1.434 . S
C3158 C3149 1.424 1_545 S
C3158 N3155 1.350 . S
C3158 C3157 1.434 . S
C3159 C3160 1.369 . S
C3159 C3161 1.419 . S
C3159 H3163 0.930 . S
C3160 C3159 1.369 . S
C3160 C3169 1.429 . S
C3161 C3159 1.419 . S
C3161 C3162 1.363 . S
C3161 H3164 0.929 . S
C3162 C3161 1.363 . S
C3162 C3168 1.428 . S
H3163 C3159 0.930 . S
H3164 C3161 0.929 . S
S3165 N3166 1.613 . S
S3165 N3167 1.610 . S
N3166 S3165 1.613 . S
N3166 C3169 1.350 . S
N3167 S3165 1.610 . S
N3167 C3168 1.351 . S
C3168 C3162 1.428 . S
C3168 N3167 1.351 . S
C3168 C3169 1.434 . S
C3169 C3160 1.429 . S
C3169 N3166 1.350 . S
C3169 C3168 1.434 . S
C3170 C3171 1.369 . S
C3170 C3172 1.419 . S
C3170 H3174 0.930 . S
C3171 C3170 1.369 . S
C3171 C3180 1.429 1_545 S
C3172 C3170 1.419 . S
C3172 C3173 1.363 1_545 S
C3172 H3175 0.929 . S
C3173 C3172 1.363 1_565 S
C3173 C3179 1.428 . S
H3174 C3170 0.930 . S
H3175 C3172 0.929 . S
S3176 N3177 1.613 . S
S3176 N3178 1.610 . S
N3177 S3176 1.613 . S
N3177 C3180 1.350 . S
N3178 S3176 1.610 . S
N3178 C3179 1.351 . S
C3179 C3173 1.428 . S
C3179 N3178 1.351 . S
C3179 C3180 1.434 . S
C3180 C3171 1.429 1_565 S
C3180 N3177 1.350 . S
C3180 C3179 1.434 . S
C3181 C3182 1.369 . S
C3181 C3183 1.419 . S
C3181 H3185 0.930 . S
C3182 C3181 1.369 . S
C3182 C3191 1.429 . S
C3183 C3181 1.419 . S
C3183 C3184 1.363 . S
C3183 H3186 0.929 . S
C3184 C3183 1.363 . S
C3184 C3190 1.428 . S
H3185 C3181 0.930 . S
H3186 C3183 0.929 . S
S3187 N3188 1.613 . S
S3187 N3189 1.610 . S
N3188 S3187 1.613 . S
N3188 C3191 1.350 . S
N3189 S3187 1.610 . S
N3189 C3190 1.351 . S
C3190 C3184 1.428 . S
C3190 N3189 1.351 . S
C3190 C3191 1.434 . S
C3191 C3182 1.429 . S
C3191 N3188 1.350 . S
C3191 C3190 1.434 . S
C3192 C3193 1.369 . S
C3192 C3194 1.419 . S
C3192 H3196 0.930 . S
C3193 C3192 1.369 . S
C3193 C3202 1.429 1_554 S
C3194 C3192 1.419 . S
C3194 C3195 1.363 . S
C3194 H3197 0.929 . S
C3195 C3194 1.363 . S
C3195 C3201 1.428 1_554 S
H3196 C3192 0.930 . S
H3197 C3194 0.929 . S
S3198 N3199 1.613 . S
S3198 N3200 1.610 . S
N3199 S3198 1.613 . S
N3199 C3202 1.350 . S
N3200 S3198 1.610 . S
N3200 C3201 1.351 . S
C3201 C3195 1.428 1_556 S
C3201 N3200 1.351 . S
C3201 C3202 1.434 . S
C3202 C3193 1.429 1_556 S
C3202 N3199 1.350 . S
C3202 C3201 1.434 . S
C3203 C3204 1.369 . S
C3203 C3205 1.419 . S
C3203 H3207 0.930 . S
C3204 C3203 1.369 . S
C3204 C3213 1.429 . S
C3205 C3203 1.419 . S
C3205 C3206 1.363 . S
C3205 H3208 0.929 . S
C3206 C3205 1.363 . S
C3206 C3212 1.428 . S
H3207 C3203 0.930 . S
H3208 C3205 0.929 . S
S3209 N3210 1.613 1_556 S
S3209 N3211 1.610 . S
N3210 S3209 1.613 1_554 S
N3210 C3213 1.350 . S
N3211 S3209 1.610 . S
N3211 C3212 1.351 1_556 S
C3212 C3206 1.428 . S
C3212 N3211 1.351 1_554 S
C3212 C3213 1.434 . S
C3213 C3204 1.429 . S
C3213 N3210 1.350 . S
C3213 C3212 1.434 . S
C3214 C3215 1.369 . S
C3214 C3216 1.419 . S
C3214 H3218 0.930 . S
C3215 C3214 1.369 . S
C3215 C3224 1.429 . S
C3216 C3214 1.419 . S
C3216 C3217 1.363 . S
C3216 H3219 0.929 . S
C3217 C3216 1.363 . S
C3217 C3223 1.428 . S
H3218 C3214 0.930 . S
H3219 C3216 0.929 . S
S3220 N3221 1.613 . S
S3220 N3222 1.610 . S
N3221 S3220 1.613 . S
N3221 C3224 1.350 . S
N3222 S3220 1.610 . S
N3222 C3223 1.351 . S
C3223 C3217 1.428 . S
C3223 N3222 1.351 . S
C3223 C3224 1.434 . S
C3224 C3215 1.429 . S
C3224 N3221 1.350 . S
C3224 C3223 1.434 . S
C3225 C3226 1.369 . S
C3225 C3227 1.419 . S
C3225 H3229 0.930 . S
C3226 C3225 1.369 . S
C3226 C3235 1.429 . S
C3227 C3225 1.419 . S
C3227 C3228 1.363 . S
C3227 H3230 0.929 . S
C3228 C3227 1.363 . S
C3228 C3234 1.428 . S
H3229 C3225 0.930 . S
H3230 C3227 0.929 . S
S3231 N3232 1.613 . S
S3231 N3233 1.610 . S
N3232 S3231 1.613 . S
N3232 C3235 1.350 . S
N3233 S3231 1.610 . S
N3233 C3234 1.351 . S
C3234 C3228 1.428 . S
C3234 N3233 1.351 . S
C3234 C3235 1.434 . S
C3235 C3226 1.429 . S
C3235 N3232 1.350 . S
C3235 C3234 1.434 . S
C3236 C3237 1.369 . S
C3236 C3238 1.419 . S
C3236 H3240 0.930 . S
C3237 C3236 1.369 . S
C3237 C3246 1.429 . S
C3238 C3236 1.419 . S
C3238 C3239 1.363 . S
C3238 H3241 0.929 . S
C3239 C3238 1.363 . S
C3239 C3245 1.428 . S
H3240 C3236 0.930 . S
H3241 C3238 0.929 . S
S3242 N3243 1.613 . S
S3242 N3244 1.610 . S
N3243 S3242 1.613 . S
N3243 C3246 1.350 . S
N3244 S3242 1.610 . S
N3244 C3245 1.351 . S
C3245 C3239 1.428 . S
C3245 N3244 1.351 . S
C3245 C3246 1.434 . S
C3246 C3237 1.429 . S
C3246 N3243 1.350 . S
C3246 C3245 1.434 . S
C3247 C3248 1.369 . S
C3247 C3249 1.419 . S
C3247 H3251 0.930 . S
C3248 C3247 1.369 . S
C3248 C3257 1.429 . S
C3249 C3247 1.419 . S
C3249 C3250 1.363 . S
C3249 H3252 0.929 . S
C3250 C3249 1.363 . S
C3250 C3256 1.428 . S
H3251 C3247 0.930 . S
H3252 C3249 0.929 . S
S3253 N3254 1.613 . S
S3253 N3255 1.610 . S
N3254 S3253 1.613 . S
N3254 C3257 1.350 . S
N3255 S3253 1.610 . S
N3255 C3256 1.351 . S
C3256 C3250 1.428 . S
C3256 N3255 1.351 . S
C3256 C3257 1.434 . S
C3257 C3248 1.429 . S
C3257 N3254 1.350 . S
C3257 C3256 1.434 . S
C3258 C3259 1.369 . S
C3258 C3260 1.419 . S
C3258 H3262 0.930 . S
C3259 C3258 1.369 . S
C3259 C3268 1.429 . S
C3260 C3258 1.419 . S
C3260 C3261 1.363 . S
C3260 H3263 0.929 . S
C3261 C3260 1.363 . S
C3261 C3267 1.428 . S
H3262 C3258 0.930 . S
H3263 C3260 0.929 . S
S3264 N3265 1.613 . S
S3264 N3266 1.610 . S
N3265 S3264 1.613 . S
N3265 C3268 1.350 . S
N3266 S3264 1.610 . S
N3266 C3267 1.351 . S
C3267 C3261 1.428 . S
C3267 N3266 1.351 . S
C3267 C3268 1.434 . S
C3268 C3259 1.429 . S
C3268 N3265 1.350 . S
C3268 C3267 1.434 . S
C3269 C3270 1.369 . S
C3269 C3271 1.419 . S
C3269 H3273 0.930 . S
C3270 C3269 1.369 . S
C3270 C3279 1.429 . S
C3271 C3269 1.419 . S
C3271 C3272 1.363 . S
C3271 H3274 0.929 . S
C3272 C3271 1.363 . S
C3272 C3278 1.428 . S
H3273 C3269 0.930 . S
H3274 C3271 0.929 . S
S3275 N3276 1.613 . S
S3275 N3277 1.610 . S
N3276 S3275 1.613 . S
N3276 C3279 1.350 . S
N3277 S3275 1.610 . S
N3277 C3278 1.351 . S
C3278 C3272 1.428 . S
C3278 N3277 1.351 . S
C3278 C3279 1.434 . S
C3279 C3270 1.429 . S
C3279 N3276 1.350 . S
C3279 C3278 1.434 . S
C3280 C3281 1.369 . S
C3280 C3282 1.419 . S
C3280 H3284 0.930 . S
C3281 C3280 1.369 . S
C3281 C3290 1.429 . S
C3282 C3280 1.419 . S
C3282 C3283 1.363 . S
C3282 H3285 0.929 . S
C3283 C3282 1.363 . S
C3283 C3289 1.428 . S
H3284 C3280 0.930 . S
H3285 C3282 0.929 . S
S3286 N3287 1.613 . S
S3286 N3288 1.610 . S
N3287 S3286 1.613 . S
N3287 C3290 1.350 . S
N3288 S3286 1.610 . S
N3288 C3289 1.351 . S
C3289 C3283 1.428 . S
C3289 N3288 1.351 . S
C3289 C3290 1.434 . S
C3290 C3281 1.429 . S
C3290 N3287 1.350 . S
C3290 C3289 1.434 . S
C3291 C3292 1.369 . S
C3291 C3293 1.419 . S
C3291 H3295 0.930 . S
C3292 C3291 1.369 . S
C3292 C3301 1.429 . S
C3293 C3291 1.419 . S
C3293 C3294 1.363 . S
C3293 H3296 0.929 . S
C3294 C3293 1.363 . S
C3294 C3300 1.428 . S
H3295 C3291 0.930 . S
H3296 C3293 0.929 . S
S3297 N3298 1.613 . S
S3297 N3299 1.610 . S
N3298 S3297 1.613 . S
N3298 C3301 1.350 . S
N3299 S3297 1.610 . S
N3299 C3300 1.351 . S
C3300 C3294 1.428 . S
C3300 N3299 1.351 . S
C3300 C3301 1.434 . S
C3301 C3292 1.429 . S
C3301 N3298 1.350 . S
C3301 C3300 1.434 . S
C3302 C3303 1.369 . S
C3302 C3304 1.419 1_556 S
C3302 H3306 0.930 1_556 S
C3303 C3302 1.369 . S
C3303 C3312 1.429 . S
C3304 C3302 1.419 1_554 S
C3304 C3305 1.363 1_554 S
C3304 H3307 0.929 . S
C3305 C3304 1.363 1_556 S
C3305 C3311 1.428 . S
H3306 C3302 0.930 1_554 S
H3307 C3304 0.929 . S
S3308 N3309 1.613 . S
S3308 N3310 1.610 . S
N3309 S3308 1.613 . S
N3309 C3312 1.350 . S
N3310 S3308 1.610 . S
N3310 C3311 1.351 . S
C3311 C3305 1.428 . S
C3311 N3310 1.351 . S
C3311 C3312 1.434 . S
C3312 C3303 1.429 . S
C3312 N3309 1.350 . S
C3312 C3311 1.434 . S
C3313 C3314 1.369 . S
C3313 C3315 1.419 . S
C3313 H3317 0.930 . S
C3314 C3313 1.369 . S
C3314 C3323 1.429 . S
C3315 C3313 1.419 . S
C3315 C3316 1.363 . S
C3315 H3318 0.929 . S
C3316 C3315 1.363 . S
C3316 C3322 1.428 . S
H3317 C3313 0.930 . S
H3318 C3315 0.929 . S
S3319 N3320 1.613 . S
S3319 N3321 1.610 . S
N3320 S3319 1.613 . S
N3320 C3323 1.350 . S
N3321 S3319 1.610 . S
N3321 C3322 1.351 . S
C3322 C3316 1.428 . S
C3322 N3321 1.351 . S
C3322 C3323 1.434 . S
C3323 C3314 1.429 . S
C3323 N3320 1.350 . S
C3323 C3322 1.434 . S
C3324 C3325 1.369 . S
C3324 C3326 1.419 . S
C3324 H3328 0.930 . S
C3325 C3324 1.369 . S
C3325 C3334 1.429 . S
C3326 C3324 1.419 . S
C3326 C3327 1.363 . S
C3326 H3329 0.929 . S
C3327 C3326 1.363 . S
C3327 C3333 1.428 . S
H3328 C3324 0.930 . S
H3329 C3326 0.929 . S
S3330 N3331 1.613 . S
S3330 N3332 1.610 . S
N3331 S3330 1.613 . S
N3331 C3334 1.350 . S
N3332 S3330 1.610 . S
N3332 C3333 1.351 . S
C3333 C3327 1.428 . S
C3333 N3332 1.351 . S
C3333 C3334 1.434 . S
C3334 C3325 1.429 . S
C3334 N3331 1.350 . S
C3334 C3333 1.434 . S
C3335 C3336 1.369 . S
C3335 C3337 1.419 . S
C3335 H3339 0.930 . S
C3336 C3335 1.369 . S
C3336 C3345 1.429 . S
C3337 C3335 1.419 . S
C3337 C3338 1.363 . S
C3337 H3340 0.929 . S
C3338 C3337 1.363 . S
C3338 C3344 1.428 . S
H3339 C3335 0.930 . S
H3340 C3337 0.929 . S
S3341 N3342 1.613 1_655 S
S3341 N3343 1.610 . S
N3342 S3341 1.613 1_455 S
N3342 C3345 1.350 1_455 S
N3343 S3341 1.610 . S
N3343 C3344 1.351 . S
C3344 C3338 1.428 . S
C3344 N3343 1.351 . S
C3344 C3345 1.434 . S
C3345 C3336 1.429 . S
C3345 N3342 1.350 1_655 S
C3345 C3344 1.434 . S
C3346 C3347 1.369 1_455 S
C3346 C3348 1.419 . S
C3346 H3350 0.930 . S
C3347 C3346 1.369 1_655 S
C3347 C3356 1.429 . S
C3348 C3346 1.419 . S
C3348 C3349 1.363 . S
C3348 H3351 0.929 . S
C3349 C3348 1.363 . S
C3349 C3355 1.428 . S
H3350 C3346 0.930 . S
H3351 C3348 0.929 . S
S3352 N3353 1.613 . S
S3352 N3354 1.610 . S
N3353 S3352 1.613 . S
N3353 C3356 1.350 . S
N3354 S3352 1.610 . S
N3354 C3355 1.351 1_655 S
C3355 C3349 1.428 . S
C3355 N3354 1.351 1_455 S
C3355 C3356 1.434 1_455 S
C3356 C3347 1.429 . S
C3356 N3353 1.350 . S
C3356 C3355 1.434 1_655 S
C3357 C3358 1.369 . S
C3357 C3359 1.419 . S
C3357 H3361 0.930 . S
C3358 C3357 1.369 . S
C3358 C3367 1.429 . S
C3359 C3357 1.419 . S
C3359 C3360 1.363 . S
C3359 H3362 0.929 . S
C3360 C3359 1.363 . S
C3360 C3366 1.428 . S
H3361 C3357 0.930 . S
H3362 C3359 0.929 . S
S3363 N3364 1.613 . S
S3363 N3365 1.610 . S
N3364 S3363 1.613 . S
N3364 C3367 1.350 . S
N3365 S3363 1.610 . S
N3365 C3366 1.351 . S
C3366 C3360 1.428 . S
C3366 N3365 1.351 . S
C3366 C3367 1.434 . S
C3367 C3358 1.429 . S
C3367 N3364 1.350 . S
C3367 C3366 1.434 . S
C3368 C3369 1.369 . S
C3368 C3370 1.419 . S
C3368 H3372 0.930 . S
C3369 C3368 1.369 . S
C3369 C3378 1.429 . S
C3370 C3368 1.419 . S
C3370 C3371 1.363 . S
C3370 H3373 0.929 . S
C3371 C3370 1.363 . S
C3371 C3377 1.428 . S
H3372 C3368 0.930 . S
H3373 C3370 0.929 . S
S3374 N3375 1.613 . S
S3374 N3376 1.610 . S
N3375 S3374 1.613 . S
N3375 C3378 1.350 . S
N3376 S3374 1.610 . S
N3376 C3377 1.351 . S
C3377 C3371 1.428 . S
C3377 N3376 1.351 . S
C3377 C3378 1.434 . S
C3378 C3369 1.429 . S
C3378 N3375 1.350 . S
C3378 C3377 1.434 . S
C3379 C3380 1.369 . S
C3379 C3381 1.419 . S
C3379 H3383 0.930 . S
C3380 C3379 1.369 . S
C3380 C3389 1.429 . S
C3381 C3379 1.419 . S
C3381 C3382 1.363 . S
C3381 H3384 0.929 . S
C3382 C3381 1.363 . S
C3382 C3388 1.428 . S
H3383 C3379 0.930 . S
H3384 C3381 0.929 . S
S3385 N3386 1.613 . S
S3385 N3387 1.610 . S
N3386 S3385 1.613 . S
N3386 C3389 1.350 . S
N3387 S3385 1.610 . S
N3387 C3388 1.351 . S
C3388 C3382 1.428 . S
C3388 N3387 1.351 . S
C3388 C3389 1.434 . S
C3389 C3380 1.429 . S
C3389 N3386 1.350 . S
C3389 C3388 1.434 . S
C3390 C3391 1.369 . S
C3390 C3392 1.419 . S
C3390 H3394 0.930 . S
C3391 C3390 1.369 . S
C3391 C3400 1.429 . S
C3392 C3390 1.419 . S
C3392 C3393 1.363 . S
C3392 H3395 0.929 . S
C3393 C3392 1.363 . S
C3393 C3399 1.428 . S
H3394 C3390 0.930 . S
H3395 C3392 0.929 . S
S3396 N3397 1.613 . S
S3396 N3398 1.610 . S
N3397 S3396 1.613 . S
N3397 C3400 1.350 . S
N3398 S3396 1.610 . S
N3398 C3399 1.351 . S
C3399 C3393 1.428 . S
C3399 N3398 1.351 . S
C3399 C3400 1.434 . S
C3400 C3391 1.429 . S
C3400 N3397 1.350 . S
C3400 C3399 1.434 . S
C3401 C3402 1.369 . S
C3401 C3403 1.419 . S
C3401 H3405 0.930 . S
C3402 C3401 1.369 . S
C3402 C3411 1.429 . S
C3403 C3401 1.419 . S
C3403 C3404 1.363 . S
C3403 H3406 0.929 . S
C3404 C3403 1.363 . S
C3404 C3410 1.428 . S
H3405 C3401 0.930 . S
H3406 C3403 0.929 . S
S3407 N3408 1.613 . S
S3407 N3409 1.610 . S
N3408 S3407 1.613 . S
N3408 C3411 1.350 . S
N3409 S3407 1.610 . S
N3409 C3410 1.351 . S
C3410 C3404 1.428 . S
C3410 N3409 1.351 . S
C3410 C3411 1.434 . S
C3411 C3402 1.429 . S
C3411 N3408 1.350 . S
C3411 C3410 1.434 . S
C3412 C3413 1.369 . S
C3412 C3414 1.419 . S
C3412 H3416 0.930 . S
C3413 C3412 1.369 . S
C3413 C3422 1.429 . S
C3414 C3412 1.419 . S
C3414 C3415 1.363 . S
C3414 H3417 0.929 . S
C3415 C3414 1.363 . S
C3415 C3421 1.428 . S
H3416 C3412 0.930 . S
H3417 C3414 0.929 . S
S3418 N3419 1.613 . S
S3418 N3420 1.610 . S
N3419 S3418 1.613 . S
N3419 C3422 1.350 . S
N3420 S3418 1.610 . S
N3420 C3421 1.351 . S
C3421 C3415 1.428 . S
C3421 N3420 1.351 . S
C3421 C3422 1.434 . S
C3422 C3413 1.429 . S
C3422 N3419 1.350 . S
C3422 C3421 1.434 . S
C3423 C3424 1.369 . S
C3423 C3425 1.419 . S
C3423 H3427 0.930 . S
C3424 C3423 1.369 . S
C3424 C3433 1.429 . S
C3425 C3423 1.419 . S
C3425 C3426 1.363 . S
C3425 H3428 0.929 . S
C3426 C3425 1.363 . S
C3426 C3432 1.428 . S
H3427 C3423 0.930 . S
H3428 C3425 0.929 . S
S3429 N3430 1.613 . S
S3429 N3431 1.610 . S
N3430 S3429 1.613 . S
N3430 C3433 1.350 . S
N3431 S3429 1.610 . S
N3431 C3432 1.351 . S
C3432 C3426 1.428 . S
C3432 N3431 1.351 . S
C3432 C3433 1.434 . S
C3433 C3424 1.429 . S
C3433 N3430 1.350 . S
C3433 C3432 1.434 . S
C3434 C3435 1.369 . S
C3434 C3436 1.419 . S
C3434 H3438 0.930 . S
C3435 C3434 1.369 . S
C3435 C3444 1.429 . S
C3436 C3434 1.419 . S
C3436 C3437 1.363 . S
C3436 H3439 0.929 . S
C3437 C3436 1.363 . S
C3437 C3443 1.428 . S
H3438 C3434 0.930 . S
H3439 C3436 0.929 . S
S3440 N3441 1.613 . S
S3440 N3442 1.610 . S
N3441 S3440 1.613 . S
N3441 C3444 1.350 . S
N3442 S3440 1.610 . S
N3442 C3443 1.351 . S
C3443 C3437 1.428 . S
C3443 N3442 1.351 . S
C3443 C3444 1.434 . S
C3444 C3435 1.429 . S
C3444 N3441 1.350 . S
C3444 C3443 1.434 . S
C3445 C3446 1.369 . S
C3445 C3447 1.419 . S
C3445 H3449 0.930 . S
C3446 C3445 1.369 . S
C3446 C3455 1.429 . S
C3447 C3445 1.419 . S
C3447 C3448 1.363 . S
C3447 H3450 0.929 . S
C3448 C3447 1.363 . S
C3448 C3454 1.428 . S
H3449 C3445 0.930 . S
H3450 C3447 0.929 . S
S3451 N3452 1.613 . S
S3451 N3453 1.610 . S
N3452 S3451 1.613 . S
N3452 C3455 1.350 . S
N3453 S3451 1.610 . S
N3453 C3454 1.351 . S
C3454 C3448 1.428 . S
C3454 N3453 1.351 . S
C3454 C3455 1.434 . S
C3455 C3446 1.429 . S
C3455 N3452 1.350 . S
C3455 C3454 1.434 . S
C3456 C3457 1.369 . S
C3456 C3458 1.419 . S
C3456 H3460 0.930 . S
C3457 C3456 1.369 . S
C3457 C3466 1.429 . S
C3458 C3456 1.419 . S
C3458 C3459 1.363 . S
C3458 H3461 0.929 . S
C3459 C3458 1.363 . S
C3459 C3465 1.428 . S
H3460 C3456 0.930 . S
H3461 C3458 0.929 . S
S3462 N3463 1.613 . S
S3462 N3464 1.610 . S
N3463 S3462 1.613 . S
N3463 C3466 1.350 . S
N3464 S3462 1.610 . S
N3464 C3465 1.351 . S
C3465 C3459 1.428 . S
C3465 N3464 1.351 . S
C3465 C3466 1.434 . S
C3466 C3457 1.429 . S
C3466 N3463 1.350 . S
C3466 C3465 1.434 . S
C3467 C3468 1.369 . S
C3467 C3469 1.419 . S
C3467 H3471 0.930 . S
C3468 C3467 1.369 . S
C3468 C3477 1.429 . S
C3469 C3467 1.419 . S
C3469 C3470 1.363 . S
C3469 H3472 0.929 . S
C3470 C3469 1.363 . S
C3470 C3476 1.428 . S
H3471 C3467 0.930 . S
H3472 C3469 0.929 . S
S3473 N3474 1.613 . S
S3473 N3475 1.610 . S
N3474 S3473 1.613 . S
N3474 C3477 1.350 . S
N3475 S3473 1.610 . S
N3475 C3476 1.351 . S
C3476 C3470 1.428 . S
C3476 N3475 1.351 . S
C3476 C3477 1.434 . S
C3477 C3468 1.429 . S
C3477 N3474 1.350 . S
C3477 C3476 1.434 . S
C3478 C3479 1.369 . S
C3478 C3480 1.419 . S
C3478 H3482 0.930 . S
C3479 C3478 1.369 . S
C3479 C3488 1.429 . S
C3480 C3478 1.419 . S
C3480 C3481 1.363 . S
C3480 H3483 0.929 . S
C3481 C3480 1.363 . S
C3481 C3487 1.428 . S
H3482 C3478 0.930 . S
H3483 C3480 0.929 . S
S3484 N3485 1.613 . S
S3484 N3486 1.610 . S
N3485 S3484 1.613 . S
N3485 C3488 1.350 . S
N3486 S3484 1.610 . S
N3486 C3487 1.351 . S
C3487 C3481 1.428 . S
C3487 N3486 1.351 . S
C3487 C3488 1.434 . S
C3488 C3479 1.429 . S
C3488 N3485 1.350 . S
C3488 C3487 1.434 . S
C3489 C3490 1.360 1_565 S
C3489 C3491 1.422 . S
C3489 H3493 0.936 . S
C3490 C3489 1.360 1_545 S
C3490 C3499 1.429 . S
C3491 C3489 1.422 . S
C3491 C3492 1.363 1_565 S
C3491 H3494 0.929 . S
C3492 C3491 1.363 1_545 S
C3492 C3498 1.428 . S
H3493 C3489 0.936 . S
H3494 C3491 0.929 . S
S3495 N3496 1.613 1_556 S
S3495 N3497 1.610 1_556 S
N3496 S3495 1.613 1_554 S
N3496 C3499 1.350 . S
N3497 S3495 1.610 1_554 S
N3497 C3498 1.351 . S
C3498 C3492 1.428 . S
C3498 N3497 1.351 . S
C3498 C3499 1.434 . S
C3499 C3490 1.429 . S
C3499 N3496 1.350 . S
C3499 C3498 1.434 . S
C3500 C3501 1.369 . S
C3500 C3502 1.419 . S
C3500 H3504 0.930 . S
C3501 C3500 1.369 . S
C3501 C3510 1.429 . S
C3502 C3500 1.419 . S
C3502 C3503 1.363 . S
C3502 H3505 0.929 . S
C3503 C3502 1.363 . S
C3503 C3509 1.428 . S
H3504 C3500 0.930 . S
H3505 C3502 0.929 . S
S3506 N3507 1.613 . S
S3506 N3508 1.610 . S
N3507 S3506 1.613 . S
N3507 C3510 1.350 . S
N3508 S3506 1.610 . S
N3508 C3509 1.351 . S
C3509 C3503 1.428 . S
C3509 N3508 1.351 . S
C3509 C3510 1.434 . S
C3510 C3501 1.429 . S
C3510 N3507 1.350 . S
C3510 C3509 1.434 . S
C3511 C3512 1.369 . S
C3511 C3513 1.419 . S
C3511 H3515 0.930 1_554 S
C3512 C3511 1.369 . S
C3512 C3521 1.429 . S
C3513 C3511 1.419 . S
C3513 C3514 1.363 . S
C3513 H3516 0.929 . S
C3514 C3513 1.363 . S
C3514 C3520 1.428 . S
H3515 C3511 0.930 1_556 S
H3516 C3513 0.929 . S
S3517 N3518 1.613 . S
S3517 N3519 1.610 . S
N3518 S3517 1.613 . S
N3518 C3521 1.350 . S
N3519 S3517 1.610 . S
N3519 C3520 1.351 . S
C3520 C3514 1.428 . S
C3520 N3519 1.351 . S
C3520 C3521 1.434 . S
C3521 C3512 1.429 . S
C3521 N3518 1.350 . S
C3521 C3520 1.434 . S
C3522 C3523 1.369 . S
C3522 C3524 1.419 . S
C3522 H3526 0.930 . S
C3523 C3522 1.369 . S
C3523 C3532 1.429 . S
C3524 C3522 1.419 . S
C3524 C3525 1.363 . S
C3524 H3527 0.929 . S
C3525 C3524 1.363 . S
C3525 C3531 1.428 . S
H3526 C3522 0.930 . S
H3527 C3524 0.929 . S
S3528 N3529 1.613 . S
S3528 N3530 1.610 . S
N3529 S3528 1.613 . S
N3529 C3532 1.350 . S
N3530 S3528 1.610 . S
N3530 C3531 1.351 . S
C3531 C3525 1.428 . S
C3531 N3530 1.351 . S
C3531 C3532 1.434 . S
C3532 C3523 1.429 . S
C3532 N3529 1.350 . S
C3532 C3531 1.434 . S
C3533 C3534 1.369 . S
C3533 C3535 1.419 . S
C3533 H3537 0.930 . S
C3534 C3533 1.369 . S
C3534 C3543 1.429 . S
C3535 C3533 1.419 . S
C3535 C3536 1.363 . S
C3535 H3538 0.929 . S
C3536 C3535 1.363 . S
C3536 C3542 1.428 . S
H3537 C3533 0.930 . S
H3538 C3535 0.929 . S
S3539 N3540 1.613 . S
S3539 N3541 1.610 . S
N3540 S3539 1.613 . S
N3540 C3543 1.350 . S
N3541 S3539 1.610 . S
N3541 C3542 1.351 . S
C3542 C3536 1.428 . S
C3542 N3541 1.351 . S
C3542 C3543 1.434 . S
C3543 C3534 1.429 . S
C3543 N3540 1.350 . S
C3543 C3542 1.434 . S
C3544 C3545 1.369 . S
C3544 C3546 1.419 . S
C3544 H3548 0.930 . S
C3545 C3544 1.369 . S
C3545 C3554 1.429 . S
C3546 C3544 1.419 . S
C3546 C3547 1.363 . S
C3546 H3549 0.929 . S
C3547 C3546 1.363 . S
C3547 C3553 1.428 . S
H3548 C3544 0.930 . S
H3549 C3546 0.929 . S
S3550 N3551 1.613 . S
S3550 N3552 1.610 . S
N3551 S3550 1.613 . S
N3551 C3554 1.350 . S
N3552 S3550 1.610 . S
N3552 C3553 1.351 . S
C3553 C3547 1.428 . S
C3553 N3552 1.351 . S
C3553 C3554 1.434 . S
C3554 C3545 1.429 . S
C3554 N3551 1.350 . S
C3554 C3553 1.434 . S
C3555 C3556 1.369 . S
C3555 C3557 1.419 . S
C3555 H3559 0.930 . S
C3556 C3555 1.369 . S
C3556 C3565 1.429 . S
C3557 C3555 1.419 . S
C3557 C3558 1.363 . S
C3557 H3560 0.929 . S
C3558 C3557 1.363 . S
C3558 C3564 1.428 . S
H3559 C3555 0.930 . S
H3560 C3557 0.929 . S
S3561 N3562 1.613 . S
S3561 N3563 1.610 . S
N3562 S3561 1.613 . S
N3562 C3565 1.350 . S
N3563 S3561 1.610 . S
N3563 C3564 1.351 . S
C3564 C3558 1.428 . S
C3564 N3563 1.351 . S
C3564 C3565 1.434 . S
C3565 C3556 1.429 . S
C3565 N3562 1.350 . S
C3565 C3564 1.434 . S
C3566 C3567 1.369 . S
C3566 C3568 1.419 . S
C3566 H3570 0.930 . S
C3567 C3566 1.369 . S
C3567 C3576 1.429 . S
C3568 C3566 1.419 . S
C3568 C3569 1.363 . S
C3568 H3571 0.929 . S
C3569 C3568 1.363 . S
C3569 C3575 1.428 . S
H3570 C3566 0.930 . S
H3571 C3568 0.929 . S
S3572 N3573 1.613 . S
S3572 N3574 1.610 . S
N3573 S3572 1.613 . S
N3573 C3576 1.350 . S
N3574 S3572 1.610 . S
N3574 C3575 1.351 . S
C3575 C3569 1.428 . S
C3575 N3574 1.351 . S
C3575 C3576 1.434 . S
C3576 C3567 1.429 . S
C3576 N3573 1.350 . S
C3576 C3575 1.434 . S
C3577 C3578 1.369 . S
C3577 C3579 1.419 . S
C3577 H3581 0.930 . S
C3578 C3577 1.369 . S
C3578 C3587 1.429 . S
C3579 C3577 1.419 . S
C3579 C3580 1.363 . S
C3579 H3582 0.929 . S
C3580 C3579 1.363 . S
C3580 C3586 1.428 . S
H3581 C3577 0.930 . S
H3582 C3579 0.929 . S
S3583 N3584 1.613 . S
S3583 N3585 1.610 . S
N3584 S3583 1.613 . S
N3584 C3587 1.350 . S
N3585 S3583 1.610 . S
N3585 C3586 1.351 . S
C3586 C3580 1.428 . S
C3586 N3585 1.351 . S
C3586 C3587 1.434 . S
C3587 C3578 1.429 . S
C3587 N3584 1.350 . S
C3587 C3586 1.434 . S
C3588 C3589 1.369 . S
C3588 C3590 1.419 . S
C3588 H3592 0.930 . S
C3589 C3588 1.369 . S
C3589 C3598 1.429 . S
C3590 C3588 1.419 . S
C3590 C3591 1.363 . S
C3590 H3593 0.941 . S
C3591 C3590 1.363 . S
C3591 C3597 1.428 . S
H3592 C3588 0.930 . S
H3593 C3590 0.941 . S
S3594 N3595 1.613 . S
S3594 N3596 1.610 . S
N3595 S3594 1.613 . S
N3595 C3598 1.350 . S
N3596 S3594 1.610 . S
N3596 C3597 1.351 . S
C3597 C3591 1.428 . S
C3597 N3596 1.351 . S
C3597 C3598 1.434 . S
C3598 C3589 1.429 . S
C3598 N3595 1.350 . S
C3598 C3597 1.434 . S
C3599 C3600 1.369 . S
C3599 C3601 1.419 . S
C3599 H3603 0.930 . S
C3600 C3599 1.369 . S
C3600 C3609 1.429 . S
C3601 C3599 1.419 . S
C3601 C3602 1.363 . S
C3601 H3604 0.929 . S
C3602 C3601 1.363 . S
C3602 C3608 1.428 . S
H3603 C3599 0.930 . S
H3604 C3601 0.929 . S
S3605 N3606 1.613 . S
S3605 N3607 1.610 . S
N3606 S3605 1.613 . S
N3606 C3609 1.350 . S
N3607 S3605 1.610 . S
N3607 C3608 1.351 . S
C3608 C3602 1.428 . S
C3608 N3607 1.351 . S
C3608 C3609 1.434 . S
C3609 C3600 1.429 . S
C3609 N3606 1.350 . S
C3609 C3608 1.434 . S
C3610 C3611 1.369 . S
C3610 C3612 1.419 . S
C3610 H3614 0.930 . S
C3611 C3610 1.369 . S
C3611 C3620 1.429 . S
C3612 C3610 1.419 . S
C3612 C3613 1.363 . S
C3612 H3615 0.929 . S
C3613 C3612 1.363 . S
C3613 C3619 1.428 . S
H3614 C3610 0.930 . S
H3615 C3612 0.929 . S
S3616 N3617 1.613 . S
S3616 N3618 1.610 . S
N3617 S3616 1.613 . S
N3617 C3620 1.350 . S
N3618 S3616 1.610 . S
N3618 C3619 1.351 . S
C3619 C3613 1.428 . S
C3619 N3618 1.351 . S
C3619 C3620 1.434 . S
C3620 C3611 1.429 . S
C3620 N3617 1.350 . S
C3620 C3619 1.434 . S
C3621 C3622 1.369 . S
C3621 C3623 1.419 . S
C3621 H3625 0.930 . S
C3622 C3621 1.369 . S
C3622 C3631 1.429 . S
C3623 C3621 1.419 . S
C3623 C3624 1.363 . S
C3623 H3626 0.929 . S
C3624 C3623 1.363 . S
C3624 C3630 1.428 . S
H3625 C3621 0.930 . S
H3626 C3623 0.929 . S
S3627 N3628 1.613 . S
S3627 N3629 1.610 . S
N3628 S3627 1.613 . S
N3628 C3631 1.350 . S
N3629 S3627 1.610 . S
N3629 C3630 1.351 . S
C3630 C3624 1.428 . S
C3630 N3629 1.351 . S
C3630 C3631 1.434 . S
C3631 C3622 1.429 . S
C3631 N3628 1.350 . S
C3631 C3630 1.434 . S
C3632 C3633 1.369 . S
C3632 C3634 1.419 . S
C3632 H3636 0.930 . S
C3633 C3632 1.369 . S
C3633 C3642 1.429 . S
C3634 C3632 1.419 . S
C3634 C3635 1.363 . S
C3634 H3637 0.929 . S
C3635 C3634 1.363 . S
C3635 C3641 1.428 . S
H3636 C3632 0.930 . S
H3637 C3634 0.929 . S
S3638 N3639 1.613 . S
S3638 N3640 1.610 . S
N3639 S3638 1.613 . S
N3639 C3642 1.350 . S
N3640 S3638 1.610 . S
N3640 C3641 1.351 . S
C3641 C3635 1.428 . S
C3641 N3640 1.351 . S
C3641 C3642 1.434 . S
C3642 C3633 1.429 . S
C3642 N3639 1.350 . S
C3642 C3641 1.434 . S
C3643 C3644 1.369 . S
C3643 C3645 1.419 . S
C3643 H3647 0.930 . S
C3644 C3643 1.369 . S
C3644 C3653 1.429 . S
C3645 C3643 1.419 . S
C3645 C3646 1.363 . S
C3645 H3648 0.929 . S
C3646 C3645 1.363 . S
C3646 C3652 1.428 . S
H3647 C3643 0.930 . S
H3648 C3645 0.929 . S
S3649 N3650 1.613 . S
S3649 N3651 1.610 . S
N3650 S3649 1.613 . S
N3650 C3653 1.350 . S
N3651 S3649 1.610 . S
N3651 C3652 1.351 . S
C3652 C3646 1.428 . S
C3652 N3651 1.351 . S
C3652 C3653 1.434 . S
C3653 C3644 1.429 . S
C3653 N3650 1.350 . S
C3653 C3652 1.434 . S
C3654 C3655 1.369 1_655 S
C3654 C3656 1.419 1_655 S
C3654 H3658 0.930 . S
C3655 C3654 1.369 1_455 S
C3655 C3664 1.429 . S
C3656 C3654 1.419 1_455 S
C3656 C3657 1.363 . S
C3656 H3659 0.929 1_455 S
C3657 C3656 1.363 . S
C3657 C3663 1.428 . S
H3658 C3654 0.930 . S
H3659 C3656 0.929 1_655 S
S3660 N3661 1.613 . S
S3660 N3662 1.610 . S
N3661 S3660 1.613 . S
N3661 C3664 1.350 . S
N3662 S3660 1.610 . S
N3662 C3663 1.351 . S
C3663 C3657 1.428 . S
C3663 N3662 1.351 . S
C3663 C3664 1.434 . S
C3664 C3655 1.429 . S
C3664 N3661 1.350 . S
C3664 C3663 1.434 . S
C3665 C3666 1.369 . S
C3665 C3667 1.419 . S
C3665 H3669 0.930 . S
C3666 C3665 1.369 . S
C3666 C3675 1.429 . S
C3667 C3665 1.419 . S
C3667 C3668 1.363 . S
C3667 H3670 0.929 . S
C3668 C3667 1.363 . S
C3668 C3674 1.428 . S
H3669 C3665 0.930 . S
H3670 C3667 0.929 . S
S3671 N3672 1.613 . S
S3671 N3673 1.610 . S
N3672 S3671 1.613 . S
N3672 C3675 1.350 . S
N3673 S3671 1.610 . S
N3673 C3674 1.351 . S
C3674 C3668 1.428 . S
C3674 N3673 1.351 . S
C3674 C3675 1.434 . S
C3675 C3666 1.429 . S
C3675 N3672 1.350 . S
C3675 C3674 1.434 . S
C3676 C3677 1.369 . S
C3676 C3678 1.419 . S
C3676 H3680 0.930 . S
C3677 C3676 1.369 . S
C3677 C3686 1.429 . S
C3678 C3676 1.419 . S
C3678 C3679 1.363 . S
C3678 H3681 0.929 . S
C3679 C3678 1.363 . S
C3679 C3685 1.428 . S
H3680 C3676 0.930 . S
H3681 C3678 0.929 . S
S3682 N3683 1.613 . S
S3682 N3684 1.610 . S
N3683 S3682 1.613 . S
N3683 C3686 1.350 . S
N3684 S3682 1.610 . S
N3684 C3685 1.351 . S
C3685 C3679 1.428 . S
C3685 N3684 1.351 . S
C3685 C3686 1.434 . S
C3686 C3677 1.429 . S
C3686 N3683 1.350 . S
C3686 C3685 1.434 . S
C3687 C3688 1.369 . S
C3687 C3689 1.419 . S
C3687 H3691 0.930 . S
C3688 C3687 1.369 . S
C3688 C3697 1.429 . S
C3689 C3687 1.419 . S
C3689 C3690 1.363 . S
C3689 H3692 0.929 . S
C3690 C3689 1.363 . S
C3690 C3696 1.428 . S
H3691 C3687 0.930 . S
H3692 C3689 0.929 . S
S3693 N3694 1.613 . S
S3693 N3695 1.610 . S
N3694 S3693 1.613 . S
N3694 C3697 1.350 . S
N3695 S3693 1.610 . S
N3695 C3696 1.351 . S
C3696 C3690 1.428 . S
C3696 N3695 1.351 . S
C3696 C3697 1.434 . S
C3697 C3688 1.429 . S
C3697 N3694 1.350 . S
C3697 C3696 1.434 . S
C3698 C3699 1.369 . S
C3698 C3700 1.419 . S
C3698 H3702 0.930 . S
C3699 C3698 1.369 . S
C3699 C3708 1.429 1_655 S
C3700 C3698 1.419 . S
C3700 C3701 1.363 . S
C3700 H3703 0.929 . S
C3701 C3700 1.363 . S
C3701 C3707 1.428 . S
H3702 C3698 0.930 . S
H3703 C3700 0.929 . S
S3704 N3705 1.613 . S
S3704 N3706 1.610 . S
N3705 S3704 1.613 . S
N3705 C3708 1.350 . S
N3706 S3704 1.610 . S
N3706 C3707 1.351 1_455 S
C3707 C3701 1.428 . S
C3707 N3706 1.351 1_655 S
C3707 C3708 1.434 1_655 S
C3708 C3699 1.429 1_455 S
C3708 N3705 1.350 . S
C3708 C3707 1.434 1_455 S
C3709 C3710 1.369 . S
C3709 C3711 1.419 . S
C3709 H3713 0.930 . S
C3710 C3709 1.369 . S
C3710 C3719 1.429 . S
C3711 C3709 1.419 . S
C3711 C3712 1.363 . S
C3711 H3714 0.929 . S
C3712 C3711 1.363 . S
C3712 C3718 1.428 . S
H3713 C3709 0.930 . S
H3714 C3711 0.929 . S
S3715 N3716 1.613 . S
S3715 N3717 1.610 . S
N3716 S3715 1.613 . S
N3716 C3719 1.350 . S
N3717 S3715 1.610 . S
N3717 C3718 1.351 . S
C3718 C3712 1.428 . S
C3718 N3717 1.351 . S
C3718 C3719 1.434 . S
C3719 C3710 1.429 . S
C3719 N3716 1.350 . S
C3719 C3718 1.434 . S
C3720 C3721 1.369 . S
C3720 C3722 1.419 . S
C3720 H3724 0.930 . S
C3721 C3720 1.369 . S
C3721 C3730 1.429 . S
C3722 C3720 1.419 . S
C3722 C3723 1.363 . S
C3722 H3725 0.929 . S
C3723 C3722 1.363 . S
C3723 C3729 1.428 . S
H3724 C3720 0.930 . S
H3725 C3722 0.929 . S
S3726 N3727 1.613 . S
S3726 N3728 1.610 . S
N3727 S3726 1.613 . S
N3727 C3730 1.350 . S
N3728 S3726 1.610 . S
N3728 C3729 1.351 . S
C3729 C3723 1.428 . S
C3729 N3728 1.351 . S
C3729 C3730 1.434 . S
C3730 C3721 1.429 . S
C3730 N3727 1.350 . S
C3730 C3729 1.434 . S
C3731 C3732 1.369 . S
C3731 C3733 1.419 . S
C3731 H3735 0.930 . S
C3732 C3731 1.369 . S
C3732 C3741 1.429 . S
C3733 C3731 1.419 . S
C3733 C3734 1.363 . S
C3733 H3736 0.929 . S
C3734 C3733 1.363 . S
C3734 C3740 1.428 1_565 S
H3735 C3731 0.930 . S
H3736 C3733 0.929 . S
S3737 N3738 1.613 1_545 S
S3737 N3739 1.610 . S
N3738 S3737 1.613 1_565 S
N3738 C3741 1.350 . S
N3739 S3737 1.610 . S
N3739 C3740 1.351 . S
C3740 C3734 1.428 1_545 S
C3740 N3739 1.351 . S
C3740 C3741 1.434 1_545 S
C3741 C3732 1.429 . S
C3741 N3738 1.350 . S
C3741 C3740 1.434 1_565 S
C3742 C3743 1.369 . S
C3742 C3744 1.419 . S
C3742 H3746 0.930 . S
C3743 C3742 1.369 . S
C3743 C3752 1.429 . S
C3744 C3742 1.419 . S
C3744 C3745 1.363 . S
C3744 H3747 0.929 . S
C3745 C3744 1.363 . S
C3745 C3751 1.428 . S
H3746 C3742 0.930 . S
H3747 C3744 0.929 . S
S3748 N3749 1.613 . S
S3748 N3750 1.610 . S
N3749 S3748 1.613 . S
N3749 C3752 1.350 . S
N3750 S3748 1.610 . S
N3750 C3751 1.351 . S
C3751 C3745 1.428 . S
C3751 N3750 1.351 . S
C3751 C3752 1.434 . S
C3752 C3743 1.429 . S
C3752 N3749 1.350 . S
C3752 C3751 1.434 . S
C3753 C3754 1.369 1_556 S
C3753 C3755 1.419 . S
C3753 H3757 0.930 . S
C3754 C3753 1.369 1_554 S
C3754 C3763 1.429 . S
C3755 C3753 1.419 . S
C3755 C3756 1.362 1_556 S
C3755 H3758 0.930 . S
C3756 C3755 1.362 1_554 S
C3756 C3762 1.428 . S
H3757 C3753 0.930 . S
H3758 C3755 0.930 . S
S3759 N3760 1.613 . S
S3759 N3761 1.610 . S
N3760 S3759 1.613 . S
N3760 C3763 1.350 . S
N3761 S3759 1.610 . S
N3761 C3762 1.351 . S
C3762 C3756 1.428 . S
C3762 N3761 1.351 . S
C3762 C3763 1.434 . S
C3763 C3754 1.429 . S
C3763 N3760 1.350 . S
C3763 C3762 1.434 . S
C3764 C3765 1.369 . S
C3764 C3766 1.419 . S
C3764 H3768 0.930 . S
C3765 C3764 1.369 . S
C3765 C3774 1.429 . S
C3766 C3764 1.419 . S
C3766 C3767 1.363 . S
C3766 H3769 0.929 . S
C3767 C3766 1.363 . S
C3767 C3773 1.428 . S
H3768 C3764 0.930 . S
H3769 C3766 0.929 . S
S3770 N3771 1.613 . S
S3770 N3772 1.610 . S
N3771 S3770 1.613 . S
N3771 C3774 1.350 . S
N3772 S3770 1.610 . S
N3772 C3773 1.351 . S
C3773 C3767 1.428 . S
C3773 N3772 1.351 . S
C3773 C3774 1.434 . S
C3774 C3765 1.429 . S
C3774 N3771 1.350 . S
C3774 C3773 1.434 . S
C3775 C3776 1.369 . S
C3775 C3777 1.419 . S
C3775 H3779 0.930 . S
C3776 C3775 1.369 . S
C3776 C3785 1.429 1_554 S
C3777 C3775 1.419 . S
C3777 C3778 1.363 1_554 S
C3777 H3780 0.929 . S
C3778 C3777 1.363 1_556 S
C3778 C3784 1.428 . S
H3779 C3775 0.930 . S
H3780 C3777 0.929 . S
S3781 N3782 1.613 . S
S3781 N3783 1.610 . S
N3782 S3781 1.613 . S
N3782 C3785 1.350 . S
N3783 S3781 1.610 . S
N3783 C3784 1.351 . S
C3784 C3778 1.428 . S
C3784 N3783 1.351 . S
C3784 C3785 1.434 . S
C3785 C3776 1.429 1_556 S
C3785 N3782 1.350 . S
C3785 C3784 1.434 . S
C3786 C3787 1.369 . S
C3786 C3788 1.419 . S
C3786 H3790 0.930 . S
C3787 C3786 1.369 . S
C3787 C3796 1.429 . S
C3788 C3786 1.419 . S
C3788 C3789 1.363 . S
C3788 H3791 0.929 . S
C3789 C3788 1.363 . S
C3789 C3795 1.428 . S
H3790 C3786 0.930 . S
H3791 C3788 0.929 . S
S3792 N3793 1.613 . S
S3792 N3794 1.610 . S
N3793 S3792 1.613 . S
N3793 C3796 1.350 . S
N3794 S3792 1.610 . S
N3794 C3795 1.351 . S
C3795 C3789 1.428 . S
C3795 N3794 1.351 . S
C3795 C3796 1.434 . S
C3796 C3787 1.429 . S
C3796 N3793 1.350 . S
C3796 C3795 1.434 . S
C3797 C3798 1.369 . S
C3797 C3799 1.419 . S
C3797 H3801 0.930 . S
C3798 C3797 1.369 . S
C3798 C3807 1.429 . S
C3799 C3797 1.419 . S
C3799 C3800 1.363 . S
C3799 H3802 0.929 . S
C3800 C3799 1.363 . S
C3800 C3806 1.428 . S
H3801 C3797 0.930 . S
H3802 C3799 0.929 . S
S3803 N3804 1.613 . S
S3803 N3805 1.610 . S
N3804 S3803 1.613 . S
N3804 C3807 1.350 . S
N3805 S3803 1.610 . S
N3805 C3806 1.351 . S
C3806 C3800 1.428 . S
C3806 N3805 1.351 . S
C3806 C3807 1.434 . S
C3807 C3798 1.429 . S
C3807 N3804 1.350 . S
C3807 C3806 1.434 . S
C2753 C665 1.107 . S
C2755 C2120 1.140 . S
C2764 C381 1.333 . S
C2766 C2154 1.327 . S
C2775 C460 0.616 . S
C2777 C2223 0.595 . S
C2788 C2261 1.038 . S
C2786 C585 1.041 . S
C2797 C108 1.654 . S
C2799 C2301 1.593 . S
C2810 C2320 0.400 . S
C2808 C196 0.445 . S
C2821 C2354 1.530 . S
C2819 C313 1.509 . S
C2830 C49 1.698 . S
C2832 C2423 1.692 . S
C2843 C2129 2.460 . S
C2841 C1457 2.487 1_455 S
C2852 C1545 1.262 . S
C2854 C2181 1.212 . S
C2865 C2194 1.349 . S
C2863 C1721 1.366 . S
C2876 C2263 1.745 . S
C2874 C1113 1.657 . S
C2885 C1428 2.092 . S
C2887 C2303 2.174 . S
C2898 C2329 1.835 . S
C2896 C1516 1.894 . S
C2909 C2381 0.627 . S
C2907 C1692 0.610 . S
C2920 C2394 2.289 . S
C2918 C1085 2.306 . S
C2931 C2124 2.510 . S
C2929 C988 2.519 1_545 S
C2940 C1817 1.950 . S
C2942 C2434 1.961 . S
C2953 C2484 2.658 . S
C2951 C2081 2.681 . S
C2964 C2543 1.883 1_655 S
C2962 C1993 1.798 . S
C2973 C761 1.703 . S
C2975 C2421 1.684 . S
C2984 C821 1.531 . S
C2986 C2221 1.491 . S
C2995 C2053 2.517 . S
C2997 C2554 2.476 . S
C3008 C2623 0.767 . S
C3006 C1868 0.765 . S
C3019 C2141 1.138 . S
C3017 C372 1.098 . S
C3030 C2609 1.325 . S
C3028 C645 1.331 . S
C3039 C577 0.598 . S
C3041 C2204 0.593 . S
C3050 C497 1.040 . S
C3052 C2560 1.029 . S
C3063 C2280 1.594 . S
C3061 C57 1.657 . S
C3072 C293 0.443 . S
C3074 C2501 0.393 . S
C3085 C2369 1.537 . S
C3083 C205 1.497 . S
C3096 C2644 1.690 . S
C3094 C145 1.706 . S
C3107 C2114 2.457 . S
C3105 C909 2.486 . S
C3118 C2600 1.224 . S
C3116 C1956 1.254 . S
C3127 C724 1.363 . S
C3129 C2209 1.347 . S
C3138 C1780 1.644 . S
C3140 C2564 1.743 . S
C3149 C937 2.096 . S
C3151 C2284 2.169 . S
C3162 C2474 1.839 . S
C3160 C1985 1.886 . S
C3171 C753 0.593 . S
C3173 C2360 0.638 . S
C3182 C1809 2.304 . S
C3184 C2649 2.286 . S
C3193 C1173 2.517 . S
C3195 C2143 2.507 1_655 S
C3204 C1105 1.942 . S
C3206 C2449 1.960 . S
C3215 C1633 2.678 . S
C3217 C2343 2.655 . S
C3226 C1553 1.801 . S
C3228 C2524 1.872 . S
C3239 C2640 1.676 . S
C3237 C1729 1.717 . S
C3248 C1340 1.527 . S
C3250 C2200 1.498 . S
C3261 C2249 2.470 . S
C3259 C1604 2.512 . S
C3272 C2164 0.758 . S
C3270 C1252 0.760 . S
C3281 C489 1.100 . S
C3283 C2680 1.142 . S
C3294 C2594 1.325 . S
C3292 C557 1.333 . S
C3303 C636 0.605 . S
C3305 C2743 0.598 1_556 S
C3314 C409 1.037 . S
C3316 C2581 1.040 . S
C3325 C284 1.644 . S
C3327 C2461 1.603 . S
C3338 C2480 0.401 . S
C3336 C20 0.443 1_655 S
C3349 C2514 1.532 . S
C3347 C137 1.504 . S
C3360 C2663 1.692 . S
C3358 C225 1.695 . S
C3371 C2689 2.459 . S
C3369 C1641 2.488 . S
C3380 C1193 1.262 . S
C3382 C2621 1.211 . S
C3393 C2714 1.352 . S
C3391 C1289 1.365 . S
C3404 C2583 1.744 . S
C3402 C1377 1.657 . S
C3415 C2463 2.174 . S
C3413 C1613 2.090 . S
C3424 C1164 1.894 . S
C3426 C2489 1.834 . S
C3437 C2541 0.628 . S
C3435 C1261 0.609 . S
C3446 C1349 2.304 . S
C3448 C2634 2.290 . S
C3459 C2684 2.509 . S
C3457 C1965 2.518 . S
C3468 C849 1.947 . S
C3470 C2274 1.961 . S
C3481 C2324 2.658 . S
C3479 C929 2.681 . S
C3492 C2383 1.878 . S
C3490 C1017 1.806 . S
C3503 C2661 1.678 . S
C3501 C1897 1.711 . S
C3512 C1789 1.522 . S
C3514 C2741 1.500 . S
C3525 C2234 2.474 . S
C3523 C900 2.519 . S
C3536 C2183 0.766 . S
C3534 C733 0.768 . S
C3545 C548 1.104 . S
C3547 C2701 1.136 . S
C3558 C2169 1.322 . S
C3556 C469 1.330 . S
C3567 C401 0.595 . S
C3569 C2724 0.591 . S
C3578 C673 1.034 . S
C3580 C2240 1.037 . S
C3589 C233 1.651 . S
C3591 C2440 1.600 . S
C3602 C2341 0.383 . S
C3600 C117 0.460 . S
C3611 C29 1.495 . S
C3613 C2529 1.528 . S
C3622 C321 1.695 . S
C3624 C2404 1.694 . S
C3635 C2674 2.457 . S
C3633 C2044 2.486 . S
C3644 C997 1.268 . S
C3646 C2160 1.212 . S
C3657 C2729 1.345 . S
C3655 C1877 1.364 1_455 S
C3666 C812 1.644 . S
C3668 C2244 1.743 . S
C3677 C2073 2.100 . S
C3679 C2444 2.166 . S
C3690 C2314 1.837 . S
C3688 C1025 1.888 . S
C3699 C1905 0.609 . S
C3701 C2520 0.616 . S
C3712 C2409 2.283 . S
C3710 C841 2.307 . S
C3723 C2703 2.506 . S
C3721 C1525 2.516 . S
C3734 C2289 1.960 1_665 S
C3732 C1369 1.942 . S
C3743 C1465 2.677 . S
C3745 C2503 2.655 . S
C3756 C2364 1.875 . S
C3754 C1201 1.795 . S
C3765 C1281 1.720 . S
C3767 C2400 1.675 . S
C3776 C1076 1.526 . S
C3778 C2720 1.497 . S
C3789 C2569 2.473 . S
C3787 C1437 2.510 . S
C3800 C2604 0.764 . S
C3798 C1701 0.763 . S
