# Generated by pormake.
# Topology ocu, (6,8)-cn, num edge types: 1
# Building blocks:
#     Node 0, Type 0, BuildingBlock: VOLQOD_clean_sbu_1, # of connection points: 6
#     Node 1, Type 0, BuildingBlock: VOLQOD_clean_sbu_1, # of connection points: 6
#     Node 2, Type 0, BuildingBlock: VOLQOD_clean_sbu_1, # of connection points: 6
#     Node 3, Type 0, BuildingBlock: VOLQOD_clean_sbu_1, # of connection points: 6
#     Node 4, Type 0, BuildingBlock: VOLQOD_clean_sbu_1, # of connection points: 6
#     Node 5, Type 0, BuildingBlock: VOLQOD_clean_sbu_1, # of connection points: 6
#     Node 6, Type 0, BuildingBlock: VOLQOD_clean_sbu_1, # of connection points: 6
#     Node 7, Type 0, BuildingBlock: VOLQOD_clean_sbu_1, # of connection points: 6
#     Node 8, Type 1, BuildingBlock: TAGTUT_clean_sbu_1, # of connection points: 8
#     Node 9, Type 1, BuildingBlock: TAGTUT_clean_sbu_1, # of connection points: 8
#     Node 10, Type 1, BuildingBlock: TAGTUT_clean_sbu_1, # of connection points: 8
#     Node 11, Type 1, BuildingBlock: TAGTUT_clean_sbu_1, # of connection points: 8
#     Node 12, Type 1, BuildingBlock: TAGTUT_clean_sbu_1, # of connection points: 8
#     Node 13, Type 1, BuildingBlock: TAGTUT_clean_sbu_1, # of connection points: 8
#     Edge 14, Type (0, 1), None
#     Edge 15, Type (0, 1), None
#     Edge 16, Type (0, 1), None
#     Edge 17, Type (0, 1), None
#     Edge 18, Type (0, 1), None
#     Edge 19, Type (0, 1), None
#     Edge 20, Type (0, 1), None
#     Edge 21, Type (0, 1), None
#     Edge 22, Type (0, 1), None
#     Edge 23, Type (0, 1), None
#     Edge 24, Type (0, 1), None
#     Edge 25, Type (0, 1), None
#     Edge 26, Type (0, 1), None
#     Edge 27, Type (0, 1), None
#     Edge 28, Type (0, 1), None
#     Edge 29, Type (0, 1), None
#     Edge 30, Type (0, 1), None
#     Edge 31, Type (0, 1), None
#     Edge 32, Type (0, 1), None
#     Edge 33, Type (0, 1), None
#     Edge 34, Type (0, 1), None
#     Edge 35, Type (0, 1), None
#     Edge 36, Type (0, 1), None
#     Edge 37, Type (0, 1), None
#     Edge 38, Type (0, 1), None
#     Edge 39, Type (0, 1), None
#     Edge 40, Type (0, 1), None
#     Edge 41, Type (0, 1), None
#     Edge 42, Type (0, 1), None
#     Edge 43, Type (0, 1), None
#     Edge 44, Type (0, 1), None
#     Edge 45, Type (0, 1), None
#     Edge 46, Type (0, 1), None
#     Edge 47, Type (0, 1), None
#     Edge 48, Type (0, 1), None
#     Edge 49, Type (0, 1), None
#     Edge 50, Type (0, 1), None
#     Edge 51, Type (0, 1), None
#     Edge 52, Type (0, 1), None
#     Edge 53, Type (0, 1), None
#     Edge 54, Type (0, 1), None
#     Edge 55, Type (0, 1), None
#     Edge 56, Type (0, 1), None
#     Edge 57, Type (0, 1), None
#     Edge 58, Type (0, 1), None
#     Edge 59, Type (0, 1), None
#     Edge 60, Type (0, 1), None
#     Edge 61, Type (0, 1), None
# Relax obj value: 0.185
# Max RMSD: 0.344
# Mean RMSD: 0.215
data_MOF--net-ocu--node1-VOLQOD_clean_sbu_1--node2-TAGTUT_clean_sbu_1--edge1-none
_symmetry_space_group_name_H-M    P1
_symmetry_Int_Tables_number       1
_symmetry_cell_setting            triclinic
loop_
_symmetry_equiv_pos_as_xyz
'x, y, z'
_cell_length_a     20.164088
_cell_length_b     21.054583
_cell_length_c     19.629956
_cell_angle_alpha  91.031037
_cell_angle_beta   93.317952
_cell_angle_gamma 105.80233
loop_
_atom_site_label
_atom_site_type_symbol
_atom_site_fract_x
_atom_site_fract_y
_atom_site_fract_z
_atom_type_partial_charge
O0 O 0.3523 0.31353 0.22311 0.0
Zn1 Zn 0.30677 0.25556 0.30396 0.0
O2 O 0.2249 0.18915 0.26484 0.0
Zn3 Zn 0.14572 0.19441 0.31064 0.0
Zn4 Zn 0.20634 0.20932 0.17576 0.0
Zn5 Zn 0.22536 0.1002 0.26479 0.0
O6 O 0.07807 0.10973 0.33429 0.0
O7 O 0.15353 0.05099 0.32539 0.0
O8 O 0.26336 0.31394 0.37031 0.0
O9 O 0.18789 0.22521 0.40055 0.0
O10 O 0.10574 0.26048 0.2594 0.0
O11 O 0.10731 0.20626 0.16208 0.0
O12 O 0.24853 0.15593 0.11588 0.0
O13 O 0.37002 0.19879 0.34827 0.0
O14 O 0.22869 0.06235 0.17143 0.0
O15 O 0.31232 0.09679 0.31101 0.0
C16 C 0.3187 0.32899 0.17134 0.0
C17 C 0.09895 0.05958 0.34909 0.0
C18 C 0.08946 0.25068 0.19562 0.0
C19 C 0.21249 0.28667 0.40597 0.0
C20 C 0.25231 0.09706 0.12131 0.0
C21 C 0.36442 0.13625 0.34237 0.0
O22 O 0.25559 0.29978 0.15754 0.0
O23 O 0.71483 0.12971 0.13521 0.0
Zn24 Zn 0.78978 0.17903 0.21329 0.0
O25 O 0.72993 0.20921 0.27289 0.0
Zn26 Zn 0.73249 0.29966 0.2722 0.0
Zn27 Zn 0.63614 0.15616 0.26213 0.0
Zn28 Zn 0.76335 0.18876 0.35829 0.0
O29 O 0.77936 0.34171 0.36344 0.0
O30 O 0.75776 0.25381 0.42635 0.0
O31 O 0.85379 0.26757 0.17263 0.0
O32 O 0.80021 0.34162 0.20586 0.0
O33 O 0.64183 0.3107 0.22801 0.0
O34 O 0.5783 0.20739 0.20325 0.0
O35 O 0.60355 0.10587 0.3467 0.0
O36 O 0.83769 0.11851 0.28199 0.0
O37 O 0.70803 0.09708 0.38003 0.0
O38 O 0.86355 0.19994 0.3555 0.0
C39 C 0.6573 0.08876 0.14773 0.0
C40 C 0.79412 0.3116 0.41578 0.0
C41 C 0.59021 0.26988 0.1954 0.0
C42 C 0.84636 0.3267 0.1726 0.0
C43 C 0.64242 0.07408 0.37625 0.0
C44 C 0.86981 0.14445 0.33895 0.0
O45 O 0.6416 0.07946 0.20837 0.0
O46 O 0.624 0.58676 0.23812 0.0
Zn47 Zn 0.70184 0.64059 0.3104 0.0
O48 O 0.76062 0.70757 0.25915 0.0
Zn49 Zn 0.85832 0.72149 0.26768 0.0
Zn50 Zn 0.73036 0.67906 0.16756 0.0
Zn51 Zn 0.74713 0.79081 0.2812 0.0
O52 O 0.89835 0.79129 0.34038 0.0
O53 O 0.83747 0.8564 0.30341 0.0
O54 O 0.77252 0.59325 0.34796 0.0
O55 O 0.87599 0.65049 0.31574 0.0
O56 O 0.89742 0.70667 0.17961 0.0
O57 O 0.80457 0.68569 0.10649 0.0
O58 O 0.65598 0.72224 0.13902 0.0
O59 O 0.65968 0.68571 0.3889 0.0
O60 O 0.68006 0.80922 0.21203 0.0
O61 O 0.70457 0.79079 0.36616 0.0
C62 C 0.63434 0.56454 0.17952 0.0
C63 C 0.87342 0.83924 0.35156 0.0
C64 C 0.86627 0.68497 0.12198 0.0
C65 C 0.83837 0.60327 0.34589 0.0
C66 C 0.64282 0.7739 0.16308 0.0
C67 C 0.67038 0.7476 0.4036 0.0
O68 O 0.69434 0.58224 0.15987 0.0
O69 O 0.31418 0.7366 0.38211 0.0
Zn70 Zn 0.25939 0.66743 0.31345 0.0
O71 O 0.20094 0.70952 0.26814 0.0
Zn72 Zn 0.10483 0.66581 0.27315 0.0
Zn73 Zn 0.23003 0.8031 0.28118 0.0
Zn74 Zn 0.212 0.69015 0.1774 0.0
O75 O 0.075 0.59751 0.19419 0.0
O76 O 0.12235 0.67571 0.12671 0.0
O77 O 0.19578 0.59286 0.36348 0.0
O78 O 0.09166 0.61095 0.35076 0.0
O79 O 0.06148 0.73673 0.29734 0.0
O80 O 0.14699 0.82921 0.30501 0.0
O81 O 0.29185 0.84305 0.20697 0.0
O82 O 0.31966 0.64083 0.24008 0.0
O83 O 0.29516 0.75629 0.14326 0.0
O84 O 0.22671 0.60297 0.17315 0.0
C85 C 0.32051 0.79735 0.3982 0.0
C86 C 0.09203 0.61513 0.13496 0.0
C87 C 0.09922 0.78665 0.33252 0.0
C88 C 0.13209 0.58057 0.37716 0.0
C89 C 0.32076 0.81653 0.16239 0.0
C90 C 0.28976 0.60983 0.18522 0.0
O91 O 0.28983 0.83196 0.36377 0.0
O92 O 0.21483 0.62971 0.63521 0.0
Zn93 Zn 0.28978 0.67903 0.71329 0.0
O94 O 0.22993 0.70921 0.77289 0.0
Zn95 Zn 0.23249 0.79966 0.7722 0.0
Zn96 Zn 0.13614 0.65616 0.76213 0.0
Zn97 Zn 0.26335 0.68876 0.85829 0.0
O98 O 0.27936 0.84171 0.86344 0.0
O99 O 0.25775 0.75381 0.92635 0.0
O100 O 0.35379 0.76757 0.67263 0.0
O101 O 0.30021 0.84162 0.70587 0.0
O102 O 0.14183 0.8107 0.72801 0.0
O103 O 0.0783 0.70739 0.70325 0.0
O104 O 0.10355 0.60587 0.84669 0.0
O105 O 0.33769 0.61851 0.78199 0.0
O106 O 0.20803 0.59708 0.88003 0.0
O107 O 0.36355 0.69994 0.8555 0.0
C108 C 0.1573 0.58876 0.64773 0.0
C109 C 0.29412 0.8116 0.91578 0.0
C110 C 0.09021 0.76988 0.6954 0.0
C111 C 0.34636 0.8267 0.67261 0.0
C112 C 0.14242 0.57408 0.87625 0.0
C113 C 0.36981 0.64445 0.83895 0.0
O114 O 0.1416 0.57946 0.70837 0.0
O115 O 0.124 0.08676 0.73812 0.0
Zn116 Zn 0.20184 0.14059 0.8104 0.0
O117 O 0.26062 0.20758 0.75915 0.0
Zn118 Zn 0.35832 0.22149 0.76768 0.0
Zn119 Zn 0.23036 0.17906 0.66755 0.0
Zn120 Zn 0.24713 0.29081 0.7812 0.0
O121 O 0.39835 0.29129 0.84038 0.0
O122 O 0.33747 0.3564 0.80341 0.0
O123 O 0.27252 0.09325 0.84796 0.0
O124 O 0.37599 0.15049 0.81574 0.0
O125 O 0.39742 0.20667 0.67961 0.0
O126 O 0.30458 0.18569 0.60649 0.0
O127 O 0.15599 0.22225 0.63902 0.0
O128 O 0.15968 0.18571 0.8889 0.0
O129 O 0.18006 0.30922 0.71203 0.0
O130 O 0.20457 0.29079 0.86615 0.0
C131 C 0.13434 0.06454 0.67952 0.0
C132 C 0.37342 0.33924 0.85156 0.0
C133 C 0.36627 0.18498 0.62198 0.0
C134 C 0.33837 0.10327 0.84589 0.0
C135 C 0.14282 0.2739 0.66308 0.0
C136 C 0.17038 0.2476 0.9036 0.0
O137 O 0.19434 0.08224 0.65987 0.0
O138 O 0.81418 0.2366 0.88211 0.0
Zn139 Zn 0.75939 0.16743 0.81345 0.0
O140 O 0.70094 0.20952 0.76814 0.0
Zn141 Zn 0.60483 0.16581 0.77315 0.0
Zn142 Zn 0.73003 0.3031 0.78118 0.0
Zn143 Zn 0.712 0.19015 0.6774 0.0
O144 O 0.575 0.09751 0.69419 0.0
O145 O 0.62235 0.17571 0.62671 0.0
O146 O 0.69578 0.09285 0.86348 0.0
O147 O 0.59166 0.11095 0.85076 0.0
O148 O 0.56148 0.23673 0.79734 0.0
O149 O 0.64699 0.3292 0.80501 0.0
O150 O 0.79185 0.34305 0.70697 0.0
O151 O 0.81966 0.14083 0.74008 0.0
O152 O 0.79516 0.25629 0.64326 0.0
O153 O 0.72671 0.10297 0.67315 0.0
C154 C 0.82051 0.29735 0.89819 0.0
C155 C 0.59203 0.11513 0.63496 0.0
C156 C 0.59922 0.28665 0.83252 0.0
C157 C 0.63209 0.08057 0.87716 0.0
C158 C 0.82076 0.31653 0.66239 0.0
C159 C 0.78976 0.10983 0.68522 0.0
O160 O 0.78984 0.33196 0.86377 0.0
O161 O 0.8523 0.81353 0.72311 0.0
Zn162 Zn 0.80677 0.75556 0.80396 0.0
O163 O 0.7249 0.68915 0.76484 0.0
Zn164 Zn 0.64572 0.69441 0.81064 0.0
Zn165 Zn 0.70634 0.70932 0.67576 0.0
Zn166 Zn 0.72536 0.60019 0.76479 0.0
O167 O 0.57807 0.60973 0.83429 0.0
O168 O 0.65353 0.55099 0.82539 0.0
O169 O 0.76336 0.81394 0.87031 0.0
O170 O 0.68789 0.7252 0.90055 0.0
O171 O 0.60574 0.76048 0.7594 0.0
O172 O 0.60731 0.70626 0.66208 0.0
O173 O 0.74852 0.65592 0.61588 0.0
O174 O 0.87002 0.69878 0.84827 0.0
O175 O 0.72868 0.56235 0.67143 0.0
O176 O 0.81232 0.59679 0.81101 0.0
C177 C 0.8187 0.82898 0.67134 0.0
C178 C 0.59895 0.55958 0.84909 0.0
C179 C 0.58946 0.75068 0.69562 0.0
C180 C 0.71249 0.78666 0.90597 0.0
C181 C 0.75231 0.59706 0.62131 0.0
C182 C 0.86442 0.63625 0.84236 0.0
O183 O 0.75559 0.79978 0.65754 0.0
C184 C 0.82699 0.09328 0.62878 0.0
C185 C 0.8862 0.1061 0.39891 0.0
C186 C 0.85851 0.85166 0.42304 0.0
Mg187 Mg 0.95865 0.10834 0.55105 0.0
O188 O 0.91774 0.01801 0.54876 0.0
Mg189 Mg 0.82348 -0.02059 0.50532 0.0
Mg190 Mg 0.96329 -0.04691 0.51799 0.0
O191 O 0.00695 0.8839 0.48923 0.0
Mg192 Mg 0.96394 0.79217 0.49885 0.0
Mg193 Mg 0.10327 0.92269 0.52393 0.0
C194 C 0.07849 0.05189 0.62488 0.0
C195 C 0.07213 0.01969 0.40716 0.0
O196 O 0.79333 0.04874 0.58415 0.0
O197 O 0.88997 0.12553 0.62401 0.0
O198 O 0.84021 0.05439 0.41515 0.0
O199 O 0.93637 0.13481 0.44255 0.0
O200 O 0.05142 0.09951 0.61193 0.0
O201 O 0.05862 -0.00374 0.59094 0.0
C202 C 0.84979 0.8788 0.62222 0.0
O203 O 0.91181 0.88735 0.60555 0.0
O204 O 0.80872 0.90543 0.58911 0.0
O205 O 0.11893 0.84879 0.43825 0.0
O206 O 0.01719 0.77114 0.41512 0.0
O207 O 0.09513 0.85013 0.61205 0.0
C208 C 0.07739 0.80314 0.39906 0.0
O209 O 0.00312 0.76296 0.60066 0.0
O210 O 0.86326 0.80972 0.46887 0.0
C211 C 0.05847 0.79621 0.6347 0.0
O212 O 0.87102 0.91242 0.44062 0.0
O213 O 0.01382 0.0181 0.43019 0.0
O214 O 0.11259 -0.00928 0.43706 0.0
C215 C 0.30004 0.07491 0.08028 0.0
C216 C 0.37377 0.07022 0.89316 0.0
C217 C 0.36753 0.83098 0.94109 0.0
Mg218 Mg 0.45286 0.09203 0.03427 0.0
O219 O 0.42234 0.00182 0.04914 0.0
Mg220 Mg 0.33189 -0.04832 0.99632 0.0
Mg221 Mg 0.48305 -0.05431 0.02054 0.0
O222 O 0.5428 0.89093 0.98966 0.0
Mg223 Mg 0.51479 0.79947 0.98305 0.0
Mg224 Mg 0.634 0.93755 0.03877 0.0
C225 C 0.59849 0.06553 0.09722 0.0
C226 C 0.60513 0.03197 0.92688 0.0
O227 O 0.27919 0.01689 0.05271 0.0
O228 O 0.36328 0.11071 0.08148 0.0
O229 O 0.33725 0.01632 0.91267 0.0
O230 O 0.42857 0.10407 0.92708 0.0
O231 O 0.56207 0.1059 0.08112 0.0
O232 O 0.5731 0.00267 0.09071 0.0
C233 C 0.35803 0.86044 0.11281 0.0
O234 O 0.42312 0.87132 0.10297 0.0
O235 O 0.31878 0.88665 0.07827 0.0
O236 O 0.68764 0.87042 0.97681 0.0
O237 O 0.59976 0.79283 0.9222 0.0
O238 O 0.61777 0.86582 0.12158 0.0
C239 C 0.66487 0.82171 0.93352 0.0
O240 O 0.55448 0.76776 0.07707 0.0
O241 O 0.40132 0.78779 0.95351 0.0
C242 C 0.59716 0.80326 0.12259 0.0
O243 O 0.39613 0.89245 0.94764 0.0
O244 O 0.54095 0.01776 0.94058 0.0
O245 O 0.64862 0.00694 0.95721 0.0
C246 C 0.89391 0.64022 0.08212 0.0
C247 C 0.90489 0.60362 0.888 0.0
C248 C 0.87405 0.32889 0.95001 0.0
Mg249 Mg 0.00432 0.60616 0.00875 0.0
O250 O 0.9559 0.52022 0.04256 0.0
Mg251 Mg 0.86183 0.48201 1.00487 0.0
Mg252 Mg -0.00198 0.44678 0.02051 0.0
O253 O 0.04421 0.37945 0.99445 0.0
Mg254 Mg 0.00451 0.29146 0.01636 0.0
Mg255 Mg 0.13565 0.42015 0.04072 0.0
C256 C 0.10463 0.56761 0.08442 0.0
C257 C 0.11274 0.5163 0.91683 0.0
O258 O 0.8533 0.58252 0.06187 0.0
O259 O 0.95891 0.65757 0.07528 0.0
O260 O 0.87103 0.54855 0.91122 0.0
O261 O 0.96385 0.63518 0.9144 0.0
O262 O 0.10443 0.58885 0.02476 0.0
O263 O 0.09253 0.50451 0.09401 0.0
C264 C 0.88135 0.37738 0.12456 0.0
O265 O 0.94248 0.38162 0.10689 0.0
O266 O 0.84613 0.41443 0.09834 0.0
O267 O 0.1642 0.33426 0.9791 0.0
O268 O 0.07238 0.24479 0.96579 0.0
O269 O 0.11497 0.34649 0.13233 0.0
C270 C 0.13553 0.27417 0.9568 0.0
O271 O 0.00987 0.27718 0.12156 0.0
O272 O 0.90552 0.28805 0.9737 0.0
C273 C 0.06727 0.29938 0.155 0.0
O274 O 0.90061 0.39262 0.95349 0.0
O275 O 0.04929 0.50444 0.93025 0.0
O276 O 0.15437 0.49016 0.95053 0.0
C277 C 0.32699 0.59328 0.12878 0.0
C278 C 0.38619 0.6061 0.89891 0.0
C279 C 0.35851 0.35166 0.92304 0.0
Mg280 Mg 0.45865 0.60834 0.05105 0.0
O281 O 0.41774 0.51802 0.04876 0.0
Mg282 Mg 0.32348 0.47941 1.00532 0.0
Mg283 Mg 0.46329 0.45309 0.01799 0.0
O284 O 0.50695 0.3839 0.98923 0.0
Mg285 Mg 0.46394 0.29217 0.99885 0.0
Mg286 Mg 0.60327 0.42269 0.02393 0.0
C287 C 0.57849 0.55189 0.12488 0.0
C288 C 0.57213 0.51969 0.90716 0.0
O289 O 0.29333 0.54874 0.08415 0.0
O290 O 0.38997 0.62553 0.12401 0.0
O291 O 0.34021 0.5544 0.91515 0.0
O292 O 0.43637 0.63481 0.94256 0.0
O293 O 0.55141 0.59951 0.11194 0.0
O294 O 0.55862 0.49626 0.09094 0.0
C295 C 0.34979 0.37881 0.12222 0.0
O296 O 0.41181 0.38735 0.10555 0.0
O297 O 0.30872 0.40543 0.08911 0.0
O298 O 0.61893 0.34879 0.93826 0.0
O299 O 0.51719 0.27114 0.91512 0.0
O300 O 0.59513 0.35013 0.11205 0.0
C301 C 0.57739 0.30314 0.89906 0.0
O302 O 0.50312 0.26296 0.10066 0.0
O303 O 0.36326 0.30972 0.96887 0.0
C304 C 0.55847 0.29621 0.1347 0.0
O305 O 0.37101 0.41242 0.94062 0.0
O306 O 0.51382 0.5181 0.93019 0.0
O307 O 0.61259 0.49072 0.93706 0.0
C308 C 0.80004 0.57491 0.58028 0.0
C309 C 0.87377 0.57022 0.39316 0.0
C310 C 0.86753 0.33098 0.44109 0.0
Mg311 Mg 0.95286 0.59203 0.53427 0.0
O312 O 0.92233 0.50182 0.54914 0.0
Mg313 Mg 0.83189 0.45168 0.49632 0.0
Mg314 Mg -0.01695 0.44569 0.52054 0.0
O315 O 0.0428 0.39093 0.48966 0.0
Mg316 Mg 0.0148 0.29947 0.48305 0.0
Mg317 Mg 0.134 0.43755 0.53878 0.0
C318 C 0.09849 0.56553 0.59723 0.0
C319 C 0.10513 0.53197 0.42688 0.0
O320 O 0.77919 0.51689 0.55271 0.0
O321 O 0.86328 0.61071 0.58148 0.0
O322 O 0.83725 0.51632 0.41267 0.0
O323 O 0.92857 0.60407 0.42708 0.0
O324 O 0.06207 0.6059 0.58112 0.0
O325 O 0.0731 0.50267 0.59071 0.0
C326 C 0.85803 0.36044 0.61281 0.0
O327 O 0.92312 0.37132 0.60297 0.0
O328 O 0.81878 0.38665 0.57827 0.0
O329 O 0.18764 0.37042 0.47681 0.0
O330 O 0.09976 0.29283 0.4222 0.0
O331 O 0.11777 0.36582 0.62158 0.0
C332 C 0.16487 0.32171 0.43352 0.0
O333 O 0.05448 0.26776 0.57707 0.0
O334 O 0.90132 0.28779 0.45351 0.0
C335 C 0.09716 0.30326 0.62259 0.0
O336 O 0.89613 0.39245 0.44764 0.0
O337 O 0.04095 0.51776 0.44058 0.0
O338 O 0.14862 0.50694 0.45721 0.0
C339 C 0.39391 0.14022 0.58212 0.0
C340 C 0.40489 0.10363 0.388 0.0
C341 C 0.37405 0.82889 0.45001 0.0
Mg342 Mg 0.50432 0.10616 0.50875 0.0
O343 O 0.4559 0.02022 0.54256 0.0
Mg344 Mg 0.36183 -0.01799 0.50487 0.0
Mg345 Mg 0.49802 -0.05322 0.52051 0.0
O346 O 0.54421 0.87945 0.49446 0.0
Mg347 Mg 0.50451 0.79146 0.51636 0.0
Mg348 Mg 0.63565 0.92015 0.54072 0.0
C349 C 0.60463 0.06761 0.58442 0.0
C350 C 0.61274 0.0163 0.41683 0.0
O351 O 0.35331 0.08252 0.56187 0.0
O352 O 0.45891 0.15757 0.57529 0.0
O353 O 0.37103 0.04855 0.41122 0.0
O354 O 0.46385 0.13518 0.4144 0.0
O355 O 0.60443 0.08885 0.52476 0.0
O356 O 0.59254 0.00451 0.59401 0.0
C357 C 0.38135 0.87738 0.62456 0.0
O358 O 0.44248 0.88162 0.60689 0.0
O359 O 0.34613 0.91443 0.59834 0.0
O360 O 0.6642 0.83426 0.4791 0.0
O361 O 0.57238 0.74479 0.46579 0.0
O362 O 0.61497 0.84649 0.63233 0.0
C363 C 0.63553 0.77417 0.45681 0.0
O364 O 0.50987 0.77718 0.62156 0.0
O365 O 0.40552 0.78805 0.4737 0.0
C366 C 0.56727 0.79938 0.655 0.0
O367 O 0.40061 0.89262 0.45349 0.0
O368 O 0.54929 0.00444 0.43026 0.0
O369 O 0.65437 -0.00984 0.45053 0.0
loop_
_geom_bond_atom_site_label_1
_geom_bond_atom_site_label_2
_geom_bond_distance
_geom_bond_site_symmetry_2
_ccdc_geom_bond_type
O0 Zn1 1.953 . S
O0 C16 1.225 . S
Zn1 O0 1.953 . S
Zn1 O2 1.949 . S
Zn1 O8 1.919 . S
Zn1 O13 1.924 . S
O2 Zn1 1.949 . S
O2 Zn3 1.923 . S
O2 Zn4 1.950 . S
O2 Zn5 1.945 . S
Zn3 O2 1.923 . S
Zn3 O6 1.933 . S
Zn3 O9 1.941 . S
Zn3 O10 1.965 . S
Zn4 O2 1.950 . S
Zn4 O11 1.938 . S
Zn4 O12 1.906 . S
Zn4 O22 1.953 . S
Zn5 O2 1.945 . S
Zn5 O7 1.932 . S
Zn5 O14 1.977 . S
Zn5 O15 1.910 . S
O6 Zn3 1.933 . S
O6 C17 1.226 . S
O7 Zn5 1.932 . S
O7 C17 1.307 . S
O8 Zn1 1.919 . S
O8 C19 1.253 . S
O9 Zn3 1.941 . S
O9 C19 1.283 . S
O10 Zn3 1.965 . S
O10 C18 1.303 . S
O11 Zn4 1.938 . S
O11 C18 1.247 . S
O12 Zn4 1.906 . S
O12 C20 1.304 . S
O13 Zn1 1.924 . S
O13 C21 1.311 . S
O14 Zn5 1.977 . S
O14 C20 1.272 . S
O15 Zn5 1.910 . S
O15 C21 1.231 . S
C16 O0 1.225 . S
C16 O22 1.298 . S
C17 O6 1.226 . S
C17 O7 1.307 . S
C18 O10 1.303 . S
C18 O11 1.247 . S
C19 O8 1.253 . S
C19 O9 1.283 . S
C20 O12 1.304 . S
C20 O14 1.272 . S
C21 O13 1.311 . S
C21 O15 1.231 . S
O22 Zn4 1.953 . S
O22 C16 1.298 . S
O23 Zn24 1.953 . S
O23 C39 1.225 . S
Zn24 O23 1.953 . S
Zn24 O25 1.949 . S
Zn24 O31 1.919 . S
Zn24 O36 1.924 . S
O25 Zn24 1.949 . S
O25 Zn26 1.923 . S
O25 Zn27 1.950 . S
O25 Zn28 1.945 . S
Zn26 O25 1.923 . S
Zn26 O29 1.933 . S
Zn26 O32 1.941 . S
Zn26 O33 1.965 . S
Zn27 O25 1.950 . S
Zn27 O34 1.938 . S
Zn27 O35 1.906 . S
Zn27 O45 1.953 . S
Zn28 O25 1.945 . S
Zn28 O30 1.932 . S
Zn28 O37 1.977 . S
Zn28 O38 1.910 . S
O29 Zn26 1.933 . S
O29 C40 1.226 . S
O30 Zn28 1.932 . S
O30 C40 1.307 . S
O31 Zn24 1.919 . S
O31 C42 1.253 . S
O32 Zn26 1.941 . S
O32 C42 1.283 . S
O33 Zn26 1.965 . S
O33 C41 1.303 . S
O34 Zn27 1.938 . S
O34 C41 1.247 . S
O35 Zn27 1.906 . S
O35 C43 1.304 . S
O36 Zn24 1.924 . S
O36 C44 1.311 . S
O37 Zn28 1.977 . S
O37 C43 1.272 . S
O38 Zn28 1.910 . S
O38 C44 1.231 . S
C39 O23 1.225 . S
C39 O45 1.298 . S
C40 O29 1.226 . S
C40 O30 1.307 . S
C41 O33 1.303 . S
C41 O34 1.247 . S
C42 O31 1.253 . S
C42 O32 1.283 . S
C43 O35 1.304 . S
C43 O37 1.272 . S
C44 O36 1.311 . S
C44 O38 1.231 . S
O45 Zn27 1.953 . S
O45 C39 1.298 . S
O46 Zn47 1.953 . S
O46 C62 1.225 . S
Zn47 O46 1.953 . S
Zn47 O48 1.949 . S
Zn47 O54 1.919 . S
Zn47 O59 1.924 . S
O48 Zn47 1.949 . S
O48 Zn49 1.923 . S
O48 Zn50 1.950 . S
O48 Zn51 1.945 . S
Zn49 O48 1.923 . S
Zn49 O52 1.933 . S
Zn49 O55 1.941 . S
Zn49 O56 1.965 . S
Zn50 O48 1.950 . S
Zn50 O57 1.938 . S
Zn50 O58 1.906 . S
Zn50 O68 1.953 . S
Zn51 O48 1.945 . S
Zn51 O53 1.932 . S
Zn51 O60 1.977 . S
Zn51 O61 1.910 . S
O52 Zn49 1.933 . S
O52 C63 1.226 . S
O53 Zn51 1.932 . S
O53 C63 1.307 . S
O54 Zn47 1.919 . S
O54 C65 1.253 . S
O55 Zn49 1.941 . S
O55 C65 1.283 . S
O56 Zn49 1.965 . S
O56 C64 1.303 . S
O57 Zn50 1.938 . S
O57 C64 1.247 . S
O58 Zn50 1.906 . S
O58 C66 1.304 . S
O59 Zn47 1.924 . S
O59 C67 1.311 . S
O60 Zn51 1.977 . S
O60 C66 1.272 . S
O61 Zn51 1.910 . S
O61 C67 1.231 . S
C62 O46 1.225 . S
C62 O68 1.298 . S
C63 O52 1.226 . S
C63 O53 1.307 . S
C64 O56 1.303 . S
C64 O57 1.247 . S
C65 O54 1.253 . S
C65 O55 1.283 . S
C66 O58 1.304 . S
C66 O60 1.272 . S
C67 O59 1.311 . S
C67 O61 1.231 . S
O68 Zn50 1.953 . S
O68 C62 1.298 . S
O69 Zn70 1.953 . S
O69 C85 1.225 . S
Zn70 O69 1.953 . S
Zn70 O71 1.949 . S
Zn70 O77 1.919 . S
Zn70 O82 1.924 . S
O71 Zn70 1.949 . S
O71 Zn72 1.923 . S
O71 Zn73 1.950 . S
O71 Zn74 1.945 . S
Zn72 O71 1.923 . S
Zn72 O75 1.933 . S
Zn72 O78 1.941 . S
Zn72 O79 1.965 . S
Zn73 O71 1.950 . S
Zn73 O80 1.938 . S
Zn73 O81 1.906 . S
Zn73 O91 1.953 . S
Zn74 O71 1.945 . S
Zn74 O76 1.932 . S
Zn74 O83 1.977 . S
Zn74 O84 1.910 . S
O75 Zn72 1.933 . S
O75 C86 1.226 . S
O76 Zn74 1.932 . S
O76 C86 1.307 . S
O77 Zn70 1.919 . S
O77 C88 1.253 . S
O78 Zn72 1.941 . S
O78 C88 1.283 . S
O79 Zn72 1.965 . S
O79 C87 1.303 . S
O80 Zn73 1.938 . S
O80 C87 1.247 . S
O81 Zn73 1.906 . S
O81 C89 1.304 . S
O82 Zn70 1.924 . S
O82 C90 1.311 . S
O83 Zn74 1.977 . S
O83 C89 1.272 . S
O84 Zn74 1.910 . S
O84 C90 1.231 . S
C85 O69 1.225 . S
C85 O91 1.298 . S
C86 O75 1.226 . S
C86 O76 1.307 . S
C87 O79 1.303 . S
C87 O80 1.247 . S
C88 O77 1.253 . S
C88 O78 1.283 . S
C89 O81 1.304 . S
C89 O83 1.272 . S
C90 O82 1.311 . S
C90 O84 1.231 . S
O91 Zn73 1.953 . S
O91 C85 1.298 . S
O92 Zn93 1.953 . S
O92 C108 1.225 . S
Zn93 O92 1.953 . S
Zn93 O94 1.949 . S
Zn93 O100 1.919 . S
Zn93 O105 1.924 . S
O94 Zn93 1.949 . S
O94 Zn95 1.923 . S
O94 Zn96 1.950 . S
O94 Zn97 1.945 . S
Zn95 O94 1.923 . S
Zn95 O98 1.933 . S
Zn95 O101 1.941 . S
Zn95 O102 1.965 . S
Zn96 O94 1.950 . S
Zn96 O103 1.938 . S
Zn96 O104 1.906 . S
Zn96 O114 1.953 . S
Zn97 O94 1.945 . S
Zn97 O99 1.932 . S
Zn97 O106 1.977 . S
Zn97 O107 1.910 . S
O98 Zn95 1.933 . S
O98 C109 1.226 . S
O99 Zn97 1.932 . S
O99 C109 1.307 . S
O100 Zn93 1.919 . S
O100 C111 1.253 . S
O101 Zn95 1.941 . S
O101 C111 1.283 . S
O102 Zn95 1.965 . S
O102 C110 1.303 . S
O103 Zn96 1.938 . S
O103 C110 1.247 . S
O104 Zn96 1.906 . S
O104 C112 1.304 . S
O105 Zn93 1.924 . S
O105 C113 1.311 . S
O106 Zn97 1.977 . S
O106 C112 1.272 . S
O107 Zn97 1.910 . S
O107 C113 1.231 . S
C108 O92 1.225 . S
C108 O114 1.298 . S
C109 O98 1.226 . S
C109 O99 1.307 . S
C110 O102 1.303 . S
C110 O103 1.247 . S
C111 O100 1.253 . S
C111 O101 1.283 . S
C112 O104 1.304 . S
C112 O106 1.272 . S
C113 O105 1.311 . S
C113 O107 1.231 . S
O114 Zn96 1.953 . S
O114 C108 1.298 . S
O115 Zn116 1.953 . S
O115 C131 1.225 . S
Zn116 O115 1.953 . S
Zn116 O117 1.949 . S
Zn116 O123 1.919 . S
Zn116 O128 1.924 . S
O117 Zn116 1.949 . S
O117 Zn118 1.923 . S
O117 Zn119 1.950 . S
O117 Zn120 1.945 . S
Zn118 O117 1.923 . S
Zn118 O121 1.933 . S
Zn118 O124 1.941 . S
Zn118 O125 1.965 . S
Zn119 O117 1.950 . S
Zn119 O126 1.938 . S
Zn119 O127 1.906 . S
Zn119 O137 1.953 . S
Zn120 O117 1.945 . S
Zn120 O122 1.932 . S
Zn120 O129 1.977 . S
Zn120 O130 1.910 . S
O121 Zn118 1.933 . S
O121 C132 1.226 . S
O122 Zn120 1.932 . S
O122 C132 1.307 . S
O123 Zn116 1.919 . S
O123 C134 1.253 . S
O124 Zn118 1.941 . S
O124 C134 1.283 . S
O125 Zn118 1.965 . S
O125 C133 1.303 . S
O126 Zn119 1.938 . S
O126 C133 1.247 . S
O127 Zn119 1.906 . S
O127 C135 1.304 . S
O128 Zn116 1.924 . S
O128 C136 1.311 . S
O129 Zn120 1.977 . S
O129 C135 1.272 . S
O130 Zn120 1.910 . S
O130 C136 1.231 . S
C131 O115 1.225 . S
C131 O137 1.298 . S
C132 O121 1.226 . S
C132 O122 1.307 . S
C133 O125 1.303 . S
C133 O126 1.247 . S
C134 O123 1.253 . S
C134 O124 1.283 . S
C135 O127 1.304 . S
C135 O129 1.272 . S
C136 O128 1.311 . S
C136 O130 1.231 . S
O137 Zn119 1.953 . S
O137 C131 1.298 . S
O138 Zn139 1.953 . S
O138 C154 1.225 . S
Zn139 O138 1.953 . S
Zn139 O140 1.949 . S
Zn139 O146 1.919 . S
Zn139 O151 1.924 . S
O140 Zn139 1.949 . S
O140 Zn141 1.923 . S
O140 Zn142 1.950 . S
O140 Zn143 1.945 . S
Zn141 O140 1.923 . S
Zn141 O144 1.933 . S
Zn141 O147 1.941 . S
Zn141 O148 1.965 . S
Zn142 O140 1.950 . S
Zn142 O149 1.938 . S
Zn142 O150 1.906 . S
Zn142 O160 1.953 . S
Zn143 O140 1.945 . S
Zn143 O145 1.932 . S
Zn143 O152 1.977 . S
Zn143 O153 1.910 . S
O144 Zn141 1.933 . S
O144 C155 1.226 . S
O145 Zn143 1.932 . S
O145 C155 1.307 . S
O146 Zn139 1.919 . S
O146 C157 1.253 . S
O147 Zn141 1.941 . S
O147 C157 1.283 . S
O148 Zn141 1.965 . S
O148 C156 1.303 . S
O149 Zn142 1.938 . S
O149 C156 1.247 . S
O150 Zn142 1.906 . S
O150 C158 1.304 . S
O151 Zn139 1.924 . S
O151 C159 1.311 . S
O152 Zn143 1.977 . S
O152 C158 1.272 . S
O153 Zn143 1.910 . S
O153 C159 1.231 . S
C154 O138 1.225 . S
C154 O160 1.298 . S
C155 O144 1.226 . S
C155 O145 1.307 . S
C156 O148 1.303 . S
C156 O149 1.247 . S
C157 O146 1.253 . S
C157 O147 1.283 . S
C158 O150 1.304 . S
C158 O152 1.272 . S
C159 O151 1.311 . S
C159 O153 1.231 . S
O160 Zn142 1.953 . S
O160 C154 1.298 . S
O161 Zn162 1.953 . S
O161 C177 1.225 . S
Zn162 O161 1.953 . S
Zn162 O163 1.949 . S
Zn162 O169 1.919 . S
Zn162 O174 1.924 . S
O163 Zn162 1.949 . S
O163 Zn164 1.923 . S
O163 Zn165 1.950 . S
O163 Zn166 1.945 . S
Zn164 O163 1.923 . S
Zn164 O167 1.933 . S
Zn164 O170 1.941 . S
Zn164 O171 1.965 . S
Zn165 O163 1.950 . S
Zn165 O172 1.938 . S
Zn165 O173 1.906 . S
Zn165 O183 1.953 . S
Zn166 O163 1.945 . S
Zn166 O168 1.932 . S
Zn166 O175 1.977 . S
Zn166 O176 1.910 . S
O167 Zn164 1.933 . S
O167 C178 1.226 . S
O168 Zn166 1.932 . S
O168 C178 1.307 . S
O169 Zn162 1.919 . S
O169 C180 1.253 . S
O170 Zn164 1.941 . S
O170 C180 1.283 . S
O171 Zn164 1.965 . S
O171 C179 1.303 . S
O172 Zn165 1.938 . S
O172 C179 1.247 . S
O173 Zn165 1.906 . S
O173 C181 1.304 . S
O174 Zn162 1.924 . S
O174 C182 1.311 . S
O175 Zn166 1.977 . S
O175 C181 1.272 . S
O176 Zn166 1.910 . S
O176 C182 1.231 . S
C177 O161 1.225 . S
C177 O183 1.298 . S
C178 O167 1.226 . S
C178 O168 1.307 . S
C179 O171 1.303 . S
C179 O172 1.247 . S
C180 O169 1.253 . S
C180 O170 1.283 . S
C181 O173 1.304 . S
C181 O175 1.272 . S
C182 O174 1.311 . S
C182 O176 1.231 . S
O183 Zn165 1.953 . S
O183 C177 1.298 . S
C184 O196 1.241 . S
C184 O197 1.280 . S
C185 O198 1.277 . S
C185 O199 1.245 . S
C186 O210 1.247 . S
C186 O212 1.289 . S
Mg187 O188 1.926 . S
Mg187 O197 1.984 . S
Mg187 O199 1.988 . S
Mg187 O200 2.061 1_655 S
O188 Mg187 1.926 . S
O188 Mg189 1.986 . S
O188 Mg190 1.917 1_655 S
Mg189 O188 1.986 . S
Mg189 O196 2.042 . S
Mg189 O198 2.041 . S
Mg189 O204 2.038 1_545 S
Mg189 O212 2.238 1_545 S
Mg190 O188 1.917 1_455 S
Mg190 O191 1.917 1_545 S
Mg190 O201 2.106 . S
Mg190 O203 2.079 1_445 S
Mg190 O212 2.106 1_445 S
Mg190 O213 2.079 . S
O191 Mg190 1.917 1_565 S
O191 Mg192 1.926 . S
O191 Mg193 1.987 . S
Mg192 O191 1.926 . S
Mg192 O206 1.984 . S
Mg192 O209 1.988 . S
Mg192 O210 2.061 1_455 S
Mg193 O191 1.987 . S
Mg193 O201 2.235 1_565 S
Mg193 O205 2.045 . S
Mg193 O207 2.044 . S
Mg193 O214 2.036 1_565 S
C194 O200 1.247 . S
C194 O201 1.289 . S
C195 O213 1.245 . S
C195 O214 1.274 . S
O196 C184 1.241 . S
O196 Mg189 2.042 . S
O197 C184 1.280 . S
O197 Mg187 1.984 . S
O198 C185 1.277 . S
O198 Mg189 2.041 . S
O199 C185 1.245 . S
O199 Mg187 1.988 . S
O200 Mg187 2.061 1_455 S
O200 C194 1.247 . S
O201 Mg190 2.106 . S
O201 Mg193 2.235 1_545 S
O201 C194 1.289 . S
C202 O203 1.245 . S
C202 O204 1.274 . S
O203 Mg190 2.079 1_665 S
O203 C202 1.245 . S
O204 Mg189 2.038 1_565 S
O204 C202 1.274 . S
O205 Mg193 2.045 . S
O205 C208 1.241 . S
O206 Mg192 1.984 . S
O206 C208 1.280 . S
O207 Mg193 2.044 . S
O207 C211 1.277 . S
C208 O205 1.241 . S
C208 O206 1.280 . S
O209 Mg192 1.988 . S
O209 C211 1.245 . S
O210 C186 1.247 . S
O210 Mg192 2.061 1_655 S
C211 O207 1.277 . S
C211 O209 1.245 . S
O212 C186 1.289 . S
O212 Mg189 2.238 1_565 S
O212 Mg190 2.106 1_665 S
O213 Mg190 2.079 . S
O213 C195 1.245 . S
O214 Mg193 2.036 1_545 S
O214 C195 1.274 . S
C215 O227 1.241 . S
C215 O228 1.280 . S
C216 O229 1.277 . S
C216 O230 1.245 . S
C217 O241 1.247 . S
C217 O243 1.289 . S
Mg218 O219 1.926 . S
Mg218 O228 1.984 . S
Mg218 O230 1.988 1_554 S
Mg218 O231 2.061 . S
O219 Mg218 1.926 . S
O219 Mg220 1.986 . S
O219 Mg221 1.917 . S
Mg220 O219 1.986 . S
Mg220 O227 2.042 . S
Mg220 O229 2.041 1_554 S
Mg220 O235 2.038 1_545 S
Mg220 O243 2.238 1_544 S
Mg221 O219 1.917 . S
Mg221 O222 1.917 1_544 S
Mg221 O232 2.106 . S
Mg221 O234 2.079 1_545 S
Mg221 O243 2.106 1_544 S
Mg221 O244 2.079 1_554 S
O222 Mg221 1.917 1_566 S
O222 Mg223 1.926 . S
O222 Mg224 1.986 1_556 S
Mg223 O222 1.926 . S
Mg223 O237 1.984 . S
Mg223 O240 1.988 1_556 S
Mg223 O241 2.061 . S
Mg224 O222 1.986 1_554 S
Mg224 O232 2.238 1_565 S
Mg224 O236 2.042 1_554 S
Mg224 O238 2.041 . S
Mg224 O245 2.038 1_564 S
C225 O231 1.247 . S
C225 O232 1.289 . S
C226 O244 1.245 . S
C226 O245 1.274 . S
O227 C215 1.241 . S
O227 Mg220 2.042 . S
O228 C215 1.280 . S
O228 Mg218 1.984 . S
O229 C216 1.277 . S
O229 Mg220 2.041 1_556 S
O230 C216 1.245 . S
O230 Mg218 1.988 1_556 S
O231 Mg218 2.061 . S
O231 C225 1.247 . S
O232 Mg221 2.106 . S
O232 Mg224 2.238 1_545 S
O232 C225 1.289 . S
C233 O234 1.245 . S
C233 O235 1.274 . S
O234 Mg221 2.079 1_565 S
O234 C233 1.245 . S
O235 Mg220 2.038 1_565 S
O235 C233 1.274 . S
O236 Mg224 2.042 1_556 S
O236 C239 1.241 . S
O237 Mg223 1.984 . S
O237 C239 1.280 . S
O238 Mg224 2.041 . S
O238 C242 1.277 . S
C239 O236 1.241 . S
C239 O237 1.280 . S
O240 Mg223 1.988 1_554 S
O240 C242 1.245 . S
O241 C217 1.247 . S
O241 Mg223 2.061 . S
C242 O238 1.277 . S
C242 O240 1.245 . S
O243 C217 1.289 . S
O243 Mg220 2.238 1_566 S
O243 Mg221 2.106 1_566 S
O244 Mg221 2.079 1_556 S
O244 C226 1.245 . S
O245 Mg224 2.038 1_546 S
O245 C226 1.274 . S
C246 O258 1.241 . S
C246 O259 1.280 . S
C247 O260 1.277 . S
C247 O261 1.245 . S
C248 O272 1.247 . S
C248 O274 1.289 . S
Mg249 O250 1.926 . S
Mg249 O259 1.984 . S
Mg249 O261 1.988 1_554 S
Mg249 O262 2.061 1_655 S
O250 Mg249 1.926 . S
O250 Mg251 1.986 . S
O250 Mg252 1.917 1_655 S
Mg251 O250 1.986 . S
Mg251 O258 2.042 . S
Mg251 O260 2.041 1_554 S
Mg251 O266 2.038 . S
Mg251 O274 2.238 1_554 S
Mg252 O250 1.917 1_455 S
Mg252 O253 1.917 1_554 S
Mg252 O263 2.106 . S
Mg252 O265 2.079 1_455 S
Mg252 O274 2.106 1_454 S
Mg252 O275 2.079 1_554 S
O253 Mg252 1.917 1_556 S
O253 Mg254 1.926 . S
O253 Mg255 1.986 1_556 S
Mg254 O253 1.926 . S
Mg254 O268 1.984 . S
Mg254 O271 1.988 1_556 S
Mg254 O272 2.061 1_455 S
Mg255 O253 1.986 1_554 S
Mg255 O263 2.238 . S
Mg255 O267 2.042 1_554 S
Mg255 O269 2.041 . S
Mg255 O276 2.038 1_554 S
C256 O262 1.247 . S
C256 O263 1.289 . S
C257 O275 1.245 . S
C257 O276 1.274 . S
O258 C246 1.241 . S
O258 Mg251 2.042 . S
O259 C246 1.280 . S
O259 Mg249 1.984 . S
O260 C247 1.277 . S
O260 Mg251 2.041 1_556 S
O261 C247 1.245 . S
O261 Mg249 1.988 1_556 S
O262 Mg249 2.061 1_455 S
O262 C256 1.247 . S
O263 Mg252 2.106 . S
O263 Mg255 2.238 . S
O263 C256 1.289 . S
C264 O265 1.245 . S
C264 O266 1.274 . S
O265 Mg252 2.079 1_655 S
O265 C264 1.245 . S
O266 Mg251 2.038 . S
O266 C264 1.274 . S
O267 Mg255 2.042 1_556 S
O267 C270 1.241 . S
O268 Mg254 1.984 . S
O268 C270 1.280 . S
O269 Mg255 2.041 . S
O269 C273 1.277 . S
C270 O267 1.241 . S
C270 O268 1.280 . S
O271 Mg254 1.988 1_554 S
O271 C273 1.245 . S
O272 C248 1.247 . S
O272 Mg254 2.061 1_655 S
C273 O269 1.277 . S
C273 O271 1.245 . S
O274 C248 1.289 . S
O274 Mg251 2.238 1_556 S
O274 Mg252 2.106 1_656 S
O275 Mg252 2.079 1_556 S
O275 C257 1.245 . S
O276 Mg255 2.038 1_556 S
O276 C257 1.274 . S
C277 O289 1.241 . S
C277 O290 1.280 . S
C278 O291 1.277 . S
C278 O292 1.245 . S
C279 O303 1.247 . S
C279 O305 1.289 . S
Mg280 O281 1.926 . S
Mg280 O290 1.984 . S
Mg280 O292 1.988 1_554 S
Mg280 O293 2.061 . S
O281 Mg280 1.926 . S
O281 Mg282 1.986 . S
O281 Mg283 1.917 . S
Mg282 O281 1.986 . S
Mg282 O289 2.042 . S
Mg282 O291 2.041 1_554 S
Mg282 O297 2.038 . S
Mg282 O305 2.238 1_554 S
Mg283 O281 1.917 . S
Mg283 O284 1.917 1_554 S
Mg283 O294 2.106 . S
Mg283 O296 2.079 . S
Mg283 O305 2.106 1_554 S
Mg283 O306 2.079 1_554 S
O284 Mg283 1.917 1_556 S
O284 Mg285 1.926 . S
O284 Mg286 1.986 1_556 S
Mg285 O284 1.926 . S
Mg285 O299 1.984 . S
Mg285 O302 1.988 1_556 S
Mg285 O303 2.061 . S
Mg286 O284 1.986 1_554 S
Mg286 O294 2.238 . S
Mg286 O298 2.042 1_554 S
Mg286 O300 2.041 . S
Mg286 O307 2.038 1_554 S
C287 O293 1.247 . S
C287 O294 1.289 . S
C288 O306 1.245 . S
C288 O307 1.274 . S
O289 C277 1.241 . S
O289 Mg282 2.042 . S
O290 C277 1.280 . S
O290 Mg280 1.984 . S
O291 C278 1.277 . S
O291 Mg282 2.041 1_556 S
O292 C278 1.245 . S
O292 Mg280 1.988 1_556 S
O293 Mg280 2.061 . S
O293 C287 1.247 . S
O294 Mg283 2.106 . S
O294 Mg286 2.238 . S
O294 C287 1.289 . S
C295 O296 1.245 . S
C295 O297 1.274 . S
O296 Mg283 2.079 . S
O296 C295 1.245 . S
O297 Mg282 2.038 . S
O297 C295 1.274 . S
O298 Mg286 2.042 1_556 S
O298 C301 1.241 . S
O299 Mg285 1.984 . S
O299 C301 1.280 . S
O300 Mg286 2.041 . S
O300 C304 1.277 . S
C301 O298 1.241 . S
C301 O299 1.280 . S
O302 Mg285 1.988 1_554 S
O302 C304 1.245 . S
O303 C279 1.247 . S
O303 Mg285 2.061 . S
C304 O300 1.277 . S
C304 O302 1.245 . S
O305 C279 1.289 . S
O305 Mg282 2.238 1_556 S
O305 Mg283 2.106 1_556 S
O306 Mg283 2.079 1_556 S
O306 C288 1.245 . S
O307 Mg286 2.038 1_556 S
O307 C288 1.274 . S
C308 O320 1.241 . S
C308 O321 1.280 . S
C309 O322 1.277 . S
C309 O323 1.245 . S
C310 O334 1.247 . S
C310 O336 1.289 . S
Mg311 O312 1.926 . S
Mg311 O321 1.984 . S
Mg311 O323 1.988 . S
Mg311 O324 2.061 1_655 S
O312 Mg311 1.926 . S
O312 Mg313 1.986 . S
O312 Mg314 1.917 1_655 S
Mg313 O312 1.986 . S
Mg313 O320 2.042 . S
Mg313 O322 2.041 . S
Mg313 O328 2.038 . S
Mg313 O336 2.238 . S
Mg314 O312 1.917 1_455 S
Mg314 O315 1.917 . S
Mg314 O325 2.106 . S
Mg314 O327 2.079 1_455 S
Mg314 O336 2.106 1_455 S
Mg314 O337 2.079 . S
O315 Mg314 1.917 . S
O315 Mg316 1.926 . S
O315 Mg317 1.986 . S
Mg316 O315 1.926 . S
Mg316 O330 1.984 . S
Mg316 O333 1.988 . S
Mg316 O334 2.061 1_455 S
Mg317 O315 1.986 . S
Mg317 O325 2.238 . S
Mg317 O329 2.042 . S
Mg317 O331 2.041 . S
Mg317 O338 2.038 . S
C318 O324 1.247 . S
C318 O325 1.289 . S
C319 O337 1.245 . S
C319 O338 1.274 . S
O320 C308 1.241 . S
O320 Mg313 2.042 . S
O321 C308 1.280 . S
O321 Mg311 1.984 . S
O322 C309 1.277 . S
O322 Mg313 2.041 . S
O323 C309 1.245 . S
O323 Mg311 1.988 . S
O324 Mg311 2.061 1_455 S
O324 C318 1.247 . S
O325 Mg314 2.106 . S
O325 Mg317 2.238 . S
O325 C318 1.289 . S
C326 O327 1.245 . S
C326 O328 1.274 . S
O327 Mg314 2.079 1_655 S
O327 C326 1.245 . S
O328 Mg313 2.038 . S
O328 C326 1.274 . S
O329 Mg317 2.042 . S
O329 C332 1.241 . S
O330 Mg316 1.984 . S
O330 C332 1.280 . S
O331 Mg317 2.041 . S
O331 C335 1.277 . S
C332 O329 1.241 . S
C332 O330 1.280 . S
O333 Mg316 1.988 . S
O333 C335 1.245 . S
O334 C310 1.247 . S
O334 Mg316 2.061 1_655 S
C335 O331 1.277 . S
C335 O333 1.245 . S
O336 C310 1.289 . S
O336 Mg313 2.238 . S
O336 Mg314 2.106 1_655 S
O337 Mg314 2.079 . S
O337 C319 1.245 . S
O338 Mg317 2.038 . S
O338 C319 1.274 . S
C339 O351 1.241 . S
C339 O352 1.280 . S
C340 O353 1.277 . S
C340 O354 1.245 . S
C341 O365 1.247 . S
C341 O367 1.289 . S
Mg342 O343 1.926 . S
Mg342 O352 1.984 . S
Mg342 O354 1.988 . S
Mg342 O355 2.061 . S
O343 Mg342 1.926 . S
O343 Mg344 1.986 . S
O343 Mg345 1.917 . S
Mg344 O343 1.986 . S
Mg344 O351 2.042 . S
Mg344 O353 2.041 . S
Mg344 O359 2.038 1_545 S
Mg344 O367 2.238 1_545 S
Mg345 O343 1.917 . S
Mg345 O346 1.917 1_545 S
Mg345 O356 2.106 . S
Mg345 O358 2.079 1_545 S
Mg345 O367 2.106 1_545 S
Mg345 O368 2.079 . S
O346 Mg345 1.917 1_565 S
O346 Mg347 1.926 . S
O346 Mg348 1.986 1_565 S
Mg347 O346 1.926 . S
Mg347 O361 1.984 . S
Mg347 O364 1.988 . S
Mg347 O365 2.061 . S
Mg348 O346 1.986 1_545 S
Mg348 O356 2.238 . S
Mg348 O360 2.042 1_545 S
Mg348 O362 2.041 1_545 S
Mg348 O369 2.038 . S
C349 O355 1.247 . S
C349 O356 1.289 . S
C350 O368 1.245 . S
C350 O369 1.274 . S
O351 C339 1.241 . S
O351 Mg344 2.042 . S
O352 C339 1.280 . S
O352 Mg342 1.984 . S
O353 C340 1.277 . S
O353 Mg344 2.041 . S
O354 C340 1.245 . S
O354 Mg342 1.988 . S
O355 Mg342 2.061 . S
O355 C349 1.247 . S
O356 Mg345 2.106 . S
O356 Mg348 2.238 . S
O356 C349 1.289 . S
C357 O358 1.245 . S
C357 O359 1.274 . S
O358 Mg345 2.079 1_565 S
O358 C357 1.245 . S
O359 Mg344 2.038 1_565 S
O359 C357 1.274 . S
O360 Mg348 2.042 1_565 S
O360 C363 1.241 . S
O361 Mg347 1.984 . S
O361 C363 1.280 . S
O362 Mg348 2.041 1_565 S
O362 C366 1.277 . S
C363 O360 1.241 . S
C363 O361 1.280 . S
O364 Mg347 1.988 . S
O364 C366 1.245 . S
O365 C341 1.247 . S
O365 Mg347 2.061 . S
C366 O362 1.277 . S
C366 O364 1.245 . S
O367 C341 1.289 . S
O367 Mg344 2.238 1_565 S
O367 Mg345 2.106 1_565 S
O368 Mg345 2.079 . S
O368 C350 1.245 . S
O369 Mg348 2.038 . S
O369 C350 1.274 . S
C195 C17 1.671 . S
C185 C44 2.382 . S
C186 C63 1.561 . S
C87 C208 1.868 . S
C110 C211 1.701 . S
C194 C131 1.618 . S
C159 C184 2.404 . S
C177 C202 1.700 . S
C215 C20 1.650 . S
C42 C264 1.512 . S
C242 C66 2.285 . S
C256 C86 1.021 . S
C109 C217 1.258 . S
C270 C136 2.229 . S
C157 C226 1.432 . S
C182 C247 1.746 . S
C18 C273 1.433 . S
C112 C257 1.748 . S
C216 C134 1.513 . S
C248 C154 1.189 . S
C180 C239 1.251 . S
C64 C246 1.501 . S
C233 C89 1.654 . S
C39 C225 1.422 . S
C178 C288 1.671 . S
C113 C278 2.382 . S
C279 C132 1.561 . S
C301 C156 1.868 . S
C41 C304 1.701 . S
C287 C62 1.618 . S
C90 C277 2.404 . S
C16 C295 1.700 . S
C181 C308 1.650 . S
C357 C111 1.512 . S
C135 C335 2.285 . S
C155 C349 1.021 . S
C310 C40 1.258 . S
C67 C363 2.229 . S
C319 C88 1.432 . S
C340 C21 1.746 . S
C366 C179 1.433 . S
C43 C350 1.748 . S
C65 C309 1.513 . S
C341 C85 1.189 . S
C19 C332 1.251 . S
C133 C339 1.501 . S
C326 C158 1.654 . S
C318 C108 1.422 . S
