# Generated by pormake.
# Topology iac, (4,6)-cn, num edge types: 1
# Building blocks:
#     Node 0, Type 0, BuildingBlock: AZAVOO_clean_sbu_0, # of connection points: 4
#     Node 1, Type 0, BuildingBlock: AZAVOO_clean_sbu_0, # of connection points: 4
#     Node 2, Type 0, BuildingBlock: AZAVOO_clean_sbu_0, # of connection points: 4
#     Node 3, Type 0, BuildingBlock: AZAVOO_clean_sbu_0, # of connection points: 4
#     Node 4, Type 0, BuildingBlock: AZAVOO_clean_sbu_0, # of connection points: 4
#     Node 5, Type 0, BuildingBlock: AZAVOO_clean_sbu_0, # of connection points: 4
#     Node 6, Type 0, BuildingBlock: AZAVOO_clean_sbu_0, # of connection points: 4
#     Node 7, Type 0, BuildingBlock: AZAVOO_clean_sbu_0, # of connection points: 4
#     Node 8, Type 0, BuildingBlock: AZAVOO_clean_sbu_0, # of connection points: 4
#     Node 9, Type 0, BuildingBlock: AZAVOO_clean_sbu_0, # of connection points: 4
#     Node 10, Type 0, BuildingBlock: AZAVOO_clean_sbu_0, # of connection points: 4
#     Node 11, Type 0, BuildingBlock: AZAVOO_clean_sbu_0, # of connection points: 4
#     Node 12, Type 0, BuildingBlock: AZAVOO_clean_sbu_0, # of connection points: 4
#     Node 13, Type 0, BuildingBlock: AZAVOO_clean_sbu_0, # of connection points: 4
#     Node 14, Type 0, BuildingBlock: AZAVOO_clean_sbu_0, # of connection points: 4
#     Node 15, Type 0, BuildingBlock: AZAVOO_clean_sbu_0, # of connection points: 4
#     Node 16, Type 0, BuildingBlock: AZAVOO_clean_sbu_0, # of connection points: 4
#     Node 17, Type 0, BuildingBlock: AZAVOO_clean_sbu_0, # of connection points: 4
#     Node 18, Type 0, BuildingBlock: AZAVOO_clean_sbu_0, # of connection points: 4
#     Node 19, Type 0, BuildingBlock: AZAVOO_clean_sbu_0, # of connection points: 4
#     Node 20, Type 0, BuildingBlock: AZAVOO_clean_sbu_0, # of connection points: 4
#     Node 21, Type 0, BuildingBlock: AZAVOO_clean_sbu_0, # of connection points: 4
#     Node 22, Type 0, BuildingBlock: AZAVOO_clean_sbu_0, # of connection points: 4
#     Node 23, Type 0, BuildingBlock: AZAVOO_clean_sbu_0, # of connection points: 4
#     Node 24, Type 1, BuildingBlock: FUNLAD_clean_sbu_0, # of connection points: 6
#     Node 25, Type 1, BuildingBlock: FUNLAD_clean_sbu_0, # of connection points: 6
#     Node 26, Type 1, BuildingBlock: FUNLAD_clean_sbu_0, # of connection points: 6
#     Node 27, Type 1, BuildingBlock: FUNLAD_clean_sbu_0, # of connection points: 6
#     Node 28, Type 1, BuildingBlock: FUNLAD_clean_sbu_0, # of connection points: 6
#     Node 29, Type 1, BuildingBlock: FUNLAD_clean_sbu_0, # of connection points: 6
#     Node 30, Type 1, BuildingBlock: FUNLAD_clean_sbu_0, # of connection points: 6
#     Node 31, Type 1, BuildingBlock: FUNLAD_clean_sbu_0, # of connection points: 6
#     Node 32, Type 1, BuildingBlock: FUNLAD_clean_sbu_0, # of connection points: 6
#     Node 33, Type 1, BuildingBlock: FUNLAD_clean_sbu_0, # of connection points: 6
#     Node 34, Type 1, BuildingBlock: FUNLAD_clean_sbu_0, # of connection points: 6
#     Node 35, Type 1, BuildingBlock: FUNLAD_clean_sbu_0, # of connection points: 6
#     Node 36, Type 1, BuildingBlock: FUNLAD_clean_sbu_0, # of connection points: 6
#     Node 37, Type 1, BuildingBlock: FUNLAD_clean_sbu_0, # of connection points: 6
#     Node 38, Type 1, BuildingBlock: FUNLAD_clean_sbu_0, # of connection points: 6
#     Node 39, Type 1, BuildingBlock: FUNLAD_clean_sbu_0, # of connection points: 6
#     Edge 40, Type (0, 1), BuildingBlock: XIVTED_clean_linker_0, # of connection points: 2
#     Edge 41, Type (0, 1), BuildingBlock: XIVTED_clean_linker_0, # of connection points: 2
#     Edge 42, Type (0, 1), BuildingBlock: XIVTED_clean_linker_0, # of connection points: 2
#     Edge 43, Type (0, 1), BuildingBlock: XIVTED_clean_linker_0, # of connection points: 2
#     Edge 44, Type (0, 1), BuildingBlock: XIVTED_clean_linker_0, # of connection points: 2
#     Edge 45, Type (0, 1), BuildingBlock: XIVTED_clean_linker_0, # of connection points: 2
#     Edge 46, Type (0, 1), BuildingBlock: XIVTED_clean_linker_0, # of connection points: 2
#     Edge 47, Type (0, 1), BuildingBlock: XIVTED_clean_linker_0, # of connection points: 2
#     Edge 48, Type (0, 1), BuildingBlock: XIVTED_clean_linker_0, # of connection points: 2
#     Edge 49, Type (0, 1), BuildingBlock: XIVTED_clean_linker_0, # of connection points: 2
#     Edge 50, Type (0, 1), BuildingBlock: XIVTED_clean_linker_0, # of connection points: 2
#     Edge 51, Type (0, 1), BuildingBlock: XIVTED_clean_linker_0, # of connection points: 2
#     Edge 52, Type (0, 1), BuildingBlock: XIVTED_clean_linker_0, # of connection points: 2
#     Edge 53, Type (0, 1), BuildingBlock: XIVTED_clean_linker_0, # of connection points: 2
#     Edge 54, Type (0, 1), BuildingBlock: XIVTED_clean_linker_0, # of connection points: 2
#     Edge 55, Type (0, 1), BuildingBlock: XIVTED_clean_linker_0, # of connection points: 2
#     Edge 56, Type (0, 1), BuildingBlock: XIVTED_clean_linker_0, # of connection points: 2
#     Edge 57, Type (0, 1), BuildingBlock: XIVTED_clean_linker_0, # of connection points: 2
#     Edge 58, Type (0, 1), BuildingBlock: XIVTED_clean_linker_0, # of connection points: 2
#     Edge 59, Type (0, 1), BuildingBlock: XIVTED_clean_linker_0, # of connection points: 2
#     Edge 60, Type (0, 1), BuildingBlock: XIVTED_clean_linker_0, # of connection points: 2
#     Edge 61, Type (0, 1), BuildingBlock: XIVTED_clean_linker_0, # of connection points: 2
#     Edge 62, Type (0, 1), BuildingBlock: XIVTED_clean_linker_0, # of connection points: 2
#     Edge 63, Type (0, 1), BuildingBlock: XIVTED_clean_linker_0, # of connection points: 2
#     Edge 64, Type (0, 1), BuildingBlock: XIVTED_clean_linker_0, # of connection points: 2
#     Edge 65, Type (0, 1), BuildingBlock: XIVTED_clean_linker_0, # of connection points: 2
#     Edge 66, Type (0, 1), BuildingBlock: XIVTED_clean_linker_0, # of connection points: 2
#     Edge 67, Type (0, 1), BuildingBlock: XIVTED_clean_linker_0, # of connection points: 2
#     Edge 68, Type (0, 1), BuildingBlock: XIVTED_clean_linker_0, # of connection points: 2
#     Edge 69, Type (0, 1), BuildingBlock: XIVTED_clean_linker_0, # of connection points: 2
#     Edge 70, Type (0, 1), BuildingBlock: XIVTED_clean_linker_0, # of connection points: 2
#     Edge 71, Type (0, 1), BuildingBlock: XIVTED_clean_linker_0, # of connection points: 2
#     Edge 72, Type (0, 1), BuildingBlock: XIVTED_clean_linker_0, # of connection points: 2
#     Edge 73, Type (0, 1), BuildingBlock: XIVTED_clean_linker_0, # of connection points: 2
#     Edge 74, Type (0, 1), BuildingBlock: XIVTED_clean_linker_0, # of connection points: 2
#     Edge 75, Type (0, 1), BuildingBlock: XIVTED_clean_linker_0, # of connection points: 2
#     Edge 76, Type (0, 1), BuildingBlock: XIVTED_clean_linker_0, # of connection points: 2
#     Edge 77, Type (0, 1), BuildingBlock: XIVTED_clean_linker_0, # of connection points: 2
#     Edge 78, Type (0, 1), BuildingBlock: XIVTED_clean_linker_0, # of connection points: 2
#     Edge 79, Type (0, 1), BuildingBlock: XIVTED_clean_linker_0, # of connection points: 2
#     Edge 80, Type (0, 1), BuildingBlock: XIVTED_clean_linker_0, # of connection points: 2
#     Edge 81, Type (0, 1), BuildingBlock: XIVTED_clean_linker_0, # of connection points: 2
#     Edge 82, Type (0, 1), BuildingBlock: XIVTED_clean_linker_0, # of connection points: 2
#     Edge 83, Type (0, 1), BuildingBlock: XIVTED_clean_linker_0, # of connection points: 2
#     Edge 84, Type (0, 1), BuildingBlock: XIVTED_clean_linker_0, # of connection points: 2
#     Edge 85, Type (0, 1), BuildingBlock: XIVTED_clean_linker_0, # of connection points: 2
#     Edge 86, Type (0, 1), BuildingBlock: XIVTED_clean_linker_0, # of connection points: 2
#     Edge 87, Type (0, 1), BuildingBlock: XIVTED_clean_linker_0, # of connection points: 2
#     Edge 88, Type (0, 1), BuildingBlock: XIVTED_clean_linker_0, # of connection points: 2
#     Edge 89, Type (0, 1), BuildingBlock: XIVTED_clean_linker_0, # of connection points: 2
#     Edge 90, Type (0, 1), BuildingBlock: XIVTED_clean_linker_0, # of connection points: 2
#     Edge 91, Type (0, 1), BuildingBlock: XIVTED_clean_linker_0, # of connection points: 2
#     Edge 92, Type (0, 1), BuildingBlock: XIVTED_clean_linker_0, # of connection points: 2
#     Edge 93, Type (0, 1), BuildingBlock: XIVTED_clean_linker_0, # of connection points: 2
#     Edge 94, Type (0, 1), BuildingBlock: XIVTED_clean_linker_0, # of connection points: 2
#     Edge 95, Type (0, 1), BuildingBlock: XIVTED_clean_linker_0, # of connection points: 2
#     Edge 96, Type (0, 1), BuildingBlock: XIVTED_clean_linker_0, # of connection points: 2
#     Edge 97, Type (0, 1), BuildingBlock: XIVTED_clean_linker_0, # of connection points: 2
#     Edge 98, Type (0, 1), BuildingBlock: XIVTED_clean_linker_0, # of connection points: 2
#     Edge 99, Type (0, 1), BuildingBlock: XIVTED_clean_linker_0, # of connection points: 2
#     Edge 100, Type (0, 1), BuildingBlock: XIVTED_clean_linker_0, # of connection points: 2
#     Edge 101, Type (0, 1), BuildingBlock: XIVTED_clean_linker_0, # of connection points: 2
#     Edge 102, Type (0, 1), BuildingBlock: XIVTED_clean_linker_0, # of connection points: 2
#     Edge 103, Type (0, 1), BuildingBlock: XIVTED_clean_linker_0, # of connection points: 2
#     Edge 104, Type (0, 1), BuildingBlock: XIVTED_clean_linker_0, # of connection points: 2
#     Edge 105, Type (0, 1), BuildingBlock: XIVTED_clean_linker_0, # of connection points: 2
#     Edge 106, Type (0, 1), BuildingBlock: XIVTED_clean_linker_0, # of connection points: 2
#     Edge 107, Type (0, 1), BuildingBlock: XIVTED_clean_linker_0, # of connection points: 2
#     Edge 108, Type (0, 1), BuildingBlock: XIVTED_clean_linker_0, # of connection points: 2
#     Edge 109, Type (0, 1), BuildingBlock: XIVTED_clean_linker_0, # of connection points: 2
#     Edge 110, Type (0, 1), BuildingBlock: XIVTED_clean_linker_0, # of connection points: 2
#     Edge 111, Type (0, 1), BuildingBlock: XIVTED_clean_linker_0, # of connection points: 2
#     Edge 112, Type (0, 1), BuildingBlock: XIVTED_clean_linker_0, # of connection points: 2
#     Edge 113, Type (0, 1), BuildingBlock: XIVTED_clean_linker_0, # of connection points: 2
#     Edge 114, Type (0, 1), BuildingBlock: XIVTED_clean_linker_0, # of connection points: 2
#     Edge 115, Type (0, 1), BuildingBlock: XIVTED_clean_linker_0, # of connection points: 2
#     Edge 116, Type (0, 1), BuildingBlock: XIVTED_clean_linker_0, # of connection points: 2
#     Edge 117, Type (0, 1), BuildingBlock: XIVTED_clean_linker_0, # of connection points: 2
#     Edge 118, Type (0, 1), BuildingBlock: XIVTED_clean_linker_0, # of connection points: 2
#     Edge 119, Type (0, 1), BuildingBlock: XIVTED_clean_linker_0, # of connection points: 2
#     Edge 120, Type (0, 1), BuildingBlock: XIVTED_clean_linker_0, # of connection points: 2
#     Edge 121, Type (0, 1), BuildingBlock: XIVTED_clean_linker_0, # of connection points: 2
#     Edge 122, Type (0, 1), BuildingBlock: XIVTED_clean_linker_0, # of connection points: 2
#     Edge 123, Type (0, 1), BuildingBlock: XIVTED_clean_linker_0, # of connection points: 2
#     Edge 124, Type (0, 1), BuildingBlock: XIVTED_clean_linker_0, # of connection points: 2
#     Edge 125, Type (0, 1), BuildingBlock: XIVTED_clean_linker_0, # of connection points: 2
#     Edge 126, Type (0, 1), BuildingBlock: XIVTED_clean_linker_0, # of connection points: 2
#     Edge 127, Type (0, 1), BuildingBlock: XIVTED_clean_linker_0, # of connection points: 2
#     Edge 128, Type (0, 1), BuildingBlock: XIVTED_clean_linker_0, # of connection points: 2
#     Edge 129, Type (0, 1), BuildingBlock: XIVTED_clean_linker_0, # of connection points: 2
#     Edge 130, Type (0, 1), BuildingBlock: XIVTED_clean_linker_0, # of connection points: 2
#     Edge 131, Type (0, 1), BuildingBlock: XIVTED_clean_linker_0, # of connection points: 2
#     Edge 132, Type (0, 1), BuildingBlock: XIVTED_clean_linker_0, # of connection points: 2
#     Edge 133, Type (0, 1), BuildingBlock: XIVTED_clean_linker_0, # of connection points: 2
#     Edge 134, Type (0, 1), BuildingBlock: XIVTED_clean_linker_0, # of connection points: 2
#     Edge 135, Type (0, 1), BuildingBlock: XIVTED_clean_linker_0, # of connection points: 2
# Relax obj value: 0.361
# Max RMSD: 0.275
# Mean RMSD: 0.187
data_MOF--net-iac--node1-AZAVOO_clean_sbu_0--node2-FUNLAD_clean_sbu_0--edge1-XIVTED_clean_linker_0
_symmetry_space_group_name_H-M    P1
_symmetry_Int_Tables_number       1
_symmetry_cell_setting            triclinic
loop_
_symmetry_equiv_pos_as_xyz
'x, y, z'
_cell_length_a     56.39709
_cell_length_b     52.004069
_cell_length_c     58.56582
_cell_angle_alpha  92.276659
_cell_angle_beta   92.168943
_cell_angle_gamma 91.072972
loop_
_atom_site_label
_atom_site_type_symbol
_atom_site_fract_x
_atom_site_fract_y
_atom_site_fract_z
_atom_type_partial_charge
Mg0 Mg 0.01633 0.25809 0.21928 0.0
O1 O 0.00807 0.24643 0.18175 0.0
O2 O 0.96887 0.24511 0.17446 0.0
Mg3 Mg 0.95273 0.26072 0.2073 0.0
C4 C 0.99011 0.24226 0.1681 0.0
C5 C 0.06706 0.25233 0.19722 0.0
O6 O 0.0589 0.23065 0.18737 0.0
O7 O 0.01014 0.29892 0.21027 0.0
O8 O 0.97179 0.299 0.19957 0.0
O9 O 0.01206 0.21711 0.22804 0.0
O10 O 0.98312 0.24559 0.22732 0.0
C11 C 0.99221 0.3101 0.20174 0.0
C12 C 0.98974 0.22218 0.22932 0.0
O13 O 0.0545 0.26492 0.21111 0.0
Mg14 Mg 0.02139 0.73476 0.3667 0.0
O15 O 0.02321 0.76937 0.39334 0.0
O16 O 0.99353 0.76206 0.41673 0.0
Mg17 Mg 0.9728 0.72544 0.4054 0.0
C18 C 0.0111 0.77573 0.41071 0.0
C19 C 0.06536 0.76479 0.34682 0.0
O20 O 0.05213 0.78506 0.34994 0.0
O21 O 0.03632 0.70726 0.39291 0.0
O22 O 0.00527 0.7012 0.41488 0.0
O23 O -0.00313 0.75603 0.34381 0.0
O24 O 0.98504 0.73075 0.37072 0.0
C25 C 0.02656 0.69652 0.4095 0.0
C26 C 0.97961 0.74628 0.35483 0.0
O27 O 0.05816 0.74305 0.3533 0.0
Mg28 Mg 0.52041 0.77028 0.72933 0.0
O29 O 0.5063 0.75996 0.69317 0.0
O30 O 0.46675 0.75931 0.69015 0.0
Mg31 Mg 0.45659 0.77664 0.7249 0.0
C32 C 0.48697 0.75618 0.68145 0.0
C33 C 0.56467 0.75781 0.70024 0.0
O34 O 0.55269 0.73657 0.69416 0.0
O35 O 0.5155 0.81168 0.72188 0.0
O36 O 0.4766 0.81327 0.71399 0.0
O37 O 0.51566 0.72961 0.73761 0.0
O38 O 0.48828 0.75957 0.74189 0.0
C39 C 0.49743 0.82344 0.71437 0.0
C40 C 0.49415 0.73569 0.74223 0.0
O41 O 0.55662 0.77349 0.71507 0.0
Mg42 Mg 0.52388 0.23915 0.87436 0.0
O43 O 0.52355 0.27184 0.90247 0.0
O44 O 0.4933 0.26176 0.92433 0.0
Mg45 Mg 0.47309 0.22595 0.90958 0.0
C46 C 0.51075 0.27645 0.91971 0.0
C47 C 0.56311 0.24525 0.84169 0.0
O48 O 0.54454 0.23599 0.8296 0.0
O49 O 0.53818 0.21015 0.89988 0.0
O50 O 0.50464 0.20002 0.91699 0.0
O51 O 0.49976 0.26119 0.85131 0.0
O52 O 0.48732 0.23397 0.87634 0.0
C53 C 0.52654 0.19637 0.91337 0.0
C54 C 0.48222 0.2502 0.86099 0.0
O55 O 0.56104 0.24982 0.86304 0.0
Mg56 Mg 0.14815 0.01821 0.24556 0.0
O57 O 0.17077 0.05527 0.25187 0.0
O58 O 0.18899 0.05263 0.28631 0.0
Mg59 Mg 0.18001 0.01409 0.30088 0.0
C60 C 0.18443 0.06467 0.26814 0.0
C61 C 0.11849 0.02163 0.2031 0.0
O62 O 0.1056 0.0097 0.21779 0.0
O63 O 0.18111 0.99613 0.2367 0.0
O64 O 0.19878 0.99388 0.27137 0.0
O65 O 0.11841 0.03621 0.26356 0.0
O66 O 0.14655 0.01394 0.28056 0.0
C67 C 0.19808 0.98888 0.24981 0.0
C68 C 0.12811 0.02807 0.28222 0.0
O69 O 0.13984 0.02787 0.20887 0.0
Mg70 Mg 0.28784 0.89417 0.5548 0.0
O71 O 0.29064 0.87314 0.5196 0.0
O72 O 0.32393 0.85037 0.52154 0.0
Mg73 Mg 0.34276 0.85808 0.55637 0.0
C74 C 0.3053 0.85755 0.51068 0.0
C75 C 0.24295 0.92036 0.53452 0.0
O76 O 0.2594 0.93209 0.52326 0.0
O77 O 0.27793 0.85667 0.57094 0.0
O78 O 0.31242 0.83639 0.57344 0.0
O79 O 0.30731 0.9279 0.54223 0.0
O80 O 0.32468 0.89527 0.55866 0.0
C81 C 0.29024 0.83762 0.57707 0.0
C82 C 0.32667 0.91656 0.54822 0.0
O83 O 0.24892 0.90282 0.54796 0.0
Mg84 Mg 0.4023 0.99286 0.75775 0.0
O85 O 0.37609 0.95801 0.75416 0.0
O86 O 0.36122 0.95529 0.78903 0.0
Mg87 Mg 0.37857 0.98481 0.81425 0.0
C88 C 0.36218 0.94762 0.7681 0.0
C89 C 0.41006 0.01933 0.71345 0.0
O90 O 0.40854 0.03867 0.72842 0.0
O91 O 0.37149 0.02017 0.75914 0.0
O92 O 0.35914 0.01605 0.79465 0.0
O93 O 0.43189 0.96716 0.7663 0.0
O94 O 0.40871 0.98525 0.79171 0.0
C95 C 0.35782 0.02638 0.77522 0.0
C96 C 0.42569 0.96977 0.7873 0.0
O97 O 0.40539 -0.00331 0.71964 0.0
Mg98 Mg 0.3205 0.07356 0.02605 0.0
O99 O 0.33284 0.10485 0.05235 0.0
O100 O 0.36377 0.12778 0.04101 0.0
Mg101 Mg 0.37024 0.1115 0.00496 0.0
C102 C 0.34833 0.12291 0.05569 0.0
C103 C 0.26881 0.0733 0.05173 0.0
O104 O 0.25736 0.0659 0.06953 0.0
O105 O 0.30171 0.1047 0.00607 0.0
O106 O 0.33346 0.12629 0.99431 0.0
O107 O 0.34707 0.04617 0.03922 0.0
O108 O 0.35447 0.07387 0.01259 0.0
C109 C 0.311 0.12311 -0.00459 0.0
C110 C 0.36205 0.05645 0.02594 0.0
O111 O 0.28988 0.06575 0.04932 0.0
Mg112 Mg 0.78112 0.40127 0.05554 0.0
O113 O 0.784 0.37717 0.02167 0.0
O114 O 0.81747 0.35495 0.0255 0.0
Mg115 Mg 0.83602 0.36525 0.05994 0.0
C116 C 0.79889 0.36101 0.01396 0.0
C117 C 0.73687 0.43344 0.04791 0.0
O118 O 0.75401 0.45092 0.04999 0.0
O119 O 0.77097 0.36548 0.07435 0.0
O120 O 0.8054 0.34522 0.07785 0.0
O121 O 0.80094 0.43353 0.04061 0.0
O122 O 0.81797 0.40242 0.05947 0.0
C123 C 0.78326 0.34686 0.08149 0.0
C124 C 0.82019 0.42265 0.04762 0.0
O125 O 0.74213 0.4098 0.04839 0.0
Mg126 Mg 0.90879 0.49044 0.26028 0.0
O127 O 0.88283 0.45559 0.26039 0.0
O128 O 0.87139 0.45485 0.29666 0.0
Mg129 Mg 0.89118 0.48546 0.3192 0.0
C130 C 0.8704 0.44603 0.27596 0.0
C131 C 0.91119 0.51556 0.21516 0.0
O132 O 0.91109 0.535 0.2302 0.0
O133 O 0.87808 0.51732 0.26375 0.0
O134 O 0.86974 0.51624 0.30066 0.0
O135 O 0.93944 0.46546 0.26651 0.0
O136 O 0.91869 0.48414 0.29367 0.0
C137 C 0.86633 0.52504 0.28077 0.0
C138 C 0.93531 0.46867 0.28801 0.0
O139 O 0.90749 0.49296 0.22192 0.0
Mg140 Mg 0.80797 0.55205 0.50447 0.0
O141 O 0.81693 0.57832 0.53639 0.0
O142 O 0.84796 0.60378 0.52896 0.0
Mg143 Mg 0.85713 0.59596 0.49188 0.0
C144 C 0.83227 0.59599 0.54238 0.0
C145 C 0.75338 0.54047 0.52123 0.0
O146 O 0.73953 0.52546 0.53265 0.0
O147 O 0.78873 0.58581 0.48885 0.0
O148 O 0.82019 0.61084 0.48212 0.0
O149 O 0.83487 0.52353 0.51486 0.0
O150 O 0.84278 0.55692 0.49406 0.0
C151 C 0.79777 0.60657 0.48174 0.0
C152 C 0.85031 0.53742 0.5049 0.0
O153 O 0.77538 0.53586 0.52109 0.0
Mg154 Mg 0.63904 0.50209 0.75569 0.0
O155 O 0.66177 0.53896 0.76164 0.0
O156 O 0.68026 0.53753 0.79605 0.0
Mg157 Mg 0.67176 0.49888 0.81074 0.0
C158 C 0.67544 0.54895 0.77762 0.0
C159 C 0.60856 0.50931 0.71394 0.0
O160 O 0.59497 0.49806 0.72847 0.0
O161 O 0.67201 0.4801 0.74644 0.0
O162 O 0.69033 0.47902 0.78093 0.0
O163 O 0.60988 0.52054 0.77411 0.0
O164 O 0.63802 0.498 0.79083 0.0
C165 C 0.68938 0.4736 0.75944 0.0
C166 C 0.61993 0.51262 0.79268 0.0
O167 O 0.63046 0.5128 0.71928 0.0
Mg168 Mg 0.97632 0.82604 0.8896 0.0
O169 O 0.98314 0.86223 0.91213 0.0
O170 O 0.95397 0.86376 0.93688 0.0
Mg171 Mg 0.92741 0.83088 0.92845 0.0
C172 C 0.97322 0.87269 0.92925 0.0
C173 C 0.01245 0.82533 0.85412 0.0
O174 O 0.99184 0.8213 0.84324 0.0
O175 O 0.98768 0.80122 0.91882 0.0
O176 O 0.95571 0.80279 0.94038 0.0
O177 O 0.9545 0.84693 0.86449 0.0
O178 O 0.94027 0.82693 0.8937 0.0
C179 C 0.97627 0.79432 0.93607 0.0
C180 C 0.9363 0.83949 0.87552 0.0
O181 O 0.01303 0.82853 0.87576 0.0
Mg182 Mg 0.01569 0.25986 0.66036 0.0
O183 O 0.01483 0.22242 0.63779 0.0
O184 O 0.98385 0.22453 0.61308 0.0
Mg185 Mg 0.96329 0.26106 0.62177 0.0
C186 C 0.00207 0.21303 0.62088 0.0
C187 C 0.0588 0.24866 0.69264 0.0
O188 O 0.04141 0.24868 0.70695 0.0
O189 O 0.02748 0.2838 0.63074 0.0
O190 O -0.00598 0.28601 0.6092 0.0
O191 O 0.99314 0.24195 0.68638 0.0
O192 O 0.97887 0.2628 0.657 0.0
C193 C 0.01583 0.29219 0.61353 0.0
C194 C 0.97488 0.25024 0.67502 0.0
O195 O 0.05408 0.25251 0.67167 0.0
Mg196 Mg 0.47883 0.33488 0.40216 0.0
O197 O 0.48472 0.36903 0.42747 0.0
O198 O 0.4547 0.36824 0.45123 0.0
Mg199 Mg 0.42874 0.3356 0.43984 0.0
C200 C 0.47415 0.37804 0.44481 0.0
C201 C 0.51667 0.33946 0.36821 0.0
O202 O 0.49651 0.33808 0.35618 0.0
O203 O 0.48936 0.30704 0.42941 0.0
O204 O 0.45675 0.30635 0.45007 0.0
O205 O 0.45751 0.35811 0.37829 0.0
O206 O 0.4425 0.33512 0.40532 0.0
C207 C 0.4774 0.29827 0.44559 0.0
C208 C 0.43901 0.34959 0.38827 0.0
O209 O 0.51618 0.33899 0.38986 0.0
Mg210 Mg 0.51455 0.76463 0.1639 0.0
O211 O 0.51143 0.72666 0.1423 0.0
O212 O 0.48034 0.72967 0.11784 0.0
Mg213 Mg 0.46209 0.76786 0.12556 0.0
C214 C 0.49799 0.71739 0.12585 0.0
C215 C 0.55661 0.73979 0.19089 0.0
O216 O 0.5387 0.72952 0.20124 0.0
O217 O 0.52742 0.78672 0.13358 0.0
O218 O 0.49407 0.79 0.11207 0.0
O219 O 0.49133 0.74881 0.1904 0.0
O220 O 0.47801 0.76971 0.16064 0.0
C221 C 0.51615 0.795 0.11611 0.0
C222 C 0.47348 0.7576 0.17877 0.0
O223 O 0.55246 0.75489 0.17473 0.0
Mg224 Mg 0.89477 0.03226 0.79354 0.0
O225 O 0.88275 0.99054 0.79542 0.0
O226 O 0.86161 0.98745 0.8266 0.0
Mg227 Mg 0.86553 0.02553 0.84747 0.0
C228 C 0.86953 0.9777 0.80813 0.0
C229 C 0.92147 0.0344 0.75023 0.0
O230 O 0.93302 0.05093 0.76433 0.0
O231 O 0.85672 0.04357 0.78566 0.0
O232 O 0.84135 0.04357 0.82037 0.0
O233 O 0.92934 0.02614 0.81204 0.0
O234 O 0.89643 0.03786 0.82851 0.0
C235 C 0.83977 0.04809 0.79906 0.0
C236 C 0.91864 0.03288 0.83046 0.0
O237 O 0.90258 0.02378 0.75668 0.0
Mg238 Mg 0.78051 0.09337 0.47193 0.0
O239 O 0.78577 0.11808 0.50446 0.0
O240 O 0.82053 0.13915 0.50606 0.0
Mg241 Mg 0.83838 0.12693 0.47284 0.0
C242 C 0.80069 0.13364 0.51462 0.0
C243 C 0.73885 0.07926 0.501 0.0
O244 O 0.75744 0.07215 0.5132 0.0
O245 O 0.77308 0.12953 0.45198 0.0
O246 O 0.80953 0.14736 0.45225 0.0
O247 O 0.79968 0.06071 0.48804 0.0
O248 O 0.81698 0.09099 0.46878 0.0
C249 C 0.78751 0.14718 0.44617 0.0
C250 C 0.81891 0.07078 0.48057 0.0
O251 O 0.74195 0.08855 0.48154 0.0
Mg252 Mg 0.62662 0.9749 0.30197 0.0
O253 O 0.64443 0.01419 0.3021 0.0
O254 O 0.66545 0.02317 0.33447 0.0
Mg255 Mg 0.66119 0.98695 0.35548 0.0
C256 C 0.65782 0.02924 0.31466 0.0
C257 C 0.60774 -0.00091 0.25788 0.0
O258 O 0.59777 0.01388 0.27332 0.0
O259 O 0.6619 0.95634 0.29532 0.0
O260 O 0.6814 0.9625 0.32912 0.0
O261 O 0.59547 0.99096 0.31995 0.0
O262 O 0.62726 0.97545 0.33736 0.0
C263 C 0.68007 0.95324 0.30853 0.0
C264 C 0.60692 0.98599 0.33881 0.0
O265 O 0.61948 0.97982 0.26419 0.0
Mg266 Mg 0.78417 0.87917 0.04991 0.0
O267 O 0.77703 0.875 0.01125 0.0
O268 O 0.81208 0.87981 0.99509 0.0
Mg269 Mg 0.84078 0.89095 0.02295 0.0
C270 C 0.78969 0.87529 0.99364 0.0
C271 C 0.7299 0.85556 0.04666 0.0
O272 O 0.7144 0.83769 0.05167 0.0
O273 O 0.80311 0.84163 0.04884 0.0
O274 O 0.83992 0.85033 0.03809 0.0
O275 O 0.77783 0.92213 0.05084 0.0
O276 O 0.81223 0.90424 0.04486 0.0
C277 C 0.82433 0.83492 0.0455 0.0
C278 C 0.79995 0.92468 0.04624 0.0
O279 O 0.75042 0.85577 0.0564 0.0
Mg280 Mg 0.27487 0.5961 0.96945 0.0
O281 O 0.2804 0.6219 0.00133 0.0
O282 O 0.31578 0.64171 0.00291 0.0
Mg283 Mg 0.33363 0.62776 0.97019 0.0
C284 C 0.29563 0.63726 0.0113 0.0
C285 C 0.23339 0.58326 -0.00128 0.0
O286 O 0.2522 0.57654 0.01079 0.0
O287 O 0.26856 0.6318 0.94842 0.0
O288 O 0.30546 0.64848 0.9489 0.0
O289 O 0.29272 0.56353 0.98676 0.0
O290 O 0.31145 0.59231 0.96696 0.0
C291 C 0.28354 0.64885 0.94251 0.0
C292 C 0.31245 0.5726 0.97951 0.0
O293 O 0.23615 0.59233 0.9791 0.0
Mg294 Mg 0.12828 0.47571 0.80485 0.0
O295 O 0.14359 0.51644 0.80746 0.0
O296 O 0.16502 0.52297 0.84 0.0
Mg297 Mg 0.15957 0.48662 0.86038 0.0
C298 C 0.15705 0.5306 0.82079 0.0
C299 C 0.11066 0.50143 0.76197 0.0
O300 O 0.10082 0.51501 0.77833 0.0
O301 O 0.1651 0.46018 0.79958 0.0
O302 O 0.182 0.46397 0.83476 0.0
O303 O 0.09484 0.48791 0.82065 0.0
O304 O 0.12686 0.47554 0.84006 0.0
C305 C 0.18239 0.45649 0.8137 0.0
C306 C 0.1057 0.48436 0.8401 0.0
O307 O 0.12249 0.48176 0.76707 0.0
Mg308 Mg 0.28207 0.38033 0.55634 0.0
O309 O 0.2736 0.37756 0.51785 0.0
O310 O 0.30781 0.38496 0.50085 0.0
Mg311 Mg 0.33724 0.39532 0.52799 0.0
C312 C 0.28557 0.37957 0.49992 0.0
C313 C 0.22801 0.35786 0.55498 0.0
O314 O 0.21226 0.33981 0.55892 0.0
O315 O 0.30196 0.34335 0.5537 0.0
O316 O 0.33778 0.35409 0.54165 0.0
O317 O 0.27429 0.42287 0.55843 0.0
O318 O 0.30912 0.4066 0.55116 0.0
C319 C 0.32324 0.3377 0.54935 0.0
C320 C 0.29612 0.42646 0.55317 0.0
O321 O 0.24907 0.35602 0.56308 0.0
Mg322 Mg 0.39874 0.5508 0.29955 0.0
O323 O 0.38366 0.51103 0.30557 0.0
O324 O 0.36207 0.51192 0.3366 0.0
Mg325 Mg 0.36635 0.5526 0.35268 0.0
C326 C 0.36998 0.50004 0.3191 0.0
C327 C 0.42076 0.51596 0.26386 0.0
O328 O 0.42857 0.50705 0.28338 0.0
O329 O 0.36155 0.56284 0.28839 0.0
O330 O 0.34407 0.56599 0.32211 0.0
O331 O 0.43175 0.54512 0.32106 0.0
O332 O 0.3986 0.56108 0.33399 0.0
C333 C 0.3437 0.56821 0.30043 0.0
C334 C 0.42018 0.5546 0.33801 0.0
O335 O 0.40749 0.53546 0.26413 0.0
C336 C 0.00415 0.09814 0.97242 0.0
N337 N 0.96942 0.07376 0.02932 0.0
C338 C 0.95809 0.08152 0.04846 0.0
C339 C 0.93475 0.07297 0.05178 0.0
C340 C 0.92308 0.05644 0.03515 0.0
C341 C 0.93535 0.04893 0.01567 0.0
C342 C 0.95839 0.05784 0.01308 0.0
Zn343 Zn 0.00357 0.08427 0.02227 0.0
C344 C 0.02712 0.03854 0.0019 0.0
N345 N 0.07325 0.10205 0.00077 0.0
C346 C 0.08018 0.12526 0.99298 0.0
C347 C 0.08922 0.08322 0.0044 0.0
C348 C 0.11305 0.08719 9e-05 0.0
C349 C 0.12083 0.111 0.99247 0.0
C350 C 0.10415 0.13029 0.98894 0.0
Zn351 Zn 0.03899 0.09377 0.00894 0.0
O352 O 0.99179 0.09102 0.98875 0.0
C353 C 0.01433 0.13896 0.03039 0.0
O354 O 0.02624 0.10262 0.97587 0.0
H355 H 0.08364 0.06517 0.0112 0.0
H356 H 0.96716 0.0942 0.06117 0.0
H357 H 0.06722 0.14002 0.99032 0.0
O358 O -0.00223 0.12225 0.03153 0.0
O359 O 0.03402 0.13256 0.02199 0.0
H360 H 0.96756 0.05166 -0.00198 0.0
O361 O 0.05148 0.08392 0.04204 0.0
O362 O 0.01614 0.07739 0.05557 0.0
O363 O 0.04268 0.05482 -0.00367 0.0
O364 O 0.00976 0.04603 0.0133 0.0
C365 C 0.0386 0.0781 0.05851 0.0
H366 H 0.92596 0.07921 0.06709 0.0
H367 H 0.9275 0.03564 0.00269 0.0
H368 H 0.12547 0.07208 0.00366 0.0
H369 H 0.10962 0.14902 0.98334 0.0
C370 C 0.30869 0.7673 0.23641 0.0
N371 N 0.24599 0.75522 0.19777 0.0
C372 C 0.25687 0.76928 0.18192 0.0
C373 C 0.25836 0.75964 0.15952 0.0
C374 C 0.24898 0.73504 0.15339 0.0
C375 C 0.2359 0.72198 0.16948 0.0
C376 C 0.23456 0.73254 0.19172 0.0
Zn377 Zn 0.25468 0.76475 0.23133 0.0
C378 C 0.26274 0.7186 0.2581 0.0
N379 N 0.27892 0.78467 0.29976 0.0
C380 C 0.29397 0.80494 0.30524 0.0
C381 C 0.26823 0.77149 0.31631 0.0
C382 C 0.27228 0.7787 0.33933 0.0
C383 C 0.28712 0.79998 0.34542 0.0
C384 C 0.29819 0.8131 0.3281 0.0
Zn385 Zn 0.26937 0.77507 0.26634 0.0
O386 O 0.29089 0.76469 0.22249 0.0
C387 C 0.26151 0.82118 0.23916 0.0
O388 O 0.30531 0.77162 0.25754 0.0
H389 H 0.25596 0.75577 0.31166 0.0
H390 H 0.26619 0.78706 0.187 0.0
H391 H 0.30229 0.81518 0.29186 0.0
O392 O 0.25279 0.8043 0.22482 0.0
O393 O 0.27024 0.81422 0.25819 0.0
H394 H 0.22607 0.72159 0.20455 0.0
O395 O 0.23344 0.77846 0.27468 0.0
O396 O 0.21853 0.76463 0.24107 0.0
O397 O 0.26831 0.73557 0.27367 0.0
O398 O 0.25686 0.72549 0.2382 0.0
C399 C 0.21551 0.7725 0.26162 0.0
H400 H 0.2681 0.77066 0.14753 0.0
H401 H 0.22838 0.70294 0.16554 0.0
H402 H 0.26321 0.76829 0.3522 0.0
H403 H 0.30988 0.82953 0.3322 0.0
C404 C 0.51511 0.03544 0.58189 0.0
N405 N 0.54747 0.97088 0.5568 0.0
C406 C 0.56037 0.97306 0.57693 0.0
C407 C 0.55912 0.95375 0.59265 0.0
C408 C 0.5444 0.93207 0.58762 0.0
C409 C 0.53388 0.92877 0.56553 0.0
C410 C 0.53572 0.94856 0.5502 0.0
Zn411 Zn 0.53691 0.00484 0.54367 0.0
C412 C 0.48476 0.00129 0.52994 0.0
N413 N 0.5111 0.07652 0.52252 0.0
C414 C 0.51697 0.09718 0.53673 0.0
C415 C 0.5007 0.07946 0.50147 0.0
C416 C 0.49648 0.1041 0.49375 0.0
C417 C 0.5028 0.1257 0.508 0.0
C418 C 0.5128 0.12202 0.52985 0.0
Zn419 Zn 0.52157 0.04166 0.53305 0.0
O420 O 0.52655 0.01542 0.57679 0.0
C421 C 0.57403 0.04475 0.54603 0.0
O422 O 0.51095 0.05152 0.56661 0.0
H423 H 0.49629 0.06275 0.49044 0.0
H424 H 0.56921 0.99106 0.58217 0.0
H425 H 0.52568 0.09447 0.55319 0.0
O426 O 0.57087 0.02117 0.55001 0.0
O427 O 0.5564 0.05787 0.53957 0.0
H428 H 0.52564 0.94714 0.53411 0.0
O429 O 0.53165 0.03088 0.49963 0.0
O430 O 0.54674 0.99431 0.51029 0.0
O431 O 0.48714 0.0251 0.52616 0.0
O432 O 0.50266 0.98895 0.53687 0.0
C433 C 0.54212 0.01005 0.49469 0.0
H434 H 0.56747 0.95721 0.60948 0.0
H435 H 0.52278 0.91203 0.56081 0.0
H436 H 0.4886 0.10628 0.47681 0.0
H437 H 0.51823 0.13821 0.54118 0.0
C438 C 0.27798 0.19331 0.7703 0.0
N439 N 0.25158 0.23632 0.82525 0.0
C440 C 0.24081 0.21343 0.8294 0.0
C441 C 0.23824 0.20594 0.85183 0.0
C442 C 0.24635 0.22243 0.87023 0.0
C443 C 0.25471 0.2472 0.86531 0.0
C444 C 0.25763 0.25357 0.84266 0.0
Zn445 Zn 0.26408 0.24237 0.79339 0.0
C446 C 0.31617 0.25106 0.79602 0.0
N447 N 0.29226 0.25351 0.72749 0.0
C448 C 0.28256 0.24094 0.70847 0.0
C449 C 0.31225 0.26838 0.72638 0.0
C450 C 0.32358 0.27054 0.7058 0.0
C451 C 0.31377 0.25831 0.68564 0.0
C452 C 0.2928 0.24342 0.68728 0.0
Zn453 Zn 0.2782 0.24836 0.75883 0.0
O454 O 0.26946 0.20271 0.78847 0.0
C455 C 0.22576 0.24008 0.75678 0.0
O456 O 0.28325 0.20818 0.75449 0.0
H457 H 0.3197 0.27848 0.74153 0.0
H458 H 0.23577 0.20007 0.81536 0.0
H459 H 0.26684 0.22894 0.70966 0.0
O460 O 0.22951 0.23817 0.77821 0.0
O461 O 0.2432 0.24423 0.74415 0.0
H462 H 0.26619 0.27168 0.83915 0.0
O463 O 0.27303 0.2886 0.76343 0.0
O464 O 0.25942 0.2822 0.79749 0.0
O465 O 0.31268 0.25248 0.77459 0.0
O466 O 0.29866 0.24672 0.80838 0.0
C467 C 0.2648 0.29747 0.782 0.0
H468 H 0.23169 0.18665 0.8545 0.0
H469 H 0.2604 0.26102 0.8788 0.0
H470 H 0.33994 0.28173 0.70592 0.0
H471 H 0.28401 0.234 0.6724 0.0
C472 C 0.07676 0.98527 0.52806 0.0
N473 N 0.04245 0.02029 0.47411 0.0
C474 C 0.06045 0.03812 0.47501 0.0
C475 C 0.06863 0.04803 0.45497 0.0
C476 C 0.0583 0.03936 0.43383 0.0
C477 C 0.03895 0.02192 0.43348 0.0
C478 C 0.03126 0.01256 0.45397 0.0
Zn479 Zn 0.03369 0.00397 0.50347 0.0
C480 C 0.02536 0.94676 0.49695 0.0
N481 N 0.01653 0.97074 0.5659 0.0
C482 C 0.03174 0.97626 0.58408 0.0
C483 C -0.00576 0.96129 0.56885 0.0
C484 C 0.98546 0.96042 0.59079 0.0
C485 C -1e-05 0.96899 0.6097 0.0
C486 C 0.02392 0.97504 0.60624 0.0
Zn487 Zn 0.02502 0.98545 0.53547 0.0
O488 O 0.06996 -0.0019 0.51113 0.0
C489 C 0.0329 0.04275 0.54197 0.0
O490 O 0.06146 0.97715 0.54156 0.0
H491 H 0.98249 0.95672 0.55418 0.0
H492 H 0.06903 0.04403 0.49124 0.0
H493 H 0.04931 0.984 0.58152 0.0
O494 O 0.03539 0.04075 0.52053 0.0
O495 O 0.02945 0.02245 0.55286 0.0
H496 H 0.01694 -0.00158 0.45374 0.0
O497 O 0.98859 0.9939 0.52842 0.0
O498 O -0.00232 0.00972 0.4957 0.0
O499 O 0.02054 0.94891 0.51801 0.0
O500 O 0.03157 0.96674 0.48663 0.0
C501 C 0.98215 0.00414 0.50991 0.0
H502 H 0.08344 0.06166 0.45597 0.0
H503 H 0.03069 0.01448 0.4175 0.0
H504 H 0.96692 0.95549 0.59261 0.0
H505 H 0.03594 0.98103 0.6204 0.0
C506 C 0.24286 0.73616 0.70443 0.0
N507 N 0.29602 0.70523 0.74681 0.0
C508 C 0.29851 0.68477 0.73189 0.0
C509 C 0.32017 0.67207 0.73107 0.0
C510 C 0.33903 0.68033 0.74608 0.0
C511 C 0.33574 0.70131 0.76135 0.0
C512 C 0.31414 0.7136 0.76132 0.0
Zn513 Zn 0.26529 0.72468 0.74942 0.0
C514 C 0.27322 0.78079 0.7502 0.0
N515 N 0.20116 0.76475 0.75802 0.0
C516 C 0.17961 0.75612 0.74936 0.0
C517 C 0.20321 0.78573 0.77264 0.0
C518 C 0.18314 0.79822 0.77992 0.0
C519 C 0.16059 0.78863 0.7727 0.0
C520 C 0.15891 0.76782 0.75659 0.0
Zn521 Zn 0.23129 0.74463 0.75329 0.0
O522 O 0.26018 0.72446 0.71357 0.0
C523 C 0.22395 0.68849 0.75357 0.0
O524 O 0.22732 0.74609 0.71713 0.0
H525 H 0.22037 0.7921 0.77975 0.0
H526 H 0.28379 0.67846 0.72053 0.0
H527 H 0.17839 0.73935 0.73782 0.0
O528 O 0.24627 0.68963 0.75139 0.0
O529 O 0.21219 0.70911 0.75345 0.0
H530 H 0.31198 0.73009 0.77281 0.0
O531 O 0.23547 0.743 0.78949 0.0
O532 O 0.27006 0.72544 0.78538 0.0
O533 O 0.25109 0.77979 0.7533 0.0
O534 O 0.28439 0.75997 0.74782 0.0
C535 C 0.25413 0.73368 0.79832 0.0
H536 H 0.32223 0.65619 0.71882 0.0
H537 H 0.35006 0.70888 0.77268 0.0
H538 H 0.18529 0.81452 0.79196 0.0
H539 H 0.14185 0.75969 0.75068 0.0
C540 C 0.57044 0.94167 0.02546 0.0
N541 N 0.59415 0.01533 0.04742 0.0
C542 C 0.58444 0.03711 0.0563 0.0
C543 C 0.58983 0.04524 0.07898 0.0
C544 C 0.60535 0.03076 0.09248 0.0
C545 C 0.61641 0.00953 0.08221 0.0
C546 C 0.6105 0.0021 0.05963 0.0
Zn547 Zn 0.58118 -0.0021 0.01773 0.0
C548 C 0.62004 0.97358 0.99125 0.0
N549 N 0.55422 0.957 0.95785 0.0
C550 C 0.53611 0.93979 0.9603 0.0
C551 C 0.56124 0.96338 0.93682 0.0
C552 C 0.5487 0.95376 0.91722 0.0
C553 C 0.52893 0.93725 0.91936 0.0
C554 C 0.5234 0.92939 0.9412 0.0
Zn555 Zn 0.56818 0.97564 0.98658 0.0
O556 O 0.577 0.96277 0.03567 0.0
C557 C 0.52912 -0.00059 0.01315 0.0
O558 O 0.56595 0.9413 0.00409 0.0
H559 H 0.57575 0.97702 0.93529 0.0
H560 H 0.57147 0.04732 0.04626 0.0
H561 H 0.53064 0.93507 0.97714 0.0
O562 O 0.54631 0.00835 0.02585 0.0
O563 O 0.53329 0.98484 -0.00408 0.0
H564 H 0.61778 0.98465 0.0524 0.0
O565 O 0.57028 0.01081 0.96939 0.0
O566 O 0.58475 0.03244 -8e-05 0.0
O567 O 0.60298 0.96613 0.97763 0.0
O568 O 0.61574 0.98733 0.00898 0.0
C569 C 0.57776 0.03197 0.979 0.0
H570 H 0.5811 0.06189 0.08617 0.0
H571 H 0.62814 -0.00254 0.09195 0.0
H572 H 0.5535 0.96058 0.90075 0.0
H573 H 0.50858 0.91637 0.94364 0.0
C574 C 0.2511 0.24358 0.2625 0.0
N575 N 0.29802 0.27661 0.21825 0.0
C576 C 0.31286 0.2567 0.22186 0.0
C577 C 0.32369 0.24438 0.20355 0.0
C578 C 0.31882 0.2523 0.1813 0.0
C579 C 0.30451 0.27377 0.17814 0.0
C580 C 0.29437 0.28587 0.19703 0.0
Zn581 Zn 0.27771 0.28874 0.24462 0.0
C582 C 0.22829 0.30055 0.22892 0.0
N583 N 0.23497 0.31013 0.30069 0.0
C584 C 0.23564 0.29457 0.31884 0.0
C585 C 0.2268 0.33455 0.30275 0.0
C586 C 0.2215 0.34508 0.32425 0.0
C587 C 0.2244 0.33018 0.34362 0.0
C588 C 0.23022 0.3042 0.34052 0.0
Zn589 Zn 0.25412 0.29896 0.27309 0.0
O590 O 0.26661 0.24977 0.24841 0.0
C591 C 0.30336 0.2889 0.28928 0.0
O592 O 0.24236 0.26085 0.27536 0.0
H593 H 0.22635 0.34661 0.28813 0.0
H594 H 0.31521 0.24931 0.23876 0.0
H595 H 0.24258 0.2754 0.31705 0.0
O596 O 0.3067 0.28538 0.26808 0.0
O597 O 0.2826 0.29297 0.2959 0.0
H598 H 0.28255 0.30173 0.19453 0.0
O599 O 0.26661 0.33667 0.27058 0.0
O600 O 0.28897 0.32775 0.24155 0.0
O601 O 0.22598 0.30548 0.25014 0.0
O602 O 0.24803 0.29287 0.22172 0.0
C603 C 0.28158 0.34391 0.25642 0.0
H604 H 0.33435 0.22764 0.20658 0.0
H605 H 0.3004 0.28039 0.16117 0.0
H606 H 0.21685 0.36517 0.32594 0.0
H607 H 0.23296 0.2921 0.35499 0.0
C608 C 0.5672 0.4864 0.04038 0.0
N609 N 0.53608 0.52083 0.9842 0.0
C610 C 0.55483 0.53773 0.98517 0.0
C611 C 0.56358 0.54712 0.96512 0.0
C612 C 0.55281 0.53907 0.94399 0.0
C613 C 0.53273 0.52268 0.94361 0.0
C614 C 0.52467 0.51366 0.96404 0.0
Zn615 Zn 0.52575 0.50467 0.01312 0.0
C616 C 0.51801 0.44753 0.00602 0.0
N617 N 0.50416 0.47082 0.07376 0.0
C618 C 0.51638 0.47773 0.09358 0.0
C619 C 0.48321 0.45742 0.07379 0.0
C620 C 0.47277 0.4524 0.09442 0.0
C621 C 0.48418 0.46108 0.11509 0.0
C622 C 0.50673 0.47289 0.11455 0.0
Zn623 Zn 0.51489 0.48611 0.04441 0.0
O624 O 0.56138 0.49901 0.023 0.0
C625 C 0.5226 0.54344 0.05112 0.0
O626 O 0.55111 0.47807 0.05299 0.0
H627 H 0.47384 0.45206 0.0578 0.0
H628 H 0.5635 0.54328 0.00146 0.0
H629 H 0.53288 0.48861 0.09314 0.0
O630 O 0.52656 0.54125 0.02996 0.0
O631 O 0.51809 0.52328 0.06192 0.0
H632 H 0.50982 0.50018 0.96371 0.0
O633 O 0.47875 0.49429 0.03517 0.0
O634 O 0.49027 0.51035 0.00334 0.0
O635 O 0.51179 0.44949 0.02668 0.0
O636 O 0.52475 0.46765 -0.00377 0.0
C637 C 0.47368 0.50467 0.01637 0.0
H638 H 0.57907 0.55981 0.96605 0.0
H639 H 0.52418 0.51568 0.92762 0.0
H640 H 0.45543 0.44307 0.09418 0.0
H641 H 0.51598 0.48017 0.1301 0.0
C642 C 0.73713 0.24578 0.21062 0.0
N643 N 0.79029 0.20676 0.2465 0.0
C644 C 0.79075 0.18853 0.22917 0.0
C645 C 0.81157 0.17505 0.22522 0.0
C646 C 0.83177 0.18017 0.23956 0.0
C647 C 0.83051 0.1987 0.25752 0.0
C648 C 0.80965 0.21192 0.26057 0.0
Zn649 Zn 0.76108 0.22797 0.25274 0.0
C650 C 0.77294 0.28369 0.25778 0.0
N651 N 0.70104 0.27242 0.26869 0.0
C652 C 0.67896 0.26688 0.25944 0.0
C653 C 0.70474 0.29138 0.28519 0.0
C654 C 0.68576 0.3049 0.29373 0.0
C655 C 0.66262 0.29862 0.28552 0.0
C656 C 0.65934 0.27982 0.26769 0.0
Zn657 Zn 0.72937 0.25068 0.26082 0.0
O658 O 0.75417 0.23209 0.21761 0.0
C659 C 0.71782 0.19494 0.25689 0.0
O660 O 0.72314 0.25549 0.22505 0.0
H661 H 0.72237 0.29537 0.29249 0.0
H662 H 0.77511 0.18474 0.2182 0.0
H663 H 0.67646 0.25169 0.24637 0.0
O664 O 0.73969 0.19402 0.25243 0.0
O665 O 0.70827 0.21664 0.26021 0.0
H666 H 0.80912 0.22676 0.27399 0.0
O667 O 0.73584 0.24584 0.2963 0.0
O668 O 0.76773 0.22447 0.28821 0.0
O669 O 0.75104 0.28424 0.26193 0.0
O670 O 0.78237 0.26221 0.25323 0.0
C671 C 0.75389 0.23359 0.30291 0.0
H672 H 0.812 0.16109 0.21103 0.0
H673 H 0.84588 0.20382 0.26854 0.0
H674 H 0.68913 0.31955 0.30719 0.0
H675 H 0.64176 0.27423 0.261 0.0
C676 C 0.06612 0.44593 0.52923 0.0
N677 N 0.08154 0.52056 0.55389 0.0
C678 C 0.06545 0.51702 0.57025 0.0
C679 C 0.07058 0.52541 0.59274 0.0
C680 C 0.09269 0.53708 0.59861 0.0
C681 C 0.10861 0.5416 0.58129 0.0
C682 C 0.10253 0.53331 0.5588 0.0
Zn683 Zn 0.07463 0.50214 0.52302 0.0
C684 C 0.11871 0.48113 0.50282 0.0
N685 N 0.05972 0.46081 0.45979 0.0
C686 C 0.04415 0.44054 0.46034 0.0
C687 C 0.06734 0.46931 0.43961 0.0
C688 C 0.05756 0.45882 0.41894 0.0
C689 C 0.04013 0.43911 0.41916 0.0
C690 C 0.03461 0.42898 0.44018 0.0
Zn691 Zn 0.06794 0.48054 0.48997 0.0
O692 O 0.06954 0.46719 0.54038 0.0
C693 C 0.02357 0.50055 0.50994 0.0
O694 O 0.06527 0.44579 0.50757 0.0
H695 H 0.07986 0.48529 0.43949 0.0
H696 H 0.04912 0.50633 0.5662 0.0
H697 H 0.03783 0.43417 0.47637 0.0
O698 O 0.03813 0.51046 0.52499 0.0
O699 O 0.03127 0.4866 0.49368 0.0
H700 H 0.11506 0.53591 0.54551 0.0
O701 O 0.0707 0.51629 0.47312 0.0
O702 O 0.07934 0.53674 0.50599 0.0
O703 O 0.10431 0.47409 0.48645 0.0
O704 O 0.111 0.49336 0.52017 0.0
C705 C 0.07571 0.53722 0.48446 0.0
H706 H 0.05804 0.52105 0.60568 0.0
H707 H 0.12588 0.55049 0.58526 0.0
H708 H 0.06233 0.46742 0.40318 0.0
H709 H 0.02175 0.41338 0.44121 0.0
C710 C 0.77875 0.68762 0.26835 0.0
N711 N 0.74826 0.73077 0.32046 0.0
C712 C 0.73684 0.70811 0.32404 0.0
C713 C 0.73256 0.70086 0.3462 0.0
C714 C 0.73956 0.71736 0.36498 0.0
C715 C 0.74884 0.74192 0.36047 0.0
C716 C 0.75346 0.74806 0.33804 0.0
Zn717 Zn 0.76134 0.73623 0.28885 0.0
C718 C 0.81311 0.74874 0.29176 0.0
N719 N 0.78937 0.74598 0.223 0.0
C720 C 0.78406 0.72733 0.20656 0.0
C721 C 0.80414 0.76611 0.21895 0.0
C722 C 0.81402 0.76816 0.19756 0.0
C723 C 0.80879 0.74918 0.1802 0.0
C724 C 0.79371 0.72846 0.18505 0.0
Zn725 Zn 0.77579 0.74213 0.25454 0.0
O726 O 0.76881 0.69678 0.28584 0.0
C727 C 0.72394 0.73001 0.25175 0.0
O728 O 0.78367 0.70241 0.2524 0.0
H729 H 0.80822 0.78066 0.23231 0.0
H730 H 0.73243 0.69479 0.3098 0.0
H731 H 0.77236 0.7114 0.21015 0.0
O732 O 0.72716 0.72935 0.27332 0.0
O733 O 0.74152 0.73457 0.23945 0.0
H734 H 0.76239 0.76607 0.33486 0.0
O735 O 0.76782 0.78192 0.25721 0.0
O736 O 0.75461 0.77586 0.29149 0.0
O737 O 0.80981 0.74992 0.27023 0.0
O738 O 0.7957 0.7432 0.30395 0.0
C739 C 0.75903 0.79086 0.2755 0.0
H740 H 0.72546 0.6817 0.34844 0.0
H741 H 0.75377 0.75579 0.37416 0.0
H742 H 0.82517 0.78476 0.19454 0.0
H743 H 0.78937 0.71322 0.17236 0.0
C744 C 0.8138 0.25924 0.74165 0.0
N745 N 0.75067 0.24487 0.70419 0.0
C746 C 0.76071 0.25951 0.68824 0.0
C747 C 0.76215 0.25013 0.66577 0.0
C748 C 0.75363 0.22519 0.65965 0.0
C749 C 0.74138 0.21142 0.67587 0.0
C750 C 0.74004 0.22174 0.6982 0.0
Zn751 Zn 0.75961 0.25474 0.73766 0.0
C752 C 0.76977 0.20864 0.76435 0.0
N753 N 0.78457 0.27522 0.80584 0.0
C754 C 0.7982 0.29669 0.81107 0.0
C755 C 0.77452 0.26172 0.82256 0.0
C756 C 0.77746 0.27003 0.84545 0.0
C757 C 0.79053 0.29272 0.85122 0.0
C758 C 0.80128 0.30593 0.83377 0.0
Zn759 Zn 0.77497 0.26506 0.7725 0.0
O760 O 0.79567 0.25564 0.72827 0.0
C761 C 0.76439 0.31115 0.7456 0.0
O762 O 0.81093 0.26379 0.76286 0.0
H763 H 0.76334 0.24502 0.81811 0.0
H764 H 0.76946 0.27763 0.69325 0.0
H765 H 0.806 0.30721 0.79757 0.0
O766 O 0.75651 0.29404 0.73108 0.0
O767 O 0.77351 0.30437 0.76454 0.0
H768 H 0.73221 0.21033 0.7111 0.0
O769 O 0.73908 0.2659 0.78163 0.0
O770 O 0.72367 0.25375 0.74783 0.0
O771 O 0.77602 0.2256 0.77971 0.0
O772 O 0.76272 0.21556 0.74476 0.0
C773 C 0.72094 0.26009 0.7688 0.0
H774 H 0.77121 0.26167 0.65368 0.0
H775 H 0.73453 0.1921 0.67192 0.0
H776 H 0.76867 0.25945 0.85838 0.0
H777 H 0.81166 0.32341 0.83761 0.0
C778 C 0.74674 0.72379 0.75877 0.0
N779 N 0.79367 0.74923 0.71096 0.0
C780 C 0.80643 0.72777 0.71492 0.0
C781 C 0.81423 0.71248 0.6967 0.0
C782 C 0.80844 0.71907 0.67424 0.0
C783 C 0.79641 0.74203 0.67058 0.0
C784 C 0.78931 0.75705 0.68933 0.0
Zn785 Zn 0.77615 0.76538 0.73774 0.0
C786 C 0.72733 0.78127 0.72329 0.0
N787 N 0.73767 0.79372 0.79472 0.0
C788 C 0.73821 0.77943 0.81371 0.0
C789 C 0.73183 0.81901 0.79598 0.0
C790 C 0.72881 0.83148 0.81725 0.0
C791 C 0.73151 0.81765 0.83728 0.0
C792 C 0.73499 0.79102 0.83522 0.0
Zn793 Zn 0.75415 0.77877 0.76658 0.0
O794 O 0.76197 0.72808 0.74386 0.0
C795 C 0.80314 0.76509 0.78132 0.0
O796 O 0.73965 0.74229 0.77134 0.0
H797 H 0.73146 0.83008 0.78073 0.0
H798 H 0.80928 0.72153 0.73217 0.0
H799 H 0.74334 0.75952 0.81255 0.0
O800 O 0.8056 0.76022 0.76014 0.0
O801 O 0.783 0.77135 0.78832 0.0
H802 H 0.77914 0.77413 0.68653 0.0
O803 O 0.76913 0.8148 0.76145 0.0
O804 O 0.79044 0.80292 0.73237 0.0
O805 O 0.72575 0.78676 0.74452 0.0
O806 O 0.74621 0.77161 0.71584 0.0
C807 C 0.78394 0.82035 0.74655 0.0
H808 H 0.82326 0.69476 0.70017 0.0
H809 H 0.79178 0.74776 0.65343 0.0
H810 H 0.7259 0.85202 0.81811 0.0
H811 H 0.73747 0.77966 0.8502 0.0
C812 C 0.49461 0.60286 0.49106 0.0
N813 N 0.46065 0.58293 0.55018 0.0
C814 C 0.44208 0.59517 0.54015 0.0
C815 C 0.41887 0.5861 0.54244 0.0
C816 C 0.41476 0.56461 0.55556 0.0
C817 C 0.43405 0.55351 0.56706 0.0
C818 C 0.457 0.56288 0.56396 0.0
Zn819 Zn 0.49446 0.59163 0.54109 0.0
C820 C 0.51745 0.54492 0.52273 0.0
N821 N 0.56417 0.60812 0.51861 0.0
C822 C 0.56965 0.62768 0.50477 0.0
C823 C 0.58123 0.59232 0.5267 0.0
C824 C 0.6048 0.59602 0.52125 0.0
C825 C 0.61093 0.61588 0.50701 0.0
C826 C 0.59316 0.63181 0.49853 0.0
Zn827 Zn 0.5302 0.60058 0.52812 0.0
O828 O 0.48179 0.59664 0.5074 0.0
C829 C 0.50599 0.64688 0.54718 0.0
O830 O 0.51668 0.60714 0.4948 0.0
H831 H 0.57656 0.57665 0.53736 0.0
H832 H 0.44533 0.61117 0.52937 0.0
H833 H 0.55581 0.63997 0.49848 0.0
O834 O 0.48964 0.63014 0.54921 0.0
O835 O 0.52562 0.64016 0.53887 0.0
H836 H 0.47197 0.55321 0.57156 0.0
O837 O 0.5433 0.59301 0.5615 0.0
O838 O 0.50791 0.58602 0.57453 0.0
O839 O 0.53371 0.56082 0.51782 0.0
O840 O 0.49945 0.55297 0.53293 0.0
C841 C 0.5303 0.58716 0.57783 0.0
H842 H 0.40437 0.59514 0.53335 0.0
H843 H 0.43158 0.53666 0.57708 0.0
H844 H 0.61814 0.58322 0.52782 0.0
H845 H 0.59741 0.6472 0.48736 0.0
C846 C 0.01048 0.53529 0.08024 0.0
N847 N 0.04203 0.47057 0.05395 0.0
C848 C 0.05451 0.47191 0.07432 0.0
C849 C 0.05326 0.45169 0.08914 0.0
C850 C 0.03901 0.42996 0.08289 0.0
C851 C 0.02888 0.42772 0.06058 0.0
C852 C 0.03065 0.44843 0.04624 0.0
Zn853 Zn 0.03194 0.50487 0.04142 0.0
C854 C 0.98 0.50256 0.02775 0.0
N855 N 0.00758 0.57751 0.02177 0.0
C856 C 0.01361 0.5983 0.03576 0.0
C857 C -0.00232 0.58022 0.00049 0.0
C858 C -0.00551 0.60472 0.99215 0.0
C859 C 0.00138 0.62645 0.00598 0.0
C860 C 0.01051 0.62308 0.02821 0.0
Zn861 Zn 0.01755 0.54252 0.03213 0.0
O862 O 0.02193 0.51538 0.07477 0.0
C863 C 0.06968 0.5445 0.04504 0.0
O864 O 0.00625 0.55175 0.06531 0.0
H865 H 0.99306 0.56338 0.98969 0.0
H866 H 0.06312 0.48979 0.08034 0.0
H867 H 0.02181 0.59569 0.05247 0.0
O868 O 0.06635 0.52061 0.04764 0.0
O869 O 0.0521 0.55828 0.03976 0.0
H870 H 0.02087 0.44774 0.02998 0.0
O871 O 0.02879 0.53274 -0.00095 0.0
O872 O 0.04119 0.49435 0.00787 0.0
O873 O 0.98303 0.52634 0.02413 0.0
O874 O -0.0025 0.48968 0.0348 0.0
C875 C 0.03807 0.51151 0.99323 0.0
H876 H 0.06131 0.45433 0.10618 0.0
H877 H 0.01816 0.411 0.05494 0.0
H878 H 0.98714 0.60666 0.97496 0.0
H879 H 0.01623 0.6394 0.03927 0.0
H880 H 0.0326 0.23798 0.14716 0.0
H881 H 0.97333 0.16397 0.03793 0.0
H882 H 0.95702 0.22785 0.13424 0.0
H883 H 0.04894 0.16982 0.05174 0.0
H884 H 0.96756 0.19656 0.06815 0.0
H885 H 0.03917 0.22117 0.10851 0.0
C886 C 0.01735 0.2323 0.1362 0.0
C887 C -0.00578 0.23379 0.14419 0.0
C888 C 0.98547 0.19118 0.0643 0.0
C889 C 0.00167 0.21478 0.09976 0.0
C890 C 0.98878 0.17271 0.04692 0.0
C891 C 0.01161 0.16391 0.04267 0.0
C892 C 0.00512 0.20061 0.07773 0.0
C893 C 0.03103 0.17598 0.05462 0.0
C894 C 0.02114 0.22287 0.11405 0.0
C895 C 0.97518 0.22669 0.12899 0.0
N896 N 0.02731 0.19333 0.07203 0.0
N897 N 0.97935 0.21722 0.1076 0.0
H898 H 0.08739 0.72582 0.32382 0.0
H899 H 0.20086 0.80681 0.29397 0.0
H900 H 0.09262 0.80763 0.33921 0.0
H901 H 0.17649 0.7411 0.25167 0.0
H902 H 0.16331 0.80606 0.31356 0.0
H903 H 0.12242 0.72913 0.3006 0.0
C904 C 0.096 0.74447 0.32245 0.0
C905 C 0.08714 0.7665 0.33358 0.0
C906 C 0.16605 0.792 0.29981 0.0
C907 C 0.12722 0.77031 0.30705 0.0
C908 C 0.18744 0.79239 0.28864 0.0
C909 C 0.19171 0.77399 0.27117 0.0
C910 C 0.14903 0.77265 0.2939 0.0
C911 C 0.17378 0.75572 0.26494 0.0
C912 C 0.11583 0.74634 0.30901 0.0
C913 C 0.09887 0.79017 0.33096 0.0
N914 N 0.15332 0.75524 0.27657 0.0
N915 N 0.11847 0.79142 0.31814 0.0
H916 H 0.53817 0.85277 0.71386 0.0
H917 H 0.49979 0.91394 0.59545 0.0
H918 H 0.46739 0.84548 0.68318 0.0
H919 H 0.57178 0.91439 0.62333 0.0
H920 H 0.48674 0.89213 0.62899 0.0
H921 H 0.54924 0.88098 0.68362 0.0
C922 C 0.52476 0.8576 0.70108 0.0
C923 C 0.5019 0.84635 0.70087 0.0
C924 C 0.5054 0.89691 0.62775 0.0
C925 C 0.51467 0.87821 0.66587 0.0
C926 C 0.51296 0.90901 0.60841 0.0
C927 C 0.537 0.91578 0.60642 0.0
C928 C 0.52197 0.89157 0.64531 0.0
C929 C 0.55308 0.9096 0.62415 0.0
C930 C 0.53119 0.87352 0.68367 0.0
C931 C 0.48525 0.85353 0.68398 0.0
N932 N 0.54527 0.89785 0.64285 0.0
N933 N 0.49209 0.86867 0.66692 0.0
H934 H 0.44182 0.23416 0.88122 0.0
H935 H 0.35659 0.26673 0.77564 0.0
H936 H 0.46578 0.2763 0.82411 0.0
H937 H 0.33088 0.24269 0.84012 0.0
H938 H 0.39672 0.27038 0.79291 0.0
H939 H 0.40108 0.23754 0.86662 0.0
C940 C 0.43854 0.24444 0.86577 0.0
C941 C 0.45731 0.25491 0.85386 0.0
C942 C 0.38227 0.26449 0.80331 0.0
C943 C 0.41057 0.25843 0.83676 0.0
C944 C 0.35937 0.26228 0.79345 0.0
C945 C 0.34038 0.2542 0.80642 0.0
C946 C 0.38625 0.25831 0.82625 0.0
C947 C 0.345 0.24888 0.82945 0.0
C948 C 0.4152 0.24633 0.8574 0.0
C949 C 0.45186 0.26794 0.83385 0.0
N950 N 0.3675 0.25082 0.83857 0.0
N951 N 0.42899 0.26907 0.82577 0.0
H952 H 0.03725 0.81806 0.39828 0.0
H953 H 0.00979 0.9007 0.51266 0.0
H954 H -0.00326 0.78953 0.45336 0.0
H955 H 0.03883 0.93438 0.45333 0.0
H956 H 0.00855 0.85874 0.49234 0.0
H957 H 0.04208 0.85966 0.41954 0.0
C958 C 0.0296 0.82041 0.41491 0.0
C959 C 0.01644 0.80027 0.42395 0.0
C960 C 0.0152 0.8753 0.48374 0.0
C961 C 0.02183 0.84776 0.4483 0.0
C962 C 0.0159 0.8993 0.49536 0.0
C963 C 0.02431 0.92118 0.48469 0.0
C964 C 0.02309 0.873 0.46127 0.0
C965 C 0.03208 0.91809 0.46221 0.0
C966 C 0.03224 0.8442 0.42697 0.0
C967 C 0.00685 0.80451 0.44556 0.0
N968 N 0.03129 0.89447 0.45127 0.0
N969 N 0.0097 0.8277 0.45691 0.0
H970 H 0.48527 0.69272 0.71483 0.0
H971 H 0.36429 0.67218 0.70766 0.0
H972 H 0.46152 0.73405 0.77471 0.0
H973 H 0.36884 0.66609 0.78089 0.0
H974 H 0.40757 0.67311 0.70722 0.0
H975 H 0.44989 0.66419 0.71539 0.0
C976 C 0.47291 0.69525 0.72843 0.0
C977 C 0.47589 0.71575 0.74463 0.0
C978 C 0.39913 0.6703 0.72326 0.0
C979 C 0.43615 0.68346 0.74552 0.0
C980 C 0.37438 0.66973 0.72351 0.0
C981 C 0.36311 0.6699 0.74444 0.0
C982 C 0.41235 0.67144 0.74411 0.0
C983 C 0.377 0.66677 0.76448 0.0
C984 C 0.45283 0.67912 0.72867 0.0
C985 C 0.45954 0.71856 0.76182 0.0
N986 N 0.40096 0.66871 0.76395 0.0
N987 N 0.44028 0.70261 0.76179 0.0
H988 H 0.57322 0.18879 0.92758 0.0
H989 H 0.55338 0.0389 0.93875 0.0
H990 H 0.50442 0.15101 0.92016 0.0
H991 H 0.59623 0.08027 0.99129 0.0
H992 H 0.54395 0.07971 0.92171 0.0
H993 H 0.58969 0.14863 0.94241 0.0
C994 C 0.56166 0.17213 0.92907 0.0
C995 C 0.5374 0.17324 0.92287 0.0
C996 C 0.55572 0.07975 0.93677 0.0
C997 C 0.5561 0.1276 0.93882 0.0
C998 C 0.56121 0.05649 0.94648 0.0
C999 C 0.57541 0.05617 0.96667 0.0
C1000 C 0.56477 0.10287 0.94702 0.0
C1001 C 0.58503 0.07969 0.97585 0.0
C1002 C 0.57102 0.14938 0.93749 0.0
C1003 C 0.52315 0.15113 0.92501 0.0
N1004 N 0.57945 0.10222 0.966 0.0
N1005 N 0.53275 0.12919 0.93256 0.0
H1006 H 0.08181 0.30221 0.20155 0.0
H1007 H 0.21747 0.26678 0.19307 0.0
H1008 H 0.10571 0.2266 0.1813 0.0
H1009 H 0.19063 0.33213 0.23091 0.0
H1010 H 0.17757 0.25822 0.17596 0.0
H1011 H 0.12215 0.319 0.19921 0.0
C1012 C 0.09558 0.28915 0.19644 0.0
C1013 C 0.09066 0.26281 0.19234 0.0
C1014 C 0.18062 0.27485 0.18749 0.0
C1015 C 0.13686 0.28194 0.18973 0.0
C1016 C 0.20335 0.27986 0.19711 0.0
C1017 C 0.20706 0.29991 0.21366 0.0
C1018 C 0.16179 0.29023 0.1944 0.0
C1019 C 0.1883 0.31624 0.21845 0.0
C1020 C 0.11856 0.2988 0.19498 0.0
C1021 C 0.10895 0.24695 0.18504 0.0
N1022 N 0.16637 0.31084 0.20909 0.0
N1023 N 0.13147 0.25667 0.18444 0.0
H1024 H 0.13947 0.04664 0.16847 0.0
H1025 H 0.01736 0.0592 0.09585 0.0
H1026 H 0.07237 0.01471 0.18816 0.0
H1027 H 0.08577 0.08074 0.07098 0.0
H1028 H 0.03702 0.04537 0.13105 0.0
H1029 H 0.11996 0.06129 0.13342 0.0
C1030 C 0.12068 0.04261 0.16537 0.0
C1031 C 0.10753 0.02944 0.18125 0.0
C1032 C 0.04772 0.05317 0.11789 0.0
C1033 C 0.08509 0.04631 0.14138 0.0
C1034 C 0.03649 0.06117 0.09784 0.0
C1035 C 0.04994 0.07107 0.08044 0.0
C1036 C 0.07256 0.0552 0.12058 0.0
C1037 C 0.07469 0.07314 0.08393 0.0
C1038 C 0.10955 0.05101 0.1454 0.0
C1039 C 0.08323 0.02478 0.17639 0.0
N1040 N 0.08521 0.06524 0.10359 0.0
N1041 N 0.07279 0.03328 0.15694 0.0
H1042 H 0.32238 0.81395 0.49032 0.0
H1043 H 0.28285 0.84881 0.36366 0.0
H1044 H 0.27949 0.87979 0.47631 0.0
H1045 H 0.29804 0.77126 0.3823 0.0
H1046 H 0.28622 0.8627 0.40423 0.0
H1047 H 0.31783 0.79985 0.45006 0.0
C1048 C 0.31193 0.8254 0.47878 0.0
C1049 C 0.30129 0.84809 0.48667 0.0
C1050 C 0.2888 0.84265 0.3994 0.0
C1051 C 0.29633 0.83222 0.44053 0.0
C1052 C 0.2871 0.83478 0.3763 0.0
C1053 C 0.29023 0.80888 0.3697 0.0
C1054 C 0.29406 0.82455 0.41592 0.0
C1055 C 0.2954 0.79139 0.38673 0.0
C1056 C 0.30932 0.8173 0.45583 0.0
C1057 C 0.28788 0.86211 0.47096 0.0
N1058 N 0.2973 0.79956 0.40906 0.0
N1059 N 0.28597 0.85408 0.44856 0.0
H1060 H 0.41934 0.06461 0.69279 0.0
H1061 H 0.51703 0.00109 0.61578 0.0
H1062 H 0.43054 0.98277 0.68634 0.0
H1063 H 0.4846 0.07239 0.59742 0.0
H1064 H 0.49029 -0.00184 0.64724 0.0
H1065 H 0.44647 0.07096 0.66159 0.0
C1066 C 0.42722 0.04797 0.68461 0.0
C1067 C 0.42274 0.02312 0.69221 0.0
C1068 C 0.48916 0.01455 0.63644 0.0
C1069 C 0.45414 0.03038 0.6572 0.0
C1070 C 0.5046 0.01643 0.61861 0.0
C1071 C 0.5029 0.03692 0.60376 0.0
C1072 C 0.47203 0.0334 0.63968 0.0
C1073 C 0.48645 0.05622 0.60839 0.0
C1074 C 0.44274 0.05165 0.66693 0.0
C1075 C 0.43342 0.00225 0.68104 0.0
N1076 N 0.47149 0.05393 0.62593 0.0
N1077 N 0.44887 0.0064 0.66431 0.0
H1078 H 0.31989 0.17378 0.98998 0.0
H1079 H 0.21941 0.18582 0.89166 0.0
H1080 H 0.26801 0.11355 0.97263 0.0
H1081 H 0.28135 0.23572 0.90261 0.0
H1082 H 0.23051 0.16431 0.92685 0.0
H1083 H 0.29884 0.20202 0.96434 0.0
C1084 C 0.30381 0.16664 0.98097 0.0
C1085 C 0.29579 0.14123 0.98317 0.0
C1086 C 0.24133 0.18031 0.92165 0.0
C1087 C 0.27179 0.17332 0.9534 0.0
C1088 C 0.23511 0.19256 0.90148 0.0
C1089 C 0.24959 0.21251 0.89372 0.0
C1090 C 0.26204 0.18822 0.93425 0.0
C1091 C 0.26934 0.22073 0.90769 0.0
C1092 C 0.29179 0.18276 0.96632 0.0
C1093 C 0.27468 0.13306 0.9714 0.0
N1094 N 0.27504 0.20841 0.92703 0.0
N1095 N 0.26358 0.14893 0.95664 0.0
H1096 H 0.08792 0.05486 0.29114 0.0
H1097 H 0.10551 0.04125 0.42581 0.0
H1098 H 0.14681 0.0176 0.32448 0.0
H1099 H 0.0367 0.05127 0.39281 0.0
H1100 H 0.12372 0.04478 0.38905 0.0
H1101 H 0.07162 0.0643 0.32873 0.0
C1102 C 0.09758 0.04896 0.30632 0.0
C1103 C 0.1188 0.03541 0.30466 0.0
C1104 C 0.10466 0.04655 0.3899 0.0
C1105 C 0.10046 0.04641 0.34741 0.0
C1106 C 0.09425 0.0448 0.41091 0.0
C1107 C 0.06951 0.04574 0.41232 0.0
C1108 C 0.09026 0.04919 0.37013 0.0
C1109 C 0.05582 0.05001 0.39236 0.0
C1110 C 0.08827 0.05436 0.32769 0.0
C1111 C 0.13055 0.0282 0.32485 0.0
N1112 N 0.06637 0.05133 0.37195 0.0
N1113 N 0.1212 0.03376 0.34537 0.0
H1114 H 0.24503 0.83602 0.59295 0.0
H1115 H 0.27418 0.71933 0.67279 0.0
H1116 H 0.30962 0.79275 0.59143 0.0
H1117 H 0.21393 0.76847 0.68071 0.0
H1118 H 0.28203 0.73913 0.63672 0.0
H1119 H 0.22879 0.80525 0.61898 0.0
C1120 C 0.25571 0.81989 0.59782 0.0
C1121 C 0.27894 0.81728 0.59028 0.0
C1122 C 0.26683 0.74527 0.64613 0.0
C1123 C 0.26037 0.78196 0.62011 0.0
C1124 C 0.26223 0.73385 0.6667 0.0
C1125 C 0.24364 0.74261 0.68007 0.0
C1126 C 0.25282 0.76568 0.6389 0.0
C1127 C 0.22864 0.76132 0.67114 0.0
C1128 C 0.24639 0.80231 0.6127 0.0
C1129 C 0.29179 0.79581 0.59705 0.0
N1130 N 0.23383 0.77257 0.65131 0.0
N1131 N 0.28244 0.77917 0.61177 0.0
H1132 H 0.46617 0.94195 0.78419 0.0
H1133 H 0.4805 0.93544 0.91935 0.0
H1134 H 0.41404 0.96671 0.83206 0.0
H1135 H 0.53894 0.92691 0.8742 0.0
H1136 H 0.45314 0.93435 0.88638 0.0
H1137 H 0.48985 0.92498 0.81585 0.0
C1138 C 0.45949 0.94344 0.80128 0.0
C1139 C 0.43827 0.95615 0.80557 0.0
C1140 C 0.47191 0.93231 0.88366 0.0
C1141 C 0.46517 0.93675 0.84167 0.0
C1142 C 0.48762 0.93265 0.90254 0.0
C1143 C 0.51219 0.9316 0.89959 0.0
C1144 C 0.48077 0.93122 0.86162 0.0
C1145 C 0.5202 0.92839 0.87726 0.0
C1146 C 0.47303 0.93377 0.8193 0.0
C1147 C 0.43039 0.95739 0.82797 0.0
N1148 N 0.50454 0.92871 0.85906 0.0
N1149 N 0.44396 0.94804 0.84522 0.0
H1150 H 0.30978 0.1289 0.0818 0.0
H1151 H 0.36274 0.23326 0.172 0.0
H1152 H 0.38132 0.15797 0.07497 0.0
H1153 H 0.28999 0.23306 0.14644 0.0
H1154 H 0.37174 0.2013 0.14147 0.0
H1155 H 0.30406 0.16164 0.11184 0.0
C1156 C 0.32445 0.14191 0.08683 0.0
C1157 C 0.34608 0.14072 0.07578 0.0
C1158 C 0.35392 0.20858 0.14248 0.0
C1159 C 0.33949 0.17831 0.11019 0.0
C1160 C 0.3488 0.22672 0.15978 0.0
C1161 C 0.32564 0.23587 0.16154 0.0
C1162 C 0.33558 0.1991 0.12742 0.0
C1163 C 0.30813 0.22674 0.14547 0.0
C1164 C 0.32105 0.16075 0.10383 0.0
C1165 C 0.36434 0.1583 0.08299 0.0
N1166 N 0.31338 0.2086 0.12927 0.0
N1167 N 0.36067 0.17642 0.09986 0.0
H1168 H 0.26044 0.06251 0.00625 0.0
H1169 H 0.14771 0.15047 0.01259 0.0
H1170 H 0.24758 0.11872 0.06011 0.0
H1171 H 0.1526 0.08189 0.96938 0.0
H1172 H 0.1908 0.15031 0.0196 0.0
H1173 H 0.22825 0.08069 0.98296 0.0
C1174 C 0.25148 0.07938 0.01273 0.0
C1175 C 0.25637 0.0891 0.03508 0.0
C1176 C 0.18254 0.13573 0.00804 0.0
C1177 C 0.21951 0.10961 0.00895 0.0
C1178 C 0.15798 0.13594 0.00391 0.0
C1179 C 0.14664 0.11584 0.9908 0.0
C1180 C 0.19568 0.11522 -0.00096 0.0
C1181 C 0.16072 0.09742 0.97998 0.0
C1182 C 0.23301 0.0896 -0.00043 0.0
C1183 C 0.24414 0.11069 0.04293 0.0
N1184 N 0.18448 0.09724 0.98471 0.0
N1185 N 0.226 0.12001 0.03002 0.0
H1186 H 0.72006 0.48071 0.03809 0.0
H1187 H 0.58548 0.44719 0.06518 0.0
H1188 H 0.69688 0.40469 0.05571 0.0
H1189 H 0.60605 0.51062 0.02437 0.0
H1190 H 0.6271 0.43419 0.06769 0.0
H1191 H 0.67892 0.49455 0.0382 0.0
C1192 C 0.7063 0.4669 0.04192 0.0
C1193 C 0.71188 0.44147 0.0468 0.0
C1194 C 0.62245 0.45103 0.05831 0.0
C1195 C 0.66481 0.45731 0.04728 0.0
C1196 C 0.59879 0.45858 0.05704 0.0
C1197 C 0.59234 0.47996 0.0445 0.0
C1198 C 0.63973 0.46522 0.04724 0.0
C1199 C 0.61024 0.49393 0.03413 0.0
C1200 C 0.68283 0.47482 0.04199 0.0
C1201 C 0.69332 0.42442 0.05168 0.0
N1202 N 0.63311 0.48632 0.03574 0.0
N1203 N 0.67058 0.43268 0.05192 0.0
H1204 H 0.82954 0.43383 0.29633 0.0
H1205 H 0.81784 0.29168 0.24245 0.0
H1206 H 0.87537 0.40712 0.2434 0.0
H1207 H 0.76009 0.33092 0.27425 0.0
H1208 H 0.84078 0.33235 0.24424 0.0
H1209 H 0.80516 0.39487 0.29001 0.0
C1210 C 0.83437 0.41978 0.28325 0.0
C1211 C 0.85453 0.42362 0.27041 0.0
C1212 C 0.82302 0.332 0.25066 0.0
C1213 C 0.82685 0.37876 0.26329 0.0
C1214 C 0.80999 0.30881 0.24978 0.0
C1215 C 0.78708 0.3079 0.25833 0.0
C1216 C 0.81315 0.35423 0.26046 0.0
C1217 C 0.7777 0.3307 0.2675 0.0
C1218 C 0.82041 0.39757 0.27961 0.0
C1219 C 0.8599 0.40488 0.25359 0.0
N1220 N 0.79084 0.35285 0.26849 0.0
N1221 N 0.84628 0.38301 0.25068 0.0
H1222 H 0.87012 0.49023 0.50511 0.0
H1223 H 0.00239 0.54133 0.53114 0.0
H1224 H 0.88812 0.57127 0.50959 0.0
H1225 H 0.98674 0.47136 0.49084 0.0
H1226 H 0.95981 0.55029 0.53093 0.0
H1227 H 0.91257 0.48057 0.50744 0.0
C1228 C 0.88303 0.50596 0.50663 0.0
C1229 C 0.87572 0.53158 0.50681 0.0
C1230 C 0.96578 0.53296 0.52222 0.0
C1231 C 0.92394 0.52073 0.5099 0.0
C1232 C 0.98997 0.52778 0.52242 0.0
C1233 C -0.00198 0.50563 0.51092 0.0
C1234 C 0.94958 0.51558 0.51087 0.0
C1235 C 0.98124 0.48874 0.49979 0.0
C1236 C 0.90714 0.50045 0.50787 0.0
C1237 C 0.89305 0.5513 0.50887 0.0
N1238 N 0.95775 0.49398 0.50015 0.0
N1239 N 0.91642 0.54547 0.51048 0.0
H1240 H 0.19174 0.09155 0.22947 0.0
H1241 H 0.22982 0.22131 0.29786 0.0
H1242 H 0.20105 0.09694 0.30305 0.0
H1243 H 0.25287 0.20502 0.22943 0.0
H1244 H 0.21417 0.17728 0.29885 0.0
H1245 H 0.20928 0.13501 0.22776 0.0
C1246 C 0.19743 0.10187 0.24522 0.0
C1247 C 0.19497 0.09066 0.26643 0.0
C1248 C 0.22276 0.18332 0.28366 0.0
C1249 C 0.21469 0.1401 0.26459 0.0
C1250 C 0.23163 0.20842 0.28306 0.0
C1251 C 0.24267 0.21672 0.26355 0.0
C1252 C 0.22455 0.16656 0.26446 0.0
C1253 C 0.24459 0.19925 0.24485 0.0
C1254 C 0.20753 0.12652 0.24422 0.0
C1255 C 0.20273 0.10478 0.28633 0.0
N1256 N 0.23539 0.17496 0.24567 0.0
N1257 N 0.21206 0.12884 0.28492 0.0
H1258 H 0.37067 0.89674 0.55684 0.0
H1259 H 0.44122 0.02157 0.519 0.0
H1260 H 0.33593 0.96158 0.52739 0.0
H1261 H 0.47474 0.95097 0.53757 0.0
H1262 H 0.4024 -0.0001 0.52083 0.0
H1263 H 0.40902 0.9163 0.54913 0.0
C1264 C 0.37108 0.91498 0.54859 0.0
C1265 C 0.35004 0.92752 0.54277 0.0
C1266 C 0.41829 0.98914 0.52428 0.0
C1267 C 0.39395 0.95023 0.53408 0.0
C1268 C 0.44044 0.00148 0.52319 0.0
C1269 C 0.46126 0.98814 0.52829 0.0
C1270 C 0.41702 0.96337 0.53066 0.0
C1271 C 0.45919 0.96211 0.53364 0.0
C1272 C 0.39301 0.92618 0.54418 0.0
C1273 C 0.35171 0.95124 0.53221 0.0
N1274 N 0.4375 0.95069 0.53486 0.0
N1275 N 0.37329 0.96192 0.52834 0.0
H1276 H 0.83626 0.54571 0.31202 0.0
H1277 H 0.80043 0.6616 0.23362 0.0
H1278 H 0.85698 0.55164 0.24211 0.0
H1279 H 0.77497 0.65238 0.3015 0.0
H1280 H 0.81788 0.61905 0.23496 0.0
H1281 H 0.81058 0.58249 0.3072 0.0
C1282 C 0.83529 0.5546 0.2956 0.0
C1283 C 0.84905 0.54574 0.27754 0.0
C1284 C 0.80825 0.62621 0.24946 0.0
C1285 C 0.81972 0.58794 0.27194 0.0
C1286 C 0.79826 0.6505 0.24869 0.0
C1287 C 0.7865 0.66068 0.26759 0.0
C1288 C 0.80661 0.61211 0.26933 0.0
C1289 C 0.78408 0.64538 0.28661 0.0
C1290 C 0.82057 0.57559 0.29285 0.0
C1291 C 0.84687 0.55791 0.25659 0.0
N1292 N 0.79431 0.62198 0.2871 0.0
N1293 N 0.83269 0.57854 0.25446 0.0
H1294 H 0.73371 0.46592 0.77772 0.0
H1295 H 0.74067 0.33207 0.70939 0.0
H1296 H 0.68662 0.44217 0.72064 0.0
H1297 H 0.78032 0.35282 0.77216 0.0
H1298 H 0.72916 0.37689 0.7064 0.0
H1299 H 0.75931 0.43009 0.76839 0.0
C1300 C 0.729 0.45343 0.76293 0.0
C1301 C 0.70766 0.45654 0.75032 0.0
C1302 C 0.74073 0.37171 0.72059 0.0
C1303 C 0.73667 0.41528 0.7398 0.0
C1304 C 0.7473 0.34612 0.72234 0.0
C1305 C 0.76096 0.33861 0.74139 0.0
C1306 C 0.74785 0.38982 0.73803 0.0
C1307 C 0.76934 0.35768 0.75744 0.0
C1308 C 0.74362 0.43297 0.75762 0.0
C1309 C 0.70272 0.4402 0.73103 0.0
N1310 N 0.76234 0.38234 0.75558 0.0
N1311 N 0.71685 0.41985 0.72666 0.0
H1312 H 0.96443 0.8925 0.97175 0.0
H1313 H 0.04518 0.01809 0.9624 0.0
H1314 H 0.00872 0.90406 0.91431 0.0
H1315 H 0.00851 -0.0022 0.02266 0.0
H1316 H 0.03598 0.97483 0.94558 0.0
H1317 H 0.9832 0.92991 0.99144 0.0
C1318 C 0.97809 0.90296 0.96323 0.0
C1319 C 0.98481 0.89532 0.94124 0.0
C1320 C 0.0304 0.97973 0.96267 0.0
C1321 C 0.00654 0.93833 0.96379 0.0
C1322 C 0.03581 0.00428 0.97231 0.0
C1323 C 0.02726 0.01149 0.99375 0.0
C1324 C 0.01639 0.96257 0.97467 0.0
C1325 C 0.01508 0.99307 0.0059 0.0
C1326 C 0.98898 0.92426 0.97458 0.0
C1327 C 0.00291 0.90941 0.93122 0.0
N1328 N 0.00975 0.9696 -0.00393 0.0
N1329 N 0.013 0.93046 0.94249 0.0
H1330 H 0.93261 0.26011 0.65274 0.0
H1331 H 0.85687 0.25593 0.76502 0.0
H1332 H 0.96192 0.23575 0.71731 0.0
H1333 H 0.82533 0.25788 0.6968 0.0
H1334 H 0.89598 0.25124 0.74847 0.0
H1335 H 0.8934 0.26129 0.66897 0.0
C1336 C 0.93078 0.25469 0.67024 0.0
C1337 C 0.95061 0.24777 0.68364 0.0
C1338 C 0.88046 0.25264 0.73717 0.0
C1339 C 0.90575 0.24964 0.70255 0.0
C1340 C 0.85817 0.25549 0.7466 0.0
C1341 C 0.83779 0.25735 0.73229 0.0
C1342 C 0.88239 0.25196 0.71329 0.0
C1343 C 0.84052 0.2565 0.70852 0.0
C1344 C 0.90836 0.25544 0.67954 0.0
C1345 C 0.94711 0.24107 0.7063 0.0
N1346 N 0.86237 0.25399 0.6998 0.0
N1347 N 0.92516 0.24243 0.71512 0.0
H1348 H 0.51134 0.26442 0.43231 0.0
H1349 H 0.48446 0.1671 0.5308 0.0
H1350 H 0.46278 0.28051 0.4861 0.0
H1351 H 0.51568 0.14421 0.4672 0.0
H1352 H 0.48203 0.21118 0.51791 0.0
H1353 H 0.51969 0.22296 0.44887 0.0
C1354 C 0.5028 0.25948 0.44785 0.0
C1355 C 0.48612 0.27579 0.4577 0.0
C1356 C 0.48941 0.1965 0.50678 0.0
C1357 C 0.4954 0.22841 0.4765 0.0
C1358 C 0.49079 0.17141 0.51412 0.0
C1359 C 0.50012 0.15205 0.49994 0.0
C1360 C 0.49764 0.20229 0.48522 0.0
C1361 C 0.50803 0.15855 0.47847 0.0
C1362 C 0.50741 0.23573 0.45715 0.0
C1363 C 0.47554 0.26837 0.47779 0.0
N1364 N 0.50666 0.18319 0.47175 0.0
N1365 N 0.48024 0.24512 0.48644 0.0
H1366 H 0.57177 0.71446 0.22869 0.0
H1367 H 0.70969 0.73812 0.20745 0.0
H1368 H 0.59775 0.75393 0.17087 0.0
H1369 H 0.68295 0.71605 0.27211 0.0
H1370 H 0.66905 0.73756 0.19138 0.0
H1371 H 0.61273 0.70869 0.24241 0.0
C1372 C 0.58607 0.72178 0.21879 0.0
C1373 C 0.58131 0.73488 0.19869 0.0
C1374 C 0.6721 0.73269 0.20904 0.0
C1375 C 0.62822 0.72826 0.21428 0.0
C1376 C 0.69531 0.7329 0.21821 0.0
C1377 C 0.69972 0.72731 0.24122 0.0
C1378 C 0.65317 0.72668 0.22292 0.0
C1379 C 0.68037 0.72066 0.25434 0.0
C1380 C 0.60945 0.71852 0.22667 0.0
C1381 C 0.60058 0.74388 0.18655 0.0
N1382 N 0.65793 0.72063 0.24502 0.0
N1383 N 0.62318 0.74045 0.19456 0.0
H1384 H 0.02853 0.17429 0.63895 0.0
H1385 H 0.02778 0.08925 0.52239 0.0
H1386 H 0.99058 0.19516 0.57727 0.0
H1387 H 0.03497 0.05499 0.58817 0.0
H1388 H 0.02191 0.13104 0.54173 0.0
H1389 H 0.03827 0.13301 0.61999 0.0
C1390 C 0.02235 0.17026 0.62142 0.0
C1391 C 0.00861 0.18817 0.60972 0.0
C1392 C 0.02492 0.1144 0.55192 0.0
C1393 C 0.02 0.14127 0.58791 0.0
C1394 C 0.02844 0.09054 0.54091 0.0
C1395 C 0.0318 0.06852 0.55367 0.0
C1396 C 0.02512 0.11642 0.5759 0.0
C1397 C 0.03235 0.07144 0.57766 0.0
C1398 C 0.02784 0.1467 0.61067 0.0
C1399 C 0.00104 0.18189 0.58702 0.0
N1400 N 0.02906 0.09496 0.58801 0.0
N1401 N 0.00694 0.15906 0.57684 0.0
H1402 H 0.56176 0.33768 0.38718 0.0
H1403 H 0.62047 0.31447 0.26613 0.0
H1404 H 0.52303 0.3404 0.32232 0.0
H1405 H 0.65782 0.30784 0.3313 0.0
H1406 H 0.58567 0.32927 0.28623 0.0
H1407 H 0.59847 0.33251 0.36678 0.0
C1408 C 0.56101 0.33743 0.36867 0.0
C1409 C 0.53929 0.33911 0.35642 0.0
C1410 C 0.6016 0.32483 0.29609 0.0
C1411 C 0.58111 0.33306 0.33298 0.0
C1412 C 0.6214 0.31627 0.28463 0.0
C1413 C 0.64205 0.30983 0.29703 0.0
C1414 C 0.60245 0.3268 0.32011 0.0
C1415 C 0.6424 0.31288 0.32099 0.0
C1416 C 0.58195 0.33445 0.35702 0.0
C1417 C 0.53936 0.33887 0.33245 0.0
N1418 N 0.62285 0.32095 0.33173 0.0
N1419 N 0.55992 0.33564 0.3215 0.0
H1420 H 0.50433 0.80471 0.0717 0.0
H1421 H 0.582 0.93333 0.07061 0.0
H1422 H 0.55492 0.82662 0.12648 0.0
H1423 H 0.54979 0.89623 0.00954 0.0
H1424 H 0.57227 0.895 0.0918 0.0
H1425 H 0.52077 0.83846 0.04881 0.0
C1426 C 0.5191 0.81645 0.07882 0.0
C1427 C 0.5282 0.8129 0.10107 0.0
C1428 C 0.56759 0.8952 0.0737 0.0
C1429 C 0.54686 0.85195 0.07508 0.0
C1430 C 0.57307 0.91709 0.06162 0.0
C1431 C 0.56657 0.91807 0.0383 0.0
C1432 C 0.55525 0.87435 0.06244 0.0
C1433 C 0.5551 0.8964 0.02751 0.0
C1434 C 0.5285 0.83571 0.06573 0.0
C1435 C 0.54741 0.82864 0.10937 0.0
N1436 N 0.54959 0.87559 0.03971 0.0
N1437 N 0.55588 0.84775 0.09649 0.0
H1438 H 0.89451 0.82375 0.89317 0.0
H1439 H 0.84848 0.77482 0.76919 0.0
H1440 H 0.92497 0.84832 0.83089 0.0
H1441 H 0.80462 0.77056 0.82786 0.0
H1442 H 0.87887 0.79788 0.79306 0.0
H1443 H 0.86129 0.80389 0.87057 0.0
C1444 C 0.89385 0.82568 0.87481 0.0
C1445 C 0.9128 0.83713 0.86382 0.0
C1446 C 0.86267 0.79169 0.80074 0.0
C1447 C 0.87545 0.81378 0.83798 0.0
C1448 C 0.84554 0.77803 0.78725 0.0
C1449 C 0.82397 0.7709 0.79656 0.0
C1450 C 0.85826 0.79797 0.82371 0.0
C1451 C 0.82101 0.77582 0.82002 0.0
C1452 C 0.87504 0.81406 0.86192 0.0
C1453 C 0.91092 0.83933 0.84004 0.0
N1454 N 0.83792 0.78928 0.8328 0.0
N1455 N 0.89284 0.82716 0.82782 0.0
H1456 H 0.90066 0.04591 0.87172 0.0
H1457 H 0.02572 0.08641 0.93229 0.0
H1458 H 0.96692 0.03635 0.83806 0.0
H1459 H 0.95766 0.10259 0.96028 0.0
H1460 H 0.00535 0.06958 0.8969 0.0
H1461 H 0.92218 0.06551 0.90482 0.0
C1462 C 0.91981 0.04753 0.87143 0.0
C1463 C 0.93199 0.03953 0.85206 0.0
C1464 C -0.00507 0.07725 0.91066 0.0
C1465 C 0.95681 0.06264 0.88982 0.0
C1466 C 0.00655 0.08722 0.93069 0.0
C1467 C 0.99329 0.09575 0.94921 0.0
C1468 C 0.97 0.07585 0.90935 0.0
C1469 C 0.96851 0.09602 0.94643 0.0
C1470 C 0.9321 0.05904 0.89027 0.0
C1471 C 0.95684 0.0422 0.85269 0.0
N1472 N 0.95767 0.08589 0.92701 0.0
N1473 N 0.96847 0.05372 0.87125 0.0
H1474 H 0.75948 0.12715 0.53711 0.0
H1475 H 0.79587 0.22902 0.63856 0.0
H1476 H 0.82632 0.16937 0.54182 0.0
H1477 H 0.72668 0.19203 0.63083 0.0
H1478 H 0.80739 0.20692 0.60347 0.0
H1479 H 0.74766 0.14965 0.57196 0.0
C1480 C 0.77176 0.14108 0.54549 0.0
C1481 C 0.79398 0.14638 0.53643 0.0
C1482 C 0.78964 0.20372 0.60934 0.0
C1483 C 0.78037 0.17234 0.57645 0.0
C1484 C 0.78292 0.21655 0.6293 0.0
C1485 C 0.76011 0.21265 0.63758 0.0
C1486 C 0.77355 0.18664 0.59752 0.0
C1487 C 0.74444 0.19556 0.62516 0.0
C1488 C 0.76491 0.15399 0.5654 0.0
C1489 C 0.80905 0.16465 0.54813 0.0
N1490 N 0.75146 0.18317 0.60574 0.0
N1491 N 0.80194 0.17699 0.56752 0.0
H1492 H 0.56699 0.01302 0.34928 0.0
H1493 H 0.57265 0.97335 0.47977 0.0
H1494 H 0.62391 0.97003 0.37979 0.0
H1495 H 0.52981 0.03572 0.45625 0.0
H1496 H 0.58791 0.96779 0.44145 0.0
H1497 H 0.54987 0.01834 0.3871 0.0
C1498 C 0.57594 0.00486 0.36391 0.0
C1499 C 0.59693 0.99115 0.36142 0.0
C1500 C 0.57512 0.98265 0.44468 0.0
C1501 C 0.57734 -0.00325 0.40439 0.0
C1502 C 0.5663 0.98572 0.4665 0.0
C1503 C 0.55003 0.00509 0.47122 0.0
C1504 C 0.56747 -0.00109 0.4274 0.0
C1505 C 0.54245 0.02063 0.45337 0.0
C1506 C 0.56617 0.00787 0.38543 0.0
C1507 C 0.60778 0.98089 0.38091 0.0
N1508 N 0.55125 0.0172 0.4322 0.0
N1509 N 0.59779 0.98377 0.40151 0.0
H1510 H 0.79998 0.78925 0.04361 0.0
H1511 H 0.85226 0.76795 0.16763 0.0
H1512 H 0.86404 0.82645 0.07188 0.0
H1513 H 0.78554 0.73675 0.13917 0.0
H1514 H 0.86349 0.77871 0.12917 0.0
H1515 H 0.80254 0.75783 0.07337 0.0
C1516 C 0.81515 0.79012 0.05556 0.0
C1517 C 0.83154 0.81072 0.05566 0.0
C1518 C 0.84661 0.76901 0.13133 0.0
C1519 C 0.83396 0.77574 0.0904 0.0
C1520 C 0.84007 0.76309 0.15332 0.0
C1521 C 0.81765 0.75198 0.1568 0.0
C1522 C 0.83058 0.76388 0.11269 0.0
C1523 C 0.80296 0.74536 0.13748 0.0
C1524 C 0.81648 0.77237 0.07274 0.0
C1525 C 0.85091 0.81096 0.0714 0.0
N1526 N 0.80953 0.75179 0.11636 0.0
N1527 N 0.85118 0.79423 0.08867 0.0
H1528 H 0.96046 0.05444 0.73076 0.0
H1529 H 0.96435 0.94405 0.63188 0.0
H1530 H 0.90707 0.99395 0.72125 0.0
H1531 H 0.01079 0.01123 0.63739 0.0
H1532 H 0.94441 0.96004 0.66597 0.0
H1533 H 0.98018 0.03725 0.69736 0.0
C1534 C 0.95278 0.03764 0.72153 0.0
C1535 C 0.93211 0.02561 0.72878 0.0
C1536 C 0.95912 0.97109 0.65974 0.0
C1537 C 0.95474 0.0056 0.69064 0.0
C1538 C 0.97051 0.96197 0.64033 0.0
C1539 C 0.98944 0.97615 0.63182 0.0
C1540 C 0.96671 0.99455 0.6706 0.0
C1541 C -0.00328 -0.00078 0.64354 0.0
C1542 C 0.96409 0.02777 0.70249 0.0
C1543 C 0.92295 0.00387 0.71617 0.0
N1544 N 0.98532 0.00768 0.66224 0.0
N1545 N 0.93441 0.99446 0.69774 0.0
H1546 H 0.74343 0.15165 0.42473 0.0
H1547 H 0.79621 0.2275 0.32547 0.0
H1548 H 0.81354 0.18683 0.42999 0.0
H1549 H 0.72075 0.22633 0.33505 0.0
H1550 H 0.80263 0.21239 0.36412 0.0
H1551 H 0.73368 0.1789 0.39258 0.0
C1552 C 0.75662 0.16537 0.41945 0.0
C1553 C 0.77951 0.16652 0.4298 0.0
C1554 C 0.78467 0.21584 0.35795 0.0
C1555 C 0.76856 0.19738 0.39301 0.0
C1556 C 0.78103 0.22437 0.33589 0.0
C1557 C 0.75795 0.22806 0.32716 0.0
C1558 C 0.76506 0.21024 0.37111 0.0
C1559 C 0.73883 0.22378 0.3413 0.0
C1560 C 0.75102 0.18092 0.40113 0.0
C1561 C 0.79581 0.18484 0.42232 0.0
N1562 N 0.74277 0.21457 0.3625 0.0
N1563 N 0.79016 0.19917 0.40413 0.0
H1564 H 0.63856 0.98397 0.2255 0.0
H1565 H 0.57035 0.04379 0.12181 0.0
H1566 H 0.57795 0.03193 0.23597 0.0
H1567 H 0.64492 0.02651 0.12077 0.0
H1568 H 0.57195 0.04025 0.16327 0.0
H1569 H 0.6399 -0.00208 0.1863 0.0
C1570 C 0.62543 -0.00268 0.21949 0.0
C1571 C 0.60797 0.00663 0.2339 0.0
C1572 C 0.58804 0.03772 0.15398 0.0
C1573 C 0.60951 0.02279 0.18912 0.0
C1574 C 0.58723 0.03997 0.13031 0.0
C1575 C 0.60746 0.03499 0.11769 0.0
C1576 C 0.60911 0.03006 0.16499 0.0
C1577 C 0.62873 0.02981 0.12972 0.0
C1578 C 0.62639 0.00551 0.1972 0.0
C1579 C 0.59162 0.02421 0.22533 0.0
N1580 N 0.6289 0.02697 0.15265 0.0
N1581 N 0.59262 0.03154 0.20336 0.0
H1582 H 0.74696 0.85075 0.98334 0.0
H1583 H 0.7581 0.86103 0.84825 0.0
H1584 H 0.80601 0.88743 0.9519 0.0
H1585 H 0.71333 0.80433 0.87823 0.0
H1586 H 0.76958 0.87833 0.88653 0.0
H1587 H 0.72893 0.84049 0.94528 0.0
C1588 C 0.75601 0.85689 0.96846 0.0
C1589 C 0.77808 0.86988 0.97081 0.0
C1590 C 0.75699 0.86233 0.88472 0.0
C1591 C 0.75753 0.85826 0.92728 0.0
C1592 C 0.75019 0.85262 0.86286 0.0
C1593 C 0.73476 0.83114 0.86004 0.0
C1594 C 0.74822 0.85058 0.90394 0.0
C1595 C 0.72543 0.82077 0.87966 0.0
C1596 C 0.74575 0.85093 0.94676 0.0
C1597 C 0.7891 0.87718 0.95091 0.0
N1598 N 0.73242 0.83049 0.90081 0.0
N1599 N 0.77871 0.87126 0.93 0.0
H1600 H 0.82317 0.9395 0.00922 0.0
H1601 H 0.90377 0.03961 0.07457 0.0
H1602 H 0.80318 0.96591 0.0763 0.0
H1603 H 0.88729 0.04771 0.00264 0.0
H1604 H 0.86773 0.0129 0.07696 0.0
H1605 H 0.84802 0.97839 0.00666 0.0
C1606 C 0.82369 0.95385 0.02317 0.0
C1607 C 0.81112 0.94984 0.04289 0.0
C1608 C 0.87182 0.02104 0.0608 0.0
C1609 C 0.83999 0.9936 0.04053 0.0
C1610 C 0.89233 0.03636 0.05942 0.0
C1611 C 0.89894 0.04538 0.03823 0.0
C1612 C 0.85819 0.01441 0.0408 0.0
C1613 C 0.88338 0.04041 0.01916 0.0
C1614 C 0.83778 0.97597 0.02173 0.0
C1615 C 0.8125 0.96867 0.06073 0.0
N1616 N 0.86408 0.02473 0.02076 0.0
N1617 N 0.82719 0.98957 0.05938 0.0
H1618 H 0.32246 0.53672 0.01165 0.0
H1619 H 0.45822 0.52819 0.97804 0.0
H1620 H 0.35496 0.58256 0.96103 0.0
H1621 H 0.43318 0.49766 0.04049 0.0
H1622 H 0.41858 0.54329 0.96911 0.0
H1623 H 0.3613 0.51801 0.02047 0.0
C1624 C 0.33774 0.54286 0.00244 0.0
C1625 C 0.33553 0.56132 0.98566 0.0
C1626 C 0.42168 0.53325 0.98476 0.0
C1627 C 0.37967 0.53987 -0.00456 0.0
C1628 C 0.44433 0.5245 0.98985 0.0
C1629 C 0.4491 0.51178 0.01015 0.0
C1630 C 0.40349 0.52925 -0.0 0.0
C1631 C 0.4303 0.50748 0.02469 0.0
C1632 C 0.35984 0.53221 0.00749 0.0
C1633 C 0.35584 0.56857 0.97422 0.0
N1634 N 0.40827 0.51629 0.01937 0.0
N1635 N 0.37699 0.55778 0.97927 0.0
H1636 H 0.19791 0.55753 0.83327 0.0
H1637 H 0.17638 0.6759 0.75428 0.0
H1638 H 0.1352 0.56002 0.78884 0.0
H1639 H 0.24602 0.6462 0.76921 0.0
H1640 H 0.15876 0.63786 0.77127 0.0
H1641 H 0.21354 0.59586 0.81552 0.0
C1642 C 0.18727 0.56637 0.82006 0.0
C1643 C 0.16528 0.55555 0.81246 0.0
C1644 C 0.17788 0.63969 0.77056 0.0
C1645 C 0.18304 0.59922 0.79214 0.0
C1646 C 0.18792 0.66125 0.76081 0.0
C1647 C 0.21269 0.66417 0.76024 0.0
C1648 C 0.19276 0.62139 0.78029 0.0
C1649 C 0.22684 0.6447 0.76911 0.0
C1650 C 0.19629 0.58804 0.8098 0.0
C1651 C 0.15231 0.56769 0.79511 0.0
N1652 N 0.21668 0.62433 0.77905 0.0
N1653 N 0.16136 0.58896 0.78554 0.0
H1654 H 0.23243 0.40807 0.56853 0.0
H1655 H 0.13859 0.44726 0.47244 0.0
H1656 H 0.20536 0.35756 0.51322 0.0
H1657 H 0.15397 0.49115 0.53558 0.0
H1658 H 0.17328 0.4212 0.4803 0.0
H1659 H 0.21396 0.44452 0.54998 0.0
C1660 C 0.22338 0.40494 0.55198 0.0
C1661 C 0.22069 0.38011 0.54208 0.0
C1662 C 0.16936 0.43691 0.49217 0.0
C1663 C 0.19875 0.42115 0.52128 0.0
C1664 C 0.14961 0.45191 0.48765 0.0
C1665 C 0.14297 0.4709 0.50374 0.0
C1666 C 0.18245 0.44096 0.51291 0.0
C1667 C 0.15813 0.47629 0.52296 0.0
C1668 C 0.21261 0.4256 0.54155 0.0
C1669 C 0.20785 0.37659 0.52124 0.0
N1670 N 0.17691 0.46101 0.52726 0.0
N1671 N 0.19715 0.39689 0.51159 0.0
H1672 H 0.88537 0.9474 0.77248 0.0
H1673 H 0.76578 0.86403 0.76453 0.0
H1674 H 0.83116 0.95104 0.82262 0.0
H1675 H 0.82932 0.83414 0.73543 0.0
H1676 H 0.78819 0.90207 0.77896 0.0
H1677 H 0.86457 0.90985 0.75379 0.0
C1678 C 0.86932 0.94012 0.77976 0.0
C1679 C 0.85994 0.95247 0.79913 0.0
C1680 C 0.79721 0.88735 0.76918 0.0
C1681 C 0.8359 0.91026 0.77745 0.0
C1682 C 0.78438 0.86579 0.7607 0.0
C1683 C 0.79578 0.84584 0.74894 0.0
C1684 C 0.82165 0.88912 0.76587 0.0
C1685 C 0.81988 0.84918 0.74436 0.0
C1686 C 0.85746 0.91882 0.76901 0.0
C1687 C 0.83911 0.9422 0.80779 0.0
N1688 N 0.83219 0.87037 0.75309 0.0
N1689 N 0.82766 0.92193 0.79672 0.0
H1690 H 0.72612 0.05455 0.53904 0.0
H1691 H 0.5887 0.08789 0.52486 0.0
H1692 H 0.69717 0.09904 0.48427 0.0
H1693 H 0.61495 0.02515 0.5641 0.0
H1694 H 0.62956 0.09947 0.51623 0.0
H1695 H 0.68647 0.05033 0.55399 0.0
C1696 C 0.71143 0.0635 0.53017 0.0
C1697 C 0.71491 0.07694 0.51022 0.0
C1698 C 0.62635 0.08341 0.52699 0.0
C1699 C 0.66954 0.0724 0.52744 0.0
C1700 C 0.60307 0.07692 0.53212 0.0
C1701 C 0.59842 0.05535 0.54504 0.0
C1702 C 0.64506 0.06836 0.53503 0.0
C1703 C 0.61774 0.04178 0.5539 0.0
C1704 C 0.68882 0.06109 0.53875 0.0
C1705 C 0.69524 0.08827 0.49956 0.0
N1706 N 0.64021 0.04839 0.54859 0.0
N1707 N 0.67335 0.0857 0.50829 0.0
H1708 H 0.18971 0.43547 0.77078 0.0
H1709 H 0.26402 0.32492 0.82235 0.0
H1710 H 0.21969 0.43939 0.83984 0.0
H1711 H 0.2551 0.33264 0.74948 0.0
H1712 H 0.25099 0.369 0.82838 0.0
H1713 H 0.2167 0.40075 0.76138 0.0
C1714 C 0.20226 0.42942 0.78386 0.0
C1715 C 0.20197 0.43994 0.80632 0.0
C1716 C 0.25224 0.36128 0.81103 0.0
C1717 C 0.23268 0.40006 0.7957 0.0
C1718 C 0.25957 0.33607 0.8076 0.0
C1719 C 0.26029 0.32511 0.78541 0.0
C1720 C 0.24501 0.37543 0.79215 0.0
C1721 C 0.25463 0.34043 0.76687 0.0
C1722 C 0.21769 0.4096 0.77845 0.0
C1723 C 0.2189 0.43155 0.82243 0.0
N1724 N 0.24673 0.36472 0.77067 0.0
N1725 N 0.23322 0.41176 0.81692 0.0
H1726 H 0.30036 0.57612 0.31857 0.0
H1727 H 0.26241 0.69609 0.29928 0.0
H1728 H 0.33987 0.5893 0.25822 0.0
H1729 H 0.26922 0.67897 0.22714 0.0
H1730 H 0.27351 0.65219 0.30707 0.0
H1731 H 0.27131 0.60724 0.306 0.0
C1732 C 0.30274 0.58524 0.30247 0.0
C1733 C 0.32308 0.58089 0.28985 0.0
C1734 C 0.27179 0.65767 0.28945 0.0
C1735 C 0.29026 0.61685 0.27578 0.0
C1736 C 0.26572 0.68285 0.28505 0.0
C1737 C 0.26521 0.69116 0.2626 0.0
C1738 C 0.27779 0.64086 0.27127 0.0
C1739 C 0.26955 0.67328 0.24474 0.0
C1740 C 0.28622 0.60311 0.29542 0.0
C1741 C 0.32479 0.59257 0.26878 0.0
N1742 N 0.2763 0.64908 0.24951 0.0
N1743 N 0.30883 0.61052 0.26262 0.0
H1744 H 0.45079 0.73968 0.65128 0.0
H1745 H 0.54063 0.68135 0.56336 0.0
H1746 H 0.52661 0.75343 0.65611 0.0
H1747 H 0.46462 0.67015 0.55702 0.0
H1748 H 0.53514 0.71593 0.5921 0.0
H1749 H 0.45471 0.72154 0.61251 0.0
C1750 C 0.46822 0.73908 0.64415 0.0
C1751 C 0.48846 0.74745 0.65722 0.0
C1752 C 0.51962 0.70631 0.58403 0.0
C1753 C 0.49311 0.72676 0.61286 0.0
C1754 C 0.52277 0.68673 0.56746 0.0
C1755 C 0.50308 0.6725 0.55827 0.0
C1756 C 0.49667 0.71144 0.59144 0.0
C1757 C 0.48033 0.6803 0.56413 0.0
C1758 C 0.47046 0.72881 0.62197 0.0
C1759 C 0.51057 0.74657 0.64693 0.0
N1760 N 0.47775 0.69887 0.58071 0.0
N1761 N 0.51233 0.73607 0.62551 0.0
H1762 H 0.57225 0.23699 0.79654 0.0
H1763 H 0.71032 0.27396 0.81259 0.0
H1764 H 0.60601 0.26254 0.86107 0.0
H1765 H 0.67751 0.24593 0.74833 0.0
H1766 H 0.67188 0.27193 0.82999 0.0
H1767 H 0.61006 0.24211 0.77821 0.0
C1768 C 0.5876 0.24376 0.80689 0.0
C1769 C 0.58593 0.24927 0.83046 0.0
C1770 C 0.67301 0.26629 0.81207 0.0
C1771 C 0.62943 0.25515 0.80944 0.0
C1772 C 0.695 0.26746 0.80205 0.0
C1773 C 0.69722 0.26002 0.7789 0.0
C1774 C 0.65292 0.25758 0.79894 0.0
C1775 C 0.67666 0.25183 0.76621 0.0
C1776 C 0.60922 0.24667 0.79636 0.0
C1777 C 0.60645 0.25803 0.8429 0.0
N1778 N 0.65538 0.25075 0.77642 0.0
N1779 N 0.62735 0.26063 0.83224 0.0
H1780 H 0.03272 0.34006 0.20327 0.0
H1781 H -0.00533 0.41007 0.08907 0.0
H1782 H 0.96241 0.33381 0.17138 0.0
H1783 H 0.06627 0.41068 0.11796 0.0
H1784 H 0.98167 0.38517 0.12084 0.0
H1785 H 0.04373 0.37103 0.17521 0.0
C1786 C 0.01939 0.34562 0.1907 0.0
C1787 C -0.00331 0.33393 0.18947 0.0
C1788 C 0.00024 0.39067 0.12021 0.0
C1789 C 0.00941 0.36903 0.15697 0.0
C1790 C 0.00777 0.40456 0.10187 0.0
C1791 C 0.03169 0.41224 0.10068 0.0
C1792 C 0.0167 0.3844 0.13758 0.0
C1793 C 0.04767 0.40522 0.1182 0.0
C1794 C 0.02579 0.36315 0.17453 0.0
C1795 C 0.98016 0.34212 0.1729 0.0
N1796 N 0.03988 0.39169 0.13592 0.0
N1797 N 0.98697 0.35888 0.15707 0.0
H1798 H 0.93948 0.73056 0.37585 0.0
H1799 H 0.85315 0.76651 0.27196 0.0
H1800 H 0.96268 0.77341 0.31885 0.0
H1801 H 0.82793 0.73993 0.33578 0.0
H1802 H 0.89329 0.77004 0.28915 0.0
H1803 H 0.89842 0.73492 0.36209 0.0
C1804 C 0.93596 0.7412 0.36062 0.0
C1805 C 0.95459 0.75153 0.34844 0.0
C1806 C 0.87895 0.76366 0.29946 0.0
C1807 C 0.90758 0.75623 0.33236 0.0
C1808 C 0.85602 0.76156 0.28963 0.0
C1809 C 0.83717 0.75272 0.3024 0.0
C1810 C 0.88313 0.75659 0.32214 0.0
C1811 C 0.84194 0.74674 0.32527 0.0
C1812 C 0.91247 0.74365 0.35275 0.0
C1813 C 0.94889 0.76507 0.32876 0.0
N1814 N 0.86448 0.74854 0.33433 0.0
N1815 N 0.92592 0.76676 0.32119 0.0
H1816 H 0.4935 0.28814 0.96182 0.0
H1817 H 0.53466 0.43611 0.96352 0.0
H1818 H 0.53667 0.31989 0.91011 0.0
H1819 H 0.50179 0.40087 0.0202 0.0
H1820 H 0.53514 0.39401 0.94345 0.0
H1821 H 0.49644 0.32924 0.98335 0.0
C1822 C 0.50377 0.30369 0.95504 0.0
C1823 C 0.51477 0.3005 0.93401 0.0
C1824 C 0.52788 0.39546 0.9603 0.0
C1825 C 0.51798 0.34793 0.95861 0.0
C1826 C 0.52749 0.41954 0.97176 0.0
C1827 C 0.51808 0.4221 0.99359 0.0
C1828 C 0.51864 0.37373 0.97063 0.0
C1829 C 0.50917 0.39987 0.0034 0.0
C1830 C 0.50543 0.32721 0.96739 0.0
C1831 C 0.52793 0.3214 0.92623 0.0
N1832 N 0.50959 0.37667 0.99182 0.0
N1833 N 0.52899 0.34428 0.93842 0.0
H1834 H 0.97272 0.19052 0.19428 0.0
H1835 H 0.85317 0.17681 0.19855 0.0
H1836 H 0.96535 0.20894 0.26595 0.0
H1837 H 0.86373 0.15958 0.26957 0.0
H1838 H 0.8957 0.17388 0.19377 0.0
H1839 H 0.93548 0.16519 0.19384 0.0
C1840 C 0.96353 0.18851 0.21004 0.0
C1841 C 0.97174 0.20174 0.23017 0.0
C1842 C 0.88877 0.16954 0.21018 0.0
C1843 C 0.92913 0.17393 0.22971 0.0
C1844 C 0.86435 0.17122 0.21289 0.0
C1845 C 0.85508 0.16913 0.23463 0.0
C1846 C 0.90385 0.16596 0.22944 0.0
C1847 C 0.87035 0.16202 0.25266 0.0
C1848 C 0.9422 0.17437 0.20975 0.0
C1849 C 0.95937 0.19895 0.25014 0.0
N1850 N 0.8941 0.16147 0.24984 0.0
N1851 N 0.93849 0.18554 0.24936 0.0
H1852 H 0.0228 0.68427 0.45407 0.0
H1853 H 0.07528 0.5463 0.4385 0.0
H1854 H 0.05856 0.6623 0.39269 0.0
H1855 H 0.07301 0.58513 0.50489 0.0
H1856 H 0.068 0.58749 0.42065 0.0
H1857 H 0.03961 0.6471 0.47274 0.0
C1858 C 0.03445 0.67178 0.44463 0.0
C1859 C 0.0393 0.67633 0.42182 0.0
C1860 C 0.06948 0.58699 0.43911 0.0
C1861 C 0.05811 0.63346 0.44287 0.0
C1862 C 0.07358 0.56351 0.44931 0.0
C1863 C 0.07463 0.56223 0.47323 0.0
C1864 C 0.06589 0.60915 0.45295 0.0
C1865 C 0.07232 0.58516 0.4864 0.0
C1866 C 0.04407 0.65062 0.45529 0.0
C1867 C 0.0545 0.65954 0.41036 0.0
N1868 N 0.06766 0.60757 0.47609 0.0
N1869 N 0.06305 0.63854 0.42087 0.0
H1870 H 0.59614 0.72364 0.68234 0.0
H1871 H 0.71456 0.75109 0.68539 0.0
H1872 H 0.58604 0.80454 0.69712 0.0
H1873 H 0.69231 0.81598 0.72689 0.0
H1874 H 0.67471 0.74781 0.66716 0.0
H1875 H 0.63792 0.73277 0.67595 0.0
C1876 C 0.60261 0.74342 0.68354 0.0
C1877 C 0.58802 0.76326 0.69109 0.0
C1878 C 0.67865 0.76297 0.68001 0.0
C1879 C 0.63546 0.77402 0.68341 0.0
C1880 C 0.70142 0.76503 0.69022 0.0
C1881 C 0.70628 0.78333 0.70811 0.0
C1882 C 0.66096 0.77938 0.6879 0.0
C1883 C 0.68894 0.80115 0.71359 0.0
C1884 C 0.62645 0.74871 0.67967 0.0
C1885 C 0.59703 0.78858 0.69212 0.0
N1886 N 0.66691 0.7985 0.70374 0.0
N1887 N 0.62032 0.79317 0.68884 0.0
H1888 H 0.6306 0.5364 0.68117 0.0
H1889 H 0.5085 0.56714 0.61435 0.0
H1890 H 0.56183 0.50825 0.70008 0.0
H1891 H 0.5775 0.588 0.59042 0.0
H1892 H 0.52777 0.54863 0.64776 0.0
H1893 H 0.61152 0.55755 0.64893 0.0
C1894 C 0.61153 0.53451 0.67846 0.0
C1895 C 0.59779 0.52052 0.69332 0.0
C1896 C 0.53869 0.5574 0.63526 0.0
C1897 C 0.57585 0.5449 0.65672 0.0
C1898 C 0.52768 0.56813 0.61626 0.0
C1899 C 0.54141 0.57902 0.59952 0.0
C1900 C 0.56359 0.55759 0.63754 0.0
C1901 C 0.56621 0.5797 0.60287 0.0
C1902 C 0.60064 0.54668 0.66012 0.0
C1903 C 0.57314 0.51881 0.68905 0.0
N1904 N 0.57651 0.56899 0.62144 0.0
N1905 N 0.56297 0.53092 0.6712 0.0
H1906 H 0.81635 0.31593 -0.00301 0.0
H1907 H 0.78285 0.34201 0.86687 0.0
H1908 H 0.77414 0.38041 0.97736 0.0
H1909 H 0.80065 0.26684 0.89007 0.0
H1910 H 0.78321 0.35826 0.90678 0.0
H1911 H 0.81382 0.29909 0.95745 0.0
C1912 C 0.80641 0.32648 0.98437 0.0
C1913 C 0.79545 0.34964 0.99048 0.0
C1914 C 0.78701 0.33821 0.90311 0.0
C1915 C 0.79281 0.33062 0.94508 0.0
C1916 C 0.78704 0.32901 0.88037 0.0
C1917 C 0.79182 0.30308 0.8752 0.0
C1918 C 0.79214 0.32145 0.92076 0.0
C1919 C 0.79678 0.28694 0.89334 0.0
C1920 C 0.80496 0.31682 0.96181 0.0
C1921 C 0.78274 0.36242 0.97341 0.0
N1922 N 0.79695 0.29642 0.91531 0.0
N1923 N 0.78198 0.35288 0.9514 0.0
H1924 H 0.92671 0.47851 0.18525 0.0
H1925 H 0.98178 0.57311 0.09731 0.0
H1926 H 0.92059 0.56089 0.19469 0.0
H1927 H 0.01045 0.49892 0.11238 0.0
H1928 H 0.95527 0.56919 0.12937 0.0
H1929 H 0.95165 0.48525 0.15283 0.0
C1930 C 0.93023 0.49801 0.18026 0.0
C1931 C 0.9218 0.5192 0.19286 0.0
C1932 C 0.9676 0.55398 0.1257 0.0
C1933 C 0.95056 0.52699 0.15598 0.0
C1934 C 0.98284 0.55627 0.10758 0.0
C1935 C -0.00174 0.53625 0.10208 0.0
C1936 C 0.9676 0.53136 0.13799 0.0
C1937 C -0.00119 0.51481 0.1159 0.0
C1938 C 0.9447 0.50184 0.16193 0.0
C1939 C 0.92693 0.54404 0.18554 0.0
N1940 N 0.98346 0.51278 0.13299 0.0
N1941 N 0.94113 0.5473 0.1676 0.0
H1942 H 0.75301 0.60052 0.4613 0.0
H1943 H 0.77139 0.73119 0.40032 0.0
H1944 H 0.80764 0.65762 0.47965 0.0
H1945 H 0.71101 0.68032 0.38409 0.0
H1946 H 0.779 0.70874 0.43491 0.0
H1947 H 0.73227 0.63242 0.43844 0.0
C1948 C 0.76037 0.61988 0.4609 0.0
C1949 C 0.78242 0.62626 0.47178 0.0
C1950 C 0.76386 0.70261 0.42398 0.0
C1951 C 0.75896 0.66264 0.44583 0.0
C1952 C 0.75925 0.71574 0.40412 0.0
C1953 C 0.74079 0.70743 0.3886 0.0
C1954 C 0.7504 0.68047 0.42829 0.0
C1955 C 0.72607 0.68689 0.3949 0.0
C1956 C 0.74856 0.63806 0.44785 0.0
C1957 C 0.79104 0.65165 0.47096 0.0
N1958 N 0.73154 0.6737 0.41395 0.0
N1959 N 0.77948 0.66874 0.45795 0.0
H1960 H 0.63834 0.50078 0.83472 0.0
H1961 H 0.53187 0.55338 0.90351 0.0
H1962 H 0.58301 0.54427 0.80214 0.0
H1963 H 0.59969 0.53604 0.93528 0.0
H1964 H 0.55019 0.55245 0.86623 0.0
H1965 H 0.62446 0.51478 0.87179 0.0
C1966 C 0.62349 0.51358 0.83531 0.0
C1967 C 0.61194 0.52149 0.81526 0.0
C1968 C 0.56114 0.54944 0.88145 0.0
C1969 C 0.59556 0.53716 0.8578 0.0
C1970 C 0.55071 0.54991 0.90266 0.0
C1971 C 0.56426 0.54447 0.9224 0.0
C1972 C 0.58512 0.54304 0.88007 0.0
C1973 C 0.58861 0.54037 0.92049 0.0
C1974 C 0.61555 0.5216 0.85655 0.0
C1975 C 0.59241 0.53768 0.81719 0.0
N1976 N 0.59818 0.53927 0.89962 0.0
N1977 N 0.58463 0.54477 0.83814 0.0
H1978 H 0.80046 0.30007 0.09301 0.0
H1979 H 0.70937 0.28261 0.19129 0.0
H1980 H 0.74044 0.34921 0.10229 0.0
H1981 H 0.76438 0.22876 0.1757 0.0
H1982 H 0.71638 0.30352 0.15542 0.0
H1983 H 0.78412 0.27058 0.11994 0.0
C1984 C 0.78372 0.30456 0.10056 0.0
C1985 C 0.77201 0.32738 0.09562 0.0
C1986 C 0.72659 0.28681 0.15964 0.0
C1987 C 0.7532 0.29368 0.12671 0.0
C1988 C 0.7225 0.27475 0.18008 0.0
C1989 C 0.73661 0.25417 0.18674 0.0
C1990 C 0.74501 0.27832 0.14588 0.0
C1991 C 0.75331 0.24481 0.17146 0.0
C1992 C 0.77433 0.28764 0.11591 0.0
C1993 C 0.75019 0.33196 0.10571 0.0
N1994 N 0.75733 0.25722 0.15197 0.0
N1995 N 0.74167 0.31547 0.12105 0.0
H1996 H 0.97903 0.44792 0.2835 0.0
H1997 H 0.99247 0.42824 0.41706 0.0
H1998 H 0.92396 0.45923 0.33187 0.0
H1999 H 0.05255 0.43562 0.3739 0.0
H2000 H 0.96626 0.42598 0.38343 0.0
H2001 H 0.00464 0.43129 0.31404 0.0
C2002 C 0.97219 0.44652 0.30045 0.0
C2003 C 0.94954 0.45546 0.30534 0.0
C2004 C 0.98521 0.42769 0.38125 0.0
C2005 C 0.97851 0.43635 0.34005 0.0
C2006 C 0.00035 0.42867 0.40051 0.0
C2007 C 0.02491 0.43248 0.39845 0.0
C2008 C -0.00549 0.43096 0.35971 0.0
C2009 C 0.03372 0.43334 0.37637 0.0
C2010 C 0.98681 0.43707 0.31781 0.0
C2011 C 0.94147 0.45312 0.32747 0.0
N2012 N 0.01847 0.43306 0.35781 0.0
N2013 N 0.95603 0.44397 0.34406 0.0
H2014 H 0.86714 0.62245 0.5677 0.0
H2015 H 0.77646 0.70111 0.64124 0.0
H2016 H 0.79241 0.6028 0.56683 0.0
H2017 H 0.84963 0.69463 0.66406 0.0
H2018 H 0.78264 0.66845 0.6109 0.0
H2019 H 0.86189 0.6515 0.60101 0.0
C2020 C 0.84971 0.62399 0.57472 0.0
C2021 C 0.83017 0.61024 0.5645 0.0
C2022 C 0.79733 0.67418 0.62255 0.0
C2023 C 0.82399 0.64382 0.60211 0.0
C2024 C 0.7939 0.69299 0.63965 0.0
C2025 C 0.81264 0.70067 0.65498 0.0
C2026 C 0.81976 0.66326 0.62054 0.0
C2027 C 0.83477 0.68922 0.65251 0.0
C2028 C 0.84674 0.64055 0.59369 0.0
C2029 C 0.80797 0.61292 0.57427 0.0
N2030 N 0.83781 0.67119 0.63545 0.0
N2031 N 0.80541 0.62973 0.59233 0.0
H2032 H 0.75341 0.59074 0.53548 0.0
H2033 H 0.63053 0.60032 0.46722 0.0
H2034 H 0.72742 0.53794 0.48141 0.0
H2035 H 0.64781 0.63588 0.53354 0.0
H2036 H 0.67277 0.59172 0.46251 0.0
H2037 H 0.7226 0.62108 0.52445 0.0
C2038 C 0.7419 0.58612 0.5206 0.0
C2039 C 0.7427 0.56191 0.50935 0.0
C2040 C 0.66743 0.60224 0.47774 0.0
C2041 C 0.70718 0.59585 0.49715 0.0
C2042 C 0.6434 0.60727 0.48034 0.0
C2043 C 0.6359 0.61866 0.50082 0.0
C2044 C 0.68385 0.60847 0.49588 0.0
C2045 C 0.65306 0.627 0.51753 0.0
C2046 C 0.72421 0.60328 0.51443 0.0
C2047 C 0.72724 0.5565 0.49045 0.0
N2048 N 0.67624 0.62134 0.51487 0.0
N2049 N 0.70976 0.57314 0.48518 0.0
H2050 H 0.20539 0.90353 0.55869 0.0
H2051 H 0.11402 0.00143 0.5034 0.0
H2052 H 0.22418 0.95775 0.50808 0.0
H2053 H 0.09666 0.95206 0.55819 0.0
H2054 H 0.15451 0.98577 0.50505 0.0
H2055 H 0.16528 0.92047 0.5583 0.0
C2056 C 0.20106 0.9189 0.54739 0.0
C2057 C 0.2182 0.92924 0.53338 0.0
C2058 C 0.14191 0.97846 0.51681 0.0
C2059 C 0.17234 0.94884 0.53299 0.0
C2060 C 0.11877 0.98745 0.51593 0.0
C2061 C 0.10189 0.97797 0.53064 0.0
C2062 C 0.14822 0.95973 0.53243 0.0
C2063 C 0.10909 0.9599 0.54653 0.0
C2064 C 0.17818 0.92865 0.54727 0.0
C2065 C 0.21157 0.94918 0.51916 0.0
N2066 N 0.13169 0.95124 0.5469 0.0
N2067 N 0.18917 0.95833 0.51934 0.0
H2068 H 0.31787 0.93661 0.78152 0.0
H2069 H 0.31893 0.79067 0.73797 0.0
H2070 H 0.37233 0.90767 0.73818 0.0
H2071 H 0.25584 0.82829 0.76054 0.0
H2072 H 0.33933 0.83272 0.73813 0.0
H2073 H 0.29501 0.89676 0.77391 0.0
C2074 C 0.32485 0.92191 0.77014 0.0
C2075 C 0.34702 0.9253 0.76052 0.0
C2076 C 0.32096 0.83173 0.74283 0.0
C2077 C 0.32119 0.87939 0.7521 0.0
C2078 C 0.30935 0.80775 0.74289 0.0
C2079 C 0.28571 0.80595 0.74945 0.0
C2080 C 0.30891 0.85395 0.74966 0.0
C2081 C 0.2741 0.82872 0.75548 0.0
C2082 C 0.3118 0.89917 0.76578 0.0
C2083 C 0.35524 0.90576 0.74583 0.0
N2084 N 0.28589 0.85172 0.75564 0.0
N2085 N 0.34247 0.88336 0.74234 0.0
H2086 H 0.40191 0.08661 0.02187 0.0
H2087 H 0.48844 0.97198 0.00174 0.0
H2088 H 0.37879 0.00833 0.0311 0.0
H2089 H 0.51406 0.04362 0.03424 0.0
H2090 H 0.44757 0.98571 0.00706 0.0
H2091 H 0.44304 0.07224 0.02096 0.0
C2092 C 0.40548 0.06641 0.02358 0.0
C2093 C 0.38699 0.04856 0.02634 0.0
C2094 C 0.46219 -0.00172 0.01318 0.0
C2095 C 0.43373 0.03207 0.02517 0.0
C2096 C 0.48543 0.99053 0.01009 0.0
C2097 C 0.50456 0.00671 0.01761 0.0
C2098 C 0.45812 0.02264 0.02326 0.0
C2099 C 0.49975 0.03055 0.02834 0.0
C2100 C 0.42892 0.05829 0.02329 0.0
C2101 C 0.39262 0.02266 0.02897 0.0
N2102 N 0.47695 0.03799 0.03057 0.0
N2103 N 0.4155 0.01509 0.02798 0.0
H2104 H 0.69203 0.5831 0.81123 0.0
H2105 H 0.74669 0.68311 0.72771 0.0
H2106 H 0.68307 0.57328 0.73783 0.0
H2107 H 0.72459 0.70514 0.79539 0.0
H2108 H 0.72924 0.6401 0.73199 0.0
H2109 H 0.70991 0.62561 0.80654 0.0
C2110 C 0.69389 0.58987 0.79412 0.0
C2111 C 0.68605 0.5747 0.77487 0.0
C2112 C 0.72825 0.65441 0.74585 0.0
C2113 C 0.70664 0.62311 0.76944 0.0
C2114 C 0.73828 0.67884 0.74349 0.0
C2115 C 0.73701 0.69764 0.76123 0.0
C2116 C 0.71732 0.64873 0.76623 0.0
C2117 C 0.72584 0.69121 0.78127 0.0
C2118 C 0.70398 0.61414 0.79148 0.0
C2119 C 0.68877 0.58447 0.75311 0.0
N2120 N 0.71653 0.6672 0.78329 0.0
N2121 N 0.69902 0.60806 0.75095 0.0
H2122 H 0.86386 0.40255 0.05717 0.0
H2123 H 0.93696 0.52424 0.01706 0.0
H2124 H 0.8302 0.46644 0.02509 0.0
H2125 H 0.96872 0.45244 0.03489 0.0
H2126 H 0.8976 0.50375 0.01916 0.0
H2127 H 0.90248 0.42089 0.04887 0.0
C2128 C 0.86455 0.42032 0.04821 0.0
C2129 C 0.84373 0.43292 0.0418 0.0
C2130 C 0.91324 0.49247 0.02236 0.0
C2131 C 0.88802 0.45431 0.03246 0.0
C2132 C 0.93569 0.50413 0.02112 0.0
C2133 C 0.95617 0.49012 0.02598 0.0
C2134 C 0.91134 0.46672 0.02868 0.0
C2135 C 0.95346 0.4641 0.03116 0.0
C2136 C 0.88665 0.43082 0.04346 0.0
C2137 C 0.84581 0.45606 0.03035 0.0
N2138 N 0.9315 0.45336 0.03258 0.0
N2139 N 0.86757 0.46612 0.0262 0.0
H2140 H 0.3185 0.0367 0.79952 0.0
H2141 H 0.26872 0.1568 0.80108 0.0
H2142 H 0.35812 0.06326 0.74311 0.0
H2143 H 0.30033 0.16706 0.73599 0.0
H2144 H 0.28301 0.11334 0.80115 0.0
H2145 H 0.29296 0.07349 0.79645 0.0
C2146 C 0.32186 0.05042 0.78652 0.0
C2147 C 0.34077 0.0472 0.77187 0.0
C2148 C 0.28643 0.12456 0.78646 0.0
C2149 C 0.31212 0.09029 0.76876 0.0
C2150 C 0.27832 0.14967 0.78653 0.0
C2151 C 0.28356 0.16571 0.76862 0.0
C2152 C 0.29991 0.11528 0.76827 0.0
C2153 C 0.29602 0.15541 0.75023 0.0
C2154 C 0.30734 0.0717 0.78487 0.0
C2155 C 0.3439 0.06515 0.75494 0.0
N2156 N 0.30401 0.13094 0.75068 0.0
N2157 N 0.32993 0.08611 0.75406 0.0
H2158 H 0.24171 0.97859 0.26854 0.0
H2159 H 0.23949 0.84307 0.20247 0.0
H2160 H 0.19443 0.95797 0.21077 0.0
H2161 H 0.28021 0.86209 0.26499 0.0
H2162 H 0.23171 0.88874 0.19835 0.0
H2163 H 0.26505 0.94076 0.2598 0.0
C2164 C 0.23655 0.96639 0.25369 0.0
C2165 C 0.2157 0.97095 0.24078 0.0
C2166 C 0.2427 0.88295 0.21275 0.0
C2167 C 0.24204 0.92738 0.23096 0.0
C2168 C 0.24711 0.85688 0.21515 0.0
C2169 C 0.25996 0.84874 0.23445 0.0
C2170 C 0.25116 0.90091 0.2298 0.0
C2171 C 0.26974 0.86747 0.25011 0.0
C2172 C 0.24986 0.94476 0.24873 0.0
C2173 C 0.21015 0.9549 0.22142 0.0
N2174 N 0.26482 0.89266 0.24763 0.0
N2175 N 0.22291 0.9334 0.21742 0.0
H2176 H 0.51144 0.40933 0.4336 0.0
H2177 H 0.49489 0.50497 0.54149 0.0
H2178 H 0.46114 0.39784 0.48626 0.0
H2179 H 0.5401 0.52305 0.48628 0.0
H2180 H 0.48842 0.46181 0.52462 0.0
H2181 H 0.52721 0.44757 0.45522 0.0
C2182 C 0.5038 0.41472 0.44975 0.0
C2183 C 0.48471 0.40052 0.45799 0.0
C2184 C 0.49999 0.47504 0.51626 0.0
C2185 C 0.50282 0.44403 0.48281 0.0
C2186 C 0.50376 0.49966 0.52595 0.0
C2187 C 0.51778 0.51765 0.51506 0.0
C2188 C 0.51005 0.46838 0.49534 0.0
C2189 C 0.52909 0.50972 0.49513 0.0
C2190 C 0.51285 0.43652 0.46207 0.0
C2191 C 0.47564 0.40834 0.47906 0.0
N2192 N 0.52465 0.4857 0.48565 0.0
N2193 N 0.4847 0.4296 0.49066 0.0
H2194 H 0.45907 0.74187 0.22024 0.0
H2195 H 0.32166 0.76594 0.19199 0.0
H2196 H 0.43205 0.76897 0.15579 0.0
H2197 H 0.35082 0.76263 0.26102 0.0
H2198 H 0.36142 0.76108 0.17764 0.0
H2199 H 0.41878 0.74294 0.23452 0.0
C2200 C 0.44465 0.7477 0.20898 0.0
C2201 C 0.44897 0.75535 0.18676 0.0
C2202 C 0.35915 0.76144 0.19593 0.0
C2203 C 0.40294 0.7567 0.20302 0.0
C2204 C 0.33644 0.7642 0.20416 0.0
C2205 C 0.33291 0.76482 0.22778 0.0
C2206 C 0.37854 0.75901 0.21137 0.0
C2207 C 0.35276 0.76242 0.2427 0.0
C2208 C 0.42171 0.74848 0.21721 0.0
C2209 C 0.42962 0.7629 0.17299 0.0
N2210 N 0.37475 0.75954 0.23424 0.0
N2211 N 0.40749 0.76339 0.18135 0.0
H2212 H 0.96322 0.7814 0.97861 0.0
H2213 H 0.01616 0.64191 0.96484 0.0
H2214 H 0.00986 0.75925 0.92475 0.0
H2215 H 0.98472 0.67012 0.02678 0.0
H2216 H 0.01466 0.68521 0.95019 0.0
H2217 H 0.97254 0.74176 -0.00237 0.0
C2218 C 0.97573 0.76838 0.97098 0.0
C2219 C 0.98552 0.77342 0.9499 0.0
C2220 C 0.00823 0.68198 0.96705 0.0
C2221 C -0.00408 0.72788 0.97136 0.0
C2222 C 0.00883 0.65725 0.97528 0.0
C2223 C 0.0003 0.65248 -0.00309 0.0
C2224 C -0.00121 0.702 0.98045 0.0
C2225 C 0.99145 0.67306 0.01 0.0
C2226 C 0.98103 0.74575 0.98184 0.0
C2227 C 0.00181 0.75605 0.94091 0.0
N2228 N 0.99073 0.69693 0.00147 0.0
N2229 N 0.0062 0.73379 0.95151 0.0
H2230 H 0.09958 0.25022 0.66845 0.0
H2231 H 0.18469 0.23155 0.77896 0.0
H2232 H 0.07449 0.2392 0.73618 0.0
H2233 H 0.21079 0.24542 0.71208 0.0
H2234 H 0.14418 0.23166 0.76287 0.0
H2235 H 0.14038 0.24603 0.68343 0.0
C2236 C 0.10262 0.24682 0.68644 0.0
C2237 C 0.08356 0.24517 0.7011 0.0
C2238 C 0.15875 0.23459 0.75167 0.0
C2239 C 0.13021 0.24038 0.71834 0.0
C2240 C 0.18193 0.23449 0.76085 0.0
C2241 C 0.20121 0.2386 0.74688 0.0
C2242 C 0.15472 0.23885 0.72832 0.0
C2243 C 0.19648 0.24224 0.72352 0.0
C2244 C 0.12593 0.24444 0.69498 0.0
C2245 C 0.08859 0.24071 0.72425 0.0
N2246 N 0.17371 0.24239 0.71499 0.0
N2247 N 0.11139 0.23854 0.73214 0.0
H2248 H 0.52232 0.67786 0.14514 0.0
H2249 H 0.51919 0.58955 0.03077 0.0
H2250 H 0.48525 0.69844 0.08288 0.0
H2251 H 0.52311 0.55642 0.0972 0.0
H2252 H 0.51437 0.63195 0.04925 0.0
H2253 H 0.52987 0.63529 0.12739 0.0
C2254 C 0.51586 0.67348 0.12773 0.0
C2255 C 0.50305 0.6917 0.11549 0.0
C2256 C 0.51639 0.61541 0.05978 0.0
C2257 C 0.51194 0.64337 0.0951 0.0
C2258 C 0.51928 0.5912 0.04927 0.0
C2259 C 0.52148 0.56935 0.06246 0.0
C2260 C 0.51607 0.61797 0.0837 0.0
C2261 C 0.52137 0.57274 0.08639 0.0
C2262 C 0.5201 0.6492 0.1177 0.0
C2263 C 0.49505 0.68496 0.09302 0.0
N2264 N 0.51876 0.59663 0.09627 0.0
N2265 N 0.49976 0.66143 0.08351 0.0
H2266 H 0.01657 0.81982 0.80791 0.0
H2267 H 0.15644 0.80249 0.81777 0.0
H2268 H 0.05833 0.82877 0.87117 0.0
H2269 H 0.11605 0.79653 0.75355 0.0
H2270 H 0.12107 0.81591 0.83687 0.0
H2271 H 0.05299 0.81483 0.78717 0.0
C2272 C 0.03342 0.8209 0.81744 0.0
C2273 C 0.03444 0.82442 0.84135 0.0
C2274 C 0.11992 0.81192 0.81857 0.0
C2275 C 0.07614 0.81866 0.81769 0.0
C2276 C 0.14021 0.80444 0.80756 0.0
C2277 C 0.13928 0.79847 0.78393 0.0
C2278 C 0.09837 0.8132 0.806 0.0
C2279 C 0.11753 0.80068 0.77181 0.0
C2280 C 0.0542 0.81807 0.80556 0.0
C2281 C 0.05673 0.82589 0.85276 0.0
N2282 N 0.09786 0.80774 0.78302 0.0
N2283 N 0.07671 0.8228 0.84083 0.0
H2284 H 0.00358 0.30377 0.56957 0.0
H2285 H 0.0746 0.43684 0.57464 0.0
H2286 H 0.053 0.32544 0.62538 0.0
H2287 H 0.04832 0.4 0.51108 0.0
H2288 H 0.06556 0.39723 0.59424 0.0
H2289 H 0.0186 0.3397 0.54823 0.0
C2290 C 0.01779 0.31592 0.57723 0.0
C2291 C 0.027 0.31163 0.59932 0.0
C2292 C 0.062 0.39778 0.57597 0.0
C2293 C 0.04396 0.3531 0.57515 0.0
C2294 C 0.06705 0.4204 0.5648 0.0
C2295 C 0.06212 0.42177 0.5412 0.0
C2296 C 0.05156 0.37656 0.56354 0.0
C2297 C 0.05242 0.39983 0.52929 0.0
C2298 C 0.02637 0.33641 0.56503 0.0
C2299 C 0.04545 0.32797 0.60837 0.0
N2300 N 0.04721 0.37825 0.54062 0.0
N2301 N 0.05308 0.34823 0.59638 0.0
H2302 H 0.42791 0.36607 0.34558 0.0
H2303 H 0.3033 0.29096 0.33594 0.0
H2304 H 0.39689 0.33155 0.40361 0.0
H2305 H 0.3486 0.3021 0.27919 0.0
H2306 H 0.33395 0.31127 0.36172 0.0
H2307 H 0.39347 0.35136 0.32184 0.0
C2308 C 0.41355 0.35608 0.35351 0.0
C2309 C 0.41551 0.34945 0.37647 0.0
C2310 C 0.33721 0.309 0.34365 0.0
C2311 C 0.37647 0.33213 0.34933 0.0
C2312 C 0.3199 0.29715 0.32899 0.0
C2313 C 0.3235 0.29474 0.30542 0.0
C2314 C 0.35802 0.31879 0.33457 0.0
C2315 C 0.34519 0.30333 0.29726 0.0
C2316 C 0.39408 0.34735 0.33986 0.0
C2317 C 0.39626 0.33667 0.38587 0.0
N2318 N 0.36155 0.31525 0.31181 0.0
N2319 N 0.37764 0.32799 0.37214 0.0
H2320 H 0.46715 0.55005 0.3511 0.0
H2321 H 0.44801 0.60553 0.47806 0.0
H2322 H 0.39951 0.57306 0.37645 0.0
H2323 H 0.51743 0.59479 0.45103 0.0
H2324 H 0.43013 0.59379 0.44054 0.0
H2325 H 0.48616 0.56479 0.38779 0.0
C2326 C 0.45626 0.55785 0.36445 0.0
C2327 C 0.43168 0.56018 0.36075 0.0
C2328 C 0.44929 0.59426 0.44267 0.0
C2329 C 0.45327 0.5774 0.40242 0.0
C2330 C 0.4595 0.60112 0.46408 0.0
C2331 C 0.48421 0.60107 0.46762 0.0
C2332 C 0.46387 0.58697 0.42471 0.0
C2333 C 0.49829 0.59519 0.44894 0.0
C2334 C 0.46714 0.56649 0.38527 0.0
C2335 C 0.41846 0.57068 0.37853 0.0
N2336 N 0.48789 0.58804 0.42828 0.0
N2337 N 0.42942 0.5789 0.39854 0.0
H2338 H 0.25383 0.63321 0.03325 0.0
H2339 H 0.29167 0.73684 0.13283 0.0
H2340 H 0.32187 0.67305 0.03789 0.0
H2341 H 0.22134 0.70263 0.1245 0.0
H2342 H 0.30306 0.71341 0.09833 0.0
H2343 H 0.24207 0.65751 0.0672 0.0
C2344 C 0.26639 0.647 0.04143 0.0
C2345 C 0.28893 0.65109 0.03262 0.0
C2346 C 0.28509 0.71112 0.10393 0.0
C2347 C 0.2754 0.67911 0.0716 0.0
C2348 C 0.27845 0.72473 0.12355 0.0
C2349 C 0.25537 0.72195 0.13152 0.0
C2350 C 0.26864 0.69439 0.09217 0.0
C2351 C 0.23933 0.70528 0.11909 0.0
C2352 C 0.25957 0.66094 0.06082 0.0
C2353 C 0.30434 0.66924 0.04404 0.0
N2354 N 0.24629 0.69211 0.10005 0.0
N2355 N 0.29727 0.68259 0.06294 0.0
H2356 H 0.06147 0.46962 0.85148 0.0
H2357 H 0.05843 0.54782 0.96815 0.0
H2358 H 0.12419 0.51137 0.8775 0.0
H2359 H 0.03769 0.46745 0.96602 0.0
H2360 H 0.07434 0.54196 0.92994 0.0
H2361 H 0.04379 0.47598 0.88908 0.0
C2362 C 0.07131 0.48039 0.86506 0.0
C2363 C 0.09423 0.48997 0.86167 0.0
C2364 C 0.06616 0.52573 0.93787 0.0
C2365 C 0.07421 0.49757 0.90394 0.0
C2366 C 0.05703 0.52902 0.9595 0.0
C2367 C 0.04682 0.50802 0.97008 0.0
C2368 C 0.06436 0.50151 0.92658 0.0
C2369 C 0.04557 0.484 0.95834 0.0
C2370 C 0.06136 0.4838 0.88638 0.0
C2371 C 0.10652 0.50359 0.87967 0.0
N2372 N 0.05407 0.4814 0.93697 0.0
N2373 N 0.09623 0.50725 0.90009 0.0
H2374 H 0.36738 0.32985 0.5683 0.0
H2375 H 0.34062 0.29983 0.67259 0.0
H2376 H 0.29927 0.29223 0.55434 0.0
H2377 H 0.31145 0.22647 0.64625 0.0
H2378 H 0.35359 0.30866 0.635 0.0
H2379 H 0.37459 0.30124 0.59986 0.0
C2380 C 0.35441 0.31479 0.57114 0.0
C2381 C 0.33227 0.31403 0.55934 0.0
C2382 C 0.34503 0.29024 0.63755 0.0
C2383 C 0.34015 0.28195 0.59557 0.0
C2384 C 0.33745 0.28507 0.65925 0.0
C2385 C 0.32447 0.26236 0.66302 0.0
C2386 C 0.33905 0.27305 0.6191 0.0
C2387 C 0.32056 0.24468 0.6443 0.0
C2388 C 0.35843 0.2987 0.58935 0.0
C2389 C 0.31627 0.29393 0.56358 0.0
N2390 N 0.32714 0.25077 0.62303 0.0
N2391 N 0.32021 0.2791 0.58185 0.0
H2392 H 0.45363 0.4787 0.25772 0.0
H2393 H 0.43872 0.47574 0.12153 0.0
H2394 H 0.40352 0.52468 0.22054 0.0
H2395 H 0.50086 0.44876 0.15781 0.0
H2396 H 0.42046 0.4848 0.15805 0.0
H2397 H 0.46624 0.45962 0.22149 0.0
C2398 C 0.44518 0.48469 0.24195 0.0
C2399 C 0.4277 0.50355 0.24211 0.0
C2400 C 0.43795 0.47655 0.158 0.0
C2401 C 0.44192 0.48161 0.20069 0.0
C2402 C 0.44828 0.47108 0.13717 0.0
C2403 C 0.4714 0.46162 0.13669 0.0
C2404 C 0.4508 0.47243 0.17846 0.0
C2405 C 0.48311 0.45633 0.15748 0.0
C2406 C 0.45239 0.47377 0.2213 0.0
C2407 C 0.41726 0.51043 0.22117 0.0
N2408 N 0.47275 0.46201 0.17758 0.0
N2409 N 0.4246 0.49952 0.20127 0.0
H2410 H 0.31007 0.68923 0.9283 0.0
H2411 H 0.21856 0.72506 0.82775 0.0
H2412 H 0.24058 0.65312 0.91883 0.0
H2413 H 0.29472 0.73179 0.82472 0.0
H2414 H 0.2233 0.70992 0.86687 0.0
H2415 H 0.3009 0.71644 0.89643 0.0
C2416 C 0.29272 0.68721 0.91975 0.0
C2417 C 0.27626 0.66837 0.92599 0.0
C2418 C 0.23889 0.7152 0.85773 0.0
C2419 C 0.26573 0.6997 0.8894 0.0
C2420 C 0.23622 0.724 0.83554 0.0
C2421 C 0.25632 0.72949 0.82303 0.0
C2422 C 0.26178 0.71241 0.86748 0.0
C2423 C 0.2788 0.72756 0.83377 0.0
C2424 C 0.28755 0.70279 0.90152 0.0
C2425 C 0.25394 0.66711 0.91444 0.0
N2426 N 0.28092 0.71907 0.85534 0.0
N2427 N 0.24941 0.68235 0.89646 0.0
H2428 H 0.08343 0.53945 0.74456 0.0
H2429 H 0.13363 0.52148 0.61938 0.0
H2430 H 0.13637 0.48429 0.72594 0.0
H2431 H 0.06792 0.55917 0.63328 0.0
H2432 H 0.14083 0.51693 0.66042 0.0
H2433 H 0.08274 0.55452 0.70553 0.0
C2434 C 0.0949 0.53051 0.73227 0.0
C2435 C 0.10975 0.51035 0.73839 0.0
C2436 C 0.12505 0.52661 0.6545 0.0
C2437 C 0.10933 0.5278 0.69395 0.0
C2438 C 0.12108 0.52951 0.63113 0.0
C2439 C 0.10004 0.54049 0.62301 0.0
C2440 C 0.10786 0.53481 0.66976 0.0
C2441 C 0.08423 0.55031 0.63893 0.0
C2442 C 0.09456 0.5392 0.71005 0.0
C2443 C 0.12441 0.49964 0.72186 0.0
N2444 N 0.08832 0.54695 0.66159 0.0
N2445 N 0.12379 0.50847 0.70035 0.0
H2446 H 0.29956 0.39706 0.45912 0.0
H2447 H 0.20649 0.31258 0.38332 0.0
H2448 H 0.24365 0.3535 0.48912 0.0
H2449 H 0.24755 0.37495 0.35712 0.0
H2450 H 0.21814 0.32795 0.42233 0.0
H2451 H 0.27996 0.38936 0.42157 0.0
C2452 C 0.28311 0.38591 0.45781 0.0
C2453 C 0.2733 0.37575 0.47725 0.0
C2454 C 0.22417 0.33857 0.40803 0.0
C2455 C 0.25074 0.36681 0.43426 0.0
C2456 C 0.2175 0.32983 0.3858 0.0
C2457 C 0.22616 0.34242 0.36695 0.0
C2458 C 0.23991 0.35975 0.41136 0.0
C2459 C 0.24031 0.36474 0.37111 0.0
C2460 C 0.27181 0.38168 0.43638 0.0
C2461 C 0.25179 0.3617 0.47456 0.0
N2462 N 0.24707 0.37241 0.39284 0.0
N2463 N 0.24137 0.35735 0.4534 0.0
H2464 H 0.32268 0.44172 0.51836 0.0
H2465 H 0.3892 0.54858 0.59145 0.0
H2466 H 0.29358 0.46887 0.58166 0.0
H2467 H 0.38751 0.55001 0.51783 0.0
H2468 H 0.35402 0.5199 0.58898 0.0
H2469 H 0.34646 0.48151 0.51757 0.0
C2470 C 0.321 0.45637 0.53184 0.0
C2471 C 0.30633 0.45218 0.55013 0.0
C2472 C 0.36103 0.52703 0.57342 0.0
C2473 C 0.33384 0.49718 0.54974 0.0
C2474 C 0.38109 0.54326 0.57482 0.0
C2475 C 0.39122 0.55152 0.55481 0.0
C2476 C 0.35157 0.5185 0.55186 0.0
C2477 C 0.38013 0.54413 0.53366 0.0
C2478 C 0.33448 0.47905 0.53137 0.0
C2479 C 0.30467 0.47161 0.56723 0.0
N2480 N 0.36119 0.52757 0.5327 0.0
N2481 N 0.31877 0.49311 0.56695 0.0
H2482 H 0.86004 0.08326 0.46078 0.0
H2483 H 0.94355 0.99517 0.53612 0.0
H2484 H 0.83161 0.03376 0.51097 0.0
H2485 H 0.96388 0.02922 0.47351 0.0
H2486 H 0.90296 0.01018 0.52921 0.0
H2487 H 0.89897 0.06546 0.46772 0.0
C2488 C 0.86201 0.0687 0.4734 0.0
C2489 C 0.84254 0.06006 0.48539 0.0
C2490 C 0.91633 0.01414 0.51696 0.0
C2491 C 0.88731 0.03935 0.49334 0.0
C2492 C 0.93946 0.00561 0.52087 0.0
C2493 C 0.95716 0.01107 0.50542 0.0
C2494 C 0.91104 0.02841 0.49762 0.0
C2495 C 0.95088 0.02463 0.48594 0.0
C2496 C 0.88428 0.05839 0.47724 0.0
C2497 C 0.84618 0.04094 0.50136 0.0
N2498 N 0.92843 0.03296 0.48271 0.0
N2499 N 0.86823 0.03125 0.50497 0.0
H2500 H 0.66411 0.03901 0.27002 0.0
H2501 H 0.68319 0.18959 0.28754 0.0
H2502 H 0.66825 0.07539 0.33762 0.0
H2503 H 0.7242 0.1461 0.23932 0.0
H2504 H 0.66722 0.14912 0.30138 0.0
H2505 H 0.67654 0.07978 0.25413 0.0
C2506 C 0.66753 0.05563 0.2815 0.0
C2507 C 0.66528 0.05386 0.3052 0.0
C2508 C 0.67946 0.14856 0.28756 0.0
C2509 C 0.67888 0.10045 0.28703 0.0
C2510 C 0.68836 0.17155 0.27946 0.0
C2511 C 0.70496 0.17111 0.2622 0.0
C2512 C 0.68679 0.12507 0.27792 0.0
C2513 C 0.7114 0.14721 0.25263 0.0
C2514 C 0.67465 0.07877 0.27241 0.0
C2515 C 0.66997 0.07594 0.3193 0.0
N2516 N 0.70221 0.12506 0.26056 0.0
N2517 N 0.67637 0.09847 0.30996 0.0
H2518 H 0.73643 0.90691 0.05314 0.0
H2519 H 0.63297 0.93286 0.96358 0.0
H2520 H 0.70497 0.84935 0.00605 0.0
H2521 H 0.66105 0.98829 0.0149 0.0
H2522 H 0.66792 0.90666 0.96992 0.0
H2523 H 0.71817 0.94049 0.03081 0.0
C2524 C 0.72666 0.90152 0.0374 0.0
C2525 C 0.72267 0.87558 0.03103 0.0
C2526 C 0.66672 0.92488 0.97938 0.0
C2527 C 0.70031 0.9135 0.00622 0.0
C2528 C 0.64682 0.93995 0.97566 0.0
C2529 C 0.64377 0.96238 0.98927 0.0
C2530 C 0.68351 0.93231 -0.00315 0.0
C2531 C 0.6624 0.97076 0.00446 0.0
C2532 C 0.71582 0.92059 0.02486 0.0
C2533 C 0.70844 0.86927 0.01143 0.0
N2534 N 0.68124 0.95543 0.00823 0.0
N2535 N 0.6975 0.88811 -0.00016 0.0
H2536 H 0.33251 0.47456 0.33703 0.0
H2537 H 0.32436 0.36103 0.2411 0.0
H2538 H 0.38314 0.46794 0.28365 0.0
H2539 H 0.2664 0.38382 0.28304 0.0
H2540 H 0.34765 0.39831 0.25703 0.0
H2541 H 0.31064 0.43746 0.31968 0.0
C2542 C 0.3393 0.46505 0.32191 0.0
C2543 C 0.3596 0.47458 0.3117 0.0
C2544 C 0.32971 0.39527 0.26246 0.0
C2545 C 0.33432 0.43234 0.29146 0.0
C2546 C 0.31631 0.37421 0.25316 0.0
C2547 C 0.29345 0.36925 0.26083 0.0
C2548 C 0.32018 0.41121 0.2796 0.0
C2549 C 0.28401 0.38679 0.27673 0.0
C2550 C 0.32661 0.44405 0.31183 0.0
C2551 C 0.36747 0.46139 0.29204 0.0
N2552 N 0.29751 0.40676 0.28578 0.0
N2553 N 0.35473 0.44102 0.28246 0.0
H2554 H 0.22164 0.55695 0.03612 0.0
H2555 H 0.08388 0.58928 0.0263 0.0
H2556 H 0.19111 0.60281 0.98308 0.0
H2557 H 0.11105 0.52329 0.06049 0.0
H2558 H 0.12443 0.60162 0.0173 0.0
H2559 H 0.18231 0.55118 0.05139 0.0
C2560 C 0.20668 0.5659 0.02772 0.0
C2561 C 0.20962 0.58019 0.00814 0.0
C2562 C 0.1215 0.58465 0.02705 0.0
C2563 C 0.16462 0.57387 0.02575 0.0
C2564 C 0.09841 0.57772 0.0324 0.0
C2565 C 0.09408 0.55508 0.04401 0.0
C2566 C 0.14037 0.56902 0.03359 0.0
C2567 C 0.11358 0.54078 0.05137 0.0
C2568 C 0.18425 0.56259 0.03647 0.0
C2569 C 0.18959 0.59142 -0.00195 0.0
N2570 N 0.13589 0.5479 0.0459 0.0
N2571 N 0.16789 0.58801 0.00697 0.0
H2572 H 0.71819 0.93626 0.33362 0.0
H2573 H 0.7484 0.82481 0.2421 0.0
H2574 H 0.68413 0.92903 0.26628 0.0
H2575 H 0.75683 0.81922 0.31526 0.0
H2576 H 0.73478 0.86916 0.24794 0.0
H2577 H 0.74315 0.90006 0.32364 0.0
C2578 C 0.71623 0.92743 0.31658 0.0
C2579 C 0.6986 0.93535 0.30095 0.0
C2580 C 0.73995 0.85826 0.26263 0.0
C2581 C 0.72714 0.89383 0.28952 0.0
C2582 C 0.74774 0.83307 0.25933 0.0
C2583 C 0.75339 0.81832 0.27826 0.0
C2584 C 0.7383 0.86877 0.28497 0.0
C2585 C 0.75228 0.82984 0.30023 0.0
C2586 C 0.73045 0.90669 0.31094 0.0
C2587 C 0.69718 0.92329 0.27902 0.0
N2588 N 0.74479 0.85435 0.30298 0.0
N2589 N 0.71104 0.90286 0.27404 0.0
H2590 H 0.8005 0.06224 0.82231 0.0
H2591 H 0.77319 0.18664 0.80578 0.0
H2592 H 0.83278 0.06885 0.75701 0.0
H2593 H 0.7708 0.16818 0.7332 0.0
H2594 H 0.78111 0.14175 0.81292 0.0
H2595 H 0.77442 0.09749 0.81291 0.0
C2596 C 0.80185 0.07076 0.80582 0.0
C2597 C 0.81954 0.06328 0.7908 0.0
C2598 C 0.7781 0.14725 0.79544 0.0
C2599 C 0.79023 0.10398 0.78032 0.0
C2600 C 0.77393 0.173 0.79137 0.0
C2601 C 0.77166 0.18112 0.76889 0.0
C2602 C 0.78034 0.12961 0.77687 0.0
C2603 C 0.7726 0.16267 0.75081 0.0
C2604 C 0.78709 0.09105 0.80059 0.0
C2605 C 0.81989 0.07449 0.7694 0.0
N2606 N 0.77743 0.13782 0.75518 0.0
N2607 N 0.80579 0.09471 0.76498 0.0
loop_
_geom_bond_atom_site_label_1
_geom_bond_atom_site_label_2
_geom_bond_distance
_geom_bond_site_symmetry_2
_ccdc_geom_bond_type
Mg0 O1 2.028 . S
Mg0 O7 1.986 . S
Mg0 O9 2.114 . S
Mg0 O10 2.251 . S
Mg0 O13 2.010 . S
O1 Mg0 2.028 . S
O1 C4 1.250 . S
O2 Mg3 2.028 . S
O2 C4 1.248 . S
Mg3 O2 2.028 . S
Mg3 O8 2.032 . S
Mg3 O10 2.079 . S
C4 O1 1.250 . S
C4 O2 1.248 . S
C5 O6 1.264 . S
C5 O13 1.249 . S
O6 C5 1.264 . S
O7 Mg0 1.986 . S
O7 C11 1.246 . S
O8 Mg3 2.032 . S
O8 C11 1.259 . S
O9 Mg0 2.114 . S
O9 C12 1.252 . S
O10 Mg0 2.251 . S
O10 Mg3 2.079 . S
O10 C12 1.273 . S
C11 O7 1.246 . S
C11 O8 1.259 . S
C12 O9 1.252 . S
C12 O10 1.273 . S
O13 Mg0 2.010 . S
O13 C5 1.249 . S
Mg14 O15 2.028 . S
Mg14 O21 1.986 . S
Mg14 O23 2.114 . S
Mg14 O24 2.251 1_455 S
Mg14 O27 2.010 . S
O15 Mg14 2.028 . S
O15 C18 1.250 . S
O16 Mg17 2.028 1_455 S
O16 C18 1.248 . S
Mg17 O16 2.028 1_655 S
Mg17 O22 2.032 1_655 S
Mg17 O24 2.079 . S
C18 O15 1.250 . S
C18 O16 1.248 . S
C19 O20 1.264 . S
C19 O27 1.249 . S
O20 C19 1.264 . S
O21 Mg14 1.986 . S
O21 C25 1.246 . S
O22 Mg17 2.032 1_455 S
O22 C25 1.259 . S
O23 Mg14 2.114 . S
O23 C26 1.252 1_455 S
O24 Mg14 2.251 1_655 S
O24 Mg17 2.079 . S
O24 C26 1.273 . S
C25 O21 1.246 . S
C25 O22 1.259 . S
C26 O23 1.252 1_655 S
C26 O24 1.273 . S
O27 Mg14 2.010 . S
O27 C19 1.249 . S
Mg28 O29 2.028 . S
Mg28 O35 1.986 . S
Mg28 O37 2.114 . S
Mg28 O38 2.251 . S
Mg28 O41 2.010 . S
O29 Mg28 2.028 . S
O29 C32 1.250 . S
O30 Mg31 2.028 . S
O30 C32 1.248 . S
Mg31 O30 2.028 . S
Mg31 O36 2.032 . S
Mg31 O38 2.079 . S
C32 O29 1.250 . S
C32 O30 1.248 . S
C33 O34 1.264 . S
C33 O41 1.249 . S
O34 C33 1.264 . S
O35 Mg28 1.986 . S
O35 C39 1.246 . S
O36 Mg31 2.032 . S
O36 C39 1.259 . S
O37 Mg28 2.114 . S
O37 C40 1.252 . S
O38 Mg28 2.251 . S
O38 Mg31 2.079 . S
O38 C40 1.273 . S
C39 O35 1.246 . S
C39 O36 1.259 . S
C40 O37 1.252 . S
C40 O38 1.273 . S
O41 Mg28 2.010 . S
O41 C33 1.249 . S
Mg42 O43 2.028 . S
Mg42 O49 1.986 . S
Mg42 O51 2.114 . S
Mg42 O52 2.251 . S
Mg42 O55 2.010 . S
O43 Mg42 2.028 . S
O43 C46 1.250 . S
O44 Mg45 2.028 . S
O44 C46 1.248 . S
Mg45 O44 2.028 . S
Mg45 O50 2.032 . S
Mg45 O52 2.079 . S
C46 O43 1.250 . S
C46 O44 1.248 . S
C47 O48 1.264 . S
C47 O55 1.249 . S
O48 C47 1.264 . S
O49 Mg42 1.986 . S
O49 C53 1.246 . S
O50 Mg45 2.032 . S
O50 C53 1.259 . S
O51 Mg42 2.114 . S
O51 C54 1.252 . S
O52 Mg42 2.251 . S
O52 Mg45 2.079 . S
O52 C54 1.273 . S
C53 O49 1.246 . S
C53 O50 1.259 . S
C54 O51 1.252 . S
C54 O52 1.273 . S
O55 Mg42 2.010 . S
O55 C47 1.249 . S
Mg56 O57 2.028 . S
Mg56 O63 1.986 1_545 S
Mg56 O65 2.114 . S
Mg56 O66 2.251 . S
Mg56 O69 2.010 . S
O57 Mg56 2.028 . S
O57 C60 1.250 . S
O58 Mg59 2.028 . S
O58 C60 1.248 . S
Mg59 O58 2.028 . S
Mg59 O64 2.032 1_545 S
Mg59 O66 2.079 . S
C60 O57 1.250 . S
C60 O58 1.248 . S
C61 O62 1.264 1_545 S
C61 O69 1.249 . S
O62 C61 1.264 1_565 S
O63 Mg56 1.986 1_565 S
O63 C67 1.246 . S
O64 Mg59 2.032 1_565 S
O64 C67 1.259 . S
O65 Mg56 2.114 . S
O65 C68 1.252 . S
O66 Mg56 2.251 . S
O66 Mg59 2.079 . S
O66 C68 1.273 . S
C67 O63 1.246 . S
C67 O64 1.259 . S
C68 O65 1.252 . S
C68 O66 1.273 . S
O69 Mg56 2.010 . S
O69 C61 1.249 . S
Mg70 O71 2.028 . S
Mg70 O77 1.986 . S
Mg70 O79 2.114 . S
Mg70 O80 2.251 . S
Mg70 O83 2.010 . S
O71 Mg70 2.028 . S
O71 C74 1.250 . S
O72 Mg73 2.028 . S
O72 C74 1.248 . S
Mg73 O72 2.028 . S
Mg73 O78 2.032 . S
Mg73 O80 2.079 . S
C74 O71 1.250 . S
C74 O72 1.248 . S
C75 O76 1.264 . S
C75 O83 1.249 . S
O76 C75 1.264 . S
O77 Mg70 1.986 . S
O77 C81 1.246 . S
O78 Mg73 2.032 . S
O78 C81 1.259 . S
O79 Mg70 2.114 . S
O79 C82 1.252 . S
O80 Mg70 2.251 . S
O80 Mg73 2.079 . S
O80 C82 1.273 . S
C81 O77 1.246 . S
C81 O78 1.259 . S
C82 O79 1.252 . S
C82 O80 1.273 . S
O83 Mg70 2.010 . S
O83 C75 1.249 . S
Mg84 O85 2.028 1_545 S
Mg84 O91 1.986 . S
Mg84 O93 2.114 . S
Mg84 O94 2.251 . S
Mg84 O97 2.010 . S
O85 Mg84 2.028 1_565 S
O85 C88 1.250 . S
O86 Mg87 2.028 1_565 S
O86 C88 1.248 . S
Mg87 O86 2.028 1_545 S
Mg87 O92 2.032 . S
Mg87 O94 2.079 . S
C88 O85 1.250 . S
C88 O86 1.248 . S
C89 O90 1.264 . S
C89 O97 1.249 . S
O90 C89 1.264 . S
O91 Mg84 1.986 . S
O91 C95 1.246 . S
O92 Mg87 2.032 . S
O92 C95 1.259 . S
O93 Mg84 2.114 . S
O93 C96 1.252 . S
O94 Mg84 2.251 . S
O94 Mg87 2.079 . S
O94 C96 1.273 . S
C95 O91 1.246 . S
C95 O92 1.259 . S
C96 O93 1.252 . S
C96 O94 1.273 . S
O97 Mg84 2.010 . S
O97 C89 1.249 . S
Mg98 O99 2.028 . S
Mg98 O105 1.986 1_554 S
Mg98 O107 2.114 . S
Mg98 O108 2.251 . S
Mg98 O111 2.010 . S
O99 Mg98 2.028 . S
O99 C102 1.250 . S
O100 Mg101 2.028 . S
O100 C102 1.248 . S
Mg101 O100 2.028 . S
Mg101 O106 2.052 . S
Mg101 O108 2.079 . S
C102 O99 1.250 . S
C102 O100 1.248 . S
C103 O104 1.264 . S
C103 O111 1.249 . S
O104 C103 1.264 . S
O105 Mg98 1.986 1_556 S
O105 C109 1.246 . S
O106 Mg101 2.052 . S
O106 C109 1.248 1_554 S
O107 Mg98 2.114 . S
O107 C110 1.252 . S
O108 Mg98 2.251 . S
O108 Mg101 2.079 . S
O108 C110 1.273 . S
C109 O105 1.246 . S
C109 O106 1.248 1_556 S
C110 O107 1.252 . S
C110 O108 1.273 . S
O111 Mg98 2.010 . S
O111 C103 1.249 . S
Mg112 O113 2.028 . S
Mg112 O119 1.986 . S
Mg112 O121 2.114 . S
Mg112 O122 2.251 . S
Mg112 O125 2.010 . S
O113 Mg112 2.028 . S
O113 C116 1.250 . S
O114 Mg115 2.028 . S
O114 C116 1.248 . S
Mg115 O114 2.028 . S
Mg115 O120 2.032 . S
Mg115 O122 2.079 . S
C116 O113 1.250 . S
C116 O114 1.248 . S
C117 O118 1.264 . S
C117 O125 1.249 . S
O118 C117 1.264 . S
O119 Mg112 1.986 . S
O119 C123 1.246 . S
O120 Mg115 2.032 . S
O120 C123 1.259 . S
O121 Mg112 2.114 . S
O121 C124 1.252 . S
O122 Mg112 2.251 . S
O122 Mg115 2.079 . S
O122 C124 1.273 . S
C123 O119 1.246 . S
C123 O120 1.259 . S
C124 O121 1.252 . S
C124 O122 1.273 . S
O125 Mg112 2.010 . S
O125 C117 1.249 . S
Mg126 O127 2.028 . S
Mg126 O133 1.986 . S
Mg126 O135 2.114 . S
Mg126 O136 2.251 . S
Mg126 O139 2.010 . S
O127 Mg126 2.028 . S
O127 C130 1.250 . S
O128 Mg129 2.028 . S
O128 C130 1.248 . S
Mg129 O128 2.028 . S
Mg129 O134 2.032 . S
Mg129 O136 2.079 . S
C130 O127 1.250 . S
C130 O128 1.248 . S
C131 O132 1.264 . S
C131 O139 1.249 . S
O132 C131 1.264 . S
O133 Mg126 1.986 . S
O133 C137 1.246 . S
O134 Mg129 2.032 . S
O134 C137 1.259 . S
O135 Mg126 2.114 . S
O135 C138 1.252 . S
O136 Mg126 2.251 . S
O136 Mg129 2.079 . S
O136 C138 1.273 . S
C137 O133 1.246 . S
C137 O134 1.259 . S
C138 O135 1.252 . S
C138 O136 1.273 . S
O139 Mg126 2.010 . S
O139 C131 1.249 . S
Mg140 O141 2.028 . S
Mg140 O147 1.986 . S
Mg140 O149 2.114 . S
Mg140 O150 2.251 . S
Mg140 O153 2.010 . S
O141 Mg140 2.028 . S
O141 C144 1.250 . S
O142 Mg143 2.028 . S
O142 C144 1.248 . S
Mg143 O142 2.028 . S
Mg143 O148 2.032 . S
Mg143 O150 2.079 . S
C144 O141 1.250 . S
C144 O142 1.248 . S
C145 O146 1.264 . S
C145 O153 1.249 . S
O146 C145 1.264 . S
O147 Mg140 1.986 . S
O147 C151 1.246 . S
O148 Mg143 2.032 . S
O148 C151 1.259 . S
O149 Mg140 2.114 . S
O149 C152 1.252 . S
O150 Mg140 2.251 . S
O150 Mg143 2.079 . S
O150 C152 1.273 . S
C151 O147 1.246 . S
C151 O148 1.259 . S
C152 O149 1.252 . S
C152 O150 1.273 . S
O153 Mg140 2.010 . S
O153 C145 1.249 . S
Mg154 O155 2.028 . S
Mg154 O161 1.986 . S
Mg154 O163 2.114 . S
Mg154 O164 2.251 . S
Mg154 O167 2.010 . S
O155 Mg154 2.028 . S
O155 C158 1.250 . S
O156 Mg157 2.028 . S
O156 C158 1.248 . S
Mg157 O156 2.028 . S
Mg157 O162 2.032 . S
Mg157 O164 2.079 . S
C158 O155 1.250 . S
C158 O156 1.248 . S
C159 O160 1.264 . S
C159 O167 1.249 . S
O160 C159 1.264 . S
O161 Mg154 1.986 . S
O161 C165 1.246 . S
O162 Mg157 2.032 . S
O162 C165 1.259 . S
O163 Mg154 2.114 . S
O163 C166 1.252 . S
O164 Mg154 2.251 . S
O164 Mg157 2.079 . S
O164 C166 1.273 . S
C165 O161 1.246 . S
C165 O162 1.259 . S
C166 O163 1.252 . S
C166 O164 1.273 . S
O167 Mg154 2.010 . S
O167 C159 1.249 . S
Mg168 O169 2.023 1_655 S
Mg168 O175 1.979 1_655 S
Mg168 O177 2.136 . S
Mg168 O178 2.292 . S
Mg168 O181 1.974 1_655 S
O169 Mg168 2.023 1_455 S
O169 C172 1.250 1_455 S
O170 Mg171 2.028 . S
O170 C172 1.248 . S
Mg171 O170 2.028 . S
Mg171 O176 2.032 . S
Mg171 O178 2.079 . S
C172 O169 1.250 1_655 S
C172 O170 1.248 . S
C173 O174 1.264 . S
C173 O181 1.249 . S
O174 C173 1.264 . S
O175 Mg168 1.979 1_455 S
O175 C179 1.246 1_455 S
O176 Mg171 2.032 . S
O176 C179 1.259 . S
O177 Mg168 2.136 . S
O177 C180 1.252 . S
O178 Mg168 2.292 . S
O178 Mg171 2.079 . S
O178 C180 1.273 . S
C179 O175 1.246 1_655 S
C179 O176 1.259 . S
C180 O177 1.252 . S
C180 O178 1.273 . S
O181 Mg168 1.974 1_455 S
O181 C173 1.249 . S
Mg182 O183 2.028 . S
Mg182 O189 1.986 . S
Mg182 O191 2.114 . S
Mg182 O192 2.251 1_455 S
Mg182 O195 2.010 . S
O183 Mg182 2.028 . S
O183 C186 1.250 . S
O184 Mg185 2.028 1_455 S
O184 C186 1.248 . S
Mg185 O184 2.028 1_655 S
Mg185 O190 2.032 1_655 S
Mg185 O192 2.079 . S
C186 O183 1.250 . S
C186 O184 1.248 . S
C187 O188 1.264 . S
C187 O195 1.249 . S
O188 C187 1.264 . S
O189 Mg182 1.986 . S
O189 C193 1.246 . S
O190 Mg185 2.032 1_455 S
O190 C193 1.259 . S
O191 Mg182 2.114 . S
O191 C194 1.252 1_455 S
O192 Mg182 2.251 1_655 S
O192 Mg185 2.079 . S
O192 C194 1.273 . S
C193 O189 1.246 . S
C193 O190 1.259 . S
C194 O191 1.252 1_655 S
C194 O192 1.273 . S
O195 Mg182 2.010 . S
O195 C187 1.249 . S
Mg196 O197 2.028 . S
Mg196 O203 1.986 . S
Mg196 O205 2.114 . S
Mg196 O206 2.251 . S
Mg196 O209 2.010 . S
O197 Mg196 2.028 . S
O197 C200 1.250 . S
O198 Mg199 2.028 . S
O198 C200 1.248 . S
Mg199 O198 2.028 . S
Mg199 O204 2.032 . S
Mg199 O206 2.079 . S
C200 O197 1.250 . S
C200 O198 1.248 . S
C201 O202 1.264 . S
C201 O209 1.249 . S
O202 C201 1.264 . S
O203 Mg196 1.986 . S
O203 C207 1.246 . S
O204 Mg199 2.032 . S
O204 C207 1.259 . S
O205 Mg196 2.114 . S
O205 C208 1.252 . S
O206 Mg196 2.251 . S
O206 Mg199 2.079 . S
O206 C208 1.273 . S
C207 O203 1.246 . S
C207 O204 1.259 . S
C208 O205 1.252 . S
C208 O206 1.273 . S
O209 Mg196 2.010 . S
O209 C201 1.249 . S
Mg210 O211 2.028 . S
Mg210 O217 1.986 . S
Mg210 O219 2.114 . S
Mg210 O220 2.251 . S
Mg210 O223 2.010 . S
O211 Mg210 2.028 . S
O211 C214 1.250 . S
O212 Mg213 2.028 . S
O212 C214 1.248 . S
Mg213 O212 2.028 . S
Mg213 O218 2.032 . S
Mg213 O220 2.079 . S
C214 O211 1.250 . S
C214 O212 1.248 . S
C215 O216 1.264 . S
C215 O223 1.249 . S
O216 C215 1.264 . S
O217 Mg210 1.986 . S
O217 C221 1.246 . S
O218 Mg213 2.032 . S
O218 C221 1.259 . S
O219 Mg210 2.114 . S
O219 C222 1.252 . S
O220 Mg210 2.251 . S
O220 Mg213 2.079 . S
O220 C222 1.273 . S
C221 O217 1.246 . S
C221 O218 1.259 . S
C222 O219 1.252 . S
C222 O220 1.273 . S
O223 Mg210 2.010 . S
O223 C215 1.249 . S
Mg224 O225 2.028 1_545 S
Mg224 O231 1.986 . S
Mg224 O233 2.115 . S
Mg224 O234 2.251 . S
Mg224 O237 2.010 . S
O225 Mg224 2.028 1_565 S
O225 C228 1.250 . S
O226 Mg227 2.028 1_565 S
O226 C228 1.248 . S
Mg227 O226 2.028 1_545 S
Mg227 O232 2.032 . S
Mg227 O234 2.079 . S
C228 O225 1.250 . S
C228 O226 1.248 . S
C229 O230 1.264 . S
C229 O237 1.249 . S
O230 C229 1.264 . S
O231 Mg224 1.986 . S
O231 C235 1.246 . S
O232 Mg227 2.032 . S
O232 C235 1.259 . S
O233 Mg224 2.115 . S
O233 C236 1.253 . S
O234 Mg224 2.251 . S
O234 Mg227 2.079 . S
O234 C236 1.273 . S
C235 O231 1.246 . S
C235 O232 1.259 . S
C236 O233 1.253 . S
C236 O234 1.273 . S
O237 Mg224 2.010 . S
O237 C229 1.249 . S
Mg238 O239 2.028 . S
Mg238 O245 1.986 . S
Mg238 O247 2.114 . S
Mg238 O248 2.251 . S
Mg238 O251 2.010 . S
O239 Mg238 2.028 . S
O239 C242 1.250 . S
O240 Mg241 2.028 . S
O240 C242 1.248 . S
Mg241 O240 2.028 . S
Mg241 O246 2.032 . S
Mg241 O248 2.079 . S
C242 O239 1.250 . S
C242 O240 1.248 . S
C243 O244 1.264 . S
C243 O251 1.249 . S
O244 C243 1.264 . S
O245 Mg238 1.986 . S
O245 C249 1.246 . S
O246 Mg241 2.032 . S
O246 C249 1.259 . S
O247 Mg238 2.114 . S
O247 C250 1.252 . S
O248 Mg238 2.251 . S
O248 Mg241 2.079 . S
O248 C250 1.273 . S
C249 O245 1.246 . S
C249 O246 1.259 . S
C250 O247 1.252 . S
C250 O248 1.273 . S
O251 Mg238 2.010 . S
O251 C243 1.249 . S
Mg252 O253 2.028 . S
Mg252 O259 1.986 1_545 S
Mg252 O261 2.114 . S
Mg252 O262 2.251 . S
Mg252 O265 2.010 . S
O253 Mg252 2.028 . S
O253 C256 1.250 . S
O254 Mg255 2.028 . S
O254 C256 1.248 . S
Mg255 O254 2.028 . S
Mg255 O260 2.032 1_545 S
Mg255 O262 2.079 . S
C256 O253 1.250 . S
C256 O254 1.248 . S
C257 O258 1.264 1_545 S
C257 O265 1.249 . S
O258 C257 1.264 1_565 S
O259 Mg252 1.986 1_565 S
O259 C263 1.246 . S
O260 Mg255 2.032 1_565 S
O260 C263 1.259 . S
O261 Mg252 2.114 . S
O261 C264 1.252 . S
O262 Mg252 2.251 . S
O262 Mg255 2.079 . S
O262 C264 1.273 . S
C263 O259 1.246 . S
C263 O260 1.259 . S
C264 O261 1.252 . S
C264 O262 1.273 . S
O265 Mg252 2.010 . S
O265 C257 1.249 . S
Mg266 O267 2.028 . S
Mg266 O273 1.986 . S
Mg266 O275 2.114 . S
Mg266 O276 2.251 . S
Mg266 O279 2.010 . S
O267 Mg266 2.028 . S
O267 C270 1.250 1_554 S
O268 Mg269 2.028 . S
O268 C270 1.248 1_554 S
Mg269 O268 2.028 . S
Mg269 O274 2.032 . S
Mg269 O276 2.079 . S
C270 O267 1.250 1_556 S
C270 O268 1.248 1_556 S
C271 O272 1.264 . S
C271 O279 1.249 . S
O272 C271 1.264 . S
O273 Mg266 1.986 . S
O273 C277 1.246 . S
O274 Mg269 2.032 . S
O274 C277 1.259 . S
O275 Mg266 2.114 . S
O275 C278 1.252 . S
O276 Mg266 2.251 . S
O276 Mg269 2.079 . S
O276 C278 1.273 . S
C277 O273 1.246 . S
C277 O274 1.259 . S
C278 O275 1.252 . S
C278 O276 1.273 . S
O279 Mg266 2.010 . S
O279 C271 1.249 . S
Mg280 O281 2.028 1_556 S
Mg280 O287 1.986 . S
Mg280 O289 2.114 1_556 S
Mg280 O290 2.251 . S
Mg280 O293 2.010 . S
O281 Mg280 2.028 1_554 S
O281 C284 1.250 . S
O282 Mg283 2.004 1_554 S
O282 C284 1.248 . S
Mg283 O282 2.004 1_556 S
Mg283 O288 2.054 . S
Mg283 O290 2.082 . S
C284 O281 1.250 . S
C284 O282 1.248 . S
C285 O286 1.264 . S
C285 O293 1.249 . S
O286 C285 1.264 . S
O287 Mg280 1.986 . S
O287 C291 1.246 . S
O288 Mg283 2.054 . S
O288 C291 1.259 . S
O289 Mg280 2.114 1_554 S
O289 C292 1.252 . S
O290 Mg280 2.251 . S
O290 Mg283 2.082 . S
O290 C292 1.273 1_556 S
C291 O287 1.246 . S
C291 O288 1.259 . S
C292 O289 1.252 . S
C292 O290 1.273 1_554 S
O293 Mg280 2.010 . S
O293 C285 1.249 . S
Mg294 O295 2.028 . S
Mg294 O301 1.986 . S
Mg294 O303 2.114 . S
Mg294 O304 2.251 . S
Mg294 O307 2.010 . S
O295 Mg294 2.028 . S
O295 C298 1.250 . S
O296 Mg297 2.028 . S
O296 C298 1.248 . S
Mg297 O296 2.028 . S
Mg297 O302 2.032 . S
Mg297 O304 2.079 . S
C298 O295 1.250 . S
C298 O296 1.248 . S
C299 O300 1.264 . S
C299 O307 1.249 . S
O300 C299 1.264 . S
O301 Mg294 1.986 . S
O301 C305 1.246 . S
O302 Mg297 2.032 . S
O302 C305 1.259 . S
O303 Mg294 2.114 . S
O303 C306 1.252 . S
O304 Mg294 2.251 . S
O304 Mg297 2.079 . S
O304 C306 1.273 . S
C305 O301 1.246 . S
C305 O302 1.259 . S
C306 O303 1.252 . S
C306 O304 1.273 . S
O307 Mg294 2.010 . S
O307 C299 1.249 . S
Mg308 O309 2.028 . S
Mg308 O315 1.986 . S
Mg308 O317 2.114 . S
Mg308 O318 2.251 . S
Mg308 O321 2.010 . S
O309 Mg308 2.028 . S
O309 C312 1.250 . S
O310 Mg311 2.028 . S
O310 C312 1.248 . S
Mg311 O310 2.028 . S
Mg311 O316 2.032 . S
Mg311 O318 2.079 . S
C312 O309 1.250 . S
C312 O310 1.248 . S
C313 O314 1.264 . S
C313 O321 1.249 . S
O314 C313 1.264 . S
O315 Mg308 1.986 . S
O315 C319 1.246 . S
O316 Mg311 2.032 . S
O316 C319 1.259 . S
O317 Mg308 2.114 . S
O317 C320 1.252 . S
O318 Mg308 2.251 . S
O318 Mg311 2.079 . S
O318 C320 1.273 . S
C319 O315 1.246 . S
C319 O316 1.259 . S
C320 O317 1.252 . S
C320 O318 1.273 . S
O321 Mg308 2.010 . S
O321 C313 1.249 . S
Mg322 O323 2.028 . S
Mg322 O329 1.986 . S
Mg322 O331 2.114 . S
Mg322 O332 2.251 . S
Mg322 O335 2.010 . S
O323 Mg322 2.028 . S
O323 C326 1.250 . S
O324 Mg325 2.028 . S
O324 C326 1.248 . S
Mg325 O324 2.028 . S
Mg325 O330 2.032 . S
Mg325 O332 2.079 . S
C326 O323 1.250 . S
C326 O324 1.248 . S
C327 O328 1.264 . S
C327 O335 1.249 . S
O328 C327 1.264 . S
O329 Mg322 1.986 . S
O329 C333 1.246 . S
O330 Mg325 2.032 . S
O330 C333 1.259 . S
O331 Mg322 2.114 . S
O331 C334 1.252 . S
O332 Mg322 2.251 . S
O332 Mg325 2.079 . S
O332 C334 1.273 . S
C333 O329 1.246 . S
C333 O330 1.259 . S
C334 O331 1.252 . S
C334 O332 1.273 . S
O335 Mg322 2.010 . S
O335 C327 1.249 . S
C336 O352 1.251 1_456 S
C336 O354 1.254 . S
N337 C338 1.333 1_565 S
N337 C342 1.307 . S
N337 Zn343 2.015 1_565 S
C338 N337 1.333 1_545 S
C338 C339 1.379 . S
C338 H356 0.952 . S
C339 C338 1.379 . S
C339 C340 1.390 1_545 S
C339 H366 0.949 . S
C340 C339 1.390 1_565 S
C340 C341 1.357 . S
C341 C340 1.357 . S
C341 C342 1.370 . S
C341 H367 0.950 . S
C342 N337 1.307 . S
C342 C341 1.370 . S
C342 H360 0.948 . S
Zn343 N337 2.015 1_545 S
Zn343 O352 2.038 . S
Zn343 O358 2.034 1_655 S
Zn343 O362 2.028 1_645 S
Zn343 O364 2.026 1_645 S
C344 O363 1.246 . S
C344 O364 1.249 . S
N345 C346 1.307 1_554 S
N345 C347 1.333 . S
N345 Zn351 2.020 . S
C346 N345 1.307 1_556 S
C346 C350 1.370 . S
C346 H357 0.948 . S
C347 N345 1.333 . S
C347 C348 1.379 . S
C347 H355 0.952 . S
C348 C347 1.379 . S
C348 C349 1.390 . S
C348 H368 0.949 . S
C349 C348 1.390 . S
C349 C350 1.357 1_554 S
C350 C346 1.370 . S
C350 C349 1.357 1_556 S
C350 H369 0.950 . S
Zn351 N345 2.020 . S
Zn351 O354 2.025 1_554 S
Zn351 O359 2.024 . S
Zn351 O361 2.039 . S
Zn351 O363 2.034 1_545 S
O352 C336 1.251 1_654 S
O352 Zn343 2.038 . S
C353 O358 1.246 . S
C353 O359 1.249 . S
O354 C336 1.254 . S
O354 Zn351 2.025 1_556 S
H355 C347 0.952 . S
H356 C338 0.952 . S
H357 C346 0.948 . S
O358 Zn343 2.034 1_455 S
O358 C353 1.246 . S
O359 Zn351 2.024 . S
O359 C353 1.249 . S
H360 C342 0.948 . S
O361 Zn351 2.039 . S
O361 C365 1.251 . S
O362 Zn343 2.028 1_465 S
O362 C365 1.254 1_565 S
O363 C344 1.246 . S
O363 Zn351 2.034 1_565 S
O364 Zn343 2.026 1_465 S
O364 C344 1.249 . S
C365 O361 1.251 . S
C365 O362 1.254 1_545 S
H366 C339 0.949 . S
H367 C341 0.950 . S
H368 C348 0.949 . S
H369 C350 0.950 . S
C370 O386 1.251 . S
C370 O388 1.254 . S
N371 C372 1.333 . S
N371 C376 1.307 . S
N371 Zn377 2.020 . S
C372 N371 1.333 . S
C372 C373 1.379 . S
C372 H390 0.952 . S
C373 C372 1.379 . S
C373 C374 1.390 . S
C373 H400 0.949 . S
C374 C373 1.390 . S
C374 C375 1.357 . S
C375 C374 1.357 . S
C375 C376 1.370 . S
C375 H401 0.950 . S
C376 N371 1.307 . S
C376 C375 1.370 . S
C376 H394 0.948 . S
Zn377 N371 2.020 . S
Zn377 O386 2.039 . S
Zn377 O392 2.034 . S
Zn377 O396 2.025 . S
Zn377 O398 2.024 . S
C378 O397 1.246 . S
C378 O398 1.249 . S
N379 C380 1.307 . S
N379 C381 1.333 . S
N379 Zn385 2.020 . S
C380 N379 1.307 . S
C380 C384 1.370 . S
C380 H391 0.948 . S
C381 N379 1.333 . S
C381 C382 1.379 . S
C381 H389 0.952 . S
C382 C381 1.379 . S
C382 C383 1.390 . S
C382 H402 0.949 . S
C383 C382 1.390 . S
C383 C384 1.357 . S
C384 C380 1.370 . S
C384 C383 1.357 . S
C384 H403 0.950 . S
Zn385 N379 2.020 . S
Zn385 O388 2.025 . S
Zn385 O393 2.024 . S
Zn385 O395 2.039 . S
Zn385 O397 2.034 . S
O386 C370 1.251 . S
O386 Zn377 2.039 . S
C387 O392 1.246 . S
C387 O393 1.249 . S
O388 C370 1.254 . S
O388 Zn385 2.025 . S
H389 C381 0.952 . S
H390 C372 0.952 . S
H391 C380 0.948 . S
O392 Zn377 2.034 . S
O392 C387 1.246 . S
O393 Zn385 2.024 . S
O393 C387 1.249 . S
H394 C376 0.948 . S
O395 Zn385 2.039 . S
O395 C399 1.251 . S
O396 Zn377 2.025 . S
O396 C399 1.254 . S
O397 C378 1.246 . S
O397 Zn385 2.034 . S
O398 Zn377 2.024 . S
O398 C378 1.249 . S
C399 O395 1.251 . S
C399 O396 1.254 . S
H400 C373 0.949 . S
H401 C375 0.950 . S
H402 C382 0.949 . S
H403 C384 0.950 . S
C404 O420 1.251 . S
C404 O422 1.254 . S
N405 C406 1.333 . S
N405 C410 1.307 . S
N405 Zn411 2.020 . S
C406 N405 1.333 . S
C406 C407 1.379 . S
C406 H424 0.952 . S
C407 C406 1.379 . S
C407 C408 1.390 . S
C407 H434 0.949 . S
C408 C407 1.390 . S
C408 C409 1.357 . S
C409 C408 1.357 . S
C409 C410 1.370 . S
C409 H435 0.950 . S
C410 N405 1.307 . S
C410 C409 1.370 . S
C410 H428 0.948 . S
Zn411 N405 2.020 . S
Zn411 O420 2.039 1_565 S
Zn411 O426 2.034 1_565 S
Zn411 O430 2.025 . S
Zn411 O432 2.024 . S
C412 O431 1.246 1_565 S
C412 O432 1.249 . S
N413 C414 1.307 . S
N413 C415 1.333 . S
N413 Zn419 2.020 . S
C414 N413 1.307 . S
C414 C418 1.370 . S
C414 H425 0.948 . S
C415 N413 1.333 . S
C415 C416 1.379 . S
C415 H423 0.952 . S
C416 C415 1.379 . S
C416 C417 1.390 . S
C416 H436 0.949 . S
C417 C416 1.390 . S
C417 C418 1.357 . S
C418 C414 1.370 . S
C418 C417 1.357 . S
C418 H437 0.950 . S
Zn419 N413 2.020 . S
Zn419 O422 2.025 . S
Zn419 O427 2.024 . S
Zn419 O429 2.039 . S
Zn419 O431 2.034 . S
O420 C404 1.251 . S
O420 Zn411 2.039 1_545 S
C421 O426 1.246 . S
C421 O427 1.249 . S
O422 C404 1.254 . S
O422 Zn419 2.025 . S
H423 C415 0.952 . S
H424 C406 0.952 . S
H425 C414 0.948 . S
O426 Zn411 2.034 1_545 S
O426 C421 1.246 . S
O427 Zn419 2.024 . S
O427 C421 1.249 . S
H428 C410 0.948 . S
O429 Zn419 2.039 . S
O429 C433 1.251 . S
O430 Zn411 2.025 . S
O430 C433 1.254 1_565 S
O431 C412 1.246 1_545 S
O431 Zn419 2.034 . S
O432 Zn411 2.024 . S
O432 C412 1.249 . S
C433 O429 1.251 . S
C433 O430 1.254 1_545 S
H434 C407 0.949 . S
H435 C409 0.950 . S
H436 C416 0.949 . S
H437 C418 0.950 . S
C438 O454 1.251 . S
C438 O456 1.254 . S
N439 C440 1.333 . S
N439 C444 1.307 . S
N439 Zn445 2.020 . S
C440 N439 1.333 . S
C440 C441 1.379 . S
C440 H458 0.952 . S
C441 C440 1.379 . S
C441 C442 1.390 . S
C441 H468 0.949 . S
C442 C441 1.390 . S
C442 C443 1.357 . S
C443 C442 1.357 . S
C443 C444 1.370 . S
C443 H469 0.950 . S
C444 N439 1.307 . S
C444 C443 1.370 . S
C444 H462 0.948 . S
Zn445 N439 2.020 . S
Zn445 O454 2.039 . S
Zn445 O460 2.034 . S
Zn445 O464 2.025 . S
Zn445 O466 2.024 . S
C446 O465 1.246 . S
C446 O466 1.249 . S
N447 C448 1.307 . S
N447 C449 1.333 . S
N447 Zn453 2.020 . S
C448 N447 1.307 . S
C448 C452 1.370 . S
C448 H459 0.948 . S
C449 N447 1.333 . S
C449 C450 1.379 . S
C449 H457 0.952 . S
C450 C449 1.379 . S
C450 C451 1.390 . S
C450 H470 0.949 . S
C451 C450 1.390 . S
C451 C452 1.357 . S
C452 C448 1.370 . S
C452 C451 1.357 . S
C452 H471 0.950 . S
Zn453 N447 2.020 . S
Zn453 O456 2.025 . S
Zn453 O461 2.024 . S
Zn453 O463 2.039 . S
Zn453 O465 2.034 . S
O454 C438 1.251 . S
O454 Zn445 2.039 . S
C455 O460 1.246 . S
C455 O461 1.249 . S
O456 C438 1.254 . S
O456 Zn453 2.025 . S
H457 C449 0.952 . S
H458 C440 0.952 . S
H459 C448 0.948 . S
O460 Zn445 2.034 . S
O460 C455 1.246 . S
O461 Zn453 2.024 . S
O461 C455 1.249 . S
H462 C444 0.948 . S
O463 Zn453 2.039 . S
O463 C467 1.251 . S
O464 Zn445 2.025 . S
O464 C467 1.254 . S
O465 C446 1.246 . S
O465 Zn453 2.034 . S
O466 Zn445 2.024 . S
O466 C446 1.249 . S
C467 O463 1.251 . S
C467 O464 1.254 . S
H468 C441 0.949 . S
H469 C443 0.950 . S
H470 C450 0.949 . S
H471 C452 0.950 . S
C472 O488 1.251 . S
C472 O490 1.254 . S
N473 C474 1.333 . S
N473 C478 1.307 . S
N473 Zn479 2.020 . S
C474 N473 1.333 . S
C474 C475 1.379 . S
C474 H492 0.952 . S
C475 C474 1.379 . S
C475 C476 1.390 . S
C475 H502 0.949 . S
C476 C475 1.390 . S
C476 C477 1.357 . S
C477 C476 1.357 . S
C477 C478 1.370 . S
C477 H503 0.950 . S
C478 N473 1.307 . S
C478 C477 1.370 . S
C478 H496 0.948 . S
Zn479 N473 2.020 . S
Zn479 O488 2.039 . S
Zn479 O494 2.034 . S
Zn479 O498 2.025 . S
Zn479 O500 2.024 1_545 S
C480 O499 1.246 . S
C480 O500 1.249 . S
N481 C482 1.307 . S
N481 C483 1.333 1_455 S
N481 Zn487 2.020 1_565 S
C482 N481 1.307 . S
C482 C486 1.370 . S
C482 H493 0.948 1_565 S
C483 N481 1.333 1_655 S
C483 C484 1.379 . S
C483 H491 0.952 . S
C484 C483 1.379 . S
C484 C485 1.390 . S
C484 H504 0.949 . S
C485 C484 1.390 . S
C485 C486 1.357 1_655 S
C486 C482 1.370 . S
C486 C485 1.357 1_455 S
C486 H505 0.950 . S
Zn487 N481 2.020 1_545 S
Zn487 O490 2.025 . S
Zn487 O495 2.024 . S
Zn487 O497 2.039 1_455 S
Zn487 O499 2.034 1_545 S
O488 C472 1.251 . S
O488 Zn479 2.039 . S
C489 O494 1.246 . S
C489 O495 1.249 . S
O490 C472 1.254 . S
O490 Zn487 2.025 . S
H491 C483 0.952 . S
H492 C474 0.952 . S
H493 C482 0.948 1_545 S
O494 Zn479 2.034 . S
O494 C489 1.246 . S
O495 Zn487 2.024 . S
O495 C489 1.249 . S
H496 C478 0.948 . S
O497 Zn487 2.039 1_655 S
O497 C501 1.251 . S
O498 Zn479 2.025 . S
O498 C501 1.254 1_455 S
O499 C480 1.246 . S
O499 Zn487 2.034 1_565 S
O500 Zn479 2.024 1_565 S
O500 C480 1.249 . S
C501 O497 1.251 . S
C501 O498 1.254 1_655 S
H502 C475 0.949 . S
H503 C477 0.950 . S
H504 C484 0.949 . S
H505 C486 0.950 . S
C506 O522 1.251 . S
C506 O524 1.254 . S
N507 C508 1.333 . S
N507 C512 1.307 . S
N507 Zn513 2.020 . S
C508 N507 1.333 . S
C508 C509 1.379 . S
C508 H526 0.952 . S
C509 C508 1.379 . S
C509 C510 1.390 . S
C509 H536 0.949 . S
C510 C509 1.390 . S
C510 C511 1.357 . S
C511 C510 1.357 . S
C511 C512 1.370 . S
C511 H537 0.950 . S
C512 N507 1.307 . S
C512 C511 1.370 . S
C512 H530 0.948 . S
Zn513 N507 2.020 . S
Zn513 O522 2.039 . S
Zn513 O528 2.034 . S
Zn513 O532 2.025 . S
Zn513 O534 2.024 . S
C514 O533 1.246 . S
C514 O534 1.249 . S
N515 C516 1.307 . S
N515 C517 1.333 . S
N515 Zn521 2.020 . S
C516 N515 1.307 . S
C516 C520 1.370 . S
C516 H527 0.948 . S
C517 N515 1.333 . S
C517 C518 1.379 . S
C517 H525 0.952 . S
C518 C517 1.379 . S
C518 C519 1.390 . S
C518 H538 0.949 . S
C519 C518 1.390 . S
C519 C520 1.357 . S
C520 C516 1.370 . S
C520 C519 1.357 . S
C520 H539 0.950 . S
Zn521 N515 2.020 . S
Zn521 O524 2.025 . S
Zn521 O529 2.024 . S
Zn521 O531 2.039 . S
Zn521 O533 2.034 . S
O522 C506 1.251 . S
O522 Zn513 2.039 . S
C523 O528 1.246 . S
C523 O529 1.249 . S
O524 C506 1.254 . S
O524 Zn521 2.025 . S
H525 C517 0.952 . S
H526 C508 0.952 . S
H527 C516 0.948 . S
O528 Zn513 2.034 . S
O528 C523 1.246 . S
O529 Zn521 2.024 . S
O529 C523 1.249 . S
H530 C512 0.948 . S
O531 Zn521 2.039 . S
O531 C535 1.251 . S
O532 Zn513 2.025 . S
O532 C535 1.254 . S
O533 C514 1.246 . S
O533 Zn521 2.034 . S
O534 Zn513 2.024 . S
O534 C514 1.249 . S
C535 O531 1.251 . S
C535 O532 1.254 . S
H536 C509 0.949 . S
H537 C511 0.950 . S
H538 C518 0.949 . S
H539 C520 0.950 . S
C540 O556 1.251 . S
C540 O558 1.254 . S
N541 C542 1.333 . S
N541 C546 1.307 . S
N541 Zn547 2.020 . S
C542 N541 1.333 . S
C542 C543 1.379 . S
C542 H560 0.952 . S
C543 C542 1.379 . S
C543 C544 1.390 . S
C543 H570 0.949 . S
C544 C543 1.390 . S
C544 C545 1.357 . S
C545 C544 1.357 . S
C545 C546 1.370 . S
C545 H571 0.950 . S
C546 N541 1.307 . S
C546 C545 1.370 . S
C546 H564 0.948 . S
Zn547 N541 2.020 . S
Zn547 O556 2.039 1_545 S
Zn547 O562 2.034 . S
Zn547 O566 2.025 . S
Zn547 O568 2.024 . S
C548 O567 1.246 1_545 S
C548 O568 1.249 . S
N549 C550 1.307 . S
N549 C551 1.333 1_565 S
N549 Zn555 2.020 1_566 S
C550 N549 1.307 . S
C550 C554 1.370 . S
C550 H561 0.948 . S
C551 N549 1.333 1_545 S
C551 C552 1.379 . S
C551 H559 0.952 . S
C552 C551 1.379 . S
C552 C553 1.390 1_545 S
C552 H572 0.949 . S
C553 C552 1.390 1_565 S
C553 C554 1.357 . S
C554 C550 1.370 . S
C554 C553 1.357 . S
C554 H573 0.950 . S
Zn555 N549 2.020 1_544 S
Zn555 O558 2.025 1_545 S
Zn555 O563 2.024 . S
Zn555 O565 2.039 1_554 S
Zn555 O567 2.035 1_545 S
O556 C540 1.251 . S
O556 Zn547 2.039 1_565 S
C557 O562 1.246 . S
C557 O563 1.249 . S
O558 C540 1.254 . S
O558 Zn555 2.025 1_565 S
H559 C551 0.952 . S
H560 C542 0.952 . S
H561 C550 0.948 . S
O562 Zn547 2.034 . S
O562 C557 1.246 . S
O563 Zn555 2.024 . S
O563 C557 1.249 . S
H564 C546 0.948 . S
O565 Zn555 2.039 1_556 S
O565 C569 1.251 1_556 S
O566 Zn547 2.025 . S
O566 C569 1.254 . S
O567 C548 1.246 1_565 S
O567 Zn555 2.035 1_565 S
O568 Zn547 2.024 . S
O568 C548 1.249 . S
C569 O565 1.251 1_554 S
C569 O566 1.254 . S
H570 C543 0.949 . S
H571 C545 0.950 . S
H572 C552 0.949 . S
H573 C554 0.950 . S
C574 O590 1.251 . S
C574 O592 1.254 . S
N575 C576 1.333 . S
N575 C580 1.307 . S
N575 Zn581 2.020 . S
C576 N575 1.333 . S
C576 C577 1.379 . S
C576 H594 0.952 . S
C577 C576 1.379 . S
C577 C578 1.390 . S
C577 H604 0.949 . S
C578 C577 1.390 . S
C578 C579 1.357 . S
C579 C578 1.357 . S
C579 C580 1.370 . S
C579 H605 0.950 . S
C580 N575 1.307 . S
C580 C579 1.370 . S
C580 H598 0.948 . S
Zn581 N575 2.020 . S
Zn581 O590 2.039 . S
Zn581 O596 2.034 . S
Zn581 O600 2.025 . S
Zn581 O602 2.024 . S
C582 O601 1.246 . S
C582 O602 1.249 . S
N583 C584 1.307 . S
N583 C585 1.333 . S
N583 Zn589 2.020 . S
C584 N583 1.307 . S
C584 C588 1.370 . S
C584 H595 0.948 . S
C585 N583 1.333 . S
C585 C586 1.379 . S
C585 H593 0.952 . S
C586 C585 1.379 . S
C586 C587 1.390 . S
C586 H606 0.949 . S
C587 C586 1.390 . S
C587 C588 1.357 . S
C588 C584 1.370 . S
C588 C587 1.357 . S
C588 H607 0.950 . S
Zn589 N583 2.020 . S
Zn589 O592 2.025 . S
Zn589 O597 2.024 . S
Zn589 O599 2.039 . S
Zn589 O601 2.034 . S
O590 C574 1.251 . S
O590 Zn581 2.039 . S
C591 O596 1.246 . S
C591 O597 1.249 . S
O592 C574 1.254 . S
O592 Zn589 2.025 . S
H593 C585 0.952 . S
H594 C576 0.952 . S
H595 C584 0.948 . S
O596 Zn581 2.034 . S
O596 C591 1.246 . S
O597 Zn589 2.024 . S
O597 C591 1.249 . S
H598 C580 0.948 . S
O599 Zn589 2.039 . S
O599 C603 1.251 . S
O600 Zn581 2.025 . S
O600 C603 1.254 . S
O601 C582 1.246 . S
O601 Zn589 2.034 . S
O602 Zn581 2.024 . S
O602 C582 1.249 . S
C603 O599 1.251 . S
C603 O600 1.254 . S
H604 C577 0.949 . S
H605 C579 0.950 . S
H606 C586 0.949 . S
H607 C588 0.950 . S
C608 O624 1.251 . S
C608 O626 1.254 . S
N609 C610 1.333 . S
N609 C614 1.307 . S
N609 Zn615 2.020 1_556 S
C610 N609 1.333 . S
C610 C611 1.379 . S
C610 H628 0.952 . S
C611 C610 1.379 . S
C611 C612 1.390 . S
C611 H638 0.949 . S
C612 C611 1.390 . S
C612 C613 1.357 . S
C613 C612 1.357 . S
C613 C614 1.370 . S
C613 H639 0.950 . S
C614 N609 1.307 . S
C614 C613 1.370 . S
C614 H632 0.948 . S
Zn615 N609 2.020 1_554 S
Zn615 O624 2.039 . S
Zn615 O630 2.034 . S
Zn615 O634 2.025 1_554 S
Zn615 O636 2.024 1_554 S
C616 O635 1.246 . S
C616 O636 1.249 1_554 S
N617 C618 1.307 . S
N617 C619 1.333 . S
N617 Zn623 2.020 . S
C618 N617 1.307 . S
C618 C622 1.370 . S
C618 H629 0.948 . S
C619 N617 1.333 . S
C619 C620 1.379 . S
C619 H627 0.952 . S
C620 C619 1.379 . S
C620 C621 1.390 . S
C620 H640 0.949 . S
C621 C620 1.390 . S
C621 C622 1.357 . S
C622 C618 1.370 . S
C622 C621 1.357 . S
C622 H641 0.950 . S
Zn623 N617 2.020 . S
Zn623 O626 2.025 . S
Zn623 O631 2.024 . S
Zn623 O633 2.039 . S
Zn623 O635 2.034 . S
O624 C608 1.251 . S
O624 Zn615 2.039 . S
C625 O630 1.246 . S
C625 O631 1.249 . S
O626 C608 1.254 . S
O626 Zn623 2.025 . S
H627 C619 0.952 . S
H628 C610 0.952 . S
H629 C618 0.948 . S
O630 Zn615 2.034 . S
O630 C625 1.246 . S
O631 Zn623 2.024 . S
O631 C625 1.249 . S
H632 C614 0.948 . S
O633 Zn623 2.039 . S
O633 C637 1.251 . S
O634 Zn615 2.025 1_556 S
O634 C637 1.254 1_556 S
O635 C616 1.246 . S
O635 Zn623 2.034 . S
O636 Zn615 2.024 1_556 S
O636 C616 1.249 1_556 S
C637 O633 1.251 . S
C637 O634 1.254 1_554 S
H638 C611 0.949 . S
H639 C613 0.950 . S
H640 C620 0.949 . S
H641 C622 0.950 . S
C642 O658 1.251 . S
C642 O660 1.254 . S
N643 C644 1.333 . S
N643 C648 1.307 . S
N643 Zn649 2.020 . S
C644 N643 1.333 . S
C644 C645 1.379 . S
C644 H662 0.952 . S
C645 C644 1.379 . S
C645 C646 1.390 . S
C645 H672 0.949 . S
C646 C645 1.390 . S
C646 C647 1.357 . S
C647 C646 1.357 . S
C647 C648 1.370 . S
C647 H673 0.950 . S
C648 N643 1.307 . S
C648 C647 1.370 . S
C648 H666 0.948 . S
Zn649 N643 2.020 . S
Zn649 O658 2.039 . S
Zn649 O664 2.034 . S
Zn649 O668 2.025 . S
Zn649 O670 2.024 . S
C650 O669 1.246 . S
C650 O670 1.249 . S
N651 C652 1.307 . S
N651 C653 1.333 . S
N651 Zn657 2.020 . S
C652 N651 1.307 . S
C652 C656 1.370 . S
C652 H663 0.948 . S
C653 N651 1.333 . S
C653 C654 1.379 . S
C653 H661 0.952 . S
C654 C653 1.379 . S
C654 C655 1.390 . S
C654 H674 0.949 . S
C655 C654 1.390 . S
C655 C656 1.357 . S
C656 C652 1.370 . S
C656 C655 1.357 . S
C656 H675 0.950 . S
Zn657 N651 2.020 . S
Zn657 O660 2.025 . S
Zn657 O665 2.024 . S
Zn657 O667 2.039 . S
Zn657 O669 2.034 . S
O658 C642 1.251 . S
O658 Zn649 2.039 . S
C659 O664 1.246 . S
C659 O665 1.249 . S
O660 C642 1.254 . S
O660 Zn657 2.025 . S
H661 C653 0.952 . S
H662 C644 0.952 . S
H663 C652 0.948 . S
O664 Zn649 2.034 . S
O664 C659 1.246 . S
O665 Zn657 2.024 . S
O665 C659 1.249 . S
H666 C648 0.948 . S
O667 Zn657 2.039 . S
O667 C671 1.251 . S
O668 Zn649 2.025 . S
O668 C671 1.254 . S
O669 C650 1.246 . S
O669 Zn657 2.034 . S
O670 Zn649 2.024 . S
O670 C650 1.249 . S
C671 O667 1.251 . S
C671 O668 1.254 . S
H672 C645 0.949 . S
H673 C647 0.950 . S
H674 C654 0.949 . S
H675 C656 0.950 . S
C676 O692 1.251 . S
C676 O694 1.254 . S
N677 C678 1.333 . S
N677 C682 1.307 . S
N677 Zn683 2.020 . S
C678 N677 1.333 . S
C678 C679 1.379 . S
C678 H696 0.952 . S
C679 C678 1.379 . S
C679 C680 1.390 . S
C679 H706 0.949 . S
C680 C679 1.390 . S
C680 C681 1.357 . S
C681 C680 1.357 . S
C681 C682 1.370 . S
C681 H707 0.950 . S
C682 N677 1.307 . S
C682 C681 1.370 . S
C682 H700 0.948 . S
Zn683 N677 2.020 . S
Zn683 O692 2.039 . S
Zn683 O698 2.034 1_455 S
Zn683 O702 2.025 . S
Zn683 O704 2.024 . S
C684 O703 1.246 . S
C684 O704 1.249 . S
N685 C686 1.307 1_455 S
N685 C687 1.333 . S
N685 Zn691 2.020 . S
C686 N685 1.307 1_655 S
C686 C690 1.370 . S
C686 H697 0.948 . S
C687 N685 1.333 . S
C687 C688 1.379 . S
C687 H695 0.952 . S
C688 C687 1.379 . S
C688 C689 1.390 1_455 S
C688 H708 0.949 . S
C689 C688 1.390 1_655 S
C689 C690 1.357 . S
C690 C686 1.370 . S
C690 C689 1.357 . S
C690 H709 0.950 . S
Zn691 N685 2.020 . S
Zn691 O694 2.025 . S
Zn691 O699 2.024 1_455 S
Zn691 O701 2.039 . S
Zn691 O703 2.034 . S
O692 C676 1.251 . S
O692 Zn683 2.039 . S
C693 O698 1.246 . S
C693 O699 1.249 . S
O694 C676 1.254 . S
O694 Zn691 2.025 . S
H695 C687 0.952 . S
H696 C678 0.952 . S
H697 C686 0.948 . S
O698 Zn683 2.034 1_655 S
O698 C693 1.246 . S
O699 Zn691 2.024 1_655 S
O699 C693 1.249 . S
H700 C682 0.948 . S
O701 Zn691 2.039 . S
O701 C705 1.251 . S
O702 Zn683 2.025 . S
O702 C705 1.254 . S
O703 C684 1.246 . S
O703 Zn691 2.034 . S
O704 Zn683 2.024 . S
O704 C684 1.249 . S
C705 O701 1.251 . S
C705 O702 1.254 . S
H706 C679 0.949 . S
H707 C681 0.950 . S
H708 C688 0.949 . S
H709 C690 0.950 . S
C710 O726 1.251 . S
C710 O728 1.254 . S
N711 C712 1.333 . S
N711 C716 1.307 . S
N711 Zn717 2.020 . S
C712 N711 1.333 . S
C712 C713 1.379 . S
C712 H730 0.952 . S
C713 C712 1.379 . S
C713 C714 1.390 . S
C713 H740 0.949 . S
C714 C713 1.390 . S
C714 C715 1.357 . S
C715 C714 1.357 . S
C715 C716 1.370 . S
C715 H741 0.950 . S
C716 N711 1.307 . S
C716 C715 1.370 . S
C716 H734 0.948 . S
Zn717 N711 2.020 . S
Zn717 O726 2.039 . S
Zn717 O732 2.034 . S
Zn717 O736 2.025 . S
Zn717 O738 2.024 . S
C718 O737 1.246 . S
C718 O738 1.249 . S
N719 C720 1.307 . S
N719 C721 1.333 . S
N719 Zn725 2.020 . S
C720 N719 1.307 . S
C720 C724 1.370 . S
C720 H731 0.948 . S
C721 N719 1.333 . S
C721 C722 1.379 . S
C721 H729 0.952 . S
C722 C721 1.379 . S
C722 C723 1.390 . S
C722 H742 0.949 . S
C723 C722 1.390 . S
C723 C724 1.357 . S
C724 C720 1.370 . S
C724 C723 1.357 . S
C724 H743 0.950 . S
Zn725 N719 2.020 . S
Zn725 O728 2.025 . S
Zn725 O733 2.024 . S
Zn725 O735 2.039 . S
Zn725 O737 2.034 . S
O726 C710 1.251 . S
O726 Zn717 2.039 . S
C727 O732 1.246 . S
C727 O733 1.249 . S
O728 C710 1.254 . S
O728 Zn725 2.025 . S
H729 C721 0.952 . S
H730 C712 0.952 . S
H731 C720 0.948 . S
O732 Zn717 2.034 . S
O732 C727 1.246 . S
O733 Zn725 2.024 . S
O733 C727 1.249 . S
H734 C716 0.948 . S
O735 Zn725 2.039 . S
O735 C739 1.251 . S
O736 Zn717 2.025 . S
O736 C739 1.254 . S
O737 C718 1.246 . S
O737 Zn725 2.034 . S
O738 Zn717 2.024 . S
O738 C718 1.249 . S
C739 O735 1.251 . S
C739 O736 1.254 . S
H740 C713 0.949 . S
H741 C715 0.950 . S
H742 C722 0.949 . S
H743 C724 0.950 . S
C744 O760 1.251 . S
C744 O762 1.254 . S
N745 C746 1.333 . S
N745 C750 1.307 . S
N745 Zn751 2.020 . S
C746 N745 1.333 . S
C746 C747 1.379 . S
C746 H764 0.952 . S
C747 C746 1.379 . S
C747 C748 1.390 . S
C747 H774 0.949 . S
C748 C747 1.390 . S
C748 C749 1.357 . S
C749 C748 1.357 . S
C749 C750 1.370 . S
C749 H775 0.950 . S
C750 N745 1.307 . S
C750 C749 1.370 . S
C750 H768 0.948 . S
Zn751 N745 2.020 . S
Zn751 O760 2.039 . S
Zn751 O766 2.034 . S
Zn751 O770 2.025 . S
Zn751 O772 2.024 . S
C752 O771 1.246 . S
C752 O772 1.249 . S
N753 C754 1.307 . S
N753 C755 1.333 . S
N753 Zn759 2.020 . S
C754 N753 1.307 . S
C754 C758 1.370 . S
C754 H765 0.948 . S
C755 N753 1.333 . S
C755 C756 1.379 . S
C755 H763 0.952 . S
C756 C755 1.379 . S
C756 C757 1.390 . S
C756 H776 0.949 . S
C757 C756 1.390 . S
C757 C758 1.357 . S
C758 C754 1.370 . S
C758 C757 1.357 . S
C758 H777 0.950 . S
Zn759 N753 2.020 . S
Zn759 O762 2.025 . S
Zn759 O767 2.024 . S
Zn759 O769 2.039 . S
Zn759 O771 2.034 . S
O760 C744 1.251 . S
O760 Zn751 2.039 . S
C761 O766 1.246 . S
C761 O767 1.249 . S
O762 C744 1.254 . S
O762 Zn759 2.025 . S
H763 C755 0.952 . S
H764 C746 0.952 . S
H765 C754 0.948 . S
O766 Zn751 2.034 . S
O766 C761 1.246 . S
O767 Zn759 2.024 . S
O767 C761 1.249 . S
H768 C750 0.948 . S
O769 Zn759 2.039 . S
O769 C773 1.251 . S
O770 Zn751 2.025 . S
O770 C773 1.254 . S
O771 C752 1.246 . S
O771 Zn759 2.034 . S
O772 Zn751 2.024 . S
O772 C752 1.249 . S
C773 O769 1.251 . S
C773 O770 1.254 . S
H774 C747 0.949 . S
H775 C749 0.950 . S
H776 C756 0.949 . S
H777 C758 0.950 . S
C778 O794 1.251 . S
C778 O796 1.254 . S
N779 C780 1.333 . S
N779 C784 1.307 . S
N779 Zn785 2.020 . S
C780 N779 1.333 . S
C780 C781 1.379 . S
C780 H798 0.952 . S
C781 C780 1.379 . S
C781 C782 1.390 . S
C781 H808 0.949 . S
C782 C781 1.390 . S
C782 C783 1.357 . S
C783 C782 1.357 . S
C783 C784 1.370 . S
C783 H809 0.950 . S
C784 N779 1.307 . S
C784 C783 1.370 . S
C784 H802 0.948 . S
Zn785 N779 2.020 . S
Zn785 O794 2.039 . S
Zn785 O800 2.034 . S
Zn785 O804 2.025 . S
Zn785 O806 2.024 . S
C786 O805 1.246 . S
C786 O806 1.249 . S
N787 C788 1.307 . S
N787 C789 1.333 . S
N787 Zn793 2.020 . S
C788 N787 1.307 . S
C788 C792 1.370 . S
C788 H799 0.948 . S
C789 N787 1.333 . S
C789 C790 1.379 . S
C789 H797 0.952 . S
C790 C789 1.379 . S
C790 C791 1.390 . S
C790 H810 0.949 . S
C791 C790 1.390 . S
C791 C792 1.357 . S
C792 C788 1.370 . S
C792 C791 1.357 . S
C792 H811 0.950 . S
Zn793 N787 2.020 . S
Zn793 O796 2.025 . S
Zn793 O801 2.024 . S
Zn793 O803 2.039 . S
Zn793 O805 2.034 . S
O794 C778 1.251 . S
O794 Zn785 2.039 . S
C795 O800 1.246 . S
C795 O801 1.249 . S
O796 C778 1.254 . S
O796 Zn793 2.025 . S
H797 C789 0.952 . S
H798 C780 0.952 . S
H799 C788 0.948 . S
O800 Zn785 2.034 . S
O800 C795 1.246 . S
O801 Zn793 2.024 . S
O801 C795 1.249 . S
H802 C784 0.948 . S
O803 Zn793 2.039 . S
O803 C807 1.251 . S
O804 Zn785 2.025 . S
O804 C807 1.254 . S
O805 C786 1.246 . S
O805 Zn793 2.034 . S
O806 Zn785 2.024 . S
O806 C786 1.249 . S
C807 O803 1.251 . S
C807 O804 1.254 . S
H808 C781 0.949 . S
H809 C783 0.950 . S
H810 C790 0.949 . S
H811 C792 0.950 . S
C812 O828 1.251 . S
C812 O830 1.254 . S
N813 C814 1.333 . S
N813 C818 1.307 . S
N813 Zn819 2.020 . S
C814 N813 1.333 . S
C814 C815 1.379 . S
C814 H832 0.952 . S
C815 C814 1.379 . S
C815 C816 1.390 . S
C815 H842 0.949 . S
C816 C815 1.390 . S
C816 C817 1.357 . S
C817 C816 1.357 . S
C817 C818 1.370 . S
C817 H843 0.950 . S
C818 N813 1.307 . S
C818 C817 1.370 . S
C818 H836 0.948 . S
Zn819 N813 2.020 . S
Zn819 O828 2.039 . S
Zn819 O834 2.034 . S
Zn819 O838 2.025 . S
Zn819 O840 2.024 . S
C820 O839 1.246 . S
C820 O840 1.249 . S
N821 C822 1.307 . S
N821 C823 1.333 . S
N821 Zn827 2.020 . S
C822 N821 1.307 . S
C822 C826 1.370 . S
C822 H833 0.948 . S
C823 N821 1.333 . S
C823 C824 1.379 . S
C823 H831 0.952 . S
C824 C823 1.379 . S
C824 C825 1.390 . S
C824 H844 0.949 . S
C825 C824 1.390 . S
C825 C826 1.357 . S
C826 C822 1.370 . S
C826 C825 1.357 . S
C826 H845 0.950 . S
Zn827 N821 2.020 . S
Zn827 O830 2.025 . S
Zn827 O835 2.024 . S
Zn827 O837 2.039 . S
Zn827 O839 2.034 . S
O828 C812 1.251 . S
O828 Zn819 2.039 . S
C829 O834 1.246 . S
C829 O835 1.249 . S
O830 C812 1.254 . S
O830 Zn827 2.025 . S
H831 C823 0.952 . S
H832 C814 0.952 . S
H833 C822 0.948 . S
O834 Zn819 2.034 . S
O834 C829 1.246 . S
O835 Zn827 2.024 . S
O835 C829 1.249 . S
H836 C818 0.948 . S
O837 Zn827 2.039 . S
O837 C841 1.251 . S
O838 Zn819 2.025 . S
O838 C841 1.254 . S
O839 C820 1.246 . S
O839 Zn827 2.034 . S
O840 Zn819 2.024 . S
O840 C820 1.249 . S
C841 O837 1.251 . S
C841 O838 1.254 . S
H842 C815 0.949 . S
H843 C817 0.950 . S
H844 C824 0.949 . S
H845 C826 0.950 . S
C846 O862 1.251 . S
C846 O864 1.254 . S
N847 C848 1.333 . S
N847 C852 1.307 . S
N847 Zn853 2.020 . S
C848 N847 1.333 . S
C848 C849 1.379 . S
C848 H866 0.952 . S
C849 C848 1.379 . S
C849 C850 1.390 . S
C849 H876 0.949 . S
C850 C849 1.390 . S
C850 C851 1.357 . S
C851 C850 1.357 . S
C851 C852 1.370 . S
C851 H877 0.950 . S
C852 N847 1.307 . S
C852 C851 1.370 . S
C852 H870 0.948 . S
Zn853 N847 2.020 . S
Zn853 O862 2.039 . S
Zn853 O868 2.034 . S
Zn853 O872 2.025 1_554 S
Zn853 O874 1.982 1_455 S
C854 O873 1.246 . S
C854 O874 1.278 . S
N855 C856 1.307 . S
N855 C857 1.333 1_554 S
N855 Zn861 2.020 . S
C856 N855 1.307 . S
C856 C860 1.370 . S
C856 H867 0.948 . S
C857 N855 1.333 1_556 S
C857 C858 1.379 1_455 S
C857 H865 0.952 . S
C858 C857 1.379 1_655 S
C858 C859 1.390 . S
C858 H878 0.949 . S
C859 C858 1.390 . S
C859 C860 1.357 1_656 S
C860 C856 1.370 . S
C860 C859 1.357 1_454 S
C860 H879 0.950 . S
Zn861 N855 2.020 . S
Zn861 O864 2.025 . S
Zn861 O869 2.024 . S
Zn861 O871 2.039 1_554 S
Zn861 O873 2.034 1_455 S
O862 C846 1.251 . S
O862 Zn853 2.039 . S
C863 O868 1.246 . S
C863 O869 1.249 . S
O864 C846 1.254 . S
O864 Zn861 2.025 . S
H865 C857 0.952 . S
H866 C848 0.952 . S
H867 C856 0.948 . S
O868 Zn853 2.034 . S
O868 C863 1.246 . S
O869 Zn861 2.024 . S
O869 C863 1.249 . S
H870 C852 0.948 . S
O871 Zn861 2.039 1_556 S
O871 C875 1.251 . S
O872 Zn853 2.025 1_556 S
O872 C875 1.254 . S
O873 C854 1.246 . S
O873 Zn861 2.034 1_655 S
O874 Zn853 1.982 1_655 S
O874 C854 1.278 . S
C875 O871 1.251 . S
C875 O872 1.254 . S
H876 C849 0.949 . S
H877 C851 0.950 . S
H878 C858 0.949 . S
H879 C860 0.950 . S
H880 C886 0.930 . S
H881 C890 0.930 . S
H882 C895 0.929 . S
H883 C893 0.929 . S
H884 C888 0.929 . S
H885 C894 0.929 . S
C886 H880 0.930 . S
C886 C887 1.367 . S
C886 C894 1.378 . S
C887 C886 1.367 . S
C887 C895 1.433 . S
C888 H884 0.929 . S
C888 C890 1.378 . S
C888 C892 1.350 . S
C889 C892 1.463 . S
C889 C894 1.350 . S
C889 N897 1.427 . S
C890 H881 0.930 . S
C890 C888 1.378 . S
C890 C891 1.367 . S
C891 C890 1.367 . S
C891 C893 1.433 . S
C892 C888 1.350 . S
C892 C889 1.463 . S
C892 N896 1.427 . S
C893 H883 0.929 . S
C893 C891 1.433 . S
C893 N896 1.384 . S
C894 H885 0.929 . S
C894 C886 1.378 . S
C894 C889 1.350 . S
C895 H882 0.929 . S
C895 C887 1.433 . S
C895 N897 1.384 . S
N896 C892 1.427 . S
N896 C893 1.384 . S
N897 C889 1.427 . S
N897 C895 1.384 . S
H898 C904 0.930 . S
H899 C908 0.930 . S
H900 C913 0.929 . S
H901 C911 0.929 . S
H902 C906 0.929 . S
H903 C912 0.929 . S
C904 H898 0.930 . S
C904 C905 1.367 . S
C904 C912 1.378 . S
C905 C904 1.367 . S
C905 C913 1.433 . S
C906 H902 0.929 . S
C906 C908 1.378 . S
C906 C910 1.350 . S
C907 C910 1.463 . S
C907 C912 1.350 . S
C907 N915 1.427 . S
C908 H899 0.930 . S
C908 C906 1.378 . S
C908 C909 1.367 . S
C909 C908 1.367 . S
C909 C911 1.433 . S
C910 C906 1.350 . S
C910 C907 1.463 . S
C910 N914 1.427 . S
C911 H901 0.929 . S
C911 C909 1.433 . S
C911 N914 1.384 . S
C912 H903 0.929 . S
C912 C904 1.378 . S
C912 C907 1.350 . S
C913 H900 0.929 . S
C913 C905 1.433 . S
C913 N915 1.384 . S
N914 C910 1.427 . S
N914 C911 1.384 . S
N915 C907 1.427 . S
N915 C913 1.384 . S
H916 C922 0.930 . S
H917 C926 0.930 . S
H918 C931 0.929 . S
H919 C929 0.929 . S
H920 C924 0.929 . S
H921 C930 0.929 . S
C922 H916 0.930 . S
C922 C923 1.367 . S
C922 C930 1.378 . S
C923 C922 1.367 . S
C923 C931 1.433 . S
C924 H920 0.929 . S
C924 C926 1.378 . S
C924 C928 1.350 . S
C925 C928 1.463 . S
C925 C930 1.350 . S
C925 N933 1.427 . S
C926 H917 0.930 . S
C926 C924 1.378 . S
C926 C927 1.367 . S
C927 C926 1.367 . S
C927 C929 1.433 . S
C928 C924 1.350 . S
C928 C925 1.463 . S
C928 N932 1.427 . S
C929 H919 0.929 . S
C929 C927 1.433 . S
C929 N932 1.384 . S
C930 H921 0.929 . S
C930 C922 1.378 . S
C930 C925 1.350 . S
C931 H918 0.929 . S
C931 C923 1.433 . S
C931 N933 1.384 . S
N932 C928 1.427 . S
N932 C929 1.384 . S
N933 C925 1.427 . S
N933 C931 1.384 . S
H934 C940 0.930 . S
H935 C944 0.930 . S
H936 C949 0.929 . S
H937 C947 0.929 . S
H938 C942 0.929 . S
H939 C948 0.929 . S
C940 H934 0.930 . S
C940 C941 1.367 . S
C940 C948 1.378 . S
C941 C940 1.367 . S
C941 C949 1.433 . S
C942 H938 0.929 . S
C942 C944 1.378 . S
C942 C946 1.350 . S
C943 C946 1.463 . S
C943 C948 1.350 . S
C943 N951 1.427 . S
C944 H935 0.930 . S
C944 C942 1.378 . S
C944 C945 1.367 . S
C945 C944 1.367 . S
C945 C947 1.433 . S
C946 C942 1.350 . S
C946 C943 1.463 . S
C946 N950 1.427 . S
C947 H937 0.929 . S
C947 C945 1.433 . S
C947 N950 1.384 . S
C948 H939 0.929 . S
C948 C940 1.378 . S
C948 C943 1.350 . S
C949 H936 0.929 . S
C949 C941 1.433 . S
C949 N951 1.384 . S
N950 C946 1.427 . S
N950 C947 1.384 . S
N951 C943 1.427 . S
N951 C949 1.384 . S
H952 C958 0.930 . S
H953 C962 0.930 . S
H954 C967 0.929 . S
H955 C965 0.929 . S
H956 C960 0.929 . S
H957 C966 0.929 . S
C958 H952 0.930 . S
C958 C959 1.367 . S
C958 C966 1.378 . S
C959 C958 1.367 . S
C959 C967 1.433 . S
C960 H956 0.929 . S
C960 C962 1.378 . S
C960 C964 1.350 . S
C961 C964 1.463 . S
C961 C966 1.350 . S
C961 N969 1.427 . S
C962 H953 0.930 . S
C962 C960 1.378 . S
C962 C963 1.367 . S
C963 C962 1.367 . S
C963 C965 1.433 . S
C964 C960 1.350 . S
C964 C961 1.463 . S
C964 N968 1.427 . S
C965 H955 0.929 . S
C965 C963 1.433 . S
C965 N968 1.384 . S
C966 H957 0.929 . S
C966 C958 1.378 . S
C966 C961 1.350 . S
C967 H954 0.929 . S
C967 C959 1.433 . S
C967 N969 1.384 . S
N968 C964 1.427 . S
N968 C965 1.384 . S
N969 C961 1.427 . S
N969 C967 1.384 . S
H970 C976 0.930 . S
H971 C980 0.930 . S
H972 C985 0.929 . S
H973 C983 0.929 . S
H974 C978 0.929 . S
H975 C984 0.929 . S
C976 H970 0.930 . S
C976 C977 1.367 . S
C976 C984 1.378 . S
C977 C976 1.367 . S
C977 C985 1.433 . S
C978 H974 0.929 . S
C978 C980 1.378 . S
C978 C982 1.350 . S
C979 C982 1.463 . S
C979 C984 1.350 . S
C979 N987 1.427 . S
C980 H971 0.930 . S
C980 C978 1.378 . S
C980 C981 1.367 . S
C981 C980 1.367 . S
C981 C983 1.433 . S
C982 C978 1.350 . S
C982 C979 1.463 . S
C982 N986 1.427 . S
C983 H973 0.929 . S
C983 C981 1.433 . S
C983 N986 1.384 . S
C984 H975 0.929 . S
C984 C976 1.378 . S
C984 C979 1.350 . S
C985 H972 0.929 . S
C985 C977 1.433 . S
C985 N987 1.384 . S
N986 C982 1.427 . S
N986 C983 1.384 . S
N987 C979 1.427 . S
N987 C985 1.384 . S
H988 C994 0.930 . S
H989 C998 0.946 . S
H990 C1003 0.929 . S
H991 C1001 0.929 . S
H992 C996 0.929 . S
H993 C1002 0.929 . S
C994 H988 0.930 . S
C994 C995 1.367 . S
C994 C1002 1.378 . S
C995 C994 1.367 . S
C995 C1003 1.433 . S
C996 H992 0.929 . S
C996 C998 1.378 . S
C996 C1000 1.350 . S
C997 C1000 1.463 . S
C997 C1002 1.350 . S
C997 N1005 1.427 . S
C998 H989 0.946 . S
C998 C996 1.378 . S
C998 C999 1.372 . S
C999 C998 1.372 . S
C999 C1001 1.443 . S
C1000 C996 1.350 . S
C1000 C997 1.463 . S
C1000 N1004 1.427 . S
C1001 H991 0.929 . S
C1001 C999 1.443 . S
C1001 N1004 1.384 . S
C1002 H993 0.929 . S
C1002 C994 1.378 . S
C1002 C997 1.350 . S
C1003 H990 0.929 . S
C1003 C995 1.433 . S
C1003 N1005 1.384 . S
N1004 C1000 1.427 . S
N1004 C1001 1.384 . S
N1005 C997 1.427 . S
N1005 C1003 1.384 . S
H1006 C1012 0.930 . S
H1007 C1016 0.930 . S
H1008 C1021 0.929 . S
H1009 C1019 0.929 . S
H1010 C1014 0.929 . S
H1011 C1020 0.929 . S
C1012 H1006 0.930 . S
C1012 C1013 1.367 . S
C1012 C1020 1.378 . S
C1013 C1012 1.367 . S
C1013 C1021 1.433 . S
C1014 H1010 0.929 . S
C1014 C1016 1.378 . S
C1014 C1018 1.350 . S
C1015 C1018 1.463 . S
C1015 C1020 1.350 . S
C1015 N1023 1.427 . S
C1016 H1007 0.930 . S
C1016 C1014 1.378 . S
C1016 C1017 1.367 . S
C1017 C1016 1.367 . S
C1017 C1019 1.433 . S
C1018 C1014 1.350 . S
C1018 C1015 1.463 . S
C1018 N1022 1.427 . S
C1019 H1009 0.929 . S
C1019 C1017 1.433 . S
C1019 N1022 1.384 . S
C1020 H1011 0.929 . S
C1020 C1012 1.378 . S
C1020 C1015 1.350 . S
C1021 H1008 0.929 . S
C1021 C1013 1.433 . S
C1021 N1023 1.384 . S
N1022 C1018 1.427 . S
N1022 C1019 1.384 . S
N1023 C1015 1.427 . S
N1023 C1021 1.384 . S
H1024 C1030 0.930 . S
H1025 C1034 0.930 . S
H1026 C1039 0.953 . S
H1027 C1037 0.929 . S
H1028 C1032 0.929 . S
H1029 C1038 0.929 . S
C1030 H1024 0.930 . S
C1030 C1031 1.367 . S
C1030 C1038 1.378 . S
C1031 C1030 1.367 . S
C1031 C1039 1.405 1_545 S
C1032 H1028 0.929 . S
C1032 C1034 1.378 . S
C1032 C1036 1.350 1_565 S
C1033 C1036 1.463 . S
C1033 C1038 1.350 . S
C1033 N1041 1.427 1_545 S
C1034 H1025 0.930 . S
C1034 C1032 1.378 . S
C1034 C1035 1.364 . S
C1035 C1034 1.364 . S
C1035 C1037 1.437 1_565 S
C1036 C1032 1.350 1_545 S
C1036 C1033 1.463 . S
C1036 N1040 1.427 . S
C1037 H1027 0.929 . S
C1037 C1035 1.437 1_545 S
C1037 N1040 1.384 . S
C1038 H1029 0.929 . S
C1038 C1030 1.378 . S
C1038 C1033 1.350 . S
C1039 H1026 0.953 . S
C1039 C1031 1.405 1_565 S
C1039 N1041 1.388 . S
N1040 C1036 1.427 . S
N1040 C1037 1.384 . S
N1041 C1033 1.427 1_565 S
N1041 C1039 1.388 . S
H1042 C1048 0.930 . S
H1043 C1052 0.930 . S
H1044 C1057 0.929 . S
H1045 C1055 0.929 . S
H1046 C1050 0.929 . S
H1047 C1056 0.929 . S
C1048 H1042 0.930 . S
C1048 C1049 1.367 . S
C1048 C1056 1.378 . S
C1049 C1048 1.367 . S
C1049 C1057 1.433 . S
C1050 H1046 0.929 . S
C1050 C1052 1.378 . S
C1050 C1054 1.350 . S
C1051 C1054 1.463 . S
C1051 C1056 1.350 . S
C1051 N1059 1.427 . S
C1052 H1043 0.930 . S
C1052 C1050 1.378 . S
C1052 C1053 1.367 . S
C1053 C1052 1.367 . S
C1053 C1055 1.433 . S
C1054 C1050 1.350 . S
C1054 C1051 1.463 . S
C1054 N1058 1.427 . S
C1055 H1045 0.929 . S
C1055 C1053 1.433 . S
C1055 N1058 1.384 . S
C1056 H1047 0.929 . S
C1056 C1048 1.378 . S
C1056 C1051 1.350 . S
C1057 H1044 0.929 . S
C1057 C1049 1.433 . S
C1057 N1059 1.384 . S
N1058 C1054 1.427 . S
N1058 C1055 1.384 . S
N1059 C1051 1.427 . S
N1059 C1057 1.384 . S
H1060 C1066 0.930 . S
H1061 C1070 0.897 1_565 S
H1062 C1075 0.929 . S
H1063 C1073 0.929 . S
H1064 C1068 0.929 . S
H1065 C1074 0.929 . S
C1066 H1060 0.930 . S
C1066 C1067 1.367 . S
C1066 C1074 1.378 . S
C1067 C1066 1.367 . S
C1067 C1075 1.433 1_545 S
C1068 H1064 0.929 . S
C1068 C1070 1.372 1_565 S
C1068 C1072 1.350 1_565 S
C1069 C1072 1.463 . S
C1069 C1074 1.350 . S
C1069 N1077 1.427 1_545 S
C1070 H1061 0.897 1_545 S
C1070 C1068 1.372 1_545 S
C1070 C1071 1.407 . S
C1071 C1070 1.407 . S
C1071 C1073 1.433 . S
C1072 C1068 1.350 1_545 S
C1072 C1069 1.463 . S
C1072 N1076 1.427 . S
C1073 H1063 0.929 . S
C1073 C1071 1.433 . S
C1073 N1076 1.384 . S
C1074 H1065 0.929 . S
C1074 C1066 1.378 . S
C1074 C1069 1.350 . S
C1075 H1062 0.929 . S
C1075 C1067 1.433 1_565 S
C1075 N1077 1.384 . S
N1076 C1072 1.427 . S
N1076 C1073 1.384 . S
N1077 C1069 1.427 1_565 S
N1077 C1075 1.384 . S
H1078 C1084 0.930 . S
H1079 C1088 0.930 . S
H1080 C1093 0.929 . S
H1081 C1091 0.929 . S
H1082 C1086 0.929 . S
H1083 C1092 0.929 . S
C1084 H1078 0.930 . S
C1084 C1085 1.367 . S
C1084 C1092 1.378 . S
C1085 C1084 1.367 . S
C1085 C1093 1.433 . S
C1086 H1082 0.929 . S
C1086 C1088 1.378 . S
C1086 C1090 1.350 . S
C1087 C1090 1.463 . S
C1087 C1092 1.350 . S
C1087 N1095 1.427 . S
C1088 H1079 0.930 . S
C1088 C1086 1.378 . S
C1088 C1089 1.367 . S
C1089 C1088 1.367 . S
C1089 C1091 1.433 . S
C1090 C1086 1.350 . S
C1090 C1087 1.463 . S
C1090 N1094 1.427 . S
C1091 H1081 0.929 . S
C1091 C1089 1.433 . S
C1091 N1094 1.384 . S
C1092 H1083 0.929 . S
C1092 C1084 1.378 . S
C1092 C1087 1.350 . S
C1093 H1080 0.929 . S
C1093 C1085 1.433 . S
C1093 N1095 1.384 . S
N1094 C1090 1.427 . S
N1094 C1091 1.384 . S
N1095 C1087 1.427 . S
N1095 C1093 1.384 . S
H1096 C1102 0.930 . S
H1097 C1106 0.930 . S
H1098 C1111 0.929 1_565 S
H1099 C1109 0.929 . S
H1100 C1104 0.929 . S
H1101 C1110 0.929 . S
C1102 H1096 0.930 . S
C1102 C1103 1.367 . S
C1102 C1110 1.378 . S
C1103 C1102 1.367 . S
C1103 C1111 1.433 . S
C1104 H1100 0.929 . S
C1104 C1106 1.378 . S
C1104 C1108 1.350 . S
C1105 C1108 1.463 . S
C1105 C1110 1.350 . S
C1105 N1113 1.427 . S
C1106 H1097 0.930 . S
C1106 C1104 1.378 . S
C1106 C1107 1.367 . S
C1107 C1106 1.367 . S
C1107 C1109 1.433 . S
C1108 C1104 1.350 . S
C1108 C1105 1.463 . S
C1108 N1112 1.427 . S
C1109 H1099 0.929 . S
C1109 C1107 1.433 . S
C1109 N1112 1.384 . S
C1110 H1101 0.929 . S
C1110 C1102 1.378 . S
C1110 C1105 1.350 . S
C1111 H1098 0.929 1_545 S
C1111 C1103 1.433 . S
C1111 N1113 1.384 . S
N1112 C1108 1.427 . S
N1112 C1109 1.384 . S
N1113 C1105 1.427 . S
N1113 C1111 1.384 . S
H1114 C1120 0.930 . S
H1115 C1124 0.930 . S
H1116 C1129 0.929 . S
H1117 C1127 0.929 . S
H1118 C1122 0.929 . S
H1119 C1128 0.929 . S
C1120 H1114 0.930 . S
C1120 C1121 1.367 . S
C1120 C1128 1.378 . S
C1121 C1120 1.367 . S
C1121 C1129 1.433 . S
C1122 H1118 0.929 . S
C1122 C1124 1.378 . S
C1122 C1126 1.350 . S
C1123 C1126 1.463 . S
C1123 C1128 1.350 . S
C1123 N1131 1.427 . S
C1124 H1115 0.930 . S
C1124 C1122 1.378 . S
C1124 C1125 1.367 . S
C1125 C1124 1.367 . S
C1125 C1127 1.433 . S
C1126 C1122 1.350 . S
C1126 C1123 1.463 . S
C1126 N1130 1.427 . S
C1127 H1117 0.929 . S
C1127 C1125 1.433 . S
C1127 N1130 1.384 . S
C1128 H1119 0.929 . S
C1128 C1120 1.378 . S
C1128 C1123 1.350 . S
C1129 H1116 0.929 . S
C1129 C1121 1.433 . S
C1129 N1131 1.384 . S
N1130 C1126 1.427 . S
N1130 C1127 1.384 . S
N1131 C1123 1.427 . S
N1131 C1129 1.384 . S
H1132 C1138 0.930 . S
H1133 C1142 0.930 . S
H1134 C1147 0.929 . S
H1135 C1145 0.929 . S
H1136 C1140 0.929 . S
H1137 C1146 0.929 . S
C1138 H1132 0.930 . S
C1138 C1139 1.367 1_565 S
C1138 C1146 1.378 . S
C1139 C1138 1.367 1_545 S
C1139 C1147 1.433 . S
C1140 H1136 0.929 . S
C1140 C1142 1.378 . S
C1140 C1144 1.350 1_545 S
C1141 C1144 1.463 . S
C1141 C1146 1.350 . S
C1141 N1149 1.427 1_565 S
C1142 H1133 0.930 . S
C1142 C1140 1.378 . S
C1142 C1143 1.367 1_545 S
C1143 C1142 1.367 1_565 S
C1143 C1145 1.433 . S
C1144 C1140 1.350 1_565 S
C1144 C1141 1.463 . S
C1144 N1148 1.427 . S
C1145 H1135 0.929 . S
C1145 C1143 1.433 . S
C1145 N1148 1.384 . S
C1146 H1137 0.929 . S
C1146 C1138 1.378 . S
C1146 C1141 1.350 . S
C1147 H1134 0.929 . S
C1147 C1139 1.433 . S
C1147 N1149 1.384 . S
N1148 C1144 1.427 . S
N1148 C1145 1.384 . S
N1149 C1141 1.427 1_545 S
N1149 C1147 1.384 . S
H1150 C1156 0.930 . S
H1151 C1160 0.930 . S
H1152 C1165 0.929 . S
H1153 C1163 0.929 . S
H1154 C1158 0.929 . S
H1155 C1164 0.929 . S
C1156 H1150 0.930 . S
C1156 C1157 1.367 . S
C1156 C1164 1.378 . S
C1157 C1156 1.367 . S
C1157 C1165 1.433 . S
C1158 H1154 0.929 . S
C1158 C1160 1.378 . S
C1158 C1162 1.350 . S
C1159 C1162 1.463 . S
C1159 C1164 1.350 . S
C1159 N1167 1.427 . S
C1160 H1151 0.930 . S
C1160 C1158 1.378 . S
C1160 C1161 1.367 . S
C1161 C1160 1.367 . S
C1161 C1163 1.433 . S
C1162 C1158 1.350 . S
C1162 C1159 1.463 . S
C1162 N1166 1.427 . S
C1163 H1153 0.929 . S
C1163 C1161 1.433 . S
C1163 N1166 1.384 . S
C1164 H1155 0.929 . S
C1164 C1156 1.378 . S
C1164 C1159 1.350 . S
C1165 H1152 0.929 . S
C1165 C1157 1.433 . S
C1165 N1167 1.384 . S
N1166 C1162 1.427 . S
N1166 C1163 1.384 . S
N1167 C1159 1.427 . S
N1167 C1165 1.384 . S
H1168 C1174 0.930 1_556 S
H1169 C1178 0.930 . S
H1170 C1183 0.929 . S
H1171 C1181 0.929 . S
H1172 C1176 0.929 . S
H1173 C1182 0.929 1_556 S
C1174 H1168 0.930 1_554 S
C1174 C1175 1.367 . S
C1174 C1182 1.378 . S
C1175 C1174 1.367 . S
C1175 C1183 1.433 . S
C1176 H1172 0.929 . S
C1176 C1178 1.378 . S
C1176 C1180 1.350 . S
C1177 C1180 1.463 . S
C1177 C1182 1.350 . S
C1177 N1185 1.427 . S
C1178 H1169 0.930 . S
C1178 C1176 1.378 . S
C1178 C1179 1.348 1_554 S
C1179 C1178 1.348 1_556 S
C1179 C1181 1.448 . S
C1180 C1176 1.350 . S
C1180 C1177 1.463 . S
C1180 N1184 1.427 1_554 S
C1181 H1171 0.929 . S
C1181 C1179 1.448 . S
C1181 N1184 1.384 . S
C1182 H1173 0.929 1_554 S
C1182 C1174 1.378 . S
C1182 C1177 1.350 . S
C1183 H1170 0.929 . S
C1183 C1175 1.433 . S
C1183 N1185 1.384 . S
N1184 C1180 1.427 1_556 S
N1184 C1181 1.384 . S
N1185 C1177 1.427 . S
N1185 C1183 1.384 . S
H1186 C1192 0.930 . S
H1187 C1196 0.930 . S
H1188 C1201 0.929 . S
H1189 C1199 0.929 . S
H1190 C1194 0.929 . S
H1191 C1200 0.929 . S
C1192 H1186 0.930 . S
C1192 C1193 1.367 . S
C1192 C1200 1.378 . S
C1193 C1192 1.367 . S
C1193 C1201 1.433 . S
C1194 H1190 0.929 . S
C1194 C1196 1.378 . S
C1194 C1198 1.350 . S
C1195 C1198 1.463 . S
C1195 C1200 1.350 . S
C1195 N1203 1.427 . S
C1196 H1187 0.930 . S
C1196 C1194 1.378 . S
C1196 C1197 1.367 . S
C1197 C1196 1.367 . S
C1197 C1199 1.433 . S
C1198 C1194 1.350 . S
C1198 C1195 1.463 . S
C1198 N1202 1.427 . S
C1199 H1189 0.929 . S
C1199 C1197 1.433 . S
C1199 N1202 1.384 . S
C1200 H1191 0.929 . S
C1200 C1192 1.378 . S
C1200 C1195 1.350 . S
C1201 H1188 0.929 . S
C1201 C1193 1.433 . S
C1201 N1203 1.384 . S
N1202 C1198 1.427 . S
N1202 C1199 1.384 . S
N1203 C1195 1.427 . S
N1203 C1201 1.384 . S
H1204 C1210 0.930 . S
H1205 C1214 0.930 . S
H1206 C1219 0.929 . S
H1207 C1217 0.929 . S
H1208 C1212 0.929 . S
H1209 C1218 0.929 . S
C1210 H1204 0.930 . S
C1210 C1211 1.367 . S
C1210 C1218 1.378 . S
C1211 C1210 1.367 . S
C1211 C1219 1.433 . S
C1212 H1208 0.929 . S
C1212 C1214 1.378 . S
C1212 C1216 1.350 . S
C1213 C1216 1.463 . S
C1213 C1218 1.350 . S
C1213 N1221 1.427 . S
C1214 H1205 0.930 . S
C1214 C1212 1.378 . S
C1214 C1215 1.367 . S
C1215 C1214 1.367 . S
C1215 C1217 1.433 . S
C1216 C1212 1.350 . S
C1216 C1213 1.463 . S
C1216 N1220 1.427 . S
C1217 H1207 0.929 . S
C1217 C1215 1.433 . S
C1217 N1220 1.384 . S
C1218 H1209 0.929 . S
C1218 C1210 1.378 . S
C1218 C1213 1.350 . S
C1219 H1206 0.929 . S
C1219 C1211 1.433 . S
C1219 N1221 1.384 . S
N1220 C1216 1.427 . S
N1220 C1217 1.384 . S
N1221 C1213 1.427 . S
N1221 C1219 1.384 . S
H1222 C1228 0.930 . S
H1223 C1232 0.930 . S
H1224 C1237 0.929 . S
H1225 C1235 0.929 . S
H1226 C1230 0.929 . S
H1227 C1236 0.929 . S
C1228 H1222 0.930 . S
C1228 C1229 1.367 . S
C1228 C1236 1.378 . S
C1229 C1228 1.367 . S
C1229 C1237 1.433 . S
C1230 H1226 0.929 . S
C1230 C1232 1.378 . S
C1230 C1234 1.350 . S
C1231 C1234 1.463 . S
C1231 C1236 1.350 . S
C1231 N1239 1.427 . S
C1232 H1223 0.930 . S
C1232 C1230 1.378 . S
C1232 C1233 1.367 . S
C1233 C1232 1.367 . S
C1233 C1235 1.433 . S
C1234 C1230 1.350 . S
C1234 C1231 1.463 . S
C1234 N1238 1.427 . S
C1235 H1225 0.929 . S
C1235 C1233 1.433 . S
C1235 N1238 1.384 . S
C1236 H1227 0.929 . S
C1236 C1228 1.378 . S
C1236 C1231 1.350 . S
C1237 H1224 0.929 . S
C1237 C1229 1.433 . S
C1237 N1239 1.384 . S
N1238 C1234 1.427 . S
N1238 C1235 1.384 . S
N1239 C1231 1.427 . S
N1239 C1237 1.384 . S
H1240 C1246 0.930 . S
H1241 C1250 0.930 . S
H1242 C1255 0.929 . S
H1243 C1253 0.929 . S
H1244 C1248 0.929 . S
H1245 C1254 0.929 . S
C1246 H1240 0.930 . S
C1246 C1247 1.367 . S
C1246 C1254 1.378 . S
C1247 C1246 1.367 . S
C1247 C1255 1.433 . S
C1248 H1244 0.929 . S
C1248 C1250 1.378 . S
C1248 C1252 1.350 . S
C1249 C1252 1.463 . S
C1249 C1254 1.350 . S
C1249 N1257 1.427 . S
C1250 H1241 0.930 . S
C1250 C1248 1.378 . S
C1250 C1251 1.367 . S
C1251 C1250 1.367 . S
C1251 C1253 1.433 . S
C1252 C1248 1.350 . S
C1252 C1249 1.463 . S
C1252 N1256 1.427 . S
C1253 H1243 0.929 . S
C1253 C1251 1.433 . S
C1253 N1256 1.384 . S
C1254 H1245 0.929 . S
C1254 C1246 1.378 . S
C1254 C1249 1.350 . S
C1255 H1242 0.929 . S
C1255 C1247 1.433 . S
C1255 N1257 1.384 . S
N1256 C1252 1.427 . S
N1256 C1253 1.384 . S
N1257 C1249 1.427 . S
N1257 C1255 1.384 . S
H1258 C1264 0.930 . S
H1259 C1268 0.930 . S
H1260 C1273 0.929 . S
H1261 C1271 0.929 . S
H1262 C1266 0.929 1_545 S
H1263 C1272 0.929 . S
C1264 H1258 0.930 . S
C1264 C1265 1.367 . S
C1264 C1272 1.378 . S
C1265 C1264 1.367 . S
C1265 C1273 1.433 . S
C1266 H1262 0.929 1_565 S
C1266 C1268 1.378 1_565 S
C1266 C1270 1.350 . S
C1267 C1270 1.463 . S
C1267 C1272 1.350 . S
C1267 N1275 1.427 . S
C1268 H1259 0.930 . S
C1268 C1266 1.378 1_545 S
C1268 C1269 1.367 1_545 S
C1269 C1268 1.367 1_565 S
C1269 C1271 1.433 . S
C1270 C1266 1.350 . S
C1270 C1267 1.463 . S
C1270 N1274 1.427 . S
C1271 H1261 0.929 . S
C1271 C1269 1.433 . S
C1271 N1274 1.384 . S
C1272 H1263 0.929 . S
C1272 C1264 1.378 . S
C1272 C1267 1.350 . S
C1273 H1260 0.929 . S
C1273 C1265 1.433 . S
C1273 N1275 1.384 . S
N1274 C1270 1.427 . S
N1274 C1271 1.384 . S
N1275 C1267 1.427 . S
N1275 C1273 1.384 . S
H1276 C1282 0.930 . S
H1277 C1286 0.930 . S
H1278 C1291 0.929 . S
H1279 C1289 0.929 . S
H1280 C1284 0.929 . S
H1281 C1290 0.929 . S
C1282 H1276 0.930 . S
C1282 C1283 1.367 . S
C1282 C1290 1.378 . S
C1283 C1282 1.367 . S
C1283 C1291 1.433 . S
C1284 H1280 0.929 . S
C1284 C1286 1.378 . S
C1284 C1288 1.350 . S
C1285 C1288 1.463 . S
C1285 C1290 1.350 . S
C1285 N1293 1.427 . S
C1286 H1277 0.930 . S
C1286 C1284 1.378 . S
C1286 C1287 1.367 . S
C1287 C1286 1.367 . S
C1287 C1289 1.433 . S
C1288 C1284 1.350 . S
C1288 C1285 1.463 . S
C1288 N1292 1.427 . S
C1289 H1279 0.929 . S
C1289 C1287 1.433 . S
C1289 N1292 1.384 . S
C1290 H1281 0.929 . S
C1290 C1282 1.378 . S
C1290 C1285 1.350 . S
C1291 H1278 0.929 . S
C1291 C1283 1.433 . S
C1291 N1293 1.384 . S
N1292 C1288 1.427 . S
N1292 C1289 1.384 . S
N1293 C1285 1.427 . S
N1293 C1291 1.384 . S
H1294 C1300 0.930 . S
H1295 C1304 0.930 . S
H1296 C1309 0.929 . S
H1297 C1307 0.929 . S
H1298 C1302 0.929 . S
H1299 C1308 0.929 . S
C1300 H1294 0.930 . S
C1300 C1301 1.367 . S
C1300 C1308 1.378 . S
C1301 C1300 1.367 . S
C1301 C1309 1.433 . S
C1302 H1298 0.929 . S
C1302 C1304 1.378 . S
C1302 C1306 1.350 . S
C1303 C1306 1.463 . S
C1303 C1308 1.350 . S
C1303 N1311 1.427 . S
C1304 H1295 0.930 . S
C1304 C1302 1.378 . S
C1304 C1305 1.367 . S
C1305 C1304 1.367 . S
C1305 C1307 1.433 . S
C1306 C1302 1.350 . S
C1306 C1303 1.463 . S
C1306 N1310 1.427 . S
C1307 H1297 0.929 . S
C1307 C1305 1.433 . S
C1307 N1310 1.384 . S
C1308 H1299 0.929 . S
C1308 C1300 1.378 . S
C1308 C1303 1.350 . S
C1309 H1296 0.929 . S
C1309 C1301 1.433 . S
C1309 N1311 1.384 . S
N1310 C1306 1.427 . S
N1310 C1307 1.384 . S
N1311 C1303 1.427 . S
N1311 C1309 1.384 . S
H1312 C1318 0.930 . S
H1313 C1322 0.930 . S
H1314 C1327 0.929 . S
H1315 C1325 0.929 . S
H1316 C1320 0.929 . S
H1317 C1326 0.929 . S
C1318 H1312 0.930 . S
C1318 C1319 1.384 . S
C1318 C1326 1.378 . S
C1319 C1318 1.384 . S
C1319 C1327 1.424 1_455 S
C1320 H1316 0.929 . S
C1320 C1322 1.378 . S
C1320 C1324 1.350 . S
C1321 C1324 1.463 . S
C1321 C1326 1.350 . S
C1321 N1329 1.432 . S
C1322 H1313 0.930 . S
C1322 C1320 1.378 . S
C1322 C1323 1.367 . S
C1323 C1322 1.367 . S
C1323 C1325 1.433 1_556 S
C1324 C1320 1.350 . S
C1324 C1321 1.463 . S
C1324 N1328 1.427 . S
C1325 H1315 0.929 . S
C1325 C1323 1.433 1_554 S
C1325 N1328 1.384 1_554 S
C1326 H1317 0.929 . S
C1326 C1318 1.378 . S
C1326 C1321 1.350 . S
C1327 H1314 0.929 . S
C1327 C1319 1.424 1_655 S
C1327 N1329 1.381 1_655 S
N1328 C1324 1.427 . S
N1328 C1325 1.384 1_556 S
N1329 C1321 1.432 . S
N1329 C1327 1.381 1_455 S
H1330 C1336 0.930 . S
H1331 C1340 0.930 . S
H1332 C1345 0.929 . S
H1333 C1343 0.929 . S
H1334 C1338 0.929 . S
H1335 C1344 0.929 . S
C1336 H1330 0.930 . S
C1336 C1337 1.367 . S
C1336 C1344 1.378 . S
C1337 C1336 1.367 . S
C1337 C1345 1.433 . S
C1338 H1334 0.929 . S
C1338 C1340 1.378 . S
C1338 C1342 1.350 . S
C1339 C1342 1.463 . S
C1339 C1344 1.350 . S
C1339 N1347 1.427 . S
C1340 H1331 0.930 . S
C1340 C1338 1.378 . S
C1340 C1341 1.367 . S
C1341 C1340 1.367 . S
C1341 C1343 1.433 . S
C1342 C1338 1.350 . S
C1342 C1339 1.463 . S
C1342 N1346 1.427 . S
C1343 H1333 0.929 . S
C1343 C1341 1.433 . S
C1343 N1346 1.384 . S
C1344 H1335 0.929 . S
C1344 C1336 1.378 . S
C1344 C1339 1.350 . S
C1345 H1332 0.929 . S
C1345 C1337 1.433 . S
C1345 N1347 1.384 . S
N1346 C1342 1.427 . S
N1346 C1343 1.384 . S
N1347 C1339 1.427 . S
N1347 C1345 1.384 . S
H1348 C1354 0.930 . S
H1349 C1358 0.930 . S
H1350 C1363 0.929 . S
H1351 C1361 0.929 . S
H1352 C1356 0.929 . S
H1353 C1362 0.929 . S
C1354 H1348 0.930 . S
C1354 C1355 1.367 . S
C1354 C1362 1.378 . S
C1355 C1354 1.367 . S
C1355 C1363 1.433 . S
C1356 H1352 0.929 . S
C1356 C1358 1.378 . S
C1356 C1360 1.350 . S
C1357 C1360 1.463 . S
C1357 C1362 1.350 . S
C1357 N1365 1.427 . S
C1358 H1349 0.930 . S
C1358 C1356 1.378 . S
C1358 C1359 1.367 . S
C1359 C1358 1.367 . S
C1359 C1361 1.433 . S
C1360 C1356 1.350 . S
C1360 C1357 1.463 . S
C1360 N1364 1.427 . S
C1361 H1351 0.929 . S
C1361 C1359 1.433 . S
C1361 N1364 1.384 . S
C1362 H1353 0.929 . S
C1362 C1354 1.378 . S
C1362 C1357 1.350 . S
C1363 H1350 0.929 . S
C1363 C1355 1.433 . S
C1363 N1365 1.384 . S
N1364 C1360 1.427 . S
N1364 C1361 1.384 . S
N1365 C1357 1.427 . S
N1365 C1363 1.384 . S
H1366 C1372 0.930 . S
H1367 C1376 0.930 . S
H1368 C1381 0.929 . S
H1369 C1379 0.929 . S
H1370 C1374 0.929 . S
H1371 C1380 0.929 . S
C1372 H1366 0.930 . S
C1372 C1373 1.367 . S
C1372 C1380 1.378 . S
C1373 C1372 1.367 . S
C1373 C1381 1.433 . S
C1374 H1370 0.929 . S
C1374 C1376 1.378 . S
C1374 C1378 1.350 . S
C1375 C1378 1.463 . S
C1375 C1380 1.350 . S
C1375 N1383 1.427 . S
C1376 H1367 0.930 . S
C1376 C1374 1.378 . S
C1376 C1377 1.367 . S
C1377 C1376 1.367 . S
C1377 C1379 1.433 . S
C1378 C1374 1.350 . S
C1378 C1375 1.463 . S
C1378 N1382 1.427 . S
C1379 H1369 0.929 . S
C1379 C1377 1.433 . S
C1379 N1382 1.384 . S
C1380 H1371 0.929 . S
C1380 C1372 1.378 . S
C1380 C1375 1.350 . S
C1381 H1368 0.929 . S
C1381 C1373 1.433 . S
C1381 N1383 1.384 . S
N1382 C1378 1.427 . S
N1382 C1379 1.384 . S
N1383 C1375 1.427 . S
N1383 C1381 1.384 . S
H1384 C1390 0.930 . S
H1385 C1394 0.930 . S
H1386 C1399 0.929 . S
H1387 C1397 0.929 . S
H1388 C1392 0.929 . S
H1389 C1398 0.929 . S
C1390 H1384 0.930 . S
C1390 C1391 1.367 . S
C1390 C1398 1.378 . S
C1391 C1390 1.367 . S
C1391 C1399 1.433 . S
C1392 H1388 0.929 . S
C1392 C1394 1.378 . S
C1392 C1396 1.350 . S
C1393 C1396 1.463 . S
C1393 C1398 1.350 . S
C1393 N1401 1.427 . S
C1394 H1385 0.930 . S
C1394 C1392 1.378 . S
C1394 C1395 1.367 . S
C1395 C1394 1.367 . S
C1395 C1397 1.433 . S
C1396 C1392 1.350 . S
C1396 C1393 1.463 . S
C1396 N1400 1.427 . S
C1397 H1387 0.929 . S
C1397 C1395 1.433 . S
C1397 N1400 1.384 . S
C1398 H1389 0.929 . S
C1398 C1390 1.378 . S
C1398 C1393 1.350 . S
C1399 H1386 0.929 . S
C1399 C1391 1.433 . S
C1399 N1401 1.384 . S
N1400 C1396 1.427 . S
N1400 C1397 1.384 . S
N1401 C1393 1.427 . S
N1401 C1399 1.384 . S
H1402 C1408 0.930 . S
H1403 C1412 0.930 . S
H1404 C1417 0.929 . S
H1405 C1415 0.929 . S
H1406 C1410 0.929 . S
H1407 C1416 0.929 . S
C1408 H1402 0.930 . S
C1408 C1409 1.367 . S
C1408 C1416 1.378 . S
C1409 C1408 1.367 . S
C1409 C1417 1.433 . S
C1410 H1406 0.929 . S
C1410 C1412 1.378 . S
C1410 C1414 1.350 . S
C1411 C1414 1.463 . S
C1411 C1416 1.350 . S
C1411 N1419 1.427 . S
C1412 H1403 0.930 . S
C1412 C1410 1.378 . S
C1412 C1413 1.367 . S
C1413 C1412 1.367 . S
C1413 C1415 1.433 . S
C1414 C1410 1.350 . S
C1414 C1411 1.463 . S
C1414 N1418 1.427 . S
C1415 H1405 0.929 . S
C1415 C1413 1.433 . S
C1415 N1418 1.384 . S
C1416 H1407 0.929 . S
C1416 C1408 1.378 . S
C1416 C1411 1.350 . S
C1417 H1404 0.929 . S
C1417 C1409 1.433 . S
C1417 N1419 1.384 . S
N1418 C1414 1.427 . S
N1418 C1415 1.384 . S
N1419 C1411 1.427 . S
N1419 C1417 1.384 . S
H1420 C1426 0.930 . S
H1421 C1430 0.930 . S
H1422 C1435 0.929 . S
H1423 C1433 0.929 . S
H1424 C1428 0.929 . S
H1425 C1434 0.929 . S
C1426 H1420 0.930 . S
C1426 C1427 1.367 . S
C1426 C1434 1.378 . S
C1427 C1426 1.367 . S
C1427 C1435 1.433 . S
C1428 H1424 0.929 . S
C1428 C1430 1.378 . S
C1428 C1432 1.350 . S
C1429 C1432 1.463 . S
C1429 C1434 1.350 . S
C1429 N1437 1.427 . S
C1430 H1421 0.930 . S
C1430 C1428 1.378 . S
C1430 C1431 1.367 . S
C1431 C1430 1.367 . S
C1431 C1433 1.433 . S
C1432 C1428 1.350 . S
C1432 C1429 1.463 . S
C1432 N1436 1.427 . S
C1433 H1423 0.929 . S
C1433 C1431 1.433 . S
C1433 N1436 1.384 . S
C1434 H1425 0.929 . S
C1434 C1426 1.378 . S
C1434 C1429 1.350 . S
C1435 H1422 0.929 . S
C1435 C1427 1.433 . S
C1435 N1437 1.384 . S
N1436 C1432 1.427 . S
N1436 C1433 1.384 . S
N1437 C1429 1.427 . S
N1437 C1435 1.384 . S
H1438 C1444 0.930 . S
H1439 C1448 0.930 . S
H1440 C1453 0.929 . S
H1441 C1451 0.929 . S
H1442 C1446 0.929 . S
H1443 C1452 0.929 . S
C1444 H1438 0.930 . S
C1444 C1445 1.367 . S
C1444 C1452 1.378 . S
C1445 C1444 1.367 . S
C1445 C1453 1.433 . S
C1446 H1442 0.929 . S
C1446 C1448 1.378 . S
C1446 C1450 1.350 . S
C1447 C1450 1.463 . S
C1447 C1452 1.350 . S
C1447 N1455 1.427 . S
C1448 H1439 0.930 . S
C1448 C1446 1.378 . S
C1448 C1449 1.367 . S
C1449 C1448 1.367 . S
C1449 C1451 1.433 . S
C1450 C1446 1.350 . S
C1450 C1447 1.463 . S
C1450 N1454 1.427 . S
C1451 H1441 0.929 . S
C1451 C1449 1.433 . S
C1451 N1454 1.384 . S
C1452 H1443 0.929 . S
C1452 C1444 1.378 . S
C1452 C1447 1.350 . S
C1453 H1440 0.929 . S
C1453 C1445 1.433 . S
C1453 N1455 1.384 . S
N1454 C1450 1.427 . S
N1454 C1451 1.384 . S
N1455 C1447 1.427 . S
N1455 C1453 1.384 . S
H1456 C1462 0.930 . S
H1457 C1466 0.930 1_455 S
H1458 C1471 0.929 . S
H1459 C1469 0.929 1_565 S
H1460 C1464 0.929 . S
H1461 C1470 0.929 . S
C1462 H1456 0.930 . S
C1462 C1463 1.367 1_565 S
C1462 C1470 1.378 . S
C1463 C1462 1.367 1_545 S
C1463 C1471 1.433 . S
C1464 H1460 0.929 . S
C1464 C1466 1.378 . S
C1464 C1468 1.350 . S
C1465 C1468 1.463 . S
C1465 C1470 1.350 1_545 S
C1465 N1473 1.427 . S
C1466 H1457 0.930 1_655 S
C1466 C1464 1.378 . S
C1466 C1467 1.367 . S
C1467 C1466 1.367 . S
C1467 C1469 1.433 . S
C1468 C1464 1.350 . S
C1468 C1465 1.463 . S
C1468 N1472 1.427 . S
C1469 H1459 0.929 1_545 S
C1469 C1467 1.433 . S
C1469 N1472 1.384 . S
C1470 H1461 0.929 . S
C1470 C1462 1.378 . S
C1470 C1465 1.350 1_565 S
C1471 H1458 0.929 . S
C1471 C1463 1.433 . S
C1471 N1473 1.384 . S
N1472 C1468 1.427 . S
N1472 C1469 1.384 . S
N1473 C1465 1.427 . S
N1473 C1471 1.384 . S
H1474 C1480 0.930 . S
H1475 C1484 0.930 . S
H1476 C1489 0.929 . S
H1477 C1487 0.929 . S
H1478 C1482 0.929 . S
H1479 C1488 0.929 . S
C1480 H1474 0.930 . S
C1480 C1481 1.367 . S
C1480 C1488 1.378 . S
C1481 C1480 1.367 . S
C1481 C1489 1.433 . S
C1482 H1478 0.929 . S
C1482 C1484 1.378 . S
C1482 C1486 1.350 . S
C1483 C1486 1.463 . S
C1483 C1488 1.350 . S
C1483 N1491 1.427 . S
C1484 H1475 0.930 . S
C1484 C1482 1.378 . S
C1484 C1485 1.367 . S
C1485 C1484 1.367 . S
C1485 C1487 1.433 . S
C1486 C1482 1.350 . S
C1486 C1483 1.463 . S
C1486 N1490 1.427 . S
C1487 H1477 0.929 . S
C1487 C1485 1.433 . S
C1487 N1490 1.384 . S
C1488 H1479 0.929 . S
C1488 C1480 1.378 . S
C1488 C1483 1.350 . S
C1489 H1476 0.929 . S
C1489 C1481 1.433 . S
C1489 N1491 1.384 . S
N1490 C1486 1.427 . S
N1490 C1487 1.384 . S
N1491 C1483 1.427 . S
N1491 C1489 1.384 . S
H1492 C1498 0.930 . S
H1493 C1502 0.930 . S
H1494 C1507 0.929 . S
H1495 C1505 0.929 . S
H1496 C1500 0.929 . S
H1497 C1506 0.929 . S
C1498 H1492 0.930 . S
C1498 C1499 1.367 . S
C1498 C1506 1.378 . S
C1499 C1498 1.367 . S
C1499 C1507 1.433 1_545 S
C1500 H1496 0.929 . S
C1500 C1502 1.378 . S
C1500 C1504 1.350 1_565 S
C1501 C1504 1.463 . S
C1501 C1506 1.350 . S
C1501 N1509 1.427 1_545 S
C1502 H1493 0.930 . S
C1502 C1500 1.378 . S
C1502 C1503 1.348 1_565 S
C1503 C1502 1.348 1_545 S
C1503 C1505 1.456 . S
C1504 C1500 1.350 1_545 S
C1504 C1501 1.463 . S
C1504 N1508 1.427 . S
C1505 H1495 0.929 . S
C1505 C1503 1.456 . S
C1505 N1508 1.384 . S
C1506 H1497 0.929 . S
C1506 C1498 1.378 . S
C1506 C1501 1.350 . S
C1507 H1494 0.929 . S
C1507 C1499 1.433 1_565 S
C1507 N1509 1.384 . S
N1508 C1504 1.427 . S
N1508 C1505 1.384 . S
N1509 C1501 1.427 1_565 S
N1509 C1507 1.384 . S
H1510 C1516 0.930 . S
H1511 C1520 0.930 . S
H1512 C1525 0.929 . S
H1513 C1523 0.929 . S
H1514 C1518 0.929 . S
H1515 C1524 0.929 . S
C1516 H1510 0.930 . S
C1516 C1517 1.367 . S
C1516 C1524 1.378 . S
C1517 C1516 1.367 . S
C1517 C1525 1.433 . S
C1518 H1514 0.929 . S
C1518 C1520 1.378 . S
C1518 C1522 1.350 . S
C1519 C1522 1.463 . S
C1519 C1524 1.350 . S
C1519 N1527 1.427 . S
C1520 H1511 0.930 . S
C1520 C1518 1.378 . S
C1520 C1521 1.367 . S
C1521 C1520 1.367 . S
C1521 C1523 1.433 . S
C1522 C1518 1.350 . S
C1522 C1519 1.463 . S
C1522 N1526 1.427 . S
C1523 H1513 0.929 . S
C1523 C1521 1.433 . S
C1523 N1526 1.384 . S
C1524 H1515 0.929 . S
C1524 C1516 1.378 . S
C1524 C1519 1.350 . S
C1525 H1512 0.929 . S
C1525 C1517 1.433 . S
C1525 N1527 1.384 . S
N1526 C1522 1.427 . S
N1526 C1523 1.384 . S
N1527 C1519 1.427 . S
N1527 C1525 1.384 . S
H1528 C1534 0.930 . S
H1529 C1538 0.930 . S
H1530 C1543 0.929 . S
H1531 C1541 0.929 1_455 S
H1532 C1536 0.929 . S
H1533 C1542 0.929 . S
C1534 H1528 0.930 . S
C1534 C1535 1.367 . S
C1534 C1542 1.378 . S
C1535 C1534 1.367 . S
C1535 C1543 1.433 1_545 S
C1536 H1532 0.929 . S
C1536 C1538 1.378 . S
C1536 C1540 1.350 . S
C1537 C1540 1.463 . S
C1537 C1542 1.350 1_565 S
C1537 N1545 1.427 . S
C1538 H1529 0.930 . S
C1538 C1536 1.378 . S
C1538 C1539 1.367 . S
C1539 C1538 1.367 . S
C1539 C1541 1.433 1_565 S
C1540 C1536 1.350 . S
C1540 C1537 1.463 . S
C1540 N1544 1.427 1_565 S
C1541 H1531 0.929 1_655 S
C1541 C1539 1.433 1_545 S
C1541 N1544 1.384 . S
C1542 H1533 0.929 . S
C1542 C1534 1.378 . S
C1542 C1537 1.350 1_545 S
C1543 H1530 0.929 . S
C1543 C1535 1.433 1_565 S
C1543 N1545 1.384 . S
N1544 C1540 1.427 1_545 S
N1544 C1541 1.384 . S
N1545 C1537 1.427 . S
N1545 C1543 1.384 . S
H1546 C1552 0.930 . S
H1547 C1556 0.930 . S
H1548 C1561 0.929 . S
H1549 C1559 0.929 . S
H1550 C1554 0.929 . S
H1551 C1560 0.929 . S
C1552 H1546 0.930 . S
C1552 C1553 1.367 . S
C1552 C1560 1.378 . S
C1553 C1552 1.367 . S
C1553 C1561 1.433 . S
C1554 H1550 0.929 . S
C1554 C1556 1.378 . S
C1554 C1558 1.350 . S
C1555 C1558 1.463 . S
C1555 C1560 1.350 . S
C1555 N1563 1.427 . S
C1556 H1547 0.930 . S
C1556 C1554 1.378 . S
C1556 C1557 1.367 . S
C1557 C1556 1.367 . S
C1557 C1559 1.433 . S
C1558 C1554 1.350 . S
C1558 C1555 1.463 . S
C1558 N1562 1.427 . S
C1559 H1549 0.929 . S
C1559 C1557 1.433 . S
C1559 N1562 1.384 . S
C1560 H1551 0.929 . S
C1560 C1552 1.378 . S
C1560 C1555 1.350 . S
C1561 H1548 0.929 . S
C1561 C1553 1.433 . S
C1561 N1563 1.384 . S
N1562 C1558 1.427 . S
N1562 C1559 1.384 . S
N1563 C1555 1.427 . S
N1563 C1561 1.384 . S
H1564 C1570 0.930 . S
H1565 C1574 0.930 . S
H1566 C1579 0.929 1_565 S
H1567 C1577 0.929 . S
H1568 C1572 0.929 . S
H1569 C1578 0.929 . S
C1570 H1564 0.930 . S
C1570 C1571 1.367 . S
C1570 C1578 1.378 . S
C1571 C1570 1.367 . S
C1571 C1579 1.433 . S
C1572 H1568 0.929 . S
C1572 C1574 1.378 . S
C1572 C1576 1.350 . S
C1573 C1576 1.463 . S
C1573 C1578 1.350 . S
C1573 N1581 1.427 . S
C1574 H1565 0.930 . S
C1574 C1572 1.378 . S
C1574 C1575 1.367 . S
C1575 C1574 1.367 . S
C1575 C1577 1.433 . S
C1576 C1572 1.350 . S
C1576 C1573 1.463 . S
C1576 N1580 1.427 . S
C1577 H1567 0.929 . S
C1577 C1575 1.433 . S
C1577 N1580 1.384 . S
C1578 H1569 0.929 . S
C1578 C1570 1.378 . S
C1578 C1573 1.350 . S
C1579 H1566 0.929 1_545 S
C1579 C1571 1.433 . S
C1579 N1581 1.384 . S
N1580 C1576 1.427 . S
N1580 C1577 1.384 . S
N1581 C1573 1.427 . S
N1581 C1579 1.384 . S
H1582 C1588 0.930 . S
H1583 C1592 0.930 . S
H1584 C1597 0.929 . S
H1585 C1595 0.929 . S
H1586 C1590 0.929 . S
H1587 C1596 0.929 . S
C1588 H1582 0.930 . S
C1588 C1589 1.367 . S
C1588 C1596 1.378 . S
C1589 C1588 1.367 . S
C1589 C1597 1.433 . S
C1590 H1586 0.929 . S
C1590 C1592 1.378 . S
C1590 C1594 1.350 . S
C1591 C1594 1.463 . S
C1591 C1596 1.350 . S
C1591 N1599 1.427 . S
C1592 H1583 0.930 . S
C1592 C1590 1.378 . S
C1592 C1593 1.367 . S
C1593 C1592 1.367 . S
C1593 C1595 1.433 . S
C1594 C1590 1.350 . S
C1594 C1591 1.463 . S
C1594 N1598 1.427 . S
C1595 H1585 0.929 . S
C1595 C1593 1.433 . S
C1595 N1598 1.384 . S
C1596 H1587 0.929 . S
C1596 C1588 1.378 . S
C1596 C1591 1.350 . S
C1597 H1584 0.929 . S
C1597 C1589 1.433 . S
C1597 N1599 1.384 . S
N1598 C1594 1.427 . S
N1598 C1595 1.384 . S
N1599 C1591 1.427 . S
N1599 C1597 1.384 . S
H1600 C1606 0.930 1_556 S
H1601 C1610 0.930 . S
H1602 C1615 0.929 . S
H1603 C1613 0.929 . S
H1604 C1608 0.929 . S
H1605 C1614 0.929 . S
C1606 H1600 0.930 1_554 S
C1606 C1607 1.367 . S
C1606 C1614 1.378 . S
C1607 C1606 1.367 . S
C1607 C1615 1.433 . S
C1608 H1604 0.929 . S
C1608 C1610 1.378 . S
C1608 C1612 1.350 . S
C1609 C1612 1.463 . S
C1609 C1614 1.350 . S
C1609 N1617 1.427 . S
C1610 H1601 0.930 . S
C1610 C1608 1.378 . S
C1610 C1611 1.367 . S
C1611 C1610 1.367 . S
C1611 C1613 1.433 . S
C1612 C1608 1.350 . S
C1612 C1609 1.463 . S
C1612 N1616 1.427 . S
C1613 H1603 0.929 . S
C1613 C1611 1.433 . S
C1613 N1616 1.384 . S
C1614 H1605 0.929 . S
C1614 C1606 1.378 . S
C1614 C1609 1.350 . S
C1615 H1602 0.929 . S
C1615 C1607 1.433 . S
C1615 N1617 1.384 . S
N1616 C1612 1.427 . S
N1616 C1613 1.384 . S
N1617 C1609 1.427 . S
N1617 C1615 1.384 . S
H1618 C1624 0.930 . S
H1619 C1628 0.930 . S
H1620 C1633 0.929 . S
H1621 C1631 0.929 . S
H1622 C1626 0.929 . S
H1623 C1632 0.929 . S
C1624 H1618 0.930 . S
C1624 C1625 1.367 . S
C1624 C1632 1.378 . S
C1625 C1624 1.367 . S
C1625 C1633 1.433 1_554 S
C1626 H1622 0.929 . S
C1626 C1628 1.378 . S
C1626 C1630 1.350 1_556 S
C1627 C1630 1.463 . S
C1627 C1632 1.350 . S
C1627 N1635 1.427 1_554 S
C1628 H1619 0.930 . S
C1628 C1626 1.378 . S
C1628 C1629 1.367 1_556 S
C1629 C1628 1.367 1_554 S
C1629 C1631 1.433 . S
C1630 C1626 1.350 1_554 S
C1630 C1627 1.463 . S
C1630 N1634 1.427 . S
C1631 H1621 0.929 . S
C1631 C1629 1.433 . S
C1631 N1634 1.384 . S
C1632 H1623 0.929 . S
C1632 C1624 1.378 . S
C1632 C1627 1.350 . S
C1633 H1620 0.929 . S
C1633 C1625 1.433 1_556 S
C1633 N1635 1.384 . S
N1634 C1630 1.427 . S
N1634 C1631 1.384 . S
N1635 C1627 1.427 1_556 S
N1635 C1633 1.384 . S
H1636 C1642 0.930 . S
H1637 C1646 0.930 . S
H1638 C1651 0.929 . S
H1639 C1649 0.929 . S
H1640 C1644 0.929 . S
H1641 C1650 0.929 . S
C1642 H1636 0.930 . S
C1642 C1643 1.367 . S
C1642 C1650 1.378 . S
C1643 C1642 1.367 . S
C1643 C1651 1.433 . S
C1644 H1640 0.929 . S
C1644 C1646 1.378 . S
C1644 C1648 1.350 . S
C1645 C1648 1.463 . S
C1645 C1650 1.350 . S
C1645 N1653 1.427 . S
C1646 H1637 0.930 . S
C1646 C1644 1.378 . S
C1646 C1647 1.367 . S
C1647 C1646 1.367 . S
C1647 C1649 1.433 . S
C1648 C1644 1.350 . S
C1648 C1645 1.463 . S
C1648 N1652 1.427 . S
C1649 H1639 0.929 . S
C1649 C1647 1.433 . S
C1649 N1652 1.384 . S
C1650 H1641 0.929 . S
C1650 C1642 1.378 . S
C1650 C1645 1.350 . S
C1651 H1638 0.929 . S
C1651 C1643 1.433 . S
C1651 N1653 1.384 . S
N1652 C1648 1.427 . S
N1652 C1649 1.384 . S
N1653 C1645 1.427 . S
N1653 C1651 1.384 . S
H1654 C1660 0.930 . S
H1655 C1664 0.930 . S
H1656 C1669 0.929 . S
H1657 C1667 0.929 . S
H1658 C1662 0.929 . S
H1659 C1668 0.929 . S
C1660 H1654 0.930 . S
C1660 C1661 1.367 . S
C1660 C1668 1.378 . S
C1661 C1660 1.367 . S
C1661 C1669 1.433 . S
C1662 H1658 0.929 . S
C1662 C1664 1.378 . S
C1662 C1666 1.350 . S
C1663 C1666 1.463 . S
C1663 C1668 1.350 . S
C1663 N1671 1.427 . S
C1664 H1655 0.930 . S
C1664 C1662 1.378 . S
C1664 C1665 1.367 . S
C1665 C1664 1.367 . S
C1665 C1667 1.433 . S
C1666 C1662 1.350 . S
C1666 C1663 1.463 . S
C1666 N1670 1.427 . S
C1667 H1657 0.929 . S
C1667 C1665 1.433 . S
C1667 N1670 1.384 . S
C1668 H1659 0.929 . S
C1668 C1660 1.378 . S
C1668 C1663 1.350 . S
C1669 H1656 0.929 . S
C1669 C1661 1.433 . S
C1669 N1671 1.384 . S
N1670 C1666 1.427 . S
N1670 C1667 1.384 . S
N1671 C1663 1.427 . S
N1671 C1669 1.384 . S
H1672 C1678 0.930 . S
H1673 C1682 0.930 . S
H1674 C1687 0.929 . S
H1675 C1685 0.929 . S
H1676 C1680 0.929 . S
H1677 C1686 0.929 . S
C1678 H1672 0.930 . S
C1678 C1679 1.367 . S
C1678 C1686 1.378 . S
C1679 C1678 1.367 . S
C1679 C1687 1.433 . S
C1680 H1676 0.929 . S
C1680 C1682 1.378 . S
C1680 C1684 1.350 . S
C1681 C1684 1.463 . S
C1681 C1686 1.350 . S
C1681 N1689 1.427 . S
C1682 H1673 0.930 . S
C1682 C1680 1.378 . S
C1682 C1683 1.367 . S
C1683 C1682 1.367 . S
C1683 C1685 1.433 . S
C1684 C1680 1.350 . S
C1684 C1681 1.463 . S
C1684 N1688 1.427 . S
C1685 H1675 0.929 . S
C1685 C1683 1.433 . S
C1685 N1688 1.384 . S
C1686 H1677 0.929 . S
C1686 C1678 1.378 . S
C1686 C1681 1.350 . S
C1687 H1674 0.929 . S
C1687 C1679 1.433 . S
C1687 N1689 1.384 . S
N1688 C1684 1.427 . S
N1688 C1685 1.384 . S
N1689 C1681 1.427 . S
N1689 C1687 1.384 . S
H1690 C1696 0.930 . S
H1691 C1700 0.930 . S
H1692 C1705 0.929 . S
H1693 C1703 0.929 . S
H1694 C1698 0.929 . S
H1695 C1704 0.929 . S
C1696 H1690 0.930 . S
C1696 C1697 1.367 . S
C1696 C1704 1.378 . S
C1697 C1696 1.367 . S
C1697 C1705 1.433 . S
C1698 H1694 0.929 . S
C1698 C1700 1.378 . S
C1698 C1702 1.350 . S
C1699 C1702 1.463 . S
C1699 C1704 1.350 . S
C1699 N1707 1.427 . S
C1700 H1691 0.930 . S
C1700 C1698 1.378 . S
C1700 C1701 1.367 . S
C1701 C1700 1.367 . S
C1701 C1703 1.433 . S
C1702 C1698 1.350 . S
C1702 C1699 1.463 . S
C1702 N1706 1.427 . S
C1703 H1693 0.929 . S
C1703 C1701 1.433 . S
C1703 N1706 1.384 . S
C1704 H1695 0.929 . S
C1704 C1696 1.378 . S
C1704 C1699 1.350 . S
C1705 H1692 0.929 . S
C1705 C1697 1.433 . S
C1705 N1707 1.384 . S
N1706 C1702 1.427 . S
N1706 C1703 1.384 . S
N1707 C1699 1.427 . S
N1707 C1705 1.384 . S
H1708 C1714 0.930 . S
H1709 C1718 0.930 . S
H1710 C1723 0.929 . S
H1711 C1721 0.929 . S
H1712 C1716 0.929 . S
H1713 C1722 0.929 . S
C1714 H1708 0.930 . S
C1714 C1715 1.367 . S
C1714 C1722 1.378 . S
C1715 C1714 1.367 . S
C1715 C1723 1.433 . S
C1716 H1712 0.929 . S
C1716 C1718 1.378 . S
C1716 C1720 1.350 . S
C1717 C1720 1.463 . S
C1717 C1722 1.350 . S
C1717 N1725 1.427 . S
C1718 H1709 0.930 . S
C1718 C1716 1.378 . S
C1718 C1719 1.367 . S
C1719 C1718 1.367 . S
C1719 C1721 1.433 . S
C1720 C1716 1.350 . S
C1720 C1717 1.463 . S
C1720 N1724 1.427 . S
C1721 H1711 0.929 . S
C1721 C1719 1.433 . S
C1721 N1724 1.384 . S
C1722 H1713 0.929 . S
C1722 C1714 1.378 . S
C1722 C1717 1.350 . S
C1723 H1710 0.929 . S
C1723 C1715 1.433 . S
C1723 N1725 1.384 . S
N1724 C1720 1.427 . S
N1724 C1721 1.384 . S
N1725 C1717 1.427 . S
N1725 C1723 1.384 . S
H1726 C1732 0.930 . S
H1727 C1736 0.930 . S
H1728 C1741 0.929 . S
H1729 C1739 0.929 . S
H1730 C1734 0.929 . S
H1731 C1740 0.929 . S
C1732 H1726 0.930 . S
C1732 C1733 1.367 . S
C1732 C1740 1.378 . S
C1733 C1732 1.367 . S
C1733 C1741 1.433 . S
C1734 H1730 0.929 . S
C1734 C1736 1.378 . S
C1734 C1738 1.350 . S
C1735 C1738 1.463 . S
C1735 C1740 1.350 . S
C1735 N1743 1.427 . S
C1736 H1727 0.930 . S
C1736 C1734 1.378 . S
C1736 C1737 1.367 . S
C1737 C1736 1.367 . S
C1737 C1739 1.433 . S
C1738 C1734 1.350 . S
C1738 C1735 1.463 . S
C1738 N1742 1.427 . S
C1739 H1729 0.929 . S
C1739 C1737 1.433 . S
C1739 N1742 1.384 . S
C1740 H1731 0.929 . S
C1740 C1732 1.378 . S
C1740 C1735 1.350 . S
C1741 H1728 0.929 . S
C1741 C1733 1.433 . S
C1741 N1743 1.384 . S
N1742 C1738 1.427 . S
N1742 C1739 1.384 . S
N1743 C1735 1.427 . S
N1743 C1741 1.384 . S
H1744 C1750 0.930 . S
H1745 C1754 0.930 . S
H1746 C1759 0.929 . S
H1747 C1757 0.929 . S
H1748 C1752 0.929 . S
H1749 C1758 0.929 . S
C1750 H1744 0.930 . S
C1750 C1751 1.367 . S
C1750 C1758 1.378 . S
C1751 C1750 1.367 . S
C1751 C1759 1.433 . S
C1752 H1748 0.929 . S
C1752 C1754 1.378 . S
C1752 C1756 1.350 . S
C1753 C1756 1.463 . S
C1753 C1758 1.350 . S
C1753 N1761 1.427 . S
C1754 H1745 0.930 . S
C1754 C1752 1.378 . S
C1754 C1755 1.367 . S
C1755 C1754 1.367 . S
C1755 C1757 1.433 . S
C1756 C1752 1.350 . S
C1756 C1753 1.463 . S
C1756 N1760 1.427 . S
C1757 H1747 0.929 . S
C1757 C1755 1.433 . S
C1757 N1760 1.384 . S
C1758 H1749 0.929 . S
C1758 C1750 1.378 . S
C1758 C1753 1.350 . S
C1759 H1746 0.929 . S
C1759 C1751 1.433 . S
C1759 N1761 1.384 . S
N1760 C1756 1.427 . S
N1760 C1757 1.384 . S
N1761 C1753 1.427 . S
N1761 C1759 1.384 . S
H1762 C1768 0.930 . S
H1763 C1772 0.930 . S
H1764 C1777 0.929 . S
H1765 C1775 0.929 . S
H1766 C1770 0.929 . S
H1767 C1776 0.929 . S
C1768 H1762 0.930 . S
C1768 C1769 1.367 . S
C1768 C1776 1.378 . S
C1769 C1768 1.367 . S
C1769 C1777 1.433 . S
C1770 H1766 0.929 . S
C1770 C1772 1.378 . S
C1770 C1774 1.350 . S
C1771 C1774 1.463 . S
C1771 C1776 1.350 . S
C1771 N1779 1.427 . S
C1772 H1763 0.930 . S
C1772 C1770 1.378 . S
C1772 C1773 1.367 . S
C1773 C1772 1.367 . S
C1773 C1775 1.433 . S
C1774 C1770 1.350 . S
C1774 C1771 1.463 . S
C1774 N1778 1.427 . S
C1775 H1765 0.929 . S
C1775 C1773 1.433 . S
C1775 N1778 1.384 . S
C1776 H1767 0.929 . S
C1776 C1768 1.378 . S
C1776 C1771 1.350 . S
C1777 H1764 0.929 . S
C1777 C1769 1.433 . S
C1777 N1779 1.384 . S
N1778 C1774 1.427 . S
N1778 C1775 1.384 . S
N1779 C1771 1.427 . S
N1779 C1777 1.384 . S
H1780 C1786 0.930 . S
H1781 C1790 0.930 . S
H1782 C1795 0.929 . S
H1783 C1793 0.929 . S
H1784 C1788 0.929 . S
H1785 C1794 0.929 . S
C1786 H1780 0.930 . S
C1786 C1787 1.367 . S
C1786 C1794 1.378 . S
C1787 C1786 1.367 . S
C1787 C1795 1.433 . S
C1788 H1784 0.929 . S
C1788 C1790 1.378 . S
C1788 C1792 1.350 . S
C1789 C1792 1.463 . S
C1789 C1794 1.350 . S
C1789 N1797 1.427 . S
C1790 H1781 0.930 . S
C1790 C1788 1.378 . S
C1790 C1791 1.367 . S
C1791 C1790 1.367 . S
C1791 C1793 1.433 . S
C1792 C1788 1.350 . S
C1792 C1789 1.463 . S
C1792 N1796 1.427 . S
C1793 H1783 0.929 . S
C1793 C1791 1.433 . S
C1793 N1796 1.384 . S
C1794 H1785 0.929 . S
C1794 C1786 1.378 . S
C1794 C1789 1.350 . S
C1795 H1782 0.929 . S
C1795 C1787 1.433 . S
C1795 N1797 1.384 . S
N1796 C1792 1.427 . S
N1796 C1793 1.384 . S
N1797 C1789 1.427 . S
N1797 C1795 1.384 . S
H1798 C1804 0.930 . S
H1799 C1808 0.930 . S
H1800 C1813 0.929 . S
H1801 C1811 0.929 . S
H1802 C1806 0.929 . S
H1803 C1812 0.929 . S
C1804 H1798 0.930 . S
C1804 C1805 1.367 . S
C1804 C1812 1.378 . S
C1805 C1804 1.367 . S
C1805 C1813 1.433 . S
C1806 H1802 0.929 . S
C1806 C1808 1.378 . S
C1806 C1810 1.350 . S
C1807 C1810 1.463 . S
C1807 C1812 1.350 . S
C1807 N1815 1.427 . S
C1808 H1799 0.930 . S
C1808 C1806 1.378 . S
C1808 C1809 1.367 . S
C1809 C1808 1.367 . S
C1809 C1811 1.433 . S
C1810 C1806 1.350 . S
C1810 C1807 1.463 . S
C1810 N1814 1.427 . S
C1811 H1801 0.929 . S
C1811 C1809 1.433 . S
C1811 N1814 1.384 . S
C1812 H1803 0.929 . S
C1812 C1804 1.378 . S
C1812 C1807 1.350 . S
C1813 H1800 0.929 . S
C1813 C1805 1.433 . S
C1813 N1815 1.384 . S
N1814 C1810 1.427 . S
N1814 C1811 1.384 . S
N1815 C1807 1.427 . S
N1815 C1813 1.384 . S
H1816 C1822 0.930 . S
H1817 C1826 0.930 . S
H1818 C1831 0.929 . S
H1819 C1829 0.929 1_554 S
H1820 C1824 0.929 . S
H1821 C1830 0.929 . S
C1822 H1816 0.930 . S
C1822 C1823 1.367 . S
C1822 C1830 1.378 . S
C1823 C1822 1.367 . S
C1823 C1831 1.433 . S
C1824 H1820 0.929 . S
C1824 C1826 1.378 . S
C1824 C1828 1.350 . S
C1825 C1828 1.463 . S
C1825 C1830 1.350 . S
C1825 N1833 1.427 . S
C1826 H1817 0.930 . S
C1826 C1824 1.378 . S
C1826 C1827 1.367 . S
C1827 C1826 1.367 . S
C1827 C1829 1.433 . S
C1828 C1824 1.350 . S
C1828 C1825 1.463 . S
C1828 N1832 1.427 . S
C1829 H1819 0.929 1_556 S
C1829 C1827 1.433 . S
C1829 N1832 1.384 . S
C1830 H1821 0.929 . S
C1830 C1822 1.378 . S
C1830 C1825 1.350 . S
C1831 H1818 0.929 . S
C1831 C1823 1.433 . S
C1831 N1833 1.384 . S
N1832 C1828 1.427 . S
N1832 C1829 1.384 . S
N1833 C1825 1.427 . S
N1833 C1831 1.384 . S
H1834 C1840 0.930 . S
H1835 C1844 0.930 . S
H1836 C1849 0.929 . S
H1837 C1847 0.929 . S
H1838 C1842 0.929 . S
H1839 C1848 0.929 . S
C1840 H1834 0.930 . S
C1840 C1841 1.367 1_655 S
C1840 C1848 1.378 . S
C1841 C1840 1.367 1_455 S
C1841 C1849 1.433 . S
C1842 H1838 0.929 . S
C1842 C1844 1.378 . S
C1842 C1846 1.350 . S
C1843 C1846 1.463 . S
C1843 C1848 1.350 . S
C1843 N1851 1.427 . S
C1844 H1835 0.930 . S
C1844 C1842 1.378 . S
C1844 C1845 1.367 . S
C1845 C1844 1.367 . S
C1845 C1847 1.433 . S
C1846 C1842 1.350 . S
C1846 C1843 1.463 . S
C1846 N1850 1.427 . S
C1847 H1837 0.929 . S
C1847 C1845 1.433 . S
C1847 N1850 1.384 . S
C1848 H1839 0.929 . S
C1848 C1840 1.378 . S
C1848 C1843 1.350 . S
C1849 H1836 0.929 . S
C1849 C1841 1.433 . S
C1849 N1851 1.384 1_455 S
N1850 C1846 1.427 . S
N1850 C1847 1.384 . S
N1851 C1843 1.427 . S
N1851 C1849 1.384 1_655 S
H1852 C1858 0.930 . S
H1853 C1862 0.930 . S
H1854 C1867 0.929 . S
H1855 C1865 0.929 . S
H1856 C1860 0.929 . S
H1857 C1866 0.929 . S
C1858 H1852 0.930 . S
C1858 C1859 1.367 . S
C1858 C1866 1.378 . S
C1859 C1858 1.367 . S
C1859 C1867 1.433 . S
C1860 H1856 0.929 . S
C1860 C1862 1.378 . S
C1860 C1864 1.350 . S
C1861 C1864 1.463 . S
C1861 C1866 1.350 . S
C1861 N1869 1.427 . S
C1862 H1853 0.930 . S
C1862 C1860 1.378 . S
C1862 C1863 1.367 . S
C1863 C1862 1.367 . S
C1863 C1865 1.433 . S
C1864 C1860 1.350 . S
C1864 C1861 1.463 . S
C1864 N1868 1.427 . S
C1865 H1855 0.929 . S
C1865 C1863 1.433 . S
C1865 N1868 1.384 . S
C1866 H1857 0.929 . S
C1866 C1858 1.378 . S
C1866 C1861 1.350 . S
C1867 H1854 0.929 . S
C1867 C1859 1.433 . S
C1867 N1869 1.384 . S
N1868 C1864 1.427 . S
N1868 C1865 1.384 . S
N1869 C1861 1.427 . S
N1869 C1867 1.384 . S
H1870 C1876 0.930 . S
H1871 C1880 0.930 . S
H1872 C1885 0.929 . S
H1873 C1883 0.929 . S
H1874 C1878 0.929 . S
H1875 C1884 0.929 . S
C1876 H1870 0.930 . S
C1876 C1877 1.367 . S
C1876 C1884 1.378 . S
C1877 C1876 1.367 . S
C1877 C1885 1.433 . S
C1878 H1874 0.929 . S
C1878 C1880 1.378 . S
C1878 C1882 1.350 . S
C1879 C1882 1.463 . S
C1879 C1884 1.350 . S
C1879 N1887 1.427 . S
C1880 H1871 0.930 . S
C1880 C1878 1.378 . S
C1880 C1881 1.367 . S
C1881 C1880 1.367 . S
C1881 C1883 1.433 . S
C1882 C1878 1.350 . S
C1882 C1879 1.463 . S
C1882 N1886 1.427 . S
C1883 H1873 0.929 . S
C1883 C1881 1.433 . S
C1883 N1886 1.384 . S
C1884 H1875 0.929 . S
C1884 C1876 1.378 . S
C1884 C1879 1.350 . S
C1885 H1872 0.929 . S
C1885 C1877 1.433 . S
C1885 N1887 1.384 . S
N1886 C1882 1.427 . S
N1886 C1883 1.384 . S
N1887 C1879 1.427 . S
N1887 C1885 1.384 . S
H1888 C1894 0.930 . S
H1889 C1898 0.930 . S
H1890 C1903 0.929 . S
H1891 C1901 0.929 . S
H1892 C1896 0.929 . S
H1893 C1902 0.929 . S
C1894 H1888 0.930 . S
C1894 C1895 1.367 . S
C1894 C1902 1.378 . S
C1895 C1894 1.367 . S
C1895 C1903 1.433 . S
C1896 H1892 0.929 . S
C1896 C1898 1.378 . S
C1896 C1900 1.350 . S
C1897 C1900 1.463 . S
C1897 C1902 1.350 . S
C1897 N1905 1.427 . S
C1898 H1889 0.930 . S
C1898 C1896 1.378 . S
C1898 C1899 1.367 . S
C1899 C1898 1.367 . S
C1899 C1901 1.433 . S
C1900 C1896 1.350 . S
C1900 C1897 1.463 . S
C1900 N1904 1.427 . S
C1901 H1891 0.929 . S
C1901 C1899 1.433 . S
C1901 N1904 1.384 . S
C1902 H1893 0.929 . S
C1902 C1894 1.378 . S
C1902 C1897 1.350 . S
C1903 H1890 0.929 . S
C1903 C1895 1.433 . S
C1903 N1905 1.384 . S
N1904 C1900 1.427 . S
N1904 C1901 1.384 . S
N1905 C1897 1.427 . S
N1905 C1903 1.384 . S
H1906 C1912 0.930 1_554 S
H1907 C1916 0.930 . S
H1908 C1921 0.929 . S
H1909 C1919 0.929 . S
H1910 C1914 0.929 . S
H1911 C1920 0.929 . S
C1912 H1906 0.930 1_556 S
C1912 C1913 1.367 1_556 S
C1912 C1920 1.378 . S
C1913 C1912 1.367 1_554 S
C1913 C1921 1.433 1_554 S
C1914 H1910 0.929 . S
C1914 C1916 1.378 . S
C1914 C1918 1.350 . S
C1915 C1918 1.463 . S
C1915 C1920 1.350 . S
C1915 N1923 1.427 . S
C1916 H1907 0.930 . S
C1916 C1914 1.378 . S
C1916 C1917 1.367 . S
C1917 C1916 1.367 . S
C1917 C1919 1.433 . S
C1918 C1914 1.350 . S
C1918 C1915 1.463 . S
C1918 N1922 1.427 . S
C1919 H1909 0.929 . S
C1919 C1917 1.433 . S
C1919 N1922 1.384 . S
C1920 H1911 0.929 . S
C1920 C1912 1.378 . S
C1920 C1915 1.350 . S
C1921 H1908 0.929 . S
C1921 C1913 1.433 1_556 S
C1921 N1923 1.384 . S
N1922 C1918 1.427 . S
N1922 C1919 1.384 . S
N1923 C1915 1.427 . S
N1923 C1921 1.384 . S
H1924 C1930 0.930 . S
H1925 C1934 0.930 . S
H1926 C1939 0.929 . S
H1927 C1937 0.929 . S
H1928 C1932 0.929 . S
H1929 C1938 0.929 . S
C1930 H1924 0.930 . S
C1930 C1931 1.367 . S
C1930 C1938 1.378 . S
C1931 C1930 1.367 . S
C1931 C1939 1.433 . S
C1932 H1928 0.929 . S
C1932 C1934 1.378 1_655 S
C1932 C1936 1.350 . S
C1933 C1936 1.463 . S
C1933 C1938 1.350 . S
C1933 N1941 1.427 . S
C1934 H1925 0.930 . S
C1934 C1932 1.378 1_455 S
C1934 C1935 1.370 . S
C1935 C1934 1.370 . S
C1935 C1937 1.413 1_455 S
C1936 C1932 1.350 . S
C1936 C1933 1.463 . S
C1936 N1940 1.427 . S
C1937 H1927 0.929 . S
C1937 C1935 1.413 1_655 S
C1937 N1940 1.384 . S
C1938 H1929 0.929 . S
C1938 C1930 1.378 . S
C1938 C1933 1.350 . S
C1939 H1926 0.929 . S
C1939 C1931 1.433 . S
C1939 N1941 1.384 . S
N1940 C1936 1.427 . S
N1940 C1937 1.384 . S
N1941 C1933 1.427 . S
N1941 C1939 1.384 . S
H1942 C1948 0.930 . S
H1943 C1952 0.930 . S
H1944 C1957 0.929 . S
H1945 C1955 0.929 . S
H1946 C1950 0.929 . S
H1947 C1956 0.929 . S
C1948 H1942 0.930 . S
C1948 C1949 1.367 . S
C1948 C1956 1.378 . S
C1949 C1948 1.367 . S
C1949 C1957 1.433 . S
C1950 H1946 0.929 . S
C1950 C1952 1.378 . S
C1950 C1954 1.350 . S
C1951 C1954 1.463 . S
C1951 C1956 1.350 . S
C1951 N1959 1.427 . S
C1952 H1943 0.930 . S
C1952 C1950 1.378 . S
C1952 C1953 1.367 . S
C1953 C1952 1.367 . S
C1953 C1955 1.433 . S
C1954 C1950 1.350 . S
C1954 C1951 1.463 . S
C1954 N1958 1.427 . S
C1955 H1945 0.929 . S
C1955 C1953 1.433 . S
C1955 N1958 1.384 . S
C1956 H1947 0.929 . S
C1956 C1948 1.378 . S
C1956 C1951 1.350 . S
C1957 H1944 0.929 . S
C1957 C1949 1.433 . S
C1957 N1959 1.384 . S
N1958 C1954 1.427 . S
N1958 C1955 1.384 . S
N1959 C1951 1.427 . S
N1959 C1957 1.384 . S
H1960 C1966 0.930 . S
H1961 C1970 0.930 . S
H1962 C1975 0.929 . S
H1963 C1973 0.929 . S
H1964 C1968 0.929 . S
H1965 C1974 0.929 . S
C1966 H1960 0.930 . S
C1966 C1967 1.367 . S
C1966 C1974 1.378 . S
C1967 C1966 1.367 . S
C1967 C1975 1.433 . S
C1968 H1964 0.929 . S
C1968 C1970 1.378 . S
C1968 C1972 1.350 . S
C1969 C1972 1.463 . S
C1969 C1974 1.350 . S
C1969 N1977 1.427 . S
C1970 H1961 0.930 . S
C1970 C1968 1.378 . S
C1970 C1971 1.367 . S
C1971 C1970 1.367 . S
C1971 C1973 1.433 . S
C1972 C1968 1.350 . S
C1972 C1969 1.463 . S
C1972 N1976 1.427 . S
C1973 H1963 0.929 . S
C1973 C1971 1.433 . S
C1973 N1976 1.384 . S
C1974 H1965 0.929 . S
C1974 C1966 1.378 . S
C1974 C1969 1.350 . S
C1975 H1962 0.929 . S
C1975 C1967 1.433 . S
C1975 N1977 1.384 . S
N1976 C1972 1.427 . S
N1976 C1973 1.384 . S
N1977 C1969 1.427 . S
N1977 C1975 1.384 . S
H1978 C1984 0.930 . S
H1979 C1988 0.930 . S
H1980 C1993 0.929 . S
H1981 C1991 0.929 . S
H1982 C1986 0.929 . S
H1983 C1992 0.929 . S
C1984 H1978 0.930 . S
C1984 C1985 1.367 . S
C1984 C1992 1.378 . S
C1985 C1984 1.367 . S
C1985 C1993 1.433 . S
C1986 H1982 0.929 . S
C1986 C1988 1.378 . S
C1986 C1990 1.350 . S
C1987 C1990 1.463 . S
C1987 C1992 1.350 . S
C1987 N1995 1.427 . S
C1988 H1979 0.930 . S
C1988 C1986 1.378 . S
C1988 C1989 1.367 . S
C1989 C1988 1.367 . S
C1989 C1991 1.433 . S
C1990 C1986 1.350 . S
C1990 C1987 1.463 . S
C1990 N1994 1.427 . S
C1991 H1981 0.929 . S
C1991 C1989 1.433 . S
C1991 N1994 1.384 . S
C1992 H1983 0.929 . S
C1992 C1984 1.378 . S
C1992 C1987 1.350 . S
C1993 H1980 0.929 . S
C1993 C1985 1.433 . S
C1993 N1995 1.384 . S
N1994 C1990 1.427 . S
N1994 C1991 1.384 . S
N1995 C1987 1.427 . S
N1995 C1993 1.384 . S
H1996 C2002 0.930 . S
H1997 C2006 0.930 . S
H1998 C2011 0.929 . S
H1999 C2009 0.929 . S
H2000 C2004 0.929 . S
H2001 C2010 0.929 . S
C2002 H1996 0.930 . S
C2002 C2003 1.367 . S
C2002 C2010 1.378 . S
C2003 C2002 1.367 . S
C2003 C2011 1.433 . S
C2004 H2000 0.929 . S
C2004 C2006 1.378 . S
C2004 C2008 1.350 . S
C2005 C2008 1.463 . S
C2005 C2010 1.350 . S
C2005 N2013 1.427 . S
C2006 H1997 0.930 . S
C2006 C2004 1.378 . S
C2006 C2007 1.367 . S
C2007 C2006 1.367 . S
C2007 C2009 1.433 . S
C2008 C2004 1.350 . S
C2008 C2005 1.463 . S
C2008 N2012 1.427 . S
C2009 H1999 0.929 . S
C2009 C2007 1.433 . S
C2009 N2012 1.384 . S
C2010 H2001 0.929 . S
C2010 C2002 1.378 . S
C2010 C2005 1.350 . S
C2011 H1998 0.929 . S
C2011 C2003 1.433 . S
C2011 N2013 1.384 . S
N2012 C2008 1.427 . S
N2012 C2009 1.384 . S
N2013 C2005 1.427 . S
N2013 C2011 1.384 . S
H2014 C2020 0.930 . S
H2015 C2024 0.930 . S
H2016 C2029 0.929 . S
H2017 C2027 0.929 . S
H2018 C2022 0.929 . S
H2019 C2028 0.929 . S
C2020 H2014 0.930 . S
C2020 C2021 1.367 . S
C2020 C2028 1.378 . S
C2021 C2020 1.367 . S
C2021 C2029 1.433 . S
C2022 H2018 0.929 . S
C2022 C2024 1.378 . S
C2022 C2026 1.350 . S
C2023 C2026 1.463 . S
C2023 C2028 1.350 . S
C2023 N2031 1.427 . S
C2024 H2015 0.930 . S
C2024 C2022 1.378 . S
C2024 C2025 1.367 . S
C2025 C2024 1.367 . S
C2025 C2027 1.433 . S
C2026 C2022 1.350 . S
C2026 C2023 1.463 . S
C2026 N2030 1.427 . S
C2027 H2017 0.929 . S
C2027 C2025 1.433 . S
C2027 N2030 1.384 . S
C2028 H2019 0.929 . S
C2028 C2020 1.378 . S
C2028 C2023 1.350 . S
C2029 H2016 0.929 . S
C2029 C2021 1.433 . S
C2029 N2031 1.384 . S
N2030 C2026 1.427 . S
N2030 C2027 1.384 . S
N2031 C2023 1.427 . S
N2031 C2029 1.384 . S
H2032 C2038 0.930 . S
H2033 C2042 0.930 . S
H2034 C2047 0.929 . S
H2035 C2045 0.929 . S
H2036 C2040 0.929 . S
H2037 C2046 0.929 . S
C2038 H2032 0.930 . S
C2038 C2039 1.367 . S
C2038 C2046 1.378 . S
C2039 C2038 1.367 . S
C2039 C2047 1.433 . S
C2040 H2036 0.929 . S
C2040 C2042 1.378 . S
C2040 C2044 1.350 . S
C2041 C2044 1.463 . S
C2041 C2046 1.350 . S
C2041 N2049 1.427 . S
C2042 H2033 0.930 . S
C2042 C2040 1.378 . S
C2042 C2043 1.367 . S
C2043 C2042 1.367 . S
C2043 C2045 1.433 . S
C2044 C2040 1.350 . S
C2044 C2041 1.463 . S
C2044 N2048 1.427 . S
C2045 H2035 0.929 . S
C2045 C2043 1.433 . S
C2045 N2048 1.384 . S
C2046 H2037 0.929 . S
C2046 C2038 1.378 . S
C2046 C2041 1.350 . S
C2047 H2034 0.929 . S
C2047 C2039 1.433 . S
C2047 N2049 1.384 . S
N2048 C2044 1.427 . S
N2048 C2045 1.384 . S
N2049 C2041 1.427 . S
N2049 C2047 1.384 . S
H2050 C2056 0.930 . S
H2051 C2060 0.930 . S
H2052 C2065 0.929 . S
H2053 C2063 0.929 . S
H2054 C2058 0.929 . S
H2055 C2064 0.929 . S
C2056 H2050 0.930 . S
C2056 C2057 1.367 . S
C2056 C2064 1.378 . S
C2057 C2056 1.367 . S
C2057 C2065 1.433 . S
C2058 H2054 0.929 . S
C2058 C2060 1.378 . S
C2058 C2062 1.350 1_545 S
C2059 C2062 1.463 . S
C2059 C2064 1.350 . S
C2059 N2067 1.427 . S
C2060 H2051 0.930 . S
C2060 C2058 1.378 . S
C2060 C2061 1.367 1_545 S
C2061 C2060 1.367 1_565 S
C2061 C2063 1.433 . S
C2062 C2058 1.350 1_565 S
C2062 C2059 1.463 . S
C2062 N2066 1.427 . S
C2063 H2053 0.929 . S
C2063 C2061 1.433 . S
C2063 N2066 1.384 . S
C2064 H2055 0.929 . S
C2064 C2056 1.378 . S
C2064 C2059 1.350 . S
C2065 H2052 0.929 . S
C2065 C2057 1.433 . S
C2065 N2067 1.384 . S
N2066 C2062 1.427 . S
N2066 C2063 1.384 . S
N2067 C2059 1.427 . S
N2067 C2065 1.384 . S
H2068 C2074 0.930 . S
H2069 C2078 0.930 . S
H2070 C2083 0.929 . S
H2071 C2081 0.929 . S
H2072 C2076 0.929 . S
H2073 C2082 0.929 . S
C2074 H2068 0.930 . S
C2074 C2075 1.367 . S
C2074 C2082 1.378 . S
C2075 C2074 1.367 . S
C2075 C2083 1.433 . S
C2076 H2072 0.929 . S
C2076 C2078 1.378 . S
C2076 C2080 1.350 . S
C2077 C2080 1.463 . S
C2077 C2082 1.350 . S
C2077 N2085 1.427 . S
C2078 H2069 0.930 . S
C2078 C2076 1.378 . S
C2078 C2079 1.367 . S
C2079 C2078 1.367 . S
C2079 C2081 1.433 . S
C2080 C2076 1.350 . S
C2080 C2077 1.463 . S
C2080 N2084 1.427 . S
C2081 H2071 0.929 . S
C2081 C2079 1.433 . S
C2081 N2084 1.384 . S
C2082 H2073 0.929 . S
C2082 C2074 1.378 . S
C2082 C2077 1.350 . S
C2083 H2070 0.929 . S
C2083 C2075 1.433 . S
C2083 N2085 1.384 . S
N2084 C2080 1.427 . S
N2084 C2081 1.384 . S
N2085 C2077 1.427 . S
N2085 C2083 1.384 . S
H2086 C2092 0.930 . S
H2087 C2096 0.930 . S
H2088 C2101 0.929 . S
H2089 C2099 0.929 . S
H2090 C2094 0.929 . S
H2091 C2100 0.929 . S
C2092 H2086 0.930 . S
C2092 C2093 1.367 . S
C2092 C2100 1.378 . S
C2093 C2092 1.367 . S
C2093 C2101 1.433 . S
C2094 H2090 0.929 . S
C2094 C2096 1.378 . S
C2094 C2098 1.350 . S
C2095 C2098 1.463 . S
C2095 C2100 1.350 . S
C2095 N2103 1.427 . S
C2096 H2087 0.930 . S
C2096 C2094 1.378 . S
C2096 C2097 1.367 . S
C2097 C2096 1.367 . S
C2097 C2099 1.433 . S
C2098 C2094 1.350 . S
C2098 C2095 1.463 . S
C2098 N2102 1.427 . S
C2099 H2089 0.929 . S
C2099 C2097 1.433 . S
C2099 N2102 1.384 . S
C2100 H2091 0.929 . S
C2100 C2092 1.378 . S
C2100 C2095 1.350 . S
C2101 H2088 0.929 . S
C2101 C2093 1.433 . S
C2101 N2103 1.384 . S
N2102 C2098 1.427 . S
N2102 C2099 1.384 . S
N2103 C2095 1.427 . S
N2103 C2101 1.384 . S
H2104 C2110 0.930 . S
H2105 C2114 0.930 . S
H2106 C2119 0.929 . S
H2107 C2117 0.929 . S
H2108 C2112 0.929 . S
H2109 C2118 0.929 . S
C2110 H2104 0.930 . S
C2110 C2111 1.367 . S
C2110 C2118 1.378 . S
C2111 C2110 1.367 . S
C2111 C2119 1.433 . S
C2112 H2108 0.929 . S
C2112 C2114 1.378 . S
C2112 C2116 1.350 . S
C2113 C2116 1.463 . S
C2113 C2118 1.350 . S
C2113 N2121 1.427 . S
C2114 H2105 0.930 . S
C2114 C2112 1.378 . S
C2114 C2115 1.367 . S
C2115 C2114 1.367 . S
C2115 C2117 1.433 . S
C2116 C2112 1.350 . S
C2116 C2113 1.463 . S
C2116 N2120 1.427 . S
C2117 H2107 0.929 . S
C2117 C2115 1.433 . S
C2117 N2120 1.384 . S
C2118 H2109 0.929 . S
C2118 C2110 1.378 . S
C2118 C2113 1.350 . S
C2119 H2106 0.929 . S
C2119 C2111 1.433 . S
C2119 N2121 1.384 . S
N2120 C2116 1.427 . S
N2120 C2117 1.384 . S
N2121 C2113 1.427 . S
N2121 C2119 1.384 . S
H2122 C2128 0.930 . S
H2123 C2132 0.930 . S
H2124 C2137 0.929 . S
H2125 C2135 0.940 . S
H2126 C2130 0.929 . S
H2127 C2136 0.929 . S
C2128 H2122 0.930 . S
C2128 C2129 1.367 . S
C2128 C2136 1.378 . S
C2129 C2128 1.367 . S
C2129 C2137 1.433 . S
C2130 H2126 0.929 . S
C2130 C2132 1.378 . S
C2130 C2134 1.350 . S
C2131 C2134 1.463 . S
C2131 C2136 1.350 . S
C2131 N2139 1.427 . S
C2132 H2123 0.930 . S
C2132 C2130 1.378 . S
C2132 C2133 1.367 . S
C2133 C2132 1.367 . S
C2133 C2135 1.426 1_554 S
C2134 C2130 1.350 . S
C2134 C2131 1.463 . S
C2134 N2138 1.427 . S
C2135 H2125 0.940 . S
C2135 C2133 1.426 1_556 S
C2135 N2138 1.380 1_556 S
C2136 H2127 0.929 . S
C2136 C2128 1.378 . S
C2136 C2131 1.350 . S
C2137 H2124 0.929 . S
C2137 C2129 1.433 . S
C2137 N2139 1.384 . S
N2138 C2134 1.427 . S
N2138 C2135 1.380 1_554 S
N2139 C2131 1.427 . S
N2139 C2137 1.384 . S
H2140 C2146 0.930 . S
H2141 C2150 0.930 . S
H2142 C2155 0.929 . S
H2143 C2153 0.929 . S
H2144 C2148 0.929 . S
H2145 C2154 0.929 . S
C2146 H2140 0.930 . S
C2146 C2147 1.367 . S
C2146 C2154 1.378 . S
C2147 C2146 1.367 . S
C2147 C2155 1.433 . S
C2148 H2144 0.929 . S
C2148 C2150 1.378 . S
C2148 C2152 1.350 . S
C2149 C2152 1.463 . S
C2149 C2154 1.350 . S
C2149 N2157 1.427 . S
C2150 H2141 0.930 . S
C2150 C2148 1.378 . S
C2150 C2151 1.367 . S
C2151 C2150 1.367 . S
C2151 C2153 1.433 . S
C2152 C2148 1.350 . S
C2152 C2149 1.463 . S
C2152 N2156 1.427 . S
C2153 H2143 0.929 . S
C2153 C2151 1.433 . S
C2153 N2156 1.384 . S
C2154 H2145 0.929 . S
C2154 C2146 1.378 . S
C2154 C2149 1.350 . S
C2155 H2142 0.929 . S
C2155 C2147 1.433 . S
C2155 N2157 1.384 . S
N2156 C2152 1.427 . S
N2156 C2153 1.384 . S
N2157 C2149 1.427 . S
N2157 C2155 1.384 . S
H2158 C2164 0.930 . S
H2159 C2168 0.930 . S
H2160 C2173 0.929 . S
H2161 C2171 0.929 . S
H2162 C2166 0.929 . S
H2163 C2172 0.929 . S
C2164 H2158 0.930 . S
C2164 C2165 1.367 . S
C2164 C2172 1.378 . S
C2165 C2164 1.367 . S
C2165 C2173 1.433 . S
C2166 H2162 0.929 . S
C2166 C2168 1.378 . S
C2166 C2170 1.350 . S
C2167 C2170 1.463 . S
C2167 C2172 1.350 . S
C2167 N2175 1.427 . S
C2168 H2159 0.930 . S
C2168 C2166 1.378 . S
C2168 C2169 1.367 . S
C2169 C2168 1.367 . S
C2169 C2171 1.433 . S
C2170 C2166 1.350 . S
C2170 C2167 1.463 . S
C2170 N2174 1.427 . S
C2171 H2161 0.929 . S
C2171 C2169 1.433 . S
C2171 N2174 1.384 . S
C2172 H2163 0.929 . S
C2172 C2164 1.378 . S
C2172 C2167 1.350 . S
C2173 H2160 0.929 . S
C2173 C2165 1.433 . S
C2173 N2175 1.384 . S
N2174 C2170 1.427 . S
N2174 C2171 1.384 . S
N2175 C2167 1.427 . S
N2175 C2173 1.384 . S
H2176 C2182 0.930 . S
H2177 C2186 0.930 . S
H2178 C2191 0.929 . S
H2179 C2189 0.929 . S
H2180 C2184 0.929 . S
H2181 C2190 0.929 . S
C2182 H2176 0.930 . S
C2182 C2183 1.367 . S
C2182 C2190 1.378 . S
C2183 C2182 1.367 . S
C2183 C2191 1.433 . S
C2184 H2180 0.929 . S
C2184 C2186 1.378 . S
C2184 C2188 1.350 . S
C2185 C2188 1.463 . S
C2185 C2190 1.350 . S
C2185 N2193 1.427 . S
C2186 H2177 0.930 . S
C2186 C2184 1.378 . S
C2186 C2187 1.367 . S
C2187 C2186 1.367 . S
C2187 C2189 1.433 . S
C2188 C2184 1.350 . S
C2188 C2185 1.463 . S
C2188 N2192 1.427 . S
C2189 H2179 0.929 . S
C2189 C2187 1.433 . S
C2189 N2192 1.384 . S
C2190 H2181 0.929 . S
C2190 C2182 1.378 . S
C2190 C2185 1.350 . S
C2191 H2178 0.929 . S
C2191 C2183 1.433 . S
C2191 N2193 1.384 . S
N2192 C2188 1.427 . S
N2192 C2189 1.384 . S
N2193 C2185 1.427 . S
N2193 C2191 1.384 . S
H2194 C2200 0.930 . S
H2195 C2204 0.930 . S
H2196 C2209 0.929 . S
H2197 C2207 0.929 . S
H2198 C2202 0.929 . S
H2199 C2208 0.929 . S
C2200 H2194 0.930 . S
C2200 C2201 1.367 . S
C2200 C2208 1.378 . S
C2201 C2200 1.367 . S
C2201 C2209 1.433 . S
C2202 H2198 0.929 . S
C2202 C2204 1.378 . S
C2202 C2206 1.350 . S
C2203 C2206 1.463 . S
C2203 C2208 1.350 . S
C2203 N2211 1.427 . S
C2204 H2195 0.930 . S
C2204 C2202 1.378 . S
C2204 C2205 1.367 . S
C2205 C2204 1.367 . S
C2205 C2207 1.433 . S
C2206 C2202 1.350 . S
C2206 C2203 1.463 . S
C2206 N2210 1.427 . S
C2207 H2197 0.929 . S
C2207 C2205 1.433 . S
C2207 N2210 1.384 . S
C2208 H2199 0.929 . S
C2208 C2200 1.378 . S
C2208 C2203 1.350 . S
C2209 H2196 0.929 . S
C2209 C2201 1.433 . S
C2209 N2211 1.384 . S
N2210 C2206 1.427 . S
N2210 C2207 1.384 . S
N2211 C2203 1.427 . S
N2211 C2209 1.384 . S
H2212 C2218 0.930 . S
H2213 C2222 0.930 . S
H2214 C2227 0.929 . S
H2215 C2225 0.929 1_554 S
H2216 C2220 0.929 . S
H2217 C2226 0.929 . S
C2218 H2212 0.930 . S
C2218 C2219 1.367 . S
C2218 C2226 1.378 . S
C2219 C2218 1.367 . S
C2219 C2227 1.433 1_655 S
C2220 H2216 0.929 . S
C2220 C2222 1.378 . S
C2220 C2224 1.350 1_455 S
C2221 C2224 1.463 . S
C2221 C2226 1.350 . S
C2221 N2229 1.427 1_655 S
C2222 H2213 0.930 . S
C2222 C2220 1.378 . S
C2222 C2223 1.367 1_455 S
C2223 C2222 1.367 1_655 S
C2223 C2225 1.433 . S
C2224 C2220 1.350 1_655 S
C2224 C2221 1.463 . S
C2224 N2228 1.427 . S
C2225 H2215 0.929 1_556 S
C2225 C2223 1.433 . S
C2225 N2228 1.384 . S
C2226 H2217 0.929 . S
C2226 C2218 1.378 . S
C2226 C2221 1.350 . S
C2227 H2214 0.929 . S
C2227 C2219 1.433 1_455 S
C2227 N2229 1.384 . S
N2228 C2224 1.427 . S
N2228 C2225 1.384 . S
N2229 C2221 1.427 1_455 S
N2229 C2227 1.384 . S
H2230 C2236 0.930 . S
H2231 C2240 0.930 . S
H2232 C2245 0.929 . S
H2233 C2243 0.929 . S
H2234 C2238 0.929 . S
H2235 C2244 0.929 . S
C2236 H2230 0.930 . S
C2236 C2237 1.367 . S
C2236 C2244 1.378 . S
C2237 C2236 1.367 . S
C2237 C2245 1.433 . S
C2238 H2234 0.929 . S
C2238 C2240 1.378 . S
C2238 C2242 1.350 . S
C2239 C2242 1.463 . S
C2239 C2244 1.350 . S
C2239 N2247 1.427 . S
C2240 H2231 0.930 . S
C2240 C2238 1.378 . S
C2240 C2241 1.367 . S
C2241 C2240 1.367 . S
C2241 C2243 1.433 . S
C2242 C2238 1.350 . S
C2242 C2239 1.463 . S
C2242 N2246 1.427 . S
C2243 H2233 0.929 . S
C2243 C2241 1.433 . S
C2243 N2246 1.384 . S
C2244 H2235 0.929 . S
C2244 C2236 1.378 . S
C2244 C2239 1.350 . S
C2245 H2232 0.929 . S
C2245 C2237 1.433 . S
C2245 N2247 1.384 . S
N2246 C2242 1.427 . S
N2246 C2243 1.384 . S
N2247 C2239 1.427 . S
N2247 C2245 1.384 . S
H2248 C2254 0.930 . S
H2249 C2258 0.930 . S
H2250 C2263 0.929 . S
H2251 C2261 0.929 . S
H2252 C2256 0.929 . S
H2253 C2262 0.929 . S
C2254 H2248 0.930 . S
C2254 C2255 1.367 . S
C2254 C2262 1.378 . S
C2255 C2254 1.367 . S
C2255 C2263 1.433 . S
C2256 H2252 0.929 . S
C2256 C2258 1.378 . S
C2256 C2260 1.350 . S
C2257 C2260 1.463 . S
C2257 C2262 1.350 . S
C2257 N2265 1.427 . S
C2258 H2249 0.930 . S
C2258 C2256 1.378 . S
C2258 C2259 1.367 . S
C2259 C2258 1.367 . S
C2259 C2261 1.433 . S
C2260 C2256 1.350 . S
C2260 C2257 1.463 . S
C2260 N2264 1.427 . S
C2261 H2251 0.929 . S
C2261 C2259 1.433 . S
C2261 N2264 1.384 . S
C2262 H2253 0.929 . S
C2262 C2254 1.378 . S
C2262 C2257 1.350 . S
C2263 H2250 0.929 . S
C2263 C2255 1.433 . S
C2263 N2265 1.384 . S
N2264 C2260 1.427 . S
N2264 C2261 1.384 . S
N2265 C2257 1.427 . S
N2265 C2263 1.384 . S
H2266 C2272 0.930 . S
H2267 C2276 0.930 . S
H2268 C2281 0.929 . S
H2269 C2279 0.929 . S
H2270 C2274 0.929 . S
H2271 C2280 0.929 . S
C2272 H2266 0.930 . S
C2272 C2273 1.367 . S
C2272 C2280 1.378 . S
C2273 C2272 1.367 . S
C2273 C2281 1.433 . S
C2274 H2270 0.929 . S
C2274 C2276 1.378 . S
C2274 C2278 1.350 . S
C2275 C2278 1.463 . S
C2275 C2280 1.350 . S
C2275 N2283 1.427 . S
C2276 H2267 0.930 . S
C2276 C2274 1.378 . S
C2276 C2277 1.367 . S
C2277 C2276 1.367 . S
C2277 C2279 1.433 . S
C2278 C2274 1.350 . S
C2278 C2275 1.463 . S
C2278 N2282 1.427 . S
C2279 H2269 0.929 . S
C2279 C2277 1.433 . S
C2279 N2282 1.384 . S
C2280 H2271 0.929 . S
C2280 C2272 1.378 . S
C2280 C2275 1.350 . S
C2281 H2268 0.929 . S
C2281 C2273 1.433 . S
C2281 N2283 1.384 . S
N2282 C2278 1.427 . S
N2282 C2279 1.384 . S
N2283 C2275 1.427 . S
N2283 C2281 1.384 . S
H2284 C2290 0.930 1_655 S
H2285 C2294 0.930 . S
H2286 C2299 0.929 . S
H2287 C2297 0.929 . S
H2288 C2292 0.929 . S
H2289 C2298 0.929 1_655 S
C2290 H2284 0.930 1_455 S
C2290 C2291 1.367 . S
C2290 C2298 1.378 . S
C2291 C2290 1.367 . S
C2291 C2299 1.433 . S
C2292 H2288 0.929 . S
C2292 C2294 1.378 . S
C2292 C2296 1.350 . S
C2293 C2296 1.463 . S
C2293 C2298 1.350 . S
C2293 N2301 1.427 . S
C2294 H2285 0.930 . S
C2294 C2292 1.378 . S
C2294 C2295 1.367 . S
C2295 C2294 1.367 . S
C2295 C2297 1.433 1_455 S
C2296 C2292 1.350 . S
C2296 C2293 1.463 . S
C2296 N2300 1.406 1_455 S
C2297 H2287 0.929 . S
C2297 C2295 1.433 1_655 S
C2297 N2300 1.387 . S
C2298 H2289 0.929 1_455 S
C2298 C2290 1.378 . S
C2298 C2293 1.350 . S
C2299 H2286 0.929 . S
C2299 C2291 1.433 . S
C2299 N2301 1.384 . S
N2300 C2296 1.406 1_655 S
N2300 C2297 1.387 . S
N2301 C2293 1.427 . S
N2301 C2299 1.384 . S
H2302 C2308 0.930 . S
H2303 C2312 0.930 . S
H2304 C2317 0.929 . S
H2305 C2315 0.929 . S
H2306 C2310 0.929 . S
H2307 C2316 0.929 . S
C2308 H2302 0.930 . S
C2308 C2309 1.367 . S
C2308 C2316 1.378 . S
C2309 C2308 1.367 . S
C2309 C2317 1.433 . S
C2310 H2306 0.929 . S
C2310 C2312 1.378 . S
C2310 C2314 1.350 . S
C2311 C2314 1.463 . S
C2311 C2316 1.350 . S
C2311 N2319 1.427 . S
C2312 H2303 0.930 . S
C2312 C2310 1.378 . S
C2312 C2313 1.367 . S
C2313 C2312 1.367 . S
C2313 C2315 1.433 . S
C2314 C2310 1.350 . S
C2314 C2311 1.463 . S
C2314 N2318 1.427 . S
C2315 H2305 0.929 . S
C2315 C2313 1.433 . S
C2315 N2318 1.384 . S
C2316 H2307 0.929 . S
C2316 C2308 1.378 . S
C2316 C2311 1.350 . S
C2317 H2304 0.929 . S
C2317 C2309 1.433 . S
C2317 N2319 1.384 . S
N2318 C2314 1.427 . S
N2318 C2315 1.384 . S
N2319 C2311 1.427 . S
N2319 C2317 1.384 . S
H2320 C2326 0.930 . S
H2321 C2330 0.930 . S
H2322 C2335 0.929 . S
H2323 C2333 0.929 . S
H2324 C2328 0.929 . S
H2325 C2334 0.929 . S
C2326 H2320 0.930 . S
C2326 C2327 1.367 . S
C2326 C2334 1.378 . S
C2327 C2326 1.367 . S
C2327 C2335 1.433 . S
C2328 H2324 0.929 . S
C2328 C2330 1.378 . S
C2328 C2332 1.350 . S
C2329 C2332 1.463 . S
C2329 C2334 1.350 . S
C2329 N2337 1.427 . S
C2330 H2321 0.930 . S
C2330 C2328 1.378 . S
C2330 C2331 1.367 . S
C2331 C2330 1.367 . S
C2331 C2333 1.433 . S
C2332 C2328 1.350 . S
C2332 C2329 1.463 . S
C2332 N2336 1.427 . S
C2333 H2323 0.929 . S
C2333 C2331 1.433 . S
C2333 N2336 1.384 . S
C2334 H2325 0.929 . S
C2334 C2326 1.378 . S
C2334 C2329 1.350 . S
C2335 H2322 0.929 . S
C2335 C2327 1.433 . S
C2335 N2337 1.384 . S
N2336 C2332 1.427 . S
N2336 C2333 1.384 . S
N2337 C2329 1.427 . S
N2337 C2335 1.384 . S
H2338 C2344 0.930 . S
H2339 C2348 0.930 . S
H2340 C2353 0.929 . S
H2341 C2351 0.929 . S
H2342 C2346 0.929 . S
H2343 C2352 0.929 . S
C2344 H2338 0.930 . S
C2344 C2345 1.367 . S
C2344 C2352 1.378 . S
C2345 C2344 1.367 . S
C2345 C2353 1.433 . S
C2346 H2342 0.929 . S
C2346 C2348 1.378 . S
C2346 C2350 1.350 . S
C2347 C2350 1.463 . S
C2347 C2352 1.350 . S
C2347 N2355 1.427 . S
C2348 H2339 0.930 . S
C2348 C2346 1.378 . S
C2348 C2349 1.367 . S
C2349 C2348 1.367 . S
C2349 C2351 1.433 . S
C2350 C2346 1.350 . S
C2350 C2347 1.463 . S
C2350 N2354 1.427 . S
C2351 H2341 0.929 . S
C2351 C2349 1.433 . S
C2351 N2354 1.384 . S
C2352 H2343 0.929 . S
C2352 C2344 1.378 . S
C2352 C2347 1.350 . S
C2353 H2340 0.929 . S
C2353 C2345 1.433 . S
C2353 N2355 1.384 . S
N2354 C2350 1.427 . S
N2354 C2351 1.384 . S
N2355 C2347 1.427 . S
N2355 C2353 1.384 . S
H2356 C2362 0.930 . S
H2357 C2366 0.930 . S
H2358 C2371 0.929 . S
H2359 C2369 0.929 . S
H2360 C2364 0.929 . S
H2361 C2370 0.929 . S
C2362 H2356 0.930 . S
C2362 C2363 1.367 . S
C2362 C2370 1.378 . S
C2363 C2362 1.367 . S
C2363 C2371 1.433 . S
C2364 H2360 0.929 . S
C2364 C2366 1.378 . S
C2364 C2368 1.350 . S
C2365 C2368 1.463 . S
C2365 C2370 1.350 . S
C2365 N2373 1.427 . S
C2366 H2357 0.930 . S
C2366 C2364 1.378 . S
C2366 C2367 1.367 . S
C2367 C2366 1.367 . S
C2367 C2369 1.433 . S
C2368 C2364 1.350 . S
C2368 C2365 1.463 . S
C2368 N2372 1.427 . S
C2369 H2359 0.929 . S
C2369 C2367 1.433 . S
C2369 N2372 1.384 . S
C2370 H2361 0.929 . S
C2370 C2362 1.378 . S
C2370 C2365 1.350 . S
C2371 H2358 0.929 . S
C2371 C2363 1.433 . S
C2371 N2373 1.384 . S
N2372 C2368 1.427 . S
N2372 C2369 1.384 . S
N2373 C2365 1.427 . S
N2373 C2371 1.384 . S
H2374 C2380 0.930 . S
H2375 C2384 0.930 . S
H2376 C2389 0.929 . S
H2377 C2387 0.929 . S
H2378 C2382 0.929 . S
H2379 C2388 0.929 . S
C2380 H2374 0.930 . S
C2380 C2381 1.367 . S
C2380 C2388 1.378 . S
C2381 C2380 1.367 . S
C2381 C2389 1.433 . S
C2382 H2378 0.929 . S
C2382 C2384 1.378 . S
C2382 C2386 1.350 . S
C2383 C2386 1.463 . S
C2383 C2388 1.350 . S
C2383 N2391 1.427 . S
C2384 H2375 0.930 . S
C2384 C2382 1.378 . S
C2384 C2385 1.367 . S
C2385 C2384 1.367 . S
C2385 C2387 1.433 . S
C2386 C2382 1.350 . S
C2386 C2383 1.463 . S
C2386 N2390 1.427 . S
C2387 H2377 0.929 . S
C2387 C2385 1.433 . S
C2387 N2390 1.384 . S
C2388 H2379 0.929 . S
C2388 C2380 1.378 . S
C2388 C2383 1.350 . S
C2389 H2376 0.929 . S
C2389 C2381 1.433 . S
C2389 N2391 1.384 . S
N2390 C2386 1.427 . S
N2390 C2387 1.384 . S
N2391 C2383 1.427 . S
N2391 C2389 1.384 . S
H2392 C2398 0.930 . S
H2393 C2402 0.930 . S
H2394 C2407 0.929 . S
H2395 C2405 0.929 . S
H2396 C2400 0.929 . S
H2397 C2406 0.929 . S
C2398 H2392 0.930 . S
C2398 C2399 1.367 . S
C2398 C2406 1.378 . S
C2399 C2398 1.367 . S
C2399 C2407 1.433 . S
C2400 H2396 0.929 . S
C2400 C2402 1.378 . S
C2400 C2404 1.350 . S
C2401 C2404 1.463 . S
C2401 C2406 1.350 . S
C2401 N2409 1.427 . S
C2402 H2393 0.930 . S
C2402 C2400 1.378 . S
C2402 C2403 1.367 . S
C2403 C2402 1.367 . S
C2403 C2405 1.433 . S
C2404 C2400 1.350 . S
C2404 C2401 1.463 . S
C2404 N2408 1.427 . S
C2405 H2395 0.929 . S
C2405 C2403 1.433 . S
C2405 N2408 1.384 . S
C2406 H2397 0.929 . S
C2406 C2398 1.378 . S
C2406 C2401 1.350 . S
C2407 H2394 0.929 . S
C2407 C2399 1.433 . S
C2407 N2409 1.384 . S
N2408 C2404 1.427 . S
N2408 C2405 1.384 . S
N2409 C2401 1.427 . S
N2409 C2407 1.384 . S
H2410 C2416 0.930 . S
H2411 C2420 0.930 . S
H2412 C2425 0.929 . S
H2413 C2423 0.929 . S
H2414 C2418 0.929 . S
H2415 C2424 0.929 . S
C2416 H2410 0.930 . S
C2416 C2417 1.367 . S
C2416 C2424 1.378 . S
C2417 C2416 1.367 . S
C2417 C2425 1.433 . S
C2418 H2414 0.929 . S
C2418 C2420 1.378 . S
C2418 C2422 1.350 . S
C2419 C2422 1.463 . S
C2419 C2424 1.350 . S
C2419 N2427 1.427 . S
C2420 H2411 0.930 . S
C2420 C2418 1.378 . S
C2420 C2421 1.367 . S
C2421 C2420 1.367 . S
C2421 C2423 1.433 . S
C2422 C2418 1.350 . S
C2422 C2419 1.463 . S
C2422 N2426 1.427 . S
C2423 H2413 0.929 . S
C2423 C2421 1.433 . S
C2423 N2426 1.384 . S
C2424 H2415 0.929 . S
C2424 C2416 1.378 . S
C2424 C2419 1.350 . S
C2425 H2412 0.929 . S
C2425 C2417 1.433 . S
C2425 N2427 1.384 . S
N2426 C2422 1.427 . S
N2426 C2423 1.384 . S
N2427 C2419 1.427 . S
N2427 C2425 1.384 . S
H2428 C2434 0.930 . S
H2429 C2438 0.930 . S
H2430 C2443 0.929 . S
H2431 C2441 0.929 . S
H2432 C2436 0.929 . S
H2433 C2442 0.929 . S
C2434 H2428 0.930 . S
C2434 C2435 1.367 . S
C2434 C2442 1.378 . S
C2435 C2434 1.367 . S
C2435 C2443 1.433 . S
C2436 H2432 0.929 . S
C2436 C2438 1.378 . S
C2436 C2440 1.350 . S
C2437 C2440 1.463 . S
C2437 C2442 1.350 . S
C2437 N2445 1.427 . S
C2438 H2429 0.930 . S
C2438 C2436 1.378 . S
C2438 C2439 1.367 . S
C2439 C2438 1.367 . S
C2439 C2441 1.433 . S
C2440 C2436 1.350 . S
C2440 C2437 1.463 . S
C2440 N2444 1.427 . S
C2441 H2431 0.929 . S
C2441 C2439 1.433 . S
C2441 N2444 1.384 . S
C2442 H2433 0.929 . S
C2442 C2434 1.378 . S
C2442 C2437 1.350 . S
C2443 H2430 0.929 . S
C2443 C2435 1.433 . S
C2443 N2445 1.384 . S
N2444 C2440 1.427 . S
N2444 C2441 1.384 . S
N2445 C2437 1.427 . S
N2445 C2443 1.384 . S
H2446 C2452 0.930 . S
H2447 C2456 0.930 . S
H2448 C2461 0.929 . S
H2449 C2459 0.929 . S
H2450 C2454 0.929 . S
H2451 C2460 0.929 . S
C2452 H2446 0.930 . S
C2452 C2453 1.367 . S
C2452 C2460 1.378 . S
C2453 C2452 1.367 . S
C2453 C2461 1.433 . S
C2454 H2450 0.929 . S
C2454 C2456 1.378 . S
C2454 C2458 1.350 . S
C2455 C2458 1.463 . S
C2455 C2460 1.350 . S
C2455 N2463 1.427 . S
C2456 H2447 0.930 . S
C2456 C2454 1.378 . S
C2456 C2457 1.367 . S
C2457 C2456 1.367 . S
C2457 C2459 1.433 . S
C2458 C2454 1.350 . S
C2458 C2455 1.463 . S
C2458 N2462 1.427 . S
C2459 H2449 0.929 . S
C2459 C2457 1.433 . S
C2459 N2462 1.384 . S
C2460 H2451 0.929 . S
C2460 C2452 1.378 . S
C2460 C2455 1.350 . S
C2461 H2448 0.929 . S
C2461 C2453 1.433 . S
C2461 N2463 1.384 . S
N2462 C2458 1.427 . S
N2462 C2459 1.384 . S
N2463 C2455 1.427 . S
N2463 C2461 1.384 . S
H2464 C2470 0.930 . S
H2465 C2474 0.930 . S
H2466 C2479 0.929 . S
H2467 C2477 0.929 . S
H2468 C2472 0.929 . S
H2469 C2478 0.929 . S
C2470 H2464 0.930 . S
C2470 C2471 1.367 . S
C2470 C2478 1.378 . S
C2471 C2470 1.367 . S
C2471 C2479 1.433 . S
C2472 H2468 0.929 . S
C2472 C2474 1.378 . S
C2472 C2476 1.350 . S
C2473 C2476 1.463 . S
C2473 C2478 1.350 . S
C2473 N2481 1.427 . S
C2474 H2465 0.930 . S
C2474 C2472 1.378 . S
C2474 C2475 1.367 . S
C2475 C2474 1.367 . S
C2475 C2477 1.433 . S
C2476 C2472 1.350 . S
C2476 C2473 1.463 . S
C2476 N2480 1.427 . S
C2477 H2467 0.929 . S
C2477 C2475 1.433 . S
C2477 N2480 1.384 . S
C2478 H2469 0.929 . S
C2478 C2470 1.378 . S
C2478 C2473 1.350 . S
C2479 H2466 0.929 . S
C2479 C2471 1.433 . S
C2479 N2481 1.384 . S
N2480 C2476 1.427 . S
N2480 C2477 1.384 . S
N2481 C2473 1.427 . S
N2481 C2479 1.384 . S
H2482 C2488 0.930 . S
H2483 C2492 0.930 . S
H2484 C2497 0.929 . S
H2485 C2495 0.929 . S
H2486 C2490 0.929 . S
H2487 C2496 0.929 . S
C2488 H2482 0.930 . S
C2488 C2489 1.367 . S
C2488 C2496 1.378 . S
C2489 C2488 1.367 . S
C2489 C2497 1.433 . S
C2490 H2486 0.929 . S
C2490 C2492 1.378 . S
C2490 C2494 1.350 . S
C2491 C2494 1.463 . S
C2491 C2496 1.350 . S
C2491 N2499 1.427 . S
C2492 H2483 0.930 . S
C2492 C2490 1.378 . S
C2492 C2493 1.367 . S
C2493 C2492 1.367 . S
C2493 C2495 1.433 . S
C2494 C2490 1.350 . S
C2494 C2491 1.463 . S
C2494 N2498 1.427 . S
C2495 H2485 0.929 . S
C2495 C2493 1.433 . S
C2495 N2498 1.384 . S
C2496 H2487 0.929 . S
C2496 C2488 1.378 . S
C2496 C2491 1.350 . S
C2497 H2484 0.929 . S
C2497 C2489 1.433 . S
C2497 N2499 1.384 . S
N2498 C2494 1.427 . S
N2498 C2495 1.384 . S
N2499 C2491 1.427 . S
N2499 C2497 1.384 . S
H2500 C2506 0.930 . S
H2501 C2510 0.930 . S
H2502 C2515 0.929 . S
H2503 C2513 0.929 . S
H2504 C2508 0.929 . S
H2505 C2514 0.929 . S
C2506 H2500 0.930 . S
C2506 C2507 1.367 . S
C2506 C2514 1.378 . S
C2507 C2506 1.367 . S
C2507 C2515 1.433 . S
C2508 H2504 0.929 . S
C2508 C2510 1.378 . S
C2508 C2512 1.350 . S
C2509 C2512 1.463 . S
C2509 C2514 1.350 . S
C2509 N2517 1.427 . S
C2510 H2501 0.930 . S
C2510 C2508 1.378 . S
C2510 C2511 1.367 . S
C2511 C2510 1.367 . S
C2511 C2513 1.433 . S
C2512 C2508 1.350 . S
C2512 C2509 1.463 . S
C2512 N2516 1.427 . S
C2513 H2503 0.929 . S
C2513 C2511 1.433 . S
C2513 N2516 1.384 . S
C2514 H2505 0.929 . S
C2514 C2506 1.378 . S
C2514 C2509 1.350 . S
C2515 H2502 0.929 . S
C2515 C2507 1.433 . S
C2515 N2517 1.384 . S
N2516 C2512 1.427 . S
N2516 C2513 1.384 . S
N2517 C2509 1.427 . S
N2517 C2515 1.384 . S
H2518 C2524 0.930 1_556 S
H2519 C2528 0.930 . S
H2520 C2533 0.929 . S
H2521 C2531 0.929 . S
H2522 C2526 0.929 . S
H2523 C2532 0.907 1_556 S
C2524 H2518 0.930 1_554 S
C2524 C2525 1.367 . S
C2524 C2532 1.379 . S
C2525 C2524 1.367 . S
C2525 C2533 1.433 . S
C2526 H2522 0.929 . S
C2526 C2528 1.378 1_565 S
C2526 C2530 1.350 . S
C2527 C2530 1.463 . S
C2527 C2532 1.371 . S
C2527 N2535 1.427 . S
C2528 H2519 0.930 . S
C2528 C2526 1.378 1_545 S
C2528 C2529 1.367 1_545 S
C2529 C2528 1.367 1_565 S
C2529 C2531 1.433 1_554 S
C2530 C2526 1.350 . S
C2530 C2527 1.463 . S
C2530 N2534 1.427 1_554 S
C2531 H2521 0.929 . S
C2531 C2529 1.433 1_556 S
C2531 N2534 1.384 . S
C2532 H2523 0.907 1_554 S
C2532 C2524 1.379 . S
C2532 C2527 1.371 . S
C2533 H2520 0.929 . S
C2533 C2525 1.433 . S
C2533 N2535 1.384 . S
N2534 C2530 1.427 1_556 S
N2534 C2531 1.384 . S
N2535 C2527 1.427 . S
N2535 C2533 1.384 . S
H2536 C2542 0.930 . S
H2537 C2546 0.930 . S
H2538 C2551 0.929 . S
H2539 C2549 0.929 . S
H2540 C2544 0.929 . S
H2541 C2550 0.929 . S
C2542 H2536 0.930 . S
C2542 C2543 1.367 . S
C2542 C2550 1.378 . S
C2543 C2542 1.367 . S
C2543 C2551 1.433 . S
C2544 H2540 0.929 . S
C2544 C2546 1.378 . S
C2544 C2548 1.350 . S
C2545 C2548 1.463 . S
C2545 C2550 1.350 . S
C2545 N2553 1.427 . S
C2546 H2537 0.930 . S
C2546 C2544 1.378 . S
C2546 C2547 1.367 . S
C2547 C2546 1.367 . S
C2547 C2549 1.433 . S
C2548 C2544 1.350 . S
C2548 C2545 1.463 . S
C2548 N2552 1.427 . S
C2549 H2539 0.929 . S
C2549 C2547 1.433 . S
C2549 N2552 1.384 . S
C2550 H2541 0.929 . S
C2550 C2542 1.378 . S
C2550 C2545 1.350 . S
C2551 H2538 0.929 . S
C2551 C2543 1.433 . S
C2551 N2553 1.384 . S
N2552 C2548 1.427 . S
N2552 C2549 1.384 . S
N2553 C2545 1.427 . S
N2553 C2551 1.384 . S
H2554 C2560 0.930 . S
H2555 C2564 0.930 . S
H2556 C2569 0.921 1_556 S
H2557 C2567 0.929 . S
H2558 C2562 0.929 . S
H2559 C2568 0.929 . S
C2560 H2554 0.930 . S
C2560 C2561 1.367 . S
C2560 C2568 1.378 . S
C2561 C2560 1.367 . S
C2561 C2569 1.433 . S
C2562 H2558 0.929 . S
C2562 C2564 1.378 . S
C2562 C2566 1.350 . S
C2563 C2566 1.463 . S
C2563 C2568 1.350 . S
C2563 N2571 1.427 . S
C2564 H2555 0.930 . S
C2564 C2562 1.378 . S
C2564 C2565 1.367 . S
C2565 C2564 1.367 . S
C2565 C2567 1.433 . S
C2566 C2562 1.350 . S
C2566 C2563 1.463 . S
C2566 N2570 1.427 . S
C2567 H2557 0.929 . S
C2567 C2565 1.433 . S
C2567 N2570 1.384 . S
C2568 H2559 0.929 . S
C2568 C2560 1.378 . S
C2568 C2563 1.350 . S
C2569 H2556 0.921 1_554 S
C2569 C2561 1.433 . S
C2569 N2571 1.384 . S
N2570 C2566 1.427 . S
N2570 C2567 1.384 . S
N2571 C2563 1.427 . S
N2571 C2569 1.384 . S
H2572 C2578 0.930 . S
H2573 C2582 0.930 . S
H2574 C2587 0.929 . S
H2575 C2585 0.929 . S
H2576 C2580 0.929 . S
H2577 C2586 0.929 . S
C2578 H2572 0.930 . S
C2578 C2579 1.367 . S
C2578 C2586 1.378 . S
C2579 C2578 1.367 . S
C2579 C2587 1.433 . S
C2580 H2576 0.929 . S
C2580 C2582 1.378 . S
C2580 C2584 1.350 . S
C2581 C2584 1.463 . S
C2581 C2586 1.350 . S
C2581 N2589 1.427 . S
C2582 H2573 0.930 . S
C2582 C2580 1.378 . S
C2582 C2583 1.367 . S
C2583 C2582 1.367 . S
C2583 C2585 1.433 . S
C2584 C2580 1.350 . S
C2584 C2581 1.463 . S
C2584 N2588 1.427 . S
C2585 H2575 0.929 . S
C2585 C2583 1.433 . S
C2585 N2588 1.384 . S
C2586 H2577 0.929 . S
C2586 C2578 1.378 . S
C2586 C2581 1.350 . S
C2587 H2574 0.929 . S
C2587 C2579 1.433 . S
C2587 N2589 1.384 . S
N2588 C2584 1.427 . S
N2588 C2585 1.384 . S
N2589 C2581 1.427 . S
N2589 C2587 1.384 . S
H2590 C2596 0.930 . S
H2591 C2600 0.930 . S
H2592 C2605 0.929 . S
H2593 C2603 0.929 . S
H2594 C2598 0.929 . S
H2595 C2604 0.929 . S
C2596 H2590 0.930 . S
C2596 C2597 1.367 . S
C2596 C2604 1.378 . S
C2597 C2596 1.367 . S
C2597 C2605 1.433 . S
C2598 H2594 0.929 . S
C2598 C2600 1.378 . S
C2598 C2602 1.350 . S
C2599 C2602 1.463 . S
C2599 C2604 1.350 . S
C2599 N2607 1.427 . S
C2600 H2591 0.930 . S
C2600 C2598 1.378 . S
C2600 C2601 1.367 . S
C2601 C2600 1.367 . S
C2601 C2603 1.433 . S
C2602 C2598 1.350 . S
C2602 C2599 1.463 . S
C2602 N2606 1.427 . S
C2603 H2593 0.929 . S
C2603 C2601 1.433 . S
C2603 N2606 1.384 . S
C2604 H2595 0.929 . S
C2604 C2596 1.378 . S
C2604 C2599 1.350 . S
C2605 H2592 0.929 . S
C2605 C2597 1.433 . S
C2605 N2607 1.384 . S
N2606 C2602 1.427 . S
N2606 C2603 1.384 . S
N2607 C2599 1.427 . S
N2607 C2605 1.384 . S
C891 C353 0.948 . S
C887 C4 0.918 . S
C905 C19 1.446 . S
C909 C399 1.751 . S
C923 C39 0.799 . S
C927 C408 0.788 . S
C945 C446 1.554 . S
C941 C54 1.572 . S
C959 C18 1.489 . S
C963 C480 1.522 . S
C981 C510 0.791 . S
C977 C40 0.800 . S
C999 C569 1.466 1_556 S
C995 C53 1.483 . S
C1013 C5 0.793 . S
C1017 C582 0.888 . S
C1031 C61 1.006 . S
C1035 C365 1.205 1_565 S
C1049 C74 1.150 . S
C1053 C383 1.182 . S
C1071 C404 1.445 . S
C1067 C89 1.148 . S
C1089 C442 0.754 . S
C1085 C109 0.741 . S
C1103 C68 1.172 . S
C1107 C476 1.147 . S
C1125 C506 1.528 . S
C1121 C81 1.548 . S
C1143 C553 1.116 . S
C1139 C96 1.136 . S
C1161 C578 0.723 . S
C1157 C102 0.722 . S
C1179 C349 0.573 1_556 S
C1175 C103 0.695 . S
C1197 C608 1.534 . S
C1193 C117 1.354 . S
C1211 C130 1.323 . S
C1215 C650 1.391 . S
C1233 C693 0.486 . S
C1229 C152 0.471 . S
C1247 C60 1.294 . S
C1251 C574 1.329 . S
C1269 C412 1.394 . S
C1265 C82 1.396 . S
C1283 C137 1.222 . S
C1287 C710 1.251 . S
C1305 C761 1.457 . S
C1301 C165 1.444 . S
C1319 C172 0.946 1_455 S
C1323 C344 0.957 1_556 S
C1341 C744 1.852 . S
C1337 C194 1.862 . S
C1355 C207 0.785 . S
C1359 C417 0.785 . S
C1373 C215 1.406 . S
C1377 C727 1.634 . S
C1395 C489 1.595 . S
C1391 C186 1.589 . S
C1413 C655 0.798 . S
C1409 C201 0.790 . S
C1431 C540 1.521 . S
C1427 C221 1.514 . S
C1449 C795 0.879 . S
C1445 C180 0.881 . S
C1467 C336 1.252 1_655 S
C1463 C236 1.267 . S
C1481 C242 1.255 . S
C1485 C748 1.240 . S
C1503 C433 1.593 . S
C1499 C264 1.621 . S
C1517 C277 0.832 . S
C1521 C723 0.838 . S
C1535 C229 0.983 . S
C1539 C485 1.103 . S
C1553 C249 1.524 . S
C1557 C671 1.532 . S
C1575 C544 1.136 . S
C1571 C257 1.056 . S
C1589 C270 0.724 . S
C1593 C791 0.711 . S
C1607 C278 0.614 . S
C1611 C340 0.615 . S
C1625 C292 1.601 . S
C1629 C637 1.606 . S
C1643 C298 1.549 . S
C1647 C523 1.524 . S
C1661 C313 0.646 . S
C1665 C684 0.543 . S
C1683 C807 1.358 . S
C1679 C228 1.378 . S
C1701 C421 1.404 . S
C1697 C243 1.308 . S
C1719 C467 1.254 . S
C1715 C305 1.254 . S
C1737 C378 1.440 . S
C1733 C333 1.441 . S
C1751 C32 0.921 . S
C1755 C829 0.947 . S
C1773 C773 1.752 . S
C1769 C47 1.448 . S
C1791 C850 0.789 . S
C1787 C11 0.798 . S
C1805 C26 1.572 . S
C1809 C718 1.553 . S
C1823 C46 1.492 . S
C1827 C616 1.519 1_556 S
C1845 C646 0.790 . S
C1841 C12 0.796 . S
C1863 C705 1.482 . S
C1859 C25 1.476 . S
C1881 C786 0.891 . S
C1877 C33 0.798 . S
C1899 C841 1.203 . S
C1895 C159 1.005 . S
C1913 C116 1.151 . S
C1917 C757 1.183 . S
C1931 C131 1.182 . S
C1935 C846 1.472 . S
C1953 C714 0.727 . S
C1949 C151 0.735 . S
C1971 C612 1.161 . S
C1967 C166 1.177 . S
C1985 C123 1.545 . S
C1989 C642 1.533 . S
C2007 C689 1.116 . S
C2003 C138 1.137 . S
C2021 C144 0.708 . S
C2025 C782 0.709 . S
C2043 C825 0.604 . S
C2039 C145 0.739 . S
C2061 C472 1.531 1_565 S
C2057 C75 1.344 . S
C2079 C514 1.393 . S
C2075 C88 1.328 . S
C2093 C110 0.454 . S
C2097 C557 0.479 . S
C2115 C778 1.318 . S
C2111 C158 1.280 . S
C2129 C124 1.393 . S
C2133 C854 1.385 . S
C2151 C438 1.247 . S
C2147 C95 1.235 . S
C2169 C387 1.459 . S
C2165 C67 1.436 . S
C2183 C200 0.962 . S
C2187 C820 0.955 . S
C2205 C370 1.852 . S
C2201 C222 1.865 . S
C2223 C859 0.782 . S
C2219 C179 0.779 . S
C2237 C187 1.423 . S
C2241 C455 1.638 . S
C2255 C214 1.588 . S
C2259 C625 1.595 . S
C2273 C173 0.795 . S
C2277 C519 0.790 . S
C2291 C193 1.508 . S
C2295 C676 1.518 . S
C2309 C208 0.882 . S
C2313 C591 0.876 . S
C2331 C812 1.252 . S
C2327 C334 1.267 . S
C2345 C284 1.254 . S
C2349 C374 1.237 . S
C2367 C875 1.585 . S
C2363 C306 1.616 . S
C2381 C319 0.807 . S
C2385 C451 0.817 . S
C2399 C327 0.991 . S
C2403 C621 1.098 . S
C2421 C535 1.523 . S
C2417 C291 1.517 . S
C2435 C299 1.028 . S
C2439 C680 1.137 . S
C2457 C587 0.721 . S
C2453 C312 0.725 . S
C2475 C816 0.615 . S
C2471 C320 0.611 . S
C2493 C501 1.605 . S
C2489 C250 1.597 . S
C2507 C256 1.551 . S
C2511 C659 1.514 . S
C2529 C548 0.523 1_565 S
C2525 C271 0.688 . S
C2547 C603 1.369 . S
C2543 C326 1.375 . S
C2561 C285 1.303 1_554 S
C2565 C863 1.405 . S
C2583 C739 1.250 . S
C2579 C263 1.250 . S
C2601 C752 1.441 . S
C2597 C235 1.441 . S
