# Generated by pormake.
# Topology cor, (4,6)-cn, num edge types: 1
# Building blocks:
#     Node 0, Type 0, BuildingBlock: NAHDIM_clean_sbu_0, # of connection points: 4
#     Node 1, Type 0, BuildingBlock: NAHDIM_clean_sbu_0, # of connection points: 4
#     Node 2, Type 0, BuildingBlock: NAHDIM_clean_sbu_0, # of connection points: 4
#     Node 3, Type 0, BuildingBlock: NAHDIM_clean_sbu_0, # of connection points: 4
#     Node 4, Type 0, BuildingBlock: NAHDIM_clean_sbu_0, # of connection points: 4
#     Node 5, Type 0, BuildingBlock: NAHDIM_clean_sbu_0, # of connection points: 4
#     Node 6, Type 0, BuildingBlock: NAHDIM_clean_sbu_0, # of connection points: 4
#     Node 7, Type 0, BuildingBlock: NAHDIM_clean_sbu_0, # of connection points: 4
#     Node 8, Type 0, BuildingBlock: NAHDIM_clean_sbu_0, # of connection points: 4
#     Node 9, Type 0, BuildingBlock: NAHDIM_clean_sbu_0, # of connection points: 4
#     Node 10, Type 0, BuildingBlock: NAHDIM_clean_sbu_0, # of connection points: 4
#     Node 11, Type 0, BuildingBlock: NAHDIM_clean_sbu_0, # of connection points: 4
#     Node 12, Type 0, BuildingBlock: NAHDIM_clean_sbu_0, # of connection points: 4
#     Node 13, Type 0, BuildingBlock: NAHDIM_clean_sbu_0, # of connection points: 4
#     Node 14, Type 0, BuildingBlock: NAHDIM_clean_sbu_0, # of connection points: 4
#     Node 15, Type 0, BuildingBlock: NAHDIM_clean_sbu_0, # of connection points: 4
#     Node 16, Type 0, BuildingBlock: NAHDIM_clean_sbu_0, # of connection points: 4
#     Node 17, Type 0, BuildingBlock: NAHDIM_clean_sbu_0, # of connection points: 4
#     Node 18, Type 1, BuildingBlock: MIDCAF_clean_sbu_0, # of connection points: 6
#     Node 19, Type 1, BuildingBlock: MIDCAF_clean_sbu_0, # of connection points: 6
#     Node 20, Type 1, BuildingBlock: MIDCAF_clean_sbu_0, # of connection points: 6
#     Node 21, Type 1, BuildingBlock: MIDCAF_clean_sbu_0, # of connection points: 6
#     Node 22, Type 1, BuildingBlock: MIDCAF_clean_sbu_0, # of connection points: 6
#     Node 23, Type 1, BuildingBlock: MIDCAF_clean_sbu_0, # of connection points: 6
#     Node 24, Type 1, BuildingBlock: MIDCAF_clean_sbu_0, # of connection points: 6
#     Node 25, Type 1, BuildingBlock: MIDCAF_clean_sbu_0, # of connection points: 6
#     Node 26, Type 1, BuildingBlock: MIDCAF_clean_sbu_0, # of connection points: 6
#     Node 27, Type 1, BuildingBlock: MIDCAF_clean_sbu_0, # of connection points: 6
#     Node 28, Type 1, BuildingBlock: MIDCAF_clean_sbu_0, # of connection points: 6
#     Node 29, Type 1, BuildingBlock: MIDCAF_clean_sbu_0, # of connection points: 6
#     Edge 30, Type (0, 1), BuildingBlock: CIFDUS_clean_linker_0, # of connection points: 2
#     Edge 31, Type (0, 1), BuildingBlock: CIFDUS_clean_linker_0, # of connection points: 2
#     Edge 32, Type (0, 1), BuildingBlock: CIFDUS_clean_linker_0, # of connection points: 2
#     Edge 33, Type (0, 1), BuildingBlock: CIFDUS_clean_linker_0, # of connection points: 2
#     Edge 34, Type (0, 1), BuildingBlock: CIFDUS_clean_linker_0, # of connection points: 2
#     Edge 35, Type (0, 1), BuildingBlock: CIFDUS_clean_linker_0, # of connection points: 2
#     Edge 36, Type (0, 1), BuildingBlock: CIFDUS_clean_linker_0, # of connection points: 2
#     Edge 37, Type (0, 1), BuildingBlock: CIFDUS_clean_linker_0, # of connection points: 2
#     Edge 38, Type (0, 1), BuildingBlock: CIFDUS_clean_linker_0, # of connection points: 2
#     Edge 39, Type (0, 1), BuildingBlock: CIFDUS_clean_linker_0, # of connection points: 2
#     Edge 40, Type (0, 1), BuildingBlock: CIFDUS_clean_linker_0, # of connection points: 2
#     Edge 41, Type (0, 1), BuildingBlock: CIFDUS_clean_linker_0, # of connection points: 2
#     Edge 42, Type (0, 1), BuildingBlock: CIFDUS_clean_linker_0, # of connection points: 2
#     Edge 43, Type (0, 1), BuildingBlock: CIFDUS_clean_linker_0, # of connection points: 2
#     Edge 44, Type (0, 1), BuildingBlock: CIFDUS_clean_linker_0, # of connection points: 2
#     Edge 45, Type (0, 1), BuildingBlock: CIFDUS_clean_linker_0, # of connection points: 2
#     Edge 46, Type (0, 1), BuildingBlock: CIFDUS_clean_linker_0, # of connection points: 2
#     Edge 47, Type (0, 1), BuildingBlock: CIFDUS_clean_linker_0, # of connection points: 2
#     Edge 48, Type (0, 1), BuildingBlock: CIFDUS_clean_linker_0, # of connection points: 2
#     Edge 49, Type (0, 1), BuildingBlock: CIFDUS_clean_linker_0, # of connection points: 2
#     Edge 50, Type (0, 1), BuildingBlock: CIFDUS_clean_linker_0, # of connection points: 2
#     Edge 51, Type (0, 1), BuildingBlock: CIFDUS_clean_linker_0, # of connection points: 2
#     Edge 52, Type (0, 1), BuildingBlock: CIFDUS_clean_linker_0, # of connection points: 2
#     Edge 53, Type (0, 1), BuildingBlock: CIFDUS_clean_linker_0, # of connection points: 2
#     Edge 54, Type (0, 1), BuildingBlock: CIFDUS_clean_linker_0, # of connection points: 2
#     Edge 55, Type (0, 1), BuildingBlock: CIFDUS_clean_linker_0, # of connection points: 2
#     Edge 56, Type (0, 1), BuildingBlock: CIFDUS_clean_linker_0, # of connection points: 2
#     Edge 57, Type (0, 1), BuildingBlock: CIFDUS_clean_linker_0, # of connection points: 2
#     Edge 58, Type (0, 1), BuildingBlock: CIFDUS_clean_linker_0, # of connection points: 2
#     Edge 59, Type (0, 1), BuildingBlock: CIFDUS_clean_linker_0, # of connection points: 2
#     Edge 60, Type (0, 1), BuildingBlock: CIFDUS_clean_linker_0, # of connection points: 2
#     Edge 61, Type (0, 1), BuildingBlock: CIFDUS_clean_linker_0, # of connection points: 2
#     Edge 62, Type (0, 1), BuildingBlock: CIFDUS_clean_linker_0, # of connection points: 2
#     Edge 63, Type (0, 1), BuildingBlock: CIFDUS_clean_linker_0, # of connection points: 2
#     Edge 64, Type (0, 1), BuildingBlock: CIFDUS_clean_linker_0, # of connection points: 2
#     Edge 65, Type (0, 1), BuildingBlock: CIFDUS_clean_linker_0, # of connection points: 2
#     Edge 66, Type (0, 1), BuildingBlock: CIFDUS_clean_linker_0, # of connection points: 2
#     Edge 67, Type (0, 1), BuildingBlock: CIFDUS_clean_linker_0, # of connection points: 2
#     Edge 68, Type (0, 1), BuildingBlock: CIFDUS_clean_linker_0, # of connection points: 2
#     Edge 69, Type (0, 1), BuildingBlock: CIFDUS_clean_linker_0, # of connection points: 2
#     Edge 70, Type (0, 1), BuildingBlock: CIFDUS_clean_linker_0, # of connection points: 2
#     Edge 71, Type (0, 1), BuildingBlock: CIFDUS_clean_linker_0, # of connection points: 2
#     Edge 72, Type (0, 1), BuildingBlock: CIFDUS_clean_linker_0, # of connection points: 2
#     Edge 73, Type (0, 1), BuildingBlock: CIFDUS_clean_linker_0, # of connection points: 2
#     Edge 74, Type (0, 1), BuildingBlock: CIFDUS_clean_linker_0, # of connection points: 2
#     Edge 75, Type (0, 1), BuildingBlock: CIFDUS_clean_linker_0, # of connection points: 2
#     Edge 76, Type (0, 1), BuildingBlock: CIFDUS_clean_linker_0, # of connection points: 2
#     Edge 77, Type (0, 1), BuildingBlock: CIFDUS_clean_linker_0, # of connection points: 2
#     Edge 78, Type (0, 1), BuildingBlock: CIFDUS_clean_linker_0, # of connection points: 2
#     Edge 79, Type (0, 1), BuildingBlock: CIFDUS_clean_linker_0, # of connection points: 2
#     Edge 80, Type (0, 1), BuildingBlock: CIFDUS_clean_linker_0, # of connection points: 2
#     Edge 81, Type (0, 1), BuildingBlock: CIFDUS_clean_linker_0, # of connection points: 2
#     Edge 82, Type (0, 1), BuildingBlock: CIFDUS_clean_linker_0, # of connection points: 2
#     Edge 83, Type (0, 1), BuildingBlock: CIFDUS_clean_linker_0, # of connection points: 2
#     Edge 84, Type (0, 1), BuildingBlock: CIFDUS_clean_linker_0, # of connection points: 2
#     Edge 85, Type (0, 1), BuildingBlock: CIFDUS_clean_linker_0, # of connection points: 2
#     Edge 86, Type (0, 1), BuildingBlock: CIFDUS_clean_linker_0, # of connection points: 2
#     Edge 87, Type (0, 1), BuildingBlock: CIFDUS_clean_linker_0, # of connection points: 2
#     Edge 88, Type (0, 1), BuildingBlock: CIFDUS_clean_linker_0, # of connection points: 2
#     Edge 89, Type (0, 1), BuildingBlock: CIFDUS_clean_linker_0, # of connection points: 2
#     Edge 90, Type (0, 1), BuildingBlock: CIFDUS_clean_linker_0, # of connection points: 2
#     Edge 91, Type (0, 1), BuildingBlock: CIFDUS_clean_linker_0, # of connection points: 2
#     Edge 92, Type (0, 1), BuildingBlock: CIFDUS_clean_linker_0, # of connection points: 2
#     Edge 93, Type (0, 1), BuildingBlock: CIFDUS_clean_linker_0, # of connection points: 2
#     Edge 94, Type (0, 1), BuildingBlock: CIFDUS_clean_linker_0, # of connection points: 2
#     Edge 95, Type (0, 1), BuildingBlock: CIFDUS_clean_linker_0, # of connection points: 2
#     Edge 96, Type (0, 1), BuildingBlock: CIFDUS_clean_linker_0, # of connection points: 2
#     Edge 97, Type (0, 1), BuildingBlock: CIFDUS_clean_linker_0, # of connection points: 2
#     Edge 98, Type (0, 1), BuildingBlock: CIFDUS_clean_linker_0, # of connection points: 2
#     Edge 99, Type (0, 1), BuildingBlock: CIFDUS_clean_linker_0, # of connection points: 2
#     Edge 100, Type (0, 1), BuildingBlock: CIFDUS_clean_linker_0, # of connection points: 2
#     Edge 101, Type (0, 1), BuildingBlock: CIFDUS_clean_linker_0, # of connection points: 2
# Relax obj value: 0.159
# Max RMSD: 0.190
# Mean RMSD: 0.174
data_MOF--net-cor--node1-NAHDIM_clean_sbu_0--node2-MIDCAF_clean_sbu_0--edge1-CIFDUS_clean_linker_0
_symmetry_space_group_name_H-M    P1
_symmetry_Int_Tables_number       1
_symmetry_cell_setting            triclinic
loop_
_symmetry_equiv_pos_as_xyz
'x, y, z'
_cell_length_a     34.481587
_cell_length_b     34.154567
_cell_length_c     84.481186
_cell_angle_alpha  91.31261
_cell_angle_beta   89.384551
_cell_angle_gamma 121.39481
loop_
_atom_site_label
_atom_site_type_symbol
_atom_site_fract_x
_atom_site_fract_y
_atom_site_fract_z
_atom_type_partial_charge
C0 C 0.65765 0.04187 0.25472 0.0
O1 O 0.6487 0.01365 0.24259 0.0
O2 O 0.64286 0.92949 0.27654 0.0
Zn3 Zn 0.69437 0.99047 0.26866 0.0
O4 O 0.71942 0.98667 0.24707 0.0
C5 C 0.73809 0.00071 0.29921 0.0
O6 O 0.69644 0.97183 0.30394 0.0
O7 O 0.67526 0.03704 0.26714 0.0
C8 C 0.73035 0.95739 0.24335 0.0
O9 O 0.72467 0.92685 0.25376 0.0
C10 C 0.62115 0.89229 0.26854 0.0
O11 O 0.62947 0.89221 0.25334 0.0
O12 O 0.745 0.01362 0.28488 0.0
C13 C 0.08542 0.75034 0.29347 0.0
O14 O 0.05563 0.739 0.30493 0.0
O15 O 0.97015 0.69504 0.26845 0.0
Zn16 Zn 0.01749 0.75732 0.27675 0.0
O17 O 0.00036 0.77342 0.29768 0.0
C18 C 0.01714 0.79532 0.24603 0.0
O19 O 0.00543 0.75461 0.24023 0.0
O20 O 0.07653 0.75958 0.27996 0.0
C21 C 0.96451 0.74937 0.30572 0.0
O22 O 0.93229 0.70931 0.30017 0.0
C23 C 0.932 0.6856 0.26288 0.0
O24 O 0.92056 0.71676 0.26355 0.0
O25 O 0.02505 0.80373 0.2608 0.0
C26 C 0.36028 0.25493 0.26098 0.0
O27 O 0.32834 0.21537 0.25498 0.0
O28 O 0.28056 0.32016 0.27016 0.0
Zn29 Zn 0.28334 0.26247 0.27057 0.0
O30 O 0.24804 0.22019 0.25214 0.0
C31 C 0.27126 0.21625 0.30131 0.0
O32 O 0.30885 0.21677 0.29804 0.0
O33 O 0.349 0.28009 0.26859 0.0
C34 C 0.25467 0.2342 0.23796 0.0
O35 O 0.28395 0.27768 0.23524 0.0
C36 C 0.25265 0.32449 0.27891 0.0
O37 O 0.22377 0.29003 0.28764 0.0
O38 O 0.25563 0.23206 0.29141 0.0
C39 C 0.28663 0.93273 0.78539 0.0
O40 O 0.30285 0.96973 0.79447 0.0
O41 O 0.34446 0.03947 0.76234 0.0
Zn42 Zn 0.27818 0.99305 0.76617 0.0
O43 O 0.25172 0.00845 0.78519 0.0
C44 C 0.26142 0.02594 0.73768 0.0
O45 O 0.29588 0.06424 0.74342 0.0
O46 O 0.27307 0.93348 0.7715 0.0
C47 C 0.2439 0.0408 0.78645 0.0
O48 O 0.25311 0.06822 0.77449 0.0
C49 C 0.36579 0.08029 0.76787 0.0
O50 O 0.34592 0.09297 0.77837 0.0
O51 O 0.24574 0.98935 0.74561 0.0
C52 C 0.95285 0.3073 0.7484 0.0
O53 O 0.9819 0.30744 0.73822 0.0
O54 O 0.06345 0.33321 0.77173 0.0
Zn55 Zn -0.00094 0.27932 0.76924 0.0
O56 O -0.00756 0.23374 0.75219 0.0
C57 C 0.01009 0.25527 0.8011 0.0
O58 O 0.05207 0.28929 0.79916 0.0
O59 O 0.95479 0.2984 0.76285 0.0
C60 C 0.01529 0.24221 0.73948 0.0
O61 O 0.05055 0.28347 0.73726 0.0
C62 C 0.08706 0.36568 0.76232 0.0
O63 O 0.06966 0.36757 0.74883 0.0
O64 O 0.98105 0.24564 0.79017 0.0
C65 C 0.69333 0.76867 0.7771 0.0
O66 O 0.72204 0.78634 0.78898 0.0
O67 O 0.74747 0.68675 0.75722 0.0
Zn68 Zn 0.75972 0.74821 0.76524 0.0
O69 O 0.78537 0.76343 0.78749 0.0
C70 C 0.80265 0.78634 0.7354 0.0
O71 O 0.76338 0.75415 0.72955 0.0
O72 O 0.70267 0.75136 0.76522 0.0
C73 C 0.79309 0.74035 0.79718 0.0
O74 O 0.78624 0.70003 0.79288 0.0
C75 C 0.78276 0.68473 0.75454 0.0
O76 O 0.82276 0.72 0.75852 0.0
O77 O 0.80744 0.79273 0.75033 0.0
C78 C 0.4163 0.44409 0.58091 0.0
O79 O 0.40937 0.41202 0.57046 0.0
O80 O 0.37893 0.33079 0.60725 0.0
Zn81 Zn 0.43668 0.38862 0.60017 0.0
O82 O 0.45986 0.37583 0.57982 0.0
C83 C 0.47717 0.40815 0.63172 0.0
O84 O 0.43592 0.39609 0.63628 0.0
O85 O 0.42666 0.44089 0.59508 0.0
C86 C 0.45422 0.33863 0.5739 0.0
O87 O 0.43205 0.30058 0.58191 0.0
C88 C 0.34915 0.30553 0.59697 0.0
O89 O 0.35543 0.31902 0.58223 0.0
O90 O 0.48539 0.40848 0.61698 0.0
C91 C 0.79276 0.10579 0.60708 0.0
O92 O 0.79819 0.14278 0.61432 0.0
O93 O 0.653 0.04949 0.5878 0.0
Zn94 Zn 0.71458 0.10361 0.59459 0.0
O95 O 0.70964 0.13169 0.61546 0.0
C96 C 0.73194 0.13976 0.56277 0.0
O97 O 0.71095 0.09619 0.55852 0.0
O98 O 0.75916 0.08311 0.59775 0.0
C99 C 0.69074 0.10654 0.62738 0.0
O100 O 0.6731 0.06203 0.62589 0.0
C101 C 0.61613 0.0474 0.59155 0.0
O102 O 0.6177 0.08069 0.60018 0.0
O103 O 0.73761 0.15078 0.57743 0.0
C104 C 0.01091 0.61306 0.56896 0.0
O105 O -0.00811 0.62522 0.55831 0.0
O106 O 0.95741 0.6677 0.59664 0.0
Zn107 Zn 0.93599 0.60455 0.58744 0.0
O108 O 0.90315 0.59627 0.56676 0.0
C109 C 0.8919 0.55826 0.61739 0.0
O110 O 0.92332 0.5964 0.62435 0.0
O111 O -0.00747 0.60135 0.58258 0.0
C112 C 0.87235 0.60547 0.56448 0.0
O113 O 0.85942 0.62174 0.57627 0.0
C114 C 0.93482 0.6801 0.60514 0.0
O115 O 0.89244 0.64997 0.60875 0.0
O116 O 0.89214 0.55428 0.60236 0.0
C117 C 0.92719 0.26483 0.10952 0.0
O118 O 0.93438 0.29255 0.12164 0.0
O119 O 0.9902 0.39115 0.09177 0.0
Zn120 Zn 0.92696 0.33781 0.09429 0.0
O121 O 0.89758 0.34372 0.11419 0.0
C122 C 0.89845 0.32746 0.0614 0.0
O123 O 0.92081 0.30623 0.05933 0.0
O124 O 0.92441 0.27735 0.0957 0.0
C125 C 0.91783 0.37053 0.12594 0.0
O126 O 0.96138 0.40144 0.12503 0.0
C127 C 0.02619 0.39209 0.09545 0.0
O128 O 0.02334 0.35655 0.10232 0.0
O129 O 0.8945 0.34055 0.07521 0.0
C130 C 0.58182 0.61982 0.08748 0.0
O131 O 0.60779 0.61963 0.07602 0.0
O132 O 0.69886 0.65449 0.10981 0.0
Zn133 Zn 0.63613 0.59716 0.10672 0.0
O134 O 0.63387 0.55781 0.08803 0.0
C135 C 0.61864 0.57103 0.14073 0.0
O136 O 0.63386 0.61435 0.1442 0.0
O137 O 0.58931 0.6135 0.10167 0.0
C138 C 0.59532 0.52138 0.08586 0.0
O139 O 0.56255 0.51175 0.09603 0.0
C140 C 0.72642 0.66111 0.12098 0.0
O141 O 0.71598 0.62864 0.13117 0.0
O142 O 0.61688 0.55813 0.12635 0.0
C143 C 0.31811 0.08874 0.12539 0.0
O144 O 0.34352 0.08492 0.13598 0.0
O145 O 0.36599 0.02282 0.10048 0.0
Zn146 Zn 0.38401 0.08804 0.10448 0.0
O147 O 0.42912 0.11431 0.12249 0.0
C148 C 0.43494 0.10718 0.07576 0.0
O149 O 0.43897 0.07364 0.08108 0.0
O150 O 0.32881 0.09105 0.11081 0.0
C151 C 0.45816 0.10293 0.12507 0.0
O152 O 0.46125 0.07443 0.11519 0.0
C153 C 0.35849 0.99389 0.11104 0.0
O154 O 0.35871 0.00512 0.12603 0.0
O155 O 0.41291 0.12099 0.08397 0.0
C156 C 0.04681 0.72734 0.91161 0.0
O157 O 0.02225 0.6871 0.9045 0.0
O158 O 0.00296 0.62234 0.93318 0.0
Zn159 Zn 0.0678 0.67139 0.92885 0.0
O160 O 0.0899 0.65302 0.90939 0.0
C161 C 0.09283 0.67427 0.96222 0.0
O162 O 0.05658 0.67653 0.96523 0.0
O163 O 0.07017 0.7305 0.9237 0.0
C164 C 0.11702 0.68301 0.89967 0.0
O165 O 0.13194 0.7265 0.90267 0.0
C166 C -0.00757 0.58686 0.94109 0.0
O167 O 0.02467 0.58077 0.94625 0.0
O168 O 0.10517 0.67494 0.9479 0.0
C169 C 0.39777 0.40611 0.95875 0.0
O170 O 0.3597 0.39176 0.96657 0.0
O171 O 0.29561 0.35963 0.9327 0.0
Zn172 Zn 0.34962 0.42356 0.93551 0.0
O173 O 0.33693 0.45987 0.9515 0.0
C174 C 0.35386 0.43871 0.9009 0.0
O175 O 0.32427 0.39456 0.89934 0.0
O176 O 0.40122 0.42039 0.94472 0.0
C177 C 0.31867 0.48245 0.94786 0.0
O178 O 0.3057 0.48081 0.93316 0.0
C179 C 0.25801 0.34906 0.92633 0.0
O180 O 0.25197 0.38162 0.92131 0.0
O181 O 0.36847 0.45648 0.9146 0.0
C182 C 0.69143 0.94896 0.92676 0.0
O183 O 0.67157 0.95262 0.9142 0.0
O184 O 0.62377 0.00798 0.93779 0.0
Zn185 Zn 0.61417 0.94486 0.94029 0.0
O186 O 0.57656 0.90182 0.92226 0.0
C187 C 0.59282 0.92482 0.97507 0.0
O188 O 0.63542 0.93854 0.97802 0.0
O189 O 0.67397 0.94682 0.94032 0.0
C190 C 0.57277 0.91413 0.90853 0.0
O191 O 0.59142 0.95801 0.90568 0.0
C192 C 0.59157 0.01325 0.94254 0.0
O193 O 0.55321 0.97734 0.94711 0.0
O194 O 0.57962 0.92285 0.9609 0.0
C195 C 0.67265 0.63839 0.43284 0.0
O196 O 0.67604 0.65511 0.4187 0.0
O197 O 0.67703 0.75223 0.43533 0.0
Zn198 Zn 0.62726 0.688 0.44055 0.0
O199 O 0.5929 0.68501 0.46062 0.0
C200 C 0.59481 0.68367 0.40843 0.0
O201 O 0.63573 0.71951 0.40646 0.0
O202 O 0.65362 0.64829 0.44385 0.0
C203 C 0.61176 0.70665 0.47345 0.0
O204 O 0.65602 0.73481 0.47387 0.0
C205 C 0.67518 0.78814 0.43761 0.0
O206 O 0.64075 0.78568 0.44534 0.0
O207 O 0.5839 0.66396 0.42177 0.0
C208 C 0.24211 0.95009 0.41655 0.0
O209 O 0.27689 0.96393 0.40695 0.0
O210 O 0.35456 0.01076 0.43451 0.0
Zn211 Zn 0.30493 0.9442 0.43501 0.0
O212 O 0.31108 0.90639 0.41748 0.0
C213 C 0.34484 0.93192 0.46269 0.0
O214 O 0.38204 0.95991 0.45489 0.0
O215 O 0.2455 0.93968 0.43063 0.0
C216 C 0.3387 0.92143 0.40591 0.0
O217 O 0.36973 0.96533 0.40536 0.0
C218 C 0.35948 0.03663 0.44636 0.0
O219 O 0.33164 0.01939 0.45843 0.0
O220 O 0.30646 0.9194 0.45647 0.0
C221 C 0.97241 0.33892 0.4571 0.0
O222 O -0.00233 0.33642 0.46807 0.0
O223 O 0.08011 0.34826 0.44288 0.0
Zn224 Zn 0.05863 0.39271 0.44152 0.0
O225 O 0.08715 0.44377 0.45795 0.0
C226 C 0.07108 0.3993 0.40709 0.0
O227 O 0.04868 0.35425 0.40724 0.0
O228 O -0.00912 0.35983 0.44437 0.0
C229 C 0.09425 0.44126 0.47254 0.0
O230 O 0.08493 0.40186 0.47827 0.0
C231 C 0.11345 0.35311 0.43466 0.0
O232 O 0.13773 0.39038 0.42643 0.0
O233 O 0.0766 0.42159 0.42001 0.0
Zn234 Zn 0.97776 -7e-05 0.13003 0.0
Zn235 Zn -0.00272 0.04097 0.18412 0.0
Zn236 Zn 0.98482 0.00962 0.15934 0.0
C237 C -0.00794 0.95582 0.18505 0.0
C238 C 0.07395 0.09893 0.17356 0.0
O239 O 0.94647 0.04152 0.15158 0.0
O240 O 0.954 0.03996 0.12564 0.0
C241 C 0.92976 0.91153 0.14349 0.0
O242 O 0.96934 0.94858 0.17221 0.0
O243 O 0.01348 -0.00409 0.19105 0.0
O244 O 0.04643 0.10546 0.18137 0.0
O245 O 0.05852 0.06154 0.16521 0.0
O246 O 0.93545 0.93315 0.1309 0.0
O247 O 0.94915 0.93387 0.15638 0.0
O248 O 0.05441 0.04443 0.14913 0.0
O249 O 0.04132 0.02333 0.12395 0.0
C250 C 0.06916 0.0437 0.13512 0.0
O251 O 0.93072 0.0257 0.16688 0.0
O252 O 0.94045 0.02999 0.19274 0.0
C253 C 0.94175 0.05335 0.13766 0.0
C254 C 0.91663 0.02668 0.18105 0.0
Zn255 Zn -0.00608 0.0115 0.35586 0.0
Zn256 Zn 0.9871 0.01962 0.41146 0.0
Zn257 Zn -0.00723 0.01909 0.38166 0.0
C258 C 0.04633 0.11081 0.4023 0.0
C259 C 0.89891 0.98151 0.40031 0.0
O260 O 0.00401 0.9623 0.37495 0.0
O261 O 0.95862 0.94328 0.35449 0.0
C262 C 0.0755 0.08206 0.36163 0.0
O263 O 0.03981 0.09187 0.38845 0.0
O264 O 0.026 0.08653 0.41413 0.0
O265 O 0.92084 0.99095 0.4131 0.0
O266 O 0.92007 0.99166 0.38694 0.0
O267 O 0.06122 0.04471 0.35408 0.0
O268 O 0.04973 0.08456 0.37227 0.0
O269 O 0.9274 0.00589 0.37098 0.0
O270 O 0.96277 0.04366 0.34971 0.0
C271 C 0.92744 0.02567 0.35813 0.0
O272 O 0.01789 0.97613 0.3908 0.0
O273 O 0.01427 0.98284 0.41677 0.0
C274 C 0.97965 0.93299 0.36401 0.0
C275 C 0.02556 0.96797 0.40489 0.0
Zn276 Zn 0.01316 0.0036 0.90827 0.0
Zn277 Zn 0.00235 0.00804 0.85386 0.0
Zn278 Zn 0.00942 0.00708 0.87923 0.0
C279 C -0.00125 0.07866 0.86134 0.0
C280 C 0.93591 0.92632 0.85962 0.0
O281 O 0.04936 0.97395 0.883 0.0
O282 O 0.03556 0.96092 0.90857 0.0
C283 C 0.06273 0.09621 0.90055 0.0
O284 O 0.02527 0.07612 0.8714 0.0
O285 O 0.97048 0.04266 0.85382 0.0
O286 O 0.96839 0.94078 0.84997 0.0
O287 O 0.93958 0.95203 0.87163 0.0
O288 O 0.05822 0.06952 0.91147 0.0
O289 O 0.0424 0.07959 0.88721 0.0
O290 O 0.93794 0.96701 0.88701 0.0
O291 O 0.94822 0.98162 0.9127 0.0
C292 C 0.9217 0.96577 0.90094 0.0
O293 O 0.06024 0.99377 0.86768 0.0
O294 O 0.06834 0.0425 0.84962 0.0
C295 C 0.05192 0.95569 0.89582 0.0
C296 C 0.0834 0.02035 0.85623 0.0
Zn297 Zn 0.04751 0.03092 0.67975 0.0
Zn298 Zn 0.03961 0.02014 0.62333 0.0
Zn299 Zn 0.04264 0.02726 0.65216 0.0
C300 C 0.0087 0.93382 0.63275 0.0
C301 C 0.12876 0.08417 0.63014 0.0
O302 O 0.01686 0.07185 0.66078 0.0
O303 O 0.00573 0.05105 0.68565 0.0
C304 C -0.00371 0.94171 0.67598 0.0
O305 O 0.00423 0.95289 0.6454 0.0
O306 O 0.02966 0.9581 0.62103 0.0
O307 O 0.10076 0.07228 0.6189 0.0
O308 O 0.1145 0.06607 0.64381 0.0
O309 O 0.02539 0.96796 0.68609 0.0
O310 O -0.00315 0.95725 0.66213 0.0
O311 O 0.11445 0.05399 0.66024 0.0
O312 O 0.11128 0.0749 0.68483 0.0
C313 C 0.13396 0.07162 0.67369 0.0
O314 O 0.00756 0.06212 0.64409 0.0
O315 O 0.98752 0.02883 0.62047 0.0
C316 C 0.00272 0.07389 0.67478 0.0
C317 C 0.98415 0.05305 0.63128 0.0
Zn318 Zn 0.69014 0.35827 0.50807 0.0
Zn319 Zn 0.66963 0.34094 0.45194 0.0
Zn320 Zn 0.67618 0.3462 0.48205 0.0
C321 C 0.73377 0.318 0.45976 0.0
C322 C 0.58367 0.27667 0.46458 0.0
O323 O 0.6089 0.31305 0.49382 0.0
O324 O 0.6373 0.36373 0.51343 0.0
C325 C 0.74791 0.43958 0.49863 0.0
O326 O 0.71974 0.31998 0.4738 0.0
O327 O 0.71838 0.32771 0.44795 0.0
O328 O 0.60595 0.28878 0.45181 0.0
O329 O 0.60327 0.29675 0.47773 0.0
O330 O 0.75054 0.41417 0.50855 0.0
O331 O 0.71604 0.42157 0.48814 0.0
O332 O 0.71245 0.31126 0.48994 0.0
O333 O 0.6887 0.30329 0.51463 0.0
C334 C 0.70765 0.29364 0.5037 0.0
O335 O 0.69704 0.41536 0.47319 0.0
O336 O 0.68151 0.40306 0.44762 0.0
C337 C 0.6031 0.33258 0.50606 0.0
C338 C 0.69419 0.42989 0.45953 0.0
Zn339 Zn 0.6802 0.35985 0.73726 0.0
Zn340 Zn 0.63245 0.30118 0.68872 0.0
Zn341 Zn 0.67117 0.33889 0.71078 0.0
C342 C 0.60767 0.36259 0.69591 0.0
C343 C 0.70678 0.38637 0.67929 0.0
O344 O 0.72659 0.3286 0.71668 0.0
O345 O 0.71569 0.33095 0.74231 0.0
C346 C 0.58947 0.29558 0.73394 0.0
O347 O 0.65003 0.38326 0.69983 0.0
O348 O 0.58599 0.31937 0.69392 0.0
O349 O 0.68576 0.34532 0.67406 0.0
O350 O 0.69691 0.39418 0.69335 0.0
O351 O 0.61495 0.32789 0.74341 0.0
O352 O 0.60541 0.29123 0.72075 0.0
O353 O 0.69457 0.41294 0.70953 0.0
O354 O 0.71428 0.42715 0.73476 0.0
C355 C 0.7131 0.4416 0.72126 0.0
O356 O 0.69981 0.30071 0.69994 0.0
O357 O 0.631 0.24355 0.69464 0.0
C358 C 0.73547 0.32375 0.73095 0.0
C359 C 0.67331 0.25902 0.69516 0.0
Zn360 Zn 0.70108 0.35773 0.23686 0.0
Zn361 Zn 0.69021 0.36063 0.1848 0.0
Zn362 Zn 0.68673 0.35448 0.2107 0.0
C363 C 0.65827 0.41562 0.19422 0.0
C364 C 0.62354 0.27192 0.18957 0.0
O365 O 0.65019 0.28272 0.22006 0.0
O366 O 0.70323 0.30076 0.23783 0.0
C367 C 0.74529 0.44329 0.22813 0.0
O368 O 0.67632 0.41273 0.20705 0.0
O369 O 0.65534 0.3911 0.18237 0.0
O370 O 0.65589 0.29337 0.17994 0.0
O371 O 0.62465 0.29069 0.2031 0.0
O372 O 0.75699 0.41833 0.23478 0.0
O373 O 0.70826 0.42393 0.22003 0.0
O374 O 0.61984 0.30451 0.21993 0.0
O375 O 0.63853 0.35139 0.24052 0.0
C376 C 0.60765 0.32008 0.23184 0.0
O377 O 0.74878 0.35678 0.2046 0.0
O378 O 0.75803 0.39797 0.18391 0.0
C379 C 0.67 0.27024 0.22983 0.0
C380 C 0.77421 0.38261 0.19359 0.0
Zn381 Zn 0.66103 0.33356 0.01923 0.0
Zn382 Zn 0.65392 0.34319 0.96191 0.0
Zn383 Zn 0.65764 0.33889 0.99166 0.0
C384 C 0.61747 0.25148 0.96817 0.0
C385 C 0.74492 0.39447 0.96928 0.0
O386 O 0.63035 0.37912 1.00335 0.0
O387 O 0.61521 0.34747 0.02676 0.0
C388 C 0.61503 0.24642 1.01199 0.0
O389 O 0.61995 0.26732 0.98234 0.0
O390 O 0.63186 0.27844 0.95668 0.0
O391 O 0.71811 0.38758 0.95808 0.0
O392 O 0.72902 0.3757 0.98276 0.0
O393 O 0.64483 0.26964 0.02231 0.0
O394 O 0.61314 0.26637 0.99948 0.0
O395 O 0.72957 0.36719 0.99922 0.0
O396 O 0.72395 0.38111 0.02444 0.0
C397 C 0.74829 0.38358 1.01284 0.0
O398 O 0.62391 0.37757 0.98664 0.0
O399 O 0.61356 0.36734 0.96073 0.0
C400 C 0.61367 0.37479 1.0174 0.0
C401 C 0.60805 0.38292 0.97368 0.0
Zn402 Zn 0.35048 0.67361 0.84305 0.0
Zn403 Zn 0.3576 0.67428 0.78815 0.0
Zn404 Zn 0.35436 0.67378 0.81746 0.0
C405 C 0.4475 0.7195 0.79839 0.0
C406 C 0.30634 0.5823 0.79659 0.0
O407 O 0.30278 0.69037 0.82586 0.0
O408 O 0.28336 0.64106 0.84492 0.0
C409 C 0.42291 0.75229 0.83924 0.0
O410 O 0.42774 0.7155 0.8118 0.0
O411 O 0.42383 0.70262 0.78601 0.0
O412 O 0.31819 0.60775 0.7847 0.0
O413 O 0.32001 0.60029 0.81052 0.0
O414 O 0.38704 0.74079 0.84688 0.0
O415 O 0.42151 0.7262 0.8277 0.0
O416 O 0.33744 0.60475 0.82597 0.0
O417 O 0.38126 0.63947 0.8465 0.0
C418 C 0.36053 0.60407 0.83778 0.0
O419 O 0.31562 0.70525 0.81005 0.0
O420 O 0.32991 0.71132 0.78436 0.0
C421 C 0.27447 0.66588 0.83676 0.0
C422 C 0.31236 0.71891 0.79631 0.0
Zn423 Zn 0.33386 0.68937 0.0737 0.0
Zn424 Zn 0.31703 0.72347 0.02442 0.0
Zn425 Zn 0.3264 0.69563 0.04703 0.0
C426 C 0.23789 0.69142 0.03451 0.0
C427 C 0.39612 0.79326 0.03148 0.0
O428 O 0.3671 0.66246 0.04747 0.0
O429 O 0.39032 0.68917 0.0717 0.0
C430 C 0.24748 0.62127 0.06715 0.0
O431 O 0.25305 0.66703 0.04011 0.0
O432 O 0.2662 0.73204 0.03072 0.0
O433 O 0.37395 0.77732 0.01882 0.0
O434 O 0.37989 0.77096 0.04444 0.0
O435 O 0.27874 0.62948 0.07673 0.0
O436 O 0.25654 0.6477 0.05532 0.0
O437 O 0.35558 0.76454 0.05846 0.0
O438 O 0.33483 0.7431 0.08299 0.0
C439 C 0.34957 0.77403 0.0728 0.0
O440 O 0.34909 0.66085 0.03133 0.0
O441 O 0.30585 0.66556 1.01347 0.0
C442 C 0.3932 0.66937 0.05933 0.0
C443 C 0.32854 0.64819 0.01791 0.0
Zn444 Zn 0.35663 0.71589 0.57684 0.0
Zn445 Zn 0.35724 0.70305 0.51569 0.0
Zn446 Zn 0.35636 0.70698 0.54549 0.0
C447 C 0.38808 0.79259 0.52166 0.0
C448 C 0.26761 0.64611 0.52374 0.0
O449 O 0.39122 0.67307 0.55471 0.0
O450 O 0.38396 0.67802 0.58062 0.0
C451 C 0.40906 0.80426 0.56506 0.0
O452 O 0.38165 0.77712 0.53585 0.0
O453 O 0.38139 0.76642 0.50994 0.0
O454 O 0.2926 0.6614 0.51169 0.0
O455 O 0.28491 0.65948 0.5377 0.0
O456 O 0.39668 0.78376 0.57808 0.0
O457 O 0.39515 0.78125 0.55189 0.0
O458 O 0.28426 0.67082 0.55378 0.0
O459 O 0.28988 0.68665 0.57949 0.0
C460 C 0.26548 0.66834 0.56733 0.0
O461 O 0.40062 0.67922 0.53829 0.0
O462 O 0.3964 0.67844 0.51217 0.0
C463 C 0.39652 0.66361 0.56892 0.0
C464 C 0.4119 0.67139 0.52449 0.0
Zn465 Zn 0.31958 0.65388 0.30242 0.0
Zn466 Zn 0.31798 0.64377 0.37546 0.0
Zn467 Zn 0.31961 0.64624 0.33188 0.0
C468 C 0.40375 0.6684 0.35682 0.0
C469 C 0.266 0.57495 0.35043 0.0
O470 O 0.28838 0.6872 0.32815 0.0
O471 O 0.2813 0.68131 0.30211 0.0
C472 C 0.41056 0.70022 0.31283 0.0
O473 O 0.3866 0.66556 0.34293 0.0
O474 O 0.38148 0.66138 0.36965 0.0
O475 O 0.29989 0.60924 0.35636 0.0
O476 O 0.26693 0.57293 0.33546 0.0
O477 O 0.38566 0.69453 0.3011 0.0
O478 O 0.39264 0.68212 0.32619 0.0
O479 O 0.28116 0.57586 0.32003 0.0
O480 O 0.29507 0.59045 0.2946 0.0
C481 C 0.27887 0.56175 0.30555 0.0
O482 O 0.29906 0.69144 0.34485 0.0
O483 O 0.30383 0.69205 0.37158 0.0
C484 C 0.27371 0.69444 0.31526 0.0
C485 C 0.29625 0.70625 0.35888 0.0
H486 H 0.23928 0.25524 0.20869 0.0
H487 H 0.21121 0.14092 0.23766 0.0
H488 H 0.16113 0.0873 0.21716 0.0
H489 H 0.11583 0.07344 0.19325 0.0
H490 H 0.13523 0.18755 0.16625 0.0
H491 H 0.19955 0.24067 0.18317 0.0
C492 C 0.22279 0.21858 0.21039 0.0
C493 C 0.2284 0.20209 0.22478 0.0
C494 C 0.1928 0.18791 0.19875 0.0
C495 C 0.20683 0.1545 0.22681 0.0
C496 C 0.17836 0.1238 0.21506 0.0
C497 C 0.13568 0.10974 0.19067 0.0
C498 C 0.12172 0.1267 0.1784 0.0
C499 C 0.16989 0.14013 0.20123 0.0
C500 C 0.14629 0.17384 0.17542 0.0
C501 C 0.18241 0.20419 0.1853 0.0
H502 H 0.77422 0.03058 0.22375 0.0
H503 H 0.73702 0.88964 0.2285 0.0
H504 H 0.78313 0.8961 0.20547 0.0
H505 H 0.84456 0.9454 0.18741 0.0
H506 H 0.88995 0.08869 0.18506 0.0
H507 H 0.82902 0.07759 0.20304 0.0
C508 C 0.77546 0.00102 0.21953 0.0
C509 C 0.75275 0.95986 0.22799 0.0
C510 C 0.80339 0.00546 0.20654 0.0
C511 C 0.75473 0.92191 0.22237 0.0
C512 C 0.781 0.92553 0.20915 0.0
C513 C 0.83946 0.9736 0.1902 0.0
C514 C 0.87087 0.01751 0.18462 0.0
C515 C 0.80684 0.9676 0.20155 0.0
C516 C 0.86527 0.0543 0.18878 0.0
C517 C 0.83106 0.04809 0.19938 0.0
H518 H 0.98522 0.78442 0.21567 0.0
H519 H 0.05064 0.88495 0.25352 0.0
H520 H 0.04853 0.9424 0.23776 0.0
H521 H 0.02667 0.96372 0.21403 0.0
H522 H 0.96157 0.86604 0.17549 0.0
H523 H 0.96459 0.8074 0.19087 0.0
C524 C -0.00069 0.81901 0.22039 0.0
C525 C 0.01802 0.83031 0.23579 0.0
C526 C -0.00236 0.85209 0.21126 0.0
C527 C 0.03592 0.8752 0.24177 0.0
C528 C 0.03471 0.90813 0.23277 0.0
C529 C 0.01314 0.92969 0.20883 0.0
C530 C -0.00659 0.91918 0.19364 0.0
C531 C 0.01534 0.89681 0.21762 0.0
C532 C 0.97619 0.87482 0.18724 0.0
C533 C 0.97823 0.84146 0.19601 0.0
H534 H 0.21043 0.23225 0.31629 0.0
H535 H 0.27411 0.15231 0.31917 0.0
H536 H 0.22379 0.10909 0.34098 0.0
H537 H 0.15432 0.08635 0.35618 0.0
H538 H 0.08948 0.16483 0.35306 0.0
H539 H 0.1486 0.21752 0.33484 0.0
C540 C 0.21365 0.20575 0.32184 0.0
C541 C 0.24526 0.19475 0.3159 0.0
C542 C 0.18465 0.18111 0.33441 0.0
C543 C 0.24978 0.16109 0.32341 0.0
C544 C 0.22099 0.13635 0.33588 0.0
C545 C 0.15427 0.11612 0.35197 0.0
C546 C 0.11796 0.12207 0.35601 0.0
C547 C 0.18737 0.14507 0.3411 0.0
C548 C 0.11771 0.16028 0.35041 0.0
C549 C 0.15101 0.1898 0.33973 0.0
H550 H 0.73751 0.96745 0.32843 0.0
H551 H 0.82621 0.06807 0.29456 0.0
H552 H 0.89163 0.0889 0.31124 0.0
H553 H 0.92439 0.07386 0.33389 0.0
H554 H 0.83792 0.97074 0.36729 0.0
H555 H 0.77067 0.95643 0.35258 0.0
C556 C 0.7711 0.99428 0.32478 0.0
C557 C 0.77694 0.01582 0.31015 0.0
C558 C 0.8089 0.00564 0.33435 0.0
C559 C 0.82071 0.05059 0.30565 0.0
C560 C 0.85818 0.0626 0.3152 0.0
C561 C 0.89084 0.04854 0.33812 0.0
C562 C 0.88626 0.02285 0.35158 0.0
C563 C 0.85276 0.03963 0.32935 0.0
C564 C 0.84247 0.99082 0.35697 0.0
C565 C 0.80404 0.98243 0.34847 0.0
H566 H 0.02934 0.80956 0.32608 0.0
H567 H 0.88454 0.73382 0.31816 0.0
H568 H 0.87517 0.77911 0.339 0.0
H569 H 0.91013 0.8497 0.3554 0.0
H570 H 0.05495 0.92659 0.36277 0.0
H571 H 0.06238 0.8704 0.34673 0.0
C572 C -0.00434 0.80241 0.32917 0.0
C573 C 0.95777 0.76933 0.32038 0.0
C574 C -0.00937 0.82871 0.34109 0.0
C575 C 0.9142 0.75948 0.32467 0.0
C576 C 0.90887 0.78546 0.33654 0.0
C577 C 0.94303 0.853 0.35399 0.0
C578 C 0.98199 0.89211 0.36016 0.0
C579 C 0.94708 0.82149 0.34429 0.0
C580 C 0.02449 0.89637 0.35834 0.0
C581 C 0.02879 0.86468 0.3489 0.0
H582 H 0.78075 0.80085 0.81435 0.0
H583 H 0.85071 0.72676 0.81488 0.0
H584 H 0.89519 0.77254 0.83786 0.0
H585 H 0.92376 0.84308 0.85414 0.0
H586 H 0.85584 0.91884 0.85261 0.0
H587 H 0.79958 0.86192 0.83421 0.0
C588 C 0.80514 0.79417 0.8197 0.0
C589 C 0.81332 0.76132 0.81274 0.0
C590 C 0.8306 0.82072 0.83283 0.0
C591 C 0.8442 0.7522 0.81995 0.0
C592 C 0.86968 0.77844 0.83306 0.0
C593 C 0.89524 0.84572 0.85035 0.0
C594 C 0.89334 0.88453 0.85491 0.0
C595 C 0.86446 0.81404 0.83915 0.0
C596 C 0.85702 0.88845 0.84973 0.0
C597 C 0.82552 0.85645 0.83886 0.0
H598 H 0.20146 0.97953 0.81024 0.0
H599 H 0.24148 0.11609 0.79583 0.0
H600 H 0.20301 0.12481 0.81877 0.0
H601 H 0.1504 0.09061 0.84066 0.0
H602 H 0.10302 0.95174 0.85403 0.0
H603 H 0.15358 0.94752 0.83422 0.0
C604 C 0.20219 0.01138 0.81224 0.0
C605 C 0.22375 0.04691 0.80118 0.0
C606 C 0.17896 0.01578 0.82533 0.0
C607 C 0.22457 0.088 0.80398 0.0
C608 C 0.20275 0.09309 0.81714 0.0
C609 C 0.15188 0.05969 0.8395 0.0
C610 C 0.1227 0.02134 0.84863 0.0
C611 C 0.1788 0.05678 0.82759 0.0
C612 C 0.12531 0.98176 0.84718 0.0
C613 C 0.15368 0.97917 0.83568 0.0
H614 H 0.06785 0.25753 0.82337 0.0
H615 H 0.92639 0.1844 0.80975 0.0
H616 H 0.9092 0.12756 0.82993 0.0
H617 H 0.93604 0.09291 0.84857 0.0
H618 H 0.07841 0.1617 0.86031 0.0
H619 H 0.09334 0.22682 0.84424 0.0
C620 C 0.0331 0.2296 0.82498 0.0
C621 C -0.00145 0.22489 0.81487 0.0
C622 C 0.02364 0.19634 0.83635 0.0
C623 C 0.95371 0.18859 0.81721 0.0
C624 C 0.94385 0.15605 0.82876 0.0
C625 C 0.97016 0.12276 0.84795 0.0
C626 C 0.00601 0.12269 0.85574 0.0
C627 C 0.97878 0.15876 0.838 0.0
C628 C 0.05006 0.16138 0.85477 0.0
C629 C 0.0587 0.19825 0.84533 0.0
H630 H 0.80492 0.80653 0.70423 0.0
H631 H 0.89022 0.81813 0.74327 0.0
H632 H 0.95735 0.85751 0.72654 0.0
H633 H -0.00746 0.89558 0.70193 0.0
H634 H 0.90936 0.89643 0.66436 0.0
H635 H 0.84081 0.84303 0.67886 0.0
C636 C 0.83825 0.81757 0.709 0.0
C637 C 0.84275 0.81012 0.72501 0.0
C638 C 0.87704 0.84153 0.69941 0.0
C639 C 0.88601 0.82436 0.73107 0.0
C640 C 0.92437 0.84648 0.72147 0.0
C641 C 0.95939 0.88312 0.6967 0.0
C642 C 0.95623 0.89927 0.68189 0.0
C643 C 0.92038 0.8561 0.70575 0.0
C644 C 0.91298 0.88316 0.6754 0.0
C645 C 0.87368 0.85359 0.68392 0.0
H646 H 0.28004 0.10057 0.72085 0.0
H647 H 0.19653 0.9527 0.7202 0.0
H648 H 0.15819 0.95469 0.69632 0.0
H649 H 0.14026 -0.00122 0.67847 0.0
H650 H 0.21604 0.14626 0.68177 0.0
H651 H 0.26731 0.14441 0.70117 0.0
C652 C 0.25386 0.06867 0.71539 0.0
C653 C 0.24067 0.02652 0.72247 0.0
C654 C 0.23117 0.07018 0.70192 0.0
C655 C 0.20685 0.9856 0.71515 0.0
C656 C 0.18509 0.98673 0.70144 0.0
C657 C 0.16952 0.03049 0.68285 0.0
C658 C 0.17522 0.07265 0.67847 0.0
C659 C 0.19603 0.02886 0.69502 0.0
C660 C 0.21192 0.11356 0.68466 0.0
C661 C 0.24049 0.11237 0.69602 0.0
H662 H 0.04838 0.25179 0.70946 0.0
H663 H 0.94652 0.15283 0.74091 0.0
H664 H 0.92385 0.09267 0.72075 0.0
H665 H 0.94143 0.06611 0.6962 0.0
H666 H 0.04783 0.16302 0.6658 0.0
H667 H 0.05833 0.22641 0.68299 0.0
C668 C 0.02102 0.21712 0.71186 0.0
C669 C 1e-05 0.2066 0.72683 0.0
C670 C 0.00836 0.18248 0.70024 0.0
C671 C 0.96391 0.16173 0.72962 0.0
C672 C 0.95068 0.12731 0.71806 0.0
C673 C 0.96555 0.10133 0.69301 0.0
C674 C -0.0061 0.11 0.67984 0.0
C675 C 0.97366 0.13702 0.70356 0.0
C676 C 0.02517 0.15557 0.67577 0.0
C677 C 0.03193 0.19172 0.68583 0.0
H678 H 0.90027 0.59045 0.53606 0.0
H679 H 0.78658 0.58763 0.55908 0.0
H680 H 0.73814 0.54586 0.53638 0.0
H681 H 0.72457 0.49419 0.51355 0.0
H682 H 0.83707 0.49251 0.49181 0.0
H683 H 0.88997 0.55374 0.50985 0.0
C684 C 0.86516 0.58166 0.53593 0.0
C685 C 0.84664 0.5908 0.54941 0.0
C686 C 0.83734 0.55698 0.52295 0.0
C687 C 0.80147 0.5803 0.54895 0.0
C688 C 0.77369 0.55632 0.53597 0.0
C689 C 0.76095 0.50935 0.51217 0.0
C690 C 0.77711 0.48905 0.50147 0.0
C691 C 0.79067 0.54228 0.52333 0.0
C692 C 0.8241 0.5081 0.49989 0.0
C693 C 0.8542 0.54236 0.51046 0.0
H694 H 0.45931 0.26962 0.55873 0.0
H695 H 0.49199 0.40911 0.55334 0.0
H696 H 0.53203 0.41484 0.52885 0.0
H697 H 0.56858 0.38532 0.51161 0.0
H698 H 0.54194 0.24875 0.51773 0.0
H699 H 0.48723 0.23589 0.53876 0.0
C700 C 0.47462 0.301 0.55207 0.0
C701 C 0.47358 0.33923 0.5581 0.0
C702 C 0.49834 0.3044 0.53799 0.0
C703 C 0.49309 0.37945 0.5492 0.0
C704 C 0.51585 0.38276 0.53511 0.0
C705 C 0.54914 0.35205 0.51709 0.0
C706 C 0.55852 0.31779 0.51304 0.0
C707 C 0.52009 0.3461 0.52973 0.0
C708 C 0.53416 0.27511 0.52038 0.0
C709 C 0.50371 0.26821 0.53265 0.0
H710 H 0.70499 0.12771 0.5318 0.0
H711 H 0.78626 0.23218 0.5669 0.0
H712 H 0.79582 0.29156 0.54904 0.0
H713 H 0.76902 0.31224 0.52593 0.0
H714 H 0.68261 0.20866 0.49167 0.0
H715 H 0.68841 0.15058 0.50633 0.0
C716 C 0.72558 0.16352 0.5354 0.0
C717 C 0.74405 0.17543 0.55082 0.0
C718 C 0.73002 0.19761 0.52518 0.0
C719 C 0.77095 0.22201 0.55524 0.0
C720 C 0.77654 0.25604 0.54502 0.0
C721 C 0.75308 0.27724 0.52135 0.0
C722 C 0.72548 0.26443 0.50783 0.0
C723 C 0.75459 0.24406 0.53029 0.0
C724 C 0.70448 0.21918 0.50197 0.0
C725 C 0.70718 0.18594 0.51053 0.0
H726 H 0.86712 0.5642 0.64767 0.0
H727 H 0.83332 0.46902 0.60831 0.0
H728 H 0.77236 0.40798 0.62378 0.0
H729 H 0.7294 0.38121 0.64862 0.0
H730 H 0.76178 0.4769 0.68774 0.0
H731 H 0.82211 0.5381 0.67218 0.0
C732 C 0.84654 0.53006 0.64249 0.0
C733 C 0.85511 0.52117 0.62688 0.0
C734 C 0.81105 0.49522 0.65138 0.0
C735 C 0.82761 0.47685 0.6203 0.0
C736 C 0.79269 0.44189 0.62914 0.0
C737 C 0.74944 0.41551 0.65373 0.0
C738 C 0.74103 0.42428 0.66938 0.0
C739 C 0.78415 0.45064 0.6447 0.0
C740 C 0.76735 0.46904 0.67575 0.0
C741 C 0.80205 0.50411 0.66687 0.0
H742 H 0.46543 0.39182 0.66333 0.0
H743 H 0.56737 0.44051 0.62666 0.0
H744 H 0.62171 0.44122 0.64515 0.0
H745 H 0.63593 0.41577 0.67032 0.0
H746 H 0.5311 0.3591 0.70578 0.0
H747 H 0.48284 0.37515 0.68951 0.0
C748 C 0.49978 0.40343 0.65944 0.0
C749 C 0.51201 0.41541 0.64354 0.0
C750 C 0.53048 0.40248 0.67002 0.0
C751 C 0.55679 0.43051 0.63876 0.0
C752 C 0.58796 0.43098 0.64935 0.0
C753 C 0.6033 0.40888 0.67472 0.0
C754 C 0.58718 0.38706 0.68928 0.0
C755 C 0.57468 0.41547 0.66483 0.0
C756 C 0.54433 0.37672 0.69471 0.0
C757 C 0.51654 0.38526 0.6853 0.0
H758 H 0.7474 0.19252 0.6396 0.0
H759 H 0.62317 0.06496 0.64902 0.0
H760 H 0.61043 0.09916 0.67269 0.0
H761 H 0.63 0.16766 0.68886 0.0
H762 H 0.75501 0.29499 0.68003 0.0
H763 H 0.77288 0.2582 0.65838 0.0
C764 C 0.71777 0.17221 0.64694 0.0
C765 C 0.6858 0.12657 0.64243 0.0
C766 C 0.711 0.19193 0.66071 0.0
C767 C 0.64808 0.10026 0.65219 0.0
C768 C 0.64077 0.11979 0.66573 0.0
C769 C 0.66179 0.18703 0.68248 0.0
C770 C 0.69085 0.2341 0.68594 0.0
C771 C 0.67142 0.16587 0.66988 0.0
C772 C 0.73208 0.25868 0.67766 0.0
C773 C 0.74202 0.2378 0.66512 0.0
H774 H 0.44858 0.14499 0.15126 0.0
H775 H 0.53778 0.1059 0.12958 0.0
H776 H 0.59415 0.14772 0.15033 0.0
H777 H 0.62253 0.20492 0.172 0.0
H778 H 0.53511 0.24682 0.19301 0.0
H779 H 0.47282 0.19287 0.17564 0.0
C780 C 0.48017 0.14523 0.15118 0.0
C781 C 0.48951 0.12335 0.13869 0.0
C782 C 0.51249 0.16944 0.16314 0.0
C783 C 0.53004 0.12299 0.13894 0.0
C784 C 0.56229 0.14686 0.15081 0.0
C785 C 0.58927 0.20092 0.17312 0.0
C786 C 0.58316 0.22948 0.18376 0.0
C787 C 0.55448 0.17145 0.16263 0.0
C788 C 0.5402 0.22437 0.18517 0.0
C789 C 0.50491 0.19425 0.17498 0.0
H790 H 0.93513 0.43331 0.14956 0.0
H791 H 0.84513 0.2912 0.13605 0.0
H792 H 0.79936 0.27941 0.15964 0.0
H793 H 0.77757 0.31232 0.18136 0.0
H794 H 0.86022 0.45647 0.19266 0.0
H795 H 0.91737 0.46449 0.17336 0.0
C796 C 0.90586 0.39969 0.15194 0.0
C797 C 0.89294 0.36345 0.14095 0.0
C798 C 0.87872 0.39348 0.16532 0.0
C799 C 0.8551 0.31994 0.14416 0.0
C800 C 0.8291 0.31304 0.15772 0.0
C801 C 0.80927 0.3449 0.18013 0.0
C802 C 0.81538 0.38356 0.18854 0.0
C803 C 0.83966 0.34989 0.16807 0.0
C804 C 0.85556 0.42611 0.18651 0.0
C805 C 0.88766 0.43082 0.17524 0.0
H806 H 0.66607 0.58766 0.16817 0.0
H807 H 0.5538 0.48099 0.1411 0.0
H808 H 0.54903 0.42315 0.1588 0.0
H809 H 0.58572 0.40204 0.17841 0.0
H810 H 0.70434 0.50659 0.2033 0.0
H811 H 0.6969 0.56629 0.1906 0.0
C812 C 0.6398 0.55186 0.16647 0.0
C813 C 0.61044 0.53836 0.15333 0.0
C814 C 0.63864 0.5185 0.17631 0.0
C815 C 0.57689 0.49196 0.15108 0.0
C816 C 0.5742 0.45894 0.16118 0.0
C817 C 0.609 0.43794 0.18146 0.0
C818 C 0.64549 0.45006 0.19175 0.0
C819 C 0.60617 0.47164 0.17335 0.0
C820 C 0.67554 0.49649 0.19564 0.0
C821 C 0.67174 0.53058 0.18811 0.0
H822 H 0.49492 0.09454 0.05869 0.0
H823 H 0.42618 0.17007 0.05912 0.0
H824 H 0.46916 0.21187 0.03581 0.0
H825 H 0.53405 0.23497 0.01806 0.0
H826 H 0.60945 0.16689 0.0201 0.0
H827 H 0.55488 0.11257 0.03915 0.0
C828 C 0.48883 0.11969 0.05357 0.0
C829 C 0.45779 0.12962 0.0608 0.0
C830 C 0.51455 0.14445 0.04044 0.0
C831 C 0.45028 0.16221 0.05395 0.0
C832 C 0.47472 0.18598 0.04057 0.0
C833 C 0.53715 0.2068 0.02214 0.0
C834 C 0.57496 0.20408 1.0175 0.0
C835 C 0.50786 0.17834 0.03401 0.0
C836 C 0.57993 0.16878 0.02327 0.0
C837 C 0.54924 0.13838 0.03438 0.0
H838 H 0.89443 0.40331 0.05775 0.0
H839 H 0.86099 0.2759 0.03444 0.0
H840 H 0.81987 0.28915 1.01379 0.0
H841 H 0.78194 0.32996 1.00563 0.0
H842 H 0.81353 0.45557 0.02985 0.0
H843 H 0.86887 0.4515 0.04643 0.0
C844 C 0.87861 0.37878 0.04801 0.0
C845 C 0.87939 0.33808 0.04778 0.0
C846 C 0.85531 0.38674 0.03626 0.0
C847 C 0.86008 0.30713 0.03493 0.0
C848 C 0.83667 0.31475 0.02314 0.0
C849 C 0.80272 0.3576 1.01398 0.0
C850 C 0.79385 0.393 1.0166 0.0
C851 C 0.83259 0.35358 0.02405 0.0
C852 C 0.82022 0.42825 0.02762 0.0
C853 C 0.85118 0.42544 0.03728 0.0
H854 H 0.63792 0.5406 0.05711 0.0
H855 H 0.53324 0.43028 0.08449 0.0
H856 H 0.52233 0.37517 0.06355 0.0
H857 H 0.5498 0.35712 0.03932 0.0
H858 H 0.65415 0.46618 1.01162 0.0
H859 H 0.65649 0.52318 0.03038 0.0
C860 C 0.61257 0.50452 0.0584 0.0
C861 C 0.58719 0.48934 0.07248 0.0
C862 C 0.60599 0.47291 0.04616 0.0
C863 C 0.5536 0.44273 0.07385 0.0
C864 C 0.54722 0.41118 0.06186 0.0
C865 C 0.57186 0.39346 0.0371 0.0
C866 C 0.6021 0.40752 0.02426 0.0
C867 C 0.57405 0.42571 0.04819 0.0
C868 C 0.63037 0.45458 0.0214 0.0
C869 C 0.63231 0.48712 0.0323 0.0
H870 H 0.55505 0.92709 0.87822 0.0
H871 H 0.54141 0.82274 0.90972 0.0
H872 H 0.50272 0.76439 0.88905 0.0
H873 H 0.46468 0.74149 0.86333 0.0
H874 H 0.47132 0.84336 0.83254 0.0
H875 H 0.52232 0.90447 0.85127 0.0
C876 C 0.54388 0.89164 0.88052 0.0
C877 C 0.55055 0.87931 0.89562 0.0
C878 C 0.52102 0.85792 0.86858 0.0
C879 C 0.53617 0.83322 0.89833 0.0
C880 C 0.51426 0.79977 0.88647 0.0
C881 C 0.479 0.77729 0.86046 0.0
C882 C 0.46545 0.7883 0.8465 0.0
C883 C 0.50567 0.81157 0.8717 0.0
C884 C 0.48255 0.83444 0.84305 0.0
C885 C 0.51091 0.86917 0.8539 0.0
H886 H 0.17036 0.73776 0.87591 0.0
H887 H 0.1015 0.59799 0.89186 0.0
H888 H 0.13762 0.57805 0.87085 0.0
H889 H 0.19736 0.60308 0.85091 0.0
H890 H 0.27006 0.74353 0.83601 0.0
H891 H 0.22249 0.76008 0.85315 0.0
C892 C 0.16281 0.70279 0.87468 0.0
C893 C 0.13411 0.66966 0.88569 0.0
C894 C 0.18417 0.69166 0.86268 0.0
C895 C 0.12399 0.62432 0.88372 0.0
C896 C 0.14458 0.61286 0.87169 0.0
C897 C 0.20185 0.63699 0.85107 0.0
C898 C 0.23736 0.67219 0.84232 0.0
C899 C 0.17593 0.64662 0.8615 0.0
C900 C 0.24269 0.71582 0.84249 0.0
C901 C 0.21599 0.72543 0.85253 0.0
H902 H 0.3041 0.42569 0.87428 0.0
H903 H 0.43274 0.51943 0.89672 0.0
H904 H 0.4505 0.57527 0.87615 0.0
H905 H 0.42451 0.60197 0.85467 0.0
H906 H 0.29256 0.51316 0.83385 0.0
H907 H 0.28164 0.45012 0.85036 0.0
C908 C 0.33639 0.45797 0.87444 0.0
C909 C 0.36691 0.46877 0.88709 0.0
C910 C 0.34565 0.49073 0.86285 0.0
C911 C 0.40853 0.51069 0.88722 0.0
C912 C 0.41872 0.54256 0.87545 0.0
C913 C 0.39372 0.56846 0.85346 0.0
C914 C 0.35898 0.56243 0.84324 0.0
C915 C 0.38679 0.53363 0.86362 0.0
C916 C 0.31972 0.51874 0.8416 0.0
C917 C 0.31329 0.48289 0.85124 0.0
H918 H 0.58644 0.88543 1.00371 0.0
H919 H 0.52676 0.94476 0.97569 0.0
H920 H 0.46574 0.92107 0.99478 0.0
H921 H 0.42134 0.87007 1.01599 0.0
H922 H 0.47443 0.80215 0.0425 0.0
H923 H 0.54671 0.84422 0.02823 0.0
C924 C 0.56049 0.89383 1.00201 0.0
C925 C 0.56036 0.91567 0.98809 0.0
C926 C 0.52435 0.87872 1.01289 0.0
C927 C 0.52685 0.9268 0.98606 0.0
C928 C 0.49208 0.91358 0.99705 0.0
C929 C 0.44963 0.86626 0.01915 0.0
C930 C 0.44265 0.83293 0.03009 0.0
C931 C 0.48934 0.88769 1.01007 0.0
C932 C 0.47924 0.82799 0.03417 0.0
C933 C 0.52017 0.85123 0.02572 0.0
H934 H 0.08951 0.68943 0.99399 0.0
H935 H 0.14846 0.64003 0.95961 0.0
H936 H 0.18898 0.62811 0.98061 0.0
H937 H 0.21554 0.64127 1.00801 0.0
H938 H 0.16615 0.7013 0.04176 0.0
H939 H 0.11226 0.69726 0.02211 0.0
C940 C 0.11096 0.67573 0.99113 0.0
C941 C 0.11646 0.66633 0.9752 0.0
C942 C 0.13518 0.66998 1.00327 0.0
C943 C 0.14426 0.64842 0.97171 0.0
C944 C 0.16717 0.64118 0.98373 0.0
C945 C 0.19138 0.65138 1.01125 0.0
C946 C 0.19384 0.67042 0.02639 0.0
C947 C 0.16371 0.65282 0.99949 0.0
C948 C 0.16382 0.68525 0.03031 0.0
C949 C 0.13381 0.68391 0.01895 0.0
H950 H 0.35601 0.50602 0.97749 0.0
H951 H 0.272 0.5261 0.9451 0.0
H952 H 0.26714 0.57786 0.96422 0.0
H953 H 0.28796 0.61861 0.98945 0.0
H954 H 0.37318 0.60145 0.02214 0.0
H955 H 0.37633 0.54701 1.00346 0.0
C956 C 0.33643 0.52153 0.97465 0.0
C957 C 0.31441 0.51222 0.95985 0.0
C958 C 0.33418 0.5518 0.98567 0.0
C959 C 0.28937 0.53275 0.95635 0.0
C960 C 0.28657 0.56236 0.96727 0.0
C961 C 0.30731 0.60308 0.99261 0.0
C962 C 0.33054 0.61434 1.00719 0.0
C963 C 0.30911 0.57235 0.98187 0.0
C964 C 0.35517 0.59357 1.01099 0.0
C965 C 0.35692 0.56245 1.00032 0.0
H966 H 0.11996 0.45087 0.50364 0.0
H967 H 0.11513 0.52655 0.46419 0.0
H968 H 0.15938 0.5981 0.47911 0.0
H969 H 0.21115 0.6397 0.50099 0.0
H970 H 0.22113 0.56602 0.53985 0.0
H971 H 0.16151 0.49327 0.52797 0.0
C972 C 0.128 0.48294 0.49841 0.0
C973 C 0.11537 0.48339 0.48263 0.0
C974 C 0.15417 0.52437 0.50701 0.0
C975 C 0.12529 0.52519 0.47616 0.0
C976 C 0.15046 0.56622 0.48471 0.0
C977 C 0.1989 0.60778 0.50715 0.0
C978 C 0.22078 0.60783 0.52106 0.0
C979 C 0.16669 0.56633 0.49983 0.0
C980 C 0.20463 0.56664 0.5291 0.0
C981 C 0.17118 0.52502 0.52214 0.0
H982 H 0.53061 0.63243 0.48154 0.0
H983 H 0.63031 0.77 0.497 0.0
H984 H 0.57943 0.76616 0.51814 0.0
H985 H 0.50149 0.72877 0.52881 0.0
H986 H 0.40151 0.59239 0.51271 0.0
H987 H 0.45805 0.58952 0.49584 0.0
C988 C 0.5414 0.66129 0.4897 0.0
C989 C 0.58363 0.70185 0.48749 0.0
C990 C 0.51206 0.65872 0.50186 0.0
C991 C 0.59771 0.7386 0.49834 0.0
C992 C 0.56864 0.7364 0.51045 0.0
C993 C 0.49292 0.69753 0.52228 0.0
C994 C 0.44763 0.6607 0.52204 0.0
C995 C 0.52509 0.69724 0.51196 0.0
C996 C 0.43642 0.62081 0.51324 0.0
C997 C 0.46851 0.6196 0.50333 0.0
H998 H 0.42093 0.94445 0.47707 0.0
H999 H 0.27541 0.87622 0.48257 0.0
H1000 H 0.27906 0.83604 0.50549 0.0
H1001 H 0.32143 0.80971 0.52052 0.0
H1002 H 0.46494 0.87073 0.51283 0.0
H1003 H 0.46493 0.9259 0.49481 0.0
C1004 C 0.39006 0.92138 0.48343 0.0
C1005 C 0.34781 0.91263 0.47787 0.0
C1006 C 0.39229 0.89746 0.49637 0.0
C1007 C 0.30827 0.883 0.48639 0.0
C1008 C 0.31035 0.8601 0.49955 0.0
C1009 C 0.35305 0.83676 0.51552 0.0
C1010 C 0.39328 0.83688 0.51814 0.0
C1011 C 0.3519 0.86571 0.50425 0.0
C1012 C 0.43386 0.87084 0.51123 0.0
C1013 C 0.43357 0.90165 0.50067 0.0
H1014 H 0.11426 0.49054 0.40224 0.0
H1015 H 0.08983 0.36397 0.38062 0.0
H1016 H 0.14553 0.40696 0.35998 0.0
H1017 H 0.2079 0.48145 0.34998 0.0
H1018 H 0.23214 0.60683 0.37247 0.0
H1019 H 0.17024 0.56354 0.39089 0.0
C1020 C 0.12058 0.47224 0.39289 0.0
C1021 C 0.09823 0.42419 0.39307 0.0
C1022 C 0.1532 0.4971 0.38131 0.0
C1023 C 0.10655 0.40102 0.38077 0.0
C1024 C 0.13867 0.42561 0.36902 0.0
C1025 C 0.1988 0.49911 0.35865 0.0
C1026 C 0.22474 0.54722 0.35995 0.0
C1027 C 0.16318 0.47378 0.36942 0.0
C1028 C 0.21316 0.56979 0.37143 0.0
C1029 C 0.17762 0.54507 0.38194 0.0
H1030 H 0.59357 0.7365 0.38508 0.0
H1031 H 0.51821 0.59998 0.40383 0.0
H1032 H 0.45583 0.57993 0.38556 0.0
H1033 H 0.41806 0.60508 0.3678 0.0
H1034 H 0.4881 0.7444 0.35203 0.0
H1035 H 0.558 0.75927 0.36493 0.0
C1036 C 0.56386 0.70208 0.38492 0.0
C1037 C 0.5602 0.66984 0.3959 0.0
C1038 C 0.52737 0.69139 0.3748 0.0
C1039 C 0.5215 0.62549 0.39563 0.0
C1040 C 0.48592 0.61401 0.38517 0.0
C1041 C 0.44928 0.63814 0.36667 0.0
C1042 C 0.44843 0.6734 0.35873 0.0
C1043 C 0.48784 0.64718 0.37515 0.0
C1044 C 0.48844 0.71643 0.35761 0.0
C1045 C 0.52805 0.72511 0.36532 0.0
H1046 H 0.26405 0.83994 0.39774 0.0
H1047 H 0.40406 0.93186 0.38484 0.0
H1048 H 0.39927 0.87538 0.36532 0.0
H1049 H 0.35873 0.79527 0.35526 0.0
H1050 H 0.22047 0.70267 0.3695 0.0
H1051 H 0.22019 0.76446 0.38458 0.0
C1052 C 0.29341 0.84778 0.39055 0.0
C1053 C 0.3347 0.88949 0.393 0.0
C1054 C 0.29037 0.81519 0.37939 0.0
C1055 C 0.37209 0.89969 0.38333 0.0
C1056 C 0.36932 0.86745 0.37215 0.0
C1057 C 0.32791 0.78945 0.36101 0.0
C1058 C 0.28937 0.74492 0.36107 0.0
C1059 C 0.32905 0.82452 0.37043 0.0
C1060 C 0.25005 0.73705 0.369 0.0
C1061 C 0.25027 0.77214 0.37789 0.0
H1062 H 0.25876 0.09671 0.10683 0.0
H1063 H 0.28275 0.07733 0.15525 0.0
H1064 H 0.20989 0.06757 0.16311 0.0
H1065 H 0.13578 0.0567 0.15567 0.0
H1066 H 0.11179 0.07382 0.10699 0.0
H1067 H 0.18827 0.09296 0.0999 0.0
C1068 C 0.24829 0.09075 0.11913 0.0
C1069 C 0.27595 0.08714 0.13036 0.0
C1070 C 0.20617 0.08467 0.12355 0.0
C1071 C 0.26197 0.07987 0.14629 0.0
C1072 C 0.22025 0.07426 0.15082 0.0
C1073 C 0.14771 0.06563 0.1436 0.0
C1074 C 0.11803 0.06344 0.13186 0.0
C1075 C 0.19156 0.07554 0.13948 0.0
C1076 C 0.13386 0.07481 0.11623 0.0
C1077 C 0.17756 0.08564 0.11213 0.0
H1078 H 0.92475 0.22736 0.13774 0.0
H1079 H 0.91925 0.20144 0.08729 0.0
H1080 H 0.91651 0.12963 0.09187 0.0
H1081 H 0.92238 0.07818 0.11001 0.0
H1082 H 0.93242 0.1065 0.16034 0.0
H1083 H 0.92506 0.17277 0.156 0.0
C1084 C 0.92275 0.20596 0.12771 0.0
C1085 C 0.92288 0.22008 0.11217 0.0
C1086 C 0.92155 0.16499 0.13043 0.0
C1087 C 0.91963 0.19159 0.09936 0.0
C1088 C 0.91798 0.15051 0.10197 0.0
C1089 C 0.92225 0.09837 0.12009 0.0
C1090 C 0.92799 0.08733 0.13551 0.0
C1091 C 0.91982 0.13739 0.11744 0.0
C1092 C 0.92748 0.11378 0.14839 0.0
C1093 C 0.92389 0.15209 0.14589 0.0
H1094 H 0.76986 0.70453 0.14847 0.0
H1095 H 0.77793 0.7184 0.09771 0.0
H1096 H 0.84589 0.79465 0.10051 0.0
H1097 H 0.89891 0.85877 0.11711 0.0
H1098 H 0.88688 0.85103 0.168 0.0
H1099 H 0.82538 0.77028 0.16548 0.0
C1100 C 0.78692 0.72418 0.13805 0.0
C1101 C 0.76901 0.706 0.12288 0.0
C1102 C 0.82522 0.76883 0.1398 0.0
C1103 C 0.79096 0.73184 0.10947 0.0
C1104 C 0.82983 0.77533 0.11108 0.0
C1105 C 0.88324 0.83954 0.12774 0.0
C1106 C 0.89771 0.86107 0.14276 0.0
C1107 C 0.84665 0.79439 0.12616 0.0
C1108 C 0.87702 0.83524 0.15632 0.0
C1109 C 0.84144 0.78923 0.15485 0.0
H1110 H 0.12 0.32151 0.40582 0.0
H1111 H 0.11028 0.29276 0.45561 0.0
H1112 H 0.09794 0.21675 0.4495 0.0
H1113 H 0.07775 0.15532 0.43023 0.0
H1114 H 0.07608 0.17922 0.38039 0.0
H1115 H 0.10645 0.26083 0.38616 0.0
C1116 C 0.11653 0.29897 0.41529 0.0
C1117 C 0.1162 0.31237 0.43114 0.0
C1118 C 0.10692 0.25445 0.41163 0.0
C1119 C 0.11073 0.28288 0.44336 0.0
C1120 C 0.10349 0.23949 0.43985 0.0
C1121 C 0.08462 0.17842 0.42055 0.0
C1122 C 0.07398 0.1611 0.4049 0.0
C1123 C 0.09959 0.22434 0.42405 0.0
C1124 C 0.08395 0.19167 0.39252 0.0
C1125 C 0.10088 0.23822 0.39585 0.0
H1126 H 0.71716 0.79982 0.40944 0.0
H1127 H 0.71203 0.87408 0.45056 0.0
H1128 H 0.77728 0.94512 0.44068 0.0
H1129 H 0.84206 0.98253 0.42231 0.0
H1130 H 0.84623 0.90798 0.38111 0.0
H1131 H 0.77364 0.84094 0.38863 0.0
C1132 C 0.73001 0.83172 0.41612 0.0
C1133 C 0.71077 0.83178 0.43087 0.0
C1134 C 0.76687 0.8723 0.41024 0.0
C1135 C 0.72683 0.87332 0.43927 0.0
C1136 C 0.76402 0.91384 0.43361 0.0
C1137 C 0.8261 0.95214 0.41468 0.0
C1138 C 0.84937 0.95001 0.40123 0.0
C1139 C 0.78513 0.91336 0.41936 0.0
C1140 C 0.82865 0.91057 0.39142 0.0
C1141 C 0.78756 0.87197 0.39588 0.0
H1142 H 0.16269 0.91994 0.43258 0.0
H1143 H 0.22821 0.97551 0.38787 0.0
H1144 H 0.16271 0.97851 0.37921 0.0
H1145 H 0.09141 0.97453 0.38559 0.0
H1146 H 0.02649 0.92134 0.43047 0.0
H1147 H 0.08677 0.90755 0.4377 0.0
C1148 C 0.16246 0.93233 0.42089 0.0
C1149 C 0.20063 0.94821 0.41102 0.0
C1150 C 0.12472 0.93429 0.41599 0.0
C1151 C 0.19954 0.9636 0.39582 0.0
C1152 C 0.16203 0.96527 0.39081 0.0
C1153 C 0.08948 0.95818 0.39667 0.0
C1154 C 0.05448 0.94865 0.40743 0.0
C1155 C 0.12494 0.95176 0.40094 0.0
C1156 C 0.05316 0.92886 0.42198 0.0
C1157 C 0.08778 0.92132 0.42617 0.0
H1158 H 0.72777 0.94019 0.89931 0.0
H1159 H 0.74834 0.95253 0.94993 0.0
H1160 H 0.81913 0.95307 0.94639 0.0
H1161 H 0.87763 0.95592 0.92881 0.0
H1162 H 0.85811 0.94675 0.8782 0.0
H1163 H 0.78365 0.93771 0.88187 0.0
C1164 C 0.74761 0.94287 0.9096 0.0
C1165 C 0.73309 0.94697 0.92487 0.0
C1166 C 0.78821 0.94329 0.90747 0.0
C1167 C 0.75891 0.9497 0.93806 0.0
C1168 C 0.79935 0.94996 0.93603 0.0
C1169 C 0.85684 0.95123 0.91856 0.0
C1170 C 0.87354 0.95192 0.90319 0.0
C1171 C 0.81467 0.94754 0.92078 0.0
C1172 C 0.84599 0.94572 0.89011 0.0
C1173 C 0.80358 0.94113 0.89222 0.0
H1174 H 0.10097 0.81729 0.92085 0.0
H1175 H -0.00365 0.72895 0.88731 0.0
H1176 H -0.00429 0.79462 0.87697 0.0
H1177 H 0.01848 0.87585 0.87949 0.0
H1178 H 0.11928 0.96307 0.91408 0.0
H1179 H 0.12912 0.89997 0.92154 0.0
C1180 C 0.07822 0.81245 0.91122 0.0
C1181 C 0.04827 0.76807 0.90507 0.0
C1182 C 0.07783 0.85047 0.90533 0.0
C1183 C 0.01945 0.76259 0.89244 0.0
C1184 C 0.01914 0.8002 0.88644 0.0
C1185 C 0.04389 0.88134 0.88818 0.0
C1186 C 0.06874 0.92403 0.89605 0.0
C1187 C 0.04752 0.84419 0.89299 0.0
C1188 C 0.10048 0.93057 0.90768 0.0
C1189 C 0.10555 0.89432 0.91212 0.0
H1190 H 0.18316 0.31268 0.9071 0.0
H1191 H 0.25496 0.27552 0.93921 0.0
H1192 H 0.20077 0.19466 0.93387 0.0
H1193 H 0.13475 0.13472 0.91986 0.0
H1194 H 0.06061 0.16884 0.88794 0.0
H1195 H 0.11455 0.25097 0.89317 0.0
C1196 C 0.18669 0.28684 0.913 0.0
C1197 C 0.22312 0.30018 0.92354 0.0
C1198 C 0.15547 0.24005 0.90975 0.0
C1199 C 0.22741 0.26629 0.93102 0.0
C1200 C 0.19645 0.21999 0.92797 0.0
C1201 C 0.13016 0.16006 0.91406 0.0
C1202 C 0.09423 0.14589 0.90331 0.0
C1203 C 0.16066 0.20658 0.91731 0.0
C1204 C 0.08888 0.17909 0.89587 0.0
C1205 C 0.11935 0.22591 0.89904 0.0
H1206 H 0.8992 0.71825 0.6248 0.0
H1207 H 0.01876 0.75117 0.59747 0.0
H1208 H 0.0531 0.83184 0.60478 0.0
H1209 H 0.04771 0.89362 0.61748 0.0
H1210 H 0.92866 0.86284 0.64434 0.0
H1211 H 0.89592 0.78064 0.63902 0.0
C1212 C 0.93285 0.74305 0.62051 0.0
C1213 C 0.95611 0.72862 0.61045 0.0
C1214 C 0.95259 0.7897 0.62477 0.0
C1215 C -0.00011 0.76121 0.60513 0.0
C1216 C 0.01964 0.80743 0.60931 0.0
C1217 C 0.01475 0.86883 0.62231 0.0
C1218 C -0.00933 0.88408 0.63143 0.0
C1219 C -0.00394 0.82208 0.6189 0.0
C1220 C 0.94822 0.85178 0.63767 0.0
C1221 C 0.9293 0.80486 0.63441 0.0
H1222 H 0.31933 0.2693 0.62654 0.0
H1223 H 0.28881 0.23986 0.57665 0.0
H1224 H 0.22171 0.16642 0.58272 0.0
H1225 H 0.16909 0.11283 0.60184 0.0
H1226 H 0.19455 0.14183 0.65186 0.0
H1227 H 0.26686 0.21227 0.6461 0.0
C1228 C 0.29805 0.2467 0.61701 0.0
C1229 C 0.30899 0.26048 0.60114 0.0
C1230 C 0.2588 0.20422 0.62059 0.0
C1231 C 0.28112 0.2306 0.58896 0.0
C1232 C 0.24273 0.18838 0.59241 0.0
C1233 C 0.19058 0.13419 0.61155 0.0
C1234 C 0.17622 0.12198 0.62728 0.0
C1235 C 0.23094 0.17518 0.60814 0.0
C1236 C 0.20486 0.15 0.63966 0.0
C1237 C 0.24599 0.19064 0.63634 0.0
H1238 H 0.86273 0.1416 0.62825 0.0
H1239 H 0.7955 0.03551 0.59223 0.0
H1240 H 0.84874 0.01019 0.5967 0.0
H1241 H 0.91406 0.01803 0.61067 0.0
H1242 H 0.98211 0.12374 0.64658 0.0
H1243 H 0.92847 0.14913 0.64246 0.0
C1244 C 0.85973 0.11297 0.62136 0.0
C1245 C 0.82518 0.09057 0.60988 0.0
C1246 C 0.8904 0.0984 0.62403 0.0
C1247 C 0.82171 0.05339 0.60112 0.0
C1248 C 0.85215 0.03887 0.60367 0.0
C1249 C 0.91733 0.04674 0.6176 0.0
C1250 C 0.95193 0.06882 0.62905 0.0
C1251 C 0.8866 0.06114 0.61506 0.0
C1252 C 0.95536 0.1057 0.63795 0.0
C1253 C 0.92488 0.1204 0.63548 0.0
H1254 H 0.90601 0.31783 0.43581 0.0
H1255 H 0.93195 0.32705 0.48599 0.0
H1256 H 0.85697 0.31552 0.49153 0.0
H1257 H 0.78882 0.31347 0.48189 0.0
H1258 H 0.76317 0.30314 0.43157 0.0
H1259 H 0.83304 0.30401 0.42637 0.0
C1260 C 0.89495 0.31664 0.44795 0.0
C1261 C 0.92464 0.32406 0.46045 0.0
C1262 C 0.85202 0.3102 0.45104 0.0
C1263 C 0.9097 0.32164 0.47615 0.0
C1264 C 0.86694 0.31529 0.47933 0.0
C1265 C 0.79782 0.31023 0.46982 0.0
C1266 C 0.77105 0.30908 0.45717 0.0
C1267 C 0.83841 0.31104 0.46684 0.0
C1268 C 0.78343 0.30483 0.44157 0.0
C1269 C 0.82349 0.30539 0.43854 0.0
H1270 H 0.68047 0.60619 0.46111 0.0
H1271 H 0.69628 0.59505 0.41073 0.0
H1272 H 0.71005 0.53285 0.41487 0.0
H1273 H 0.70937 0.47644 0.43241 0.0
H1274 H 0.69279 0.48654 0.48276 0.0
H1275 H 0.68865 0.55501 0.47904 0.0
C1276 C 0.68739 0.59046 0.45104 0.0
C1277 C 0.68658 0.60476 0.4356 0.0
C1278 C 0.69514 0.55454 0.4535 0.0
C1279 C 0.69634 0.58453 0.42272 0.0
C1280 C 0.70414 0.54886 0.42507 0.0
C1281 C 0.70555 0.49401 0.44261 0.0
C1282 C 0.70087 0.47606 0.45781 0.0
C1283 C 0.70241 0.53282 0.44035 0.0
C1284 C 0.69657 0.4996 0.47093 0.0
C1285 C 0.69377 0.53856 0.46879 0.0
H1286 H 0.39539 0.09204 0.47251 0.0
H1287 H 0.41088 0.08831 0.4218 0.0
H1288 H 0.47873 0.16493 0.42301 0.0
H1289 H 0.53641 0.22965 0.43846 0.0
H1290 H 0.5253 0.23238 0.48934 0.0
H1291 H 0.45226 0.15976 0.48806 0.0
C1292 C 0.41334 0.10826 0.46171 0.0
C1293 C 0.39829 0.08444 0.44709 0.0
C1294 C 0.45301 0.152 0.46253 0.0
C1295 C 0.42199 0.10576 0.43321 0.0
C1296 C 0.46073 0.14958 0.43389 0.0
C1297 C 0.51797 0.21478 0.44933 0.0
C1298 C 0.53661 0.23644 0.46403 0.0
C1299 C 0.47699 0.17253 0.4485 0.0
C1300 C 0.51184 0.21658 0.4779 0.0
C1301 C 0.47018 0.17487 0.47715 0.0
H1302 H 0.71779 0.62332 0.73402 0.0
H1303 H 0.84165 0.65555 0.75767 0.0
H1304 H 0.83571 0.58628 0.74638 0.0
H1305 H 0.79048 0.51224 0.73267 0.0
H1306 H 0.66672 0.47854 0.70889 0.0
H1307 H 0.67825 0.55356 0.71674 0.0
C1308 C 0.74347 0.61512 0.73662 0.0
C1309 C 0.77952 0.6438 0.74696 0.0
C1310 C 0.7402 0.57545 0.72988 0.0
C1311 C 0.8133 0.63364 0.74992 0.0
C1312 C 0.81003 0.59416 0.74343 0.0
C1313 C 0.76697 0.52214 0.72873 0.0
C1314 C 0.72785 0.49028 0.7203 0.0
C1315 C 0.77313 0.56436 0.73372 0.0
C1316 C 0.69737 0.50296 0.71524 0.0
C1317 C 0.70356 0.54545 0.71999 0.0
H1318 H 0.40868 0.17283 0.77115 0.0
H1319 H 0.41825 0.06538 0.74703 0.0
H1320 H 0.48572 0.12269 0.73291 0.0
H1321 H 0.54341 0.20372 0.72795 0.0
H1322 H 0.5342 0.31042 0.75271 0.0
H1323 H 0.46452 0.25304 0.76571 0.0
C1324 C 0.42568 0.16187 0.7629 0.0
C1325 C 0.40866 0.1149 0.76027 0.0
C1326 C 0.46411 0.19491 0.75472 0.0
C1327 C 0.43083 0.10137 0.74937 0.0
C1328 C 0.46926 0.1341 0.74121 0.0
C1329 C 0.5255 0.21425 0.73593 0.0
C1330 C 0.54358 0.26107 0.73932 0.0
C1331 C 0.48619 0.181 0.74377 0.0
C1332 C 0.52069 0.27446 0.74991 0.0
C1333 C 0.48109 0.24171 0.75743 0.0
H1334 H 0.87346 0.28296 0.76314 0.0
H1335 H 0.9488 0.34331 0.72039 0.0
H1336 H 0.88633 0.34993 0.71027 0.0
H1337 H 0.81078 0.34093 0.71406 0.0
H1338 H 0.73657 0.28016 0.757 0.0
H1339 H 0.79745 0.27047 0.76633 0.0
C1340 C 0.87635 0.29783 0.75166 0.0
C1341 C 0.91586 0.31309 0.74263 0.0
C1342 C 0.84016 0.30096 0.74583 0.0
C1343 C 0.91875 0.33153 0.72763 0.0
C1344 C 0.88299 0.33519 0.7218 0.0
C1345 C 0.80776 0.32488 0.72531 0.0
C1346 C 0.76945 0.31159 0.73486 0.0
C1347 C 0.84348 0.32011 0.73081 0.0
C1348 C 0.76597 0.29105 0.74948 0.0
C1349 C 0.80083 0.28563 0.75488 0.0
H1350 H 0.39518 0.21507 0.24204 0.0
H1351 H 0.43455 0.33251 0.2729 0.0
H1352 H 0.51435 0.36226 0.26678 0.0
H1353 H 0.57276 0.35629 0.25212 0.0
H1354 H 0.53415 0.23926 0.22126 0.0
H1355 H 0.45412 0.20815 0.22781 0.0
C1356 C 0.4212 0.24704 0.24751 0.0
C1357 C 0.40879 0.27152 0.25791 0.0
C1358 C 0.4671 0.26422 0.24383 0.0
C1359 C 0.44304 0.31296 0.26484 0.0
C1360 C 0.48872 0.33006 0.26134 0.0
C1361 C 0.54686 0.32386 0.24687 0.0
C1362 C 0.5593 0.30038 0.23605 0.0
C1363 C 0.50109 0.30618 0.25076 0.0
C1364 C 0.52535 0.25844 0.22936 0.0
C1365 C 0.47964 0.2405 0.2332 0.0
H1366 H 0.62863 0.06757 0.22905 0.0
H1367 H 0.67661 0.10793 0.27717 0.0
H1368 H 0.67961 0.18005 0.274 0.0
H1369 H 0.67655 0.23485 0.25695 0.0
H1370 H 0.6295 0.19702 0.20879 0.0
H1371 H 0.61736 0.12028 0.21265 0.0
C1372 C 0.63915 0.09187 0.23891 0.0
C1373 C 0.65306 0.0825 0.25326 0.0
C1374 C 0.64116 0.13376 0.23697 0.0
C1375 C 0.66617 0.11427 0.26595 0.0
C1376 C 0.66797 0.15564 0.26415 0.0
C1377 C 0.66309 0.20962 0.24733 0.0
C1378 C 0.65454 0.22165 0.23254 0.0
C1379 C 0.65679 0.16621 0.24961 0.0
C1380 C 0.63635 0.18848 0.22027 0.0
C1381 C 0.62977 0.14479 0.22247 0.0
H1382 H 0.84376 0.64765 0.25308 0.0
H1383 H 0.9553 0.62402 0.25374 0.0
H1384 H 0.90843 0.55004 0.24057 0.0
H1385 H 0.83511 0.48975 0.23087 0.0
H1386 H 0.7204 0.50779 0.23176 0.0
H1387 H 0.76952 0.58707 0.24174 0.0
C1388 C 0.85775 0.62632 0.25027 0.0
C1389 C 0.90282 0.64113 0.2546 0.0
C1390 C 0.83025 0.58316 0.24282 0.0
C1391 C 0.92059 0.61326 0.25079 0.0
C1392 C 0.89391 0.57101 0.24316 0.0
C1393 C 0.82094 0.51128 0.23304 0.0
C1394 C 0.77439 0.49323 0.23063 0.0
C1395 C 0.84864 0.55538 0.2394 0.0
C1396 C 0.75638 0.52135 0.23331 0.0
C1397 C 0.78432 0.56632 0.23925 0.0
H1398 H 0.55172 0.04075 0.96424 0.0
H1399 H 0.64803 0.08943 0.92576 0.0
H1400 H 0.66194 0.16685 0.92989 0.0
H1401 H 0.64885 0.22068 0.94491 0.0
H1402 H 0.55716 0.17449 0.98469 0.0
H1403 H 0.53928 0.09568 0.97967 0.0
C1404 C 0.57541 0.06828 0.95667 0.0
C1405 C 0.5986 0.0595 0.94461 0.0
C1406 C 0.58417 0.11291 0.95943 0.0
C1407 C 0.62983 0.09549 0.93508 0.0
C1408 C 0.63774 0.13964 0.93745 0.0
C1409 C 0.62451 0.1933 0.9524 0.0
C1410 C 0.60411 0.20326 0.96512 0.0
C1411 C 0.61536 0.14872 0.94964 0.0
C1412 C 0.57344 0.16765 0.97491 0.0
C1413 C 0.56316 0.12267 0.97199 0.0
H1414 H 0.95863 0.51808 0.96258 0.0
H1415 H 0.91811 0.58134 0.92801 0.0
H1416 H 0.83856 0.52766 0.93405 0.0
H1417 H 0.7808 0.46336 0.94886 0.0
H1418 H 0.81866 0.39873 0.98361 0.0
H1419 H 0.89932 0.45299 0.978 0.0
C1420 C 0.93235 0.51996 0.95635 0.0
C1421 C 0.94431 0.55357 0.9448 0.0
C1422 C 0.88642 0.48912 0.95999 0.0
C1423 C 0.90991 0.55588 0.93693 0.0
C1424 C 0.86438 0.5252 0.94038 0.0
C1425 C 0.80663 0.46092 0.95521 0.0
C1426 C 0.79386 0.42713 0.96668 0.0
C1427 C 0.85235 0.49178 0.95184 0.0
C1428 C 0.82772 0.42489 0.97493 0.0
C1429 C 0.87374 0.45564 0.9716 0.0
H1430 H 0.48544 0.4511 0.94926 0.0
H1431 H 0.39548 0.35837 0.98468 0.0
H1432 H 0.4569 0.35001 0.99487 0.0
H1433 H 0.53318 0.36081 0.99113 0.0
H1434 H 0.62063 0.45058 0.9547 0.0
H1435 H 0.56392 0.46966 0.94783 0.0
C1436 C 0.47935 0.42935 0.9593 0.0
C1437 C 0.4358 0.40462 0.96598 0.0
C1438 C 0.5146 0.42453 0.965 0.0
C1439 C 0.42865 0.37737 0.9792 0.0
C1440 C 0.46376 0.37259 0.98504 0.0
C1441 C 0.54023 0.38578 0.9821 0.0
C1442 C 0.58073 0.40441 0.9734 0.0
C1443 C 0.50653 0.39496 0.97773 0.0
C1444 C 0.58955 0.4361 0.96154 0.0
C1445 C 0.55699 0.44659 0.9575 0.0
H1446 H 0.65316 0.77818 0.80359 0.0
H1447 H 0.63373 0.75142 0.7532 0.0
H1448 H 0.55778 0.73974 0.75535 0.0
H1449 H 0.49535 0.7309 0.77162 0.0
H1450 H 0.51144 0.7518 0.82231 0.0
H1451 H 0.59091 0.77306 0.81991 0.0
C1452 C 0.6325 0.77033 0.79305 0.0
C1453 C 0.64895 0.76541 0.77824 0.0
C1454 C 0.58841 0.76259 0.79443 0.0
C1455 C 0.62172 0.75502 0.76472 0.0
C1456 C 0.57834 0.7484 0.76595 0.0
C1457 C 0.51619 0.74054 0.78219 0.0
C1458 C 0.4972 0.73933 0.79716 0.0
C1459 C 0.56109 0.75116 0.78077 0.0
C1460 C 0.52504 0.75234 0.81065 0.0
C1461 C 0.57042 0.76423 0.80928 0.0
H1462 H 0.25451 0.85044 0.77012 0.0
H1463 H 0.3188 0.92383 0.81358 0.0
H1464 H 0.32598 0.86014 0.82205 0.0
H1465 H 0.32277 0.78794 0.81558 0.0
H1466 H 0.26088 0.71588 0.77182 0.0
H1467 H 0.24351 0.77431 0.76507 0.0
C1468 C 0.26967 0.85232 0.78151 0.0
C1469 C 0.28676 0.89215 0.79106 0.0
C1470 C 0.27412 0.81573 0.78627 0.0
C1471 C 0.30583 0.89379 0.80588 0.0
C1472 C 0.30994 0.85735 0.81077 0.0
C1473 C 0.30387 0.78421 0.8049 0.0
C1474 C 0.29262 0.74763 0.79429 0.0
C1475 C 0.29526 0.81866 0.80088 0.0
C1476 C 0.26962 0.74383 0.78018 0.0
C1477 C 0.25998 0.77734 0.77627 0.0
H1478 H 0.12055 0.39627 0.79193 0.0
H1479 H 0.15783 0.41552 0.74255 0.0
H1480 H 0.23387 0.47882 0.74956 0.0
H1481 H 0.28602 0.53373 0.76922 0.0
H1482 H 0.24453 0.52309 0.81805 0.0
H1483 H 0.1749 0.45006 0.81198 0.0
C1484 C 0.14561 0.41404 0.78275 0.0
C1485 C 0.1337 0.40166 0.76674 0.0
C1486 C 0.18867 0.45151 0.78684 0.0
C1487 C 0.16618 0.42494 0.75493 0.0
C1488 C 0.20964 0.46093 0.75893 0.0
C1489 C 0.26221 0.51495 0.77863 0.0
C1490 C 0.27088 0.53347 0.79414 0.0
C1491 C 0.22078 0.47523 0.77479 0.0
C1492 C 0.2396 0.50883 0.80616 0.0
C1493 C 0.19922 0.46759 0.80259 0.0
H1494 H 0.3722 0.9685 0.08182 0.0
H1495 H 0.33767 0.92154 0.12986 0.0
H1496 H 0.33456 0.85053 0.12228 0.0
H1497 H 0.34062 0.80184 0.10209 0.0
H1498 H 0.37452 0.84805 0.05396 0.0
H1499 H 0.37976 0.9201 0.06164 0.0
C1500 C 0.36376 0.94268 0.09065 0.0
C1501 C 0.35484 0.95016 0.10639 0.0
C1502 C 0.36241 0.90217 0.08624 0.0
C1503 C 0.34446 0.91654 0.11767 0.0
C1504 C 0.34282 0.87602 0.11335 0.0
C1505 C 0.34946 0.8277 0.09325 0.0
C1506 C 0.35716 0.81949 0.07745 0.0
C1507 C 0.35172 0.86855 0.09769 0.0
C1508 C 0.36862 0.85349 0.0662 0.0
C1509 C 0.37134 0.89458 0.07057 0.0
H1510 H 0.04338 0.46076 0.07546 0.0
H1511 H 0.10907 0.41369 0.10642 0.0
H1512 H 0.18291 0.48028 0.09998 0.0
H1513 H 0.22826 0.55126 0.08598 0.0
H1514 H 0.16482 0.59934 0.05446 0.0
H1515 H 0.09009 0.53217 0.06061 0.0
C1516 C 0.07387 0.46518 0.08083 0.0
C1517 C 0.07077 0.43247 0.0915 0.0
C1518 C 0.11632 0.50337 0.07695 0.0
C1519 C 0.11054 0.43832 0.09821 0.0
C1520 C 0.15273 0.47637 0.09453 0.0
C1521 C 0.19816 0.54734 0.08044 0.0
C1522 C 0.202 0.58052 0.06989 0.0
C1523 C 0.1559 0.50901 0.08398 0.0
C1524 C 0.16271 0.57433 0.06263 0.0
C1525 C 0.12008 0.53605 0.06619 0.0
H1526 H 0.55741 0.63727 0.05886 0.0
H1527 H 0.51655 0.61079 0.10792 0.0
H1528 H 0.45116 0.61734 0.10251 0.0
H1529 H 0.40841 0.63501 0.08468 0.0
H1530 H 0.44888 0.66651 0.03595 0.0
H1531 H 0.5109 0.6519 0.04022 0.0
C1532 C 0.53414 0.63291 0.06834 0.0
C1533 C 0.54227 0.62407 0.08384 0.0
C1534 C 0.49642 0.63709 0.06518 0.0
C1535 C 0.51158 0.61814 0.09596 0.0
C1536 C 0.47397 0.62163 0.09287 0.0
C1537 C 0.43055 0.63831 0.0749 0.0
C1538 C 0.42452 0.65219 0.06006 0.0
C1539 C 0.4665 0.63166 0.07763 0.0
C1540 C 0.4528 0.65558 0.04744 0.0
C1541 C 0.48849 0.6478 0.04997 0.0
H1542 H 0.06555 0.60135 0.58905 0.0
H1543 H 0.05616 0.63426 0.54076 0.0
H1544 H 0.1323 0.64924 0.53536 0.0
H1545 H 0.20476 0.66092 0.54511 0.0
H1546 H 0.21457 0.62971 0.59354 0.0
H1547 H 0.1354 0.6061 0.59806 0.0
C1548 C 0.0799 0.61127 0.5773 0.0
C1549 C 0.0552 0.61715 0.56542 0.0
C1550 C 0.12411 0.62048 0.57429 0.0
C1551 C 0.07444 0.62986 0.55022 0.0
C1552 C 0.1181 0.6385 0.54709 0.0
C1553 C 0.18921 0.64771 0.5565 0.0
C1554 C 0.21561 0.64704 0.56894 0.0
C1555 C 0.14371 0.63496 0.55913 0.0
C1556 C 0.1951 0.6308 0.58376 0.0
C1557 C 0.1498 0.61737 0.58639 0.0
H1558 H 0.43991 0.52262 0.59779 0.0
H1559 H 0.38753 0.45565 0.55241 0.0
H1560 H 0.38247 0.5205 0.54382 0.0
H1561 H 0.38771 0.59398 0.54982 0.0
H1562 H 0.43842 0.65999 0.59539 0.0
H1563 H 0.45013 0.59848 0.60309 0.0
C1564 C 0.42739 0.5222 0.58602 0.0
C1565 C 0.41364 0.48399 0.57587 0.0
C1566 C 0.42457 0.55973 0.5811 0.0
C1567 C 0.39805 0.48438 0.56057 0.0
C1568 C 0.39523 0.52157 0.55559 0.0
C1569 C 0.40242 0.59548 0.56126 0.0
C1570 C 0.41219 0.63153 0.572 0.0
C1571 C 0.40791 0.55924 0.56581 0.0
C1572 C 0.43053 0.63255 0.58691 0.0
C1573 C 0.43697 0.59722 0.59137 0.0
H1574 H 0.59425 0.9927 0.56508 0.0
H1575 H 0.53844 0.01032 0.60871 0.0
H1576 H 0.46674 0.93876 0.60339 0.0
H1577 H 0.42274 0.86763 0.58767 0.0
H1578 H 0.47646 0.85084 0.54343 0.0
H1579 H 0.54549 0.92616 0.54737 0.0
C1580 C 0.56618 0.98093 0.57333 0.0
C1581 C 0.57179 0.00625 0.5874 0.0
C1582 C 0.52462 0.94011 0.57003 0.0
C1583 C 0.53498 0.99126 0.59785 0.0
C1584 C 0.49399 0.95034 0.59482 0.0
C1585 C 0.44916 0.88094 0.57872 0.0
C1586 C 0.44468 0.85359 0.56535 0.0
C1587 C 0.48878 0.92403 0.58113 0.0
C1588 C 0.47894 0.87135 0.55378 0.0
C1589 C 0.51869 0.91419 0.55613 0.0
H1590 H 0.21678 0.35243 0.30217 0.0
H1591 H 0.29593 0.39725 0.25923 0.0
H1592 H 0.30668 0.4734 0.26298 0.0
H1593 H 0.29879 0.52854 0.27943 0.0
H1594 H 0.22353 0.48579 0.32311 0.0
H1595 H 0.20573 0.40722 0.31808 0.0
C1596 C 0.23592 0.37869 0.29353 0.0
C1597 C 0.25568 0.36923 0.28046 0.0
C1598 C 0.24287 0.42273 0.29596 0.0
C1599 C 0.28061 0.40372 0.26943 0.0
C1600 C 0.28676 0.44725 0.27157 0.0
C1601 C 0.27786 0.50195 0.28776 0.0
C1602 C 0.26277 0.51308 0.30174 0.0
C1603 C 0.26877 0.45734 0.28493 0.0
C1604 C 0.23605 0.47822 0.31242 0.0
C1605 C 0.22584 0.43332 0.30951 0.0
H1606 H 0.59002 0.88176 0.29902 0.0
H1607 H 0.57579 0.80595 0.25563 0.0
H1608 H 0.51561 0.7359 0.26751 0.0
H1609 H 0.46021 0.6988 0.28866 0.0
H1610 H 0.4681 0.77532 0.33094 0.0
H1611 H 0.53889 0.84177 0.3215 0.0
C1612 C 0.57406 0.84982 0.29222 0.0
C1613 C 0.58688 0.84937 0.27632 0.0
C1614 C 0.53878 0.80958 0.29906 0.0
C1615 C 0.56614 0.80756 0.26776 0.0
C1616 C 0.53184 0.76736 0.27458 0.0
C1617 C 0.47851 0.72952 0.29606 0.0
C1618 C 0.45965 0.732 0.3106 0.0
C1619 C 0.51707 0.76828 0.29003 0.0
C1620 C 0.48294 0.77208 0.32 0.0
C1621 C 0.52274 0.81044 0.31437 0.0
H1622 H 0.11164 0.72797 0.32037 0.0
H1623 H 0.15406 0.77183 0.27242 0.0
H1624 H 0.22018 0.7646 0.27593 0.0
H1625 H 0.26154 0.73868 0.29161 0.0
H1626 H 0.21624 0.68933 0.33876 0.0
H1627 H 0.15662 0.70745 0.33681 0.0
C1628 C 0.13555 0.73637 0.31072 0.0
C1629 C 0.12753 0.74982 0.29607 0.0
C1630 C 0.17322 0.73155 0.31274 0.0
C1631 C 0.15911 0.76094 0.28376 0.0
C1632 C 0.19698 0.75687 0.28576 0.0
C1633 C 0.23909 0.73265 0.30157 0.0
C1634 C 0.24367 0.71328 0.31541 0.0
C1635 C 0.20374 0.74119 0.30005 0.0
C1636 C 0.21436 0.70556 0.3282 0.0
C1637 C 0.17971 0.71512 0.32695 0.0
loop_
_geom_bond_atom_site_label_1
_geom_bond_atom_site_label_2
_geom_bond_distance
_geom_bond_site_symmetry_2
_ccdc_geom_bond_type
C0 O1 1.160 . S
C0 O7 1.185 . S
O1 C0 1.160 . S
O2 Zn3 1.899 1_565 S
O2 C10 1.284 . S
Zn3 O2 1.899 1_545 S
Zn3 O4 2.032 . S
Zn3 O7 2.086 . S
Zn3 O12 1.977 . S
O4 Zn3 2.032 . S
O4 C8 1.268 1_545 S
C5 O6 1.203 1_545 S
C5 O12 1.267 . S
O6 C5 1.203 1_565 S
O7 C0 1.185 . S
O7 Zn3 2.086 . S
C8 O4 1.268 1_565 S
C8 O9 1.218 . S
O9 C8 1.218 . S
C10 O2 1.284 . S
C10 O11 1.273 . S
O11 C10 1.273 . S
O12 Zn3 1.977 . S
O12 C5 1.267 . S
C13 O14 1.160 . S
C13 O20 1.185 . S
O14 C13 1.160 . S
O15 Zn16 1.899 1_655 S
O15 C23 1.284 . S
Zn16 O15 1.899 1_455 S
Zn16 O17 2.032 . S
Zn16 O20 2.086 . S
Zn16 O25 1.977 . S
O17 Zn16 2.032 . S
O17 C21 1.278 1_455 S
C18 O19 1.203 1_455 S
C18 O25 1.267 . S
O19 C18 1.203 1_655 S
O20 C13 1.185 . S
O20 Zn16 2.086 . S
C21 O17 1.278 1_655 S
C21 O22 1.211 . S
O22 C21 1.211 . S
C23 O15 1.284 . S
C23 O24 1.273 . S
O24 C23 1.273 . S
O25 Zn16 1.977 . S
O25 C18 1.267 . S
C26 O27 1.160 . S
C26 O33 1.185 . S
O27 C26 1.160 . S
O28 Zn29 1.899 . S
O28 C36 1.284 . S
Zn29 O28 1.899 . S
Zn29 O30 2.032 . S
Zn29 O33 2.086 . S
Zn29 O38 1.977 . S
O30 Zn29 2.032 . S
O30 C34 1.278 . S
C31 O32 1.203 . S
C31 O38 1.267 . S
O32 C31 1.203 . S
O33 C26 1.185 . S
O33 Zn29 2.086 . S
C34 O30 1.278 . S
C34 O35 1.211 . S
O35 C34 1.211 . S
C36 O28 1.284 . S
C36 O37 1.273 . S
O37 C36 1.273 . S
O38 Zn29 1.977 . S
O38 C31 1.267 . S
C39 O40 1.160 . S
C39 O46 1.185 . S
O40 C39 1.160 . S
O41 Zn42 1.899 . S
O41 C49 1.284 . S
Zn42 O41 1.899 . S
Zn42 O43 2.032 . S
Zn42 O46 2.086 1_545 S
Zn42 O51 1.977 1_545 S
O43 Zn42 2.032 . S
O43 C47 1.278 . S
C44 O45 1.203 . S
C44 O51 1.267 1_545 S
O45 C44 1.203 . S
O46 C39 1.185 . S
O46 Zn42 2.086 1_565 S
C47 O43 1.278 . S
C47 O48 1.211 . S
O48 C47 1.211 . S
C49 O41 1.284 . S
C49 O50 1.273 . S
O50 C49 1.273 . S
O51 Zn42 1.977 1_565 S
O51 C44 1.267 1_565 S
C52 O53 1.160 . S
C52 O59 1.185 . S
O53 C52 1.160 . S
O54 Zn55 1.899 . S
O54 C62 1.284 . S
Zn55 O54 1.899 . S
Zn55 O56 2.032 . S
Zn55 O59 2.086 1_455 S
Zn55 O64 1.977 1_455 S
O56 Zn55 2.032 . S
O56 C60 1.278 . S
C57 O58 1.203 . S
C57 O64 1.267 1_455 S
O58 C57 1.203 . S
O59 C52 1.185 . S
O59 Zn55 2.086 1_655 S
C60 O56 1.278 . S
C60 O61 1.211 . S
O61 C60 1.211 . S
C62 O54 1.284 . S
C62 O63 1.273 . S
O63 C62 1.273 . S
O64 Zn55 1.977 1_655 S
O64 C57 1.267 1_655 S
C65 O66 1.160 . S
C65 O72 1.185 . S
O66 C65 1.160 . S
O67 Zn68 1.899 . S
O67 C75 1.284 . S
Zn68 O67 1.899 . S
Zn68 O69 2.032 . S
Zn68 O72 2.086 . S
Zn68 O77 1.977 . S
O69 Zn68 2.032 . S
O69 C73 1.278 . S
C70 O71 1.203 . S
C70 O77 1.267 . S
O71 C70 1.203 . S
O72 C65 1.185 . S
O72 Zn68 2.086 . S
C73 O69 1.278 . S
C73 O74 1.211 . S
O74 C73 1.211 . S
C75 O67 1.284 . S
C75 O76 1.273 . S
O76 C75 1.273 . S
O77 Zn68 1.977 . S
O77 C70 1.267 . S
C78 O79 1.160 . S
C78 O85 1.185 . S
O79 C78 1.160 . S
O80 Zn81 1.899 . S
O80 C88 1.284 . S
Zn81 O80 1.899 . S
Zn81 O82 2.032 . S
Zn81 O85 2.086 . S
Zn81 O90 1.977 . S
O82 Zn81 2.032 . S
O82 C86 1.278 . S
C83 O84 1.203 . S
C83 O90 1.267 . S
O84 C83 1.203 . S
O85 C78 1.185 . S
O85 Zn81 2.086 . S
C86 O82 1.278 . S
C86 O87 1.211 . S
O87 C86 1.211 . S
C88 O80 1.284 . S
C88 O89 1.273 . S
O89 C88 1.273 . S
O90 Zn81 1.977 . S
O90 C83 1.267 . S
C91 O92 1.160 . S
C91 O98 1.185 . S
O92 C91 1.160 . S
O93 Zn94 1.899 . S
O93 C101 1.284 1_545 S
Zn94 O93 1.899 . S
Zn94 O95 2.032 . S
Zn94 O98 2.086 . S
Zn94 O103 1.977 . S
O95 Zn94 2.032 . S
O95 C99 1.278 . S
C96 O97 1.203 . S
C96 O103 1.267 . S
O97 C96 1.203 . S
O98 C91 1.185 . S
O98 Zn94 2.086 . S
C99 O95 1.278 . S
C99 O100 1.211 . S
O100 C99 1.211 . S
C101 O93 1.284 1_565 S
C101 O102 1.273 1_565 S
O102 C101 1.273 1_545 S
O103 Zn94 1.977 . S
O103 C96 1.267 . S
C104 O105 1.160 . S
C104 O111 1.185 . S
O105 C104 1.160 . S
O106 Zn107 1.899 . S
O106 C114 1.284 . S
Zn107 O106 1.899 . S
Zn107 O108 2.032 . S
Zn107 O111 2.086 1_655 S
Zn107 O116 1.977 . S
O108 Zn107 2.032 . S
O108 C112 1.278 . S
C109 O110 1.203 . S
C109 O116 1.267 . S
O110 C109 1.203 . S
O111 C104 1.185 . S
O111 Zn107 2.086 1_455 S
C112 O108 1.278 . S
C112 O113 1.211 . S
O113 C112 1.211 . S
C114 O106 1.284 . S
C114 O115 1.273 . S
O115 C114 1.273 . S
O116 Zn107 1.977 . S
O116 C109 1.267 . S
C117 O118 1.160 1_655 S
C117 O124 1.185 . S
O118 C117 1.160 1_455 S
O119 Zn120 1.899 1_455 S
O119 C127 1.284 . S
Zn120 O119 1.899 1_655 S
Zn120 O121 2.032 . S
Zn120 O124 2.086 . S
Zn120 O129 1.977 . S
O121 Zn120 2.032 . S
O121 C125 1.278 . S
C122 O123 1.203 . S
C122 O129 1.267 . S
O123 C122 1.203 . S
O124 C117 1.185 . S
O124 Zn120 2.086 . S
C125 O121 1.278 . S
C125 O126 1.211 . S
O126 C125 1.211 . S
C127 O119 1.284 . S
C127 O128 1.273 . S
O128 C127 1.273 . S
O129 Zn120 1.977 . S
O129 C122 1.267 . S
C130 O131 1.160 . S
C130 O137 1.185 . S
O131 C130 1.160 . S
O132 Zn133 1.899 . S
O132 C140 1.284 . S
Zn133 O132 1.899 . S
Zn133 O134 2.032 . S
Zn133 O137 2.086 . S
Zn133 O142 1.977 . S
O134 Zn133 2.032 . S
O134 C138 1.278 . S
C135 O136 1.203 . S
C135 O142 1.267 . S
O136 C135 1.203 . S
O137 C130 1.185 . S
O137 Zn133 2.086 . S
C138 O134 1.278 . S
C138 O139 1.211 . S
O139 C138 1.211 . S
C140 O132 1.284 . S
C140 O141 1.273 . S
O141 C140 1.273 . S
O142 Zn133 1.977 . S
O142 C135 1.267 . S
C143 O144 1.160 . S
C143 O150 1.185 . S
O144 C143 1.160 . S
O145 Zn146 1.899 . S
O145 C153 1.284 1_545 S
Zn146 O145 1.899 . S
Zn146 O147 2.032 . S
Zn146 O150 2.086 . S
Zn146 O155 1.977 . S
O147 Zn146 2.032 . S
O147 C151 1.278 . S
C148 O149 1.203 . S
C148 O155 1.267 . S
O149 C148 1.203 . S
O150 C143 1.185 . S
O150 Zn146 2.086 . S
C151 O147 1.278 . S
C151 O152 1.211 . S
O152 C151 1.211 . S
C153 O145 1.284 1_565 S
C153 O154 1.273 1_565 S
O154 C153 1.273 1_545 S
O155 Zn146 1.977 . S
O155 C148 1.267 . S
C156 O157 1.160 . S
C156 O163 1.185 . S
O157 C156 1.160 . S
O158 Zn159 1.899 . S
O158 C166 1.284 1_455 S
Zn159 O158 1.899 . S
Zn159 O160 2.032 . S
Zn159 O163 2.086 . S
Zn159 O168 1.977 . S
O160 Zn159 2.032 . S
O160 C164 1.278 . S
C161 O162 1.203 . S
C161 O168 1.267 . S
O162 C161 1.203 . S
O163 C156 1.185 . S
O163 Zn159 2.086 . S
C164 O160 1.278 . S
C164 O165 1.211 . S
O165 C164 1.211 . S
C166 O158 1.284 1_655 S
C166 O167 1.273 1_655 S
O167 C166 1.273 1_455 S
O168 Zn159 1.977 . S
O168 C161 1.267 . S
C169 O170 1.160 . S
C169 O176 1.185 . S
O170 C169 1.160 . S
O171 Zn172 1.899 . S
O171 C179 1.284 . S
Zn172 O171 1.899 . S
Zn172 O173 2.032 . S
Zn172 O176 2.086 . S
Zn172 O181 1.977 . S
O173 Zn172 2.032 . S
O173 C177 1.278 . S
C174 O175 1.203 . S
C174 O181 1.267 . S
O175 C174 1.203 . S
O176 C169 1.185 . S
O176 Zn172 2.086 . S
C177 O173 1.278 . S
C177 O178 1.211 . S
O178 C177 1.211 . S
C179 O171 1.284 . S
C179 O180 1.273 . S
O180 C179 1.273 . S
O181 Zn172 1.977 . S
O181 C174 1.267 . S
C182 O183 1.160 1_565 S
C182 O189 1.185 . S
O183 C182 1.160 1_545 S
O184 Zn185 1.899 1_545 S
O184 C192 1.284 . S
Zn185 O184 1.899 1_565 S
Zn185 O186 2.032 . S
Zn185 O189 2.086 . S
Zn185 O194 1.977 . S
O186 Zn185 2.032 . S
O186 C190 1.278 . S
C187 O188 1.203 . S
C187 O194 1.267 . S
O188 C187 1.203 . S
O189 C182 1.185 . S
O189 Zn185 2.086 . S
C190 O186 1.278 . S
C190 O191 1.211 . S
O191 C190 1.211 . S
C192 O184 1.284 . S
C192 O193 1.273 . S
O193 C192 1.273 . S
O194 Zn185 1.977 . S
O194 C187 1.267 . S
C195 O196 1.160 . S
C195 O202 1.185 . S
O196 C195 1.160 . S
O197 Zn198 1.899 . S
O197 C205 1.284 . S
Zn198 O197 1.899 . S
Zn198 O199 2.032 . S
Zn198 O202 2.086 . S
Zn198 O207 1.977 . S
O199 Zn198 2.032 . S
O199 C203 1.278 . S
C200 O201 1.203 . S
C200 O207 1.267 . S
O201 C200 1.203 . S
O202 C195 1.185 . S
O202 Zn198 2.086 . S
C203 O199 1.278 . S
C203 O204 1.211 . S
O204 C203 1.211 . S
C205 O197 1.284 . S
C205 O206 1.273 . S
O206 C205 1.273 . S
O207 Zn198 1.977 . S
O207 C200 1.267 . S
C208 O209 1.160 1_565 S
C208 O215 1.185 . S
O209 C208 1.160 1_545 S
O210 Zn211 1.899 1_545 S
O210 C218 1.284 . S
Zn211 O210 1.899 1_565 S
Zn211 O212 2.032 . S
Zn211 O215 2.086 . S
Zn211 O220 1.977 . S
O212 Zn211 2.032 . S
O212 C216 1.278 . S
C213 O214 1.203 . S
C213 O220 1.267 . S
O214 C213 1.203 . S
O215 C208 1.185 . S
O215 Zn211 2.086 . S
C216 O212 1.278 . S
C216 O217 1.211 . S
O217 C216 1.211 . S
C218 O210 1.284 . S
C218 O219 1.273 . S
O219 C218 1.273 . S
O220 Zn211 1.977 . S
O220 C213 1.267 . S
C221 O222 1.160 . S
C221 O228 1.185 1_655 S
O222 C221 1.160 . S
O223 Zn224 1.899 . S
O223 C231 1.284 . S
Zn224 O223 1.899 . S
Zn224 O225 2.032 . S
Zn224 O228 2.086 . S
Zn224 O233 1.977 . S
O225 Zn224 2.032 . S
O225 C229 1.278 . S
C226 O227 1.203 . S
C226 O233 1.267 . S
O227 C226 1.203 . S
O228 C221 1.185 1_455 S
O228 Zn224 2.086 . S
C229 O225 1.278 . S
C229 O230 1.211 . S
O230 C229 1.211 . S
C231 O223 1.284 . S
C231 O232 1.273 . S
O232 C231 1.273 . S
O233 Zn224 1.977 . S
O233 C226 1.267 . S
Zn234 O240 1.920 1_455 S
Zn234 O246 1.898 1_445 S
Zn234 O249 1.905 . S
Zn235 O243 1.905 1_445 S
Zn235 O244 1.898 . S
Zn235 O252 1.920 1_455 S
Zn236 O239 2.080 . S
Zn236 O242 2.114 1_545 S
Zn236 O245 2.120 . S
Zn236 O247 2.120 1_445 S
Zn236 O248 2.114 . S
Zn236 O251 2.080 1_455 S
C237 O242 1.164 1_655 S
C237 O243 1.186 . S
C238 O244 1.167 . S
C238 O245 1.299 . S
O239 Zn236 2.080 . S
O239 C253 1.305 1_455 S
O240 Zn234 1.920 1_655 S
O240 C253 1.234 . S
C241 O246 1.167 . S
C241 O247 1.299 . S
O242 Zn236 2.114 1_565 S
O242 C237 1.164 1_455 S
O243 Zn235 1.905 1_665 S
O243 C237 1.186 . S
O244 Zn235 1.898 . S
O244 C238 1.167 . S
O245 Zn236 2.120 . S
O245 C238 1.299 . S
O246 Zn234 1.898 1_665 S
O246 C241 1.167 . S
O247 Zn236 2.120 1_665 S
O247 C241 1.299 . S
O248 Zn236 2.114 . S
O248 C250 1.166 . S
O249 Zn234 1.905 . S
O249 C250 1.182 . S
C250 O248 1.166 . S
C250 O249 1.182 . S
O251 Zn236 2.080 1_655 S
O251 C254 1.305 . S
O252 Zn235 1.920 1_655 S
O252 C254 1.234 . S
C253 O239 1.305 1_655 S
C253 O240 1.234 . S
C254 O251 1.305 . S
C254 O252 1.234 . S
Zn255 O261 1.920 1_545 S
Zn255 O267 1.898 . S
Zn255 O270 1.905 1_445 S
Zn256 O264 1.905 . S
Zn256 O265 1.898 1_445 S
Zn256 O273 1.920 1_545 S
Zn257 O260 2.080 1_545 S
Zn257 O263 2.114 . S
Zn257 O266 2.120 1_445 S
Zn257 O268 2.120 . S
Zn257 O269 2.114 1_455 S
Zn257 O272 2.080 . S
C258 O263 1.166 . S
C258 O264 1.182 . S
C259 O265 1.167 . S
C259 O266 1.299 . S
O260 Zn257 2.080 1_565 S
O260 C274 1.305 . S
O261 Zn255 1.920 1_565 S
O261 C274 1.234 . S
C262 O267 1.167 . S
C262 O268 1.299 . S
O263 Zn257 2.114 . S
O263 C258 1.166 . S
O264 Zn256 1.905 . S
O264 C258 1.182 . S
O265 Zn256 1.898 1_665 S
O265 C259 1.167 . S
O266 Zn257 2.120 1_665 S
O266 C259 1.299 . S
O267 Zn255 1.898 . S
O267 C262 1.167 . S
O268 Zn257 2.120 . S
O268 C262 1.299 . S
O269 Zn257 2.114 1_655 S
O269 C271 1.166 . S
O270 Zn255 1.905 1_665 S
O270 C271 1.182 1_565 S
C271 O269 1.166 . S
C271 O270 1.182 1_545 S
O272 Zn257 2.080 . S
O272 C275 1.305 1_545 S
O273 Zn256 1.920 1_565 S
O273 C275 1.234 . S
C274 O260 1.305 . S
C274 O261 1.234 . S
C275 O272 1.305 1_565 S
C275 O273 1.234 . S
Zn276 O282 1.920 1_545 S
Zn276 O288 1.898 . S
Zn276 O291 1.905 1_445 S
Zn277 O285 1.905 . S
Zn277 O286 1.898 1_445 S
Zn277 O294 1.920 1_545 S
Zn278 O281 2.080 1_545 S
Zn278 O284 2.114 . S
Zn278 O287 2.120 1_445 S
Zn278 O289 2.120 . S
Zn278 O290 2.114 1_455 S
Zn278 O293 2.080 . S
C279 O284 1.166 . S
C279 O285 1.182 . S
C280 O286 1.167 . S
C280 O287 1.299 . S
O281 Zn278 2.080 1_565 S
O281 C295 1.305 . S
O282 Zn276 1.920 1_565 S
O282 C295 1.234 . S
C283 O288 1.167 . S
C283 O289 1.299 . S
O284 Zn278 2.114 . S
O284 C279 1.166 . S
O285 Zn277 1.905 . S
O285 C279 1.182 . S
O286 Zn277 1.898 1_665 S
O286 C280 1.167 . S
O287 Zn278 2.120 1_665 S
O287 C280 1.299 . S
O288 Zn276 1.898 . S
O288 C283 1.167 . S
O289 Zn278 2.120 . S
O289 C283 1.299 . S
O290 Zn278 2.114 1_655 S
O290 C292 1.166 . S
O291 Zn276 1.905 1_665 S
O291 C292 1.182 1_565 S
C292 O290 1.166 . S
C292 O291 1.182 1_545 S
O293 Zn278 2.080 . S
O293 C296 1.305 . S
O294 Zn277 1.920 1_565 S
O294 C296 1.234 1_565 S
C295 O281 1.305 . S
C295 O282 1.234 . S
C296 O293 1.305 . S
C296 O294 1.234 1_545 S
Zn297 O303 1.921 1_455 S
Zn297 O309 1.898 1_445 S
Zn297 O312 1.905 . S
Zn298 O306 1.905 1_445 S
Zn298 O307 1.898 . S
Zn298 O315 1.920 1_455 S
Zn299 O302 2.080 . S
Zn299 O305 2.114 1_545 S
Zn299 O308 2.120 . S
Zn299 O310 2.120 1_445 S
Zn299 O311 2.114 . S
Zn299 O314 2.080 1_455 S
C300 O305 1.166 1_655 S
C300 O306 1.182 . S
C301 O307 1.167 . S
C301 O308 1.299 . S
O302 Zn299 2.080 . S
O302 C316 1.305 . S
O303 Zn297 1.921 1_655 S
O303 C316 1.234 1_655 S
C304 O309 1.167 . S
C304 O310 1.299 . S
O305 Zn299 2.114 1_565 S
O305 C300 1.166 1_455 S
O306 Zn298 1.905 1_665 S
O306 C300 1.182 . S
O307 Zn298 1.898 . S
O307 C301 1.167 . S
O308 Zn299 2.120 . S
O308 C301 1.299 . S
O309 Zn297 1.898 1_665 S
O309 C304 1.167 . S
O310 Zn299 2.120 1_665 S
O310 C304 1.299 . S
O311 Zn299 2.114 . S
O311 C313 1.166 . S
O312 Zn297 1.905 . S
O312 C313 1.182 . S
C313 O311 1.166 . S
C313 O312 1.182 . S
O314 Zn299 2.080 1_655 S
O314 C317 1.305 . S
O315 Zn298 1.920 1_655 S
O315 C317 1.234 . S
C316 O302 1.305 . S
C316 O303 1.234 1_455 S
C317 O314 1.305 . S
C317 O315 1.234 . S
Zn318 O324 1.920 . S
Zn318 O330 1.898 . S
Zn318 O333 1.905 . S
Zn319 O327 1.905 . S
Zn319 O328 1.898 . S
Zn319 O336 1.920 . S
Zn320 O323 2.080 . S
Zn320 O326 2.114 . S
Zn320 O329 2.120 . S
Zn320 O331 2.120 . S
Zn320 O332 2.114 . S
Zn320 O335 2.080 . S
C321 O326 1.166 . S
C321 O327 1.182 . S
C322 O328 1.167 . S
C322 O329 1.299 . S
O323 Zn320 2.080 . S
O323 C337 1.305 . S
O324 Zn318 1.920 . S
O324 C337 1.234 . S
C325 O330 1.167 . S
C325 O331 1.299 . S
O326 Zn320 2.114 . S
O326 C321 1.166 . S
O327 Zn319 1.905 . S
O327 C321 1.182 . S
O328 Zn319 1.898 . S
O328 C322 1.167 . S
O329 Zn320 2.120 . S
O329 C322 1.299 . S
O330 Zn318 1.898 . S
O330 C325 1.167 . S
O331 Zn320 2.120 . S
O331 C325 1.299 . S
O332 Zn320 2.114 . S
O332 C334 1.166 . S
O333 Zn318 1.905 . S
O333 C334 1.182 . S
C334 O332 1.166 . S
C334 O333 1.182 . S
O335 Zn320 2.080 . S
O335 C338 1.305 . S
O336 Zn319 1.920 . S
O336 C338 1.234 . S
C337 O323 1.305 . S
C337 O324 1.234 . S
C338 O335 1.305 . S
C338 O336 1.234 . S
Zn339 O345 1.920 . S
Zn339 O351 1.898 . S
Zn339 O354 1.905 . S
Zn340 O348 1.905 . S
Zn340 O349 1.898 . S
Zn340 O357 1.920 . S
Zn341 O344 2.080 . S
Zn341 O347 2.114 . S
Zn341 O350 2.120 . S
Zn341 O352 2.120 . S
Zn341 O353 2.114 . S
Zn341 O356 2.080 . S
C342 O347 1.166 . S
C342 O348 1.182 . S
C343 O349 1.167 . S
C343 O350 1.299 . S
O344 Zn341 2.080 . S
O344 C358 1.305 . S
O345 Zn339 1.920 . S
O345 C358 1.234 . S
C346 O351 1.167 . S
C346 O352 1.299 . S
O347 Zn341 2.114 . S
O347 C342 1.166 . S
O348 Zn340 1.905 . S
O348 C342 1.182 . S
O349 Zn340 1.898 . S
O349 C343 1.167 . S
O350 Zn341 2.120 . S
O350 C343 1.299 . S
O351 Zn339 1.898 . S
O351 C346 1.167 . S
O352 Zn341 2.120 . S
O352 C346 1.299 . S
O353 Zn341 2.114 . S
O353 C355 1.166 . S
O354 Zn339 1.905 . S
O354 C355 1.182 . S
C355 O353 1.166 . S
C355 O354 1.182 . S
O356 Zn341 2.080 . S
O356 C359 1.305 . S
O357 Zn340 1.920 . S
O357 C359 1.234 . S
C358 O344 1.305 . S
C358 O345 1.234 . S
C359 O356 1.305 . S
C359 O357 1.234 . S
Zn360 O366 1.920 . S
Zn360 O372 1.898 . S
Zn360 O375 1.905 . S
Zn361 O369 1.905 . S
Zn361 O370 1.898 . S
Zn361 O378 1.920 . S
Zn362 O365 2.080 . S
Zn362 O368 2.114 . S
Zn362 O371 2.120 . S
Zn362 O373 2.120 . S
Zn362 O374 2.114 . S
Zn362 O377 2.080 . S
C363 O368 1.166 . S
C363 O369 1.182 . S
C364 O370 1.167 . S
C364 O371 1.299 . S
O365 Zn362 2.080 . S
O365 C379 1.305 . S
O366 Zn360 1.920 . S
O366 C379 1.234 . S
C367 O372 1.167 . S
C367 O373 1.299 . S
O368 Zn362 2.114 . S
O368 C363 1.166 . S
O369 Zn361 1.905 . S
O369 C363 1.182 . S
O370 Zn361 1.898 . S
O370 C364 1.167 . S
O371 Zn362 2.120 . S
O371 C364 1.299 . S
O372 Zn360 1.898 . S
O372 C367 1.167 . S
O373 Zn362 2.120 . S
O373 C367 1.299 . S
O374 Zn362 2.114 . S
O374 C376 1.166 . S
O375 Zn360 1.905 . S
O375 C376 1.182 . S
C376 O374 1.166 . S
C376 O375 1.182 . S
O377 Zn362 2.080 . S
O377 C380 1.305 . S
O378 Zn361 1.920 . S
O378 C380 1.234 . S
C379 O365 1.305 . S
C379 O366 1.234 . S
C380 O377 1.305 . S
C380 O378 1.234 . S
Zn381 O387 1.920 . S
Zn381 O393 1.898 . S
Zn381 O396 1.905 . S
Zn382 O390 1.905 . S
Zn382 O391 1.898 . S
Zn382 O399 1.920 . S
Zn383 O386 2.080 . S
Zn383 O389 2.114 . S
Zn383 O392 2.120 . S
Zn383 O394 2.120 . S
Zn383 O395 2.114 . S
Zn383 O398 2.080 . S
C384 O389 1.166 . S
C384 O390 1.182 . S
C385 O391 1.167 . S
C385 O392 1.299 . S
O386 Zn383 2.080 . S
O386 C400 1.305 1_556 S
O387 Zn381 1.920 . S
O387 C400 1.234 . S
C388 O393 1.167 . S
C388 O394 1.299 1_554 S
O389 Zn383 2.114 . S
O389 C384 1.166 . S
O390 Zn382 1.905 . S
O390 C384 1.182 . S
O391 Zn382 1.898 . S
O391 C385 1.167 . S
O392 Zn383 2.120 . S
O392 C385 1.299 . S
O393 Zn381 1.898 . S
O393 C388 1.167 . S
O394 Zn383 2.120 . S
O394 C388 1.299 1_556 S
O395 Zn383 2.114 . S
O395 C397 1.166 1_556 S
O396 Zn381 1.905 . S
O396 C397 1.182 . S
C397 O395 1.166 1_554 S
C397 O396 1.182 . S
O398 Zn383 2.080 . S
O398 C401 1.305 . S
O399 Zn382 1.920 . S
O399 C401 1.234 . S
C400 O386 1.305 1_554 S
C400 O387 1.234 . S
C401 O398 1.305 . S
C401 O399 1.234 . S
Zn402 O408 1.920 . S
Zn402 O414 1.898 . S
Zn402 O417 1.905 . S
Zn403 O411 1.905 . S
Zn403 O412 1.898 . S
Zn403 O420 1.920 . S
Zn404 O407 2.080 . S
Zn404 O410 2.114 . S
Zn404 O413 2.120 . S
Zn404 O415 2.120 . S
Zn404 O416 2.114 . S
Zn404 O419 2.080 . S
C405 O410 1.166 . S
C405 O411 1.182 . S
C406 O412 1.167 . S
C406 O413 1.299 . S
O407 Zn404 2.080 . S
O407 C421 1.305 . S
O408 Zn402 1.920 . S
O408 C421 1.234 . S
C409 O414 1.167 . S
C409 O415 1.299 . S
O410 Zn404 2.114 . S
O410 C405 1.166 . S
O411 Zn403 1.905 . S
O411 C405 1.182 . S
O412 Zn403 1.898 . S
O412 C406 1.167 . S
O413 Zn404 2.120 . S
O413 C406 1.299 . S
O414 Zn402 1.898 . S
O414 C409 1.167 . S
O415 Zn404 2.120 . S
O415 C409 1.299 . S
O416 Zn404 2.114 . S
O416 C418 1.166 . S
O417 Zn402 1.905 . S
O417 C418 1.182 . S
C418 O416 1.166 . S
C418 O417 1.182 . S
O419 Zn404 2.080 . S
O419 C422 1.305 . S
O420 Zn403 1.920 . S
O420 C422 1.234 . S
C421 O407 1.305 . S
C421 O408 1.234 . S
C422 O419 1.305 . S
C422 O420 1.234 . S
Zn423 O429 1.920 . S
Zn423 O435 1.898 . S
Zn423 O438 1.905 . S
Zn424 O432 1.905 . S
Zn424 O433 1.898 . S
Zn424 O441 1.920 . S
Zn425 O428 2.080 . S
Zn425 O431 2.114 . S
Zn425 O434 2.120 . S
Zn425 O436 2.120 . S
Zn425 O437 2.114 . S
Zn425 O440 2.080 . S
C426 O431 1.166 1_556 S
C426 O432 1.182 . S
C427 O433 1.167 . S
C427 O434 1.299 1_556 S
O428 Zn425 2.080 . S
O428 C442 1.305 . S
O429 Zn423 1.920 . S
O429 C442 1.234 . S
C430 O435 1.167 . S
C430 O436 1.299 . S
O431 Zn425 2.114 . S
O431 C426 1.166 1_554 S
O432 Zn424 1.905 . S
O432 C426 1.182 . S
O433 Zn424 1.898 . S
O433 C427 1.167 . S
O434 Zn425 2.120 . S
O434 C427 1.299 1_554 S
O435 Zn423 1.898 . S
O435 C430 1.167 . S
O436 Zn425 2.120 . S
O436 C430 1.299 . S
O437 Zn425 2.114 . S
O437 C439 1.166 . S
O438 Zn423 1.905 . S
O438 C439 1.182 . S
C439 O437 1.166 . S
C439 O438 1.182 . S
O440 Zn425 2.080 . S
O440 C443 1.305 1_554 S
O441 Zn424 1.920 . S
O441 C443 1.234 . S
C442 O428 1.305 . S
C442 O429 1.234 . S
C443 O440 1.305 1_556 S
C443 O441 1.234 . S
Zn444 O450 1.920 . S
Zn444 O456 1.898 . S
Zn444 O459 1.905 . S
Zn445 O453 1.905 . S
Zn445 O454 1.898 . S
Zn445 O462 1.920 . S
Zn446 O449 2.080 . S
Zn446 O452 2.114 . S
Zn446 O455 2.120 . S
Zn446 O457 2.120 . S
Zn446 O458 2.114 . S
Zn446 O461 2.080 . S
C447 O452 1.166 . S
C447 O453 1.182 . S
C448 O454 1.167 . S
C448 O455 1.299 . S
O449 Zn446 2.080 . S
O449 C463 1.305 . S
O450 Zn444 1.920 . S
O450 C463 1.234 . S
C451 O456 1.167 . S
C451 O457 1.299 . S
O452 Zn446 2.114 . S
O452 C447 1.166 . S
O453 Zn445 1.905 . S
O453 C447 1.182 . S
O454 Zn445 1.898 . S
O454 C448 1.167 . S
O455 Zn446 2.120 . S
O455 C448 1.299 . S
O456 Zn444 1.898 . S
O456 C451 1.167 . S
O457 Zn446 2.120 . S
O457 C451 1.299 . S
O458 Zn446 2.114 . S
O458 C460 1.166 . S
O459 Zn444 1.905 . S
O459 C460 1.182 . S
C460 O458 1.166 . S
C460 O459 1.182 . S
O461 Zn446 2.080 . S
O461 C464 1.305 . S
O462 Zn445 1.920 . S
O462 C464 1.234 . S
C463 O449 1.305 . S
C463 O450 1.234 . S
C464 O461 1.305 . S
C464 O462 1.234 . S
Zn465 O471 1.920 . S
Zn465 O477 1.898 . S
Zn465 O480 1.905 . S
Zn466 O474 1.905 . S
Zn466 O475 1.898 . S
Zn466 O483 1.920 . S
Zn467 O470 2.080 . S
Zn467 O473 2.114 . S
Zn467 O476 2.120 . S
Zn467 O478 2.120 . S
Zn467 O479 2.114 . S
Zn467 O482 2.080 . S
C468 O473 1.166 . S
C468 O474 1.182 . S
C469 O475 1.167 . S
C469 O476 1.299 . S
O470 Zn467 2.080 . S
O470 C484 1.305 . S
O471 Zn465 1.920 . S
O471 C484 1.234 . S
C472 O477 1.167 . S
C472 O478 1.299 . S
O473 Zn467 2.114 . S
O473 C468 1.166 . S
O474 Zn466 1.905 . S
O474 C468 1.182 . S
O475 Zn466 1.898 . S
O475 C469 1.167 . S
O476 Zn467 2.120 . S
O476 C469 1.299 . S
O477 Zn465 1.898 . S
O477 C472 1.167 . S
O478 Zn467 2.120 . S
O478 C472 1.299 . S
O479 Zn467 2.114 . S
O479 C481 1.166 . S
O480 Zn465 1.905 . S
O480 C481 1.182 . S
C481 O479 1.166 . S
C481 O480 1.182 . S
O482 Zn467 2.080 . S
O482 C485 1.305 . S
O483 Zn466 1.920 . S
O483 C485 1.234 . S
C484 O470 1.305 . S
C484 O471 1.234 . S
C485 O482 1.305 . S
C485 O483 1.234 . S
H486 C492 0.930 . S
H487 C495 0.930 . S
H488 C496 0.930 . S
H489 C497 0.930 . S
H490 C500 0.930 . S
H491 C501 0.930 . S
C492 H486 0.930 . S
C492 C493 1.355 . S
C492 C494 1.415 . S
C493 C492 1.355 . S
C493 C495 1.419 . S
C494 C492 1.415 . S
C494 C499 1.425 . S
C494 C501 1.409 . S
C495 H487 0.930 . S
C495 C493 1.419 . S
C495 C496 1.362 . S
C496 H488 0.930 . S
C496 C495 1.362 . S
C496 C499 1.409 . S
C497 H489 0.930 . S
C497 C498 1.355 . S
C497 C499 1.415 . S
C498 C497 1.355 . S
C498 C500 1.419 . S
C499 C494 1.425 . S
C499 C496 1.409 . S
C499 C497 1.415 . S
C500 H490 0.930 . S
C500 C498 1.419 . S
C500 C501 1.362 . S
C501 H491 0.930 . S
C501 C494 1.409 . S
C501 C500 1.362 . S
H502 C508 0.930 1_565 S
H503 C511 0.930 . S
H504 C512 0.930 . S
H505 C513 0.930 . S
H506 C516 0.930 . S
H507 C517 0.930 . S
C508 H502 0.930 1_545 S
C508 C509 1.355 1_545 S
C508 C510 1.415 . S
C509 C508 1.355 1_565 S
C509 C511 1.419 1_565 S
C510 C508 1.415 . S
C510 C515 1.425 . S
C510 C517 1.409 . S
C511 H503 0.930 . S
C511 C509 1.419 1_545 S
C511 C512 1.362 . S
C512 H504 0.930 . S
C512 C511 1.362 . S
C512 C515 1.409 . S
C513 H505 0.930 . S
C513 C514 1.355 . S
C513 C515 1.415 . S
C514 C513 1.355 . S
C514 C516 1.419 . S
C515 C510 1.425 . S
C515 C512 1.409 . S
C515 C513 1.415 . S
C516 H506 0.930 . S
C516 C514 1.419 . S
C516 C517 1.362 . S
C517 H507 0.930 . S
C517 C510 1.409 . S
C517 C516 1.362 . S
H518 C524 0.930 . S
H519 C527 0.930 . S
H520 C528 0.930 . S
H521 C529 0.930 . S
H522 C532 0.930 . S
H523 C533 0.930 . S
C524 H518 0.930 . S
C524 C525 1.355 . S
C524 C526 1.415 . S
C525 C524 1.355 . S
C525 C527 1.419 1_455 S
C526 C524 1.415 . S
C526 C531 1.425 1_455 S
C526 C533 1.409 . S
C527 H519 0.930 . S
C527 C525 1.419 1_655 S
C527 C528 1.362 . S
C528 H520 0.930 . S
C528 C527 1.362 . S
C528 C531 1.409 . S
C529 H521 0.930 . S
C529 C530 1.355 1_655 S
C529 C531 1.415 . S
C530 C529 1.355 1_455 S
C530 C532 1.419 . S
C531 C526 1.425 1_655 S
C531 C528 1.409 . S
C531 C529 1.415 . S
C532 H522 0.930 . S
C532 C530 1.419 . S
C532 C533 1.362 . S
C533 H523 0.930 . S
C533 C526 1.409 . S
C533 C532 1.362 . S
H534 C540 0.930 . S
H535 C543 0.930 . S
H536 C544 0.930 . S
H537 C545 0.930 . S
H538 C548 0.930 . S
H539 C549 0.930 . S
C540 H534 0.930 . S
C540 C541 1.355 . S
C540 C542 1.415 . S
C541 C540 1.355 . S
C541 C543 1.419 . S
C542 C540 1.415 . S
C542 C547 1.425 . S
C542 C549 1.409 . S
C543 H535 0.930 . S
C543 C541 1.419 . S
C543 C544 1.362 . S
C544 H536 0.930 . S
C544 C543 1.362 . S
C544 C547 1.409 . S
C545 H537 0.930 . S
C545 C546 1.355 . S
C545 C547 1.415 . S
C546 C545 1.355 . S
C546 C548 1.419 . S
C547 C542 1.425 . S
C547 C544 1.409 . S
C547 C545 1.415 . S
C548 H538 0.930 . S
C548 C546 1.419 . S
C548 C549 1.362 . S
C549 H539 0.930 . S
C549 C542 1.409 . S
C549 C548 1.362 . S
H550 C556 0.930 . S
H551 C559 0.930 . S
H552 C560 0.930 . S
H553 C561 0.930 . S
H554 C564 0.930 . S
H555 C565 0.930 . S
C556 H550 0.930 . S
C556 C557 1.355 1_565 S
C556 C558 1.415 . S
C557 C556 1.355 1_545 S
C557 C559 1.419 . S
C558 C556 1.415 . S
C558 C563 1.425 1_565 S
C558 C565 1.409 . S
C559 H551 0.930 . S
C559 C557 1.419 . S
C559 C560 1.362 . S
C560 H552 0.930 . S
C560 C559 1.362 . S
C560 C563 1.409 . S
C561 H553 0.930 . S
C561 C562 1.355 1_545 S
C561 C563 1.415 . S
C562 C561 1.355 1_565 S
C562 C564 1.419 . S
C563 C558 1.425 1_545 S
C563 C560 1.409 . S
C563 C561 1.415 . S
C564 H554 0.930 . S
C564 C562 1.419 . S
C564 C565 1.362 . S
C565 H555 0.930 . S
C565 C558 1.409 . S
C565 C564 1.362 . S
H566 C572 0.930 . S
H567 C575 0.930 . S
H568 C576 0.930 . S
H569 C577 0.936 . S
H570 C580 0.930 . S
H571 C581 0.930 . S
C572 H566 0.930 . S
C572 C573 1.355 1_455 S
C572 C574 1.415 . S
C573 C572 1.355 1_655 S
C573 C575 1.419 . S
C574 C572 1.415 . S
C574 C579 1.425 . S
C574 C581 1.409 . S
C575 H567 0.930 . S
C575 C573 1.419 . S
C575 C576 1.362 . S
C576 H568 0.930 . S
C576 C575 1.362 . S
C576 C579 1.409 1_655 S
C577 H569 0.936 . S
C577 C578 1.355 . S
C577 C579 1.415 . S
C578 C577 1.355 . S
C578 C580 1.419 . S
C579 C574 1.425 . S
C579 C576 1.409 1_455 S
C579 C577 1.415 . S
C580 H570 0.930 . S
C580 C578 1.419 . S
C580 C581 1.362 . S
C581 H571 0.930 . S
C581 C574 1.409 . S
C581 C580 1.362 . S
H582 C588 0.930 . S
H583 C591 0.930 . S
H584 C592 0.930 . S
H585 C593 0.930 . S
H586 C596 0.930 . S
H587 C597 0.930 . S
C588 H582 0.930 . S
C588 C589 1.355 . S
C588 C590 1.415 . S
C589 C588 1.355 . S
C589 C591 1.419 . S
C590 C588 1.415 . S
C590 C595 1.425 . S
C590 C597 1.409 . S
C591 H583 0.930 . S
C591 C589 1.419 . S
C591 C592 1.362 . S
C592 H584 0.930 . S
C592 C591 1.362 . S
C592 C595 1.409 . S
C593 H585 0.930 . S
C593 C594 1.355 . S
C593 C595 1.415 . S
C594 C593 1.355 . S
C594 C596 1.419 . S
C595 C590 1.425 . S
C595 C592 1.409 . S
C595 C593 1.415 . S
C596 H586 0.930 . S
C596 C594 1.419 . S
C596 C597 1.362 . S
C597 H587 0.930 . S
C597 C590 1.409 . S
C597 C596 1.362 . S
H598 C604 0.910 1_565 S
H599 C607 0.930 . S
H600 C608 0.930 . S
H601 C609 0.930 . S
H602 C612 0.930 . S
H603 C613 0.930 . S
C604 H598 0.910 1_545 S
C604 C605 1.355 . S
C604 C606 1.415 . S
C605 C604 1.355 . S
C605 C607 1.419 . S
C606 C604 1.415 . S
C606 C611 1.425 . S
C606 C613 1.409 1_545 S
C607 H599 0.930 . S
C607 C605 1.419 . S
C607 C608 1.362 . S
C608 H600 0.930 . S
C608 C607 1.362 . S
C608 C611 1.409 . S
C609 H601 0.930 . S
C609 C610 1.355 . S
C609 C611 1.415 . S
C610 C609 1.355 . S
C610 C612 1.419 1_545 S
C611 C606 1.425 . S
C611 C608 1.409 . S
C611 C609 1.415 . S
C612 H602 0.930 . S
C612 C610 1.419 1_565 S
C612 C613 1.362 . S
C613 H603 0.930 . S
C613 C606 1.409 1_565 S
C613 C612 1.362 . S
H614 C620 0.930 . S
H615 C623 0.930 . S
H616 C624 0.930 . S
H617 C625 0.930 . S
H618 C628 0.930 . S
H619 C629 0.930 . S
C620 H614 0.930 . S
C620 C621 1.351 1_455 S
C620 C622 1.415 . S
C621 C620 1.351 1_655 S
C621 C623 1.421 . S
C622 C620 1.415 . S
C622 C627 1.425 . S
C622 C629 1.409 . S
C623 H615 0.930 . S
C623 C621 1.421 . S
C623 C624 1.362 . S
C624 H616 0.930 . S
C624 C623 1.362 . S
C624 C627 1.409 1_655 S
C625 H617 0.930 . S
C625 C626 1.355 . S
C625 C627 1.415 . S
C626 C625 1.355 . S
C626 C628 1.419 . S
C627 C622 1.425 . S
C627 C624 1.409 1_455 S
C627 C625 1.415 . S
C628 H618 0.930 . S
C628 C626 1.419 . S
C628 C629 1.362 . S
C629 H619 0.930 . S
C629 C622 1.409 . S
C629 C628 1.362 . S
H630 C636 0.930 . S
H631 C639 0.930 . S
H632 C640 0.930 . S
H633 C641 0.930 . S
H634 C644 0.930 . S
H635 C645 0.930 . S
C636 H630 0.930 . S
C636 C637 1.355 . S
C636 C638 1.415 . S
C637 C636 1.355 . S
C637 C639 1.419 . S
C638 C636 1.415 . S
C638 C643 1.425 . S
C638 C645 1.409 . S
C639 H631 0.930 . S
C639 C637 1.419 . S
C639 C640 1.362 . S
C640 H632 0.930 . S
C640 C639 1.362 . S
C640 C643 1.409 . S
C641 H633 0.930 . S
C641 C642 1.355 . S
C641 C643 1.415 . S
C642 C641 1.355 . S
C642 C644 1.419 . S
C643 C638 1.425 . S
C643 C640 1.409 . S
C643 C641 1.415 . S
C644 H634 0.930 . S
C644 C642 1.419 . S
C644 C645 1.362 . S
C645 H635 0.930 . S
C645 C638 1.409 . S
C645 C644 1.362 . S
H646 C652 0.930 . S
H647 C655 0.930 . S
H648 C656 0.930 . S
H649 C657 0.930 1_565 S
H650 C660 0.930 . S
H651 C661 0.930 . S
C652 H646 0.930 . S
C652 C653 1.357 1_545 S
C652 C654 1.415 . S
C653 C652 1.357 1_565 S
C653 C655 1.418 . S
C654 C652 1.415 . S
C654 C659 1.425 . S
C654 C661 1.409 . S
C655 H647 0.930 . S
C655 C653 1.418 . S
C655 C656 1.362 . S
C656 H648 0.930 . S
C656 C655 1.362 . S
C656 C659 1.409 1_565 S
C657 H649 0.930 1_545 S
C657 C658 1.355 . S
C657 C659 1.415 . S
C658 C657 1.355 . S
C658 C660 1.419 . S
C659 C654 1.425 . S
C659 C656 1.409 1_545 S
C659 C657 1.415 . S
C660 H650 0.930 . S
C660 C658 1.419 . S
C660 C661 1.362 . S
C661 H651 0.930 . S
C661 C654 1.409 . S
C661 C660 1.362 . S
H662 C668 0.930 . S
H663 C671 0.930 . S
H664 C672 0.930 . S
H665 C673 0.930 . S
H666 C676 0.930 . S
H667 C677 0.930 . S
C668 H662 0.930 . S
C668 C669 1.355 . S
C668 C670 1.415 . S
C669 C668 1.355 . S
C669 C671 1.419 1_455 S
C670 C668 1.415 . S
C670 C675 1.425 1_455 S
C670 C677 1.409 . S
C671 H663 0.930 . S
C671 C669 1.419 1_655 S
C671 C672 1.362 . S
C672 H664 0.930 . S
C672 C671 1.362 . S
C672 C675 1.409 . S
C673 H665 0.930 . S
C673 C674 1.355 1_655 S
C673 C675 1.415 . S
C674 C673 1.355 1_455 S
C674 C676 1.419 . S
C675 C670 1.425 1_655 S
C675 C672 1.409 . S
C675 C673 1.415 . S
C676 H666 0.930 . S
C676 C674 1.419 . S
C676 C677 1.362 . S
C677 H667 0.930 . S
C677 C670 1.409 . S
C677 C676 1.362 . S
H678 C684 0.930 . S
H679 C687 0.930 . S
H680 C688 0.930 . S
H681 C689 0.930 . S
H682 C692 0.930 . S
H683 C693 0.930 . S
C684 H678 0.930 . S
C684 C685 1.355 . S
C684 C686 1.415 . S
C685 C684 1.355 . S
C685 C687 1.419 . S
C686 C684 1.415 . S
C686 C691 1.425 . S
C686 C693 1.409 . S
C687 H679 0.930 . S
C687 C685 1.419 . S
C687 C688 1.362 . S
C688 H680 0.930 . S
C688 C687 1.362 . S
C688 C691 1.409 . S
C689 H681 0.930 . S
C689 C690 1.355 . S
C689 C691 1.415 . S
C690 C689 1.355 . S
C690 C692 1.419 . S
C691 C686 1.425 . S
C691 C688 1.409 . S
C691 C689 1.415 . S
C692 H682 0.930 . S
C692 C690 1.419 . S
C692 C693 1.362 . S
C693 H683 0.930 . S
C693 C686 1.409 . S
C693 C692 1.362 . S
H694 C700 0.930 . S
H695 C703 0.930 . S
H696 C704 0.930 . S
H697 C705 0.930 . S
H698 C708 0.930 . S
H699 C709 0.930 . S
C700 H694 0.930 . S
C700 C701 1.355 . S
C700 C702 1.415 . S
C701 C700 1.355 . S
C701 C703 1.419 . S
C702 C700 1.415 . S
C702 C707 1.425 . S
C702 C709 1.409 . S
C703 H695 0.930 . S
C703 C701 1.419 . S
C703 C704 1.362 . S
C704 H696 0.930 . S
C704 C703 1.362 . S
C704 C707 1.409 . S
C705 H697 0.930 . S
C705 C706 1.355 . S
C705 C707 1.415 . S
C706 C705 1.355 . S
C706 C708 1.419 . S
C707 C702 1.425 . S
C707 C704 1.409 . S
C707 C705 1.415 . S
C708 H698 0.930 . S
C708 C706 1.419 . S
C708 C709 1.362 . S
C709 H699 0.930 . S
C709 C702 1.409 . S
C709 C708 1.362 . S
H710 C716 0.930 . S
H711 C719 0.930 . S
H712 C720 0.930 . S
H713 C721 0.930 . S
H714 C724 0.930 . S
H715 C725 0.930 . S
C716 H710 0.930 . S
C716 C717 1.355 . S
C716 C718 1.415 . S
C717 C716 1.355 . S
C717 C719 1.419 . S
C718 C716 1.415 . S
C718 C723 1.425 . S
C718 C725 1.409 . S
C719 H711 0.930 . S
C719 C717 1.419 . S
C719 C720 1.362 . S
C720 H712 0.930 . S
C720 C719 1.362 . S
C720 C723 1.409 . S
C721 H713 0.930 . S
C721 C722 1.355 . S
C721 C723 1.415 . S
C722 C721 1.355 . S
C722 C724 1.419 . S
C723 C718 1.425 . S
C723 C720 1.409 . S
C723 C721 1.415 . S
C724 H714 0.930 . S
C724 C722 1.419 . S
C724 C725 1.362 . S
C725 H715 0.930 . S
C725 C718 1.409 . S
C725 C724 1.362 . S
H726 C732 0.930 . S
H727 C735 0.930 . S
H728 C736 0.930 . S
H729 C737 0.930 . S
H730 C740 0.930 . S
H731 C741 0.930 . S
C732 H726 0.930 . S
C732 C733 1.355 . S
C732 C734 1.415 . S
C733 C732 1.355 . S
C733 C735 1.419 . S
C734 C732 1.415 . S
C734 C739 1.425 . S
C734 C741 1.409 . S
C735 H727 0.930 . S
C735 C733 1.419 . S
C735 C736 1.362 . S
C736 H728 0.930 . S
C736 C735 1.362 . S
C736 C739 1.409 . S
C737 H729 0.930 . S
C737 C738 1.355 . S
C737 C739 1.415 . S
C738 C737 1.355 . S
C738 C740 1.419 . S
C739 C734 1.425 . S
C739 C736 1.409 . S
C739 C737 1.415 . S
C740 H730 0.930 . S
C740 C738 1.419 . S
C740 C741 1.362 . S
C741 H731 0.930 . S
C741 C734 1.409 . S
C741 C740 1.362 . S
H742 C748 0.930 . S
H743 C751 0.930 . S
H744 C752 0.930 . S
H745 C753 0.930 . S
H746 C756 0.930 . S
H747 C757 0.930 . S
C748 H742 0.930 . S
C748 C749 1.355 . S
C748 C750 1.415 . S
C749 C748 1.355 . S
C749 C751 1.419 . S
C750 C748 1.415 . S
C750 C755 1.425 . S
C750 C757 1.409 . S
C751 H743 0.930 . S
C751 C749 1.419 . S
C751 C752 1.362 . S
C752 H744 0.930 . S
C752 C751 1.362 . S
C752 C755 1.409 . S
C753 H745 0.930 . S
C753 C754 1.355 . S
C753 C755 1.415 . S
C754 C753 1.355 . S
C754 C756 1.419 . S
C755 C750 1.425 . S
C755 C752 1.409 . S
C755 C753 1.415 . S
C756 H746 0.930 . S
C756 C754 1.419 . S
C756 C757 1.362 . S
C757 H747 0.930 . S
C757 C750 1.409 . S
C757 C756 1.362 . S
H758 C764 0.930 . S
H759 C767 0.930 . S
H760 C768 0.930 . S
H761 C769 0.930 . S
H762 C772 0.930 . S
H763 C773 0.930 . S
C764 H758 0.930 . S
C764 C765 1.355 . S
C764 C766 1.415 . S
C765 C764 1.355 . S
C765 C767 1.419 . S
C766 C764 1.415 . S
C766 C771 1.425 . S
C766 C773 1.409 . S
C767 H759 0.930 . S
C767 C765 1.419 . S
C767 C768 1.362 . S
C768 H760 0.930 . S
C768 C767 1.362 . S
C768 C771 1.409 . S
C769 H761 0.930 . S
C769 C770 1.355 . S
C769 C771 1.415 . S
C770 C769 1.355 . S
C770 C772 1.419 . S
C771 C766 1.425 . S
C771 C768 1.409 . S
C771 C769 1.415 . S
C772 H762 0.930 . S
C772 C770 1.419 . S
C772 C773 1.362 . S
C773 H763 0.930 . S
C773 C766 1.409 . S
C773 C772 1.362 . S
H774 C780 0.930 . S
H775 C783 0.930 . S
H776 C784 0.930 . S
H777 C785 0.930 . S
H778 C788 0.930 . S
H779 C789 0.930 . S
C780 H774 0.930 . S
C780 C781 1.355 . S
C780 C782 1.415 . S
C781 C780 1.355 . S
C781 C783 1.419 . S
C782 C780 1.415 . S
C782 C787 1.425 . S
C782 C789 1.409 . S
C783 H775 0.930 . S
C783 C781 1.419 . S
C783 C784 1.362 . S
C784 H776 0.930 . S
C784 C783 1.362 . S
C784 C787 1.409 . S
C785 H777 0.930 . S
C785 C786 1.355 . S
C785 C787 1.415 . S
C786 C785 1.355 . S
C786 C788 1.419 . S
C787 C782 1.425 . S
C787 C784 1.409 . S
C787 C785 1.415 . S
C788 H778 0.930 . S
C788 C786 1.419 . S
C788 C789 1.362 . S
C789 H779 0.930 . S
C789 C782 1.409 . S
C789 C788 1.362 . S
H790 C796 0.930 . S
H791 C799 0.930 . S
H792 C800 0.930 . S
H793 C801 0.930 . S
H794 C804 0.930 . S
H795 C805 0.930 . S
C796 H790 0.930 . S
C796 C797 1.355 . S
C796 C798 1.415 . S
C797 C796 1.355 . S
C797 C799 1.419 . S
C798 C796 1.415 . S
C798 C803 1.425 . S
C798 C805 1.409 . S
C799 H791 0.930 . S
C799 C797 1.419 . S
C799 C800 1.362 . S
C800 H792 0.930 . S
C800 C799 1.362 . S
C800 C803 1.409 . S
C801 H793 0.930 . S
C801 C802 1.355 . S
C801 C803 1.415 . S
C802 C801 1.355 . S
C802 C804 1.419 . S
C803 C798 1.425 . S
C803 C800 1.409 . S
C803 C801 1.415 . S
C804 H794 0.930 . S
C804 C802 1.419 . S
C804 C805 1.362 . S
C805 H795 0.930 . S
C805 C798 1.409 . S
C805 C804 1.362 . S
H806 C812 0.930 . S
H807 C815 0.930 . S
H808 C816 0.930 . S
H809 C817 0.930 . S
H810 C820 0.930 . S
H811 C821 0.930 . S
C812 H806 0.930 . S
C812 C813 1.355 . S
C812 C814 1.415 . S
C813 C812 1.355 . S
C813 C815 1.419 . S
C814 C812 1.415 . S
C814 C819 1.425 . S
C814 C821 1.409 . S
C815 H807 0.930 . S
C815 C813 1.419 . S
C815 C816 1.362 . S
C816 H808 0.930 . S
C816 C815 1.362 . S
C816 C819 1.409 . S
C817 H809 0.930 . S
C817 C818 1.355 . S
C817 C819 1.415 . S
C818 C817 1.355 . S
C818 C820 1.419 . S
C819 C814 1.425 . S
C819 C816 1.409 . S
C819 C817 1.415 . S
C820 H810 0.930 . S
C820 C818 1.419 . S
C820 C821 1.362 . S
C821 H811 0.930 . S
C821 C814 1.409 . S
C821 C820 1.362 . S
H822 C828 0.930 . S
H823 C831 0.930 . S
H824 C832 0.930 . S
H825 C833 0.930 . S
H826 C836 0.930 . S
H827 C837 0.930 . S
C828 H822 0.930 . S
C828 C829 1.355 . S
C828 C830 1.415 . S
C829 C828 1.355 . S
C829 C831 1.419 . S
C830 C828 1.415 . S
C830 C835 1.425 . S
C830 C837 1.409 . S
C831 H823 0.930 . S
C831 C829 1.419 . S
C831 C832 1.362 . S
C832 H824 0.930 . S
C832 C831 1.362 . S
C832 C835 1.409 . S
C833 H825 0.930 . S
C833 C834 1.355 . S
C833 C835 1.415 . S
C834 C833 1.355 . S
C834 C836 1.419 . S
C835 C830 1.425 . S
C835 C832 1.409 . S
C835 C833 1.415 . S
C836 H826 0.930 . S
C836 C834 1.419 . S
C836 C837 1.362 . S
C837 H827 0.930 . S
C837 C830 1.409 . S
C837 C836 1.362 . S
H838 C844 0.930 . S
H839 C847 0.930 . S
H840 C848 0.930 . S
H841 C849 0.930 1_556 S
H842 C852 0.930 . S
H843 C853 0.930 . S
C844 H838 0.930 . S
C844 C845 1.355 . S
C844 C846 1.415 . S
C845 C844 1.355 . S
C845 C847 1.419 . S
C846 C844 1.415 . S
C846 C851 1.425 . S
C846 C853 1.409 . S
C847 H839 0.930 . S
C847 C845 1.419 . S
C847 C848 1.362 . S
C848 H840 0.930 . S
C848 C847 1.362 . S
C848 C851 1.409 . S
C849 H841 0.930 1_554 S
C849 C850 1.355 . S
C849 C851 1.415 . S
C850 C849 1.355 . S
C850 C852 1.419 . S
C851 C846 1.425 . S
C851 C848 1.409 . S
C851 C849 1.415 . S
C852 H842 0.930 . S
C852 C850 1.419 . S
C852 C853 1.362 . S
C853 H843 0.930 . S
C853 C846 1.409 . S
C853 C852 1.362 . S
H854 C860 0.930 . S
H855 C863 0.930 . S
H856 C864 0.930 . S
H857 C865 0.930 . S
H858 C868 0.908 1_556 S
H859 C869 0.930 . S
C860 H854 0.930 . S
C860 C861 1.355 . S
C860 C862 1.415 . S
C861 C860 1.355 . S
C861 C863 1.419 . S
C862 C860 1.415 . S
C862 C867 1.425 . S
C862 C869 1.409 . S
C863 H855 0.930 . S
C863 C861 1.419 . S
C863 C864 1.362 . S
C864 H856 0.930 . S
C864 C863 1.362 . S
C864 C867 1.409 . S
C865 H857 0.930 . S
C865 C866 1.355 . S
C865 C867 1.415 . S
C866 C865 1.355 . S
C866 C868 1.429 . S
C867 C862 1.425 . S
C867 C864 1.409 . S
C867 C865 1.415 . S
C868 H858 0.908 1_554 S
C868 C866 1.429 . S
C868 C869 1.374 . S
C869 H859 0.930 . S
C869 C862 1.409 . S
C869 C868 1.374 . S
H870 C876 0.930 . S
H871 C879 0.930 . S
H872 C880 0.930 . S
H873 C881 0.930 . S
H874 C884 0.930 . S
H875 C885 0.930 . S
C876 H870 0.930 . S
C876 C877 1.355 . S
C876 C878 1.415 . S
C877 C876 1.355 . S
C877 C879 1.419 . S
C878 C876 1.415 . S
C878 C883 1.425 . S
C878 C885 1.409 . S
C879 H871 0.930 . S
C879 C877 1.419 . S
C879 C880 1.362 . S
C880 H872 0.930 . S
C880 C879 1.362 . S
C880 C883 1.409 . S
C881 H873 0.930 . S
C881 C882 1.355 . S
C881 C883 1.415 . S
C882 C881 1.355 . S
C882 C884 1.419 . S
C883 C878 1.425 . S
C883 C880 1.409 . S
C883 C881 1.415 . S
C884 H874 0.930 . S
C884 C882 1.419 . S
C884 C885 1.362 . S
C885 H875 0.930 . S
C885 C878 1.409 . S
C885 C884 1.362 . S
H886 C892 0.930 . S
H887 C895 0.930 . S
H888 C896 0.930 . S
H889 C897 0.930 . S
H890 C900 0.930 . S
H891 C901 0.930 . S
C892 H886 0.930 . S
C892 C893 1.355 . S
C892 C894 1.415 . S
C893 C892 1.355 . S
C893 C895 1.419 . S
C894 C892 1.415 . S
C894 C899 1.425 . S
C894 C901 1.409 . S
C895 H887 0.930 . S
C895 C893 1.419 . S
C895 C896 1.362 . S
C896 H888 0.930 . S
C896 C895 1.362 . S
C896 C899 1.409 . S
C897 H889 0.930 . S
C897 C898 1.355 . S
C897 C899 1.415 . S
C898 C897 1.355 . S
C898 C900 1.419 . S
C899 C894 1.425 . S
C899 C896 1.409 . S
C899 C897 1.415 . S
C900 H890 0.930 . S
C900 C898 1.419 . S
C900 C901 1.362 . S
C901 H891 0.930 . S
C901 C894 1.409 . S
C901 C900 1.362 . S
H902 C908 0.930 . S
H903 C911 0.930 . S
H904 C912 0.930 . S
H905 C913 0.930 . S
H906 C916 0.930 . S
H907 C917 0.930 . S
C908 H902 0.930 . S
C908 C909 1.355 . S
C908 C910 1.415 . S
C909 C908 1.355 . S
C909 C911 1.419 . S
C910 C908 1.415 . S
C910 C915 1.425 . S
C910 C917 1.409 . S
C911 H903 0.930 . S
C911 C909 1.419 . S
C911 C912 1.362 . S
C912 H904 0.930 . S
C912 C911 1.362 . S
C912 C915 1.409 . S
C913 H905 0.930 . S
C913 C914 1.355 . S
C913 C915 1.415 . S
C914 C913 1.355 . S
C914 C916 1.419 . S
C915 C910 1.425 . S
C915 C912 1.409 . S
C915 C913 1.415 . S
C916 H906 0.930 . S
C916 C914 1.419 . S
C916 C917 1.362 . S
C917 H907 0.930 . S
C917 C910 1.409 . S
C917 C916 1.362 . S
H918 C924 0.930 . S
H919 C927 0.930 . S
H920 C928 0.930 . S
H921 C929 0.930 . S
H922 C932 0.930 . S
H923 C933 0.930 . S
C924 H918 0.930 . S
C924 C925 1.355 . S
C924 C926 1.415 . S
C925 C924 1.355 . S
C925 C927 1.419 . S
C926 C924 1.415 . S
C926 C931 1.425 . S
C926 C933 1.409 . S
C927 H919 0.930 . S
C927 C925 1.419 . S
C927 C928 1.362 . S
C928 H920 0.930 . S
C928 C927 1.362 . S
C928 C931 1.409 . S
C929 H921 0.930 . S
C929 C930 1.355 . S
C929 C931 1.415 . S
C930 C929 1.355 . S
C930 C932 1.419 . S
C931 C926 1.425 . S
C931 C928 1.409 . S
C931 C929 1.415 . S
C932 H922 0.930 . S
C932 C930 1.419 . S
C932 C933 1.362 . S
C933 H923 0.930 . S
C933 C926 1.409 . S
C933 C932 1.362 . S
H934 C940 0.930 . S
H935 C943 0.930 . S
H936 C944 0.930 . S
H937 C945 0.930 . S
H938 C948 0.975 . S
H939 C949 0.930 . S
C940 H934 0.930 . S
C940 C941 1.355 . S
C940 C942 1.415 . S
C941 C940 1.355 . S
C941 C943 1.419 . S
C942 C940 1.415 . S
C942 C947 1.425 . S
C942 C949 1.409 . S
C943 H935 0.930 . S
C943 C941 1.419 . S
C943 C944 1.362 . S
C944 H936 0.930 . S
C944 C943 1.362 . S
C944 C947 1.409 . S
C945 H937 0.930 . S
C945 C946 1.355 . S
C945 C947 1.415 . S
C946 C945 1.355 . S
C946 C948 1.400 1_556 S
C947 C942 1.425 . S
C947 C944 1.409 . S
C947 C945 1.415 . S
C948 H938 0.975 . S
C948 C946 1.400 1_554 S
C948 C949 1.338 1_554 S
C949 H939 0.930 . S
C949 C942 1.409 . S
C949 C948 1.338 1_556 S
H950 C956 0.930 . S
H951 C959 0.930 . S
H952 C960 0.930 . S
H953 C961 0.930 . S
H954 C964 0.930 . S
H955 C965 0.930 . S
C956 H950 0.930 . S
C956 C957 1.355 . S
C956 C958 1.415 . S
C957 C956 1.355 . S
C957 C959 1.419 . S
C958 C956 1.415 . S
C958 C963 1.425 . S
C958 C965 1.409 . S
C959 H951 0.930 . S
C959 C957 1.419 . S
C959 C960 1.362 . S
C960 H952 0.930 . S
C960 C959 1.362 . S
C960 C963 1.409 . S
C961 H953 0.930 . S
C961 C962 1.355 . S
C961 C963 1.415 . S
C962 C961 1.355 . S
C962 C964 1.419 . S
C963 C958 1.425 . S
C963 C960 1.409 . S
C963 C961 1.415 . S
C964 H954 0.930 . S
C964 C962 1.419 . S
C964 C965 1.362 . S
C965 H955 0.930 . S
C965 C958 1.409 . S
C965 C964 1.362 . S
H966 C972 0.930 . S
H967 C975 0.930 . S
H968 C976 0.930 . S
H969 C977 0.930 . S
H970 C980 0.930 . S
H971 C981 0.930 . S
C972 H966 0.930 . S
C972 C973 1.355 . S
C972 C974 1.415 . S
C973 C972 1.355 . S
C973 C975 1.419 . S
C974 C972 1.415 . S
C974 C979 1.425 . S
C974 C981 1.409 . S
C975 H967 0.930 . S
C975 C973 1.419 . S
C975 C976 1.362 . S
C976 H968 0.930 . S
C976 C975 1.362 . S
C976 C979 1.409 . S
C977 H969 0.930 . S
C977 C978 1.355 . S
C977 C979 1.415 . S
C978 C977 1.355 . S
C978 C980 1.419 . S
C979 C974 1.425 . S
C979 C976 1.409 . S
C979 C977 1.415 . S
C980 H970 0.930 . S
C980 C978 1.419 . S
C980 C981 1.362 . S
C981 H971 0.930 . S
C981 C974 1.409 . S
C981 C980 1.362 . S
H982 C988 0.930 . S
H983 C991 0.930 . S
H984 C992 0.930 . S
H985 C993 0.930 . S
H986 C996 0.930 . S
H987 C997 0.930 . S
C988 H982 0.930 . S
C988 C989 1.355 . S
C988 C990 1.415 . S
C989 C988 1.355 . S
C989 C991 1.419 . S
C990 C988 1.415 . S
C990 C995 1.425 . S
C990 C997 1.409 . S
C991 H983 0.930 . S
C991 C989 1.419 . S
C991 C992 1.362 . S
C992 H984 0.930 . S
C992 C991 1.362 . S
C992 C995 1.409 . S
C993 H985 0.930 . S
C993 C994 1.355 . S
C993 C995 1.415 . S
C994 C993 1.355 . S
C994 C996 1.419 . S
C995 C990 1.425 . S
C995 C992 1.409 . S
C995 C993 1.415 . S
C996 H986 0.930 . S
C996 C994 1.419 . S
C996 C997 1.362 . S
C997 H987 0.930 . S
C997 C990 1.409 . S
C997 C996 1.362 . S
H998 C1004 0.930 . S
H999 C1007 0.930 . S
H1000 C1008 0.930 . S
H1001 C1009 0.930 . S
H1002 C1012 0.930 . S
H1003 C1013 0.930 . S
C1004 H998 0.930 . S
C1004 C1005 1.355 . S
C1004 C1006 1.415 . S
C1005 C1004 1.355 . S
C1005 C1007 1.419 . S
C1006 C1004 1.415 . S
C1006 C1011 1.425 . S
C1006 C1013 1.409 . S
C1007 H999 0.930 . S
C1007 C1005 1.419 . S
C1007 C1008 1.362 . S
C1008 H1000 0.930 . S
C1008 C1007 1.362 . S
C1008 C1011 1.409 . S
C1009 H1001 0.930 . S
C1009 C1010 1.355 . S
C1009 C1011 1.415 . S
C1010 C1009 1.355 . S
C1010 C1012 1.419 . S
C1011 C1006 1.425 . S
C1011 C1008 1.409 . S
C1011 C1009 1.415 . S
C1012 H1002 0.930 . S
C1012 C1010 1.419 . S
C1012 C1013 1.362 . S
C1013 H1003 0.930 . S
C1013 C1006 1.409 . S
C1013 C1012 1.362 . S
H1014 C1020 0.930 . S
H1015 C1023 0.930 . S
H1016 C1024 0.930 . S
H1017 C1025 0.930 . S
H1018 C1028 0.930 . S
H1019 C1029 0.930 . S
C1020 H1014 0.930 . S
C1020 C1021 1.355 . S
C1020 C1022 1.415 . S
C1021 C1020 1.355 . S
C1021 C1023 1.419 . S
C1022 C1020 1.415 . S
C1022 C1027 1.425 . S
C1022 C1029 1.409 . S
C1023 H1015 0.930 . S
C1023 C1021 1.419 . S
C1023 C1024 1.362 . S
C1024 H1016 0.930 . S
C1024 C1023 1.362 . S
C1024 C1027 1.409 . S
C1025 H1017 0.930 . S
C1025 C1026 1.355 . S
C1025 C1027 1.415 . S
C1026 C1025 1.355 . S
C1026 C1028 1.419 . S
C1027 C1022 1.425 . S
C1027 C1024 1.409 . S
C1027 C1025 1.415 . S
C1028 H1018 0.930 . S
C1028 C1026 1.419 . S
C1028 C1029 1.362 . S
C1029 H1019 0.930 . S
C1029 C1022 1.409 . S
C1029 C1028 1.362 . S
H1030 C1036 0.930 . S
H1031 C1039 0.930 . S
H1032 C1040 0.930 . S
H1033 C1041 0.930 . S
H1034 C1044 0.930 . S
H1035 C1045 0.930 . S
C1036 H1030 0.930 . S
C1036 C1037 1.355 . S
C1036 C1038 1.415 . S
C1037 C1036 1.355 . S
C1037 C1039 1.419 . S
C1038 C1036 1.415 . S
C1038 C1043 1.425 . S
C1038 C1045 1.409 . S
C1039 H1031 0.930 . S
C1039 C1037 1.419 . S
C1039 C1040 1.362 . S
C1040 H1032 0.930 . S
C1040 C1039 1.362 . S
C1040 C1043 1.409 . S
C1041 H1033 0.930 . S
C1041 C1042 1.355 . S
C1041 C1043 1.415 . S
C1042 C1041 1.355 . S
C1042 C1044 1.419 . S
C1043 C1038 1.425 . S
C1043 C1040 1.409 . S
C1043 C1041 1.415 . S
C1044 H1034 0.930 . S
C1044 C1042 1.419 . S
C1044 C1045 1.362 . S
C1045 H1035 0.930 . S
C1045 C1038 1.409 . S
C1045 C1044 1.362 . S
H1046 C1052 0.930 . S
H1047 C1055 0.930 . S
H1048 C1056 0.930 . S
H1049 C1057 0.930 . S
H1050 C1060 0.930 . S
H1051 C1061 0.930 . S
C1052 H1046 0.930 . S
C1052 C1053 1.355 . S
C1052 C1054 1.415 . S
C1053 C1052 1.355 . S
C1053 C1055 1.419 . S
C1054 C1052 1.415 . S
C1054 C1059 1.425 . S
C1054 C1061 1.409 . S
C1055 H1047 0.930 . S
C1055 C1053 1.419 . S
C1055 C1056 1.362 . S
C1056 H1048 0.930 . S
C1056 C1055 1.362 . S
C1056 C1059 1.409 . S
C1057 H1049 0.930 . S
C1057 C1058 1.355 . S
C1057 C1059 1.415 . S
C1058 C1057 1.355 . S
C1058 C1060 1.419 . S
C1059 C1054 1.425 . S
C1059 C1056 1.409 . S
C1059 C1057 1.415 . S
C1060 H1050 0.930 . S
C1060 C1058 1.419 . S
C1060 C1061 1.362 . S
C1061 H1051 0.930 . S
C1061 C1054 1.409 . S
C1061 C1060 1.362 . S
H1062 C1068 0.930 . S
H1063 C1071 0.930 . S
H1064 C1072 0.930 . S
H1065 C1073 0.930 . S
H1066 C1076 0.930 . S
H1067 C1077 0.930 . S
C1068 H1062 0.930 . S
C1068 C1069 1.355 . S
C1068 C1070 1.415 . S
C1069 C1068 1.355 . S
C1069 C1071 1.419 . S
C1070 C1068 1.415 . S
C1070 C1075 1.425 . S
C1070 C1077 1.409 . S
C1071 H1063 0.930 . S
C1071 C1069 1.419 . S
C1071 C1072 1.362 . S
C1072 H1064 0.930 . S
C1072 C1071 1.362 . S
C1072 C1075 1.409 . S
C1073 H1065 0.930 . S
C1073 C1074 1.355 . S
C1073 C1075 1.415 . S
C1074 C1073 1.355 . S
C1074 C1076 1.419 . S
C1075 C1070 1.425 . S
C1075 C1072 1.409 . S
C1075 C1073 1.415 . S
C1076 H1066 0.930 . S
C1076 C1074 1.419 . S
C1076 C1077 1.362 . S
C1077 H1067 0.930 . S
C1077 C1070 1.409 . S
C1077 C1076 1.362 . S
H1078 C1084 0.930 . S
H1079 C1087 0.930 . S
H1080 C1088 0.930 . S
H1081 C1089 0.930 . S
H1082 C1092 0.930 . S
H1083 C1093 0.930 . S
C1084 H1078 0.930 . S
C1084 C1085 1.355 . S
C1084 C1086 1.415 . S
C1085 C1084 1.355 . S
C1085 C1087 1.419 . S
C1086 C1084 1.415 . S
C1086 C1091 1.425 . S
C1086 C1093 1.409 . S
C1087 H1079 0.930 . S
C1087 C1085 1.419 . S
C1087 C1088 1.362 . S
C1088 H1080 0.930 . S
C1088 C1087 1.362 . S
C1088 C1091 1.409 . S
C1089 H1081 0.930 . S
C1089 C1090 1.355 . S
C1089 C1091 1.415 . S
C1090 C1089 1.355 . S
C1090 C1092 1.419 . S
C1091 C1086 1.425 . S
C1091 C1088 1.409 . S
C1091 C1089 1.415 . S
C1092 H1082 0.930 . S
C1092 C1090 1.419 . S
C1092 C1093 1.362 . S
C1093 H1083 0.930 . S
C1093 C1086 1.409 . S
C1093 C1092 1.362 . S
H1094 C1100 0.930 . S
H1095 C1103 0.930 . S
H1096 C1104 0.930 . S
H1097 C1105 0.930 . S
H1098 C1108 0.930 . S
H1099 C1109 0.930 . S
C1100 H1094 0.930 . S
C1100 C1101 1.355 . S
C1100 C1102 1.415 . S
C1101 C1100 1.355 . S
C1101 C1103 1.419 . S
C1102 C1100 1.415 . S
C1102 C1107 1.425 . S
C1102 C1109 1.409 . S
C1103 H1095 0.930 . S
C1103 C1101 1.419 . S
C1103 C1104 1.362 . S
C1104 H1096 0.930 . S
C1104 C1103 1.362 . S
C1104 C1107 1.409 . S
C1105 H1097 0.930 . S
C1105 C1106 1.355 . S
C1105 C1107 1.415 . S
C1106 C1105 1.355 . S
C1106 C1108 1.419 . S
C1107 C1102 1.425 . S
C1107 C1104 1.409 . S
C1107 C1105 1.415 . S
C1108 H1098 0.930 . S
C1108 C1106 1.419 . S
C1108 C1109 1.362 . S
C1109 H1099 0.930 . S
C1109 C1102 1.409 . S
C1109 C1108 1.362 . S
H1110 C1116 0.930 . S
H1111 C1119 0.930 1_655 S
H1112 C1120 0.930 . S
H1113 C1121 0.930 1_655 S
H1114 C1124 0.930 . S
H1115 C1125 0.930 . S
C1116 H1110 0.930 . S
C1116 C1117 1.355 . S
C1116 C1118 1.415 . S
C1117 C1116 1.355 . S
C1117 C1119 1.419 . S
C1118 C1116 1.415 . S
C1118 C1123 1.425 . S
C1118 C1125 1.409 . S
C1119 H1111 0.930 1_455 S
C1119 C1117 1.419 . S
C1119 C1120 1.362 1_455 S
C1120 H1112 0.930 . S
C1120 C1119 1.362 1_655 S
C1120 C1123 1.409 1_655 S
C1121 H1113 0.930 1_455 S
C1121 C1122 1.355 . S
C1121 C1123 1.415 . S
C1122 C1121 1.355 . S
C1122 C1124 1.419 . S
C1123 C1118 1.425 . S
C1123 C1120 1.409 1_455 S
C1123 C1121 1.415 . S
C1124 H1114 0.930 . S
C1124 C1122 1.419 . S
C1124 C1125 1.362 . S
C1125 H1115 0.930 . S
C1125 C1118 1.409 . S
C1125 C1124 1.362 . S
H1126 C1132 0.930 . S
H1127 C1135 0.930 . S
H1128 C1136 0.930 . S
H1129 C1137 0.930 . S
H1130 C1140 0.930 . S
H1131 C1141 0.930 . S
C1132 H1126 0.930 . S
C1132 C1133 1.355 . S
C1132 C1134 1.415 . S
C1133 C1132 1.355 . S
C1133 C1135 1.419 . S
C1134 C1132 1.415 . S
C1134 C1139 1.425 . S
C1134 C1141 1.409 . S
C1135 H1127 0.930 . S
C1135 C1133 1.419 . S
C1135 C1136 1.362 . S
C1136 H1128 0.930 . S
C1136 C1135 1.362 . S
C1136 C1139 1.409 . S
C1137 H1129 0.930 . S
C1137 C1138 1.355 . S
C1137 C1139 1.415 . S
C1138 C1137 1.355 . S
C1138 C1140 1.419 . S
C1139 C1134 1.425 . S
C1139 C1136 1.409 . S
C1139 C1137 1.415 . S
C1140 H1130 0.930 . S
C1140 C1138 1.419 . S
C1140 C1141 1.362 . S
C1141 H1131 0.930 . S
C1141 C1134 1.409 . S
C1141 C1140 1.362 . S
H1142 C1148 0.930 . S
H1143 C1151 0.930 . S
H1144 C1152 0.930 . S
H1145 C1153 0.930 . S
H1146 C1156 0.930 . S
H1147 C1157 0.930 . S
C1148 H1142 0.930 . S
C1148 C1149 1.355 . S
C1148 C1150 1.415 . S
C1149 C1148 1.355 . S
C1149 C1151 1.419 . S
C1150 C1148 1.415 . S
C1150 C1155 1.425 . S
C1150 C1157 1.409 1_565 S
C1151 H1143 0.930 . S
C1151 C1149 1.419 . S
C1151 C1152 1.362 . S
C1152 H1144 0.930 . S
C1152 C1151 1.362 . S
C1152 C1155 1.409 . S
C1153 H1145 0.930 . S
C1153 C1154 1.355 . S
C1153 C1155 1.415 . S
C1154 C1153 1.355 . S
C1154 C1156 1.419 1_565 S
C1155 C1150 1.425 . S
C1155 C1152 1.409 . S
C1155 C1153 1.415 . S
C1156 H1146 0.930 . S
C1156 C1154 1.419 1_545 S
C1156 C1157 1.362 . S
C1157 H1147 0.930 . S
C1157 C1150 1.409 1_545 S
C1157 C1156 1.362 . S
H1158 C1164 0.930 . S
H1159 C1167 0.930 . S
H1160 C1168 0.930 . S
H1161 C1169 0.930 . S
H1162 C1172 0.930 . S
H1163 C1173 0.930 . S
C1164 H1158 0.930 . S
C1164 C1165 1.355 . S
C1164 C1166 1.415 . S
C1165 C1164 1.355 . S
C1165 C1167 1.419 . S
C1166 C1164 1.415 . S
C1166 C1171 1.425 . S
C1166 C1173 1.409 1_565 S
C1167 H1159 0.930 . S
C1167 C1165 1.419 . S
C1167 C1168 1.362 . S
C1168 H1160 0.930 . S
C1168 C1167 1.362 . S
C1168 C1171 1.409 . S
C1169 H1161 0.930 . S
C1169 C1170 1.355 . S
C1169 C1171 1.415 . S
C1170 C1169 1.355 . S
C1170 C1172 1.419 1_565 S
C1171 C1166 1.425 . S
C1171 C1168 1.409 . S
C1171 C1169 1.415 . S
C1172 H1162 0.930 . S
C1172 C1170 1.419 1_545 S
C1172 C1173 1.362 . S
C1173 H1163 0.930 . S
C1173 C1166 1.409 1_545 S
C1173 C1172 1.362 . S
H1174 C1180 0.930 . S
H1175 C1183 0.930 1_655 S
H1176 C1184 0.930 . S
H1177 C1185 0.930 1_655 S
H1178 C1188 0.930 . S
H1179 C1189 0.930 . S
C1180 H1174 0.930 . S
C1180 C1181 1.355 . S
C1180 C1182 1.415 . S
C1181 C1180 1.355 . S
C1181 C1183 1.419 . S
C1182 C1180 1.415 . S
C1182 C1187 1.425 . S
C1182 C1189 1.409 . S
C1183 H1175 0.930 1_455 S
C1183 C1181 1.419 . S
C1183 C1184 1.362 1_455 S
C1184 H1176 0.930 . S
C1184 C1183 1.362 1_655 S
C1184 C1187 1.409 1_655 S
C1185 H1177 0.930 1_455 S
C1185 C1186 1.355 . S
C1185 C1187 1.415 . S
C1186 C1185 1.355 . S
C1186 C1188 1.419 . S
C1187 C1182 1.425 . S
C1187 C1184 1.409 1_455 S
C1187 C1185 1.415 . S
C1188 H1178 0.930 . S
C1188 C1186 1.419 . S
C1188 C1189 1.362 . S
C1189 H1179 0.930 . S
C1189 C1182 1.409 . S
C1189 C1188 1.362 . S
H1190 C1196 0.930 . S
H1191 C1199 0.930 . S
H1192 C1200 0.930 . S
H1193 C1201 0.930 . S
H1194 C1204 0.930 . S
H1195 C1205 0.930 . S
C1196 H1190 0.930 . S
C1196 C1197 1.355 . S
C1196 C1198 1.415 . S
C1197 C1196 1.355 . S
C1197 C1199 1.419 . S
C1198 C1196 1.415 . S
C1198 C1203 1.425 . S
C1198 C1205 1.409 . S
C1199 H1191 0.930 . S
C1199 C1197 1.419 . S
C1199 C1200 1.362 . S
C1200 H1192 0.930 . S
C1200 C1199 1.362 . S
C1200 C1203 1.409 . S
C1201 H1193 0.930 . S
C1201 C1202 1.355 . S
C1201 C1203 1.415 . S
C1202 C1201 1.355 . S
C1202 C1204 1.419 . S
C1203 C1198 1.425 . S
C1203 C1200 1.409 . S
C1203 C1201 1.415 . S
C1204 H1194 0.930 . S
C1204 C1202 1.419 . S
C1204 C1205 1.362 . S
C1205 H1195 0.930 . S
C1205 C1198 1.409 . S
C1205 C1204 1.362 . S
H1206 C1212 0.930 . S
H1207 C1215 0.930 . S
H1208 C1216 0.930 . S
H1209 C1217 0.930 . S
H1210 C1220 0.930 . S
H1211 C1221 0.930 . S
C1212 H1206 0.930 . S
C1212 C1213 1.355 . S
C1212 C1214 1.415 . S
C1213 C1212 1.355 . S
C1213 C1215 1.419 1_655 S
C1214 C1212 1.415 . S
C1214 C1219 1.425 1_655 S
C1214 C1221 1.409 . S
C1215 H1207 0.930 . S
C1215 C1213 1.419 1_455 S
C1215 C1216 1.362 . S
C1216 H1208 0.930 . S
C1216 C1215 1.362 . S
C1216 C1219 1.409 . S
C1217 H1209 0.930 . S
C1217 C1218 1.355 1_455 S
C1217 C1219 1.415 . S
C1218 C1217 1.355 1_655 S
C1218 C1220 1.419 . S
C1219 C1214 1.425 1_455 S
C1219 C1216 1.409 . S
C1219 C1217 1.415 . S
C1220 H1210 0.930 . S
C1220 C1218 1.419 . S
C1220 C1221 1.362 . S
C1221 H1211 0.930 . S
C1221 C1214 1.409 . S
C1221 C1220 1.362 . S
H1222 C1228 0.930 . S
H1223 C1231 0.930 . S
H1224 C1232 0.930 . S
H1225 C1233 0.930 . S
H1226 C1236 0.930 . S
H1227 C1237 0.930 . S
C1228 H1222 0.930 . S
C1228 C1229 1.355 . S
C1228 C1230 1.415 . S
C1229 C1228 1.355 . S
C1229 C1231 1.419 . S
C1230 C1228 1.415 . S
C1230 C1235 1.425 . S
C1230 C1237 1.409 . S
C1231 H1223 0.930 . S
C1231 C1229 1.419 . S
C1231 C1232 1.362 . S
C1232 H1224 0.930 . S
C1232 C1231 1.362 . S
C1232 C1235 1.409 . S
C1233 H1225 0.930 . S
C1233 C1234 1.355 . S
C1233 C1235 1.415 . S
C1234 C1233 1.355 . S
C1234 C1236 1.419 . S
C1235 C1230 1.425 . S
C1235 C1232 1.409 . S
C1235 C1233 1.415 . S
C1236 H1226 0.930 . S
C1236 C1234 1.419 . S
C1236 C1237 1.362 . S
C1237 H1227 0.930 . S
C1237 C1230 1.409 . S
C1237 C1236 1.362 . S
H1238 C1244 0.930 . S
H1239 C1247 0.930 . S
H1240 C1248 0.930 . S
H1241 C1249 0.930 . S
H1242 C1252 0.930 . S
H1243 C1253 0.930 . S
C1244 H1238 0.930 . S
C1244 C1245 1.355 . S
C1244 C1246 1.415 . S
C1245 C1244 1.355 . S
C1245 C1247 1.419 . S
C1246 C1244 1.415 . S
C1246 C1251 1.425 . S
C1246 C1253 1.409 . S
C1247 H1239 0.930 . S
C1247 C1245 1.419 . S
C1247 C1248 1.362 . S
C1248 H1240 0.930 . S
C1248 C1247 1.362 . S
C1248 C1251 1.409 . S
C1249 H1241 0.930 . S
C1249 C1250 1.355 . S
C1249 C1251 1.415 . S
C1250 C1249 1.355 . S
C1250 C1252 1.419 . S
C1251 C1246 1.425 . S
C1251 C1248 1.409 . S
C1251 C1249 1.415 . S
C1252 H1242 0.930 . S
C1252 C1250 1.419 . S
C1252 C1253 1.362 . S
C1253 H1243 0.930 . S
C1253 C1246 1.409 . S
C1253 C1252 1.362 . S
H1254 C1260 0.930 . S
H1255 C1263 0.930 . S
H1256 C1264 0.930 . S
H1257 C1265 0.930 . S
H1258 C1268 0.930 . S
H1259 C1269 0.930 . S
C1260 H1254 0.930 . S
C1260 C1261 1.355 . S
C1260 C1262 1.415 . S
C1261 C1260 1.355 . S
C1261 C1263 1.419 . S
C1262 C1260 1.415 . S
C1262 C1267 1.425 . S
C1262 C1269 1.409 . S
C1263 H1255 0.930 . S
C1263 C1261 1.419 . S
C1263 C1264 1.362 . S
C1264 H1256 0.930 . S
C1264 C1263 1.362 . S
C1264 C1267 1.409 . S
C1265 H1257 0.930 . S
C1265 C1266 1.355 . S
C1265 C1267 1.415 . S
C1266 C1265 1.355 . S
C1266 C1268 1.419 . S
C1267 C1262 1.425 . S
C1267 C1264 1.409 . S
C1267 C1265 1.415 . S
C1268 H1258 0.930 . S
C1268 C1266 1.419 . S
C1268 C1269 1.362 . S
C1269 H1259 0.930 . S
C1269 C1262 1.409 . S
C1269 C1268 1.362 . S
H1270 C1276 0.930 . S
H1271 C1279 0.930 . S
H1272 C1280 0.930 . S
H1273 C1281 0.930 . S
H1274 C1284 0.930 . S
H1275 C1285 0.930 . S
C1276 H1270 0.930 . S
C1276 C1277 1.355 . S
C1276 C1278 1.415 . S
C1277 C1276 1.355 . S
C1277 C1279 1.419 . S
C1278 C1276 1.415 . S
C1278 C1283 1.425 . S
C1278 C1285 1.409 . S
C1279 H1271 0.930 . S
C1279 C1277 1.419 . S
C1279 C1280 1.362 . S
C1280 H1272 0.930 . S
C1280 C1279 1.362 . S
C1280 C1283 1.409 . S
C1281 H1273 0.930 . S
C1281 C1282 1.355 . S
C1281 C1283 1.415 . S
C1282 C1281 1.355 . S
C1282 C1284 1.419 . S
C1283 C1278 1.425 . S
C1283 C1280 1.409 . S
C1283 C1281 1.415 . S
C1284 H1274 0.930 . S
C1284 C1282 1.419 . S
C1284 C1285 1.362 . S
C1285 H1275 0.930 . S
C1285 C1278 1.409 . S
C1285 C1284 1.362 . S
H1286 C1292 0.930 . S
H1287 C1295 0.930 . S
H1288 C1296 0.930 . S
H1289 C1297 0.930 . S
H1290 C1300 0.930 . S
H1291 C1301 0.930 . S
C1292 H1286 0.930 . S
C1292 C1293 1.355 . S
C1292 C1294 1.415 . S
C1293 C1292 1.355 . S
C1293 C1295 1.419 . S
C1294 C1292 1.415 . S
C1294 C1299 1.425 . S
C1294 C1301 1.409 . S
C1295 H1287 0.930 . S
C1295 C1293 1.419 . S
C1295 C1296 1.362 . S
C1296 H1288 0.930 . S
C1296 C1295 1.362 . S
C1296 C1299 1.409 . S
C1297 H1289 0.930 . S
C1297 C1298 1.355 . S
C1297 C1299 1.415 . S
C1298 C1297 1.355 . S
C1298 C1300 1.419 . S
C1299 C1294 1.425 . S
C1299 C1296 1.409 . S
C1299 C1297 1.415 . S
C1300 H1290 0.930 . S
C1300 C1298 1.419 . S
C1300 C1301 1.362 . S
C1301 H1291 0.930 . S
C1301 C1294 1.409 . S
C1301 C1300 1.362 . S
H1302 C1308 0.930 . S
H1303 C1311 0.930 . S
H1304 C1312 0.930 . S
H1305 C1313 0.930 . S
H1306 C1316 0.930 . S
H1307 C1317 0.930 . S
C1308 H1302 0.930 . S
C1308 C1309 1.355 . S
C1308 C1310 1.415 . S
C1309 C1308 1.355 . S
C1309 C1311 1.419 . S
C1310 C1308 1.415 . S
C1310 C1315 1.425 . S
C1310 C1317 1.409 . S
C1311 H1303 0.930 . S
C1311 C1309 1.419 . S
C1311 C1312 1.362 . S
C1312 H1304 0.930 . S
C1312 C1311 1.362 . S
C1312 C1315 1.409 . S
C1313 H1305 0.930 . S
C1313 C1314 1.355 . S
C1313 C1315 1.415 . S
C1314 C1313 1.355 . S
C1314 C1316 1.419 . S
C1315 C1310 1.425 . S
C1315 C1312 1.409 . S
C1315 C1313 1.415 . S
C1316 H1306 0.930 . S
C1316 C1314 1.419 . S
C1316 C1317 1.362 . S
C1317 H1307 0.930 . S
C1317 C1310 1.409 . S
C1317 C1316 1.362 . S
H1318 C1324 0.930 . S
H1319 C1327 0.930 . S
H1320 C1328 0.930 . S
H1321 C1329 0.930 . S
H1322 C1332 0.930 . S
H1323 C1333 0.930 . S
C1324 H1318 0.930 . S
C1324 C1325 1.355 . S
C1324 C1326 1.415 . S
C1325 C1324 1.355 . S
C1325 C1327 1.419 . S
C1326 C1324 1.415 . S
C1326 C1331 1.425 . S
C1326 C1333 1.409 . S
C1327 H1319 0.930 . S
C1327 C1325 1.419 . S
C1327 C1328 1.362 . S
C1328 H1320 0.930 . S
C1328 C1327 1.362 . S
C1328 C1331 1.409 . S
C1329 H1321 0.930 . S
C1329 C1330 1.355 . S
C1329 C1331 1.415 . S
C1330 C1329 1.355 . S
C1330 C1332 1.419 . S
C1331 C1326 1.425 . S
C1331 C1328 1.409 . S
C1331 C1329 1.415 . S
C1332 H1322 0.930 . S
C1332 C1330 1.419 . S
C1332 C1333 1.362 . S
C1333 H1323 0.930 . S
C1333 C1326 1.409 . S
C1333 C1332 1.362 . S
H1334 C1340 0.930 . S
H1335 C1343 0.930 . S
H1336 C1344 0.930 . S
H1337 C1345 0.930 . S
H1338 C1348 0.930 . S
H1339 C1349 0.930 . S
C1340 H1334 0.930 . S
C1340 C1341 1.355 . S
C1340 C1342 1.415 . S
C1341 C1340 1.355 . S
C1341 C1343 1.419 . S
C1342 C1340 1.415 . S
C1342 C1347 1.425 . S
C1342 C1349 1.409 . S
C1343 H1335 0.930 . S
C1343 C1341 1.419 . S
C1343 C1344 1.362 . S
C1344 H1336 0.930 . S
C1344 C1343 1.362 . S
C1344 C1347 1.409 . S
C1345 H1337 0.930 . S
C1345 C1346 1.355 . S
C1345 C1347 1.415 . S
C1346 C1345 1.355 . S
C1346 C1348 1.419 . S
C1347 C1342 1.425 . S
C1347 C1344 1.409 . S
C1347 C1345 1.415 . S
C1348 H1338 0.930 . S
C1348 C1346 1.419 . S
C1348 C1349 1.362 . S
C1349 H1339 0.930 . S
C1349 C1342 1.409 . S
C1349 C1348 1.362 . S
H1350 C1356 0.930 . S
H1351 C1359 0.930 . S
H1352 C1360 0.930 . S
H1353 C1361 0.930 . S
H1354 C1364 0.930 . S
H1355 C1365 0.930 . S
C1356 H1350 0.930 . S
C1356 C1357 1.355 . S
C1356 C1358 1.415 . S
C1357 C1356 1.355 . S
C1357 C1359 1.419 . S
C1358 C1356 1.415 . S
C1358 C1363 1.425 . S
C1358 C1365 1.409 . S
C1359 H1351 0.930 . S
C1359 C1357 1.419 . S
C1359 C1360 1.362 . S
C1360 H1352 0.930 . S
C1360 C1359 1.362 . S
C1360 C1363 1.409 . S
C1361 H1353 0.930 . S
C1361 C1362 1.355 . S
C1361 C1363 1.415 . S
C1362 C1361 1.355 . S
C1362 C1364 1.419 . S
C1363 C1358 1.425 . S
C1363 C1360 1.409 . S
C1363 C1361 1.415 . S
C1364 H1354 0.930 . S
C1364 C1362 1.419 . S
C1364 C1365 1.362 . S
C1365 H1355 0.930 . S
C1365 C1358 1.409 . S
C1365 C1364 1.362 . S
H1366 C1372 0.930 . S
H1367 C1375 0.930 . S
H1368 C1376 0.930 . S
H1369 C1377 0.930 . S
H1370 C1380 0.930 . S
H1371 C1381 0.930 . S
C1372 H1366 0.930 . S
C1372 C1373 1.355 . S
C1372 C1374 1.415 . S
C1373 C1372 1.355 . S
C1373 C1375 1.419 . S
C1374 C1372 1.415 . S
C1374 C1379 1.425 . S
C1374 C1381 1.409 . S
C1375 H1367 0.930 . S
C1375 C1373 1.419 . S
C1375 C1376 1.362 . S
C1376 H1368 0.930 . S
C1376 C1375 1.362 . S
C1376 C1379 1.409 . S
C1377 H1369 0.930 . S
C1377 C1378 1.355 . S
C1377 C1379 1.415 . S
C1378 C1377 1.355 . S
C1378 C1380 1.419 . S
C1379 C1374 1.425 . S
C1379 C1376 1.409 . S
C1379 C1377 1.415 . S
C1380 H1370 0.930 . S
C1380 C1378 1.419 . S
C1380 C1381 1.362 . S
C1381 H1371 0.930 . S
C1381 C1374 1.409 . S
C1381 C1380 1.362 . S
H1382 C1388 0.930 . S
H1383 C1391 0.930 . S
H1384 C1392 0.930 . S
H1385 C1393 0.930 . S
H1386 C1396 0.930 . S
H1387 C1397 0.930 . S
C1388 H1382 0.930 . S
C1388 C1389 1.355 . S
C1388 C1390 1.415 . S
C1389 C1388 1.355 . S
C1389 C1391 1.419 . S
C1390 C1388 1.415 . S
C1390 C1395 1.425 . S
C1390 C1397 1.409 . S
C1391 H1383 0.930 . S
C1391 C1389 1.419 . S
C1391 C1392 1.362 . S
C1392 H1384 0.930 . S
C1392 C1391 1.362 . S
C1392 C1395 1.409 . S
C1393 H1385 0.930 . S
C1393 C1394 1.355 . S
C1393 C1395 1.415 . S
C1394 C1393 1.355 . S
C1394 C1396 1.419 . S
C1395 C1390 1.425 . S
C1395 C1392 1.409 . S
C1395 C1393 1.415 . S
C1396 H1386 0.930 . S
C1396 C1394 1.419 . S
C1396 C1397 1.362 . S
C1397 H1387 0.930 . S
C1397 C1390 1.409 . S
C1397 C1396 1.362 . S
H1398 C1404 0.930 . S
H1399 C1407 0.930 . S
H1400 C1408 0.930 . S
H1401 C1409 0.930 . S
H1402 C1412 0.930 . S
H1403 C1413 0.930 . S
C1404 H1398 0.930 . S
C1404 C1405 1.355 . S
C1404 C1406 1.415 . S
C1405 C1404 1.355 . S
C1405 C1407 1.419 . S
C1406 C1404 1.415 . S
C1406 C1411 1.425 . S
C1406 C1413 1.409 . S
C1407 H1399 0.930 . S
C1407 C1405 1.419 . S
C1407 C1408 1.362 . S
C1408 H1400 0.930 . S
C1408 C1407 1.362 . S
C1408 C1411 1.409 . S
C1409 H1401 0.930 . S
C1409 C1410 1.355 . S
C1409 C1411 1.415 . S
C1410 C1409 1.355 . S
C1410 C1412 1.419 . S
C1411 C1406 1.425 . S
C1411 C1408 1.409 . S
C1411 C1409 1.415 . S
C1412 H1402 0.930 . S
C1412 C1410 1.419 . S
C1412 C1413 1.362 . S
C1413 H1403 0.930 . S
C1413 C1406 1.409 . S
C1413 C1412 1.362 . S
H1414 C1420 0.930 . S
H1415 C1423 0.930 . S
H1416 C1424 0.930 . S
H1417 C1425 0.930 . S
H1418 C1428 0.930 . S
H1419 C1429 0.930 . S
C1420 H1414 0.930 . S
C1420 C1421 1.355 . S
C1420 C1422 1.415 . S
C1421 C1420 1.355 . S
C1421 C1423 1.419 . S
C1422 C1420 1.415 . S
C1422 C1427 1.425 . S
C1422 C1429 1.409 . S
C1423 H1415 0.930 . S
C1423 C1421 1.419 . S
C1423 C1424 1.362 . S
C1424 H1416 0.930 . S
C1424 C1423 1.362 . S
C1424 C1427 1.409 . S
C1425 H1417 0.930 . S
C1425 C1426 1.355 . S
C1425 C1427 1.415 . S
C1426 C1425 1.355 . S
C1426 C1428 1.419 . S
C1427 C1422 1.425 . S
C1427 C1424 1.409 . S
C1427 C1425 1.415 . S
C1428 H1418 0.930 . S
C1428 C1426 1.419 . S
C1428 C1429 1.362 . S
C1429 H1419 0.930 . S
C1429 C1422 1.409 . S
C1429 C1428 1.362 . S
H1430 C1436 0.930 . S
H1431 C1439 0.930 . S
H1432 C1440 0.930 . S
H1433 C1441 0.930 . S
H1434 C1444 0.930 . S
H1435 C1445 0.930 . S
C1436 H1430 0.930 . S
C1436 C1437 1.355 . S
C1436 C1438 1.415 . S
C1437 C1436 1.355 . S
C1437 C1439 1.419 . S
C1438 C1436 1.415 . S
C1438 C1443 1.425 . S
C1438 C1445 1.409 . S
C1439 H1431 0.930 . S
C1439 C1437 1.419 . S
C1439 C1440 1.362 . S
C1440 H1432 0.930 . S
C1440 C1439 1.362 . S
C1440 C1443 1.409 . S
C1441 H1433 0.930 . S
C1441 C1442 1.355 . S
C1441 C1443 1.415 . S
C1442 C1441 1.355 . S
C1442 C1444 1.419 . S
C1443 C1438 1.425 . S
C1443 C1440 1.409 . S
C1443 C1441 1.415 . S
C1444 H1434 0.930 . S
C1444 C1442 1.419 . S
C1444 C1445 1.362 . S
C1445 H1435 0.930 . S
C1445 C1438 1.409 . S
C1445 C1444 1.362 . S
H1446 C1452 0.930 . S
H1447 C1455 0.930 . S
H1448 C1456 0.930 . S
H1449 C1457 0.930 . S
H1450 C1460 0.930 . S
H1451 C1461 0.930 . S
C1452 H1446 0.930 . S
C1452 C1453 1.355 . S
C1452 C1454 1.415 . S
C1453 C1452 1.355 . S
C1453 C1455 1.419 . S
C1454 C1452 1.415 . S
C1454 C1459 1.425 . S
C1454 C1461 1.409 . S
C1455 H1447 0.930 . S
C1455 C1453 1.419 . S
C1455 C1456 1.362 . S
C1456 H1448 0.930 . S
C1456 C1455 1.362 . S
C1456 C1459 1.409 . S
C1457 H1449 0.930 . S
C1457 C1458 1.355 . S
C1457 C1459 1.415 . S
C1458 C1457 1.355 . S
C1458 C1460 1.419 . S
C1459 C1454 1.425 . S
C1459 C1456 1.409 . S
C1459 C1457 1.415 . S
C1460 H1450 0.930 . S
C1460 C1458 1.419 . S
C1460 C1461 1.362 . S
C1461 H1451 0.930 . S
C1461 C1454 1.409 . S
C1461 C1460 1.362 . S
H1462 C1468 0.930 . S
H1463 C1471 0.930 . S
H1464 C1472 0.930 . S
H1465 C1473 0.930 . S
H1466 C1476 0.930 . S
H1467 C1477 0.930 . S
C1468 H1462 0.930 . S
C1468 C1469 1.355 . S
C1468 C1470 1.415 . S
C1469 C1468 1.355 . S
C1469 C1471 1.419 . S
C1470 C1468 1.415 . S
C1470 C1475 1.425 . S
C1470 C1477 1.409 . S
C1471 H1463 0.930 . S
C1471 C1469 1.419 . S
C1471 C1472 1.362 . S
C1472 H1464 0.930 . S
C1472 C1471 1.362 . S
C1472 C1475 1.409 . S
C1473 H1465 0.930 . S
C1473 C1474 1.355 . S
C1473 C1475 1.415 . S
C1474 C1473 1.355 . S
C1474 C1476 1.419 . S
C1475 C1470 1.425 . S
C1475 C1472 1.409 . S
C1475 C1473 1.415 . S
C1476 H1466 0.930 . S
C1476 C1474 1.419 . S
C1476 C1477 1.362 . S
C1477 H1467 0.930 . S
C1477 C1470 1.409 . S
C1477 C1476 1.362 . S
H1478 C1484 0.930 . S
H1479 C1487 0.930 . S
H1480 C1488 0.930 . S
H1481 C1489 0.930 . S
H1482 C1492 0.930 . S
H1483 C1493 0.930 . S
C1484 H1478 0.930 . S
C1484 C1485 1.355 . S
C1484 C1486 1.415 . S
C1485 C1484 1.355 . S
C1485 C1487 1.419 . S
C1486 C1484 1.415 . S
C1486 C1491 1.425 . S
C1486 C1493 1.409 . S
C1487 H1479 0.930 . S
C1487 C1485 1.419 . S
C1487 C1488 1.362 . S
C1488 H1480 0.930 . S
C1488 C1487 1.362 . S
C1488 C1491 1.409 . S
C1489 H1481 0.930 . S
C1489 C1490 1.355 . S
C1489 C1491 1.415 . S
C1490 C1489 1.355 . S
C1490 C1492 1.419 . S
C1491 C1486 1.425 . S
C1491 C1488 1.409 . S
C1491 C1489 1.415 . S
C1492 H1482 0.930 . S
C1492 C1490 1.419 . S
C1492 C1493 1.362 . S
C1493 H1483 0.930 . S
C1493 C1486 1.409 . S
C1493 C1492 1.362 . S
H1494 C1500 0.930 . S
H1495 C1503 0.930 . S
H1496 C1504 0.930 . S
H1497 C1505 0.930 . S
H1498 C1508 0.930 . S
H1499 C1509 0.930 . S
C1500 H1494 0.930 . S
C1500 C1501 1.355 . S
C1500 C1502 1.415 . S
C1501 C1500 1.355 . S
C1501 C1503 1.419 . S
C1502 C1500 1.415 . S
C1502 C1507 1.425 . S
C1502 C1509 1.409 . S
C1503 H1495 0.930 . S
C1503 C1501 1.419 . S
C1503 C1504 1.362 . S
C1504 H1496 0.930 . S
C1504 C1503 1.362 . S
C1504 C1507 1.409 . S
C1505 H1497 0.930 . S
C1505 C1506 1.355 . S
C1505 C1507 1.415 . S
C1506 C1505 1.355 . S
C1506 C1508 1.419 . S
C1507 C1502 1.425 . S
C1507 C1504 1.409 . S
C1507 C1505 1.415 . S
C1508 H1498 0.930 . S
C1508 C1506 1.419 . S
C1508 C1509 1.362 . S
C1509 H1499 0.930 . S
C1509 C1502 1.409 . S
C1509 C1508 1.362 . S
H1510 C1516 0.930 . S
H1511 C1519 0.930 . S
H1512 C1520 0.930 . S
H1513 C1521 0.930 . S
H1514 C1524 0.930 . S
H1515 C1525 0.930 . S
C1516 H1510 0.930 . S
C1516 C1517 1.355 . S
C1516 C1518 1.415 . S
C1517 C1516 1.355 . S
C1517 C1519 1.419 . S
C1518 C1516 1.415 . S
C1518 C1523 1.425 . S
C1518 C1525 1.409 . S
C1519 H1511 0.930 . S
C1519 C1517 1.419 . S
C1519 C1520 1.362 . S
C1520 H1512 0.930 . S
C1520 C1519 1.362 . S
C1520 C1523 1.409 . S
C1521 H1513 0.930 . S
C1521 C1522 1.355 . S
C1521 C1523 1.415 . S
C1522 C1521 1.355 . S
C1522 C1524 1.419 . S
C1523 C1518 1.425 . S
C1523 C1520 1.409 . S
C1523 C1521 1.415 . S
C1524 H1514 0.930 . S
C1524 C1522 1.419 . S
C1524 C1525 1.362 . S
C1525 H1515 0.930 . S
C1525 C1518 1.409 . S
C1525 C1524 1.362 . S
H1526 C1532 0.930 . S
H1527 C1535 0.930 . S
H1528 C1536 0.930 . S
H1529 C1537 0.930 . S
H1530 C1540 0.930 . S
H1531 C1541 0.930 . S
C1532 H1526 0.930 . S
C1532 C1533 1.355 . S
C1532 C1534 1.415 . S
C1533 C1532 1.355 . S
C1533 C1535 1.419 . S
C1534 C1532 1.415 . S
C1534 C1539 1.425 . S
C1534 C1541 1.409 . S
C1535 H1527 0.930 . S
C1535 C1533 1.419 . S
C1535 C1536 1.362 . S
C1536 H1528 0.930 . S
C1536 C1535 1.362 . S
C1536 C1539 1.409 . S
C1537 H1529 0.930 . S
C1537 C1538 1.355 . S
C1537 C1539 1.415 . S
C1538 C1537 1.355 . S
C1538 C1540 1.419 . S
C1539 C1534 1.425 . S
C1539 C1536 1.409 . S
C1539 C1537 1.415 . S
C1540 H1530 0.930 . S
C1540 C1538 1.419 . S
C1540 C1541 1.362 . S
C1541 H1531 0.930 . S
C1541 C1534 1.409 . S
C1541 C1540 1.362 . S
H1542 C1548 0.930 . S
H1543 C1551 0.930 . S
H1544 C1552 0.930 . S
H1545 C1553 0.930 . S
H1546 C1556 0.930 . S
H1547 C1557 0.930 . S
C1548 H1542 0.930 . S
C1548 C1549 1.355 . S
C1548 C1550 1.415 . S
C1549 C1548 1.355 . S
C1549 C1551 1.419 . S
C1550 C1548 1.415 . S
C1550 C1555 1.425 . S
C1550 C1557 1.409 . S
C1551 H1543 0.930 . S
C1551 C1549 1.419 . S
C1551 C1552 1.362 . S
C1552 H1544 0.930 . S
C1552 C1551 1.362 . S
C1552 C1555 1.409 . S
C1553 H1545 0.930 . S
C1553 C1554 1.355 . S
C1553 C1555 1.415 . S
C1554 C1553 1.355 . S
C1554 C1556 1.419 . S
C1555 C1550 1.425 . S
C1555 C1552 1.409 . S
C1555 C1553 1.415 . S
C1556 H1546 0.930 . S
C1556 C1554 1.419 . S
C1556 C1557 1.362 . S
C1557 H1547 0.930 . S
C1557 C1550 1.409 . S
C1557 C1556 1.362 . S
H1558 C1564 0.930 . S
H1559 C1567 0.930 . S
H1560 C1568 0.930 . S
H1561 C1569 0.930 . S
H1562 C1572 0.930 . S
H1563 C1573 0.930 . S
C1564 H1558 0.930 . S
C1564 C1565 1.355 . S
C1564 C1566 1.415 . S
C1565 C1564 1.355 . S
C1565 C1567 1.419 . S
C1566 C1564 1.415 . S
C1566 C1571 1.425 . S
C1566 C1573 1.409 . S
C1567 H1559 0.930 . S
C1567 C1565 1.419 . S
C1567 C1568 1.362 . S
C1568 H1560 0.930 . S
C1568 C1567 1.362 . S
C1568 C1571 1.409 . S
C1569 H1561 0.930 . S
C1569 C1570 1.355 . S
C1569 C1571 1.415 . S
C1570 C1569 1.355 . S
C1570 C1572 1.419 . S
C1571 C1566 1.425 . S
C1571 C1568 1.409 . S
C1571 C1569 1.415 . S
C1572 H1562 0.930 . S
C1572 C1570 1.419 . S
C1572 C1573 1.362 . S
C1573 H1563 0.930 . S
C1573 C1566 1.409 . S
C1573 C1572 1.362 . S
H1574 C1580 0.930 . S
H1575 C1583 0.931 1_545 S
H1576 C1584 0.930 . S
H1577 C1585 0.930 . S
H1578 C1588 0.930 . S
H1579 C1589 0.930 . S
C1580 H1574 0.930 . S
C1580 C1581 1.355 . S
C1580 C1582 1.415 . S
C1581 C1580 1.355 . S
C1581 C1583 1.419 . S
C1582 C1580 1.415 . S
C1582 C1587 1.425 . S
C1582 C1589 1.409 . S
C1583 H1575 0.931 1_565 S
C1583 C1581 1.419 . S
C1583 C1584 1.362 . S
C1584 H1576 0.930 . S
C1584 C1583 1.362 . S
C1584 C1587 1.409 . S
C1585 H1577 0.930 . S
C1585 C1586 1.355 . S
C1585 C1587 1.415 . S
C1586 C1585 1.355 . S
C1586 C1588 1.419 . S
C1587 C1582 1.425 . S
C1587 C1584 1.409 . S
C1587 C1585 1.415 . S
C1588 H1578 0.930 . S
C1588 C1586 1.419 . S
C1588 C1589 1.362 . S
C1589 H1579 0.930 . S
C1589 C1582 1.409 . S
C1589 C1588 1.362 . S
H1590 C1596 0.930 . S
H1591 C1599 0.930 . S
H1592 C1600 0.930 . S
H1593 C1601 0.930 . S
H1594 C1604 0.930 . S
H1595 C1605 0.930 . S
C1596 H1590 0.930 . S
C1596 C1597 1.355 . S
C1596 C1598 1.415 . S
C1597 C1596 1.355 . S
C1597 C1599 1.419 . S
C1598 C1596 1.415 . S
C1598 C1603 1.425 . S
C1598 C1605 1.409 . S
C1599 H1591 0.930 . S
C1599 C1597 1.419 . S
C1599 C1600 1.362 . S
C1600 H1592 0.930 . S
C1600 C1599 1.362 . S
C1600 C1603 1.409 . S
C1601 H1593 0.930 . S
C1601 C1602 1.355 . S
C1601 C1603 1.415 . S
C1602 C1601 1.355 . S
C1602 C1604 1.419 . S
C1603 C1598 1.425 . S
C1603 C1600 1.409 . S
C1603 C1601 1.415 . S
C1604 H1594 0.930 . S
C1604 C1602 1.419 . S
C1604 C1605 1.362 . S
C1605 H1595 0.930 . S
C1605 C1598 1.409 . S
C1605 C1604 1.362 . S
H1606 C1612 0.930 . S
H1607 C1615 0.930 . S
H1608 C1616 0.930 . S
H1609 C1617 0.930 . S
H1610 C1620 0.930 . S
H1611 C1621 0.930 . S
C1612 H1606 0.930 . S
C1612 C1613 1.355 . S
C1612 C1614 1.415 . S
C1613 C1612 1.355 . S
C1613 C1615 1.419 . S
C1614 C1612 1.415 . S
C1614 C1619 1.425 . S
C1614 C1621 1.409 . S
C1615 H1607 0.930 . S
C1615 C1613 1.419 . S
C1615 C1616 1.362 . S
C1616 H1608 0.930 . S
C1616 C1615 1.362 . S
C1616 C1619 1.409 . S
C1617 H1609 0.930 . S
C1617 C1618 1.355 . S
C1617 C1619 1.415 . S
C1618 C1617 1.355 . S
C1618 C1620 1.419 . S
C1619 C1614 1.425 . S
C1619 C1616 1.409 . S
C1619 C1617 1.415 . S
C1620 H1610 0.930 . S
C1620 C1618 1.419 . S
C1620 C1621 1.362 . S
C1621 H1611 0.930 . S
C1621 C1614 1.409 . S
C1621 C1620 1.362 . S
H1622 C1628 0.930 . S
H1623 C1631 0.930 . S
H1624 C1632 0.930 . S
H1625 C1633 0.930 . S
H1626 C1636 0.930 . S
H1627 C1637 0.930 . S
C1628 H1622 0.930 . S
C1628 C1629 1.355 . S
C1628 C1630 1.415 . S
C1629 C1628 1.355 . S
C1629 C1631 1.419 . S
C1630 C1628 1.415 . S
C1630 C1635 1.425 . S
C1630 C1637 1.409 . S
C1631 H1623 0.930 . S
C1631 C1629 1.419 . S
C1631 C1632 1.362 . S
C1632 H1624 0.930 . S
C1632 C1631 1.362 . S
C1632 C1635 1.409 . S
C1633 H1625 0.930 . S
C1633 C1634 1.355 . S
C1633 C1635 1.415 . S
C1634 C1633 1.355 . S
C1634 C1636 1.419 . S
C1635 C1630 1.425 . S
C1635 C1632 1.409 . S
C1635 C1633 1.415 . S
C1636 H1626 0.930 . S
C1636 C1634 1.419 . S
C1636 C1637 1.362 . S
C1637 H1627 0.930 . S
C1637 C1630 1.409 . S
C1637 C1636 1.362 . S
C493 C34 1.263 . S
C498 C238 1.222 . S
C509 C8 1.291 . S
C514 C254 1.267 . S
C530 C237 1.162 1_455 S
C525 C18 1.231 . S
C546 C262 1.072 . S
C541 C31 1.253 . S
C557 C5 1.353 . S
C562 C271 1.190 1_565 S
C578 C274 1.254 . S
C573 C21 1.300 . S
C589 C73 1.294 . S
C594 C280 1.251 . S
C610 C296 1.266 . S
C605 C47 1.285 . S
C626 C279 1.144 . S
C621 C57 1.323 1_655 S
C637 C70 1.229 . S
C642 C304 1.168 . S
C658 C313 1.177 . S
C653 C44 1.350 1_565 S
C674 C316 1.129 . S
C669 C60 1.313 . S
C690 C325 1.168 . S
C685 C112 1.350 . S
C706 C337 1.123 . S
C701 C86 1.331 . S
C722 C334 1.237 . S
C717 C96 1.319 . S
C733 C109 1.300 . S
C738 C343 1.091 . S
C754 C342 1.266 . S
C749 C83 1.306 . S
C765 C99 1.338 . S
C770 C359 1.208 . S
C786 C364 1.250 . S
C781 C151 1.270 . S
C802 C380 1.221 . S
C797 C125 1.274 . S
C813 C135 1.332 . S
C818 C363 1.184 . S
C834 C388 1.208 . S
C829 C148 1.316 . S
C850 C397 1.124 . S
C845 C122 1.315 . S
C861 C138 1.267 . S
C866 C400 1.247 . S
C877 C190 1.302 . S
C882 C409 1.131 . S
C898 C421 1.116 . S
C893 C164 1.350 . S
C914 C418 1.181 . S
C909 C174 1.332 . S
C925 C187 1.233 . S
C930 C427 1.094 . S
C946 C426 1.267 . S
C941 C161 1.323 . S
C957 C177 1.353 . S
C962 C443 1.169 . S
C978 C448 1.150 . S
C973 C229 1.289 . S
C994 C464 1.255 . S
C989 C203 1.314 . S
C1005 C213 1.332 . S
C1010 C447 1.178 . S
C1026 C469 1.070 . S
C1021 C226 1.264 . S
C1042 C468 1.195 . S
C1037 C200 1.354 . S
C1058 C485 1.207 . S
C1053 C216 1.338 . S
C1074 C250 1.323 . S
C1069 C143 1.450 . S
C1085 C117 1.464 . S
C1090 C253 1.432 . S
C1106 C241 1.319 . S
C1101 C140 1.443 . S
C1117 C231 1.482 . S
C1122 C258 1.413 . S
C1133 C205 1.492 . S
C1138 C259 1.439 . S
C1154 C275 1.360 . S
C1149 C208 1.490 . S
C1170 C292 1.393 1_565 S
C1165 C182 1.464 . S
C1186 C295 1.398 . S
C1181 C156 1.448 . S
C1197 C179 1.446 . S
C1202 C283 1.345 . S
C1218 C300 1.406 . S
C1213 C114 1.483 . S
C1229 C88 1.489 . S
C1234 C301 1.437 . S
C1245 C91 1.494 . S
C1250 C317 1.436 . S
C1261 C221 1.456 . S
C1266 C321 1.323 . S
C1277 C195 1.448 . S
C1282 C338 1.380 . S
C1298 C322 1.279 . S
C1293 C218 1.424 . S
C1314 C355 1.384 . S
C1309 C75 1.455 . S
C1330 C346 1.339 . S
C1325 C49 1.486 . S
C1341 C52 1.495 . S
C1346 C358 1.364 . S
C1362 C376 1.394 . S
C1357 C26 1.463 . S
C1378 C379 1.339 . S
C1373 C0 1.482 . S
C1389 C23 1.446 . S
C1394 C367 1.362 . S
C1410 C384 1.388 . S
C1405 C192 1.482 . S
C1426 C385 1.342 . S
C1421 C166 1.489 . S
C1442 C401 1.375 . S
C1437 C169 1.470 . S
C1458 C405 1.406 . S
C1453 C65 1.458 . S
C1474 C422 1.349 . S
C1469 C39 1.455 . S
C1485 C62 1.442 . S
C1490 C406 1.382 . S
C1501 C153 1.456 . S
C1506 C439 1.391 . S
C1517 C127 1.499 . S
C1522 C430 1.433 . S
C1538 C442 1.447 . S
C1533 C130 1.465 . S
C1549 C104 1.450 . S
C1554 C460 1.323 . S
C1565 C78 1.449 . S
C1570 C463 1.406 . S
C1586 C451 1.280 . S
C1581 C101 1.422 . S
C1602 C481 1.435 . S
C1597 C36 1.473 . S
C1618 C472 1.437 . S
C1613 C10 1.489 . S
C1629 C13 1.494 . S
C1634 C484 1.436 . S
