# Generated by pormake.
# Topology nia, (6,6)-cn, num edge types: 1
# Building blocks:
#     Node 0, Type 0, BuildingBlock: KUMBOL_clean_sbu_1, # of connection points: 6
#     Node 1, Type 0, BuildingBlock: KUMBOL_clean_sbu_1, # of connection points: 6
#     Node 2, Type 1, BuildingBlock: MIDCAF_clean_sbu_0, # of connection points: 6
#     Node 3, Type 1, BuildingBlock: MIDCAF_clean_sbu_0, # of connection points: 6
#     Edge 4, Type (0, 1), BuildingBlock: KIFKEQ_clean_linker_1, # of connection points: 2
#     Edge 5, Type (0, 1), BuildingBlock: KIFKEQ_clean_linker_1, # of connection points: 2
#     Edge 6, Type (0, 1), BuildingBlock: KIFKEQ_clean_linker_1, # of connection points: 2
#     Edge 7, Type (0, 1), BuildingBlock: KIFKEQ_clean_linker_1, # of connection points: 2
#     Edge 8, Type (0, 1), BuildingBlock: KIFKEQ_clean_linker_1, # of connection points: 2
#     Edge 9, Type (0, 1), BuildingBlock: KIFKEQ_clean_linker_1, # of connection points: 2
#     Edge 10, Type (0, 1), BuildingBlock: KIFKEQ_clean_linker_1, # of connection points: 2
#     Edge 11, Type (0, 1), BuildingBlock: KIFKEQ_clean_linker_1, # of connection points: 2
#     Edge 12, Type (0, 1), BuildingBlock: KIFKEQ_clean_linker_1, # of connection points: 2
#     Edge 13, Type (0, 1), BuildingBlock: KIFKEQ_clean_linker_1, # of connection points: 2
#     Edge 14, Type (0, 1), BuildingBlock: KIFKEQ_clean_linker_1, # of connection points: 2
#     Edge 15, Type (0, 1), BuildingBlock: KIFKEQ_clean_linker_1, # of connection points: 2
# Relax obj value: 0.170
# Max RMSD: 0.279
# Mean RMSD: 0.201
data_MOF--net-nia--node1-KUMBOL_clean_sbu_1--node2-MIDCAF_clean_sbu_0--edge1-KIFKEQ_clean_linker_1
_symmetry_space_group_name_H-M    P1
_symmetry_Int_Tables_number       1
_symmetry_cell_setting            triclinic
loop_
_symmetry_equiv_pos_as_xyz
'x, y, z'
_cell_length_a     28.803551
_cell_length_b     28.797639
_cell_length_c     32.340175
_cell_angle_alpha  90.185763
_cell_angle_beta   89.826717
_cell_angle_gamma 135.7158
loop_
_atom_site_label
_atom_site_type_symbol
_atom_site_fract_x
_atom_site_fract_y
_atom_site_fract_z
_atom_type_partial_charge
C0 C 0.938 0.95277 0.87737 0.0
C1 C 0.82143 0.84946 0.88528 0.0
C2 C 0.88029 0.91138 0.90125 0.0
C3 C 0.82179 0.82922 0.84579 0.0
C4 C 0.9386 0.93241 0.83782 0.0
C5 C 0.8802 0.8705 0.82217 0.0
N6 N -0.00533 0.01125 0.89393 0.0
C7 C 0.05248 0.05327 0.8719 0.0
C8 C -0.00151 0.97412 0.81571 0.0
C9 C 0.05552 0.03506 0.83268 0.0
Gd10 Gd 0.0431 0.98882 0.05258 0.0
Gd11 Gd 0.98625 0.03564 0.96093 0.0
N12 N 0.88202 0.93114 0.94017 0.0
C13 C 0.76374 0.80969 0.90942 0.0
C14 C 0.82463 0.89449 0.96244 0.0
C15 C 0.76515 0.83282 0.94784 0.0
H16 H 0.82326 0.91287 0.99089 0.0
H17 H 0.72012 0.80356 0.96602 0.0
H18 H 0.20597 0.12173 0.0261 0.0
H19 H 0.09615 0.10101 0.88456 0.0
H20 H 0.30526 0.22868 0.05598 0.0
H21 H 0.71753 0.76186 0.89826 0.0
H22 H 0.77711 0.7816 0.83324 0.0
H23 H 0.92799 0.90942 0.12698 0.0
H24 H 0.00129 0.95975 0.78555 0.0
H25 H 0.10181 0.06802 0.81558 0.0
H26 H 0.23887 0.22503 0.19294 0.0
H27 H 0.87978 0.85389 0.79193 0.0
H28 H 0.01482 0.03328 0.23481 0.0
H29 H 0.91754 0.92932 0.19926 0.0
N30 N 0.02912 0.00196 0.12151 0.0
C31 C 0.08371 0.05876 0.14069 0.0
C32 C 0.97023 0.95542 0.14207 0.0
C33 C 0.01955 0.02487 0.20309 0.0
C34 C 0.96444 0.96624 0.18308 0.0
C35 C 0.08013 0.07201 0.18196 0.0
H36 H 0.13462 0.14332 0.23217 0.0
N37 N 0.14389 0.09196 0.07796 0.0
C38 C 0.14259 0.10514 0.11828 0.0
C39 C 0.25787 0.21091 0.11395 0.0
C40 C 0.1993 0.1655 0.13706 0.0
C41 C 0.20219 0.13438 0.0563 0.0
C42 C 0.25952 0.19484 0.07361 0.0
O43 O 0.99343 0.96354 0.94847 0.0
O44 O 0.96087 0.90734 0.00954 0.0
O45 O 0.10173 0.96743 0.05004 0.0
O46 O 0.02158 0.91627 0.09409 0.0
O47 O 0.93124 3e-05 0.02228 0.0
O48 O 0.93341 0.92638 0.04725 0.0
O49 O 0.03979 0.06326 0.06658 0.0
O50 O 0.06515 0.11811 1.00534 0.0
O51 O 0.92816 0.05745 0.95668 0.0
O52 O 0.01329 0.10861 0.91698 0.0
O53 O 0.10113 0.02936 0.99201 0.0
O54 O 0.09623 0.10099 0.96698 0.0
C55 C 0.96511 0.90958 0.96907 0.0
C56 C 0.90941 0.95177 0.04752 0.0
C57 C 0.04616 0.85906 0.06927 0.0
C58 C 0.06111 0.78638 0.07884 0.0
C59 C 0.97374 0.75295 0.03373 0.0
C60 C 0.99293 0.81222 0.04245 0.0
C61 C 0.00752 0.73998 0.05174 0.0
C62 C 0.08002 0.846 0.08752 0.0
C63 C 0.06686 0.92168 0.07845 0.0
C64 C 0.19587 0.17875 0.17817 0.0
C65 C 0.13652 0.13216 0.20055 0.0
H66 H 0.30241 0.25786 0.12722 0.0
C67 C 0.06491 0.1162 0.046 0.0
C68 C 0.12256 0.07805 0.96734 0.0
C69 C 0.9853 0.1653 0.93494 0.0
C70 C 0.96829 0.23492 0.91888 0.0
C71 C 0.05041 0.2708 0.97014 0.0
C72 C 0.03431 0.21261 0.9638 0.0
C73 C 0.01742 0.28185 0.94802 0.0
C74 C 0.95287 0.17683 0.91231 0.0
C75 C 0.96627 0.10302 0.92855 0.0
H76 H 0.9325 0.71692 0.01301 0.0
H77 H 0.96625 0.82153 0.02848 0.0
H78 H 0.99127 0.69333 0.04479 0.0
H79 H 0.12164 0.88272 0.10791 0.0
H80 H 0.08816 0.30716 0.99251 0.0
H81 H 0.05973 0.2044 0.98148 0.0
H82 H 0.03024 0.32703 0.95367 0.0
H83 H 0.91428 0.13965 0.89047 0.0
C84 C 0.00968 0.04867 0.64633 0.0
C85 C 0.11548 0.16143 0.66144 0.0
C86 C 0.06572 0.11271 0.63304 0.0
C87 C 0.10899 0.14429 0.70319 0.0
C88 C 0.0018 0.03199 0.68847 0.0
C89 C 0.05223 0.07983 0.71667 0.0
N90 N 0.96118 0.00394 0.61848 0.0
C91 C 0.90189 0.94332 0.631 0.0
C92 C 0.94252 0.96837 0.70118 0.0
C93 C 0.89212 0.92408 0.67237 0.0
Gd94 Gd 0.02352 0.97056 0.46099 0.0
Gd95 Gd 0.98314 0.04054 0.54994 0.0
N96 N 0.07076 0.12779 0.59244 0.0
C97 C 0.16955 0.22624 0.64714 0.0
C98 C 0.12105 0.19177 0.57878 0.0
C99 C 0.17189 0.24164 0.60574 0.0
H100 H 0.12266 0.20367 0.54682 0.0
H101 H 0.21268 0.29193 0.59464 0.0
H102 H 0.9468 0.8244 0.50877 0.0
H103 H 0.86198 0.90995 0.60905 0.0
H104 H 0.83741 0.70843 0.50807 0.0
H105 H 0.20888 0.26504 0.66799 0.0
H106 H 0.14686 0.18092 0.72547 0.0
H107 H 0.0342 0.03773 0.3733 0.0
H108 H 0.93429 0.95367 0.7333 0.0
H109 H 0.84545 0.87549 0.68211 0.0
H110 H 0.72708 0.69618 0.39126 0.0
H111 H 0.04711 0.06805 0.74913 0.0
H112 H 0.85258 0.88982 0.30585 0.0
H113 H 0.96534 0.00443 0.31148 0.0
N114 N 0.96108 0.94288 0.40175 0.0
C115 C 0.90067 0.87899 0.39846 0.0
C116 C 0.98534 0.98742 0.37064 0.0
C117 C 0.88286 0.90398 0.3327 0.0
C118 C 0.94647 0.96875 0.33577 0.0
C119 C 0.85928 0.85809 0.36417 0.0
H120 H 0.76307 0.77559 0.33659 0.0
N121 N 0.923 0.85577 0.46117 0.0
C122 C 0.88042 0.83454 0.42953 0.0
C123 C 0.80152 0.7225 0.45645 0.0
C124 C 0.81811 0.76758 0.42672 0.0
C125 C 0.90979 0.81028 0.48737 0.0
C126 C 0.84823 0.74367 0.48632 0.0
O127 O 0.08346 0.07841 0.55618 0.0
O128 O 0.10212 0.02946 0.51074 0.0
O129 O 0.05153 0.91996 0.44298 0.0
O130 O 0.09373 0.00888 0.41145 0.0
O131 O 0.04102 0.10632 0.49391 0.0
O132 O 0.08886 0.08053 0.45474 0.0
O133 O 0.95884 0.98815 0.45283 0.0
O134 O 0.90114 0.94955 0.51291 0.0
O135 O 0.95039 0.08189 0.52229 0.0
O136 O 0.93076 0.05418 0.58696 0.0
O137 O 0.00805 0.9356 0.52737 0.0
O138 O 0.93101 0.93412 0.54779 0.0
C139 C 0.11855 0.0683 0.54215 0.0
C140 C 0.08087 0.11905 0.46444 0.0
C141 C 0.16051 0.99001 0.41571 0.0
C142 C 0.23347 0.97887 0.39344 0.0
C143 C 0.27894 0.079 0.42919 0.0
C144 C 0.21562 0.05307 0.43201 0.0
C145 C 0.28805 0.04263 0.40979 0.0
C146 C 0.16948 0.95286 0.39685 0.0
C147 C 0.09436 0.96456 0.41558 0.0
C148 C 0.77542 0.7472 0.39358 0.0
C149 C 0.79601 0.79232 0.36234 0.0
H150 H 0.75416 0.67068 0.4554 0.0
C151 C 0.90274 0.9541 0.47265 0.0
C152 C 0.96297 0.91799 0.55395 0.0
C153 C 0.85581 0.04975 0.55313 0.0
C154 C 0.77892 0.05542 0.57508 0.0
C155 C 0.74443 0.97279 0.52457 0.0
C156 C 0.80687 0.99639 0.52694 0.0
C157 C 0.73052 0.00236 0.5483 0.0
C158 C 0.84141 0.07857 0.57742 0.0
C159 C 0.92212 0.07628 0.55626 0.0
H160 H 0.32132 0.12799 0.44148 0.0
H161 H 0.20982 0.08283 0.44605 0.0
H162 H 0.33818 0.06519 0.40702 0.0
H163 H 0.12648 0.90386 0.38481 0.0
H164 H 0.70689 0.93176 0.50413 0.0
H165 H 0.81702 0.9733 0.50839 0.0
H166 H 0.68203 0.98376 0.54583 0.0
H167 H 0.87956 0.12023 0.59742 0.0
Zn168 Zn 0.38769 0.66907 0.18024 0.0
Zn169 Zn 0.33629 0.64474 0.32983 0.0
Zn170 Zn 0.37242 0.65969 0.2544 0.0
C171 C 0.47771 0.7299 0.32548 0.0
C172 C 0.27277 0.51989 0.3069 0.0
O173 O 0.32909 0.69235 0.22526 0.0
O174 O 0.32035 0.66502 0.15989 0.0
C175 C 0.51335 0.76286 0.20837 0.0
O176 O 0.46822 0.72129 0.28614 0.0
O177 O 0.4291 0.70207 0.34954 0.0
O178 O 0.27372 0.54846 0.33697 0.0
O179 O 0.30673 0.55305 0.27394 0.0
O180 O 0.48182 0.75485 0.17734 0.0
O181 O 0.48125 0.72793 0.24125 0.0
O182 O 0.31854 0.55942 0.23083 0.0
O183 O 0.36849 0.58896 0.17035 0.0
C184 C 0.32952 0.54459 0.1971 0.0
O185 O 0.33291 0.70356 0.26783 0.0
O186 O 0.3002 0.68187 0.33324 0.0
C187 C 0.30774 0.6847 0.18829 0.0
C188 C 0.30808 0.70782 0.29919 0.0
Zn189 Zn 0.64364 0.34481 0.83131 0.0
Zn190 Zn 0.68014 0.38637 0.67757 0.0
Zn191 Zn 0.65979 0.36928 0.75503 0.0
C192 C 0.74957 0.51101 0.70683 0.0
C193 C 0.54276 0.29635 0.68905 0.0
O194 O 0.69881 0.3269 0.77493 0.0
O195 O 0.66914 0.29881 0.84038 0.0
C196 C 0.73484 0.48301 0.82348 0.0
O197 O 0.72737 0.47859 0.74131 0.0
O198 O 0.73481 0.48121 0.67304 0.0
O199 O 0.58594 0.32228 0.66107 0.0
O200 O 0.56019 0.30963 0.72741 0.0
O201 O 0.70805 0.43776 0.84998 0.0
O202 O 0.72181 0.46812 0.78474 0.0
O203 O 0.55135 0.30387 0.77062 0.0
O204 O 0.54973 0.29148 0.83824 0.0
C205 C 0.51962 0.28001 0.80538 0.0
O206 O 0.69843 0.32828 0.73132 0.0
O207 O 0.72428 0.35917 0.66588 0.0
C208 C 0.69687 0.30181 0.80883 0.0
C209 C 0.72144 0.33004 0.69631 0.0
H210 H 0.10422 0.80729 0.15893 0.0
H211 H 0.10109 0.73533 0.04051 0.0
H212 H 0.16156 0.78166 0.18924 0.0
H213 H 0.15851 0.71039 0.07045 0.0
H214 H 0.19788 0.60838 0.14066 0.0
H215 H 0.13638 0.63221 0.11738 0.0
H216 H 0.2674 0.81474 0.1882 0.0
H217 H 0.32883 0.79006 0.21148 0.0
C218 C 0.11623 0.7865 0.13932 0.0
C219 C 0.09755 0.77275 0.09739 0.0
C220 C 0.14907 0.77184 0.15668 0.0
C221 C 0.16392 0.74319 0.13242 0.0
C222 C 0.14633 0.73079 0.09033 0.0
C223 C 0.11348 0.74521 0.07309 0.0
C224 C 0.21297 0.6532 0.15159 0.0
C225 C 0.26743 0.69704 0.1783 0.0
C226 C 0.17807 0.66713 0.13808 0.0
C227 C 0.19742 0.72584 0.15046 0.0
C228 C 0.25075 0.76877 0.17836 0.0
C229 C 0.28562 0.75453 0.19204 0.0
H230 H 0.13143 0.07603 0.62577 0.0
H231 H 0.23919 0.12672 0.51289 0.0
H232 H 0.22935 0.12534 0.66619 0.0
H233 H 0.33716 0.17556 0.55291 0.0
H234 H 0.4812 0.20186 0.63043 0.0
H235 H 0.37491 0.14179 0.59767 0.0
H236 H 0.3423 0.23202 0.68303 0.0
H237 H 0.44907 0.29139 0.7164 0.0
C238 C 0.17655 0.0989 0.60961 0.0
C239 C 0.17816 0.09849 0.56617 0.0
C240 C 0.23248 0.12667 0.63276 0.0
C241 C 0.29105 0.15412 0.61288 0.0
C242 C 0.29244 0.15364 0.56931 0.0
C243 C 0.23647 0.12582 0.54625 0.0
C244 C 0.45056 0.2077 0.64274 0.0
C245 C 0.47299 0.25102 0.67595 0.0
C246 C 0.39003 0.17387 0.62371 0.0
C247 C 0.3508 0.18328 0.63706 0.0
C248 C 0.37131 0.22358 0.67203 0.0
C249 C 0.43208 0.25721 0.69138 0.0
H250 H 0.04025 0.12388 0.12567 0.0
H251 H 0.16642 0.24515 0.02121 0.0
H252 H 0.106 0.22287 0.16906 0.0
H253 H 0.23013 0.34459 0.06392 0.0
H254 H 0.20054 0.43054 0.21574 0.0
H255 H 0.13311 0.32304 0.18107 0.0
H256 H 0.30892 0.39686 0.11945 0.0
H257 H 0.37518 0.50431 0.15282 0.0
C258 C 0.0818 0.1719 0.11193 0.0
C259 C 0.09898 0.17689 0.07024 0.0
C260 C 0.11912 0.2286 0.13673 0.0
C261 C 0.17402 0.29156 0.1202 0.0
C262 C 0.18923 0.29663 0.07795 0.0
C263 C 0.15214 0.23986 0.05323 0.0
C264 C 0.22478 0.4229 0.19568 0.0
C265 C 0.2927 0.4757 0.18643 0.0
C266 C 0.18624 0.36152 0.17565 0.0
C267 C 0.2154 0.35216 0.14648 0.0
C268 C 0.28454 0.40324 0.14054 0.0
C269 C 0.32265 0.46448 0.16005 0.0
H270 H 0.72944 0.10112 0.54564 0.0
H271 H 0.80133 0.08813 0.65738 0.0
H272 H 0.71961 0.16817 0.58221 0.0
H273 H 0.79053 0.15493 0.69421 0.0
H274 H 0.81259 0.36285 0.64209 0.0
H275 H 0.82506 0.2922 0.61755 0.0
H276 H 0.6834 0.14422 0.70864 0.0
H277 H 0.66894 0.21438 0.73265 0.0
C278 C 0.7419 0.11155 0.57821 0.0
C279 C 0.76627 0.08966 0.59868 0.0
C280 C 0.73666 0.15014 0.59901 0.0
C281 C 0.7547 0.16674 0.64083 0.0
C282 C 0.77632 0.14255 0.66196 0.0
C283 C 0.78269 0.10476 0.6409 0.0
C284 C 0.78504 0.31587 0.65753 0.0
C285 C 0.73974 0.29408 0.68927 0.0
C286 C 0.79212 0.27551 0.6434 0.0
C287 C 0.75455 0.21273 0.66093 0.0
C288 C 0.71289 0.19264 0.69476 0.0
C289 C 0.70507 0.23293 0.70867 0.0
H290 H 0.80609 0.82547 0.07649 0.0
H291 H 0.90068 0.02677 0.08967 0.0
H292 H 0.72007 0.78751 0.1256 0.0
H293 H 0.81739 0.9902 0.14046 0.0
H294 H 0.60457 0.88478 0.17396 0.0
H295 H 0.70742 0.93463 0.141 0.0
H296 H 0.6851 0.78121 0.1928 0.0
H297 H 0.5794 0.72927 0.22375 0.0
C298 C 0.8088 0.86162 0.09042 0.0
C299 C 0.85907 0.9287 0.07878 0.0
C300 C 0.76 0.84016 0.11899 0.0
C301 C 0.76111 0.8856 0.13709 0.0
C302 C 0.81359 0.95332 0.12659 0.0
C303 C 0.86145 0.97442 0.09745 0.0
C304 C 0.62302 0.86321 0.17956 0.0
C305 C 0.58463 0.80391 0.20207 0.0
C306 C 0.68221 0.89175 0.16057 0.0
C307 C 0.70476 0.86173 0.16363 0.0
C308 C 0.66883 0.80512 0.18898 0.0
C309 C 0.609 0.77612 0.20764 0.0
H310 H 0.83422 0.81138 0.57584 0.0
H311 H 0.03402 0.90917 0.60213 0.0
H312 H 0.7905 0.72368 0.62447 0.0
H313 H 0.99083 0.82251 0.65247 0.0
H314 H 0.8773 0.60417 0.68254 0.0
H315 H 0.93477 0.71137 0.65262 0.0
H316 H 0.77459 0.68668 0.69227 0.0
H317 H 0.71565 0.57714 0.72006 0.0
C318 C 0.86888 0.81471 0.59282 0.0
C319 C 0.93744 0.86694 0.58528 0.0
C320 C 0.84391 0.76463 0.62109 0.0
C321 C 0.88692 0.76568 0.64289 0.0
C322 C 0.95594 0.81928 0.636 0.0
C323 C 0.98084 0.86902 0.60722 0.0
C324 C 0.85586 0.62311 0.68636 0.0
C325 C 0.79277 0.58311 0.70434 0.0
C326 C 0.88872 0.68469 0.66905 0.0
C327 C 0.85907 0.70775 0.66924 0.0
C328 C 0.7984 0.67005 0.69061 0.0
C329 C 0.76513 0.60789 0.70743 0.0
H330 H 0.16642 0.89371 0.32654 0.0
H331 H 0.32363 0.97563 0.41356 0.0
H332 H 0.18266 0.82918 0.29433 0.0
H333 H 0.34168 0.91415 0.37981 0.0
H334 H 0.39697 0.84087 0.2899 0.0
H335 H 0.3786 0.91 0.30607 0.0
H336 H 0.16944 0.7331 0.32375 0.0
H337 H 0.18833 0.66418 0.30839 0.0
C338 C 0.20434 0.89815 0.3389 0.0
C339 C 0.24367 0.94021 0.37284 0.0
C340 C 0.21396 0.86164 0.3201 0.0
C341 C 0.26396 0.86748 0.33427 0.0
C342 C 0.3037 0.90986 0.36772 0.0
C343 C 0.29334 0.94527 0.38699 0.0
C344 C 0.34683 0.81706 0.29587 0.0
C345 C 0.29385 0.74756 0.29753 0.0
C346 C 0.33639 0.85641 0.30538 0.0
C347 C 0.2727 0.82673 0.31637 0.0
C348 C 0.21888 0.75713 0.31507 0.0
C349 C 0.22958 0.71779 0.30627 0.0
H350 H 0.13304 0.00621 0.92248 0.0
H351 H 0.22527 0.20583 0.94084 0.0
H352 H 0.21502 0.04585 0.86964 0.0
H353 H 0.31059 0.24706 0.89005 0.0
H354 H 0.4535 0.31413 0.7916 0.0
H355 H 0.34655 0.25873 0.82268 0.0
H356 H 0.32372 0.10114 0.86576 0.0
H357 H 0.42745 0.15459 0.83274 0.0
C358 C 0.17179 0.05892 0.91559 0.0
C359 C 0.17382 0.10325 0.93622 0.0
C360 C 0.21887 0.08182 0.88521 0.0
C361 C 0.27048 0.15006 0.87554 0.0
C362 C 0.27136 0.19411 0.89586 0.0
C363 C 0.22309 0.17079 0.92551 0.0
C364 C 0.42337 0.26573 0.80567 0.0
C365 C 0.44792 0.23791 0.80918 0.0
C366 C 0.36285 0.23464 0.82447 0.0
C367 C 0.32658 0.17587 0.84776 0.0
C368 C 0.34907 0.14568 0.84797 0.0
C369 C 0.4088 0.17627 0.82886 0.0
H370 H 0.149 0.15423 0.39124 0.0
H371 H 0.086 0.21662 0.47633 0.0
H372 H 0.18966 0.24277 0.34361 0.0
H373 H 0.12782 0.30519 0.42958 0.0
H374 H 0.14538 0.41876 0.33104 0.0
H375 H 0.09763 0.3165 0.36421 0.0
H376 H 0.27436 0.36444 0.33431 0.0
H377 H 0.32083 0.46598 0.29943 0.0
C378 C 0.14444 0.18712 0.40009 0.0
C379 C 0.11349 0.17761 0.43762 0.0
C380 C 0.16774 0.23787 0.37269 0.0
C381 C 0.16064 0.28021 0.38223 0.0
C382 C 0.13221 0.27224 0.42049 0.0
C383 C 0.10884 0.22169 0.44767 0.0
C384 C 0.17274 0.40594 0.33007 0.0
C385 C 0.23665 0.45004 0.31279 0.0
C386 C 0.14598 0.34796 0.34968 0.0
C387 C 0.18316 0.33343 0.35328 0.0
C388 C 0.24452 0.37429 0.33235 0.0
C389 C 0.27101 0.43219 0.31209 0.0
H390 H 0.94085 0.22217 0.83597 0.0
H391 H 0.90935 0.26839 0.9532 0.0
H392 H 0.87281 0.23292 0.80152 0.0
H393 H 0.84139 0.27836 0.91904 0.0
H394 H 0.65863 0.20383 0.85804 0.0
H395 H 0.72529 0.18543 0.87969 0.0
H396 H 0.87851 0.3336 0.79285 0.0
H397 H 0.81187 0.35335 0.77151 0.0
C398 C 0.91956 0.23478 0.85425 0.0
C399 C 0.93032 0.24451 0.89724 0.0
C400 C 0.88105 0.24117 0.83455 0.0
C401 C 0.85167 0.25595 0.85775 0.0
C402 C 0.86316 0.2664 0.90055 0.0
C403 C 0.90237 0.26117 0.92004 0.0
C404 C 0.70588 0.23153 0.84284 0.0
C405 C 0.73028 0.28033 0.81328 0.0
C406 C 0.74401 0.22105 0.85533 0.0
C407 C 0.8073 0.25886 0.83839 0.0
C408 C 0.82974 0.30388 0.80634 0.0
C409 C 0.79156 0.31489 0.794 0.0
H410 H 0.89436 -0.00218 0.40136 0.0
H411 H 0.77516 0.84191 0.4927 0.0
H412 H 0.79364 0.94602 0.36295 0.0
H413 H 0.67449 0.79069 0.45481 0.0
H414 H 0.51176 0.76777 0.4059 0.0
H415 H 0.61579 0.82362 0.43975 0.0
H416 H 0.69873 0.83854 0.323 0.0
H417 H 0.59346 0.78206 0.28881 0.0
C418 C 0.84657 0.95226 0.41301 0.0
C419 C 0.84223 0.92359 0.44983 0.0
C420 C 0.78912 0.92269 0.39107 0.0
C421 C 0.72638 0.86455 0.40599 0.0
C422 C 0.72224 0.83596 0.44286 0.0
C423 C 0.77965 0.86518 0.46455 0.0
C424 C 0.55201 0.78301 0.38716 0.0
C425 C 0.54397 0.76979 0.3444 0.0
C426 C 0.61159 0.8148 0.40674 0.0
C427 C 0.66493 0.8345 0.38414 0.0
C428 C 0.65827 0.82386 0.34115 0.0
C429 C 0.59814 0.7916 0.32151 0.0
H430 H -0.00162 0.90337 0.89175 0.0
H431 H 0.86399 0.78037 0.9932 0.0
H432 H 0.94613 0.80357 0.8517 0.0
H433 H 0.81435 0.681 0.95399 0.0
H434 H 0.7597 0.58664 0.78997 0.0
H435 H 0.82104 0.69486 0.82253 0.0
H436 H 0.86625 0.63915 0.92648 0.0
H437 H 0.80772 0.53318 0.8935 0.0
C438 C 0.95753 0.85503 0.90539 0.0
C439 C 0.9351 0.84949 0.94557 0.0
C440 C 0.92791 0.79817 0.88252 0.0
C441 C 0.87659 0.73498 0.89992 0.0
C442 C 0.8543 0.72941 0.94009 0.0
C443 C 0.88291 0.78614 0.96258 0.0
C444 C 0.78503 0.59884 0.81885 0.0
C445 C 0.77935 0.55183 0.83892 0.0
C446 C 0.81934 0.66018 0.83772 0.0
C447 C 0.8474 0.67452 0.87718 0.0
C448 C 0.84417 0.62872 0.89632 0.0
C449 C 0.8108 0.56822 0.87734 0.0
loop_
_geom_bond_atom_site_label_1
_geom_bond_atom_site_label_2
_geom_bond_distance
_geom_bond_site_symmetry_2
_ccdc_geom_bond_type
C0 C2 1.422 . S
C0 C4 1.415 . S
C0 N6 1.369 1_665 S
C1 C2 1.421 . S
C1 C3 1.417 . S
C1 C13 1.422 . S
C2 C0 1.422 . S
C2 C1 1.421 . S
C2 N12 1.359 . S
C3 C1 1.417 . S
C3 C5 1.329 . S
C3 H22 0.930 . S
C4 C0 1.415 . S
C4 C5 1.437 . S
C4 C8 1.413 1_665 S
C5 C3 1.329 . S
C5 C4 1.437 . S
C5 H27 0.929 . S
N6 C0 1.369 1_445 S
N6 C7 1.338 . S
N6 Gd11 2.622 1_455 S
C7 N6 1.338 . S
C7 C9 1.378 . S
C7 H19 0.929 . S
C8 C4 1.413 1_445 S
C8 C9 1.348 . S
C8 H24 0.931 1_545 S
C9 C7 1.378 . S
C9 C8 1.348 . S
C9 H25 0.930 . S
Gd10 N30 2.622 . S
Gd10 N37 2.570 1_565 S
Gd10 O44 2.353 1_454 S
Gd10 O45 2.468 . S
Gd10 O46 2.427 . S
Gd10 O48 2.388 1_455 S
Gd10 O49 2.386 1_565 S
Gd10 O53 2.307 1_564 S
Gd10 C63 2.805 . S
Gd11 N6 2.622 1_655 S
Gd11 N12 2.570 1_545 S
Gd11 O43 2.386 1_545 S
Gd11 O47 2.307 1_546 S
Gd11 O50 2.353 1_656 S
Gd11 O51 2.468 . S
Gd11 O52 2.427 1_655 S
Gd11 O54 2.388 1_655 S
Gd11 C75 2.805 . S
N12 C2 1.359 . S
N12 Gd11 2.570 1_565 S
N12 C14 1.343 . S
C13 C1 1.422 . S
C13 C15 1.321 . S
C13 H21 0.931 . S
C14 N12 1.343 . S
C14 C15 1.390 . S
C14 H16 0.931 . S
C15 C13 1.321 . S
C15 C14 1.390 . S
C15 H17 0.930 . S
H16 C14 0.931 . S
H17 C15 0.930 . S
H18 C41 0.931 . S
H19 C7 0.929 . S
H20 C42 0.930 . S
H21 C13 0.931 . S
H22 C3 0.930 . S
H23 C32 0.929 . S
H24 C8 0.931 1_565 S
H25 C9 0.930 . S
H26 C64 0.930 . S
H27 C5 0.929 . S
H28 C33 0.931 . S
H29 C34 0.930 . S
N30 Gd10 2.622 . S
N30 C31 1.369 1_565 S
N30 C32 1.338 1_455 S
C31 N30 1.369 1_545 S
C31 C35 1.415 . S
C31 C38 1.422 . S
C32 H23 0.929 . S
C32 N30 1.338 1_655 S
C32 C34 1.378 . S
C33 H28 0.931 . S
C33 C34 1.348 1_545 S
C33 C35 1.413 1_655 S
C34 H29 0.930 . S
C34 C32 1.378 . S
C34 C33 1.348 1_565 S
C35 C31 1.415 . S
C35 C33 1.413 1_455 S
C35 C65 1.437 . S
H36 C65 0.929 . S
N37 Gd10 2.570 1_545 S
N37 C38 1.359 . S
N37 C41 1.343 . S
C38 C31 1.422 . S
C38 N37 1.359 . S
C38 C40 1.421 . S
C39 C40 1.422 . S
C39 C42 1.321 . S
C39 H66 0.931 . S
C40 C38 1.421 . S
C40 C39 1.422 . S
C40 C64 1.417 . S
C41 H18 0.931 . S
C41 N37 1.343 . S
C41 C42 1.390 . S
C42 H20 0.930 . S
C42 C39 1.321 . S
C42 C41 1.390 . S
O43 Gd11 2.386 1_565 S
O43 C55 1.265 . S
O44 Gd10 2.353 1_656 S
O44 C55 1.242 . S
O45 Gd10 2.468 . S
O45 C63 1.263 . S
O46 Gd10 2.427 . S
O46 C63 1.252 . S
O47 Gd11 2.307 1_564 S
O47 C56 1.261 . S
O48 Gd10 2.388 1_655 S
O48 C56 1.252 . S
O49 Gd10 2.386 1_545 S
O49 C67 1.265 . S
O50 Gd11 2.353 1_454 S
O50 C67 1.242 . S
O51 Gd11 2.468 . S
O51 C75 1.263 . S
O52 Gd11 2.427 1_455 S
O52 C75 1.252 1_455 S
O53 Gd10 2.307 1_546 S
O53 C68 1.261 . S
O54 Gd11 2.388 1_455 S
O54 C68 1.252 . S
C55 O43 1.265 . S
C55 O44 1.242 . S
C56 O47 1.261 . S
C56 O48 1.252 . S
C57 C60 1.394 . S
C57 C62 1.370 . S
C57 C63 1.500 . S
C58 C61 1.383 . S
C58 C62 1.395 . S
C59 C60 1.396 . S
C59 C61 1.365 . S
C59 H76 0.929 . S
C60 C57 1.394 . S
C60 C59 1.396 . S
C60 H77 0.930 1_455 S
C61 C58 1.383 . S
C61 C59 1.365 . S
C61 H78 0.931 . S
C62 C57 1.370 . S
C62 C58 1.395 . S
C62 H79 0.930 . S
C63 Gd10 2.805 . S
C63 O45 1.263 . S
C63 O46 1.252 . S
C63 C57 1.500 . S
C64 H26 0.930 . S
C64 C40 1.417 . S
C64 C65 1.329 . S
C65 C35 1.437 . S
C65 H36 0.929 . S
C65 C64 1.329 . S
H66 C39 0.931 . S
C67 O49 1.265 . S
C67 O50 1.242 . S
C68 O53 1.261 . S
C68 O54 1.252 . S
C69 C72 1.394 . S
C69 C74 1.370 . S
C69 C75 1.500 . S
C70 C73 1.383 . S
C70 C74 1.395 . S
C71 C72 1.396 . S
C71 C73 1.365 . S
C71 H80 0.929 1_655 S
C72 C69 1.394 . S
C72 C71 1.396 . S
C72 H81 0.930 1_655 S
C73 C70 1.383 . S
C73 C71 1.365 . S
C73 H82 0.931 . S
C74 C69 1.370 . S
C74 C70 1.395 . S
C74 H83 0.930 . S
C75 Gd11 2.805 . S
C75 O51 1.263 . S
C75 O52 1.252 1_655 S
C75 C69 1.500 . S
H76 C59 0.929 . S
H77 C60 0.930 1_655 S
H78 C61 0.931 . S
H79 C62 0.930 . S
H80 C71 0.929 1_455 S
H81 C72 0.930 1_455 S
H82 C73 0.931 . S
H83 C74 0.930 . S
C84 C86 1.422 . S
C84 C88 1.415 . S
C84 N90 1.369 . S
C85 C86 1.421 . S
C85 C87 1.417 . S
C85 C97 1.422 . S
C86 C84 1.422 . S
C86 C85 1.421 . S
C86 N96 1.359 . S
C87 C85 1.417 . S
C87 C89 1.329 . S
C87 H106 0.930 . S
C88 C84 1.415 . S
C88 C89 1.437 . S
C88 C92 1.413 . S
C89 C87 1.329 . S
C89 C88 1.437 . S
C89 H111 0.929 . S
N90 C84 1.369 . S
N90 C91 1.338 1_445 S
N90 Gd95 2.622 1_455 S
C91 N90 1.338 1_665 S
C91 C93 1.378 . S
C91 H103 0.929 . S
C92 C88 1.413 . S
C92 C93 1.348 1_445 S
C92 H108 0.936 . S
C93 C91 1.378 . S
C93 C92 1.348 1_665 S
C93 H109 0.930 . S
Gd94 N114 2.622 1_565 S
Gd94 N121 2.570 1_455 S
Gd94 O128 2.353 1_565 S
Gd94 O129 2.468 . S
Gd94 O130 2.427 1_565 S
Gd94 O132 2.388 1_565 S
Gd94 O133 2.386 1_455 S
Gd94 O137 2.307 1_455 S
Gd94 C147 2.805 . S
Gd95 N90 2.622 1_655 S
Gd95 N96 2.570 1_655 S
Gd95 O127 2.386 1_655 S
Gd95 O131 2.307 1_655 S
Gd95 O134 2.353 1_545 S
Gd95 O135 2.468 . S
Gd95 O136 2.427 . S
Gd95 O138 2.388 1_545 S
Gd95 C159 2.805 . S
N96 C86 1.359 . S
N96 Gd95 2.570 1_455 S
N96 C98 1.343 . S
C97 C85 1.422 . S
C97 C99 1.321 . S
C97 H105 0.931 . S
C98 N96 1.343 . S
C98 C99 1.390 . S
C98 H100 0.931 . S
C99 C97 1.321 . S
C99 C98 1.390 . S
C99 H101 0.930 . S
H100 C98 0.931 . S
H101 C99 0.930 . S
H102 C125 0.931 . S
H103 C91 0.929 . S
H104 C126 0.930 . S
H105 C97 0.931 . S
H106 C87 0.930 . S
H107 C116 0.929 . S
H108 C92 0.936 . S
H109 C93 0.930 . S
H110 C148 0.930 . S
H111 C89 0.929 . S
H112 C117 0.931 . S
H113 C118 0.930 . S
N114 Gd94 2.622 1_545 S
N114 C115 1.369 1_445 S
N114 C116 1.338 . S
C115 N114 1.369 1_665 S
C115 C119 1.415 . S
C115 C122 1.422 . S
C116 H107 0.929 . S
C116 N114 1.338 . S
C116 C118 1.378 . S
C117 H112 0.931 . S
C117 C118 1.348 . S
C117 C119 1.413 1_445 S
C118 H113 0.930 . S
C118 C116 1.378 . S
C118 C117 1.348 . S
C119 C115 1.415 . S
C119 C117 1.413 1_665 S
C119 C149 1.437 . S
H120 C149 0.929 . S
N121 Gd94 2.570 1_655 S
N121 C122 1.359 . S
N121 C125 1.343 . S
C122 C115 1.422 . S
C122 N121 1.359 . S
C122 C124 1.421 . S
C123 C124 1.422 . S
C123 C126 1.321 . S
C123 H150 0.931 . S
C124 C122 1.421 . S
C124 C123 1.422 . S
C124 C148 1.417 . S
C125 H102 0.931 . S
C125 N121 1.343 . S
C125 C126 1.390 . S
C126 H104 0.930 . S
C126 C123 1.321 . S
C126 C125 1.390 . S
O127 Gd95 2.386 1_455 S
O127 C139 1.265 . S
O128 Gd94 2.353 1_545 S
O128 C139 1.242 . S
O129 Gd94 2.468 . S
O129 C147 1.263 . S
O130 Gd94 2.427 1_545 S
O130 C147 1.252 1_545 S
O131 Gd95 2.307 1_455 S
O131 C140 1.261 . S
O132 Gd94 2.388 1_545 S
O132 C140 1.252 . S
O133 Gd94 2.386 1_655 S
O133 C151 1.265 . S
O134 Gd95 2.353 1_565 S
O134 C151 1.242 . S
O135 Gd95 2.468 . S
O135 C159 1.263 . S
O136 Gd95 2.427 . S
O136 C159 1.252 . S
O137 Gd94 2.307 1_655 S
O137 C152 1.261 . S
O138 Gd95 2.388 1_565 S
O138 C152 1.252 . S
C139 O127 1.265 . S
C139 O128 1.242 . S
C140 O131 1.261 . S
C140 O132 1.252 . S
C141 C144 1.394 . S
C141 C146 1.370 . S
C141 C147 1.500 . S
C142 C145 1.383 . S
C142 C146 1.395 . S
C143 C144 1.396 . S
C143 C145 1.365 . S
C143 H160 0.929 1_565 S
C144 C141 1.394 . S
C144 C143 1.396 . S
C144 H161 0.930 1_565 S
C145 C142 1.383 . S
C145 C143 1.365 . S
C145 H162 0.931 . S
C146 C141 1.370 . S
C146 C142 1.395 . S
C146 H163 0.930 . S
C147 Gd94 2.805 . S
C147 O129 1.263 . S
C147 O130 1.252 1_565 S
C147 C141 1.500 . S
C148 H110 0.930 . S
C148 C124 1.417 . S
C148 C149 1.329 . S
C149 C119 1.437 . S
C149 H120 0.929 . S
C149 C148 1.329 . S
H150 C123 0.931 . S
C151 O133 1.265 . S
C151 O134 1.242 . S
C152 O137 1.261 . S
C152 O138 1.252 . S
C153 C156 1.394 . S
C153 C158 1.370 . S
C153 C159 1.500 . S
C154 C157 1.383 . S
C154 C158 1.395 . S
C155 C156 1.396 . S
C155 C157 1.365 . S
C155 H164 0.929 . S
C156 C153 1.394 . S
C156 C155 1.396 . S
C156 H165 0.930 . S
C157 C154 1.383 . S
C157 C155 1.365 . S
C157 H166 0.931 . S
C158 C153 1.370 . S
C158 C154 1.395 . S
C158 H167 0.930 . S
C159 Gd95 2.805 . S
C159 O135 1.263 . S
C159 O136 1.252 . S
C159 C153 1.500 . S
H160 C143 0.929 1_545 S
H161 C144 0.930 1_545 S
H162 C145 0.931 . S
H163 C146 0.930 . S
H164 C155 0.929 . S
H165 C156 0.930 . S
H166 C157 0.931 . S
H167 C158 0.930 . S
Zn168 O174 1.920 . S
Zn168 O180 1.898 . S
Zn168 O183 1.905 . S
Zn169 O177 1.905 . S
Zn169 O178 1.898 . S
Zn169 O186 1.920 . S
Zn170 O173 2.080 . S
Zn170 O176 2.114 . S
Zn170 O179 2.120 . S
Zn170 O181 2.120 . S
Zn170 O182 2.114 . S
Zn170 O185 2.080 . S
C171 O176 1.166 . S
C171 O177 1.182 . S
C172 O178 1.167 . S
C172 O179 1.299 . S
O173 Zn170 2.080 . S
O173 C187 1.305 . S
O174 Zn168 1.920 . S
O174 C187 1.234 . S
C175 O180 1.167 . S
C175 O181 1.299 . S
O176 Zn170 2.114 . S
O176 C171 1.166 . S
O177 Zn169 1.905 . S
O177 C171 1.182 . S
O178 Zn169 1.898 . S
O178 C172 1.167 . S
O179 Zn170 2.120 . S
O179 C172 1.299 . S
O180 Zn168 1.898 . S
O180 C175 1.167 . S
O181 Zn170 2.120 . S
O181 C175 1.299 . S
O182 Zn170 2.114 . S
O182 C184 1.166 . S
O183 Zn168 1.905 . S
O183 C184 1.182 . S
C184 O182 1.166 . S
C184 O183 1.182 . S
O185 Zn170 2.080 . S
O185 C188 1.305 . S
O186 Zn169 1.920 . S
O186 C188 1.234 . S
C187 O173 1.305 . S
C187 O174 1.234 . S
C188 O185 1.305 . S
C188 O186 1.234 . S
Zn189 O195 1.920 . S
Zn189 O201 1.898 . S
Zn189 O204 1.905 . S
Zn190 O198 1.905 . S
Zn190 O199 1.898 . S
Zn190 O207 1.920 . S
Zn191 O194 2.080 . S
Zn191 O197 2.114 . S
Zn191 O200 2.120 . S
Zn191 O202 2.120 . S
Zn191 O203 2.114 . S
Zn191 O206 2.080 . S
C192 O197 1.166 . S
C192 O198 1.182 . S
C193 O199 1.167 . S
C193 O200 1.299 . S
O194 Zn191 2.080 . S
O194 C208 1.305 . S
O195 Zn189 1.920 . S
O195 C208 1.234 . S
C196 O201 1.167 . S
C196 O202 1.299 . S
O197 Zn191 2.114 . S
O197 C192 1.166 . S
O198 Zn190 1.905 . S
O198 C192 1.182 . S
O199 Zn190 1.898 . S
O199 C193 1.167 . S
O200 Zn191 2.120 . S
O200 C193 1.299 . S
O201 Zn189 1.898 . S
O201 C196 1.167 . S
O202 Zn191 2.120 . S
O202 C196 1.299 . S
O203 Zn191 2.114 . S
O203 C205 1.166 . S
O204 Zn189 1.905 . S
O204 C205 1.182 . S
C205 O203 1.166 . S
C205 O204 1.182 . S
O206 Zn191 2.080 . S
O206 C209 1.305 . S
O207 Zn190 1.920 . S
O207 C209 1.234 . S
C208 O194 1.305 . S
C208 O195 1.234 . S
C209 O206 1.305 . S
C209 O207 1.234 . S
H210 C218 0.950 . S
H211 C223 0.950 . S
H212 C220 0.950 . S
H213 C222 0.950 . S
H214 C224 0.950 . S
H215 C226 0.950 . S
H216 C228 0.950 . S
H217 C229 0.950 . S
C218 H210 0.950 . S
C218 C219 1.386 . S
C218 C220 1.391 . S
C219 C218 1.386 . S
C219 C223 1.393 . S
C220 H212 0.950 . S
C220 C218 1.391 . S
C220 C221 1.400 . S
C221 C220 1.400 . S
C221 C222 1.398 . S
C221 C227 1.491 . S
C222 H213 0.950 . S
C222 C221 1.398 . S
C222 C223 1.391 . S
C223 H211 0.950 . S
C223 C219 1.393 . S
C223 C222 1.391 . S
C224 H214 0.950 . S
C224 C225 1.386 . S
C224 C226 1.391 . S
C225 C224 1.386 . S
C225 C229 1.393 . S
C226 H215 0.950 . S
C226 C224 1.391 . S
C226 C227 1.400 . S
C227 C221 1.491 . S
C227 C226 1.400 . S
C227 C228 1.398 . S
C228 H216 0.950 . S
C228 C227 1.398 . S
C228 C229 1.391 . S
C229 H217 0.950 . S
C229 C225 1.393 . S
C229 C228 1.391 . S
H230 C238 0.950 . S
H231 C243 0.950 . S
H232 C240 0.950 . S
H233 C242 0.950 . S
H234 C244 0.950 . S
H235 C246 0.950 . S
H236 C248 0.950 . S
H237 C249 0.950 . S
C238 H230 0.950 . S
C238 C239 1.386 . S
C238 C240 1.391 . S
C239 C238 1.386 . S
C239 C243 1.393 . S
C240 H232 0.950 . S
C240 C238 1.391 . S
C240 C241 1.400 . S
C241 C240 1.400 . S
C241 C242 1.398 . S
C241 C247 1.491 . S
C242 H233 0.950 . S
C242 C241 1.398 . S
C242 C243 1.391 . S
C243 H231 0.950 . S
C243 C239 1.393 . S
C243 C242 1.391 . S
C244 H234 0.950 . S
C244 C245 1.386 . S
C244 C246 1.391 . S
C245 C244 1.386 . S
C245 C249 1.393 . S
C246 H235 0.950 . S
C246 C244 1.391 . S
C246 C247 1.400 . S
C247 C241 1.491 . S
C247 C246 1.400 . S
C247 C248 1.398 . S
C248 H236 0.950 . S
C248 C247 1.398 . S
C248 C249 1.391 . S
C249 H237 0.950 . S
C249 C245 1.393 . S
C249 C248 1.391 . S
H250 C258 0.950 . S
H251 C263 0.950 . S
H252 C260 0.950 . S
H253 C262 0.950 . S
H254 C264 0.950 . S
H255 C266 0.950 . S
H256 C268 0.950 . S
H257 C269 0.950 . S
C258 H250 0.950 . S
C258 C259 1.386 . S
C258 C260 1.391 . S
C259 C258 1.386 . S
C259 C263 1.393 . S
C260 H252 0.950 . S
C260 C258 1.391 . S
C260 C261 1.400 . S
C261 C260 1.400 . S
C261 C262 1.398 . S
C261 C267 1.491 . S
C262 H253 0.950 . S
C262 C261 1.398 . S
C262 C263 1.391 . S
C263 H251 0.950 . S
C263 C259 1.393 . S
C263 C262 1.391 . S
C264 H254 0.950 . S
C264 C265 1.386 . S
C264 C266 1.391 . S
C265 C264 1.386 . S
C265 C269 1.393 . S
C266 H255 0.950 . S
C266 C264 1.391 . S
C266 C267 1.400 . S
C267 C261 1.491 . S
C267 C266 1.400 . S
C267 C268 1.398 . S
C268 H256 0.950 . S
C268 C267 1.398 . S
C268 C269 1.391 . S
C269 H257 0.950 . S
C269 C265 1.393 . S
C269 C268 1.391 . S
H270 C278 0.950 . S
H271 C283 0.950 . S
H272 C280 0.950 . S
H273 C282 0.950 . S
H274 C284 0.950 . S
H275 C286 0.950 . S
H276 C288 0.950 . S
H277 C289 0.950 . S
C278 H270 0.950 . S
C278 C279 1.386 . S
C278 C280 1.391 . S
C279 C278 1.386 . S
C279 C283 1.393 . S
C280 H272 0.950 . S
C280 C278 1.391 . S
C280 C281 1.400 . S
C281 C280 1.400 . S
C281 C282 1.398 . S
C281 C287 1.491 . S
C282 H273 0.950 . S
C282 C281 1.398 . S
C282 C283 1.391 . S
C283 H271 0.950 . S
C283 C279 1.393 . S
C283 C282 1.391 . S
C284 H274 0.950 . S
C284 C285 1.386 . S
C284 C286 1.391 . S
C285 C284 1.386 . S
C285 C289 1.393 . S
C286 H275 0.950 . S
C286 C284 1.391 . S
C286 C287 1.400 . S
C287 C281 1.491 . S
C287 C286 1.400 . S
C287 C288 1.398 . S
C288 H276 0.950 . S
C288 C287 1.398 . S
C288 C289 1.391 . S
C289 H277 0.950 . S
C289 C285 1.393 . S
C289 C288 1.391 . S
H290 C298 0.950 . S
H291 C303 0.950 1_545 S
H292 C300 0.950 . S
H293 C302 0.950 . S
H294 C304 0.950 . S
H295 C306 0.950 . S
H296 C308 0.950 . S
H297 C309 0.950 . S
C298 H290 0.950 . S
C298 C299 1.386 . S
C298 C300 1.391 . S
C299 C298 1.386 . S
C299 C303 1.393 . S
C300 H292 0.950 . S
C300 C298 1.391 . S
C300 C301 1.400 . S
C301 C300 1.400 . S
C301 C302 1.398 . S
C301 C307 1.491 . S
C302 H293 0.950 . S
C302 C301 1.398 . S
C302 C303 1.391 . S
C303 H291 0.950 1_565 S
C303 C299 1.393 . S
C303 C302 1.391 . S
C304 H294 0.950 . S
C304 C305 1.386 . S
C304 C306 1.391 . S
C305 C304 1.386 . S
C305 C309 1.393 . S
C306 H295 0.950 . S
C306 C304 1.391 . S
C306 C307 1.400 . S
C307 C301 1.491 . S
C307 C306 1.400 . S
C307 C308 1.398 . S
C308 H296 0.950 . S
C308 C307 1.398 . S
C308 C309 1.391 . S
C309 H297 0.950 . S
C309 C305 1.393 . S
C309 C308 1.391 . S
H310 C318 0.950 . S
H311 C323 0.950 . S
H312 C320 0.950 . S
H313 C322 0.950 . S
H314 C324 0.950 . S
H315 C326 0.950 . S
H316 C328 0.950 . S
H317 C329 0.950 . S
C318 H310 0.950 . S
C318 C319 1.386 . S
C318 C320 1.391 . S
C319 C318 1.386 . S
C319 C323 1.393 . S
C320 H312 0.950 . S
C320 C318 1.391 . S
C320 C321 1.400 . S
C321 C320 1.400 . S
C321 C322 1.398 . S
C321 C327 1.491 . S
C322 H313 0.950 . S
C322 C321 1.398 . S
C322 C323 1.391 . S
C323 H311 0.950 . S
C323 C319 1.393 . S
C323 C322 1.391 . S
C324 H314 0.950 . S
C324 C325 1.386 . S
C324 C326 1.391 . S
C325 C324 1.386 . S
C325 C329 1.393 . S
C326 H315 0.950 . S
C326 C324 1.391 . S
C326 C327 1.400 . S
C327 C321 1.491 . S
C327 C326 1.400 . S
C327 C328 1.398 . S
C328 H316 0.950 . S
C328 C327 1.398 . S
C328 C329 1.391 . S
C329 H317 0.950 . S
C329 C325 1.393 . S
C329 C328 1.391 . S
H330 C338 0.950 . S
H331 C343 0.950 . S
H332 C340 0.950 . S
H333 C342 0.950 . S
H334 C344 0.950 . S
H335 C346 0.950 . S
H336 C348 0.950 . S
H337 C349 0.950 . S
C338 H330 0.950 . S
C338 C339 1.386 . S
C338 C340 1.391 . S
C339 C338 1.386 . S
C339 C343 1.393 . S
C340 H332 0.950 . S
C340 C338 1.391 . S
C340 C341 1.400 . S
C341 C340 1.400 . S
C341 C342 1.398 . S
C341 C347 1.491 . S
C342 H333 0.950 . S
C342 C341 1.398 . S
C342 C343 1.391 . S
C343 H331 0.950 . S
C343 C339 1.393 . S
C343 C342 1.391 . S
C344 H334 0.950 . S
C344 C345 1.386 . S
C344 C346 1.391 . S
C345 C344 1.386 . S
C345 C349 1.393 . S
C346 H335 0.950 . S
C346 C344 1.391 . S
C346 C347 1.400 . S
C347 C341 1.491 . S
C347 C346 1.400 . S
C347 C348 1.398 . S
C348 H336 0.950 . S
C348 C347 1.398 . S
C348 C349 1.391 . S
C349 H337 0.950 . S
C349 C345 1.393 . S
C349 C348 1.391 . S
H350 C358 0.950 . S
H351 C363 0.950 . S
H352 C360 0.950 . S
H353 C362 0.950 . S
H354 C364 0.950 . S
H355 C366 0.950 . S
H356 C368 0.950 . S
H357 C369 0.950 . S
C358 H350 0.950 . S
C358 C359 1.386 . S
C358 C360 1.391 . S
C359 C358 1.386 . S
C359 C363 1.393 . S
C360 H352 0.950 . S
C360 C358 1.391 . S
C360 C361 1.400 . S
C361 C360 1.400 . S
C361 C362 1.398 . S
C361 C367 1.491 . S
C362 H353 0.950 . S
C362 C361 1.398 . S
C362 C363 1.391 . S
C363 H351 0.950 . S
C363 C359 1.393 . S
C363 C362 1.391 . S
C364 H354 0.950 . S
C364 C365 1.386 . S
C364 C366 1.391 . S
C365 C364 1.386 . S
C365 C369 1.393 . S
C366 H355 0.950 . S
C366 C364 1.391 . S
C366 C367 1.400 . S
C367 C361 1.491 . S
C367 C366 1.400 . S
C367 C368 1.398 . S
C368 H356 0.950 . S
C368 C367 1.398 . S
C368 C369 1.391 . S
C369 H357 0.950 . S
C369 C365 1.393 . S
C369 C368 1.391 . S
H370 C378 0.950 . S
H371 C383 0.950 . S
H372 C380 0.950 . S
H373 C382 0.950 . S
H374 C384 0.950 . S
H375 C386 0.950 . S
H376 C388 0.950 . S
H377 C389 0.950 . S
C378 H370 0.950 . S
C378 C379 1.386 . S
C378 C380 1.391 . S
C379 C378 1.386 . S
C379 C383 1.393 . S
C380 H372 0.950 . S
C380 C378 1.391 . S
C380 C381 1.400 . S
C381 C380 1.400 . S
C381 C382 1.398 . S
C381 C387 1.491 . S
C382 H373 0.950 . S
C382 C381 1.398 . S
C382 C383 1.391 . S
C383 H371 0.950 . S
C383 C379 1.393 . S
C383 C382 1.391 . S
C384 H374 0.950 . S
C384 C385 1.386 . S
C384 C386 1.391 . S
C385 C384 1.386 . S
C385 C389 1.393 . S
C386 H375 0.950 . S
C386 C384 1.391 . S
C386 C387 1.400 . S
C387 C381 1.491 . S
C387 C386 1.400 . S
C387 C388 1.398 . S
C388 H376 0.950 . S
C388 C387 1.398 . S
C388 C389 1.391 . S
C389 H377 0.950 . S
C389 C385 1.393 . S
C389 C388 1.391 . S
H390 C398 0.950 . S
H391 C403 0.950 . S
H392 C400 0.950 . S
H393 C402 0.950 . S
H394 C404 0.950 . S
H395 C406 0.950 . S
H396 C408 0.950 . S
H397 C409 0.950 . S
C398 H390 0.950 . S
C398 C399 1.386 . S
C398 C400 1.391 . S
C399 C398 1.386 . S
C399 C403 1.393 . S
C400 H392 0.950 . S
C400 C398 1.391 . S
C400 C401 1.400 . S
C401 C400 1.400 . S
C401 C402 1.398 . S
C401 C407 1.491 . S
C402 H393 0.950 . S
C402 C401 1.398 . S
C402 C403 1.391 . S
C403 H391 0.950 . S
C403 C399 1.393 . S
C403 C402 1.391 . S
C404 H394 0.950 . S
C404 C405 1.386 . S
C404 C406 1.391 . S
C405 C404 1.386 . S
C405 C409 1.393 . S
C406 H395 0.950 . S
C406 C404 1.391 . S
C406 C407 1.400 . S
C407 C401 1.491 . S
C407 C406 1.400 . S
C407 C408 1.398 . S
C408 H396 0.950 . S
C408 C407 1.398 . S
C408 C409 1.391 . S
C409 H397 0.950 . S
C409 C405 1.393 . S
C409 C408 1.391 . S
H410 C418 0.950 . S
H411 C423 0.950 . S
H412 C420 0.950 . S
H413 C422 0.950 . S
H414 C424 0.950 . S
H415 C426 0.950 . S
H416 C428 0.950 . S
H417 C429 0.950 . S
C418 H410 0.950 . S
C418 C419 1.386 . S
C418 C420 1.391 . S
C419 C418 1.386 . S
C419 C423 1.393 . S
C420 H412 0.950 . S
C420 C418 1.391 . S
C420 C421 1.400 . S
C421 C420 1.400 . S
C421 C422 1.398 . S
C421 C427 1.491 . S
C422 H413 0.950 . S
C422 C421 1.398 . S
C422 C423 1.391 . S
C423 H411 0.950 . S
C423 C419 1.393 . S
C423 C422 1.391 . S
C424 H414 0.950 . S
C424 C425 1.386 . S
C424 C426 1.391 . S
C425 C424 1.386 . S
C425 C429 1.393 . S
C426 H415 0.950 . S
C426 C424 1.391 . S
C426 C427 1.400 . S
C427 C421 1.491 . S
C427 C426 1.400 . S
C427 C428 1.398 . S
C428 H416 0.950 . S
C428 C427 1.398 . S
C428 C429 1.391 . S
C429 H417 0.950 . S
C429 C425 1.393 . S
C429 C428 1.391 . S
H430 C438 0.950 1_455 S
H431 C443 0.950 . S
H432 C440 0.950 . S
H433 C442 0.950 . S
H434 C444 0.950 . S
H435 C446 0.950 . S
H436 C448 0.950 . S
H437 C449 0.950 . S
C438 H430 0.950 1_655 S
C438 C439 1.386 . S
C438 C440 1.391 . S
C439 C438 1.386 . S
C439 C443 1.393 . S
C440 H432 0.950 . S
C440 C438 1.391 . S
C440 C441 1.400 . S
C441 C440 1.400 . S
C441 C442 1.398 . S
C441 C447 1.491 . S
C442 H433 0.950 . S
C442 C441 1.398 . S
C442 C443 1.391 . S
C443 H431 0.950 . S
C443 C439 1.393 . S
C443 C442 1.391 . S
C444 H434 0.950 . S
C444 C445 1.386 . S
C444 C446 1.391 . S
C445 C444 1.386 . S
C445 C449 1.393 . S
C446 H435 0.950 . S
C446 C444 1.391 . S
C446 C447 1.400 . S
C447 C441 1.491 . S
C447 C446 1.400 . S
C447 C448 1.398 . S
C448 H436 0.950 . S
C448 C447 1.398 . S
C448 C449 1.391 . S
C449 H437 0.950 . S
C449 C445 1.393 . S
C449 C448 1.391 . S
C219 C58 1.153 . S
C225 C187 1.254 . S
C239 C139 1.540 . S
C245 C193 1.383 . S
C259 C67 1.616 . S
C265 C184 1.477 . S
C279 C154 1.210 . S
C285 C209 1.253 . S
C299 C56 1.596 . S
C305 C175 1.432 . S
C325 C192 1.542 . S
C319 C152 1.636 . S
C339 C142 1.149 . S
C345 C188 1.250 . S
C365 C205 1.518 . S
C359 C68 1.616 . S
C385 C172 1.440 . S
C379 C140 1.604 . S
C405 C208 1.262 . S
C399 C70 1.229 . S
C425 C171 1.490 . S
C419 C151 1.619 . S
C445 C196 1.412 . S
C439 C55 1.548 . S
