# Generated by pormake.
# Topology pth, (4,4)-cn, num edge types: 1
# Building blocks:
#     Node 0, Type 0, BuildingBlock: GALJAG_clean_sbu_0, # of connection points: 4
#     Node 1, Type 0, BuildingBlock: GALJAG_clean_sbu_0, # of connection points: 4
#     Node 2, Type 0, BuildingBlock: GALJAG_clean_sbu_0, # of connection points: 4
#     Node 3, Type 1, BuildingBlock: KOZSID_clean_sbu_0, # of connection points: 4
#     Node 4, Type 1, BuildingBlock: KOZSID_clean_sbu_0, # of connection points: 4
#     Node 5, Type 1, BuildingBlock: KOZSID_clean_sbu_0, # of connection points: 4
#     Edge 6, Type (0, 1), BuildingBlock: XUDNAN_clean_linker_2, # of connection points: 2
#     Edge 7, Type (0, 1), BuildingBlock: XUDNAN_clean_linker_2, # of connection points: 2
#     Edge 8, Type (0, 1), BuildingBlock: XUDNAN_clean_linker_2, # of connection points: 2
#     Edge 9, Type (0, 1), BuildingBlock: XUDNAN_clean_linker_2, # of connection points: 2
#     Edge 10, Type (0, 1), BuildingBlock: XUDNAN_clean_linker_2, # of connection points: 2
#     Edge 11, Type (0, 1), BuildingBlock: XUDNAN_clean_linker_2, # of connection points: 2
#     Edge 12, Type (0, 1), BuildingBlock: XUDNAN_clean_linker_2, # of connection points: 2
#     Edge 13, Type (0, 1), BuildingBlock: XUDNAN_clean_linker_2, # of connection points: 2
#     Edge 14, Type (0, 1), BuildingBlock: XUDNAN_clean_linker_2, # of connection points: 2
#     Edge 15, Type (0, 1), BuildingBlock: XUDNAN_clean_linker_2, # of connection points: 2
#     Edge 16, Type (0, 1), BuildingBlock: XUDNAN_clean_linker_2, # of connection points: 2
#     Edge 17, Type (0, 1), BuildingBlock: XUDNAN_clean_linker_2, # of connection points: 2
# Relax obj value: 0.002
# Max RMSD: 0.043
# Mean RMSD: 0.025
data_MOF--net-pth--node1-GALJAG_clean_sbu_0--node2-KOZSID_clean_sbu_0--edge1-XUDNAN_clean_linker_2
_symmetry_space_group_name_H-M    P1
_symmetry_Int_Tables_number       1
_symmetry_cell_setting            triclinic
loop_
_symmetry_equiv_pos_as_xyz
'x, y, z'
_cell_length_a     26.942345
_cell_length_b     26.971305
_cell_length_c     58.598608
_cell_angle_alpha  87.600304
_cell_angle_beta   87.545748
_cell_angle_gamma 119.9254
loop_
_atom_site_label
_atom_site_type_symbol
_atom_site_fract_x
_atom_site_fract_y
_atom_site_fract_z
_atom_type_partial_charge
In0 In 0.06851 0.0491 0.04211 0.0
O1 O 0.01016 0.06436 0.06712 0.0
O2 O 0.09704 0.13034 0.06136 0.0
C3 C 0.9778 0.9824 0.01752 0.0
C4 C 0.15306 0.12512 0.01089 0.0
C5 C 0.09055 0.974 0.06571 0.0
O6 O 0.9909 0.0327 0.02204 0.0
O7 O 0.00987 0.96551 0.02559 0.0
O8 O 0.11147 0.9945 0.04559 0.0
O9 O 0.06029 0.99307 0.07436 0.0
C10 C 0.04864 0.11382 0.07154 0.0
O11 O 0.16311 0.11621 0.03104 0.0
O12 O 0.1013 0.09495 0.00651 0.0
In13 In 0.03885 0.06587 0.37628 0.0
O14 O 0.07584 0.1607 0.36282 0.0
O15 O 0.01542 0.09414 0.34376 0.0
C16 C 0.10543 0.06217 0.40881 0.0
C17 C 0.94278 0.04974 0.39978 0.0
C18 C 0.05683 0.99832 0.34835 0.0
O19 O 0.12367 0.10479 0.39428 0.0
O20 O 0.05407 0.02347 0.40717 0.0
O21 O 0.01059 0.97924 0.36087 0.0
O22 O 0.09286 0.05056 0.35007 0.0
C23 C 0.04676 0.14729 0.34537 0.0
O24 O 0.94163 0.01668 0.38485 0.0
O25 O 0.99235 0.0898 0.40326 0.0
In26 In 0.06725 0.05858 0.70991 0.0
O27 O 1.00229 0.96757 0.72528 0.0
O28 O 0.0127 0.03794 0.74367 0.0
C29 C 0.14145 0.03506 0.6861 0.0
C30 C 0.99952 0.07338 0.68062 0.0
C31 C 0.1426 0.15059 0.73174 0.0
O32 O 0.12209 0.01563 0.70642 0.0
O33 O 0.1213 0.06403 0.67731 0.0
O34 O 0.10976 0.15331 0.71764 0.0
O35 O 0.13651 0.10135 0.73522 0.0
C36 C 0.98738 0.98417 0.74278 0.0
O37 O 0.0462 0.11421 0.68637 0.0
O38 O 0.98691 0.02468 0.68948 0.0
C39 C 0.1271 0.66011 0.17075 0.0
C40 C 0.18207 0.6993 0.16137 0.0
C41 C 0.21909 0.68825 0.17263 0.0
C42 C 0.18503 0.64353 0.18832 0.0
N43 N 0.12828 0.62493 0.18773 0.0
Co44 Co 0.06441 0.56343 0.20877 0.0
N45 N 0.11979 0.5505 0.22646 0.0
C46 C 0.17771 0.57939 0.22302 0.0
C47 C 0.2042 0.55932 0.23702 0.0
C48 C 0.16062 0.51415 0.24996 0.0
C49 C 0.10978 0.50942 0.24312 0.0
N50 N 1.00061 0.5015 0.22963 0.0
C51 C 1.00196 0.46474 0.2458 0.0
C52 C 0.94752 0.42628 0.25573 0.0
C53 C 0.91021 0.43819 0.24508 0.0
C54 C 0.94387 0.48317 0.22936 0.0
N55 N 0.00908 0.57688 0.19127 0.0
C56 C 0.95124 0.5492 0.19524 0.0
C57 C 0.92468 0.56825 0.18079 0.0
C58 C 0.96809 0.61126 0.16692 0.0
C59 C 0.01897 0.61625 0.17383 0.0
N60 N 0.05723 0.50416 0.18787 0.0
C61 C 0.04367 0.41104 0.16293 0.0
C62 C 0.99696 0.41826 0.16891 0.0
C63 C 1.00456 0.46437 0.18128 0.0
C64 C 0.09797 0.4533 0.16864 0.0
C65 C 0.10378 0.49937 0.18083 0.0
N66 N 0.07125 0.62249 0.22977 0.0
C67 C 0.02772 0.66799 0.25107 0.0
C68 C 0.0815 0.71254 0.25596 0.0
C69 C 0.12987 0.70963 0.24834 0.0
C70 C 0.12384 0.66483 0.23538 0.0
C71 C 0.02363 0.62368 0.23824 0.0
H72 H 0.16251 0.66596 0.22982 0.0
H73 H 0.9814 0.59155 0.23505 0.0
H74 H 0.96685 0.46619 0.18571 0.0
H75 H 0.14616 0.5299 0.18482 0.0
C76 C 0.20551 0.62135 0.205 0.0
C77 C 0.07552 0.6596 0.16351 0.0
C78 C 0.05309 0.46258 0.2515 0.0
C79 C 0.92326 0.50633 0.21305 0.0
H80 H 0.19457 0.73345 0.14817 0.0
H81 H 0.2655 0.71139 0.1702 0.0
H82 H 0.24965 0.57409 0.23708 0.0
H83 H 0.16593 0.48669 0.26238 0.0
H84 H 0.93599 0.39218 0.26889 0.0
H85 H 0.86388 0.41549 0.24791 0.0
H86 H 0.87919 0.55316 0.18056 0.0
H87 H 0.96285 0.63648 0.1534 0.0
H88 H 0.95421 0.38813 0.16427 0.0
H89 H 0.13577 0.45016 0.1644 0.0
H90 H 0.98876 0.66798 0.25645 0.0
H91 H 0.17255 0.74205 0.25217 0.0
C92 C 0.4524 0.99571 0.58172 0.0
C93 C 0.41293 0.94219 0.59224 0.0
C94 C 0.42224 0.90301 0.58188 0.0
C95 C 0.46628 0.93445 0.56557 0.0
N96 N 0.486 0.99151 0.56486 0.0
Co97 Co 0.54769 0.05209 0.54279 0.0
N98 N 0.55649 0.99323 0.52593 0.0
C99 C 0.52629 0.93568 0.53056 0.0
C100 C 0.54314 0.90613 0.51684 0.0
C101 C 0.58691 0.94714 0.50255 0.0
C102 C 0.594 0.9997 0.50827 0.0
N103 N 0.61054 0.11273 0.5211 0.0
C104 C 0.64347 0.10815 0.50401 0.0
C105 C 0.68361 0.16149 0.49364 0.0
C106 C 0.67656 0.20121 0.50478 0.0
C107 C 0.63257 0.17008 0.52121 0.0
N108 N 0.5374 0.11069 0.55925 0.0
C109 C 0.56652 0.16816 0.55428 0.0
C110 C 0.54882 0.19731 0.5679 0.0
C111 C 0.50513 0.15601 0.58224 0.0
C112 C 0.49856 0.10376 0.57647 0.0
N113 N 0.60717 0.05892 0.56362 0.0
C114 C 0.70012 0.0724 0.58877 0.0
C115 C 0.69218 0.11878 0.58321 0.0
C116 C 0.64626 0.11125 0.57071 0.0
C117 C 0.65854 0.01835 0.58261 0.0
C118 C 0.61253 0.01255 0.57035 0.0
N119 N 0.48852 0.04576 0.52201 0.0
C120 C 0.44601 0.09112 0.49993 0.0
C121 C 0.39687 0.03821 0.49766 0.0
C122 C 0.39617 0.98888 0.50663 0.0
C123 C 0.44204 0.99357 0.51858 0.0
C124 C 0.49104 0.09384 0.5119 0.0
H125 H 0.43844 0.95447 0.5253 0.0
H126 H 0.52677 0.13554 0.51325 0.0
H127 H 0.64404 0.14884 0.5667 0.0
H128 H 0.5825 0.97028 0.56614 0.0
C129 C 0.48589 0.91101 0.54922 0.0
C130 C 0.45477 0.04882 0.58784 0.0
C131 C 0.63832 0.05449 0.49696 0.0
C132 C 0.61046 0.19336 0.53675 0.0
H133 H 0.37968 0.93203 0.60563 0.0
H134 H 0.39827 0.85686 0.58525 0.0
H135 H 0.52687 0.86035 0.51767 0.0
H136 H 0.61167 0.93903 0.48978 0.0
H137 H 0.7149 0.17079 0.47951 0.0
H138 H 0.70069 0.24734 0.50134 0.0
H139 H 0.56545 0.24312 0.56737 0.0
H140 H 0.48067 0.16352 0.59538 0.0
H141 H 0.72163 0.16129 0.58826 0.0
H142 H 0.66216 0.98076 0.58657 0.0
H143 H 0.44907 0.1307 0.49329 0.0
H144 H 0.36 0.94662 0.50474 0.0
C145 C 0.67699 0.61658 0.84606 0.0
C146 C 0.72186 0.60915 0.83796 0.0
C147 C 0.70836 0.55486 0.8456 0.0
C148 C 0.65647 0.5324 0.85804 0.0
N149 N 0.63636 0.56909 0.85869 0.0
Co150 Co 0.56448 0.55509 0.87576 0.0
N151 N 0.55827 0.48882 0.89482 0.0
C152 C 0.58872 0.46242 0.89075 0.0
C153 C 0.5745 0.41682 0.90613 0.0
C154 C 0.53145 0.41326 0.92059 0.0
C155 C 0.52168 0.45705 0.91318 0.0
N156 N 0.49191 0.54079 0.89242 0.0
C157 C 0.46136 0.50496 0.91103 0.0
C158 C 0.41261 0.5084 0.9167 0.0
C159 C 0.41132 0.54576 0.90057 0.0
C160 C 0.45941 0.56348 0.88611 0.0
N161 N 0.57123 0.62161 0.85696 0.0
C162 C 0.52923 0.63395 0.85401 0.0
C163 C 0.54699 0.68305 0.84016 0.0
C164 C 0.60382 0.7029 0.83402 0.0
C165 C 0.61749 0.66472 0.8446 0.0
N166 N 0.51915 0.50347 0.85264 0.0
C167 C 0.44592 0.43571 0.8201 0.0
C168 C 0.49587 0.48788 0.81333 0.0
C169 C 0.53219 0.52072 0.82981 0.0
C170 C 0.43506 0.417 0.84334 0.0
C171 C 0.472 0.45137 0.85922 0.0
N172 N 0.60996 0.60764 0.89854 0.0
C173 C 0.63183 0.69028 0.91946 0.0
C174 C 0.68376 0.69507 0.92558 0.0
C175 C 0.696 0.65262 0.91894 0.0
C176 C 0.65833 0.60906 0.90567 0.0
C177 C 0.59614 0.64698 0.90586 0.0
H178 H 0.66957 0.57787 0.90048 0.0
H179 H 0.55827 0.64678 0.90065 0.0
H180 H 0.57003 0.56083 0.82409 0.0
H181 H 0.46122 0.43622 0.87687 0.0
C182 C 0.63209 0.48325 0.87304 0.0
C183 C 0.67358 0.66863 0.84138 0.0
C184 C 0.47083 0.45997 0.9213 0.0
C185 C 0.47778 0.60484 0.8677 0.0
H186 H 0.76088 0.63986 0.82802 0.0
H187 H 0.73496 0.53552 0.84352 0.0
H188 H 0.59275 0.38903 0.90662 0.0
H189 H 0.50812 0.38041 0.93433 0.0
H190 H 0.37993 0.48417 0.93044 0.0
H191 H 0.3791 0.5584 0.89949 0.0
H192 H 0.52236 0.7034 0.83586 0.0
H193 H 0.63196 0.74102 0.82303 0.0
H194 H 0.50654 0.50353 0.79547 0.0
H195 H 0.39695 0.37709 0.84942 0.0
H196 H 0.61897 0.72047 0.92473 0.0
H197 H 0.73537 0.654 0.92316 0.0
H198 H 0.11926 0.22808 0.07777 0.0
H199 H 0.95357 0.08094 0.10056 0.0
H200 H 0.93527 0.14058 0.12671 0.0
H201 H 0.15421 0.29042 0.13223 0.0
H202 H 0.18698 0.36331 0.12009 0.0
H203 H 0.18776 0.30892 0.1035 0.0
H204 H 0.13916 0.33355 0.07121 0.0
H205 H 0.13837 0.38809 0.08767 0.0
H206 H 0.07246 0.33206 0.07787 0.0
H207 H 0.93573 0.21549 0.15084 0.0
H208 H 0.95233 0.30119 0.17009 0.0
H209 H 0.11566 0.40189 0.13011 0.0
C210 C 0.07923 0.20837 0.08834 0.0
C211 C 0.0379 0.14972 0.08723 0.0
C212 C 0.98583 0.1257 0.10116 0.0
C213 C 0.97511 0.15922 0.11608 0.0
C214 C 0.0167 0.21685 0.11677 0.0
C215 C 0.06757 0.2414 0.10317 0.0
C216 C 0.10441 0.30474 0.1068 0.0
C217 C 0.16173 0.31758 0.11622 0.0
C218 C 0.11415 0.34179 0.08456 0.0
C219 C 0.06637 0.31191 0.12463 0.0
C220 C 0.01617 0.26057 0.13019 0.0
C221 C 0.97462 0.25607 0.14643 0.0
C222 C 0.98433 0.30534 0.15715 0.0
C223 C 0.03499 0.35898 0.15149 0.0
C224 C 0.0766 0.36182 0.13502 0.0
H225 H 0.93235 0.09263 0.44026 0.0
H226 H 0.8346 0.99524 0.38512 0.0
H227 H 0.74761 0.99133 0.40283 0.0
H228 H 0.81949 0.01326 0.48501 0.0
H229 H 0.83761 0.07506 0.50097 0.0
H230 H 0.89247 0.07207 0.48344 0.0
H231 H 0.91787 0.1686 0.4619 0.0
H232 H 0.86258 0.1715 0.47921 0.0
H233 H 0.86249 0.17552 0.44843 0.0
H234 H 0.67221 1.00108 0.42574 0.0
H235 H 0.61016 0.0121 0.45511 0.0
H236 H 0.75458 0.09663 0.49689 0.0
C237 C 0.89257 0.07047 0.43195 0.0
C238 C 0.89015 0.04444 0.41125 0.0
C239 C 0.83729 0.0153 0.401 0.0
C240 C 0.7878 0.0132 0.41086 0.0
C241 C 0.7917 0.03979 0.43114 0.0
C242 C 0.84246 0.06699 0.44181 0.0
C243 C 0.83425 0.08947 0.46414 0.0
C244 C 0.84668 0.06073 0.4846 0.0
C245 C 0.87152 0.15518 0.46336 0.0
C246 C 0.77097 0.07069 0.46433 0.0
C247 C 0.74752 0.04295 0.44494 0.0
C248 C 0.69 0.02234 0.44107 0.0
C249 C 0.65517 0.02892 0.45774 0.0
C250 C 0.67768 0.05482 0.47819 0.0
C251 C 0.73651 0.07675 0.48135 0.0
H252 H 0.91182 0.86854 0.74125 0.0
H253 H 0.96352 0.00966 0.78498 0.0
H254 H 0.89024 0.94406 0.81512 0.0
H255 H 0.76036 0.80155 0.757 0.0
H256 H 0.74764 0.72945 0.75595 0.0
H257 H 0.80542 0.78704 0.73808 0.0
H258 H 0.8775 0.76127 0.75519 0.0
H259 H 0.81993 0.70369 0.77315 0.0
H260 H 0.88186 0.75834 0.78579 0.0
H261 H 0.8112 0.86304 0.84064 0.0
H262 H 0.73022 0.77254 0.85913 0.0
H263 H 0.72693 0.6852 0.79835 0.0
C264 C 0.90788 0.88552 0.75722 0.0
C265 C 0.94358 0.9442 0.76081 0.0
C266 C 0.93668 0.96489 0.78185 0.0
C267 C 0.89523 0.92793 0.79909 0.0
C268 C 0.8606 0.87039 0.79501 0.0
C269 C 0.86623 0.84929 0.77455 0.0
C270 C 0.82245 0.78597 0.77429 0.0
C271 C 0.78154 0.77541 0.7552 0.0
C272 C 0.85223 0.75022 0.77197 0.0
C273 C 0.79153 0.77477 0.7978 0.0
C274 C 0.8144 0.82397 0.80954 0.0
C275 C 0.79305 0.82424 0.83162 0.0
C276 C 0.74723 0.77284 0.84199 0.0
C277 C 0.72336 0.72205 0.83029 0.0
C278 C 0.74539 0.72329 0.80782 0.0
H279 H 0.05803 0.92918 0.11051 0.0
H280 H 0.13527 0.91265 0.04687 0.0
H281 H 0.13828 0.8298 0.06478 0.0
H282 H 0.14125 0.89299 0.14815 0.0
H283 H 0.08241 0.85429 0.16959 0.0
H284 H 0.08661 0.91258 0.15181 0.0
H285 H 0.98458 0.84484 0.13925 0.0
H286 H 0.9803 0.78624 0.15683 0.0
H287 H 0.96964 0.77929 0.12672 0.0
H288 H 0.12789 0.74538 0.08879 0.0
H289 H 0.11374 0.67084 0.11868 0.0
H290 H 0.04859 0.7448 0.16746 0.0
C291 C 0.07603 0.90841 0.10042 0.0
C292 C 0.09647 0.92743 0.07727 0.0
C293 C 0.11963 0.89906 0.06465 0.0
C294 C 0.12127 0.85176 0.07464 0.0
C295 C 0.10011 0.8336 0.09738 0.0
C296 C 0.07863 0.86144 0.11024 0.0
C297 C 0.05938 0.83357 0.13445 0.0
C298 C 0.09453 0.87588 0.15204 0.0
C299 C 0.99463 0.80957 0.1396 0.0
C300 C 0.07319 0.78563 0.13313 0.0
C301 C 0.09608 0.78609 0.1115 0.0
C302 C 0.11064 0.74501 0.10586 0.0
C303 C 0.10244 0.70288 0.12287 0.0
C304 C 0.08079 0.7027 0.14531 0.0
C305 C 0.06556 0.74436 0.15042 0.0
H306 H 0.22389 0.12173 0.40973 0.0
H307 H 0.06775 0.98553 0.44587 0.0
H308 H 0.12529 0.96647 0.47263 0.0
H309 H 0.30421 0.04971 0.41353 0.0
H310 H 0.37154 0.11292 0.41779 0.0
H311 H 0.31855 0.11914 0.40216 0.0
H312 H 0.31984 0.19192 0.42993 0.0
H313 H 0.37309 0.18613 0.44558 0.0
H314 H 0.30689 0.1725 0.46031 0.0
H315 H 0.19846 0.95927 0.49469 0.0
H316 H 0.2835 0.96531 0.51126 0.0
H317 H 0.3939 0.10376 0.46046 0.0
C318 C 0.20194 0.0886 0.42352 0.0
C319 C 0.14124 0.05535 0.4258 0.0
C320 C 0.11412 0.01166 0.44381 0.0
C321 C 0.14644 1.00047 0.45912 0.0
C322 C 0.20604 0.03318 0.45623 0.0
C323 C 0.23373 0.07648 0.43896 0.0
C324 C 0.29849 0.10364 0.43931 0.0
C325 C 0.32472 0.09586 0.41686 0.0
C326 C 0.3262 0.16733 0.44407 0.0
C327 C 0.30258 0.0685 0.45933 0.0
C328 C 0.24865 0.0283 0.46884 0.0
C329 C 0.24098 0.9905 0.48737 0.0
C330 C 0.28971 0.99391 0.49653 0.0
C331 C 0.34573 0.03461 0.48712 0.0
C332 C 0.3519 0.07241 0.46823 0.0
H333 H 0.21044 0.15283 0.76576 0.0
H334 H 0.17386 0.26297 0.72215 0.0
H335 H 0.24964 0.34811 0.7391 0.0
H336 H 0.23622 0.23359 0.81572 0.0
H337 H 0.29294 0.22138 0.82428 0.0
H338 H 0.23644 0.1694 0.80846 0.0
H339 H 0.31223 0.17662 0.77769 0.0
H340 H 0.36894 0.22886 0.79337 0.0
H341 H 0.36356 0.24568 0.76381 0.0
H342 H 0.33083 0.42143 0.76033 0.0
H343 H 0.40643 0.47699 0.78624 0.0
H344 H 0.38874 0.31891 0.81655 0.0
C345 C 0.2183 0.19486 0.75981 0.0
C346 C 0.18632 0.20133 0.7426 0.0
C347 C 0.19776 0.25702 0.73534 0.0
C348 C 0.24086 0.30563 0.7448 0.0
C349 C 0.27192 0.29781 0.76161 0.0
C350 C 0.26085 0.24379 0.7692 0.0
C351 C 0.29958 0.24708 0.78781 0.0
C352 C 0.26417 0.21603 0.8104 0.0
C353 C 0.33837 0.22314 0.7802 0.0
C354 C 0.3341 0.31138 0.78953 0.0
C355 C 0.31786 0.33991 0.77413 0.0
C356 C 0.34389 0.39953 0.77245 0.0
C357 C 0.3871 0.43076 0.78712 0.0
C358 C 0.40361 0.40237 0.80338 0.0
C359 C 0.37683 0.34184 0.8044 0.0
H360 H 0.88603 0.99927 0.67354 0.0
H361 H 0.02999 0.1681 0.65217 0.0
H362 H 0.96968 0.18464 0.62587 0.0
H363 H 0.82514 0.96505 0.61851 0.0
H364 H 0.75178 0.9301 0.6304 0.0
H365 H 0.80659 0.93028 0.64702 0.0
H366 H 0.77901 0.97576 0.6797 0.0
H367 H 0.72406 0.9756 0.6632 0.0
H368 H 0.77856 0.04158 0.67353 0.0
H369 H 0.89502 0.18263 0.60157 0.0
H370 H 0.80922 0.16502 0.58219 0.0
H371 H 0.71043 0.99978 0.62092 0.0
C372 C 0.90487 0.03952 0.66319 0.0
C373 C 0.96286 0.08232 0.66477 0.0
C374 C 0.98575 0.13474 0.65121 0.0
C375 C 0.95187 0.14447 0.63619 0.0
C376 C 0.89491 0.10157 0.63506 0.0
C377 C 0.87131 0.0503 0.64829 0.0
C378 C 0.80822 0.01235 0.64434 0.0
C379 C 0.79731 0.95612 0.63447 0.0
C380 C 0.77023 1.00066 0.66651 0.0
C381 C 0.80022 0.05029 0.62676 0.0
C382 C 0.85096 0.10133 0.62158 0.0
C383 C 0.85485 0.14309 0.60567 0.0
C384 C 0.8055 0.13279 0.59489 0.0
C385 C 0.75232 0.08136 0.6002 0.0
C386 C 0.75014 0.03945 0.6163 0.0
H387 H 0.9319 0.86791 0.0104 0.0
H388 H 0.91696 0.01715 0.99183 0.0
H389 H 0.84094 0.96 0.96636 0.0
H390 H 0.9099 0.81066 0.9552 0.0
H391 H 0.8679 0.73681 0.96626 0.0
H392 H 0.9211 0.7891 0.98316 0.0
H393 H 0.84379 0.76172 0.01655 0.0
H394 H 0.79042 0.70912 0.99981 0.0
H395 H 0.77947 0.76408 0.0114 0.0
H396 H 0.77029 0.88842 0.94156 0.0
H397 H 0.70446 0.80578 0.92104 0.0
H398 H 0.75948 0.69989 0.95751 0.0
C399 C 0.91246 0.88847 1.00102 0.0
C400 C 0.93044 0.9471 1.00306 0.0
C401 C 0.90382 0.97235 0.99058 0.0
C402 C 0.86071 0.94026 0.97602 0.0
C403 C 0.84426 0.88276 0.97426 0.0
C404 C 0.86882 0.85683 0.98658 0.0
C405 C 0.84251 0.79405 0.98178 0.0
C406 C 0.88808 0.78197 0.97095 0.0
C407 C 0.81224 0.75494 1.00369 0.0
C408 C 0.79958 0.78887 0.96473 0.0
C409 C 0.8017 0.84071 0.96056 0.0
C410 C 0.76753 0.84735 0.94499 0.0
C411 C 0.72972 0.7997 0.93354 0.0
C412 C 0.72534 0.74537 0.93786 0.0
C413 C 0.76137 0.74042 0.95366 0.0
H414 H 0.9935 0.88122 0.34423 0.0
H415 H 0.14766 0.03645 0.31696 0.0
H416 H 0.17009 0.98026 0.29071 0.0
H417 H 0.05491 0.78891 0.34256 0.0
H418 H 0.9906 0.72769 0.33427 0.0
H419 H 0.98553 0.77996 0.35085 0.0
H420 H 0.92692 0.79455 0.32005 0.0
H421 H 0.93185 0.74234 0.30338 0.0
H422 H 0.95623 0.8135 0.29069 0.0
H423 H 0.17589 0.90872 0.2671 0.0
H424 H 0.1656 0.82523 0.24779 0.0
H425 H 0.01006 0.71429 0.29109 0.0
C426 C 0.03184 0.90328 0.33268 0.0
C427 C 0.06879 0.9633 0.33263 0.0
C428 C 0.11872 0.99057 0.31734 0.0
C429 C 0.13186 0.95904 0.30232 0.0
C430 C 0.09482 0.90009 0.30282 0.0
C431 C 0.04591 0.87227 0.31759 0.0
C432 C 0.01399 0.80823 0.31469 0.0
C433 C 0.01111 0.7742 0.33692 0.0
C434 C 0.95368 0.78851 0.30673 0.0
C435 C 0.05264 0.80468 0.29598 0.0
C436 C 0.09887 0.85827 0.28939 0.0
C437 C 0.14015 0.86638 0.27224 0.0
C438 C 0.13415 0.81845 0.2615 0.0
C439 C 0.0874 0.76272 0.268 0.0
C440 C 0.04615 0.75611 0.28554 0.0
H441 H 0.18377 0.06422 0.64092 0.0
H442 H 0.20613 0.99491 0.70535 0.0
H443 H 0.29022 0.99392 0.68748 0.0
H444 H 0.22251 0.98063 0.60453 0.0
H445 H 0.25875 0.03782 0.58231 0.0
H446 H 0.20014 0.03294 0.60015 0.0
H447 H 0.26586 0.13696 0.61114 0.0
H448 H 0.32485 0.14188 0.59352 0.0
H449 H 0.33273 0.15554 0.62337 0.0
H450 H 0.37501 0.00542 0.66339 0.0
H451 H 0.44839 0.01795 0.6332 0.0
H452 H 0.36867 0.07448 0.58374 0.0
C453 C 0.20608 0.04834 0.65119 0.0
C454 C 0.18836 0.0296 0.67456 0.0
C455 C 0.2187 0.00919 0.68742 0.0
C456 C 0.26674 0.00877 0.67745 0.0
C457 C 0.28367 0.02836 0.65451 0.0
C458 C 0.25382 0.04695 0.64141 0.0
C459 C 0.28052 0.06463 0.61699 0.0
C460 C 0.23794 0.02673 0.59999 0.0
C461 C 0.30227 0.12855 0.61091 0.0
C462 C 0.33008 0.05325 0.61846 0.0
C463 C 0.33147 0.03301 0.64035 0.0
C464 C 0.37401 0.02067 0.64613 0.0
C465 C 0.41552 0.02803 0.62897 0.0
C466 C 0.41362 0.0466 0.60625 0.0
C467 C 0.37078 0.06004 0.60102 0.0
H468 H 0.26321 0.21113 0.01782 0.0
H469 H 0.14171 0.1394 0.96562 0.0
H470 H 0.21094 0.21538 0.93733 0.0
H471 H 0.31558 0.358 0.99988 0.0
H472 H 0.38913 0.38236 0.00565 0.0
H473 H 0.33176 0.32039 0.02182 0.0
H474 H 0.37775 0.25989 0.01011 0.0
H475 H 0.4354 0.32176 0.99395 0.0
H476 H 0.39335 0.25638 0.98018 0.0
H477 H 0.29007 0.30008 0.91505 0.0
H478 H 0.37606 0.38926 0.89964 0.0
H479 H 0.44875 0.40924 0.96555 0.0
C480 C 0.25161 0.21107 1.00035 0.0
C481 C 0.19707 0.16907 0.9939 0.0
C482 C 0.18317 0.17093 0.97096 0.0
C483 C 0.22225 0.21394 0.95474 0.0
C484 C 0.2752 0.25505 0.96167 0.0
C485 C 0.29022 0.25413 0.98386 0.0
C486 C 0.34947 0.30491 0.98678 0.0
C487 C 0.34626 0.3437 1.00459 0.0
C488 C 0.39148 0.2845 0.99313 0.0
C489 C 0.36496 0.33463 0.96282 0.0
C490 C 0.32139 0.30474 0.94867 0.0
C491 C 0.32467 0.32365 0.9259 0.0
C492 C 0.37379 0.37438 0.91729 0.0
C493 C 0.41923 0.40596 0.93135 0.0
C494 C 0.4147 0.38574 0.95444 0.0
H495 H 0.08544 0.2631 0.34861 0.0
H496 H 0.00767 0.12546 0.30305 0.0
H497 H 1.00121 0.19105 0.27444 0.0
H498 H 0.99842 0.32531 0.33578 0.0
H499 H 0.05515 0.39853 0.33691 0.0
H500 H 0.05676 0.34191 0.35369 0.0
H501 H 0.1578 0.37318 0.33486 0.0
H502 H 0.1566 0.43011 0.31812 0.0
H503 H 0.16864 0.37845 0.30408 0.0
H504 H 1.00127 0.26992 0.25086 0.0
H505 H 0.00924 0.35919 0.23356 0.0
H506 H 0.08329 0.4459 0.29433 0.0
C507 C 0.06776 0.24713 0.33249 0.0
C508 C 0.04727 0.18918 0.32803 0.0
C509 C 0.02364 0.16963 0.30686 0.0
C510 C 0.01976 0.20655 0.29047 0.0
C511 C 0.03942 0.26306 0.29546 0.0
C512 C 0.06303 0.28349 0.3159 0.0
C513 C 0.0794 0.34595 0.31702 0.0
C514 C 0.04539 0.35333 0.33704 0.0
C515 C 0.14448 0.38417 0.31861 0.0
C516 C 0.06116 0.35708 0.2941 0.0
C517 C 0.03843 0.30864 0.28192 0.0
C518 C 0.019 0.30818 0.26021 0.0
C519 C 0.02346 0.35881 0.25056 0.0
C520 C 0.04696 0.409 0.26263 0.0
C521 C 0.0654 0.40793 0.28478 0.0
loop_
_geom_bond_atom_site_label_1
_geom_bond_atom_site_label_2
_geom_bond_distance
_geom_bond_site_symmetry_2
_ccdc_geom_bond_type
In0 O1 2.294 . S
In0 O2 2.326 . S
In0 O6 2.266 1_445 S
In0 O7 2.326 1_545 S
In0 O8 2.266 1_545 S
In0 O9 2.326 1_545 S
In0 O11 2.294 . S
In0 O12 2.326 . S
O1 In0 2.294 . S
O1 C10 1.240 . S
O2 In0 2.326 . S
O2 C10 1.252 . S
C3 O6 1.252 . S
C3 O7 1.260 1_655 S
C4 O11 1.240 . S
C4 O12 1.252 . S
C5 O8 1.252 . S
C5 O9 1.260 . S
O6 In0 2.266 1_665 S
O6 C3 1.252 . S
O7 In0 2.326 1_565 S
O7 C3 1.260 1_455 S
O8 In0 2.266 1_565 S
O8 C5 1.252 . S
O9 In0 2.326 1_565 S
O9 C5 1.260 . S
C10 O1 1.240 . S
C10 O2 1.252 . S
O11 In0 2.294 . S
O11 C4 1.240 . S
O12 In0 2.326 . S
O12 C4 1.252 . S
In13 O14 2.294 . S
In13 O15 2.326 1_455 S
In13 O19 2.266 . S
In13 O20 2.326 . S
In13 O21 2.266 1_445 S
In13 O22 2.326 . S
In13 O24 2.294 1_455 S
In13 O25 2.326 . S
O14 In13 2.294 . S
O14 C23 1.240 . S
O15 In13 2.326 1_655 S
O15 C23 1.252 1_655 S
C16 O19 1.252 . S
C16 O20 1.260 . S
C17 O24 1.240 . S
C17 O25 1.252 1_655 S
C18 O21 1.254 1_445 S
C18 O22 1.267 . S
O19 In13 2.266 . S
O19 C16 1.252 . S
O20 In13 2.326 . S
O20 C16 1.260 . S
O21 In13 2.266 1_665 S
O21 C18 1.254 1_665 S
O22 In13 2.326 . S
O22 C18 1.267 . S
C23 O14 1.240 . S
C23 O15 1.252 1_455 S
O24 In13 2.294 1_655 S
O24 C17 1.240 . S
O25 In13 2.326 . S
O25 C17 1.252 1_455 S
In26 O27 2.294 1_545 S
In26 O28 2.326 1_455 S
In26 O32 2.266 . S
In26 O33 2.326 . S
In26 O34 2.266 . S
In26 O35 2.326 . S
In26 O37 2.294 . S
In26 O38 2.326 1_445 S
O27 In26 2.294 1_565 S
O27 C36 1.240 1_455 S
O28 In26 2.326 1_655 S
O28 C36 1.252 1_545 S
C29 O32 1.252 . S
C29 O33 1.260 . S
C30 O37 1.240 1_655 S
C30 O38 1.252 1_545 S
C31 O34 1.252 . S
C31 O35 1.260 . S
O32 In26 2.266 . S
O32 C29 1.252 . S
O33 In26 2.326 . S
O33 C29 1.260 . S
O34 In26 2.266 . S
O34 C31 1.252 . S
O35 In26 2.326 . S
O35 C31 1.260 . S
C36 O27 1.240 1_655 S
C36 O28 1.252 1_565 S
O37 In26 2.294 . S
O37 C30 1.240 1_455 S
O38 In26 2.326 1_665 S
O38 C30 1.252 1_565 S
C39 C40 1.443 . S
C39 N43 1.376 . S
C39 C77 1.389 . S
C40 C39 1.443 . S
C40 C41 1.340 . S
C40 H80 0.951 . S
C41 C40 1.340 . S
C41 C42 1.439 . S
C41 H81 0.950 . S
C42 C41 1.439 . S
C42 N43 1.374 . S
C42 C76 1.395 . S
N43 C39 1.376 . S
N43 C42 1.374 . S
N43 Co44 2.008 . S
Co44 N43 2.008 . S
Co44 N45 1.995 . S
Co44 N50 2.008 1_455 S
Co44 N55 1.995 1_455 S
Co44 N60 2.282 . S
Co44 N66 2.282 . S
N45 Co44 1.995 . S
N45 C46 1.376 . S
N45 C49 1.383 . S
C46 N45 1.376 . S
C46 C47 1.446 . S
C46 C76 1.391 . S
C47 C46 1.446 . S
C47 C48 1.339 . S
C47 H82 0.949 . S
C48 C47 1.339 . S
C48 C49 1.439 . S
C48 H83 0.950 . S
C49 N45 1.383 . S
C49 C48 1.439 . S
C49 C78 1.392 . S
N50 Co44 2.008 1_655 S
N50 C51 1.376 . S
N50 C54 1.374 . S
C51 N50 1.376 . S
C51 C52 1.443 . S
C51 C78 1.389 1_655 S
C52 C51 1.443 . S
C52 C53 1.340 . S
C52 H84 0.951 . S
C53 C52 1.340 . S
C53 C54 1.439 . S
C53 H85 0.950 . S
C54 N50 1.374 . S
C54 C53 1.439 . S
C54 C79 1.395 . S
N55 Co44 1.995 1_655 S
N55 C56 1.376 . S
N55 C59 1.383 . S
C56 N55 1.376 . S
C56 C57 1.446 . S
C56 C79 1.391 . S
C57 C56 1.446 . S
C57 C58 1.339 . S
C57 H86 0.949 . S
C58 C57 1.339 . S
C58 C59 1.439 . S
C58 H87 0.950 . S
C59 N55 1.383 . S
C59 C58 1.439 . S
C59 C77 1.392 1_655 S
N60 Co44 2.282 . S
N60 C63 1.332 . S
N60 C65 1.332 . S
C61 C62 1.386 . S
C61 C64 1.388 . S
C62 C61 1.386 . S
C62 C63 1.382 . S
C62 H88 0.950 1_455 S
C63 N60 1.332 . S
C63 C62 1.382 . S
C63 H74 0.952 1_455 S
C64 C61 1.388 . S
C64 C65 1.382 . S
C64 H89 0.950 . S
C65 N60 1.332 . S
C65 C64 1.382 . S
C65 H75 0.948 . S
N66 Co44 2.282 . S
N66 C70 1.332 . S
N66 C71 1.332 1_455 S
C67 C68 1.388 1_655 S
C67 C71 1.382 . S
C67 H90 0.950 . S
C68 C67 1.388 1_455 S
C68 C69 1.386 . S
C69 C68 1.386 . S
C69 C70 1.382 . S
C69 H91 0.950 . S
C70 N66 1.332 . S
C70 C69 1.382 . S
C70 H72 0.952 . S
C71 N66 1.332 1_655 S
C71 C67 1.382 . S
C71 H73 0.948 . S
H72 C70 0.952 . S
H73 C71 0.948 . S
H74 C63 0.952 1_655 S
H75 C65 0.948 . S
C76 C42 1.395 . S
C76 C46 1.391 . S
C77 C39 1.389 . S
C77 C59 1.392 1_455 S
C78 C49 1.392 . S
C78 C51 1.389 1_455 S
C79 C54 1.395 . S
C79 C56 1.391 . S
H80 C40 0.951 . S
H81 C41 0.950 . S
H82 C47 0.949 . S
H83 C48 0.950 . S
H84 C52 0.951 . S
H85 C53 0.950 . S
H86 C57 0.949 . S
H87 C58 0.950 . S
H88 C62 0.950 1_655 S
H89 C64 0.950 . S
H90 C67 0.950 . S
H91 C69 0.950 . S
C92 C93 1.443 1_545 S
C92 N96 1.377 . S
C92 C130 1.389 . S
C93 C92 1.443 1_565 S
C93 C94 1.340 . S
C93 H133 0.951 . S
C94 C93 1.340 . S
C94 C95 1.439 . S
C94 H134 0.950 . S
C95 C94 1.439 . S
C95 N96 1.373 1_565 S
C95 C129 1.395 . S
N96 C92 1.377 . S
N96 C95 1.373 1_545 S
N96 Co97 2.008 . S
Co97 N96 2.008 . S
Co97 N98 1.995 . S
Co97 N103 2.008 . S
Co97 N108 1.995 . S
Co97 N113 2.282 . S
Co97 N119 2.282 . S
N98 Co97 1.995 . S
N98 C99 1.376 1_545 S
N98 C102 1.383 . S
C99 N98 1.376 1_565 S
C99 C100 1.446 . S
C99 C129 1.391 . S
C100 C99 1.446 . S
C100 C101 1.339 . S
C100 H135 0.949 . S
C101 C100 1.339 . S
C101 C102 1.439 1_565 S
C101 H136 0.950 . S
C102 N98 1.383 . S
C102 C101 1.439 1_545 S
C102 C131 1.392 . S
N103 Co97 2.008 . S
N103 C104 1.376 . S
N103 C107 1.374 . S
C104 N103 1.376 . S
C104 C105 1.443 . S
C104 C131 1.389 . S
C105 C104 1.443 . S
C105 C106 1.340 . S
C105 H137 0.951 . S
C106 C105 1.340 . S
C106 C107 1.439 . S
C106 H138 0.950 . S
C107 N103 1.374 . S
C107 C106 1.439 . S
C107 C132 1.395 . S
N108 Co97 1.995 . S
N108 C109 1.376 . S
N108 C112 1.383 . S
C109 N108 1.376 . S
C109 C110 1.446 . S
C109 C132 1.391 . S
C110 C109 1.446 . S
C110 C111 1.339 . S
C110 H139 0.949 . S
C111 C110 1.339 . S
C111 C112 1.439 . S
C111 H140 0.950 . S
C112 N108 1.383 . S
C112 C111 1.439 . S
C112 C130 1.392 . S
N113 Co97 2.282 . S
N113 C116 1.332 . S
N113 C118 1.332 . S
C114 C115 1.386 . S
C114 C117 1.388 . S
C115 C114 1.386 . S
C115 C116 1.382 . S
C115 H141 0.950 . S
C116 N113 1.332 . S
C116 C115 1.382 . S
C116 H127 0.952 . S
C117 C114 1.388 . S
C117 C118 1.382 . S
C117 H142 0.950 1_545 S
C118 N113 1.332 . S
C118 C117 1.382 . S
C118 H128 0.948 1_545 S
N119 Co97 2.282 . S
N119 C123 1.332 . S
N119 C124 1.332 . S
C120 C121 1.388 . S
C120 C124 1.382 . S
C120 H143 0.950 . S
C121 C120 1.388 . S
C121 C122 1.386 . S
C122 C121 1.386 . S
C122 C123 1.382 . S
C122 H144 0.950 1_545 S
C123 N119 1.332 . S
C123 C122 1.382 . S
C123 H125 0.952 1_545 S
C124 N119 1.332 . S
C124 C120 1.382 . S
C124 H126 0.948 . S
H125 C123 0.952 1_565 S
H126 C124 0.948 . S
H127 C116 0.952 . S
H128 C118 0.948 1_565 S
C129 C95 1.395 . S
C129 C99 1.391 . S
C130 C92 1.389 . S
C130 C112 1.392 . S
C131 C102 1.392 . S
C131 C104 1.389 . S
C132 C107 1.395 . S
C132 C109 1.391 . S
H133 C93 0.951 . S
H134 C94 0.950 . S
H135 C100 0.949 . S
H136 C101 0.950 . S
H137 C105 0.951 . S
H138 C106 0.950 . S
H139 C110 0.949 . S
H140 C111 0.950 . S
H141 C115 0.950 . S
H142 C117 0.950 1_565 S
H143 C120 0.950 . S
H144 C122 0.950 1_565 S
C145 C146 1.443 . S
C145 N149 1.376 . S
C145 C183 1.389 . S
C146 C145 1.443 . S
C146 C147 1.340 . S
C146 H186 0.951 . S
C147 C146 1.340 . S
C147 C148 1.439 . S
C147 H187 0.950 . S
C148 C147 1.439 . S
C148 N149 1.374 . S
C148 C182 1.395 . S
N149 C145 1.376 . S
N149 C148 1.374 . S
N149 Co150 2.008 . S
Co150 N149 2.008 . S
Co150 N151 1.995 . S
Co150 N156 2.008 . S
Co150 N161 1.995 . S
Co150 N166 2.282 . S
Co150 N172 2.282 . S
N151 Co150 1.995 . S
N151 C152 1.376 . S
N151 C155 1.383 . S
C152 N151 1.376 . S
C152 C153 1.446 . S
C152 C182 1.391 . S
C153 C152 1.446 . S
C153 C154 1.339 . S
C153 H188 0.949 . S
C154 C153 1.339 . S
C154 C155 1.439 . S
C154 H189 0.950 . S
C155 N151 1.383 . S
C155 C154 1.439 . S
C155 C184 1.392 . S
N156 Co150 2.008 . S
N156 C157 1.376 . S
N156 C160 1.374 . S
C157 N156 1.376 . S
C157 C158 1.443 . S
C157 C184 1.389 . S
C158 C157 1.443 . S
C158 C159 1.340 . S
C158 H190 0.951 . S
C159 C158 1.340 . S
C159 C160 1.439 . S
C159 H191 0.950 . S
C160 N156 1.374 . S
C160 C159 1.439 . S
C160 C185 1.395 . S
N161 Co150 1.995 . S
N161 C162 1.376 . S
N161 C165 1.383 . S
C162 N161 1.376 . S
C162 C163 1.446 . S
C162 C185 1.391 . S
C163 C162 1.446 . S
C163 C164 1.339 . S
C163 H192 0.949 . S
C164 C163 1.339 . S
C164 C165 1.439 . S
C164 H193 0.950 . S
C165 N161 1.383 . S
C165 C164 1.439 . S
C165 C183 1.392 . S
N166 Co150 2.282 . S
N166 C169 1.332 . S
N166 C171 1.332 . S
C167 C168 1.386 . S
C167 C170 1.388 . S
C168 C167 1.386 . S
C168 C169 1.382 . S
C168 H194 0.950 . S
C169 N166 1.332 . S
C169 C168 1.382 . S
C169 H180 0.952 . S
C170 C167 1.388 . S
C170 C171 1.382 . S
C170 H195 0.950 . S
C171 N166 1.332 . S
C171 C170 1.382 . S
C171 H181 0.948 . S
N172 Co150 2.282 . S
N172 C176 1.332 . S
N172 C177 1.332 . S
C173 C174 1.388 . S
C173 C177 1.382 . S
C173 H196 0.950 . S
C174 C173 1.388 . S
C174 C175 1.386 . S
C175 C174 1.386 . S
C175 C176 1.382 . S
C175 H197 0.950 . S
C176 N172 1.332 . S
C176 C175 1.382 . S
C176 H178 0.952 . S
C177 N172 1.332 . S
C177 C173 1.382 . S
C177 H179 0.948 . S
H178 C176 0.952 . S
H179 C177 0.948 . S
H180 C169 0.952 . S
H181 C171 0.948 . S
C182 C148 1.395 . S
C182 C152 1.391 . S
C183 C145 1.389 . S
C183 C165 1.392 . S
C184 C155 1.392 . S
C184 C157 1.389 . S
C185 C160 1.395 . S
C185 C162 1.391 . S
H186 C146 0.951 . S
H187 C147 0.950 . S
H188 C153 0.949 . S
H189 C154 0.950 . S
H190 C158 0.951 . S
H191 C159 0.950 . S
H192 C163 0.949 . S
H193 C164 0.950 . S
H194 C168 0.950 . S
H195 C170 0.950 . S
H196 C173 0.950 . S
H197 C175 0.950 . S
H198 C210 0.930 . S
H199 C212 0.930 1_655 S
H200 C213 0.930 . S
H201 C217 0.959 . S
H202 C217 0.959 . S
H203 C217 0.961 . S
H204 C218 0.960 . S
H205 C218 0.961 . S
H206 C218 0.959 . S
H207 C221 0.929 . S
H208 C222 0.925 1_655 S
H209 C224 0.930 . S
C210 H198 0.930 . S
C210 C211 1.399 . S
C210 C215 1.399 . S
C211 C210 1.399 . S
C211 C212 1.376 . S
C212 H199 0.930 1_455 S
C212 C211 1.376 . S
C212 C213 1.388 1_455 S
C213 H200 0.930 . S
C213 C212 1.388 1_655 S
C213 C214 1.390 1_655 S
C214 C213 1.390 1_455 S
C214 C215 1.394 . S
C214 C220 1.465 . S
C215 C210 1.399 . S
C215 C214 1.394 . S
C215 C216 1.516 . S
C216 C215 1.516 . S
C216 C217 1.502 . S
C216 C218 1.561 . S
C216 C219 1.526 . S
C217 H201 0.959 . S
C217 H202 0.959 . S
C217 H203 0.961 . S
C217 C216 1.502 . S
C218 H204 0.960 . S
C218 H205 0.961 . S
C218 H206 0.959 . S
C218 C216 1.561 . S
C219 C216 1.526 . S
C219 C220 1.396 . S
C219 C224 1.390 . S
C220 C214 1.465 . S
C220 C219 1.396 . S
C220 C221 1.399 1_455 S
C221 H207 0.929 . S
C221 C220 1.399 1_655 S
C221 C222 1.387 1_655 S
C222 H208 0.925 1_455 S
C222 C221 1.387 1_455 S
C222 C223 1.393 . S
C223 C222 1.393 . S
C223 C224 1.387 . S
C224 H209 0.930 . S
C224 C219 1.390 . S
C224 C223 1.387 . S
H225 C237 0.930 . S
H226 C239 0.930 1_565 S
H227 C240 0.930 1_565 S
H228 C244 0.959 . S
H229 C244 0.959 . S
H230 C244 0.961 . S
H231 C245 0.960 . S
H232 C245 0.961 . S
H233 C245 0.959 . S
H234 C248 0.929 1_565 S
H235 C249 0.931 1_565 S
H236 C251 0.930 . S
C237 H225 0.930 . S
C237 C238 1.399 . S
C237 C242 1.399 . S
C238 C237 1.399 . S
C238 C239 1.376 . S
C239 H226 0.930 1_545 S
C239 C238 1.376 . S
C239 C240 1.388 . S
C240 H227 0.930 1_545 S
C240 C239 1.388 . S
C240 C241 1.390 . S
C241 C240 1.390 . S
C241 C242 1.394 . S
C241 C247 1.465 . S
C242 C237 1.399 . S
C242 C241 1.394 . S
C242 C243 1.516 . S
C243 C242 1.516 . S
C243 C244 1.502 . S
C243 C245 1.561 . S
C243 C246 1.526 . S
C244 H228 0.959 . S
C244 H229 0.959 . S
C244 H230 0.961 . S
C244 C243 1.502 . S
C245 H231 0.960 . S
C245 H232 0.961 . S
C245 H233 0.959 . S
C245 C243 1.561 . S
C246 C243 1.526 . S
C246 C247 1.396 . S
C246 C251 1.390 . S
C247 C241 1.465 . S
C247 C246 1.396 . S
C247 C248 1.399 . S
C248 H234 0.929 1_545 S
C248 C247 1.399 . S
C248 C249 1.385 . S
C249 H235 0.931 1_545 S
C249 C248 1.385 . S
C249 C250 1.389 . S
C250 C249 1.389 . S
C250 C251 1.387 . S
C251 H236 0.930 . S
C251 C246 1.390 . S
C251 C250 1.387 . S
H252 C264 0.930 . S
H253 C266 0.930 . S
H254 C267 0.930 . S
H255 C271 0.959 . S
H256 C271 0.959 . S
H257 C271 0.961 . S
H258 C272 0.960 . S
H259 C272 0.961 . S
H260 C272 0.959 . S
H261 C275 0.929 . S
H262 C276 0.931 . S
H263 C278 0.930 . S
C264 H252 0.930 . S
C264 C265 1.399 . S
C264 C269 1.399 . S
C265 C264 1.399 . S
C265 C266 1.376 . S
C266 H253 0.930 . S
C266 C265 1.376 . S
C266 C267 1.388 . S
C267 H254 0.930 . S
C267 C266 1.388 . S
C267 C268 1.390 . S
C268 C267 1.390 . S
C268 C269 1.394 . S
C268 C274 1.465 . S
C269 C264 1.399 . S
C269 C268 1.394 . S
C269 C270 1.516 . S
C270 C269 1.516 . S
C270 C271 1.502 . S
C270 C272 1.561 . S
C270 C273 1.526 . S
C271 H255 0.959 . S
C271 H256 0.959 . S
C271 H257 0.961 . S
C271 C270 1.502 . S
C272 H258 0.960 . S
C272 H259 0.961 . S
C272 H260 0.959 . S
C272 C270 1.561 . S
C273 C270 1.526 . S
C273 C274 1.396 . S
C273 C278 1.390 . S
C274 C268 1.465 . S
C274 C273 1.396 . S
C274 C275 1.399 . S
C275 H261 0.929 . S
C275 C274 1.399 . S
C275 C276 1.385 . S
C276 H262 0.931 . S
C276 C275 1.385 . S
C276 C277 1.389 . S
C277 C276 1.389 . S
C277 C278 1.387 . S
C278 H263 0.930 . S
C278 C273 1.390 . S
C278 C277 1.387 . S
H279 C291 0.930 1_655 S
H280 C293 0.930 . S
H281 C294 0.930 . S
H282 C298 0.959 . S
H283 C298 0.959 . S
H284 C298 0.961 . S
H285 C299 0.960 . S
H286 C299 0.961 . S
H287 C299 0.959 . S
H288 C302 0.929 . S
H289 C303 0.931 . S
H290 C305 0.930 1_655 S
C291 H279 0.930 1_455 S
C291 C292 1.399 . S
C291 C296 1.399 . S
C292 C291 1.399 . S
C292 C293 1.376 . S
C293 H280 0.930 . S
C293 C292 1.376 . S
C293 C294 1.388 . S
C294 H281 0.930 . S
C294 C293 1.388 . S
C294 C295 1.390 . S
C295 C294 1.390 . S
C295 C296 1.394 . S
C295 C301 1.465 . S
C296 C291 1.399 . S
C296 C295 1.394 . S
C296 C297 1.516 1_455 S
C297 C296 1.516 1_655 S
C297 C298 1.502 . S
C297 C299 1.561 . S
C297 C300 1.526 1_655 S
C298 H282 0.959 . S
C298 H283 0.959 . S
C298 H284 0.961 . S
C298 C297 1.502 . S
C299 H285 0.960 . S
C299 H286 0.961 . S
C299 H287 0.959 . S
C299 C297 1.561 . S
C300 C297 1.526 1_455 S
C300 C301 1.396 . S
C300 C305 1.390 . S
C301 C295 1.465 . S
C301 C300 1.396 . S
C301 C302 1.399 . S
C302 H288 0.929 . S
C302 C301 1.399 . S
C302 C303 1.385 . S
C303 H289 0.931 . S
C303 C302 1.385 . S
C303 C304 1.389 . S
C304 C303 1.389 . S
C304 C305 1.387 . S
C305 H290 0.930 1_455 S
C305 C300 1.390 . S
C305 C304 1.387 . S
H306 C318 0.930 . S
H307 C320 0.930 1_565 S
H308 C321 0.930 1_565 S
H309 C325 0.959 . S
H310 C325 0.959 . S
H311 C325 0.961 . S
H312 C326 0.960 . S
H313 C326 0.961 . S
H314 C326 0.959 . S
H315 C329 0.929 1_565 S
H316 C330 0.931 1_565 S
H317 C332 0.930 . S
C318 H306 0.930 . S
C318 C319 1.399 . S
C318 C323 1.399 . S
C319 C318 1.399 . S
C319 C320 1.376 . S
C320 H307 0.930 1_545 S
C320 C319 1.376 . S
C320 C321 1.388 . S
C321 H308 0.930 1_545 S
C321 C320 1.388 . S
C321 C322 1.390 . S
C322 C321 1.390 . S
C322 C323 1.394 . S
C322 C328 1.465 . S
C323 C318 1.399 . S
C323 C322 1.394 . S
C323 C324 1.516 . S
C324 C323 1.516 . S
C324 C325 1.502 . S
C324 C326 1.561 . S
C324 C327 1.526 . S
C325 H309 0.959 . S
C325 H310 0.959 . S
C325 H311 0.961 . S
C325 C324 1.502 . S
C326 H312 0.960 . S
C326 H313 0.961 . S
C326 H314 0.959 . S
C326 C324 1.561 . S
C327 C324 1.526 . S
C327 C328 1.396 . S
C327 C332 1.390 . S
C328 C322 1.465 . S
C328 C327 1.396 . S
C328 C329 1.400 . S
C329 H315 0.929 1_545 S
C329 C328 1.400 . S
C329 C330 1.385 . S
C330 H316 0.931 1_545 S
C330 C329 1.385 . S
C330 C331 1.389 . S
C331 C330 1.389 . S
C331 C332 1.387 . S
C332 H317 0.930 . S
C332 C327 1.390 . S
C332 C331 1.387 . S
H333 C345 0.930 . S
H334 C347 0.930 . S
H335 C348 0.930 . S
H336 C352 0.959 . S
H337 C352 0.959 . S
H338 C352 0.961 . S
H339 C353 0.960 . S
H340 C353 0.961 . S
H341 C353 0.959 . S
H342 C356 0.929 . S
H343 C357 0.931 . S
H344 C359 0.930 . S
C345 H333 0.930 . S
C345 C346 1.399 . S
C345 C350 1.399 . S
C346 C345 1.399 . S
C346 C347 1.376 . S
C347 H334 0.930 . S
C347 C346 1.376 . S
C347 C348 1.388 . S
C348 H335 0.930 . S
C348 C347 1.388 . S
C348 C349 1.390 . S
C349 C348 1.390 . S
C349 C350 1.394 . S
C349 C355 1.465 . S
C350 C345 1.399 . S
C350 C349 1.394 . S
C350 C351 1.516 . S
C351 C350 1.516 . S
C351 C352 1.502 . S
C351 C353 1.561 . S
C351 C354 1.526 . S
C352 H336 0.959 . S
C352 H337 0.959 . S
C352 H338 0.961 . S
C352 C351 1.502 . S
C353 H339 0.960 . S
C353 H340 0.961 . S
C353 H341 0.959 . S
C353 C351 1.561 . S
C354 C351 1.526 . S
C354 C355 1.396 . S
C354 C359 1.390 . S
C355 C349 1.465 . S
C355 C354 1.396 . S
C355 C356 1.399 . S
C356 H342 0.929 . S
C356 C355 1.399 . S
C356 C357 1.385 . S
C357 H343 0.931 . S
C357 C356 1.385 . S
C357 C358 1.389 . S
C358 C357 1.389 . S
C358 C359 1.387 . S
C359 H344 0.930 . S
C359 C354 1.390 . S
C359 C358 1.387 . S
H360 C372 0.930 1_565 S
H361 C374 0.930 1_455 S
H362 C375 0.930 . S
H363 C379 0.959 . S
H364 C379 0.959 . S
H365 C379 0.961 . S
H366 C380 0.960 . S
H367 C380 0.961 . S
H368 C380 0.959 1_545 S
H369 C383 0.929 . S
H370 C384 0.931 . S
H371 C386 0.930 1_565 S
C372 H360 0.930 1_545 S
C372 C373 1.399 . S
C372 C377 1.399 . S
C373 C372 1.399 . S
C373 C374 1.376 . S
C374 H361 0.930 1_655 S
C374 C373 1.376 . S
C374 C375 1.388 . S
C375 H362 0.930 . S
C375 C374 1.388 . S
C375 C376 1.390 . S
C376 C375 1.390 . S
C376 C377 1.394 . S
C376 C382 1.465 . S
C377 C372 1.399 . S
C377 C376 1.394 . S
C377 C378 1.516 1_545 S
C378 C377 1.516 1_565 S
C378 C379 1.502 . S
C378 C380 1.561 . S
C378 C381 1.526 1_565 S
C379 H363 0.959 . S
C379 H364 0.959 . S
C379 H365 0.961 . S
C379 C378 1.502 . S
C380 H366 0.960 . S
C380 H367 0.961 . S
C380 H368 0.959 1_565 S
C380 C378 1.561 . S
C381 C378 1.526 1_545 S
C381 C382 1.396 . S
C381 C386 1.390 . S
C382 C376 1.465 . S
C382 C381 1.396 . S
C382 C383 1.399 . S
C383 H369 0.929 . S
C383 C382 1.399 . S
C383 C384 1.385 . S
C384 H370 0.931 . S
C384 C383 1.385 . S
C384 C385 1.389 . S
C385 C384 1.389 . S
C385 C386 1.387 . S
C386 H371 0.930 1_545 S
C386 C381 1.390 . S
C386 C385 1.387 . S
H387 C399 0.930 . S
H388 C401 0.930 . S
H389 C402 0.930 . S
H390 C406 0.959 . S
H391 C406 0.959 . S
H392 C406 0.961 1_554 S
H393 C407 0.960 . S
H394 C407 0.961 . S
H395 C407 0.959 . S
H396 C410 0.929 . S
H397 C411 0.931 . S
H398 C413 0.930 . S
C399 H387 0.930 . S
C399 C400 1.399 1_554 S
C399 C404 1.399 1_554 S
C400 C399 1.399 1_556 S
C400 C401 1.376 . S
C401 H388 0.930 . S
C401 C400 1.376 . S
C401 C402 1.388 . S
C402 H389 0.930 . S
C402 C401 1.388 . S
C402 C403 1.390 . S
C403 C402 1.390 . S
C403 C404 1.394 . S
C403 C409 1.465 . S
C404 C399 1.399 1_556 S
C404 C403 1.394 . S
C404 C405 1.516 . S
C405 C404 1.516 . S
C405 C406 1.502 . S
C405 C407 1.561 1_556 S
C405 C408 1.526 . S
C406 H390 0.959 . S
C406 H391 0.959 . S
C406 H392 0.961 1_556 S
C406 C405 1.502 . S
C407 H393 0.960 . S
C407 H394 0.961 . S
C407 H395 0.959 . S
C407 C405 1.561 1_554 S
C408 C405 1.526 . S
C408 C409 1.396 . S
C408 C413 1.390 . S
C409 C403 1.465 . S
C409 C408 1.396 . S
C409 C410 1.399 . S
C410 H396 0.929 . S
C410 C409 1.399 . S
C410 C411 1.385 . S
C411 H397 0.931 . S
C411 C410 1.385 . S
C411 C412 1.389 . S
C412 C411 1.389 . S
C412 C413 1.387 . S
C413 H398 0.930 . S
C413 C408 1.390 . S
C413 C412 1.387 . S
H414 C426 0.930 1_655 S
H415 C428 0.930 1_545 S
H416 C429 0.930 . S
H417 C433 0.959 1_455 S
H418 C433 0.959 . S
H419 C433 0.961 . S
H420 C434 0.960 . S
H421 C434 0.961 . S
H422 C434 0.959 . S
H423 C437 0.929 . S
H424 C438 0.931 . S
H425 C440 0.930 1_655 S
C426 H414 0.930 1_455 S
C426 C427 1.399 . S
C426 C431 1.399 . S
C427 C426 1.399 . S
C427 C428 1.376 . S
C428 H415 0.930 1_565 S
C428 C427 1.376 . S
C428 C429 1.388 . S
C429 H416 0.930 . S
C429 C428 1.388 . S
C429 C430 1.390 . S
C430 C429 1.390 . S
C430 C431 1.394 . S
C430 C436 1.465 . S
C431 C426 1.399 . S
C431 C430 1.394 . S
C431 C432 1.516 1_455 S
C432 C431 1.516 1_655 S
C432 C433 1.502 . S
C432 C434 1.561 . S
C432 C435 1.526 1_655 S
C433 H417 0.959 1_655 S
C433 H418 0.959 . S
C433 H419 0.961 . S
C433 C432 1.502 . S
C434 H420 0.960 . S
C434 H421 0.961 . S
C434 H422 0.959 . S
C434 C432 1.561 . S
C435 C432 1.526 1_455 S
C435 C436 1.396 . S
C435 C440 1.390 . S
C436 C430 1.465 . S
C436 C435 1.396 . S
C436 C437 1.399 . S
C437 H423 0.929 . S
C437 C436 1.399 . S
C437 C438 1.385 . S
C438 H424 0.931 . S
C438 C437 1.385 . S
C438 C439 1.389 . S
C439 C438 1.389 . S
C439 C440 1.387 . S
C440 H425 0.930 1_455 S
C440 C435 1.390 . S
C440 C439 1.387 . S
H441 C453 0.930 . S
H442 C455 0.935 . S
H443 C456 0.930 . S
H444 C460 0.959 . S
H445 C460 0.959 . S
H446 C460 0.961 . S
H447 C461 0.960 . S
H448 C461 0.961 . S
H449 C461 0.959 . S
H450 C464 0.929 . S
H451 C465 0.931 1_565 S
H452 C467 0.930 . S
C453 H441 0.930 . S
C453 C454 1.399 . S
C453 C458 1.399 . S
C454 C453 1.399 . S
C454 C455 1.365 1_545 S
C455 H442 0.935 . S
C455 C454 1.365 1_565 S
C455 C456 1.395 . S
C456 H443 0.930 . S
C456 C455 1.395 . S
C456 C457 1.390 1_565 S
C457 C456 1.390 1_545 S
C457 C458 1.394 . S
C457 C463 1.465 . S
C458 C453 1.399 . S
C458 C457 1.394 . S
C458 C459 1.516 . S
C459 C458 1.516 . S
C459 C460 1.502 . S
C459 C461 1.561 . S
C459 C462 1.526 . S
C460 H444 0.959 . S
C460 H445 0.959 . S
C460 H446 0.961 . S
C460 C459 1.502 . S
C461 H447 0.960 . S
C461 H448 0.961 . S
C461 H449 0.959 . S
C461 C459 1.561 . S
C462 C459 1.526 . S
C462 C463 1.396 . S
C462 C467 1.390 . S
C463 C457 1.465 . S
C463 C462 1.396 . S
C463 C464 1.399 1_545 S
C464 H450 0.929 . S
C464 C463 1.399 1_565 S
C464 C465 1.385 1_565 S
C465 H451 0.931 1_545 S
C465 C464 1.385 1_545 S
C465 C466 1.389 . S
C466 C465 1.389 . S
C466 C467 1.387 . S
C467 H452 0.930 . S
C467 C462 1.390 . S
C467 C466 1.387 . S
H468 C480 0.930 1_554 S
H469 C482 0.930 . S
H470 C483 0.930 . S
H471 C487 0.959 . S
H472 C487 0.959 . S
H473 C487 0.961 1_554 S
H474 C488 0.960 1_554 S
H475 C488 0.961 . S
H476 C488 0.959 . S
H477 C491 0.929 . S
H478 C492 0.931 . S
H479 C494 0.930 . S
C480 H468 0.930 1_556 S
C480 C481 1.399 . S
C480 C485 1.399 . S
C481 C480 1.399 . S
C481 C482 1.376 . S
C482 H469 0.930 . S
C482 C481 1.376 . S
C482 C483 1.388 . S
C483 H470 0.930 . S
C483 C482 1.388 . S
C483 C484 1.390 . S
C484 C483 1.390 . S
C484 C485 1.394 . S
C484 C490 1.465 . S
C485 C480 1.399 . S
C485 C484 1.394 . S
C485 C486 1.516 . S
C486 C485 1.516 . S
C486 C487 1.502 . S
C486 C488 1.561 . S
C486 C489 1.526 . S
C487 H471 0.959 . S
C487 H472 0.959 . S
C487 H473 0.961 1_556 S
C487 C486 1.502 . S
C488 H474 0.960 1_556 S
C488 H475 0.961 . S
C488 H476 0.959 . S
C488 C486 1.561 . S
C489 C486 1.526 . S
C489 C490 1.396 . S
C489 C494 1.390 . S
C490 C484 1.465 . S
C490 C489 1.396 . S
C490 C491 1.399 . S
C491 H477 0.929 . S
C491 C490 1.399 . S
C491 C492 1.385 . S
C492 H478 0.931 . S
C492 C491 1.385 . S
C492 C493 1.389 . S
C493 C492 1.389 . S
C493 C494 1.387 . S
C494 H479 0.930 . S
C494 C489 1.390 . S
C494 C493 1.387 . S
H495 C507 0.930 . S
H496 C509 0.930 1_655 S
H497 C510 0.930 1_655 S
H498 C514 0.959 . S
H499 C514 0.959 . S
H500 C514 0.961 . S
H501 C515 0.960 . S
H502 C515 0.961 . S
H503 C515 0.959 . S
H504 C518 0.929 1_655 S
H505 C519 0.931 1_655 S
H506 C521 0.930 . S
C507 H495 0.930 . S
C507 C508 1.399 . S
C507 C512 1.399 . S
C508 C507 1.399 . S
C508 C509 1.376 . S
C509 H496 0.930 1_455 S
C509 C508 1.376 . S
C509 C510 1.388 . S
C510 H497 0.930 1_455 S
C510 C509 1.388 . S
C510 C511 1.390 . S
C511 C510 1.390 . S
C511 C512 1.394 . S
C511 C517 1.465 . S
C512 C507 1.399 . S
C512 C511 1.394 . S
C512 C513 1.516 . S
C513 C512 1.516 . S
C513 C514 1.502 . S
C513 C515 1.561 . S
C513 C516 1.526 . S
C514 H498 0.959 . S
C514 H499 0.959 . S
C514 H500 0.961 . S
C514 C513 1.502 . S
C515 H501 0.960 . S
C515 H502 0.961 . S
C515 H503 0.959 . S
C515 C513 1.561 . S
C516 C513 1.526 . S
C516 C517 1.396 . S
C516 C521 1.390 . S
C517 C511 1.465 . S
C517 C516 1.396 . S
C517 C518 1.399 . S
C518 H504 0.929 1_455 S
C518 C517 1.399 . S
C518 C519 1.385 . S
C519 H505 0.931 1_455 S
C519 C518 1.385 . S
C519 C520 1.389 . S
C520 C519 1.389 . S
C520 C521 1.387 . S
C521 H506 0.930 . S
C521 C516 1.390 . S
C521 C520 1.387 . S
C223 C61 1.514 . S
C211 C10 1.509 . S
C238 C17 1.508 . S
C250 C131 1.512 . S
C265 C36 1.516 . S
C277 C183 1.518 . S
C292 C5 1.512 . S
C304 C77 1.510 . S
C331 C121 1.512 . S
C319 C16 1.513 . S
C346 C31 1.513 . S
C358 C167 1.512 . S
C385 C114 1.514 . S
C373 C30 1.509 . S
C400 C3 1.513 1_556 S
C412 C174 1.512 . S
C439 C68 1.513 . S
C427 C18 1.505 1_565 S
C466 C130 1.510 . S
C454 C29 1.513 . S
C493 C184 1.517 . S
C481 C4 1.516 1_556 S
C508 C23 1.514 . S
C520 C78 1.514 . S
