# Generated by pormake.
# Topology pth, (4,4)-cn, num edge types: 1
# Building blocks:
#     Node 0, Type 0, BuildingBlock: AZAVOO_clean_sbu_0, # of connection points: 4
#     Node 1, Type 0, BuildingBlock: AZAVOO_clean_sbu_0, # of connection points: 4
#     Node 2, Type 0, BuildingBlock: AZAVOO_clean_sbu_0, # of connection points: 4
#     Node 3, Type 1, BuildingBlock: NAWXER_clean_sbu_0, # of connection points: 4
#     Node 4, Type 1, BuildingBlock: NAWXER_clean_sbu_0, # of connection points: 4
#     Node 5, Type 1, BuildingBlock: NAWXER_clean_sbu_0, # of connection points: 4
#     Edge 6, Type (0, 1), BuildingBlock: XUDNAN_clean_linker_2, # of connection points: 2
#     Edge 7, Type (0, 1), BuildingBlock: XUDNAN_clean_linker_2, # of connection points: 2
#     Edge 8, Type (0, 1), BuildingBlock: XUDNAN_clean_linker_2, # of connection points: 2
#     Edge 9, Type (0, 1), BuildingBlock: XUDNAN_clean_linker_2, # of connection points: 2
#     Edge 10, Type (0, 1), BuildingBlock: XUDNAN_clean_linker_2, # of connection points: 2
#     Edge 11, Type (0, 1), BuildingBlock: XUDNAN_clean_linker_2, # of connection points: 2
#     Edge 12, Type (0, 1), BuildingBlock: XUDNAN_clean_linker_2, # of connection points: 2
#     Edge 13, Type (0, 1), BuildingBlock: XUDNAN_clean_linker_2, # of connection points: 2
#     Edge 14, Type (0, 1), BuildingBlock: XUDNAN_clean_linker_2, # of connection points: 2
#     Edge 15, Type (0, 1), BuildingBlock: XUDNAN_clean_linker_2, # of connection points: 2
#     Edge 16, Type (0, 1), BuildingBlock: XUDNAN_clean_linker_2, # of connection points: 2
#     Edge 17, Type (0, 1), BuildingBlock: XUDNAN_clean_linker_2, # of connection points: 2
# Relax obj value: 0.079
# Max RMSD: 0.220
# Mean RMSD: 0.117
data_MOF--net-pth--node1-AZAVOO_clean_sbu_0--node2-NAWXER_clean_sbu_0--edge1-XUDNAN_clean_linker_2
_symmetry_space_group_name_H-M    P1
_symmetry_Int_Tables_number       1
_symmetry_cell_setting            triclinic
loop_
_symmetry_equiv_pos_as_xyz
'x, y, z'
_cell_length_a     22.582362
_cell_length_b     23.049158
_cell_length_c     57.036958
_cell_angle_alpha  91.058178
_cell_angle_beta   93.299316
_cell_angle_gamma 122.27992
loop_
_atom_site_label
_atom_site_type_symbol
_atom_site_fract_x
_atom_site_fract_y
_atom_site_fract_z
_atom_type_partial_charge
Mg0 Mg 0.13824 0.1015 0.06038 0.0
O1 O 0.03464 0.01387 0.04358 0.0
O2 O 0.96888 0.0495 0.02727 0.0
Mg3 Mg 0.03654 0.16797 0.03339 0.0
C4 C 0.97863 1.00133 0.03223 0.0
C5 C 0.14976 0.01122 0.10046 0.0
O6 O 0.16859 0.06458 0.11479 0.0
O7 O 0.09039 0.12116 0.09141 0.0
O8 O 0.03952 0.17128 0.07376 0.0
O9 O 0.18619 0.11667 0.02553 0.0
O10 O 0.13652 0.17092 0.03748 0.0
C11 C 0.05948 0.15407 0.09234 0.0
C12 C 0.16801 0.16046 0.02153 0.0
O13 O 0.14148 0.0153 0.07845 0.0
Mg14 Mg 0.95879 0.01963 0.39859 0.0
O15 O 0.06927 0.06916 0.41644 0.0
O16 O 0.10758 0.17526 0.43057 0.0
Mg17 Mg 0.01596 0.19119 0.42391 0.0
C18 C 0.11653 0.12572 0.42709 0.0
C19 C 0.95986 0.91763 0.36007 0.0
O20 O 0.9189 0.93134 0.34733 0.0
O21 O 0.99338 0.08785 0.36692 0.0
O22 O 0.02004 0.18795 0.38409 0.0
O23 O 0.91505 0.98104 0.43373 0.0
O24 O 0.93799 0.07939 0.42036 0.0
C25 C 0.0116 0.15063 0.36582 0.0
C26 C 0.91679 0.03775 0.43693 0.0
O27 O 0.98005 0.94283 0.38112 0.0
Mg28 Mg 1.00926 0.01738 0.7133 0.0
O29 O 0.09613 0.0961 0.7399 0.0
O30 O 0.04983 0.11056 0.77114 0.0
Mg31 Mg 0.9298 0.03699 0.76489 0.0
C32 C 0.10307 0.12405 0.76017 0.0
C33 C 0.14993 0.06356 0.69028 0.0
O34 O 0.16021 0.03835 0.70946 0.0
O35 O 0.97106 0.08723 0.70164 0.0
O36 O 0.9147 0.08687 0.73267 0.0
O37 O 0.00966 0.93166 0.73231 0.0
O38 O 0.9424 0.97085 0.73985 0.0
C39 C 0.93059 0.10154 0.71153 0.0
C40 C 0.96206 0.92939 0.74462 0.0
O41 O 0.09157 0.05897 0.68616 0.0
C42 C 0.08191 0.64651 0.26216 0.0
C43 C 0.11287 0.50614 0.20414 0.0
O44 O 0.13951 0.65092 0.25892 0.0
Zn45 Zn 0.10339 0.58055 0.23328 0.0
O46 O 0.02555 0.602 0.2498 0.0
Zn47 Zn 0.99157 0.52372 0.22238 0.0
O48 O 0.92935 0.43774 0.23753 0.0
O49 O 0.04065 0.49078 0.25115 0.0
O50 O 0.05045 0.4933 0.20443 0.0
O51 O 0.16199 0.55383 0.21794 0.0
O52 O 0.07306 0.62455 0.20625 0.0
O53 O 0.9587 0.55719 0.19686 0.0
C54 C 0.97711 0.44027 0.25138 0.0
C55 C 0.01764 0.61157 0.19391 0.0
C56 C 0.57871 0.06941 0.59733 0.0
C57 C 0.47104 0.10406 0.52582 0.0
O58 O 0.52426 0.02105 0.5854 0.0
Zn59 Zn 0.52156 0.07949 0.56138 0.0
O60 O 0.60957 0.13113 0.59088 0.0
Zn61 Zn 0.60211 0.18978 0.56388 0.0
O62 O 0.58442 0.2511 0.58244 0.0
O63 O 0.4997 0.14115 0.58241 0.0
O64 O 0.52643 0.15798 0.53524 0.0
O65 O 0.44907 0.04654 0.53486 0.0
O66 O 0.61552 0.10705 0.54611 0.0
O67 O 0.68968 0.21982 0.54893 0.0
C68 C 0.52578 0.20387 0.58926 0.0
C69 C 0.67537 0.16006 0.54263 0.0
C70 C 0.46456 0.48624 0.91173 0.0
C71 C 0.65324 0.62179 0.85993 0.0
O72 O 0.47065 0.53662 0.9007 0.0
Zn73 Zn 0.55759 0.5602 0.88634 0.0
O74 O 0.51194 0.47199 0.91097 0.0
Zn75 Zn 0.60586 0.50151 0.89543 0.0
O76 O 0.67509 0.53698 0.92283 0.0
O77 O 0.63282 0.60231 0.91554 0.0
O78 O 0.65778 0.5763 0.87091 0.0
O79 O 0.60288 0.63015 0.86331 0.0
O80 O 0.51869 0.46775 0.86584 0.0
O81 O 0.5742 0.41601 0.87654 0.0
C82 C 0.67392 0.59044 0.9279 0.0
C83 C 0.52712 0.4174 0.86355 0.0
H84 H 0.9904 0.21821 0.10223 0.0
H85 H 0.14177 0.17447 0.13297 0.0
H86 H 0.17493 0.26227 0.16511 0.0
H87 H 0.09332 0.3934 0.11123 0.0
H88 H 0.02404 0.40604 0.11828 0.0
H89 H 1.00406 0.33286 0.09971 0.0
H90 H 0.91317 0.24975 0.1277 0.0
H91 H 0.93089 0.32282 0.14592 0.0
H92 H 0.9392 0.25621 0.1586 0.0
H93 H 0.20271 0.36751 0.19111 0.0
H94 H 0.20638 0.4649 0.21218 0.0
H95 H 0.03802 0.43809 0.16337 0.0
C96 C 0.02881 0.22524 0.11612 0.0
C97 C 0.06335 0.18924 0.11499 0.0
C98 C 0.11387 0.20072 0.1335 0.0
C99 C 0.13372 0.25118 0.15173 0.0
C100 C 0.10196 0.28906 0.15135 0.0
C101 C 0.04918 0.27521 0.13434 0.0
C102 C 0.025 0.32455 0.13715 0.0
C103 C 0.03738 0.36668 0.11529 0.0
C104 C 0.94748 0.28604 0.14268 0.0
C105 C 0.07326 0.36926 0.15809 0.0
C106 C 0.11762 0.34853 0.1661 0.0
C107 C 0.16767 0.38366 0.18509 0.0
C108 C 0.17017 0.4395 0.19675 0.0
C109 C 0.12271 0.4591 0.18933 0.0
C110 C 0.07504 0.42431 0.16944 0.0
H111 H 0.89799 0.1439 0.44389 0.0
H112 H 0.88216 0.96994 0.47803 0.0
H113 H 0.83449 0.99514 0.51209 0.0
H114 H 0.94149 0.257 0.49796 0.0
H115 H 0.88885 0.28902 0.48652 0.0
H116 H 0.93176 0.26387 0.46673 0.0
H117 H 0.81209 0.18026 0.44343 0.0
H118 H 0.76887 0.20492 0.4631 0.0
H119 H 0.74003 0.11566 0.45874 0.0
H120 H 0.77547 0.03002 0.5396 0.0
H121 H 0.70529 0.06852 0.55807 0.0
H122 H 0.75976 0.2208 0.50623 0.0
C123 C 0.8865 0.11214 0.4588 0.0
C124 C 0.8946 0.05532 0.45844 0.0
C125 C 0.8769 0.01397 0.47802 0.0
C126 C 0.85013 0.02816 0.49745 0.0
C127 C 0.84178 0.084 0.49701 0.0
C128 C 0.8596 0.12544 0.47819 0.0
C129 C 0.83888 0.17778 0.48085 0.0
C130 C 0.90415 0.25128 0.48316 0.0
C131 C 0.78688 0.16908 0.46032 0.0
C132 C 0.80399 0.15774 0.50374 0.0
C133 C 0.80739 0.10424 0.51294 0.0
C134 C 0.77369 0.07264 0.53281 0.0
C135 C 0.73391 0.09481 0.54315 0.0
C136 C 0.72812 0.14813 0.5337 0.0
C137 C 0.7651 0.1813 0.51413 0.0
H138 H 0.85158 0.9084 0.76818 0.0
H139 H 0.99582 0.83947 0.76283 0.0
H140 H 0.93355 0.75469 0.79269 0.0
H141 H 0.83478 0.89221 0.831 0.0
H142 H 0.74306 0.86356 0.82808 0.0
H143 H 0.80142 0.92039 0.80733 0.0
H144 H 0.72026 0.83355 0.77304 0.0
H145 H 0.66197 0.77616 0.79365 0.0
H146 H 0.69895 0.7462 0.77308 0.0
H147 H 0.85256 0.67551 0.82195 0.0
H148 H 0.76083 0.60785 0.84861 0.0
H149 H 0.66937 0.7296 0.83441 0.0
C150 C 0.87126 0.87654 0.77351 0.0
C151 C 0.92924 0.88109 0.76336 0.0
C152 C 0.95187 0.83711 0.7705 0.0
C153 C 0.91682 0.78894 0.78741 0.0
C154 C 0.85948 0.78571 0.79689 0.0
C155 C 0.83709 0.82855 0.79022 0.0
C156 C 0.77292 0.81372 0.8024 0.0
C157 C 0.78904 0.87618 0.81814 0.0
C158 C 0.70981 0.79105 0.78447 0.0
C159 C 0.76188 0.75499 0.8169 0.0
C160 C 0.81257 0.73989 0.81353 0.0
C161 C 0.81289 0.68712 0.82478 0.0
C162 C 0.76029 0.64893 0.8399 0.0
C163 C 0.70764 0.66337 0.84366 0.0
C164 C 0.70869 0.71725 0.83194 0.0
H165 H 0.18473 0.98408 0.14406 0.0
H166 H 0.05879 0.8847 0.07846 0.0
H167 H 1.00817 0.7715 0.09546 0.0
H168 H 0.22346 0.85248 0.15609 0.0
H169 H 0.22028 0.86053 0.18741 0.0
H170 H 0.24629 0.93354 0.16994 0.0
H171 H 0.14856 0.9462 0.18613 0.0
H172 H 0.1217 0.8727 0.20341 0.0
H173 H 0.05878 0.8742 0.18293 0.0
H174 H 0.96458 0.66911 0.12083 0.0
H175 H 0.94486 0.58483 0.15073 0.0
H176 H 0.10549 0.75042 0.19835 0.0
C177 C 0.147 0.93844 0.13322 0.0
C178 C 0.1257 0.9433 0.10995 0.0
C179 C 0.07634 0.8823 0.09629 0.0
C180 C 0.04685 0.81772 0.10584 0.0
C181 C 0.06804 0.81477 0.12897 0.0
C182 C 0.11805 0.8734 0.14232 0.0
C183 C 0.13331 0.85596 0.16647 0.0
C184 C 0.21041 0.87685 0.17019 0.0
C185 C 0.11445 0.88924 0.18587 0.0
C186 C 0.08374 0.77855 0.16468 0.0
C187 C 0.04567 0.75573 0.14306 0.0
C188 C 0.99469 0.68632 0.13773 0.0
C189 C 0.98347 0.6389 0.1548 0.0
C190 C 0.02403 0.6612 0.17666 0.0
C191 C 0.07431 0.73194 0.18163 0.0
H192 H 0.12837 0.02615 0.44778 0.0
H193 H 0.2498 0.23958 0.43031 0.0
H194 H 0.35704 0.25112 0.44947 0.0
H195 H 0.20954 0.05529 0.50472 0.0
H196 H 0.20695 0.97577 0.50499 0.0
H197 H 0.14229 0.98107 0.48688 0.0
H198 H 0.17603 0.94038 0.4502 0.0
H199 H 0.24105 0.93509 0.46823 0.0
H200 H 0.26623 0.98661 0.44295 0.0
H201 H 0.44844 0.24162 0.47211 0.0
H202 H 0.51695 0.21733 0.5006 0.0
H203 H 0.33528 0.01144 0.50632 0.0
C204 C 0.17798 0.07479 0.44752 0.0
C205 C 0.1814 0.1318 0.43722 0.0
C206 C 0.24646 0.19532 0.43793 0.0
C207 C 0.30753 0.20212 0.44864 0.0
C208 C 0.30231 0.14515 0.45885 0.0
C209 C 0.23911 0.08288 0.45864 0.0
C210 C 0.24642 0.03222 0.47322 0.0
C211 C 0.19847 0.00981 0.49366 0.0
C212 C 0.23156 0.96988 0.45772 0.0
C213 C 0.32339 0.07622 0.48206 0.0
C214 C 0.35472 0.1406 0.47307 0.0
C215 C 0.42458 0.19136 0.4792 0.0
C216 C 0.46303 0.1769 0.49548 0.0
C217 C 0.43155 0.11243 0.50584 0.0
C218 C 0.3611 0.06087 0.49857 0.0
H219 H 0.14096 0.18819 0.80456 0.0
H220 H 0.22814 0.15585 0.74339 0.0
H221 H 0.34558 0.21683 0.7648 0.0
H222 H 0.28687 0.35849 0.82087 0.0
H223 H 0.27975 0.3471 0.85198 0.0
H224 H 0.20286 0.29927 0.83178 0.0
H225 H 0.18026 0.18597 0.84863 0.0
H226 H 0.25816 0.23364 0.86851 0.0
H227 H 0.2479 0.1668 0.84853 0.0
H228 H 0.4554 0.28318 0.79324 0.0
H229 H 0.54796 0.36045 0.82448 0.0
H230 H 0.38794 0.34819 0.86627 0.0
C231 C 0.18466 0.19411 0.79557 0.0
C232 C 0.17484 0.16686 0.77226 0.0
C233 C 0.23391 0.1761 0.76123 0.0
C234 C 0.30095 0.21031 0.77331 0.0
C235 C 0.30839 0.23514 0.79644 0.0
C236 C 0.2519 0.22816 0.80733 0.0
C237 C 0.27419 0.262 0.83192 0.0
C238 C 0.26011 0.32017 0.83426 0.0
C239 C 0.23796 0.20892 0.85049 0.0
C240 C 0.35208 0.28982 0.83306 0.0
C241 C 0.371 0.27315 0.81261 0.0
C242 C 0.44104 0.29599 0.80943 0.0
C243 C 0.4932 0.33911 0.82728 0.0
C244 C 0.47454 0.35884 0.84779 0.0
C245 C 0.40312 0.33249 0.85087 0.0
H246 H 0.90016 0.07908 0.66367 0.0
H247 H 0.85354 0.15319 0.72615 0.0
H248 H 0.75113 0.14326 0.70404 0.0
H249 H 0.84252 0.16242 0.62049 0.0
H250 H 0.80769 0.09045 0.59934 0.0
H251 H 0.8818 0.11193 0.61953 0.0
H252 H 0.81307 0.98722 0.63303 0.0
H253 H 0.73768 0.96631 0.61363 0.0
H254 H 0.72886 0.95405 0.64465 0.0
H255 H 0.64743 0.11488 0.67636 0.0
H256 H 0.56241 0.09113 0.64249 0.0
H257 H 0.67443 0.03283 0.59853 0.0
C258 C 0.87022 0.09589 0.67249 0.0
C259 C 0.88519 0.1171 0.6967 0.0
C260 C 0.84341 0.13709 0.70762 0.0
C261 C 0.78464 0.13094 0.69527 0.0
C262 C 0.76851 0.10516 0.67195 0.0
C263 C 0.81113 0.08981 0.66044 0.0
C264 C 0.78109 0.06163 0.63544 0.0
C265 C 0.83124 0.10947 0.61765 0.0
C266 C 0.76419 0.98793 0.63148 0.0
C267 C 0.71452 0.0627 0.63483 0.0
C268 C 0.70804 0.08759 0.65612 0.0
C269 C 0.6518 0.09507 0.65963 0.0
C270 C 0.60308 0.08033 0.64048 0.0
C271 C 0.61071 0.05783 0.61828 0.0
C272 C 0.66601 0.04726 0.6156 0.0
H273 H 0.86816 0.9552 -0.00158 0.0
H274 H 0.97728 0.88559 0.04331 0.0
H275 H 0.90718 0.77056 0.02304 0.0
H276 H 0.69466 0.79059 0.99399 0.0
H277 H 0.67664 0.80081 0.96367 0.0
H278 H 0.73021 0.87544 0.98348 0.0
H279 H 0.82973 0.92238 0.95514 0.0
H280 H 0.77689 0.84764 0.93542 0.0
H281 H 0.86325 0.87012 0.94669 0.0
H282 H 0.8338 0.6659 0.99479 0.0
H283 H 0.75707 0.57898 0.9627 0.0
H284 H 0.69562 0.71713 0.93713 0.0
C285 C 0.87607 0.91535 0.00442 0.0
C286 C 0.92833 0.92976 0.02251 0.0
C287 C 0.93764 0.87612 0.02951 0.0
C288 C 0.89805 0.81041 0.01808 0.0
C289 C 0.84873 0.79861 -0.00023 0.0
C290 C 0.83693 0.84934 0.99321 0.0
C291 C 0.78336 0.82448 0.97223 0.0
C292 C 0.7173 0.82271 0.97874 0.0
C293 C 0.81525 0.86879 0.95113 0.0
C294 C 0.76819 0.75262 0.96774 0.0
C295 C 0.80612 0.73835 0.9838 0.0
C296 C 0.80302 0.67616 0.98231 0.0
C297 C 0.7596 0.6272 0.96398 0.0
C298 C 0.71991 0.64083 0.94747 0.0
C299 C 0.72452 0.70446 0.94958 0.0
H300 H 0.91219 0.83799 0.31867 0.0
H301 H 0.07097 0.90949 0.37723 0.0
H302 H 0.1218 0.85021 0.35837 0.0
H303 H 0.88614 0.66985 0.31047 0.0
H304 H 0.87305 0.66704 0.2789 0.0
H305 H 0.84996 0.71568 0.29703 0.0
H306 H 0.93024 0.8245 0.27472 0.0
H307 H 0.95394 0.77626 0.25664 0.0
H308 H 0.02143 0.8534 0.27313 0.0
H309 H 0.15861 0.78655 0.33188 0.0
H310 H 0.17067 0.715 0.30183 0.0
H311 H 0.98445 0.68167 0.262 0.0
C312 C 0.9575 0.84103 0.32758 0.0
C313 C 0.98763 0.87855 0.34941 0.0
C314 C 0.04673 0.88086 0.36054 0.0
C315 C 0.07624 0.84761 0.34991 0.0
C316 C 0.04567 0.81164 0.32826 0.0
C317 C 0.98706 0.80747 0.31738 0.0
C318 C 0.96317 0.76431 0.29444 0.0
C319 C 0.88867 0.70043 0.29527 0.0
C320 C 0.96748 0.8072 0.2735 0.0
C321 C 0.01751 0.74498 0.29407 0.0
C322 C 0.06522 0.77329 0.31356 0.0
C323 C 0.12118 0.76369 0.31663 0.0
C324 C 0.12785 0.72329 0.29946 0.0
C325 C 0.07823 0.69236 0.27972 0.0
C326 C 0.02278 0.70393 0.27706 0.0
H327 H 0.27084 0.06325 0.68952 0.0
H328 H 0.15879 0.14767 0.65534 0.0
H329 H 0.2557 0.21072 0.62954 0.0
H330 H 0.44975 0.21332 0.68657 0.0
H331 H 0.48498 0.16111 0.68027 0.0
H332 H 0.41064 0.12885 0.69773 0.0
H333 H 0.33839 0.02119 0.66894 0.0
H334 H 0.41293 0.05263 0.65178 0.0
H335 H 0.32967 0.03238 0.638 0.0
H336 H 0.36154 0.25783 0.60539 0.0
H337 H 0.45828 0.27229 0.58243 0.0
H338 H 0.49904 0.15624 0.63232 0.0
C339 C 0.267 0.09566 0.67682 0.0
C340 C 0.20737 0.10077 0.67454 0.0
C341 C 0.20394 0.14287 0.6574 0.0
C342 C 0.25905 0.17942 0.64281 0.0
C343 C 0.31727 0.17338 0.64557 0.0
C344 C 0.32114 0.13193 0.66202 0.0
C345 C 0.38582 0.12868 0.66004 0.0
C346 C 0.43575 0.15987 0.68249 0.0
C347 C 0.36547 0.05435 0.65433 0.0
C348 C 0.41695 0.17338 0.63952 0.0
C349 C 0.37764 0.19999 0.63165 0.0
C350 C 0.39349 0.2384 0.61168 0.0
C351 C 0.44894 0.24715 0.59888 0.0
C352 C 0.48703 0.21711 0.60611 0.0
C353 C 0.4721 0.18173 0.62701 0.0
H354 H 0.25014 0.16473 0.98713 0.0
H355 H 0.13552 0.25541 0.0099 0.0
H356 H 0.18747 0.3416 0.98024 0.0
H357 H 0.40391 0.31412 0.98147 0.0
H358 H 0.42793 0.28763 0.95565 0.0
H359 H 0.37119 0.22454 0.97513 0.0
H360 H 0.27648 0.15787 0.94049 0.0
H361 H 0.33348 0.22059 0.92078 0.0
H362 H 0.24578 0.20215 0.92283 0.0
H363 H 0.26702 0.42987 0.95239 0.0
H364 H 0.36422 0.50804 0.9282 0.0
H365 H 0.4244 0.35829 0.92397 0.0
C366 C 0.23398 0.2011 0.98529 0.0
C367 C 0.18838 0.20281 0.00076 0.0
C368 C 0.16984 0.25242 -0.00186 0.0
C369 C 0.19911 0.30182 0.98129 0.0
C370 C 0.2463 0.30062 0.96696 0.0
C371 C 0.26273 0.25078 0.96855 0.0
C372 C 0.32005 0.26469 0.95284 0.0
C373 C 0.38455 0.27328 0.96713 0.0
C374 C 0.29226 0.20795 0.93306 0.0
C375 C 0.33576 0.33179 0.94322 0.0
C376 C 0.29208 0.35142 0.95113 0.0
C377 C 0.30076 0.41439 0.94573 0.0
C378 C 0.35606 0.45857 0.93207 0.0
C379 C 0.4022 0.43964 0.92438 0.0
C380 C 0.39045 0.37476 0.92969 0.0
H381 H 0.08541 0.28449 0.35517 0.0
H382 H 0.92795 0.08024 0.32563 0.0
H383 H 0.89875 0.13134 0.29259 0.0
H384 H 0.98996 0.3581 0.34486 0.0
H385 H 0.06204 0.44064 0.33744 0.0
H386 H 0.07828 0.38867 0.3566 0.0
H387 H 0.16714 0.39145 0.32908 0.0
H388 H 0.15326 0.44571 0.31027 0.0
H389 H 0.14087 0.36674 0.29825 0.0
H390 H 0.87663 0.20766 0.26551 0.0
H391 H 0.8787 0.30112 0.24369 0.0
H392 H 0.04959 0.45228 0.29238 0.0
C393 C 0.04654 0.25041 0.34131 0.0
C394 C 1.00927 0.17848 0.34288 0.0
C395 C 0.95805 0.13555 0.32456 0.0
C396 C 0.94049 0.16417 0.30589 0.0
C397 C 0.97531 0.23564 0.30572 0.0
C398 C 0.02864 0.278 0.32268 0.0
C399 C 0.05641 0.35291 0.31935 0.0
C400 C 0.04601 0.38702 0.34084 0.0
C401 C 0.134 0.39146 0.3139 0.0
C402 C 1.00946 0.34636 0.2982 0.0
C403 C 0.96275 0.27858 0.29048 0.0
C404 C 0.91352 0.2609 0.27132 0.0
C405 C 0.91429 0.31412 0.25924 0.0
C406 C 0.96408 0.38375 0.26643 0.0
C407 C 0.01085 0.39946 0.28647 0.0
loop_
_geom_bond_atom_site_label_1
_geom_bond_atom_site_label_2
_geom_bond_distance
_geom_bond_site_symmetry_2
_ccdc_geom_bond_type
Mg0 O1 2.028 . S
Mg0 O7 1.986 . S
Mg0 O9 2.114 . S
Mg0 O10 2.251 . S
Mg0 O13 2.010 . S
O1 Mg0 2.028 . S
O1 C4 1.250 1_455 S
O2 Mg3 2.028 1_655 S
O2 C4 1.248 . S
Mg3 O2 2.028 1_455 S
Mg3 O8 2.032 . S
Mg3 O10 2.079 . S
C4 O1 1.250 1_655 S
C4 O2 1.248 . S
C5 O6 1.264 1_565 S
C5 O13 1.249 1_565 S
O6 C5 1.264 1_545 S
O7 Mg0 1.986 . S
O7 C11 1.246 . S
O8 Mg3 2.032 . S
O8 C11 1.259 . S
O9 Mg0 2.114 . S
O9 C12 1.252 . S
O10 Mg0 2.251 . S
O10 Mg3 2.079 . S
O10 C12 1.273 . S
C11 O7 1.246 . S
C11 O8 1.259 . S
C12 O9 1.252 . S
C12 O10 1.273 . S
O13 Mg0 2.010 . S
O13 C5 1.249 1_545 S
Mg14 O15 2.028 1_655 S
Mg14 O21 1.986 1_655 S
Mg14 O23 2.114 1_545 S
Mg14 O24 2.251 . S
Mg14 O27 2.010 1_545 S
O15 Mg14 2.028 1_455 S
O15 C18 1.250 . S
O16 Mg17 2.028 . S
O16 C18 1.248 . S
Mg17 O16 2.028 . S
Mg17 O22 2.032 . S
Mg17 O24 2.079 1_455 S
C18 O15 1.250 . S
C18 O16 1.248 . S
C19 O20 1.264 . S
C19 O27 1.249 . S
O20 C19 1.264 . S
O21 Mg14 1.986 1_455 S
O21 C25 1.246 . S
O22 Mg17 2.032 . S
O22 C25 1.259 . S
O23 Mg14 2.114 1_565 S
O23 C26 1.252 1_565 S
O24 Mg14 2.251 . S
O24 Mg17 2.079 1_655 S
O24 C26 1.273 . S
C25 O21 1.246 . S
C25 O22 1.259 . S
C26 O23 1.252 1_545 S
C26 O24 1.273 . S
O27 Mg14 2.010 1_565 S
O27 C19 1.249 . S
Mg28 O29 2.028 . S
Mg28 O35 1.986 1_455 S
Mg28 O37 2.114 1_545 S
Mg28 O38 2.251 1_445 S
Mg28 O41 2.010 . S
O29 Mg28 2.028 . S
O29 C32 1.250 . S
O30 Mg31 2.028 1_455 S
O30 C32 1.248 . S
Mg31 O30 2.028 1_655 S
Mg31 O36 2.032 . S
Mg31 O38 2.079 1_545 S
C32 O29 1.250 . S
C32 O30 1.248 . S
C33 O34 1.264 . S
C33 O41 1.249 1_565 S
O34 C33 1.264 . S
O35 Mg28 1.986 1_655 S
O35 C39 1.246 . S
O36 Mg31 2.032 . S
O36 C39 1.259 . S
O37 Mg28 2.114 1_565 S
O37 C40 1.252 1_455 S
O38 Mg28 2.251 1_665 S
O38 Mg31 2.079 1_565 S
O38 C40 1.273 . S
C39 O35 1.246 . S
C39 O36 1.259 . S
C40 O37 1.252 1_655 S
C40 O38 1.273 . S
O41 Mg28 2.010 . S
O41 C33 1.249 1_545 S
C42 O44 1.247 . S
C42 O46 1.258 1_455 S
C43 O50 1.247 1_455 S
C43 O51 1.258 . S
O44 C42 1.247 . S
O44 Zn45 2.028 . S
Zn45 O44 2.028 . S
Zn45 O49 2.035 . S
Zn45 O51 2.035 . S
Zn45 O52 2.028 . S
O46 C42 1.258 1_655 S
O46 Zn47 2.035 . S
Zn47 O46 2.035 . S
Zn47 O48 2.028 . S
Zn47 O50 2.028 . S
Zn47 O53 2.035 . S
O48 Zn47 2.028 . S
O48 C54 1.247 1_655 S
O49 Zn45 2.035 . S
O49 C54 1.258 . S
O50 C43 1.247 1_655 S
O50 Zn47 2.028 . S
O51 C43 1.258 . S
O51 Zn45 2.035 . S
O52 Zn45 2.028 . S
O52 C55 1.247 . S
O53 Zn47 2.035 . S
O53 C55 1.258 1_655 S
C54 O48 1.247 1_455 S
C54 O49 1.258 . S
C55 O52 1.247 . S
C55 O53 1.258 1_455 S
C56 O58 1.247 . S
C56 O60 1.258 . S
C57 O64 1.247 . S
C57 O65 1.258 . S
O58 C56 1.247 . S
O58 Zn59 2.028 . S
Zn59 O58 2.028 . S
Zn59 O63 2.035 . S
Zn59 O65 2.035 . S
Zn59 O66 2.028 . S
O60 C56 1.258 . S
O60 Zn61 2.035 . S
Zn61 O60 2.035 . S
Zn61 O62 2.028 . S
Zn61 O64 2.028 . S
Zn61 O67 2.035 . S
O62 Zn61 2.028 . S
O62 C68 1.247 . S
O63 Zn59 2.035 . S
O63 C68 1.258 . S
O64 C57 1.247 . S
O64 Zn61 2.028 . S
O65 C57 1.258 . S
O65 Zn59 2.035 . S
O66 Zn59 2.028 . S
O66 C69 1.247 . S
O67 Zn61 2.035 . S
O67 C69 1.258 . S
C68 O62 1.247 . S
C68 O63 1.258 . S
C69 O66 1.247 . S
C69 O67 1.258 . S
C70 O72 1.247 . S
C70 O74 1.258 . S
C71 O78 1.247 . S
C71 O79 1.258 . S
O72 C70 1.247 . S
O72 Zn73 2.028 . S
Zn73 O72 2.028 . S
Zn73 O77 2.035 . S
Zn73 O79 2.035 . S
Zn73 O80 2.028 . S
O74 C70 1.258 . S
O74 Zn75 2.035 . S
Zn75 O74 2.035 . S
Zn75 O76 2.028 . S
Zn75 O78 2.028 . S
Zn75 O81 2.035 . S
O76 Zn75 2.028 . S
O76 C82 1.247 . S
O77 Zn73 2.035 . S
O77 C82 1.258 . S
O78 C71 1.247 . S
O78 Zn75 2.028 . S
O79 C71 1.258 . S
O79 Zn73 2.035 . S
O80 Zn73 2.028 . S
O80 C83 1.247 . S
O81 Zn75 2.035 . S
O81 C83 1.258 . S
C82 O76 1.247 . S
C82 O77 1.258 . S
C83 O80 1.247 . S
C83 O81 1.258 . S
H84 C96 0.930 . S
H85 C98 0.930 . S
H86 C99 0.930 . S
H87 C103 0.959 . S
H88 C103 0.959 . S
H89 C103 0.961 . S
H90 C104 0.960 . S
H91 C104 0.961 . S
H92 C104 0.959 . S
H93 C107 0.929 . S
H94 C108 0.931 . S
H95 C110 0.930 . S
C96 H84 0.930 . S
C96 C97 1.399 . S
C96 C101 1.399 . S
C97 C96 1.399 . S
C97 C98 1.376 1_455 S
C98 H85 0.930 . S
C98 C97 1.376 1_655 S
C98 C99 1.388 . S
C99 H86 0.930 . S
C99 C98 1.388 . S
C99 C100 1.390 1_655 S
C100 C99 1.390 1_455 S
C100 C101 1.394 . S
C100 C106 1.465 . S
C101 C96 1.399 . S
C101 C100 1.394 . S
C101 C102 1.516 . S
C102 C101 1.516 . S
C102 C103 1.502 . S
C102 C104 1.561 . S
C102 C105 1.526 . S
C103 H87 0.959 . S
C103 H88 0.959 . S
C103 H89 0.961 . S
C103 C102 1.502 . S
C104 H90 0.960 . S
C104 H91 0.961 . S
C104 H92 0.959 . S
C104 C102 1.561 . S
C105 C102 1.526 . S
C105 C106 1.396 . S
C105 C110 1.390 . S
C106 C100 1.465 . S
C106 C105 1.396 . S
C106 C107 1.399 1_455 S
C107 H93 0.929 . S
C107 C106 1.399 1_655 S
C107 C108 1.385 . S
C108 H94 0.931 . S
C108 C107 1.385 . S
C108 C109 1.389 1_655 S
C109 C108 1.389 1_455 S
C109 C110 1.387 . S
C110 H95 0.930 . S
C110 C105 1.390 . S
C110 C109 1.387 . S
H111 C123 0.930 . S
H112 C125 0.930 . S
H113 C126 0.930 . S
H114 C130 0.959 . S
H115 C130 0.959 . S
H116 C130 0.961 . S
H117 C131 0.960 . S
H118 C131 0.961 . S
H119 C131 0.959 . S
H120 C134 0.929 . S
H121 C135 0.931 1_565 S
H122 C137 0.930 . S
C123 H111 0.930 . S
C123 C124 1.399 . S
C123 C128 1.399 . S
C124 C123 1.399 . S
C124 C125 1.376 1_545 S
C125 H112 0.930 . S
C125 C124 1.376 1_565 S
C125 C126 1.388 . S
C126 H113 0.930 . S
C126 C125 1.388 . S
C126 C127 1.390 1_565 S
C127 C126 1.390 1_545 S
C127 C128 1.394 . S
C127 C133 1.465 . S
C128 C123 1.399 . S
C128 C127 1.394 . S
C128 C129 1.516 . S
C129 C128 1.516 . S
C129 C130 1.502 . S
C129 C131 1.561 . S
C129 C132 1.526 . S
C130 H114 0.959 . S
C130 H115 0.959 . S
C130 H116 0.961 . S
C130 C129 1.502 . S
C131 H117 0.960 . S
C131 H118 0.961 . S
C131 H119 0.959 . S
C131 C129 1.561 . S
C132 C129 1.526 . S
C132 C133 1.396 . S
C132 C137 1.390 . S
C133 C127 1.465 . S
C133 C132 1.396 . S
C133 C134 1.399 1_545 S
C134 H120 0.929 . S
C134 C133 1.399 1_565 S
C134 C135 1.385 1_565 S
C135 H121 0.931 1_545 S
C135 C134 1.385 1_545 S
C135 C136 1.389 . S
C136 C135 1.389 . S
C136 C137 1.387 . S
C137 H122 0.930 . S
C137 C132 1.390 . S
C137 C136 1.387 . S
H138 C150 0.930 . S
H139 C152 0.930 . S
H140 C153 0.930 . S
H141 C157 0.959 . S
H142 C157 0.959 . S
H143 C157 0.961 . S
H144 C158 0.960 . S
H145 C158 0.961 . S
H146 C158 0.959 . S
H147 C161 0.929 . S
H148 C162 0.931 . S
H149 C164 0.930 . S
C150 H138 0.930 . S
C150 C151 1.399 . S
C150 C155 1.399 . S
C151 C150 1.399 . S
C151 C152 1.376 . S
C152 H139 0.930 . S
C152 C151 1.376 . S
C152 C153 1.388 . S
C153 H140 0.930 . S
C153 C152 1.388 . S
C153 C154 1.390 . S
C154 C153 1.390 . S
C154 C155 1.394 . S
C154 C160 1.465 . S
C155 C150 1.399 . S
C155 C154 1.394 . S
C155 C156 1.516 . S
C156 C155 1.516 . S
C156 C157 1.502 . S
C156 C158 1.561 . S
C156 C159 1.526 . S
C157 H141 0.959 . S
C157 H142 0.959 . S
C157 H143 0.961 . S
C157 C156 1.502 . S
C158 H144 0.960 . S
C158 H145 0.961 . S
C158 H146 0.959 . S
C158 C156 1.561 . S
C159 C156 1.526 . S
C159 C160 1.396 . S
C159 C164 1.390 . S
C160 C154 1.465 . S
C160 C159 1.396 . S
C160 C161 1.399 . S
C161 H147 0.929 . S
C161 C160 1.399 . S
C161 C162 1.385 . S
C162 H148 0.931 . S
C162 C161 1.385 . S
C162 C163 1.389 . S
C163 C162 1.389 . S
C163 C164 1.387 . S
C164 H149 0.930 . S
C164 C159 1.390 . S
C164 C163 1.387 . S
H165 C177 0.930 . S
H166 C179 0.930 . S
H167 C180 0.930 . S
H168 C184 0.959 . S
H169 C184 0.959 . S
H170 C184 0.961 . S
H171 C185 0.960 . S
H172 C185 0.961 . S
H173 C185 0.959 . S
H174 C188 0.929 1_655 S
H175 C189 0.931 1_655 S
H176 C191 0.930 . S
C177 H165 0.930 . S
C177 C178 1.399 . S
C177 C182 1.399 . S
C178 C177 1.399 . S
C178 C179 1.376 . S
C179 H166 0.930 . S
C179 C178 1.376 . S
C179 C180 1.388 . S
C180 H167 0.930 . S
C180 C179 1.388 . S
C180 C181 1.390 . S
C181 C180 1.390 . S
C181 C182 1.394 . S
C181 C187 1.465 . S
C182 C177 1.399 . S
C182 C181 1.394 . S
C182 C183 1.516 . S
C183 C182 1.516 . S
C183 C184 1.502 . S
C183 C185 1.561 . S
C183 C186 1.526 . S
C184 H168 0.959 . S
C184 H169 0.959 . S
C184 H170 0.961 . S
C184 C183 1.502 . S
C185 H171 0.960 . S
C185 H172 0.961 . S
C185 H173 0.959 . S
C185 C183 1.561 . S
C186 C183 1.526 . S
C186 C187 1.396 . S
C186 C191 1.390 . S
C187 C181 1.465 . S
C187 C186 1.396 . S
C187 C188 1.399 . S
C188 H174 0.929 1_455 S
C188 C187 1.399 . S
C188 C189 1.385 . S
C189 H175 0.931 1_455 S
C189 C188 1.385 . S
C189 C190 1.389 . S
C190 C189 1.389 . S
C190 C191 1.387 . S
C191 H176 0.930 . S
C191 C186 1.390 . S
C191 C190 1.387 . S
H192 C204 0.930 1_565 S
H193 C206 0.930 . S
H194 C207 0.930 . S
H195 C211 0.959 . S
H196 C211 0.959 . S
H197 C211 0.961 . S
H198 C212 0.960 . S
H199 C212 0.961 . S
H200 C212 0.959 . S
H201 C215 0.929 . S
H202 C216 0.931 . S
H203 C218 0.930 1_565 S
C204 H192 0.930 1_545 S
C204 C205 1.399 . S
C204 C209 1.399 . S
C205 C204 1.399 . S
C205 C206 1.376 . S
C206 H193 0.930 . S
C206 C205 1.376 . S
C206 C207 1.388 . S
C207 H194 0.930 . S
C207 C206 1.388 . S
C207 C208 1.390 . S
C208 C207 1.390 . S
C208 C209 1.394 . S
C208 C214 1.465 . S
C209 C204 1.399 . S
C209 C208 1.394 . S
C209 C210 1.521 . S
C210 C209 1.521 . S
C210 C211 1.500 1_545 S
C210 C212 1.558 1_545 S
C210 C213 1.527 . S
C211 H195 0.959 . S
C211 H196 0.959 . S
C211 H197 0.961 . S
C211 C210 1.500 1_565 S
C212 H198 0.960 . S
C212 H199 0.961 . S
C212 H200 0.959 . S
C212 C210 1.558 1_565 S
C213 C210 1.527 . S
C213 C214 1.396 . S
C213 C218 1.390 . S
C214 C208 1.465 . S
C214 C213 1.396 . S
C214 C215 1.399 . S
C215 H201 0.929 . S
C215 C214 1.399 . S
C215 C216 1.385 . S
C216 H202 0.931 . S
C216 C215 1.385 . S
C216 C217 1.389 . S
C217 C216 1.389 . S
C217 C218 1.387 . S
C218 H203 0.930 1_545 S
C218 C213 1.390 . S
C218 C217 1.387 . S
H219 C231 0.930 . S
H220 C233 0.930 . S
H221 C234 0.930 . S
H222 C238 0.959 . S
H223 C238 0.959 . S
H224 C238 0.961 . S
H225 C239 0.960 . S
H226 C239 0.961 . S
H227 C239 0.959 . S
H228 C242 0.929 . S
H229 C243 0.931 . S
H230 C245 0.930 . S
C231 H219 0.930 . S
C231 C232 1.399 . S
C231 C236 1.399 . S
C232 C231 1.399 . S
C232 C233 1.376 . S
C233 H220 0.930 . S
C233 C232 1.376 . S
C233 C234 1.388 . S
C234 H221 0.930 . S
C234 C233 1.388 . S
C234 C235 1.390 . S
C235 C234 1.390 . S
C235 C236 1.394 . S
C235 C241 1.465 . S
C236 C231 1.399 . S
C236 C235 1.394 . S
C236 C237 1.516 . S
C237 C236 1.516 . S
C237 C238 1.502 . S
C237 C239 1.561 . S
C237 C240 1.526 . S
C238 H222 0.959 . S
C238 H223 0.959 . S
C238 H224 0.961 . S
C238 C237 1.502 . S
C239 H225 0.960 . S
C239 H226 0.961 . S
C239 H227 0.959 . S
C239 C237 1.561 . S
C240 C237 1.526 . S
C240 C241 1.396 . S
C240 C245 1.390 . S
C241 C235 1.465 . S
C241 C240 1.396 . S
C241 C242 1.399 . S
C242 H228 0.929 . S
C242 C241 1.399 . S
C242 C243 1.385 . S
C243 H229 0.931 . S
C243 C242 1.385 . S
C243 C244 1.389 . S
C244 C243 1.389 . S
C244 C245 1.387 . S
C245 H230 0.930 . S
C245 C240 1.390 . S
C245 C244 1.387 . S
H246 C258 0.930 . S
H247 C260 0.930 . S
H248 C261 0.930 . S
H249 C265 0.959 1_545 S
H250 C265 0.959 . S
H251 C265 0.961 . S
H252 C266 0.960 . S
H253 C266 0.961 . S
H254 C266 0.959 . S
H255 C269 0.929 . S
H256 C270 0.931 . S
H257 C272 0.930 1_565 S
C258 H246 0.930 . S
C258 C259 1.399 . S
C258 C263 1.399 . S
C259 C258 1.399 . S
C259 C260 1.376 . S
C260 H247 0.930 . S
C260 C259 1.376 . S
C260 C261 1.388 . S
C261 H248 0.930 . S
C261 C260 1.388 . S
C261 C262 1.390 . S
C262 C261 1.390 . S
C262 C263 1.394 . S
C262 C268 1.465 . S
C263 C258 1.399 . S
C263 C262 1.394 . S
C263 C264 1.516 . S
C264 C263 1.516 . S
C264 C265 1.502 1_545 S
C264 C266 1.561 1_545 S
C264 C267 1.526 . S
C265 H249 0.959 1_565 S
C265 H250 0.959 . S
C265 H251 0.961 . S
C265 C264 1.502 1_565 S
C266 H252 0.960 . S
C266 H253 0.961 . S
C266 H254 0.959 . S
C266 C264 1.561 1_565 S
C267 C264 1.526 . S
C267 C268 1.396 . S
C267 C272 1.390 . S
C268 C262 1.465 . S
C268 C267 1.396 . S
C268 C269 1.399 . S
C269 H255 0.929 . S
C269 C268 1.399 . S
C269 C270 1.385 . S
C270 H256 0.931 . S
C270 C269 1.385 . S
C270 C271 1.389 . S
C271 C270 1.389 . S
C271 C272 1.387 . S
C272 H257 0.930 1_545 S
C272 C267 1.390 . S
C272 C271 1.387 . S
H273 C285 0.930 1_556 S
H274 C287 0.930 . S
H275 C288 0.930 . S
H276 C292 0.959 . S
H277 C292 0.959 . S
H278 C292 0.961 . S
H279 C293 0.960 . S
H280 C293 0.961 . S
H281 C293 0.959 . S
H282 C296 0.929 1_554 S
H283 C297 0.931 . S
H284 C299 0.930 . S
C285 H273 0.930 1_554 S
C285 C286 1.399 . S
C285 C290 1.399 1_554 S
C286 C285 1.399 . S
C286 C287 1.376 . S
C287 H274 0.930 . S
C287 C286 1.376 . S
C287 C288 1.388 . S
C288 H275 0.930 . S
C288 C287 1.388 . S
C288 C289 1.390 . S
C289 C288 1.390 . S
C289 C290 1.394 1_554 S
C289 C295 1.465 1_554 S
C290 C285 1.399 1_556 S
C290 C289 1.394 1_556 S
C290 C291 1.516 . S
C291 C290 1.516 . S
C291 C292 1.502 . S
C291 C293 1.561 . S
C291 C294 1.526 . S
C292 H276 0.959 . S
C292 H277 0.959 . S
C292 H278 0.961 . S
C292 C291 1.502 . S
C293 H279 0.960 . S
C293 H280 0.961 . S
C293 H281 0.959 . S
C293 C291 1.561 . S
C294 C291 1.526 . S
C294 C295 1.396 . S
C294 C299 1.390 . S
C295 C289 1.465 1_556 S
C295 C294 1.396 . S
C295 C296 1.399 . S
C296 H282 0.929 1_556 S
C296 C295 1.399 . S
C296 C297 1.385 . S
C297 H283 0.931 . S
C297 C296 1.385 . S
C297 C298 1.389 . S
C298 C297 1.389 . S
C298 C299 1.387 . S
C299 H284 0.930 . S
C299 C294 1.390 . S
C299 C298 1.387 . S
H300 C312 0.930 . S
H301 C314 0.930 . S
H302 C315 0.930 . S
H303 C319 0.959 . S
H304 C319 0.959 . S
H305 C319 0.961 . S
H306 C320 0.960 . S
H307 C320 0.961 . S
H308 C320 0.959 . S
H309 C323 0.929 . S
H310 C324 0.931 . S
H311 C326 0.930 1_655 S
C312 H300 0.930 . S
C312 C313 1.399 . S
C312 C317 1.399 . S
C313 C312 1.399 . S
C313 C314 1.376 1_655 S
C314 H301 0.930 . S
C314 C313 1.376 1_455 S
C314 C315 1.388 . S
C315 H302 0.930 . S
C315 C314 1.388 . S
C315 C316 1.390 . S
C316 C315 1.390 . S
C316 C317 1.394 1_455 S
C316 C322 1.465 . S
C317 C312 1.399 . S
C317 C316 1.394 1_655 S
C317 C318 1.516 . S
C318 C317 1.516 . S
C318 C319 1.502 . S
C318 C320 1.561 1_655 S
C318 C321 1.526 1_655 S
C319 H303 0.959 . S
C319 H304 0.959 . S
C319 H305 0.961 . S
C319 C318 1.502 . S
C320 H306 0.960 . S
C320 H307 0.961 . S
C320 H308 0.959 . S
C320 C318 1.561 1_455 S
C321 C318 1.526 1_455 S
C321 C322 1.396 . S
C321 C326 1.390 . S
C322 C316 1.465 . S
C322 C321 1.396 . S
C322 C323 1.399 . S
C323 H309 0.929 . S
C323 C322 1.399 . S
C323 C324 1.385 . S
C324 H310 0.931 . S
C324 C323 1.385 . S
C324 C325 1.389 . S
C325 C324 1.389 . S
C325 C326 1.387 . S
C326 H311 0.930 1_455 S
C326 C321 1.390 . S
C326 C325 1.387 . S
H327 C339 0.930 . S
H328 C341 0.930 . S
H329 C342 0.930 . S
H330 C346 0.959 . S
H331 C346 0.959 . S
H332 C346 0.961 . S
H333 C347 0.960 . S
H334 C347 0.961 . S
H335 C347 0.959 . S
H336 C350 0.929 . S
H337 C351 0.931 . S
H338 C353 0.930 1_565 S
C339 H327 0.930 . S
C339 C340 1.399 1_565 S
C339 C344 1.399 1_565 S
C340 C339 1.399 1_545 S
C340 C341 1.376 . S
C341 H328 0.930 . S
C341 C340 1.376 . S
C341 C342 1.388 . S
C342 H329 0.930 . S
C342 C341 1.388 . S
C342 C343 1.390 . S
C343 C342 1.390 . S
C343 C344 1.394 . S
C343 C349 1.465 . S
C344 C339 1.399 1_545 S
C344 C343 1.394 . S
C344 C345 1.516 1_545 S
C345 C344 1.516 1_565 S
C345 C346 1.502 . S
C345 C347 1.561 . S
C345 C348 1.526 1_565 S
C346 H330 0.959 . S
C346 H331 0.959 . S
C346 H332 0.961 . S
C346 C345 1.502 . S
C347 H333 0.960 . S
C347 H334 0.961 . S
C347 H335 0.959 . S
C347 C345 1.561 . S
C348 C345 1.526 1_545 S
C348 C349 1.396 . S
C348 C353 1.390 . S
C349 C343 1.465 . S
C349 C348 1.396 . S
C349 C350 1.399 . S
C350 H336 0.929 . S
C350 C349 1.399 . S
C350 C351 1.385 . S
C351 H337 0.931 . S
C351 C350 1.385 . S
C351 C352 1.389 . S
C352 C351 1.389 . S
C352 C353 1.387 . S
C353 H338 0.930 1_545 S
C353 C348 1.390 . S
C353 C352 1.387 . S
H354 C366 0.929 1_556 S
H355 C368 0.930 . S
H356 C369 0.930 . S
H357 C373 0.959 . S
H358 C373 0.959 . S
H359 C373 0.961 . S
H360 C374 0.960 . S
H361 C374 0.961 . S
H362 C374 0.959 . S
H363 C377 0.897 1_554 S
H364 C378 0.931 . S
H365 C380 0.930 . S
C366 H354 0.929 1_554 S
C366 C367 1.401 . S
C366 C371 1.398 1_554 S
C367 C366 1.401 . S
C367 C368 1.376 . S
C368 H355 0.930 . S
C368 C367 1.376 . S
C368 C369 1.388 . S
C369 H356 0.930 . S
C369 C368 1.388 . S
C369 C370 1.376 1_554 S
C370 C369 1.376 1_556 S
C370 C371 1.400 . S
C370 C376 1.475 . S
C371 C366 1.398 1_556 S
C371 C370 1.400 . S
C371 C372 1.516 . S
C372 C371 1.516 . S
C372 C373 1.502 . S
C372 C374 1.561 . S
C372 C375 1.526 . S
C373 H357 0.959 . S
C373 H358 0.959 . S
C373 H359 0.961 . S
C373 C372 1.502 . S
C374 H360 0.960 . S
C374 H361 0.961 . S
C374 H362 0.959 . S
C374 C372 1.561 . S
C375 C372 1.526 . S
C375 C376 1.396 . S
C375 C380 1.390 . S
C376 C370 1.475 . S
C376 C375 1.396 . S
C376 C377 1.399 . S
C377 H363 0.897 1_556 S
C377 C376 1.399 . S
C377 C378 1.385 . S
C378 H364 0.931 . S
C378 C377 1.385 . S
C378 C379 1.389 . S
C379 C378 1.389 . S
C379 C380 1.387 . S
C380 H365 0.930 . S
C380 C375 1.390 . S
C380 C379 1.387 . S
H381 C393 0.930 . S
H382 C395 0.930 . S
H383 C396 0.930 . S
H384 C400 0.959 . S
H385 C400 0.959 . S
H386 C400 0.961 . S
H387 C401 0.960 . S
H388 C401 0.961 . S
H389 C401 0.959 . S
H390 C404 0.929 . S
H391 C405 0.931 . S
H392 C407 0.930 . S
C393 H381 0.930 . S
C393 C394 1.399 . S
C393 C398 1.399 . S
C394 C393 1.399 . S
C394 C395 1.376 1_455 S
C395 H382 0.930 . S
C395 C394 1.376 1_655 S
C395 C396 1.388 . S
C396 H383 0.930 . S
C396 C395 1.388 . S
C396 C397 1.390 1_655 S
C397 C396 1.390 1_455 S
C397 C398 1.394 . S
C397 C403 1.465 . S
C398 C393 1.399 . S
C398 C397 1.394 . S
C398 C399 1.516 . S
C399 C398 1.516 . S
C399 C400 1.502 . S
C399 C401 1.561 . S
C399 C402 1.526 . S
C400 H384 0.959 . S
C400 H385 0.959 . S
C400 H386 0.961 . S
C400 C399 1.502 . S
C401 H387 0.960 . S
C401 H388 0.961 . S
C401 H389 0.959 . S
C401 C399 1.561 . S
C402 C399 1.526 . S
C402 C403 1.396 . S
C402 C407 1.390 . S
C403 C397 1.465 . S
C403 C402 1.396 . S
C403 C404 1.399 1_455 S
C404 H390 0.929 . S
C404 C403 1.399 1_655 S
C404 C405 1.385 . S
C405 H391 0.931 . S
C405 C404 1.385 . S
C405 C406 1.389 1_655 S
C406 C405 1.389 1_455 S
C406 C407 1.387 . S
C407 H392 0.930 . S
C407 C402 1.390 . S
C407 C406 1.387 . S
C109 C43 1.391 . S
C97 C11 1.392 . S
C124 C26 1.518 . S
C136 C69 1.500 . S
C151 C40 1.402 . S
C163 C71 1.393 . S
C178 C5 1.294 . S
C190 C55 1.387 . S
C217 C57 1.510 . S
C205 C18 1.496 . S
C232 C32 1.397 . S
C244 C83 1.394 . S
C271 C56 1.282 . S
C259 C39 1.273 . S
C286 C4 1.414 1_565 S
C298 C82 1.406 . S
C325 C42 1.395 . S
C313 C19 1.308 . S
C352 C68 1.334 . S
C340 C33 1.163 1_545 S
C379 C70 1.416 . S
C367 C12 1.389 . S
C394 C25 1.398 . S
C406 C54 1.415 . S
