# Generated by pormake.
# Topology iac, (4,6)-cn, num edge types: 1
# Building blocks:
#     Node 0, Type 0, BuildingBlock: GALJAG_clean_sbu_0, # of connection points: 4
#     Node 1, Type 0, BuildingBlock: GALJAG_clean_sbu_0, # of connection points: 4
#     Node 2, Type 0, BuildingBlock: GALJAG_clean_sbu_0, # of connection points: 4
#     Node 3, Type 0, BuildingBlock: GALJAG_clean_sbu_0, # of connection points: 4
#     Node 4, Type 0, BuildingBlock: GALJAG_clean_sbu_0, # of connection points: 4
#     Node 5, Type 0, BuildingBlock: GALJAG_clean_sbu_0, # of connection points: 4
#     Node 6, Type 0, BuildingBlock: GALJAG_clean_sbu_0, # of connection points: 4
#     Node 7, Type 0, BuildingBlock: GALJAG_clean_sbu_0, # of connection points: 4
#     Node 8, Type 0, BuildingBlock: GALJAG_clean_sbu_0, # of connection points: 4
#     Node 9, Type 0, BuildingBlock: GALJAG_clean_sbu_0, # of connection points: 4
#     Node 10, Type 0, BuildingBlock: GALJAG_clean_sbu_0, # of connection points: 4
#     Node 11, Type 0, BuildingBlock: GALJAG_clean_sbu_0, # of connection points: 4
#     Node 12, Type 0, BuildingBlock: GALJAG_clean_sbu_0, # of connection points: 4
#     Node 13, Type 0, BuildingBlock: GALJAG_clean_sbu_0, # of connection points: 4
#     Node 14, Type 0, BuildingBlock: GALJAG_clean_sbu_0, # of connection points: 4
#     Node 15, Type 0, BuildingBlock: GALJAG_clean_sbu_0, # of connection points: 4
#     Node 16, Type 0, BuildingBlock: GALJAG_clean_sbu_0, # of connection points: 4
#     Node 17, Type 0, BuildingBlock: GALJAG_clean_sbu_0, # of connection points: 4
#     Node 18, Type 0, BuildingBlock: GALJAG_clean_sbu_0, # of connection points: 4
#     Node 19, Type 0, BuildingBlock: GALJAG_clean_sbu_0, # of connection points: 4
#     Node 20, Type 0, BuildingBlock: GALJAG_clean_sbu_0, # of connection points: 4
#     Node 21, Type 0, BuildingBlock: GALJAG_clean_sbu_0, # of connection points: 4
#     Node 22, Type 0, BuildingBlock: GALJAG_clean_sbu_0, # of connection points: 4
#     Node 23, Type 0, BuildingBlock: GALJAG_clean_sbu_0, # of connection points: 4
#     Node 24, Type 1, BuildingBlock: FUNLAD_clean_sbu_0, # of connection points: 6
#     Node 25, Type 1, BuildingBlock: FUNLAD_clean_sbu_0, # of connection points: 6
#     Node 26, Type 1, BuildingBlock: FUNLAD_clean_sbu_0, # of connection points: 6
#     Node 27, Type 1, BuildingBlock: FUNLAD_clean_sbu_0, # of connection points: 6
#     Node 28, Type 1, BuildingBlock: FUNLAD_clean_sbu_0, # of connection points: 6
#     Node 29, Type 1, BuildingBlock: FUNLAD_clean_sbu_0, # of connection points: 6
#     Node 30, Type 1, BuildingBlock: FUNLAD_clean_sbu_0, # of connection points: 6
#     Node 31, Type 1, BuildingBlock: FUNLAD_clean_sbu_0, # of connection points: 6
#     Node 32, Type 1, BuildingBlock: FUNLAD_clean_sbu_0, # of connection points: 6
#     Node 33, Type 1, BuildingBlock: FUNLAD_clean_sbu_0, # of connection points: 6
#     Node 34, Type 1, BuildingBlock: FUNLAD_clean_sbu_0, # of connection points: 6
#     Node 35, Type 1, BuildingBlock: FUNLAD_clean_sbu_0, # of connection points: 6
#     Node 36, Type 1, BuildingBlock: FUNLAD_clean_sbu_0, # of connection points: 6
#     Node 37, Type 1, BuildingBlock: FUNLAD_clean_sbu_0, # of connection points: 6
#     Node 38, Type 1, BuildingBlock: FUNLAD_clean_sbu_0, # of connection points: 6
#     Node 39, Type 1, BuildingBlock: FUNLAD_clean_sbu_0, # of connection points: 6
#     Edge 40, Type (0, 1), None
#     Edge 41, Type (0, 1), None
#     Edge 42, Type (0, 1), None
#     Edge 43, Type (0, 1), None
#     Edge 44, Type (0, 1), None
#     Edge 45, Type (0, 1), None
#     Edge 46, Type (0, 1), None
#     Edge 47, Type (0, 1), None
#     Edge 48, Type (0, 1), None
#     Edge 49, Type (0, 1), None
#     Edge 50, Type (0, 1), None
#     Edge 51, Type (0, 1), None
#     Edge 52, Type (0, 1), None
#     Edge 53, Type (0, 1), None
#     Edge 54, Type (0, 1), None
#     Edge 55, Type (0, 1), None
#     Edge 56, Type (0, 1), None
#     Edge 57, Type (0, 1), None
#     Edge 58, Type (0, 1), None
#     Edge 59, Type (0, 1), None
#     Edge 60, Type (0, 1), None
#     Edge 61, Type (0, 1), None
#     Edge 62, Type (0, 1), None
#     Edge 63, Type (0, 1), None
#     Edge 64, Type (0, 1), None
#     Edge 65, Type (0, 1), None
#     Edge 66, Type (0, 1), None
#     Edge 67, Type (0, 1), None
#     Edge 68, Type (0, 1), None
#     Edge 69, Type (0, 1), None
#     Edge 70, Type (0, 1), None
#     Edge 71, Type (0, 1), None
#     Edge 72, Type (0, 1), None
#     Edge 73, Type (0, 1), None
#     Edge 74, Type (0, 1), None
#     Edge 75, Type (0, 1), None
#     Edge 76, Type (0, 1), None
#     Edge 77, Type (0, 1), None
#     Edge 78, Type (0, 1), None
#     Edge 79, Type (0, 1), None
#     Edge 80, Type (0, 1), None
#     Edge 81, Type (0, 1), None
#     Edge 82, Type (0, 1), None
#     Edge 83, Type (0, 1), None
#     Edge 84, Type (0, 1), None
#     Edge 85, Type (0, 1), None
#     Edge 86, Type (0, 1), None
#     Edge 87, Type (0, 1), None
#     Edge 88, Type (0, 1), None
#     Edge 89, Type (0, 1), None
#     Edge 90, Type (0, 1), None
#     Edge 91, Type (0, 1), None
#     Edge 92, Type (0, 1), None
#     Edge 93, Type (0, 1), None
#     Edge 94, Type (0, 1), None
#     Edge 95, Type (0, 1), None
#     Edge 96, Type (0, 1), None
#     Edge 97, Type (0, 1), None
#     Edge 98, Type (0, 1), None
#     Edge 99, Type (0, 1), None
#     Edge 100, Type (0, 1), None
#     Edge 101, Type (0, 1), None
#     Edge 102, Type (0, 1), None
#     Edge 103, Type (0, 1), None
#     Edge 104, Type (0, 1), None
#     Edge 105, Type (0, 1), None
#     Edge 106, Type (0, 1), None
#     Edge 107, Type (0, 1), None
#     Edge 108, Type (0, 1), None
#     Edge 109, Type (0, 1), None
#     Edge 110, Type (0, 1), None
#     Edge 111, Type (0, 1), None
#     Edge 112, Type (0, 1), None
#     Edge 113, Type (0, 1), None
#     Edge 114, Type (0, 1), None
#     Edge 115, Type (0, 1), None
#     Edge 116, Type (0, 1), None
#     Edge 117, Type (0, 1), None
#     Edge 118, Type (0, 1), None
#     Edge 119, Type (0, 1), None
#     Edge 120, Type (0, 1), None
#     Edge 121, Type (0, 1), None
#     Edge 122, Type (0, 1), None
#     Edge 123, Type (0, 1), None
#     Edge 124, Type (0, 1), None
#     Edge 125, Type (0, 1), None
#     Edge 126, Type (0, 1), None
#     Edge 127, Type (0, 1), None
#     Edge 128, Type (0, 1), None
#     Edge 129, Type (0, 1), None
#     Edge 130, Type (0, 1), None
#     Edge 131, Type (0, 1), None
#     Edge 132, Type (0, 1), None
#     Edge 133, Type (0, 1), None
#     Edge 134, Type (0, 1), None
#     Edge 135, Type (0, 1), None
# Relax obj value: 0.526
# Max RMSD: 0.393
# Mean RMSD: 0.193
data_MOF--net-iac--node1-GALJAG_clean_sbu_0--node2-FUNLAD_clean_sbu_0--edge1-none
_symmetry_space_group_name_H-M    P1
_symmetry_Int_Tables_number       1
_symmetry_cell_setting            triclinic
loop_
_symmetry_equiv_pos_as_xyz
'x, y, z'
_cell_length_a     24.428505
_cell_length_b     23.710119
_cell_length_c     30.717918
_cell_angle_alpha  87.950852
_cell_angle_beta   90.298812
_cell_angle_gamma 88.847351
loop_
_atom_site_label
_atom_site_type_symbol
_atom_site_fract_x
_atom_site_fract_y
_atom_site_fract_z
_atom_type_partial_charge
In0 In 0.16377 0.23058 0.1603 0.0
O1 O 0.15588 0.15276 0.12463 0.0
O2 O 0.09135 0.21686 0.11582 0.0
C3 C 0.20381 0.28044 0.09321 0.0
C4 C 0.10569 0.19743 0.22597 0.0
C5 C 0.23475 0.28455 0.20662 0.0
O6 O 0.22886 0.23759 0.11024 0.0
O7 O 0.15929 0.29709 0.11084 0.0
O8 O 0.18709 0.30539 0.19949 0.0
O9 O 0.24493 0.23589 0.19179 0.0
C10 C 0.11116 0.16902 0.10599 0.0
O11 O 0.14428 0.16569 0.21267 0.0
O12 O 0.09768 0.2449 0.20605 0.0
In13 In 0.10502 0.78139 0.41903 0.0
O14 O 0.15452 0.75537 0.35619 0.0
O15 O 0.19778 0.79934 0.40276 0.0
C16 C 1.00654 0.78794 0.37092 0.0
C17 C 0.11903 0.68264 0.46977 0.0
C18 C 0.09349 0.87456 0.47233 0.0
O19 O 0.04891 0.81493 0.36062 0.0
O20 O 1.013 0.75827 0.40557 0.0
O21 O 0.07669 0.82613 0.48311 0.0
O22 O 0.11495 0.87641 0.43496 0.0
C23 C 0.19981 0.77603 0.36645 0.0
O24 O 0.13833 0.72914 0.4804 0.0
O25 O 0.09375 0.68557 0.43379 0.0
In26 In 0.66378 0.73057 0.66031 0.0
O27 O 0.72887 0.73759 0.61024 0.0
O28 O 0.6593 0.79709 0.61086 0.0
C29 C 0.61117 0.66901 0.606 0.0
C30 C 0.73478 0.78452 0.70663 0.0
C31 C 0.6057 0.69743 0.72598 0.0
O32 O 0.6559 0.65275 0.62464 0.0
O33 O 0.59136 0.71685 0.61583 0.0
O34 O 0.64429 0.66569 0.71269 0.0
O35 O 0.5977 0.7449 0.70606 0.0
C36 C 0.70382 0.78044 0.59322 0.0
O37 O 0.68712 0.80537 0.6995 0.0
O38 O 0.74495 0.73587 0.6918 0.0
In39 In 0.60501 0.2814 0.91903 0.0
O40 O 0.65451 0.25538 0.85619 0.0
O41 O 0.69777 0.29934 0.90276 0.0
C42 C 0.50654 0.28794 0.87092 0.0
C43 C 0.61902 0.18265 0.96977 0.0
C44 C 0.59348 0.37456 0.97234 0.0
O45 O 0.5489 0.31494 0.86063 0.0
O46 O 0.51299 0.25827 0.90557 0.0
O47 O 0.57668 0.32613 0.98312 0.0
O48 O 0.61494 0.37642 0.93496 0.0
C49 C 0.69981 0.27603 0.86646 0.0
O50 O 0.63833 0.22914 0.9804 0.0
O51 O 0.59374 0.18558 0.93379 0.0
In52 In 0.24474 0.03455 0.24272 0.0
O53 O 0.32238 0.98192 0.25394 0.0
O54 O 0.24827 0.93943 0.24043 0.0
C55 C 0.30509 0.12774 0.24477 0.0
C56 C 0.18569 0.02168 0.16803 0.0
C57 C 0.20407 0.04783 0.32454 0.0
O58 O 0.32733 0.08099 0.23621 0.0
O59 O 0.25359 0.12762 0.24685 0.0
O60 O 0.18386 0.07446 0.29174 0.0
O61 O 0.24026 0.01168 0.31529 0.0
C62 C 0.29889 0.93579 0.24863 0.0
O63 O 0.16509 0.01515 0.20544 0.0
O64 O 0.2346 0.03805 0.16818 0.0
In65 In 0.35719 0.89253 0.5884 0.0
O66 O 0.30554 0.97599 0.58699 0.0
O67 O 0.26275 0.89886 0.58817 0.0
C68 C 0.45585 0.94088 0.56997 0.0
C69 C 0.35204 0.82831 0.6639 0.0
C70 C 0.36184 0.85391 0.5085 0.0
O71 O 0.41285 0.96954 0.57734 0.0
O72 O 0.45115 0.88875 0.57778 0.0
O73 O 0.38595 0.82804 0.53983 0.0
O74 O 0.32961 0.89309 0.51895 0.0
C75 C 0.25957 0.95222 0.58651 0.0
O76 O 0.34533 0.80753 0.62707 0.0
O77 O 0.36204 0.88056 0.66267 0.0
In78 In 0.49374 0.0246 0.74931 0.0
O79 O 0.41131 0.07469 0.75123 0.0
O80 O 0.48394 0.1222 0.74787 0.0
C81 C 0.43911 0.92799 0.77021 0.0
C82 C 0.55811 0.02373 0.67606 0.0
C83 C 0.53434 0.01793 0.8297 0.0
O84 O 0.41447 0.97413 0.76036 0.0
O85 O 0.48997 0.92878 0.76402 0.0
O86 O 0.54686 0.98196 0.8022 0.0
O87 O 0.50911 0.06113 0.8146 0.0
C88 C 0.4323 0.12307 0.75124 0.0
O89 O 0.5775 0.03243 0.71324 0.0
O90 O 0.50681 0.01701 0.67562 0.0
In91 In 0.41667 0.21716 0.06467 0.0
O92 O 0.46146 0.14993 0.10662 0.0
O93 O 0.45888 0.14319 0.03712 0.0
C94 C 0.32047 0.16932 0.07052 0.0
C95 C 0.46295 0.29646 0.11075 0.0
C96 C 0.39626 0.24265 0.98275 0.0
O97 O 0.36132 0.14884 0.09109 0.0
O98 O 0.32513 0.2199 0.05762 0.0
O99 O 0.37437 0.27003 0.01273 0.0
O100 O 0.43746 0.21238 0.99402 0.0
C101 C 0.47356 0.12176 0.07365 0.0
O102 O 0.48961 0.27082 0.08227 0.0
O103 O 0.41328 0.28319 0.11402 0.0
In104 In 0.85718 0.39255 0.0884 0.0
O105 O 0.84533 0.30754 0.12708 0.0
O106 O 0.86203 0.38057 0.16268 0.0
C107 C 0.86183 0.35393 0.0085 0.0
C108 C 0.75956 0.45222 0.08652 0.0
C109 C 0.95585 0.44089 0.06997 0.0
O110 O 0.88593 0.32804 0.03984 0.0
O111 O 0.82962 0.39312 0.01895 0.0
O112 O 0.91284 0.46955 0.07734 0.0
O113 O 0.95115 0.38876 0.07779 0.0
C114 C 0.85203 0.32832 0.1639 0.0
O115 O 0.80553 0.476 0.087 0.0
O116 O 0.76274 0.39886 0.08817 0.0
In117 In 0.99374 0.52459 0.24932 0.0
O118 O 0.0775 0.53243 0.21325 0.0
O119 O 1.00682 0.517 0.17563 0.0
C120 C 1.03435 0.51793 0.3297 0.0
C121 C 0.9323 0.62306 0.25124 0.0
C122 C 0.93911 0.42798 0.27022 0.0
O123 O 0.04687 0.48196 0.30221 0.0
O124 O 1.00912 0.56112 0.3146 0.0
O125 O 0.91448 0.47413 0.26038 0.0
O126 O 0.98997 0.42877 0.26402 0.0
C127 C 0.05811 0.52373 0.17606 0.0
O128 O 0.91131 0.57469 0.25123 0.0
O129 O 0.98394 0.62219 0.24788 0.0
In130 In 0.91667 0.71714 0.56468 0.0
O131 O 0.96145 0.64992 0.60663 0.0
O132 O 0.95888 0.64318 0.53712 0.0
C133 C 0.82046 0.6693 0.57053 0.0
C134 C 0.96295 0.79644 0.61075 0.0
C135 C 0.89625 0.74264 0.48276 0.0
O136 O 0.86132 0.64882 0.5911 0.0
O137 O 0.82512 0.71988 0.55763 0.0
O138 O 0.87435 0.77002 0.51274 0.0
O139 O 0.93745 0.71237 0.49403 0.0
C140 C 0.97355 0.62174 0.57365 0.0
O141 O 0.98961 0.7708 0.58227 0.0
O142 O 0.91328 0.78317 0.61403 0.0
In143 In 0.74474 0.53454 0.74273 0.0
O144 O 0.82238 0.48191 0.75397 0.0
O145 O 0.74827 0.43942 0.74043 0.0
C146 C 0.80511 0.62771 0.74478 0.0
C147 C 0.68569 0.52166 0.66804 0.0
C148 C 0.70406 0.54782 0.82454 0.0
O149 O 0.82734 0.58096 0.73623 0.0
O150 O 0.7536 0.62761 0.74685 0.0
O151 O 0.68387 0.57447 0.79174 0.0
O152 O 0.74023 0.51166 0.8153 0.0
C153 C 0.79889 0.43578 0.74864 0.0
O154 O 0.66509 0.51513 0.70545 0.0
O155 O 0.7346 0.53804 0.66819 0.0
In156 In 0.04472 0.8241 0.93084 0.0
O157 O 0.06601 0.8878 0.87805 0.0
O158 O 0.11151 0.80811 0.88599 0.0
C159 C 0.97261 0.77217 0.88401 0.0
C160 C 1.00596 0.77188 -0.00253 0.0
C161 C 0.09605 0.88674 0.98533 0.0
O162 O 1.01999 0.75057 0.89085 0.0
O163 O 0.96318 0.82068 0.89937 0.0
O164 O 0.05125 0.90233 0.96648 0.0
O165 O 0.1165 0.83917 0.97565 0.0
C166 C 0.10442 0.85532 0.86551 0.0
O167 O 0.98035 0.81483 0.98127 0.0
O168 O 0.05047 0.75626 0.97931 0.0
In169 In 0.10533 0.27264 0.67184 0.0
O170 O 0.07244 0.32504 0.61038 0.0
O171 O 0.11738 0.36835 0.65693 0.0
C172 C 0.11663 0.17918 0.61879 0.0
C173 C 0.20374 0.26508 0.72004 0.0
C174 C 1.01028 0.27914 0.72408 0.0
O175 O 0.13358 0.22753 0.60791 0.0
O176 O 0.09499 0.17758 0.6561 0.0
O177 O 0.05565 0.29965 0.73435 0.0
O178 O 1.01242 0.2553 0.68799 0.0
C179 C 0.09204 0.37142 0.62097 0.0
O180 O 0.16108 0.23861 0.73037 0.0
O181 O 0.19754 0.29486 0.68541 0.0
In182 In 0.5447 0.32411 0.43084 0.0
O183 O 0.566 0.38781 0.37806 0.0
O184 O 0.6115 0.30811 0.386 0.0
C185 C 0.47258 0.2722 0.384 0.0
C186 C 0.50593 0.27186 0.49745 0.0
C187 C 0.59602 0.38673 0.48534 0.0
O188 O 0.51996 0.25059 0.39084 0.0
O189 O 0.46316 0.3207 0.39936 0.0
O190 O 0.55123 0.40232 0.46649 0.0
O191 O 0.61647 0.33916 0.47565 0.0
C192 C 0.60442 0.35532 0.36552 0.0
O193 O 0.48033 0.31482 0.48126 0.0
O194 O 0.55044 0.25625 0.47929 0.0
In195 In 0.60534 0.77264 0.17184 0.0
O196 O 0.63358 0.72753 0.10791 0.0
O197 O 0.59498 0.67759 0.1561 0.0
C198 C 0.59204 0.87143 0.12097 0.0
C199 C 0.51029 0.77916 0.22408 0.0
C200 C 0.70375 0.76509 0.22003 0.0
O201 O 0.57244 0.82504 0.11038 0.0
O202 O 0.61738 0.86835 0.15693 0.0
O203 O 0.66108 0.73861 0.23036 0.0
O204 O 0.69755 0.79486 0.18541 0.0
C205 C 0.61663 0.67919 0.11879 0.0
O206 O 0.55565 0.79967 0.23435 0.0
O207 O 0.51242 0.75531 0.18799 0.0
In208 In 0.96388 0.0214 0.84803 0.0
O209 O 1.02481 0.9802 0.79962 0.0
O210 O 0.96944 0.04354 0.77542 0.0
C211 C 1.02197 0.03444 0.92308 0.0
C212 C 0.9106 0.12048 0.8417 0.0
C213 C 0.90226 0.92922 0.84613 0.0
O214 O 0.04305 0.04068 0.88582 0.0
O215 O 0.97303 0.01821 0.92264 0.0
O216 O 0.8805 0.97658 0.85347 0.0
O217 O 0.95385 0.92834 0.84513 0.0
C218 C 1.00527 0.00684 0.76657 0.0
O219 O 0.88672 0.07452 0.83662 0.0
O220 O 0.96123 0.11652 0.8498 0.0
In221 In 0.85261 0.15923 0.50239 0.0
O222 O 0.90506 0.07637 0.50356 0.0
O223 O 0.94706 0.15397 0.50354 0.0
C224 C 0.75404 0.1105 0.52047 0.0
C225 C 0.84731 0.19806 0.58217 0.0
C226 C 0.8581 0.22321 0.42682 0.0
O227 O 0.79716 0.082 0.51318 0.0
O228 O 0.75859 0.16266 0.5127 0.0
O229 O 0.86384 0.24426 0.46365 0.0
O230 O 0.84874 0.17082 0.42807 0.0
C231 C 0.95075 0.10064 0.5047 0.0
O232 O 0.82445 0.22453 0.55052 0.0
O233 O 0.87856 0.15783 0.57219 0.0
In234 In 0.71652 0.02709 0.34131 0.0
O235 O 0.79897 0.97704 0.34016 0.0
O236 O 0.72624 0.92959 0.34225 0.0
C237 C 0.77129 0.12359 0.32055 0.0
C238 C 0.67619 0.03449 0.26089 0.0
C239 C 0.65196 0.02754 0.4144 0.0
O240 O 0.79585 0.07726 0.32984 0.0
O241 O 0.72053 0.12301 0.3273 0.0
O242 O 0.63273 0.01866 0.3772 0.0
O243 O 0.7032 0.03464 0.41495 0.0
C244 C 0.77795 0.92872 0.33956 0.0
O245 O 0.66335 0.07004 0.28862 0.0
O246 O 0.70156 0.99123 0.27574 0.0
In247 In 0.79351 0.83667 0.02614 0.0
O248 O 0.74915 0.90412 0.98421 0.0
O249 O 0.75213 0.91115 0.05368 0.0
C250 C 0.88972 0.88433 0.02002 0.0
C251 C 0.81374 0.81094 0.10802 0.0
C252 C 0.74582 0.75809 0.98024 0.0
O253 O 0.8491 0.90418 -0.00118 0.0
O254 O 0.88503 0.83399 0.03353 0.0
O255 O 0.79581 0.7702 0.97707 0.0
O256 O 0.71971 0.78427 0.00873 0.0
C257 C 0.73743 0.93253 0.01714 0.0
O258 O 0.83534 0.78334 0.07803 0.0
O259 O 0.77289 0.84175 0.09677 0.0
In260 In 0.3526 0.65925 0.00239 0.0
O261 O 0.3244 0.72454 0.05051 0.0
O262 O 0.3786 0.65791 0.07218 0.0
C263 C 0.35809 0.72323 0.92682 0.0
C264 C 0.45074 0.60064 0.0047 0.0
C265 C 0.25405 0.61051 0.02048 0.0
O266 O 0.36384 0.74428 0.96365 0.0
O267 O 0.34872 0.67084 0.92807 0.0
O268 O 0.29717 0.58201 0.0132 0.0
O269 O 0.25859 0.66266 0.01271 0.0
C270 C 0.34731 0.6981 0.08217 0.0
O271 O 0.40504 0.57638 0.00359 0.0
O272 O 0.44705 0.65397 0.00351 0.0
In273 In 0.21652 0.52709 0.84132 0.0
O274 O 0.29897 0.47704 0.84017 0.0
O275 O 0.22624 0.42959 0.84226 0.0
C276 C 0.27129 0.6236 0.82056 0.0
C277 C 0.17619 0.53449 0.76089 0.0
C278 C 0.15196 0.52755 0.91441 0.0
O279 O 0.29585 0.57726 0.82986 0.0
O280 O 0.22053 0.62301 0.8273 0.0
O281 O 0.13274 0.51867 0.8772 0.0
O282 O 0.2032 0.53465 0.91496 0.0
C283 C 0.27794 0.42873 0.83957 0.0
O284 O 0.16335 0.57004 0.78863 0.0
O285 O 0.20156 0.49124 0.77575 0.0
In286 In 0.29351 0.33667 0.52615 0.0
O287 O 0.33533 0.28333 0.57803 0.0
O288 O 0.27288 0.34174 0.59678 0.0
C289 C 0.24581 0.2581 0.48023 0.0
C290 C 0.23743 0.43254 0.51714 0.0
C291 C 0.38972 0.38433 0.52004 0.0
O292 O 0.2958 0.27021 0.47707 0.0
O293 O 0.21971 0.28429 0.50873 0.0
O294 O 0.3491 0.40418 0.49883 0.0
O295 O 0.38503 0.33399 0.53354 0.0
C296 C 0.31373 0.31093 0.60803 0.0
O297 O 0.24915 0.40412 0.48422 0.0
O298 O 0.25213 0.41116 0.55369 0.0
In299 In 0.46388 0.52141 0.34804 0.0
O300 O 0.5248 0.4802 0.29963 0.0
O301 O 0.46945 0.54356 0.27543 0.0
C302 C 0.52197 0.53444 0.42309 0.0
C303 C 0.41061 0.6205 0.3417 0.0
C304 C 0.40224 0.42925 0.34612 0.0
O305 O 0.54305 0.54068 0.38583 0.0
O306 O 0.47302 0.51821 0.42265 0.0
O307 O 0.38048 0.47661 0.35347 0.0
O308 O 0.45384 0.42836 0.34513 0.0
C309 C 0.50527 0.50685 0.26658 0.0
O310 O 0.38672 0.57454 0.33664 0.0
O311 O 0.46125 0.61654 0.3498 0.0
C312 C 0.05291 0.04113 0.96407 0.0
N313 N 0.99338 0.99243 0.08664 0.0
C314 C 0.95134 0.01568 0.06258 0.0
C315 C 0.91791 0.98078 0.03904 0.0
C316 C 0.92574 0.92201 0.04333 0.0
C317 C 0.962 0.8999 0.07554 0.0
C318 C 0.9945 0.93658 0.09826 0.0
Zn319 Zn 0.06653 0.01966 0.06484 0.0
C320 C 0.11888 0.92175 0.01836 0.0
N321 N 0.21371 0.06346 0.00484 0.0
C322 C 0.21312 0.11941 0.99355 0.0
C323 C 0.25583 0.03937 0.02834 0.0
C324 C 0.29038 0.07354 0.05152 0.0
C325 C 0.28342 0.13241 0.04752 0.0
C326 C 0.24679 0.15533 0.0159 0.0
Zn327 Zn 0.14045 0.03653 0.02643 0.0
O328 O 1.02927 0.03254 0.00036 0.0
C329 C 0.08794 0.13449 0.07283 0.0
O330 O 0.10396 0.04986 0.96378 0.0
H331 H 0.25622 0.99446 0.03594 0.0
H332 H 0.95036 0.06057 0.05485 0.0
H333 H 0.18002 0.13742 0.97369 0.0
O334 O 0.04986 0.10167 0.08402 0.0
O335 O 0.12246 0.11888 0.045 0.0
H336 H 1.02747 0.91923 0.11858 0.0
O337 O 0.17778 0.02378 0.09081 0.0
O338 O 0.10332 1.00626 0.12759 0.0
O339 O 0.1571 0.95447 0.00729 0.0
O340 O 0.08429 0.93741 0.04609 0.0
C341 C 0.15438 0.01508 0.12717 0.0
H342 H 0.88789 0.99961 0.01656 0.0
H343 H 0.96687 0.85483 0.08182 0.0
H344 H 0.32056 0.05408 0.07356 0.0
H345 H 0.24257 0.20048 0.0098 0.0
C346 C 0.4591 0.7822 0.2517 0.0
N347 N 0.30776 0.72112 0.21395 0.0
C348 C 0.27997 0.75272 0.18284 0.0
C349 C 0.29182 0.74607 0.13885 0.0
C350 C 0.33168 0.70593 0.12747 0.0
C351 C 0.35411 0.66933 0.15978 0.0
C352 C 0.34133 0.6774 0.20289 0.0
Zn353 Zn 0.33127 0.75735 0.26986 0.0
C354 C 0.38473 0.67449 0.33023 0.0
N355 N 0.40216 0.83478 0.37638 0.0
C356 C 0.36762 0.87744 0.38795 0.0
C357 C 0.43057 0.80317 0.40712 0.0
C358 C 0.4184 0.8085 0.45119 0.0
C359 C 0.37755 0.84732 0.46305 0.0
C360 C 0.3544 0.8841 0.43117 0.0
Zn361 Zn 0.37859 0.79886 0.3204 0.0
O362 O 0.41416 0.7623 0.23803 0.0
C363 C 0.32507 0.88187 0.26007 0.0
O364 O 0.45902 0.8039 0.28916 0.0
H365 H 0.4586 0.77006 0.3976 0.0
H366 H 0.25264 0.78666 0.19192 0.0
H367 H 0.34426 0.90203 0.364 0.0
O368 O 0.30797 0.83747 0.24352 0.0
O369 O 0.35762 0.87835 0.29215 0.0
H370 H 0.36422 0.65273 0.22706 0.0
O371 O 0.29581 0.79335 0.35238 0.0
O372 O 0.25078 0.75249 0.30097 0.0
O373 O 0.40221 0.71886 0.34655 0.0
O374 O 0.35185 0.67803 0.29838 0.0
C375 C 0.25084 0.77361 0.33863 0.0
H376 H 0.27183 0.7734 0.11436 0.0
H377 H 0.38354 0.63635 0.15217 0.0
H378 H 0.43896 0.78113 0.47536 0.0
H379 H 0.32418 0.91613 0.43916 0.0
C380 C 0.58981 0.02855 0.63505 0.0
N381 N 0.67421 0.91688 0.55287 0.0
C382 C 0.72126 0.91299 0.57679 0.0
C383 C 0.75164 0.86263 0.57799 0.0
C384 C 0.72759 0.81598 0.55954 0.0
C385 C 0.69085 0.82586 0.52504 0.0
C386 C 0.66097 0.87634 0.52454 0.0
Zn387 Zn 0.62842 0.98702 0.5516 0.0
C388 C 0.50755 0.96672 0.55459 0.0
N389 N 0.53595 0.13421 0.53742 0.0
C390 C 0.54926 0.1747 0.56576 0.0
C391 C 0.48912 0.13831 0.51328 0.0
C392 C 0.45897 0.18879 0.51191 0.0
C393 C 0.48284 0.23527 0.53073 0.0
C394 C 0.51963 0.22531 0.56517 0.0
Zn395 Zn 0.58159 0.06408 0.53876 0.0
O396 O 0.62113 0.98869 0.62249 0.0
C397 C 0.7024 0.08448 0.53576 0.0
O398 O 0.57379 0.06602 0.60735 0.0
H399 H 0.47709 0.10399 0.49329 0.0
H400 H 0.73333 0.94738 0.59669 0.0
H401 H 0.58464 0.16914 0.58689 0.0
O402 O 0.70259 0.03269 0.54741 0.0
O403 O 0.65695 0.1118 0.53456 0.0
H404 H 0.62552 0.88178 0.50347 0.0
O405 O 0.58895 0.06249 0.46794 0.0
O406 O 0.63609 0.98501 0.48299 0.0
O407 O 0.50742 0.01847 0.54284 0.0
O408 O 0.55298 0.93933 0.55588 0.0
C409 C 0.62015 0.02258 0.45533 0.0
H410 H 0.78429 0.85689 0.60188 0.0
H411 H 0.67531 0.79101 0.50706 0.0
H412 H 0.42658 0.1947 0.48782 0.0
H413 H 0.53531 0.26008 0.58316 0.0
C414 C 0.40092 0.17476 0.76313 0.0
N415 N 0.30453 0.20452 0.87237 0.0
C416 C 0.34461 0.16732 0.88615 0.0
C417 C 0.37665 0.18008 0.92185 0.0
C418 C 0.3632 0.2283 0.94508 0.0
C419 C 0.3128 0.25617 0.93652 0.0
C420 C 0.2819 0.24057 0.90087 0.0
Zn421 Zn 0.33256 0.24916 0.81908 0.0
C422 C 0.4551 0.2886 0.8434 0.0
N423 N 0.40584 0.34763 0.71854 0.0
C424 C 0.42811 0.31147 0.68995 0.0
C425 C 0.36605 0.38523 0.70489 0.0
C426 C 0.33384 0.37291 0.66919 0.0
C427 C 0.34687 0.32472 0.64578 0.0
C428 C 0.39704 0.29635 0.65426 0.0
Zn429 Zn 0.37788 0.3029 0.77179 0.0
O430 O 0.36538 0.17192 0.793 0.0
C431 C 0.25527 0.26384 0.74749 0.0
O432 O 0.41373 0.22325 0.74805 0.0
H433 H 0.35339 0.41941 0.72509 0.0
H434 H 0.35761 0.13317 0.86605 0.0
H435 H 0.46473 0.28719 0.6987 0.0
O436 O 0.25694 0.23767 0.78433 0.0
O437 O 0.29771 0.29101 0.73552 0.0
H438 H 0.24514 0.26456 0.892 0.0
O439 O 0.34506 0.38008 0.79791 0.0
O440 O 0.29668 0.32866 0.84277 0.0
O441 O 0.45342 0.31452 0.80647 0.0
O442 O 0.41275 0.26128 0.85539 0.0
C443 C 0.30949 0.37716 0.82775 0.0
H444 H 0.4123 0.15383 0.93006 0.0
H445 H 0.29807 0.29006 0.95639 0.0
H446 H 0.2984 0.39951 0.66107 0.0
H447 H 0.41148 0.26246 0.63426 0.0
C448 C 0.20699 0.983 0.57692 0.0
N449 N 0.16252 0.07332 0.45814 0.0
C450 C 0.20565 0.03908 0.44745 0.0
C451 C 0.22012 0.03186 0.40417 0.0
C452 C 0.19025 0.05968 0.37053 0.0
C453 C 0.14865 0.0982 0.38192 0.0
C454 C 0.13521 0.10425 0.42615 0.0
Zn455 Zn 0.12581 0.05099 0.5182 0.0
C456 C 0.09184 0.92458 0.50124 0.0
N457 N 0.0477 0.98025 0.63328 0.0
C458 C 0.0751 0.94985 0.66552 0.0
C459 C 1.00417 0.01412 0.64367 0.0
C460 C 0.98943 0.02163 0.68684 0.0
C461 C 1.01938 0.99446 0.72072 0.0
C462 C 0.06136 0.95616 0.70968 0.0
Zn463 Zn 0.0846 1.00244 0.5732 0.0
O464 O 0.20373 0.01828 0.54476 0.0
C465 C 0.11843 0.12898 0.59005 0.0
O466 O 0.16321 0.96872 0.59627 0.0
H467 H 0.9832 0.04007 0.61922 0.0
H468 H 0.22642 0.01266 0.47172 0.0
H469 H 0.11009 0.92364 0.65763 0.0
O470 O 0.13762 0.13097 0.55127 0.0
O471 O 0.09758 0.08306 0.60421 0.0
H472 H 0.10054 0.13075 0.43431 0.0
O473 O 1.00676 0.0349 0.54651 0.0
O474 O 0.04723 0.08478 0.49518 0.0
O475 O 0.07287 0.92242 0.5401 0.0
O476 O 0.11264 0.97054 0.48713 0.0
C477 C 1.00346 0.07024 0.51442 0.0
H478 H 0.25317 1.00244 0.39719 0.0
H479 H 0.12522 0.12152 0.35697 0.0
H480 H 0.95606 0.0508 0.69355 0.0
H481 H 0.08487 0.93333 0.73483 0.0
C482 C 0.34609 0.79623 0.70576 0.0
N483 N 0.46249 0.70744 0.78381 0.0
C484 C 0.46793 0.66809 0.75299 0.0
C485 C 0.51998 0.65193 0.73946 0.0
C486 C 0.56526 0.67852 0.75707 0.0
C487 C 0.55881 0.71086 0.79389 0.0
C488 C 0.50617 0.72534 0.80677 0.0
Zn489 Zn 0.39169 0.74986 0.78989 0.0
C490 C 0.4108 0.87661 0.78594 0.0
N491 N 0.2479 0.84404 0.80712 0.0
C492 C 0.204 0.8259 0.78455 0.0
C493 C 0.24275 0.88344 0.83792 0.0
C494 C 0.19085 0.89956 0.85181 0.0
C495 C 0.14538 0.87302 0.83445 0.0
C496 C 0.15149 0.84031 0.79779 0.0
Zn497 Zn 0.31867 0.80167 0.80085 0.0
O498 O 0.38376 0.76219 0.71968 0.0
C499 C 0.29958 0.67495 0.80481 0.0
O500 O 0.31078 0.81398 0.73236 0.0
H501 H 0.27858 0.8974 0.855 0.0
H502 H 0.43227 0.65422 0.73565 0.0
H503 H 0.20952 0.79508 0.75976 0.0
O504 O 0.34956 0.67236 0.79389 0.0
O505 O 0.27527 0.72289 0.80516 0.0
H506 H 0.50043 0.75606 0.83161 0.0
O507 O 0.32675 0.7896 0.87107 0.0
O508 O 0.39933 0.73727 0.85834 0.0
O509 O 0.36074 0.87917 0.79661 0.0
O510 O 0.43518 0.82868 0.78582 0.0
C511 C 0.36418 0.75525 0.88496 0.0
H512 H 0.52405 0.62722 0.71058 0.0
H513 H 0.59329 0.73217 0.80779 0.0
H514 H 0.18705 0.92443 0.88062 0.0
H515 H 0.11688 0.81893 0.78417 0.0
C516 C 0.59 0.92414 0.09271 0.0
N517 N 0.66864 0.06926 0.12562 0.0
C518 C 0.64408 0.10656 0.15239 0.0
C519 C 0.64602 0.09646 0.19741 0.0
C520 C 0.67414 0.04823 0.21417 0.0
C521 C 0.70525 0.01545 0.18615 0.0
C522 C 0.70262 0.02727 0.1418 0.0
Zn523 Zn 0.6288 0.04783 0.07088 0.0
C524 C 0.69852 0.97886 0.01574 0.0
N525 N 0.54256 0.98487 0.96517 0.0
C526 C 0.50884 0.02697 0.9488 0.0
C527 C 0.5668 0.94712 0.9386 0.0
C528 C 0.56463 0.95664 0.89353 0.0
C529 C 0.53667 1.00483 0.8765 0.0
C530 C 0.506 0.03823 0.90438 0.0
Zn531 Zn 0.58228 1.00639 0.01991 0.0
O532 O 0.61412 0.96758 0.10559 0.0
C533 C 0.51251 0.07544 0.07502 0.0
O534 O 0.56816 0.92625 0.05485 0.0
H535 H 0.5927 0.9133 0.95214 0.0
H536 H 0.61808 0.1404 0.13901 0.0
H537 H 0.49001 0.05718 0.96974 0.0
O538 O 0.55696 0.08275 0.09481 0.0
O539 O 0.51079 0.04142 0.04432 0.0
H540 H 0.7218 0.99746 0.12072 0.0
O541 O 0.5971 0.08652 0.98518 0.0
O542 O 0.64284 0.12799 0.03597 0.0
O543 O 0.65404 0.97144 0.99604 0.0
O544 O 0.70029 0.01294 0.04638 0.0
C545 C 0.62114 0.12999 -0.00194 0.0
H546 H 0.62369 0.12428 0.21853 0.0
H547 H 0.7296 0.97937 0.1981 0.0
H548 H 0.58666 0.9284 0.87254 0.0
H549 H 0.48182 0.07434 0.89226 0.0
C550 C 0.33438 0.17569 0.26152 0.0
N551 N 0.44312 0.30002 0.22761 0.0
C552 C 0.48511 0.26554 0.21569 0.0
C553 C 0.5119 0.27702 0.17645 0.0
C554 C 0.48933 0.31966 0.14855 0.0
C555 C 0.45898 0.36308 0.16719 0.0
C556 C 0.43368 0.351 0.20677 0.0
Zn557 Zn 0.3875 0.2755 0.2722 0.0
C558 C 0.27287 0.30815 0.2371 0.0
N559 N 0.26406 0.25737 0.36286 0.0
C560 C 0.27338 0.20591 0.38299 0.0
C561 C 0.22261 0.29196 0.37563 0.0
C562 C 0.19637 0.27989 0.41501 0.0
C563 C 0.21887 0.23633 0.44212 0.0
C564 C 0.2485 0.19312 0.42261 0.0
Zn565 Zn 0.3195 0.28217 0.3182 0.0
O566 O 0.37862 0.19423 0.24547 0.0
C567 C 0.43411 0.24955 0.35332 0.0
O568 O 0.30999 0.20281 0.29072 0.0
H569 H 0.21415 0.33152 0.35801 0.0
H570 H 0.49368 0.22643 0.23388 0.0
H571 H 0.30494 0.17774 0.37132 0.0
O572 O 0.44928 0.2479 0.31408 0.0
O573 O 0.38365 0.25599 0.36195 0.0
H574 H 0.40182 0.37922 0.21791 0.0
O575 O 0.32842 0.36328 0.34493 0.0
O576 O 0.39707 0.35484 0.29962 0.0
O577 O 0.25767 0.30974 0.27635 0.0
O578 O 0.32337 0.30189 0.2285 0.0
C579 C 0.37269 0.38181 0.32891 0.0
H580 H 0.53876 0.24459 0.16384 0.0
H581 H 0.44377 0.39869 0.14725 0.0
H582 H 0.17006 0.31229 0.42833 0.0
H583 H 0.26372 0.15694 0.44192 0.0
C584 C 0.70698 0.48301 0.07692 0.0
N585 N 0.66251 0.57332 0.95815 0.0
C586 C 0.70563 0.53907 0.94745 0.0
C587 C 0.7201 0.53185 0.90418 0.0
C588 C 0.69023 0.55967 0.87054 0.0
C589 C 0.64864 0.59821 0.88193 0.0
C590 C 0.63521 0.60426 0.92616 0.0
Zn591 Zn 0.62579 0.551 0.0182 0.0
C592 C 0.59183 0.42458 0.00125 0.0
N593 N 0.54769 0.48025 0.13329 0.0
C594 C 0.57509 0.44985 0.16553 0.0
C595 C 0.50416 0.51413 0.14367 0.0
C596 C 0.48943 0.52165 0.18685 0.0
C597 C 0.51938 0.49447 0.22073 0.0
C598 C 0.56134 0.45617 0.20968 0.0
Zn599 Zn 0.58459 0.50244 0.0732 0.0
O600 O 0.70372 0.51828 0.04477 0.0
C601 C 0.61842 0.62899 0.09005 0.0
O602 O 0.6632 0.46873 0.09627 0.0
H603 H 0.4832 0.54009 0.11923 0.0
H604 H 0.72639 0.51264 0.97172 0.0
H605 H 0.61007 0.42363 0.15764 0.0
O606 O 0.63761 0.63097 0.05127 0.0
O607 O 0.59757 0.58306 0.10421 0.0
H608 H 0.60054 0.63076 0.93431 0.0
O609 O 0.50674 0.53491 0.04652 0.0
O610 O 0.54721 0.58478 0.99519 0.0
O611 O 0.57285 0.42242 0.0401 0.0
O612 O 0.61262 0.47054 0.98714 0.0
C613 C 0.50345 0.57025 0.01442 0.0
H614 H 0.75315 0.50242 0.8972 0.0
H615 H 0.62523 0.62153 0.85698 0.0
H616 H 0.45606 0.55082 0.19356 0.0
H617 H 0.58486 0.43333 0.23483 0.0
C618 C 0.84608 0.29624 0.20576 0.0
N619 N 0.96248 0.20743 0.2838 0.0
C620 C 0.96792 0.16809 0.25298 0.0
C621 C 1.01997 0.15193 0.23944 0.0
C622 C 0.06525 0.17851 0.25706 0.0
C623 C 0.05881 0.21084 0.29388 0.0
C624 C 1.00616 0.22533 0.30676 0.0
Zn625 Zn 0.89169 0.24985 0.28988 0.0
C626 C 0.91081 0.37661 0.28595 0.0
N627 N 0.74791 0.34405 0.30713 0.0
C628 C 0.70401 0.32591 0.28456 0.0
C629 C 0.74276 0.38343 0.33795 0.0
C630 C 0.69086 0.39955 0.35183 0.0
C631 C 0.64539 0.37302 0.33447 0.0
C632 C 0.65149 0.34033 0.2978 0.0
Zn633 Zn 0.81867 0.30167 0.30086 0.0
O634 O 0.88375 0.2622 0.21968 0.0
C635 C 0.79958 0.17495 0.30481 0.0
O636 O 0.81078 0.31399 0.23237 0.0
H637 H 0.77859 0.39739 0.35502 0.0
H638 H 0.93226 0.15423 0.23564 0.0
H639 H 0.70952 0.29509 0.25977 0.0
O640 O 0.84955 0.17236 0.29388 0.0
O641 O 0.77527 0.22289 0.30516 0.0
H642 H 1.00043 0.25604 0.33161 0.0
O643 O 0.82676 0.28959 0.37108 0.0
O644 O 0.89933 0.23726 0.35834 0.0
O645 O 0.86075 0.37917 0.29663 0.0
O646 O 0.93519 0.32867 0.28582 0.0
C647 C 0.86418 0.25523 0.38496 0.0
H648 H 1.02404 0.12722 0.21056 0.0
H649 H 0.09328 0.23215 0.30778 0.0
H650 H 0.68706 0.42442 0.38064 0.0
H651 H 0.61688 0.31895 0.28418 0.0
C652 C 0.09 0.42414 0.59272 0.0
N653 N 0.16863 0.56926 0.62563 0.0
C654 C 0.14407 0.60656 0.6524 0.0
C655 C 0.14601 0.59646 0.69742 0.0
C656 C 0.17413 0.54823 0.71418 0.0
C657 C 0.20525 0.51545 0.68616 0.0
C658 C 0.20261 0.52727 0.64181 0.0
Zn659 Zn 0.1288 0.54783 0.57089 0.0
C660 C 0.19853 0.47886 0.51574 0.0
N661 N 0.04257 0.48486 0.46517 0.0
C662 C 1.00885 0.52696 0.44881 0.0
C663 C 0.06681 0.44711 0.4386 0.0
C664 C 0.06464 0.45664 0.39353 0.0
C665 C 0.03668 0.50482 0.3765 0.0
C666 C 1.006 0.53822 0.40439 0.0
Zn667 Zn 0.08229 0.50639 0.51992 0.0
O668 O 0.11412 0.46758 0.6056 0.0
C669 C 1.01251 0.57543 0.57502 0.0
O670 O 0.06817 0.42625 0.55485 0.0
H671 H 0.09271 0.41329 0.45214 0.0
H672 H 0.11807 0.6404 0.63902 0.0
H673 H 0.99001 0.55717 0.46974 0.0
O674 O 0.05695 0.58274 0.59481 0.0
O675 O 1.01079 0.54141 0.54432 0.0
H676 H 0.2218 0.49746 0.62073 0.0
O677 O 0.09711 0.58652 0.48519 0.0
O678 O 0.14284 0.62799 0.53598 0.0
O679 O 0.15405 0.47144 0.49604 0.0
O680 O 0.20029 0.51295 0.54639 0.0
C681 C 0.12114 0.62999 0.49807 0.0
H682 H 0.12368 0.62428 0.71854 0.0
H683 H 0.2296 0.47938 0.69811 0.0
H684 H 0.08668 0.4284 0.37255 0.0
H685 H 0.98182 0.57433 0.39226 0.0
C686 C 0.90092 0.67475 0.26313 0.0
N687 N 0.80454 0.70452 0.37237 0.0
C688 C 0.84461 0.66732 0.38615 0.0
C689 C 0.87664 0.68007 0.42185 0.0
C690 C 0.8632 0.72829 0.44509 0.0
C691 C 0.81279 0.75616 0.43652 0.0
C692 C 0.7819 0.74057 0.40087 0.0
Zn693 Zn 0.83256 0.74916 0.31908 0.0
C694 C 0.9551 0.78859 0.3434 0.0
N695 N 0.90585 0.84762 0.21854 0.0
C696 C 0.92811 0.81147 0.18995 0.0
C697 C 0.86606 0.88523 0.20489 0.0
C698 C 0.83385 0.87291 0.16919 0.0
C699 C 0.84688 0.82472 0.14578 0.0
C700 C 0.89705 0.79635 0.15426 0.0
Zn701 Zn 0.87789 0.8029 0.27179 0.0
O702 O 0.86538 0.67191 0.293 0.0
C703 C 0.75527 0.76384 0.24749 0.0
O704 O 0.91374 0.72325 0.24805 0.0
H705 H 0.8534 0.91941 0.22509 0.0
H706 H 0.85761 0.63317 0.36605 0.0
H707 H 0.96474 0.78719 0.1987 0.0
O708 O 0.75694 0.73767 0.28433 0.0
O709 O 0.79772 0.79101 0.23552 0.0
H710 H 0.74514 0.76456 0.39199 0.0
O711 O 0.84507 0.88008 0.29791 0.0
O712 O 0.79668 0.82865 0.34277 0.0
O713 O 0.95342 0.81451 0.30647 0.0
O714 O 0.91275 0.76128 0.35539 0.0
C715 C 0.80949 0.87716 0.32774 0.0
H716 H 0.91229 0.65383 0.43006 0.0
H717 H 0.79806 0.79005 0.4564 0.0
H718 H 0.79841 0.89951 0.16107 0.0
H719 H 0.91149 0.76246 0.13426 0.0
C720 C 0.95909 0.28218 0.7517 0.0
N721 N 0.80774 0.22111 0.71394 0.0
C722 C 0.77998 0.25273 0.68283 0.0
C723 C 0.79184 0.24607 0.63885 0.0
C724 C 0.83167 0.20589 0.62748 0.0
C725 C 0.85406 0.16927 0.65979 0.0
C726 C 0.84128 0.17736 0.7029 0.0
Zn727 Zn 0.83126 0.25734 0.76986 0.0
C728 C 0.88472 0.17447 0.83023 0.0
N729 N 0.90216 0.33476 0.87639 0.0
C730 C 0.86764 0.37743 0.88795 0.0
C731 C 0.93056 0.30314 0.90713 0.0
C732 C 0.91839 0.30848 0.9512 0.0
C733 C 0.87755 0.34732 0.96305 0.0
C734 C 0.85442 0.38411 0.93117 0.0
Zn735 Zn 0.87859 0.29885 0.82041 0.0
O736 O 0.91415 0.26228 0.73802 0.0
C737 C 0.82507 0.38186 0.76007 0.0
O738 O 0.95902 0.30387 0.78916 0.0
H739 H 0.95858 0.27001 0.89762 0.0
H740 H 0.75267 0.28669 0.6919 0.0
H741 H 0.84429 0.40204 0.864 0.0
O742 O 0.80797 0.33746 0.74352 0.0
O743 O 0.85763 0.37834 0.79216 0.0
H744 H 0.86414 0.15267 0.72707 0.0
O745 O 0.79581 0.29335 0.85238 0.0
O746 O 0.75078 0.25249 0.80098 0.0
O747 O 0.9022 0.21884 0.84656 0.0
O748 O 0.85184 0.17802 0.79837 0.0
C749 C 0.75084 0.27361 0.83863 0.0
H750 H 0.77188 0.27342 0.61435 0.0
H751 H 0.88346 0.13627 0.65218 0.0
H752 H 0.93893 0.2811 0.97538 0.0
H753 H 0.82422 0.41616 0.93916 0.0
C754 C 0.83441 0.67566 0.76153 0.0
N755 N 0.94315 0.79998 0.72762 0.0
C756 C 0.98513 0.7655 0.71569 0.0
C757 C 1.01191 0.77698 0.67645 0.0
C758 C 0.98934 0.81963 0.64856 0.0
C759 C 0.959 0.86305 0.66721 0.0
C760 C 0.93371 0.85096 0.70679 0.0
Zn761 Zn 0.88753 0.77546 0.77221 0.0
C762 C 0.7729 0.80812 0.73711 0.0
N763 N 0.76408 0.75734 0.86287 0.0
C764 C 0.77341 0.70588 0.88301 0.0
C765 C 0.72262 0.79192 0.87563 0.0
C766 C 0.69638 0.77985 0.91501 0.0
C767 C 0.71887 0.7363 0.94213 0.0
C768 C 0.74852 0.69309 0.92262 0.0
Zn769 Zn 0.81953 0.78213 0.81821 0.0
O770 O 0.87864 0.69419 0.74548 0.0
C771 C 0.93414 0.74951 0.85334 0.0
O772 O 0.81002 0.70278 0.79073 0.0
H773 H 0.71417 0.83148 0.85801 0.0
H774 H 0.9937 0.72639 0.73389 0.0
H775 H 0.80497 0.67771 0.87134 0.0
O776 O 0.94931 0.74786 0.81409 0.0
O777 O 0.88368 0.75595 0.86197 0.0
H778 H 0.90186 0.87919 0.71793 0.0
O779 O 0.82844 0.86325 0.84494 0.0
O780 O 0.89709 0.8548 0.79963 0.0
O781 O 0.7577 0.80971 0.77636 0.0
O782 O 0.8234 0.80185 0.72852 0.0
C783 C 0.87271 0.88177 0.82893 0.0
H784 H 0.03876 0.74455 0.66383 0.0
H785 H 0.94379 0.89866 0.64727 0.0
H786 H 0.67006 0.81225 0.92832 0.0
H787 H 0.76373 0.65691 0.94193 0.0
C788 C 0.5529 0.54112 0.46408 0.0
N789 N 0.49337 0.49243 0.58666 0.0
C790 C 0.45134 0.51569 0.5626 0.0
C791 C 0.41791 0.48078 0.53905 0.0
C792 C 0.42574 0.42201 0.54334 0.0
C793 C 0.46199 0.3999 0.57556 0.0
C794 C 0.49449 0.43658 0.59828 0.0
Zn795 Zn 0.56653 0.51965 0.56485 0.0
C796 C 0.61886 0.42174 0.51837 0.0
N797 N 0.71371 0.56343 0.50485 0.0
C798 C 0.71312 0.61937 0.49355 0.0
C799 C 0.75583 0.53935 0.52835 0.0
C800 C 0.79038 0.57351 0.55154 0.0
C801 C 0.78341 0.63238 0.54753 0.0
C802 C 0.74679 0.6553 0.51591 0.0
Zn803 Zn 0.64045 0.53651 0.52645 0.0
O804 O 0.52926 0.53253 0.50038 0.0
C805 C 0.58796 0.63448 0.57285 0.0
O806 O 0.60396 0.54984 0.4638 0.0
H807 H 0.75623 0.49443 0.53595 0.0
H808 H 0.45035 0.56058 0.55487 0.0
H809 H 0.68002 0.63738 0.4737 0.0
O810 O 0.54986 0.60167 0.58404 0.0
O811 O 0.62247 0.61886 0.54502 0.0
H812 H 0.52746 0.41923 0.6186 0.0
O813 O 0.67778 0.52376 0.59082 0.0
O814 O 0.60331 0.50625 0.6276 0.0
O815 O 0.65708 0.45444 0.5073 0.0
O816 O 0.58427 0.4374 0.54611 0.0
C817 C 0.65437 0.51506 0.62718 0.0
H818 H 0.38789 0.49961 0.51657 0.0
H819 H 0.46686 0.35483 0.58184 0.0
H820 H 0.82056 0.55406 0.57358 0.0
H821 H 0.74257 0.70045 0.50981 0.0
C822 C 0.08981 0.52855 0.13506 0.0
N823 N 0.17421 0.41688 0.05287 0.0
C824 C 0.22126 0.41298 0.07679 0.0
C825 C 0.25163 0.36262 0.07798 0.0
C826 C 0.22759 0.31598 0.05953 0.0
C827 C 0.19085 0.32587 0.02503 0.0
C828 C 0.16096 0.37635 0.02453 0.0
Zn829 Zn 0.12842 0.48702 0.0516 0.0
C830 C 1.00755 0.46673 0.0546 0.0
N831 N 0.03596 0.63422 0.03744 0.0
C832 C 0.04928 0.67471 0.06578 0.0
C833 C 0.98912 0.63833 0.0133 0.0
C834 C 0.95899 0.68881 0.01193 0.0
C835 C 0.98287 0.73529 0.03075 0.0
C836 C 1.01965 0.72532 0.06518 0.0
Zn837 Zn 0.08159 0.56408 0.03877 0.0
O838 O 0.12113 0.48869 0.1225 0.0
C839 C 0.20241 0.58448 0.03577 0.0
O840 O 0.0738 0.56602 0.10736 0.0
H841 H 0.97709 0.60401 0.9933 0.0
H842 H 0.23334 0.44737 0.09669 0.0
H843 H 0.08466 0.66914 0.0869 0.0
O844 O 0.20259 0.5327 0.04742 0.0
O845 O 0.15695 0.6118 0.03457 0.0
H846 H 0.12551 0.38179 0.00347 0.0
O847 O 0.08895 0.5625 0.96794 0.0
O848 O 0.13609 0.48503 0.983 0.0
O849 O 1.00742 0.51848 0.04285 0.0
O850 O 0.05298 0.43934 0.05589 0.0
C851 C 0.12015 0.52259 0.95534 0.0
H852 H 0.28429 0.35688 0.10187 0.0
H853 H 0.17531 0.29102 0.00705 0.0
H854 H 0.9266 0.69473 0.98784 0.0
H855 H 0.03534 0.76009 0.08317 0.0
loop_
_geom_bond_atom_site_label_1
_geom_bond_atom_site_label_2
_geom_bond_distance
_geom_bond_site_symmetry_2
_ccdc_geom_bond_type
In0 O1 2.294 . S
In0 O2 2.326 . S
In0 O6 2.266 . S
In0 O7 2.326 . S
In0 O8 2.266 . S
In0 O9 2.326 . S
In0 O11 2.294 . S
In0 O12 2.326 . S
O1 In0 2.294 . S
O1 C10 1.240 . S
O2 In0 2.326 . S
O2 C10 1.252 . S
C3 O6 1.252 . S
C3 O7 1.260 . S
C4 O11 1.240 . S
C4 O12 1.252 . S
C5 O8 1.252 . S
C5 O9 1.260 . S
O6 In0 2.266 . S
O6 C3 1.252 . S
O7 In0 2.326 . S
O7 C3 1.260 . S
O8 In0 2.266 . S
O8 C5 1.252 . S
O9 In0 2.326 . S
O9 C5 1.260 . S
C10 O1 1.240 . S
C10 O2 1.252 . S
O11 In0 2.294 . S
O11 C4 1.240 . S
O12 In0 2.326 . S
O12 C4 1.252 . S
In13 O14 2.294 . S
In13 O15 2.326 . S
In13 O19 2.266 . S
In13 O20 2.326 1_455 S
In13 O21 2.266 . S
In13 O22 2.326 . S
In13 O24 2.294 . S
In13 O25 2.326 . S
O14 In13 2.294 . S
O14 C23 1.240 . S
O15 In13 2.326 . S
O15 C23 1.252 . S
C16 O19 1.252 1_655 S
C16 O20 1.260 . S
C17 O24 1.240 . S
C17 O25 1.252 . S
C18 O21 1.252 . S
C18 O22 1.260 . S
O19 In13 2.266 . S
O19 C16 1.252 1_455 S
O20 In13 2.326 1_655 S
O20 C16 1.260 . S
O21 In13 2.266 . S
O21 C18 1.252 . S
O22 In13 2.326 . S
O22 C18 1.260 . S
C23 O14 1.240 . S
C23 O15 1.252 . S
O24 In13 2.294 . S
O24 C17 1.240 . S
O25 In13 2.326 . S
O25 C17 1.252 . S
In26 O27 2.294 . S
In26 O28 2.326 . S
In26 O32 2.266 . S
In26 O33 2.326 . S
In26 O34 2.266 . S
In26 O35 2.326 . S
In26 O37 2.294 . S
In26 O38 2.326 . S
O27 In26 2.294 . S
O27 C36 1.240 . S
O28 In26 2.326 . S
O28 C36 1.252 . S
C29 O32 1.252 . S
C29 O33 1.260 . S
C30 O37 1.240 . S
C30 O38 1.252 . S
C31 O34 1.252 . S
C31 O35 1.260 . S
O32 In26 2.266 . S
O32 C29 1.252 . S
O33 In26 2.326 . S
O33 C29 1.260 . S
O34 In26 2.266 . S
O34 C31 1.252 . S
O35 In26 2.326 . S
O35 C31 1.260 . S
C36 O27 1.240 . S
C36 O28 1.252 . S
O37 In26 2.294 . S
O37 C30 1.240 . S
O38 In26 2.326 . S
O38 C30 1.252 . S
In39 O40 2.294 . S
In39 O41 2.326 . S
In39 O45 2.266 . S
In39 O46 2.326 . S
In39 O47 2.266 . S
In39 O48 2.326 . S
In39 O50 2.294 . S
In39 O51 2.326 . S
O40 In39 2.294 . S
O40 C49 1.240 . S
O41 In39 2.326 . S
O41 C49 1.252 . S
C42 O45 1.252 . S
C42 O46 1.260 . S
C43 O50 1.240 . S
C43 O51 1.252 . S
C44 O47 1.252 . S
C44 O48 1.260 . S
O45 In39 2.266 . S
O45 C42 1.252 . S
O46 In39 2.326 . S
O46 C42 1.260 . S
O47 In39 2.266 . S
O47 C44 1.252 . S
O48 In39 2.326 . S
O48 C44 1.260 . S
C49 O40 1.240 . S
C49 O41 1.252 . S
O50 In39 2.294 . S
O50 C43 1.240 . S
O51 In39 2.326 . S
O51 C43 1.252 . S
In52 O53 2.294 1_545 S
In52 O54 2.326 1_545 S
In52 O58 2.266 . S
In52 O59 2.326 . S
In52 O60 2.266 . S
In52 O61 2.326 . S
In52 O63 2.294 . S
In52 O64 2.326 . S
O53 In52 2.294 1_565 S
O53 C62 1.240 . S
O54 In52 2.326 1_565 S
O54 C62 1.252 . S
C55 O58 1.252 . S
C55 O59 1.260 . S
C56 O63 1.240 . S
C56 O64 1.252 . S
C57 O60 1.252 . S
C57 O61 1.260 . S
O58 In52 2.266 . S
O58 C55 1.252 . S
O59 In52 2.326 . S
O59 C55 1.260 . S
O60 In52 2.266 . S
O60 C57 1.252 . S
O61 In52 2.326 . S
O61 C57 1.260 . S
C62 O53 1.240 . S
C62 O54 1.252 . S
O63 In52 2.294 . S
O63 C56 1.240 . S
O64 In52 2.326 . S
O64 C56 1.252 . S
In65 O66 2.294 . S
In65 O67 2.326 . S
In65 O71 2.266 . S
In65 O72 2.326 . S
In65 O73 2.266 . S
In65 O74 2.326 . S
In65 O76 2.294 . S
In65 O77 2.326 . S
O66 In65 2.294 . S
O66 C75 1.240 . S
O67 In65 2.326 . S
O67 C75 1.252 . S
C68 O71 1.252 . S
C68 O72 1.260 . S
C69 O76 1.240 . S
C69 O77 1.252 . S
C70 O73 1.252 . S
C70 O74 1.260 . S
O71 In65 2.266 . S
O71 C68 1.252 . S
O72 In65 2.326 . S
O72 C68 1.260 . S
O73 In65 2.266 . S
O73 C70 1.252 . S
O74 In65 2.326 . S
O74 C70 1.260 . S
C75 O66 1.240 . S
C75 O67 1.252 . S
O76 In65 2.294 . S
O76 C69 1.240 . S
O77 In65 2.326 . S
O77 C69 1.252 . S
In78 O79 2.294 . S
In78 O80 2.326 . S
In78 O84 2.266 1_545 S
In78 O85 2.326 1_545 S
In78 O86 2.266 . S
In78 O87 2.326 . S
In78 O89 2.294 . S
In78 O90 2.326 . S
O79 In78 2.294 . S
O79 C88 1.240 . S
O80 In78 2.326 . S
O80 C88 1.252 . S
C81 O84 1.252 . S
C81 O85 1.260 . S
C82 O89 1.240 . S
C82 O90 1.252 . S
C83 O86 1.252 . S
C83 O87 1.260 . S
O84 In78 2.266 1_565 S
O84 C81 1.252 . S
O85 In78 2.326 1_565 S
O85 C81 1.260 . S
O86 In78 2.266 . S
O86 C83 1.252 . S
O87 In78 2.326 . S
O87 C83 1.260 . S
C88 O79 1.240 . S
C88 O80 1.252 . S
O89 In78 2.294 . S
O89 C82 1.240 . S
O90 In78 2.326 . S
O90 C82 1.252 . S
In91 O92 2.294 . S
In91 O93 2.326 . S
In91 O97 2.266 . S
In91 O98 2.326 . S
In91 O99 2.266 . S
In91 O100 2.326 1_554 S
In91 O102 2.294 . S
In91 O103 2.326 . S
O92 In91 2.294 . S
O92 C101 1.240 . S
O93 In91 2.326 . S
O93 C101 1.252 . S
C94 O97 1.252 . S
C94 O98 1.260 . S
C95 O102 1.240 . S
C95 O103 1.252 . S
C96 O99 1.252 1_556 S
C96 O100 1.260 . S
O97 In91 2.266 . S
O97 C94 1.252 . S
O98 In91 2.326 . S
O98 C94 1.260 . S
O99 In91 2.266 . S
O99 C96 1.252 1_554 S
O100 In91 2.326 1_556 S
O100 C96 1.260 . S
C101 O92 1.240 . S
C101 O93 1.252 . S
O102 In91 2.294 . S
O102 C95 1.240 . S
O103 In91 2.326 . S
O103 C95 1.252 . S
In104 O105 2.294 . S
In104 O106 2.326 . S
In104 O110 2.266 . S
In104 O111 2.326 . S
In104 O112 2.266 . S
In104 O113 2.326 . S
In104 O115 2.294 . S
In104 O116 2.326 . S
O105 In104 2.294 . S
O105 C114 1.240 . S
O106 In104 2.326 . S
O106 C114 1.252 . S
C107 O110 1.252 . S
C107 O111 1.260 . S
C108 O115 1.240 . S
C108 O116 1.252 . S
C109 O112 1.252 . S
C109 O113 1.260 . S
O110 In104 2.266 . S
O110 C107 1.252 . S
O111 In104 2.326 . S
O111 C107 1.260 . S
O112 In104 2.266 . S
O112 C109 1.252 . S
O113 In104 2.326 . S
O113 C109 1.260 . S
C114 O105 1.240 . S
C114 O106 1.252 . S
O115 In104 2.294 . S
O115 C108 1.240 . S
O116 In104 2.326 . S
O116 C108 1.252 . S
In117 O118 2.294 . S
In117 O119 2.326 . S
In117 O123 2.266 . S
In117 O124 2.326 . S
In117 O125 2.266 . S
In117 O126 2.326 . S
In117 O128 2.294 . S
In117 O129 2.326 . S
O118 In117 2.294 . S
O118 C127 1.240 . S
O119 In117 2.326 . S
O119 C127 1.252 . S
C120 O123 1.252 . S
C120 O124 1.260 . S
C121 O128 1.240 . S
C121 O129 1.252 . S
C122 O125 1.252 . S
C122 O126 1.260 . S
O123 In117 2.266 . S
O123 C120 1.252 . S
O124 In117 2.326 . S
O124 C120 1.260 . S
O125 In117 2.266 . S
O125 C122 1.252 . S
O126 In117 2.326 . S
O126 C122 1.260 . S
C127 O118 1.240 . S
C127 O119 1.252 . S
O128 In117 2.294 . S
O128 C121 1.240 . S
O129 In117 2.326 . S
O129 C121 1.252 . S
In130 O131 2.294 . S
In130 O132 2.326 . S
In130 O136 2.266 . S
In130 O137 2.326 . S
In130 O138 2.266 . S
In130 O139 2.326 . S
In130 O141 2.294 . S
In130 O142 2.326 . S
O131 In130 2.294 . S
O131 C140 1.240 1_655 S
O132 In130 2.326 . S
O132 C140 1.252 1_655 S
C133 O136 1.252 . S
C133 O137 1.260 . S
C134 O141 1.240 . S
C134 O142 1.252 . S
C135 O138 1.252 . S
C135 O139 1.260 . S
O136 In130 2.266 . S
O136 C133 1.252 . S
O137 In130 2.326 . S
O137 C133 1.260 . S
O138 In130 2.266 . S
O138 C135 1.252 . S
O139 In130 2.326 . S
O139 C135 1.260 . S
C140 O131 1.240 1_455 S
C140 O132 1.252 1_455 S
O141 In130 2.294 . S
O141 C134 1.240 . S
O142 In130 2.326 . S
O142 C134 1.252 . S
In143 O144 2.294 . S
In143 O145 2.326 . S
In143 O149 2.266 . S
In143 O150 2.326 . S
In143 O151 2.266 . S
In143 O152 2.326 . S
In143 O154 2.294 . S
In143 O155 2.326 . S
O144 In143 2.294 . S
O144 C153 1.240 . S
O145 In143 2.326 . S
O145 C153 1.252 . S
C146 O149 1.252 . S
C146 O150 1.260 . S
C147 O154 1.240 . S
C147 O155 1.252 . S
C148 O151 1.252 . S
C148 O152 1.260 . S
O149 In143 2.266 . S
O149 C146 1.252 . S
O150 In143 2.326 . S
O150 C146 1.260 . S
O151 In143 2.266 . S
O151 C148 1.252 . S
O152 In143 2.326 . S
O152 C148 1.260 . S
C153 O144 1.240 . S
C153 O145 1.252 . S
O154 In143 2.294 . S
O154 C147 1.240 . S
O155 In143 2.326 . S
O155 C147 1.252 . S
In156 O157 2.296 . S
In156 O158 2.330 . S
In156 O162 2.264 1_455 S
In156 O163 2.322 1_455 S
In156 O164 2.266 1_455 S
In156 O165 2.325 1_455 S
In156 O167 2.294 . S
In156 O168 2.327 . S
O157 In156 2.296 . S
O157 C166 1.240 . S
O158 In156 2.330 . S
O158 C166 1.252 . S
C159 O162 1.252 . S
C159 O163 1.260 . S
C160 O167 1.240 . S
C160 O168 1.252 . S
C161 O164 1.252 . S
C161 O165 1.260 . S
O162 In156 2.264 1_655 S
O162 C159 1.252 . S
O163 In156 2.322 1_655 S
O163 C159 1.260 . S
O164 In156 2.266 1_655 S
O164 C161 1.252 . S
O165 In156 2.325 1_655 S
O165 C161 1.260 . S
C166 O157 1.240 . S
C166 O158 1.252 . S
O167 In156 2.294 . S
O167 C160 1.240 . S
O168 In156 2.327 . S
O168 C160 1.252 . S
In169 O170 2.294 . S
In169 O171 2.326 . S
In169 O175 2.266 . S
In169 O176 2.326 . S
In169 O177 2.266 . S
In169 O178 2.326 1_455 S
In169 O180 2.294 . S
In169 O181 2.326 . S
O170 In169 2.294 . S
O170 C179 1.240 . S
O171 In169 2.326 . S
O171 C179 1.252 . S
C172 O175 1.252 . S
C172 O176 1.260 . S
C173 O180 1.240 . S
C173 O181 1.252 . S
C174 O177 1.252 1_655 S
C174 O178 1.260 . S
O175 In169 2.266 . S
O175 C172 1.252 . S
O176 In169 2.326 . S
O176 C172 1.260 . S
O177 In169 2.266 . S
O177 C174 1.252 1_455 S
O178 In169 2.326 1_655 S
O178 C174 1.260 . S
C179 O170 1.240 . S
C179 O171 1.252 . S
O180 In169 2.294 . S
O180 C173 1.240 . S
O181 In169 2.326 . S
O181 C173 1.252 . S
In182 O183 2.294 . S
In182 O184 2.326 . S
In182 O188 2.266 . S
In182 O189 2.326 . S
In182 O190 2.266 . S
In182 O191 2.326 . S
In182 O193 2.294 . S
In182 O194 2.326 . S
O183 In182 2.294 . S
O183 C192 1.240 . S
O184 In182 2.326 . S
O184 C192 1.252 . S
C185 O188 1.252 . S
C185 O189 1.260 . S
C186 O193 1.240 . S
C186 O194 1.252 . S
C187 O190 1.252 . S
C187 O191 1.260 . S
O188 In182 2.266 . S
O188 C185 1.252 . S
O189 In182 2.326 . S
O189 C185 1.260 . S
O190 In182 2.266 . S
O190 C187 1.252 . S
O191 In182 2.326 . S
O191 C187 1.260 . S
C192 O183 1.240 . S
C192 O184 1.252 . S
O193 In182 2.294 . S
O193 C186 1.240 . S
O194 In182 2.326 . S
O194 C186 1.252 . S
In195 O196 2.294 . S
In195 O197 2.326 . S
In195 O201 2.266 . S
In195 O202 2.326 . S
In195 O203 2.266 . S
In195 O204 2.326 . S
In195 O206 2.294 . S
In195 O207 2.326 . S
O196 In195 2.294 . S
O196 C205 1.240 . S
O197 In195 2.326 . S
O197 C205 1.252 . S
C198 O201 1.252 . S
C198 O202 1.260 . S
C199 O206 1.240 . S
C199 O207 1.252 . S
C200 O203 1.252 . S
C200 O204 1.260 . S
O201 In195 2.266 . S
O201 C198 1.252 . S
O202 In195 2.326 . S
O202 C198 1.260 . S
O203 In195 2.266 . S
O203 C200 1.252 . S
O204 In195 2.326 . S
O204 C200 1.260 . S
C205 O196 1.240 . S
C205 O197 1.252 . S
O206 In195 2.294 . S
O206 C199 1.240 . S
O207 In195 2.326 . S
O207 C199 1.252 . S
In208 O209 2.294 1_655 S
In208 O210 2.326 . S
In208 O214 2.266 1_645 S
In208 O215 2.326 1_545 S
In208 O216 2.266 1_545 S
In208 O217 2.326 1_545 S
In208 O219 2.294 . S
In208 O220 2.326 . S
O209 In208 2.294 1_455 S
O209 C218 1.240 1_455 S
O210 In208 2.326 . S
O210 C218 1.252 . S
C211 O214 1.252 1_655 S
C211 O215 1.260 . S
C212 O219 1.240 . S
C212 O220 1.252 . S
C213 O216 1.252 . S
C213 O217 1.260 . S
O214 In208 2.266 1_465 S
O214 C211 1.252 1_455 S
O215 In208 2.326 1_565 S
O215 C211 1.260 . S
O216 In208 2.266 1_565 S
O216 C213 1.252 . S
O217 In208 2.326 1_565 S
O217 C213 1.260 . S
C218 O209 1.240 1_655 S
C218 O210 1.252 . S
O219 In208 2.294 . S
O219 C212 1.240 . S
O220 In208 2.326 . S
O220 C212 1.252 . S
In221 O222 2.294 . S
In221 O223 2.326 . S
In221 O227 2.266 . S
In221 O228 2.326 . S
In221 O229 2.266 . S
In221 O230 2.326 . S
In221 O232 2.294 . S
In221 O233 2.326 . S
O222 In221 2.294 . S
O222 C231 1.240 . S
O223 In221 2.326 . S
O223 C231 1.252 . S
C224 O227 1.252 . S
C224 O228 1.260 . S
C225 O232 1.240 . S
C225 O233 1.252 . S
C226 O229 1.252 . S
C226 O230 1.260 . S
O227 In221 2.266 . S
O227 C224 1.252 . S
O228 In221 2.326 . S
O228 C224 1.260 . S
O229 In221 2.266 . S
O229 C226 1.252 . S
O230 In221 2.326 . S
O230 C226 1.260 . S
C231 O222 1.240 . S
C231 O223 1.252 . S
O232 In221 2.294 . S
O232 C225 1.240 . S
O233 In221 2.326 . S
O233 C225 1.252 . S
In234 O235 2.294 1_545 S
In234 O236 2.326 1_545 S
In234 O240 2.266 . S
In234 O241 2.326 . S
In234 O242 2.266 . S
In234 O243 2.326 . S
In234 O245 2.294 . S
In234 O246 2.326 . S
O235 In234 2.294 1_565 S
O235 C244 1.240 . S
O236 In234 2.326 1_565 S
O236 C244 1.252 . S
C237 O240 1.252 . S
C237 O241 1.260 . S
C238 O245 1.240 . S
C238 O246 1.252 . S
C239 O242 1.252 . S
C239 O243 1.260 . S
O240 In234 2.266 . S
O240 C237 1.252 . S
O241 In234 2.326 . S
O241 C237 1.260 . S
O242 In234 2.266 . S
O242 C239 1.252 . S
O243 In234 2.326 . S
O243 C239 1.260 . S
C244 O235 1.240 . S
C244 O236 1.252 . S
O245 In234 2.294 . S
O245 C238 1.240 . S
O246 In234 2.326 . S
O246 C238 1.252 . S
In247 O248 2.294 1_565 S
In247 O249 2.326 . S
In247 O253 2.266 1_565 S
In247 O254 2.326 . S
In247 O255 2.266 . S
In247 O256 2.326 1_554 S
In247 O258 2.294 . S
In247 O259 2.326 . S
O248 In247 2.294 1_545 S
O248 C257 1.240 1_545 S
O249 In247 2.326 . S
O249 C257 1.252 . S
C250 O253 1.252 1_565 S
C250 O254 1.260 . S
C251 O258 1.240 . S
C251 O259 1.252 . S
C252 O255 1.252 1_556 S
C252 O256 1.260 . S
O253 In247 2.266 1_545 S
O253 C250 1.252 1_545 S
O254 In247 2.326 . S
O254 C250 1.260 . S
O255 In247 2.266 . S
O255 C252 1.252 1_554 S
O256 In247 2.326 1_556 S
O256 C252 1.260 . S
C257 O248 1.240 1_565 S
C257 O249 1.252 . S
O258 In247 2.294 . S
O258 C251 1.240 . S
O259 In247 2.326 . S
O259 C251 1.252 . S
In260 O261 2.294 . S
In260 O262 2.326 . S
In260 O266 2.266 1_554 S
In260 O267 2.326 1_554 S
In260 O268 2.266 1_554 S
In260 O269 2.326 1_554 S
In260 O271 2.294 . S
In260 O272 2.326 . S
O261 In260 2.294 . S
O261 C270 1.240 . S
O262 In260 2.326 . S
O262 C270 1.252 . S
C263 O266 1.252 . S
C263 O267 1.260 . S
C264 O271 1.240 . S
C264 O272 1.252 . S
C265 O268 1.252 . S
C265 O269 1.260 . S
O266 In260 2.266 1_556 S
O266 C263 1.252 . S
O267 In260 2.326 1_556 S
O267 C263 1.260 . S
O268 In260 2.266 1_556 S
O268 C265 1.252 . S
O269 In260 2.326 1_556 S
O269 C265 1.260 . S
C270 O261 1.240 . S
C270 O262 1.252 . S
O271 In260 2.294 . S
O271 C264 1.240 . S
O272 In260 2.326 . S
O272 C264 1.252 . S
In273 O274 2.294 . S
In273 O275 2.326 . S
In273 O279 2.266 . S
In273 O280 2.326 . S
In273 O281 2.266 . S
In273 O282 2.326 . S
In273 O284 2.294 . S
In273 O285 2.326 . S
O274 In273 2.294 . S
O274 C283 1.240 . S
O275 In273 2.326 . S
O275 C283 1.252 . S
C276 O279 1.252 . S
C276 O280 1.260 . S
C277 O284 1.240 . S
C277 O285 1.252 . S
C278 O281 1.252 . S
C278 O282 1.260 . S
O279 In273 2.266 . S
O279 C276 1.252 . S
O280 In273 2.326 . S
O280 C276 1.260 . S
O281 In273 2.266 . S
O281 C278 1.252 . S
O282 In273 2.326 . S
O282 C278 1.260 . S
C283 O274 1.240 . S
C283 O275 1.252 . S
O284 In273 2.294 . S
O284 C277 1.240 . S
O285 In273 2.326 . S
O285 C277 1.252 . S
In286 O287 2.294 . S
In286 O288 2.326 . S
In286 O292 2.266 . S
In286 O293 2.326 . S
In286 O294 2.266 . S
In286 O295 2.326 . S
In286 O297 2.294 . S
In286 O298 2.326 . S
O287 In286 2.294 . S
O287 C296 1.240 . S
O288 In286 2.326 . S
O288 C296 1.252 . S
C289 O292 1.252 . S
C289 O293 1.260 . S
C290 O297 1.240 . S
C290 O298 1.252 . S
C291 O294 1.252 . S
C291 O295 1.260 . S
O292 In286 2.266 . S
O292 C289 1.252 . S
O293 In286 2.326 . S
O293 C289 1.260 . S
O294 In286 2.266 . S
O294 C291 1.252 . S
O295 In286 2.326 . S
O295 C291 1.260 . S
C296 O287 1.240 . S
C296 O288 1.252 . S
O297 In286 2.294 . S
O297 C290 1.240 . S
O298 In286 2.326 . S
O298 C290 1.252 . S
In299 O300 2.294 . S
In299 O301 2.326 . S
In299 O305 2.266 . S
In299 O306 2.326 . S
In299 O307 2.266 . S
In299 O308 2.326 . S
In299 O310 2.294 . S
In299 O311 2.326 . S
O300 In299 2.294 . S
O300 C309 1.240 . S
O301 In299 2.326 . S
O301 C309 1.252 . S
C302 O305 1.252 . S
C302 O306 1.260 . S
C303 O310 1.240 . S
C303 O311 1.252 . S
C304 O307 1.252 . S
C304 O308 1.260 . S
O305 In299 2.266 . S
O305 C302 1.252 . S
O306 In299 2.326 . S
O306 C302 1.260 . S
O307 In299 2.266 . S
O307 C304 1.252 . S
O308 In299 2.326 . S
O308 C304 1.260 . S
C309 O300 1.240 . S
C309 O301 1.252 . S
O310 In299 2.294 . S
O310 C303 1.240 . S
O311 In299 2.326 . S
O311 C303 1.252 . S
C312 O328 1.238 1_455 S
C312 O330 1.254 . S
N313 C314 1.333 . S
N313 C318 1.307 1_545 S
N313 Zn319 2.020 1_655 S
C314 N313 1.333 . S
C314 C315 1.379 . S
C314 H332 0.952 . S
C315 C314 1.379 . S
C315 C316 1.390 1_545 S
C315 H342 0.949 . S
C316 C315 1.390 1_565 S
C316 C317 1.357 . S
C317 C316 1.357 . S
C317 C318 1.370 . S
C317 H343 0.950 . S
C318 N313 1.307 1_565 S
C318 C317 1.370 . S
C318 H336 0.948 . S
Zn319 N313 2.020 1_455 S
Zn319 O328 2.037 1_454 S
Zn319 O334 2.034 . S
Zn319 O338 2.025 1_545 S
Zn319 O340 2.024 1_545 S
C320 O339 1.246 . S
C320 O340 1.249 . S
N321 C322 1.307 1_554 S
N321 C323 1.333 . S
N321 Zn327 2.020 . S
C322 N321 1.307 1_556 S
C322 C326 1.370 . S
C322 H333 0.948 . S
C323 N321 1.333 . S
C323 C324 1.379 . S
C323 H331 0.952 1_545 S
C324 C323 1.379 . S
C324 C325 1.390 1_554 S
C324 H344 0.949 1_545 S
C325 C324 1.390 1_556 S
C325 C326 1.357 . S
C326 C322 1.370 . S
C326 C325 1.357 . S
C326 H345 0.950 . S
Zn327 N321 2.020 . S
Zn327 O330 2.025 1_554 S
Zn327 O335 2.024 . S
Zn327 O337 2.039 1_545 S
Zn327 O339 2.034 1_545 S
O328 C312 1.238 1_655 S
O328 Zn319 2.037 1_656 S
C329 O334 1.246 . S
C329 O335 1.249 . S
O330 C312 1.254 . S
O330 Zn327 2.025 1_556 S
H331 C323 0.952 1_565 S
H332 C314 0.952 . S
H333 C322 0.948 . S
O334 Zn319 2.034 . S
O334 C329 1.246 . S
O335 Zn327 2.024 . S
O335 C329 1.249 . S
H336 C318 0.948 . S
O337 Zn327 2.039 1_565 S
O337 C341 1.251 . S
O338 Zn319 2.025 1_565 S
O338 C341 1.254 . S
O339 C320 1.246 . S
O339 Zn327 2.034 1_565 S
O340 Zn319 2.024 1_565 S
O340 C320 1.249 . S
C341 O337 1.251 . S
C341 O338 1.254 . S
H342 C315 0.949 . S
H343 C317 0.950 . S
H344 C324 0.949 1_565 S
H345 C326 0.950 . S
C346 O362 1.251 . S
C346 O364 1.254 . S
N347 C348 1.333 . S
N347 C352 1.307 . S
N347 Zn353 2.020 . S
C348 N347 1.333 . S
C348 C349 1.379 . S
C348 H366 0.952 . S
C349 C348 1.379 . S
C349 C350 1.390 . S
C349 H376 0.949 . S
C350 C349 1.390 . S
C350 C351 1.357 . S
C351 C350 1.357 . S
C351 C352 1.370 . S
C351 H377 0.950 . S
C352 N347 1.307 . S
C352 C351 1.370 . S
C352 H370 0.948 . S
Zn353 N347 2.020 . S
Zn353 O362 2.039 . S
Zn353 O368 2.034 . S
Zn353 O372 2.025 . S
Zn353 O374 2.024 . S
C354 O373 1.246 . S
C354 O374 1.249 . S
N355 C356 1.307 . S
N355 C357 1.333 . S
N355 Zn361 2.020 . S
C356 N355 1.307 . S
C356 C360 1.370 . S
C356 H367 0.948 . S
C357 N355 1.333 . S
C357 C358 1.379 . S
C357 H365 0.952 . S
C358 C357 1.379 . S
C358 C359 1.390 . S
C358 H378 0.949 . S
C359 C358 1.390 . S
C359 C360 1.357 . S
C360 C356 1.370 . S
C360 C359 1.357 . S
C360 H379 0.950 . S
Zn361 N355 2.020 . S
Zn361 O364 2.025 . S
Zn361 O369 2.024 . S
Zn361 O371 2.039 . S
Zn361 O373 2.034 . S
O362 C346 1.251 . S
O362 Zn353 2.039 . S
C363 O368 1.246 . S
C363 O369 1.249 . S
O364 C346 1.254 . S
O364 Zn361 2.025 . S
H365 C357 0.952 . S
H366 C348 0.952 . S
H367 C356 0.948 . S
O368 Zn353 2.034 . S
O368 C363 1.246 . S
O369 Zn361 2.024 . S
O369 C363 1.249 . S
H370 C352 0.948 . S
O371 Zn361 2.039 . S
O371 C375 1.251 . S
O372 Zn353 2.025 . S
O372 C375 1.254 . S
O373 C354 1.246 . S
O373 Zn361 2.034 . S
O374 Zn353 2.024 . S
O374 C354 1.249 . S
C375 O371 1.251 . S
C375 O372 1.254 . S
H376 C349 0.949 . S
H377 C351 0.950 . S
H378 C358 0.949 . S
H379 C360 0.950 . S
C380 O396 1.251 . S
C380 O398 1.254 . S
N381 C382 1.333 . S
N381 C386 1.307 . S
N381 Zn387 2.020 . S
C382 N381 1.333 . S
C382 C383 1.379 . S
C382 H400 0.952 . S
C383 C382 1.379 . S
C383 C384 1.390 . S
C383 H410 0.949 . S
C384 C383 1.390 . S
C384 C385 1.357 . S
C385 C384 1.357 . S
C385 C386 1.370 . S
C385 H411 0.950 . S
C386 N381 1.307 . S
C386 C385 1.370 . S
C386 H404 0.948 . S
Zn387 N381 2.020 . S
Zn387 O396 2.039 1_565 S
Zn387 O402 2.034 1_565 S
Zn387 O406 2.025 . S
Zn387 O408 2.024 . S
C388 O407 1.246 1_565 S
C388 O408 1.249 . S
N389 C390 1.307 . S
N389 C391 1.333 . S
N389 Zn395 2.020 . S
C390 N389 1.307 . S
C390 C394 1.370 . S
C390 H401 0.948 . S
C391 N389 1.333 . S
C391 C392 1.379 . S
C391 H399 0.952 . S
C392 C391 1.379 . S
C392 C393 1.390 . S
C392 H412 0.949 . S
C393 C392 1.390 . S
C393 C394 1.357 . S
C394 C390 1.370 . S
C394 C393 1.357 . S
C394 H413 0.950 . S
Zn395 N389 2.020 . S
Zn395 O398 2.025 . S
Zn395 O403 2.024 . S
Zn395 O405 2.039 . S
Zn395 O407 2.034 . S
O396 C380 1.251 . S
O396 Zn387 2.039 1_545 S
C397 O402 1.246 . S
C397 O403 1.249 . S
O398 C380 1.254 . S
O398 Zn395 2.025 . S
H399 C391 0.952 . S
H400 C382 0.952 . S
H401 C390 0.948 . S
O402 Zn387 2.034 1_545 S
O402 C397 1.246 . S
O403 Zn395 2.024 . S
O403 C397 1.249 . S
H404 C386 0.948 . S
O405 Zn395 2.039 . S
O405 C409 1.260 . S
O406 Zn387 2.025 . S
O406 C409 1.247 1_565 S
O407 C388 1.246 1_545 S
O407 Zn395 2.034 . S
O408 Zn387 2.024 . S
O408 C388 1.249 . S
C409 O405 1.260 . S
C409 O406 1.247 1_545 S
H410 C383 0.949 . S
H411 C385 0.950 . S
H412 C392 0.949 . S
H413 C394 0.950 . S
C414 O430 1.251 . S
C414 O432 1.254 . S
N415 C416 1.333 . S
N415 C420 1.307 . S
N415 Zn421 2.020 . S
C416 N415 1.333 . S
C416 C417 1.379 . S
C416 H434 0.952 . S
C417 C416 1.379 . S
C417 C418 1.390 . S
C417 H444 0.949 . S
C418 C417 1.390 . S
C418 C419 1.357 . S
C419 C418 1.357 . S
C419 C420 1.370 . S
C419 H445 0.950 1_556 S
C420 N415 1.307 . S
C420 C419 1.370 . S
C420 H438 0.948 . S
Zn421 N415 2.020 . S
Zn421 O430 2.039 . S
Zn421 O436 2.034 . S
Zn421 O440 2.025 . S
Zn421 O442 2.024 . S
C422 O441 1.246 . S
C422 O442 1.249 . S
N423 C424 1.307 . S
N423 C425 1.333 . S
N423 Zn429 2.020 . S
C424 N423 1.307 . S
C424 C428 1.370 . S
C424 H435 0.948 . S
C425 N423 1.333 . S
C425 C426 1.379 . S
C425 H433 0.952 . S
C426 C425 1.379 . S
C426 C427 1.390 . S
C426 H446 0.949 . S
C427 C426 1.390 . S
C427 C428 1.357 . S
C428 C424 1.370 . S
C428 C427 1.357 . S
C428 H447 0.950 . S
Zn429 N423 2.020 . S
Zn429 O432 2.025 . S
Zn429 O437 2.024 . S
Zn429 O439 2.039 . S
Zn429 O441 2.034 . S
O430 C414 1.251 . S
O430 Zn421 2.039 . S
C431 O436 1.246 . S
C431 O437 1.249 . S
O432 C414 1.254 . S
O432 Zn429 2.025 . S
H433 C425 0.952 . S
H434 C416 0.952 . S
H435 C424 0.948 . S
O436 Zn421 2.034 . S
O436 C431 1.246 . S
O437 Zn429 2.024 . S
O437 C431 1.249 . S
H438 C420 0.948 . S
O439 Zn429 2.039 . S
O439 C443 1.251 . S
O440 Zn421 2.025 . S
O440 C443 1.254 . S
O441 C422 1.246 . S
O441 Zn429 2.034 . S
O442 Zn421 2.024 . S
O442 C422 1.249 . S
C443 O439 1.251 . S
C443 O440 1.254 . S
H444 C417 0.949 . S
H445 C419 0.950 1_554 S
H446 C426 0.949 . S
H447 C428 0.950 . S
C448 O464 1.251 1_565 S
C448 O466 1.254 . S
N449 C450 1.333 . S
N449 C454 1.307 . S
N449 Zn455 2.020 . S
C450 N449 1.333 . S
C450 C451 1.379 . S
C450 H468 0.952 . S
C451 C450 1.379 . S
C451 C452 1.390 . S
C451 H478 0.949 . S
C452 C451 1.390 . S
C452 C453 1.357 . S
C453 C452 1.357 . S
C453 C454 1.370 . S
C453 H479 0.950 . S
C454 N449 1.307 . S
C454 C453 1.370 . S
C454 H472 0.948 . S
Zn455 N449 2.020 . S
Zn455 O464 2.039 . S
Zn455 O470 2.034 . S
Zn455 O474 2.025 . S
Zn455 O476 2.024 1_545 S
C456 O475 1.246 . S
C456 O476 1.249 . S
N457 C458 1.307 . S
N457 C459 1.333 1_455 S
N457 Zn463 2.020 1_565 S
C458 N457 1.307 . S
C458 C462 1.370 . S
C458 H469 0.948 . S
C459 N457 1.333 1_655 S
C459 C460 1.379 . S
C459 H467 0.952 . S
C460 C459 1.379 . S
C460 C461 1.390 . S
C460 H480 0.949 . S
C461 C460 1.390 . S
C461 C462 1.357 1_655 S
C462 C458 1.370 . S
C462 C461 1.357 1_455 S
C462 H481 0.950 . S
Zn463 N457 2.020 1_545 S
Zn463 O466 2.025 1_545 S
Zn463 O471 2.024 . S
Zn463 O473 2.039 1_455 S
Zn463 O475 2.034 1_545 S
O464 C448 1.251 1_545 S
O464 Zn455 2.039 . S
C465 O470 1.246 . S
C465 O471 1.249 . S
O466 C448 1.254 . S
O466 Zn463 2.025 1_565 S
H467 C459 0.952 . S
H468 C450 0.952 . S
H469 C458 0.948 . S
O470 Zn455 2.034 . S
O470 C465 1.246 . S
O471 Zn463 2.024 . S
O471 C465 1.249 . S
H472 C454 0.948 . S
O473 Zn463 2.039 1_655 S
O473 C477 1.251 . S
O474 Zn455 2.025 . S
O474 C477 1.254 1_455 S
O475 C456 1.246 . S
O475 Zn463 2.034 1_565 S
O476 Zn455 2.024 1_565 S
O476 C456 1.249 . S
C477 O473 1.251 . S
C477 O474 1.254 1_655 S
H478 C451 0.949 . S
H479 C453 0.950 . S
H480 C460 0.949 . S
H481 C462 0.950 . S
C482 O498 1.251 . S
C482 O500 1.254 . S
N483 C484 1.333 . S
N483 C488 1.307 . S
N483 Zn489 2.020 . S
C484 N483 1.333 . S
C484 C485 1.379 . S
C484 H502 0.952 . S
C485 C484 1.379 . S
C485 C486 1.390 . S
C485 H512 0.949 . S
C486 C485 1.390 . S
C486 C487 1.357 . S
C487 C486 1.357 . S
C487 C488 1.370 . S
C487 H513 0.950 . S
C488 N483 1.307 . S
C488 C487 1.370 . S
C488 H506 0.948 . S
Zn489 N483 2.020 . S
Zn489 O498 2.039 . S
Zn489 O504 2.034 . S
Zn489 O508 2.025 . S
Zn489 O510 2.024 . S
C490 O509 1.246 . S
C490 O510 1.249 . S
N491 C492 1.307 . S
N491 C493 1.333 . S
N491 Zn497 2.020 . S
C492 N491 1.307 . S
C492 C496 1.370 . S
C492 H503 0.948 . S
C493 N491 1.333 . S
C493 C494 1.379 . S
C493 H501 0.952 . S
C494 C493 1.379 . S
C494 C495 1.390 . S
C494 H514 0.949 . S
C495 C494 1.390 . S
C495 C496 1.357 . S
C496 C492 1.370 . S
C496 C495 1.357 . S
C496 H515 0.950 . S
Zn497 N491 2.020 . S
Zn497 O500 2.025 . S
Zn497 O505 2.024 . S
Zn497 O507 2.039 . S
Zn497 O509 2.034 . S
O498 C482 1.251 . S
O498 Zn489 2.039 . S
C499 O504 1.246 . S
C499 O505 1.249 . S
O500 C482 1.254 . S
O500 Zn497 2.025 . S
H501 C493 0.952 . S
H502 C484 0.952 . S
H503 C492 0.948 . S
O504 Zn489 2.034 . S
O504 C499 1.246 . S
O505 Zn497 2.024 . S
O505 C499 1.249 . S
H506 C488 0.948 . S
O507 Zn497 2.039 . S
O507 C511 1.251 . S
O508 Zn489 2.025 . S
O508 C511 1.254 . S
O509 C490 1.246 . S
O509 Zn497 2.034 . S
O510 Zn489 2.024 . S
O510 C490 1.249 . S
C511 O507 1.251 . S
C511 O508 1.254 . S
H512 C485 0.949 . S
H513 C487 0.950 . S
H514 C494 0.949 . S
H515 C496 0.950 . S
C516 O532 1.251 . S
C516 O534 1.254 . S
N517 C518 1.333 . S
N517 C522 1.307 . S
N517 Zn523 2.020 . S
C518 N517 1.333 . S
C518 C519 1.379 . S
C518 H536 0.952 1_545 S
C519 C518 1.379 . S
C519 C520 1.390 . S
C519 H546 0.949 . S
C520 C519 1.390 . S
C520 C521 1.357 . S
C521 C520 1.357 . S
C521 C522 1.370 . S
C521 H547 0.950 . S
C522 N517 1.307 . S
C522 C521 1.370 . S
C522 H540 0.948 . S
Zn523 N517 2.020 . S
Zn523 O532 2.039 1_545 S
Zn523 O538 2.034 . S
Zn523 O542 2.025 . S
Zn523 O544 2.024 . S
C524 O543 1.246 . S
C524 O544 1.249 1_565 S
N525 C526 1.307 . S
N525 C527 1.333 . S
N525 Zn531 2.020 1_556 S
C526 N525 1.307 . S
C526 C530 1.370 . S
C526 H537 0.948 . S
C527 N525 1.333 . S
C527 C528 1.379 . S
C527 H535 0.952 1_565 S
C528 C527 1.379 . S
C528 C529 1.390 . S
C528 H548 0.949 1_565 S
C529 C528 1.390 . S
C529 C530 1.357 . S
C530 C526 1.370 . S
C530 C529 1.357 . S
C530 H549 0.950 . S
Zn531 N525 2.020 1_554 S
Zn531 O534 2.025 . S
Zn531 O539 2.024 1_565 S
Zn531 O541 2.039 1_564 S
Zn531 O543 2.034 . S
O532 C516 1.251 . S
O532 Zn523 2.039 1_565 S
C533 O538 1.246 . S
C533 O539 1.249 . S
O534 C516 1.254 . S
O534 Zn531 2.025 . S
H535 C527 0.952 1_545 S
H536 C518 0.952 1_565 S
H537 C526 0.948 . S
O538 Zn523 2.034 . S
O538 C533 1.246 . S
O539 Zn531 2.024 1_545 S
O539 C533 1.249 . S
H540 C522 0.948 . S
O541 Zn531 2.039 1_546 S
O541 C545 1.251 1_556 S
O542 Zn523 2.025 . S
O542 C545 1.254 . S
O543 C524 1.246 . S
O543 Zn531 2.034 . S
O544 Zn523 2.024 . S
O544 C524 1.249 1_545 S
C545 O541 1.251 1_554 S
C545 O542 1.254 . S
H546 C519 0.949 . S
H547 C521 0.950 . S
H548 C528 0.949 1_545 S
H549 C530 0.950 . S
C550 O566 1.251 . S
C550 O568 1.254 . S
N551 C552 1.333 . S
N551 C556 1.307 . S
N551 Zn557 2.020 . S
C552 N551 1.333 . S
C552 C553 1.379 . S
C552 H570 0.952 . S
C553 C552 1.379 . S
C553 C554 1.390 . S
C553 H580 0.949 . S
C554 C553 1.390 . S
C554 C555 1.357 . S
C555 C554 1.357 . S
C555 C556 1.370 . S
C555 H581 0.950 . S
C556 N551 1.307 . S
C556 C555 1.370 . S
C556 H574 0.948 . S
Zn557 N551 2.020 . S
Zn557 O566 2.039 . S
Zn557 O572 2.034 . S
Zn557 O576 2.025 . S
Zn557 O578 2.024 . S
C558 O577 1.246 . S
C558 O578 1.249 . S
N559 C560 1.307 . S
N559 C561 1.333 . S
N559 Zn565 2.020 . S
C560 N559 1.307 . S
C560 C564 1.370 . S
C560 H571 0.948 . S
C561 N559 1.333 . S
C561 C562 1.379 . S
C561 H569 0.952 . S
C562 C561 1.379 . S
C562 C563 1.390 . S
C562 H582 0.949 . S
C563 C562 1.390 . S
C563 C564 1.357 . S
C564 C560 1.370 . S
C564 C563 1.357 . S
C564 H583 0.950 . S
Zn565 N559 2.020 . S
Zn565 O568 2.025 . S
Zn565 O573 2.024 . S
Zn565 O575 2.039 . S
Zn565 O577 2.034 . S
O566 C550 1.251 . S
O566 Zn557 2.039 . S
C567 O572 1.246 . S
C567 O573 1.249 . S
O568 C550 1.254 . S
O568 Zn565 2.025 . S
H569 C561 0.952 . S
H570 C552 0.952 . S
H571 C560 0.948 . S
O572 Zn557 2.034 . S
O572 C567 1.246 . S
O573 Zn565 2.024 . S
O573 C567 1.249 . S
H574 C556 0.948 . S
O575 Zn565 2.039 . S
O575 C579 1.251 . S
O576 Zn557 2.025 . S
O576 C579 1.254 . S
O577 C558 1.246 . S
O577 Zn565 2.034 . S
O578 Zn557 2.024 . S
O578 C558 1.249 . S
C579 O575 1.251 . S
C579 O576 1.254 . S
H580 C553 0.949 . S
H581 C555 0.950 . S
H582 C562 0.949 . S
H583 C564 0.950 . S
C584 O600 1.251 . S
C584 O602 1.254 . S
N585 C586 1.333 . S
N585 C590 1.307 . S
N585 Zn591 2.020 1_556 S
C586 N585 1.333 . S
C586 C587 1.379 . S
C586 H604 0.952 . S
C587 C586 1.379 . S
C587 C588 1.390 . S
C587 H614 0.949 . S
C588 C587 1.390 . S
C588 C589 1.357 . S
C589 C588 1.357 . S
C589 C590 1.370 . S
C589 H615 0.950 . S
C590 N585 1.307 . S
C590 C589 1.370 . S
C590 H608 0.948 . S
Zn591 N585 2.020 1_554 S
Zn591 O600 2.039 . S
Zn591 O606 2.034 . S
Zn591 O610 2.025 1_554 S
Zn591 O612 2.024 1_554 S
C592 O611 1.246 . S
C592 O612 1.249 1_554 S
N593 C594 1.307 . S
N593 C595 1.333 . S
N593 Zn599 2.020 . S
C594 N593 1.307 . S
C594 C598 1.370 . S
C594 H605 0.948 . S
C595 N593 1.333 . S
C595 C596 1.379 . S
C595 H603 0.952 . S
C596 C595 1.379 . S
C596 C597 1.390 . S
C596 H616 0.949 . S
C597 C596 1.390 . S
C597 C598 1.357 . S
C598 C594 1.370 . S
C598 C597 1.357 . S
C598 H617 0.950 . S
Zn599 N593 2.020 . S
Zn599 O602 2.025 . S
Zn599 O607 2.024 . S
Zn599 O609 2.039 . S
Zn599 O611 2.034 . S
O600 C584 1.251 . S
O600 Zn591 2.039 . S
C601 O606 1.246 . S
C601 O607 1.249 . S
O602 C584 1.254 . S
O602 Zn599 2.025 . S
H603 C595 0.952 . S
H604 C586 0.952 . S
H605 C594 0.948 . S
O606 Zn591 2.034 . S
O606 C601 1.246 . S
O607 Zn599 2.024 . S
O607 C601 1.249 . S
H608 C590 0.948 . S
O609 Zn599 2.039 . S
O609 C613 1.251 . S
O610 Zn591 2.025 1_556 S
O610 C613 1.250 1_556 S
O611 C592 1.246 . S
O611 Zn599 2.034 . S
O612 Zn591 2.024 1_556 S
O612 C592 1.249 1_556 S
C613 O609 1.251 . S
C613 O610 1.250 1_554 S
H614 C587 0.949 . S
H615 C589 0.950 . S
H616 C596 0.949 . S
H617 C598 0.950 . S
C618 O634 1.251 . S
C618 O636 1.254 . S
N619 C620 1.333 . S
N619 C624 1.307 . S
N619 Zn625 2.020 . S
C620 N619 1.333 . S
C620 C621 1.379 . S
C620 H638 0.952 . S
C621 C620 1.379 . S
C621 C622 1.390 1_655 S
C621 H648 0.949 . S
C622 C621 1.390 1_455 S
C622 C623 1.357 . S
C623 C622 1.357 . S
C623 C624 1.370 1_455 S
C623 H649 0.950 . S
C624 N619 1.307 . S
C624 C623 1.370 1_655 S
C624 H642 0.948 . S
Zn625 N619 2.020 . S
Zn625 O634 2.039 . S
Zn625 O640 2.034 . S
Zn625 O644 2.025 . S
Zn625 O646 2.024 . S
C626 O645 1.246 . S
C626 O646 1.249 . S
N627 C628 1.307 . S
N627 C629 1.333 . S
N627 Zn633 2.020 . S
C628 N627 1.307 . S
C628 C632 1.370 . S
C628 H639 0.948 . S
C629 N627 1.333 . S
C629 C630 1.379 . S
C629 H637 0.952 . S
C630 C629 1.379 . S
C630 C631 1.390 . S
C630 H650 0.949 . S
C631 C630 1.390 . S
C631 C632 1.357 . S
C632 C628 1.370 . S
C632 C631 1.357 . S
C632 H651 0.950 . S
Zn633 N627 2.020 . S
Zn633 O636 2.025 . S
Zn633 O641 2.024 . S
Zn633 O643 2.039 . S
Zn633 O645 2.034 . S
O634 C618 1.251 . S
O634 Zn625 2.039 . S
C635 O640 1.246 . S
C635 O641 1.249 . S
O636 C618 1.254 . S
O636 Zn633 2.025 . S
H637 C629 0.952 . S
H638 C620 0.952 . S
H639 C628 0.948 . S
O640 Zn625 2.034 . S
O640 C635 1.246 . S
O641 Zn633 2.024 . S
O641 C635 1.249 . S
H642 C624 0.948 . S
O643 Zn633 2.039 . S
O643 C647 1.251 . S
O644 Zn625 2.025 . S
O644 C647 1.254 . S
O645 C626 1.246 . S
O645 Zn633 2.034 . S
O646 Zn625 2.024 . S
O646 C626 1.249 . S
C647 O643 1.251 . S
C647 O644 1.254 . S
H648 C621 0.949 . S
H649 C623 0.950 . S
H650 C630 0.949 . S
H651 C632 0.950 . S
C652 O668 1.251 . S
C652 O670 1.254 . S
N653 C654 1.333 . S
N653 C658 1.307 . S
N653 Zn659 2.020 . S
C654 N653 1.333 . S
C654 C655 1.379 . S
C654 H672 0.952 . S
C655 C654 1.379 . S
C655 C656 1.390 . S
C655 H682 0.949 . S
C656 C655 1.390 . S
C656 C657 1.357 . S
C657 C656 1.357 . S
C657 C658 1.370 . S
C657 H683 0.950 . S
C658 N653 1.307 . S
C658 C657 1.370 . S
C658 H676 0.948 . S
Zn659 N653 2.020 . S
Zn659 O668 2.039 . S
Zn659 O674 2.034 . S
Zn659 O678 2.025 . S
Zn659 O680 2.024 . S
C660 O679 1.246 . S
C660 O680 1.249 . S
N661 C662 1.307 1_455 S
N661 C663 1.333 . S
N661 Zn667 2.020 . S
C662 N661 1.307 1_655 S
C662 C666 1.370 . S
C662 H673 0.948 . S
C663 N661 1.333 . S
C663 C664 1.379 . S
C663 H671 0.952 . S
C664 C663 1.379 . S
C664 C665 1.390 1_455 S
C664 H684 0.949 . S
C665 C664 1.390 1_655 S
C665 C666 1.357 . S
C666 C662 1.370 . S
C666 C665 1.357 . S
C666 H685 0.950 . S
Zn667 N661 2.020 . S
Zn667 O670 2.025 . S
Zn667 O675 2.024 1_455 S
Zn667 O677 2.039 . S
Zn667 O679 2.034 . S
O668 C652 1.251 . S
O668 Zn659 2.039 . S
C669 O674 1.246 1_655 S
C669 O675 1.249 . S
O670 C652 1.254 . S
O670 Zn667 2.025 . S
H671 C663 0.952 . S
H672 C654 0.952 . S
H673 C662 0.948 . S
O674 Zn659 2.034 . S
O674 C669 1.246 1_455 S
O675 Zn667 2.024 1_655 S
O675 C669 1.249 . S
H676 C658 0.948 . S
O677 Zn667 2.039 . S
O677 C681 1.251 . S
O678 Zn659 2.025 . S
O678 C681 1.254 . S
O679 C660 1.246 . S
O679 Zn667 2.034 . S
O680 Zn659 2.024 . S
O680 C660 1.249 . S
C681 O677 1.251 . S
C681 O678 1.254 . S
H682 C655 0.949 . S
H683 C657 0.950 . S
H684 C664 0.949 . S
H685 C666 0.950 . S
C686 O702 1.251 . S
C686 O704 1.254 . S
N687 C688 1.333 . S
N687 C692 1.307 . S
N687 Zn693 2.020 . S
C688 N687 1.333 . S
C688 C689 1.379 . S
C688 H706 0.952 . S
C689 C688 1.379 . S
C689 C690 1.390 . S
C689 H716 0.949 . S
C690 C689 1.390 . S
C690 C691 1.357 . S
C691 C690 1.357 . S
C691 C692 1.370 . S
C691 H717 0.950 . S
C692 N687 1.307 . S
C692 C691 1.370 . S
C692 H710 0.948 . S
Zn693 N687 2.020 . S
Zn693 O702 2.039 . S
Zn693 O708 2.034 . S
Zn693 O712 2.025 . S
Zn693 O714 2.024 . S
C694 O713 1.246 . S
C694 O714 1.249 . S
N695 C696 1.307 . S
N695 C697 1.333 . S
N695 Zn701 2.020 . S
C696 N695 1.307 . S
C696 C700 1.370 . S
C696 H707 0.948 . S
C697 N695 1.333 . S
C697 C698 1.379 . S
C697 H705 0.952 . S
C698 C697 1.379 . S
C698 C699 1.390 . S
C698 H718 0.949 . S
C699 C698 1.390 . S
C699 C700 1.357 . S
C700 C696 1.370 . S
C700 C699 1.357 . S
C700 H719 0.950 . S
Zn701 N695 2.020 . S
Zn701 O704 2.025 . S
Zn701 O709 2.024 . S
Zn701 O711 2.039 . S
Zn701 O713 2.034 . S
O702 C686 1.251 . S
O702 Zn693 2.039 . S
C703 O708 1.246 . S
C703 O709 1.249 . S
O704 C686 1.254 . S
O704 Zn701 2.025 . S
H705 C697 0.952 . S
H706 C688 0.952 . S
H707 C696 0.948 . S
O708 Zn693 2.034 . S
O708 C703 1.246 . S
O709 Zn701 2.024 . S
O709 C703 1.249 . S
H710 C692 0.948 . S
O711 Zn701 2.039 . S
O711 C715 1.251 . S
O712 Zn693 2.025 . S
O712 C715 1.254 . S
O713 C694 1.246 . S
O713 Zn701 2.034 . S
O714 Zn693 2.024 . S
O714 C694 1.249 . S
C715 O711 1.251 . S
C715 O712 1.254 . S
H716 C689 0.949 . S
H717 C691 0.950 . S
H718 C698 0.949 . S
H719 C700 0.950 . S
C720 O736 1.251 . S
C720 O738 1.254 . S
N721 C722 1.333 . S
N721 C726 1.307 . S
N721 Zn727 2.020 . S
C722 N721 1.333 . S
C722 C723 1.379 . S
C722 H740 0.952 . S
C723 C722 1.379 . S
C723 C724 1.390 . S
C723 H750 0.949 . S
C724 C723 1.390 . S
C724 C725 1.357 . S
C725 C724 1.357 . S
C725 C726 1.370 . S
C725 H751 0.950 . S
C726 N721 1.307 . S
C726 C725 1.370 . S
C726 H744 0.948 . S
Zn727 N721 2.020 . S
Zn727 O736 2.039 . S
Zn727 O742 2.034 . S
Zn727 O746 2.025 . S
Zn727 O748 2.024 . S
C728 O747 1.246 . S
C728 O748 1.249 . S
N729 C730 1.307 . S
N729 C731 1.333 . S
N729 Zn735 2.020 . S
C730 N729 1.307 . S
C730 C734 1.370 . S
C730 H741 0.948 . S
C731 N729 1.333 . S
C731 C732 1.379 . S
C731 H739 0.952 . S
C732 C731 1.379 . S
C732 C733 1.390 . S
C732 H752 0.949 . S
C733 C732 1.390 . S
C733 C734 1.357 . S
C734 C730 1.370 . S
C734 C733 1.357 . S
C734 H753 0.950 . S
Zn735 N729 2.020 . S
Zn735 O738 2.025 . S
Zn735 O743 2.024 . S
Zn735 O745 2.039 . S
Zn735 O747 2.034 . S
O736 C720 1.251 . S
O736 Zn727 2.039 . S
C737 O742 1.246 . S
C737 O743 1.249 . S
O738 C720 1.254 . S
O738 Zn735 2.025 . S
H739 C731 0.952 . S
H740 C722 0.952 . S
H741 C730 0.948 . S
O742 Zn727 2.034 . S
O742 C737 1.246 . S
O743 Zn735 2.024 . S
O743 C737 1.249 . S
H744 C726 0.948 . S
O745 Zn735 2.039 . S
O745 C749 1.251 . S
O746 Zn727 2.025 . S
O746 C749 1.254 . S
O747 C728 1.246 . S
O747 Zn735 2.034 . S
O748 Zn727 2.024 . S
O748 C728 1.249 . S
C749 O745 1.251 . S
C749 O746 1.254 . S
H750 C723 0.949 . S
H751 C725 0.950 . S
H752 C732 0.949 . S
H753 C734 0.950 . S
C754 O770 1.251 . S
C754 O772 1.254 . S
N755 C756 1.333 . S
N755 C760 1.307 . S
N755 Zn761 2.020 . S
C756 N755 1.333 . S
C756 C757 1.379 . S
C756 H774 0.952 . S
C757 C756 1.379 . S
C757 C758 1.390 . S
C757 H784 0.949 . S
C758 C757 1.390 . S
C758 C759 1.357 . S
C759 C758 1.357 . S
C759 C760 1.370 . S
C759 H785 0.950 . S
C760 N755 1.307 . S
C760 C759 1.370 . S
C760 H778 0.948 . S
Zn761 N755 2.020 . S
Zn761 O770 2.039 . S
Zn761 O776 2.034 . S
Zn761 O780 2.025 . S
Zn761 O782 2.024 . S
C762 O781 1.246 . S
C762 O782 1.249 . S
N763 C764 1.307 . S
N763 C765 1.333 . S
N763 Zn769 2.020 . S
C764 N763 1.307 . S
C764 C768 1.370 . S
C764 H775 0.948 . S
C765 N763 1.333 . S
C765 C766 1.379 . S
C765 H773 0.952 . S
C766 C765 1.379 . S
C766 C767 1.390 . S
C766 H786 0.949 . S
C767 C766 1.390 . S
C767 C768 1.357 . S
C768 C764 1.370 . S
C768 C767 1.357 . S
C768 H787 0.950 . S
Zn769 N763 2.020 . S
Zn769 O772 2.025 . S
Zn769 O777 2.024 . S
Zn769 O779 2.039 . S
Zn769 O781 2.034 . S
O770 C754 1.251 . S
O770 Zn761 2.039 . S
C771 O776 1.246 . S
C771 O777 1.249 . S
O772 C754 1.254 . S
O772 Zn769 2.025 . S
H773 C765 0.952 . S
H774 C756 0.952 . S
H775 C764 0.948 . S
O776 Zn761 2.034 . S
O776 C771 1.246 . S
O777 Zn769 2.024 . S
O777 C771 1.249 . S
H778 C760 0.948 . S
O779 Zn769 2.039 . S
O779 C783 1.251 . S
O780 Zn761 2.025 . S
O780 C783 1.254 . S
O781 C762 1.246 . S
O781 Zn769 2.034 . S
O782 Zn761 2.024 . S
O782 C762 1.249 . S
C783 O779 1.251 . S
C783 O780 1.254 . S
H784 C757 0.949 . S
H785 C759 0.950 . S
H786 C766 0.949 . S
H787 C768 0.950 . S
C788 O804 1.251 . S
C788 O806 1.254 . S
N789 C790 1.333 . S
N789 C794 1.307 . S
N789 Zn795 2.020 . S
C790 N789 1.333 . S
C790 C791 1.379 . S
C790 H808 0.952 . S
C791 C790 1.379 . S
C791 C792 1.390 . S
C791 H818 0.949 . S
C792 C791 1.390 . S
C792 C793 1.357 . S
C793 C792 1.357 . S
C793 C794 1.370 . S
C793 H819 0.950 . S
C794 N789 1.307 . S
C794 C793 1.370 . S
C794 H812 0.948 . S
Zn795 N789 2.020 . S
Zn795 O804 2.039 . S
Zn795 O810 2.034 . S
Zn795 O814 2.025 . S
Zn795 O816 2.024 . S
C796 O815 1.246 . S
C796 O816 1.249 . S
N797 C798 1.307 . S
N797 C799 1.333 . S
N797 Zn803 2.020 . S
C798 N797 1.307 . S
C798 C802 1.370 . S
C798 H809 0.948 . S
C799 N797 1.333 . S
C799 C800 1.379 . S
C799 H807 0.952 . S
C800 C799 1.379 . S
C800 C801 1.390 . S
C800 H820 0.949 . S
C801 C800 1.390 . S
C801 C802 1.357 . S
C802 C798 1.370 . S
C802 C801 1.357 . S
C802 H821 0.950 . S
Zn803 N797 2.020 . S
Zn803 O806 2.025 . S
Zn803 O811 2.024 . S
Zn803 O813 2.039 . S
Zn803 O815 2.034 . S
O804 C788 1.251 . S
O804 Zn795 2.039 . S
C805 O810 1.246 . S
C805 O811 1.249 . S
O806 C788 1.254 . S
O806 Zn803 2.025 . S
H807 C799 0.952 . S
H808 C790 0.952 . S
H809 C798 0.948 . S
O810 Zn795 2.034 . S
O810 C805 1.246 . S
O811 Zn803 2.024 . S
O811 C805 1.249 . S
H812 C794 0.948 . S
O813 Zn803 2.039 . S
O813 C817 1.251 . S
O814 Zn795 2.025 . S
O814 C817 1.254 . S
O815 C796 1.246 . S
O815 Zn803 2.034 . S
O816 Zn795 2.024 . S
O816 C796 1.249 . S
C817 O813 1.251 . S
C817 O814 1.254 . S
H818 C791 0.949 . S
H819 C793 0.950 . S
H820 C800 0.949 . S
H821 C802 0.950 . S
C822 O838 1.251 . S
C822 O840 1.254 . S
N823 C824 1.333 . S
N823 C828 1.307 . S
N823 Zn829 2.020 . S
C824 N823 1.333 . S
C824 C825 1.379 . S
C824 H842 0.952 . S
C825 C824 1.379 . S
C825 C826 1.390 . S
C825 H852 0.949 . S
C826 C825 1.390 . S
C826 C827 1.357 . S
C827 C826 1.357 . S
C827 C828 1.370 . S
C827 H853 0.950 . S
C828 N823 1.307 . S
C828 C827 1.370 . S
C828 H846 0.948 . S
Zn829 N823 2.020 . S
Zn829 O838 2.039 . S
Zn829 O844 2.034 . S
Zn829 O848 2.000 1_554 S
Zn829 O850 2.024 . S
C830 O849 1.246 . S
C830 O850 1.249 1_655 S
N831 C832 1.307 . S
N831 C833 1.333 1_554 S
N831 Zn837 2.020 . S
C832 N831 1.307 . S
C832 C836 1.370 . S
C832 H843 0.948 . S
C833 N831 1.333 1_556 S
C833 C834 1.380 . S
C833 H841 0.952 . S
C834 C833 1.380 . S
C834 C835 1.390 1_455 S
C834 H854 0.949 1_455 S
C835 C834 1.390 1_655 S
C835 C836 1.357 1_656 S
C836 C832 1.370 . S
C836 C835 1.357 1_454 S
C836 H855 0.950 . S
Zn837 N831 2.020 . S
Zn837 O840 2.025 . S
Zn837 O845 2.024 . S
Zn837 O847 2.039 1_554 S
Zn837 O849 2.034 1_455 S
O838 C822 1.251 . S
O838 Zn829 2.039 . S
C839 O844 1.246 . S
C839 O845 1.249 . S
O840 C822 1.254 . S
O840 Zn837 2.025 . S
H841 C833 0.952 . S
H842 C824 0.952 . S
H843 C832 0.948 . S
O844 Zn829 2.034 . S
O844 C839 1.246 . S
O845 Zn837 2.024 . S
O845 C839 1.249 . S
H846 C828 0.948 . S
O847 Zn837 2.039 1_556 S
O847 C851 1.251 . S
O848 Zn829 2.000 1_556 S
O848 C851 1.272 . S
O849 C830 1.246 . S
O849 Zn837 2.034 1_655 S
O850 Zn829 2.024 . S
O850 C830 1.249 1_455 S
C851 O847 1.251 . S
C851 O848 1.272 . S
H852 C825 0.949 . S
H853 C827 0.950 . S
H854 C834 0.949 1_655 S
H855 C836 0.950 . S
C329 C10 2.979 . S
C23 C375 2.906 . S
C36 C384 1.177 . S
C422 C42 2.567 . S
C18 C456 2.531 . S
C486 C31 1.033 . S
C545 C43 2.501 1_554 S
C5 C558 2.444 . S
C56 C341 2.384 1_545 S
C70 C359 1.761 . S
C380 C82 2.942 . S
C418 C96 2.794 . S
C57 C452 1.951 . S
C482 C69 2.738 . S
C529 C83 2.100 1_565 S
C554 C95 1.400 . S
C325 C94 1.470 1_556 S
C584 C108 2.270 . S
C122 C626 2.458 . S
C669 C140 0.512 1_655 S
C55 C550 2.572 . S
C388 C68 2.517 . S
C121 C686 2.026 . S
C737 C153 2.379 . S
C161 C320 3.010 1_656 S
C720 C174 2.658 . S
C186 C393 1.111 . S
C200 C703 2.304 . S
C465 C172 2.373 . S
C631 C192 0.747 . S
C516 C198 2.224 . S
C771 C159 2.906 . S
C312 C211 2.349 1_445 S
C225 C724 1.881 . S
C409 C239 2.690 . S
C251 C699 2.801 . S
C218 C461 1.977 1_545 S
C226 C647 2.601 . S
C520 C238 2.038 . S
C252 C767 1.376 . S
C250 C316 1.367 . S
C264 C613 1.934 . S
C276 C499 2.595 . S
C290 C660 1.014 . S
C783 C213 2.351 . S
C397 C224 2.618 . S
C443 C283 1.563 . S
C354 C303 2.049 . S
C29 C805 3.009 . S
C749 C49 2.904 . S
C826 C3 1.198 . S
C16 C694 2.566 . S
C44 C592 2.533 1_556 S
C622 C4 1.015 . S
C681 C17 2.504 . S
C762 C30 2.410 . S
C817 C147 2.382 . S
C107 C733 1.763 1_554 S
C127 C822 2.948 1_655 S
C690 C135 2.796 . S
C588 C148 1.947 . S
C114 C618 2.733 . S
C665 C120 2.099 . S
C134 C758 1.392 . S
C801 C133 1.467 . S
C448 C75 2.274 . S
C490 C81 2.456 . S
C101 C533 0.512 . S
C754 C146 2.579 . S
C109 C830 2.517 . S
C414 C88 2.021 . S
C363 C62 2.375 . S
C187 C796 3.007 . S
C346 C199 2.642 . S
C835 C160 1.113 1_655 S
C173 C431 2.289 . S
C205 C601 2.355 . S
C166 C495 0.745 . S
C179 C652 2.205 . S
C185 C567 2.896 . S
C788 C302 2.359 . S
C270 C350 1.886 . S
C851 C278 2.687 . S
C296 C427 2.809 . S
C309 C597 1.982 . S
C511 C263 2.601 . S
C277 C656 2.046 . S
C563 C289 1.361 . S
C792 C291 1.366 . S
C477 C231 1.934 . S
C237 C635 2.592 . S
C524 C257 1.012 . S
C579 C304 2.362 . S
C265 C839 2.620 1_556 S
C715 C244 1.561 . S
C728 C212 2.048 . S
