# Generated by pormake.
# Topology gar, (4,6)-cn, num edge types: 1
# Building blocks:
#     Node 0, Type 0, BuildingBlock: GALJAG_clean_sbu_0, # of connection points: 4
#     Node 1, Type 0, BuildingBlock: GALJAG_clean_sbu_0, # of connection points: 4
#     Node 2, Type 0, BuildingBlock: GALJAG_clean_sbu_0, # of connection points: 4
#     Node 3, Type 0, BuildingBlock: GALJAG_clean_sbu_0, # of connection points: 4
#     Node 4, Type 0, BuildingBlock: GALJAG_clean_sbu_0, # of connection points: 4
#     Node 5, Type 0, BuildingBlock: GALJAG_clean_sbu_0, # of connection points: 4
#     Node 6, Type 0, BuildingBlock: GALJAG_clean_sbu_0, # of connection points: 4
#     Node 7, Type 0, BuildingBlock: GALJAG_clean_sbu_0, # of connection points: 4
#     Node 8, Type 0, BuildingBlock: GALJAG_clean_sbu_0, # of connection points: 4
#     Node 9, Type 0, BuildingBlock: GALJAG_clean_sbu_0, # of connection points: 4
#     Node 10, Type 0, BuildingBlock: GALJAG_clean_sbu_0, # of connection points: 4
#     Node 11, Type 0, BuildingBlock: GALJAG_clean_sbu_0, # of connection points: 4
#     Node 12, Type 0, BuildingBlock: GALJAG_clean_sbu_0, # of connection points: 4
#     Node 13, Type 0, BuildingBlock: GALJAG_clean_sbu_0, # of connection points: 4
#     Node 14, Type 0, BuildingBlock: GALJAG_clean_sbu_0, # of connection points: 4
#     Node 15, Type 0, BuildingBlock: GALJAG_clean_sbu_0, # of connection points: 4
#     Node 16, Type 0, BuildingBlock: GALJAG_clean_sbu_0, # of connection points: 4
#     Node 17, Type 0, BuildingBlock: GALJAG_clean_sbu_0, # of connection points: 4
#     Node 18, Type 0, BuildingBlock: GALJAG_clean_sbu_0, # of connection points: 4
#     Node 19, Type 0, BuildingBlock: GALJAG_clean_sbu_0, # of connection points: 4
#     Node 20, Type 0, BuildingBlock: GALJAG_clean_sbu_0, # of connection points: 4
#     Node 21, Type 0, BuildingBlock: GALJAG_clean_sbu_0, # of connection points: 4
#     Node 22, Type 0, BuildingBlock: GALJAG_clean_sbu_0, # of connection points: 4
#     Node 23, Type 0, BuildingBlock: GALJAG_clean_sbu_0, # of connection points: 4
#     Node 24, Type 1, BuildingBlock: NUHQIS_clean_sbu_0, # of connection points: 6
#     Node 25, Type 1, BuildingBlock: NUHQIS_clean_sbu_0, # of connection points: 6
#     Node 26, Type 1, BuildingBlock: NUHQIS_clean_sbu_0, # of connection points: 6
#     Node 27, Type 1, BuildingBlock: NUHQIS_clean_sbu_0, # of connection points: 6
#     Node 28, Type 1, BuildingBlock: NUHQIS_clean_sbu_0, # of connection points: 6
#     Node 29, Type 1, BuildingBlock: NUHQIS_clean_sbu_0, # of connection points: 6
#     Node 30, Type 1, BuildingBlock: NUHQIS_clean_sbu_0, # of connection points: 6
#     Node 31, Type 1, BuildingBlock: NUHQIS_clean_sbu_0, # of connection points: 6
#     Node 32, Type 1, BuildingBlock: NUHQIS_clean_sbu_0, # of connection points: 6
#     Node 33, Type 1, BuildingBlock: NUHQIS_clean_sbu_0, # of connection points: 6
#     Node 34, Type 1, BuildingBlock: NUHQIS_clean_sbu_0, # of connection points: 6
#     Node 35, Type 1, BuildingBlock: NUHQIS_clean_sbu_0, # of connection points: 6
#     Node 36, Type 1, BuildingBlock: NUHQIS_clean_sbu_0, # of connection points: 6
#     Node 37, Type 1, BuildingBlock: NUHQIS_clean_sbu_0, # of connection points: 6
#     Node 38, Type 1, BuildingBlock: NUHQIS_clean_sbu_0, # of connection points: 6
#     Node 39, Type 1, BuildingBlock: NUHQIS_clean_sbu_0, # of connection points: 6
#     Edge 40, Type (0, 1), BuildingBlock: AJUNOK_clean_linker_0, # of connection points: 2
#     Edge 41, Type (0, 1), BuildingBlock: AJUNOK_clean_linker_0, # of connection points: 2
#     Edge 42, Type (0, 1), BuildingBlock: AJUNOK_clean_linker_0, # of connection points: 2
#     Edge 43, Type (0, 1), BuildingBlock: AJUNOK_clean_linker_0, # of connection points: 2
#     Edge 44, Type (0, 1), BuildingBlock: AJUNOK_clean_linker_0, # of connection points: 2
#     Edge 45, Type (0, 1), BuildingBlock: AJUNOK_clean_linker_0, # of connection points: 2
#     Edge 46, Type (0, 1), BuildingBlock: AJUNOK_clean_linker_0, # of connection points: 2
#     Edge 47, Type (0, 1), BuildingBlock: AJUNOK_clean_linker_0, # of connection points: 2
#     Edge 48, Type (0, 1), BuildingBlock: AJUNOK_clean_linker_0, # of connection points: 2
#     Edge 49, Type (0, 1), BuildingBlock: AJUNOK_clean_linker_0, # of connection points: 2
#     Edge 50, Type (0, 1), BuildingBlock: AJUNOK_clean_linker_0, # of connection points: 2
#     Edge 51, Type (0, 1), BuildingBlock: AJUNOK_clean_linker_0, # of connection points: 2
#     Edge 52, Type (0, 1), BuildingBlock: AJUNOK_clean_linker_0, # of connection points: 2
#     Edge 53, Type (0, 1), BuildingBlock: AJUNOK_clean_linker_0, # of connection points: 2
#     Edge 54, Type (0, 1), BuildingBlock: AJUNOK_clean_linker_0, # of connection points: 2
#     Edge 55, Type (0, 1), BuildingBlock: AJUNOK_clean_linker_0, # of connection points: 2
#     Edge 56, Type (0, 1), BuildingBlock: AJUNOK_clean_linker_0, # of connection points: 2
#     Edge 57, Type (0, 1), BuildingBlock: AJUNOK_clean_linker_0, # of connection points: 2
#     Edge 58, Type (0, 1), BuildingBlock: AJUNOK_clean_linker_0, # of connection points: 2
#     Edge 59, Type (0, 1), BuildingBlock: AJUNOK_clean_linker_0, # of connection points: 2
#     Edge 60, Type (0, 1), BuildingBlock: AJUNOK_clean_linker_0, # of connection points: 2
#     Edge 61, Type (0, 1), BuildingBlock: AJUNOK_clean_linker_0, # of connection points: 2
#     Edge 62, Type (0, 1), BuildingBlock: AJUNOK_clean_linker_0, # of connection points: 2
#     Edge 63, Type (0, 1), BuildingBlock: AJUNOK_clean_linker_0, # of connection points: 2
#     Edge 64, Type (0, 1), BuildingBlock: AJUNOK_clean_linker_0, # of connection points: 2
#     Edge 65, Type (0, 1), BuildingBlock: AJUNOK_clean_linker_0, # of connection points: 2
#     Edge 66, Type (0, 1), BuildingBlock: AJUNOK_clean_linker_0, # of connection points: 2
#     Edge 67, Type (0, 1), BuildingBlock: AJUNOK_clean_linker_0, # of connection points: 2
#     Edge 68, Type (0, 1), BuildingBlock: AJUNOK_clean_linker_0, # of connection points: 2
#     Edge 69, Type (0, 1), BuildingBlock: AJUNOK_clean_linker_0, # of connection points: 2
#     Edge 70, Type (0, 1), BuildingBlock: AJUNOK_clean_linker_0, # of connection points: 2
#     Edge 71, Type (0, 1), BuildingBlock: AJUNOK_clean_linker_0, # of connection points: 2
#     Edge 72, Type (0, 1), BuildingBlock: AJUNOK_clean_linker_0, # of connection points: 2
#     Edge 73, Type (0, 1), BuildingBlock: AJUNOK_clean_linker_0, # of connection points: 2
#     Edge 74, Type (0, 1), BuildingBlock: AJUNOK_clean_linker_0, # of connection points: 2
#     Edge 75, Type (0, 1), BuildingBlock: AJUNOK_clean_linker_0, # of connection points: 2
#     Edge 76, Type (0, 1), BuildingBlock: AJUNOK_clean_linker_0, # of connection points: 2
#     Edge 77, Type (0, 1), BuildingBlock: AJUNOK_clean_linker_0, # of connection points: 2
#     Edge 78, Type (0, 1), BuildingBlock: AJUNOK_clean_linker_0, # of connection points: 2
#     Edge 79, Type (0, 1), BuildingBlock: AJUNOK_clean_linker_0, # of connection points: 2
#     Edge 80, Type (0, 1), BuildingBlock: AJUNOK_clean_linker_0, # of connection points: 2
#     Edge 81, Type (0, 1), BuildingBlock: AJUNOK_clean_linker_0, # of connection points: 2
#     Edge 82, Type (0, 1), BuildingBlock: AJUNOK_clean_linker_0, # of connection points: 2
#     Edge 83, Type (0, 1), BuildingBlock: AJUNOK_clean_linker_0, # of connection points: 2
#     Edge 84, Type (0, 1), BuildingBlock: AJUNOK_clean_linker_0, # of connection points: 2
#     Edge 85, Type (0, 1), BuildingBlock: AJUNOK_clean_linker_0, # of connection points: 2
#     Edge 86, Type (0, 1), BuildingBlock: AJUNOK_clean_linker_0, # of connection points: 2
#     Edge 87, Type (0, 1), BuildingBlock: AJUNOK_clean_linker_0, # of connection points: 2
#     Edge 88, Type (0, 1), BuildingBlock: AJUNOK_clean_linker_0, # of connection points: 2
#     Edge 89, Type (0, 1), BuildingBlock: AJUNOK_clean_linker_0, # of connection points: 2
#     Edge 90, Type (0, 1), BuildingBlock: AJUNOK_clean_linker_0, # of connection points: 2
#     Edge 91, Type (0, 1), BuildingBlock: AJUNOK_clean_linker_0, # of connection points: 2
#     Edge 92, Type (0, 1), BuildingBlock: AJUNOK_clean_linker_0, # of connection points: 2
#     Edge 93, Type (0, 1), BuildingBlock: AJUNOK_clean_linker_0, # of connection points: 2
#     Edge 94, Type (0, 1), BuildingBlock: AJUNOK_clean_linker_0, # of connection points: 2
#     Edge 95, Type (0, 1), BuildingBlock: AJUNOK_clean_linker_0, # of connection points: 2
#     Edge 96, Type (0, 1), BuildingBlock: AJUNOK_clean_linker_0, # of connection points: 2
#     Edge 97, Type (0, 1), BuildingBlock: AJUNOK_clean_linker_0, # of connection points: 2
#     Edge 98, Type (0, 1), BuildingBlock: AJUNOK_clean_linker_0, # of connection points: 2
#     Edge 99, Type (0, 1), BuildingBlock: AJUNOK_clean_linker_0, # of connection points: 2
#     Edge 100, Type (0, 1), BuildingBlock: AJUNOK_clean_linker_0, # of connection points: 2
#     Edge 101, Type (0, 1), BuildingBlock: AJUNOK_clean_linker_0, # of connection points: 2
#     Edge 102, Type (0, 1), BuildingBlock: AJUNOK_clean_linker_0, # of connection points: 2
#     Edge 103, Type (0, 1), BuildingBlock: AJUNOK_clean_linker_0, # of connection points: 2
#     Edge 104, Type (0, 1), BuildingBlock: AJUNOK_clean_linker_0, # of connection points: 2
#     Edge 105, Type (0, 1), BuildingBlock: AJUNOK_clean_linker_0, # of connection points: 2
#     Edge 106, Type (0, 1), BuildingBlock: AJUNOK_clean_linker_0, # of connection points: 2
#     Edge 107, Type (0, 1), BuildingBlock: AJUNOK_clean_linker_0, # of connection points: 2
#     Edge 108, Type (0, 1), BuildingBlock: AJUNOK_clean_linker_0, # of connection points: 2
#     Edge 109, Type (0, 1), BuildingBlock: AJUNOK_clean_linker_0, # of connection points: 2
#     Edge 110, Type (0, 1), BuildingBlock: AJUNOK_clean_linker_0, # of connection points: 2
#     Edge 111, Type (0, 1), BuildingBlock: AJUNOK_clean_linker_0, # of connection points: 2
#     Edge 112, Type (0, 1), BuildingBlock: AJUNOK_clean_linker_0, # of connection points: 2
#     Edge 113, Type (0, 1), BuildingBlock: AJUNOK_clean_linker_0, # of connection points: 2
#     Edge 114, Type (0, 1), BuildingBlock: AJUNOK_clean_linker_0, # of connection points: 2
#     Edge 115, Type (0, 1), BuildingBlock: AJUNOK_clean_linker_0, # of connection points: 2
#     Edge 116, Type (0, 1), BuildingBlock: AJUNOK_clean_linker_0, # of connection points: 2
#     Edge 117, Type (0, 1), BuildingBlock: AJUNOK_clean_linker_0, # of connection points: 2
#     Edge 118, Type (0, 1), BuildingBlock: AJUNOK_clean_linker_0, # of connection points: 2
#     Edge 119, Type (0, 1), BuildingBlock: AJUNOK_clean_linker_0, # of connection points: 2
#     Edge 120, Type (0, 1), BuildingBlock: AJUNOK_clean_linker_0, # of connection points: 2
#     Edge 121, Type (0, 1), BuildingBlock: AJUNOK_clean_linker_0, # of connection points: 2
#     Edge 122, Type (0, 1), BuildingBlock: AJUNOK_clean_linker_0, # of connection points: 2
#     Edge 123, Type (0, 1), BuildingBlock: AJUNOK_clean_linker_0, # of connection points: 2
#     Edge 124, Type (0, 1), BuildingBlock: AJUNOK_clean_linker_0, # of connection points: 2
#     Edge 125, Type (0, 1), BuildingBlock: AJUNOK_clean_linker_0, # of connection points: 2
#     Edge 126, Type (0, 1), BuildingBlock: AJUNOK_clean_linker_0, # of connection points: 2
#     Edge 127, Type (0, 1), BuildingBlock: AJUNOK_clean_linker_0, # of connection points: 2
#     Edge 128, Type (0, 1), BuildingBlock: AJUNOK_clean_linker_0, # of connection points: 2
#     Edge 129, Type (0, 1), BuildingBlock: AJUNOK_clean_linker_0, # of connection points: 2
#     Edge 130, Type (0, 1), BuildingBlock: AJUNOK_clean_linker_0, # of connection points: 2
#     Edge 131, Type (0, 1), BuildingBlock: AJUNOK_clean_linker_0, # of connection points: 2
#     Edge 132, Type (0, 1), BuildingBlock: AJUNOK_clean_linker_0, # of connection points: 2
#     Edge 133, Type (0, 1), BuildingBlock: AJUNOK_clean_linker_0, # of connection points: 2
#     Edge 134, Type (0, 1), BuildingBlock: AJUNOK_clean_linker_0, # of connection points: 2
#     Edge 135, Type (0, 1), BuildingBlock: AJUNOK_clean_linker_0, # of connection points: 2
# Relax obj value: 0.308
# Max RMSD: 0.360
# Mean RMSD: 0.168
data_MOF--net-gar--node1-GALJAG_clean_sbu_0--node2-NUHQIS_clean_sbu_0--edge1-AJUNOK_clean_linker_0
_symmetry_space_group_name_H-M    P1
_symmetry_Int_Tables_number       1
_symmetry_cell_setting            triclinic
loop_
_symmetry_equiv_pos_as_xyz
'x, y, z'
_cell_length_a     42.940112
_cell_length_b     45.824829
_cell_length_c     42.470874
_cell_angle_alpha  92.785735
_cell_angle_beta   96.660048
_cell_angle_gamma 100.13223
loop_
_atom_site_label
_atom_site_type_symbol
_atom_site_fract_x
_atom_site_fract_y
_atom_site_fract_z
_atom_type_partial_charge
In0 In 0.10745 0.32132 0.4349 0.0
O1 O 0.13582 0.31395 0.38807 0.0
O2 O 0.16543 0.33254 0.42808 0.0
C3 C 1.0438 0.31675 0.39954 0.0
C4 C 0.10302 0.26098 0.46544 0.0
C5 C 0.1083 0.38372 0.46596 0.0
O6 O 0.06984 0.3243 0.38811 0.0
O7 O 0.04953 0.31065 0.42821 0.0
O8 O 0.11579 0.36151 0.48039 0.0
O9 O 0.10125 0.37483 0.43678 0.0
C10 C 0.16481 0.32364 0.39909 0.0
O11 O 0.11101 0.28677 0.48024 0.0
O12 O 0.09735 0.26555 0.43618 0.0
In13 In 0.08579 0.82715 0.66685 0.0
O14 O 0.08164 0.86182 0.62175 0.0
O15 O 0.09624 0.88289 0.66578 0.0
C16 C 0.08505 0.76512 0.63476 0.0
C17 C 0.14937 0.83154 0.70275 0.0
C18 C 1.02776 0.82469 0.70193 0.0
O19 O 0.07912 0.78797 0.62058 0.0
O20 O 0.09043 0.77316 0.66423 0.0
O21 O 0.05672 0.83304 0.71385 0.0
O22 O 1.02764 0.81729 0.6726 0.0
C23 C 0.09001 0.88755 0.63659 0.0
O24 O 0.12312 0.82308 0.7135 0.0
O25 O 0.14393 0.83877 0.67445 0.0
In26 In 0.6074 0.82199 0.93487 0.0
O27 O 0.63602 0.81216 0.88854 0.0
O28 O 0.66464 0.83652 0.92615 0.0
C29 C 0.54456 0.81901 0.89802 0.0
C30 C 0.60291 0.76149 0.96551 0.0
C31 C 0.60766 0.88394 0.96727 0.0
O32 O 0.57117 0.82842 0.88828 0.0
O33 O 0.54931 0.80992 0.92563 0.0
O34 O 0.62355 0.86465 0.97836 0.0
O35 O 0.59223 0.87215 0.94108 0.0
C36 C 0.66454 0.82478 0.89833 0.0
O37 O 0.60812 0.78723 0.98046 0.0
O38 O 0.5999 0.76622 0.93614 0.0
In39 In 0.58612 0.32708 0.16874 0.0
O40 O 0.57929 0.28712 0.12317 0.0
O41 O 0.58967 0.27287 0.1673 0.0
C42 C 0.58992 0.38768 0.13832 0.0
C43 C 0.52793 0.32477 0.20319 0.0
C44 C 0.6498 0.33043 0.20423 0.0
O45 O 0.58365 0.36185 0.12349 0.0
O46 O 0.59443 0.38312 0.16773 0.0
O47 O 0.62358 0.32342 0.21549 0.0
O48 O 0.64433 0.3371 0.17571 0.0
C49 C 0.58464 0.26438 0.13794 0.0
O50 O 0.55683 0.33295 0.21542 0.0
O51 O 0.52798 0.31741 0.17387 0.0
In52 In 0.16773 0.91013 0.19802 0.0
O53 O 0.13719 0.86682 0.17629 0.0
O54 O 0.18632 0.8737 0.17109 0.0
C55 C 0.14897 0.94737 0.155 0.0
C56 C 0.13339 0.8999 0.24645 0.0
C57 C 0.22646 0.92236 0.23134 0.0
O58 O 0.17737 0.95032 0.16806 0.0
O59 O 0.13013 0.92644 0.16444 0.0
O60 O 0.20222 0.92842 0.24256 0.0
O61 O 0.22139 0.9129 0.20245 0.0
C62 C 0.1597 0.85641 0.16624 0.0
O63 O 0.1373 0.92487 0.23447 0.0
O64 O 0.14734 0.88097 0.23431 0.0
In65 In 0.53474 0.75411 0.42411 0.0
O66 O 0.56748 0.75143 0.386 0.0
O67 O 0.56895 0.79348 0.41026 0.0
C68 C 0.48361 0.73148 0.38121 0.0
C69 C 0.5579 0.7194 0.46748 0.0
C70 C 0.52146 0.80378 0.45146 0.0
O71 O 0.51176 0.73626 0.37447 0.0
O72 O 0.4817 0.73438 0.41062 0.0
O73 O 0.50398 0.78915 0.42809 0.0
O74 O 0.5453 0.79276 0.46168 0.0
C75 C 0.57934 0.77884 0.3892 0.0
O76 O 0.52998 0.72471 0.46629 0.0
O77 O 0.57284 0.7297 0.44556 0.0
In78 In 0.67851 0.41204 0.69757 0.0
O79 O 0.68574 0.37287 0.66534 0.0
O80 O 0.67783 0.36561 0.71309 0.0
C81 C 0.65987 0.44681 0.65255 0.0
C82 C 0.6243 0.3998 0.72333 0.0
C83 C 0.73502 0.43173 0.73387 0.0
O84 O 0.67438 0.42601 0.64645 0.0
O85 O 0.65721 0.45151 0.68147 0.0
O86 O 0.70855 0.43234 0.74356 0.0
O87 O 0.73298 0.42428 0.70463 0.0
C88 C 0.68206 0.35459 0.68655 0.0
O89 O 0.64779 0.41887 0.73629 0.0
O90 O 0.62802 0.38777 0.69699 0.0
In91 In 1.01495 0.2482 0.92379 0.0
O92 O 1.01349 0.21545 0.96341 0.0
O93 O 0.05801 0.24104 0.95643 0.0
C94 C 1.00317 0.30198 0.94121 0.0
C95 C 0.05956 0.26053 0.88483 0.0
C96 C 0.9606 0.22236 0.88722 0.0
O97 O 1.01179 0.28473 0.96142 0.0
O98 O 0.99971 0.29156 0.91283 0.0
O99 O 0.98789 0.22074 0.87989 0.0
O100 O 0.96084 0.23325 0.91516 0.0
C101 C 1.04324 0.22181 0.97204 0.0
O102 O 0.04652 0.2341 0.88835 0.0
O103 O 0.0503 0.28021 0.90127 0.0
In104 In 0.55879 0.15263 0.33166 0.0
O105 O 0.60093 0.13214 0.32259 0.0
O106 O 0.59917 0.17447 0.30467 0.0
C107 C 0.57943 0.17121 0.39296 0.0
C108 C 0.51551 0.17724 0.29529 0.0
C109 C 0.52953 0.09541 0.33245 0.0
O110 O 0.59739 0.17366 0.37143 0.0
O111 O 0.55031 0.16191 0.38304 0.0
O112 O 0.54423 0.10511 0.31001 0.0
O113 O 0.52984 0.11454 0.35493 0.0
C114 C 0.61404 0.15302 0.30762 0.0
O115 O 0.52292 0.15266 0.28824 0.0
O116 O 0.531 0.19058 0.32058 0.0
In117 In 0.36457 0.20008 0.54758 0.0
O118 O 0.35714 0.2415 0.58338 0.0
O119 O 0.37307 0.20686 0.60586 0.0
C120 C 0.36372 0.23214 0.48756 0.0
C121 C 0.42221 0.17037 0.55017 0.0
C122 C 0.30034 0.1649 0.54751 0.0
O123 O 0.37879 0.24259 0.51445 0.0
O124 O 0.34924 0.20605 0.49071 0.0
O125 O 0.30942 0.19187 0.55729 0.0
O126 O 0.32343 0.1549 0.53742 0.0
C127 C 0.36423 0.23165 0.61025 0.0
O128 O 0.39351 0.15796 0.54066 0.0
O129 O 0.42211 0.19736 0.55876 0.0
In130 In 0.27114 0.0888 0.8765 0.0
O131 O 0.21972 0.08931 0.85882 0.0
O132 O 0.24561 0.06792 0.82796 0.0
C133 C 0.24253 0.0808 0.92887 0.0
C134 C 0.3216 0.06052 0.8792 0.0
C135 C 0.28998 0.14525 0.86328 0.0
O136 O 0.25962 0.10512 0.92403 0.0
O137 O 0.24262 0.05972 0.90874 0.0
O138 O 0.29188 0.13725 0.89141 0.0
O139 O 0.27943 0.12458 0.84191 0.0
C140 C 0.21934 0.07531 0.83252 0.0
O141 O 0.32479 0.08837 0.88155 0.0
O142 O 0.29307 0.04703 0.87551 0.0
In143 In 0.37045 0.91616 0.0598 0.0
O144 O 0.38455 0.91327 0.11316 0.0
O145 O 0.35811 0.87396 0.08924 0.0
C146 C 0.36083 0.88919 0.99847 0.0
C147 C 0.33103 0.95525 0.07016 0.0
C148 C 0.42746 0.9529 0.06109 0.0
O149 O 0.33841 0.89567 1.01262 0.0
O150 O 0.38739 0.89444 1.01576 0.0
O151 O 0.40132 0.95919 0.04921 0.0
O152 O 0.4252 0.92708 0.07107 0.0
C153 C 0.37155 0.88685 0.11559 0.0
O154 O 0.36002 0.9626 0.06713 0.0
O155 O 0.32072 0.92755 0.06657 0.0
In156 In 0.3246 0.44764 0.05307 0.0
O157 O 0.31126 0.40514 0.08681 0.0
O158 O 0.33972 0.44236 0.11014 0.0
C159 C 0.32219 0.4132 0.9913 0.0
C160 C 0.26856 0.4798 0.05064 0.0
C161 C 0.38914 0.48246 0.05117 0.0
O162 O 0.33537 0.40731 1.01801 0.0
O163 O 0.30887 0.43554 0.99548 0.0
O164 O 0.36739 0.49186 0.06446 0.0
O165 O 0.37843 0.45647 0.03885 0.0
C166 C 0.32604 0.41609 0.11364 0.0
O167 O 0.29787 0.49149 0.05794 0.0
O168 O 0.26712 0.45216 0.04404 0.0
In169 In 0.82189 0.22828 0.03999 0.0
O170 O 0.83487 0.18186 0.0392 0.0
O171 O 0.86971 0.21753 0.02862 0.0
C172 C 0.76159 0.19585 0.0283 0.0
C173 C 0.83393 0.25222 0.10271 0.0
C174 C 0.82801 0.26385 0.9896 0.0
O175 O 0.78452 0.18968 1.01485 0.0
O176 O 0.76883 0.21894 0.04716 0.0
O177 O 0.85123 0.26062 1.00939 0.0
O178 O 0.80146 0.25078 0.99637 0.0
C179 C 0.86217 0.18992 0.03099 0.0
O180 O 0.82816 0.26726 0.07927 0.0
O181 O 0.83394 0.22542 0.09461 0.0
In182 In 0.12411 0.48892 0.26373 0.0
O183 O 0.16687 0.49425 0.30104 0.0
O184 O 0.15436 0.45282 0.27371 0.0
C185 C 0.14874 0.5471 0.26101 0.0
C186 C 0.1003 0.47318 0.20249 0.0
C187 C 0.07363 0.47697 0.29579 0.0
O188 O 0.13438 0.53744 0.28374 0.0
O189 O 0.15025 0.52751 0.23967 0.0
O190 O 0.09419 0.46031 0.29611 0.0
O191 O 0.07891 0.49934 0.27973 0.0
C192 C 0.17335 0.46893 0.29539 0.0
O193 O 0.08328 0.47704 0.22397 0.0
O194 O 0.12935 0.47411 0.21258 0.0
In195 In 0.82586 0.94942 0.55394 0.0
O196 O 0.81127 0.90701 0.58745 0.0
O197 O 0.84134 0.94334 0.61082 0.0
C198 C 0.82515 0.91622 0.49194 0.0
C199 C 0.76974 0.98152 0.55082 0.0
C200 C 0.89073 0.98346 0.5536 0.0
O201 O 0.82997 0.90623 0.51917 0.0
O202 O 0.81906 0.94225 0.49552 0.0
O203 O 0.86816 0.99388 0.56424 0.0
O204 O 0.88082 0.95665 0.54355 0.0
C205 C 0.82674 0.91734 0.61421 0.0
O206 O 0.79864 0.99258 0.56111 0.0
O207 O 0.76869 0.95444 0.54173 0.0
In208 In 0.93985 0.05196 0.22757 0.0
O209 O 0.96098 0.03062 0.18819 0.0
O210 O 0.95372 0.07499 0.18379 0.0
C211 C 0.99279 0.07094 0.26924 0.0
C212 C 0.89295 0.08423 0.2263 0.0
C213 C 0.91851 0.99684 0.24327 0.0
O214 O 0.99313 0.05931 0.24192 0.0
O215 O 0.96536 0.07357 0.27575 0.0
O216 O 0.91112 1.00524 0.21593 0.0
O217 O 0.93539 1.01659 0.26284 0.0
C218 C 0.9654 0.0537 0.17318 0.0
O219 O 0.88719 0.05622 0.22387 0.0
O220 O 0.92215 0.09571 0.22959 0.0
In221 In 0.3265 0.73085 0.54274 0.0
O222 O 0.34005 0.68927 0.52075 0.0
O223 O 0.37771 0.72153 0.54507 0.0
C224 C 0.26913 0.69413 0.54062 0.0
C225 C 0.33696 0.75518 0.60528 0.0
C226 C 0.32749 0.76227 0.48865 0.0
O227 O 0.29544 0.68529 0.54373 0.0
O228 O 0.27161 0.72197 0.53944 0.0
O229 O 0.3515 0.76402 0.50937 0.0
O230 O 0.30278 0.74651 0.49631 0.0
C231 C 0.36956 0.69655 0.52957 0.0
O232 O 0.32899 0.7696 0.58192 0.0
O233 O 0.33997 0.7292 0.597 0.0
In234 In 0.4393 0.53721 0.72719 0.0
O235 O 0.39679 0.56086 0.72375 0.0
O236 O 0.42663 0.56439 0.76795 0.0
C237 C 0.40845 0.48075 0.72292 0.0
C238 C 0.46126 0.55237 0.67283 0.0
C239 C 0.49259 0.53976 0.7678 0.0
O240 O 0.39373 0.50233 0.72236 0.0
O241 O 0.4382 0.4879 0.72375 0.0
O242 O 0.49081 0.55797 0.74665 0.0
O243 O 0.46711 0.52177 0.7694 0.0
C244 C 0.40247 0.57127 0.75237 0.0
O245 O 0.4536 0.5258 0.67942 0.0
O246 O 0.4551 0.57138 0.69245 0.0
In247 In 0.62736 1.00328 0.75813 0.0
O248 O 0.67863 1.01039 0.7805 0.0
O249 O 0.65048 0.96855 0.78567 0.0
C250 C 0.64531 0.06268 0.76015 0.0
C251 C 0.61077 0.97853 0.69837 0.0
C252 C 0.57229 1.00123 0.7826 0.0
O253 O 0.63833 0.04899 0.7842 0.0
O254 O 0.64267 0.04632 0.73479 0.0
O255 O 0.59223 0.98515 0.79187 0.0
O256 O 0.58048 1.01813 0.76131 0.0
C257 C 0.67731 0.98557 0.79199 0.0
O258 O 0.59307 0.97387 0.71986 0.0
O259 O 0.63841 0.99263 0.70815 0.0
In260 In 0.86487 0.7009 0.04838 0.0
O261 O 0.89283 0.65794 0.04221 0.0
O262 O 0.92223 0.69726 0.05917 0.0
C263 C 0.80026 0.66644 0.05 0.0
C264 C 0.86579 0.73463 0.11016 0.0
C265 C 0.86391 0.73199 0.98758 0.0
O266 O 0.8227 0.65606 0.03899 0.0
O267 O 0.81023 0.69329 0.05985 0.0
O268 O 0.87945 0.74276 1.01416 0.0
O269 O 0.84916 0.70618 0.9915 0.0
C270 C 0.92175 0.67003 0.05118 0.0
O271 O 0.85681 0.74276 0.0829 0.0
O272 O 0.87599 0.7104 0.10662 0.0
In273 In 0.06055 0.65398 0.83626 0.0
O274 O 1.0225 0.64848 0.79369 0.0
O275 O 1.02951 0.68874 0.8225 0.0
C276 C 1.03766 0.59567 0.84096 0.0
C277 C 0.11465 0.66253 0.80939 0.0
C278 C 0.08132 0.67323 0.89733 0.0
O279 O 1.03098 0.61598 0.85866 0.0
O280 O 0.05595 0.60481 0.82092 0.0
O281 O 0.09934 0.67421 0.87596 0.0
O282 O 0.05205 0.66547 0.88723 0.0
C283 C 1.01379 0.6729 0.79873 0.0
O284 O 0.0961 0.6812 0.80788 0.0
O285 O 0.10548 0.63998 0.82414 0.0
In286 In 0.87001 0.41476 0.55815 0.0
O287 O 0.84685 0.37917 0.5898 0.0
O288 O 0.89289 0.40279 0.60693 0.0
C289 C 0.85671 0.3895 0.49584 0.0
C290 C 0.82814 0.45078 0.56988 0.0
C291 C 0.92759 0.45176 0.5635 0.0
O292 O 0.87094 0.37756 0.51804 0.0
O293 O 0.84837 0.41303 0.50528 0.0
O294 O 0.9018 0.46011 0.56722 0.0
O295 O 0.92478 0.42408 0.55712 0.0
C296 C 0.86939 0.3839 0.61247 0.0
O297 O 0.8527 0.45885 0.55661 0.0
O298 O 0.82363 0.42379 0.57614 0.0
In299 In 0.7417 0.59765 0.35681 0.0
O300 O 0.77256 0.58178 0.32207 0.0
O301 O 0.78423 0.57586 0.37103 0.0
C302 C 0.76242 0.65562 0.35024 0.0
C303 C 0.68393 0.57829 0.32399 0.0
C304 C 0.72322 0.58517 0.41296 0.0
O305 O 0.7722 0.64235 0.37365 0.0
O306 O 0.74204 0.63954 0.3299 0.0
O307 O 0.72085 0.56522 0.39084 0.0
O308 O 0.73641 0.61079 0.40705 0.0
C309 C 0.79108 0.57281 0.34316 0.0
O310 O 0.68988 0.6006 0.34376 0.0
O311 O 0.70758 0.56617 0.32004 0.0
Tb312 Tb 0.0735 0.06996 0.02723 0.0
Eu313 Eu 0.13732 0.09656 0.07898 0.0
C314 C 0.14051 0.08266 1.00565 0.0
C315 C 0.114 0.02914 0.0631 0.0
C316 C 0.99509 0.07487 0.99404 0.0
C317 C 0.93976 0.08153 0.98533 0.0
C318 C 0.96316 0.06403 0.98165 0.0
C319 C 1.00315 0.1032 1.00997 0.0
C320 C 0.98008 0.12042 1.0138 0.0
C321 C 0.94812 0.10992 1.00163 0.0
C322 C 1.02024 0.0567 0.99343 0.0
O323 O 0.05938 0.09113 0.06835 0.0
O324 O 0.09656 0.08013 0.10609 0.0
O325 O 0.11353 0.13624 0.07228 0.0
O326 O 0.08746 0.11753 1.02275 0.0
C327 C 0.06738 0.08373 0.097 0.0
O328 O 0.16618 0.08965 0.12289 0.0
O329 O 0.18535 0.12256 0.09193 0.0
O330 O 0.14776 0.10313 0.02924 0.0
O331 O 0.11385 0.0629 1.00284 0.0
O332 O 0.0847 0.03321 0.05502 0.0
O333 O 0.13764 0.05042 0.06004 0.0
C334 C 0.09721 0.13946 0.04485 0.0
O335 O 0.04617 0.06945 0.98264 0.0
O336 O 1.02698 0.04474 1.02002 0.0
C337 C 0.21664 0.08726 0.10869 0.0
C338 C 0.25496 0.04443 0.09851 0.0
C339 C 0.25586 0.05821 0.12903 0.0
C340 C 0.23658 0.07932 0.13414 0.0
C341 C 0.21657 0.07405 0.07805 0.0
C342 C 0.23541 0.05277 0.07306 0.0
C343 C 0.19194 0.10499 0.11415 0.0
H344 H 0.91527 0.07292 0.97548 0.0
H345 H 0.9563 0.04208 0.96957 0.0
H346 H 1.02739 0.11182 1.02016 0.0
H347 H 0.98712 0.14182 0.02702 0.0
H348 H 0.27077 0.05202 0.14903 0.0
H349 H 0.23649 0.08871 0.15803 0.0
H350 H 0.20098 0.07932 0.05806 0.0
H351 H 0.23446 0.0426 0.04931 0.0
Tb352 Tb 0.38215 0.84335 0.31582 0.0
Eu353 Eu 0.32005 0.79394 0.28415 0.0
C354 C 0.3175 0.86373 0.29263 0.0
C355 C 0.33908 0.80446 0.36049 0.0
C356 C 0.44413 0.91131 0.33822 0.0
C357 C 0.44187 0.95865 0.31569 0.0
C358 C 0.42901 0.92857 0.31708 0.0
C359 C 0.47199 0.92429 0.35798 0.0
C360 C 0.48475 0.95433 0.3567 0.0
C361 C 0.46989 0.97174 0.33549 0.0
C362 C 0.43105 0.87984 0.34025 0.0
O363 O 0.39851 0.80307 0.30052 0.0
O364 O 0.35536 0.76843 0.3074 0.0
O365 O 0.34743 0.81034 0.24335 0.0
O366 O 0.37454 0.85514 0.26673 0.0
C367 C 0.38608 0.77613 0.30709 0.0
O368 O 0.30047 0.75522 0.25165 0.0
O369 O 0.26873 0.7771 0.27701 0.0
O370 O 0.30717 0.83834 0.27606 0.0
O371 O 0.34324 0.8685 0.31354 0.0
O372 O 0.36776 0.81728 0.35528 0.0
O373 O 0.3154 0.7983 0.33703 0.0
C374 C 0.36347 0.83736 0.2411 0.0
O375 O 0.40473 0.87422 0.35312 0.0
O376 O 0.4301 0.86256 0.31473 0.0
C377 C 0.25173 0.72609 0.26082 0.0
C378 C 0.21569 0.66887 0.26236 0.0
C379 C 0.24416 0.67793 0.28306 0.0
C380 C 0.26222 0.7064 0.28219 0.0
C381 C 0.22272 0.71747 0.24116 0.0
C382 C 0.20484 0.68902 0.24179 0.0
C383 C 0.27116 0.7551 0.25727 0.0
H384 H 0.42984 0.97172 0.29935 0.0
H385 H 0.40734 0.9188 0.30176 0.0
H386 H 0.48391 0.91111 0.37426 0.0
H387 H 0.50656 0.96389 0.37186 0.0
H388 H 0.25286 0.6627 0.29915 0.0
H389 H 0.28457 0.71283 0.29764 0.0
H390 H 0.21419 0.73265 0.22491 0.0
H391 H 0.18269 0.68264 0.22602 0.0
Tb392 Tb 0.58086 0.05841 0.52083 0.0
Eu393 Eu 0.6163 0.10129 0.57913 0.0
C394 C 0.58325 0.03554 0.58901 0.0
C395 C 0.54251 0.10948 0.55277 0.0
C396 C 0.53853 0.99112 0.47553 0.0
C397 C 0.53144 0.94484 0.50145 0.0
C398 C 0.53812 0.97569 0.50333 0.0
C399 C 0.53187 0.97532 0.4458 0.0
C400 C 0.52519 0.94429 0.4439 0.0
C401 C 0.52504 0.92893 0.47176 0.0
C402 C 0.54643 1.02358 0.47795 0.0
O403 O 0.6072 0.09498 0.49891 0.0
O404 O 0.61034 0.13073 0.53882 0.0
O405 O 0.65416 0.07185 0.56703 0.0
O406 O 0.62624 0.03869 0.52749 0.0
C407 C 0.61074 0.1229 0.50895 0.0
O408 O 0.66031 0.13153 0.59763 0.0
O409 O 0.62377 0.11927 0.62842 0.0
O410 O 0.5887 0.06301 0.60097 0.0
O411 O 0.584 0.02912 0.55897 0.0
O412 O 0.5433 0.08631 0.53241 0.0
O413 O 0.56855 0.11949 0.57322 0.0
C414 C 0.65322 0.04806 0.5472 0.0
O415 O 0.53553 0.03616 0.50145 0.0
O416 O 0.57607 0.03521 0.47594 0.0
C417 C 0.65532 0.16742 0.63693 0.0
C418 C 0.66546 0.22822 0.65545 0.0
C419 C 0.69128 0.21318 0.65679 0.0
C420 C 0.68618 0.18287 0.64776 0.0
C421 C 0.62947 0.18246 0.63561 0.0
C422 C 0.63451 0.21267 0.64503 0.0
C423 C 0.65094 0.13619 0.62529 0.0
H424 H 0.53158 0.93337 0.52317 0.0
H425 H 0.54309 0.98744 0.52658 0.0
H426 H 0.53235 0.98696 0.42422 0.0
H427 H 0.52114 0.93226 0.4208 0.0
H428 H 0.71528 0.22488 0.66493 0.0
H429 H 0.70638 0.17156 0.64876 0.0
H430 H 0.60551 0.171 0.6269 0.0
H431 H 0.61436 0.22406 0.64361 0.0
Tb432 Tb 0.30584 0.31976 0.78848 0.0
Eu433 Eu 0.37757 0.31771 0.81546 0.0
C434 C 0.36004 0.36863 0.77088 0.0
C435 C 0.34948 0.29098 0.741 0.0
C436 C 0.21841 0.30736 0.78109 0.0
C437 C 0.16223 0.30698 0.783 0.0
C438 C 0.18995 0.31607 0.76913 0.0
C439 C 0.21888 0.28888 0.80646 0.0
C440 C 0.1912 0.2797 0.82021 0.0
C441 C 0.16285 0.28914 0.80898 0.0
C442 C 0.24792 0.31863 0.76821 0.0
O443 O 0.30441 0.27547 0.80511 0.0
O444 O 0.34959 0.28259 0.84057 0.0
O445 O 0.36155 0.34526 0.85611 0.0
O446 O 0.30784 0.33721 0.84015 0.0
C447 C 0.3222 0.26668 0.82863 0.0
O448 O 0.41794 0.29478 0.82335 0.0
O449 O 0.42281 0.34098 0.84036 0.0
O450 O 0.381 0.35216 0.7797 0.0
O451 O 0.33074 0.36223 0.77723 0.0
O452 O 0.32616 0.30637 0.74397 0.0
O453 O 0.36934 0.28898 0.767 0.0
C454 C 0.33262 0.34828 0.86216 0.0
O455 O 0.26628 0.34116 0.78463 0.0
O456 O 0.26401 0.29858 0.76004 0.0
C457 C 0.46542 0.32747 0.81841 0.0
C458 C 0.51721 0.35201 0.78777 0.0
C459 C 0.52166 0.34764 0.82039 0.0
C460 C 0.49579 0.33552 0.83569 0.0
C461 C 0.46109 0.33112 0.7857 0.0
C462 C 0.48683 0.34324 0.77046 0.0
C463 C 0.43755 0.31908 0.8348 0.0
H464 H 0.14048 0.31426 0.77384 0.0
H465 H 0.18933 0.33034 0.74955 0.0
H466 H 0.2408 0.28212 0.81605 0.0
H467 H 0.19222 0.26613 0.84037 0.0
H468 H 0.54505 0.35375 0.83404 0.0
H469 H 0.49931 0.33314 0.86104 0.0
H470 H 0.43759 0.32545 0.77216 0.0
H471 H 0.48284 0.3465 0.74531 0.0
Tb472 Tb 0.09584 0.0596 0.51978 0.0
Eu473 Eu 0.09575 0.09007 0.58523 0.0
C474 C 0.16312 0.09986 0.55172 0.0
C475 C 0.09805 1.01523 0.57991 0.0
C476 C 0.09977 0.04684 0.43317 0.0
C477 C 0.08624 0.03618 0.37646 0.0
C478 C 0.09179 1.02631 0.40677 0.0
C479 C 0.10618 0.07736 0.42877 0.0
C480 C 0.10049 0.08726 0.39842 0.0
C481 C 0.08845 0.0667 0.37243 0.0
C482 C 0.09353 0.03656 0.46423 0.0
O483 O 0.0461 0.04103 0.52997 0.0
O484 O 1.04166 0.07088 0.57277 0.0
O485 O 0.093 0.13165 0.55476 0.0
O486 O 0.09373 0.10816 0.50657 0.0
C487 C 1.02831 0.04916 0.55118 0.0
O488 O 0.07269 0.10855 0.6231 0.0
O489 O 0.12345 0.1086 0.62974 0.0
O490 O 0.14677 0.10886 0.57365 0.0
O491 O 0.14836 0.07798 0.53077 0.0
O492 O 0.09746 1.01853 0.54866 0.0
O493 O 0.09942 0.04027 0.59822 0.0
C494 C 0.09389 0.13384 0.52367 0.0
O495 O 0.11787 0.03792 0.48599 0.0
O496 O 0.06991 0.04627 0.47532 0.0
C497 C 0.09803 0.10363 0.67475 0.0
C498 C 0.11978 0.0837 0.73305 0.0
C499 C 0.12083 0.1142 0.72975 0.0
C500 C 0.11006 0.12411 0.70067 0.0
C501 C 0.09324 0.07308 0.67908 0.0
C502 C 0.10393 0.06315 0.70828 0.0
C503 C 0.09895 0.11403 0.64287 0.0
H504 H 0.07668 1.01985 0.35685 0.0
H505 H 0.08667 1.00268 0.40985 0.0
H506 H 0.11255 0.09348 0.44902 0.0
H507 H 0.10266 0.11084 0.39565 0.0
H508 H 0.13292 0.1305 0.74856 0.0
H509 H 0.11408 0.14776 0.6976 0.0
H510 H 0.08397 0.05699 0.6592 0.0
H511 H 0.10222 0.03958 0.71073 0.0
Tb512 Tb 0.3343 0.79658 0.81087 0.0
Eu513 Eu 0.36186 0.86097 0.78913 0.0
C514 C 0.34501 0.85089 0.86158 0.0
C515 C 0.28357 0.83231 0.77223 0.0
C516 C 0.31858 0.71505 0.81508 0.0
C517 C 0.32749 0.66587 0.82752 0.0
C518 C 0.31898 0.69283 0.83657 0.0
C519 C 0.32533 0.70961 0.78405 0.0
C520 C 0.33385 0.68279 0.77504 0.0
C521 C 0.33592 0.66104 0.79694 0.0
C522 C 0.31346 0.74451 0.82572 0.0
O523 O 0.34816 0.78689 0.76316 0.0
O524 O 0.35498 0.8329 0.74334 0.0
O525 O 0.40799 0.84442 0.8082 0.0
O526 O 0.38615 0.80364 0.83244 0.0
C527 C 0.35117 0.80396 0.73902 0.0
O528 O 0.35565 0.90638 0.78313 0.0
O529 O 0.39942 0.89291 0.77228 0.0
O530 O 0.36196 0.86678 0.84253 0.0
O531 O 0.32681 0.82535 0.85107 0.0
O532 O 0.28898 0.81023 0.79 0.0
O533 O 0.30791 0.85365 0.76854 0.0
C534 C 0.41182 0.82307 0.82747 0.0
O535 O 0.33828 0.76195 0.84104 0.0
O536 O 0.29853 0.75843 0.80464 0.0
C537 C 0.40214 0.94105 0.79648 0.0
C538 C 0.40782 0.9901 0.83987 0.0
C539 C 0.40503 0.99381 0.80703 0.0
C540 C 0.40193 0.96925 0.7854 0.0
C541 C 0.41069 0.93828 0.82898 0.0
C542 C 0.41362 0.96281 0.85066 0.0
C543 C 0.38462 0.91508 0.77648 0.0
H544 H 0.32839 0.64919 0.84465 0.0
H545 H 0.31367 0.69668 0.86058 0.0
H546 H 0.32503 0.72646 0.76708 0.0
H547 H 0.34031 0.67962 0.75139 0.0
H548 H 0.40042 1.01453 0.79797 0.0
H549 H 0.3954 0.97174 0.76038 0.0
H550 H 0.41114 0.91658 0.83788 0.0
H551 H 0.41607 0.95948 0.87585 0.0
Tb552 Tb 0.61579 0.06842 0.08317 0.0
Eu553 Eu 0.57383 0.07979 1.02121 0.0
C554 C 0.60225 1.01449 0.02415 0.0
C555 C 0.64649 0.10924 0.03294 0.0
C556 C 0.66918 0.08497 0.15752 0.0
C557 C 0.69758 0.09566 0.21064 0.0
C558 C 0.68837 0.07655 0.18314 0.0
C559 C 0.66298 0.11396 0.15793 0.0
C560 C 0.67086 0.13247 0.18569 0.0
C561 C 0.68608 0.12259 0.21331 0.0
C562 C 0.65122 0.06273 0.13305 0.0
O563 O 0.59937 0.11249 0.09815 0.0
O564 O 0.58016 0.12637 0.04991 0.0
O565 O 0.54238 0.06778 0.05909 0.0
O566 O 0.57165 0.03632 0.08042 0.0
C567 C 0.58922 0.13386 0.08082 0.0
O568 O 0.56181 0.10191 0.97829 0.0
O569 O 0.52654 0.0681 0.99419 0.0
O570 O 0.58217 0.03048 1.00968 0.0
O571 O 0.62021 0.02744 0.05102 0.0
O572 O 0.64432 0.10449 0.0627 0.0
O573 O 0.62427 0.09593 1.0105 0.0
C574 C 0.54368 0.04304 0.07265 0.0
O575 O 0.62023 0.06034 0.13134 0.0
O576 O 0.66095 0.06365 0.10503 0.0
C577 C 0.52426 0.07224 0.93874 0.0
C578 C 0.5118 0.04382 0.87718 0.0
C579 C 0.49397 0.0327 0.90106 0.0
C580 C 0.50014 0.04685 0.93167 0.0
C581 C 0.54009 0.08462 0.91415 0.0
C582 C 0.53406 0.07051 0.88379 0.0
C583 C 0.53352 0.08541 0.97163 0.0
H584 H 0.71047 0.0878 0.231 0.0
H585 H 0.69409 0.05444 0.18288 0.0
H586 H 0.64906 0.12119 0.13793 0.0
H587 H 0.66128 0.15276 0.18616 0.0
H588 H 0.47627 1.0125 0.89644 0.0
H589 H 0.48686 0.03728 0.95002 0.0
H590 H 0.55823 0.10454 0.91862 0.0
H591 H 0.54845 0.07958 0.866 0.0
Tb592 Tb 0.36092 0.3517 0.31781 0.0
Eu593 Eu 0.32939 0.29288 0.28168 0.0
C594 C 0.35706 0.29415 0.35992 0.0
C595 C 0.40702 0.32243 0.27429 0.0
C596 C 0.3524 0.42097 0.35481 0.0
C597 C 0.2986 0.41823 0.36862 0.0
C598 C 0.32754 0.40806 0.37145 0.0
C599 C 0.34936 0.44682 0.33915 0.0
C600 C 0.32042 0.45699 0.33637 0.0
C601 C 0.29422 0.44153 0.34935 0.0
C602 C 0.37571 0.40315 0.34536 0.0
O603 O 0.34935 0.36586 0.26747 0.0
O604 O 0.32002 0.32392 0.24104 0.0
O605 O 0.28417 0.30373 0.30244 0.0
O606 O 0.31084 0.34417 0.33369 0.0
C607 C 0.3332 0.35227 0.24037 0.0
O608 O 0.30696 0.2623 0.24054 0.0
O609 O 0.32319 0.24504 0.28449 0.0
O610 O 0.33818 0.28024 0.33467 0.0
O611 O 0.37255 0.3214 0.35636 0.0
O612 O 0.40558 0.34198 0.29823 0.0
O613 O 0.3807 0.30236 0.26497 0.0
C614 C 0.28385 0.32434 0.32552 0.0
O615 O 0.37789 0.37915 0.35995 0.0
O616 O 0.37376 0.39776 0.31488 0.0
C617 C 0.33693 0.22324 0.23936 0.0
C618 C 0.39595 0.20489 0.23941 0.0
C619 C 0.39048 0.23032 0.22423 0.0
C620 C 0.36103 0.23935 0.22398 0.0
C621 C 0.34092 0.19555 0.25029 0.0
C622 C 0.37031 0.18641 0.25034 0.0
C623 C 0.31487 0.23926 0.25413 0.0
H624 H 0.27892 0.40658 0.37959 0.0
H625 H 0.32922 0.38831 0.38407 0.0
H626 H 0.36811 0.45716 0.3261 0.0
H627 H 0.31768 0.47525 0.32162 0.0
H628 H 0.40983 0.24443 0.21506 0.0
H629 H 0.35844 0.26063 0.21506 0.0
H630 H 0.32277 0.18281 0.2624 0.0
H631 H 0.37394 0.16653 0.26197 0.0
Tb632 Tb 0.59623 0.56 1.02076 0.0
Eu633 Eu 0.59349 0.59019 0.08531 0.0
C634 C 0.66258 0.60145 0.05456 0.0
C635 C 0.59681 0.51561 0.0813 0.0
C636 C 0.6049 0.54456 0.93497 0.0
C637 C 0.60931 0.52558 0.88183 0.0
C638 C 0.61402 0.52348 0.91466 0.0
C639 C 0.59614 0.57023 0.92267 0.0
C640 C 0.59074 0.57199 0.88991 0.0
C641 C 0.5943 0.54817 0.86934 0.0
C642 C 0.5971 0.53612 0.96634 0.0
O643 O 0.54539 0.54134 0.02831 0.0
O644 O 0.5401 0.56912 0.07229 0.0
O645 O 0.593 0.63182 0.05443 0.0
O646 O 0.59382 0.6082 1.00642 0.0
C647 C 0.52715 0.54828 0.04973 0.0
O648 O 0.56856 0.61411 0.11704 0.0
O649 O 0.61532 0.60455 0.13341 0.0
O650 O 0.64583 0.60865 0.0771 0.0
O651 O 0.64822 0.58073 0.03213 0.0
O652 O 0.59834 0.51938 0.05035 0.0
O653 O 0.59613 0.54033 0.09935 0.0
C654 C 0.59406 0.63398 0.02338 0.0
O655 O 0.62047 0.53793 0.98925 0.0
O656 O 0.57258 0.54573 0.97565 0.0
C657 C 0.57984 0.60449 0.17071 0.0
C658 C 0.58299 0.58111 0.23019 0.0
C659 C 0.56903 0.56263 0.20299 0.0
C660 C 0.56789 0.57426 0.17317 0.0
C661 C 0.58842 0.62366 0.19807 0.0
C662 C 0.58984 0.61207 0.22775 0.0
C663 C 0.59049 0.61475 0.14115 0.0
H664 H 0.61343 0.50753 0.86633 0.0
H665 H 0.62145 0.5038 0.92385 0.0
H666 H 0.58964 0.58708 0.93809 0.0
H667 H 0.57972 0.59 0.88102 0.0
H668 H 0.56261 0.53883 0.20434 0.0
H669 H 0.56082 0.55925 0.15203 0.0
H670 H 0.59745 0.64709 0.19644 0.0
H671 H 0.60041 0.62706 0.24821 0.0
Tb672 Tb 0.83418 0.28967 0.30932 0.0
Eu673 Eu 0.86197 0.35479 0.28911 0.0
C674 C 0.84233 0.34444 0.36099 0.0
C675 C 0.78374 0.32667 0.27189 0.0
C676 C 0.80309 0.20895 0.3018 0.0
C677 C 0.80931 0.15762 0.29575 0.0
C678 C 0.80669 0.18226 0.31518 0.0
C679 C 0.79742 0.20956 0.26863 0.0
C680 C 0.79991 0.18484 0.24913 0.0
C681 C 0.80857 0.15961 0.26275 0.0
C682 C 0.81456 0.23668 0.32155 0.0
O683 O 0.83999 0.28156 0.25866 0.0
O684 O 0.86438 0.32692 0.24494 0.0
O685 O 0.90767 0.33739 0.30765 0.0
O686 O 0.88491 0.29857 0.33382 0.0
C687 C 0.85181 0.29895 0.2374 0.0
O688 O 0.85827 0.39404 0.26285 0.0
O689 O 0.9016 0.39235 0.29324 0.0
O690 O 0.84951 0.36313 0.33916 0.0
O691 O 0.83581 0.31556 0.35422 0.0
O692 O 0.78885 0.30446 0.28973 0.0
O693 O 0.80836 0.34755 0.26778 0.0
C694 C 0.9109 0.31713 0.32831 0.0
O695 O 0.84419 0.24796 0.31948 0.0
O696 O 0.79668 0.25691 0.32034 0.0
C697 C 0.88537 0.43828 0.28995 0.0
C698 C 0.87349 0.49327 0.31229 0.0
C699 C 0.8875 0.49086 0.28416 0.0
C700 C 0.89333 0.4634 0.273 0.0
C701 C 0.87359 0.44107 0.3191 0.0
C702 C 0.86759 0.46833 0.33015 0.0
C703 C 0.88585 0.40876 0.27578 0.0
H704 H 0.81583 0.13842 0.3069 0.0
H705 H 0.81117 0.18146 0.34074 0.0
H706 H 0.7945 0.23003 0.25789 0.0
H707 H 0.79857 0.18665 0.22368 0.0
H708 H 0.89223 0.50979 0.26998 0.0
H709 H 0.90253 0.46148 0.25043 0.0
H710 H 0.86726 0.4218 0.33237 0.0
H711 H 0.85602 0.46924 0.35141 0.0
Tb712 Tb 0.11573 0.56873 0.57907 0.0
Eu713 Eu 0.07618 0.58138 0.51699 0.0
C714 C 0.10319 0.51419 0.52235 0.0
C715 C 0.14995 0.60856 0.5328 0.0
C716 C 0.15747 0.58986 0.65813 0.0
C717 C 0.19423 0.61367 0.7037 0.0
C718 C 0.18635 0.59208 0.67806 0.0
C719 C 0.13757 0.61038 0.663 0.0
C720 C 0.1455 0.63192 0.68801 0.0
C721 C 0.17344 0.63341 0.70924 0.0
C722 C 0.14743 0.56638 0.6323 0.0
O723 O 0.10322 0.61535 0.59136 0.0
O724 O 0.07772 0.62725 0.54503 0.0
O725 O 1.03997 0.56279 0.54816 0.0
O726 O 0.07174 0.53607 0.57593 0.0
C727 C 0.08985 0.63564 0.57508 0.0
O728 O 0.0735 0.5876 0.46638 0.0
O729 O 1.03114 0.58614 0.49007 0.0
O730 O 0.08818 0.53282 0.50528 0.0
O731 O 0.11631 0.52444 0.55193 0.0
O732 O 0.15101 0.58477 0.54829 0.0
O733 O 0.12237 0.61423 0.52106 0.0
C734 C 1.04328 0.54019 0.56491 0.0
O735 O 0.1167 0.55716 0.62621 0.0
O736 O 0.16045 0.57109 0.60638 0.0
C737 C 1.02548 0.56269 0.43875 0.0
C738 C 1.01095 0.51693 0.39014 0.0
C739 C 1.01115 0.51014 0.42206 0.0
C740 C 1.0186 0.53292 0.44627 0.0
C741 C 1.02171 0.56964 0.40705 0.0
C742 C 1.01449 0.54694 0.38288 0.0
C743 C 1.04254 0.58554 0.46293 0.0
H744 H 0.21563 0.61399 0.72005 0.0
H745 H 0.20214 0.57653 0.67451 0.0
H746 H 0.11488 0.6089 0.64852 0.0
H747 H 0.12816 0.64576 0.69218 0.0
H748 H 1.00852 0.48729 0.42836 0.0
H749 H 1.02156 0.52718 0.47076 0.0
H750 H 1.02718 0.5925 0.40092 0.0
H751 H 1.01524 0.55313 0.35866 0.0
Tb752 Tb 0.81398 0.83291 0.28651 0.0
Eu753 Eu 0.88143 0.82032 0.31706 0.0
C754 C 0.875 0.87734 0.27859 0.0
C755 C 0.85411 0.79778 0.23995 0.0
C756 C 0.73134 0.84275 0.28265 0.0
C757 C 0.67456 0.82505 0.28149 0.0
C758 C 0.7013 0.83184 0.26551 0.0
C759 C 0.73416 0.84806 0.31578 0.0
C760 C 0.70749 0.84141 0.33171 0.0
C761 C 0.67762 0.82923 0.31477 0.0
C762 C 0.76 0.84401 0.26676 0.0
O763 O 0.80076 0.79307 0.31145 0.0
O764 O 0.84906 0.77934 0.32645 0.0
O765 O 0.859 0.83458 0.36137 0.0
O766 O 0.82212 0.85803 0.33543 0.0
C767 C 0.81796 0.77448 0.32382 0.0
O768 O 0.92194 0.79733 0.31835 0.0
O769 O 0.92293 0.83386 0.3527 0.0
O770 O 0.88889 0.86748 0.30378 0.0
O771 O 0.84821 0.86239 0.26381 0.0
O772 O 0.82724 0.80718 0.24483 0.0
O773 O 0.87808 0.80201 0.26369 0.0
C774 C 0.83842 0.85292 0.36277 0.0
O775 O 0.78442 0.86443 0.27816 0.0
O776 O 0.76824 0.81831 0.26183 0.0
C777 C 0.97008 0.83073 0.33203 0.0
C778 C 1.02858 0.85941 0.31549 0.0
C779 C 1.02766 0.84344 0.34293 0.0
C780 C 0.99849 0.8291 0.35112 0.0
C781 C 0.97086 0.84745 0.30527 0.0
C782 C 0.99987 0.86165 0.29704 0.0
C783 C 0.93937 0.81606 0.34027 0.0
H784 H 0.65172 0.81557 0.26801 0.0
H785 H 0.69881 0.82723 0.23998 0.0
H786 H 0.75722 0.85593 0.32957 0.0
H787 H 0.71058 0.84423 0.35742 0.0
H788 H 0.04946 0.84178 0.35779 0.0
H789 H 0.99811 0.81665 0.37216 0.0
H790 H 0.949 0.84921 0.29053 0.0
H791 H 0.9999 0.87361 0.27566 0.0
Tb792 Tb 0.88527 0.34612 0.81483 0.0
Eu793 Eu 0.81393 0.30539 0.78981 0.0
C794 C 0.82429 0.37559 0.80106 0.0
C795 C 0.84017 0.3107 0.86411 0.0
C796 C 0.95176 0.4107 0.83763 0.0
C797 C 0.94837 0.46266 0.83272 0.0
C798 C 0.93356 0.43288 0.83134 0.0
C799 C 0.98503 0.41861 0.84428 0.0
C800 C 0.99991 0.44842 0.84537 0.0
C801 C 0.9816 0.47068 0.84012 0.0
C802 C 0.93616 0.37973 0.83961 0.0
O803 O 0.89514 0.3016 0.80737 0.0
O804 O 0.84512 0.27274 0.80557 0.0
O805 O 0.83292 0.32574 0.74673 0.0
O806 O 0.88435 0.34957 0.76338 0.0
C807 C 0.87633 0.276 0.80936 0.0
O808 O 0.7869 0.27322 0.753 0.0
O809 O 0.76221 0.2932 0.78779 0.0
O810 O 0.80576 0.35055 0.80518 0.0
O811 O 0.85473 0.37719 0.79906 0.0
O812 O 0.86629 0.32824 0.85775 0.0
O813 O 0.81663 0.29948 0.84194 0.0
C814 C 0.86024 0.34098 0.74074 0.0
O815 O 0.90935 0.37633 0.85179 0.0
O816 O 0.93459 0.36143 0.81471 0.0
C817 C 0.74006 0.24463 0.766 0.0
C818 C 0.70441 0.1871 0.76616 0.0
C819 C 0.73179 0.19665 0.78829 0.0
C820 C 0.74949 0.22529 0.78825 0.0
C821 C 0.7127 0.23535 0.74412 0.0
C822 C 0.69493 0.20676 0.74415 0.0
C823 C 0.75971 0.27372 0.76372 0.0
H824 H 0.93388 0.47946 0.82811 0.0
H825 H 0.90784 0.42726 0.82599 0.0
H826 H 0.99943 0.40178 0.84923 0.0
H827 H 1.02559 0.45419 0.85102 0.0
H828 H 0.74005 0.18169 0.80499 0.0
H829 H 0.7709 0.2321 0.80501 0.0
H830 H 0.70554 0.25005 0.72663 0.0
H831 H 0.67398 0.19991 0.72681 0.0
Tb832 Tb 0.86101 0.85069 0.81744 0.0
Eu833 Eu 0.82912 0.79247 0.78104 0.0
C834 C 0.85754 0.79343 0.85928 0.0
C835 C 0.90722 0.82178 0.77423 0.0
C836 C 0.84656 0.91961 0.84208 0.0
C837 C 0.8166 0.95433 0.86422 0.0
C838 C 0.84422 0.94155 0.86552 0.0
C839 C 0.82111 0.91071 0.81773 0.0
C840 C 0.79381 0.92291 0.8167 0.0
C841 C 0.79107 0.94461 0.83993 0.0
C842 C 0.87243 0.90225 0.84407 0.0
O843 O 0.85023 0.86483 0.76691 0.0
O844 O 0.81874 0.82382 0.74091 0.0
O845 O 0.78363 0.80248 0.80206 0.0
O846 O 0.81029 0.84376 0.83164 0.0
C847 C 0.83302 0.85185 0.74005 0.0
O848 O 0.80801 0.76173 0.73962 0.0
O849 O 0.82227 0.74465 0.78426 0.0
O850 O 0.83799 0.78018 0.83412 0.0
O851 O 0.87381 0.82038 0.85567 0.0
O852 O 0.9061 0.84064 0.79896 0.0
O853 O 0.88049 0.80238 0.76426 0.0
C854 C 0.78331 0.8238 0.82434 0.0
O855 O 0.86692 0.87858 0.85961 0.0
O856 O 0.882 0.89592 0.81705 0.0
C857 C 0.83703 0.72191 0.7402 0.0
C858 C 0.89471 0.70078 0.74102 0.0
C859 C 0.89103 0.72701 0.72649 0.0
C860 C 0.86223 0.73733 0.72576 0.0
C861 C 0.83938 0.69384 0.75105 0.0
C862 C 0.86807 0.68333 0.75147 0.0
C863 C 0.81489 0.73864 0.75384 0.0
H864 H 0.81493 0.97129 0.88229 0.0
H865 H 0.86327 0.94833 0.88489 0.0
H866 H 0.82171 0.89347 0.79974 0.0
H867 H 0.77472 0.91539 0.79746 0.0
H868 H 0.9112 0.74063 0.71802 0.0
H869 H 0.86086 0.75889 0.717 0.0
H870 H 0.82041 0.68169 0.76262 0.0
H871 H 0.87034 0.66308 0.76297 0.0
Tb872 Tb 0.57342 0.5672 0.53169 0.0
Eu873 Eu 0.63605 0.59134 0.58512 0.0
C874 C 0.64153 0.57919 0.5113 0.0
C875 C 0.61258 0.52461 0.56528 0.0
C876 C 0.49682 0.57474 0.49424 0.0
C877 C 0.48472 0.62471 0.49218 0.0
C878 C 0.50552 0.6049 0.48835 0.0
C879 C 0.46638 0.56473 0.50294 0.0
C880 C 0.44561 0.58465 0.50693 0.0
C881 C 0.45491 0.615 0.50241 0.0
C882 C 0.52104 0.55527 0.49681 0.0
O883 O 0.55885 0.59109 0.57078 0.0
O884 O 0.59295 0.57781 0.60989 0.0
O885 O 0.61635 0.63293 0.57523 0.0
O886 O 0.58887 0.61404 0.52619 0.0
C887 C 0.56518 0.58439 0.59998 0.0
O888 O 0.66196 0.58055 0.62908 0.0
O889 O 0.6832 0.61699 0.60326 0.0
O890 O 0.65056 0.59719 0.53688 0.0
O891 O 0.61378 0.56085 0.50703 0.0
O892 O 0.58354 0.52986 0.55887 0.0
O893 O 0.63674 0.5459 0.56424 0.0
C894 C 0.60085 0.63624 0.54735 0.0
O895 O 0.54794 0.56502 0.48597 0.0
O896 O 0.52581 0.54456 0.52451 0.0
C897 C 0.71422 0.58078 0.61856 0.0
C898 C 0.75312 0.53892 0.60555 0.0
C899 C 0.74749 0.5455 0.63691 0.0
C900 C 0.72807 0.56616 0.64333 0.0
C901 C 0.72069 0.57482 0.58742 0.0
C902 C 0.73995 0.55426 0.58104 0.0
C903 C 0.6884 0.59733 0.62367 0.0
H904 H 0.49222 0.64779 0.48771 0.0
H905 H 0.52891 0.61356 0.48196 0.0
H906 H 0.45925 0.54177 0.5081 0.0
H907 H 0.42277 0.57653 0.51484 0.0
H908 H 0.75776 0.53442 0.6564 0.0
H909 H 0.7229 0.56989 0.66741 0.0
H910 H 0.70968 0.58503 0.56764 0.0
H911 H 0.74356 0.54956 0.55661 0.0
Tb912 Tb 0.07918 0.55589 1.02276 0.0
Eu913 Eu 0.11475 0.59905 0.08088 0.0
C914 C 0.08181 0.53304 0.09164 0.0
C915 C 1.0406 0.60688 0.05415 0.0
C916 C 1.03929 0.49113 0.9692 0.0
C917 C 1.00064 0.44713 0.94926 0.0
C918 C 1.00954 0.47801 0.95278 0.0
C919 C 0.06048 0.47321 0.98133 0.0
C920 C 0.05173 0.44239 0.97759 0.0
C921 C 1.02142 0.42908 0.96226 0.0
C922 C 0.04617 0.52314 0.97712 0.0
O923 O 0.10725 0.59247 1.00209 0.0
O924 O 0.10702 0.62798 0.04088 0.0
O925 O 0.15294 0.57012 0.06819 0.0
O926 O 0.12408 0.53554 0.03041 0.0
C927 C 0.10914 0.62034 1.01149 0.0
O928 O 0.15882 0.62969 0.09792 0.0
O929 O 0.12212 0.61996 0.12904 0.0
O930 O 0.08987 0.5604 0.10401 0.0
O931 O 0.07995 0.52628 0.06114 0.0
O932 O 1.04168 0.5843 0.03315 0.0
O933 O 0.06624 0.61607 0.07536 0.0
C934 C 0.15152 0.54561 0.04921 0.0
O935 O 1.03506 0.53119 1.00278 0.0
O936 O 0.07537 0.53678 0.97614 0.0
C937 C 0.14907 0.66912 0.12944 0.0
C938 C 0.15157 0.73071 0.13609 0.0
C939 C 0.12811 0.71287 0.11416 0.0
C940 C 0.12684 0.68229 0.11093 0.0
C941 C 0.17284 0.68679 0.15097 0.0
C942 C 0.1741 0.71747 0.15426 0.0
C943 C 0.14852 0.6373 0.1243 0.0
H944 H 0.97726 0.43739 0.93709 0.0
H945 H 0.99282 0.49165 0.94362 0.0
H946 H 0.08346 0.48302 0.99434 0.0
H947 H 0.06863 0.42897 0.98685 0.0
H948 H 0.11097 0.72257 0.09929 0.0
H949 H 0.10875 0.66893 0.09367 0.0
H950 H 0.1905 0.67695 0.16496 0.0
H951 H 0.19253 0.73086 0.1711 0.0
C952 C 1.04337 0.19103 1.01912 0.0
C953 C 0.0601 0.20635 0.99656 0.0
C954 C 0.05775 0.17234 0.03909 0.0
C955 C 0.08901 0.16806 0.03669 0.0
H956 H 1.01859 0.19236 1.02028 0.0
H957 H 1.0434 0.1591 0.05446 0.0
S958 S 0.14422 0.2055 0.98435 0.0
N959 N 0.11101 0.21858 0.97572 0.0
N960 N 0.13721 0.18243 1.01244 0.0
C961 C 0.10678 0.18503 1.0162 0.0
C962 C 0.09247 0.20443 0.99624 0.0
C963 C 0.28197 0.91287 0.23714 0.0
C964 C 0.25549 0.91811 0.25172 0.0
C965 C 0.30467 0.89818 0.25257 0.0
C966 C 0.30175 0.88841 0.28311 0.0
H967 H 0.28362 0.91767 0.21259 0.0
H968 H 0.32298 0.89203 0.2394 0.0
S969 S 0.24021 0.90097 0.33372 0.0
N970 N 0.23033 0.91609 0.30034 0.0
N971 N 0.27307 0.88806 0.32899 0.0
C972 C 0.27754 0.89629 0.2993 0.0
C973 C 0.2544 0.91143 0.28369 0.0
C974 C 0.54338 0.85225 0.48141 0.0
C975 C 0.51829 0.83421 0.46134 0.0
C976 C 0.54465 0.88285 0.48566 0.0
C977 C 0.52088 0.89635 0.47 0.0
H978 H 0.56312 0.84302 0.49254 0.0
H979 H 0.56517 0.89623 0.50005 0.0
S980 S 0.44739 0.85845 0.41962 0.0
N981 N 0.46701 0.83152 0.429 0.0
N982 N 0.46964 0.88935 0.43711 0.0
C983 C 0.49455 0.87841 0.45173 0.0
C984 C 0.49313 0.8472 0.44748 0.0
C985 C 0.57527 0.36316 0.7273 0.0
C986 C 0.59604 0.38963 0.73917 0.0
C987 C 0.54979 0.35125 0.74318 0.0
C988 C 0.54413 0.36543 0.77146 0.0
H989 H 0.57913 0.35104 0.70597 0.0
H990 H 0.53476 0.33048 0.73357 0.0
S991 S 0.58977 0.4366 0.81098 0.0
N992 N 0.60829 0.43057 0.77997 0.0
N993 N 0.55987 0.40826 0.80969 0.0
C994 C 0.56413 0.39233 0.78319 0.0
C995 C 0.5902 0.40445 0.76703 0.0
C996 C 0.08611 0.9252 0.58881 0.0
C997 C 0.09235 0.92018 0.62196 0.0
C998 C 0.08826 0.95462 0.57592 0.0
C999 C 0.09665 0.98265 0.59458 0.0
H1000 H 0.07934 0.9059 0.57209 0.0
H1001 H 0.08284 0.95521 0.55045 0.0
S1002 S 0.11669 0.9844 0.6829 0.0
N1003 N 0.10839 0.94837 0.67278 0.0
N1004 N 0.11187 1.0013 0.64967 0.0
C1005 C 0.10301 0.97789 0.62774 0.0
C1006 C 0.10107 0.94797 0.64081 0.0
C1007 C 0.48204 0.80287 0.8874 0.0
C1008 C 0.51087 0.81965 0.8793 0.0
C1009 C 0.45097 0.80356 0.87063 0.0
C1010 C 0.44599 0.82152 0.84468 0.0
H1011 H 0.4834 0.78876 0.90704 0.0
H1012 H 0.43046 0.79001 0.87856 0.0
S1013 S 0.5127 0.87103 0.81387 0.0
N1014 N 0.53118 0.85535 0.84292 0.0
N1015 N 0.47433 0.85725 0.81269 0.0
C1016 C 0.47465 0.83866 0.83662 0.0
C1017 C 0.50627 0.83757 0.85335 0.0
C1018 C 0.59407 0.20743 0.14156 0.0
C1019 C 0.58551 0.23103 0.12302 0.0
C1020 C 0.59526 0.17736 0.12864 0.0
C1021 C 0.58779 0.16717 0.0956 0.0
H1022 H 0.60024 0.21222 0.16695 0.0
H1023 H 0.60227 0.16178 0.14523 0.0
S1024 S 0.56406 0.2186 0.03494 0.0
N1025 N 0.56968 0.24004 0.06827 0.0
N1026 N 0.57152 0.18588 0.04489 0.0
C1027 C 0.57924 0.1906 0.07685 0.0
C1028 C 0.57821 0.22121 0.09 0.0
C1029 C 0.22669 0.33904 0.39166 0.0
C1030 C 0.195 0.32414 0.37983 0.0
C1031 C 0.25417 0.33944 0.37438 0.0
C1032 C 0.25298 0.32473 0.34358 0.0
H1033 H 0.23057 0.35078 0.41492 0.0
H1034 H 0.27703 0.3512 0.38589 0.0
S1035 S 0.17656 0.28215 0.30025 0.0
N1036 N 0.16536 0.29431 0.33364 0.0
N1037 N 0.21535 0.29453 0.30259 0.0
C1038 C 0.22145 0.30968 0.33154 0.0
C1039 C 0.19341 0.30959 0.34894 0.0
C1040 C 0.98847 0.07971 0.12901 0.0
C1041 C 0.98984 0.05855 0.15165 0.0
C1042 C 1.01397 0.08802 0.11169 0.0
C1043 C 1.04198 0.07605 0.11712 0.0
H1044 H 0.96773 0.09015 0.12496 0.0
H1045 H 1.01185 0.10422 0.09416 0.0
S1046 S 0.05763 1.02027 0.1745 0.0
N1047 N 1.02135 1.02577 0.17881 0.0
N1048 N 0.06956 0.0419 0.14662 0.0
C1049 C 1.04368 0.05489 0.13976 0.0
C1050 C 1.01746 0.04594 0.15689 0.0
C1051 C 0.35796 0.79036 0.44857 0.0
C1052 C 0.32894 0.77494 0.45668 0.0
C1053 C 0.36068 0.80014 0.41785 0.0
C1054 C 0.33453 0.79503 0.39349 0.0
H1055 H 0.37908 0.79446 0.46595 0.0
H1056 H 0.38382 0.81141 0.41312 0.0
S1057 S 0.2527 0.75631 0.40241 0.0
N1058 N 0.2731 0.75561 0.43771 0.0
N1059 N 0.27818 0.77387 0.38033 0.0
C1060 C 0.30516 0.7801 0.40146 0.0
C1061 C 0.30238 0.77014 0.43283 0.0
C1062 C 0.56953 0.99421 0.66141 0.0
C1063 C 0.59689 0.98105 0.66561 0.0
C1064 C 0.5634 1.01009 0.6348 0.0
C1065 C 0.58353 1.01195 0.61102 0.0
H1066 H 0.55505 0.99556 0.68051 0.0
H1067 H 0.54427 1.02273 0.63395 0.0
S1068 S 0.65363 0.97548 0.60734 0.0
N1069 N 0.64137 0.96719 0.64183 0.0
N1070 N 0.62839 0.99516 0.59045 0.0
C1071 C 0.60819 0.99536 0.61279 0.0
C1072 C 0.61519 0.9802 0.64048 0.0
C1073 C 0.3486 0.38041 0.95294 0.0
C1074 C 0.32365 0.39624 0.95815 0.0
C1075 C 0.35118 0.36561 0.92273 0.0
C1076 C 0.32853 0.36436 0.89503 0.0
H1077 H 0.36702 0.37985 0.97248 0.0
H1078 H 0.3714 0.35466 0.92124 0.0
S1079 S 0.25763 0.40124 0.89439 0.0
N1080 N 0.27552 0.40926 0.93118 0.0
N1081 N 0.27947 0.38102 0.8763 0.0
C1082 C 0.30313 0.37966 0.90002 0.0
C1083 C 0.30098 0.39548 0.93061 0.0
C1084 C 1.01988 0.08974 0.32332 0.0
C1085 C 1.02146 0.0767 0.29307 0.0
C1086 C 0.04398 0.08945 0.34841 0.0
C1087 C 0.07026 0.07581 0.34411 0.0
H1088 H 0.999 0.09857 0.3282 0.0
H1089 H 1.04055 0.09759 0.37191 0.0
S1090 S 0.08858 0.04345 0.26839 0.0
N1091 N 0.05391 0.05382 0.25912 0.0
N1092 N 0.09877 0.05275 0.30673 0.0
C1093 C 0.07362 0.06524 0.31342 0.0
C1094 C 0.0493 0.06583 0.28773 0.0
C1095 C 0.3372 0.79624 0.64763 0.0
C1096 C 0.34168 0.76722 0.63957 0.0
C1097 C 0.34078 0.80773 0.67958 0.0
C1098 C 0.34887 0.79082 0.7053 0.0
H1099 H 0.33062 0.81025 0.6291 0.0
H1100 H 0.3366 0.8301 0.68407 0.0
S1101 S 0.36496 0.71399 0.69736 0.0
N1102 N 0.35585 0.72209 0.66035 0.0
N1103 N 0.36246 0.74364 0.71996 0.0
C1104 C 0.35378 0.76186 0.69759 0.0
C1105 C 0.35027 0.75016 0.66498 0.0
C1106 C 0.53152 0.03046 0.79574 0.0
C1107 C 0.54504 1.00484 0.79958 0.0
C1108 C 0.5151 0.04082 0.81922 0.0
C1109 C 0.51214 1.026 0.84724 0.0
H1110 H 0.53661 0.04441 0.77642 0.0
H1111 H 0.50838 0.06244 0.81732 0.0
S1112 S 0.5314 0.95152 0.86135 0.0
N1113 N 0.54545 0.96007 0.82777 0.0
N1114 N 0.51515 0.97981 0.87256 0.0
C1115 C 0.52002 0.99748 0.84817 0.0
C1116 C 0.53661 0.98687 0.82413 0.0
C1117 C 0.31308 0.36982 0.14897 0.0
C1118 C 0.32753 0.40002 0.14621 0.0
C1119 C 0.31467 0.35507 0.17851 0.0
C1120 C 0.33074 0.36909 0.20829 0.0
H1121 H 0.30032 0.35706 0.12781 0.0
H1122 H 0.30308 0.33204 0.1778 0.0
S1123 S 0.3728 0.44819 0.21599 0.0
N1124 N 0.35871 0.44307 0.17787 0.0
N1125 N 0.3615 0.41632 0.2316 0.0
C1126 C 0.34515 0.39933 0.20584 0.0
C1127 C 0.34361 0.41429 0.17578 0.0
C1128 C 0.27813 0.97115 0.07298 0.0
C1129 C 0.31165 0.9777 0.0784 0.0
C1130 C 0.25984 0.99278 0.07978 0.0
C1131 C 0.27445 1.02144 0.09286 0.0
H1132 H 0.26597 0.94941 0.06288 0.0
H1133 H 0.23409 0.98709 0.07478 0.0
S1134 S 0.36117 0.04959 0.11252 0.0
N1135 N 0.35857 1.01498 0.09822 0.0
N1136 N 0.32409 0.0551 0.11132 0.0
C1137 C 0.30779 0.02805 0.09898 0.0
C1138 C 0.32642 1.00632 0.09165 0.0
C1139 C 0.75183 0.62187 0.03406 0.0
C1140 C 0.76537 0.64936 0.05161 0.0
C1141 C 0.71944 0.60681 0.03499 0.0
C1142 C 0.69807 0.61763 0.05406 0.0
H1143 H 0.7663 0.61191 1.01893 0.0
H1144 H 0.71112 0.5862 1.02051 0.0
S1145 S 0.72063 0.68851 0.10517 0.0
N1146 N 0.7533 0.68642 0.08882 0.0
N1147 N 0.69442 0.65856 0.09114 0.0
C1148 C 0.71151 0.64494 0.07193 0.0
C1149 C 0.7442 0.66047 0.07057 0.0
C1150 C 0.81812 0.54815 0.30366 0.0
C1151 C 0.81697 0.55757 0.33541 0.0
C1152 C 0.83881 0.5293 0.29602 0.0
C1153 C 0.85922 0.51942 0.31988 0.0
H1154 H 0.80158 0.55384 0.2847 0.0
H1155 H 0.83702 0.52069 0.27154 0.0
S1156 S 0.87012 0.54275 0.40583 0.0
N1157 N 0.84125 0.55924 0.39037 0.0
N1158 N 0.88067 0.52412 0.37579 0.0
C1159 C 0.86048 0.53097 0.35133 0.0
C1160 C 0.8392 0.54998 0.35918 0.0
C1161 C 0.95695 0.50407 0.5659 0.0
C1162 C 0.95798 0.47348 0.56557 0.0
C1163 C 0.98472 0.52547 0.56656 0.0
C1164 C 1.01481 0.51729 0.56757 0.0
H1165 H 0.93435 0.51164 0.56493 0.0
H1166 H 0.98252 0.54864 0.56598 0.0
S1167 S 1.03093 0.44026 0.56753 0.0
N1168 N 0.99181 0.43612 0.5665 0.0
N1169 N 0.04417 0.47642 0.56835 0.0
C1170 C 1.0164 0.48684 0.56797 0.0
C1171 C 0.98796 0.46493 0.56677 0.0
C1172 C 0.46647 0.16628 0.2559 0.0
C1173 C 0.48784 0.18695 0.27743 0.0
C1174 C 0.43738 0.17272 0.24226 0.0
C1175 C 0.42889 0.20031 0.24908 0.0
H1176 H 0.47145 0.1443 0.25071 0.0
H1177 H 0.42094 0.15566 0.22714 0.0
S1178 S 0.47739 0.26312 0.30153 0.0
N1179 N 0.49926 0.23684 0.30326 0.0
N1180 N 0.44474 0.24917 0.27719 0.0
C1181 C 0.45077 0.22184 0.26906 0.0
C1182 C 0.48022 0.21511 0.28335 0.0
C1183 C 0.45289 0.12624 0.53588 0.0
C1184 C 0.45306 0.15491 0.55104 0.0
C1185 C 0.48085 0.1122 0.53622 0.0
C1186 C 0.51177 0.12511 0.55227 0.0
H1187 H 0.43066 0.1143 0.52314 0.0
H1188 H 0.47792 0.09054 0.52373 0.0
S1189 S 0.52726 0.20008 0.59594 0.0
N1190 N 0.48893 0.19549 0.58245 0.0
N1191 N 0.53949 0.16972 0.58375 0.0
C1192 C 0.51222 0.15373 0.56759 0.0
C1193 C 0.4839 0.1682 0.56681 0.0
C1194 C 0.76059 0.70166 0.32158 0.0
C1195 C 0.77494 0.68712 0.34621 0.0
C1196 C 0.77367 0.73075 0.31555 0.0
C1197 C 0.80178 0.74601 0.33365 0.0
H1198 H 0.73951 0.69029 0.30638 0.0
H1199 H 0.76255 0.74079 0.29567 0.0
S1200 S 0.84668 0.71921 0.4029 0.0
N1201 N 0.81728 0.69124 0.39053 0.0
N1202 N 0.84206 0.74572 0.37876 0.0
C1203 C 0.81555 0.7323 0.3592 0.0
C1204 C 0.80205 0.70287 0.36561 0.0
C1205 C 1.03347 0.54233 0.82247 0.0
C1206 C 1.02437 0.56377 0.84266 0.0
C1207 C 1.02015 0.51211 0.82237 0.0
C1208 C 0.99701 0.50233 0.84219 0.0
H1209 H 0.05076 0.54893 0.8063 0.0
H1210 H 1.02737 0.49639 0.80608 0.0
S1211 S 0.9667 0.54877 0.90126 0.0
N1212 N 0.99207 0.57261 0.88444 0.0
N1213 N 0.96685 0.5158 0.88383 0.0
C1214 C 0.98826 0.52328 0.86305 0.0
C1215 C 1.002 0.55402 0.86342 0.0
C1216 C 0.16206 0.98438 0.11536 0.0
C1217 C 0.13885 0.9662 0.12987 0.0
C1218 C 0.15343 1.00299 0.09209 0.0
C1219 C 0.12123 1.00467 0.08267 0.0
H1220 H 0.18719 0.98449 0.1222 0.0
H1221 H 0.17241 1.01695 0.08222 0.0
S1222 S 0.05105 0.95954 0.1115 0.0
N1223 N 0.08209 0.94917 0.13158 0.0
N1224 N 0.06589 0.98484 0.0882 0.0
C1225 C 0.09765 0.98563 0.09598 0.0
C1226 C 0.10646 0.96632 0.11956 0.0
C1227 C 0.94147 0.2335 0.83254 0.0
C1228 C 0.93396 0.22407 0.86232 0.0
C1229 C 0.92087 0.24777 0.81333 0.0
C1230 C 0.89156 0.252 0.8226 0.0
H1231 H 0.96492 0.23313 0.82566 0.0
H1232 H 0.92908 0.25769 0.79243 0.0
S1233 S 0.85734 0.22451 0.89426 0.0
N1234 N 0.89308 0.21542 0.8975 0.0
N1235 N 0.85347 0.24067 0.86044 0.0
C1236 C 0.88182 0.23881 0.84996 0.0
C1237 C 0.90325 0.22513 0.87006 0.0
C1238 C 0.69406 0.31118 0.65546 0.0
C1239 C 0.67933 0.32235 0.68012 0.0
C1240 C 0.69016 0.2805 0.64808 0.0
C1241 C 0.67076 0.26025 0.66462 0.0
H1242 H 0.70861 0.32621 0.64177 0.0
H1243 H 0.70172 0.27259 0.62884 0.0
S1244 S 0.62743 0.27806 0.73139 0.0
N1245 N 0.6453 0.31067 0.72158 0.0
N1246 N 0.63732 0.25312 0.70691 0.0
C1247 C 0.65608 0.27109 0.68936 0.0
C1248 C 0.6606 0.30216 0.69737 0.0
C1249 C 0.61202 0.77573 0.34477 0.0
C1250 C 0.60333 0.79275 0.36964 0.0
C1251 C 0.63525 0.78811 0.32633 0.0
C1252 C 0.65071 0.81789 0.3322 0.0
H1253 H 0.60108 0.75256 0.33969 0.0
H1254 H 0.64189 0.77398 0.30799 0.0
S1255 S 0.63545 0.87248 0.39317 0.0
N1256 N 0.61111 0.8414 0.39827 0.0
N1257 N 0.65485 0.86454 0.36344 0.0
C1258 C 0.64178 0.83538 0.35645 0.0
C1259 C 0.61804 0.82285 0.37519 0.0
C1260 C 0.10542 0.22358 0.51351 0.0
C1261 C 0.10047 0.22838 0.48022 0.0
C1262 C 0.10301 0.19428 0.52666 0.0
C1263 C 0.09567 0.16611 0.5082 0.0
H1264 H 0.1113 0.24296 0.53016 0.0
H1265 H 0.10736 0.19389 0.55224 0.0
S1266 S 0.0792 0.1637 0.41953 0.0
N1267 N 0.08674 0.19979 0.42939 0.0
N1268 N 0.08287 0.14705 0.45306 0.0
C1269 C 0.09063 0.17061 0.47488 0.0
C1270 C 0.09278 0.20044 0.46151 0.0
C1271 C 0.71248 0.34403 0.2115 0.0
C1272 C 0.68378 0.32988 0.22233 0.0
C1273 C 0.74383 0.34342 0.22759 0.0
C1274 C 0.74925 0.32798 0.25547 0.0
H1275 H 0.7108 0.35599 0.19019 0.0
H1276 H 0.76422 0.3549 0.21753 0.0
S1277 S 0.68308 0.28694 0.29469 0.0
N1278 N 0.66407 0.30009 0.26402 0.0
N1279 N 0.72153 0.29811 0.29289 0.0
C1280 C 0.72076 0.31358 0.26643 0.0
C1281 C 0.68883 0.31475 0.25044 0.0
C1282 C 0.62824 0.93331 1.00846 0.0
C1283 C 0.60651 0.91719 0.98246 0.0
C1284 C 0.62707 0.96346 1.02136 0.0
C1285 C 0.60404 0.9811 1.00981 0.0
H1286 H 0.64691 0.92254 1.01921 0.0
H1287 H 0.6449 0.9731 0.04095 0.0
S1288 S 0.53897 0.95012 0.94427 0.0
N1289 N 0.55952 0.92291 0.94746 0.0
N1290 N 0.55736 0.977 0.97075 0.0
C1291 C 0.58192 0.96497 0.98426 0.0
C1292 C 0.58314 0.93441 0.97113 0.0
C1293 C 0.99832 0.83431 0.75311 0.0
C1294 C 0.99697 0.8238 0.72049 0.0
C1295 C 0.97044 0.83389 0.76994 0.0
C1296 C 0.93828 0.82248 0.75606 0.0
H1297 H 1.02149 0.8433 0.76612 0.0
H1298 H 0.9744 0.84254 0.79453 0.0
S1299 S 0.91932 0.79348 0.67086 0.0
N1300 N 0.95863 0.80238 0.6753 0.0
N1301 N 0.9082 0.80164 0.70567 0.0
C1302 C 0.93669 0.81216 0.72341 0.0
C1303 C 0.96496 0.81279 0.70627 0.0
C1304 C 0.21341 0.10616 0.96541 0.0
C1305 C 0.21834 0.07945 0.9509 0.0
C1306 C 0.18735 0.10689 0.98191 0.0
C1307 C 0.16522 0.08094 0.9848 0.0
H1308 H 0.22924 0.12695 0.96325 0.0
H1309 H 0.18453 0.12813 0.9925 0.0
S1310 S 0.16864 1.00482 0.95351 0.0
N1311 N 0.1998 1.026 0.94171 0.0
N1312 N 0.15079 0.02744 0.97352 0.0
C1313 C 0.17011 0.05389 0.9711 0.0
C1314 C 0.19678 0.05312 0.95411 0.0
C1315 C 0.893 0.37815 0.66889 0.0
C1316 C 0.8674 0.37072 0.64413 0.0
C1317 C 0.89082 0.36805 0.69963 0.0
C1318 C 0.8629 0.35002 0.70724 0.0
H1319 H 0.91485 0.39239 0.6647 0.0
H1320 H 0.91112 0.37493 0.71771 0.0
S1321 S 0.78899 0.32357 0.65072 0.0
N1322 N 0.81333 0.34365 0.62937 0.0
N1323 N 0.80905 0.32472 0.68646 0.0
C1324 C 0.83727 0.342 0.68242 0.0
C1325 C 0.83956 0.35229 0.65117 0.0
C1326 C 0.62111 0.15848 0.43249 0.0
C1327 C 0.59233 0.16919 0.42636 0.0
C1328 C 0.62875 0.14578 0.46102 0.0
C1329 C 0.60859 0.14456 0.4848 0.0
H1330 H 0.63618 0.15694 0.41392 0.0
H1331 H 0.64933 0.13497 0.46357 0.0
S1332 S 0.53397 0.1749 0.48311 0.0
N1333 N 0.54582 0.18122 0.44801 0.0
N1334 N 0.56127 0.15888 0.5025 0.0
C1335 C 0.58188 0.15845 0.48059 0.0
C1336 C 0.57348 0.17047 0.4511 0.0
C1337 C 0.88163 0.74734 0.17233 0.0
C1338 C 0.86317 0.75128 0.14315 0.0
C1339 C 0.87916 0.76238 0.20254 0.0
C1340 C 0.85731 0.78206 0.20658 0.0
H1341 H 0.89863 0.73252 0.1719 0.0
H1342 H 0.89442 0.75801 0.22324 0.0
S1343 S 0.80237 0.80042 0.13872 0.0
N1344 N 0.82192 0.77737 0.12159 0.0
N1345 N 0.81651 0.80389 0.17685 0.0
C1346 C 0.83849 0.78588 0.17763 0.0
C1347 C 0.84158 0.77118 0.14679 0.0
C1348 C 0.16447 0.08352 0.81467 0.0
C1349 C 0.19115 0.0713 0.80813 0.0
C1350 C 0.13981 0.08526 0.79066 0.0
C1351 C 0.14072 0.07449 0.75937 0.0
H1352 H 0.16339 0.09337 0.83813 0.0
H1353 H 0.12077 0.09658 0.79622 0.0
S1354 S 0.20302 0.03698 0.7306 0.0
N1355 N 0.2153 0.04547 0.76877 0.0
N1356 N 0.16889 0.04882 0.72352 0.0
C1357 C 0.16592 0.06008 0.753 0.0
C1358 C 0.19118 0.05847 0.77744 0.0
C1359 C 0.85605 0.34914 0.45239 0.0
C1360 C 0.85147 0.37795 0.46138 0.0
C1361 C 0.85209 0.33834 0.42013 0.0
C1362 C 0.84391 0.35598 0.39514 0.0
H1363 H 0.86287 0.33474 0.47044 0.0
H1364 H 0.85634 0.31614 0.41474 0.0
S1365 S 0.82861 0.43291 0.40552 0.0
N1366 N 0.83749 0.42373 0.44216 0.0
N1367 N 0.83076 0.40372 0.38205 0.0
C1368 C 0.83911 0.38477 0.40379 0.0
C1369 C 0.84265 0.39562 0.43665 0.0
C1370 C 0.65105 0.1219 0.28965 0.0
C1371 C 0.64169 0.14975 0.29096 0.0
C1372 C 0.66993 0.11451 0.26702 0.0
C1373 C 0.68052 0.13484 0.24496 0.0
H1374 H 0.64125 0.10453 0.30406 0.0
H1375 H 0.67284 0.09155 0.26473 0.0
S1376 S 0.67326 0.21443 0.24745 0.0
N1377 N 0.65131 0.20029 0.27444 0.0
N1378 N 0.68868 0.18687 0.23289 0.0
C1379 C 0.67622 0.16445 0.25009 0.0
C1380 C 0.65619 0.17179 0.27275 0.0
C1381 C 0.87978 0.77682 0.95087 0.0
C1382 C 0.86274 0.7477 0.95478 0.0
C1383 C 0.8785 0.79106 0.92095 0.0
C1384 C 0.86005 0.77756 0.89199 0.0
H1385 H 0.89446 0.78908 0.97137 0.0
H1386 H 0.89218 0.81325 0.92072 0.0
S1387 S 0.81058 0.70135 0.88753 0.0
N1388 N 0.82658 0.70629 0.92511 0.0
N1389 N 0.82416 0.73205 0.87083 0.0
C1390 C 0.84301 0.74843 0.89568 0.0
C1391 C 0.84435 0.734 0.92603 0.0
C1392 C 0.9108 0.1788 1.00922 0.0
C1393 C 0.88302 0.16868 0.02307 0.0
C1394 C 0.93094 0.15937 1.00127 0.0
C1395 C 0.92421 0.12899 1.00686 0.0
H1396 H 0.91717 0.20197 1.0045 0.0
H1397 H 0.95223 0.16832 0.99095 0.0
S1398 S 0.85452 0.09118 0.04265 0.0
N1399 N 0.84959 0.12608 0.0417 0.0
N1400 N 0.88783 0.08971 0.0272 0.0
C1401 C 0.89629 0.11844 1.02025 0.0
C1402 C 0.87566 0.13824 0.0283 0.0
C1403 C 0.43765 0.52644 0.06891 0.0
C1404 C 0.42413 0.49964 0.05011 0.0
C1405 C 0.47006 0.54169 0.0686 0.0
C1406 C 0.49159 0.53175 0.04908 0.0
H1407 H 0.42314 0.53571 0.08454 0.0
H1408 H 0.47829 0.56172 0.08405 0.0
S1409 S 0.4692 0.46293 0.99474 0.0
N1410 N 0.43638 0.4642 1.01115 0.0
N1411 N 0.49542 0.49239 1.01015 0.0
C1412 C 0.47821 0.50514 0.02997 0.0
C1413 C 0.44541 0.48943 0.03059 0.0
C1414 C 0.3562 0.5976 0.74778 0.0
C1415 C 0.38341 0.59137 0.76604 0.0
C1416 C 0.33974 0.61902 0.75877 0.0
C1417 C 0.34991 0.63494 0.78839 0.0
H1418 H 0.34808 0.58652 0.7244 0.0
H1419 H 0.31951 0.62387 0.74353 0.0
S1420 S 0.41881 0.62594 0.84603 0.0
N1421 N 0.41878 0.60169 0.81599 0.0
N1422 N 0.38817 0.64239 0.83628 0.0
C1423 C 0.37623 0.62802 0.80749 0.0
C1424 C 0.39293 0.60614 0.79638 0.0
C1425 C 0.2381 0.64253 0.54079 0.0
C1426 C 0.23819 0.67302 0.53768 0.0
C1427 C 0.20953 0.62182 0.53825 0.0
C1428 C 0.17975 0.63058 0.53212 0.0
H1429 H 0.26033 0.63451 0.54556 0.0
H1430 H 0.21085 0.59873 0.54141 0.0
S1431 S 0.16658 0.70778 0.5221 0.0
N1432 N 0.20576 0.71096 0.52813 0.0
N1433 N 0.15208 0.67206 0.52319 0.0
C1434 C 0.17942 0.66096 0.52853 0.0
C1435 C 0.20859 0.68215 0.5314 0.0
C1436 C 0.70423 0.94813 0.81994 0.0
C1437 C 0.70563 0.97708 0.80999 0.0
C1438 C 0.73189 0.93852 0.8329 0.0
C1439 C 0.76183 0.95756 0.83646 0.0
H1440 H 0.68197 0.93232 0.81622 0.0
H1441 H 0.73024 0.91546 0.8383 0.0
S1442 S 0.77784 0.03647 0.81796 0.0
N1443 N 0.73906 1.02569 0.80786 0.0
N1444 N 0.79091 1.00719 0.83181 0.0
C1445 C 0.76319 0.98713 0.82898 0.0
C1446 C 0.7351 0.99698 0.81575 0.0
C1447 C 0.70906 0.98718 0.53301 0.0
C1448 C 0.74006 0.99869 0.54981 0.0
C1449 C 0.68214 1.00276 0.53186 0.0
C1450 C 0.68322 0.03128 0.54783 0.0
H1451 H 0.70537 0.96561 0.52018 0.0
H1452 H 0.65985 0.99187 0.51835 0.0
S1453 S 0.75774 0.07232 0.59622 0.0
N1454 N 0.76883 0.04169 0.58312 0.0
N1455 N 0.71987 0.06964 0.58172 0.0
C1456 C 0.71401 0.04286 0.56494 0.0
C1457 C 0.74149 1.02721 0.56571 0.0
C1458 C 0.41299 0.429 0.73422 0.0
C1459 C 0.39346 0.45035 0.72869 0.0
C1460 C 0.40155 0.4022 0.74679 0.0
C1461 C 0.37015 0.39561 0.75421 0.0
H1462 H 0.43779 0.43359 0.73038 0.0
H1463 H 0.41799 0.38702 0.75173 0.0
S1464 S 0.30797 0.44223 0.73943 0.0
N1465 N 0.34027 0.46186 0.72809 0.0
N1466 N 0.3185 0.41127 0.75155 0.0
C1467 C 0.3496 0.41583 0.74653 0.0
C1468 C 0.36139 0.44323 0.73376 0.0
C1469 C 0.17015 0.59735 0.2884 0.0
C1470 C 0.16438 0.57847 0.26038 0.0
C1471 C 0.18685 0.62661 0.28893 0.0
C1472 C 0.19784 0.63809 0.26135 0.0
H1473 H 0.16231 0.58932 0.31026 0.0
H1474 H 0.19112 0.64038 0.31103 0.0
S1475 S 0.18876 0.59808 0.18189 0.0
N1476 N 0.17091 0.57355 0.20429 0.0
N1477 N 0.20196 0.62862 0.20536 0.0
C1478 C 0.19187 0.61967 0.2331 0.0
C1479 C 0.17522 0.58982 0.2326 0.0
C1480 C 0.55413 0.69124 0.51624 0.0
C1481 C 0.57224 0.70285 0.49267 0.0
C1482 C 0.5658 0.67251 0.53801 0.0
C1483 C 0.59616 0.66527 0.53724 0.0
H1484 H 0.5301 0.69526 0.51671 0.0
H1485 H 0.54988 0.66154 0.55362 0.0
S1486 S 0.65468 0.69265 0.48314 0.0
N1487 N 0.62354 0.70812 0.47216 0.0
N1488 N 0.64513 0.67281 0.51318 0.0
C1489 C 0.61551 0.67866 0.51567 0.0
C1490 C 0.60364 0.6975 0.4933 0.0
C1491 C 0.79159 0.42509 0.74351 0.0
C1492 C 0.76357 0.42919 0.75599 0.0
C1493 C 0.81388 0.41081 0.76042 0.0
C1494 C 0.80853 0.39991 0.79007 0.0
H1495 H 0.7948 0.43023 0.71932 0.0
H1496 H 0.83345 0.40541 0.74866 0.0
S1497 S 0.74343 0.41154 0.83649 0.0
N1498 N 0.73544 0.42679 0.80275 0.0
N1499 N 0.77675 0.39882 0.8337 0.0
C1500 C 0.78289 0.40716 0.80444 0.0
C1501 C 0.76059 0.42229 0.78763 0.0
C1502 C 0.99438 0.35123 0.92413 0.0
C1503 C 1.00219 0.33348 0.94894 0.0
C1504 C 0.99926 0.38213 0.92903 0.0
C1505 C 1.01207 0.39636 0.95891 0.0
H1506 H 0.98585 0.34137 0.9003 0.0
H1507 H 0.9945 0.395 0.90889 0.0
S1508 S 1.03099 0.35978 0.03297 0.0
N1509 N 1.01958 0.3321 1.00536 0.0
N1510 N 1.02821 0.39038 1.0147 0.0
C1511 C 1.01759 0.37879 0.98451 0.0
C1512 C 1.01269 0.34726 0.97951 0.0
C1513 C 0.08957 0.91047 0.27653 0.0
C1514 C 0.11107 0.89184 0.26989 0.0
C1515 C 0.06396 0.90054 0.29331 0.0
C1516 C 0.05914 0.87173 0.30412 0.0
H1517 H 0.09139 0.9322 0.26717 0.0
H1518 H 0.04697 0.91498 0.29658 0.0
S1519 S 0.11099 0.81572 0.29625 0.0
N1520 N 0.12789 0.84446 0.27841 0.0
N1521 N 0.07938 0.82565 0.30929 0.0
C1522 C 0.08179 0.85373 0.29966 0.0
C1523 C 0.10788 0.86384 0.28267 0.0
C1524 C 0.59609 0.44814 0.14194 0.0
C1525 C 0.59179 0.42023 0.12329 0.0
C1526 C 0.59762 0.47752 0.12899 0.0
C1527 C 0.59545 0.48279 0.0957 0.0
H1528 H 0.5982 0.44746 0.16753 0.0
H1529 H 0.6007 0.49662 0.14583 0.0
S1530 S 0.58382 0.41879 0.03449 0.0
N1531 N 0.5851 0.40187 0.06797 0.0
N1532 N 0.58831 0.4547 0.04461 0.0
C1533 C 0.59123 0.45508 0.07678 0.0
C1534 C 0.58936 0.42515 0.08999 0.0
C1535 C 1.00468 0.32958 0.35219 0.0
C1536 C 1.00967 0.31591 0.38128 0.0
C1537 C 0.97349 0.32985 0.33563 0.0
C1538 C 0.94466 0.31591 0.34638 0.0
H1539 H 1.02523 0.34074 0.34214 0.0
H1540 H 0.97209 0.34117 0.31387 0.0
S1541 S 0.94307 0.27665 0.4212 0.0
N1542 N 0.98157 0.2881 0.4199 0.0
N1543 N 0.9244 0.2879 0.38909 0.0
C1544 C 0.94934 0.3019 0.37529 0.0
C1545 C 0.98107 0.30209 0.39244 0.0
C1546 C 0.09511 0.70834 0.637 0.0
C1547 C 0.08608 0.73211 0.61908 0.0
C1548 C 0.09642 0.67855 0.62345 0.0
C1549 C 0.08854 0.66879 0.59033 0.0
H1550 H 0.10152 0.71276 0.6624 0.0
H1551 H 0.10367 0.66278 0.63961 0.0
S1552 S 0.06384 0.72094 0.53099 0.0
N1553 N 0.06962 0.74188 0.56468 0.0
N1554 N 0.07159 0.68811 0.54019 0.0
C1555 C 0.07955 0.69238 0.57215 0.0
C1556 C 0.07847 0.72277 0.58594 0.0
C1557 C 0.69541 0.80501 0.85254 0.0
C1558 C 0.69486 0.82531 0.87916 0.0
C1559 C 0.7229 0.80472 0.83539 0.0
C1560 C 0.75264 0.82506 0.84261 0.0
H1561 H 0.67421 0.78851 0.8449 0.0
H1562 H 0.72064 0.78796 0.816 0.0
S1563 S 0.76513 0.88463 0.90861 0.0
N1564 N 0.72833 0.8673 0.91061 0.0
N1565 N 0.77793 0.86729 0.87903 0.0
C1566 C 0.75216 0.84587 0.86878 0.0
C1567 C 0.72434 0.84586 0.88655 0.0
C1568 C 0.51394 0.54853 0.65835 0.0
C1569 C 0.48607 0.5605 0.65254 0.0
C1570 C 0.54007 0.55772 0.64235 0.0
C1571 C 0.53886 0.57853 0.6193 0.0
H1572 H 0.51588 0.53245 0.67604 0.0
H1573 H 0.56106 0.54788 0.64762 0.0
S1574 S 0.47126 0.6169 0.59608 0.0
N1575 N 0.45885 0.595 0.62363 0.0
N1576 N 0.50759 0.61137 0.5918 0.0
C1577 C 0.51105 0.59081 0.61332 0.0
C1578 C 0.48469 0.582 0.63042 0.0
C1579 C 0.80487 0.27878 0.93673 0.0
C1580 C 0.83174 0.27883 0.95921 0.0
C1581 C 0.8078 0.2898 0.90659 0.0
C1582 C 0.83775 0.30168 0.89745 0.0
H1583 H 0.78126 0.26941 0.94208 0.0
H1584 H 0.78629 0.28856 0.89013 0.0
S1585 S 0.91587 0.30713 0.94739 0.0
N1586 N 0.88953 0.29206 0.97008 0.0
N1587 N 0.89502 0.31286 0.91383 0.0
C1588 C 0.86483 0.30255 0.91999 0.0
C1589 C 0.86185 0.29111 0.95066 0.0
C1590 C 0.06282 0.49201 0.16305 0.0
C1591 C 0.08961 0.47823 0.16916 0.0
C1592 C 0.05865 0.50788 0.13604 0.0
C1593 C 0.08026 0.50934 0.11365 0.0
H1594 H 0.04681 0.49334 0.18077 0.0
H1595 H 1.03972 0.52077 0.13379 0.0
S1596 S 0.15 0.47183 0.11472 0.0
N1597 N 0.13527 0.46346 0.14809 0.0
N1598 N 0.12632 0.49219 0.09642 0.0
C1599 C 0.10465 0.49257 0.11729 0.0
C1600 C 0.10952 0.47709 0.14526 0.0
C1601 C 0.81677 0.90898 0.42887 0.0
C1602 C 0.82779 0.89945 0.45903 0.0
C1603 C 0.81957 0.89404 0.3987 0.0
C1604 C 0.83427 0.86855 0.39587 0.0
H1605 H 0.80559 0.92839 0.42841 0.0
H1606 H 0.81038 0.90304 0.37718 0.0
S1607 S 0.86762 0.8336 0.46674 0.0
N1608 N 0.85402 0.86165 0.48279 0.0
N1609 N 0.8599 0.83485 0.42786 0.0
C1610 C 0.84545 0.85889 0.42588 0.0
C1611 C 0.8421 0.87377 0.45652 0.0
C1612 C 0.54623 0.56483 0.79446 0.0
C1613 C 0.52185 0.5396 0.78955 0.0
C1614 C 0.57185 0.56653 0.81857 0.0
C1615 C 0.57399 0.54292 0.83823 0.0
H1616 H 0.54458 0.58404 0.78089 0.0
H1617 H 0.58901 0.58709 0.82315 0.0
S1618 S 0.5184 0.47021 0.83151 0.0
N1619 N 0.5034 0.48915 0.80334 0.0
N1620 N 0.55092 0.49239 0.84894 0.0
C1621 C 0.55106 0.51661 0.83163 0.0
C1622 C 0.52507 0.51497 0.80723 0.0
C1623 C 0.83931 0.24548 0.16209 0.0
C1624 C 0.83958 0.26458 0.1369 0.0
C1625 C 0.84356 0.25654 0.19433 0.0
C1626 C 0.84894 0.28731 0.20305 0.0
H1627 H 0.83527 0.22164 0.1569 0.0
H1628 H 0.84257 0.24079 0.21255 0.0
S1629 S 0.852 0.34695 0.14634 0.0
N1630 N 0.84561 0.31591 0.12326 0.0
N1631 N 0.85407 0.33667 0.18312 0.0
C1632 C 0.84965 0.30663 0.17801 0.0
C1633 C 0.84486 0.29532 0.14527 0.0
C1634 C 0.05734 0.4688 0.34903 0.0
C1635 C 0.04909 0.47464 0.31735 0.0
C1636 C 1.04118 0.47878 0.37301 0.0
C1637 C 1.01619 0.49461 0.36577 0.0
H1638 H 0.07878 0.45999 0.35586 0.0
H1639 H 0.05108 0.47741 0.39742 0.0
S1640 S 0.97856 0.5052 0.28518 0.0
N1641 N 1.00968 0.48999 0.27901 0.0
N1642 N 0.97834 0.50766 0.32409 0.0
C1643 C 1.0042 0.49547 0.33368 0.0
C1644 C 1.02103 0.48584 0.30936 0.0
C1645 C 0.81246 0.87089 0.64911 0.0
C1646 C 0.82799 0.90083 0.64654 0.0
C1647 C 0.81384 0.85575 0.67843 0.0
C1648 C 0.83076 0.86904 0.70817 0.0
H1649 H 0.799 0.85867 0.62796 0.0
H1650 H 0.80139 0.83297 0.67756 0.0
S1651 S 0.87576 0.94716 0.71636 0.0
N1652 N 0.86107 0.9428 0.67837 0.0
N1653 N 0.86347 0.91535 0.73167 0.0
C1654 C 0.84624 0.89901 0.70591 0.0
C1655 C 0.84491 0.91437 0.67609 0.0
C1656 C 0.81318 0.50098 0.56813 0.0
C1657 C 0.80791 0.47219 0.57897 0.0
C1658 C 0.79569 0.52237 0.57724 0.0
C1659 C 0.77231 0.51602 0.59779 0.0
H1660 H 0.83105 0.50718 0.55245 0.0
H1661 H 0.8007 0.54419 0.56821 0.0
S1662 S 0.74934 0.44403 0.63308 0.0
N1663 N 0.77764 0.43845 0.61153 0.0
N1664 N 0.74472 0.47869 0.62869 0.0
C1665 C 0.76688 0.48736 0.60901 0.0
C1666 C 0.78459 0.46544 0.59952 0.0
C1667 C 0.24399 0.15833 0.56662 0.0
C1668 C 0.26567 0.14725 0.5483 0.0
C1669 C 0.21197 0.14298 0.56787 0.0
C1670 C 0.19857 0.11542 0.55047 0.0
H1671 H 0.25189 0.17933 0.5805 0.0
H1672 H 0.19733 0.15325 0.58256 0.0
S1673 S 0.24408 0.07601 0.49796 0.0
N1674 N 0.27022 0.10601 0.51213 0.0
N1675 N 0.21105 0.07811 0.51372 0.0
C1676 C 0.21992 0.10413 0.53183 0.0
C1677 C 0.2528 0.11959 0.53098 0.0
C1678 C 0.34369 1.01406 0.88141 0.0
C1679 C 0.34856 0.04471 0.87755 0.0
C1680 C 0.36571 0.99693 0.87304 0.0
C1681 C 0.39322 1.00977 0.86007 0.0
H1682 H 0.32172 1.00286 0.88901 0.0
H1683 H 0.35941 0.97303 0.87375 0.0
S1684 S 0.4203 0.08993 0.8515 0.0
N1685 N 0.38549 0.08807 0.86504 0.0
N1686 N 0.42674 0.05546 0.84869 0.0
C1687 C 0.40008 0.04081 0.85935 0.0
C1688 C 0.37774 0.05841 0.86824 0.0
C1689 C 0.45707 1.00402 0.05481 0.0
C1690 C 0.4576 0.97523 0.06483 0.0
C1691 C 0.48468 1.02602 0.05856 0.0
C1692 C 0.51417 1.02028 0.07249 0.0
H1693 H 0.43508 1.00971 0.04382 0.0
H1694 H 0.48289 0.04757 0.04985 0.0
S1695 S 0.52836 0.94871 0.10374 0.0
N1696 N 0.49002 0.94236 0.09008 0.0
N1697 N 0.54196 0.98357 0.09712 0.0
C1698 C 0.51497 0.99168 0.08313 0.0
C1699 C 0.48675 0.96922 0.07927 0.0
C1700 C 0.97821 0.70934 0.78447 0.0
C1701 C 0.98546 0.68079 0.78005 0.0
C1702 C 0.94959 0.71614 0.76994 0.0
C1703 C 0.927 0.69454 0.75078 0.0
H1704 H 0.99429 0.7263 0.80003 0.0
H1705 H 0.94436 0.73804 0.77511 0.0
S1706 S 0.93555 0.61735 0.72923 0.0
N1707 N 0.96859 0.6314 0.75295 0.0
N1708 N 0.91464 0.64429 0.72625 0.0
C1709 C 0.93451 0.66638 0.74499 0.0
C1710 C 0.96381 0.6595 0.75943 0.0
C1711 C 0.95147 0.62504 0.03727 0.0
C1712 C 0.95222 0.65397 0.05211 0.0
C1713 C 0.97909 0.61047 0.03764 0.0
C1714 C 1.0102 0.62304 0.0535 0.0
H1715 H 0.92905 0.61329 0.02473 0.0
H1716 H 0.97572 0.58866 0.0254 0.0
S1717 S 1.02726 0.69858 0.09608 0.0
N1718 N 0.98891 0.69446 0.0828 0.0
N1719 N 1.03877 0.66773 0.08429 0.0
C1720 C 1.01122 0.65193 0.06848 0.0
C1721 C 0.98329 0.66696 0.06758 0.0
C1722 C 0.28591 0.18509 0.82611 0.0
C1723 C 0.29808 0.17655 0.85573 0.0
C1724 C 0.29294 0.21454 0.81809 0.0
C1725 C 0.31286 0.2365 0.83917 0.0
H1726 H 0.27073 0.1689 0.80895 0.0
H1727 H 0.28334 0.21991 0.79479 0.0
S1728 S 0.35 0.2258 0.92013 0.0
N1729 N 0.33014 0.19249 0.90669 0.0
N1730 N 0.3439 0.24791 0.89137 0.0
C1731 C 0.3249 0.22836 0.86906 0.0
C1732 C 0.31735 0.19837 0.87741 0.0
C1733 C 0.50522 0.0524 0.36102 0.0
C1734 C 0.5135 0.06409 0.33247 0.0
C1735 C 0.49097 1.02251 0.36179 0.0
C1736 C 0.484 1.00343 0.33395 0.0
H1737 H 0.51026 0.06629 0.38304 0.0
H1738 H 0.48531 1.01427 0.38432 0.0
S1739 S 0.50034 1.02307 0.25308 0.0
N1740 N 0.51335 0.05422 0.2756 0.0
N1741 N 0.48629 0.99815 0.27713 0.0
C1742 C 0.49171 1.01489 0.30521 0.0
C1743 C 0.50656 0.04519 0.30445 0.0
C1744 C 0.66021 0.47044 0.60095 0.0
C1745 C 0.64501 0.46304 0.62773 0.0
C1746 C 0.64785 0.48855 0.57893 0.0
C1747 C 0.61937 0.49891 0.58245 0.0
H1748 H 0.68259 0.46354 0.59787 0.0
H1749 H 0.66152 0.49575 0.55989 0.0
S1750 S 0.56787 0.48127 0.64574 0.0
N1751 N 0.59838 0.46445 0.65485 0.0
N1752 N 0.57455 0.49765 0.61275 0.0
C1753 C 0.60255 0.48944 0.60763 0.0
C1754 C 0.61559 0.47174 0.63053 0.0
C1755 C 0.42551 0.73134 0.36655 0.0
C1756 C 0.45614 0.73322 0.35714 0.0
C1757 C 0.4016 0.74278 0.34836 0.0
C1758 C 0.40772 0.75689 0.32045 0.0
H1759 H 0.42071 0.72315 0.38933 0.0
H1760 H 0.3792 0.74293 0.35774 0.0
S1761 S 0.48156 0.76246 0.28222 0.0
N1762 N 0.4893 0.74587 0.31512 0.0
N1763 N 0.44466 0.76831 0.28183 0.0
C1764 C 0.43705 0.75636 0.30922 0.0
C1765 C 0.46116 0.74413 0.32729 0.0
C1766 C 0.18317 0.81354 0.14789 0.0
C1767 C 0.15608 0.82509 0.15416 0.0
C1768 C 0.18135 0.78304 0.14123 0.0
C1769 C 0.15237 0.76304 0.14049 0.0
H1770 H 0.20621 0.828 0.14923 0.0
H1771 H 0.2029 0.77498 0.13716 0.0
S1772 S 0.07418 0.78205 0.15363 0.0
N1773 N 0.09901 0.81426 0.15758 0.0
N1774 N 0.09581 0.75688 0.14559 0.0
C1775 C 0.12486 0.77438 0.1455 0.0
C1776 C 0.12666 0.80544 0.1522 0.0
C1777 C 0.09824 0.24552 0.85046 0.0
C1778 C 0.08433 0.26804 0.86375 0.0
C1779 C 0.12319 0.25242 0.83202 0.0
C1780 C 0.13472 0.28199 0.82596 0.0
H1781 H 0.09033 0.22249 0.85491 0.0
H1782 H 0.13379 0.23456 0.82272 0.0
S1783 S 0.10602 0.34901 0.85449 0.0
N1784 N 0.08347 0.32108 0.86885 0.0
N1785 N 0.13043 0.33388 0.83427 0.0
C1786 C 0.12058 0.30462 0.83844 0.0
C1787 C 0.09536 0.29768 0.85734 0.0
C1788 C 0.60164 0.7236 1.0134 0.0
C1789 C 0.60052 0.72878 0.98017 0.0
C1790 C 0.59938 0.69423 0.02642 0.0
C1791 C 0.59591 0.66632 1.00793 0.0
H1792 H 0.60428 0.74274 0.03009 0.0
H1793 H 0.60058 0.69361 0.05196 0.0
S1794 S 0.59177 0.66484 0.91933 0.0
N1795 N 0.59549 0.70072 0.92928 0.0
N1796 N 0.59177 0.64795 0.95282 0.0
C1797 C 0.5949 0.67119 0.97469 0.0
C1798 C 0.597 0.70107 0.96139 0.0
C1799 C 0.21177 0.8483 0.71157 0.0
C1800 C 0.1834 0.83214 0.72126 0.0
C1801 C 0.24318 0.84883 0.72814 0.0
C1802 C 0.249 0.83268 0.7554 0.0
H1803 H 0.20977 0.86097 0.6908 0.0
H1804 H 0.26332 0.86177 0.71895 0.0
S1805 S 0.18378 0.7862 0.79134 0.0
N1806 N 0.1644 0.79958 0.76107 0.0
N1807 N 0.22199 0.79971 0.79081 0.0
C1808 C 0.22083 0.81627 0.76519 0.0
C1809 C 0.18883 0.81624 0.74872 0.0
C1810 C 0.09624 0.43971 0.46286 0.0
C1811 C 0.10734 0.41698 0.48101 0.0
C1812 C 0.09491 0.4697 0.47571 0.0
C1813 C 0.10488 0.48077 0.50824 0.0
H1814 H 0.0881 0.43427 0.43782 0.0
H1815 H 0.08584 0.48459 0.45943 0.0
S1816 S 0.13555 0.43175 0.56794 0.0
N1817 N 0.12803 0.4096 0.53503 0.0
N1818 N 0.12607 0.46385 0.55822 0.0
C1819 C 0.11596 0.45825 0.52669 0.0
C1820 C 0.11703 0.4276 0.51363 0.0
C1821 C 0.49823 0.33407 0.25414 0.0
C1822 C 0.497 0.32406 0.22139 0.0
C1823 C 0.47023 0.33386 0.27067 0.0
C1824 C 0.43812 0.3231 0.25634 0.0
H1825 H 0.52139 0.34245 0.26747 0.0
H1826 H 0.47405 0.342 0.29542 0.0
S1827 S 0.41948 0.29622 0.17055 0.0
N1828 N 0.45884 0.30422 0.17549 0.0
N1829 N 0.40815 0.30383 0.20542 0.0
C1830 C 0.43662 0.3134 0.22356 0.0
C1831 C 0.46502 0.31385 0.2067 0.0
C1832 C 0.67912 0.55814 0.43917 0.0
C1833 C 0.70626 0.58063 0.4408 0.0
C1834 C 0.65834 0.55756 0.46227 0.0
C1835 C 0.66422 0.57934 0.48776 0.0
H1836 H 0.67293 0.54184 0.41906 0.0
H1837 H 0.63725 0.54032 0.45971 0.0
S1838 S 0.73441 0.64101 0.50422 0.0
N1839 N 0.73961 0.62349 0.47094 0.0
N1840 N 0.70081 0.62283 0.51437 0.0
C1841 C 0.69236 0.60104 0.49042 0.0
C1842 C 0.71337 0.60152 0.46694 0.0
C1843 C 0.3535 0.84488 0.15047 0.0
C1844 C 0.37121 0.87336 0.14727 0.0
C1845 C 0.35167 0.83307 0.18057 0.0
C1846 C 0.36744 0.84916 0.20891 0.0
H1847 H 0.34047 0.83179 0.12963 0.0
H1848 H 0.33721 0.81132 0.18161 0.0
S1849 S 0.41834 0.92431 0.21358 0.0
N1850 N 0.4058 0.91687 0.17536 0.0
N1851 N 0.40247 0.89498 0.23112 0.0
C1852 C 0.3858 0.87742 0.20583 0.0
C1853 C 0.38764 0.88937 0.17533 0.0
C1854 C 0.12143 0.65738 0.93607 0.0
C1855 C 0.09367 0.66982 0.93051 0.0
C1856 C 0.12782 0.64309 0.96379 0.0
C1857 C 0.10747 0.64199 0.98736 0.0
H1858 H 0.13655 0.65581 0.91756 0.0
H1859 H 0.14763 0.63128 0.96592 0.0
S1860 S 1.03562 0.6765 0.98732 0.0
N1861 N 0.04814 0.68352 0.95263 0.0
N1862 N 0.06138 0.65824 1.00582 0.0
C1863 C 0.08195 0.65749 0.98391 0.0
C1864 C 0.07477 0.67115 0.95517 0.0
C1865 C 0.3427 0.26972 0.64749 0.0
C1866 C 0.36125 0.24707 0.64377 0.0
C1867 C 0.33885 0.28325 0.67802 0.0
C1868 C 0.35372 0.27584 0.70768 0.0
H1869 H 0.33044 0.27697 0.62639 0.0
H1870 H 0.32402 0.30005 0.67822 0.0
S1871 S 0.40559 0.2184 0.71284 0.0
N1872 N 0.3947 0.21827 0.67422 0.0
N1873 N 0.38852 0.24356 0.72987 0.0
C1874 C 0.37264 0.25348 0.70423 0.0
C1875 C 0.37606 0.23933 0.67321 0.0
C1876 C 0.62742 0.58391 0.31101 0.0
C1877 C 0.65268 0.56974 0.30436 0.0
C1878 C 0.60104 0.58332 0.28819 0.0
C1879 C 0.59949 0.56903 0.25784 0.0
H1880 H 0.62922 0.59763 0.33289 0.0
H1881 H 0.58374 0.59703 0.29296 0.0
S1882 S 0.6551 0.52146 0.23244 0.0
N1883 N 0.67088 0.53517 0.26856 0.0
N1884 N 0.62193 0.53482 0.22512 0.0
C1885 C 0.62214 0.55096 0.25289 0.0
C1886 C 0.6488 0.5513 0.27631 0.0
C1887 C 0.32761 0.86329 0.94792 0.0
C1888 C 0.35699 0.87894 0.96374 0.0
C1889 C 0.32377 0.85409 0.91511 0.0
C1890 C 0.34881 0.86106 0.89636 0.0
H1891 H 0.30748 0.85778 0.96108 0.0
H1892 H 0.30086 0.84177 0.90426 0.0
S1893 S 0.43044 0.90209 0.92593 0.0
N1894 N 0.41158 0.90084 0.95771 0.0
N1895 N 0.40419 0.88464 0.89657 0.0
C1896 C 0.37816 0.87699 0.91189 0.0
C1897 C 0.38228 0.88563 0.94532 0.0
C1898 C 0.15902 0.64019 0.79238 0.0
C1899 C 0.14195 0.66375 0.79105 0.0
C1900 C 0.17557 0.63338 0.76738 0.0
C1901 C 0.17536 0.64996 0.74042 0.0
H1902 H 0.15655 0.62478 0.81088 0.0
H1903 H 0.18427 0.61257 0.76721 0.0
S1904 S 0.14583 0.72077 0.73197 0.0
N1905 N 0.13416 0.70881 0.76555 0.0
N1906 N 0.16608 0.69625 0.71875 0.0
C1907 C 0.16444 0.67713 0.74224 0.0
C1908 C 0.14717 0.68389 0.7675 0.0
C1909 C 0.34476 0.23505 0.42619 0.0
C1910 C 0.36283 0.24852 0.45525 0.0
C1911 C 0.34336 0.24941 0.3965 0.0
C1912 C 0.35998 0.2787 0.39278 0.0
H1913 H 0.33116 0.21279 0.42623 0.0
H1914 H 0.3287 0.23712 0.37601 0.0
S1915 S 0.41126 0.32512 0.46059 0.0
N1916 N 0.39805 0.29413 0.47704 0.0
N1917 N 0.39555 0.32036 0.42289 0.0
C1918 C 0.37823 0.29245 0.42165 0.0
C1919 C 0.37961 0.2778 0.45195 0.0
C1920 C 0.381 0.6501 0.50348 0.0
C1921 C 0.39223 0.67677 0.52253 0.0
C1922 C 0.40139 0.63039 0.49698 0.0
C1923 C 0.43389 0.63656 0.50916 0.0
H1924 H 0.35615 0.64426 0.4935 0.0
H1925 H 0.39163 0.61022 0.48214 0.0
S1926 S 0.47515 0.70263 0.56146 0.0
N1927 N 0.43803 0.70794 0.55405 0.0
N1928 N 0.47621 0.67076 0.54212 0.0
C1929 C 0.44548 0.66309 0.5283 0.0
C1930 C 0.42471 0.6832 0.53493 0.0
C1931 C 0.93861 0.0283 0.56991 0.0
C1932 C 0.92566 1.00058 0.55258 0.0
C1933 C 0.97097 0.04357 0.56946 0.0
C1934 C 0.99289 0.03269 0.55116 0.0
H1935 H 0.92366 0.0383 0.58447 0.0
H1936 H 0.97882 0.06437 0.58371 0.0
S1937 S 0.97194 0.96132 0.50081 0.0
N1938 N 0.93879 0.96332 0.51634 0.0
N1939 N 0.9977 0.99152 0.51495 0.0
C1940 C 0.98005 1.00516 0.5335 0.0
C1941 C 0.94736 0.98944 0.53435 0.0
C1942 C 0.83919 0.09027 0.23963 0.0
C1943 C 0.86793 0.1023 0.22836 0.0
C1944 C 0.8181 0.10861 0.24808 0.0
C1945 C 0.82487 0.13944 0.24501 0.0
H1946 H 0.83401 0.06694 0.24407 0.0
H1947 H 0.79741 0.09894 0.25893 0.0
S1948 S 0.89462 0.18086 0.21181 0.0
N1949 N 0.90015 0.1461 0.21083 0.0
N1950 N 0.86073 0.18057 0.22665 0.0
C1951 C 0.85214 0.15119 0.23103 0.0
C1952 C 0.87367 0.1326 0.22277 0.0
C1953 C 0.7088 0.17942 0.0473 0.0
C1954 C 0.72989 0.17581 0.02509 0.0
C1955 C 0.68101 0.15842 0.04823 0.0
C1956 C 0.67276 0.13308 0.0267 0.0
H1957 H 0.71449 0.19788 0.06519 0.0
H1958 H 0.66631 0.1616 0.06675 0.0
S1959 S 0.71774 0.1148 0.96143 0.0
N1960 N 0.73919 0.14601 0.97919 0.0
N1961 N 0.68646 0.10677 0.98085 0.0
C1962 C 0.69239 0.13009 1.003 0.0
C1963 C 0.7211 0.15136 1.00227 0.0
C1964 C 0.22647 0.48268 0.3281 0.0
C1965 C 0.20251 0.4604 0.31155 0.0
C1966 C 0.25568 0.47626 0.34135 0.0
C1967 C 0.26182 0.44722 0.33908 0.0
H1968 H 0.22313 0.50557 0.32995 0.0
H1969 H 0.27385 0.49424 0.3529 0.0
S1970 S 0.20654 0.3805 0.29993 0.0
N1971 N 0.18646 0.40788 0.29482 0.0
N1972 N 0.24136 0.39569 0.32001 0.0
C1973 C 0.23769 0.42447 0.32368 0.0
C1974 C 0.20804 0.4311 0.30981 0.0
C1975 C 0.20711 0.48436 0.03565 0.0
C1976 C 0.23878 0.49683 0.05023 0.0
C1977 C 0.18005 0.49972 0.03503 0.0
C1978 C 0.18163 0.52899 0.04945 0.0
H1979 H 0.20299 0.46218 0.02414 0.0
H1980 H 0.15725 0.48809 0.02318 0.0
S1981 S 0.25795 0.57265 0.09203 0.0
N1982 N 0.26869 0.54151 0.0799 0.0
N1983 N 0.21949 0.56908 0.07957 0.0
C1984 C 0.21309 0.54152 0.06443 0.0
C1985 C 0.24071 0.52608 0.06459 0.0
C1986 C 0.88119 0.94815 0.23527 0.0
C1987 C 0.90879 0.96604 0.25159 0.0
C1988 C 0.87092 0.91917 0.2436 0.0
C1989 C 0.8881 0.90694 0.26834 0.0
H1990 H 0.86697 0.95683 0.21643 0.0
H1991 H 0.84897 0.90655 0.23091 0.0
S1992 S 0.96449 0.94371 0.31552 0.0
N1993 N 0.95468 0.96895 0.29171 0.0
N1994 N 0.93581 0.91434 0.30714 0.0
C1995 C 0.91662 0.92426 0.28387 0.0
C1996 C 0.92684 0.95388 0.27559 0.0
C1997 C 0.66589 0.10878 0.73437 0.0
C1998 C 0.65772 0.095 0.76193 0.0
C1999 C 0.68013 0.13883 0.73581 0.0
C2000 C 0.68685 0.15614 0.76488 0.0
H2001 H 0.6619 0.09615 0.71158 0.0
H2002 H 0.68685 0.14833 0.71416 0.0
S2003 S 0.66763 0.13153 0.84339 0.0
N2004 N 0.65562 0.10155 0.81886 0.0
N2005 N 0.68225 0.15808 0.82139 0.0
C2006 C 0.67782 0.14297 0.7924 0.0
C2007 C 0.66324 0.1124 0.79096 0.0
loop_
_geom_bond_atom_site_label_1
_geom_bond_atom_site_label_2
_geom_bond_distance
_geom_bond_site_symmetry_2
_ccdc_geom_bond_type
In0 O1 2.294 . S
In0 O2 2.326 . S
In0 O6 2.266 . S
In0 O7 2.326 . S
In0 O8 2.266 . S
In0 O9 2.326 . S
In0 O11 2.294 . S
In0 O12 2.326 . S
O1 In0 2.294 . S
O1 C10 1.240 . S
O2 In0 2.326 . S
O2 C10 1.252 . S
C3 O6 1.252 1_655 S
C3 O7 1.260 1_655 S
C4 O11 1.240 . S
C4 O12 1.252 . S
C5 O8 1.252 . S
C5 O9 1.260 . S
O6 In0 2.266 . S
O6 C3 1.252 1_455 S
O7 In0 2.326 . S
O7 C3 1.260 1_455 S
O8 In0 2.266 . S
O8 C5 1.252 . S
O9 In0 2.326 . S
O9 C5 1.260 . S
C10 O1 1.240 . S
C10 O2 1.252 . S
O11 In0 2.294 . S
O11 C4 1.240 . S
O12 In0 2.326 . S
O12 C4 1.252 . S
In13 O14 2.294 . S
In13 O15 2.326 . S
In13 O19 2.266 . S
In13 O20 2.326 . S
In13 O21 2.266 . S
In13 O22 2.326 1_455 S
In13 O24 2.294 . S
In13 O25 2.326 . S
O14 In13 2.294 . S
O14 C23 1.240 . S
O15 In13 2.326 . S
O15 C23 1.252 . S
C16 O19 1.252 . S
C16 O20 1.260 . S
C17 O24 1.240 . S
C17 O25 1.252 . S
C18 O21 1.252 1_655 S
C18 O22 1.260 . S
O19 In13 2.266 . S
O19 C16 1.252 . S
O20 In13 2.326 . S
O20 C16 1.260 . S
O21 In13 2.266 . S
O21 C18 1.252 1_455 S
O22 In13 2.326 1_655 S
O22 C18 1.260 . S
C23 O14 1.240 . S
C23 O15 1.252 . S
O24 In13 2.294 . S
O24 C17 1.240 . S
O25 In13 2.326 . S
O25 C17 1.252 . S
In26 O27 2.294 . S
In26 O28 2.326 . S
In26 O32 2.266 . S
In26 O33 2.326 . S
In26 O34 2.266 . S
In26 O35 2.326 . S
In26 O37 2.294 . S
In26 O38 2.326 . S
O27 In26 2.294 . S
O27 C36 1.240 . S
O28 In26 2.326 . S
O28 C36 1.252 . S
C29 O32 1.252 . S
C29 O33 1.260 . S
C30 O37 1.240 . S
C30 O38 1.252 . S
C31 O34 1.252 . S
C31 O35 1.260 . S
O32 In26 2.266 . S
O32 C29 1.252 . S
O33 In26 2.326 . S
O33 C29 1.260 . S
O34 In26 2.266 . S
O34 C31 1.252 . S
O35 In26 2.326 . S
O35 C31 1.260 . S
C36 O27 1.240 . S
C36 O28 1.252 . S
O37 In26 2.294 . S
O37 C30 1.240 . S
O38 In26 2.326 . S
O38 C30 1.252 . S
In39 O40 2.294 . S
In39 O41 2.326 . S
In39 O45 2.266 . S
In39 O46 2.326 . S
In39 O47 2.266 . S
In39 O48 2.326 . S
In39 O50 2.294 . S
In39 O51 2.326 . S
O40 In39 2.294 . S
O40 C49 1.240 . S
O41 In39 2.326 . S
O41 C49 1.252 . S
C42 O45 1.252 . S
C42 O46 1.260 . S
C43 O50 1.240 . S
C43 O51 1.252 . S
C44 O47 1.252 . S
C44 O48 1.260 . S
O45 In39 2.266 . S
O45 C42 1.252 . S
O46 In39 2.326 . S
O46 C42 1.260 . S
O47 In39 2.266 . S
O47 C44 1.252 . S
O48 In39 2.326 . S
O48 C44 1.260 . S
C49 O40 1.240 . S
C49 O41 1.252 . S
O50 In39 2.294 . S
O50 C43 1.240 . S
O51 In39 2.326 . S
O51 C43 1.252 . S
In52 O53 2.294 . S
In52 O54 2.326 . S
In52 O58 2.266 . S
In52 O59 2.326 . S
In52 O60 2.266 . S
In52 O61 2.326 . S
In52 O63 2.294 . S
In52 O64 2.326 . S
O53 In52 2.294 . S
O53 C62 1.240 . S
O54 In52 2.326 . S
O54 C62 1.252 . S
C55 O58 1.252 . S
C55 O59 1.260 . S
C56 O63 1.240 . S
C56 O64 1.252 . S
C57 O60 1.252 . S
C57 O61 1.260 . S
O58 In52 2.266 . S
O58 C55 1.252 . S
O59 In52 2.326 . S
O59 C55 1.260 . S
O60 In52 2.266 . S
O60 C57 1.252 . S
O61 In52 2.326 . S
O61 C57 1.260 . S
C62 O53 1.240 . S
C62 O54 1.252 . S
O63 In52 2.294 . S
O63 C56 1.240 . S
O64 In52 2.326 . S
O64 C56 1.252 . S
In65 O66 2.294 . S
In65 O67 2.326 . S
In65 O71 2.266 . S
In65 O72 2.326 . S
In65 O73 2.266 . S
In65 O74 2.326 . S
In65 O76 2.294 . S
In65 O77 2.326 . S
O66 In65 2.294 . S
O66 C75 1.240 . S
O67 In65 2.326 . S
O67 C75 1.252 . S
C68 O71 1.252 . S
C68 O72 1.260 . S
C69 O76 1.240 . S
C69 O77 1.252 . S
C70 O73 1.252 . S
C70 O74 1.260 . S
O71 In65 2.266 . S
O71 C68 1.252 . S
O72 In65 2.326 . S
O72 C68 1.260 . S
O73 In65 2.266 . S
O73 C70 1.252 . S
O74 In65 2.326 . S
O74 C70 1.260 . S
C75 O66 1.240 . S
C75 O67 1.252 . S
O76 In65 2.294 . S
O76 C69 1.240 . S
O77 In65 2.326 . S
O77 C69 1.252 . S
In78 O79 2.294 . S
In78 O80 2.326 . S
In78 O84 2.266 . S
In78 O85 2.326 . S
In78 O86 2.266 . S
In78 O87 2.326 . S
In78 O89 2.294 . S
In78 O90 2.326 . S
O79 In78 2.294 . S
O79 C88 1.240 . S
O80 In78 2.326 . S
O80 C88 1.252 . S
C81 O84 1.252 . S
C81 O85 1.260 . S
C82 O89 1.240 . S
C82 O90 1.252 . S
C83 O86 1.252 . S
C83 O87 1.260 . S
O84 In78 2.266 . S
O84 C81 1.252 . S
O85 In78 2.326 . S
O85 C81 1.260 . S
O86 In78 2.266 . S
O86 C83 1.252 . S
O87 In78 2.326 . S
O87 C83 1.260 . S
C88 O79 1.240 . S
C88 O80 1.252 . S
O89 In78 2.294 . S
O89 C82 1.240 . S
O90 In78 2.326 . S
O90 C82 1.252 . S
In91 O92 2.294 . S
In91 O93 2.333 1_455 S
In91 O97 2.265 . S
In91 O98 2.331 . S
In91 O99 2.264 1_455 S
In91 O100 2.323 1_455 S
In91 O102 2.296 . S
In91 O103 2.329 . S
O92 In91 2.294 . S
O92 C101 1.240 . S
O93 In91 2.333 1_655 S
O93 C101 1.251 1_655 S
C94 O97 1.252 . S
C94 O98 1.255 . S
C95 O102 1.240 . S
C95 O103 1.252 . S
C96 O99 1.252 . S
C96 O100 1.260 . S
O97 In91 2.265 . S
O97 C94 1.252 . S
O98 In91 2.331 . S
O98 C94 1.255 . S
O99 In91 2.264 1_655 S
O99 C96 1.252 . S
O100 In91 2.323 1_655 S
O100 C96 1.260 . S
C101 O92 1.240 . S
C101 O93 1.251 1_455 S
O102 In91 2.296 . S
O102 C95 1.240 . S
O103 In91 2.329 . S
O103 C95 1.252 . S
In104 O105 2.294 . S
In104 O106 2.326 . S
In104 O110 2.266 . S
In104 O111 2.326 . S
In104 O112 2.266 . S
In104 O113 2.326 . S
In104 O115 2.294 . S
In104 O116 2.326 . S
O105 In104 2.294 . S
O105 C114 1.240 . S
O106 In104 2.326 . S
O106 C114 1.252 . S
C107 O110 1.252 . S
C107 O111 1.260 . S
C108 O115 1.240 . S
C108 O116 1.252 . S
C109 O112 1.252 . S
C109 O113 1.260 . S
O110 In104 2.266 . S
O110 C107 1.252 . S
O111 In104 2.326 . S
O111 C107 1.260 . S
O112 In104 2.266 . S
O112 C109 1.252 . S
O113 In104 2.326 . S
O113 C109 1.260 . S
C114 O105 1.240 . S
C114 O106 1.252 . S
O115 In104 2.294 . S
O115 C108 1.240 . S
O116 In104 2.326 . S
O116 C108 1.252 . S
In117 O118 2.294 . S
In117 O119 2.326 . S
In117 O123 2.266 . S
In117 O124 2.326 . S
In117 O125 2.266 . S
In117 O126 2.326 . S
In117 O128 2.294 . S
In117 O129 2.326 . S
O118 In117 2.294 . S
O118 C127 1.240 . S
O119 In117 2.326 . S
O119 C127 1.252 . S
C120 O123 1.252 . S
C120 O124 1.260 . S
C121 O128 1.240 . S
C121 O129 1.252 . S
C122 O125 1.252 . S
C122 O126 1.260 . S
O123 In117 2.266 . S
O123 C120 1.252 . S
O124 In117 2.326 . S
O124 C120 1.260 . S
O125 In117 2.266 . S
O125 C122 1.252 . S
O126 In117 2.326 . S
O126 C122 1.260 . S
C127 O118 1.240 . S
C127 O119 1.252 . S
O128 In117 2.294 . S
O128 C121 1.240 . S
O129 In117 2.326 . S
O129 C121 1.252 . S
In130 O131 2.294 . S
In130 O132 2.326 . S
In130 O136 2.266 . S
In130 O137 2.326 . S
In130 O138 2.266 . S
In130 O139 2.326 . S
In130 O141 2.294 . S
In130 O142 2.326 . S
O131 In130 2.294 . S
O131 C140 1.240 . S
O132 In130 2.326 . S
O132 C140 1.252 . S
C133 O136 1.252 . S
C133 O137 1.260 . S
C134 O141 1.240 . S
C134 O142 1.252 . S
C135 O138 1.252 . S
C135 O139 1.260 . S
O136 In130 2.266 . S
O136 C133 1.252 . S
O137 In130 2.326 . S
O137 C133 1.260 . S
O138 In130 2.266 . S
O138 C135 1.252 . S
O139 In130 2.326 . S
O139 C135 1.260 . S
C140 O131 1.240 . S
C140 O132 1.252 . S
O141 In130 2.294 . S
O141 C134 1.240 . S
O142 In130 2.326 . S
O142 C134 1.252 . S
In143 O144 2.294 . S
In143 O145 2.326 . S
In143 O149 2.266 . S
In143 O150 2.326 . S
In143 O151 2.266 . S
In143 O152 2.326 . S
In143 O154 2.294 . S
In143 O155 2.326 . S
O144 In143 2.294 . S
O144 C153 1.240 . S
O145 In143 2.326 . S
O145 C153 1.252 . S
C146 O149 1.252 . S
C146 O150 1.260 . S
C147 O154 1.240 . S
C147 O155 1.252 . S
C148 O151 1.252 . S
C148 O152 1.260 . S
O149 In143 2.266 . S
O149 C146 1.252 . S
O150 In143 2.326 . S
O150 C146 1.260 . S
O151 In143 2.266 . S
O151 C148 1.252 . S
O152 In143 2.326 . S
O152 C148 1.260 . S
C153 O144 1.240 . S
C153 O145 1.252 . S
O154 In143 2.294 . S
O154 C147 1.240 . S
O155 In143 2.326 . S
O155 C147 1.252 . S
In156 O157 2.294 . S
In156 O158 2.326 . S
In156 O162 2.266 1_554 S
In156 O163 2.326 1_554 S
In156 O164 2.266 . S
In156 O165 2.326 . S
In156 O167 2.294 . S
In156 O168 2.326 . S
O157 In156 2.294 . S
O157 C166 1.240 . S
O158 In156 2.326 . S
O158 C166 1.252 . S
C159 O162 1.252 . S
C159 O163 1.260 . S
C160 O167 1.240 . S
C160 O168 1.252 . S
C161 O164 1.252 . S
C161 O165 1.260 . S
O162 In156 2.266 1_556 S
O162 C159 1.252 . S
O163 In156 2.326 1_556 S
O163 C159 1.260 . S
O164 In156 2.266 . S
O164 C161 1.252 . S
O165 In156 2.326 . S
O165 C161 1.260 . S
C166 O157 1.240 . S
C166 O158 1.252 . S
O167 In156 2.294 . S
O167 C160 1.240 . S
O168 In156 2.326 . S
O168 C160 1.252 . S
In169 O170 2.297 . S
In169 O171 2.327 . S
In169 O175 2.264 1_554 S
In169 O176 2.325 1_554 S
In169 O177 2.247 1_554 S
In169 O178 2.297 1_554 S
In169 O180 2.312 . S
In169 O181 2.355 . S
O170 In169 2.297 . S
O170 C179 1.240 . S
O171 In169 2.327 . S
O171 C179 1.252 . S
C172 O175 1.252 . S
C172 O176 1.260 . S
C173 O180 1.240 . S
C173 O181 1.252 . S
C174 O177 1.252 . S
C174 O178 1.260 . S
O175 In169 2.264 1_556 S
O175 C172 1.252 . S
O176 In169 2.325 1_556 S
O176 C172 1.260 . S
O177 In169 2.247 1_556 S
O177 C174 1.252 . S
O178 In169 2.297 1_556 S
O178 C174 1.260 . S
C179 O170 1.240 . S
C179 O171 1.252 . S
O180 In169 2.312 . S
O180 C173 1.240 . S
O181 In169 2.355 . S
O181 C173 1.252 . S
In182 O183 2.294 . S
In182 O184 2.326 . S
In182 O188 2.266 . S
In182 O189 2.326 . S
In182 O190 2.266 . S
In182 O191 2.326 . S
In182 O193 2.294 . S
In182 O194 2.326 . S
O183 In182 2.294 . S
O183 C192 1.240 . S
O184 In182 2.326 . S
O184 C192 1.252 . S
C185 O188 1.252 . S
C185 O189 1.260 . S
C186 O193 1.240 . S
C186 O194 1.252 . S
C187 O190 1.252 . S
C187 O191 1.260 . S
O188 In182 2.266 . S
O188 C185 1.252 . S
O189 In182 2.326 . S
O189 C185 1.260 . S
O190 In182 2.266 . S
O190 C187 1.252 . S
O191 In182 2.326 . S
O191 C187 1.260 . S
C192 O183 1.240 . S
C192 O184 1.252 . S
O193 In182 2.294 . S
O193 C186 1.240 . S
O194 In182 2.326 . S
O194 C186 1.252 . S
In195 O196 2.294 . S
In195 O197 2.326 . S
In195 O201 2.266 . S
In195 O202 2.326 . S
In195 O203 2.266 . S
In195 O204 2.326 . S
In195 O206 2.294 . S
In195 O207 2.326 . S
O196 In195 2.294 . S
O196 C205 1.240 . S
O197 In195 2.326 . S
O197 C205 1.252 . S
C198 O201 1.252 . S
C198 O202 1.260 . S
C199 O206 1.240 . S
C199 O207 1.252 . S
C200 O203 1.252 . S
C200 O204 1.260 . S
O201 In195 2.266 . S
O201 C198 1.252 . S
O202 In195 2.326 . S
O202 C198 1.260 . S
O203 In195 2.266 . S
O203 C200 1.252 . S
O204 In195 2.326 . S
O204 C200 1.260 . S
C205 O196 1.240 . S
C205 O197 1.252 . S
O206 In195 2.294 . S
O206 C199 1.240 . S
O207 In195 2.326 . S
O207 C199 1.252 . S
In208 O209 2.294 . S
In208 O210 2.327 . S
In208 O214 2.267 . S
In208 O215 2.325 1_545 S
In208 O216 2.264 1_545 S
In208 O217 2.322 1_545 S
In208 O219 2.296 . S
In208 O220 2.330 . S
O209 In208 2.294 . S
O209 C218 1.240 . S
O210 In208 2.327 . S
O210 C218 1.252 . S
C211 O214 1.252 1_565 S
C211 O215 1.260 . S
C212 O219 1.240 . S
C212 O220 1.252 . S
C213 O216 1.252 . S
C213 O217 1.260 . S
O214 In208 2.267 . S
O214 C211 1.252 1_545 S
O215 In208 2.325 1_565 S
O215 C211 1.260 . S
O216 In208 2.264 1_565 S
O216 C213 1.252 . S
O217 In208 2.322 1_565 S
O217 C213 1.260 . S
C218 O209 1.240 . S
C218 O210 1.252 . S
O219 In208 2.296 . S
O219 C212 1.240 . S
O220 In208 2.330 . S
O220 C212 1.252 . S
In221 O222 2.294 . S
In221 O223 2.326 . S
In221 O227 2.266 . S
In221 O228 2.326 . S
In221 O229 2.266 . S
In221 O230 2.326 . S
In221 O232 2.294 . S
In221 O233 2.326 . S
O222 In221 2.294 . S
O222 C231 1.240 . S
O223 In221 2.326 . S
O223 C231 1.252 . S
C224 O227 1.252 . S
C224 O228 1.260 . S
C225 O232 1.240 . S
C225 O233 1.252 . S
C226 O229 1.252 . S
C226 O230 1.260 . S
O227 In221 2.266 . S
O227 C224 1.252 . S
O228 In221 2.326 . S
O228 C224 1.260 . S
O229 In221 2.266 . S
O229 C226 1.252 . S
O230 In221 2.326 . S
O230 C226 1.260 . S
C231 O222 1.240 . S
C231 O223 1.252 . S
O232 In221 2.294 . S
O232 C225 1.240 . S
O233 In221 2.326 . S
O233 C225 1.252 . S
In234 O235 2.294 . S
In234 O236 2.326 . S
In234 O240 2.266 . S
In234 O241 2.326 . S
In234 O242 2.266 . S
In234 O243 2.326 . S
In234 O245 2.294 . S
In234 O246 2.326 . S
O235 In234 2.294 . S
O235 C244 1.240 . S
O236 In234 2.326 . S
O236 C244 1.252 . S
C237 O240 1.252 . S
C237 O241 1.260 . S
C238 O245 1.240 . S
C238 O246 1.252 . S
C239 O242 1.252 . S
C239 O243 1.260 . S
O240 In234 2.266 . S
O240 C237 1.252 . S
O241 In234 2.326 . S
O241 C237 1.260 . S
O242 In234 2.266 . S
O242 C239 1.252 . S
O243 In234 2.326 . S
O243 C239 1.260 . S
C244 O235 1.240 . S
C244 O236 1.252 . S
O245 In234 2.294 . S
O245 C238 1.240 . S
O246 In234 2.326 . S
O246 C238 1.252 . S
In247 O248 2.294 1_545 S
In247 O249 2.326 1_545 S
In247 O253 2.266 . S
In247 O254 2.326 . S
In247 O255 2.266 . S
In247 O256 2.326 . S
In247 O258 2.294 . S
In247 O259 2.326 . S
O248 In247 2.294 1_565 S
O248 C257 1.240 . S
O249 In247 2.326 1_565 S
O249 C257 1.252 . S
C250 O253 1.252 . S
C250 O254 1.260 . S
C251 O258 1.240 . S
C251 O259 1.252 . S
C252 O255 1.252 . S
C252 O256 1.260 . S
O253 In247 2.266 . S
O253 C250 1.252 . S
O254 In247 2.326 . S
O254 C250 1.260 . S
O255 In247 2.266 . S
O255 C252 1.252 . S
O256 In247 2.326 . S
O256 C252 1.260 . S
C257 O248 1.240 . S
C257 O249 1.252 . S
O258 In247 2.294 . S
O258 C251 1.240 . S
O259 In247 2.326 . S
O259 C251 1.252 . S
In260 O261 2.294 . S
In260 O262 2.326 . S
In260 O266 2.266 . S
In260 O267 2.326 . S
In260 O268 2.266 1_554 S
In260 O269 2.326 1_554 S
In260 O271 2.294 . S
In260 O272 2.326 . S
O261 In260 2.294 . S
O261 C270 1.240 . S
O262 In260 2.326 . S
O262 C270 1.252 . S
C263 O266 1.252 . S
C263 O267 1.260 . S
C264 O271 1.240 . S
C264 O272 1.252 . S
C265 O268 1.252 . S
C265 O269 1.260 . S
O266 In260 2.266 . S
O266 C263 1.252 . S
O267 In260 2.326 . S
O267 C263 1.260 . S
O268 In260 2.266 1_556 S
O268 C265 1.252 . S
O269 In260 2.326 1_556 S
O269 C265 1.260 . S
C270 O261 1.240 . S
C270 O262 1.252 . S
O271 In260 2.294 . S
O271 C264 1.240 . S
O272 In260 2.326 . S
O272 C264 1.252 . S
In273 O274 2.294 . S
In273 O275 2.326 1_655 S
In273 O279 2.266 . S
In273 O280 2.326 1_655 S
In273 O281 2.266 1_655 S
In273 O282 2.326 . S
In273 O284 2.294 1_655 S
In273 O285 2.326 . S
O274 In273 2.294 . S
O274 C283 1.240 . S
O275 In273 2.326 1_455 S
O275 C283 1.252 1_455 S
C276 O279 1.252 . S
C276 O280 1.260 1_655 S
C277 O284 1.240 . S
C277 O285 1.252 1_455 S
C278 O281 1.252 . S
C278 O282 1.260 1_455 S
O279 In273 2.266 . S
O279 C276 1.252 . S
O280 In273 2.326 1_455 S
O280 C276 1.260 1_455 S
O281 In273 2.266 1_455 S
O281 C278 1.252 . S
O282 In273 2.326 . S
O282 C278 1.260 1_655 S
C283 O274 1.240 . S
C283 O275 1.252 1_655 S
O284 In273 2.294 1_455 S
O284 C277 1.240 . S
O285 In273 2.326 . S
O285 C277 1.252 1_655 S
In286 O287 2.294 . S
In286 O288 2.326 . S
In286 O292 2.266 . S
In286 O293 2.326 . S
In286 O294 2.266 . S
In286 O295 2.326 . S
In286 O297 2.294 . S
In286 O298 2.326 . S
O287 In286 2.294 . S
O287 C296 1.240 . S
O288 In286 2.326 . S
O288 C296 1.252 . S
C289 O292 1.252 . S
C289 O293 1.260 . S
C290 O297 1.240 . S
C290 O298 1.252 . S
C291 O294 1.252 . S
C291 O295 1.260 . S
O292 In286 2.266 . S
O292 C289 1.252 . S
O293 In286 2.326 . S
O293 C289 1.260 . S
O294 In286 2.266 . S
O294 C291 1.252 . S
O295 In286 2.326 . S
O295 C291 1.260 . S
C296 O287 1.240 . S
C296 O288 1.252 . S
O297 In286 2.294 . S
O297 C290 1.240 . S
O298 In286 2.326 . S
O298 C290 1.252 . S
In299 O300 2.294 . S
In299 O301 2.326 . S
In299 O305 2.266 . S
In299 O306 2.326 . S
In299 O307 2.266 . S
In299 O308 2.326 . S
In299 O310 2.294 . S
In299 O311 2.326 . S
O300 In299 2.294 . S
O300 C309 1.240 . S
O301 In299 2.326 . S
O301 C309 1.252 . S
C302 O305 1.252 . S
C302 O306 1.260 . S
C303 O310 1.240 . S
C303 O311 1.252 . S
C304 O307 1.252 . S
C304 O308 1.260 . S
O305 In299 2.266 . S
O305 C302 1.252 . S
O306 In299 2.326 . S
O306 C302 1.260 . S
O307 In299 2.266 . S
O307 C304 1.252 . S
O308 In299 2.326 . S
O308 C304 1.260 . S
C309 O300 1.240 . S
C309 O301 1.252 . S
O310 In299 2.294 . S
O310 C303 1.240 . S
O311 In299 2.326 . S
O311 C303 1.252 . S
Tb312 C322 2.825 1_455 S
Tb312 O323 2.347 . S
Tb312 O326 2.366 . S
Tb312 O331 2.418 1_554 S
Tb312 O332 2.384 . S
Tb312 O335 2.479 1_454 S
Tb312 O336 2.471 1_455 S
Eu313 O324 2.418 . S
Eu313 O325 2.384 . S
Eu313 O328 2.479 . S
Eu313 O329 2.471 . S
Eu313 O330 2.347 . S
Eu313 O333 2.366 . S
Eu313 C343 2.825 . S
C314 O330 1.259 . S
C314 O331 1.265 1_554 S
C315 O332 1.255 . S
C315 O333 1.265 . S
C316 C318 1.380 . S
C316 C319 1.374 1_556 S
C316 C322 1.507 1_556 S
C317 C318 1.384 . S
C317 C321 1.387 . S
C317 H344 0.930 . S
C318 C316 1.380 . S
C318 C317 1.384 . S
C318 H345 0.931 . S
C319 C316 1.374 1_554 S
C319 C320 1.390 . S
C319 H346 0.930 . S
C320 C319 1.390 . S
C320 C321 1.391 1_554 S
C320 H347 0.930 . S
C321 C317 1.387 . S
C321 C320 1.391 1_556 S
C322 Tb312 2.825 1_655 S
C322 C316 1.507 1_554 S
C322 O335 1.238 1_554 S
C322 O336 1.247 . S
O323 Tb312 2.347 . S
O323 C327 1.259 . S
O324 Eu313 2.418 . S
O324 C327 1.265 . S
O325 Eu313 2.384 . S
O325 C334 1.255 . S
O326 Tb312 2.366 . S
O326 C334 1.265 . S
C327 O323 1.259 . S
C327 O324 1.265 . S
O328 Eu313 2.479 . S
O328 C343 1.238 . S
O329 Eu313 2.471 . S
O329 C343 1.247 . S
O330 Eu313 2.347 . S
O330 C314 1.259 . S
O331 Tb312 2.418 1_556 S
O331 C314 1.265 1_556 S
O332 Tb312 2.384 . S
O332 C315 1.255 . S
O333 Eu313 2.366 . S
O333 C315 1.265 . S
C334 O325 1.255 . S
C334 O326 1.265 . S
O335 Tb312 2.479 1_656 S
O335 C322 1.238 1_556 S
O336 Tb312 2.471 1_655 S
O336 C322 1.247 . S
C337 C340 1.380 . S
C337 C341 1.374 . S
C337 C343 1.507 . S
C338 C339 1.387 . S
C338 C342 1.391 . S
C339 C338 1.387 . S
C339 C340 1.384 . S
C339 H348 0.930 . S
C340 C337 1.380 . S
C340 C339 1.384 . S
C340 H349 0.931 . S
C341 C337 1.374 . S
C341 C342 1.390 . S
C341 H350 0.930 . S
C342 C338 1.391 . S
C342 C341 1.390 . S
C342 H351 0.930 . S
C343 Eu313 2.825 . S
C343 O328 1.238 . S
C343 O329 1.247 . S
C343 C337 1.507 . S
H344 C317 0.930 . S
H345 C318 0.931 . S
H346 C319 0.930 . S
H347 C320 0.930 . S
H348 C339 0.930 . S
H349 C340 0.931 . S
H350 C341 0.930 . S
H351 C342 0.930 . S
Tb352 C362 2.825 . S
Tb352 O363 2.347 . S
Tb352 O366 2.366 . S
Tb352 O371 2.418 . S
Tb352 O372 2.384 . S
Tb352 O375 2.479 . S
Tb352 O376 2.471 . S
Eu353 O364 2.418 . S
Eu353 O365 2.384 . S
Eu353 O368 2.479 . S
Eu353 O369 2.471 . S
Eu353 O370 2.347 . S
Eu353 O373 2.366 . S
Eu353 C383 2.825 . S
C354 O370 1.259 . S
C354 O371 1.265 . S
C355 O372 1.255 . S
C355 O373 1.265 . S
C356 C358 1.380 . S
C356 C359 1.374 . S
C356 C362 1.507 . S
C357 C358 1.384 . S
C357 C361 1.387 . S
C357 H384 0.930 . S
C358 C356 1.380 . S
C358 C357 1.384 . S
C358 H385 0.931 . S
C359 C356 1.374 . S
C359 C360 1.390 . S
C359 H386 0.930 . S
C360 C359 1.390 . S
C360 C361 1.391 . S
C360 H387 0.930 . S
C361 C357 1.387 . S
C361 C360 1.391 . S
C362 Tb352 2.825 . S
C362 C356 1.507 . S
C362 O375 1.238 . S
C362 O376 1.247 . S
O363 Tb352 2.347 . S
O363 C367 1.259 . S
O364 Eu353 2.418 . S
O364 C367 1.265 . S
O365 Eu353 2.384 . S
O365 C374 1.255 . S
O366 Tb352 2.366 . S
O366 C374 1.265 . S
C367 O363 1.259 . S
C367 O364 1.265 . S
O368 Eu353 2.479 . S
O368 C383 1.238 . S
O369 Eu353 2.471 . S
O369 C383 1.247 . S
O370 Eu353 2.347 . S
O370 C354 1.259 . S
O371 Tb352 2.418 . S
O371 C354 1.265 . S
O372 Tb352 2.384 . S
O372 C355 1.255 . S
O373 Eu353 2.366 . S
O373 C355 1.265 . S
C374 O365 1.255 . S
C374 O366 1.265 . S
O375 Tb352 2.479 . S
O375 C362 1.238 . S
O376 Tb352 2.471 . S
O376 C362 1.247 . S
C377 C380 1.380 . S
C377 C381 1.374 . S
C377 C383 1.507 . S
C378 C379 1.387 . S
C378 C382 1.391 . S
C379 C378 1.387 . S
C379 C380 1.384 . S
C379 H388 0.930 . S
C380 C377 1.380 . S
C380 C379 1.384 . S
C380 H389 0.931 . S
C381 C377 1.374 . S
C381 C382 1.390 . S
C381 H390 0.930 . S
C382 C378 1.391 . S
C382 C381 1.390 . S
C382 H391 0.930 . S
C383 Eu353 2.825 . S
C383 O368 1.238 . S
C383 O369 1.247 . S
C383 C377 1.507 . S
H384 C357 0.930 . S
H385 C358 0.931 . S
H386 C359 0.930 . S
H387 C360 0.930 . S
H388 C379 0.930 . S
H389 C380 0.931 . S
H390 C381 0.930 . S
H391 C382 0.930 . S
Tb392 C402 2.825 1_545 S
Tb392 O403 2.347 . S
Tb392 O406 2.366 1_545 S
Tb392 O411 2.421 . S
Tb392 O412 2.384 . S
Tb392 O415 2.479 1_545 S
Tb392 O416 2.471 1_545 S
Eu393 O404 2.418 . S
Eu393 O405 2.384 . S
Eu393 O408 2.479 . S
Eu393 O409 2.471 . S
Eu393 O410 2.347 . S
Eu393 O413 2.366 . S
Eu393 C423 2.825 . S
C394 O410 1.259 . S
C394 O411 1.279 . S
C395 O412 1.255 . S
C395 O413 1.265 . S
C396 C398 1.380 . S
C396 C399 1.374 . S
C396 C402 1.507 . S
C397 C398 1.384 . S
C397 C401 1.387 . S
C397 H424 0.930 . S
C398 C396 1.380 . S
C398 C397 1.384 . S
C398 H425 0.931 . S
C399 C396 1.374 . S
C399 C400 1.390 . S
C399 H426 0.930 . S
C400 C399 1.390 . S
C400 C401 1.391 . S
C400 H427 0.930 . S
C401 C397 1.387 . S
C401 C400 1.391 . S
C402 Tb392 2.825 1_565 S
C402 C396 1.507 . S
C402 O415 1.238 . S
C402 O416 1.247 . S
O403 Tb392 2.347 . S
O403 C407 1.259 . S
O404 Eu393 2.418 . S
O404 C407 1.265 . S
O405 Eu393 2.384 . S
O405 C414 1.255 . S
O406 Tb392 2.366 1_565 S
O406 C414 1.265 1_565 S
C407 O403 1.259 . S
C407 O404 1.265 . S
O408 Eu393 2.479 . S
O408 C423 1.238 . S
O409 Eu393 2.471 . S
O409 C423 1.247 . S
O410 Eu393 2.347 . S
O410 C394 1.259 . S
O411 Tb392 2.421 . S
O411 C394 1.279 . S
O412 Tb392 2.384 . S
O412 C395 1.255 . S
O413 Eu393 2.366 . S
O413 C395 1.265 . S
C414 O405 1.255 . S
C414 O406 1.265 1_545 S
O415 Tb392 2.479 1_565 S
O415 C402 1.238 . S
O416 Tb392 2.471 1_565 S
O416 C402 1.247 . S
C417 C420 1.380 . S
C417 C421 1.374 . S
C417 C423 1.507 . S
C418 C419 1.387 . S
C418 C422 1.391 . S
C419 C418 1.387 . S
C419 C420 1.384 . S
C419 H428 0.930 . S
C420 C417 1.380 . S
C420 C419 1.384 . S
C420 H429 0.931 . S
C421 C417 1.374 . S
C421 C422 1.390 . S
C421 H430 0.930 . S
C422 C418 1.391 . S
C422 C421 1.390 . S
C422 H431 0.930 . S
C423 Eu393 2.825 . S
C423 O408 1.238 . S
C423 O409 1.247 . S
C423 C417 1.507 . S
H424 C397 0.930 . S
H425 C398 0.931 . S
H426 C399 0.930 . S
H427 C400 0.930 . S
H428 C419 0.930 . S
H429 C420 0.931 . S
H430 C421 0.930 . S
H431 C422 0.930 . S
Tb432 C442 2.825 . S
Tb432 O443 2.347 . S
Tb432 O446 2.366 . S
Tb432 O451 2.418 . S
Tb432 O452 2.384 . S
Tb432 O455 2.479 . S
Tb432 O456 2.471 . S
Eu433 O444 2.418 . S
Eu433 O445 2.384 . S
Eu433 O448 2.479 . S
Eu433 O449 2.471 . S
Eu433 O450 2.347 . S
Eu433 O453 2.366 . S
Eu433 C463 2.825 . S
C434 O450 1.259 . S
C434 O451 1.265 . S
C435 O452 1.255 . S
C435 O453 1.265 . S
C436 C438 1.380 . S
C436 C439 1.374 . S
C436 C442 1.507 . S
C437 C438 1.384 . S
C437 C441 1.387 . S
C437 H464 0.930 . S
C438 C436 1.380 . S
C438 C437 1.384 . S
C438 H465 0.931 . S
C439 C436 1.374 . S
C439 C440 1.390 . S
C439 H466 0.930 . S
C440 C439 1.390 . S
C440 C441 1.391 . S
C440 H467 0.930 . S
C441 C437 1.387 . S
C441 C440 1.391 . S
C442 Tb432 2.825 . S
C442 C436 1.507 . S
C442 O455 1.238 . S
C442 O456 1.247 . S
O443 Tb432 2.347 . S
O443 C447 1.259 . S
O444 Eu433 2.418 . S
O444 C447 1.265 . S
O445 Eu433 2.384 . S
O445 C454 1.255 . S
O446 Tb432 2.366 . S
O446 C454 1.265 . S
C447 O443 1.259 . S
C447 O444 1.265 . S
O448 Eu433 2.479 . S
O448 C463 1.238 . S
O449 Eu433 2.471 . S
O449 C463 1.247 . S
O450 Eu433 2.347 . S
O450 C434 1.259 . S
O451 Tb432 2.418 . S
O451 C434 1.265 . S
O452 Tb432 2.384 . S
O452 C435 1.255 . S
O453 Eu433 2.366 . S
O453 C435 1.265 . S
C454 O445 1.255 . S
C454 O446 1.265 . S
O455 Tb432 2.479 . S
O455 C442 1.238 . S
O456 Tb432 2.471 . S
O456 C442 1.247 . S
C457 C460 1.380 . S
C457 C461 1.374 . S
C457 C463 1.507 . S
C458 C459 1.387 . S
C458 C462 1.391 . S
C459 C458 1.387 . S
C459 C460 1.384 . S
C459 H468 0.930 . S
C460 C457 1.380 . S
C460 C459 1.384 . S
C460 H469 0.931 . S
C461 C457 1.374 . S
C461 C462 1.390 . S
C461 H470 0.930 . S
C462 C458 1.391 . S
C462 C461 1.390 . S
C462 H471 0.930 . S
C463 Eu433 2.825 . S
C463 O448 1.238 . S
C463 O449 1.247 . S
C463 C457 1.507 . S
H464 C437 0.930 . S
H465 C438 0.931 . S
H466 C439 0.930 . S
H467 C440 0.930 . S
H468 C459 0.930 . S
H469 C460 0.931 . S
H470 C461 0.930 . S
H471 C462 0.930 . S
Tb472 C482 2.825 . S
Tb472 O483 2.347 . S
Tb472 O486 2.366 . S
Tb472 O491 2.418 . S
Tb472 O492 2.384 1_545 S
Tb472 O495 2.479 . S
Tb472 O496 2.471 . S
Eu473 O484 2.418 . S
Eu473 O485 2.384 . S
Eu473 O488 2.479 . S
Eu473 O489 2.471 . S
Eu473 O490 2.347 . S
Eu473 O493 2.366 . S
Eu473 C503 2.825 . S
C474 O490 1.259 . S
C474 O491 1.265 . S
C475 O492 1.255 . S
C475 O493 1.265 1_565 S
C476 C478 1.380 . S
C476 C479 1.374 1_455 S
C476 C482 1.507 . S
C477 C478 1.384 . S
C477 C481 1.387 1_455 S
C477 H504 0.930 . S
C478 C476 1.380 . S
C478 C477 1.384 . S
C478 H505 0.931 . S
C479 C476 1.374 1_655 S
C479 C480 1.390 . S
C479 H506 0.930 . S
C480 C479 1.390 . S
C480 C481 1.391 . S
C480 H507 0.930 . S
C481 C477 1.387 1_655 S
C481 C480 1.391 . S
C482 Tb472 2.825 . S
C482 C476 1.507 . S
C482 O495 1.238 . S
C482 O496 1.247 . S
O483 Tb472 2.347 . S
O483 C487 1.226 1_455 S
O484 Eu473 2.418 . S
O484 C487 1.266 1_455 S
O485 Eu473 2.384 . S
O485 C494 1.255 . S
O486 Tb472 2.366 . S
O486 C494 1.265 . S
C487 O483 1.226 1_655 S
C487 O484 1.266 1_655 S
O488 Eu473 2.479 . S
O488 C503 1.238 . S
O489 Eu473 2.471 . S
O489 C503 1.247 . S
O490 Eu473 2.347 . S
O490 C474 1.259 . S
O491 Tb472 2.418 . S
O491 C474 1.265 . S
O492 Tb472 2.384 1_565 S
O492 C475 1.255 . S
O493 Eu473 2.366 . S
O493 C475 1.265 1_545 S
C494 O485 1.255 . S
C494 O486 1.265 . S
O495 Tb472 2.479 . S
O495 C482 1.238 . S
O496 Tb472 2.471 . S
O496 C482 1.247 . S
C497 C500 1.380 . S
C497 C501 1.374 . S
C497 C503 1.507 . S
C498 C499 1.387 . S
C498 C502 1.391 . S
C499 C498 1.387 . S
C499 C500 1.384 . S
C499 H508 0.930 . S
C500 C497 1.380 . S
C500 C499 1.384 . S
C500 H509 0.931 . S
C501 C497 1.374 . S
C501 C502 1.390 . S
C501 H510 0.930 . S
C502 C498 1.391 . S
C502 C501 1.390 . S
C502 H511 0.930 . S
C503 Eu473 2.825 . S
C503 O488 1.238 . S
C503 O489 1.247 . S
C503 C497 1.507 . S
H504 C477 0.930 . S
H505 C478 0.931 . S
H506 C479 0.930 . S
H507 C480 0.930 . S
H508 C499 0.930 . S
H509 C500 0.931 . S
H510 C501 0.930 . S
H511 C502 0.930 . S
Tb512 C522 2.825 . S
Tb512 O523 2.347 . S
Tb512 O526 2.366 . S
Tb512 O531 2.418 . S
Tb512 O532 2.384 . S
Tb512 O535 2.479 . S
Tb512 O536 2.471 . S
Eu513 O524 2.418 . S
Eu513 O525 2.384 . S
Eu513 O528 2.479 . S
Eu513 O529 2.471 . S
Eu513 O530 2.347 . S
Eu513 O533 2.366 . S
Eu513 C543 2.825 . S
C514 O530 1.259 . S
C514 O531 1.265 . S
C515 O532 1.255 . S
C515 O533 1.265 . S
C516 C518 1.380 . S
C516 C519 1.374 . S
C516 C522 1.507 . S
C517 C518 1.384 . S
C517 C521 1.387 . S
C517 H544 0.930 . S
C518 C516 1.380 . S
C518 C517 1.384 . S
C518 H545 0.931 . S
C519 C516 1.374 . S
C519 C520 1.390 . S
C519 H546 0.930 . S
C520 C519 1.390 . S
C520 C521 1.391 . S
C520 H547 0.930 . S
C521 C517 1.387 . S
C521 C520 1.391 . S
C522 Tb512 2.825 . S
C522 C516 1.507 . S
C522 O535 1.238 . S
C522 O536 1.247 . S
O523 Tb512 2.347 . S
O523 C527 1.259 . S
O524 Eu513 2.418 . S
O524 C527 1.265 . S
O525 Eu513 2.384 . S
O525 C534 1.255 . S
O526 Tb512 2.366 . S
O526 C534 1.265 . S
C527 O523 1.259 . S
C527 O524 1.265 . S
O528 Eu513 2.479 . S
O528 C543 1.238 . S
O529 Eu513 2.471 . S
O529 C543 1.247 . S
O530 Eu513 2.347 . S
O530 C514 1.259 . S
O531 Tb512 2.418 . S
O531 C514 1.265 . S
O532 Tb512 2.384 . S
O532 C515 1.255 . S
O533 Eu513 2.366 . S
O533 C515 1.265 . S
C534 O525 1.255 . S
C534 O526 1.265 . S
O535 Tb512 2.479 . S
O535 C522 1.238 . S
O536 Tb512 2.471 . S
O536 C522 1.247 . S
C537 C540 1.380 . S
C537 C541 1.374 . S
C537 C543 1.507 . S
C538 C539 1.387 . S
C538 C542 1.391 . S
C539 C538 1.387 . S
C539 C540 1.384 . S
C539 H548 0.930 . S
C540 C537 1.380 . S
C540 C539 1.384 . S
C540 H549 0.931 . S
C541 C537 1.374 . S
C541 C542 1.390 . S
C541 H550 0.930 . S
C542 C538 1.391 . S
C542 C541 1.390 . S
C542 H551 0.930 . S
C543 Eu513 2.825 . S
C543 O528 1.238 . S
C543 O529 1.247 . S
C543 C537 1.507 . S
H544 C517 0.930 . S
H545 C518 0.931 . S
H546 C519 0.930 . S
H547 C520 0.930 . S
H548 C539 0.930 . S
H549 C540 0.931 . S
H550 C541 0.930 . S
H551 C542 0.930 . S
Tb552 C562 2.825 . S
Tb552 O563 2.347 . S
Tb552 O566 2.366 . S
Tb552 O571 2.418 . S
Tb552 O572 2.384 . S
Tb552 O575 2.479 . S
Tb552 O576 2.471 . S
Eu553 O564 2.418 . S
Eu553 O565 2.384 1_556 S
Eu553 O568 2.479 . S
Eu553 O569 2.471 . S
Eu553 O570 2.347 . S
Eu553 O573 2.366 . S
Eu553 C583 2.825 . S
C554 O570 1.259 1_554 S
C554 O571 1.265 . S
C555 O572 1.255 . S
C555 O573 1.265 1_554 S
C556 C558 1.380 . S
C556 C559 1.374 . S
C556 C562 1.507 . S
C557 C558 1.384 . S
C557 C561 1.387 . S
C557 H584 0.930 1_545 S
C558 C556 1.380 . S
C558 C557 1.384 . S
C558 H585 0.931 . S
C559 C556 1.374 . S
C559 C560 1.390 . S
C559 H586 0.930 . S
C560 C559 1.390 . S
C560 C561 1.391 . S
C560 H587 0.930 . S
C561 C557 1.387 . S
C561 C560 1.391 . S
C562 Tb552 2.825 . S
C562 C556 1.507 . S
C562 O575 1.238 . S
C562 O576 1.247 . S
O563 Tb552 2.347 . S
O563 C567 1.259 . S
O564 Eu553 2.418 . S
O564 C567 1.265 1_556 S
O565 Eu553 2.384 1_554 S
O565 C574 1.255 . S
O566 Tb552 2.366 . S
O566 C574 1.265 . S
C567 O563 1.259 . S
C567 O564 1.265 1_554 S
O568 Eu553 2.479 . S
O568 C583 1.238 . S
O569 Eu553 2.471 . S
O569 C583 1.247 . S
O570 Eu553 2.347 . S
O570 C554 1.259 1_556 S
O571 Tb552 2.418 . S
O571 C554 1.265 . S
O572 Tb552 2.384 . S
O572 C555 1.255 . S
O573 Eu553 2.366 . S
O573 C555 1.265 1_556 S
C574 O565 1.255 . S
C574 O566 1.265 . S
O575 Tb552 2.479 . S
O575 C562 1.238 . S
O576 Tb552 2.471 . S
O576 C562 1.247 . S
C577 C580 1.380 . S
C577 C581 1.374 . S
C577 C583 1.507 . S
C578 C579 1.387 . S
C578 C582 1.391 . S
C579 C578 1.387 . S
C579 C580 1.384 . S
C579 H588 0.930 . S
C580 C577 1.380 . S
C580 C579 1.384 . S
C580 H589 0.931 . S
C581 C577 1.374 . S
C581 C582 1.390 . S
C581 H590 0.930 . S
C582 C578 1.391 . S
C582 C581 1.390 . S
C582 H591 0.930 . S
C583 Eu553 2.825 . S
C583 O568 1.238 . S
C583 O569 1.247 . S
C583 C577 1.507 . S
H584 C557 0.930 1_565 S
H585 C558 0.931 . S
H586 C559 0.930 . S
H587 C560 0.930 . S
H588 C579 0.930 . S
H589 C580 0.931 . S
H590 C581 0.930 . S
H591 C582 0.930 . S
Tb592 C602 2.825 . S
Tb592 O603 2.347 . S
Tb592 O606 2.366 . S
Tb592 O611 2.418 . S
Tb592 O612 2.384 . S
Tb592 O615 2.479 . S
Tb592 O616 2.471 . S
Eu593 O604 2.418 . S
Eu593 O605 2.384 . S
Eu593 O608 2.479 . S
Eu593 O609 2.471 . S
Eu593 O610 2.347 . S
Eu593 O613 2.366 . S
Eu593 C623 2.825 . S
C594 O610 1.259 . S
C594 O611 1.265 . S
C595 O612 1.255 . S
C595 O613 1.265 . S
C596 C598 1.380 . S
C596 C599 1.374 . S
C596 C602 1.507 . S
C597 C598 1.384 . S
C597 C601 1.387 . S
C597 H624 0.930 . S
C598 C596 1.380 . S
C598 C597 1.384 . S
C598 H625 0.931 . S
C599 C596 1.374 . S
C599 C600 1.390 . S
C599 H626 0.930 . S
C600 C599 1.390 . S
C600 C601 1.391 . S
C600 H627 0.930 . S
C601 C597 1.387 . S
C601 C600 1.391 . S
C602 Tb592 2.825 . S
C602 C596 1.507 . S
C602 O615 1.238 . S
C602 O616 1.247 . S
O603 Tb592 2.347 . S
O603 C607 1.259 . S
O604 Eu593 2.418 . S
O604 C607 1.265 . S
O605 Eu593 2.384 . S
O605 C614 1.255 . S
O606 Tb592 2.366 . S
O606 C614 1.265 . S
C607 O603 1.259 . S
C607 O604 1.265 . S
O608 Eu593 2.479 . S
O608 C623 1.238 . S
O609 Eu593 2.471 . S
O609 C623 1.247 . S
O610 Eu593 2.347 . S
O610 C594 1.259 . S
O611 Tb592 2.418 . S
O611 C594 1.265 . S
O612 Tb592 2.384 . S
O612 C595 1.255 . S
O613 Eu593 2.366 . S
O613 C595 1.265 . S
C614 O605 1.255 . S
C614 O606 1.265 . S
O615 Tb592 2.479 . S
O615 C602 1.238 . S
O616 Tb592 2.471 . S
O616 C602 1.247 . S
C617 C620 1.380 . S
C617 C621 1.374 . S
C617 C623 1.507 . S
C618 C619 1.387 . S
C618 C622 1.391 . S
C619 C618 1.387 . S
C619 C620 1.384 . S
C619 H628 0.930 . S
C620 C617 1.380 . S
C620 C619 1.384 . S
C620 H629 0.931 . S
C621 C617 1.374 . S
C621 C622 1.390 . S
C621 H630 0.930 . S
C622 C618 1.391 . S
C622 C621 1.390 . S
C622 H631 0.930 . S
C623 Eu593 2.825 . S
C623 O608 1.238 . S
C623 O609 1.247 . S
C623 C617 1.507 . S
H624 C597 0.930 . S
H625 C598 0.931 . S
H626 C599 0.930 . S
H627 C600 0.930 . S
H628 C619 0.930 . S
H629 C620 0.931 . S
H630 C621 0.930 . S
H631 C622 0.930 . S
Tb632 C642 2.825 . S
Tb632 O643 2.347 1_556 S
Tb632 O646 2.366 . S
Tb632 O651 2.418 . S
Tb632 O652 2.384 1_556 S
Tb632 O655 2.479 . S
Tb632 O656 2.471 . S
Eu633 O644 2.418 . S
Eu633 O645 2.384 . S
Eu633 O648 2.479 . S
Eu633 O649 2.471 . S
Eu633 O650 2.347 . S
Eu633 O653 2.366 . S
Eu633 C663 2.825 . S
C634 O650 1.259 . S
C634 O651 1.265 1_554 S
C635 O652 1.255 . S
C635 O653 1.265 . S
C636 C638 1.380 . S
C636 C639 1.374 . S
C636 C642 1.507 . S
C637 C638 1.384 . S
C637 C641 1.387 . S
C637 H664 0.930 . S
C638 C636 1.380 . S
C638 C637 1.384 . S
C638 H665 0.931 . S
C639 C636 1.374 . S
C639 C640 1.390 . S
C639 H666 0.930 . S
C640 C639 1.390 . S
C640 C641 1.391 . S
C640 H667 0.930 . S
C641 C637 1.387 . S
C641 C640 1.391 . S
C642 Tb632 2.825 . S
C642 C636 1.507 . S
C642 O655 1.238 . S
C642 O656 1.247 . S
O643 Tb632 2.347 1_554 S
O643 C647 1.259 . S
O644 Eu633 2.418 . S
O644 C647 1.265 . S
O645 Eu633 2.384 . S
O645 C654 1.255 1_554 S
O646 Tb632 2.366 . S
O646 C654 1.265 . S
C647 O643 1.259 . S
C647 O644 1.265 . S
O648 Eu633 2.479 . S
O648 C663 1.238 . S
O649 Eu633 2.471 . S
O649 C663 1.247 . S
O650 Eu633 2.347 . S
O650 C634 1.259 . S
O651 Tb632 2.418 . S
O651 C634 1.265 1_556 S
O652 Tb632 2.384 1_554 S
O652 C635 1.255 . S
O653 Eu633 2.366 . S
O653 C635 1.265 . S
C654 O645 1.255 1_556 S
C654 O646 1.265 . S
O655 Tb632 2.479 . S
O655 C642 1.238 . S
O656 Tb632 2.471 . S
O656 C642 1.247 . S
C657 C660 1.380 . S
C657 C661 1.374 . S
C657 C663 1.507 . S
C658 C659 1.387 . S
C658 C662 1.391 . S
C659 C658 1.387 . S
C659 C660 1.384 . S
C659 H668 0.930 . S
C660 C657 1.380 . S
C660 C659 1.384 . S
C660 H669 0.931 . S
C661 C657 1.374 . S
C661 C662 1.390 . S
C661 H670 0.930 . S
C662 C658 1.391 . S
C662 C661 1.390 . S
C662 H671 0.930 . S
C663 Eu633 2.825 . S
C663 O648 1.238 . S
C663 O649 1.247 . S
C663 C657 1.507 . S
H664 C637 0.930 . S
H665 C638 0.931 . S
H666 C639 0.930 . S
H667 C640 0.930 . S
H668 C659 0.930 . S
H669 C660 0.931 . S
H670 C661 0.930 . S
H671 C662 0.930 . S
Tb672 C682 2.825 . S
Tb672 O683 2.347 . S
Tb672 O686 2.366 . S
Tb672 O691 2.418 . S
Tb672 O692 2.384 . S
Tb672 O695 2.479 . S
Tb672 O696 2.471 . S
Eu673 O684 2.418 . S
Eu673 O685 2.384 . S
Eu673 O688 2.479 . S
Eu673 O689 2.471 . S
Eu673 O690 2.347 . S
Eu673 O693 2.366 . S
Eu673 C703 2.825 . S
C674 O690 1.259 . S
C674 O691 1.265 . S
C675 O692 1.255 . S
C675 O693 1.265 . S
C676 C678 1.380 . S
C676 C679 1.374 . S
C676 C682 1.507 . S
C677 C678 1.384 . S
C677 C681 1.387 . S
C677 H704 0.930 . S
C678 C676 1.380 . S
C678 C677 1.384 . S
C678 H705 0.931 . S
C679 C676 1.374 . S
C679 C680 1.390 . S
C679 H706 0.930 . S
C680 C679 1.390 . S
C680 C681 1.391 . S
C680 H707 0.930 . S
C681 C677 1.387 . S
C681 C680 1.391 . S
C682 Tb672 2.825 . S
C682 C676 1.507 . S
C682 O695 1.238 . S
C682 O696 1.247 . S
O683 Tb672 2.347 . S
O683 C687 1.259 . S
O684 Eu673 2.418 . S
O684 C687 1.265 . S
O685 Eu673 2.384 . S
O685 C694 1.255 . S
O686 Tb672 2.366 . S
O686 C694 1.265 . S
C687 O683 1.259 . S
C687 O684 1.265 . S
O688 Eu673 2.479 . S
O688 C703 1.238 . S
O689 Eu673 2.471 . S
O689 C703 1.247 . S
O690 Eu673 2.347 . S
O690 C674 1.259 . S
O691 Tb672 2.418 . S
O691 C674 1.265 . S
O692 Tb672 2.384 . S
O692 C675 1.255 . S
O693 Eu673 2.366 . S
O693 C675 1.265 . S
C694 O685 1.255 . S
C694 O686 1.265 . S
O695 Tb672 2.479 . S
O695 C682 1.238 . S
O696 Tb672 2.471 . S
O696 C682 1.247 . S
C697 C700 1.380 . S
C697 C701 1.374 . S
C697 C703 1.507 . S
C698 C699 1.387 . S
C698 C702 1.391 . S
C699 C698 1.387 . S
C699 C700 1.384 . S
C699 H708 0.930 . S
C700 C697 1.380 . S
C700 C699 1.384 . S
C700 H709 0.931 . S
C701 C697 1.374 . S
C701 C702 1.390 . S
C701 H710 0.930 . S
C702 C698 1.391 . S
C702 C701 1.390 . S
C702 H711 0.930 . S
C703 Eu673 2.825 . S
C703 O688 1.238 . S
C703 O689 1.247 . S
C703 C697 1.507 . S
H704 C677 0.930 . S
H705 C678 0.931 . S
H706 C679 0.930 . S
H707 C680 0.930 . S
H708 C699 0.930 . S
H709 C700 0.931 . S
H710 C701 0.930 . S
H711 C702 0.930 . S
Tb712 C722 2.825 . S
Tb712 O723 2.347 . S
Tb712 O726 2.366 . S
Tb712 O731 2.418 . S
Tb712 O732 2.384 . S
Tb712 O735 2.479 . S
Tb712 O736 2.471 . S
Eu713 O724 2.418 . S
Eu713 O725 2.384 1_455 S
Eu713 O728 2.479 . S
Eu713 O729 2.471 . S
Eu713 O730 2.347 . S
Eu713 O733 2.366 . S
Eu713 C743 2.825 . S
C714 O730 1.259 . S
C714 O731 1.265 . S
C715 O732 1.255 . S
C715 O733 1.265 . S
C716 C718 1.380 . S
C716 C719 1.374 . S
C716 C722 1.507 . S
C717 C718 1.384 . S
C717 C721 1.387 . S
C717 H744 0.930 . S
C718 C716 1.380 . S
C718 C717 1.384 . S
C718 H745 0.931 . S
C719 C716 1.374 . S
C719 C720 1.390 . S
C719 H746 0.930 . S
C720 C719 1.390 . S
C720 C721 1.391 . S
C720 H747 0.930 1_455 S
C721 C717 1.387 . S
C721 C720 1.391 . S
C722 Tb712 2.825 . S
C722 C716 1.507 . S
C722 O735 1.238 . S
C722 O736 1.247 . S
O723 Tb712 2.347 . S
O723 C727 1.259 . S
O724 Eu713 2.418 . S
O724 C727 1.265 . S
O725 Eu713 2.384 1_655 S
O725 C734 1.255 . S
O726 Tb712 2.366 . S
O726 C734 1.265 1_455 S
C727 O723 1.259 . S
C727 O724 1.265 . S
O728 Eu713 2.479 . S
O728 C743 1.238 . S
O729 Eu713 2.471 . S
O729 C743 1.247 . S
O730 Eu713 2.347 . S
O730 C714 1.259 . S
O731 Tb712 2.418 . S
O731 C714 1.265 . S
O732 Tb712 2.384 . S
O732 C715 1.255 . S
O733 Eu713 2.366 . S
O733 C715 1.265 . S
C734 O725 1.255 . S
C734 O726 1.265 1_655 S
O735 Tb712 2.479 . S
O735 C722 1.238 . S
O736 Tb712 2.471 . S
O736 C722 1.247 . S
C737 C740 1.380 . S
C737 C741 1.374 . S
C737 C743 1.507 . S
C738 C739 1.387 . S
C738 C742 1.391 . S
C739 C738 1.387 . S
C739 C740 1.384 . S
C739 H748 0.930 . S
C740 C737 1.380 . S
C740 C739 1.384 . S
C740 H749 0.931 . S
C741 C737 1.374 . S
C741 C742 1.390 . S
C741 H750 0.930 . S
C742 C738 1.391 . S
C742 C741 1.390 . S
C742 H751 0.930 . S
C743 Eu713 2.825 . S
C743 O728 1.238 . S
C743 O729 1.247 . S
C743 C737 1.507 . S
H744 C717 0.930 . S
H745 C718 0.931 . S
H746 C719 0.930 . S
H747 C720 0.930 1_655 S
H748 C739 0.930 . S
H749 C740 0.931 . S
H750 C741 0.930 . S
H751 C742 0.930 . S
Tb752 C762 2.825 . S
Tb752 O763 2.347 . S
Tb752 O766 2.366 . S
Tb752 O771 2.418 . S
Tb752 O772 2.384 . S
Tb752 O775 2.479 . S
Tb752 O776 2.471 . S
Eu753 O764 2.418 . S
Eu753 O765 2.384 . S
Eu753 O768 2.479 . S
Eu753 O769 2.471 . S
Eu753 O770 2.347 . S
Eu753 O773 2.366 . S
Eu753 C783 2.825 . S
C754 O770 1.259 . S
C754 O771 1.265 . S
C755 O772 1.255 . S
C755 O773 1.265 . S
C756 C758 1.380 . S
C756 C759 1.374 . S
C756 C762 1.507 . S
C757 C758 1.384 . S
C757 C761 1.387 . S
C757 H784 0.930 . S
C758 C756 1.380 . S
C758 C757 1.384 . S
C758 H785 0.931 . S
C759 C756 1.374 . S
C759 C760 1.390 . S
C759 H786 0.930 . S
C760 C759 1.390 . S
C760 C761 1.391 . S
C760 H787 0.930 . S
C761 C757 1.387 . S
C761 C760 1.391 . S
C762 Tb752 2.825 . S
C762 C756 1.507 . S
C762 O775 1.238 . S
C762 O776 1.247 . S
O763 Tb752 2.347 . S
O763 C767 1.259 . S
O764 Eu753 2.418 . S
O764 C767 1.265 . S
O765 Eu753 2.384 . S
O765 C774 1.255 . S
O766 Tb752 2.366 . S
O766 C774 1.265 . S
C767 O763 1.259 . S
C767 O764 1.265 . S
O768 Eu753 2.479 . S
O768 C783 1.238 . S
O769 Eu753 2.471 . S
O769 C783 1.247 . S
O770 Eu753 2.347 . S
O770 C754 1.259 . S
O771 Tb752 2.418 . S
O771 C754 1.265 . S
O772 Tb752 2.384 . S
O772 C755 1.255 . S
O773 Eu753 2.366 . S
O773 C755 1.265 . S
C774 O765 1.255 . S
C774 O766 1.265 . S
O775 Tb752 2.479 . S
O775 C762 1.238 . S
O776 Tb752 2.471 . S
O776 C762 1.247 . S
C777 C780 1.380 . S
C777 C781 1.374 . S
C777 C783 1.507 . S
C778 C779 1.387 . S
C778 C782 1.391 . S
C779 C778 1.387 . S
C779 C780 1.384 . S
C779 H788 0.930 . S
C780 C777 1.380 . S
C780 C779 1.384 . S
C780 H789 0.931 . S
C781 C777 1.374 . S
C781 C782 1.390 . S
C781 H790 0.930 . S
C782 C778 1.391 . S
C782 C781 1.390 . S
C782 H791 0.930 . S
C783 Eu753 2.825 . S
C783 O768 1.238 . S
C783 O769 1.247 . S
C783 C777 1.507 . S
H784 C757 0.930 . S
H785 C758 0.931 . S
H786 C759 0.930 . S
H787 C760 0.930 . S
H788 C779 0.930 . S
H789 C780 0.931 . S
H790 C781 0.930 . S
H791 C782 0.930 . S
Tb792 C802 2.825 . S
Tb792 O803 2.347 . S
Tb792 O806 2.366 . S
Tb792 O811 2.418 . S
Tb792 O812 2.384 . S
Tb792 O815 2.479 . S
Tb792 O816 2.471 . S
Eu793 O804 2.418 . S
Eu793 O805 2.384 . S
Eu793 O808 2.479 . S
Eu793 O809 2.471 . S
Eu793 O810 2.347 . S
Eu793 O813 2.366 . S
Eu793 C823 2.825 . S
C794 O810 1.259 . S
C794 O811 1.265 . S
C795 O812 1.255 . S
C795 O813 1.265 . S
C796 C798 1.380 . S
C796 C799 1.374 . S
C796 C802 1.507 . S
C797 C798 1.384 . S
C797 C801 1.387 . S
C797 H824 0.930 . S
C798 C796 1.380 . S
C798 C797 1.384 . S
C798 H825 0.931 . S
C799 C796 1.374 . S
C799 C800 1.390 . S
C799 H826 0.930 . S
C800 C799 1.390 . S
C800 C801 1.391 . S
C800 H827 0.930 . S
C801 C797 1.387 . S
C801 C800 1.391 . S
C802 Tb792 2.825 . S
C802 C796 1.507 . S
C802 O815 1.238 . S
C802 O816 1.247 . S
O803 Tb792 2.347 . S
O803 C807 1.259 . S
O804 Eu793 2.418 . S
O804 C807 1.265 . S
O805 Eu793 2.384 . S
O805 C814 1.255 . S
O806 Tb792 2.366 . S
O806 C814 1.265 . S
C807 O803 1.259 . S
C807 O804 1.265 . S
O808 Eu793 2.479 . S
O808 C823 1.238 . S
O809 Eu793 2.471 . S
O809 C823 1.247 . S
O810 Eu793 2.347 . S
O810 C794 1.259 . S
O811 Tb792 2.418 . S
O811 C794 1.265 . S
O812 Tb792 2.384 . S
O812 C795 1.255 . S
O813 Eu793 2.366 . S
O813 C795 1.265 . S
C814 O805 1.255 . S
C814 O806 1.265 . S
O815 Tb792 2.479 . S
O815 C802 1.238 . S
O816 Tb792 2.471 . S
O816 C802 1.247 . S
C817 C820 1.380 . S
C817 C821 1.374 . S
C817 C823 1.507 . S
C818 C819 1.387 . S
C818 C822 1.391 . S
C819 C818 1.387 . S
C819 C820 1.384 . S
C819 H828 0.930 . S
C820 C817 1.380 . S
C820 C819 1.384 . S
C820 H829 0.931 . S
C821 C817 1.374 . S
C821 C822 1.390 . S
C821 H830 0.930 . S
C822 C818 1.391 . S
C822 C821 1.390 . S
C822 H831 0.930 . S
C823 Eu793 2.825 . S
C823 O808 1.238 . S
C823 O809 1.247 . S
C823 C817 1.507 . S
H824 C797 0.930 . S
H825 C798 0.931 . S
H826 C799 0.930 . S
H827 C800 0.930 . S
H828 C819 0.930 . S
H829 C820 0.931 . S
H830 C821 0.930 . S
H831 C822 0.930 . S
Tb832 C842 2.825 . S
Tb832 O843 2.347 . S
Tb832 O846 2.366 . S
Tb832 O851 2.418 . S
Tb832 O852 2.384 . S
Tb832 O855 2.479 . S
Tb832 O856 2.471 . S
Eu833 O844 2.418 . S
Eu833 O845 2.384 . S
Eu833 O848 2.479 . S
Eu833 O849 2.471 . S
Eu833 O850 2.347 . S
Eu833 O853 2.366 . S
Eu833 C863 2.825 . S
C834 O850 1.259 . S
C834 O851 1.265 . S
C835 O852 1.255 . S
C835 O853 1.265 . S
C836 C838 1.380 . S
C836 C839 1.374 . S
C836 C842 1.507 . S
C837 C838 1.384 . S
C837 C841 1.387 . S
C837 H864 0.930 . S
C838 C836 1.380 . S
C838 C837 1.384 . S
C838 H865 0.931 . S
C839 C836 1.374 . S
C839 C840 1.390 . S
C839 H866 0.930 . S
C840 C839 1.390 . S
C840 C841 1.391 . S
C840 H867 0.930 . S
C841 C837 1.387 . S
C841 C840 1.391 . S
C842 Tb832 2.825 . S
C842 C836 1.507 . S
C842 O855 1.238 . S
C842 O856 1.247 . S
O843 Tb832 2.347 . S
O843 C847 1.259 . S
O844 Eu833 2.418 . S
O844 C847 1.265 . S
O845 Eu833 2.384 . S
O845 C854 1.255 . S
O846 Tb832 2.366 . S
O846 C854 1.265 . S
C847 O843 1.259 . S
C847 O844 1.265 . S
O848 Eu833 2.479 . S
O848 C863 1.238 . S
O849 Eu833 2.471 . S
O849 C863 1.247 . S
O850 Eu833 2.347 . S
O850 C834 1.259 . S
O851 Tb832 2.418 . S
O851 C834 1.265 . S
O852 Tb832 2.384 . S
O852 C835 1.255 . S
O853 Eu833 2.366 . S
O853 C835 1.265 . S
C854 O845 1.255 . S
C854 O846 1.265 . S
O855 Tb832 2.479 . S
O855 C842 1.238 . S
O856 Tb832 2.471 . S
O856 C842 1.247 . S
C857 C860 1.380 . S
C857 C861 1.374 . S
C857 C863 1.507 . S
C858 C859 1.387 . S
C858 C862 1.391 . S
C859 C858 1.387 . S
C859 C860 1.384 . S
C859 H868 0.930 . S
C860 C857 1.380 . S
C860 C859 1.384 . S
C860 H869 0.931 . S
C861 C857 1.374 . S
C861 C862 1.390 . S
C861 H870 0.930 . S
C862 C858 1.391 . S
C862 C861 1.390 . S
C862 H871 0.930 . S
C863 Eu833 2.825 . S
C863 O848 1.238 . S
C863 O849 1.247 . S
C863 C857 1.507 . S
H864 C837 0.930 . S
H865 C838 0.931 . S
H866 C839 0.930 . S
H867 C840 0.930 . S
H868 C859 0.930 . S
H869 C860 0.931 . S
H870 C861 0.930 . S
H871 C862 0.930 . S
Tb872 C882 2.825 . S
Tb872 O883 2.347 . S
Tb872 O886 2.366 . S
Tb872 O891 2.418 . S
Tb872 O892 2.384 . S
Tb872 O895 2.479 . S
Tb872 O896 2.471 . S
Eu873 O884 2.418 . S
Eu873 O885 2.384 . S
Eu873 O888 2.479 . S
Eu873 O889 2.471 . S
Eu873 O890 2.347 . S
Eu873 O893 2.366 . S
Eu873 C903 2.825 . S
C874 O890 1.259 . S
C874 O891 1.265 . S
C875 O892 1.255 . S
C875 O893 1.265 . S
C876 C878 1.380 . S
C876 C879 1.374 . S
C876 C882 1.507 . S
C877 C878 1.384 . S
C877 C881 1.387 . S
C877 H904 0.930 . S
C878 C876 1.380 . S
C878 C877 1.384 . S
C878 H905 0.931 . S
C879 C876 1.374 . S
C879 C880 1.390 . S
C879 H906 0.930 . S
C880 C879 1.390 . S
C880 C881 1.391 . S
C880 H907 0.930 . S
C881 C877 1.387 . S
C881 C880 1.391 . S
C882 Tb872 2.825 . S
C882 C876 1.507 . S
C882 O895 1.238 . S
C882 O896 1.247 . S
O883 Tb872 2.347 . S
O883 C887 1.259 . S
O884 Eu873 2.418 . S
O884 C887 1.265 . S
O885 Eu873 2.384 . S
O885 C894 1.255 . S
O886 Tb872 2.366 . S
O886 C894 1.265 . S
C887 O883 1.259 . S
C887 O884 1.265 . S
O888 Eu873 2.479 . S
O888 C903 1.238 . S
O889 Eu873 2.471 . S
O889 C903 1.247 . S
O890 Eu873 2.347 . S
O890 C874 1.259 . S
O891 Tb872 2.418 . S
O891 C874 1.265 . S
O892 Tb872 2.384 . S
O892 C875 1.255 . S
O893 Eu873 2.366 . S
O893 C875 1.265 . S
C894 O885 1.255 . S
C894 O886 1.265 . S
O895 Tb872 2.479 . S
O895 C882 1.238 . S
O896 Tb872 2.471 . S
O896 C882 1.247 . S
C897 C900 1.380 . S
C897 C901 1.374 . S
C897 C903 1.507 . S
C898 C899 1.387 . S
C898 C902 1.391 . S
C899 C898 1.387 . S
C899 C900 1.384 . S
C899 H908 0.930 . S
C900 C897 1.380 . S
C900 C899 1.384 . S
C900 H909 0.931 . S
C901 C897 1.374 . S
C901 C902 1.390 . S
C901 H910 0.930 . S
C902 C898 1.391 . S
C902 C901 1.390 . S
C902 H911 0.930 . S
C903 Eu873 2.825 . S
C903 O888 1.238 . S
C903 O889 1.247 . S
C903 C897 1.507 . S
H904 C877 0.930 . S
H905 C878 0.931 . S
H906 C879 0.930 . S
H907 C880 0.930 . S
H908 C899 0.930 . S
H909 C900 0.931 . S
H910 C901 0.930 . S
H911 C902 0.930 . S
Tb912 C922 2.825 . S
Tb912 O923 2.347 1_554 S
Tb912 O926 2.366 . S
Tb912 O931 2.418 . S
Tb912 O932 2.384 1_455 S
Tb912 O935 2.479 . S
Tb912 O936 2.471 1_554 S
Eu913 O924 2.418 1_554 S
Eu913 O925 2.384 . S
Eu913 O928 2.479 . S
Eu913 O929 2.471 . S
Eu913 O930 2.347 . S
Eu913 O933 2.366 . S
Eu913 C943 2.825 . S
C914 O930 1.259 . S
C914 O931 1.265 . S
C915 O932 1.255 . S
C915 O933 1.265 1_655 S
C916 C918 1.380 1_556 S
C916 C919 1.374 . S
C916 C922 1.507 1_556 S
C917 C918 1.384 1_556 S
C917 C921 1.387 . S
C917 H944 0.930 1_456 S
C918 C916 1.380 1_554 S
C918 C917 1.384 1_554 S
C918 H945 0.913 1_455 S
C919 C916 1.374 . S
C919 C920 1.390 . S
C919 H946 0.930 . S
C920 C919 1.390 . S
C920 C921 1.391 . S
C920 H947 0.930 . S
C921 C917 1.387 . S
C921 C920 1.391 . S
C922 Tb912 2.825 . S
C922 C916 1.507 1_554 S
C922 O935 1.238 . S
C922 O936 1.247 1_554 S
O923 Tb912 2.347 1_556 S
O923 C927 1.259 . S
O924 Eu913 2.418 1_556 S
O924 C927 1.265 . S
O925 Eu913 2.384 . S
O925 C934 1.255 . S
O926 Tb912 2.366 . S
O926 C934 1.265 . S
C927 O923 1.259 . S
C927 O924 1.265 . S
O928 Eu913 2.479 . S
O928 C943 1.238 . S
O929 Eu913 2.471 . S
O929 C943 1.247 . S
O930 Eu913 2.347 . S
O930 C914 1.259 . S
O931 Tb912 2.418 . S
O931 C914 1.265 . S
O932 Tb912 2.384 1_655 S
O932 C915 1.255 . S
O933 Eu913 2.366 . S
O933 C915 1.265 1_455 S
C934 O925 1.255 . S
C934 O926 1.265 . S
O935 Tb912 2.479 . S
O935 C922 1.238 . S
O936 Tb912 2.471 1_556 S
O936 C922 1.247 1_556 S
C937 C940 1.380 . S
C937 C941 1.374 . S
C937 C943 1.507 . S
C938 C939 1.387 . S
C938 C942 1.391 . S
C939 C938 1.387 . S
C939 C940 1.384 . S
C939 H948 0.930 . S
C940 C937 1.380 . S
C940 C939 1.384 . S
C940 H949 0.931 . S
C941 C937 1.374 . S
C941 C942 1.390 . S
C941 H950 0.930 . S
C942 C938 1.391 . S
C942 C941 1.390 . S
C942 H951 0.930 . S
C943 Eu913 2.825 . S
C943 O928 1.238 . S
C943 O929 1.247 . S
C943 C937 1.507 . S
H944 C917 0.930 1_654 S
H945 C918 0.913 1_655 S
H946 C919 0.930 . S
H947 C920 0.930 . S
H948 C939 0.930 . S
H949 C940 0.931 . S
H950 C941 0.930 . S
H951 C942 0.930 . S
C952 C953 1.369 . S
C952 C954 1.419 1_556 S
C952 H956 0.930 1_455 S
C953 C952 1.369 . S
C953 C962 1.429 . S
C954 C952 1.419 1_554 S
C954 C955 1.363 . S
C954 H957 0.929 . S
C955 C954 1.363 . S
C955 C961 1.428 1_554 S
H956 C952 0.930 1_655 S
H957 C954 0.929 . S
S958 N959 1.613 . S
S958 N960 1.610 . S
N959 S958 1.613 . S
N959 C962 1.350 . S
N960 S958 1.610 . S
N960 C961 1.351 . S
C961 C955 1.428 1_556 S
C961 N960 1.351 . S
C961 C962 1.434 . S
C962 C953 1.429 . S
C962 N959 1.350 . S
C962 C961 1.434 . S
C963 C964 1.369 . S
C963 C965 1.419 . S
C963 H967 0.930 . S
C964 C963 1.369 . S
C964 C973 1.429 . S
C965 C963 1.419 . S
C965 C966 1.363 . S
C965 H968 0.929 . S
C966 C965 1.363 . S
C966 C972 1.428 . S
H967 C963 0.930 . S
H968 C965 0.929 . S
S969 N970 1.613 . S
S969 N971 1.610 . S
N970 S969 1.613 . S
N970 C973 1.350 . S
N971 S969 1.610 . S
N971 C972 1.351 . S
C972 C966 1.428 . S
C972 N971 1.351 . S
C972 C973 1.434 . S
C973 C964 1.429 . S
C973 N970 1.350 . S
C973 C972 1.434 . S
C974 C975 1.369 . S
C974 C976 1.419 . S
C974 H978 0.930 . S
C975 C974 1.369 . S
C975 C984 1.429 . S
C976 C974 1.419 . S
C976 C977 1.363 . S
C976 H979 0.929 . S
C977 C976 1.363 . S
C977 C983 1.428 . S
H978 C974 0.930 . S
H979 C976 0.929 . S
S980 N981 1.613 . S
S980 N982 1.610 . S
N981 S980 1.613 . S
N981 C984 1.350 . S
N982 S980 1.610 . S
N982 C983 1.351 . S
C983 C977 1.428 . S
C983 N982 1.351 . S
C983 C984 1.434 . S
C984 C975 1.429 . S
C984 N981 1.350 . S
C984 C983 1.434 . S
C985 C986 1.369 . S
C985 C987 1.419 . S
C985 H989 0.930 . S
C986 C985 1.369 . S
C986 C995 1.429 . S
C987 C985 1.419 . S
C987 C988 1.363 . S
C987 H990 0.929 . S
C988 C987 1.363 . S
C988 C994 1.428 . S
H989 C985 0.930 . S
H990 C987 0.929 . S
S991 N992 1.613 . S
S991 N993 1.610 . S
N992 S991 1.613 . S
N992 C995 1.350 . S
N993 S991 1.610 . S
N993 C994 1.351 . S
C994 C988 1.428 . S
C994 N993 1.351 . S
C994 C995 1.434 . S
C995 C986 1.429 . S
C995 N992 1.350 . S
C995 C994 1.434 . S
C996 C997 1.369 . S
C996 C998 1.419 . S
C996 H1000 0.930 . S
C997 C996 1.369 . S
C997 C1006 1.429 . S
C998 C996 1.419 . S
C998 C999 1.363 . S
C998 H1001 0.929 . S
C999 C998 1.363 . S
C999 C1005 1.428 . S
H1000 C996 0.930 . S
H1001 C998 0.929 . S
S1002 N1003 1.613 . S
S1002 N1004 1.610 . S
N1003 S1002 1.613 . S
N1003 C1006 1.350 . S
N1004 S1002 1.610 . S
N1004 C1005 1.351 . S
C1005 C999 1.428 . S
C1005 N1004 1.351 . S
C1005 C1006 1.434 . S
C1006 C997 1.429 . S
C1006 N1003 1.350 . S
C1006 C1005 1.434 . S
C1007 C1008 1.369 . S
C1007 C1009 1.419 . S
C1007 H1011 0.930 . S
C1008 C1007 1.369 . S
C1008 C1017 1.429 . S
C1009 C1007 1.419 . S
C1009 C1010 1.363 . S
C1009 H1012 0.929 . S
C1010 C1009 1.363 . S
C1010 C1016 1.428 . S
H1011 C1007 0.930 . S
H1012 C1009 0.929 . S
S1013 N1014 1.613 . S
S1013 N1015 1.610 . S
N1014 S1013 1.613 . S
N1014 C1017 1.350 . S
N1015 S1013 1.610 . S
N1015 C1016 1.351 . S
C1016 C1010 1.428 . S
C1016 N1015 1.351 . S
C1016 C1017 1.434 . S
C1017 C1008 1.429 . S
C1017 N1014 1.350 . S
C1017 C1016 1.434 . S
C1018 C1019 1.369 . S
C1018 C1020 1.419 . S
C1018 H1022 0.930 . S
C1019 C1018 1.369 . S
C1019 C1028 1.429 . S
C1020 C1018 1.419 . S
C1020 C1021 1.363 . S
C1020 H1023 0.929 . S
C1021 C1020 1.363 . S
C1021 C1027 1.428 . S
H1022 C1018 0.930 . S
H1023 C1020 0.929 . S
S1024 N1025 1.613 . S
S1024 N1026 1.610 . S
N1025 S1024 1.613 . S
N1025 C1028 1.350 . S
N1026 S1024 1.610 . S
N1026 C1027 1.351 . S
C1027 C1021 1.428 . S
C1027 N1026 1.351 . S
C1027 C1028 1.434 . S
C1028 C1019 1.429 . S
C1028 N1025 1.350 . S
C1028 C1027 1.434 . S
C1029 C1030 1.369 . S
C1029 C1031 1.419 . S
C1029 H1033 0.930 . S
C1030 C1029 1.369 . S
C1030 C1039 1.429 . S
C1031 C1029 1.419 . S
C1031 C1032 1.363 . S
C1031 H1034 0.929 . S
C1032 C1031 1.363 . S
C1032 C1038 1.428 . S
H1033 C1029 0.930 . S
H1034 C1031 0.929 . S
S1035 N1036 1.613 . S
S1035 N1037 1.610 . S
N1036 S1035 1.613 . S
N1036 C1039 1.350 . S
N1037 S1035 1.610 . S
N1037 C1038 1.351 . S
C1038 C1032 1.428 . S
C1038 N1037 1.351 . S
C1038 C1039 1.434 . S
C1039 C1030 1.429 . S
C1039 N1036 1.350 . S
C1039 C1038 1.434 . S
C1040 C1041 1.369 . S
C1040 C1042 1.419 . S
C1040 H1044 0.930 . S
C1041 C1040 1.369 . S
C1041 C1050 1.429 . S
C1042 C1040 1.419 . S
C1042 C1043 1.363 1_655 S
C1042 H1045 0.929 . S
C1043 C1042 1.363 1_455 S
C1043 C1049 1.428 . S
H1044 C1040 0.930 . S
H1045 C1042 0.929 . S
S1046 N1047 1.613 1_455 S
S1046 N1048 1.610 1_565 S
N1047 S1046 1.613 1_655 S
N1047 C1050 1.350 1_565 S
N1048 S1046 1.610 1_545 S
N1048 C1049 1.351 . S
C1049 C1043 1.428 . S
C1049 N1048 1.351 . S
C1049 C1050 1.434 1_455 S
C1050 C1041 1.429 . S
C1050 N1047 1.350 1_545 S
C1050 C1049 1.434 1_655 S
C1051 C1052 1.369 . S
C1051 C1053 1.419 . S
C1051 H1055 0.930 . S
C1052 C1051 1.369 . S
C1052 C1061 1.429 . S
C1053 C1051 1.419 . S
C1053 C1054 1.363 . S
C1053 H1056 0.929 . S
C1054 C1053 1.363 . S
C1054 C1060 1.428 . S
H1055 C1051 0.930 . S
H1056 C1053 0.929 . S
S1057 N1058 1.613 . S
S1057 N1059 1.610 . S
N1058 S1057 1.613 . S
N1058 C1061 1.350 . S
N1059 S1057 1.610 . S
N1059 C1060 1.351 . S
C1060 C1054 1.428 . S
C1060 N1059 1.351 . S
C1060 C1061 1.434 . S
C1061 C1052 1.429 . S
C1061 N1058 1.350 . S
C1061 C1060 1.434 . S
C1062 C1063 1.369 1_545 S
C1062 C1064 1.419 . S
C1062 H1066 0.930 . S
C1063 C1062 1.369 1_565 S
C1063 C1072 1.429 . S
C1064 C1062 1.419 . S
C1064 C1065 1.363 . S
C1064 H1067 0.929 . S
C1065 C1064 1.363 . S
C1065 C1071 1.428 . S
H1066 C1062 0.930 . S
H1067 C1064 0.929 . S
S1068 N1069 1.613 . S
S1068 N1070 1.610 1_565 S
N1069 S1068 1.613 . S
N1069 C1072 1.350 . S
N1070 S1068 1.610 1_545 S
N1070 C1071 1.351 . S
C1071 C1065 1.428 . S
C1071 N1070 1.351 . S
C1071 C1072 1.434 1_545 S
C1072 C1063 1.429 . S
C1072 N1069 1.350 . S
C1072 C1071 1.434 1_565 S
C1073 C1074 1.369 . S
C1073 C1075 1.419 . S
C1073 H1077 0.930 . S
C1074 C1073 1.369 . S
C1074 C1083 1.429 . S
C1075 C1073 1.419 . S
C1075 C1076 1.363 . S
C1075 H1078 0.929 . S
C1076 C1075 1.363 . S
C1076 C1082 1.428 . S
H1077 C1073 0.930 . S
H1078 C1075 0.929 . S
S1079 N1080 1.613 . S
S1079 N1081 1.610 . S
N1080 S1079 1.613 . S
N1080 C1083 1.350 . S
N1081 S1079 1.610 . S
N1081 C1082 1.351 . S
C1082 C1076 1.428 . S
C1082 N1081 1.351 . S
C1082 C1083 1.434 . S
C1083 C1074 1.429 . S
C1083 N1080 1.350 . S
C1083 C1082 1.434 . S
C1084 C1085 1.369 1_545 S
C1084 C1086 1.419 . S
C1084 H1088 0.933 . S
C1085 C1084 1.369 1_565 S
C1085 C1094 1.429 1_565 S
C1086 C1084 1.419 . S
C1086 C1087 1.363 . S
C1086 H1089 0.929 . S
C1087 C1086 1.363 . S
C1087 C1093 1.428 . S
H1088 C1084 0.933 . S
H1089 C1086 0.929 . S
S1090 N1091 1.613 1_545 S
S1090 N1092 1.610 1_655 S
N1091 S1090 1.613 1_565 S
N1091 C1094 1.350 1_565 S
N1092 S1090 1.610 1_455 S
N1092 C1093 1.351 1_455 S
C1093 C1087 1.428 . S
C1093 N1092 1.351 1_655 S
C1093 C1094 1.434 . S
C1094 C1085 1.429 1_545 S
C1094 N1091 1.350 1_545 S
C1094 C1093 1.434 . S
C1095 C1096 1.369 . S
C1095 C1097 1.419 . S
C1095 H1099 0.930 . S
C1096 C1095 1.369 . S
C1096 C1105 1.429 . S
C1097 C1095 1.419 . S
C1097 C1098 1.363 . S
C1097 H1100 0.929 . S
C1098 C1097 1.363 . S
C1098 C1104 1.428 . S
H1099 C1095 0.930 . S
H1100 C1097 0.929 . S
S1101 N1102 1.613 . S
S1101 N1103 1.610 . S
N1102 S1101 1.613 . S
N1102 C1105 1.350 . S
N1103 S1101 1.610 . S
N1103 C1104 1.351 . S
C1104 C1098 1.428 . S
C1104 N1103 1.351 . S
C1104 C1105 1.434 . S
C1105 C1096 1.429 . S
C1105 N1102 1.350 . S
C1105 C1104 1.434 . S
C1106 C1107 1.369 . S
C1106 C1108 1.419 . S
C1106 H1110 0.930 . S
C1107 C1106 1.369 . S
C1107 C1116 1.429 . S
C1108 C1106 1.419 . S
C1108 C1109 1.363 . S
C1108 H1111 0.929 . S
C1109 C1108 1.363 . S
C1109 C1115 1.428 . S
H1110 C1106 0.930 . S
H1111 C1108 0.929 . S
S1112 N1113 1.613 . S
S1112 N1114 1.610 . S
N1113 S1112 1.613 . S
N1113 C1116 1.350 . S
N1114 S1112 1.610 . S
N1114 C1115 1.351 . S
C1115 C1109 1.428 . S
C1115 N1114 1.351 . S
C1115 C1116 1.434 . S
C1116 C1107 1.429 . S
C1116 N1113 1.350 . S
C1116 C1115 1.434 . S
C1117 C1118 1.369 . S
C1117 C1119 1.419 . S
C1117 H1121 0.930 . S
C1118 C1117 1.369 . S
C1118 C1127 1.429 . S
C1119 C1117 1.419 . S
C1119 C1120 1.363 . S
C1119 H1122 0.929 . S
C1120 C1119 1.363 . S
C1120 C1126 1.428 . S
H1121 C1117 0.930 . S
H1122 C1119 0.929 . S
S1123 N1124 1.613 . S
S1123 N1125 1.610 . S
N1124 S1123 1.613 . S
N1124 C1127 1.350 . S
N1125 S1123 1.610 . S
N1125 C1126 1.351 . S
C1126 C1120 1.428 . S
C1126 N1125 1.351 . S
C1126 C1127 1.434 . S
C1127 C1118 1.429 . S
C1127 N1124 1.350 . S
C1127 C1126 1.434 . S
C1128 C1129 1.369 . S
C1128 C1130 1.419 . S
C1128 H1132 0.930 . S
C1129 C1128 1.369 . S
C1129 C1138 1.429 . S
C1130 C1128 1.419 . S
C1130 C1131 1.394 . S
C1130 H1133 0.929 . S
C1131 C1130 1.394 . S
C1131 C1137 1.426 1_565 S
H1132 C1128 0.930 . S
H1133 C1130 0.929 . S
S1134 N1135 1.613 1_545 S
S1134 N1136 1.610 . S
N1135 S1134 1.613 1_565 S
N1135 C1138 1.350 . S
N1136 S1134 1.610 . S
N1136 C1137 1.351 . S
C1137 C1131 1.426 1_545 S
C1137 N1136 1.351 . S
C1137 C1138 1.434 1_545 S
C1138 C1129 1.429 . S
C1138 N1135 1.350 . S
C1138 C1137 1.434 1_565 S
C1139 C1140 1.369 . S
C1139 C1141 1.419 . S
C1139 H1143 0.930 1_554 S
C1140 C1139 1.369 . S
C1140 C1149 1.429 . S
C1141 C1139 1.419 . S
C1141 C1142 1.363 . S
C1141 H1144 0.929 . S
C1142 C1141 1.363 . S
C1142 C1148 1.428 . S
H1143 C1139 0.930 1_556 S
H1144 C1141 0.929 . S
S1145 N1146 1.613 . S
S1145 N1147 1.610 . S
N1146 S1145 1.613 . S
N1146 C1149 1.350 . S
N1147 S1145 1.610 . S
N1147 C1148 1.351 . S
C1148 C1142 1.428 . S
C1148 N1147 1.351 . S
C1148 C1149 1.434 . S
C1149 C1140 1.429 . S
C1149 N1146 1.350 . S
C1149 C1148 1.434 . S
C1150 C1151 1.369 . S
C1150 C1152 1.419 . S
C1150 H1154 0.930 . S
C1151 C1150 1.369 . S
C1151 C1160 1.429 . S
C1152 C1150 1.419 . S
C1152 C1153 1.363 . S
C1152 H1155 0.929 . S
C1153 C1152 1.363 . S
C1153 C1159 1.428 . S
H1154 C1150 0.930 . S
H1155 C1152 0.929 . S
S1156 N1157 1.613 . S
S1156 N1158 1.610 . S
N1157 S1156 1.613 . S
N1157 C1160 1.350 . S
N1158 S1156 1.610 . S
N1158 C1159 1.351 . S
C1159 C1153 1.428 . S
C1159 N1158 1.351 . S
C1159 C1160 1.434 . S
C1160 C1151 1.429 . S
C1160 N1157 1.350 . S
C1160 C1159 1.434 . S
C1161 C1162 1.369 . S
C1161 C1163 1.419 . S
C1161 H1165 0.930 . S
C1162 C1161 1.369 . S
C1162 C1171 1.429 . S
C1163 C1161 1.419 . S
C1163 C1164 1.363 . S
C1163 H1166 0.929 . S
C1164 C1163 1.363 . S
C1164 C1170 1.428 . S
H1165 C1161 0.930 . S
H1166 C1163 0.929 . S
S1167 N1168 1.613 1_455 S
S1167 N1169 1.610 . S
N1168 S1167 1.613 1_655 S
N1168 C1171 1.350 . S
N1169 S1167 1.610 . S
N1169 C1170 1.351 1_455 S
C1170 C1164 1.428 . S
C1170 N1169 1.351 1_655 S
C1170 C1171 1.434 . S
C1171 C1162 1.429 . S
C1171 N1168 1.350 . S
C1171 C1170 1.434 . S
C1172 C1173 1.369 . S
C1172 C1174 1.419 . S
C1172 H1176 0.930 . S
C1173 C1172 1.369 . S
C1173 C1182 1.429 . S
C1174 C1172 1.419 . S
C1174 C1175 1.363 . S
C1174 H1177 0.929 . S
C1175 C1174 1.363 . S
C1175 C1181 1.428 . S
H1176 C1172 0.930 . S
H1177 C1174 0.929 . S
S1178 N1179 1.613 . S
S1178 N1180 1.610 . S
N1179 S1178 1.613 . S
N1179 C1182 1.350 . S
N1180 S1178 1.610 . S
N1180 C1181 1.351 . S
C1181 C1175 1.428 . S
C1181 N1180 1.351 . S
C1181 C1182 1.434 . S
C1182 C1173 1.429 . S
C1182 N1179 1.350 . S
C1182 C1181 1.434 . S
C1183 C1184 1.369 . S
C1183 C1185 1.419 . S
C1183 H1187 0.930 . S
C1184 C1183 1.369 . S
C1184 C1193 1.429 . S
C1185 C1183 1.419 . S
C1185 C1186 1.363 . S
C1185 H1188 0.929 . S
C1186 C1185 1.363 . S
C1186 C1192 1.428 . S
H1187 C1183 0.930 . S
H1188 C1185 0.929 . S
S1189 N1190 1.613 . S
S1189 N1191 1.610 . S
N1190 S1189 1.613 . S
N1190 C1193 1.350 . S
N1191 S1189 1.610 . S
N1191 C1192 1.351 . S
C1192 C1186 1.428 . S
C1192 N1191 1.351 . S
C1192 C1193 1.434 . S
C1193 C1184 1.429 . S
C1193 N1190 1.350 . S
C1193 C1192 1.434 . S
C1194 C1195 1.369 . S
C1194 C1196 1.419 . S
C1194 H1198 0.930 . S
C1195 C1194 1.369 . S
C1195 C1204 1.429 . S
C1196 C1194 1.419 . S
C1196 C1197 1.363 . S
C1196 H1199 0.929 . S
C1197 C1196 1.363 . S
C1197 C1203 1.428 . S
H1198 C1194 0.930 . S
H1199 C1196 0.929 . S
S1200 N1201 1.613 . S
S1200 N1202 1.610 . S
N1201 S1200 1.613 . S
N1201 C1204 1.350 . S
N1202 S1200 1.610 . S
N1202 C1203 1.351 . S
C1203 C1197 1.428 . S
C1203 N1202 1.351 . S
C1203 C1204 1.434 . S
C1204 C1195 1.429 . S
C1204 N1201 1.350 . S
C1204 C1203 1.434 . S
C1205 C1206 1.369 . S
C1205 C1207 1.419 . S
C1205 H1209 0.930 . S
C1206 C1205 1.369 . S
C1206 C1215 1.429 . S
C1207 C1205 1.419 . S
C1207 C1208 1.363 . S
C1207 H1210 0.929 . S
C1208 C1207 1.363 . S
C1208 C1214 1.428 . S
H1209 C1205 0.930 . S
H1210 C1207 0.929 . S
S1211 N1212 1.613 . S
S1211 N1213 1.610 . S
N1212 S1211 1.613 . S
N1212 C1215 1.350 . S
N1213 S1211 1.610 . S
N1213 C1214 1.351 . S
C1214 C1208 1.428 . S
C1214 N1213 1.351 . S
C1214 C1215 1.434 . S
C1215 C1206 1.429 . S
C1215 N1212 1.350 . S
C1215 C1214 1.434 . S
C1216 C1217 1.369 . S
C1216 C1218 1.419 . S
C1216 H1220 0.930 . S
C1217 C1216 1.369 . S
C1217 C1226 1.429 . S
C1218 C1216 1.419 . S
C1218 C1219 1.363 . S
C1218 H1221 0.929 1_565 S
C1219 C1218 1.363 . S
C1219 C1225 1.428 . S
H1220 C1216 0.930 . S
H1221 C1218 0.929 1_545 S
S1222 N1223 1.613 . S
S1222 N1224 1.610 . S
N1223 S1222 1.613 . S
N1223 C1226 1.350 . S
N1224 S1222 1.610 . S
N1224 C1225 1.351 . S
C1225 C1219 1.428 . S
C1225 N1224 1.351 . S
C1225 C1226 1.434 . S
C1226 C1217 1.429 . S
C1226 N1223 1.350 . S
C1226 C1225 1.434 . S
C1227 C1228 1.369 . S
C1227 C1229 1.419 . S
C1227 H1231 0.930 . S
C1228 C1227 1.369 . S
C1228 C1237 1.429 . S
C1229 C1227 1.419 . S
C1229 C1230 1.363 . S
C1229 H1232 0.929 . S
C1230 C1229 1.363 . S
C1230 C1236 1.428 . S
H1231 C1227 0.930 . S
H1232 C1229 0.929 . S
S1233 N1234 1.613 . S
S1233 N1235 1.610 . S
N1234 S1233 1.613 . S
N1234 C1237 1.350 . S
N1235 S1233 1.610 . S
N1235 C1236 1.351 . S
C1236 C1230 1.428 . S
C1236 N1235 1.351 . S
C1236 C1237 1.434 . S
C1237 C1228 1.429 . S
C1237 N1234 1.350 . S
C1237 C1236 1.434 . S
C1238 C1239 1.369 . S
C1238 C1240 1.419 . S
C1238 H1242 0.930 . S
C1239 C1238 1.369 . S
C1239 C1248 1.429 . S
C1240 C1238 1.419 . S
C1240 C1241 1.363 . S
C1240 H1243 0.929 . S
C1241 C1240 1.363 . S
C1241 C1247 1.428 . S
H1242 C1238 0.930 . S
H1243 C1240 0.929 . S
S1244 N1245 1.613 . S
S1244 N1246 1.610 . S
N1245 S1244 1.613 . S
N1245 C1248 1.350 . S
N1246 S1244 1.610 . S
N1246 C1247 1.351 . S
C1247 C1241 1.428 . S
C1247 N1246 1.351 . S
C1247 C1248 1.434 . S
C1248 C1239 1.429 . S
C1248 N1245 1.350 . S
C1248 C1247 1.434 . S
C1249 C1250 1.369 . S
C1249 C1251 1.419 . S
C1249 H1253 0.930 . S
C1250 C1249 1.369 . S
C1250 C1259 1.429 . S
C1251 C1249 1.419 . S
C1251 C1252 1.363 . S
C1251 H1254 0.929 . S
C1252 C1251 1.363 . S
C1252 C1258 1.428 . S
H1253 C1249 0.930 . S
H1254 C1251 0.929 . S
S1255 N1256 1.613 . S
S1255 N1257 1.610 . S
N1256 S1255 1.613 . S
N1256 C1259 1.350 . S
N1257 S1255 1.610 . S
N1257 C1258 1.351 . S
C1258 C1252 1.428 . S
C1258 N1257 1.351 . S
C1258 C1259 1.434 . S
C1259 C1250 1.429 . S
C1259 N1256 1.350 . S
C1259 C1258 1.434 . S
C1260 C1261 1.369 . S
C1260 C1262 1.419 . S
C1260 H1264 0.930 . S
C1261 C1260 1.369 . S
C1261 C1270 1.429 . S
C1262 C1260 1.419 . S
C1262 C1263 1.363 . S
C1262 H1265 0.929 . S
C1263 C1262 1.363 . S
C1263 C1269 1.428 . S
H1264 C1260 0.930 . S
H1265 C1262 0.929 . S
S1266 N1267 1.613 . S
S1266 N1268 1.610 . S
N1267 S1266 1.613 . S
N1267 C1270 1.350 . S
N1268 S1266 1.610 . S
N1268 C1269 1.351 . S
C1269 C1263 1.428 . S
C1269 N1268 1.351 . S
C1269 C1270 1.434 . S
C1270 C1261 1.429 . S
C1270 N1267 1.350 . S
C1270 C1269 1.434 . S
C1271 C1272 1.369 . S
C1271 C1273 1.419 . S
C1271 H1275 0.930 . S
C1272 C1271 1.369 . S
C1272 C1281 1.429 . S
C1273 C1271 1.419 . S
C1273 C1274 1.363 . S
C1273 H1276 0.929 . S
C1274 C1273 1.363 . S
C1274 C1280 1.428 . S
H1275 C1271 0.930 . S
H1276 C1273 0.929 . S
S1277 N1278 1.613 . S
S1277 N1279 1.610 . S
N1278 S1277 1.613 . S
N1278 C1281 1.350 . S
N1279 S1277 1.610 . S
N1279 C1280 1.351 . S
C1280 C1274 1.428 . S
C1280 N1279 1.351 . S
C1280 C1281 1.434 . S
C1281 C1272 1.429 . S
C1281 N1278 1.350 . S
C1281 C1280 1.434 . S
C1282 C1283 1.369 . S
C1282 C1284 1.419 . S
C1282 H1286 0.930 . S
C1283 C1282 1.369 . S
C1283 C1292 1.429 . S
C1284 C1282 1.419 . S
C1284 C1285 1.363 . S
C1284 H1287 0.929 1_556 S
C1285 C1284 1.363 . S
C1285 C1291 1.428 . S
H1286 C1282 0.930 . S
H1287 C1284 0.929 1_554 S
S1288 N1289 1.613 . S
S1288 N1290 1.610 . S
N1289 S1288 1.613 . S
N1289 C1292 1.350 . S
N1290 S1288 1.610 . S
N1290 C1291 1.351 . S
C1291 C1285 1.428 . S
C1291 N1290 1.351 . S
C1291 C1292 1.434 . S
C1292 C1283 1.429 . S
C1292 N1289 1.350 . S
C1292 C1291 1.434 . S
C1293 C1294 1.369 . S
C1293 C1295 1.419 . S
C1293 H1297 0.930 . S
C1294 C1293 1.369 . S
C1294 C1303 1.429 . S
C1295 C1293 1.419 . S
C1295 C1296 1.363 . S
C1295 H1298 0.929 . S
C1296 C1295 1.363 . S
C1296 C1302 1.428 . S
H1297 C1293 0.930 . S
H1298 C1295 0.929 . S
S1299 N1300 1.613 . S
S1299 N1301 1.610 . S
N1300 S1299 1.613 . S
N1300 C1303 1.350 . S
N1301 S1299 1.610 . S
N1301 C1302 1.351 . S
C1302 C1296 1.428 . S
C1302 N1301 1.351 . S
C1302 C1303 1.434 . S
C1303 C1294 1.429 . S
C1303 N1300 1.350 . S
C1303 C1302 1.434 . S
C1304 C1305 1.369 . S
C1304 C1306 1.419 . S
C1304 H1308 0.930 . S
C1305 C1304 1.369 . S
C1305 C1314 1.429 . S
C1306 C1304 1.419 . S
C1306 C1307 1.363 . S
C1306 H1309 0.929 . S
C1307 C1306 1.363 . S
C1307 C1313 1.428 . S
H1308 C1304 0.930 . S
H1309 C1306 0.929 . S
S1310 N1311 1.613 1_554 S
S1310 N1312 1.610 . S
N1311 S1310 1.613 1_556 S
N1311 C1314 1.350 . S
N1312 S1310 1.610 . S
N1312 C1313 1.351 1_554 S
C1313 C1307 1.428 . S
C1313 N1312 1.351 1_556 S
C1313 C1314 1.434 . S
C1314 C1305 1.429 . S
C1314 N1311 1.350 . S
C1314 C1313 1.434 . S
C1315 C1316 1.369 . S
C1315 C1317 1.419 . S
C1315 H1319 0.930 . S
C1316 C1315 1.369 . S
C1316 C1325 1.429 . S
C1317 C1315 1.419 . S
C1317 C1318 1.363 . S
C1317 H1320 0.929 . S
C1318 C1317 1.363 . S
C1318 C1324 1.428 . S
H1319 C1315 0.930 . S
H1320 C1317 0.929 . S
S1321 N1322 1.613 . S
S1321 N1323 1.610 . S
N1322 S1321 1.613 . S
N1322 C1325 1.350 . S
N1323 S1321 1.610 . S
N1323 C1324 1.351 . S
C1324 C1318 1.428 . S
C1324 N1323 1.351 . S
C1324 C1325 1.434 . S
C1325 C1316 1.429 . S
C1325 N1322 1.350 . S
C1325 C1324 1.434 . S
C1326 C1327 1.369 . S
C1326 C1328 1.419 . S
C1326 H1330 0.930 . S
C1327 C1326 1.369 . S
C1327 C1336 1.429 . S
C1328 C1326 1.419 . S
C1328 C1329 1.363 . S
C1328 H1331 0.929 . S
C1329 C1328 1.363 . S
C1329 C1335 1.428 . S
H1330 C1326 0.930 . S
H1331 C1328 0.929 . S
S1332 N1333 1.613 . S
S1332 N1334 1.610 . S
N1333 S1332 1.613 . S
N1333 C1336 1.350 . S
N1334 S1332 1.610 . S
N1334 C1335 1.351 . S
C1335 C1329 1.428 . S
C1335 N1334 1.351 . S
C1335 C1336 1.434 . S
C1336 C1327 1.429 . S
C1336 N1333 1.350 . S
C1336 C1335 1.434 . S
C1337 C1338 1.369 . S
C1337 C1339 1.419 . S
C1337 H1341 0.930 . S
C1338 C1337 1.369 . S
C1338 C1347 1.429 . S
C1339 C1337 1.419 . S
C1339 C1340 1.363 . S
C1339 H1342 0.929 . S
C1340 C1339 1.363 . S
C1340 C1346 1.428 . S
H1341 C1337 0.930 . S
H1342 C1339 0.929 . S
S1343 N1344 1.613 . S
S1343 N1345 1.610 . S
N1344 S1343 1.613 . S
N1344 C1347 1.350 . S
N1345 S1343 1.610 . S
N1345 C1346 1.351 . S
C1346 C1340 1.428 . S
C1346 N1345 1.351 . S
C1346 C1347 1.434 . S
C1347 C1338 1.429 . S
C1347 N1344 1.350 . S
C1347 C1346 1.434 . S
C1348 C1349 1.369 . S
C1348 C1350 1.419 . S
C1348 H1352 0.930 . S
C1349 C1348 1.369 . S
C1349 C1358 1.429 . S
C1350 C1348 1.419 . S
C1350 C1351 1.363 . S
C1350 H1353 0.929 . S
C1351 C1350 1.363 . S
C1351 C1357 1.428 . S
H1352 C1348 0.930 . S
H1353 C1350 0.929 . S
S1354 N1355 1.613 . S
S1354 N1356 1.610 . S
N1355 S1354 1.613 . S
N1355 C1358 1.350 . S
N1356 S1354 1.610 . S
N1356 C1357 1.351 . S
C1357 C1351 1.428 . S
C1357 N1356 1.351 . S
C1357 C1358 1.434 . S
C1358 C1349 1.429 . S
C1358 N1355 1.350 . S
C1358 C1357 1.434 . S
C1359 C1360 1.369 . S
C1359 C1361 1.419 . S
C1359 H1363 0.930 . S
C1360 C1359 1.369 . S
C1360 C1369 1.429 . S
C1361 C1359 1.419 . S
C1361 C1362 1.363 . S
C1361 H1364 0.929 . S
C1362 C1361 1.363 . S
C1362 C1368 1.428 . S
H1363 C1359 0.930 . S
H1364 C1361 0.929 . S
S1365 N1366 1.613 . S
S1365 N1367 1.610 . S
N1366 S1365 1.613 . S
N1366 C1369 1.350 . S
N1367 S1365 1.610 . S
N1367 C1368 1.351 . S
C1368 C1362 1.428 . S
C1368 N1367 1.351 . S
C1368 C1369 1.434 . S
C1369 C1360 1.429 . S
C1369 N1366 1.350 . S
C1369 C1368 1.434 . S
C1370 C1371 1.369 . S
C1370 C1372 1.419 . S
C1370 H1374 0.930 . S
C1371 C1370 1.369 . S
C1371 C1380 1.429 . S
C1372 C1370 1.419 . S
C1372 C1373 1.363 . S
C1372 H1375 0.929 . S
C1373 C1372 1.363 . S
C1373 C1379 1.428 . S
H1374 C1370 0.930 . S
H1375 C1372 0.929 . S
S1376 N1377 1.613 . S
S1376 N1378 1.610 . S
N1377 S1376 1.613 . S
N1377 C1380 1.350 . S
N1378 S1376 1.610 . S
N1378 C1379 1.351 . S
C1379 C1373 1.428 . S
C1379 N1378 1.351 . S
C1379 C1380 1.434 . S
C1380 C1371 1.429 . S
C1380 N1377 1.350 . S
C1380 C1379 1.434 . S
C1381 C1382 1.369 . S
C1381 C1383 1.419 . S
C1381 H1385 0.930 . S
C1382 C1381 1.369 . S
C1382 C1391 1.429 . S
C1383 C1381 1.419 . S
C1383 C1384 1.363 . S
C1383 H1386 0.929 . S
C1384 C1383 1.363 . S
C1384 C1390 1.428 . S
H1385 C1381 0.930 . S
H1386 C1383 0.929 . S
S1387 N1388 1.613 . S
S1387 N1389 1.610 . S
N1388 S1387 1.613 . S
N1388 C1391 1.350 . S
N1389 S1387 1.610 . S
N1389 C1390 1.351 . S
C1390 C1384 1.428 . S
C1390 N1389 1.351 . S
C1390 C1391 1.434 . S
C1391 C1382 1.429 . S
C1391 N1388 1.350 . S
C1391 C1390 1.434 . S
C1392 C1393 1.369 1_556 S
C1392 C1394 1.419 . S
C1392 H1396 0.930 1_556 S
C1393 C1392 1.369 1_554 S
C1393 C1402 1.429 1_554 S
C1394 C1392 1.419 . S
C1394 C1395 1.363 . S
C1394 H1397 0.929 . S
C1395 C1394 1.363 . S
C1395 C1401 1.428 . S
H1396 C1392 0.930 1_554 S
H1397 C1394 0.929 . S
S1398 N1399 1.606 1_556 S
S1398 N1400 1.610 . S
N1399 S1398 1.606 1_554 S
N1399 C1402 1.339 1_554 S
N1400 S1398 1.610 . S
N1400 C1401 1.351 . S
C1401 C1395 1.428 . S
C1401 N1400 1.351 . S
C1401 C1402 1.434 . S
C1402 C1393 1.429 1_556 S
C1402 N1399 1.339 1_556 S
C1402 C1401 1.434 . S
C1403 C1404 1.369 . S
C1403 C1405 1.419 . S
C1403 H1407 0.930 . S
C1404 C1403 1.369 . S
C1404 C1413 1.429 . S
C1405 C1403 1.419 . S
C1405 C1406 1.363 . S
C1405 H1408 0.929 . S
C1406 C1405 1.363 . S
C1406 C1412 1.428 . S
H1407 C1403 0.930 . S
H1408 C1405 0.929 . S
S1409 N1410 1.611 1_556 S
S1409 N1411 1.610 1_556 S
N1410 S1409 1.611 1_554 S
N1410 C1413 1.350 . S
N1411 S1409 1.610 1_554 S
N1411 C1412 1.351 . S
C1412 C1406 1.428 . S
C1412 N1411 1.351 . S
C1412 C1413 1.434 . S
C1413 C1404 1.429 . S
C1413 N1410 1.350 . S
C1413 C1412 1.434 . S
C1414 C1415 1.369 . S
C1414 C1416 1.419 . S
C1414 H1418 0.930 . S
C1415 C1414 1.369 . S
C1415 C1424 1.429 . S
C1416 C1414 1.419 . S
C1416 C1417 1.363 . S
C1416 H1419 0.929 . S
C1417 C1416 1.363 . S
C1417 C1423 1.428 . S
H1418 C1414 0.930 . S
H1419 C1416 0.929 . S
S1420 N1421 1.613 . S
S1420 N1422 1.610 . S
N1421 S1420 1.613 . S
N1421 C1424 1.350 . S
N1422 S1420 1.610 . S
N1422 C1423 1.351 . S
C1423 C1417 1.428 . S
C1423 N1422 1.351 . S
C1423 C1424 1.434 . S
C1424 C1415 1.429 . S
C1424 N1421 1.350 . S
C1424 C1423 1.434 . S
C1425 C1426 1.369 . S
C1425 C1427 1.419 . S
C1425 H1429 0.930 . S
C1426 C1425 1.369 . S
C1426 C1435 1.429 . S
C1427 C1425 1.419 . S
C1427 C1428 1.363 . S
C1427 H1430 0.929 . S
C1428 C1427 1.363 . S
C1428 C1434 1.428 . S
H1429 C1425 0.930 . S
H1430 C1427 0.929 . S
S1431 N1432 1.613 . S
S1431 N1433 1.610 . S
N1432 S1431 1.613 . S
N1432 C1435 1.350 . S
N1433 S1431 1.610 . S
N1433 C1434 1.351 . S
C1434 C1428 1.428 . S
C1434 N1433 1.351 . S
C1434 C1435 1.434 . S
C1435 C1426 1.429 . S
C1435 N1432 1.350 . S
C1435 C1434 1.434 . S
C1436 C1437 1.369 . S
C1436 C1438 1.419 . S
C1436 H1440 0.930 . S
C1437 C1436 1.369 . S
C1437 C1446 1.429 . S
C1438 C1436 1.419 . S
C1438 C1439 1.363 . S
C1438 H1441 0.929 . S
C1439 C1438 1.363 . S
C1439 C1445 1.428 . S
H1440 C1436 0.930 . S
H1441 C1438 0.929 . S
S1442 N1443 1.613 . S
S1442 N1444 1.610 . S
N1443 S1442 1.613 . S
N1443 C1446 1.350 . S
N1444 S1442 1.610 . S
N1444 C1445 1.351 . S
C1445 C1439 1.428 . S
C1445 N1444 1.351 . S
C1445 C1446 1.434 . S
C1446 C1437 1.429 . S
C1446 N1443 1.350 . S
C1446 C1445 1.434 . S
C1447 C1448 1.369 . S
C1447 C1449 1.419 . S
C1447 H1451 0.930 . S
C1448 C1447 1.369 . S
C1448 C1457 1.429 . S
C1449 C1447 1.419 . S
C1449 C1450 1.363 . S
C1449 H1452 0.929 . S
C1450 C1449 1.363 . S
C1450 C1456 1.441 . S
H1451 C1447 0.930 . S
H1452 C1449 0.929 . S
S1453 N1454 1.613 . S
S1453 N1455 1.610 . S
N1454 S1453 1.613 . S
N1454 C1457 1.350 1_545 S
N1455 S1453 1.610 . S
N1455 C1456 1.315 1_545 S
C1456 C1450 1.441 . S
C1456 N1455 1.315 1_565 S
C1456 C1457 1.460 . S
C1457 C1448 1.429 . S
C1457 N1454 1.350 1_565 S
C1457 C1456 1.460 . S
C1458 C1459 1.369 . S
C1458 C1460 1.419 . S
C1458 H1462 0.930 . S
C1459 C1458 1.369 . S
C1459 C1468 1.429 . S
C1460 C1458 1.419 . S
C1460 C1461 1.363 . S
C1460 H1463 0.929 . S
C1461 C1460 1.363 . S
C1461 C1467 1.428 . S
H1462 C1458 0.930 . S
H1463 C1460 0.929 . S
S1464 N1465 1.613 . S
S1464 N1466 1.610 . S
N1465 S1464 1.613 . S
N1465 C1468 1.350 . S
N1466 S1464 1.610 . S
N1466 C1467 1.351 . S
C1467 C1461 1.428 . S
C1467 N1466 1.351 . S
C1467 C1468 1.434 . S
C1468 C1459 1.429 . S
C1468 N1465 1.350 . S
C1468 C1467 1.434 . S
C1469 C1470 1.369 . S
C1469 C1471 1.419 . S
C1469 H1473 0.930 . S
C1470 C1469 1.369 . S
C1470 C1479 1.429 . S
C1471 C1469 1.419 . S
C1471 C1472 1.363 . S
C1471 H1474 0.929 . S
C1472 C1471 1.363 . S
C1472 C1478 1.428 . S
H1473 C1469 0.930 . S
H1474 C1471 0.929 . S
S1475 N1476 1.613 . S
S1475 N1477 1.610 . S
N1476 S1475 1.613 . S
N1476 C1479 1.350 . S
N1477 S1475 1.610 . S
N1477 C1478 1.351 . S
C1478 C1472 1.428 . S
C1478 N1477 1.351 . S
C1478 C1479 1.434 . S
C1479 C1470 1.429 . S
C1479 N1476 1.350 . S
C1479 C1478 1.434 . S
C1480 C1481 1.369 . S
C1480 C1482 1.419 . S
C1480 H1484 0.930 . S
C1481 C1480 1.369 . S
C1481 C1490 1.429 . S
C1482 C1480 1.419 . S
C1482 C1483 1.363 . S
C1482 H1485 0.929 . S
C1483 C1482 1.363 . S
C1483 C1489 1.428 . S
H1484 C1480 0.930 . S
H1485 C1482 0.929 . S
S1486 N1487 1.613 . S
S1486 N1488 1.610 . S
N1487 S1486 1.613 . S
N1487 C1490 1.350 . S
N1488 S1486 1.610 . S
N1488 C1489 1.351 . S
C1489 C1483 1.428 . S
C1489 N1488 1.351 . S
C1489 C1490 1.434 . S
C1490 C1481 1.429 . S
C1490 N1487 1.350 . S
C1490 C1489 1.434 . S
C1491 C1492 1.369 . S
C1491 C1493 1.419 . S
C1491 H1495 0.930 . S
C1492 C1491 1.369 . S
C1492 C1501 1.429 . S
C1493 C1491 1.419 . S
C1493 C1494 1.363 . S
C1493 H1496 0.929 . S
C1494 C1493 1.363 . S
C1494 C1500 1.428 . S
H1495 C1491 0.930 . S
H1496 C1493 0.929 . S
S1497 N1498 1.613 . S
S1497 N1499 1.610 . S
N1498 S1497 1.613 . S
N1498 C1501 1.350 . S
N1499 S1497 1.610 . S
N1499 C1500 1.351 . S
C1500 C1494 1.428 . S
C1500 N1499 1.351 . S
C1500 C1501 1.434 . S
C1501 C1492 1.429 . S
C1501 N1498 1.350 . S
C1501 C1500 1.434 . S
C1502 C1503 1.369 1_655 S
C1502 C1504 1.419 . S
C1502 H1506 0.930 . S
C1503 C1502 1.369 1_455 S
C1503 C1512 1.429 . S
C1504 C1502 1.419 . S
C1504 C1505 1.363 1_655 S
C1504 H1507 0.929 . S
C1505 C1504 1.363 1_455 S
C1505 C1511 1.428 . S
H1506 C1502 0.930 . S
H1507 C1504 0.929 . S
S1508 N1509 1.613 . S
S1508 N1510 1.610 . S
N1509 S1508 1.613 . S
N1509 C1512 1.350 . S
N1510 S1508 1.610 . S
N1510 C1511 1.351 . S
C1511 C1505 1.428 . S
C1511 N1510 1.351 . S
C1511 C1512 1.434 . S
C1512 C1503 1.429 . S
C1512 N1509 1.350 . S
C1512 C1511 1.434 . S
C1513 C1514 1.369 . S
C1513 C1515 1.419 . S
C1513 H1517 0.930 . S
C1514 C1513 1.369 . S
C1514 C1523 1.429 . S
C1515 C1513 1.419 . S
C1515 C1516 1.363 . S
C1515 H1518 0.929 1_455 S
C1516 C1515 1.363 . S
C1516 C1522 1.428 . S
H1517 C1513 0.930 . S
H1518 C1515 0.929 1_655 S
S1519 N1520 1.613 . S
S1519 N1521 1.610 . S
N1520 S1519 1.613 . S
N1520 C1523 1.350 . S
N1521 S1519 1.610 . S
N1521 C1522 1.351 . S
C1522 C1516 1.428 . S
C1522 N1521 1.351 . S
C1522 C1523 1.434 . S
C1523 C1514 1.429 . S
C1523 N1520 1.350 . S
C1523 C1522 1.434 . S
C1524 C1525 1.369 . S
C1524 C1526 1.419 . S
C1524 H1528 0.930 . S
C1525 C1524 1.369 . S
C1525 C1534 1.429 . S
C1526 C1524 1.419 . S
C1526 C1527 1.363 . S
C1526 H1529 0.929 . S
C1527 C1526 1.363 . S
C1527 C1533 1.428 . S
H1528 C1524 0.930 . S
H1529 C1526 0.929 . S
S1530 N1531 1.613 . S
S1530 N1532 1.610 . S
N1531 S1530 1.613 . S
N1531 C1534 1.350 . S
N1532 S1530 1.610 . S
N1532 C1533 1.351 . S
C1533 C1527 1.428 . S
C1533 N1532 1.351 . S
C1533 C1534 1.434 . S
C1534 C1525 1.429 . S
C1534 N1531 1.350 . S
C1534 C1533 1.434 . S
C1535 C1536 1.369 . S
C1535 C1537 1.419 . S
C1535 H1539 0.930 . S
C1536 C1535 1.369 . S
C1536 C1545 1.429 . S
C1537 C1535 1.419 . S
C1537 C1538 1.363 . S
C1537 H1540 0.929 . S
C1538 C1537 1.363 . S
C1538 C1544 1.428 . S
H1539 C1535 0.930 . S
H1540 C1537 0.929 . S
S1541 N1542 1.613 . S
S1541 N1543 1.610 . S
N1542 S1541 1.613 . S
N1542 C1545 1.350 . S
N1543 S1541 1.610 . S
N1543 C1544 1.351 . S
C1544 C1538 1.428 . S
C1544 N1543 1.351 . S
C1544 C1545 1.434 . S
C1545 C1536 1.429 . S
C1545 N1542 1.350 . S
C1545 C1544 1.434 . S
C1546 C1547 1.369 . S
C1546 C1548 1.419 . S
C1546 H1550 0.930 1_455 S
C1547 C1546 1.369 . S
C1547 C1556 1.429 . S
C1548 C1546 1.419 . S
C1548 C1549 1.363 . S
C1548 H1551 0.929 1_455 S
C1549 C1548 1.363 . S
C1549 C1555 1.428 . S
H1550 C1546 0.930 1_655 S
H1551 C1548 0.929 1_655 S
S1552 N1553 1.613 . S
S1552 N1554 1.610 . S
N1553 S1552 1.613 . S
N1553 C1556 1.350 . S
N1554 S1552 1.610 . S
N1554 C1555 1.351 . S
C1555 C1549 1.428 . S
C1555 N1554 1.351 . S
C1555 C1556 1.434 . S
C1556 C1547 1.429 . S
C1556 N1553 1.350 . S
C1556 C1555 1.434 . S
C1557 C1558 1.369 . S
C1557 C1559 1.419 . S
C1557 H1561 0.930 . S
C1558 C1557 1.369 . S
C1558 C1567 1.429 . S
C1559 C1557 1.419 . S
C1559 C1560 1.363 . S
C1559 H1562 0.929 . S
C1560 C1559 1.363 . S
C1560 C1566 1.428 . S
H1561 C1557 0.930 . S
H1562 C1559 0.929 . S
S1563 N1564 1.613 . S
S1563 N1565 1.610 . S
N1564 S1563 1.613 . S
N1564 C1567 1.350 . S
N1565 S1563 1.610 . S
N1565 C1566 1.351 . S
C1566 C1560 1.428 . S
C1566 N1565 1.351 . S
C1566 C1567 1.434 . S
C1567 C1558 1.429 . S
C1567 N1564 1.350 . S
C1567 C1566 1.434 . S
C1568 C1569 1.369 . S
C1568 C1570 1.419 . S
C1568 H1572 0.930 . S
C1569 C1568 1.369 . S
C1569 C1578 1.429 . S
C1570 C1568 1.419 . S
C1570 C1571 1.363 . S
C1570 H1573 0.929 . S
C1571 C1570 1.363 . S
C1571 C1577 1.428 . S
H1572 C1568 0.930 . S
H1573 C1570 0.929 . S
S1574 N1575 1.613 . S
S1574 N1576 1.610 . S
N1575 S1574 1.613 . S
N1575 C1578 1.350 . S
N1576 S1574 1.610 . S
N1576 C1577 1.351 . S
C1577 C1571 1.428 . S
C1577 N1576 1.351 . S
C1577 C1578 1.434 . S
C1578 C1569 1.429 . S
C1578 N1575 1.350 . S
C1578 C1577 1.434 . S
C1579 C1580 1.369 . S
C1579 C1581 1.419 . S
C1579 H1583 0.930 . S
C1580 C1579 1.369 . S
C1580 C1589 1.429 . S
C1581 C1579 1.419 . S
C1581 C1582 1.363 . S
C1581 H1584 0.929 . S
C1582 C1581 1.363 . S
C1582 C1588 1.428 . S
H1583 C1579 0.930 . S
H1584 C1581 0.929 . S
S1585 N1586 1.613 . S
S1585 N1587 1.610 . S
N1586 S1585 1.613 . S
N1586 C1589 1.350 . S
N1587 S1585 1.610 . S
N1587 C1588 1.351 . S
C1588 C1582 1.428 . S
C1588 N1587 1.351 . S
C1588 C1589 1.434 . S
C1589 C1580 1.429 . S
C1589 N1586 1.350 . S
C1589 C1588 1.434 . S
C1590 C1591 1.369 . S
C1590 C1592 1.419 . S
C1590 H1594 0.930 . S
C1591 C1590 1.369 . S
C1591 C1600 1.429 . S
C1592 C1590 1.419 . S
C1592 C1593 1.363 . S
C1592 H1595 0.929 . S
C1593 C1592 1.363 . S
C1593 C1599 1.428 . S
H1594 C1590 0.930 . S
H1595 C1592 0.929 . S
S1596 N1597 1.613 . S
S1596 N1598 1.610 . S
N1597 S1596 1.613 . S
N1597 C1600 1.350 . S
N1598 S1596 1.610 . S
N1598 C1599 1.351 . S
C1599 C1593 1.428 . S
C1599 N1598 1.351 . S
C1599 C1600 1.434 . S
C1600 C1591 1.429 . S
C1600 N1597 1.350 . S
C1600 C1599 1.434 . S
C1601 C1602 1.369 . S
C1601 C1603 1.419 . S
C1601 H1605 0.930 . S
C1602 C1601 1.369 . S
C1602 C1611 1.429 . S
C1603 C1601 1.419 . S
C1603 C1604 1.363 . S
C1603 H1606 0.929 . S
C1604 C1603 1.363 . S
C1604 C1610 1.428 . S
H1605 C1601 0.930 . S
H1606 C1603 0.929 . S
S1607 N1608 1.613 . S
S1607 N1609 1.610 . S
N1608 S1607 1.613 . S
N1608 C1611 1.350 . S
N1609 S1607 1.610 . S
N1609 C1610 1.351 . S
C1610 C1604 1.428 . S
C1610 N1609 1.351 . S
C1610 C1611 1.434 . S
C1611 C1602 1.429 . S
C1611 N1608 1.350 . S
C1611 C1610 1.434 . S
C1612 C1613 1.369 . S
C1612 C1614 1.419 . S
C1612 H1616 0.930 . S
C1613 C1612 1.369 . S
C1613 C1622 1.429 . S
C1614 C1612 1.419 . S
C1614 C1615 1.363 . S
C1614 H1617 0.929 . S
C1615 C1614 1.363 . S
C1615 C1621 1.428 . S
H1616 C1612 0.930 . S
H1617 C1614 0.929 . S
S1618 N1619 1.613 . S
S1618 N1620 1.610 . S
N1619 S1618 1.613 . S
N1619 C1622 1.350 . S
N1620 S1618 1.610 . S
N1620 C1621 1.351 . S
C1621 C1615 1.428 . S
C1621 N1620 1.351 . S
C1621 C1622 1.434 . S
C1622 C1613 1.429 . S
C1622 N1619 1.350 . S
C1622 C1621 1.434 . S
C1623 C1624 1.369 . S
C1623 C1625 1.419 . S
C1623 H1627 0.930 . S
C1624 C1623 1.369 . S
C1624 C1633 1.429 . S
C1625 C1623 1.419 . S
C1625 C1626 1.363 . S
C1625 H1628 0.929 . S
C1626 C1625 1.363 . S
C1626 C1632 1.428 . S
H1627 C1623 0.930 . S
H1628 C1625 0.929 . S
S1629 N1630 1.613 . S
S1629 N1631 1.610 . S
N1630 S1629 1.613 . S
N1630 C1633 1.350 . S
N1631 S1629 1.610 . S
N1631 C1632 1.351 . S
C1632 C1626 1.428 . S
C1632 N1631 1.351 . S
C1632 C1633 1.434 . S
C1633 C1624 1.429 . S
C1633 N1630 1.350 . S
C1633 C1632 1.434 . S
C1634 C1635 1.369 . S
C1634 C1636 1.419 . S
C1634 H1638 0.930 . S
C1635 C1634 1.369 . S
C1635 C1644 1.429 . S
C1636 C1634 1.419 . S
C1636 C1637 1.363 . S
C1636 H1639 0.929 . S
C1637 C1636 1.363 . S
C1637 C1643 1.428 . S
H1638 C1634 0.930 . S
H1639 C1636 0.929 . S
S1640 N1641 1.613 . S
S1640 N1642 1.610 . S
N1641 S1640 1.613 . S
N1641 C1644 1.350 . S
N1642 S1640 1.610 . S
N1642 C1643 1.351 . S
C1643 C1637 1.428 . S
C1643 N1642 1.351 . S
C1643 C1644 1.434 . S
C1644 C1635 1.429 . S
C1644 N1641 1.350 . S
C1644 C1643 1.434 . S
C1645 C1646 1.369 . S
C1645 C1647 1.419 . S
C1645 H1649 0.930 . S
C1646 C1645 1.369 . S
C1646 C1655 1.429 . S
C1647 C1645 1.419 . S
C1647 C1648 1.363 . S
C1647 H1650 0.929 . S
C1648 C1647 1.363 . S
C1648 C1654 1.428 . S
H1649 C1645 0.930 . S
H1650 C1647 0.929 . S
S1651 N1652 1.613 . S
S1651 N1653 1.610 . S
N1652 S1651 1.613 . S
N1652 C1655 1.350 . S
N1653 S1651 1.610 . S
N1653 C1654 1.351 . S
C1654 C1648 1.428 . S
C1654 N1653 1.351 . S
C1654 C1655 1.434 . S
C1655 C1646 1.429 . S
C1655 N1652 1.350 . S
C1655 C1654 1.434 . S
C1656 C1657 1.369 . S
C1656 C1658 1.419 . S
C1656 H1660 0.930 . S
C1657 C1656 1.369 . S
C1657 C1666 1.429 . S
C1658 C1656 1.419 . S
C1658 C1659 1.363 . S
C1658 H1661 0.929 . S
C1659 C1658 1.363 . S
C1659 C1665 1.428 . S
H1660 C1656 0.930 . S
H1661 C1658 0.929 . S
S1662 N1663 1.613 . S
S1662 N1664 1.610 . S
N1663 S1662 1.613 . S
N1663 C1666 1.350 . S
N1664 S1662 1.610 . S
N1664 C1665 1.351 . S
C1665 C1659 1.428 . S
C1665 N1664 1.351 . S
C1665 C1666 1.434 . S
C1666 C1657 1.429 . S
C1666 N1663 1.350 . S
C1666 C1665 1.434 . S
C1667 C1668 1.369 . S
C1667 C1669 1.419 . S
C1667 H1671 0.930 . S
C1668 C1667 1.369 . S
C1668 C1677 1.429 . S
C1669 C1667 1.419 . S
C1669 C1670 1.363 . S
C1669 H1672 0.929 . S
C1670 C1669 1.363 . S
C1670 C1676 1.428 . S
H1671 C1667 0.930 . S
H1672 C1669 0.929 . S
S1673 N1674 1.613 . S
S1673 N1675 1.610 . S
N1674 S1673 1.613 . S
N1674 C1677 1.350 . S
N1675 S1673 1.610 . S
N1675 C1676 1.351 . S
C1676 C1670 1.428 . S
C1676 N1675 1.351 . S
C1676 C1677 1.434 . S
C1677 C1668 1.429 . S
C1677 N1674 1.350 . S
C1677 C1676 1.434 . S
C1678 C1679 1.369 1_565 S
C1678 C1680 1.419 . S
C1678 H1682 0.930 . S
C1679 C1678 1.369 1_545 S
C1679 C1688 1.429 . S
C1680 C1678 1.419 . S
C1680 C1681 1.363 . S
C1680 H1683 0.929 . S
C1681 C1680 1.363 . S
C1681 C1687 1.428 1_565 S
H1682 C1678 0.930 . S
H1683 C1680 0.929 . S
S1684 N1685 1.613 . S
S1684 N1686 1.610 . S
N1685 S1684 1.613 . S
N1685 C1688 1.350 . S
N1686 S1684 1.610 . S
N1686 C1687 1.351 . S
C1687 C1681 1.428 1_545 S
C1687 N1686 1.351 . S
C1687 C1688 1.434 . S
C1688 C1679 1.429 . S
C1688 N1685 1.350 . S
C1688 C1687 1.434 . S
C1689 C1690 1.369 . S
C1689 C1691 1.419 . S
C1689 H1693 0.930 . S
C1690 C1689 1.369 . S
C1690 C1699 1.429 . S
C1691 C1689 1.419 . S
C1691 C1692 1.349 1_565 S
C1691 H1694 0.946 . S
C1692 C1691 1.349 1_545 S
C1692 C1698 1.413 1_545 S
H1693 C1689 0.930 . S
H1694 C1691 0.946 . S
S1695 N1696 1.613 . S
S1695 N1697 1.610 1_565 S
N1696 S1695 1.613 . S
N1696 C1699 1.350 . S
N1697 S1695 1.610 1_545 S
N1697 C1698 1.351 1_545 S
C1698 C1692 1.413 1_565 S
C1698 N1697 1.351 1_565 S
C1698 C1699 1.434 . S
C1699 C1690 1.429 . S
C1699 N1696 1.350 . S
C1699 C1698 1.434 . S
C1700 C1701 1.369 . S
C1700 C1702 1.419 . S
C1700 H1704 0.930 . S
C1701 C1700 1.369 . S
C1701 C1710 1.429 . S
C1702 C1700 1.419 . S
C1702 C1703 1.363 . S
C1702 H1705 0.929 . S
C1703 C1702 1.363 . S
C1703 C1709 1.428 . S
H1704 C1700 0.930 . S
H1705 C1702 0.929 . S
S1706 N1707 1.613 . S
S1706 N1708 1.610 . S
N1707 S1706 1.613 . S
N1707 C1710 1.350 . S
N1708 S1706 1.610 . S
N1708 C1709 1.351 . S
C1709 C1703 1.428 . S
C1709 N1708 1.351 . S
C1709 C1710 1.434 . S
C1710 C1701 1.429 . S
C1710 N1707 1.350 . S
C1710 C1709 1.434 . S
C1711 C1712 1.369 . S
C1711 C1713 1.419 . S
C1711 H1715 0.930 1_554 S
C1712 C1711 1.369 . S
C1712 C1721 1.429 . S
C1713 C1711 1.419 . S
C1713 C1714 1.363 . S
C1713 H1716 0.929 1_554 S
C1714 C1713 1.363 . S
C1714 C1720 1.428 . S
H1715 C1711 0.930 1_556 S
H1716 C1713 0.929 1_556 S
S1717 N1718 1.613 . S
S1717 N1719 1.610 . S
N1718 S1717 1.613 . S
N1718 C1721 1.350 . S
N1719 S1717 1.610 . S
N1719 C1720 1.351 . S
C1720 C1714 1.428 . S
C1720 N1719 1.351 . S
C1720 C1721 1.434 . S
C1721 C1712 1.429 . S
C1721 N1718 1.350 . S
C1721 C1720 1.434 . S
C1722 C1723 1.369 . S
C1722 C1724 1.419 . S
C1722 H1726 0.930 . S
C1723 C1722 1.369 . S
C1723 C1732 1.429 . S
C1724 C1722 1.419 . S
C1724 C1725 1.363 . S
C1724 H1727 0.929 . S
C1725 C1724 1.363 . S
C1725 C1731 1.428 . S
H1726 C1722 0.930 . S
H1727 C1724 0.929 . S
S1728 N1729 1.613 . S
S1728 N1730 1.610 . S
N1729 S1728 1.613 . S
N1729 C1732 1.350 . S
N1730 S1728 1.610 . S
N1730 C1731 1.351 . S
C1731 C1725 1.428 . S
C1731 N1730 1.351 . S
C1731 C1732 1.434 . S
C1732 C1723 1.429 . S
C1732 N1729 1.350 . S
C1732 C1731 1.434 . S
C1733 C1734 1.369 1_565 S
C1733 C1735 1.419 . S
C1733 H1737 0.930 . S
C1734 C1733 1.369 1_545 S
C1734 C1743 1.429 . S
C1735 C1733 1.419 . S
C1735 C1736 1.363 . S
C1735 H1738 0.929 . S
C1736 C1735 1.363 . S
C1736 C1742 1.428 1_565 S
H1737 C1733 0.930 . S
H1738 C1735 0.929 . S
S1739 N1740 1.613 . S
S1739 N1741 1.610 . S
N1740 S1739 1.613 . S
N1740 C1743 1.350 . S
N1741 S1739 1.610 . S
N1741 C1742 1.351 . S
C1742 C1736 1.428 1_545 S
C1742 N1741 1.351 . S
C1742 C1743 1.434 . S
C1743 C1734 1.429 . S
C1743 N1740 1.350 . S
C1743 C1742 1.434 . S
C1744 C1745 1.369 . S
C1744 C1746 1.419 . S
C1744 H1748 0.930 . S
C1745 C1744 1.369 . S
C1745 C1754 1.429 . S
C1746 C1744 1.419 . S
C1746 C1747 1.363 . S
C1746 H1749 0.929 . S
C1747 C1746 1.363 . S
C1747 C1753 1.428 . S
H1748 C1744 0.930 . S
H1749 C1746 0.929 . S
S1750 N1751 1.613 . S
S1750 N1752 1.610 . S
N1751 S1750 1.613 . S
N1751 C1754 1.350 . S
N1752 S1750 1.610 . S
N1752 C1753 1.351 . S
C1753 C1747 1.428 . S
C1753 N1752 1.351 . S
C1753 C1754 1.434 . S
C1754 C1745 1.429 . S
C1754 N1751 1.350 . S
C1754 C1753 1.434 . S
C1755 C1756 1.369 . S
C1755 C1757 1.419 . S
C1755 H1759 0.930 . S
C1756 C1755 1.369 . S
C1756 C1765 1.429 . S
C1757 C1755 1.419 . S
C1757 C1758 1.363 . S
C1757 H1760 0.929 . S
C1758 C1757 1.363 . S
C1758 C1764 1.428 . S
H1759 C1755 0.930 . S
H1760 C1757 0.929 . S
S1761 N1762 1.613 . S
S1761 N1763 1.610 . S
N1762 S1761 1.613 . S
N1762 C1765 1.350 . S
N1763 S1761 1.610 . S
N1763 C1764 1.351 . S
C1764 C1758 1.428 . S
C1764 N1763 1.351 . S
C1764 C1765 1.434 . S
C1765 C1756 1.429 . S
C1765 N1762 1.350 . S
C1765 C1764 1.434 . S
C1766 C1767 1.369 . S
C1766 C1768 1.419 . S
C1766 H1770 0.930 . S
C1767 C1766 1.369 . S
C1767 C1776 1.429 . S
C1768 C1766 1.419 . S
C1768 C1769 1.363 . S
C1768 H1771 0.929 . S
C1769 C1768 1.363 . S
C1769 C1775 1.428 . S
H1770 C1766 0.930 . S
H1771 C1768 0.929 . S
S1772 N1773 1.613 . S
S1772 N1774 1.610 . S
N1773 S1772 1.613 . S
N1773 C1776 1.350 . S
N1774 S1772 1.610 . S
N1774 C1775 1.351 . S
C1775 C1769 1.428 . S
C1775 N1774 1.351 . S
C1775 C1776 1.434 . S
C1776 C1767 1.429 . S
C1776 N1773 1.350 . S
C1776 C1775 1.434 . S
C1777 C1778 1.369 . S
C1777 C1779 1.419 . S
C1777 H1781 0.930 . S
C1778 C1777 1.369 . S
C1778 C1787 1.429 . S
C1779 C1777 1.419 . S
C1779 C1780 1.363 . S
C1779 H1782 0.929 . S
C1780 C1779 1.363 . S
C1780 C1786 1.428 . S
H1781 C1777 0.930 . S
H1782 C1779 0.929 . S
S1783 N1784 1.613 . S
S1783 N1785 1.610 . S
N1784 S1783 1.613 . S
N1784 C1787 1.350 . S
N1785 S1783 1.610 . S
N1785 C1786 1.351 . S
C1786 C1780 1.428 . S
C1786 N1785 1.351 . S
C1786 C1787 1.434 . S
C1787 C1778 1.429 . S
C1787 N1784 1.350 . S
C1787 C1786 1.434 . S
C1788 C1789 1.369 . S
C1788 C1790 1.419 . S
C1788 H1792 0.930 . S
C1789 C1788 1.369 . S
C1789 C1798 1.429 . S
C1790 C1788 1.419 . S
C1790 C1791 1.363 . S
C1790 H1793 0.929 . S
C1791 C1790 1.363 . S
C1791 C1797 1.428 . S
H1792 C1788 0.930 . S
H1793 C1790 0.929 . S
S1794 N1795 1.613 . S
S1794 N1796 1.610 . S
N1795 S1794 1.613 . S
N1795 C1798 1.350 . S
N1796 S1794 1.610 . S
N1796 C1797 1.351 . S
C1797 C1791 1.428 . S
C1797 N1796 1.351 . S
C1797 C1798 1.434 . S
C1798 C1789 1.429 . S
C1798 N1795 1.350 . S
C1798 C1797 1.434 . S
C1799 C1800 1.369 . S
C1799 C1801 1.419 . S
C1799 H1803 0.930 . S
C1800 C1799 1.369 . S
C1800 C1809 1.429 . S
C1801 C1799 1.419 . S
C1801 C1802 1.363 . S
C1801 H1804 0.929 . S
C1802 C1801 1.363 . S
C1802 C1808 1.428 . S
H1803 C1799 0.930 . S
H1804 C1801 0.929 . S
S1805 N1806 1.613 . S
S1805 N1807 1.610 . S
N1806 S1805 1.613 . S
N1806 C1809 1.350 . S
N1807 S1805 1.610 . S
N1807 C1808 1.351 . S
C1808 C1802 1.428 . S
C1808 N1807 1.351 . S
C1808 C1809 1.434 . S
C1809 C1800 1.429 . S
C1809 N1806 1.350 . S
C1809 C1808 1.434 . S
C1810 C1811 1.369 . S
C1810 C1812 1.419 . S
C1810 H1814 0.930 . S
C1811 C1810 1.369 . S
C1811 C1820 1.429 . S
C1812 C1810 1.419 . S
C1812 C1813 1.363 . S
C1812 H1815 0.929 . S
C1813 C1812 1.363 . S
C1813 C1819 1.428 . S
H1814 C1810 0.930 . S
H1815 C1812 0.929 . S
S1816 N1817 1.613 . S
S1816 N1818 1.610 . S
N1817 S1816 1.613 . S
N1817 C1820 1.350 . S
N1818 S1816 1.610 . S
N1818 C1819 1.351 . S
C1819 C1813 1.428 . S
C1819 N1818 1.351 . S
C1819 C1820 1.434 . S
C1820 C1811 1.429 . S
C1820 N1817 1.350 . S
C1820 C1819 1.434 . S
C1821 C1822 1.369 . S
C1821 C1823 1.419 . S
C1821 H1825 0.930 . S
C1822 C1821 1.369 . S
C1822 C1831 1.429 . S
C1823 C1821 1.419 . S
C1823 C1824 1.363 . S
C1823 H1826 0.929 . S
C1824 C1823 1.363 . S
C1824 C1830 1.428 . S
H1825 C1821 0.930 . S
H1826 C1823 0.929 . S
S1827 N1828 1.613 . S
S1827 N1829 1.610 . S
N1828 S1827 1.613 . S
N1828 C1831 1.350 . S
N1829 S1827 1.610 . S
N1829 C1830 1.351 . S
C1830 C1824 1.428 . S
C1830 N1829 1.351 . S
C1830 C1831 1.434 . S
C1831 C1822 1.429 . S
C1831 N1828 1.350 . S
C1831 C1830 1.434 . S
C1832 C1833 1.369 . S
C1832 C1834 1.419 . S
C1832 H1836 0.930 . S
C1833 C1832 1.369 . S
C1833 C1842 1.429 . S
C1834 C1832 1.419 . S
C1834 C1835 1.363 . S
C1834 H1837 0.929 . S
C1835 C1834 1.363 . S
C1835 C1841 1.428 . S
H1836 C1832 0.930 . S
H1837 C1834 0.929 . S
S1838 N1839 1.613 . S
S1838 N1840 1.610 . S
N1839 S1838 1.613 . S
N1839 C1842 1.350 . S
N1840 S1838 1.610 . S
N1840 C1841 1.351 . S
C1841 C1835 1.428 . S
C1841 N1840 1.351 . S
C1841 C1842 1.434 . S
C1842 C1833 1.429 . S
C1842 N1839 1.350 . S
C1842 C1841 1.434 . S
C1843 C1844 1.369 . S
C1843 C1845 1.419 . S
C1843 H1847 0.930 . S
C1844 C1843 1.369 . S
C1844 C1853 1.429 . S
C1845 C1843 1.419 . S
C1845 C1846 1.363 . S
C1845 H1848 0.929 . S
C1846 C1845 1.363 . S
C1846 C1852 1.428 . S
H1847 C1843 0.930 . S
H1848 C1845 0.929 . S
S1849 N1850 1.613 . S
S1849 N1851 1.610 . S
N1850 S1849 1.613 . S
N1850 C1853 1.350 . S
N1851 S1849 1.610 . S
N1851 C1852 1.351 . S
C1852 C1846 1.428 . S
C1852 N1851 1.351 . S
C1852 C1853 1.434 . S
C1853 C1844 1.429 . S
C1853 N1850 1.350 . S
C1853 C1852 1.434 . S
C1854 C1855 1.369 . S
C1854 C1856 1.419 . S
C1854 H1858 0.930 . S
C1855 C1854 1.369 . S
C1855 C1864 1.429 . S
C1856 C1854 1.419 . S
C1856 C1857 1.363 . S
C1856 H1859 0.929 . S
C1857 C1856 1.363 . S
C1857 C1863 1.428 . S
H1858 C1854 0.930 . S
H1859 C1856 0.929 . S
S1860 N1861 1.613 . S
S1860 N1862 1.610 . S
N1861 S1860 1.613 . S
N1861 C1864 1.350 . S
N1862 S1860 1.610 . S
N1862 C1863 1.351 . S
C1863 C1857 1.428 . S
C1863 N1862 1.351 . S
C1863 C1864 1.434 . S
C1864 C1855 1.429 . S
C1864 N1861 1.350 . S
C1864 C1863 1.434 . S
C1865 C1866 1.369 . S
C1865 C1867 1.419 . S
C1865 H1869 0.930 . S
C1866 C1865 1.369 . S
C1866 C1875 1.429 . S
C1867 C1865 1.419 . S
C1867 C1868 1.363 . S
C1867 H1870 0.929 . S
C1868 C1867 1.363 . S
C1868 C1874 1.428 . S
H1869 C1865 0.930 . S
H1870 C1867 0.929 . S
S1871 N1872 1.613 . S
S1871 N1873 1.610 . S
N1872 S1871 1.613 . S
N1872 C1875 1.350 . S
N1873 S1871 1.610 . S
N1873 C1874 1.351 . S
C1874 C1868 1.428 . S
C1874 N1873 1.351 . S
C1874 C1875 1.434 . S
C1875 C1866 1.429 . S
C1875 N1872 1.350 . S
C1875 C1874 1.434 . S
C1876 C1877 1.369 . S
C1876 C1878 1.419 . S
C1876 H1880 0.930 . S
C1877 C1876 1.369 . S
C1877 C1886 1.429 . S
C1878 C1876 1.419 . S
C1878 C1879 1.363 . S
C1878 H1881 0.929 . S
C1879 C1878 1.363 . S
C1879 C1885 1.428 . S
H1880 C1876 0.930 . S
H1881 C1878 0.929 . S
S1882 N1883 1.613 . S
S1882 N1884 1.610 . S
N1883 S1882 1.613 . S
N1883 C1886 1.350 . S
N1884 S1882 1.610 . S
N1884 C1885 1.351 . S
C1885 C1879 1.428 . S
C1885 N1884 1.351 . S
C1885 C1886 1.434 . S
C1886 C1877 1.429 . S
C1886 N1883 1.350 . S
C1886 C1885 1.434 . S
C1887 C1888 1.369 . S
C1887 C1889 1.419 . S
C1887 H1891 0.930 . S
C1888 C1887 1.369 . S
C1888 C1897 1.429 . S
C1889 C1887 1.419 . S
C1889 C1890 1.363 . S
C1889 H1892 0.929 . S
C1890 C1889 1.363 . S
C1890 C1896 1.428 . S
H1891 C1887 0.930 . S
H1892 C1889 0.929 . S
S1893 N1894 1.613 . S
S1893 N1895 1.610 . S
N1894 S1893 1.613 . S
N1894 C1897 1.350 . S
N1895 S1893 1.610 . S
N1895 C1896 1.351 . S
C1896 C1890 1.428 . S
C1896 N1895 1.351 . S
C1896 C1897 1.434 . S
C1897 C1888 1.429 . S
C1897 N1894 1.350 . S
C1897 C1896 1.434 . S
C1898 C1899 1.369 1_655 S
C1898 C1900 1.419 . S
C1898 H1902 0.930 . S
C1899 C1898 1.369 1_455 S
C1899 C1908 1.429 . S
C1900 C1898 1.419 . S
C1900 C1901 1.363 1_655 S
C1900 H1903 0.929 . S
C1901 C1900 1.363 1_455 S
C1901 C1907 1.428 . S
H1902 C1898 0.930 . S
H1903 C1900 0.929 . S
S1904 N1905 1.613 . S
S1904 N1906 1.610 . S
N1905 S1904 1.613 . S
N1905 C1908 1.350 . S
N1906 S1904 1.610 . S
N1906 C1907 1.351 . S
C1907 C1901 1.428 . S
C1907 N1906 1.351 . S
C1907 C1908 1.434 . S
C1908 C1899 1.429 . S
C1908 N1905 1.350 . S
C1908 C1907 1.434 . S
C1909 C1910 1.369 . S
C1909 C1911 1.419 . S
C1909 H1913 0.930 . S
C1910 C1909 1.369 . S
C1910 C1919 1.429 . S
C1911 C1909 1.419 . S
C1911 C1912 1.363 . S
C1911 H1914 0.929 . S
C1912 C1911 1.363 . S
C1912 C1918 1.428 . S
H1913 C1909 0.930 . S
H1914 C1911 0.929 . S
S1915 N1916 1.613 . S
S1915 N1917 1.610 . S
N1916 S1915 1.613 . S
N1916 C1919 1.350 . S
N1917 S1915 1.610 . S
N1917 C1918 1.351 . S
C1918 C1912 1.428 . S
C1918 N1917 1.351 . S
C1918 C1919 1.434 . S
C1919 C1910 1.429 . S
C1919 N1916 1.350 . S
C1919 C1918 1.434 . S
C1920 C1921 1.369 . S
C1920 C1922 1.419 . S
C1920 H1924 0.930 . S
C1921 C1920 1.369 . S
C1921 C1930 1.429 . S
C1922 C1920 1.419 . S
C1922 C1923 1.363 . S
C1922 H1925 0.929 . S
C1923 C1922 1.363 . S
C1923 C1929 1.428 . S
H1924 C1920 0.930 . S
H1925 C1922 0.929 . S
S1926 N1927 1.613 . S
S1926 N1928 1.610 . S
N1927 S1926 1.613 . S
N1927 C1930 1.350 . S
N1928 S1926 1.610 . S
N1928 C1929 1.351 . S
C1929 C1923 1.428 . S
C1929 N1928 1.351 . S
C1929 C1930 1.434 . S
C1930 C1921 1.429 . S
C1930 N1927 1.350 . S
C1930 C1929 1.434 . S
C1931 C1932 1.369 . S
C1931 C1933 1.419 1_565 S
C1931 H1935 0.902 1_565 S
C1932 C1931 1.369 . S
C1932 C1941 1.429 . S
C1933 C1931 1.419 1_545 S
C1933 C1934 1.363 1_545 S
C1933 H1936 0.929 . S
C1934 C1933 1.363 1_565 S
C1934 C1940 1.428 . S
H1935 C1931 0.902 1_545 S
H1936 C1933 0.929 . S
S1937 N1938 1.613 . S
S1937 N1939 1.610 . S
N1938 S1937 1.613 . S
N1938 C1941 1.350 . S
N1939 S1937 1.610 . S
N1939 C1940 1.351 . S
C1940 C1934 1.428 . S
C1940 N1939 1.351 . S
C1940 C1941 1.434 . S
C1941 C1932 1.429 . S
C1941 N1938 1.350 . S
C1941 C1940 1.434 . S
C1942 C1943 1.369 . S
C1942 C1944 1.419 . S
C1942 H1946 0.930 . S
C1943 C1942 1.369 . S
C1943 C1952 1.429 . S
C1944 C1942 1.419 . S
C1944 C1945 1.363 . S
C1944 H1947 0.929 . S
C1945 C1944 1.363 . S
C1945 C1951 1.428 . S
H1946 C1942 0.930 . S
H1947 C1944 0.929 . S
S1948 N1949 1.613 . S
S1948 N1950 1.610 . S
N1949 S1948 1.613 . S
N1949 C1952 1.350 . S
N1950 S1948 1.610 . S
N1950 C1951 1.351 . S
C1951 C1945 1.428 . S
C1951 N1950 1.351 . S
C1951 C1952 1.434 . S
C1952 C1943 1.429 . S
C1952 N1949 1.350 . S
C1952 C1951 1.434 . S
C1953 C1954 1.369 1_554 S
C1953 C1955 1.419 . S
C1953 H1957 0.930 . S
C1954 C1953 1.369 1_556 S
C1954 C1963 1.429 . S
C1955 C1953 1.419 . S
C1955 C1956 1.363 1_554 S
C1955 H1958 0.929 . S
C1956 C1955 1.363 1_556 S
C1956 C1962 1.428 . S
H1957 C1953 0.930 . S
H1958 C1955 0.929 . S
S1959 N1960 1.613 . S
S1959 N1961 1.610 . S
N1960 S1959 1.613 . S
N1960 C1963 1.350 . S
N1961 S1959 1.610 . S
N1961 C1962 1.351 . S
C1962 C1956 1.428 . S
C1962 N1961 1.351 . S
C1962 C1963 1.434 . S
C1963 C1954 1.429 . S
C1963 N1960 1.350 . S
C1963 C1962 1.434 . S
C1964 C1965 1.369 . S
C1964 C1966 1.419 . S
C1964 H1968 0.930 . S
C1965 C1964 1.369 . S
C1965 C1974 1.429 . S
C1966 C1964 1.419 . S
C1966 C1967 1.363 . S
C1966 H1969 0.929 . S
C1967 C1966 1.363 . S
C1967 C1973 1.428 . S
H1968 C1964 0.930 . S
H1969 C1966 0.929 . S
S1970 N1971 1.613 . S
S1970 N1972 1.610 . S
N1971 S1970 1.613 . S
N1971 C1974 1.350 . S
N1972 S1970 1.610 . S
N1972 C1973 1.351 . S
C1973 C1967 1.428 . S
C1973 N1972 1.351 . S
C1973 C1974 1.434 . S
C1974 C1965 1.429 . S
C1974 N1971 1.350 . S
C1974 C1973 1.434 . S
C1975 C1976 1.369 . S
C1975 C1977 1.419 . S
C1975 H1979 0.930 . S
C1976 C1975 1.369 . S
C1976 C1985 1.429 . S
C1977 C1975 1.419 . S
C1977 C1978 1.363 . S
C1977 H1980 0.929 . S
C1978 C1977 1.363 . S
C1978 C1984 1.428 . S
H1979 C1975 0.930 . S
H1980 C1977 0.929 . S
S1981 N1982 1.611 . S
S1981 N1983 1.610 . S
N1982 S1981 1.611 . S
N1982 C1985 1.353 1_556 S
N1983 S1981 1.610 . S
N1983 C1984 1.351 1_556 S
C1984 C1978 1.428 . S
C1984 N1983 1.351 1_554 S
C1984 C1985 1.434 . S
C1985 C1976 1.429 . S
C1985 N1982 1.353 1_554 S
C1985 C1984 1.434 . S
C1986 C1987 1.369 . S
C1986 C1988 1.419 . S
C1986 H1990 0.930 . S
C1987 C1986 1.369 . S
C1987 C1996 1.429 . S
C1988 C1986 1.419 . S
C1988 C1989 1.363 . S
C1988 H1991 0.929 . S
C1989 C1988 1.363 . S
C1989 C1995 1.428 . S
H1990 C1986 0.930 . S
H1991 C1988 0.929 . S
S1992 N1993 1.613 . S
S1992 N1994 1.610 . S
N1993 S1992 1.613 . S
N1993 C1996 1.350 . S
N1994 S1992 1.610 . S
N1994 C1995 1.351 . S
C1995 C1989 1.428 . S
C1995 N1994 1.351 . S
C1995 C1996 1.434 . S
C1996 C1987 1.429 . S
C1996 N1993 1.350 . S
C1996 C1995 1.434 . S
C1997 C1998 1.369 . S
C1997 C1999 1.419 . S
C1997 H2001 0.930 . S
C1998 C1997 1.369 . S
C1998 C2007 1.429 . S
C1999 C1997 1.419 . S
C1999 C2000 1.363 . S
C1999 H2002 0.929 . S
C2000 C1999 1.363 . S
C2000 C2006 1.428 . S
H2001 C1997 0.930 . S
H2002 C1999 0.929 . S
S2003 N2004 1.613 . S
S2003 N2005 1.610 . S
N2004 S2003 1.613 . S
N2004 C2007 1.350 . S
N2005 S2003 1.610 . S
N2005 C2006 1.351 . S
C2006 C2000 1.428 . S
C2006 N2005 1.351 . S
C2006 C2007 1.434 . S
C2007 C1998 1.429 . S
C2007 N2004 1.350 . S
C2007 C2006 1.434 . S
C953 C101 2.030 . S
C955 C334 1.980 . S
C964 C57 1.395 . S
C966 C354 1.437 . S
C975 C70 0.705 . S
C977 C401 0.700 . S
C988 C458 1.281 . S
C986 C82 1.328 . S
C997 C23 2.525 . S
C999 C475 2.508 . S
C1010 C534 1.850 . S
C1008 C29 1.877 . S
C1021 C567 2.650 . S
C1019 C49 2.634 . S
C1030 C10 2.633 . S
C1032 C614 2.571 . S
C1043 C327 2.073 . S
C1041 C218 1.956 . S
C1052 C226 1.418 . S
C1054 C355 1.407 . S
C1065 C394 0.578 . S
C1063 C251 0.537 1_565 S
C1076 C454 2.207 . S
C1074 C159 2.197 . S
C1085 C211 0.684 . S
C1087 C481 0.699 . S
C1098 C527 2.183 . S
C1096 C225 2.187 . S
C1109 C578 0.855 . S
C1107 C252 0.925 . S
C1120 C607 2.370 . S
C1118 C166 2.342 . S
C1131 C338 2.303 1_565 S
C1129 C147 2.428 . S
C1140 C263 2.207 . S
C1142 C634 2.181 . S
C1153 C698 1.584 . S
C1151 C309 1.600 . S
C1164 C734 1.639 . S
C1162 C291 1.624 . S
C1173 C108 2.040 . S
C1175 C618 2.071 . S
C1184 C121 2.546 . S
C1186 C395 2.551 . S
C1195 C302 1.483 . S
C1197 C767 1.567 . S
C1208 C801 0.559 . S
C1206 C276 0.649 . S
C1219 C315 2.026 1_565 S
C1217 C55 1.996 . S
C1230 C807 1.689 . S
C1228 C96 1.702 . S
C1239 C88 1.073 . S
C1241 C418 1.052 . S
C1250 C75 1.375 . S
C1252 C761 1.356 . S
C1263 C494 2.823 . S
C1261 C4 2.852 . S
C1272 C44 2.053 . S
C1274 C675 2.051 . S
C1285 C554 2.896 1_566 S
C1283 C31 2.903 . S
C1296 C835 2.579 . S
C1294 C18 2.605 . S
C1307 C314 1.841 1_556 S
C1305 C133 1.786 . S
C1318 C814 1.962 . S
C1316 C296 1.986 . S
C1327 C107 0.723 . S
C1329 C407 0.747 . S
C1338 C264 2.400 . S
C1340 C755 2.419 . S
C1349 C140 0.846 . S
C1351 C498 0.823 . S
C1362 C674 2.472 . S
C1360 C289 2.481 . S
C1371 C114 1.023 . S
C1373 C561 0.969 . S
C1382 C265 2.524 . S
C1384 C834 2.526 . S
C1393 C179 1.929 . S
C1395 C321 1.886 . S
C1404 C161 2.285 . S
C1406 C647 2.249 . S
C1415 C244 1.657 . S
C1417 C521 1.677 . S
C1426 C224 1.702 . S
C1428 C715 1.716 . S
C1439 C841 1.716 . S
C1437 C257 1.686 . S
C1448 C199 2.775 . S
C1450 C414 2.772 1_565 S
C1461 C434 1.784 . S
C1459 C237 1.728 . S
C1472 C378 0.859 . S
C1470 C185 0.896 . S
C1481 C69 2.131 . S
C1483 C894 2.085 . S
C1494 C794 1.429 . S
C1492 C83 1.412 . S
C1503 C94 0.644 . S
C1505 C921 0.655 . S
C1514 C56 1.355 . S
C1516 C778 1.319 1_455 S
C1525 C42 2.523 . S
C1527 C635 2.504 . S
C1538 C694 1.868 . S
C1536 C3 1.900 . S
C1549 C727 2.666 . S
C1547 C16 2.646 . S
C1560 C854 2.525 . S
C1558 C36 2.596 . S
C1571 C887 2.032 . S
C1569 C238 1.917 . S
C1580 C174 1.386 . S
C1582 C795 1.379 . S
C1593 C914 0.574 . S
C1591 C186 0.551 . S
C1604 C774 2.203 . S
C1602 C198 2.190 . S
C1615 C641 0.676 . S
C1613 C239 0.694 . S
C1624 C173 2.210 . S
C1626 C687 2.204 . S
C1637 C738 0.852 . S
C1635 C187 0.910 . S
C1646 C205 2.325 . S
C1648 C847 2.354 . S
C1659 C898 2.350 . S
C1657 C290 2.445 . S
C1668 C122 2.237 . S
C1670 C474 2.208 . S
C1681 C538 1.563 . S
C1679 C134 1.559 . S
C1692 C574 1.670 . S
C1690 C148 1.622 . S
C1703 C858 1.899 . S
C1701 C283 1.864 . S
C1712 C270 2.565 . S
C1714 C915 2.567 . S
C1725 C447 1.596 . S
C1723 C135 1.513 . S
C1736 C361 0.664 . S
C1734 C109 0.663 . S
C1745 C81 2.026 . S
C1747 C875 2.054 . S
C1758 C367 1.560 . S
C1756 C68 1.560 . S
C1767 C62 1.076 . S
C1769 C938 1.065 . S
C1778 C95 1.271 . S
C1780 C441 1.257 . S
C1789 C30 2.846 . S
C1791 C654 2.820 . S
C1802 C515 2.058 . S
C1800 C17 2.066 . S
C1811 C5 2.923 . S
C1813 C714 2.916 . S
C1822 C43 2.562 . S
C1824 C595 2.530 . S
C1835 C874 1.858 . S
C1833 C304 1.803 . S
C1844 C153 1.976 . S
C1846 C374 1.955 . S
C1857 C927 0.680 . S
C1855 C278 0.696 . S
C1866 C127 2.413 . S
C1868 C435 2.428 . S
C1877 C303 0.828 . S
C1879 C658 0.813 . S
C1890 C514 2.495 . S
C1888 C146 2.506 1_556 S
C1899 C277 0.980 . S
C1901 C721 0.930 . S
C1912 C594 2.516 . S
C1910 C120 2.514 . S
C1923 C881 1.925 . S
C1921 C231 1.971 . S
C1934 C487 2.315 1_565 S
C1932 C200 2.317 . S
C1943 C212 1.636 . S
C1945 C681 1.648 . S
C1956 C555 1.689 1_556 S
C1954 C172 1.673 . S
C1965 C192 1.681 . S
C1967 C601 1.728 . S
C1976 C160 2.799 . S
C1978 C934 2.797 . S
C1989 C754 1.801 . S
C1987 C213 1.749 . S
C2000 C818 0.875 . S
C1998 C250 0.877 . S
