# Generated by pormake.
# Topology zzz, (3,6)-cn, num edge types: 1
# Building blocks:
#     Node 0, Type 0, BuildingBlock: WUSLED_clean_sbu_0, # of connection points: 3
#     Node 1, Type 0, BuildingBlock: WUSLED_clean_sbu_0, # of connection points: 3
#     Node 2, Type 0, BuildingBlock: WUSLED_clean_sbu_0, # of connection points: 3
#     Node 3, Type 0, BuildingBlock: WUSLED_clean_sbu_0, # of connection points: 3
#     Node 4, Type 0, BuildingBlock: WUSLED_clean_sbu_0, # of connection points: 3
#     Node 5, Type 0, BuildingBlock: WUSLED_clean_sbu_0, # of connection points: 3
#     Node 6, Type 0, BuildingBlock: WUSLED_clean_sbu_0, # of connection points: 3
#     Node 7, Type 0, BuildingBlock: WUSLED_clean_sbu_0, # of connection points: 3
#     Node 8, Type 1, BuildingBlock: GEDQOX_clean_sbu_0, # of connection points: 6
#     Node 9, Type 1, BuildingBlock: GEDQOX_clean_sbu_0, # of connection points: 6
#     Node 10, Type 1, BuildingBlock: GEDQOX_clean_sbu_0, # of connection points: 6
#     Node 11, Type 1, BuildingBlock: GEDQOX_clean_sbu_0, # of connection points: 6
#     Edge 12, Type (0, 1), BuildingBlock: XIVTED_clean_linker_0, # of connection points: 2
#     Edge 13, Type (0, 1), BuildingBlock: XIVTED_clean_linker_0, # of connection points: 2
#     Edge 14, Type (0, 1), BuildingBlock: XIVTED_clean_linker_0, # of connection points: 2
#     Edge 15, Type (0, 1), BuildingBlock: XIVTED_clean_linker_0, # of connection points: 2
#     Edge 16, Type (0, 1), BuildingBlock: XIVTED_clean_linker_0, # of connection points: 2
#     Edge 17, Type (0, 1), BuildingBlock: XIVTED_clean_linker_0, # of connection points: 2
#     Edge 18, Type (0, 1), BuildingBlock: XIVTED_clean_linker_0, # of connection points: 2
#     Edge 19, Type (0, 1), BuildingBlock: XIVTED_clean_linker_0, # of connection points: 2
#     Edge 20, Type (0, 1), BuildingBlock: XIVTED_clean_linker_0, # of connection points: 2
#     Edge 21, Type (0, 1), BuildingBlock: XIVTED_clean_linker_0, # of connection points: 2
#     Edge 22, Type (0, 1), BuildingBlock: XIVTED_clean_linker_0, # of connection points: 2
#     Edge 23, Type (0, 1), BuildingBlock: XIVTED_clean_linker_0, # of connection points: 2
#     Edge 24, Type (0, 1), BuildingBlock: XIVTED_clean_linker_0, # of connection points: 2
#     Edge 25, Type (0, 1), BuildingBlock: XIVTED_clean_linker_0, # of connection points: 2
#     Edge 26, Type (0, 1), BuildingBlock: XIVTED_clean_linker_0, # of connection points: 2
#     Edge 27, Type (0, 1), BuildingBlock: XIVTED_clean_linker_0, # of connection points: 2
#     Edge 28, Type (0, 1), BuildingBlock: XIVTED_clean_linker_0, # of connection points: 2
#     Edge 29, Type (0, 1), BuildingBlock: XIVTED_clean_linker_0, # of connection points: 2
#     Edge 30, Type (0, 1), BuildingBlock: XIVTED_clean_linker_0, # of connection points: 2
#     Edge 31, Type (0, 1), BuildingBlock: XIVTED_clean_linker_0, # of connection points: 2
#     Edge 32, Type (0, 1), BuildingBlock: XIVTED_clean_linker_0, # of connection points: 2
#     Edge 33, Type (0, 1), BuildingBlock: XIVTED_clean_linker_0, # of connection points: 2
#     Edge 34, Type (0, 1), BuildingBlock: XIVTED_clean_linker_0, # of connection points: 2
#     Edge 35, Type (0, 1), BuildingBlock: XIVTED_clean_linker_0, # of connection points: 2
# Relax obj value: 0.292
# Max RMSD: 0.258
# Mean RMSD: 0.194
data_MOF--net-zzz--node1-WUSLED_clean_sbu_0--node2-GEDQOX_clean_sbu_0--edge1-XIVTED_clean_linker_0
_symmetry_space_group_name_H-M    P1
_symmetry_Int_Tables_number       1
_symmetry_cell_setting            triclinic
loop_
_symmetry_equiv_pos_as_xyz
'x, y, z'
_cell_length_a     67.277718
_cell_length_b     62.831618
_cell_length_c     23.218442
_cell_angle_alpha  83.041086
_cell_angle_beta   91.061803
_cell_angle_gamma 101.64511
loop_
_atom_site_label
_atom_site_type_symbol
_atom_site_fract_x
_atom_site_fract_y
_atom_site_fract_z
_atom_type_partial_charge
C0 C 0.78865 0.41271 0.23917 0.0
C1 C 0.80875 0.41155 0.22798 0.0
C2 C 0.81882 0.42275 0.3236 0.0
C3 C 0.8237 0.41637 0.27009 0.0
C4 C 0.79843 0.42298 0.33499 0.0
C5 C 0.78356 0.41798 0.29326 0.0
U6 U 0.75553 0.40686 0.09335 0.0
O7 O 0.72316 0.39023 0.09635 0.0
O8 O 0.73175 0.42615 0.08308 0.0
C9 C 0.71692 0.40891 0.08824 0.0
C10 C 0.77265 0.41046 0.195 0.0
C11 C 0.69908 0.41047 0.05162 0.0
C12 C 0.66364 0.41332 0.04996 0.0
C13 C 0.68038 0.40775 0.07979 0.0
C14 C 0.68368 0.42325 0.96167 0.0
C15 C 0.66509 0.42159 0.99071 0.0
C16 C 0.70061 0.41784 0.99199 0.0
C17 C 0.79687 0.40583 0.97965 0.0
C18 C 0.82435 0.42264 0.91205 0.0
C19 C 0.82999 0.39612 0.99222 0.0
C20 C 0.80979 0.39352 0.0101 0.0
C21 C 0.83772 0.41127 0.9441 0.0
C22 C 0.80415 0.41988 0.92961 0.0
C23 C 0.77595 0.40497 0.99922 0.0
O24 O 0.77194 0.42735 0.15628 0.0
O25 O 0.76555 0.39137 0.17673 0.0
O26 O 0.77252 0.4233 0.01499 0.0
O27 O 0.76699 0.38746 0.03316 0.0
H28 H 0.81296 0.40746 0.18649 0.0
H29 H 0.83917 0.41554 0.26023 0.0
H30 H 0.79402 0.428 0.37505 0.0
H31 H 0.76807 0.41903 0.30251 0.0
H32 H 0.64987 0.4122 0.07448 0.0
H33 H 0.67899 0.40244 0.126 0.0
H34 H 0.68532 0.42924 0.91593 0.0
H35 H 0.715 0.4202 0.96954 0.0
H36 H 0.82966 0.43449 0.87496 0.0
H37 H 0.83969 0.38662 0.01696 0.0
H38 H 0.80447 0.3823 0.04838 0.0
H39 H 0.79433 0.42931 0.90505 0.0
C40 C 0.9206 0.77166 0.25023 0.0
C41 C 0.92381 0.79411 0.23005 0.0
C42 C 0.92644 0.80354 0.33034 0.0
C43 C 0.92659 0.80986 0.26966 0.0
C44 C 0.92239 0.78093 0.34974 0.0
C45 C 0.91957 0.76534 0.31038 0.0
U46 U 0.91721 0.73735 0.11226 0.0
O47 O 0.93753 0.71427 0.10727 0.0
O48 O 0.90474 0.70173 0.11674 0.0
C49 C 0.9227 0.69703 0.11043 0.0
C50 C 0.92024 0.75426 0.21166 0.0
C51 C 0.9246 0.67982 0.07341 0.0
C52 C 0.93101 0.64316 0.07092 0.0
C53 C 0.92628 0.6593 0.10164 0.0
C54 C 0.93138 0.66722 0.98135 0.0
C55 C 0.93394 0.64676 0.01021 0.0
C56 C 0.9269 0.68365 0.01267 0.0
C57 C 0.9089 0.78196 0.98889 0.0
C58 C 0.91181 0.8088 0.90366 0.0
C59 C 0.91196 0.82027 0.99972 0.0
C60 C 0.90934 0.79849 0.02441 0.0
C61 C 0.91424 0.82579 0.93911 0.0
C62 C 0.90938 0.78708 0.92848 0.0
C63 C 0.91082 0.75992 0.01331 0.0
O64 O 0.9029 0.74415 0.19174 0.0
O65 O 0.93564 0.75587 0.17626 0.0
O66 O 0.89603 0.74854 0.0473 0.0
O67 O 0.92896 0.75834 0.03297 0.0
H68 H 0.92471 0.79948 0.18388 0.0
H69 H 0.92967 0.82701 0.25253 0.0
H70 H 0.92158 0.77514 0.39564 0.0
H71 H 0.91713 0.74815 0.32722 0.0
H72 H 0.93322 0.62814 0.09587 0.0
H73 H 0.92476 0.65601 0.14844 0.0
H74 H 0.93309 0.67073 0.93471 0.0
H75 H 0.92571 0.69941 0.98971 0.0
H76 H 0.91304 0.81233 0.8569 0.0
H77 H 0.91394 0.83276 0.02874 0.0
H78 H 0.90901 0.79473 0.07122 0.0
H79 H 0.90904 0.77439 0.90053 0.0
C80 C 0.73872 0.01047 0.21165 0.0
C81 C 0.71999 0.01635 0.19737 0.0
C82 C 0.70909 0.00777 0.29873 0.0
C83 C 0.70537 0.01515 0.24056 0.0
C84 C 0.7278 1.00173 0.31257 0.0
C85 C 0.74248 1.00314 0.26947 0.0
U86 U 0.75142 0.01051 0.05405 0.0
O87 O 0.77625 0.02893 0.99634 0.0
O88 O 0.77045 0.99284 0.00978 0.0
C89 C 0.78111 0.01096 0.98237 0.0
C90 C 0.75413 0.01118 0.16651 0.0
C91 C 0.80238 0.0114 0.9696 0.0
C92 C 0.83715 0.01039 0.99715 0.0
C93 C 0.81717 0.01066 0.01275 0.0
C94 C 0.82749 0.01189 0.89576 0.0
C95 C 0.8424 0.01108 0.93842 0.0
C96 C 0.80766 0.01198 0.91131 0.0
C97 C 0.70809 0.00739 0.94681 0.0
C98 C 0.70755 0.02331 0.84625 0.0
C99 C 0.67969 0.99486 0.88616 0.0
C100 C 0.68967 0.99325 0.93893 0.0
C101 C 0.68788 0.01096 0.84054 0.0
C102 C 0.71766 0.02151 0.89924 0.0
C103 C 0.71588 0.00834 0.00599 0.0
O104 O 0.75251 0.99313 0.1419 0.0
O105 O 0.75772 0.02904 0.12913 0.0
O106 O 0.72757 0.02692 0.01631 0.0
O107 O 0.72233 0.9909 0.02947 0.0
H108 H 0.71662 0.02176 0.15281 0.0
H109 H 0.69102 0.01964 0.22831 0.0
H110 H 0.73121 0.99614 0.35692 0.0
H111 H 0.75677 0.99841 0.28128 0.0
H112 H 0.8485 0.00979 0.0307 0.0
H113 H 0.81326 0.01015 0.05801 0.0
H114 H 0.83111 0.01205 0.8504 0.0
H115 H 0.79631 0.01232 0.87761 0.0
H116 H 0.71426 0.03568 0.81166 0.0
H117 H 0.66451 0.98514 0.88384 0.0
H118 H 0.68225 0.98203 0.97493 0.0
H119 H 0.73224 0.03219 0.90407 0.0
C120 C 0.58898 0.74855 0.52091 0.0
C121 C 0.5886 0.7307 0.4895 0.0
C122 C 0.5827 0.70493 0.57904 0.0
C123 C 0.5855 0.70918 0.51818 0.0
C124 C 0.58363 0.72308 0.61009 0.0
C125 C 0.58666 0.74449 0.58141 0.0
U126 U 0.59496 0.79273 0.38635 0.0
O127 O 0.57717 0.81847 0.36697 0.0
O128 O 0.61023 0.82768 0.37252 0.0
C129 C 0.59319 0.83443 0.3601 0.0
C130 C 0.59044 0.77129 0.49192 0.0
C131 C 0.59294 0.85088 0.30827 0.0
C132 C 0.58723 0.88711 0.26942 0.0
C133 C 0.59055 0.87201 0.31659 0.0
C134 C 0.58946 0.86054 0.20396 0.0
C135 C 0.58601 0.88136 0.21261 0.0
C136 C 0.59292 0.84546 0.25123 0.0
C137 C 0.60174 0.75802 0.25592 0.0
C138 C 0.6026 0.75425 0.15377 0.0
C139 C 0.60184 0.72271 0.22614 0.0
C140 C 0.60176 0.73582 0.27017 0.0
C141 C 0.60202 0.73178 0.16754 0.0
C142 C 0.60245 0.76732 0.19795 0.0
C143 C 0.59937 0.77141 0.30068 0.0
O144 O 0.60816 0.7816 0.46991 0.0
O145 O 0.57523 0.77457 0.45802 0.0
O146 O 0.58132 0.77259 0.31909 0.0
O147 O 0.61505 0.78083 0.32943 0.0
H148 H 0.59025 0.73334 0.4427 0.0
H149 H 0.58471 0.69585 0.49223 0.0
H150 H 0.58201 0.72084 0.65683 0.0
H151 H 0.58689 0.75796 0.60665 0.0
H152 H 0.58449 0.90286 0.27782 0.0
H153 H 0.59039 0.87655 0.3601 0.0
H154 H 0.58884 0.85569 0.16064 0.0
H155 H 0.5948 0.82932 0.24341 0.0
H156 H 0.60268 0.76157 0.10905 0.0
H157 H 0.60078 0.70531 0.23809 0.0
H158 H 0.60099 0.72851 0.31504 0.0
H159 H 0.6023 0.78455 0.18695 0.0
C160 C 0.25588 0.59165 0.40341 0.0
C161 C 0.23564 0.58786 0.42263 0.0
C162 C 0.22334 0.58276 0.32433 0.0
C163 C 0.21957 0.58348 0.38357 0.0
C164 C 0.24366 0.58755 0.30498 0.0
C165 C 0.25972 0.59189 0.34413 0.0
U166 U 0.27528 0.59848 0.55625 0.0
O167 O 0.29395 0.58012 0.61364 0.0
O168 O 0.30393 0.61578 0.59223 0.0
C169 C 0.30744 0.59774 0.62204 0.0
C170 C 0.27294 0.59381 0.44515 0.0
C171 C 0.32857 0.59527 0.63365 0.0
C172 C 0.35936 0.5831 0.61102 0.0
C173 C 0.34038 0.58788 0.59413 0.0
C174 C 0.35503 0.59366 0.70613 0.0
C175 C 0.36667 0.5854 0.66785 0.0
C176 C 0.33625 0.59853 0.68916 0.0
C177 C 0.23152 0.60239 0.66164 0.0
C178 C 0.21317 0.58067 0.74498 0.0
C179 C 0.20316 0.61403 0.70265 0.0
C180 C 0.21926 0.6179 0.66321 0.0
C181 C 0.19904 0.59446 0.74047 0.0
C182 C 0.22944 0.58467 0.7059 0.0
C183 C 0.2416 0.60172 0.60622 0.0
O184 O 0.27853 0.61297 0.46444 0.0
O185 O 0.27186 0.57734 0.48643 0.0
O186 O 0.24622 0.58301 0.5977 0.0
O187 O 0.255 0.61897 0.58465 0.0
H188 H 0.23225 0.58773 0.46813 0.0
H189 H 0.20416 0.58035 0.40001 0.0
H190 H 0.24723 0.58706 0.25995 0.0
H191 H 0.27519 0.5948 0.32832 0.0
H192 H 0.36787 0.57672 0.58039 0.0
H193 H 0.33471 0.58517 0.55112 0.0
H194 H 0.36026 0.59607 0.7497 0.0
H195 H 0.32736 0.60421 0.72036 0.0
H196 H 0.21038 0.56558 0.77432 0.0
H197 H 0.19246 0.6249 0.69821 0.0
H198 H 0.22059 0.6317 0.62963 0.0
H199 H 0.23891 0.57261 0.70636 0.0
C200 C 0.12286 0.25122 0.38956 0.0
C201 C 0.12563 0.23013 0.41137 0.0
C202 C 0.11691 0.21684 0.31658 0.0
C203 C 0.12282 0.21321 0.37529 0.0
C204 C 0.11482 0.23827 0.29509 0.0
C205 C 0.11781 0.2551 0.33091 0.0
U206 U 0.12871 0.27471 0.53771 0.0
O207 O 0.14059 0.3082 0.5606 0.0
O208 O 0.10825 0.29251 0.57769 0.0
C209 C 0.12287 0.30968 0.58112 0.0
C210 C 0.12341 0.269 0.42716 0.0
C211 C 0.11957 0.32956 0.60541 0.0
C212 C 0.11343 0.36676 0.58977 0.0
C213 C 0.11898 0.34878 0.56848 0.0
C214 C 0.10984 0.34706 0.68623 0.0
C215 C 0.10806 0.36603 0.64875 0.0
C216 C 0.11543 0.32904 0.66474 0.0
C217 C 0.13942 0.2273 0.6582 0.0
C218 C 0.12354 0.21002 0.74942 0.0
C219 C 0.14073 0.18965 0.6915 0.0
C220 C 0.14679 0.20839 0.65245 0.0
C221 C 0.12744 0.18974 0.73759 0.0
C222 C 0.12907 0.22865 0.70904 0.0
C223 C 0.13694 0.24105 0.60415 0.0
O224 O 0.10853 0.26585 0.46496 0.0
O225 O 0.14103 0.27762 0.44864 0.0
O226 O 0.15135 0.25752 0.5837 0.0
O227 O 0.11842 0.24354 0.59091 0.0
H228 H 0.12956 0.22661 0.4565 0.0
H229 H 0.12512 0.19725 0.39382 0.0
H230 H 0.11005 0.24204 0.25095 0.0
H231 H 0.1155 0.27116 0.31301 0.0
H232 H 0.113 0.38112 0.55931 0.0
H233 H 0.12217 0.34965 0.52258 0.0
H234 H 0.10598 0.34561 0.73176 0.0
H235 H 0.11594 0.31444 0.6943 0.0
H236 H 0.11417 0.21096 0.78608 0.0
H237 H 0.14433 0.17461 0.68048 0.0
H238 H 0.15481 0.20708 0.61335 0.0
H239 H 0.12339 0.24325 0.71445 0.0
C240 C 0.30063 0.01669 0.44233 0.0
C241 C 0.32157 0.02205 0.45346 0.0
C242 C 0.32925 0.01807 0.35363 0.0
C243 C 0.33575 0.02292 0.40929 0.0
C244 C 0.30835 0.01246 0.34282 0.0
C245 C 0.29416 0.0119 0.38676 0.0
U246 U 0.28995 0.01531 0.60123 0.0
O247 O 0.27017 0.03007 0.65196 0.0
O248 O 0.26712 0.99427 0.66097 0.0
C249 C 0.26083 0.01101 0.67799 0.0
C250 C 0.28556 0.01538 0.48886 0.0
C251 C 0.23908 0.00834 0.68956 0.0
C252 C 0.20406 1.0052 0.65913 0.0
C253 C 0.22454 1.00678 0.64549 0.0
C254 C 0.2126 1.00627 0.76079 0.0
C255 C 0.19793 1.00522 0.71692 0.0
C256 C 0.23296 0.00782 0.74714 0.0
C257 C 0.33695 0.01804 0.69693 0.0
C258 C 0.33683 0.01523 0.80245 0.0
C259 C 0.36691 0.01256 0.7497 0.0
C260 C 0.35701 0.01542 0.69751 0.0
C261 C 0.35694 0.01229 0.80252 0.0
C262 C 0.3268 0.01819 0.74938 0.0
C263 C 0.32685 0.0187 0.64091 0.0
O264 O 0.2829 0.99732 0.52534 0.0
O265 O 0.28694 0.03312 0.51484 0.0
O266 O 0.31868 0.03579 0.62514 0.0
O267 O 0.31546 1.00003 0.63033 0.0
H268 H 0.32693 0.02553 0.49629 0.0
H269 H 0.35181 0.02713 0.4187 0.0
H270 H 0.303 0.00875 0.30018 0.0
H271 H 0.27811 0.00763 0.37741 0.0
H272 H 0.19304 1.00418 0.62444 0.0
H273 H 0.22904 1.00707 0.6008 0.0
H274 H 0.20848 1.00668 0.80546 0.0
H275 H 0.24406 0.00905 0.78165 0.0
H276 H 0.32889 0.01477 0.84289 0.0
H277 H 0.38229 0.0098 0.74895 0.0
H278 H 0.36487 0.01492 0.6575 0.0
H279 H 0.31112 0.01999 0.74922 0.0
C280 C 0.44013 0.26448 0.13276 0.0
C281 C 0.43101 0.28066 0.15192 0.0
C282 C 0.4474 0.30791 0.07267 0.0
C283 C 0.43451 0.30206 0.12205 0.0
C284 C 0.45618 0.29135 0.05378 0.0
C285 C 0.45252 0.27008 0.08314 0.0
U286 U 0.4329 0.22052 0.26937 0.0
O287 O 0.41871 0.18522 0.28359 0.0
O288 O 0.45168 0.19578 0.28926 0.0
C289 C 0.43614 0.17928 0.29589 0.0
C290 C 0.43802 0.2419 0.16379 0.0
C291 C 0.43708 0.16281 0.34716 0.0
C292 C 0.44486 0.12733 0.38406 0.0
C293 C 0.44075 0.14231 0.33771 0.0
C294 C 0.4407 0.15264 0.45127 0.0
C295 C 0.44541 0.1324 0.44163 0.0
C296 C 0.43669 0.16772 0.40458 0.0
C297 C 0.42486 0.25439 0.40057 0.0
C298 C 0.4287 0.25892 0.50216 0.0
C299 C 0.42327 0.28912 0.4319 0.0
C300 C 0.42199 0.27583 0.38783 0.0
C301 C 0.4272 0.28095 0.48925 0.0
C302 C 0.42769 0.24572 0.45776 0.0
C303 C 0.42774 0.24225 0.35348 0.0
O304 O 0.45302 0.23862 0.19846 0.0
O305 O 0.42014 0.23179 0.18517 0.0
O306 O 0.41227 0.23218 0.32512 0.0
O307 O 0.44595 0.24089 0.33678 0.0
H308 H 0.42136 0.27686 0.19015 0.0
H309 H 0.42707 0.31398 0.13788 0.0
H310 H 0.46648 0.29483 0.01709 0.0
H311 H 0.45981 0.25797 0.06753 0.0
H312 H 0.44856 0.11218 0.37419 0.0
H313 H 0.44128 0.13818 0.29387 0.0
H314 H 0.44047 0.15705 0.49487 0.0
H315 H 0.43389 0.18343 0.41323 0.0
H316 H 0.43157 0.25219 0.546 0.0
H317 H 0.42254 0.30616 0.42017 0.0
H318 H 0.42006 0.28268 0.34343 0.0
H319 H 0.43001 0.22909 0.46762 0.0
Nd320 Nd 0.01249 1.00144 0.76474 0.0
Nd321 Nd 0.02596 0.01655 0.88724 0.0
C322 C 0.9914 0.97971 0.68344 0.0
C323 C 0.98453 0.95794 0.66041 0.0
C324 C 0.9639 0.94736 0.6638 0.0
C325 C 0.95656 0.92913 0.63383 0.0
C326 C 0.96964 0.92067 0.60016 0.0
C327 C 0.99041 0.93049 0.59905 0.0
C328 C 0.99771 0.94893 0.62826 0.0
C329 C 0.05312 0.00819 0.78374 0.0
C330 C 0.01039 0.9652 0.88228 0.0
C331 C 0.0428 0.0374 0.97589 0.0
C332 C 0.05126 0.05837 1.00126 0.0
C333 C 0.07019 0.07196 0.98501 0.0
C334 C 0.07834 0.09012 0.01491 0.0
C335 C 0.06794 0.09507 0.06241 0.0
C336 C 0.0488 0.08177 0.07713 0.0
C337 C 0.04067 0.06385 0.04727 0.0
C338 C 0.98547 0.00937 0.86485 0.0
C339 C 0.02894 0.05219 0.76821 0.0
O340 O 0.98325 0.98331 0.73128 0.0
O341 O 0.0105 0.98953 0.67778 0.0
O342 O 0.04483 0.01149 0.73331 0.0
O343 O 0.04006 0.99935 0.82286 0.0
O344 O 0.00802 0.97021 0.82635 0.0
O345 O 0.01842 0.9797 0.91744 0.0
O346 O 0.05335 0.0297 0.9392 0.0
O347 O 0.02333 0.03285 0.96576 0.0
O348 O 0.99307 1.00469 0.91536 0.0
O349 O 0.99898 0.01898 0.82826 0.0
O350 O 0.03466 0.04679 0.82161 0.0
O351 O 0.01758 0.03826 0.73675 0.0
H352 H 0.95322 0.95371 0.68789 0.0
H353 H 0.94052 0.92184 0.63618 0.0
H354 H 1.0009 0.9245 0.57338 0.0
H355 H 0.01363 0.95656 0.62394 0.0
H356 H 0.0789 0.06831 0.95004 0.0
H357 H 0.09312 0.09984 1.00204 0.0
H358 H 0.03999 0.0851 0.11233 0.0
H359 H 0.02614 0.05383 0.06139 0.0
Nd360 Nd 0.52459 1.00065 0.77535 0.0
Nd361 Nd 0.50985 0.01444 0.87709 0.0
C362 C 0.5431 0.98132 0.70259 0.0
C363 C 0.56211 0.98642 0.6668 0.0
C364 C 0.57854 0.97637 0.68381 0.0
C365 C 0.5959 0.9797 0.64857 0.0
C366 C 0.59734 0.99313 0.59498 0.0
C367 C 0.58109 1.00364 0.57877 0.0
C368 C 0.56377 1.00036 0.61412 0.0
C369 C 0.50799 0.03702 0.74529 0.0
C370 C 0.55583 0.03671 0.82916 0.0
C371 C 0.49319 0.0338 0.95365 0.0
C372 C 0.47361 0.0293 0.98673 0.0
C373 C 0.45884 0.04196 0.9719 0.0
C374 C 0.44121 0.03917 0.00575 0.0
C375 C 0.43784 0.0236 0.05538 0.0
C376 C 0.45219 0.01029 0.0688 0.0
C377 C 0.46984 0.01311 0.03506 0.0
C378 C 0.52549 0.97759 0.90632 0.0
C379 C 0.47848 0.97798 0.82075 0.0
O380 O 0.54508 0.97828 0.759 0.0
O381 O 0.52862 0.99189 0.6869 0.0
O382 O 0.52495 0.03421 0.72458 0.0
O383 O 0.50045 0.02083 0.78215 0.0
O384 O 0.54941 0.03015 0.77987 0.0
O385 O 0.54371 0.03228 0.875 0.0
O386 O 0.49264 0.03947 0.89756 0.0
O387 O 0.50587 0.02081 0.96765 0.0
O388 O 0.50802 0.98004 0.92432 0.0
O389 O 0.53355 0.99397 0.87075 0.0
O390 O 0.48283 0.98792 0.86693 0.0
O391 O 0.49167 0.98035 0.7778 0.0
H392 H 0.57786 0.96559 0.72416 0.0
H393 H 0.60817 0.97164 0.66341 0.0
H394 H 0.58138 0.01391 0.53773 0.0
H395 H 0.5515 0.00843 0.59942 0.0
H396 H 0.46112 0.05441 0.93473 0.0
H397 H 0.43033 0.04944 0.99343 0.0
H398 H 0.4502 0.99821 0.1068 0.0
H399 H 0.48075 1.00293 0.04786 0.0
Nd400 Nd 0.51529 0.51367 0.87998 0.0
Nd401 Nd 0.52107 0.49873 0.77471 0.0
C402 C 0.51136 0.5381 0.96124 0.0
C403 C 0.52275 0.55997 0.9704 0.0
C404 C 0.5144 0.57856 0.95397 0.0
C405 C 0.52525 0.59931 0.96257 0.0
C406 C 0.54454 0.60161 0.98778 0.0
C407 C 0.55329 0.58318 1.00133 0.0
C408 C 0.54247 0.56255 0.99309 0.0
C409 C 0.5474 0.49257 0.88364 0.0
C410 C 0.54081 0.54887 0.77543 0.0
C411 C 0.52616 0.47395 0.6953 0.0
C412 C 0.51435 0.45253 0.68435 0.0
C413 C 0.5237 0.43439 0.68842 0.0
C414 C 0.51252 0.41393 0.67863 0.0
C415 C 0.49184 0.41142 0.66479 0.0
C416 C 0.48231 0.42938 0.66372 0.0
C417 C 0.49345 0.44975 0.67326 0.0
C418 C 0.48931 0.52026 0.7686 0.0
C419 C 0.49444 0.46401 0.87972 0.0
O420 O 0.4997 0.53711 0.91562 0.0
O421 O 0.52144 0.52228 0.96875 0.0
O422 O 0.53338 0.48911 0.92293 0.0
O423 O 0.54439 0.50687 0.84295 0.0
O424 O 0.52988 0.54587 0.82337 0.0
O425 O 0.54271 0.53182 0.74965 0.0
O426 O 0.53638 0.47414 0.74367 0.0
O427 O 0.51704 0.49048 0.68495 0.0
O428 O 0.50304 0.52256 0.72886 0.0
O429 O 0.49203 0.50621 0.81058 0.0
O430 O 0.50502 0.46667 0.83104 0.0
O431 O 0.49335 0.48117 0.9059 0.0
H432 H 0.49938 0.57703 0.93528 0.0
H433 H 0.51824 0.61335 0.95176 0.0
H434 H 0.56837 0.58468 0.01969 0.0
H435 H 0.54958 0.54865 1.00506 0.0
H436 H 0.53968 0.4361 0.69858 0.0
H437 H 0.52022 0.40032 0.6799 0.0
H438 H 0.46624 0.42775 0.65477 0.0
H439 H 0.48563 0.46328 0.6717 0.0
Nd440 Nd 0.0086 0.51116 0.76021 0.0
Nd441 Nd 0.02829 0.50249 0.89019 0.0
C442 C 0.9813 0.51856 0.68096 0.0
C443 C 0.96384 0.5052 0.65247 0.0
C444 C 0.94381 0.50621 0.66657 0.0
C445 C 0.92723 0.49513 0.63715 0.0
C446 C 0.93026 0.4828 0.59257 0.0
C447 C 0.95025 0.48099 0.58031 0.0
C448 C 0.96681 0.49204 0.60975 0.0
C449 C 0.03087 0.47813 0.76208 0.0
C450 C 0.98452 0.47283 0.86208 0.0
C451 C 0.05586 0.49617 0.96993 0.0
C452 C 0.07357 0.50944 0.9979 0.0
C453 C 0.09351 0.50843 0.98265 0.0
C454 C 0.1103 0.51911 0.01217 0.0
C455 C 0.10754 0.53082 0.05822 0.0
C456 C 0.08772 0.53249 0.07231 0.0
C457 C 0.07094 0.52207 0.04229 0.0
C458 C 0.00522 0.53504 0.88454 0.0
C459 C 0.05161 0.54171 0.78946 0.0
O460 O 0.97914 0.5203 0.73607 0.0
O461 O 0.99975 0.51677 0.66776 0.0
O462 O 0.02115 0.48554 0.71783 0.0
O463 O 0.02818 0.48832 0.80465 0.0
O464 O 0.98506 0.48491 0.81127 0.0
O465 O 0.99978 0.47482 0.8996 0.0
O466 O 0.05786 0.49372 0.91523 0.0
O467 O 0.03753 0.49843 0.98271 0.0
O468 O 0.01313 0.52722 0.9319 0.0
O469 O 0.01018 0.52529 0.84414 0.0
O470 O 0.05108 0.53016 0.84105 0.0
O471 O 0.03697 0.5387 0.75041 0.0
H472 H 0.94097 0.51609 0.69947 0.0
H473 H 0.91211 0.49699 0.64772 0.0
H474 H 0.95315 0.47125 0.54716 0.0
H475 H 0.98195 0.49057 0.59812 0.0
H476 H 0.09613 0.49882 0.94886 0.0
H477 H 0.12538 0.51739 1.00072 0.0
H478 H 0.08519 0.54154 0.10743 0.0
H479 H 0.05589 0.52343 0.05506 0.0
H480 H 0.17307 0.02876 0.65584 0.0
H481 H 0.07591 0.98657 0.86322 0.0
H482 H 0.17455 0.9837 0.81104 0.0
H483 H 0.08049 0.0348 0.71267 0.0
H484 H 0.1124 0.98649 0.85235 0.0
H485 H 0.13893 0.0314 0.68062 0.0
C486 C 0.16611 0.01921 0.69491 0.0
C487 C 0.17665 1.00586 0.73105 0.0
C488 C 0.10537 0.99732 0.82245 0.0
C489 C 0.13741 0.00915 0.76086 0.0
C490 C 0.08468 0.99748 0.82893 0.0
C491 C 0.07525 0.01057 0.78835 0.0
C492 C 0.11636 0.01041 0.77531 0.0
C493 C 0.08713 0.02439 0.74471 0.0
C494 C 0.14663 0.02091 0.70958 0.0
C495 C 0.16696 0.99428 0.78203 0.0
N496 N 0.10692 0.02379 0.73908 0.0
N497 N 0.1478 0.99611 0.7954 0.0
H498 H 0.43885 0.08687 0.45686 0.0
H499 H 0.51191 0.08128 0.73386 0.0
H500 H 0.46809 0.14329 0.53787 0.0
H501 H 0.47777 0.02362 0.6689 0.0
H502 H 0.49532 0.104 0.66268 0.0
H503 H 0.4524 0.06329 0.53313 0.0
C504 C 0.44804 0.0944 0.49056 0.0
C505 C 0.45221 0.11734 0.49034 0.0
C506 C 0.49113 0.08637 0.66449 0.0
C507 C 0.46774 0.09012 0.57874 0.0
C508 C 0.50052 0.07341 0.70548 0.0
C509 C 0.49569 0.05054 0.7087 0.0
C510 C 0.47704 0.07647 0.62522 0.0
C511 C 0.48134 0.04118 0.66939 0.0
C512 C 0.45569 0.08082 0.53444 0.0
C513 C 0.46406 0.12582 0.5361 0.0
N514 N 0.47259 0.05414 0.62918 0.0
N515 N 0.47141 0.11231 0.57788 0.0
H516 H 0.37419 0.56384 0.7741 0.0
H517 H 0.48499 0.55169 0.68217 0.0
H518 H 0.40273 0.59026 0.60872 0.0
H519 H 0.45461 0.51558 0.83662 0.0
H520 H 0.45645 0.56961 0.66239 0.0
H521 H 0.40474 0.55003 0.80462 0.0
C522 C 0.38692 0.56696 0.7443 0.0
C523 C 0.38571 0.57811 0.6883 0.0
C524 C 0.45591 0.55781 0.7007 0.0
C525 C 0.42073 0.56205 0.72314 0.0
C526 C 0.47225 0.54749 0.71211 0.0
C527 C 0.47205 0.53175 0.76059 0.0
C528 C 0.43901 0.55249 0.73795 0.0
C529 C 0.45526 0.52739 0.79832 0.0
C530 C 0.40431 0.5589 0.76176 0.0
C531 C 0.40271 0.58142 0.65174 0.0
N532 N 0.43929 0.53761 0.78597 0.0
N533 N 0.41941 0.57339 0.66972 0.0
H534 H 0.08511 0.39227 0.58661 0.0
H535 H 0.05982 0.46123 0.83738 0.0
H536 H 0.10964 0.38115 0.75835 0.0
H537 H 0.03177 0.45714 0.6693 0.0
H538 H 0.08068 0.43479 0.8135 0.0
H539 H 0.06919 0.41982 0.61847 0.0
C540 C 0.08752 0.39572 0.63102 0.0
C541 C 0.09906 0.38406 0.66927 0.0
C542 C 0.06986 0.43978 0.78227 0.0
C543 C 0.07955 0.41587 0.7078 0.0
C544 C 0.05789 0.45481 0.79598 0.0
C545 C 0.0438 0.46155 0.75549 0.0
C546 C 0.06773 0.4317 0.72769 0.0
C547 C 0.04226 0.45272 0.70235 0.0
C548 C 0.07803 0.41147 0.64969 0.0
C549 C 0.10073 0.38934 0.72705 0.0
N550 N 0.05392 0.43857 0.69037 0.0
N551 N 0.09105 0.40474 0.74463 0.0
H552 H 0.86622 0.0385 0.85544 0.0
H553 H 0.95746 0.9749 0.90874 0.0
H554 H 0.86538 0.98168 0.98053 0.0
H555 H 0.96402 0.03753 0.80462 0.0
H556 H 0.9213 0.97367 0.91857 0.0
H557 H 0.90015 0.03595 0.82378 0.0
C558 C 0.87324 0.0255 0.87613 0.0
C559 C 0.86319 0.01038 0.92095 0.0
C560 C 0.9305 0.98759 0.89288 0.0
C561 C 0.90159 1.00712 0.88441 0.0
C562 C 0.95109 0.98819 0.88691 0.0
C563 C 0.96356 1.00643 0.85649 0.0
C564 C 0.92243 1.00559 0.86904 0.0
C565 C 0.95473 0.0232 0.82847 0.0
C566 C 0.8925 0.02401 0.85796 0.0
C567 C 0.8728 0.99384 0.94647 0.0
N568 N 0.93462 0.02259 0.83635 0.0
N569 N 0.89147 0.99264 0.92775 0.0
H570 H 0.55565 0.87 0.13643 0.0
H571 H 0.56361 0.98877 0.95458 0.0
H572 H 0.59952 0.92595 0.1787 0.0
H573 H 0.51282 0.93501 0.94895 0.0
H574 H 0.57978 0.96594 0.02742 0.0
H575 H 0.5425 0.89334 0.05964 0.0
C576 C 0.56274 0.88719 0.12896 0.0
C577 C 0.57888 0.89588 0.16381 0.0
C578 C 0.56524 0.95905 0.00958 0.0
C579 C 0.56372 0.92305 0.07513 0.0
C580 C 0.55617 0.97195 0.96711 0.0
C581 C 0.5371 0.96353 0.94402 0.0
C582 C 0.55519 0.93754 0.029 0.0
C583 C 0.52768 0.94202 0.96459 0.0
C584 C 0.55511 0.9006 0.08522 0.0
C585 C 0.58708 0.9185 0.15281 0.0
N586 N 0.5368 0.92984 0.00545 0.0
N587 N 0.5795 0.93128 0.10927 0.0
H588 H 0.66579 0.45723 0.90752 0.0
H589 H 0.54751 0.4536 0.94601 0.0
H590 H 0.62426 0.405 0.00744 0.0
H591 H 0.58542 0.50391 0.83096 0.0
H592 H 0.57551 0.43457 0.96222 0.0
H593 H 0.63689 0.47312 0.87137 0.0
C594 C 0.65065 0.44887 0.92129 0.0
C595 C 0.64763 0.42985 0.96157 0.0
C596 C 0.57783 0.44969 0.93311 0.0
C597 C 0.61449 0.44834 0.92112 0.0
C598 C 0.5618 0.46062 0.92393 0.0
C599 C 0.56423 0.48051 0.88771 0.0
C600 C 0.5967 0.45876 0.9065 0.0
C601 C 0.58299 0.48865 0.85948 0.0
C602 C 0.63415 0.45811 0.9009 0.0
C603 C 0.62755 0.41997 0.97785 0.0
N604 N 0.59865 0.47787 0.87007 0.0
N605 N 0.61189 0.42944 0.95817 0.0
H606 H 0.95734 0.65191 0.90936 0.0
H607 H 0.97292 0.52791 0.95623 0.0
H608 H 0.92595 0.60163 0.03843 0.0
H609 H 0.00349 0.57488 0.81961 0.0
H610 H 0.95287 0.5542 0.97836 0.0
H611 H 0.97123 0.62393 0.86766 0.0
C612 C 0.95315 0.6351 0.92896 0.0
C613 C 0.9407 0.62957 0.97902 0.0
C614 C 0.96365 0.55879 0.94274 0.0
C615 C 0.95713 0.59728 0.93144 0.0
C616 C 0.975 0.54362 0.92969 0.0
C617 C 0.98974 0.549 0.88544 0.0
C618 C 0.96718 0.57994 0.91219 0.0
C619 C 0.99203 0.56985 0.85334 0.0
C620 C 0.96129 0.6191 0.90514 0.0
C621 C 0.93602 0.60724 1.00155 0.0
N622 N 0.98109 0.58466 0.86783 0.0
N623 N 0.94437 0.59218 0.97823 0.0
H624 H 0.13534 0.14771 0.75581 0.0
H625 H 0.0188 0.08991 0.78764 0.0
H626 H 0.08746 0.1836 0.77006 0.0
H627 H 0.06294 0.06306 0.7037 0.0
H628 H 0.04418 0.12343 0.7938 0.0
H629 H 0.10956 0.11408 0.75735 0.0
C630 C 0.11954 0.14859 0.7603 0.0
C631 C 0.11368 0.16886 0.76051 0.0
C632 C 0.04819 0.11041 0.77269 0.0
C633 C 0.08427 0.13044 0.76292 0.0
C634 C 0.03355 0.09162 0.76761 0.0
C635 C 0.03873 0.07407 0.7437 0.0
C636 C 0.06817 0.11139 0.75457 0.0
C637 C 0.05834 0.07652 0.72115 0.0
C638 C 0.10487 0.12938 0.76085 0.0
C639 C 0.09298 0.16865 0.76911 0.0
N640 N 0.07255 0.0947 0.7281 0.0
N641 N 0.07903 0.14981 0.76909 0.0
H642 H 0.38706 0.03877 0.85455 0.0
H643 H 0.44967 0.94527 0.87587 0.0
H644 H 0.35331 0.97256 0.86736 0.0
H645 H 0.45865 1.00273 0.75038 0.0
H646 H 0.41702 0.95332 0.9037 0.0
H647 H 0.41854 0.02505 0.8641 0.0
C648 C 0.38617 0.02127 0.86375 0.0
C649 C 0.3679 1.0067 0.85558 0.0
C650 C 0.42608 0.96384 0.86935 0.0
C651 C 0.40332 0.99102 0.86633 0.0
C652 C 0.44425 0.95886 0.852 0.0
C653 C 0.45672 0.97323 0.81024 0.0
C654 C 0.42099 0.98361 0.8459 0.0
C655 C 0.44932 0.991 0.78182 0.0
C656 C 0.40417 0.01348 0.86736 0.0
C657 C 0.36742 0.98427 0.87007 0.0
N658 N 0.4323 0.99617 0.80163 0.0
N659 N 0.38508 0.97689 0.87154 0.0
H660 H 0.4573 0.28183 0.57044 0.0
H661 H 0.46499 0.40641 0.57654 0.0
H662 H 0.40976 0.31536 0.50596 0.0
H663 H 0.49327 0.36939 0.71176 0.0
H664 H 0.44604 0.37249 0.54701 0.0
H665 H 0.47115 0.31243 0.62433 0.0
C666 C 0.4494 0.29529 0.56894 0.0
C667 C 0.43255 0.29629 0.5328 0.0
C668 C 0.45613 0.37177 0.58378 0.0
C669 C 0.44871 0.33136 0.59245 0.0
C670 C 0.46694 0.39112 0.60074 0.0
C671 C 0.48042 0.39069 0.64739 0.0
C672 C 0.45905 0.35181 0.61295 0.0
C673 C 0.483 0.37037 0.67554 0.0
C674 C 0.45744 0.31279 0.59935 0.0
C675 C 0.42309 0.31422 0.53207 0.0
N676 N 0.47244 0.35159 0.65757 0.0
N677 N 0.43158 0.33132 0.56046 0.0
H678 H 0.17521 0.55664 0.71693 0.0
H679 H 0.07335 0.57095 0.85464 0.0
H680 H 0.17457 0.61333 0.80413 0.0
H681 H 0.07521 0.54281 0.69505 0.0
H682 H 0.11023 0.58398 0.8487 0.0
H683 H 0.13832 0.54659 0.7257 0.0
C684 C 0.16733 0.5666 0.73962 0.0
C685 C 0.17789 0.5858 0.76011 0.0
C686 C 0.10247 0.57551 0.81418 0.0
C687 C 0.13572 0.57468 0.76885 0.0
C688 C 0.08146 0.56837 0.81703 0.0
C689 C 0.07126 0.55621 0.77458 0.0
C690 C 0.11332 0.56996 0.76929 0.0
C691 C 0.08247 0.55259 0.7278 0.0
C692 C 0.14628 0.56108 0.74356 0.0
C693 C 0.1669 0.59839 0.78792 0.0
N694 N 0.10301 0.55908 0.72696 0.0
N695 N 0.1463 0.5926 0.79156 0.0
H696 H 0.94129 0.83987 0.84856 0.0
H697 H 0.98122 0.95443 0.96603 0.0
H698 H 0.90796 0.86439 0.97458 0.0
H699 H 0.01177 0.92797 0.83844 0.0
H700 H 0.9528 0.923 0.96616 0.0
H701 H 0.96359 0.8753 0.83183 0.0
C702 C 0.93822 0.85277 0.87186 0.0
C703 C 0.92313 0.8487 0.91516 0.0
C704 C 0.96592 0.9239 0.93898 0.0
C705 C 0.94963 0.88917 0.89832 0.0
C706 C 0.98239 0.94143 0.94036 0.0
C707 C 0.99912 0.94336 0.90365 0.0
C708 C 0.96638 0.90827 0.90077 0.0
C709 C 0.99945 0.92667 0.8689 0.0
C710 C 0.9513 0.87304 0.86289 0.0
C711 C 0.92004 0.86642 0.94303 0.0
N712 N 0.98326 0.90998 0.86788 0.0
N713 N 0.93357 0.88577 0.93542 0.0
H714 H 0.68413 0.05317 0.80824 0.0
H715 H 0.57149 1.00166 0.85753 0.0
H716 H 0.65818 0.98691 0.77809 0.0
H717 H 0.58827 0.07109 0.80572 0.0
H718 H 0.60465 0.99737 0.82997 0.0
H719 H 0.65088 0.0625 0.79498 0.0
C720 C 0.67169 0.04079 0.79575 0.0
C721 C 0.6736 0.01884 0.79788 0.0
C722 C 0.60136 0.01368 0.82561 0.0
C723 C 0.63566 0.02932 0.78472 0.0
C724 C 0.58263 0.01627 0.84373 0.0
C725 C 0.57742 0.03693 0.83656 0.0
C726 C 0.61537 0.032 0.80124 0.0
C727 C 0.59201 0.05503 0.8138 0.0
C728 C 0.65259 0.04612 0.78914 0.0
C729 C 0.65707 1.00379 0.77964 0.0
N730 N 0.61056 0.0522 0.79738 0.0
N731 N 0.63848 0.00902 0.77653 0.0
H732 H 0.57752 0.73289 0.07198 0.0
H733 H 0.56225 0.60819 0.09095 0.0
H734 H 0.61998 0.69714 0.16027 0.0
H735 H 0.54952 0.64268 0.92628 0.0
H736 H 0.58037 0.64241 0.12098 0.0
H737 H 0.56585 0.70227 0.01559 0.0
C738 C 0.58485 0.71894 0.07818 0.0
C739 C 0.5993 0.71714 0.12203 0.0
C740 C 0.57393 0.64245 0.07785 0.0
C741 C 0.5857 0.68235 0.05946 0.0
C742 C 0.56358 0.62298 0.06074 0.0
C743 C 0.5549 0.62263 0.00555 0.0
C744 C 0.57536 0.66179 0.03991 0.0
C745 C 0.55621 0.64239 0.96906 0.0
C746 C 0.57809 0.70151 0.04625 0.0
C747 C 0.60833 0.6988 0.12821 0.0
N748 N 0.5663 0.66141 0.98705 0.0
N749 N 0.60097 0.6818 0.09836 0.0
H750 H 0.85685 0.42163 0.83699 0.0
H751 H 0.96758 0.45705 0.97031 0.0
H752 H 0.86932 0.41395 0.02067 0.0
H753 H 0.95569 0.45631 0.78712 0.0
H754 H 0.93189 0.43956 0.9903 0.0
H755 H 0.89323 0.43375 0.81791 0.0
C756 C 0.86719 0.42232 0.87334 0.0
C757 C 0.85989 0.41666 0.93064 0.0
C758 C 0.93723 0.44296 0.94578 0.0
C759 C 0.90169 0.43036 0.909 0.0
C760 C 0.95765 0.45272 0.93449 0.0
C761 C 0.96468 0.45815 0.87708 0.0
C762 C 0.92381 0.43872 0.89932 0.0
C763 C 0.95097 0.45253 0.83217 0.0
C764 C 0.88801 0.42914 0.86238 0.0
C765 C 0.87415 0.41773 0.97577 0.0
N766 N 0.93123 0.44337 0.8442 0.0
N767 N 0.89429 0.42455 0.96402 0.0
H768 H 0.10188 0.17258 0.34927 0.0
H769 H 0.09113 0.13658 0.02669 0.0
H770 H 0.12008 0.21835 0.19621 0.0
H771 H 0.06561 0.09549 0.18075 0.0
H772 H 0.10442 0.16593 0.08693 0.0
H773 H 0.0918 0.14358 0.28761 0.0
C774 C 0.10401 0.17669 0.30289 0.0
C775 C 0.11186 0.19839 0.27877 0.0
C776 C 0.09589 0.15047 0.10744 0.0
C777 C 0.09962 0.16466 0.20666 0.0
C778 C 0.08836 0.13359 0.07303 0.0
C779 C 0.07694 0.11333 0.09809 0.0
C780 C 0.09226 0.14713 0.16777 0.0
C781 C 0.07389 0.11077 0.15869 0.0
C782 C 0.09796 0.15999 0.2674 0.0
C783 C 0.11375 0.2022 0.21759 0.0
N784 N 0.08144 0.1273 0.19101 0.0
N785 N 0.10765 0.18565 0.18394 0.0
H786 H 0.35568 0.05391 0.30304 0.0
H787 H 0.41294 0.98674 0.11121 0.0
H788 H 0.33679 0.98447 0.29816 0.0
H789 H 0.42247 0.05723 0.09078 0.0
H790 H 0.38561 0.98521 0.18099 0.0
H791 H 0.38078 0.05527 0.22661 0.0
C792 C 0.35691 0.03895 0.2858 0.0
C793 C 0.34426 0.01905 0.30683 0.0
C794 C 0.3936 1.00101 0.16093 0.0
C795 C 0.37307 0.02034 0.21991 0.0
C796 C 0.40929 1.0019 0.12123 0.0
C797 C 0.42015 0.02216 0.09495 0.0
C798 C 0.38883 0.02051 0.17524 0.0
C799 C 0.41447 0.04123 0.10932 0.0
C800 C 0.37116 0.03971 0.2421 0.0
C801 C 0.34628 1.00013 0.28287 0.0
N802 N 0.39939 0.03994 0.14867 0.0
N803 N 0.36053 1.00119 0.24105 0.0
H804 H 0.45742 0.32217 0.95661 0.0
H805 H 0.47722 0.45084 0.98886 0.0
H806 H 0.44892 0.34736 0.11751 0.0
H807 H 0.49152 0.425 0.83432 0.0
H808 H 0.46477 0.41331 0.03474 0.0
H809 H 0.4681 0.35956 0.91019 0.0
C810 C 0.45782 0.3354 0.98267 0.0
C811 C 0.45238 0.33109 0.04202 0.0
C812 C 0.47051 0.41584 0.99067 0.0
C813 C 0.46425 0.37468 0.98742 0.0
C814 C 0.47755 0.43735 0.96421 0.0
C815 C 0.48537 0.4413 0.90722 0.0
C816 C 0.47115 0.39796 0.96011 0.0
C817 C 0.4856 0.42293 0.87813 0.0
C818 C 0.46381 0.35693 0.95562 0.0
C819 C 0.45271 0.34944 0.07186 0.0
N820 N 0.47864 0.40222 0.90475 0.0
N821 N 0.45855 0.37025 0.04443 0.0
H822 H 0.18924 0.55074 0.34706 0.0
H823 H 0.14298 0.56033 0.02562 0.0
H824 H 0.21848 0.59821 0.20876 0.0
H825 H 0.11191 0.52074 0.17425 0.0
H826 H 0.1715 0.57377 0.08887 0.0
H827 H 0.16166 0.53883 0.28173 0.0
C828 C 0.18979 0.5589 0.30312 0.0
C829 C 0.20624 0.57574 0.28396 0.0
C830 C 0.15844 0.56214 0.10758 0.0
C831 C 0.17449 0.56176 0.20773 0.0
C832 C 0.14221 0.55447 0.07152 0.0
C833 C 0.125 0.53954 0.09493 0.0
C834 C 0.15759 0.55448 0.16723 0.0
C835 C 0.12474 0.53246 0.1546 0.0
C836 C 0.17402 0.55194 0.26552 0.0
C837 C 0.20622 0.58512 0.22563 0.0
N838 N 0.14075 0.53988 0.18843 0.0
N839 N 0.19061 0.57804 0.18966 0.0
H840 H 0.94664 0.80012 0.43508 0.0
H841 H 0.93981 0.91921 0.51733 0.0
H842 H 0.91777 0.84526 0.32491 0.0
H843 H 0.98117 0.88091 0.5992 0.0
H844 H 0.92815 0.89055 0.45393 0.0
H845 H 0.95538 0.82731 0.50288 0.0
C846 C 0.94192 0.81563 0.42501 0.0
C847 C 0.93139 0.82016 0.37329 0.0
C848 C 0.93969 0.88833 0.48596 0.0
C849 C 0.94189 0.85191 0.45167 0.0
C850 C 0.9463 0.90465 0.52242 0.0
C851 C 0.96157 0.90257 0.56372 0.0
C852 C 0.94811 0.86942 0.4912 0.0
C853 C 0.9695 0.88335 0.56781 0.0
C854 C 0.94715 0.8313 0.46386 0.0
C855 C 0.92614 0.84092 0.3633 0.0
N856 N 0.96265 0.86757 0.53238 0.0
N857 N 0.93142 0.8559 0.40188 0.0
H858 H 0.68612 0.03788 0.31638 0.0
H859 H 0.62017 0.96246 0.57689 0.0
H860 H 0.69656 0.9743 0.38608 0.0
H861 H 0.61577 0.02948 0.52159 0.0
H862 H 0.64823 0.96642 0.50854 0.0
H863 H 0.66017 0.03489 0.39105 0.0
C864 C 0.68289 0.02324 0.34728 0.0
C865 C 0.69349 1.00628 0.34471 0.0
C866 C 0.64116 0.98028 0.5115 0.0
C867 C 0.66369 1.0027 0.43067 0.0
C868 C 0.62515 0.9781 0.55097 0.0
C869 C 0.61529 0.99562 0.55527 0.0
C870 C 0.64741 1.00008 0.47546 0.0
C871 C 0.62245 0.01532 0.51937 0.0
C872 C 0.66813 0.02158 0.39016 0.0
C873 C 0.68886 0.98784 0.38659 0.0
N874 N 0.63792 0.01695 0.481 0.0
N875 N 0.67425 0.98648 0.42751 0.0
H876 H 0.59628 0.6683 0.55249 0.0
H877 H 0.53788 0.58703 0.81743 0.0
H878 H 0.55884 0.68821 0.67673 0.0
H879 H 0.56241 0.56367 0.67226 0.0
H880 H 0.54905 0.62454 0.77199 0.0
H881 H 0.58746 0.63071 0.60063 0.0
C882 C 0.58614 0.66491 0.58958 0.0
C883 C 0.57824 0.68181 0.60975 0.0
C884 C 0.5521 0.61127 0.75003 0.0
C885 C 0.56832 0.63838 0.66617 0.0
C886 C 0.54577 0.58971 0.77613 0.0
C887 C 0.54918 0.5719 0.74894 0.0
C888 C 0.56211 0.61541 0.69604 0.0
C889 C 0.55948 0.57674 0.6952 0.0
C890 C 0.5812 0.64334 0.61732 0.0
C891 C 0.56561 0.6761 0.65939 0.0
N892 N 0.56555 0.59796 0.67062 0.0
N893 N 0.56108 0.65503 0.68556 0.0
H894 H 0.85677 0.44709 0.29823 0.0
H895 H 0.89089 0.46226 0.62585 0.0
H896 H 0.81775 0.41765 0.44419 0.0
H897 H 0.92993 0.48197 0.47529 0.0
H898 H 0.86306 0.44738 0.56256 0.0
H899 H 0.88291 0.46118 0.36482 0.0
C900 C 0.85375 0.44326 0.34435 0.0
C901 C 0.83503 0.43078 0.36522 0.0
C902 C 0.87777 0.45487 0.54365 0.0
C903 C 0.86509 0.44756 0.44269 0.0
C904 C 0.89366 0.46346 0.57966 0.0
C905 C 0.91297 0.47319 0.55609 0.0
C906 C 0.88119 0.45624 0.48361 0.0
C907 C 0.91557 0.47421 0.4959 0.0
C908 C 0.86869 0.45155 0.38258 0.0
C909 C 0.8319 0.42719 0.42584 0.0
N910 N 0.89995 0.46591 0.46208 0.0
N911 N 0.84678 0.43552 0.46247 0.0
loop_
_geom_bond_atom_site_label_1
_geom_bond_atom_site_label_2
_geom_bond_distance
_geom_bond_site_symmetry_2
_ccdc_geom_bond_type
C0 C1 1.264 . S
C0 C5 1.479 . S
C0 C10 1.465 . S
C1 C0 1.264 . S
C1 C3 1.339 . S
C1 H28 0.931 . S
C2 C3 1.395 . S
C2 C4 1.320 . S
C3 C1 1.339 . S
C3 C2 1.395 . S
C3 H29 0.929 . S
C4 C2 1.320 . S
C4 C5 1.405 . S
C4 H30 0.930 . S
C5 C0 1.479 . S
C5 C4 1.405 . S
C5 H31 0.931 . S
U6 O7 2.454 . S
U6 O8 2.468 . S
U6 C9 2.984 . S
U6 C10 2.847 . S
U6 C23 2.882 1_554 S
U6 O24 2.441 . S
U6 O25 2.420 . S
U6 O26 2.455 1_554 S
U6 O27 2.449 . S
O7 U6 2.454 . S
O7 C9 1.353 . S
O8 U6 2.468 . S
O8 C9 1.296 . S
C9 U6 2.984 . S
C9 O7 1.353 . S
C9 O8 1.296 . S
C9 C11 1.363 . S
C10 C0 1.465 . S
C10 U6 2.847 . S
C10 O24 1.249 . S
C10 O25 1.202 . S
C11 C9 1.363 . S
C11 C13 1.408 . S
C11 C16 1.342 1_554 S
C12 C13 1.310 . S
C12 C15 1.461 1_554 S
C12 H32 0.932 . S
C13 C11 1.408 . S
C13 C12 1.310 . S
C13 H33 0.930 . S
C14 C15 1.474 . S
C14 C16 1.285 . S
C14 H34 0.929 . S
C15 C12 1.461 1_556 S
C15 C14 1.474 . S
C16 C11 1.342 1_556 S
C16 C14 1.285 . S
C16 H35 0.930 . S
C17 C20 1.424 . S
C17 C22 1.245 . S
C17 C23 1.428 . S
C18 C21 1.260 . S
C18 C22 1.477 . S
C18 H36 0.932 . S
C19 C20 1.384 . S
C19 C21 1.479 . S
C19 H37 0.929 . S
C20 C17 1.424 . S
C20 C19 1.384 . S
C20 H38 0.928 . S
C21 C18 1.260 . S
C21 C19 1.479 . S
C22 C17 1.245 . S
C22 C18 1.477 . S
C22 H39 0.932 . S
C23 U6 2.882 1_556 S
C23 C17 1.428 . S
C23 O26 1.301 . S
C23 O27 1.282 1_556 S
O24 U6 2.441 . S
O24 C10 1.249 . S
O25 U6 2.420 . S
O25 C10 1.202 . S
O26 U6 2.455 1_556 S
O26 C23 1.301 . S
O27 U6 2.449 . S
O27 C23 1.282 1_554 S
H28 C1 0.931 . S
H29 C3 0.929 . S
H30 C4 0.930 . S
H31 C5 0.931 . S
H32 C12 0.932 . S
H33 C13 0.930 . S
H34 C14 0.929 . S
H35 C16 0.930 . S
H36 C18 0.932 . S
H37 C19 0.929 . S
H38 C20 0.928 . S
H39 C22 0.932 . S
C40 C41 1.264 . S
C40 C45 1.479 . S
C40 C50 1.465 . S
C41 C40 1.264 . S
C41 C43 1.339 . S
C41 H68 0.931 . S
C42 C43 1.395 . S
C42 C44 1.320 . S
C43 C41 1.339 . S
C43 C42 1.395 . S
C43 H69 0.929 . S
C44 C42 1.320 . S
C44 C45 1.405 . S
C44 H70 0.930 . S
C45 C40 1.479 . S
C45 C44 1.405 . S
C45 H71 0.931 . S
U46 O47 2.454 . S
U46 O48 2.458 . S
U46 C49 2.984 . S
U46 C50 2.847 . S
U46 C63 2.882 1_554 S
U46 O64 2.441 . S
U46 O65 2.420 . S
U46 O66 2.455 1_554 S
U46 O67 2.449 . S
O47 U46 2.454 . S
O47 C49 1.353 . S
O48 U46 2.458 . S
O48 C49 1.286 . S
C49 U46 2.984 . S
C49 O47 1.353 . S
C49 O48 1.286 . S
C49 C51 1.363 . S
C50 C40 1.465 . S
C50 U46 2.847 . S
C50 O64 1.249 . S
C50 O65 1.202 . S
C51 C49 1.363 . S
C51 C53 1.408 . S
C51 C56 1.342 1_554 S
C52 C53 1.310 . S
C52 C55 1.461 . S
C52 H72 0.932 . S
C53 C51 1.408 . S
C53 C52 1.310 . S
C53 H73 0.930 . S
C54 C55 1.474 1_556 S
C54 C56 1.285 . S
C54 H74 0.929 . S
C55 C52 1.461 . S
C55 C54 1.474 1_554 S
C56 C51 1.342 1_556 S
C56 C54 1.285 . S
C56 H75 0.930 . S
C57 C60 1.424 . S
C57 C62 1.245 . S
C57 C63 1.428 . S
C58 C61 1.260 . S
C58 C62 1.477 . S
C58 H76 0.932 . S
C59 C60 1.384 . S
C59 C61 1.479 . S
C59 H77 0.929 . S
C60 C57 1.424 . S
C60 C59 1.384 . S
C60 H78 0.928 . S
C61 C58 1.260 . S
C61 C59 1.479 . S
C62 C57 1.245 . S
C62 C58 1.477 . S
C62 H79 0.932 . S
C63 U46 2.882 1_556 S
C63 C57 1.428 . S
C63 O66 1.301 . S
C63 O67 1.282 1_556 S
O64 U46 2.441 . S
O64 C50 1.249 . S
O65 U46 2.420 . S
O65 C50 1.202 . S
O66 U46 2.455 1_556 S
O66 C63 1.301 . S
O67 U46 2.449 . S
O67 C63 1.282 1_554 S
H68 C41 0.931 . S
H69 C43 0.929 . S
H70 C44 0.930 . S
H71 C45 0.931 . S
H72 C52 0.932 . S
H73 C53 0.930 . S
H74 C54 0.929 . S
H75 C56 0.930 . S
H76 C58 0.932 . S
H77 C59 0.929 . S
H78 C60 0.928 . S
H79 C62 0.932 . S
C80 C81 1.264 . S
C80 C85 1.479 . S
C80 C90 1.465 . S
C81 C80 1.264 . S
C81 C83 1.339 . S
C81 H108 0.931 . S
C82 C83 1.395 . S
C82 C84 1.320 . S
C83 C81 1.339 . S
C83 C82 1.395 . S
C83 H109 0.929 . S
C84 C82 1.320 . S
C84 C85 1.405 . S
C84 H110 0.920 1_545 S
C85 C80 1.479 . S
C85 C84 1.405 . S
C85 H111 0.931 . S
U86 O87 2.454 . S
U86 O88 2.458 1_554 S
U86 C89 2.984 1_554 S
U86 C90 2.847 . S
U86 C103 2.882 1_554 S
U86 O104 2.441 . S
U86 O105 2.420 . S
U86 O106 2.455 1_554 S
U86 O107 2.449 1_554 S
O87 U86 2.454 . S
O87 C89 1.353 1_554 S
O88 U86 2.458 1_556 S
O88 C89 1.286 . S
C89 U86 2.984 1_556 S
C89 O87 1.353 1_556 S
C89 O88 1.286 . S
C89 C91 1.363 . S
C90 C80 1.465 . S
C90 U86 2.847 . S
C90 O104 1.249 . S
C90 O105 1.202 . S
C91 C89 1.363 . S
C91 C93 1.408 1_556 S
C91 C96 1.342 . S
C92 C93 1.310 1_556 S
C92 C95 1.462 . S
C92 H112 0.932 1_556 S
C93 C91 1.408 1_554 S
C93 C92 1.310 1_554 S
C93 H113 0.930 . S
C94 C95 1.475 1_565 S
C94 C96 1.282 1_565 S
C94 H114 0.932 . S
C95 C92 1.462 . S
C95 C94 1.475 1_545 S
C96 C91 1.342 . S
C96 C94 1.282 1_545 S
C96 H115 0.930 . S
C97 C100 1.424 . S
C97 C102 1.245 . S
C97 C103 1.428 . S
C98 C101 1.260 . S
C98 C102 1.477 . S
C98 H116 0.932 . S
C99 C100 1.384 . S
C99 C101 1.479 . S
C99 H117 0.929 . S
C100 C97 1.424 . S
C100 C99 1.384 . S
C100 H118 0.928 . S
C101 C98 1.260 . S
C101 C99 1.479 . S
C102 C97 1.245 . S
C102 C98 1.477 . S
C102 H119 0.932 . S
C103 U86 2.882 1_556 S
C103 C97 1.428 . S
C103 O106 1.301 . S
C103 O107 1.282 . S
O104 U86 2.441 . S
O104 C90 1.249 . S
O105 U86 2.420 . S
O105 C90 1.202 . S
O106 U86 2.455 1_556 S
O106 C103 1.301 . S
O107 U86 2.449 1_556 S
O107 C103 1.282 . S
H108 C81 0.931 . S
H109 C83 0.929 . S
H110 C84 0.920 1_565 S
H111 C85 0.931 . S
H112 C92 0.932 1_554 S
H113 C93 0.930 . S
H114 C94 0.932 . S
H115 C96 0.930 . S
H116 C98 0.932 . S
H117 C99 0.929 . S
H118 C100 0.928 . S
H119 C102 0.932 . S
C120 C121 1.264 . S
C120 C125 1.479 . S
C120 C130 1.465 . S
C121 C120 1.264 . S
C121 C123 1.339 . S
C121 H148 0.931 . S
C122 C123 1.395 . S
C122 C124 1.320 . S
C123 C121 1.339 . S
C123 C122 1.395 . S
C123 H149 0.929 . S
C124 C122 1.320 . S
C124 C125 1.405 . S
C124 H150 0.930 . S
C125 C120 1.479 . S
C125 C124 1.405 . S
C125 H151 0.931 . S
U126 O127 2.454 . S
U126 O128 2.458 . S
U126 C129 2.984 . S
U126 C130 2.847 . S
U126 C143 2.882 . S
U126 O144 2.441 . S
U126 O145 2.420 . S
U126 O146 2.455 . S
U126 O147 2.449 . S
O127 U126 2.454 . S
O127 C129 1.353 . S
O128 U126 2.458 . S
O128 C129 1.286 . S
C129 U126 2.984 . S
C129 O127 1.353 . S
C129 O128 1.286 . S
C129 C131 1.363 . S
C130 C120 1.465 . S
C130 U126 2.847 . S
C130 O144 1.249 . S
C130 O145 1.202 . S
C131 C129 1.363 . S
C131 C133 1.408 . S
C131 C136 1.342 . S
C132 C133 1.310 . S
C132 C135 1.461 . S
C132 H152 0.932 . S
C133 C131 1.408 . S
C133 C132 1.310 . S
C133 H153 0.930 . S
C134 C135 1.474 . S
C134 C136 1.285 . S
C134 H154 0.929 . S
C135 C132 1.461 . S
C135 C134 1.474 . S
C136 C131 1.342 . S
C136 C134 1.285 . S
C136 H155 0.930 . S
C137 C140 1.424 . S
C137 C142 1.245 . S
C137 C143 1.428 . S
C138 C141 1.260 . S
C138 C142 1.477 . S
C138 H156 0.932 . S
C139 C140 1.384 . S
C139 C141 1.479 . S
C139 H157 0.929 . S
C140 C137 1.424 . S
C140 C139 1.384 . S
C140 H158 0.928 . S
C141 C138 1.260 . S
C141 C139 1.479 . S
C142 C137 1.245 . S
C142 C138 1.477 . S
C142 H159 0.932 . S
C143 U126 2.882 . S
C143 C137 1.428 . S
C143 O146 1.301 . S
C143 O147 1.282 . S
O144 U126 2.441 . S
O144 C130 1.249 . S
O145 U126 2.420 . S
O145 C130 1.202 . S
O146 U126 2.455 . S
O146 C143 1.301 . S
O147 U126 2.449 . S
O147 C143 1.282 . S
H148 C121 0.931 . S
H149 C123 0.929 . S
H150 C124 0.930 . S
H151 C125 0.931 . S
H152 C132 0.932 . S
H153 C133 0.930 . S
H154 C134 0.929 . S
H155 C136 0.930 . S
H156 C138 0.932 . S
H157 C139 0.929 . S
H158 C140 0.928 . S
H159 C142 0.932 . S
C160 C161 1.264 . S
C160 C165 1.479 . S
C160 C170 1.465 . S
C161 C160 1.264 . S
C161 C163 1.339 . S
C161 H188 0.931 . S
C162 C163 1.395 . S
C162 C164 1.320 . S
C163 C161 1.339 . S
C163 C162 1.395 . S
C163 H189 0.929 . S
C164 C162 1.320 . S
C164 C165 1.405 . S
C164 H190 0.930 . S
C165 C160 1.479 . S
C165 C164 1.405 . S
C165 H191 0.931 . S
U166 O167 2.454 . S
U166 O168 2.458 . S
U166 C169 2.984 . S
U166 C170 2.847 . S
U166 C183 2.882 . S
U166 O184 2.441 . S
U166 O185 2.420 . S
U166 O186 2.455 . S
U166 O187 2.449 . S
O167 U166 2.454 . S
O167 C169 1.353 . S
O168 U166 2.458 . S
O168 C169 1.286 . S
C169 U166 2.984 . S
C169 O167 1.353 . S
C169 O168 1.286 . S
C169 C171 1.363 . S
C170 C160 1.465 . S
C170 U166 2.847 . S
C170 O184 1.249 . S
C170 O185 1.202 . S
C171 C169 1.363 . S
C171 C173 1.408 . S
C171 C176 1.342 . S
C172 C173 1.310 . S
C172 C175 1.461 . S
C172 H192 0.932 . S
C173 C171 1.408 . S
C173 C172 1.310 . S
C173 H193 0.930 . S
C174 C175 1.474 . S
C174 C176 1.285 . S
C174 H194 0.929 . S
C175 C172 1.461 . S
C175 C174 1.474 . S
C176 C171 1.342 . S
C176 C174 1.285 . S
C176 H195 0.930 . S
C177 C180 1.424 . S
C177 C182 1.245 . S
C177 C183 1.428 . S
C178 C181 1.260 . S
C178 C182 1.477 . S
C178 H196 0.932 . S
C179 C180 1.384 . S
C179 C181 1.479 . S
C179 H197 0.929 . S
C180 C177 1.424 . S
C180 C179 1.384 . S
C180 H198 0.928 . S
C181 C178 1.260 . S
C181 C179 1.479 . S
C182 C177 1.245 . S
C182 C178 1.477 . S
C182 H199 0.932 . S
C183 U166 2.882 . S
C183 C177 1.428 . S
C183 O186 1.301 . S
C183 O187 1.282 . S
O184 U166 2.441 . S
O184 C170 1.249 . S
O185 U166 2.420 . S
O185 C170 1.202 . S
O186 U166 2.455 . S
O186 C183 1.301 . S
O187 U166 2.449 . S
O187 C183 1.282 . S
H188 C161 0.931 . S
H189 C163 0.929 . S
H190 C164 0.930 . S
H191 C165 0.931 . S
H192 C172 0.932 . S
H193 C173 0.930 . S
H194 C174 0.929 . S
H195 C176 0.930 . S
H196 C178 0.932 . S
H197 C179 0.929 . S
H198 C180 0.928 . S
H199 C182 0.932 . S
C200 C201 1.264 . S
C200 C205 1.479 . S
C200 C210 1.465 . S
C201 C200 1.264 . S
C201 C203 1.339 . S
C201 H228 0.931 . S
C202 C203 1.395 . S
C202 C204 1.320 . S
C203 C201 1.339 . S
C203 C202 1.395 . S
C203 H229 0.929 . S
C204 C202 1.320 . S
C204 C205 1.405 . S
C204 H230 0.930 . S
C205 C200 1.479 . S
C205 C204 1.405 . S
C205 H231 0.931 . S
U206 O207 2.454 . S
U206 O208 2.458 . S
U206 C209 2.984 . S
U206 C210 2.847 . S
U206 C223 2.882 . S
U206 O224 2.441 . S
U206 O225 2.420 . S
U206 O226 2.455 . S
U206 O227 2.449 . S
O207 U206 2.454 . S
O207 C209 1.353 . S
O208 U206 2.458 . S
O208 C209 1.286 . S
C209 U206 2.984 . S
C209 O207 1.353 . S
C209 O208 1.286 . S
C209 C211 1.363 . S
C210 C200 1.465 . S
C210 U206 2.847 . S
C210 O224 1.249 . S
C210 O225 1.202 . S
C211 C209 1.363 . S
C211 C213 1.408 . S
C211 C216 1.342 . S
C212 C213 1.310 . S
C212 C215 1.461 . S
C212 H232 0.932 . S
C213 C211 1.408 . S
C213 C212 1.310 . S
C213 H233 0.930 . S
C214 C215 1.474 . S
C214 C216 1.285 . S
C214 H234 0.929 . S
C215 C212 1.461 . S
C215 C214 1.474 . S
C216 C211 1.342 . S
C216 C214 1.285 . S
C216 H235 0.930 . S
C217 C220 1.424 . S
C217 C222 1.245 . S
C217 C223 1.428 . S
C218 C221 1.260 . S
C218 C222 1.477 . S
C218 H236 0.932 . S
C219 C220 1.384 . S
C219 C221 1.479 . S
C219 H237 0.929 . S
C220 C217 1.424 . S
C220 C219 1.384 . S
C220 H238 0.928 . S
C221 C218 1.260 . S
C221 C219 1.479 . S
C222 C217 1.245 . S
C222 C218 1.477 . S
C222 H239 0.932 . S
C223 U206 2.882 . S
C223 C217 1.428 . S
C223 O226 1.301 . S
C223 O227 1.282 . S
O224 U206 2.441 . S
O224 C210 1.249 . S
O225 U206 2.420 . S
O225 C210 1.202 . S
O226 U206 2.455 . S
O226 C223 1.301 . S
O227 U206 2.449 . S
O227 C223 1.282 . S
H228 C201 0.931 . S
H229 C203 0.929 . S
H230 C204 0.930 . S
H231 C205 0.931 . S
H232 C212 0.932 . S
H233 C213 0.930 . S
H234 C214 0.929 . S
H235 C216 0.930 . S
H236 C218 0.932 . S
H237 C219 0.929 . S
H238 C220 0.928 . S
H239 C222 0.932 . S
C240 C241 1.264 . S
C240 C245 1.479 . S
C240 C250 1.465 . S
C241 C240 1.264 . S
C241 C243 1.339 . S
C241 H268 0.931 . S
C242 C243 1.395 . S
C242 C244 1.320 . S
C243 C241 1.339 . S
C243 C242 1.395 . S
C243 H269 0.929 . S
C244 C242 1.320 . S
C244 C245 1.405 . S
C244 H270 0.924 1_545 S
C245 C240 1.479 . S
C245 C244 1.405 . S
C245 H271 0.931 . S
U246 O247 2.454 . S
U246 O248 2.458 . S
U246 C249 2.984 . S
U246 C250 2.847 . S
U246 C263 2.882 . S
U246 O264 2.441 . S
U246 O265 2.420 . S
U246 O266 2.455 . S
U246 O267 2.449 . S
O247 U246 2.454 . S
O247 C249 1.353 . S
O248 U246 2.458 . S
O248 C249 1.286 . S
C249 U246 2.984 . S
C249 O247 1.353 . S
C249 O248 1.286 . S
C249 C251 1.363 . S
C250 C240 1.465 . S
C250 U246 2.847 . S
C250 O264 1.249 . S
C250 O265 1.202 . S
C251 C249 1.363 . S
C251 C253 1.408 . S
C251 C256 1.342 . S
C252 C253 1.310 . S
C252 C255 1.459 . S
C252 H272 0.932 . S
C253 C251 1.408 . S
C253 C252 1.310 . S
C253 H273 0.930 . S
C254 C255 1.473 1_565 S
C254 C256 1.285 1_565 S
C254 H274 0.930 . S
C255 C252 1.459 . S
C255 C254 1.473 1_545 S
C256 C251 1.342 . S
C256 C254 1.285 1_545 S
C256 H275 0.937 . S
C257 C260 1.424 . S
C257 C262 1.245 . S
C257 C263 1.428 . S
C258 C261 1.260 . S
C258 C262 1.477 . S
C258 H276 0.932 . S
C259 C260 1.384 . S
C259 C261 1.479 . S
C259 H277 0.929 . S
C260 C257 1.424 . S
C260 C259 1.384 . S
C260 H278 0.928 . S
C261 C258 1.260 . S
C261 C259 1.479 . S
C262 C257 1.245 . S
C262 C258 1.477 . S
C262 H279 0.932 . S
C263 U246 2.882 . S
C263 C257 1.428 . S
C263 O266 1.301 . S
C263 O267 1.282 . S
O264 U246 2.441 . S
O264 C250 1.249 . S
O265 U246 2.420 . S
O265 C250 1.202 . S
O266 U246 2.455 . S
O266 C263 1.301 . S
O267 U246 2.449 . S
O267 C263 1.282 . S
H268 C241 0.931 . S
H269 C243 0.929 . S
H270 C244 0.924 1_565 S
H271 C245 0.931 . S
H272 C252 0.932 . S
H273 C253 0.930 . S
H274 C254 0.930 . S
H275 C256 0.937 . S
H276 C258 0.932 . S
H277 C259 0.929 . S
H278 C260 0.928 . S
H279 C262 0.932 . S
C280 C281 1.264 . S
C280 C285 1.479 . S
C280 C290 1.465 . S
C281 C280 1.264 . S
C281 C283 1.339 . S
C281 H308 0.931 . S
C282 C283 1.395 . S
C282 C284 1.320 . S
C283 C281 1.339 . S
C283 C282 1.395 . S
C283 H309 0.929 . S
C284 C282 1.320 . S
C284 C285 1.405 . S
C284 H310 0.930 1_554 S
C285 C280 1.479 . S
C285 C284 1.405 . S
C285 H311 0.931 . S
U286 O287 2.454 . S
U286 O288 2.458 . S
U286 C289 2.984 . S
U286 C290 2.847 . S
U286 C303 2.882 . S
U286 O304 2.441 . S
U286 O305 2.420 . S
U286 O306 2.455 . S
U286 O307 2.449 . S
O287 U286 2.454 . S
O287 C289 1.353 . S
O288 U286 2.458 . S
O288 C289 1.286 . S
C289 U286 2.984 . S
C289 O287 1.353 . S
C289 O288 1.286 . S
C289 C291 1.363 . S
C290 C280 1.465 . S
C290 U286 2.847 . S
C290 O304 1.249 . S
C290 O305 1.202 . S
C291 C289 1.363 . S
C291 C293 1.408 . S
C291 C296 1.342 . S
C292 C293 1.310 . S
C292 C295 1.461 . S
C292 H312 0.932 . S
C293 C291 1.408 . S
C293 C292 1.310 . S
C293 H313 0.930 . S
C294 C295 1.474 . S
C294 C296 1.285 . S
C294 H314 0.929 . S
C295 C292 1.461 . S
C295 C294 1.474 . S
C296 C291 1.342 . S
C296 C294 1.285 . S
C296 H315 0.930 . S
C297 C300 1.424 . S
C297 C302 1.245 . S
C297 C303 1.428 . S
C298 C301 1.260 . S
C298 C302 1.477 . S
C298 H316 0.932 . S
C299 C300 1.384 . S
C299 C301 1.479 . S
C299 H317 0.929 . S
C300 C297 1.424 . S
C300 C299 1.384 . S
C300 H318 0.928 . S
C301 C298 1.260 . S
C301 C299 1.479 . S
C302 C297 1.245 . S
C302 C298 1.477 . S
C302 H319 0.932 . S
C303 U286 2.882 . S
C303 C297 1.428 . S
C303 O306 1.301 . S
C303 O307 1.282 . S
O304 U286 2.441 . S
O304 C290 1.249 . S
O305 U286 2.420 . S
O305 C290 1.202 . S
O306 U286 2.455 . S
O306 C303 1.301 . S
O307 U286 2.449 . S
O307 C303 1.282 . S
H308 C281 0.931 . S
H309 C283 0.929 . S
H310 C284 0.930 1_556 S
H311 C285 0.931 . S
H312 C292 0.932 . S
H313 C293 0.930 . S
H314 C294 0.929 . S
H315 C296 0.930 . S
H316 C298 0.932 . S
H317 C299 0.929 . S
H318 C300 0.928 . S
H319 C302 0.932 . S
Nd320 C322 2.836 1_455 S
Nd320 O340 2.500 1_455 S
Nd320 O341 2.492 . S
Nd320 O342 2.487 . S
Nd320 O343 2.682 1_565 S
Nd320 O344 2.410 . S
Nd320 O349 2.431 1_455 S
Nd320 O351 2.424 1_565 S
Nd321 C331 2.836 . S
Nd321 O343 2.414 . S
Nd321 O345 2.424 1_545 S
Nd321 O346 2.500 . S
Nd321 O347 2.492 . S
Nd321 O348 2.487 1_455 S
Nd321 O349 2.678 1_445 S
Nd321 O350 2.410 . S
C322 Nd320 2.836 1_655 S
C322 C323 1.498 . S
C322 O340 1.258 . S
C322 O341 1.239 1_655 S
C323 C322 1.498 . S
C323 C324 1.366 . S
C323 C328 1.407 . S
C324 C323 1.366 . S
C324 C325 1.392 . S
C324 H352 0.930 . S
C325 C324 1.392 . S
C325 C326 1.398 . S
C325 H353 0.929 . S
C326 C325 1.398 . S
C326 C327 1.352 . S
C327 C326 1.352 . S
C327 C328 1.384 . S
C327 H354 0.930 . S
C328 C323 1.407 . S
C328 C327 1.384 . S
C328 H355 0.929 1_655 S
C329 O342 1.241 . S
C329 O343 1.273 1_565 S
C330 O344 1.251 . S
C330 O345 1.268 . S
C331 Nd321 2.836 . S
C331 C332 1.498 . S
C331 O346 1.258 . S
C331 O347 1.239 . S
C332 C331 1.498 . S
C332 C333 1.366 . S
C332 C337 1.407 1_556 S
C333 C332 1.366 . S
C333 C334 1.392 1_556 S
C333 H356 0.930 . S
C334 C333 1.392 1_554 S
C334 C335 1.398 . S
C334 H357 0.929 . S
C335 C334 1.398 . S
C335 C336 1.352 . S
C336 C335 1.352 . S
C336 C337 1.384 . S
C336 H358 0.930 . S
C337 C332 1.407 1_554 S
C337 C336 1.384 . S
C337 H359 0.929 . S
C338 O348 1.241 . S
C338 O349 1.249 1_545 S
C339 O350 1.251 . S
C339 O351 1.268 . S
O340 Nd320 2.500 1_655 S
O340 C322 1.258 . S
O341 Nd320 2.492 . S
O341 C322 1.239 1_455 S
O342 Nd320 2.487 . S
O342 C329 1.241 . S
O343 Nd320 2.682 1_545 S
O343 Nd321 2.414 . S
O343 C329 1.273 1_545 S
O344 Nd320 2.410 . S
O344 C330 1.251 . S
O345 Nd321 2.424 1_565 S
O345 C330 1.268 . S
O346 Nd321 2.500 . S
O346 C331 1.258 . S
O347 Nd321 2.492 . S
O347 C331 1.239 . S
O348 Nd321 2.487 1_655 S
O348 C338 1.241 . S
O349 Nd320 2.431 1_655 S
O349 Nd321 2.678 1_665 S
O349 C338 1.249 1_565 S
O350 Nd321 2.410 . S
O350 C339 1.251 . S
O351 Nd320 2.424 1_545 S
O351 C339 1.268 . S
H352 C324 0.930 . S
H353 C325 0.929 . S
H354 C327 0.930 . S
H355 C328 0.929 1_455 S
H356 C333 0.930 . S
H357 C334 0.929 . S
H358 C336 0.930 . S
H359 C337 0.929 . S
Nd360 C362 2.836 . S
Nd360 O380 2.500 . S
Nd360 O381 2.492 . S
Nd360 O382 2.487 1_565 S
Nd360 O383 2.682 1_565 S
Nd360 O384 2.410 1_565 S
Nd360 O389 2.414 . S
Nd360 O391 2.424 . S
Nd361 C371 2.836 . S
Nd361 O383 2.414 . S
Nd361 O385 2.424 . S
Nd361 O386 2.500 . S
Nd361 O387 2.492 . S
Nd361 O388 2.487 1_545 S
Nd361 O389 2.682 1_545 S
Nd361 O390 2.410 1_545 S
C362 Nd360 2.836 . S
C362 C363 1.498 . S
C362 O380 1.258 . S
C362 O381 1.248 . S
C363 C362 1.498 . S
C363 C364 1.366 . S
C363 C368 1.407 . S
C364 C363 1.366 . S
C364 C365 1.392 . S
C364 H392 0.930 . S
C365 C364 1.392 . S
C365 C366 1.398 . S
C365 H393 0.929 . S
C366 C365 1.398 . S
C366 C367 1.352 . S
C367 C366 1.352 . S
C367 C368 1.384 . S
C367 H394 0.950 . S
C368 C363 1.407 . S
C368 C367 1.384 . S
C368 H395 0.929 1_565 S
C369 O382 1.241 . S
C369 O383 1.273 . S
C370 O384 1.251 . S
C370 O385 1.268 . S
C371 Nd361 2.836 . S
C371 C372 1.498 . S
C371 O386 1.258 . S
C371 O387 1.258 . S
C372 C371 1.498 . S
C372 C373 1.366 . S
C372 C377 1.407 1_556 S
C373 C372 1.366 . S
C373 C374 1.392 1_556 S
C373 H396 0.930 . S
C374 C373 1.392 1_554 S
C374 C375 1.398 . S
C374 H397 0.929 1_554 S
C375 C374 1.398 . S
C375 C376 1.352 . S
C376 C375 1.352 . S
C376 C377 1.384 . S
C376 H398 0.930 . S
C377 C372 1.407 1_554 S
C377 C376 1.384 . S
C377 H399 0.929 1_545 S
C378 O388 1.241 . S
C378 O389 1.273 . S
C379 O390 1.251 . S
C379 O391 1.268 . S
O380 Nd360 2.500 . S
O380 C362 1.258 . S
O381 Nd360 2.492 . S
O381 C362 1.248 . S
O382 Nd360 2.487 1_545 S
O382 C369 1.241 . S
O383 Nd360 2.682 1_545 S
O383 Nd361 2.414 . S
O383 C369 1.273 . S
O384 Nd360 2.410 1_545 S
O384 C370 1.251 . S
O385 Nd361 2.424 . S
O385 C370 1.268 . S
O386 Nd361 2.500 . S
O386 C371 1.258 . S
O387 Nd361 2.492 . S
O387 C371 1.258 . S
O388 Nd361 2.487 1_565 S
O388 C378 1.241 . S
O389 Nd360 2.414 . S
O389 Nd361 2.682 1_565 S
O389 C378 1.273 . S
O390 Nd361 2.410 1_565 S
O390 C379 1.251 . S
O391 Nd360 2.424 . S
O391 C379 1.268 . S
H392 C364 0.930 . S
H393 C365 0.929 . S
H394 C367 0.950 . S
H395 C368 0.929 1_545 S
H396 C373 0.930 . S
H397 C374 0.929 1_556 S
H398 C376 0.930 . S
H399 C377 0.929 1_565 S
Nd400 C402 2.836 . S
Nd400 O420 2.500 . S
Nd400 O421 2.492 . S
Nd400 O422 2.487 . S
Nd400 O423 2.682 . S
Nd400 O424 2.410 . S
Nd400 O429 2.414 . S
Nd400 O431 2.424 . S
Nd401 C411 2.836 . S
Nd401 O423 2.414 . S
Nd401 O425 2.424 . S
Nd401 O426 2.500 . S
Nd401 O427 2.492 . S
Nd401 O428 2.487 . S
Nd401 O429 2.682 . S
Nd401 O430 2.410 . S
C402 Nd400 2.836 . S
C402 C403 1.498 . S
C402 O420 1.258 . S
C402 O421 1.239 . S
C403 C402 1.498 . S
C403 C404 1.366 . S
C403 C408 1.407 . S
C404 C403 1.366 . S
C404 C405 1.392 . S
C404 H432 0.930 . S
C405 C404 1.392 . S
C405 C406 1.398 . S
C405 H433 0.929 . S
C406 C405 1.398 . S
C406 C407 1.352 . S
C407 C406 1.352 . S
C407 C408 1.384 . S
C407 H434 0.930 1_556 S
C408 C403 1.407 . S
C408 C407 1.384 . S
C408 H435 0.929 . S
C409 O422 1.241 . S
C409 O423 1.273 . S
C410 O424 1.251 . S
C410 O425 1.268 . S
C411 Nd401 2.836 . S
C411 C412 1.498 . S
C411 O426 1.258 . S
C411 O427 1.239 . S
C412 C411 1.498 . S
C412 C413 1.366 . S
C412 C417 1.407 . S
C413 C412 1.366 . S
C413 C414 1.392 . S
C413 H436 0.930 . S
C414 C413 1.392 . S
C414 C415 1.398 . S
C414 H437 0.929 . S
C415 C414 1.398 . S
C415 C416 1.352 . S
C416 C415 1.352 . S
C416 C417 1.384 . S
C416 H438 0.930 . S
C417 C412 1.407 . S
C417 C416 1.384 . S
C417 H439 0.929 . S
C418 O428 1.241 . S
C418 O429 1.273 . S
C419 O430 1.251 . S
C419 O431 1.268 . S
O420 Nd400 2.500 . S
O420 C402 1.258 . S
O421 Nd400 2.492 . S
O421 C402 1.239 . S
O422 Nd400 2.487 . S
O422 C409 1.241 . S
O423 Nd400 2.682 . S
O423 Nd401 2.414 . S
O423 C409 1.273 . S
O424 Nd400 2.410 . S
O424 C410 1.251 . S
O425 Nd401 2.424 . S
O425 C410 1.268 . S
O426 Nd401 2.500 . S
O426 C411 1.258 . S
O427 Nd401 2.492 . S
O427 C411 1.239 . S
O428 Nd401 2.487 . S
O428 C418 1.241 . S
O429 Nd400 2.414 . S
O429 Nd401 2.682 . S
O429 C418 1.273 . S
O430 Nd401 2.410 . S
O430 C419 1.251 . S
O431 Nd400 2.424 . S
O431 C419 1.268 . S
H432 C404 0.930 . S
H433 C405 0.929 . S
H434 C407 0.930 1_554 S
H435 C408 0.929 . S
H436 C413 0.930 . S
H437 C414 0.929 . S
H438 C416 0.930 . S
H439 C417 0.929 . S
Nd440 C442 2.836 1_455 S
Nd440 O460 2.500 1_455 S
Nd440 O461 2.492 1_455 S
Nd440 O462 2.487 . S
Nd440 O463 2.682 . S
Nd440 O464 2.410 1_455 S
Nd440 O469 2.414 . S
Nd440 O471 2.424 . S
Nd441 C451 2.836 . S
Nd441 O463 2.414 . S
Nd441 O465 2.424 1_455 S
Nd441 O466 2.500 . S
Nd441 O467 2.492 . S
Nd441 O468 2.487 . S
Nd441 O469 2.682 . S
Nd441 O470 2.410 . S
C442 Nd440 2.836 1_655 S
C442 C443 1.498 . S
C442 O460 1.258 . S
C442 O461 1.239 . S
C443 C442 1.498 . S
C443 C444 1.366 . S
C443 C448 1.407 . S
C444 C443 1.366 . S
C444 C445 1.392 . S
C444 H472 0.930 . S
C445 C444 1.392 . S
C445 C446 1.398 . S
C445 H473 0.929 . S
C446 C445 1.398 . S
C446 C447 1.352 . S
C447 C446 1.352 . S
C447 C448 1.384 . S
C447 H474 0.930 . S
C448 C443 1.407 . S
C448 C447 1.384 . S
C448 H475 0.929 . S
C449 O462 1.241 . S
C449 O463 1.273 . S
C450 O464 1.251 . S
C450 O465 1.268 . S
C451 Nd441 2.836 . S
C451 C452 1.498 . S
C451 O466 1.258 . S
C451 O467 1.239 . S
C452 C451 1.498 . S
C452 C453 1.366 . S
C452 C457 1.407 1_556 S
C453 C452 1.366 . S
C453 C454 1.392 1_556 S
C453 H476 0.930 . S
C454 C453 1.392 1_554 S
C454 C455 1.398 . S
C454 H477 0.929 . S
C455 C454 1.398 . S
C455 C456 1.352 . S
C456 C455 1.352 . S
C456 C457 1.384 . S
C456 H478 0.930 . S
C457 C452 1.407 1_554 S
C457 C456 1.384 . S
C457 H479 0.929 . S
C458 O468 1.241 . S
C458 O469 1.273 . S
C459 O470 1.251 . S
C459 O471 1.268 . S
O460 Nd440 2.500 1_655 S
O460 C442 1.258 . S
O461 Nd440 2.492 1_655 S
O461 C442 1.239 . S
O462 Nd440 2.487 . S
O462 C449 1.241 . S
O463 Nd440 2.682 . S
O463 Nd441 2.414 . S
O463 C449 1.273 . S
O464 Nd440 2.410 1_655 S
O464 C450 1.251 . S
O465 Nd441 2.424 1_655 S
O465 C450 1.268 . S
O466 Nd441 2.500 . S
O466 C451 1.258 . S
O467 Nd441 2.492 . S
O467 C451 1.239 . S
O468 Nd441 2.487 . S
O468 C458 1.241 . S
O469 Nd440 2.414 . S
O469 Nd441 2.682 . S
O469 C458 1.273 . S
O470 Nd441 2.410 . S
O470 C459 1.251 . S
O471 Nd440 2.424 . S
O471 C459 1.268 . S
H472 C444 0.930 . S
H473 C445 0.929 . S
H474 C447 0.930 . S
H475 C448 0.929 . S
H476 C453 0.930 . S
H477 C454 0.929 . S
H478 C456 0.930 . S
H479 C457 0.929 . S
H480 C486 0.930 . S
H481 C490 0.930 . S
H482 C495 0.929 . S
H483 C493 0.929 . S
H484 C488 0.929 . S
H485 C494 0.929 . S
C486 H480 0.930 . S
C486 C487 1.371 . S
C486 C494 1.378 . S
C487 C486 1.371 . S
C487 C495 1.431 1_545 S
C488 H484 0.929 . S
C488 C490 1.378 . S
C488 C492 1.350 . S
C489 C492 1.454 . S
C489 C494 1.337 1_565 S
C489 N497 1.453 . S
C490 H481 0.930 . S
C490 C488 1.378 . S
C490 C491 1.367 . S
C491 C490 1.367 . S
C491 C493 1.433 1_565 S
C492 C488 1.350 . S
C492 C489 1.454 . S
C492 N496 1.427 1_565 S
C493 H483 0.929 . S
C493 C491 1.433 1_545 S
C493 N496 1.384 . S
C494 H485 0.929 . S
C494 C486 1.378 . S
C494 C489 1.337 1_545 S
C495 H482 0.929 . S
C495 C487 1.431 1_565 S
C495 N497 1.384 . S
N496 C492 1.427 1_545 S
N496 C493 1.384 . S
N497 C489 1.453 . S
N497 C495 1.384 . S
H498 C504 0.930 . S
H499 C508 0.930 . S
H500 C513 0.929 . S
H501 C511 0.929 . S
H502 C506 0.929 . S
H503 C512 0.929 . S
C504 H498 0.930 . S
C504 C505 1.367 . S
C504 C512 1.378 . S
C505 C504 1.367 . S
C505 C513 1.433 . S
C506 H502 0.929 . S
C506 C508 1.378 . S
C506 C510 1.350 . S
C507 C510 1.463 . S
C507 C512 1.350 . S
C507 N515 1.427 . S
C508 H499 0.930 . S
C508 C506 1.378 . S
C508 C509 1.367 . S
C509 C508 1.367 . S
C509 C511 1.433 . S
C510 C506 1.350 . S
C510 C507 1.463 . S
C510 N514 1.427 . S
C511 H501 0.929 . S
C511 C509 1.433 . S
C511 N514 1.384 . S
C512 H503 0.929 . S
C512 C504 1.378 . S
C512 C507 1.350 . S
C513 H500 0.929 . S
C513 C505 1.433 . S
C513 N515 1.384 . S
N514 C510 1.427 . S
N514 C511 1.384 . S
N515 C507 1.427 . S
N515 C513 1.384 . S
H516 C522 0.930 . S
H517 C526 0.930 . S
H518 C531 0.929 . S
H519 C529 0.929 . S
H520 C524 0.929 . S
H521 C530 0.929 . S
C522 H516 0.930 . S
C522 C523 1.367 . S
C522 C530 1.378 . S
C523 C522 1.367 . S
C523 C531 1.433 . S
C524 H520 0.929 . S
C524 C526 1.378 . S
C524 C528 1.350 . S
C525 C528 1.463 . S
C525 C530 1.350 . S
C525 N533 1.427 . S
C526 H517 0.930 . S
C526 C524 1.378 . S
C526 C527 1.367 . S
C527 C526 1.367 . S
C527 C529 1.433 . S
C528 C524 1.350 . S
C528 C525 1.463 . S
C528 N532 1.427 . S
C529 H519 0.929 . S
C529 C527 1.433 . S
C529 N532 1.384 . S
C530 H521 0.929 . S
C530 C522 1.378 . S
C530 C525 1.350 . S
C531 H518 0.929 . S
C531 C523 1.433 . S
C531 N533 1.384 . S
N532 C528 1.427 . S
N532 C529 1.384 . S
N533 C525 1.427 . S
N533 C531 1.384 . S
H534 C540 0.930 . S
H535 C544 0.930 . S
H536 C549 0.929 . S
H537 C547 0.929 . S
H538 C542 0.929 . S
H539 C548 0.929 . S
C540 H534 0.930 . S
C540 C541 1.367 . S
C540 C548 1.378 . S
C541 C540 1.367 . S
C541 C549 1.433 . S
C542 H538 0.929 . S
C542 C544 1.378 . S
C542 C546 1.350 . S
C543 C546 1.463 . S
C543 C548 1.350 . S
C543 N551 1.427 . S
C544 H535 0.930 . S
C544 C542 1.378 . S
C544 C545 1.367 . S
C545 C544 1.367 . S
C545 C547 1.433 . S
C546 C542 1.350 . S
C546 C543 1.463 . S
C546 N550 1.427 . S
C547 H537 0.929 . S
C547 C545 1.433 . S
C547 N550 1.384 . S
C548 H539 0.929 . S
C548 C540 1.378 . S
C548 C543 1.350 . S
C549 H536 0.929 . S
C549 C541 1.433 . S
C549 N551 1.384 . S
N550 C546 1.427 . S
N550 C547 1.384 . S
N551 C543 1.427 . S
N551 C549 1.384 . S
H552 C558 0.930 . S
H553 C562 0.930 . S
H554 C567 0.929 . S
H555 C565 0.929 . S
H556 C560 0.929 . S
H557 C566 0.929 . S
C558 H552 0.930 . S
C558 C559 1.384 . S
C558 C566 1.378 . S
C559 C558 1.384 . S
C559 C567 1.410 1_545 S
C560 H556 0.929 . S
C560 C562 1.378 . S
C560 C564 1.350 1_565 S
C561 C564 1.463 . S
C561 C566 1.350 . S
C561 N569 1.427 1_545 S
C562 H553 0.930 . S
C562 C560 1.378 . S
C562 C563 1.367 1_565 S
C563 C562 1.367 1_545 S
C563 C565 1.433 . S
C564 C560 1.350 1_545 S
C564 C561 1.463 . S
C564 N568 1.427 . S
C565 H555 0.929 . S
C565 C563 1.433 . S
C565 N568 1.384 . S
C566 H557 0.929 . S
C566 C558 1.378 . S
C566 C561 1.350 . S
C567 H554 0.929 . S
C567 C559 1.410 1_565 S
C567 N569 1.384 . S
N568 C564 1.427 . S
N568 C565 1.384 . S
N569 C561 1.427 1_565 S
N569 C567 1.384 . S
H570 C576 0.930 . S
H571 C580 0.930 . S
H572 C585 0.929 . S
H573 C583 0.929 . S
H574 C578 0.929 . S
H575 C584 0.929 . S
C576 H570 0.930 . S
C576 C577 1.367 . S
C576 C584 1.378 . S
C577 C576 1.367 . S
C577 C585 1.433 . S
C578 H574 0.929 . S
C578 C580 1.378 1_554 S
C578 C582 1.350 . S
C579 C582 1.463 . S
C579 C584 1.350 . S
C579 N587 1.427 . S
C580 H571 0.930 . S
C580 C578 1.378 1_556 S
C580 C581 1.367 . S
C581 C580 1.367 . S
C581 C583 1.433 . S
C582 C578 1.350 . S
C582 C579 1.463 . S
C582 N586 1.427 . S
C583 H573 0.929 . S
C583 C581 1.433 . S
C583 N586 1.384 1_556 S
C584 H575 0.929 . S
C584 C576 1.378 . S
C584 C579 1.350 . S
C585 H572 0.929 . S
C585 C577 1.433 . S
C585 N587 1.384 . S
N586 C582 1.427 . S
N586 C583 1.384 1_554 S
N587 C579 1.427 . S
N587 C585 1.384 . S
H588 C594 0.930 . S
H589 C598 0.930 . S
H590 C603 0.929 1_554 S
H591 C601 0.929 . S
H592 C596 0.929 . S
H593 C602 0.929 . S
C594 H588 0.930 . S
C594 C595 1.367 . S
C594 C602 1.378 . S
C595 C594 1.367 . S
C595 C603 1.433 . S
C596 H592 0.929 . S
C596 C598 1.378 . S
C596 C600 1.350 . S
C597 C600 1.463 . S
C597 C602 1.350 . S
C597 N605 1.427 . S
C598 H589 0.930 . S
C598 C596 1.378 . S
C598 C599 1.367 . S
C599 C598 1.367 . S
C599 C601 1.433 . S
C600 C596 1.350 . S
C600 C597 1.463 . S
C600 N604 1.427 . S
C601 H591 0.929 . S
C601 C599 1.433 . S
C601 N604 1.384 . S
C602 H593 0.929 . S
C602 C594 1.378 . S
C602 C597 1.350 . S
C603 H590 0.929 1_556 S
C603 C595 1.433 . S
C603 N605 1.384 . S
N604 C600 1.427 . S
N604 C601 1.384 . S
N605 C597 1.427 . S
N605 C603 1.384 . S
H606 C612 0.930 . S
H607 C616 0.930 . S
H608 C621 0.929 . S
H609 C619 0.929 . S
H610 C614 0.929 . S
H611 C620 0.929 . S
C612 H606 0.930 . S
C612 C613 1.367 . S
C612 C620 1.378 . S
C613 C612 1.367 . S
C613 C621 1.433 1_556 S
C614 H610 0.929 . S
C614 C616 1.378 . S
C614 C618 1.350 . S
C615 C618 1.463 . S
C615 C620 1.350 . S
C615 N623 1.427 . S
C616 H607 0.930 . S
C616 C614 1.378 . S
C616 C617 1.367 . S
C617 C616 1.367 . S
C617 C619 1.433 . S
C618 C614 1.350 . S
C618 C615 1.463 . S
C618 N622 1.427 . S
C619 H609 0.929 . S
C619 C617 1.433 . S
C619 N622 1.384 . S
C620 H611 0.929 . S
C620 C612 1.378 . S
C620 C615 1.350 . S
C621 H608 0.929 . S
C621 C613 1.433 1_554 S
C621 N623 1.384 1_554 S
N622 C618 1.427 . S
N622 C619 1.384 . S
N623 C615 1.427 . S
N623 C621 1.384 1_556 S
H624 C630 0.930 . S
H625 C634 0.930 . S
H626 C639 0.929 . S
H627 C637 0.929 . S
H628 C632 0.929 . S
H629 C638 0.929 . S
C630 H624 0.930 . S
C630 C631 1.367 . S
C630 C638 1.378 . S
C631 C630 1.367 . S
C631 C639 1.433 . S
C632 H628 0.929 . S
C632 C634 1.378 . S
C632 C636 1.350 . S
C633 C636 1.463 . S
C633 C638 1.350 . S
C633 N641 1.427 . S
C634 H625 0.930 . S
C634 C632 1.378 . S
C634 C635 1.367 . S
C635 C634 1.367 . S
C635 C637 1.433 . S
C636 C632 1.350 . S
C636 C633 1.463 . S
C636 N640 1.427 . S
C637 H627 0.929 . S
C637 C635 1.433 . S
C637 N640 1.384 . S
C638 H629 0.929 . S
C638 C630 1.378 . S
C638 C633 1.350 . S
C639 H626 0.929 . S
C639 C631 1.433 . S
C639 N641 1.384 . S
N640 C636 1.427 . S
N640 C637 1.384 . S
N641 C633 1.427 . S
N641 C639 1.384 . S
H642 C648 0.930 . S
H643 C652 0.930 . S
H644 C657 0.929 . S
H645 C655 0.929 . S
H646 C650 0.929 . S
H647 C656 0.929 . S
C648 H642 0.930 . S
C648 C649 1.365 1_545 S
C648 C656 1.378 . S
C649 C648 1.365 1_565 S
C649 C657 1.435 . S
C650 H646 0.929 . S
C650 C652 1.378 . S
C650 C654 1.350 . S
C651 C654 1.463 . S
C651 C656 1.350 1_565 S
C651 N659 1.427 . S
C652 H643 0.930 . S
C652 C650 1.378 . S
C652 C653 1.367 . S
C653 C652 1.367 . S
C653 C655 1.433 1_565 S
C654 C650 1.350 . S
C654 C651 1.463 . S
C654 N658 1.427 1_565 S
C655 H645 0.929 . S
C655 C653 1.433 1_545 S
C655 N658 1.384 . S
C656 H647 0.929 . S
C656 C648 1.378 . S
C656 C651 1.350 1_545 S
C657 H644 0.929 . S
C657 C649 1.435 . S
C657 N659 1.384 . S
N658 C654 1.427 1_545 S
N658 C655 1.384 . S
N659 C651 1.427 . S
N659 C657 1.384 . S
H660 C666 0.930 . S
H661 C670 0.930 . S
H662 C675 0.929 . S
H663 C673 0.929 . S
H664 C668 0.929 . S
H665 C674 0.929 . S
C666 H660 0.930 . S
C666 C667 1.367 . S
C666 C674 1.378 . S
C667 C666 1.367 . S
C667 C675 1.433 . S
C668 H664 0.929 . S
C668 C670 1.378 . S
C668 C672 1.350 . S
C669 C672 1.463 . S
C669 C674 1.350 . S
C669 N677 1.427 . S
C670 H661 0.930 . S
C670 C668 1.378 . S
C670 C671 1.367 . S
C671 C670 1.367 . S
C671 C673 1.433 . S
C672 C668 1.350 . S
C672 C669 1.463 . S
C672 N676 1.427 . S
C673 H663 0.929 . S
C673 C671 1.433 . S
C673 N676 1.384 . S
C674 H665 0.929 . S
C674 C666 1.378 . S
C674 C669 1.350 . S
C675 H662 0.929 . S
C675 C667 1.433 . S
C675 N677 1.384 . S
N676 C672 1.427 . S
N676 C673 1.384 . S
N677 C669 1.427 . S
N677 C675 1.384 . S
H678 C684 0.930 . S
H679 C688 0.930 . S
H680 C693 0.929 . S
H681 C691 0.929 . S
H682 C686 0.929 . S
H683 C692 0.929 . S
C684 H678 0.930 . S
C684 C685 1.367 . S
C684 C692 1.378 . S
C685 C684 1.367 . S
C685 C693 1.433 . S
C686 H682 0.929 . S
C686 C688 1.378 . S
C686 C690 1.350 . S
C687 C690 1.463 . S
C687 C692 1.350 . S
C687 N695 1.427 . S
C688 H679 0.930 . S
C688 C686 1.378 . S
C688 C689 1.367 . S
C689 C688 1.367 . S
C689 C691 1.433 . S
C690 C686 1.350 . S
C690 C687 1.463 . S
C690 N694 1.427 . S
C691 H681 0.929 . S
C691 C689 1.433 . S
C691 N694 1.384 . S
C692 H683 0.929 . S
C692 C684 1.378 . S
C692 C687 1.350 . S
C693 H680 0.929 . S
C693 C685 1.433 . S
C693 N695 1.384 . S
N694 C690 1.427 . S
N694 C691 1.384 . S
N695 C687 1.427 . S
N695 C693 1.384 . S
H696 C702 0.930 . S
H697 C706 0.930 . S
H698 C711 0.929 . S
H699 C709 0.929 . S
H700 C704 0.929 . S
H701 C710 0.929 . S
C702 H696 0.930 . S
C702 C703 1.367 . S
C702 C710 1.378 . S
C703 C702 1.367 . S
C703 C711 1.433 . S
C704 H700 0.929 . S
C704 C706 1.378 . S
C704 C708 1.350 . S
C705 C708 1.463 . S
C705 C710 1.350 . S
C705 N713 1.427 . S
C706 H697 0.930 . S
C706 C704 1.378 . S
C706 C707 1.367 . S
C707 C706 1.367 . S
C707 C709 1.433 . S
C708 C704 1.350 . S
C708 C705 1.463 . S
C708 N712 1.427 . S
C709 H699 0.929 . S
C709 C707 1.433 . S
C709 N712 1.384 . S
C710 H701 0.929 . S
C710 C702 1.378 . S
C710 C705 1.350 . S
C711 H698 0.929 . S
C711 C703 1.433 . S
C711 N713 1.384 . S
N712 C708 1.427 . S
N712 C709 1.384 . S
N713 C705 1.427 . S
N713 C711 1.384 . S
H714 C720 0.930 . S
H715 C724 0.930 . S
H716 C729 0.929 . S
H717 C727 0.929 . S
H718 C722 0.929 . S
H719 C728 0.929 . S
C720 H714 0.930 . S
C720 C721 1.367 . S
C720 C728 1.378 . S
C721 C720 1.367 . S
C721 C729 1.433 1_545 S
C722 H718 0.929 . S
C722 C724 1.378 . S
C722 C726 1.350 1_565 S
C723 C726 1.463 . S
C723 C728 1.350 . S
C723 N731 1.427 1_545 S
C724 H715 0.930 . S
C724 C722 1.378 . S
C724 C725 1.367 1_565 S
C725 C724 1.367 1_545 S
C725 C727 1.433 . S
C726 C722 1.350 1_545 S
C726 C723 1.463 . S
C726 N730 1.427 . S
C727 H717 0.929 . S
C727 C725 1.433 . S
C727 N730 1.384 . S
C728 H719 0.929 . S
C728 C720 1.378 . S
C728 C723 1.350 . S
C729 H716 0.929 . S
C729 C721 1.433 1_565 S
C729 N731 1.384 . S
N730 C726 1.427 . S
N730 C727 1.384 . S
N731 C723 1.427 1_565 S
N731 C729 1.384 . S
H732 C738 0.930 . S
H733 C742 0.930 . S
H734 C747 0.929 . S
H735 C745 0.929 . S
H736 C740 0.929 . S
H737 C746 0.920 1_556 S
C738 H732 0.930 . S
C738 C739 1.367 . S
C738 C746 1.378 . S
C739 C738 1.367 . S
C739 C747 1.433 . S
C740 H736 0.929 . S
C740 C742 1.378 . S
C740 C744 1.350 . S
C741 C744 1.463 . S
C741 C746 1.350 . S
C741 N749 1.427 . S
C742 H733 0.930 . S
C742 C740 1.378 . S
C742 C743 1.367 1_554 S
C743 C742 1.367 1_556 S
C743 C745 1.433 . S
C744 C740 1.350 . S
C744 C741 1.463 . S
C744 N748 1.427 1_554 S
C745 H735 0.929 . S
C745 C743 1.433 . S
C745 N748 1.384 . S
C746 H737 0.920 1_554 S
C746 C738 1.378 . S
C746 C741 1.350 . S
C747 H734 0.929 . S
C747 C739 1.433 . S
C747 N749 1.384 . S
N748 C744 1.427 1_556 S
N748 C745 1.384 . S
N749 C741 1.427 . S
N749 C747 1.384 . S
H750 C756 0.930 . S
H751 C760 0.930 . S
H752 C765 0.929 . S
H753 C763 0.929 . S
H754 C758 0.929 . S
H755 C764 0.929 . S
C756 H750 0.930 . S
C756 C757 1.367 . S
C756 C764 1.378 . S
C757 C756 1.367 . S
C757 C765 1.433 . S
C758 H754 0.929 . S
C758 C760 1.378 . S
C758 C762 1.350 . S
C759 C762 1.463 . S
C759 C764 1.350 . S
C759 N767 1.427 . S
C760 H751 0.930 . S
C760 C758 1.378 . S
C760 C761 1.367 . S
C761 C760 1.367 . S
C761 C763 1.433 . S
C762 C758 1.350 . S
C762 C759 1.463 . S
C762 N766 1.427 . S
C763 H753 0.929 . S
C763 C761 1.433 . S
C763 N766 1.384 . S
C764 H755 0.929 . S
C764 C756 1.378 . S
C764 C759 1.350 . S
C765 H752 0.929 . S
C765 C757 1.433 . S
C765 N767 1.384 . S
N766 C762 1.427 . S
N766 C763 1.384 . S
N767 C759 1.427 . S
N767 C765 1.384 . S
H768 C774 0.930 . S
H769 C778 0.930 . S
H770 C783 0.929 . S
H771 C781 0.929 . S
H772 C776 0.929 . S
H773 C782 0.929 . S
C774 H768 0.930 . S
C774 C775 1.367 . S
C774 C782 1.378 . S
C775 C774 1.367 . S
C775 C783 1.433 . S
C776 H772 0.929 . S
C776 C778 1.378 . S
C776 C780 1.350 . S
C777 C780 1.463 . S
C777 C782 1.350 . S
C777 N785 1.427 . S
C778 H769 0.930 . S
C778 C776 1.378 . S
C778 C779 1.367 . S
C779 C778 1.367 . S
C779 C781 1.433 . S
C780 C776 1.350 . S
C780 C777 1.463 . S
C780 N784 1.427 . S
C781 H771 0.929 . S
C781 C779 1.433 . S
C781 N784 1.384 . S
C782 H773 0.929 . S
C782 C774 1.378 . S
C782 C777 1.350 . S
C783 H770 0.929 . S
C783 C775 1.433 . S
C783 N785 1.384 . S
N784 C780 1.427 . S
N784 C781 1.384 . S
N785 C777 1.427 . S
N785 C783 1.384 . S
H786 C792 0.930 . S
H787 C796 0.975 . S
H788 C801 0.929 . S
H789 C799 0.929 . S
H790 C794 0.929 . S
H791 C800 0.929 . S
C792 H786 0.930 . S
C792 C793 1.367 . S
C792 C800 1.378 . S
C793 C792 1.367 . S
C793 C801 1.433 1_545 S
C794 H790 0.929 . S
C794 C796 1.374 . S
C794 C798 1.350 1_565 S
C795 C798 1.463 . S
C795 C800 1.350 . S
C795 N803 1.427 1_545 S
C796 H787 0.975 . S
C796 C794 1.374 . S
C796 C797 1.327 1_565 S
C797 C796 1.327 1_545 S
C797 C799 1.433 . S
C798 C794 1.350 1_545 S
C798 C795 1.463 . S
C798 N802 1.427 . S
C799 H789 0.929 . S
C799 C797 1.433 . S
C799 N802 1.384 . S
C800 H791 0.929 . S
C800 C792 1.378 . S
C800 C795 1.350 . S
C801 H788 0.929 . S
C801 C793 1.433 1_565 S
C801 N803 1.384 . S
N802 C798 1.427 . S
N802 C799 1.384 . S
N803 C795 1.427 1_565 S
N803 C801 1.384 . S
H804 C810 0.930 . S
H805 C814 0.930 . S
H806 C819 0.929 . S
H807 C817 0.929 . S
H808 C812 0.929 1_554 S
H809 C818 0.929 . S
C810 H804 0.930 . S
C810 C811 1.367 . S
C810 C818 1.378 . S
C811 C810 1.367 . S
C811 C819 1.433 1_556 S
C812 H808 0.929 1_556 S
C812 C814 1.378 . S
C812 C816 1.350 . S
C813 C816 1.463 . S
C813 C818 1.350 . S
C813 N821 1.427 . S
C814 H805 0.930 . S
C814 C812 1.378 . S
C814 C815 1.367 . S
C815 C814 1.367 . S
C815 C817 1.433 . S
C816 C812 1.350 . S
C816 C813 1.463 . S
C816 N820 1.427 . S
C817 H807 0.929 . S
C817 C815 1.433 . S
C817 N820 1.384 . S
C818 H809 0.929 . S
C818 C810 1.378 . S
C818 C813 1.350 . S
C819 H806 0.929 . S
C819 C811 1.433 1_554 S
C819 N821 1.384 1_554 S
N820 C816 1.427 . S
N820 C817 1.384 . S
N821 C813 1.427 . S
N821 C819 1.384 1_556 S
H822 C828 0.930 . S
H823 C832 0.930 . S
H824 C837 0.929 . S
H825 C835 0.929 . S
H826 C830 0.929 . S
H827 C836 0.929 . S
C828 H822 0.930 . S
C828 C829 1.367 . S
C828 C836 1.378 . S
C829 C828 1.367 . S
C829 C837 1.433 . S
C830 H826 0.929 . S
C830 C832 1.378 . S
C830 C834 1.350 . S
C831 C834 1.463 . S
C831 C836 1.350 . S
C831 N839 1.427 . S
C832 H823 0.930 . S
C832 C830 1.378 . S
C832 C833 1.367 . S
C833 C832 1.367 . S
C833 C835 1.433 . S
C834 C830 1.350 . S
C834 C831 1.463 . S
C834 N838 1.427 . S
C835 H825 0.929 . S
C835 C833 1.433 . S
C835 N838 1.384 . S
C836 H827 0.929 . S
C836 C828 1.378 . S
C836 C831 1.350 . S
C837 H824 0.929 . S
C837 C829 1.433 . S
C837 N839 1.384 . S
N838 C834 1.427 . S
N838 C835 1.384 . S
N839 C831 1.427 . S
N839 C837 1.384 . S
H840 C846 0.930 . S
H841 C850 0.930 . S
H842 C855 0.929 . S
H843 C853 0.929 . S
H844 C848 0.929 . S
H845 C854 0.929 . S
C846 H840 0.930 . S
C846 C847 1.367 . S
C846 C854 1.378 . S
C847 C846 1.367 . S
C847 C855 1.433 . S
C848 H844 0.929 . S
C848 C850 1.378 . S
C848 C852 1.350 . S
C849 C852 1.463 . S
C849 C854 1.350 . S
C849 N857 1.427 . S
C850 H841 0.930 . S
C850 C848 1.378 . S
C850 C851 1.367 . S
C851 C850 1.367 . S
C851 C853 1.433 . S
C852 C848 1.350 . S
C852 C849 1.463 . S
C852 N856 1.427 . S
C853 H843 0.929 . S
C853 C851 1.433 . S
C853 N856 1.384 . S
C854 H845 0.929 . S
C854 C846 1.378 . S
C854 C849 1.350 . S
C855 H842 0.929 . S
C855 C847 1.433 . S
C855 N857 1.384 . S
N856 C852 1.427 . S
N856 C853 1.384 . S
N857 C849 1.427 . S
N857 C855 1.384 . S
H858 C864 0.930 . S
H859 C868 0.930 . S
H860 C873 0.929 . S
H861 C871 0.948 . S
H862 C866 0.929 . S
H863 C872 0.929 . S
C864 H858 0.930 . S
C864 C865 1.367 1_545 S
C864 C872 1.378 . S
C865 C864 1.367 1_565 S
C865 C873 1.433 . S
C866 H862 0.929 . S
C866 C868 1.378 . S
C866 C870 1.350 . S
C867 C870 1.463 . S
C867 C872 1.350 1_565 S
C867 N875 1.427 . S
C868 H859 0.930 . S
C868 C866 1.378 . S
C868 C869 1.367 . S
C869 C868 1.367 . S
C869 C871 1.416 1_565 S
C870 C866 1.350 . S
C870 C867 1.463 . S
C870 N874 1.427 1_565 S
C871 H861 0.948 . S
C871 C869 1.416 1_545 S
C871 N874 1.382 . S
C872 H863 0.929 . S
C872 C864 1.378 . S
C872 C867 1.350 1_545 S
C873 H860 0.929 . S
C873 C865 1.433 . S
C873 N875 1.384 . S
N874 C870 1.427 1_545 S
N874 C871 1.382 . S
N875 C867 1.427 . S
N875 C873 1.384 . S
H876 C882 0.930 . S
H877 C886 0.930 . S
H878 C891 0.929 . S
H879 C889 0.929 . S
H880 C884 0.929 . S
H881 C890 0.929 . S
C882 H876 0.930 . S
C882 C883 1.367 . S
C882 C890 1.378 . S
C883 C882 1.367 . S
C883 C891 1.433 . S
C884 H880 0.929 . S
C884 C886 1.378 . S
C884 C888 1.350 . S
C885 C888 1.463 . S
C885 C890 1.350 . S
C885 N893 1.427 . S
C886 H877 0.930 . S
C886 C884 1.378 . S
C886 C887 1.367 . S
C887 C886 1.367 . S
C887 C889 1.433 . S
C888 C884 1.350 . S
C888 C885 1.463 . S
C888 N892 1.427 . S
C889 H879 0.929 . S
C889 C887 1.433 . S
C889 N892 1.384 . S
C890 H881 0.929 . S
C890 C882 1.378 . S
C890 C885 1.350 . S
C891 H878 0.929 . S
C891 C883 1.433 . S
C891 N893 1.384 . S
N892 C888 1.427 . S
N892 C889 1.384 . S
N893 C885 1.427 . S
N893 C891 1.384 . S
H894 C900 0.930 . S
H895 C904 0.930 . S
H896 C909 0.929 . S
H897 C907 0.929 . S
H898 C902 0.929 . S
H899 C908 0.929 . S
C900 H894 0.930 . S
C900 C901 1.367 . S
C900 C908 1.378 . S
C901 C900 1.367 . S
C901 C909 1.433 . S
C902 H898 0.929 . S
C902 C904 1.378 . S
C902 C906 1.350 . S
C903 C906 1.463 . S
C903 C908 1.350 . S
C903 N911 1.427 . S
C904 H895 0.930 . S
C904 C902 1.378 . S
C904 C905 1.367 . S
C905 C904 1.367 . S
C905 C907 1.433 . S
C906 C902 1.350 . S
C906 C903 1.463 . S
C906 N910 1.427 . S
C907 H897 0.929 . S
C907 C905 1.433 . S
C907 N910 1.384 . S
C908 H899 0.929 . S
C908 C900 1.378 . S
C908 C903 1.350 . S
C909 H896 0.929 . S
C909 C901 1.433 . S
C909 N911 1.384 . S
N910 C906 1.427 . S
N910 C907 1.384 . S
N911 C903 1.427 . S
N911 C909 1.384 . S
C487 C255 0.929 . S
C491 C329 0.913 . S
C509 C369 2.107 . S
C505 C295 2.150 . S
C527 C418 1.760 . S
C523 C175 1.739 . S
C545 C449 2.307 . S
C541 C215 2.301 . S
C563 C338 0.895 . S
C559 C95 0.928 . S
C577 C135 2.124 . S
C581 C378 2.094 . S
C595 C15 1.748 . S
C599 C409 1.761 . S
C613 C55 2.282 1_556 S
C617 C458 2.297 1_655 S
C635 C339 1.736 . S
C631 C221 1.535 . S
C653 C379 1.071 . S
C649 C261 0.950 1_565 S
C671 C415 0.671 . S
C667 C301 0.682 . S
C685 C181 1.442 . S
C689 C459 1.745 . S
C703 C61 1.358 . S
C707 C330 1.741 1_655 S
C725 C370 1.062 . S
C721 C101 0.924 . S
C743 C406 0.674 . S
C739 C141 0.708 . S
C757 C21 1.587 . S
C761 C450 1.751 . S
C775 C202 2.278 . S
C779 C335 2.352 . S
C793 C242 1.743 . S
C797 C375 1.795 . S
C815 C419 3.192 . S
C811 C282 2.974 1_556 S
C833 C455 1.928 . S
C829 C162 1.783 . S
C847 C42 2.187 . S
C851 C326 2.364 . S
C869 C366 1.801 . S
C865 C82 1.778 1_565 S
C887 C410 3.191 . S
C883 C122 2.854 . S
C901 C2 1.897 . S
C905 C446 1.930 . S
