# Generated by pormake.
# Topology zzz, (3,6)-cn, num edge types: 1
# Building blocks:
#     Node 0, Type 0, BuildingBlock: WUSLED_clean_sbu_0, # of connection points: 3
#     Node 1, Type 0, BuildingBlock: WUSLED_clean_sbu_0, # of connection points: 3
#     Node 2, Type 0, BuildingBlock: WUSLED_clean_sbu_0, # of connection points: 3
#     Node 3, Type 0, BuildingBlock: WUSLED_clean_sbu_0, # of connection points: 3
#     Node 4, Type 0, BuildingBlock: WUSLED_clean_sbu_0, # of connection points: 3
#     Node 5, Type 0, BuildingBlock: WUSLED_clean_sbu_0, # of connection points: 3
#     Node 6, Type 0, BuildingBlock: WUSLED_clean_sbu_0, # of connection points: 3
#     Node 7, Type 0, BuildingBlock: WUSLED_clean_sbu_0, # of connection points: 3
#     Node 8, Type 1, BuildingBlock: HISSIN_clean_sbu_0, # of connection points: 6
#     Node 9, Type 1, BuildingBlock: HISSIN_clean_sbu_0, # of connection points: 6
#     Node 10, Type 1, BuildingBlock: HISSIN_clean_sbu_0, # of connection points: 6
#     Node 11, Type 1, BuildingBlock: HISSIN_clean_sbu_0, # of connection points: 6
#     Edge 12, Type (0, 1), BuildingBlock: OJICUG_clean_linker_0, # of connection points: 2
#     Edge 13, Type (0, 1), BuildingBlock: OJICUG_clean_linker_0, # of connection points: 2
#     Edge 14, Type (0, 1), BuildingBlock: OJICUG_clean_linker_0, # of connection points: 2
#     Edge 15, Type (0, 1), BuildingBlock: OJICUG_clean_linker_0, # of connection points: 2
#     Edge 16, Type (0, 1), BuildingBlock: OJICUG_clean_linker_0, # of connection points: 2
#     Edge 17, Type (0, 1), BuildingBlock: OJICUG_clean_linker_0, # of connection points: 2
#     Edge 18, Type (0, 1), BuildingBlock: OJICUG_clean_linker_0, # of connection points: 2
#     Edge 19, Type (0, 1), BuildingBlock: OJICUG_clean_linker_0, # of connection points: 2
#     Edge 20, Type (0, 1), BuildingBlock: OJICUG_clean_linker_0, # of connection points: 2
#     Edge 21, Type (0, 1), BuildingBlock: OJICUG_clean_linker_0, # of connection points: 2
#     Edge 22, Type (0, 1), BuildingBlock: OJICUG_clean_linker_0, # of connection points: 2
#     Edge 23, Type (0, 1), BuildingBlock: OJICUG_clean_linker_0, # of connection points: 2
#     Edge 24, Type (0, 1), BuildingBlock: OJICUG_clean_linker_0, # of connection points: 2
#     Edge 25, Type (0, 1), BuildingBlock: OJICUG_clean_linker_0, # of connection points: 2
#     Edge 26, Type (0, 1), BuildingBlock: OJICUG_clean_linker_0, # of connection points: 2
#     Edge 27, Type (0, 1), BuildingBlock: OJICUG_clean_linker_0, # of connection points: 2
#     Edge 28, Type (0, 1), BuildingBlock: OJICUG_clean_linker_0, # of connection points: 2
#     Edge 29, Type (0, 1), BuildingBlock: OJICUG_clean_linker_0, # of connection points: 2
#     Edge 30, Type (0, 1), BuildingBlock: OJICUG_clean_linker_0, # of connection points: 2
#     Edge 31, Type (0, 1), BuildingBlock: OJICUG_clean_linker_0, # of connection points: 2
#     Edge 32, Type (0, 1), BuildingBlock: OJICUG_clean_linker_0, # of connection points: 2
#     Edge 33, Type (0, 1), BuildingBlock: OJICUG_clean_linker_0, # of connection points: 2
#     Edge 34, Type (0, 1), BuildingBlock: OJICUG_clean_linker_0, # of connection points: 2
#     Edge 35, Type (0, 1), BuildingBlock: OJICUG_clean_linker_0, # of connection points: 2
# Relax obj value: 0.408
# Max RMSD: 0.230
# Mean RMSD: 0.187
data_MOF--net-zzz--node1-WUSLED_clean_sbu_0--node2-HISSIN_clean_sbu_0--edge1-OJICUG_clean_linker_0
_symmetry_space_group_name_H-M    P1
_symmetry_Int_Tables_number       1
_symmetry_cell_setting            triclinic
loop_
_symmetry_equiv_pos_as_xyz
'x, y, z'
_cell_length_a     48.237401
_cell_length_b     48.366537
_cell_length_c     18.570105
_cell_angle_alpha  89.636223
_cell_angle_beta   91.889352
_cell_angle_gamma 91.31571
loop_
_atom_site_label
_atom_site_type_symbol
_atom_site_fract_x
_atom_site_fract_y
_atom_site_fract_z
_atom_type_partial_charge
C0 C 0.80771 0.5165 0.3956 0.0
C1 C 0.83091 0.50608 0.36144 0.0
C2 C 0.86121 0.51696 0.46674 0.0
C3 C 0.85728 0.50649 0.39629 0.0
C4 C 0.83793 0.52739 0.50061 0.0
C5 C 0.81165 0.52718 0.46553 0.0
U6 U 0.75319 0.53085 0.24096 0.0
O7 O 0.7097 0.54422 0.24302 0.0
O8 O 0.71905 0.50336 0.20127 0.0
C9 C 0.69989 0.52174 0.21065 0.0
C10 C 0.77913 0.51523 0.36154 0.0
C11 C 0.67972 0.52549 0.14923 0.0
C12 C 0.63372 0.51571 0.09536 0.0
C13 C 0.653 0.51364 0.15329 0.0
C14 C 0.66747 0.54178 0.02764 0.0
C15 C 0.64056 0.52978 0.03136 0.0
C16 C 0.68682 0.53965 0.08585 0.0
C17 C 0.81511 0.55848 0.14579 0.0
C18 C 0.85644 0.55803 0.07557 0.0
C19 C 0.85934 0.54708 0.20318 0.0
C20 C 0.83108 0.55215 0.20799 0.0
C21 C 0.87193 0.5487 0.13615 0.0
C22 C 0.82811 0.56268 0.0803 0.0
C23 C 0.78495 0.55457 0.14597 0.0
O24 O 0.76612 0.53876 0.35457 0.0
O25 O 0.77501 0.49907 0.30532 0.0
O26 O 0.77705 0.52843 0.14298 0.0
O27 O 0.77191 0.56864 0.19431 0.0
H28 H 0.82873 0.49748 0.30779 0.0
H29 H 0.8745 0.49801 0.36843 0.0
H30 H 0.84001 0.53595 0.55429 0.0
H31 H 0.79423 0.53519 0.49357 0.0
H32 H 0.61359 0.50566 0.10038 0.0
H33 H 0.64708 0.50238 0.20124 0.0
H34 H 0.67358 0.55301 0.97989 0.0
H35 H 0.70736 0.54889 0.08122 0.0
H36 H 0.86555 0.55918 0.02306 0.0
H37 H 0.87087 0.54007 0.25063 0.0
H38 H 0.82123 0.54898 0.25898 0.0
H39 H 0.816 0.56734 0.03172 0.0
C40 C 0.0212 0.80435 0.3678 0.0
C41 C 0.04519 0.82093 0.38101 0.0
C42 C 0.01885 0.8557 0.44428 0.0
C43 C 0.04407 0.84609 0.41857 0.0
C44 C 0.99473 0.83926 0.43015 0.0
C45 C 0.99591 0.81393 0.39316 0.0
U46 U 1.00573 0.75014 0.2145 0.0
O47 O 0.99726 0.7049 0.21768 0.0
O48 O 0.0345 0.72116 0.1666 0.0
C49 C 0.01912 0.69911 0.18043 0.0
C50 C 0.02352 0.77654 0.3325 0.0
C51 C 0.01554 0.67819 0.12153 0.0
C52 C 0.02335 0.6312 0.07931 0.0
C53 C 0.02478 0.65119 0.13407 0.0
C54 C 1.00303 0.66461 0.99741 0.0
C55 C 1.01252 0.63744 1.00967 0.0
C56 C 1.00455 0.68469 0.0525 0.0
C57 C 0.96833 0.80947 0.13261 0.0
C58 C 0.96554 0.85357 0.07086 0.0
C59 C 0.97602 0.85214 0.19936 0.0
C60 C 0.97342 0.82334 0.19806 0.0
C61 C 0.97362 0.86745 0.13499 0.0
C62 C 0.96307 0.82475 0.06969 0.0
C63 C 0.97494 0.78014 0.12739 0.0
O64 O 1.00135 0.76016 0.32956 0.0
O65 O 0.0377 0.77563 0.27331 0.0
O66 O 0.96438 0.76367 0.17658 0.0
O67 O 1.0014 0.77617 0.11787 0.0
H68 H 0.06507 0.81421 0.36306 0.0
H69 H 0.06309 0.85809 0.42718 0.0
H70 H 0.97492 0.8456 0.44939 0.0
H71 H 0.97697 0.80175 0.38504 0.0
H72 H 0.03143 0.61095 0.09148 0.0
H73 H 0.03362 0.6456 0.1864 0.0
H74 H 0.99425 0.67041 0.94525 0.0
H75 H 0.99733 0.70534 0.041 0.0
H76 H 0.96383 0.86464 0.02009 0.0
H77 H 0.98201 0.86223 0.24963 0.0
H78 H 0.97767 0.81176 0.24703 0.0
H79 H 0.95941 0.81437 0.0186 0.0
C80 C 0.7214 0.99279 0.35334 0.0
C81 C 0.71702 0.01674 0.39417 0.0
C82 C 0.67273 0.99767 0.43927 0.0
C83 C 0.69315 0.01914 0.43617 0.0
C84 C 0.6773 0.97381 0.39805 0.0
C85 C 0.70106 0.97147 0.35622 0.0
U86 U 0.7761 0.01005 0.20414 0.0
O87 O 0.82172 1.00501 0.20348 0.0
O88 O 0.79503 0.982 0.12661 0.0
C89 C 0.82067 0.98812 0.14816 0.0
C90 C 0.74752 0.98842 0.31186 0.0
C91 C 0.8422 0.99198 0.0915 0.0
C92 C 0.88593 0.97702 0.04117 0.0
C93 C 0.86542 0.97486 0.09347 0.0
C94 C 0.86078 0.01377 0.98243 0.0
C95 C 0.88422 0.99655 0.98433 0.0
C96 C 0.84013 0.01152 0.03507 0.0
C97 C 0.76104 0.07447 0.08331 0.0
C98 C 0.75122 0.12051 0.0382 0.0
C99 C 0.75119 0.08196 0.95588 0.0
C100 C 0.75953 0.06454 1.01236 0.0
C101 C 0.74438 0.10957 0.96963 0.0
C102 C 0.75907 0.10294 0.09497 0.0
C103 C 0.7573 0.05547 0.14476 0.0
O104 O 0.7443 0.98051 0.24445 0.0
O105 O 0.76866 1.00589 0.32115 0.0
O106 O 0.77624 0.05578 0.19733 0.0
O107 O 0.74751 0.03058 0.12894 0.0
H108 H 0.73212 0.03365 0.39414 0.0
H109 H 0.69067 0.03807 0.46583 0.0
H110 H 0.6628 0.95643 0.39915 0.0
H111 H 0.70375 0.95251 0.32672 0.0
H112 H 0.90297 0.96286 0.04496 0.0
H113 H 0.86765 0.95942 0.13566 0.0
H114 H 0.85845 0.02934 0.94071 0.0
H115 H 0.82256 0.02507 0.0316 0.0
H116 H 0.74727 0.14193 0.05007 0.0
H117 H 0.74666 0.07267 0.90381 0.0
H118 H 0.76161 0.04271 1.00153 0.0
H119 H 0.76064 0.11116 0.14915 0.0
C120 C 0.53522 0.72217 0.3845 0.0
C121 C 0.53176 0.69659 0.34901 0.0
C122 C 0.52916 0.67134 0.46448 0.0
C123 C 0.5287 0.67168 0.38825 0.0
C124 C 0.53187 0.69708 0.49965 0.0
C125 C 0.53492 0.72198 0.46037 0.0
U126 U 0.52288 0.78241 0.2427 0.0
O127 O 0.55416 0.80319 0.17597 0.0
O128 O 0.53098 0.82765 0.25106 0.0
C129 C 0.54843 0.82812 0.19802 0.0
C130 C 0.54206 0.74865 0.34496 0.0
C131 C 0.54443 0.84969 0.14049 0.0
C132 C 0.55546 0.89602 0.09375 0.0
C133 C 0.55737 0.87587 0.14868 0.0
C134 C 0.52735 0.86441 0.02071 0.0
C135 C 0.54055 0.89068 0.02842 0.0
C136 C 0.52925 0.84425 0.07588 0.0
C137 C 0.45762 0.74332 0.17553 0.0
C138 C 0.41874 0.71982 0.11482 0.0
C139 C 0.45424 0.69329 0.17724 0.0
C140 C 0.46756 0.71778 0.19984 0.0
C141 C 0.4307 0.6941 0.13039 0.0
C142 C 0.43231 0.74431 0.13666 0.0
C143 C 0.47602 0.76781 0.17672 0.0
O144 O 0.54849 0.74704 0.27681 0.0
O145 O 0.52717 0.77041 0.35798 0.0
O146 O 0.50054 0.76348 0.15078 0.0
O147 O 0.47705 0.78266 0.23581 0.0
H148 H 0.53196 0.69569 0.29079 0.0
H149 H 0.52615 0.65258 0.35846 0.0
H150 H 0.53265 0.69802 0.5579 0.0
H151 H 0.53789 0.74116 0.48973 0.0
H152 H 0.56631 0.91564 0.1021 0.0
H153 H 0.56942 0.88065 0.19746 0.0
H154 H 0.51532 0.8594 0.97211 0.0
H155 H 0.51902 0.82429 0.06773 0.0
H156 H 0.40022 0.7211 0.08047 0.0
H157 H 0.46413 0.67396 0.19043 0.0
H158 H 0.48706 0.71673 0.23029 0.0
H159 H 0.42427 0.76393 0.11801 0.0
C160 C 0.23541 0.47858 0.96148 0.0
C161 C 0.21072 0.46702 0.98844 0.0
C162 C 0.18295 0.48743 0.88962 0.0
C163 C 0.18495 0.47142 0.95321 0.0
C164 C 0.20762 0.49925 0.86314 0.0
C165 C 0.23341 0.49479 0.89831 0.0
U166 U 0.29395 0.4902 0.10716 0.0
O167 O 0.3398 0.49167 0.10205 0.0
O168 O 0.31913 0.45929 0.16499 0.0
C169 C 0.34287 0.47122 0.14852 0.0
C170 C 0.2632 0.47245 0.99591 0.0
C171 C 0.36336 0.47568 0.20949 0.0
C172 C 0.41142 0.47567 0.2561 0.0
C173 C 0.39186 0.47294 0.19852 0.0
C174 C 0.37432 0.48394 0.33704 0.0
C175 C 0.40299 0.48117 0.32651 0.0
C176 C 0.35484 0.48134 0.27943 0.0
C177 C 0.24369 0.54112 0.1754 0.0
C178 C 0.21034 0.57274 0.22091 0.0
C179 C 0.19536 0.53734 0.13532 0.0
C180 C 0.22266 0.52862 0.13189 0.0
C181 C 0.1888 0.55884 0.18185 0.0
C182 C 0.23762 0.56382 0.21794 0.0
C183 C 0.27109 0.52871 0.1819 0.0
O184 O 0.28286 0.49161 0.99074 0.0
O185 O 0.26337 0.46041 0.05964 0.0
O186 O 0.28786 0.53433 0.12915 0.0
O187 O 0.27044 0.50243 0.20031 0.0
H188 H 0.21126 0.45429 0.03663 0.0
H189 H 0.16651 0.46227 0.97611 0.0
H190 H 0.20714 0.5114 0.81397 0.0
H191 H 0.25193 0.50373 0.87524 0.0
H192 H 0.43319 0.47378 0.2451 0.0
H193 H 0.39904 0.46852 0.14522 0.0
H194 H 0.36675 0.48772 0.39023 0.0
H195 H 0.33302 0.48345 0.28983 0.0
H196 H 0.20583 0.58913 0.25793 0.0
H197 H 0.17916 0.52634 0.10459 0.0
H198 H 0.22713 0.51113 0.09841 0.0
H199 H 0.25365 0.57368 0.25171 0.0
C200 C 0.01864 0.22096 0.97997 0.0
C201 C 0.04327 0.21192 0.94966 0.0
C202 C 0.01985 0.16972 0.90254 0.0
C203 C 0.0439 0.18667 0.9121 0.0
C204 C 0.99532 0.17874 0.93346 0.0
C205 C 0.99475 0.20386 0.97138 0.0
U206 U 0.03596 0.27448 0.13341 0.0
O207 O 1.00806 0.30367 0.18351 0.0
O208 O 0.04524 0.31966 0.13155 0.0
C209 C 0.02393 0.3255 0.17082 0.0
C210 C 0.01683 0.24875 0.01572 0.0
C211 C 0.02861 0.34558 0.2315 0.0
C212 C 0.03116 0.39372 0.27237 0.0
C213 C 0.02954 0.37412 0.21653 0.0
C214 C 0.03153 0.35674 0.36023 0.0
C215 C 0.03186 0.38547 0.34545 0.0
C216 C 0.02991 0.33712 0.3042 0.0
C217 C 0.07273 0.2141 0.21129 0.0
C218 C 0.07439 0.16975 0.27198 0.0
C219 C 0.06294 0.1719 0.14402 0.0
C220 C 0.06665 0.20061 0.14575 0.0
C221 C 0.06522 0.15635 0.20803 0.0
C222 C 0.07798 0.19846 0.27359 0.0
C223 C 0.06687 0.24356 0.21779 0.0
O224 O 1.00314 0.24969 0.07572 0.0
O225 O 0.03916 0.26492 0.01771 0.0
O226 O 0.04063 0.24803 0.22913 0.0
O227 O 0.07731 0.26001 0.16839 0.0
H228 H 0.06211 0.22448 0.95423 0.0
H229 H 0.06318 0.18083 0.88882 0.0
H230 H 0.9764 0.16632 0.92861 0.0
H231 H 0.97534 0.21013 0.99327 0.0
H232 H 0.03097 0.41544 0.25796 0.0
H233 H 0.02829 0.38136 0.16121 0.0
H234 H 0.03247 0.34929 0.41532 0.0
H235 H 0.02923 0.31531 0.31783 0.0
H236 H 0.07607 0.15851 0.32249 0.0
H237 H 0.05616 0.16217 0.09387 0.0
H238 H 0.06243 0.21246 0.09721 0.0
H239 H 0.08239 0.20857 0.32474 0.0
C240 C 0.31407 0.03489 0.99144 0.0
C241 C 0.33929 0.04362 0.02566 0.0
C242 C 0.36596 0.03276 0.91801 0.0
C243 C 0.36475 0.04259 0.98958 0.0
C244 C 0.34051 0.02419 0.88432 0.0
C245 C 0.31522 0.02522 0.92028 0.0
U246 U 0.26341 0.0331 0.15505 0.0
O247 O 0.22309 0.01093 0.16673 0.0
O248 O 0.22492 0.056 0.17348 0.0
C249 C 0.20961 0.03341 0.18192 0.0
C250 C 0.28624 0.03608 0.02657 0.0
C251 C 0.19037 0.03241 0.24487 0.0
C252 C 0.14977 0.05076 0.30419 0.0
C253 C 0.1695 0.05217 0.24962 0.0
C254 C 0.17126 0.00987 0.35256 0.0
C255 C 0.14998 0.02944 0.35666 0.0
C256 C 0.19098 0.01125 0.29762 0.0
C257 C 0.29171 0.02248 0.34673 0.0
C258 C 0.27568 0.99114 0.44003 0.0
C259 C 0.31256 0.02472 0.46675 0.0
C260 C 0.3101 0.03515 0.39675 0.0
C261 C 0.29698 1.00109 0.48702 0.0
C262 C 0.27301 1.00183 0.37015 0.0
C263 C 0.29566 0.02758 0.26962 0.0
O264 O 0.27639 0.01304 0.05487 0.0
O265 O 0.28102 0.05784 0.06575 0.0
O266 O 0.28856 0.05192 0.24418 0.0
O267 O 0.2883 1.00693 0.22695 0.0
H268 H 0.33936 0.05121 0.0804 0.0
H269 H 0.38359 0.04917 0.01847 0.0
H270 H 0.33989 0.01699 0.82922 0.0
H271 H 0.29629 0.01854 0.8918 0.0
H272 H 0.13433 0.06663 0.30515 0.0
H273 H 0.16815 0.06869 0.2101 0.0
H274 H 0.17232 0.9929 0.39074 0.0
H275 H 0.20645 0.99543 0.29591 0.0
H276 H 0.26324 0.97315 0.45452 0.0
H277 H 0.3292 0.03294 0.5015 0.0
H278 H 0.32442 0.05135 0.37993 0.0
H279 H 0.25815 0.99215 0.33269 0.0
C280 C 0.50004 0.30414 0.99412 0.0
C281 C 0.48785 0.32896 0.0148 0.0
C282 C 0.50613 0.35412 0.91023 0.0
C283 C 0.49089 0.35344 0.97389 0.0
C284 C 0.51886 0.3294 0.8904 0.0
C285 C 0.51576 0.30486 0.93132 0.0
U286 U 0.5132 0.24189 0.12988 0.0
O287 O 0.50335 0.19706 0.12085 0.0
O288 O 0.48243 0.2218 0.19976 0.0
C289 C 0.48685 0.19683 0.17596 0.0
C290 C 0.49327 0.27734 0.03264 0.0
C291 C 0.49128 0.17502 0.23256 0.0
C292 C 0.47201 0.13809 0.30833 0.0
C293 C 0.46883 0.15805 0.25329 0.0
C294 C 0.52039 0.15138 0.32319 0.0
C295 C 0.49782 0.13439 0.34475 0.0
C296 C 0.51715 0.17142 0.26812 0.0
C297 C 0.5807 0.2784 0.19048 0.0
C298 C 0.62037 0.30102 0.24994 0.0
C299 C 0.58522 0.32835 0.18866 0.0
C300 C 0.57124 0.30415 0.16647 0.0
C301 C 0.60893 0.32701 0.23481 0.0
C302 C 0.60615 0.27683 0.2285 0.0
C303 C 0.56165 0.25441 0.19045 0.0
O304 O 0.50704 0.25517 0.01625 0.0
O305 O 0.48819 0.27846 0.10174 0.0
O306 O 0.5379 0.25925 0.22 0.0
O307 O 0.55896 0.24011 0.13058 0.0
H308 H 0.47527 0.32935 0.06202 0.0
H309 H 0.48108 0.3719 0.99232 0.0
H310 H 0.53052 0.32867 0.84167 0.0
H311 H 0.52512 0.28622 0.91246 0.0
H312 H 0.45393 0.12598 0.32333 0.0
H313 H 0.44858 0.16046 0.22733 0.0
H314 H 0.54075 0.14914 0.34852 0.0
H315 H 0.53485 0.1842 0.25359 0.0
H316 H 0.63899 0.29932 0.28377 0.0
H317 H 0.57572 0.34791 0.17584 0.0
H318 H 0.5516 0.30566 0.13674 0.0
H319 H 0.61381 0.25703 0.24695 0.0
Eu320 Eu 0.99547 0.02429 0.61221 0.0
Eu321 Eu 0.04019 1.00219 0.73289 0.0
C322 C 0.02033 0.06551 0.7388 0.0
C323 C 0.97255 0.04806 0.42977 0.0
C324 C 0.96239 0.07108 0.39233 0.0
C325 C 1.00766 0.04303 0.34027 0.0
C326 C 0.97578 0.08098 0.33152 0.0
C327 C 0.99429 0.03319 0.40123 0.0
C328 C 0.99967 0.06804 0.30769 0.0
C329 C 0.96543 0.04392 0.50531 0.0
O330 O 0.99812 0.99958 0.78792 0.0
O331 O 0.96598 0.01305 0.7013 0.0
C332 C 0.9722 1.00469 0.76742 0.0
O333 O 0.99683 0.9784 0.58771 0.0
O334 O 0.07154 0.00964 0.81889 0.0
O335 O 0.05677 0.96799 0.79625 0.0
O336 O 0.03561 0.96626 0.65411 0.0
C337 C 0.01612 0.96051 0.60475 0.0
O338 O 0.03769 0.02849 0.55851 0.0
O339 O 0.06923 0.01071 0.64091 0.0
O340 O 0.0412 0.04874 0.74803 0.0
O341 O 0.96313 0.01841 0.52795 0.0
O342 O 0.98016 0.05936 0.55009 0.0
O343 O 0.99892 0.05847 0.69651 0.0
C344 C 0.06296 0.97958 0.91684 0.0
C345 C 0.07371 0.95686 0.95439 0.0
C346 C 0.02722 0.98324 1.00523 0.0
C347 C 0.06035 0.9464 1.01462 0.0
C348 C 0.04057 0.99366 0.94483 0.0
C349 C 0.03589 0.95847 0.03778 0.0
C350 C 0.07038 0.9841 0.84162 0.0
C351 C 0.06324 0.02114 0.57666 0.0
H352 H 0.9458 0.08293 0.41395 0.0
H353 H 0.02574 0.03242 0.32256 0.0
H354 H 0.96915 0.10041 0.30817 0.0
H355 H 1.00256 0.01539 0.42963 0.0
H356 H 0.09082 0.94563 0.93324 0.0
H357 H 1.00871 0.9932 0.02258 0.0
H358 H 0.06753 0.92718 0.03801 0.0
H359 H 0.03187 0.01124 0.91643 0.0
Eu360 Eu 0.53744 0.03804 0.7401 0.0
Eu361 Eu 0.5072 0.99027 0.64405 0.0
C362 C 0.53359 0.97513 0.79817 0.0
C363 C 0.59114 0.09134 0.80716 0.0
C364 C 0.61428 0.0788 0.7786 0.0
C365 C 0.61994 0.13153 0.83862 0.0
C366 C 0.64037 0.09177 0.78425 0.0
C367 C 0.59386 0.11829 0.83397 0.0
C368 C 0.64381 0.1177 0.81797 0.0
C369 C 0.56497 0.07556 0.81505 0.0
O370 O 0.47427 1.00264 0.72228 0.0
O371 O 0.49214 0.04279 0.77119 0.0
C372 C 0.47157 0.02448 0.76314 0.0
O373 O 0.53083 0.05833 0.63095 0.0
O374 O 0.48734 0.94927 0.64613 0.0
O375 O 0.48832 0.97218 0.54599 0.0
O376 O 0.49627 0.03014 0.58372 0.0
C377 C 0.51137 0.05319 0.58143 0.0
O378 O 0.57271 0.02057 0.67433 0.0
O379 O 0.54892 0.99341 0.5907 0.0
O380 O 0.53296 0.968 0.73002 0.0
O381 O 0.54457 0.08142 0.77009 0.0
O382 O 0.56733 0.04898 0.82564 0.0
O383 O 0.53056 1.0012 0.81496 0.0
C384 C 0.44562 0.95315 0.5818 0.0
C385 C 0.43316 0.97894 0.58662 0.0
C386 C 0.40066 0.93065 0.59805 0.0
C387 C 0.40489 0.98067 0.5966 0.0
C388 C 0.42931 0.92894 0.58839 0.0
C389 C 0.38819 0.95662 0.60245 0.0
C390 C 0.47602 0.95243 0.58215 0.0
C391 C 0.57211 1.00574 0.6145 0.0
H392 H 0.61256 0.05817 0.75627 0.0
H393 H 0.62164 0.15181 0.86295 0.0
H394 H 0.65804 0.08025 0.76783 0.0
H395 H 0.57609 0.12852 0.8549 0.0
H396 H 0.44537 0.99797 0.58365 0.0
H397 H 0.38827 0.91177 0.60175 0.0
H398 H 0.39605 1.00105 0.59749 0.0
H399 H 0.43873 0.90884 0.58694 0.0
Eu400 Eu 0.49492 0.52112 0.7296 0.0
Eu401 Eu 0.5458 0.5008 0.63277 0.0
C402 C 0.55885 0.52628 0.79078 0.0
C403 C 0.44527 0.55786 0.85361 0.0
C404 C 0.45617 0.58463 0.84334 0.0
C405 C 0.41943 0.57404 0.9545 0.0
C406 C 0.44862 0.60602 0.88814 0.0
C407 C 0.42686 0.55265 0.90922 0.0
C408 C 0.4302 0.60094 0.94421 0.0
C409 C 0.45318 0.53513 0.80742 0.0
O410 O 0.53776 0.46461 0.70931 0.0
O411 O 0.49313 0.47412 0.73685 0.0
C412 C 0.51427 0.45734 0.73921 0.0
O413 O 0.47656 0.51418 0.61783 0.0
O414 O 0.58629 0.48222 0.62357 0.0
O415 O 0.56601 0.50012 0.52937 0.0
O416 O 0.50715 0.48383 0.57272 0.0
C417 C 0.4831 0.49626 0.56881 0.0
O418 O 0.51248 0.56196 0.68547 0.0
O419 O 0.53561 0.54377 0.59155 0.0
O420 O 0.56702 0.52487 0.72411 0.0
O421 O 0.45498 0.54069 0.73901 0.0
O422 O 0.47357 0.52015 0.8316 0.0
O423 O 0.53258 0.52262 0.80582 0.0
C424 C 0.59588 0.46345 0.51043 0.0
C425 C 0.58532 0.43664 0.52202 0.0
C426 C 0.62195 0.44689 0.41039 0.0
C427 C 0.59304 0.41506 0.47804 0.0
C428 C 0.61432 0.46846 0.45478 0.0
C429 C 0.61131 0.41998 0.42153 0.0
C430 C 0.58727 0.48655 0.55436 0.0
C431 C 0.5249 0.56507 0.62347 0.0
H432 H 0.47065 0.58896 0.8011 0.0
H433 H 0.40525 0.5696 0.99732 0.0
H434 H 0.45773 0.62643 0.87994 0.0
H435 H 0.41835 0.53201 0.91783 0.0
H436 H 0.57082 0.43249 0.56434 0.0
H437 H 0.63603 0.45123 0.36731 0.0
H438 H 0.58403 0.39465 0.48694 0.0
H439 H 0.62257 0.48914 0.44517 0.0
Eu440 Eu 0.03514 0.53388 0.62683 0.0
Eu441 Eu 1.01113 0.48739 0.73559 0.0
C442 C 0.0754 0.50239 0.7393 0.0
C443 C 0.06468 0.57521 0.46773 0.0
C444 C 0.08403 0.5962 0.45239 0.0
C445 C 0.06987 0.55635 0.34838 0.0
C446 C 0.09729 0.59653 0.38688 0.0
C447 C 0.05684 0.55585 0.4146 0.0
C448 C 0.09133 0.57584 0.33524 0.0
C449 C 0.05644 0.57161 0.54235 0.0
O450 O 0.01676 0.5262 0.80389 0.0
O451 O 0.0168 0.55928 0.71554 0.0
C452 C 0.01528 0.55229 0.78391 0.0
O453 O 0.99278 0.5222 0.57876 0.0
O454 O 0.01926 0.45866 0.82449 0.0
O455 O 0.97739 0.46296 0.78209 0.0
O456 O 0.97307 0.50682 0.68215 0.0
C457 C 0.97066 0.51516 0.61462 0.0
O458 O 0.04183 0.49318 0.56813 0.0
O459 O 0.01362 0.46339 0.63158 0.0
O460 O 0.05749 0.48166 0.73419 0.0
O461 O 0.02999 0.56936 0.55434 0.0
O462 O 0.07105 0.55406 0.5802 0.0
O463 O 0.06839 0.52676 0.71424 0.0
C464 C 0.98363 0.46158 0.90762 0.0
C465 C 0.95808 0.4512 0.93091 0.0
C466 C 0.98485 0.49501 1.00496 0.0
C467 C 0.94541 0.46348 0.98885 0.0
C468 C 0.99751 0.48273 0.94717 0.0
C469 C 0.9581 0.48641 0.02395 0.0
C470 C 0.99302 0.45425 0.83574 0.0
C471 C 0.02879 0.46897 0.57526 0.0
H472 H 0.09036 0.61122 0.49313 0.0
H473 H 0.06432 0.54045 0.30937 0.0
H474 H 0.11385 0.61167 0.37976 0.0
H475 H 0.04186 0.53946 0.42582 0.0
H476 H 0.94698 0.43503 0.90095 0.0
H477 H 0.99515 0.51244 0.03168 0.0
H478 H 0.92466 0.45655 1.00196 0.0
H479 H 0.01728 0.49119 0.93041 0.0
C480 C 0.13382 0.01722 0.48411 0.0
C481 C 0.12792 0.02752 0.41393 0.0
H482 H 0.11885 1.00735 0.58952 0.0
C483 C 0.10045 0.03594 0.39896 0.0
H484 H 0.15455 0.01071 0.49903 0.0
C485 C 0.07989 0.03424 0.45146 0.0
C486 C 0.08578 0.02394 0.52146 0.0
H487 H 0.09452 0.0434 0.34575 0.0
H488 H 0.05919 0.04082 0.43674 0.0
C489 C 0.11321 0.01549 0.53668 0.0
C490 C 0.51939 0.11849 0.46478 0.0
C491 C 0.50102 0.11338 0.40544 0.0
H492 H 0.53686 0.10417 0.56547 0.0
C493 C 0.48564 0.08812 0.40543 0.0
H494 H 0.53129 0.13771 0.46838 0.0
C495 C 0.48864 0.06877 0.46229 0.0
C496 C 0.50717 0.07392 0.5212 0.0
H497 H 0.47151 0.08298 0.36079 0.0
H498 H 0.4766 0.0496 0.45962 0.0
C499 C 0.52242 0.09917 0.52132 0.0
C500 C 0.44822 0.46886 0.3936 0.0
C501 C 0.42383 0.48451 0.38844 0.0
H502 H 0.48594 0.45997 0.45393 0.0
C503 C 0.41944 0.50366 0.44342 0.0
H504 H 0.45235 0.45368 0.353 0.0
C505 C 0.43847 0.50697 0.50148 0.0
C506 C 0.46283 0.49143 0.50685 0.0
H507 H 0.40141 0.51659 0.44127 0.0
H508 H 0.43408 0.52214 0.54197 0.0
C509 C 0.46747 0.4723 0.45193 0.0
C510 C 0.04591 0.43255 0.39905 0.0
C511 C 0.03204 0.40664 0.40543 0.0
H512 H 0.05603 0.47216 0.44637 0.0
C513 C 0.01768 0.40147 0.46928 0.0
H514 H 0.05755 0.43745 0.3516 0.0
C515 C 0.01696 0.42142 0.52406 0.0
C516 C 0.0306 0.44738 0.51737 0.0
H517 H 1.00632 0.38214 0.47652 0.0
H518 H 1.00536 0.4165 0.57157 0.0
C519 C 0.04522 0.45254 0.45399 0.0
C520 C 0.93466 0.99248 0.9458 0.0
C521 C 0.90671 0.99868 0.92812 0.0
H522 H 0.97648 0.98917 0.91077 0.0
C523 C 0.90068 1.00658 0.85591 0.0
H524 H 0.94078 0.98682 1.00041 0.0
C525 C 0.92158 1.00819 0.80408 0.0
C526 C 0.94944 1.00196 0.82203 0.0
H527 H 0.87964 0.01122 0.83875 0.0
H528 H 0.91579 0.01445 0.74963 0.0
C529 C 0.95548 0.99402 0.894 0.0
C530 C 0.53877 0.90492 0.89552 0.0
C531 C 0.53896 0.91232 0.96899 0.0
H532 H 0.53725 0.91843 0.7849 0.0
C533 C 0.53783 0.94076 0.98505 0.0
H534 H 0.54 0.88343 0.88025 0.0
C535 C 0.53646 0.96093 0.93005 0.0
C536 C 0.53621 0.95351 0.85674 0.0
H537 H 0.5375 0.94755 0.04044 0.0
H538 H 0.53533 0.98244 0.94525 0.0
C539 C 0.53745 0.92513 0.84045 0.0
C540 C 0.62822 0.52956 0.89699 0.0
C541 C 0.61984 0.53124 0.96886 0.0
H542 H 0.61591 0.52686 0.78502 0.0
C543 C 0.59121 0.53325 0.98057 0.0
H544 H 0.64993 0.52771 0.88529 0.0
C545 C 0.57163 0.53257 0.92288 0.0
C546 C 0.57995 0.53002 0.8513 0.0
H547 H 0.58379 0.53519 0.03464 0.0
H548 H 0.54984 0.53357 0.93471 0.0
C549 C 0.6086 0.52899 0.83917 0.0
C550 C 0.0158 0.62301 0.87783 0.0
C551 C 1.01172 0.61581 0.95063 0.0
H552 H 0.02008 0.60916 0.76895 0.0
C553 C 1.00766 0.58745 0.96673 0.0
H554 H 0.01932 0.6444 0.86254 0.0
C555 C 1.00843 0.56715 0.91285 0.0
C556 C 0.01304 0.57431 0.8405 0.0
H557 H 1.00378 0.58074 0.02128 0.0
H558 H 1.0055 0.5457 0.92818 0.0
C559 C 0.01639 0.60265 0.82378 0.0
C560 C 0.06376 0.10851 0.26027 0.0
C561 C 0.05245 0.12821 0.21262 0.0
H562 H 0.05561 0.0738 0.32806 0.0
C563 C 0.02568 0.12328 0.1822 0.0
H564 H 0.08449 0.11148 0.28361 0.0
C565 C 1.00921 0.10129 0.20681 0.0
C566 C 0.01921 0.08396 0.26227 0.0
H567 H 0.0163 0.138 0.14513 0.0
H568 H 0.98784 0.09943 0.18729 0.0
C569 C 0.04724 0.08664 0.28511 0.0
C570 C 0.32196 0.99402 0.60524 0.0
C571 C 0.30931 0.98264 0.54269 0.0
H572 H 0.35751 0.99342 0.67706 0.0
C573 C 0.31725 0.95627 0.52063 0.0
H574 H 0.31577 0.01397 0.62458 0.0
C575 C 0.34151 0.94485 0.54933 0.0
C576 C 0.35765 0.95954 0.60107 0.0
H577 H 0.30762 0.94663 0.47331 0.0
H578 H 0.34955 0.9269 0.5232 0.0
C579 C 0.34601 0.98234 0.6348 0.0
C580 C 0.62228 0.34802 0.35368 0.0
C581 C 0.61736 0.35146 0.27906 0.0
H582 H 0.62468 0.36718 0.45714 0.0
C583 C 0.61537 0.37843 0.25085 0.0
H584 H 0.62371 0.32763 0.37774 0.0
C585 C 0.61541 0.40116 0.29701 0.0
C586 C 0.61754 0.39725 0.37204 0.0
H587 H 0.61199 0.38181 0.19356 0.0
H588 H 0.61177 0.42147 0.27424 0.0
C589 C 0.62241 0.37068 0.39958 0.0
C590 C 0.14998 0.59025 0.20966 0.0
C591 C 0.15969 0.56341 0.20044 0.0
H592 H 0.11939 0.61536 0.25603 0.0
C593 C 0.14319 0.54074 0.22186 0.0
H594 H 0.16215 0.60806 0.19255 0.0
C595 C 0.11915 0.54483 0.25966 0.0
C596 C 0.11095 0.57174 0.27616 0.0
H597 H 0.15023 0.51979 0.21578 0.0
H598 H 0.10868 0.52681 0.28172 0.0
C599 C 0.12559 0.59437 0.24639 0.0
C600 C 1.01151 0.90219 0.16219 0.0
C601 C 0.98516 0.89609 0.13063 0.0
H602 H 0.04834 0.92766 0.15865 0.0
C603 C 0.97325 0.91531 0.08256 0.0
H604 H 0.02133 0.88788 0.19962 0.0
C605 C 0.9889 0.93798 0.05862 0.0
C606 C 0.01671 0.94182 0.08252 0.0
H607 H 0.95279 0.91143 0.0584 0.0
H608 H 0.98014 0.95061 0.01565 0.0
C609 C 0.02715 0.9249 0.13832 0.0
C610 C 0.7214 0.1176 0.84761 0.0
C611 C 0.72319 0.12312 0.92195 0.0
H612 H 0.69457 0.11257 0.75419 0.0
C613 C 0.70036 0.13521 0.95382 0.0
H614 H 0.73887 0.10921 0.82058 0.0
C615 C 0.67503 0.13693 0.91613 0.0
C616 C 0.67193 0.12676 0.8455 0.0
H617 H 0.70071 0.14 1.0107 0.0
H618 H 0.65727 0.14299 0.94594 0.0
C619 C 0.69594 0.11943 0.80961 0.0
C620 C 0.41818 0.67277 1.01143 0.0
C621 C 0.42294 0.66946 0.08614 0.0
H622 H 0.41631 0.6535 0.90811 0.0
C623 C 0.42534 0.64256 0.11457 0.0
H624 H 0.41647 0.6931 0.9872 0.0
C625 C 0.42574 0.6198 0.06858 0.0
C626 C 0.42369 0.62362 0.99354 0.0
H627 H 0.42863 0.63928 0.17193 0.0
H628 H 0.42962 0.59955 0.0915 0.0
C629 C 0.41851 0.65008 0.96572 0.0
C630 C 0.90245 0.50803 0.14794 0.0
C631 C 0.89884 0.53557 0.1254 0.0
H632 H 0.92452 0.47062 0.1335 0.0
C633 C 0.91843 0.54808 0.08067 0.0
H634 H 0.88753 0.49782 0.18209 0.0
C635 C 0.93964 0.53254 0.05321 0.0
C636 C 0.94137 0.50416 0.06943 0.0
H637 H 0.91612 0.5693 0.06281 0.0
H638 H 0.95309 0.54216 1.01423 0.0
C639 C 0.92346 0.49239 0.11977 0.0
C640 C 0.0433 0.12574 0.86302 0.0
C641 C 0.02017 0.14311 0.85981 0.0
H642 H 0.06156 0.08813 0.82854 0.0
C643 C 0.99731 0.13474 0.81506 0.0
H644 H 0.06123 0.13105 0.89717 0.0
C645 C 0.99751 0.10998 0.77537 0.0
C646 C 0.02054 0.09254 0.77907 0.0
H647 H 0.97921 0.14752 0.80987 0.0
H648 H 0.97942 0.10445 0.74202 0.0
C649 C 0.04344 0.1009 0.8236 0.0
C650 C 0.41552 0.05032 0.89038 0.0
C651 C 0.39327 0.03107 0.8786 0.0
H652 H 0.45697 0.06381 0.86394 0.0
C653 C 0.39739 0.01003 0.8278 0.0
H654 H 0.41349 0.06707 0.92806 0.0
C655 C 0.42237 1.00827 0.79073 0.0
C656 C 0.44456 0.02747 0.8023 0.0
H657 H 0.38143 0.99437 0.8172 0.0
H658 H 0.42428 0.9915 0.75301 0.0
C659 C 0.4406 0.0486 0.85288 0.0
C660 C 0.48567 0.39837 0.85729 0.0
C661 C 0.50812 0.3802 0.86437 0.0
H662 H 0.46974 0.43613 0.81279 0.0
C663 C 0.53235 0.38736 0.82711 0.0
H664 H 0.4664 0.39365 0.88352 0.0
C665 C 0.53419 0.41189 0.78564 0.0
C666 C 0.51183 0.43016 0.7795 0.0
H667 H 0.55027 0.3743 0.83118 0.0
H668 H 0.55339 0.4167 0.75913 0.0
C669 C 0.48749 0.42281 0.81576 0.0
C670 C 0.13557 0.46951 0.84538 0.0
C671 C 0.15542 0.49132 0.85052 0.0
H672 H 0.09528 0.4557 0.80639 0.0
C673 C 0.14871 0.51676 0.81759 0.0
H674 H 0.13998 0.44948 0.86889 0.0
C675 C 0.12296 0.52031 0.78127 0.0
C676 C 0.10314 0.49849 0.77637 0.0
H677 H 0.16319 0.53417 0.82083 0.0
H678 H 0.11856 0.54026 0.7573 0.0
C679 C 0.1099 0.47302 0.80884 0.0
C680 C 0.99553 0.90059 0.47704 0.0
C681 C 0.01786 0.88242 0.48629 0.0
H682 H 0.97744 0.93901 0.50589 0.0
C683 C 0.03932 0.89011 0.53622 0.0
H684 H 0.97871 0.89576 0.43883 0.0
C685 C 0.03854 0.91501 0.57514 0.0
C686 C 0.01637 0.9333 0.56532 0.0
H687 H 0.05673 0.8767 0.54599 0.0
H688 H 0.05557 0.92001 0.61263 0.0
C689 C 0.99486 0.9256 0.51555 0.0
C690 C 0.64741 0.01482 0.55022 0.0
C691 C 0.64699 0.99988 0.48487 0.0
H692 H 0.62502 0.02826 0.64177 0.0
C693 C 0.62151 0.98676 0.46385 0.0
H694 H 0.66637 0.02503 0.56973 0.0
C695 C 0.59773 0.98843 0.50594 0.0
C696 C 0.59816 1.00331 0.57112 0.0
H697 H 0.61963 0.97544 0.41381 0.0
H698 H 0.57876 0.9781 0.4866 0.0
C699 C 0.62354 0.01651 0.5924 0.0
C700 C 0.5406 0.62051 0.48083 0.0
C701 C 0.52794 0.64431 0.50664 0.0
H702 H 0.54986 0.57779 0.49648 0.0
C703 C 0.51464 0.64189 0.57329 0.0
H704 H 0.5516 0.62128 0.43096 0.0
C705 C 0.51379 0.61655 0.61189 0.0
C706 C 0.52632 0.59278 0.58536 0.0
H707 H 0.50441 0.65948 0.59529 0.0
H708 H 0.50307 0.61556 0.6622 0.0
C709 C 0.53981 0.59536 0.51924 0.0
C710 C 0.91371 0.52268 0.46766 0.0
C711 C 0.88928 0.5168 0.50497 0.0
H712 H 0.95809 0.52706 0.47237 0.0
C713 C 0.89198 0.51066 0.57921 0.0
H714 H 0.91263 0.52783 0.41082 0.0
C715 C 0.91819 0.51024 0.61477 0.0
C716 C 0.94258 0.51612 0.57739 0.0
H717 H 0.87381 0.50567 0.60987 0.0
H718 H 0.91929 0.50519 0.67167 0.0
C719 C 0.93989 0.52243 0.50329 0.0
loop_
_geom_bond_atom_site_label_1
_geom_bond_atom_site_label_2
_geom_bond_distance
_geom_bond_site_symmetry_2
_ccdc_geom_bond_type
C0 C1 1.264 . S
C0 C5 1.479 . S
C0 C10 1.465 . S
C1 C0 1.264 . S
C1 C3 1.339 . S
C1 H28 0.931 . S
C2 C3 1.395 . S
C2 C4 1.320 . S
C3 C1 1.339 . S
C3 C2 1.395 . S
C3 H29 0.929 . S
C4 C2 1.320 . S
C4 C5 1.405 . S
C4 H30 0.930 . S
C5 C0 1.479 . S
C5 C4 1.405 . S
C5 H31 0.931 . S
U6 O7 2.454 . S
U6 O8 2.458 . S
U6 C9 2.984 . S
U6 C10 2.847 . S
U6 C23 2.882 . S
U6 O24 2.441 . S
U6 O25 2.420 . S
U6 O26 2.455 . S
U6 O27 2.449 . S
O7 U6 2.454 . S
O7 C9 1.353 . S
O8 U6 2.458 . S
O8 C9 1.286 . S
C9 U6 2.984 . S
C9 O7 1.353 . S
C9 O8 1.286 . S
C9 C11 1.363 . S
C10 C0 1.465 . S
C10 U6 2.847 . S
C10 O24 1.249 . S
C10 O25 1.202 . S
C11 C9 1.363 . S
C11 C13 1.408 . S
C11 C16 1.342 . S
C12 C13 1.310 . S
C12 C15 1.461 . S
C12 H32 0.932 . S
C13 C11 1.408 . S
C13 C12 1.310 . S
C13 H33 0.930 . S
C14 C15 1.474 . S
C14 C16 1.285 . S
C14 H34 0.929 . S
C15 C12 1.461 . S
C15 C14 1.474 . S
C16 C11 1.342 . S
C16 C14 1.285 . S
C16 H35 0.930 . S
C17 C20 1.424 . S
C17 C22 1.245 . S
C17 C23 1.428 . S
C18 C21 1.260 1_556 S
C18 C22 1.477 1_556 S
C18 H36 0.932 . S
C19 C20 1.384 . S
C19 C21 1.479 . S
C19 H37 0.929 . S
C20 C17 1.424 . S
C20 C19 1.384 . S
C20 H38 0.928 . S
C21 C18 1.260 1_554 S
C21 C19 1.479 . S
C22 C17 1.245 . S
C22 C18 1.477 1_554 S
C22 H39 0.932 . S
C23 U6 2.882 . S
C23 C17 1.428 . S
C23 O26 1.301 . S
C23 O27 1.282 . S
O24 U6 2.441 . S
O24 C10 1.249 . S
O25 U6 2.420 . S
O25 C10 1.202 . S
O26 U6 2.455 . S
O26 C23 1.301 . S
O27 U6 2.449 . S
O27 C23 1.282 . S
H28 C1 0.931 . S
H29 C3 0.929 . S
H30 C4 0.930 . S
H31 C5 0.931 . S
H32 C12 0.932 . S
H33 C13 0.930 . S
H34 C14 0.929 . S
H35 C16 0.930 . S
H36 C18 0.932 . S
H37 C19 0.929 . S
H38 C20 0.928 . S
H39 C22 0.932 . S
C40 C41 1.264 . S
C40 C45 1.479 . S
C40 C50 1.465 . S
C41 C40 1.264 . S
C41 C43 1.339 . S
C41 H68 0.931 . S
C42 C43 1.395 . S
C42 C44 1.320 . S
C43 C41 1.339 . S
C43 C42 1.395 . S
C43 H69 0.929 . S
C44 C42 1.320 . S
C44 C45 1.405 . S
C44 H70 0.930 . S
C45 C40 1.479 . S
C45 C44 1.405 . S
C45 H71 0.931 . S
U46 O47 2.454 . S
U46 O48 2.458 . S
U46 C49 2.984 . S
U46 C50 2.847 . S
U46 C63 2.882 . S
U46 O64 2.441 . S
U46 O65 2.420 . S
U46 O66 2.455 . S
U46 O67 2.449 . S
O47 U46 2.454 . S
O47 C49 1.353 . S
O48 U46 2.458 . S
O48 C49 1.286 . S
C49 U46 2.984 . S
C49 O47 1.353 . S
C49 O48 1.286 . S
C49 C51 1.363 . S
C50 C40 1.465 . S
C50 U46 2.847 . S
C50 O64 1.249 . S
C50 O65 1.202 . S
C51 C49 1.363 . S
C51 C53 1.408 . S
C51 C56 1.342 . S
C52 C53 1.310 . S
C52 C55 1.461 . S
C52 H72 0.932 . S
C53 C51 1.408 . S
C53 C52 1.310 . S
C53 H73 0.930 . S
C54 C55 1.474 . S
C54 C56 1.285 . S
C54 H74 0.929 . S
C55 C52 1.461 . S
C55 C54 1.474 . S
C56 C51 1.342 . S
C56 C54 1.285 . S
C56 H75 0.930 . S
C57 C60 1.424 . S
C57 C62 1.245 . S
C57 C63 1.428 . S
C58 C61 1.260 . S
C58 C62 1.477 . S
C58 H76 0.932 1_554 S
C59 C60 1.384 . S
C59 C61 1.479 . S
C59 H77 0.929 . S
C60 C57 1.424 . S
C60 C59 1.384 . S
C60 H78 0.928 . S
C61 C58 1.260 . S
C61 C59 1.479 . S
C62 C57 1.245 . S
C62 C58 1.477 . S
C62 H79 0.932 . S
C63 U46 2.882 . S
C63 C57 1.428 . S
C63 O66 1.301 . S
C63 O67 1.282 . S
O64 U46 2.441 . S
O64 C50 1.249 . S
O65 U46 2.420 . S
O65 C50 1.202 . S
O66 U46 2.455 . S
O66 C63 1.301 . S
O67 U46 2.449 . S
O67 C63 1.282 . S
H68 C41 0.931 . S
H69 C43 0.929 . S
H70 C44 0.930 . S
H71 C45 0.931 . S
H72 C52 0.932 . S
H73 C53 0.930 . S
H74 C54 0.929 . S
H75 C56 0.930 . S
H76 C58 0.932 1_556 S
H77 C59 0.929 . S
H78 C60 0.928 . S
H79 C62 0.932 . S
C80 C81 1.264 . S
C80 C85 1.479 . S
C80 C90 1.465 . S
C81 C80 1.264 . S
C81 C83 1.339 . S
C81 H108 0.931 . S
C82 C83 1.395 . S
C82 C84 1.320 . S
C83 C81 1.339 . S
C83 C82 1.395 . S
C83 H109 0.929 . S
C84 C82 1.320 . S
C84 C85 1.405 . S
C84 H110 0.930 . S
C85 C80 1.479 . S
C85 C84 1.405 . S
C85 H111 0.931 . S
U86 O87 2.454 . S
U86 O88 2.458 . S
U86 C89 2.984 . S
U86 C90 2.847 . S
U86 C103 2.882 . S
U86 O104 2.441 . S
U86 O105 2.420 . S
U86 O106 2.455 . S
U86 O107 2.449 . S
O87 U86 2.454 . S
O87 C89 1.353 . S
O88 U86 2.458 . S
O88 C89 1.286 . S
C89 U86 2.984 . S
C89 O87 1.353 . S
C89 O88 1.286 . S
C89 C91 1.363 . S
C90 C80 1.465 . S
C90 U86 2.847 . S
C90 O104 1.249 . S
C90 O105 1.202 . S
C91 C89 1.363 . S
C91 C93 1.408 . S
C91 C96 1.342 . S
C92 C93 1.310 . S
C92 C95 1.461 . S
C92 H112 0.932 . S
C93 C91 1.408 . S
C93 C92 1.310 . S
C93 H113 0.930 . S
C94 C95 1.474 . S
C94 C96 1.285 . S
C94 H114 0.929 . S
C95 C92 1.461 . S
C95 C94 1.474 . S
C96 C91 1.342 . S
C96 C94 1.285 . S
C96 H115 0.930 . S
C97 C100 1.424 . S
C97 C102 1.245 . S
C97 C103 1.428 . S
C98 C101 1.260 . S
C98 C102 1.477 . S
C98 H116 0.932 1_554 S
C99 C100 1.384 . S
C99 C101 1.479 . S
C99 H117 0.929 . S
C100 C97 1.424 . S
C100 C99 1.384 . S
C100 H118 0.928 . S
C101 C98 1.260 . S
C101 C99 1.479 . S
C102 C97 1.245 . S
C102 C98 1.477 . S
C102 H119 0.932 . S
C103 U86 2.882 . S
C103 C97 1.428 . S
C103 O106 1.301 . S
C103 O107 1.282 . S
O104 U86 2.441 . S
O104 C90 1.249 . S
O105 U86 2.420 . S
O105 C90 1.202 . S
O106 U86 2.455 . S
O106 C103 1.301 . S
O107 U86 2.449 . S
O107 C103 1.282 . S
H108 C81 0.931 . S
H109 C83 0.929 . S
H110 C84 0.930 . S
H111 C85 0.931 . S
H112 C92 0.932 . S
H113 C93 0.930 . S
H114 C94 0.929 . S
H115 C96 0.930 . S
H116 C98 0.932 1_556 S
H117 C99 0.929 . S
H118 C100 0.928 . S
H119 C102 0.932 . S
C120 C121 1.264 . S
C120 C125 1.479 . S
C120 C130 1.465 . S
C121 C120 1.264 . S
C121 C123 1.339 . S
C121 H148 0.931 . S
C122 C123 1.395 . S
C122 C124 1.320 . S
C123 C121 1.339 . S
C123 C122 1.395 . S
C123 H149 0.929 . S
C124 C122 1.320 . S
C124 C125 1.405 . S
C124 H150 0.930 . S
C125 C120 1.479 . S
C125 C124 1.405 . S
C125 H151 0.931 . S
U126 O127 2.454 . S
U126 O128 2.458 . S
U126 C129 2.984 . S
U126 C130 2.847 . S
U126 C143 2.882 . S
U126 O144 2.441 . S
U126 O145 2.420 . S
U126 O146 2.455 . S
U126 O147 2.449 . S
O127 U126 2.454 . S
O127 C129 1.353 . S
O128 U126 2.458 . S
O128 C129 1.286 . S
C129 U126 2.984 . S
C129 O127 1.353 . S
C129 O128 1.286 . S
C129 C131 1.363 . S
C130 C120 1.465 . S
C130 U126 2.847 . S
C130 O144 1.249 . S
C130 O145 1.202 . S
C131 C129 1.363 . S
C131 C133 1.408 . S
C131 C136 1.342 . S
C132 C133 1.310 . S
C132 C135 1.461 . S
C132 H152 0.932 . S
C133 C131 1.408 . S
C133 C132 1.310 . S
C133 H153 0.930 . S
C134 C135 1.474 . S
C134 C136 1.285 . S
C134 H154 0.929 . S
C135 C132 1.461 . S
C135 C134 1.474 . S
C136 C131 1.342 . S
C136 C134 1.285 . S
C136 H155 0.930 . S
C137 C140 1.424 . S
C137 C142 1.245 . S
C137 C143 1.428 . S
C138 C141 1.260 1_556 S
C138 C142 1.477 1_556 S
C138 H156 0.932 . S
C139 C140 1.384 . S
C139 C141 1.479 . S
C139 H157 0.929 . S
C140 C137 1.424 . S
C140 C139 1.384 . S
C140 H158 0.928 . S
C141 C138 1.260 1_554 S
C141 C139 1.479 . S
C142 C137 1.245 . S
C142 C138 1.477 1_554 S
C142 H159 0.932 . S
C143 U126 2.882 . S
C143 C137 1.428 . S
C143 O146 1.301 . S
C143 O147 1.282 . S
O144 U126 2.441 . S
O144 C130 1.249 . S
O145 U126 2.420 . S
O145 C130 1.202 . S
O146 U126 2.455 . S
O146 C143 1.301 . S
O147 U126 2.449 . S
O147 C143 1.282 . S
H148 C121 0.931 . S
H149 C123 0.929 . S
H150 C124 0.930 . S
H151 C125 0.931 . S
H152 C132 0.932 . S
H153 C133 0.930 . S
H154 C134 0.929 . S
H155 C136 0.930 . S
H156 C138 0.932 . S
H157 C139 0.929 . S
H158 C140 0.928 . S
H159 C142 0.932 . S
C160 C161 1.264 . S
C160 C165 1.479 . S
C160 C170 1.465 . S
C161 C160 1.264 . S
C161 C163 1.339 . S
C161 H188 0.931 . S
C162 C163 1.395 . S
C162 C164 1.320 . S
C163 C161 1.339 . S
C163 C162 1.395 . S
C163 H189 0.929 . S
C164 C162 1.320 . S
C164 C165 1.405 . S
C164 H190 0.930 . S
C165 C160 1.479 . S
C165 C164 1.405 . S
C165 H191 0.931 . S
U166 O167 2.454 . S
U166 O168 2.458 . S
U166 C169 2.984 . S
U166 C170 2.847 1_554 S
U166 C183 2.882 . S
U166 O184 2.441 1_554 S
U166 O185 2.420 1_554 S
U166 O186 2.455 . S
U166 O187 2.449 . S
O167 U166 2.454 . S
O167 C169 1.353 . S
O168 U166 2.458 . S
O168 C169 1.286 . S
C169 U166 2.984 . S
C169 O167 1.353 . S
C169 O168 1.286 . S
C169 C171 1.363 . S
C170 C160 1.465 . S
C170 U166 2.847 1_556 S
C170 O184 1.249 . S
C170 O185 1.202 . S
C171 C169 1.363 . S
C171 C173 1.408 . S
C171 C176 1.342 . S
C172 C173 1.310 . S
C172 C175 1.461 . S
C172 H192 0.932 . S
C173 C171 1.408 . S
C173 C172 1.310 . S
C173 H193 0.930 . S
C174 C175 1.474 . S
C174 C176 1.285 . S
C174 H194 0.929 . S
C175 C172 1.461 . S
C175 C174 1.474 . S
C176 C171 1.342 . S
C176 C174 1.285 . S
C176 H195 0.930 . S
C177 C180 1.424 . S
C177 C182 1.245 . S
C177 C183 1.428 . S
C178 C181 1.260 . S
C178 C182 1.477 . S
C178 H196 0.932 . S
C179 C180 1.384 . S
C179 C181 1.479 . S
C179 H197 0.929 . S
C180 C177 1.424 . S
C180 C179 1.384 . S
C180 H198 0.928 . S
C181 C178 1.260 . S
C181 C179 1.479 . S
C182 C177 1.245 . S
C182 C178 1.477 . S
C182 H199 0.932 . S
C183 U166 2.882 . S
C183 C177 1.428 . S
C183 O186 1.301 . S
C183 O187 1.282 . S
O184 U166 2.441 1_556 S
O184 C170 1.249 . S
O185 U166 2.420 1_556 S
O185 C170 1.202 . S
O186 U166 2.455 . S
O186 C183 1.301 . S
O187 U166 2.449 . S
O187 C183 1.282 . S
H188 C161 0.931 . S
H189 C163 0.929 . S
H190 C164 0.930 . S
H191 C165 0.931 . S
H192 C172 0.932 . S
H193 C173 0.930 . S
H194 C174 0.929 . S
H195 C176 0.930 . S
H196 C178 0.932 . S
H197 C179 0.929 . S
H198 C180 0.928 . S
H199 C182 0.932 . S
C200 C201 1.264 . S
C200 C205 1.479 . S
C200 C210 1.465 . S
C201 C200 1.264 . S
C201 C203 1.339 . S
C201 H228 0.931 . S
C202 C203 1.395 . S
C202 C204 1.320 . S
C203 C201 1.339 . S
C203 C202 1.395 . S
C203 H229 0.929 . S
C204 C202 1.320 . S
C204 C205 1.405 . S
C204 H230 0.930 . S
C205 C200 1.479 . S
C205 C204 1.405 . S
C205 H231 0.931 . S
U206 O207 2.454 . S
U206 O208 2.458 . S
U206 C209 2.984 . S
U206 C210 2.847 1_554 S
U206 C223 2.882 . S
U206 O224 2.441 1_554 S
U206 O225 2.420 1_554 S
U206 O226 2.455 . S
U206 O227 2.449 . S
O207 U206 2.454 . S
O207 C209 1.353 . S
O208 U206 2.458 . S
O208 C209 1.286 . S
C209 U206 2.984 . S
C209 O207 1.353 . S
C209 O208 1.286 . S
C209 C211 1.363 . S
C210 C200 1.465 . S
C210 U206 2.847 1_556 S
C210 O224 1.249 . S
C210 O225 1.202 . S
C211 C209 1.363 . S
C211 C213 1.408 . S
C211 C216 1.342 . S
C212 C213 1.310 . S
C212 C215 1.461 . S
C212 H232 0.932 . S
C213 C211 1.408 . S
C213 C212 1.310 . S
C213 H233 0.930 1_554 S
C214 C215 1.474 . S
C214 C216 1.285 . S
C214 H234 0.929 . S
C215 C212 1.461 . S
C215 C214 1.474 . S
C216 C211 1.342 . S
C216 C214 1.285 . S
C216 H235 0.930 . S
C217 C220 1.424 . S
C217 C222 1.245 . S
C217 C223 1.428 . S
C218 C221 1.260 . S
C218 C222 1.477 . S
C218 H236 0.932 . S
C219 C220 1.384 . S
C219 C221 1.479 . S
C219 H237 0.929 . S
C220 C217 1.424 . S
C220 C219 1.384 . S
C220 H238 0.928 . S
C221 C218 1.260 . S
C221 C219 1.479 . S
C222 C217 1.245 . S
C222 C218 1.477 . S
C222 H239 0.932 . S
C223 U206 2.882 . S
C223 C217 1.428 . S
C223 O226 1.301 . S
C223 O227 1.282 . S
O224 U206 2.441 1_556 S
O224 C210 1.249 . S
O225 U206 2.420 1_556 S
O225 C210 1.202 . S
O226 U206 2.455 . S
O226 C223 1.301 . S
O227 U206 2.449 . S
O227 C223 1.282 . S
H228 C201 0.931 . S
H229 C203 0.929 . S
H230 C204 0.930 . S
H231 C205 0.931 . S
H232 C212 0.932 . S
H233 C213 0.930 1_556 S
H234 C214 0.929 . S
H235 C216 0.930 . S
H236 C218 0.932 . S
H237 C219 0.929 . S
H238 C220 0.928 . S
H239 C222 0.932 . S
C240 C241 1.264 . S
C240 C245 1.479 . S
C240 C250 1.465 . S
C241 C240 1.264 . S
C241 C243 1.339 . S
C241 H268 0.931 . S
C242 C243 1.395 . S
C242 C244 1.320 . S
C243 C241 1.339 . S
C243 C242 1.395 . S
C243 H269 0.929 . S
C244 C242 1.320 . S
C244 C245 1.405 . S
C244 H270 0.930 . S
C245 C240 1.479 . S
C245 C244 1.405 . S
C245 H271 0.931 . S
U246 O247 2.454 1_554 S
U246 O248 2.458 . S
U246 C249 2.984 . S
U246 C250 2.847 1_554 S
U246 C263 2.882 . S
U246 O264 2.441 1_554 S
U246 O265 2.420 1_554 S
U246 O266 2.455 . S
U246 O267 2.449 . S
O247 U246 2.454 1_556 S
O247 C249 1.353 1_556 S
O248 U246 2.458 . S
O248 C249 1.286 . S
C249 U246 2.984 . S
C249 O247 1.353 1_554 S
C249 O248 1.286 . S
C249 C251 1.363 . S
C250 C240 1.465 . S
C250 U246 2.847 1_556 S
C250 O264 1.249 . S
C250 O265 1.202 . S
C251 C249 1.363 . S
C251 C253 1.408 . S
C251 C256 1.342 . S
C252 C253 1.310 . S
C252 C255 1.461 . S
C252 H272 0.932 1_554 S
C253 C251 1.408 . S
C253 C252 1.310 . S
C253 H273 0.930 1_554 S
C254 C255 1.474 . S
C254 C256 1.285 . S
C254 H274 0.929 . S
C255 C252 1.461 . S
C255 C254 1.474 . S
C256 C251 1.342 . S
C256 C254 1.285 . S
C256 H275 0.930 . S
C257 C260 1.424 . S
C257 C262 1.245 . S
C257 C263 1.428 . S
C258 C261 1.260 . S
C258 C262 1.477 . S
C258 H276 0.932 . S
C259 C260 1.384 . S
C259 C261 1.479 . S
C259 H277 0.929 . S
C260 C257 1.424 . S
C260 C259 1.384 . S
C260 H278 0.928 . S
C261 C258 1.260 . S
C261 C259 1.479 . S
C262 C257 1.245 . S
C262 C258 1.477 . S
C262 H279 0.932 . S
C263 U246 2.882 . S
C263 C257 1.428 . S
C263 O266 1.301 . S
C263 O267 1.282 . S
O264 U246 2.441 1_556 S
O264 C250 1.249 . S
O265 U246 2.420 1_556 S
O265 C250 1.202 . S
O266 U246 2.455 . S
O266 C263 1.301 . S
O267 U246 2.449 . S
O267 C263 1.282 . S
H268 C241 0.931 . S
H269 C243 0.929 . S
H270 C244 0.930 . S
H271 C245 0.931 . S
H272 C252 0.932 1_556 S
H273 C253 0.930 1_556 S
H274 C254 0.929 . S
H275 C256 0.930 . S
H276 C258 0.932 . S
H277 C259 0.929 . S
H278 C260 0.928 . S
H279 C262 0.932 . S
C280 C281 1.264 . S
C280 C285 1.479 . S
C280 C290 1.465 . S
C281 C280 1.264 . S
C281 C283 1.339 . S
C281 H308 0.931 . S
C282 C283 1.395 . S
C282 C284 1.320 . S
C283 C281 1.339 . S
C283 C282 1.395 . S
C283 H309 0.929 . S
C284 C282 1.320 . S
C284 C285 1.405 . S
C284 H310 0.930 . S
C285 C280 1.479 . S
C285 C284 1.405 . S
C285 H311 0.931 . S
U286 O287 2.454 . S
U286 O288 2.458 . S
U286 C289 2.984 . S
U286 C290 2.847 1_554 S
U286 C303 2.882 . S
U286 O304 2.441 1_554 S
U286 O305 2.420 1_554 S
U286 O306 2.455 . S
U286 O307 2.449 . S
O287 U286 2.454 . S
O287 C289 1.353 . S
O288 U286 2.458 . S
O288 C289 1.286 . S
C289 U286 2.984 . S
C289 O287 1.353 . S
C289 O288 1.286 . S
C289 C291 1.363 . S
C290 C280 1.465 . S
C290 U286 2.847 1_556 S
C290 O304 1.249 . S
C290 O305 1.202 . S
C291 C289 1.363 . S
C291 C293 1.408 . S
C291 C296 1.342 . S
C292 C293 1.310 . S
C292 C295 1.461 . S
C292 H312 0.932 . S
C293 C291 1.408 . S
C293 C292 1.310 . S
C293 H313 0.930 . S
C294 C295 1.474 . S
C294 C296 1.285 . S
C294 H314 0.929 . S
C295 C292 1.461 . S
C295 C294 1.474 . S
C296 C291 1.342 . S
C296 C294 1.285 . S
C296 H315 0.930 . S
C297 C300 1.424 . S
C297 C302 1.245 . S
C297 C303 1.428 . S
C298 C301 1.260 . S
C298 C302 1.477 . S
C298 H316 0.932 . S
C299 C300 1.384 . S
C299 C301 1.479 . S
C299 H317 0.929 . S
C300 C297 1.424 . S
C300 C299 1.384 . S
C300 H318 0.928 . S
C301 C298 1.260 . S
C301 C299 1.479 . S
C302 C297 1.245 . S
C302 C298 1.477 . S
C302 H319 0.932 . S
C303 U286 2.882 . S
C303 C297 1.428 . S
C303 O306 1.301 . S
C303 O307 1.282 . S
O304 U286 2.441 1_556 S
O304 C290 1.249 . S
O305 U286 2.420 1_556 S
O305 C290 1.202 . S
O306 U286 2.455 . S
O306 C303 1.301 . S
O307 U286 2.449 . S
O307 C303 1.282 . S
H308 C281 0.931 . S
H309 C283 0.929 . S
H310 C284 0.930 . S
H311 C285 0.931 . S
H312 C292 0.932 . S
H313 C293 0.930 . S
H314 C294 0.929 . S
H315 C296 0.930 . S
H316 C298 0.932 . S
H317 C299 0.929 . S
H318 C300 0.928 . S
H319 C302 0.932 . S
Eu320 C329 2.828 . S
Eu320 O331 2.392 . S
Eu320 O333 2.418 1_545 S
Eu320 O338 2.373 1_655 S
Eu320 O341 2.488 . S
Eu320 O342 2.471 . S
Eu320 O343 2.349 1_655 S
Eu321 O330 2.373 1_455 S
Eu321 O334 2.488 . S
Eu321 O335 2.471 . S
Eu321 O336 2.349 . S
Eu321 O339 2.392 1_565 S
Eu321 O340 2.418 1_565 S
Eu321 C350 2.828 . S
C322 O340 1.244 . S
C322 O343 1.265 . S
C323 C324 1.379 1_655 S
C323 C327 1.373 . S
C323 C329 1.505 . S
C324 C323 1.379 1_455 S
C324 C326 1.369 . S
C324 H352 0.930 . S
C325 C327 1.383 . S
C325 C328 1.382 . S
C325 H353 0.930 . S
C326 C324 1.369 . S
C326 C328 1.392 1_455 S
C326 H354 0.930 . S
C327 C323 1.373 . S
C327 C325 1.383 . S
C327 H355 0.931 . S
C328 C325 1.382 . S
C328 C326 1.392 1_655 S
C329 Eu320 2.828 . S
C329 C323 1.505 . S
C329 O341 1.249 . S
C329 O342 1.244 . S
O330 Eu321 2.373 1_655 S
O330 C332 1.258 . S
O331 Eu320 2.392 . S
O331 C332 1.242 1_545 S
C332 O330 1.258 . S
C332 O331 1.242 1_565 S
O333 Eu320 2.418 1_565 S
O333 C337 1.244 . S
O334 Eu321 2.488 . S
O334 C350 1.249 . S
O335 Eu321 2.471 . S
O335 C350 1.244 . S
O336 Eu321 2.349 . S
O336 C337 1.265 1_455 S
C337 O333 1.244 . S
C337 O336 1.265 1_655 S
O338 Eu320 2.373 1_455 S
O338 C351 1.258 . S
O339 Eu321 2.392 1_545 S
O339 C351 1.242 . S
O340 Eu321 2.418 1_545 S
O340 C322 1.244 . S
O341 Eu320 2.488 . S
O341 C329 1.249 . S
O342 Eu320 2.471 . S
O342 C329 1.244 . S
O343 Eu320 2.349 1_455 S
O343 C322 1.265 . S
C344 C345 1.379 . S
C344 C348 1.373 . S
C344 C350 1.505 . S
C345 C344 1.379 . S
C345 C347 1.369 . S
C345 H356 0.930 1_455 S
C346 C348 1.383 1_554 S
C346 C349 1.382 . S
C346 H357 0.930 . S
C347 C345 1.369 . S
C347 C349 1.392 1_556 S
C347 H358 0.930 1_455 S
C348 C344 1.373 . S
C348 C346 1.383 1_556 S
C348 H359 0.931 . S
C349 C346 1.382 . S
C349 C347 1.392 1_554 S
C350 Eu321 2.828 . S
C350 O334 1.249 . S
C350 O335 1.244 . S
C350 C344 1.505 . S
C351 O338 1.258 . S
C351 O339 1.242 . S
H352 C324 0.930 . S
H353 C325 0.930 . S
H354 C326 0.930 . S
H355 C327 0.931 . S
H356 C345 0.930 1_655 S
H357 C346 0.930 . S
H358 C347 0.930 1_655 S
H359 C348 0.931 . S
Eu360 C369 2.828 . S
Eu360 O371 2.392 . S
Eu360 O373 2.418 . S
Eu360 O378 2.373 . S
Eu360 O381 2.488 . S
Eu360 O382 2.471 . S
Eu360 O383 2.349 1_545 S
Eu361 O370 2.373 1_565 S
Eu361 O374 2.488 . S
Eu361 O375 2.471 1_565 S
Eu361 O376 2.349 1_565 S
Eu361 O379 2.392 . S
Eu361 O380 2.418 . S
Eu361 C390 2.828 . S
C362 O380 1.244 . S
C362 O383 1.265 . S
C363 C364 1.379 . S
C363 C367 1.373 . S
C363 C369 1.505 . S
C364 C363 1.379 . S
C364 C366 1.370 . S
C364 H392 0.930 1_545 S
C365 C367 1.383 . S
C365 C368 1.382 . S
C365 H393 0.930 . S
C366 C364 1.370 . S
C366 C368 1.402 . S
C366 H394 0.920 1_545 S
C367 C363 1.373 . S
C367 C365 1.383 . S
C367 H395 0.931 . S
C368 C365 1.382 . S
C368 C366 1.402 . S
C369 Eu360 2.828 . S
C369 C363 1.505 . S
C369 O381 1.249 . S
C369 O382 1.244 . S
O370 Eu361 2.373 1_545 S
O370 C372 1.258 . S
O371 Eu360 2.392 . S
O371 C372 1.242 . S
C372 O370 1.258 . S
C372 O371 1.242 . S
O373 Eu360 2.418 . S
O373 C377 1.244 . S
O374 Eu361 2.488 . S
O374 C390 1.249 . S
O375 Eu361 2.471 1_545 S
O375 C390 1.244 1_545 S
O376 Eu361 2.349 1_545 S
O376 C377 1.265 . S
C377 O373 1.244 . S
C377 O376 1.265 . S
O378 Eu360 2.373 . S
O378 C391 1.258 1_545 S
O379 Eu361 2.392 . S
O379 C391 1.242 . S
O380 Eu361 2.418 . S
O380 C362 1.244 . S
O381 Eu360 2.488 . S
O381 C369 1.249 . S
O382 Eu360 2.471 . S
O382 C369 1.244 . S
O383 Eu360 2.349 1_565 S
O383 C362 1.265 . S
C384 C385 1.379 1_565 S
C384 C388 1.373 . S
C384 C390 1.505 . S
C385 C384 1.379 1_545 S
C385 C387 1.369 . S
C385 H396 0.930 . S
C386 C388 1.383 . S
C386 C389 1.382 . S
C386 H397 0.930 . S
C387 C385 1.369 . S
C387 C389 1.392 1_545 S
C387 H398 0.930 . S
C388 C384 1.373 . S
C388 C386 1.383 . S
C388 H399 0.931 . S
C389 C386 1.382 . S
C389 C387 1.392 1_565 S
C390 Eu361 2.828 . S
C390 O374 1.249 . S
C390 O375 1.244 1_565 S
C390 C384 1.505 . S
C391 O378 1.258 1_565 S
C391 O379 1.242 . S
H392 C364 0.930 1_565 S
H393 C365 0.930 . S
H394 C366 0.920 1_565 S
H395 C367 0.931 . S
H396 C385 0.930 . S
H397 C386 0.930 . S
H398 C387 0.930 . S
H399 C388 0.931 . S
Eu400 C409 2.828 . S
Eu400 O411 2.392 . S
Eu400 O413 2.418 . S
Eu400 O418 2.373 . S
Eu400 O421 2.488 . S
Eu400 O422 2.471 . S
Eu400 O423 2.349 . S
Eu401 O410 2.373 . S
Eu401 O414 2.488 . S
Eu401 O415 2.471 . S
Eu401 O416 2.349 . S
Eu401 O419 2.392 . S
Eu401 O420 2.418 . S
Eu401 C430 2.828 . S
C402 O420 1.244 . S
C402 O423 1.265 . S
C403 C404 1.379 . S
C403 C407 1.373 . S
C403 C409 1.505 . S
C404 C403 1.379 . S
C404 C406 1.369 . S
C404 H432 0.930 . S
C405 C407 1.383 . S
C405 C408 1.382 . S
C405 H433 0.930 . S
C406 C404 1.369 . S
C406 C408 1.392 . S
C406 H434 0.930 . S
C407 C403 1.373 . S
C407 C405 1.383 . S
C407 H435 0.931 . S
C408 C405 1.382 . S
C408 C406 1.392 . S
C409 Eu400 2.828 . S
C409 C403 1.505 . S
C409 O421 1.249 . S
C409 O422 1.244 . S
O410 Eu401 2.373 . S
O410 C412 1.258 . S
O411 Eu400 2.392 . S
O411 C412 1.242 . S
C412 O410 1.258 . S
C412 O411 1.242 . S
O413 Eu400 2.418 . S
O413 C417 1.244 . S
O414 Eu401 2.488 . S
O414 C430 1.249 . S
O415 Eu401 2.471 . S
O415 C430 1.244 . S
O416 Eu401 2.349 . S
O416 C417 1.265 . S
C417 O413 1.244 . S
C417 O416 1.265 . S
O418 Eu400 2.373 . S
O418 C431 1.258 . S
O419 Eu401 2.392 . S
O419 C431 1.242 . S
O420 Eu401 2.418 . S
O420 C402 1.244 . S
O421 Eu400 2.488 . S
O421 C409 1.249 . S
O422 Eu400 2.471 . S
O422 C409 1.244 . S
O423 Eu400 2.349 . S
O423 C402 1.265 . S
C424 C425 1.379 . S
C424 C428 1.373 . S
C424 C430 1.505 . S
C425 C424 1.379 . S
C425 C427 1.369 . S
C425 H436 0.930 . S
C426 C428 1.383 . S
C426 C429 1.382 . S
C426 H437 0.930 . S
C427 C425 1.369 . S
C427 C429 1.392 . S
C427 H438 0.930 . S
C428 C424 1.373 . S
C428 C426 1.383 . S
C428 H439 0.931 . S
C429 C426 1.382 . S
C429 C427 1.392 . S
C430 Eu401 2.828 . S
C430 O414 1.249 . S
C430 O415 1.244 . S
C430 C424 1.505 . S
C431 O418 1.258 . S
C431 O419 1.242 . S
H432 C404 0.930 . S
H433 C405 0.930 . S
H434 C406 0.930 . S
H435 C407 0.931 . S
H436 C425 0.930 . S
H437 C426 0.930 . S
H438 C427 0.930 . S
H439 C428 0.931 . S
Eu440 C449 2.828 . S
Eu440 O451 2.392 . S
Eu440 O453 2.418 1_455 S
Eu440 O458 2.373 . S
Eu440 O461 2.488 . S
Eu440 O462 2.471 . S
Eu440 O463 2.349 . S
Eu441 O450 2.373 . S
Eu441 O454 2.488 . S
Eu441 O455 2.471 . S
Eu441 O456 2.349 . S
Eu441 O459 2.392 1_655 S
Eu441 O460 2.418 1_655 S
Eu441 C470 2.828 . S
C442 O460 1.244 . S
C442 O463 1.265 . S
C443 C444 1.379 . S
C443 C447 1.373 . S
C443 C449 1.505 . S
C444 C443 1.379 . S
C444 C446 1.369 . S
C444 H472 0.930 . S
C445 C447 1.383 . S
C445 C448 1.382 . S
C445 H473 0.930 . S
C446 C444 1.369 . S
C446 C448 1.392 . S
C446 H474 0.930 . S
C447 C443 1.373 . S
C447 C445 1.383 . S
C447 H475 0.931 . S
C448 C445 1.382 . S
C448 C446 1.392 . S
C449 Eu440 2.828 . S
C449 C443 1.505 . S
C449 O461 1.249 . S
C449 O462 1.244 . S
O450 Eu441 2.373 . S
O450 C452 1.258 . S
O451 Eu440 2.392 . S
O451 C452 1.242 1_455 S
C452 O450 1.258 . S
C452 O451 1.242 1_655 S
O453 Eu440 2.418 1_655 S
O453 C457 1.244 . S
O454 Eu441 2.488 . S
O454 C470 1.249 . S
O455 Eu441 2.471 . S
O455 C470 1.244 . S
O456 Eu441 2.349 . S
O456 C457 1.265 . S
C457 O453 1.244 . S
C457 O456 1.265 . S
O458 Eu440 2.373 . S
O458 C471 1.258 . S
O459 Eu441 2.392 1_455 S
O459 C471 1.242 . S
O460 Eu441 2.418 1_455 S
O460 C442 1.244 . S
O461 Eu440 2.488 . S
O461 C449 1.249 . S
O462 Eu440 2.471 . S
O462 C449 1.244 . S
O463 Eu440 2.349 . S
O463 C442 1.265 . S
C464 C465 1.379 . S
C464 C468 1.373 . S
C464 C470 1.505 . S
C465 C464 1.379 . S
C465 C467 1.369 . S
C465 H476 0.930 . S
C466 C468 1.383 1_554 S
C466 C469 1.382 1_554 S
C466 H477 0.930 . S
C467 C465 1.369 . S
C467 C469 1.392 . S
C467 H478 0.930 . S
C468 C464 1.373 . S
C468 C466 1.383 1_556 S
C468 H479 0.931 . S
C469 C466 1.382 1_556 S
C469 C467 1.392 . S
C470 Eu441 2.828 . S
C470 O454 1.249 . S
C470 O455 1.244 . S
C470 C464 1.505 . S
C471 O458 1.258 . S
C471 O459 1.242 . S
H472 C444 0.930 . S
H473 C445 0.930 . S
H474 C446 0.930 . S
H475 C447 0.931 . S
H476 C465 0.930 . S
H477 C466 0.930 . S
H478 C467 0.930 . S
H479 C468 0.931 . S
C480 C481 1.387 . S
C480 H484 0.950 . S
C480 C489 1.390 . S
C481 C480 1.387 . S
C481 C483 1.387 . S
H482 C489 0.950 . S
C483 C481 1.387 . S
C483 C485 1.390 . S
C483 H487 0.950 . S
H484 C480 0.950 . S
C485 C483 1.390 . S
C485 C486 1.387 . S
C485 H488 0.952 . S
C486 C485 1.387 . S
C486 C489 1.387 . S
H487 C483 0.950 . S
H488 C485 0.952 . S
C489 C480 1.390 . S
C489 H482 0.950 . S
C489 C486 1.387 . S
C490 C491 1.387 . S
C490 H494 0.950 . S
C490 C499 1.390 . S
C491 C490 1.387 . S
C491 C493 1.387 . S
H492 C499 0.950 . S
C493 C491 1.387 . S
C493 C495 1.390 . S
C493 H497 0.950 . S
H494 C490 0.950 . S
C495 C493 1.390 . S
C495 C496 1.387 . S
C495 H498 0.950 . S
C496 C495 1.387 . S
C496 C499 1.387 . S
H497 C493 0.950 . S
H498 C495 0.950 . S
C499 C490 1.390 . S
C499 H492 0.950 . S
C499 C496 1.387 . S
C500 C501 1.387 . S
C500 H504 0.950 . S
C500 C509 1.390 . S
C501 C500 1.387 . S
C501 C503 1.387 . S
H502 C509 0.950 . S
C503 C501 1.387 . S
C503 C505 1.390 . S
C503 H507 0.950 . S
H504 C500 0.950 . S
C505 C503 1.390 . S
C505 C506 1.387 . S
C505 H508 0.950 . S
C506 C505 1.387 . S
C506 C509 1.387 . S
H507 C503 0.950 . S
H508 C505 0.950 . S
C509 C500 1.390 . S
C509 H502 0.950 . S
C509 C506 1.387 . S
C510 C511 1.387 . S
C510 H514 0.950 . S
C510 C519 1.390 . S
C511 C510 1.387 . S
C511 C513 1.387 . S
H512 C519 0.950 . S
C513 C511 1.387 . S
C513 C515 1.390 . S
C513 H517 0.950 . S
H514 C510 0.950 . S
C515 C513 1.390 . S
C515 C516 1.387 . S
C515 H518 0.950 . S
C516 C515 1.387 . S
C516 C519 1.387 . S
H517 C513 0.950 . S
H518 C515 0.950 . S
C519 C510 1.390 . S
C519 H512 0.950 . S
C519 C516 1.387 . S
C520 C521 1.387 . S
C520 H524 0.950 . S
C520 C529 1.390 1_554 S
C521 C520 1.387 . S
C521 C523 1.387 . S
H522 C529 0.950 . S
C523 C521 1.387 . S
C523 C525 1.390 1_554 S
C523 H527 0.950 . S
H524 C520 0.950 . S
C525 C523 1.390 1_556 S
C525 C526 1.387 . S
C525 H528 0.950 . S
C526 C525 1.387 . S
C526 C529 1.387 . S
H527 C523 0.950 . S
H528 C525 0.950 . S
C529 C520 1.390 1_556 S
C529 H522 0.950 . S
C529 C526 1.387 . S
C530 C531 1.395 . S
C530 H534 0.958 . S
C530 C539 1.374 1_554 S
C531 C530 1.395 . S
C531 C533 1.387 1_554 S
H532 C539 0.950 . S
C533 C531 1.387 1_556 S
C533 C535 1.390 . S
C533 H537 0.950 1_556 S
H534 C530 0.958 . S
C535 C533 1.390 . S
C535 C536 1.387 . S
C535 H538 0.950 . S
C536 C535 1.387 . S
C536 C539 1.387 . S
H537 C533 0.950 1_554 S
H538 C535 0.950 . S
C539 C530 1.374 1_556 S
C539 H532 0.950 . S
C539 C536 1.387 . S
C540 C541 1.387 1_556 S
C540 H544 0.950 1_556 S
C540 C549 1.390 . S
C541 C540 1.387 1_554 S
C541 C543 1.387 1_554 S
H542 C549 0.950 . S
C543 C541 1.387 1_556 S
C543 C545 1.390 . S
C543 H547 0.950 1_556 S
H544 C540 0.950 1_554 S
C545 C543 1.390 . S
C545 C546 1.387 . S
C545 H548 0.950 . S
C546 C545 1.387 . S
C546 C549 1.387 . S
H547 C543 0.950 1_554 S
H548 C545 0.950 . S
C549 C540 1.390 . S
C549 H542 0.950 . S
C549 C546 1.387 . S
C550 C551 1.387 . S
C550 H554 0.950 1_655 S
C550 C559 1.390 1_554 S
C551 C550 1.387 . S
C551 C553 1.387 . S
H552 C559 0.950 1_455 S
C553 C551 1.387 . S
C553 C555 1.390 1_554 S
C553 H557 0.950 . S
H554 C550 0.950 1_455 S
C555 C553 1.390 1_556 S
C555 C556 1.387 . S
C555 H558 0.950 . S
C556 C555 1.387 . S
C556 C559 1.387 . S
H557 C553 0.950 . S
H558 C555 0.950 . S
C559 C550 1.390 1_556 S
C559 H552 0.950 1_655 S
C559 C556 1.387 . S
C560 C561 1.387 . S
C560 H564 0.950 . S
C560 C569 1.390 . S
C561 C560 1.387 . S
C561 C563 1.387 . S
H562 C569 0.950 . S
C563 C561 1.387 . S
C563 C565 1.390 . S
C563 H567 0.950 . S
H564 C560 0.950 . S
C565 C563 1.390 . S
C565 C566 1.387 . S
C565 H568 0.950 1_455 S
C566 C565 1.387 . S
C566 C569 1.387 . S
H567 C563 0.950 . S
H568 C565 0.950 1_655 S
C569 C560 1.390 . S
C569 H562 0.950 . S
C569 C566 1.387 . S
C570 C571 1.387 . S
C570 H574 0.950 . S
C570 C579 1.390 . S
C571 C570 1.387 . S
C571 C573 1.387 . S
H572 C579 0.950 . S
C573 C571 1.387 . S
C573 C575 1.365 1_545 S
C573 H577 0.950 . S
H574 C570 0.950 . S
C575 C573 1.365 1_565 S
C575 C576 1.389 . S
C575 H578 0.974 . S
C576 C575 1.389 . S
C576 C579 1.387 1_565 S
H577 C573 0.950 . S
H578 C575 0.974 . S
C579 C570 1.390 . S
C579 H572 0.950 . S
C579 C576 1.387 1_545 S
C580 C581 1.387 . S
C580 H584 0.950 . S
C580 C589 1.390 . S
C581 C580 1.387 . S
C581 C583 1.387 . S
H582 C589 0.950 . S
C583 C581 1.387 . S
C583 C585 1.390 . S
C583 H587 0.950 . S
H584 C580 0.950 . S
C585 C583 1.390 . S
C585 C586 1.387 . S
C585 H588 0.950 . S
C586 C585 1.387 . S
C586 C589 1.387 . S
H587 C583 0.950 . S
H588 C585 0.950 . S
C589 C580 1.390 . S
C589 H582 0.950 . S
C589 C586 1.387 . S
C590 C591 1.387 . S
C590 H594 0.950 . S
C590 C599 1.390 . S
C591 C590 1.387 . S
C591 C593 1.387 . S
H592 C599 0.950 . S
C593 C591 1.387 . S
C593 C595 1.390 . S
C593 H597 0.950 . S
H594 C590 0.950 . S
C595 C593 1.390 . S
C595 C596 1.387 . S
C595 H598 0.950 . S
C596 C595 1.387 . S
C596 C599 1.387 . S
H597 C593 0.950 . S
H598 C595 0.950 . S
C599 C590 1.390 . S
C599 H592 0.950 . S
C599 C596 1.387 . S
C600 C601 1.387 1_556 S
C600 H604 0.950 . S
C600 C609 1.390 1_655 S
C601 C600 1.387 1_554 S
C601 C603 1.387 . S
H602 C609 0.950 . S
C603 C601 1.387 . S
C603 C605 1.390 . S
C603 H607 0.950 . S
H604 C600 0.950 . S
C605 C603 1.390 . S
C605 C606 1.387 1_655 S
C605 H608 0.956 . S
C606 C605 1.387 1_455 S
C606 C609 1.387 1_554 S
H607 C603 0.950 . S
H608 C605 0.956 . S
C609 C600 1.390 1_455 S
C609 H602 0.950 . S
C609 C606 1.387 1_556 S
C610 C611 1.387 1_556 S
C610 H614 0.950 . S
C610 C619 1.390 . S
C611 C610 1.387 1_554 S
C611 C613 1.387 . S
H612 C619 0.950 . S
C613 C611 1.387 . S
C613 C615 1.390 1_564 S
C613 H617 0.950 . S
H614 C610 0.950 . S
C615 C613 1.390 1_546 S
C615 C616 1.387 . S
C615 H618 0.950 1_556 S
C616 C615 1.387 . S
C616 C619 1.387 1_545 S
H617 C613 0.950 . S
H618 C615 0.950 1_554 S
C619 C610 1.390 . S
C619 H612 0.950 . S
C619 C616 1.387 1_565 S
C620 C621 1.387 . S
C620 H624 0.950 . S
C620 C629 1.390 . S
C621 C620 1.387 . S
C621 C623 1.387 1_556 S
H622 C629 0.950 . S
C623 C621 1.387 1_554 S
C623 C625 1.390 1_554 S
C623 H627 0.950 . S
H624 C620 0.950 . S
C625 C623 1.390 1_556 S
C625 C626 1.387 . S
C625 H628 0.950 . S
C626 C625 1.387 . S
C626 C629 1.387 . S
H627 C623 0.950 . S
H628 C625 0.950 . S
C629 C620 1.390 . S
C629 H622 0.950 . S
C629 C626 1.387 . S
C630 C631 1.387 . S
C630 H634 0.950 . S
C630 C639 1.390 . S
C631 C630 1.387 . S
C631 C633 1.387 1_556 S
H632 C639 0.950 . S
C633 C631 1.387 1_554 S
C633 C635 1.390 . S
C633 H637 0.950 . S
H634 C630 0.950 . S
C635 C633 1.390 . S
C635 C636 1.387 . S
C635 H638 0.950 . S
C636 C635 1.387 . S
C636 C639 1.387 1_554 S
H637 C633 0.950 . S
H638 C635 0.950 . S
C639 C630 1.390 . S
C639 H632 0.950 . S
C639 C636 1.387 1_556 S
C640 C641 1.387 . S
C640 H644 0.950 . S
C640 C649 1.390 . S
C641 C640 1.387 . S
C641 C643 1.387 . S
H642 C649 0.950 . S
C643 C641 1.387 . S
C643 C645 1.390 . S
C643 H647 0.950 . S
H644 C640 0.950 . S
C645 C643 1.390 . S
C645 C646 1.387 . S
C645 H648 0.950 . S
C646 C645 1.387 . S
C646 C649 1.387 . S
H647 C643 0.950 . S
H648 C645 0.950 . S
C649 C640 1.390 . S
C649 H642 0.950 . S
C649 C646 1.387 . S
C650 C651 1.387 . S
C650 H654 0.950 . S
C650 C659 1.390 . S
C651 C650 1.387 . S
C651 C653 1.387 . S
H652 C659 0.950 . S
C653 C651 1.387 . S
C653 C655 1.390 . S
C653 H657 0.950 . S
H654 C650 0.950 . S
C655 C653 1.390 . S
C655 C656 1.387 . S
C655 H658 0.950 . S
C656 C655 1.387 . S
C656 C659 1.387 . S
H657 C653 0.950 . S
H658 C655 0.950 . S
C659 C650 1.390 . S
C659 H652 0.950 . S
C659 C656 1.387 . S
C660 C661 1.387 . S
C660 H664 0.950 . S
C660 C669 1.390 . S
C661 C660 1.387 . S
C661 C663 1.387 . S
H662 C669 0.950 . S
C663 C661 1.387 . S
C663 C665 1.390 . S
C663 H667 0.950 . S
H664 C660 0.950 . S
C665 C663 1.390 . S
C665 C666 1.387 . S
C665 H668 0.950 . S
C666 C665 1.387 . S
C666 C669 1.387 . S
H667 C663 0.950 . S
H668 C665 0.950 . S
C669 C660 1.390 . S
C669 H662 0.950 . S
C669 C666 1.387 . S
C670 C671 1.387 . S
C670 H674 0.950 . S
C670 C679 1.390 . S
C671 C670 1.387 . S
C671 C673 1.387 . S
H672 C679 0.950 . S
C673 C671 1.387 . S
C673 C675 1.390 . S
C673 H677 0.950 . S
H674 C670 0.950 . S
C675 C673 1.390 . S
C675 C676 1.387 . S
C675 H678 0.950 . S
C676 C675 1.387 . S
C676 C679 1.387 . S
H677 C673 0.950 . S
H678 C675 0.950 . S
C679 C670 1.390 . S
C679 H672 0.950 . S
C679 C676 1.387 . S
C680 C681 1.387 . S
C680 H684 0.950 . S
C680 C689 1.390 . S
C681 C680 1.387 . S
C681 C683 1.387 . S
H682 C689 0.950 . S
C683 C681 1.387 . S
C683 C685 1.390 . S
C683 H687 0.950 1_655 S
H684 C680 0.950 . S
C685 C683 1.390 . S
C685 C686 1.387 . S
C685 H688 0.950 1_655 S
C686 C685 1.387 . S
C686 C689 1.387 . S
H687 C683 0.950 1_455 S
H688 C685 0.950 1_455 S
C689 C680 1.390 . S
C689 H682 0.950 . S
C689 C686 1.387 . S
C690 C691 1.387 . S
C690 H694 0.945 1_565 S
C690 C699 1.390 . S
C691 C690 1.387 . S
C691 C693 1.387 . S
H692 C699 0.950 1_545 S
C693 C691 1.387 . S
C693 C695 1.390 . S
C693 H697 0.950 . S
H694 C690 0.945 1_545 S
C695 C693 1.390 . S
C695 C696 1.387 . S
C695 H698 0.950 . S
C696 C695 1.387 . S
C696 C699 1.387 . S
H697 C693 0.950 . S
H698 C695 0.950 . S
C699 C690 1.390 . S
C699 H692 0.950 1_565 S
C699 C696 1.387 . S
C700 C701 1.387 . S
C700 H704 0.950 . S
C700 C709 1.390 . S
C701 C700 1.387 . S
C701 C703 1.387 . S
H702 C709 0.950 . S
C703 C701 1.387 . S
C703 C705 1.390 . S
C703 H707 0.950 . S
H704 C700 0.950 . S
C705 C703 1.390 . S
C705 C706 1.387 . S
C705 H708 0.950 . S
C706 C705 1.387 . S
C706 C709 1.387 . S
H707 C703 0.950 . S
H708 C705 0.950 . S
C709 C700 1.390 . S
C709 H702 0.950 . S
C709 C706 1.387 . S
C710 C711 1.387 . S
C710 H714 0.950 . S
C710 C719 1.390 . S
C711 C710 1.387 . S
C711 C713 1.387 . S
H712 C719 0.950 . S
C713 C711 1.387 . S
C713 C715 1.390 . S
C713 H717 0.950 . S
H714 C710 0.950 . S
C715 C713 1.390 . S
C715 C716 1.387 . S
C715 H718 0.950 . S
C716 C715 1.387 . S
C716 C719 1.387 . S
H717 C713 0.950 . S
H718 C715 0.950 . S
C719 C710 1.390 . S
C719 H712 0.950 . S
C719 C716 1.387 . S
C481 C255 3.206 . S
C486 C351 3.487 . S
C496 C377 3.096 . S
C491 C295 2.731 . S
C506 C417 2.960 . S
C501 C175 2.620 . S
C516 C471 3.344 . S
C511 C215 3.093 . S
C526 C332 3.488 . S
C521 C95 3.202 . S
C531 C135 2.736 . S
C536 C362 3.095 . S
C541 C15 2.615 . S
C546 C402 2.960 . S
C551 C55 3.087 . S
C556 C452 3.343 . S
C566 C328 0.888 1_455 S
C561 C221 0.906 . S
C576 C389 0.992 . S
C571 C261 1.042 . S
C586 C429 0.566 . S
C581 C301 0.522 . S
C591 C181 0.794 . S
C596 C448 0.792 . S
C601 C61 0.814 . S
C606 C349 0.889 . S
C616 C368 0.987 . S
C611 C101 0.931 . S
C626 C408 0.558 . S
C621 C141 0.570 1_556 S
C631 C21 0.757 1_556 S
C636 C469 0.783 1_554 S
C641 C202 3.277 . S
C646 C322 3.704 . S
C651 C242 3.749 . S
C656 C372 4.131 . S
C666 C412 3.855 . S
C661 C282 3.446 . S
C676 C442 3.398 . S
C671 C162 2.998 . S
C681 C42 3.227 . S
C686 C337 3.703 . S
C696 C391 4.131 . S
C691 C82 3.717 . S
C706 C431 3.856 . S
C701 C122 3.516 . S
C711 C2 2.957 . S
C716 C457 3.397 . S
