# Generated by pormake.
# Topology ctn, (3,4)-cn, num edge types: 1
# Building blocks:
#     Node 0, Type 0, BuildingBlock: WUSLED_clean_sbu_0, # of connection points: 3
#     Node 1, Type 0, BuildingBlock: WUSLED_clean_sbu_0, # of connection points: 3
#     Node 2, Type 0, BuildingBlock: WUSLED_clean_sbu_0, # of connection points: 3
#     Node 3, Type 0, BuildingBlock: WUSLED_clean_sbu_0, # of connection points: 3
#     Node 4, Type 0, BuildingBlock: WUSLED_clean_sbu_0, # of connection points: 3
#     Node 5, Type 0, BuildingBlock: WUSLED_clean_sbu_0, # of connection points: 3
#     Node 6, Type 0, BuildingBlock: WUSLED_clean_sbu_0, # of connection points: 3
#     Node 7, Type 0, BuildingBlock: WUSLED_clean_sbu_0, # of connection points: 3
#     Node 8, Type 0, BuildingBlock: WUSLED_clean_sbu_0, # of connection points: 3
#     Node 9, Type 0, BuildingBlock: WUSLED_clean_sbu_0, # of connection points: 3
#     Node 10, Type 0, BuildingBlock: WUSLED_clean_sbu_0, # of connection points: 3
#     Node 11, Type 0, BuildingBlock: WUSLED_clean_sbu_0, # of connection points: 3
#     Node 12, Type 0, BuildingBlock: WUSLED_clean_sbu_0, # of connection points: 3
#     Node 13, Type 0, BuildingBlock: WUSLED_clean_sbu_0, # of connection points: 3
#     Node 14, Type 0, BuildingBlock: WUSLED_clean_sbu_0, # of connection points: 3
#     Node 15, Type 0, BuildingBlock: WUSLED_clean_sbu_0, # of connection points: 3
#     Node 16, Type 1, BuildingBlock: TATPOV_clean_sbu_0, # of connection points: 4
#     Node 17, Type 1, BuildingBlock: TATPOV_clean_sbu_0, # of connection points: 4
#     Node 18, Type 1, BuildingBlock: TATPOV_clean_sbu_0, # of connection points: 4
#     Node 19, Type 1, BuildingBlock: TATPOV_clean_sbu_0, # of connection points: 4
#     Node 20, Type 1, BuildingBlock: TATPOV_clean_sbu_0, # of connection points: 4
#     Node 21, Type 1, BuildingBlock: TATPOV_clean_sbu_0, # of connection points: 4
#     Node 22, Type 1, BuildingBlock: TATPOV_clean_sbu_0, # of connection points: 4
#     Node 23, Type 1, BuildingBlock: TATPOV_clean_sbu_0, # of connection points: 4
#     Node 24, Type 1, BuildingBlock: TATPOV_clean_sbu_0, # of connection points: 4
#     Node 25, Type 1, BuildingBlock: TATPOV_clean_sbu_0, # of connection points: 4
#     Node 26, Type 1, BuildingBlock: TATPOV_clean_sbu_0, # of connection points: 4
#     Node 27, Type 1, BuildingBlock: TATPOV_clean_sbu_0, # of connection points: 4
#     Edge 28, Type (0, 1), BuildingBlock: MIFKUJ_clean_linker_0, # of connection points: 2
#     Edge 29, Type (0, 1), BuildingBlock: MIFKUJ_clean_linker_0, # of connection points: 2
#     Edge 30, Type (0, 1), BuildingBlock: MIFKUJ_clean_linker_0, # of connection points: 2
#     Edge 31, Type (0, 1), BuildingBlock: MIFKUJ_clean_linker_0, # of connection points: 2
#     Edge 32, Type (0, 1), BuildingBlock: MIFKUJ_clean_linker_0, # of connection points: 2
#     Edge 33, Type (0, 1), BuildingBlock: MIFKUJ_clean_linker_0, # of connection points: 2
#     Edge 34, Type (0, 1), BuildingBlock: MIFKUJ_clean_linker_0, # of connection points: 2
#     Edge 35, Type (0, 1), BuildingBlock: MIFKUJ_clean_linker_0, # of connection points: 2
#     Edge 36, Type (0, 1), BuildingBlock: MIFKUJ_clean_linker_0, # of connection points: 2
#     Edge 37, Type (0, 1), BuildingBlock: MIFKUJ_clean_linker_0, # of connection points: 2
#     Edge 38, Type (0, 1), BuildingBlock: MIFKUJ_clean_linker_0, # of connection points: 2
#     Edge 39, Type (0, 1), BuildingBlock: MIFKUJ_clean_linker_0, # of connection points: 2
#     Edge 40, Type (0, 1), BuildingBlock: MIFKUJ_clean_linker_0, # of connection points: 2
#     Edge 41, Type (0, 1), BuildingBlock: MIFKUJ_clean_linker_0, # of connection points: 2
#     Edge 42, Type (0, 1), BuildingBlock: MIFKUJ_clean_linker_0, # of connection points: 2
#     Edge 43, Type (0, 1), BuildingBlock: MIFKUJ_clean_linker_0, # of connection points: 2
#     Edge 44, Type (0, 1), BuildingBlock: MIFKUJ_clean_linker_0, # of connection points: 2
#     Edge 45, Type (0, 1), BuildingBlock: MIFKUJ_clean_linker_0, # of connection points: 2
#     Edge 46, Type (0, 1), BuildingBlock: MIFKUJ_clean_linker_0, # of connection points: 2
#     Edge 47, Type (0, 1), BuildingBlock: MIFKUJ_clean_linker_0, # of connection points: 2
#     Edge 48, Type (0, 1), BuildingBlock: MIFKUJ_clean_linker_0, # of connection points: 2
#     Edge 49, Type (0, 1), BuildingBlock: MIFKUJ_clean_linker_0, # of connection points: 2
#     Edge 50, Type (0, 1), BuildingBlock: MIFKUJ_clean_linker_0, # of connection points: 2
#     Edge 51, Type (0, 1), BuildingBlock: MIFKUJ_clean_linker_0, # of connection points: 2
#     Edge 52, Type (0, 1), BuildingBlock: MIFKUJ_clean_linker_0, # of connection points: 2
#     Edge 53, Type (0, 1), BuildingBlock: MIFKUJ_clean_linker_0, # of connection points: 2
#     Edge 54, Type (0, 1), BuildingBlock: MIFKUJ_clean_linker_0, # of connection points: 2
#     Edge 55, Type (0, 1), BuildingBlock: MIFKUJ_clean_linker_0, # of connection points: 2
#     Edge 56, Type (0, 1), BuildingBlock: MIFKUJ_clean_linker_0, # of connection points: 2
#     Edge 57, Type (0, 1), BuildingBlock: MIFKUJ_clean_linker_0, # of connection points: 2
#     Edge 58, Type (0, 1), BuildingBlock: MIFKUJ_clean_linker_0, # of connection points: 2
#     Edge 59, Type (0, 1), BuildingBlock: MIFKUJ_clean_linker_0, # of connection points: 2
#     Edge 60, Type (0, 1), BuildingBlock: MIFKUJ_clean_linker_0, # of connection points: 2
#     Edge 61, Type (0, 1), BuildingBlock: MIFKUJ_clean_linker_0, # of connection points: 2
#     Edge 62, Type (0, 1), BuildingBlock: MIFKUJ_clean_linker_0, # of connection points: 2
#     Edge 63, Type (0, 1), BuildingBlock: MIFKUJ_clean_linker_0, # of connection points: 2
#     Edge 64, Type (0, 1), BuildingBlock: MIFKUJ_clean_linker_0, # of connection points: 2
#     Edge 65, Type (0, 1), BuildingBlock: MIFKUJ_clean_linker_0, # of connection points: 2
#     Edge 66, Type (0, 1), BuildingBlock: MIFKUJ_clean_linker_0, # of connection points: 2
#     Edge 67, Type (0, 1), BuildingBlock: MIFKUJ_clean_linker_0, # of connection points: 2
#     Edge 68, Type (0, 1), BuildingBlock: MIFKUJ_clean_linker_0, # of connection points: 2
#     Edge 69, Type (0, 1), BuildingBlock: MIFKUJ_clean_linker_0, # of connection points: 2
#     Edge 70, Type (0, 1), BuildingBlock: MIFKUJ_clean_linker_0, # of connection points: 2
#     Edge 71, Type (0, 1), BuildingBlock: MIFKUJ_clean_linker_0, # of connection points: 2
#     Edge 72, Type (0, 1), BuildingBlock: MIFKUJ_clean_linker_0, # of connection points: 2
#     Edge 73, Type (0, 1), BuildingBlock: MIFKUJ_clean_linker_0, # of connection points: 2
#     Edge 74, Type (0, 1), BuildingBlock: MIFKUJ_clean_linker_0, # of connection points: 2
#     Edge 75, Type (0, 1), BuildingBlock: MIFKUJ_clean_linker_0, # of connection points: 2
# Relax obj value: 0.003
# Max RMSD: 0.049
# Mean RMSD: 0.024
data_MOF--net-ctn--node1-WUSLED_clean_sbu_0--node2-TATPOV_clean_sbu_0--edge1-MIFKUJ_clean_linker_0
_symmetry_space_group_name_H-M    P1
_symmetry_Int_Tables_number       1
_symmetry_cell_setting            triclinic
loop_
_symmetry_equiv_pos_as_xyz
'x, y, z'
_cell_length_a     87.887207
_cell_length_b     88.52921
_cell_length_c     88.312065
_cell_angle_alpha  91.494865
_cell_angle_beta   90.844424
_cell_angle_gamma 90.831697
loop_
_atom_site_label
_atom_site_type_symbol
_atom_site_fract_x
_atom_site_fract_y
_atom_site_fract_z
_atom_type_partial_charge
C0 C 0.01567 0.05278 0.07633 0.0
C1 C 0.01548 0.03802 0.0818 0.0
C2 C 0.99698 0.04525 0.1011 0.0
C3 C 0.00625 0.0343 0.0941 0.0
C4 C 0.99751 0.06007 0.09567 0.0
C5 C 0.00671 0.06376 0.08346 0.0
U6 U 0.04806 0.04854 0.04674 0.0
O7 O 0.04687 0.05283 0.02228 0.0
O8 O 0.06217 0.06659 0.03702 0.0
C9 C 0.05644 0.06439 0.0233 0.0
C10 C 0.02458 0.0571 0.06294 0.0
C11 C 0.05231 0.07808 0.01493 0.0
C12 C 0.03412 0.09689 0.00672 0.0
C13 C 0.03763 0.08416 0.01527 0.0
C14 C 0.0599 0.09763 0.99752 0.0
C15 C 0.04522 0.10381 0.9977 0.0
C16 C 0.06337 0.08496 0.00602 0.0
C17 C 0.07638 0.01499 0.04968 0.0
C18 C 0.10016 0.01116 0.03628 0.0
C19 C 0.09067 0.99186 0.05275 0.0
C20 C 0.07805 1.00076 0.05606 0.0
C21 C 0.10202 0.99696 0.04293 0.0
C22 C 0.08748 0.02011 0.03966 0.0
C23 C 0.06322 0.02426 0.05422 0.0
O24 O 0.03853 0.06214 0.06555 0.0
O25 O 0.0234 0.04813 0.05087 0.0
O26 O 0.05128 0.02386 0.04507 0.0
O27 O 0.0663 0.03786 0.05988 0.0
H28 H 0.0223 0.02935 0.07647 0.0
H29 H 0.0061 0.02276 0.09788 0.0
H30 H 0.99082 0.0689 0.1009 0.0
H31 H 0.00671 0.07523 0.07948 0.0
H32 H 0.02274 0.10138 0.00729 0.0
H33 H 0.02889 0.07906 0.02208 0.0
H34 H 0.0687 0.10241 0.99056 0.0
H35 H 0.07474 0.08042 0.0055 0.0
H36 H 0.10869 0.01551 0.02875 0.0
H37 H 0.09149 0.98092 0.05787 0.0
H38 H 0.06961 0.99655 0.06378 0.0
H39 H 0.08644 0.03108 0.03462 0.0
C40 C 0.2745 0.73752 0.18353 0.0
C41 C 0.27786 0.75275 0.18734 0.0
C42 C 0.27272 0.75999 0.16122 0.0
C43 C 0.27694 0.76387 0.1763 0.0
C44 C 0.2695 0.74471 0.1575 0.0
C45 C 0.27036 0.73365 0.16851 0.0
U46 U 0.29083 0.71621 0.21804 0.0
O47 O 0.27846 0.70588 0.23682 0.0
O48 O 0.29175 0.69169 0.22133 0.0
C49 C 0.28238 0.69209 0.2328 0.0
C50 C 0.27448 0.72552 0.19495 0.0
C51 C 0.27024 0.68035 0.23283 0.0
C52 C 0.25174 0.66353 0.21994 0.0
C53 C 0.26248 0.67542 0.21954 0.0
C54 C 0.25619 0.6616 0.24692 0.0
C55 C 0.24858 0.65633 0.23363 0.0
C56 C 0.26688 0.67343 0.24651 0.0
C57 C 0.32818 0.72994 0.23803 0.0
C58 C 0.34239 0.71619 0.25702 0.0
C59 C 0.35029 0.74155 0.25077 0.0
C60 C 0.33821 0.74226 0.24033 0.0
C61 C 0.35267 0.72847 0.25917 0.0
C62 C 0.33026 0.71692 0.24653 0.0
C63 C 0.31592 0.73093 0.22648 0.0
O64 O 0.28506 0.71524 0.19362 0.0
O65 O 0.272 0.72968 0.2091 0.0
O66 O 0.30238 0.73444 0.23149 0.0
O67 O 0.31547 0.7202 0.21591 0.0
H68 H 0.28111 0.75607 0.19884 0.0
H69 H 0.27967 0.77548 0.17956 0.0
H70 H 0.266 0.74129 0.14609 0.0
H71 H 0.26758 0.72202 0.16531 0.0
H72 H 0.24619 0.65974 0.20946 0.0
H73 H 0.26489 0.68058 0.20883 0.0
H74 H 0.25387 0.65657 0.25772 0.0
H75 H 0.2727 0.67707 0.2569 0.0
H76 H 0.34391 0.7059 0.26319 0.0
H77 H 0.35775 0.75134 0.2523 0.0
H78 H 0.33676 0.75244 0.23395 0.0
H79 H 0.32262 0.70727 0.24492 0.0
C80 C 0.96124 0.43219 0.01325 0.0
C81 C 0.96958 0.42098 0.02053 0.0
C82 C 0.9701 0.40578 0.99705 0.0
C83 C 0.97391 0.40786 0.01252 0.0
C84 C 0.96176 0.41708 0.98986 0.0
C85 C 0.95738 0.43011 0.99787 0.0
U86 U 0.96604 0.46285 0.04467 0.0
O87 O 0.96284 0.48745 0.04384 0.0
O88 O 0.94886 0.47389 0.0589 0.0
C89 C 0.95161 0.48733 0.05349 0.0
C90 C 0.95638 0.44608 0.02137 0.0
C91 C 0.93822 0.49636 0.04954 0.0
C92 C 0.91498 0.50049 0.03499 0.0
C93 C 0.92759 0.49154 0.03836 0.0
C94 C 0.92355 0.51911 0.05393 0.0
C95 C 0.91278 0.5144 0.04276 0.0
C96 C 0.9361 0.51018 0.05726 0.0
C97 C 0.99992 0.4608 0.07268 0.0
C98 C 0.00975 0.48125 0.08922 0.0
C99 C 0.01703 0.45544 0.09368 0.0
C100 C 0.00813 0.45048 0.08122 0.0
C101 C 0.01796 0.47088 0.09785 0.0
C102 C 1.00075 0.47624 0.07678 0.0
C103 C 0.99075 0.45514 0.05955 0.0
O104 O 0.95145 0.44441 0.03522 0.0
O105 O 0.9653 0.458 0.02005 0.0
O106 O 0.99096 0.46345 0.04743 0.0
O107 O 0.97711 0.44986 0.0626 0.0
H108 H 0.97277 0.42238 0.03239 0.0
H109 H 0.98043 0.39947 0.01838 0.0
H110 H 0.95843 0.41578 0.97803 0.0
H111 H 0.95092 0.43858 0.99204 0.0
H112 H 0.90686 0.49644 0.02642 0.0
H113 H 0.92902 0.48088 0.03228 0.0
H114 H 0.92243 0.52983 0.05996 0.0
H115 H 0.94421 0.51412 0.06589 0.0
H116 H 0.01009 0.49319 0.09223 0.0
H117 H 0.02334 0.44718 0.09994 0.0
H118 H 0.00768 0.43853 0.07823 0.0
H119 H 0.99443 0.48441 0.07038 0.0
C120 C 0.71533 0.75646 0.18273 0.0
C121 C 0.7199 0.76336 0.16934 0.0
C122 C 0.72247 0.73863 0.1567 0.0
C123 C 0.72342 0.75454 0.15646 0.0
C124 C 0.71821 0.73183 0.17027 0.0
C125 C 0.71466 0.74064 0.18309 0.0
U126 U 0.71825 0.79059 0.21105 0.0
O127 O 0.69985 0.80335 0.22194 0.0
O128 O 0.71596 0.79085 0.23586 0.0
C129 C 0.70353 0.79892 0.23558 0.0
C130 C 0.71064 0.76534 0.19627 0.0
C131 C 0.69083 0.79368 0.24501 0.0
C132 C 0.67273 0.7744 0.25291 0.0
C133 C 0.68474 0.77894 0.24364 0.0
C134 C 0.67279 0.79928 0.26495 0.0
C135 C 0.66654 0.78455 0.26366 0.0
C136 C 0.68476 0.80376 0.25573 0.0
C137 C 0.74903 0.82172 0.20484 0.0
C138 C 0.75687 0.84201 0.22256 0.0
C139 C 0.7667 0.84139 0.19709 0.0
C140 C 0.75821 0.82818 0.19381 0.0
C141 C 0.76623 0.84848 0.21153 0.0
C142 C 0.74833 0.82877 0.21924 0.0
C143 C 0.74072 0.80745 0.20106 0.0
O144 O 0.72032 0.76591 0.20776 0.0
O145 O 0.70411 0.77836 0.19386 0.0
O146 O 0.72653 0.80869 0.19643 0.0
O147 O 0.74269 0.7963 0.21039 0.0
H148 H 0.72054 0.77556 0.16877 0.0
H149 H 0.72654 0.7602 0.14621 0.0
H150 H 0.71764 0.71965 0.17104 0.0
H151 H 0.71123 0.73507 0.1933 0.0
H152 H 0.66814 0.76302 0.25151 0.0
H153 H 0.68926 0.77097 0.2354 0.0
H154 H 0.66855 0.80734 0.27324 0.0
H155 H 0.68933 0.81516 0.25704 0.0
H156 H 0.75606 0.84724 0.23373 0.0
H157 H 0.77392 0.84585 0.18838 0.0
H158 H 0.75896 0.82289 0.18265 0.0
H159 H 0.74128 0.82399 0.22791 0.0
C160 C 0.0168 0.95689 0.43119 0.0
C161 C 0.02356 0.96646 0.42068 0.0
C162 C 1.00028 0.96569 0.40517 0.0
C163 C 0.01538 0.97077 0.40775 0.0
C164 C 0.99362 0.95611 0.41579 0.0
C165 C 1.0018 0.95177 0.42864 0.0
U166 U 0.04919 0.96099 0.46088 0.0
O167 O 0.04886 0.95792 0.4855 0.0
O168 O 0.06315 0.94339 0.47128 0.0
C169 C 0.05788 0.9462 0.48491 0.0
C170 C 0.02512 0.95201 0.44482 0.0
C171 C 0.05339 0.93291 0.49377 0.0
C172 C 0.0346 0.91813 0.50728 0.0
C173 C 0.03823 0.93015 0.49787 0.0
C174 C 0.06113 0.91124 0.50831 0.0
C175 C 0.04603 0.9086 0.51276 0.0
C176 C 0.06475 0.92327 0.49896 0.0
C177 C 0.07836 0.99378 0.45775 0.0
C178 C 0.09515 0.00456 0.47753 0.0
C179 C 0.10004 0.00955 0.4512 0.0
C180 C 0.08729 1.00076 0.44685 0.0
C181 C 0.10412 0.01161 0.46659 0.0
C182 C 0.08241 0.99567 0.47315 0.0
C183 C 0.06476 0.98493 0.4527 0.0
O184 O 0.03883 0.94671 0.44262 0.0
O185 O 0.02438 0.96107 0.45681 0.0
O186 O 0.05284 0.98563 0.46151 0.0
O187 O 0.06726 0.97125 0.44727 0.0
H188 H 0.03512 0.97059 0.42247 0.0
H189 H 0.02081 0.97826 0.3999 0.0
H190 H 0.98212 0.95178 0.41409 0.0
H191 H 0.9964 0.94435 0.43658 0.0
H192 H 0.02287 0.91658 0.51057 0.0
H193 H 0.02923 0.93742 0.49405 0.0
H194 H 0.07021 0.90401 0.51204 0.0
H195 H 0.07652 0.92517 0.49595 0.0
H196 H 0.09807 0.00578 0.48946 0.0
H197 H 0.10655 0.01496 0.44249 0.0
H198 H 0.08434 0.9995 0.43492 0.0
H199 H 0.07572 0.99033 0.48177 0.0
C200 C 0.20884 0.74939 0.81867 0.0
C201 C 0.22309 0.74887 0.82601 0.0
C202 C 0.21485 0.76736 0.84519 0.0
C203 C 0.22607 0.75776 0.83917 0.0
C204 C 0.20056 0.76763 0.83781 0.0
C205 C 0.19762 0.75877 0.82472 0.0
U206 U 0.21557 0.71786 0.78802 0.0
O207 O 0.19832 0.70354 0.77605 0.0
O208 O 0.21243 0.71922 0.7633 0.0
C209 C 0.20093 0.70956 0.76287 0.0
C210 C 0.20535 0.74063 0.80455 0.0
C211 C 0.18741 0.71409 0.75407 0.0
C212 C 0.16457 0.72904 0.75095 0.0
C213 C 0.1773 0.72496 0.75965 0.0
C214 C 0.17197 0.71143 0.73104 0.0
C215 C 0.16178 0.72236 0.73648 0.0
C216 C 0.18463 0.70736 0.73974 0.0
C217 C 0.24948 0.6906 0.79072 0.0
C218 C 0.25197 0.66583 0.77835 0.0
C219 C 0.27414 0.67841 0.78968 0.0
C220 C 0.26514 0.69066 0.79405 0.0
C221 C 0.26767 0.66575 0.78189 0.0
C222 C 0.24298 0.67815 0.78267 0.0
C223 C 0.24019 0.70338 0.79624 0.0
O224 O 0.21487 0.74227 0.79335 0.0
O225 O 0.20076 0.72657 0.80609 0.0
O226 O 0.22648 0.69998 0.801 0.0
O227 O 0.24056 0.71563 0.78816 0.0
H228 H 0.23193 0.74171 0.82152 0.0
H229 H 0.23724 0.75733 0.84445 0.0
H230 H 0.19154 0.77462 0.84221 0.0
H231 H 0.18652 0.75929 0.81925 0.0
H232 H 0.15707 0.73758 0.75545 0.0
H233 H 0.17928 0.73031 0.77069 0.0
H234 H 0.17009 0.70587 0.7201 0.0
H235 H 0.19226 0.69891 0.73526 0.0
H236 H 0.24663 0.65637 0.77221 0.0
H237 H 0.28611 0.67869 0.79278 0.0
H238 H 0.27039 0.70011 0.80028 0.0
H239 H 0.23094 0.67786 0.77988 0.0
C240 C 0.96286 0.57204 0.50069 0.0
C241 C 0.9782 0.5767 0.5004 0.0
C242 C 0.97303 0.59765 0.51801 0.0
C243 C 0.98326 0.58936 0.50905 0.0
C244 C 0.9577 0.59286 0.51826 0.0
C245 C 0.95269 0.58019 0.5097 0.0
U246 U 0.96461 0.5439 0.46683 0.0
O247 O 0.95973 0.51945 0.46571 0.0
O248 O 0.94574 0.53475 0.45241 0.0
C249 C 0.94747 0.52093 0.45718 0.0
C250 C 0.9571 0.55888 0.49164 0.0
C251 C 0.93345 0.51308 0.46216 0.0
C252 C 0.91837 0.5011 0.48158 0.0
C253 C 0.9314 0.50917 0.47733 0.0
C254 C 0.90898 0.50111 0.45568 0.0
C255 C 0.90703 0.49687 0.47079 0.0
C256 C 0.92206 0.50907 0.45142 0.0
C257 C 0.99799 0.54872 0.43876 0.0
C258 C 1.00359 0.53261 0.41686 0.0
C259 C 0.01945 0.55463 0.42277 0.0
C260 C 0.01044 0.558 0.4353 0.0
C261 C 0.01621 0.54186 0.4134 0.0
C262 C 0.99456 0.536 0.42945 0.0
C263 C 0.98901 0.55258 0.45225 0.0
O264 O 0.95156 0.56187 0.47817 0.0
O265 O 0.96557 0.54676 0.49166 0.0
O266 O 0.98931 0.54288 0.46326 0.0
O267 O 0.97541 0.55808 0.44976 0.0
H268 H 0.98623 0.5706 0.49343 0.0
H269 H 0.9951 0.59284 0.50849 0.0
H270 H 0.94956 0.59885 0.52517 0.0
H271 H 0.94082 0.57676 0.5101 0.0
H272 H 0.91715 0.49818 0.49334 0.0
H273 H 0.93992 0.51221 0.4859 0.0
H274 H 0.90057 0.49792 0.44705 0.0
H275 H 0.92338 0.51194 0.43966 0.0
H276 H 1.00083 0.52261 0.40998 0.0
H277 H 0.02887 0.56217 0.42035 0.0
H278 H 0.01323 0.5679 0.44233 0.0
H279 H 0.985 0.52868 0.43197 0.0
C280 C 0.78141 0.78254 0.8345 0.0
C281 C 0.7931 0.77211 0.83648 0.0
C282 C 0.77942 0.76079 0.85736 0.0
C283 C 0.79212 0.76133 0.84781 0.0
C284 C 0.76774 0.77127 0.85523 0.0
C285 C 0.76874 0.78202 0.84393 0.0
U286 U 0.79945 0.80045 0.79963 0.0
O287 O 0.78824 0.81 0.77963 0.0
O288 O 0.80277 0.82445 0.79451 0.0
C289 C 0.79334 0.82376 0.7828 0.0
C290 C 0.78214 0.79403 0.82273 0.0
C291 C 0.78203 0.83587 0.78197 0.0
C292 C 0.76229 0.85138 0.79316 0.0
C293 C 0.77277 0.83965 0.79427 0.0
C294 C 0.77014 0.85557 0.76742 0.0
C295 C 0.76086 0.85954 0.77972 0.0
C296 C 0.7806 0.84388 0.76856 0.0
C297 C 0.83496 0.78273 0.7816 0.0
C298 C 0.85392 0.79473 0.76583 0.0
C299 C 0.85136 0.76746 0.76559 0.0
C300 C 0.83965 0.76857 0.77611 0.0
C301 C 0.85869 0.78051 0.76036 0.0
C302 C 0.84212 0.79584 0.7763 0.0
C303 C 0.82284 0.78343 0.79304 0.0
O304 O 0.79379 0.80351 0.8237 0.0
O305 O 0.77921 0.78915 0.80879 0.0
O306 O 0.80895 0.78043 0.78801 0.0
O307 O 0.82356 0.79483 0.80288 0.0
H308 H 0.80299 0.77234 0.8293 0.0
H309 H 0.8014 0.75356 0.8492 0.0
H310 H 0.75767 0.77106 0.86216 0.0
H311 H 0.75956 0.78993 0.84253 0.0
H312 H 0.75545 0.8542 0.80291 0.0
H313 H 0.7737 0.83358 0.80473 0.0
H314 H 0.76919 0.86137 0.75681 0.0
H315 H 0.7876 0.84108 0.75891 0.0
H316 H 0.85921 0.805 0.76191 0.0
H317 H 0.85485 0.75633 0.76176 0.0
H318 H 0.83433 0.75832 0.78008 0.0
H319 H 0.83864 0.80692 0.78029 0.0
C320 C 0.28341 0.28361 0.33386 0.0
C321 C 0.29556 0.27399 0.33692 0.0
C322 C 0.28109 0.26223 0.35703 0.0
C323 C 0.29442 0.26339 0.34841 0.0
C324 C 0.26893 0.27185 0.35376 0.0
C325 C 0.2701 0.28242 0.34231 0.0
U326 U 0.30137 0.30154 0.29879 0.0
O327 O 0.28997 0.31163 0.27924 0.0
O328 O 0.30495 0.32564 0.29408 0.0
C329 C 0.29527 0.32529 0.28259 0.0
C330 C 0.28435 0.29511 0.3221 0.0
C331 C 0.28403 0.33748 0.2824 0.0
C332 C 0.26056 0.34888 0.29106 0.0
C333 C 0.27126 0.3373 0.29175 0.0
C334 C 0.2754 0.361 0.2718 0.0
C335 C 0.26248 0.36087 0.28103 0.0
C336 C 0.28604 0.34943 0.27248 0.0
C337 C 0.3363 0.28361 0.27964 0.0
C338 C 0.35836 0.29419 0.26697 0.0
C339 C 0.34924 0.26899 0.26007 0.0
C340 C 0.33769 0.27034 0.27074 0.0
C341 C 0.35979 0.28086 0.25811 0.0
C342 C 0.34672 0.29558 0.27759 0.0
C343 C 0.32439 0.28434 0.29136 0.0
O344 O 0.2962 0.30434 0.323 0.0
O345 O 0.28113 0.29039 0.30817 0.0
O346 O 0.31034 0.28158 0.28663 0.0
O347 O 0.32544 0.29549 0.30149 0.0
H348 H 0.30595 0.27474 0.33051 0.0
H349 H 0.30406 0.25628 0.35068 0.0
H350 H 0.2584 0.27112 0.35993 0.0
H351 H 0.26057 0.28971 0.34007 0.0
H352 H 0.25086 0.34849 0.29846 0.0
H353 H 0.26954 0.32818 0.29952 0.0
H354 H 0.27715 0.3699 0.26379 0.0
H355 H 0.2958 0.34973 0.26514 0.0
H356 H 0.36618 0.30361 0.26564 0.0
H357 H 0.35011 0.25849 0.25358 0.0
H358 H 0.32991 0.26089 0.27218 0.0
H359 H 0.34597 0.30598 0.28425 0.0
C360 C 0.45705 0.92774 0.51576 0.0
C361 C 0.47252 0.9243 0.51426 0.0
C362 C 0.46588 0.90118 0.49981 0.0
C363 C 0.47689 0.91119 0.50631 0.0
C364 C 0.4504 0.90449 0.50169 0.0
C365 C 0.44605 0.91765 0.50953 0.0
U366 U 0.46126 0.95919 0.54648 0.0
O367 O 0.4586 0.98382 0.54489 0.0
O368 O 0.44379 0.9709 0.55977 0.0
C369 C 0.4468 0.98408 0.55386 0.0
C370 C 0.45212 0.94192 0.52333 0.0
C371 C 0.43371 0.9933 0.54899 0.0
C372 C 0.40643 0.99738 0.54616 0.0
C373 C 0.4186 0.98786 0.54943 0.0
C374 C 0.42422 0.01784 0.54171 0.0
C375 C 0.40908 0.01254 0.54237 0.0
C376 C 0.43635 0.00836 0.54502 0.0
C377 C 0.49413 0.95704 0.5758 0.0
C378 C 0.50515 0.97747 0.5916 0.0
C379 C 0.50947 0.95144 0.59803 0.0
C380 C 0.50075 0.94656 0.58542 0.0
C381 C 0.51181 0.96695 0.60128 0.0
C382 C 0.49633 0.97256 0.57899 0.0
C383 C 0.48523 0.95139 0.56245 0.0
O384 O 0.44668 0.94063 0.53703 0.0
O385 O 0.46118 0.95376 0.52204 0.0
O386 O 0.48607 0.95941 0.55016 0.0
O387 O 0.47138 0.94647 0.56514 0.0
H388 H 0.48125 0.93183 0.51907 0.0
H389 H 0.4889 0.90889 0.50524 0.0
H390 H 0.44162 0.89713 0.49671 0.0
H391 H 0.43405 0.92007 0.51055 0.0
H392 H 0.39493 0.99288 0.54662 0.0
H393 H 0.41614 0.97633 0.55251 0.0
H394 H 0.4267 0.02949 0.53905 0.0
H395 H 0.44785 0.01293 0.54482 0.0
H396 H 0.50661 0.98949 0.59386 0.0
H397 H 0.51458 0.94304 0.60512 0.0
H398 H 0.49924 0.93454 0.58313 0.0
H399 H 0.49126 0.98087 0.57176 0.0
C400 C 0.21317 0.25865 0.68182 0.0
C401 C 0.22772 0.26052 0.6757 0.0
C402 C 0.22128 0.24241 0.65514 0.0
C403 C 0.23175 0.25245 0.66251 0.0
C404 C 0.20666 0.24078 0.66125 0.0
C405 C 0.20268 0.2488 0.67444 0.0
U406 U 0.21735 0.29073 0.71207 0.0
O407 O 0.19962 0.30315 0.72431 0.0
O408 O 0.21583 0.2895 0.73695 0.0
C409 C 0.20344 0.29762 0.73748 0.0
C410 C 0.20878 0.26653 0.69601 0.0
C411 C 0.19087 0.29164 0.74672 0.0
C412 C 0.16577 0.2799 0.7491 0.0
C413 C 0.17789 0.2846 0.74007 0.0
C414 C 0.1796 0.28881 0.77156 0.0
C415 C 0.16641 0.28206 0.76497 0.0
C416 C 0.19165 0.29356 0.76254 0.0
C417 C 0.24886 0.32142 0.70602 0.0
C418 C 0.2544 0.34392 0.72171 0.0
C419 C 0.26965 0.33847 0.69968 0.0
C420 C 0.26093 0.32537 0.69663 0.0
C421 C 0.26651 0.34798 0.71223 0.0
C422 C 0.24564 0.33076 0.71862 0.0
C423 C 0.23987 0.30759 0.70218 0.0
O424 O 0.21873 0.26628 0.70727 0.0
O425 O 0.20247 0.27979 0.69454 0.0
O426 O 0.22555 0.30948 0.6983 0.0
O427 O 0.24189 0.29599 0.71094 0.0
H428 H 0.23598 0.26814 0.68117 0.0
H429 H 0.24303 0.25414 0.65803 0.0
H430 H 0.19837 0.23303 0.65603 0.0
H431 H 0.19141 0.24717 0.679 0.0
H432 H 0.1559 0.27457 0.74363 0.0
H433 H 0.17702 0.28289 0.7279 0.0
H434 H 0.18046 0.29083 0.78369 0.0
H435 H 0.20152 0.29899 0.76792 0.0
H436 H 0.25155 0.35103 0.73139 0.0
H437 H 0.279 0.34103 0.69227 0.0
H438 H 0.26363 0.31828 0.68688 0.0
H439 H 0.23634 0.32792 0.72599 0.0
C440 C 0.77349 0.23319 0.68157 0.0
C441 C 0.78278 0.24623 0.68264 0.0
C442 C 0.77187 0.25529 0.65894 0.0
C443 C 0.78195 0.25721 0.67144 0.0
C444 C 0.76258 0.24219 0.65804 0.0
C445 C 0.7634 0.2313 0.66921 0.0
U446 U 0.7909 0.21315 0.7162 0.0
O447 O 0.77911 0.20338 0.73561 0.0
O448 O 0.79212 0.18876 0.72028 0.0
C449 C 0.78312 0.18952 0.73202 0.0
C450 C 0.77387 0.22144 0.69316 0.0
C451 C 0.77114 0.17771 0.73285 0.0
C452 C 0.7502 0.16253 0.72185 0.0
C453 C 0.76116 0.17414 0.72066 0.0
C454 C 0.75905 0.15805 0.74741 0.0
C455 C 0.74899 0.15433 0.73528 0.0
C456 C 0.76995 0.16959 0.74619 0.0
C457 C 0.82804 0.22808 0.7355 0.0
C458 C 0.84225 0.21527 0.75518 0.0
C459 C 0.84907 0.24092 0.74891 0.0
C460 C 0.83742 0.24087 0.73795 0.0
C461 C 0.85164 0.22816 0.75773 0.0
C462 C 0.83051 0.21525 0.7442 0.0
C463 C 0.81583 0.2285 0.72385 0.0
O464 O 0.78472 0.21144 0.69191 0.0
O465 O 0.77165 0.22601 0.70722 0.0
O466 O 0.80227 0.23207 0.72875 0.0
O467 O 0.81548 0.21737 0.71369 0.0
H468 H 0.79067 0.24791 0.69209 0.0
H469 H 0.78937 0.26707 0.67245 0.0
H470 H 0.75451 0.24041 0.64876 0.0
H471 H 0.75606 0.22137 0.66821 0.0
H472 H 0.74258 0.16008 0.71233 0.0
H473 H 0.76188 0.18029 0.71024 0.0
H474 H 0.75869 0.15186 0.75782 0.0
H475 H 0.7776 0.1721 0.7557 0.0
H476 H 0.84381 0.20529 0.76183 0.0
H477 H 0.85621 0.25095 0.75033 0.0
H478 H 0.83574 0.25086 0.73132 0.0
H479 H 0.82335 0.20526 0.74252 0.0
C480 C 0.51392 0.54889 0.57512 0.0
C481 C 0.51772 0.53599 0.58321 0.0
C482 C 0.49681 0.5406 0.60075 0.0
C483 C 0.50923 0.53186 0.59588 0.0
C484 C 0.49311 0.55347 0.59249 0.0
C485 C 0.50156 0.55754 0.57987 0.0
U486 U 0.54641 0.54629 0.54555 0.0
O487 O 0.54508 0.55065 0.52111 0.0
O488 O 0.55971 0.56501 0.53597 0.0
C489 C 0.55413 0.5626 0.52222 0.0
C490 C 0.52253 0.55372 0.56174 0.0
C491 C 0.54946 0.57611 0.51381 0.0
C492 C 0.53033 0.59354 0.50466 0.0
C493 C 0.53435 0.58109 0.5134 0.0
C494 C 0.55646 0.59626 0.49683 0.0
C495 C 0.54134 0.60127 0.49619 0.0
C496 C 0.56044 0.58387 0.50552 0.0
C497 C 0.57635 0.51424 0.54814 0.0
C498 C 0.59511 0.50661 0.52945 0.0
C499 C 0.59578 0.49596 0.5544 0.0
C500 C 0.58317 0.50457 0.55848 0.0
C501 C 0.60196 0.4968 0.53982 0.0
C502 C 0.58245 0.51526 0.53358 0.0
C503 C 0.56272 0.52271 0.55287 0.0
O504 O 0.53628 0.55932 0.56437 0.0
O505 O 0.52175 0.54475 0.54965 0.0
O506 O 0.55078 0.52186 0.54373 0.0
O507 O 0.56512 0.53635 0.55873 0.0
H508 H 0.52725 0.52915 0.57975 0.0
H509 H 0.51253 0.52195 0.60199 0.0
H510 H 0.4835 0.56034 0.59564 0.0
H511 H 0.49838 0.56751 0.57377 0.0
H512 H 0.51861 0.59714 0.50461 0.0
H513 H 0.52566 0.57532 0.51972 0.0
H514 H 0.56524 0.60168 0.49032 0.0
H515 H 0.57215 0.58018 0.50559 0.0
H516 H 0.59962 0.50771 0.51818 0.0
H517 H 0.60049 0.4884 0.56263 0.0
H518 H 0.57861 0.50353 0.56975 0.0
H519 H 0.57739 0.52267 0.5254 0.0
C520 C 0.51624 0.45743 0.93028 0.0
C521 C 0.52047 0.47054 0.92266 0.0
C522 C 0.49985 0.46609 0.90411 0.0
C523 C 0.51237 0.47482 0.90967 0.0
C524 C 0.4958 0.45291 0.91179 0.0
C525 C 0.5039 0.44865 0.92471 0.0
U526 U 0.54719 0.46285 0.9613 0.0
O527 O 0.54614 0.45879 0.98573 0.0
O528 O 0.56209 0.44599 0.97167 0.0
C529 C 0.55623 0.44798 0.98517 0.0
C530 C 0.52443 0.4527 0.94403 0.0
C531 C 0.55261 0.43419 0.99356 0.0
C532 C 0.53479 0.41501 1.00213 0.0
C533 C 0.53801 0.42752 0.99321 0.0
C534 C 0.56079 0.41553 0.01161 0.0
C535 C 0.54613 0.40891 0.01155 0.0
C536 C 0.56397 0.428 1.00272 0.0
C537 C 0.57397 0.49768 0.9609 0.0
C538 C 0.59844 0.5005 0.97402 0.0
C539 C 0.58646 0.52234 0.96331 0.0
C540 C 0.57419 0.51322 0.95823 0.0
C541 C 0.59882 0.51608 0.97114 0.0
C542 C 0.5861 0.49139 0.969 0.0
C543 C 0.56121 0.48825 0.95476 0.0
O544 O 0.5386 0.44858 0.94215 0.0
O545 O 0.5226 0.46123 0.95625 0.0
O546 O 0.54896 0.48771 0.9631 0.0
O547 O 0.56481 0.47502 0.94884 0.0
H548 H 0.52998 0.47748 0.9268 0.0
H549 H 0.51574 0.48509 0.90415 0.0
H550 H 0.48642 0.44577 0.90773 0.0
H551 H 0.5005 0.43846 0.93038 0.0
H552 H 0.52343 0.41011 1.00164 0.0
H553 H 0.52907 0.4321 0.98618 0.0
H554 H 0.56975 0.41133 0.01884 0.0
H555 H 0.57529 0.43303 1.00323 0.0
H556 H 0.60768 0.49535 0.98017 0.0
H557 H 0.58646 0.53423 0.96074 0.0
H558 H 0.56495 0.51828 0.95199 0.0
H559 H 0.58611 0.47943 0.97129 0.0
C560 C 0.71056 0.2487 0.32013 0.0
C561 C 0.7209 0.24366 0.33108 0.0
C562 C 0.71661 0.2663 0.34687 0.0
C563 C 0.72393 0.25239 0.34433 0.0
C564 C 0.70642 0.27131 0.33571 0.0
C565 C 0.70344 0.26261 0.32252 0.0
U566 U 0.71556 0.21608 0.29017 0.0
O567 O 0.69743 0.20191 0.27928 0.0
O568 O 0.71156 0.21671 0.26554 0.0
C569 C 0.69962 0.20759 0.26587 0.0
C570 C 0.70651 0.23962 0.30634 0.0
C571 C 0.68582 0.21246 0.25763 0.0
C572 C 0.66921 0.23206 0.24825 0.0
C573 C 0.68202 0.22777 0.2567 0.0
C574 C 0.66364 0.20578 0.24187 0.0
C575 C 0.65989 0.22111 0.24066 0.0
C576 C 0.67647 0.20153 0.25023 0.0
C577 C 0.74883 0.18786 0.29319 0.0
C578 C 0.75861 0.17087 0.27356 0.0
C579 C 0.76598 0.16763 0.29977 0.0
C580 C 0.75706 0.17994 0.30405 0.0
C581 C 0.76692 0.1629 0.28446 0.0
C582 C 0.74961 0.1832 0.27788 0.0
C583 C 0.73993 0.2011 0.29822 0.0
O584 O 0.71576 0.24069 0.29484 0.0
O585 O 0.70162 0.22574 0.30841 0.0
O586 O 0.72629 0.19822 0.30343 0.0
O587 O 0.74036 0.21298 0.28959 0.0
H588 H 0.7265 0.23292 0.32947 0.0
H589 H 0.73175 0.24811 0.35272 0.0
H590 H 0.70078 0.28204 0.33709 0.0
H591 H 0.69544 0.26672 0.31418 0.0
H592 H 0.66657 0.24394 0.24772 0.0
H593 H 0.68899 0.23643 0.26239 0.0
H594 H 0.65685 0.19706 0.23606 0.0
H595 H 0.6792 0.18965 0.25077 0.0
H596 H 0.75893 0.16747 0.2617 0.0
H597 H 0.77239 0.16198 0.30847 0.0
H598 H 0.7567 0.18337 0.3159 0.0
H599 H 0.74332 0.18912 0.26928 0.0
C600 C 0.45956 0.07371 0.99785 0.0
C601 C 0.46859 0.08497 0.99137 0.0
C602 C 0.47036 0.09874 0.01567 0.0
C603 C 0.4739 0.0974 1.00019 0.0
C604 C 0.4615 0.08727 0.02212 0.0
C605 C 0.45615 0.07491 0.01329 0.0
U606 U 0.46022 0.04684 0.96309 0.0
O607 O 0.45602 0.02226 0.96143 0.0
O608 O 0.44122 0.03756 0.94905 0.0
C609 C 0.44366 0.02359 0.95304 0.0
C610 C 0.45343 0.06077 0.98871 0.0
C611 C 0.43018 0.01492 0.95785 0.0
C612 C 0.40909 0.01077 0.97493 0.0
C613 C 0.42184 0.0193 0.97063 0.0
C614 C 0.41293 0.99344 0.95371 0.0
C615 C 0.40452 0.99766 0.96656 0.0
C616 C 0.4256 1.00197 0.94943 0.0
C617 C 0.49231 0.05309 0.93395 0.0
C618 C 0.50073 0.03566 0.91412 0.0
C619 C 0.51073 0.0613 0.91547 0.0
C620 C 0.50177 0.06434 0.92811 0.0
C621 C 0.51046 0.04688 0.90836 0.0
C622 C 0.49173 0.03874 0.9268 0.0
C623 C 0.48382 0.05653 0.94789 0.0
O624 O 0.44722 0.06402 0.97558 0.0
O625 O 0.4621 0.04881 0.98799 0.0
O626 O 0.48478 0.04661 0.95867 0.0
O627 O 0.47004 0.06183 0.94609 0.0
H628 H 0.47146 0.0842 0.97949 0.0
H629 H 0.48084 0.10593 0.99491 0.0
H630 H 0.45841 0.08803 0.03394 0.0
H631 H 0.44919 0.06634 0.01849 0.0
H632 H 0.40298 0.01428 0.98495 0.0
H633 H 0.42522 0.02927 0.9773 0.0
H634 H 0.40963 0.98359 0.94683 0.0
H635 H 0.43185 0.99844 0.93949 0.0
H636 H 0.50008 0.02449 0.90883 0.0
H637 H 0.5182 0.07015 0.91153 0.0
H638 H 0.50244 0.07547 0.93352 0.0
H639 H 0.48448 0.0299 0.93112 0.0
Zn640 Zn 0.2763 0.86077 1.00321 0.0
Zn641 Zn 0.25314 0.87799 0.0076 0.0
O642 O 0.2546 0.86541 0.02783 0.0
O643 O 0.27434 0.8511 0.02314 0.0
O644 O 0.2348 0.89213 0.01031 0.0
O645 O 0.29069 0.87815 1.00056 0.0
O646 O 0.27141 0.89329 0.00418 0.0
C647 C 0.26374 0.85504 0.03185 0.0
C648 C 0.25381 0.85409 0.98083 0.0
O649 O 0.247 0.8647 0.98803 0.0
O650 O 0.26691 0.85017 0.98517 0.0
C651 C 0.22962 0.89653 0.02308 0.0
O652 O 0.2361 0.89172 0.03552 0.0
C653 C 0.28553 0.8914 1.00147 0.0
Zn654 Zn 0.11303 0.47855 0.26244 0.0
Zn655 Zn 0.13027 0.50231 0.25822 0.0
O656 O 0.11724 0.50866 0.27713 0.0
O657 O 0.10184 0.48896 0.27916 0.0
O658 O 0.14453 0.5205 0.25524 0.0
O659 O 0.13081 0.46531 0.26667 0.0
O660 O 0.14565 0.48475 0.26189 0.0
C661 C 0.10613 0.50206 0.28358 0.0
C662 C 0.10779 0.49008 0.23312 0.0
O663 O 0.11751 0.5001 0.23784 0.0
O664 O 0.10431 0.47925 0.24153 0.0
C665 C 0.14129 0.53174 0.24712 0.0
O666 O 0.12796 0.53198 0.24021 0.0
C667 C 0.14404 0.47086 0.26526 0.0
Zn668 Zn 0.76452 0.61115 0.97336 0.0
Zn669 Zn 0.76023 0.62833 0.9977 0.0
O670 O 0.77963 0.61572 1.00328 0.0
O671 O 0.7833 0.60237 0.98233 0.0
O672 O 0.75728 0.64229 0.01635 0.0
O673 O 0.7663 0.62907 0.96004 0.0
O674 O 0.76312 0.64374 0.9802 0.0
C675 C 0.78734 0.60603 0.99575 0.0
C676 C 0.73588 0.60456 0.98673 0.0
O677 O 0.7401 0.61533 0.99583 0.0
O678 O 0.74447 0.60046 0.97605 0.0
C679 C 0.74803 0.63943 0.02692 0.0
O680 O 0.73998 0.6268 0.0261 0.0
C681 C 0.76539 0.64219 0.96597 0.0
Zn682 Zn 0.86507 1.00155 0.27635 0.0
Zn683 Zn 0.88142 0.00668 0.25311 0.0
O684 O 0.86833 0.02662 0.25536 0.0
O685 O 0.85369 0.02071 0.27436 0.0
O686 O 0.8957 0.01022 0.23514 0.0
O687 O 0.8825 1.00095 0.29085 0.0
O688 O 0.89721 1.00326 0.27111 0.0
C689 C 0.85759 0.03002 0.26445 0.0
C690 C 0.85959 0.97865 0.25398 0.0
O691 O 0.86848 0.98715 0.24645 0.0
O692 O 0.85663 0.98214 0.26758 0.0
C693 C 0.89259 0.01815 0.22368 0.0
O694 O 0.87927 0.02466 0.22289 0.0
C695 C 0.89569 1.00151 0.28537 0.0
Zn696 Zn 0.26751 0.1139 0.47388 0.0
Zn697 Zn 0.25996 0.13033 0.49789 0.0
O698 O 0.27918 0.1184 0.50512 0.0
O699 O 0.28616 0.1063 0.4843 0.0
O700 O 0.25416 0.1437 0.51618 0.0
O701 O 0.26935 0.13195 0.46092 0.0
O702 O 0.26353 0.14614 0.48076 0.0
C703 C 0.28837 0.10965 0.49817 0.0
C704 C 0.23799 0.10555 0.48475 0.0
O705 O 0.24087 0.11626 0.4944 0.0
O706 O 0.2477 0.10224 0.47478 0.0
C707 C 0.26365 0.14823 0.52643 0.0
O708 O 0.27792 0.14415 0.52541 0.0
C709 C 0.26713 0.1449 0.4668 0.0
Zn710 Zn 0.36395 0.50248 0.77618 0.0
Zn711 Zn 0.38031 0.50731 0.75297 0.0
O712 O 0.36698 0.52706 0.75539 0.0
O713 O 0.35201 0.52131 0.7742 0.0
O714 O 0.39383 0.51197 0.7347 0.0
O715 O 0.38162 0.50172 0.79046 0.0
O716 O 0.39635 0.50392 0.77073 0.0
C717 C 0.35599 0.53043 0.76417 0.0
C718 C 0.35851 0.47928 0.75406 0.0
O719 O 0.36756 0.48753 0.74644 0.0
O720 O 0.35545 0.48314 0.76754 0.0
C721 C 0.40025 0.50186 0.72657 0.0
O722 O 0.39809 0.48759 0.72978 0.0
C723 C 0.39482 0.50208 0.78497 0.0
Zn724 Zn 0.77735 0.36161 0.50489 0.0
Zn725 Zn 0.75373 0.37823 0.50862 0.0
O726 O 0.7549 0.36507 0.52837 0.0
O727 O 0.77327 0.34924 0.52299 0.0
O728 O 0.73544 0.39208 0.51271 0.0
O729 O 0.79193 0.37919 0.50624 0.0
O730 O 0.7719 0.3938 0.50592 0.0
C731 C 0.76295 0.35367 0.53179 0.0
C732 C 0.75631 0.35673 0.48042 0.0
O733 O 0.74814 0.36549 0.48861 0.0
O734 O 0.76977 0.35393 0.48466 0.0
C735 C 0.72602 0.39643 0.50265 0.0
O736 O 0.72769 0.39174 0.48854 0.0
C737 C 0.78635 0.39226 0.50574 0.0
Zn738 Zn 0.61173 0.97737 0.76482 0.0
Zn739 Zn 0.6281 1.00136 0.75832 0.0
O740 O 0.6158 0.00828 0.77757 0.0
O741 O 0.60336 0.98748 0.78332 0.0
O742 O 0.64146 0.01969 0.75323 0.0
O743 O 0.63001 0.96445 0.76697 0.0
O744 O 0.64418 0.98427 0.76174 0.0
C745 C 0.60672 1.00121 0.78619 0.0
C746 C 0.60376 0.9884 0.73561 0.0
O747 O 0.61428 0.99809 0.73896 0.0
O748 O 0.60044 0.97827 0.74492 0.0
C749 C 0.64646 0.02918 0.76327 0.0
O750 O 0.64282 0.02729 0.77748 0.0
C751 C 0.64302 0.97033 0.76511 0.0
Zn752 Zn 0.00474 0.27516 0.86262 0.0
Zn753 Zn 0.00881 0.25192 0.8785 0.0
O754 O 0.0289 0.25312 0.86538 0.0
O755 O 0.02306 0.27148 0.85012 0.0
O756 O 0.0115 0.23327 0.89176 0.0
O757 O 0.00585 0.28967 0.88018 0.0
O758 O 0.00625 0.26986 0.89465 0.0
C759 C 0.03218 0.26137 0.85413 0.0
C760 C 0.98035 0.2548 0.85727 0.0
O761 O 0.98876 0.2466 0.86559 0.0
O762 O 0.98439 0.26826 0.85479 0.0
C763 C 0.02315 0.2315 0.90028 0.0
O764 O 0.03401 0.24187 0.90042 0.0
C765 C 0.0057 0.28421 0.89326 0.0
Zn766 Zn 0.50605 0.77506 0.36218 0.0
Zn767 Zn 0.51052 0.75111 0.37793 0.0
O768 O 0.53093 0.75394 0.36542 0.0
O769 O 0.52637 0.77452 0.35279 0.0
O770 O 0.51503 0.73281 0.39129 0.0
O771 O 0.50327 0.78852 0.38036 0.0
O772 O 0.50618 0.76841 0.39422 0.0
C773 C 0.53524 0.76394 0.35608 0.0
C774 C 0.48416 0.75205 0.35411 0.0
O775 O 0.49129 0.74485 0.36435 0.0
O776 O 0.48833 0.76535 0.35106 0.0
C777 C 0.50523 0.72278 0.39485 0.0
O778 O 0.49126 0.72371 0.3895 0.0
C779 C 0.50379 0.78257 0.39321 0.0
Zn780 Zn 0.97705 0.76281 0.61296 0.0
Zn781 Zn 1.00202 0.75941 0.62888 0.0
O782 O 0.0072 0.77856 0.61624 0.0
O783 O 0.98566 0.7815 0.60373 0.0
O784 O 0.02066 0.75641 0.64254 0.0
O785 O 0.96378 0.76394 0.63115 0.0
O786 O 0.98475 0.76235 0.64491 0.0
C787 C 0.99918 0.78582 0.60674 0.0
C788 C 0.99079 0.7347 0.60553 0.0
O789 O 1.00047 0.73928 0.61567 0.0
O790 O 0.97962 0.74292 0.60225 0.0
C791 C 0.03405 0.75425 0.63769 0.0
O792 O 0.03632 0.7541 0.62302 0.0
C793 C 0.9703 0.76365 0.644 0.0
Zn794 Zn 0.47968 0.2643 0.11072 0.0
Zn795 Zn 0.50398 0.25919 0.12764 0.0
O796 O 0.5101 0.27848 0.11555 0.0
O797 O 0.48863 0.28393 0.10388 0.0
O798 O 0.52227 0.25467 0.14144 0.0
O799 O 0.46597 0.26398 0.1287 0.0
O800 O 0.48639 0.26222 0.14323 0.0
C801 C 0.50242 0.28711 0.10702 0.0
C802 C 0.49311 0.23612 0.10262 0.0
O803 O 0.50171 0.23956 0.11403 0.0
O804 O 0.48302 0.24522 0.0984 0.0
C805 C 0.53515 0.26148 0.14143 0.0
O806 O 0.53737 0.27239 0.13188 0.0
C807 C 0.47196 0.26346 0.14179 0.0
H808 H 0.20583 0.79652 0.85087 0.0
H809 H 0.21003 0.81207 0.87384 0.0
H810 H 0.2354 0.77611 0.8938 0.0
H811 H 0.23078 0.76026 0.87103 0.0
H812 H 0.21645 0.78791 0.91392 0.0
H813 H 0.25305 0.80784 0.87962 0.0
H814 H 0.26193 0.81882 0.85589 0.0
H815 H 0.23342 0.8572 0.86331 0.0
H816 H 0.22421 0.84634 0.88701 0.0
H817 H 0.26032 0.82586 0.97058 0.0
H818 H 0.25081 0.81254 0.94786 0.0
H819 H 0.22224 0.85023 0.93761 0.0
H820 H 0.23173 0.86376 0.96073 0.0
H821 H 0.23991 0.83917 0.9126 0.0
H822 H 0.20535 0.81971 0.94865 0.0
H823 H 0.19774 0.80854 0.97272 0.0
H824 H 0.22366 0.76899 0.96224 0.0
H825 H 0.23163 0.78001 0.93819 0.0
C826 C 0.21221 0.79184 0.86018 0.0
C827 C 0.21794 0.77707 0.85905 0.0
C828 C 0.21474 0.80083 0.87328 0.0
C829 C 0.22316 0.79536 0.88557 0.0
C830 C 0.22888 0.78063 0.88449 0.0
C831 C 0.22636 0.77161 0.87138 0.0
C832 C 0.22586 0.80489 0.89959 0.0
C833 C 0.2217 0.79906 0.91361 0.0
C834 C 0.23231 0.81965 0.89924 0.0
C835 C 0.2378 0.82619 0.88499 0.0
C836 C 0.24857 0.81855 0.87612 0.0
C837 C 0.25368 0.82477 0.86269 0.0
C838 C 0.2482 0.83868 0.85807 0.0
C839 C 0.23763 0.84642 0.86689 0.0
C840 C 0.23246 0.84024 0.88033 0.0
C841 C 0.25193 0.83134 0.9636 0.0
C842 C 0.24681 0.84592 0.96749 0.0
C843 C 0.24645 0.82366 0.95061 0.0
C844 C 0.23576 0.83033 0.94104 0.0
C845 C 0.23048 0.84485 0.94486 0.0
C846 C 0.23583 0.85253 0.95809 0.0
C847 C 0.23068 0.82209 0.92688 0.0
C848 C 0.23445 0.82811 0.91285 0.0
C849 C 0.22398 0.80746 0.92722 0.0
C850 C 0.21917 0.80074 0.94165 0.0
C851 C 0.20953 0.80868 0.95152 0.0
C852 C 0.20513 0.80236 0.96516 0.0
C853 C 0.21023 0.78807 0.96902 0.0
C854 C 0.21972 0.78006 0.95923 0.0
C855 C 0.22416 0.78633 0.94559 0.0
H856 H 0.20682 0.78321 0.97958 0.0
H857 H 0.25218 0.84347 0.84767 0.0
H858 H 0.04732 0.54423 0.41165 0.0
H859 H 0.06328 0.53907 0.38974 0.0
H860 H 0.02342 0.52616 0.36315 0.0
H861 H 0.00734 0.53142 0.38499 0.0
H862 H 0.04594 0.50627 0.35912 0.0
H863 H 0.04174 0.5606 0.359 0.0
H864 H 0.04394 0.58638 0.37017 0.0
H865 H 0.09193 0.58065 0.37731 0.0
H866 H 0.08997 0.55475 0.36636 0.0
H867 H 0.07569 0.50219 0.28686 0.0
H868 H 0.06133 0.51083 0.30875 0.0
H869 H 0.10302 0.52618 0.33096 0.0
H870 H 0.11743 0.51818 0.30848 0.0
H871 H 0.08094 0.54472 0.33827 0.0
H872 H 0.08582 0.49103 0.33851 0.0
H873 H 0.08428 0.46498 0.32795 0.0
H874 H 0.03597 0.46892 0.32172 0.0
H875 H 0.03725 0.49508 0.33207 0.0
C876 C 0.0419 0.54044 0.4011 0.0
C877 C 0.02599 0.53832 0.4001 0.0
C878 C 0.05107 0.53748 0.38857 0.0
C879 C 0.04456 0.53242 0.3747 0.0
C880 C 0.02872 0.53008 0.37372 0.0
C881 C 0.01954 0.53303 0.38625 0.0
C882 C 0.05425 0.52922 0.36131 0.0
C883 C 0.05343 0.51475 0.35445 0.0
C884 C 0.06449 0.54009 0.35551 0.0
C885 C 0.06568 0.55569 0.362 0.0
C886 C 0.05274 0.5648 0.36305 0.0
C887 C 0.05395 0.57944 0.36933 0.0
C888 C 0.06806 0.58513 0.37448 0.0
C889 C 0.081 0.57622 0.37333 0.0
C890 C 0.07985 0.56156 0.36708 0.0
C891 C 0.08178 0.50764 0.29632 0.0
C892 C 0.09768 0.50941 0.29605 0.0
C893 C 0.07357 0.51247 0.3089 0.0
C894 C 0.0811 0.51869 0.32178 0.0
C895 C 0.09694 0.52126 0.32124 0.0
C896 C 0.10517 0.51673 0.30841 0.0
C897 C 0.07241 0.52184 0.33591 0.0
C898 C 0.07346 0.53624 0.34295 0.0
C899 C 0.06249 0.51085 0.34202 0.0
C900 C 0.06165 0.49505 0.33596 0.0
C901 C 0.07488 0.48637 0.33482 0.0
C902 C 0.07405 0.47158 0.32887 0.0
C903 C 0.06004 0.46531 0.32414 0.0
C904 C 0.04682 0.4738 0.32538 0.0
C905 C 0.04758 0.4886 0.3313 0.0
H906 H 0.05943 0.45387 0.31953 0.0
H907 H 0.06897 0.59647 0.37934 0.0
H908 H 0.78761 0.73096 0.85588 0.0
H909 H 0.78504 0.71205 0.87538 0.0
H910 H 0.76551 0.74539 0.90549 0.0
H911 H 0.76856 0.76452 0.88623 0.0
H912 H 0.78519 0.72819 0.92064 0.0
H913 H 0.74299 0.71906 0.88648 0.0
H914 H 0.73032 0.71431 0.86168 0.0
H915 H 0.75533 0.67334 0.85561 0.0
H916 H 0.7683 0.67795 0.8803 0.0
H917 H 0.7586 0.67207 0.97224 0.0
H918 H 0.76041 0.69332 0.95498 0.0
H919 H 0.77802 0.66346 0.92027 0.0
H920 H 0.77586 0.64232 0.93714 0.0
H921 H 0.75747 0.68015 0.90829 0.0
H922 H 0.80075 0.68995 0.9417 0.0
H923 H 0.81363 0.69471 0.96641 0.0
H924 H 0.78676 0.73427 0.97386 0.0
H925 H 0.77359 0.72963 0.94926 0.0
C926 C 0.78294 0.73435 0.8667 0.0
C927 C 0.77822 0.74929 0.8694 0.0
C928 C 0.78133 0.72346 0.87781 0.0
C929 C 0.77485 0.72721 0.89186 0.0
C930 C 0.77046 0.74218 0.89473 0.0
C931 C 0.77208 0.75308 0.88363 0.0
C932 C 0.77254 0.71546 0.90344 0.0
C933 C 0.77895 0.71777 0.91801 0.0
C934 C 0.76455 0.70176 0.90001 0.0
C935 C 0.75671 0.69892 0.88519 0.0
C936 C 0.74587 0.70909 0.87981 0.0
C937 C 0.73862 0.70642 0.86578 0.0
C938 C 0.74204 0.69355 0.85706 0.0
C939 C 0.7527 0.68331 0.86237 0.0
C940 C 0.75999 0.68594 0.87639 0.0
C941 C 0.76292 0.67008 0.96095 0.0
C942 C 0.76702 0.65546 0.95609 0.0
C943 C 0.764 0.68225 0.95109 0.0
C944 C 0.76944 0.68006 0.93628 0.0
C945 C 0.7737 0.66549 0.93156 0.0
C946 C 0.77248 0.65337 0.94129 0.0
C947 C 0.77044 0.69269 0.92542 0.0
C948 C 0.76369 0.69058 0.91098 0.0
C949 C 0.77814 0.70653 0.92898 0.0
C950 C 0.78607 0.70934 0.94373 0.0
C951 C 0.79751 0.69959 0.94866 0.0
C952 C 0.80488 0.70228 0.96263 0.0
C953 C 0.80098 0.71476 0.97172 0.0
C954 C 0.78974 0.72459 0.96682 0.0
C955 C 0.78233 0.72195 0.95287 0.0
H956 H 0.8067 0.71682 0.98253 0.0
H957 H 0.73642 0.6915 0.8462 0.0
H958 H 0.0099 0.9679 0.37575 0.0
H959 H 0.99472 0.97429 0.35336 0.0
H960 H 0.95538 0.98028 0.38139 0.0
H961 H 0.97042 0.97393 0.40371 0.0
H962 H 0.94819 0.96342 0.3571 0.0
H963 H 0.9758 0.01046 0.36662 0.0
H964 H 0.99886 0.02645 0.37011 0.0
H965 H 0.01362 0.01339 0.32558 0.0
H966 H 0.99072 0.99716 0.32191 0.0
H967 H 0.89566 1.00337 0.31608 0.0
H968 H 0.916 0.99749 0.33377 0.0
H969 H 0.94624 0.98909 0.2966 0.0
H970 H 0.92567 0.99511 0.27852 0.0
H971 H 0.96037 0.00485 0.32229 0.0
H972 H 0.93135 0.95966 0.312 0.0
H973 H 0.90797 0.94413 0.30859 0.0
H974 H 0.8959 0.95375 0.35475 0.0
H975 H 0.9191 0.96953 0.35838 0.0
C976 C 0.99806 0.97076 0.37717 0.0
C977 C 0.99137 0.9703 0.39155 0.0
C978 C 0.98938 0.97441 0.36434 0.0
C979 C 0.97387 0.97782 0.36564 0.0
C980 C 0.96728 0.97759 0.38003 0.0
C981 C 0.9759 0.97391 0.3928 0.0
C982 C 0.96424 0.98114 0.3521 0.0
C983 C 0.95084 0.97255 0.34958 0.0
C984 C 0.96791 0.99269 0.34187 0.0
C985 C 0.98164 1.00246 0.34406 0.0
C986 C 0.98402 0.0109 0.35763 0.0
C987 C 0.99705 0.02002 0.35963 0.0
C988 C 0.00772 0.02089 0.3481 0.0
C989 C 0.00536 0.01268 0.33452 0.0
C990 C 0.99236 1.00353 0.33247 0.0
C991 C 0.90664 1.00039 0.31155 0.0
C992 C 0.90894 0.99953 0.29581 0.0
C993 C 0.91828 0.99702 0.32174 0.0
C994 C 0.93257 0.99257 0.31653 0.0
C995 C 0.93526 0.99241 0.30086 0.0
C996 C 0.92351 0.99585 0.29055 0.0
C997 C 0.94416 0.98742 0.32767 0.0
C998 C 0.95788 0.99559 0.32971 0.0
C999 C 0.94083 0.97547 0.33751 0.0
C1000 C 0.92693 0.96586 0.33543 0.0
C1001 C 0.92366 0.95855 0.3214 0.0
C1002 C 0.91045 0.94969 0.31943 0.0
C1003 C 0.90045 0.94798 0.33144 0.0
C1004 C 0.90366 0.95509 0.34545 0.0
C1005 C 0.91685 0.96398 0.34748 0.0
H1006 H 0.89022 0.94112 0.32989 0.0
H1007 H 0.0178 0.02796 0.34967 0.0
H1008 H 0.24828 0.22824 0.64948 0.0
H1009 H 0.25503 0.21297 0.62718 0.0
H1010 H 0.21088 0.22084 0.6072 0.0
H1011 H 0.20404 0.23612 0.62948 0.0
H1012 H 0.21788 0.19192 0.60379 0.0
H1013 H 0.24348 0.23892 0.59475 0.0
H1014 H 0.26045 0.26073 0.60084 0.0
H1015 H 0.29828 0.23101 0.60575 0.0
H1016 H 0.28149 0.20899 0.59988 0.0
H1017 H 0.23608 0.16195 0.53051 0.0
H1018 H 0.22851 0.17847 0.55167 0.0
H1019 H 0.27256 0.1731 0.5729 0.0
H1020 H 0.28032 0.15696 0.55163 0.0
H1021 H 0.26499 0.20142 0.57508 0.0
H1022 H 0.23923 0.15437 0.58496 0.0
H1023 H 0.22222 0.13253 0.57906 0.0
H1024 H 0.18469 0.16235 0.57268 0.0
H1025 H 0.20152 0.18438 0.57837 0.0
C1026 C 0.24006 0.2269 0.64026 0.0
C1027 C 0.22561 0.23347 0.6413 0.0
C1028 C 0.24394 0.21813 0.6275 0.0
C1029 C 0.23354 0.21584 0.61537 0.0
C1030 C 0.21911 0.22239 0.61638 0.0
C1031 C 0.2152 0.23111 0.62917 0.0
C1032 C 0.2376 0.20641 0.60179 0.0
C1033 C 0.22807 0.19414 0.59738 0.0
C1034 C 0.25105 0.20907 0.59356 0.0
C1035 C 0.26119 0.2223 0.59701 0.0
C1036 C 0.25539 0.23702 0.59723 0.0
C1037 C 0.26498 0.24943 0.60062 0.0
C1038 C 0.28043 0.24725 0.60371 0.0
C1039 C 0.28632 0.23268 0.60337 0.0
C1040 C 0.27677 0.22023 0.6 0.0
C1041 C 0.24415 0.16426 0.5397 0.0
C1042 C 0.25881 0.15808 0.53935 0.0
C1043 C 0.23978 0.17367 0.55185 0.0
C1044 C 0.24988 0.17693 0.56405 0.0
C1045 C 0.26453 0.1708 0.56367 0.0
C1046 C 0.26894 0.16151 0.55148 0.0
C1047 C 0.24534 0.18683 0.57715 0.0
C1048 C 0.25478 0.19921 0.58146 0.0
C1049 C 0.23181 0.18426 0.5853 0.0
C1050 C 0.22167 0.17103 0.58193 0.0
C1051 C 0.22737 0.15627 0.58219 0.0
C1052 C 0.21776 0.14386 0.5789 0.0
C1053 C 0.2024 0.14605 0.57546 0.0
C1054 C 0.1966 0.16067 0.57533 0.0
C1055 C 0.20617 0.17312 0.5786 0.0
H1056 H 0.19497 0.13643 0.57291 0.0
H1057 H 0.28783 0.25687 0.60634 0.0
H1058 H 0.48793 0.5122 0.60967 0.0
H1059 H 0.47218 0.50561 0.63121 0.0
H1060 H 0.4687 0.5528 0.6438 0.0
H1061 H 0.48487 0.55944 0.62264 0.0
H1062 H 0.47266 0.5369 0.66844 0.0
H1063 H 0.43932 0.53298 0.625 0.0
H1064 H 0.43092 0.52406 0.5995 0.0
H1065 H 0.43074 0.4782 0.61419 0.0
H1066 H 0.43935 0.48684 0.63974 0.0
H1067 H 0.40926 0.53023 0.71781 0.0
H1068 H 0.4259 0.53673 0.69685 0.0
H1069 H 0.43057 0.48943 0.68527 0.0
H1070 H 0.41391 0.48286 0.70608 0.0
H1071 H 0.42603 0.50535 0.66019 0.0
H1072 H 0.45918 0.50948 0.70381 0.0
H1073 H 0.46742 0.51859 0.7293 0.0
H1074 H 0.46769 0.56433 0.71425 0.0
H1075 H 0.45925 0.5555 0.68871 0.0
C1076 C 0.48399 0.52119 0.61711 0.0
C1077 C 0.48764 0.53639 0.61426 0.0
C1078 C 0.47481 0.5174 0.62937 0.0
C1079 C 0.46898 0.5287 0.63908 0.0
C1080 C 0.47294 0.54384 0.63649 0.0
C1081 C 0.4821 0.54763 0.62425 0.0
C1082 C 0.45866 0.52482 0.65182 0.0
C1083 C 0.46237 0.53016 0.66658 0.0
C1084 C 0.44533 0.51577 0.64957 0.0
C1085 C 0.44013 0.51055 0.63423 0.0
C1086 C 0.4376 0.52099 0.62276 0.0
C1087 C 0.43279 0.51598 0.6083 0.0
C1088 C 0.43034 0.50057 0.60521 0.0
C1089 C 0.43267 0.49014 0.61659 0.0
C1090 C 0.4375 0.49508 0.63106 0.0
C1091 C 0.41381 0.5212 0.71081 0.0
C1092 C 0.41023 0.50601 0.71372 0.0
C1093 C 0.4234 0.52494 0.69884 0.0
C1094 C 0.42967 0.51358 0.68949 0.0
C1095 C 0.42593 0.49843 0.69227 0.0
C1096 C 0.41641 0.49469 0.70425 0.0
C1097 C 0.44004 0.51742 0.6768 0.0
C1098 C 0.43633 0.51208 0.66205 0.0
C1099 C 0.45334 0.5265 0.67906 0.0
C1100 C 0.45843 0.53184 0.6944 0.0
C1101 C 0.46088 0.52149 0.70597 0.0
C1102 C 0.46561 0.5266 0.72042 0.0
C1103 C 0.46803 0.54204 0.7234 0.0
C1104 C 0.46578 0.55238 0.71193 0.0
C1105 C 0.46103 0.54733 0.69746 0.0
H1106 H 0.4717 0.54597 0.73459 0.0
H1107 H 0.4266 0.49672 0.59402 0.0
H1108 H 0.77264 0.28639 0.66191 0.0
H1109 H 0.77069 0.30488 0.64179 0.0
H1110 H 0.76689 0.26858 0.60837 0.0
H1111 H 0.76924 0.25013 0.62828 0.0
H1112 H 0.78628 0.29008 0.59945 0.0
H1113 H 0.73559 0.28896 0.62054 0.0
H1114 H 0.71712 0.29166 0.64116 0.0
H1115 H 0.73138 0.33786 0.64884 0.0
H1116 H 0.75008 0.33537 0.62838 0.0
H1117 H 0.76111 0.3234 0.53395 0.0
H1118 H 0.76151 0.30857 0.55682 0.0
H1119 H 0.76109 0.34959 0.58428 0.0
H1120 H 0.75989 0.36454 0.56112 0.0
H1121 H 0.74551 0.32822 0.59801 0.0
H1122 H 0.7949 0.33049 0.57662 0.0
H1123 H 0.81402 0.3285 0.55653 0.0
H1124 H 0.80364 0.28117 0.55041 0.0
H1125 H 0.7843 0.28292 0.57032 0.0
C1126 C 0.77153 0.28235 0.65027 0.0
C1127 C 0.77102 0.26672 0.64677 0.0
C1128 C 0.77025 0.29295 0.63877 0.0
C1129 C 0.76844 0.28817 0.62353 0.0
C1130 C 0.7682 0.2726 0.62002 0.0
C1131 C 0.76943 0.26203 0.63147 0.0
C1132 C 0.76701 0.29922 0.61109 0.0
C1133 C 0.77727 0.29831 0.59908 0.0
C1134 C 0.75564 0.31042 0.61084 0.0
C1135 C 0.74433 0.31193 0.62305 0.0
C1136 C 0.73486 0.29966 0.6267 0.0
C1137 C 0.72434 0.30116 0.63835 0.0
C1138 C 0.72311 0.31491 0.64634 0.0
C1139 C 0.73236 0.32721 0.64266 0.0
C1140 C 0.74291 0.32576 0.63104 0.0
C1141 C 0.76079 0.32925 0.54486 0.0
C1142 C 0.76052 0.34511 0.54577 0.0
C1143 C 0.76117 0.32077 0.55796 0.0
C1144 C 0.76187 0.32792 0.57236 0.0
C1145 C 0.76072 0.34378 0.57333 0.0
C1146 C 0.75998 0.35232 0.56012 0.0
C1147 C 0.76451 0.31875 0.58613 0.0
C1148 C 0.75458 0.32006 0.59841 0.0
C1149 C 0.77632 0.30801 0.58677 0.0
C1150 C 0.78808 0.30687 0.5749 0.0
C1151 C 0.79664 0.31968 0.57094 0.0
C1152 C 0.80752 0.31859 0.55958 0.0
C1153 C 0.81002 0.30473 0.55218 0.0
C1154 C 0.80168 0.29191 0.55615 0.0
C1155 C 0.79078 0.29293 0.56748 0.0
H1156 H 0.81845 0.30391 0.54339 0.0
H1157 H 0.71495 0.31605 0.65535 0.0
H1158 H 0.53348 0.98966 0.6033 0.0
H1159 H 0.54949 0.99708 0.62532 0.0
H1160 H 0.52748 0.9629 0.65157 0.0
H1161 H 0.51128 0.95567 0.62979 0.0
H1162 H 0.53091 0.9891 0.66771 0.0
H1163 H 0.56237 0.95722 0.63601 0.0
H1164 H 0.57532 0.95004 0.61237 0.0
H1165 H 0.6004 0.99206 0.61411 0.0
H1166 H 0.58743 0.99958 0.63767 0.0
H1167 H 0.57965 0.97046 0.72678 0.0
H1168 H 0.56483 0.9709 0.70339 0.0
H1169 H 0.59282 0.00755 0.68776 0.0
H1170 H 0.60798 0.00718 0.71142 0.0
H1171 H 0.5871 0.98513 0.66539 0.0
H1172 H 0.55807 0.0154 0.69913 0.0
H1173 H 0.54532 0.02223 0.72297 0.0
H1174 H 0.51567 0.98344 0.71747 0.0
H1175 H 0.52839 0.97624 0.6937 0.0
C1176 C 0.53194 0.98385 0.61382 0.0
C1177 C 0.52116 0.972 0.61475 0.0
C1178 C 0.54118 0.98802 0.62636 0.0
C1179 C 0.5398 0.98045 0.64008 0.0
C1180 C 0.52879 0.96889 0.64112 0.0
C1181 C 0.51962 0.96468 0.62861 0.0
C1182 C 0.54991 0.98426 0.65336 0.0
C1183 C 0.54319 0.98817 0.6672 0.0
C1184 C 0.56598 0.98357 0.65262 0.0
C1185 C 0.5738 0.97904 0.63849 0.0
C1186 C 0.57055 0.96499 0.63128 0.0
C1187 C 0.57791 0.96084 0.61791 0.0
C1188 C 0.58864 0.97061 0.61171 0.0
C1189 C 0.59206 0.98452 0.6189 0.0
C1190 C 0.58471 0.98873 0.63227 0.0
C1191 C 0.58274 0.97866 0.71844 0.0
C1192 C 0.59502 0.98884 0.72107 0.0
C1193 C 0.57417 0.97893 0.70505 0.0
C1194 C 0.57755 0.9894 0.69389 0.0
C1195 C 0.58996 0.99943 0.69626 0.0
C1196 C 0.59858 0.99922 0.70979 0.0
C1197 C 0.56804 0.98952 0.67981 0.0
C1198 C 0.57484 0.98635 0.66583 0.0
C1199 C 0.55202 0.99091 0.6804 0.0
C1200 C 0.54426 0.99523 0.69466 0.0
C1201 C 0.5489 0.00826 0.70305 0.0
C1202 C 0.54167 0.01221 0.71655 0.0
C1203 C 0.52971 1.00326 0.72175 0.0
C1204 C 0.52494 0.99036 0.71343 0.0
C1205 C 0.53214 0.98635 0.69993 0.0
H1206 H 0.52412 0.00634 0.7322 0.0
H1207 H 0.59433 0.96739 0.60136 0.0
H1208 H 0.85969 0.2513 0.77754 0.0
H1209 H 0.88122 0.25272 0.7953 0.0
H1210 H 0.8934 0.20717 0.78259 0.0
H1211 H 0.8718 0.20568 0.76463 0.0
H1212 H 0.89699 0.21291 0.81368 0.0
H1213 H 0.91255 0.23567 0.76775 0.0
H1214 H 0.91035 0.25269 0.74619 0.0
H1215 H 0.91083 0.29118 0.77681 0.0
H1216 H 0.9128 0.27438 0.79858 0.0
H1217 H 0.97282 0.22574 0.84719 0.0
H1218 H 0.95063 0.21807 0.83127 0.0
H1219 H 0.93346 0.2634 0.83504 0.0
H1220 H 0.95554 0.27109 0.85042 0.0
H1221 H 0.93394 0.25492 0.80666 0.0
H1222 H 0.91677 0.23211 0.85272 0.0
H1223 H 0.91867 0.21511 0.87433 0.0
H1224 H 0.92141 0.17682 0.84368 0.0
H1225 H 0.91972 0.19363 0.82188 0.0
C1226 C 0.86694 0.24157 0.77846 0.0
C1227 C 0.8641 0.22845 0.76945 0.0
C1228 C 0.87924 0.24238 0.78869 0.0
C1229 C 0.88911 0.23014 0.79013 0.0
C1230 C 0.88597 0.21677 0.78166 0.0
C1231 C 0.8736 0.21594 0.7714 0.0
C1232 C 0.90305 0.23174 0.79993 0.0
C1233 C 0.9052 0.22196 0.81204 0.0
C1234 C 0.91375 0.24359 0.79788 0.0
C1235 C 0.91271 0.25375 0.7848 0.0
C1236 C 0.91208 0.24776 0.76989 0.0
C1237 C 0.91089 0.25737 0.75763 0.0
C1238 C 0.91042 0.27301 0.76013 0.0
C1239 C 0.91118 0.27907 0.77489 0.0
C1240 C 0.91236 0.26951 0.7872 0.0
C1241 C 0.96413 0.23394 0.84484 0.0
C1242 C 0.966 0.24904 0.84996 0.0
C1243 C 0.95145 0.22956 0.83573 0.0
C1244 C 0.94035 0.24018 0.83182 0.0
C1245 C 0.94189 0.25502 0.83768 0.0
C1246 C 0.95454 0.2594 0.84655 0.0
C1247 C 0.92765 0.23646 0.82084 0.0
C1248 C 0.9258 0.24581 0.80834 0.0
C1249 C 0.91729 0.22423 0.82259 0.0
C1250 C 0.9183 0.21414 0.83568 0.0
C1251 C 0.91791 0.22008 0.85059 0.0
C1252 C 0.91892 0.21048 0.86287 0.0
C1253 C 0.92021 0.1949 0.86038 0.0
C1254 C 0.92044 0.18889 0.8456 0.0
C1255 C 0.91945 0.19845 0.83328 0.0
H1256 H 0.92098 0.18748 0.8699 0.0
H1257 H 0.90949 0.28043 0.75062 0.0
H1258 H 0.4538 0.87235 0.49993 0.0
H1259 H 0.46057 0.85063 0.48371 0.0
H1260 H 0.49508 0.8777 0.46265 0.0
H1261 H 0.48827 0.89945 0.47866 0.0
H1262 H 0.47653 0.86242 0.44191 0.0
H1263 H 0.50481 0.85102 0.48749 0.0
H1264 H 0.5076 0.84622 0.51476 0.0
H1265 H 0.47655 0.80843 0.51009 0.0
H1266 H 0.47341 0.81313 0.48281 0.0
H1267 H 0.51547 0.81069 0.39782 0.0
H1268 H 0.5096 0.82896 0.41792 0.0
H1269 H 0.48081 0.79584 0.43886 0.0
H1270 H 0.48738 0.77713 0.41893 0.0
H1271 H 0.4943 0.81308 0.46022 0.0
H1272 H 0.4659 0.82339 0.4154 0.0
H1273 H 0.46166 0.82787 0.38823 0.0
H1274 H 0.49054 0.8674 0.39154 0.0
H1275 H 0.49512 0.86303 0.41869 0.0
C1276 C 0.46285 0.87366 0.49186 0.0
C1277 C 0.47049 0.88766 0.49061 0.0
C1278 C 0.46678 0.8612 0.48268 0.0
C1279 C 0.4784 0.86249 0.47201 0.0
C1280 C 0.48611 0.87641 0.47082 0.0
C1281 C 0.48227 0.88882 0.48007 0.0
C1282 C 0.48211 0.84963 0.46155 0.0
C1283 C 0.4806 0.8517 0.44592 0.0
C1284 C 0.4868 0.8354 0.46677 0.0
C1285 C 0.48875 0.83253 0.48314 0.0
C1286 C 0.49848 0.84176 0.4923 0.0
C1287 C 0.50014 0.83905 0.50776 0.0
C1288 C 0.49223 0.82706 0.51417 0.0
C1289 C 0.48266 0.81773 0.50512 0.0
C1290 C 0.48094 0.82041 0.48966 0.0
C1291 C 0.50808 0.80721 0.40684 0.0
C1292 C 0.50177 0.79254 0.40675 0.0
C1293 C 0.50463 0.81771 0.41829 0.0
C1294 C 0.49434 0.814 0.42968 0.0
C1295 C 0.48866 0.79905 0.43012 0.0
C1296 C 0.49243 0.78836 0.41877 0.0
C1297 C 0.48909 0.82601 0.44052 0.0
C1298 C 0.4902 0.82377 0.4562 0.0
C1299 C 0.48376 0.84007 0.43537 0.0
C1300 C 0.48094 0.84281 0.41906 0.0
C1301 C 0.47142 0.83299 0.41031 0.0
C1302 C 0.46895 0.83551 0.39492 0.0
C1303 C 0.47585 0.8479 0.38816 0.0
C1304 C 0.48521 0.8578 0.39679 0.0
C1305 C 0.48773 0.85532 0.41219 0.0
H1306 H 0.47393 0.84983 0.37623 0.0
H1307 H 0.49353 0.82497 0.52613 0.0
H1308 H 0.1668 0.26879 0.79285 0.0
H1309 H 0.14517 0.26328 0.80909 0.0
H1310 H 0.11447 0.28009 0.77516 0.0
H1311 H 0.13602 0.28593 0.75903 0.0
H1312 H 0.10823 0.29168 0.80283 0.0
H1313 H 0.11773 0.24209 0.78136 0.0
H1314 H 0.1333 0.21982 0.77543 0.0
H1315 H 0.14113 0.21322 0.82289 0.0
H1316 H 0.12576 0.23559 0.82911 0.0
H1317 H 0.03673 0.26861 0.82497 0.0
H1318 H 0.06055 0.26983 0.8114 0.0
H1319 H 0.08439 0.25238 0.85007 0.0
H1320 H 0.06018 0.25084 0.86381 0.0
H1321 H 0.09583 0.24116 0.8228 0.0
H1322 H 0.0854 0.28968 0.8445 0.0
H1323 H 0.0699 0.31192 0.85074 0.0
H1324 H 0.06446 0.32085 0.80342 0.0
H1325 H 0.07974 0.29852 0.79688 0.0
C1326 C 0.15544 0.27133 0.78883 0.0
C1327 C 0.1532 0.27782 0.77458 0.0
C1328 C 0.14306 0.26804 0.7981 0.0
C1329 C 0.12812 0.27117 0.79335 0.0
C1330 C 0.12585 0.27754 0.77909 0.0
C1331 C 0.1382 0.28076 0.7698 0.0
C1332 C 0.11487 0.2684 0.80337 0.0
C1333 C 0.10546 0.28059 0.80705 0.0
C1334 C 0.11152 0.25406 0.80942 0.0
C1335 C 0.12074 0.24061 0.80569 0.0
C1336 C 0.12288 0.23597 0.79053 0.0
C1337 C 0.13165 0.22331 0.78711 0.0
C1338 C 0.13824 0.21514 0.79877 0.0
C1339 C 0.13604 0.21958 0.81387 0.0
C1340 C 0.12729 0.23224 0.81735 0.0
C1341 C 0.04698 0.26485 0.83061 0.0
C1342 C 0.04656 0.2598 0.84558 0.0
C1343 C 0.06064 0.26561 0.82281 0.0
C1344 C 0.07437 0.26158 0.82981 0.0
C1345 C 0.07395 0.25568 0.84446 0.0
C1346 C 0.06013 0.25477 0.8523 0.0
C1347 C 0.08902 0.26437 0.82189 0.0
C1348 C 0.0987 0.25226 0.81867 0.0
C1349 C 0.09273 0.27883 0.81631 0.0
C1350 C 0.08364 0.29236 0.8202 0.0
C1351 C 0.08082 0.29633 0.83542 0.0
C1352 C 0.07208 0.30896 0.83901 0.0
C1353 C 0.06618 0.31778 0.82748 0.0
C1354 C 0.06903 0.314 0.81234 0.0
C1355 C 0.07775 0.30137 0.80868 0.0
H1356 H 0.05941 0.32755 0.83029 0.0
H1357 H 0.14503 0.20534 0.7961 0.0
H1358 H 0.55778 0.62741 0.49148 0.0
H1359 H 0.55171 0.64791 0.47458 0.0
H1360 H 0.50919 0.62568 0.46219 0.0
H1361 H 0.51547 0.60478 0.47866 0.0
H1362 H 0.52226 0.63573 0.43765 0.0
H1363 H 0.51122 0.65765 0.48626 0.0
H1364 H 0.51621 0.66535 0.51292 0.0
H1365 H 0.55337 0.69375 0.49945 0.0
H1366 H 0.54873 0.68606 0.4727 0.0
H1367 H 0.48784 0.69815 0.40207 0.0
H1368 H 0.49416 0.67793 0.41928 0.0
H1369 H 0.53808 0.69877 0.42846 0.0
H1370 H 0.53182 0.71914 0.4112 0.0
H1371 H 0.52446 0.68961 0.45457 0.0
H1372 H 0.53511 0.66757 0.4058 0.0
H1373 H 0.52963 0.65996 0.3792 0.0
H1374 H 0.49248 0.63183 0.39322 0.0
H1375 H 0.49761 0.63944 0.41991 0.0
C1376 C 0.54716 0.62679 0.48512 0.0
C1377 C 0.53715 0.61432 0.48649 0.0
C1378 C 0.54361 0.63866 0.47554 0.0
C1379 C 0.52989 0.63852 0.46715 0.0
C1380 C 0.51983 0.62614 0.46854 0.0
C1381 C 0.52338 0.61423 0.47811 0.0
C1382 C 0.52622 0.65107 0.45668 0.0
C1383 C 0.52252 0.64749 0.44145 0.0
C1384 C 0.5269 0.66651 0.46142 0.0
C1385 C 0.52973 0.67116 0.47749 0.0
C1386 C 0.52054 0.66544 0.48899 0.0
C1387 C 0.52329 0.66982 0.50412 0.0
C1388 C 0.53513 0.68 0.50788 0.0
C1389 C 0.54422 0.68585 0.49652 0.0
C1390 C 0.54153 0.6815 0.48137 0.0
C1391 C 0.49888 0.69846 0.40769 0.0
C1392 C 0.50933 0.71031 0.40517 0.0
C1393 C 0.5025 0.68682 0.41753 0.0
C1394 C 0.51666 0.6867 0.42512 0.0
C1395 C 0.52708 0.69857 0.42274 0.0
C1396 C 0.52351 0.71019 0.4128 0.0
C1397 C 0.52048 0.67423 0.43561 0.0
C1398 C 0.5242 0.67784 0.45081 0.0
C1399 C 0.51975 0.65881 0.43087 0.0
C1400 C 0.51665 0.65419 0.41484 0.0
C1401 C 0.52569 0.65986 0.4032 0.0
C1402 C 0.52267 0.65552 0.38811 0.0
C1403 C 0.51069 0.64545 0.38452 0.0
C1404 C 0.50174 0.63965 0.39602 0.0
C1405 C 0.50471 0.64396 0.41113 0.0
H1406 H 0.50837 0.6421 0.37283 0.0
H1407 H 0.53724 0.68338 0.5196 0.0
H1408 H 0.86002 0.76194 0.73516 0.0
H1409 H 0.88093 0.75919 0.71746 0.0
H1410 H 0.90695 0.79322 0.74279 0.0
H1411 H 0.88591 0.79617 0.76048 0.0
H1412 H 0.9102 0.79752 0.71378 0.0
H1413 H 0.91503 0.75505 0.7451 0.0
H1414 H 0.90685 0.73235 0.75858 0.0
H1415 H 0.89533 0.70991 0.71618 0.0
H1416 H 0.90322 0.73255 0.70245 0.0
H1417 H 0.97779 0.77594 0.67215 0.0
H1418 H 0.96081 0.77904 0.69395 0.0
H1419 H 0.92459 0.75634 0.66853 0.0
H1420 H 0.94121 0.75362 0.64673 0.0
H1421 H 0.92944 0.74662 0.70006 0.0
H1422 H 0.92249 0.79112 0.66962 0.0
H1423 H 0.93154 0.81392 0.65683 0.0
H1424 H 0.94874 0.83243 0.69925 0.0
H1425 H 0.93997 0.80961 0.71224 0.0
C1426 C 0.87022 0.76878 0.73703 0.0
C1427 C 0.87132 0.7792 0.74932 0.0
C1428 C 0.88221 0.76718 0.7269 0.0
C1429 C 0.89569 0.77578 0.72891 0.0
C1430 C 0.89671 0.78641 0.741 0.0
C1431 C 0.88465 0.78811 0.75109 0.0
C1432 C 0.90859 0.77373 0.71828 0.0
C1433 C 0.91458 0.7864 0.71103 0.0
C1434 C 0.91436 0.75924 0.71455 0.0
C1435 C 0.90961 0.74556 0.72275 0.0
C1436 C 0.91064 0.74532 0.73865 0.0
C1437 C 0.90607 0.73245 0.74634 0.0
C1438 C 0.90054 0.71971 0.73824 0.0
C1439 C 0.8996 0.71979 0.72244 0.0
C1440 C 0.90414 0.73264 0.71469 0.0
C1441 C 0.96625 0.77152 0.6713 0.0
C1442 C 0.96081 0.7646 0.65772 0.0
C1443 C 0.95656 0.77333 0.68372 0.0
C1444 C 0.94144 0.76793 0.68282 0.0
C1445 C 0.93621 0.76056 0.66946 0.0
C1446 C 0.94572 0.75907 0.657 0.0
C1447 C 0.93074 0.77034 0.69548 0.0
C1448 C 0.92517 0.75773 0.70306 0.0
C1449 C 0.92552 0.78488 0.69965 0.0
C1450 C 0.93078 0.79858 0.69186 0.0
C1451 C 0.92835 0.79998 0.67619 0.0
C1452 C 0.93339 0.81292 0.66891 0.0
C1453 C 0.94077 0.82459 0.67721 0.0
C1454 C 0.94306 0.82336 0.69282 0.0
C1455 C 0.93806 0.81043 0.70015 0.0
H1456 H 0.94465 0.83461 0.67156 0.0
H1457 H 0.89701 0.70976 0.74422 0.0
H1458 H 0.02094 0.88965 0.51214 0.0
H1459 H 0.01463 0.86974 0.52975 0.0
H1460 H 0.05636 0.87909 0.55473 0.0
H1461 H 0.06267 0.89921 0.53733 0.0
H1462 H 0.05126 0.84862 0.55061 0.0
H1463 H 0.02329 0.89129 0.56869 0.0
H1464 H 0.00582 0.91271 0.56664 0.0
H1465 H 0.96953 0.88229 0.55252 0.0
H1466 H 0.98685 0.8607 0.55428 0.0
H1467 H 0.02695 0.8007 0.61093 0.0
H1468 H 0.03662 0.82237 0.59688 0.0
H1469 H 0.99532 0.82197 0.56984 0.0
H1470 H 0.98554 0.80088 0.58391 0.0
H1471 H 1.00214 0.84958 0.57753 0.0
H1472 H 0.03034 0.80733 0.55701 0.0
H1473 H 0.04767 0.78573 0.5584 0.0
H1474 H 0.08319 0.815 0.57657 0.0
H1475 H 0.066 0.83675 0.57546 0.0
C1476 C 0.02873 0.8876 0.52145 0.0
C1477 C 0.0423 0.89615 0.52329 0.0
C1478 C 0.02513 0.87615 0.53149 0.0
C1479 C 0.03495 0.87299 0.54368 0.0
C1480 C 0.04862 0.88129 0.54541 0.0
C1481 C 0.05223 0.89277 0.53539 0.0
C1482 C 0.03082 0.86114 0.55465 0.0
C1483 C 0.04062 0.84894 0.55669 0.0
C1484 C 0.01688 0.86144 0.56247 0.0
C1485 C 0.00641 0.87439 0.5615 0.0
C1486 C 0.01162 0.88918 0.56505 0.0
C1487 C 1.00174 0.90135 0.56395 0.0
C1488 C 0.98659 0.89886 0.55942 0.0
C1489 C 0.98127 0.88419 0.55602 0.0
C1490 C 0.99111 0.87198 0.55708 0.0
C1491 C 0.01994 0.80529 0.60202 0.0
C1492 C 0.00545 0.79902 0.59861 0.0
C1493 C 0.02551 0.81763 0.59393 0.0
C1494 C 0.01676 0.8238 0.58217 0.0
C1495 C 1.0023 0.81754 0.57887 0.0
C1496 C 0.99672 0.80538 0.58696 0.0
C1497 C 0.02235 0.83676 0.57318 0.0
C1498 C 0.01284 0.84927 0.57156 0.0
C1499 C 0.0365 0.83668 0.56569 0.0
C1500 C 0.04684 0.82362 0.56632 0.0
C1501 C 0.04181 0.80913 0.56141 0.0
C1502 C 0.05161 0.79687 0.56213 0.0
C1503 C 0.06651 0.79898 0.56761 0.0
C1504 C 0.07165 0.81337 0.57235 0.0
C1505 C 0.06188 0.82568 0.57168 0.0
H1506 H 0.07408 0.78947 0.56816 0.0
H1507 H 0.97895 0.9083 0.55858 0.0
H1508 H 0.16059 0.72664 0.70584 0.0
H1509 H 0.13856 0.7328 0.69017 0.0
H1510 H 0.11054 0.73451 0.72983 0.0
H1511 H 0.13251 0.72787 0.74559 0.0
H1512 H 0.09612 0.71934 0.70698 0.0
H1513 H 0.1221 0.76695 0.71279 0.0
H1514 H 0.14396 0.78469 0.71228 0.0
H1515 H 0.14839 0.77615 0.66448 0.0
H1516 H 0.12668 0.75819 0.66474 0.0
H1517 H 0.03327 0.75266 0.66871 0.0
H1518 H 0.05446 0.7481 0.68621 0.0
H1519 H 0.08515 0.74534 0.64862 0.0
H1520 H 0.06408 0.75004 0.63107 0.0
H1521 H 0.09762 0.76193 0.67159 0.0
H1522 H 0.07228 0.71351 0.66612 0.0
H1523 H 0.05047 0.69571 0.66673 0.0
H1524 H 0.0448 0.70594 0.71409 0.0
H1525 H 0.06646 0.72397 0.71371 0.0
C1526 C 0.14974 0.72823 0.71126 0.0
C1527 C 0.14837 0.72672 0.72702 0.0
C1528 C 0.13715 0.73191 0.70228 0.0
C1529 C 0.12287 0.7343 0.7088 0.0
C1530 C 0.12143 0.73278 0.72452 0.0
C1531 C 0.13405 0.72911 0.73354 0.0
C1532 C 0.10945 0.73811 0.69913 0.0
C1533 C 0.09637 0.72881 0.69943 0.0
C1534 C 0.10981 0.75028 0.68903 0.0
C1535 C 0.12284 0.76112 0.68881 0.0
C1536 C 0.12781 0.76876 0.70219 0.0
C1537 C 0.14016 0.77887 0.70194 0.0
C1538 C 0.14758 0.78152 0.68836 0.0
C1539 C 0.14264 0.77408 0.67499 0.0
C1540 C 0.1303 0.76394 0.67518 0.0
C1541 C 0.04453 0.7511 0.66415 0.0
C1542 C 0.04692 0.75168 0.64844 0.0
C1543 C 0.05664 0.74842 0.67419 0.0
C1544 C 0.07142 0.74621 0.66876 0.0
C1545 C 0.07387 0.747 0.65311 0.0
C1546 C 0.06177 0.74964 0.64307 0.0
C1547 C 0.08435 0.74308 0.67932 0.0
C1548 C 0.09735 0.75251 0.6792 0.0
C1549 C 0.0839 0.73105 0.68959 0.0
C1550 C 0.07088 0.72021 0.68985 0.0
C1551 C 0.0663 0.71206 0.67663 0.0
C1552 C 0.05398 0.70191 0.67694 0.0
C1553 C 0.04622 0.69973 0.69043 0.0
C1554 C 0.0508 0.70766 0.70365 0.0
C1555 C 0.0631 0.71784 0.70339 0.0
H1556 H 0.03669 0.69186 0.69065 0.0
H1557 H 0.15714 0.78935 0.6882 0.0
H1558 H 0.95852 0.62463 0.52064 0.0
H1559 H 0.96629 0.64702 0.53566 0.0
H1560 H 0.0069 0.62452 0.55035 0.0
H1561 H 0.99901 0.60183 0.53546 0.0
H1562 H 0.99272 0.63949 0.57404 0.0
H1563 H 0.01022 0.65146 0.52508 0.0
H1564 H 0.00877 0.65395 0.49736 0.0
H1565 H 0.97284 0.68598 0.50222 0.0
H1566 H 0.97391 0.68352 0.52996 0.0
H1567 H 0.01316 0.7131 0.60828 0.0
H1568 H 0.01498 0.68909 0.59371 0.0
H1569 H 0.97345 0.69917 0.56963 0.0
H1570 H 0.97162 0.72285 0.58379 0.0
H1571 H 0.99469 0.68969 0.55041 0.0
H1572 H 0.97451 0.67407 0.59883 0.0
H1573 H 0.97558 0.67128 0.62654 0.0
H1574 H 0.01683 0.64617 0.62255 0.0
H1575 H 0.01608 0.64897 0.59481 0.0
C1576 C 0.96908 0.62438 0.52711 0.0
C1577 C 0.97813 0.61141 0.52687 0.0
C1578 C 0.97357 0.63725 0.5356 0.0
C1579 C 0.98726 0.63752 0.54403 0.0
C1580 C 0.99633 0.62459 0.5439 0.0
C1581 C 0.99186 0.61168 0.5353 0.0
C1582 C 0.99179 0.65134 0.55305 0.0
C1583 C 0.99349 0.65044 0.56885 0.0
C1584 C 0.99274 0.66565 0.54631 0.0
C1585 C 0.9921 0.66724 0.52962 0.0
C1586 C 1.00194 0.65896 0.52024 0.0
C1587 C 1.00119 0.66038 0.50451 0.0
C1588 C 0.99071 0.67011 0.49803 0.0
C1589 C 0.98096 0.67846 0.50726 0.0
C1590 C 0.98164 0.67707 0.52299 0.0
C1591 C 0.00444 0.71015 0.59988 0.0
C1592 C 0.99226 0.71996 0.59723 0.0
C1593 C 0.00547 0.69642 0.59159 0.0
C1594 C 0.99434 0.69232 0.58054 0.0
C1595 C 0.98224 0.7021 0.57798 0.0
C1596 C 0.9812 0.71568 0.58619 0.0
C1597 C 0.99494 0.67793 0.57145 0.0
C1598 C 0.99425 0.67871 0.55559 0.0
C1599 C 0.99492 0.66357 0.57815 0.0
C1600 C 0.99535 0.6619 0.59479 0.0
C1601 C 0.98387 0.66806 0.60388 0.0
C1602 C 0.98441 0.66646 0.61958 0.0
C1603 C 0.9963 0.6586 0.62631 0.0
C1604 C 0.00765 0.65229 0.61733 0.0
C1605 C 0.00718 0.65387 0.60162 0.0
H1606 H 0.99669 0.65737 0.63847 0.0
H1607 H 0.99015 0.67119 0.48585 0.0
H1608 H 0.77195 0.87257 0.19327 0.0
H1609 H 0.78821 0.89475 0.19875 0.0
H1610 H 0.79823 0.87817 0.24322 0.0
H1611 H 0.78209 0.8559 0.2378 0.0
H1612 H 0.79216 0.90772 0.24461 0.0
H1613 H 0.82398 0.87559 0.2139 0.0
H1614 H 0.83028 0.86037 0.19112 0.0
H1615 H 0.8259 0.89948 0.16373 0.0
H1616 H 0.81937 0.9149 0.18633 0.0
H1617 H 0.85356 0.95277 0.26842 0.0
H1618 H 0.83849 0.931 0.25934 0.0
H1619 H 0.8333 0.95126 0.21569 0.0
H1620 H 0.84907 0.97304 0.22469 0.0
H1621 H 0.83577 0.92119 0.21228 0.0
H1622 H 0.80495 0.95363 0.2426 0.0
H1623 H 0.79832 0.96917 0.26506 0.0
H1624 H 0.79998 0.93 0.29267 0.0
H1625 H 0.80682 0.91425 0.27041 0.0
C1626 C 0.7777 0.87355 0.20419 0.0
C1627 C 0.77571 0.86235 0.21506 0.0
C1628 C 0.78701 0.88628 0.20731 0.0
C1629 C 0.79465 0.88809 0.22134 0.0
C1630 C 0.79249 0.87706 0.23231 0.0
C1631 C 0.78317 0.86434 0.22921 0.0
C1632 C 0.80473 0.90152 0.22473 0.0
C1633 C 0.8018 0.91054 0.23763 0.0
C1634 C 0.81701 0.90559 0.21534 0.0
C1635 C 0.82103 0.89636 0.20178 0.0
C1636 C 0.82425 0.88092 0.203 0.0
C1637 C 0.82788 0.87226 0.19013 0.0
C1638 C 0.82845 0.87894 0.17598 0.0
C1639 C 0.82543 0.89431 0.17469 0.0
C1640 C 0.82178 0.90302 0.18753 0.0
C1641 C 0.8494 0.95252 0.2568 0.0
C1642 C 0.85238 0.96469 0.24731 0.0
C1643 C 0.84068 0.94009 0.25164 0.0
C1644 C 0.8343 0.93964 0.23697 0.0
C1645 C 0.83795 0.95139 0.22712 0.0
C1646 C 0.84699 0.96381 0.23224 0.0
C1647 C 0.82337 0.92719 0.23235 0.0
C1648 C 0.8261 0.91841 0.21922 0.0
C1649 C 0.81079 0.92337 0.24146 0.0
C1650 C 0.8065 0.93278 0.25485 0.0
C1651 C 0.80398 0.94834 0.25348 0.0
C1652 C 0.80018 0.95719 0.26617 0.0
C1653 C 0.79876 0.95058 0.28029 0.0
C1654 C 0.80109 0.93511 0.28173 0.0
C1655 C 0.80491 0.92621 0.26908 0.0
H1656 H 0.79582 0.95745 0.2901 0.0
H1657 H 0.83126 0.87222 0.16603 0.0
H1658 H 0.77018 0.13622 0.29914 0.0
H1659 H 0.78724 0.11549 0.29314 0.0
H1660 H 0.80269 0.13873 0.25378 0.0
H1661 H 0.78561 0.15968 0.25979 0.0
H1662 H 0.79896 0.10837 0.24769 0.0
H1663 H 0.82481 0.13905 0.28527 0.0
H1664 H 0.82787 0.15364 0.30931 0.0
H1665 H 0.81963 0.11345 0.3343 0.0
H1666 H 0.81629 0.09864 0.3104 0.0
H1667 H 0.86022 0.05327 0.24398 0.0
H1668 H 0.84666 0.07749 0.24457 0.0
H1669 H 0.82348 0.06414 0.28489 0.0
H1670 H 0.83674 0.04036 0.28444 0.0
H1671 H 0.83468 0.09251 0.28807 0.0
H1672 H 0.8058 0.06275 0.25025 0.0
H1673 H 0.80263 0.04824 0.22616 0.0
H1674 H 0.81718 0.08693 0.20154 0.0
H1675 H 0.82062 0.10162 0.22553 0.0
C1676 C 0.77724 0.13701 0.28924 0.0
C1677 C 0.77662 0.14977 0.28008 0.0
C1678 C 0.78699 0.1251 0.28579 0.0
C1679 C 0.7965 0.12562 0.27315 0.0
C1680 C 0.79553 0.13806 0.26363 0.0
C1681 C 0.78572 0.15002 0.26707 0.0
C1682 C 0.80762 0.1133 0.27025 0.0
C1683 C 0.80697 0.10507 0.25641 0.0
C1684 C 0.81809 0.10892 0.28161 0.0
C1685 C 0.8202 0.11775 0.29603 0.0
C1686 C 0.82355 0.13334 0.29589 0.0
C1687 C 0.82534 0.14165 0.30949 0.0
C1688 C 0.82392 0.13448 0.32332 0.0
C1689 C 0.82072 0.11899 0.32357 0.0
C1690 C 0.8189 0.11062 0.31 0.0
C1691 C 0.85222 0.05553 0.25294 0.0
C1692 C 0.84963 0.04479 0.26415 0.0
C1693 C 0.84445 0.06935 0.25325 0.0
C1694 C 0.83401 0.07267 0.2648 0.0
C1695 C 0.83149 0.06195 0.27591 0.0
C1696 C 0.83911 0.04825 0.27558 0.0
C1697 C 0.82564 0.08722 0.26574 0.0
C1698 C 0.82684 0.09593 0.27924 0.0
C1699 C 0.81575 0.09203 0.25406 0.0
C1700 C 0.81366 0.08321 0.23968 0.0
C1701 C 0.80845 0.06812 0.23971 0.0
C1702 C 0.80658 0.05987 0.22608 0.0
C1703 C 0.80975 0.06664 0.21233 0.0
C1704 C 0.81476 0.08169 0.2122 0.0
C1705 C 0.81667 0.08998 0.2258 0.0
H1706 H 0.80829 0.06024 0.20179 0.0
H1707 H 0.82531 0.14094 0.33384 0.0
H1708 H 0.37681 0.00721 0.97711 0.0
H1709 H 0.35468 0.99161 0.98358 0.0
H1710 H 0.37981 0.95135 0.97278 0.0
H1711 H 0.40189 0.9668 0.96639 0.0
H1712 H 0.35229 0.94963 0.96009 0.0
H1713 H 0.37274 0.9632 0.00977 0.0
H1714 H 0.38124 0.98087 0.03033 0.0
H1715 H 0.33672 1.00016 0.03169 0.0
H1716 H 0.328 0.98272 0.01099 0.0
H1717 H 0.31551 0.88996 0.99441 0.0
H1718 H 0.33305 0.91044 0.98891 0.0
H1719 H 0.29776 0.94287 0.99692 0.0
H1720 H 0.27981 0.92215 1.00252 0.0
H1721 H 0.32701 0.95149 0.00997 0.0
H1722 H 0.306 0.93573 0.96193 0.0
H1723 H 0.29776 0.9175 0.94177 0.0
H1724 H 0.34363 0.9021 0.93746 0.0
H1725 H 0.35213 0.92009 0.95776 0.0
C1726 C 0.37769 0.99503 0.97629 0.0
C1727 C 0.39115 0.98829 0.97114 0.0
C1728 C 0.365 0.98611 0.97997 0.0
C1729 C 0.36554 0.97026 0.97871 0.0
C1730 C 0.37903 0.96354 0.97375 0.0
C1731 C 0.39166 0.97242 0.97005 0.0
C1732 C 0.35207 0.96054 0.98217 0.0
C1733 C 0.34685 0.95001 0.97104 0.0
C1734 C 0.34455 0.96132 0.99626 0.0
C1735 C 0.34977 0.97178 0.00871 0.0
C1736 C 0.3648 0.97129 0.01436 0.0
C1737 C 0.36965 0.98125 0.02606 0.0
C1738 C 0.35954 0.99167 0.03228 0.0
C1739 C 0.34455 0.99211 0.02684 0.0
C1740 C 0.33964 0.98219 0.01513 0.0
C1741 C 0.31136 0.90141 0.99508 0.0
C1742 C 0.29613 0.90434 0.99883 0.0
C1743 C 0.32146 0.91315 0.99188 0.0
C1744 C 0.3167 0.92819 0.99231 0.0
C1745 C 0.30166 0.93132 0.99647 0.0
C1746 C 0.29142 0.91948 0.99963 0.0
C1747 C 0.3276 0.94036 0.98803 0.0
C1748 C 0.33232 0.95132 0.99895 0.0
C1749 C 0.33471 0.93999 0.97374 0.0
C1750 C 0.32968 0.9292 0.96144 0.0
C1751 C 0.31432 0.92838 0.95676 0.0
C1752 C 0.3096 0.9181 0.94529 0.0
C1753 C 0.32016 0.90863 0.93836 0.0
C1754 C 0.33547 0.90944 0.94285 0.0
C1755 C 0.34024 0.9197 0.95432 0.0
H1756 H 0.31648 0.90068 0.92948 0.0
H1757 H 0.36332 0.99936 0.04134 0.0
H1758 H 0.2675 0.39134 0.27793 0.0
H1759 H 0.2486 0.41109 0.27502 0.0
H1760 H 0.21253 0.37796 0.2791 0.0
H1761 H 0.23135 0.35807 0.28153 0.0
H1762 H 0.2068 0.39613 0.25609 0.0
H1763 H 0.22223 0.40299 0.30832 0.0
H1764 H 0.24052 0.40714 0.32951 0.0
H1765 H 0.25474 0.44932 0.31095 0.0
H1766 H 0.23667 0.44533 0.28952 0.0
H1767 H 0.14358 0.44084 0.27135 0.0
H1768 H 0.16492 0.42386 0.27363 0.0
H1769 H 0.1962 0.46069 0.26578 0.0
H1770 H 0.17469 0.47801 0.2635 0.0
H1771 H 0.2058 0.44221 0.28927 0.0
H1772 H 0.18907 0.43591 0.23779 0.0
H1773 H 0.17047 0.43171 0.21688 0.0
H1774 H 0.15853 0.38832 0.23423 0.0
H1775 H 0.17691 0.39235 0.25538 0.0
C1776 C 0.25554 0.38822 0.27814 0.0
C1777 C 0.25097 0.37307 0.27996 0.0
C1778 C 0.24474 0.39958 0.27661 0.0
C1779 C 0.22911 0.39607 0.27696 0.0
C1780 C 0.22451 0.38097 0.27882 0.0
C1781 C 0.23531 0.36962 0.28035 0.0
C1782 C 0.21751 0.40804 0.27506 0.0
C1783 C 0.2065 0.40611 0.26347 0.0
C1784 C 0.21737 0.42134 0.28435 0.0
C1785 C 0.22822 0.42378 0.29723 0.0
C1786 C 0.22935 0.41309 0.30869 0.0
C1787 C 0.23966 0.41543 0.32076 0.0
C1788 C 0.24882 0.42847 0.32155 0.0
C1789 C 0.24766 0.43922 0.3103 0.0
C1790 C 0.23738 0.43693 0.2982 0.0
C1791 C 0.15497 0.44544 0.27012 0.0
C1792 C 0.15736 0.46084 0.26715 0.0
C1793 C 0.16719 0.43565 0.27139 0.0
C1794 C 0.18216 0.44093 0.26967 0.0
C1795 C 0.18472 0.45636 0.26708 0.0
C1796 C 0.17242 0.46623 0.26575 0.0
C1797 C 0.19497 0.43013 0.27049 0.0
C1798 C 0.2062 0.43228 0.28184 0.0
C1799 C 0.19532 0.417 0.26099 0.0
C1800 C 0.1843 0.41449 0.24824 0.0
C1801 C 0.1824 0.42552 0.23721 0.0
C1802 C 0.17191 0.42316 0.22531 0.0
C1803 C 0.1633 0.40977 0.22424 0.0
C1804 C 0.1652 0.39869 0.23507 0.0
C1805 C 0.17567 0.401 0.24701 0.0
H1806 H 0.15518 0.40797 0.21502 0.0
H1807 H 0.25679 0.43025 0.33091 0.0
H1808 H 0.13202 0.01217 0.4533 0.0
H1809 H 0.15391 0.02846 0.45982 0.0
H1810 H 0.12907 0.04874 0.49667 0.0
H1811 H 0.1069 0.03263 0.48996 0.0
H1812 H 0.14378 0.07006 0.48042 0.0
H1813 H 0.15712 0.02446 0.50423 0.0
H1814 H 0.16096 0.99706 0.50631 0.0
H1815 H 0.19471 0.99845 0.47169 0.0
H1816 H 0.19092 0.02583 0.46924 0.0
H1817 H 0.21372 0.10887 0.50408 0.0
H1818 H 0.19029 0.09337 0.50438 0.0
H1819 H 0.20627 0.0666 0.4665 0.0
H1820 H 0.22951 0.08178 0.46618 0.0
H1821 H 0.19519 0.04886 0.48797 0.0
H1822 H 0.17926 0.09386 0.46219 0.0
H1823 H 0.1752 0.12123 0.46001 0.0
H1824 H 0.1463 0.12087 0.49878 0.0
H1825 H 0.15035 0.09351 0.50131 0.0
C1826 C 0.13117 0.02012 0.46276 0.0
C1827 C 0.11768 0.0211 0.47109 0.0
C1828 C 0.14376 0.02935 0.46657 0.0
C1829 C 0.14322 0.03974 0.47884 0.0
C1830 C 0.12978 0.04077 0.4872 0.0
C1831 C 0.11716 0.03148 0.48342 0.0
C1832 C 0.15664 0.04968 0.4826 0.0
C1833 C 0.15498 0.06543 0.48238 0.0
C1834 C 0.17129 0.04367 0.48503 0.0
C1835 C 0.17365 0.0272 0.48648 0.0
C1836 C 0.16528 0.01891 0.49698 0.0
C1837 C 0.16747 1.00338 0.49824 0.0
C1838 C 0.17805 0.99601 0.48912 0.0
C1839 C 0.18651 0.00417 0.47874 0.0
C1840 C 0.18436 0.0197 0.47743 0.0
C1841 C 0.21221 0.09969 0.4958 0.0
C1842 C 0.22354 0.0966 0.48509 0.0
C1843 C 0.1988 0.09087 0.49598 0.0
C1844 C 0.19649 0.07882 0.48543 0.0
C1845 C 0.20779 0.07577 0.4748 0.0
C1846 C 0.2211 0.08453 0.47459 0.0
C1847 C 0.18242 0.06922 0.4853 0.0
C1848 C 0.18396 0.0535 0.48624 0.0
C1849 C 0.16769 0.07527 0.48357 0.0
C1850 C 0.16526 0.0917 0.48205 0.0
C1851 C 0.17215 0.09965 0.47033 0.0
C1852 C 0.16983 0.11515 0.46902 0.0
C1853 C 0.16054 0.1228 0.47928 0.0
C1854 C 0.15352 0.11494 0.49086 0.0
C1855 C 0.15582 0.09944 0.49224 0.0
H1856 H 0.15875 0.1348 0.47825 0.0
H1857 H 0.17973 0.98399 0.49011 0.0
H1858 H 0.74002 0.13257 0.71398 0.0
H1859 H 0.72228 0.11132 0.71716 0.0
H1860 H 0.71434 0.12643 0.76314 0.0
H1861 H 0.73186 0.14772 0.76001 0.0
H1862 H 0.71993 0.09669 0.76179 0.0
H1863 H 0.68772 0.13085 0.73466 0.0
H1864 H 0.68077 0.14706 0.71342 0.0
H1865 H 0.68252 0.10887 0.68253 0.0
H1866 H 0.68969 0.09247 0.70357 0.0
H1867 H 0.65651 0.05271 0.78159 0.0
H1868 H 0.67349 0.07357 0.7753 0.0
H1869 H 0.67655 0.05581 0.72952 0.0
H1870 H 0.65918 0.03499 0.73567 0.0
H1871 H 0.67441 0.08571 0.72925 0.0
H1872 H 0.7057 0.05131 0.75573 0.0
H1873 H 0.71318 0.03467 0.77643 0.0
H1874 H 0.71411 0.07258 0.80778 0.0
H1875 H 0.70644 0.08943 0.78729 0.0
C1876 C 0.73432 0.13151 0.72469 0.0
C1877 C 0.73748 0.14186 0.73676 0.0
C1878 C 0.72419 0.11931 0.72651 0.0
C1879 C 0.71691 0.11724 0.7404 0.0
C1880 C 0.71986 0.12769 0.75235 0.0
C1881 C 0.72995 0.13986 0.75055 0.0
C1882 C 0.7066 0.10399 0.74276 0.0
C1883 C 0.70987 0.09441 0.75477 0.0
C1884 C 0.69376 0.10063 0.7333 0.0
C1885 C 0.6894 0.11047 0.72066 0.0
C1886 C 0.68674 0.12594 0.72332 0.0
C1887 C 0.68274 0.13515 0.71132 0.0
C1888 C 0.68125 0.12901 0.69663 0.0
C1889 C 0.68371 0.11362 0.69391 0.0
C1890 C 0.68773 0.10436 0.70587 0.0
C1891 C 0.66076 0.0532 0.77017 0.0
C1892 C 0.65654 0.04207 0.75918 0.0
C1893 C 0.67055 0.06514 0.76659 0.0
C1894 C 0.67658 0.06617 0.752 0.0
C1895 C 0.67213 0.05527 0.74088 0.0
C1896 C 0.66222 0.04333 0.74443 0.0
C1897 C 0.68758 0.07859 0.74848 0.0
C1898 C 0.68449 0.08796 0.73623 0.0
C1899 C 0.70069 0.0817 0.75764 0.0
C1900 C 0.70537 0.07161 0.76999 0.0
C1901 C 0.7074 0.05609 0.76706 0.0
C1902 C 0.71168 0.04662 0.77875 0.0
C1903 C 0.71408 0.05256 0.79342 0.0
C1904 C 0.71223 0.06799 0.79641 0.0
C1905 C 0.70793 0.07751 0.78476 0.0
H1906 H 0.7174 0.04521 0.80246 0.0
H1907 H 0.67815 0.13616 0.68736 0.0
H1908 H 0.40668 0.03364 0.52033 0.0
H1909 H 0.38612 0.05138 0.51618 0.0
H1910 H 0.36168 0.03288 0.5536 0.0
H1911 H 0.38225 0.01501 0.55778 0.0
H1912 H 0.34257 0.03751 0.53096 0.0
H1913 H 0.38028 0.0674 0.55703 0.0
H1914 H 0.4058 0.07821 0.5627 0.0
H1915 H 0.40592 0.09952 0.51958 0.0
H1916 H 0.38049 0.08865 0.51355 0.0
H1917 H 0.28986 0.09917 0.52717 0.0
H1918 H 0.31029 0.0839 0.53814 0.0
H1919 H 0.33653 0.08925 0.49771 0.0
H1920 H 0.31613 0.10403 0.48662 0.0
H1921 H 0.35389 0.09222 0.5259 0.0
H1922 H 0.31702 0.05909 0.49944 0.0
H1923 H 0.29123 0.04851 0.49467 0.0
H1924 H 0.28938 0.03386 0.54059 0.0
H1925 H 0.3151 0.04457 0.54568 0.0
C1926 C 0.39699 0.03339 0.52775 0.0
C1927 C 0.39619 0.02293 0.53945 0.0
C1928 C 0.38522 0.04357 0.52538 0.0
C1929 C 0.37243 0.0437 0.53475 0.0
C1930 C 0.37143 0.03306 0.54624 0.0
C1931 C 0.38319 0.0228 0.54858 0.0
C1932 C 0.36008 0.05483 0.53235 0.0
C1933 C 0.34504 0.0495 0.53017 0.0
C1934 C 0.3632 0.07052 0.53123 0.0
C1935 C 0.37851 0.0771 0.53479 0.0
C1936 C 0.38579 0.07429 0.54871 0.0
C1937 C 0.40024 0.08045 0.552 0.0
C1938 C 0.40749 0.08952 0.5415 0.0
C1939 C 0.4003 0.09248 0.5277 0.0
C1940 C 0.38585 0.08634 0.52434 0.0
C1941 C 0.30014 0.09732 0.5208 0.0
C1942 C 0.30142 0.10274 0.50605 0.0
C1943 C 0.31174 0.08855 0.52702 0.0
C1944 C 0.32489 0.08539 0.51869 0.0
C1945 C 0.32651 0.09156 0.50433 0.0
C1946 C 0.31483 0.09998 0.49801 0.0
C1947 C 0.33658 0.07481 0.52426 0.0
C1948 C 0.35146 0.08025 0.52699 0.0
C1949 C 0.33329 0.05928 0.52607 0.0
C1950 C 0.31788 0.0528 0.523 0.0
C1951 C 0.31105 0.05374 0.50856 0.0
C1952 C 0.29646 0.0477 0.50579 0.0
C1953 C 0.28865 0.04056 0.51734 0.0
C1954 C 0.29543 0.03942 0.53167 0.0
C1955 C 0.31001 0.04547 0.5345 0.0
H1956 H 0.27736 0.03588 0.51517 0.0
H1957 H 0.41868 0.09428 0.54407 0.0
H1958 H 0.62694 0.48985 0.55731 0.0
H1959 H 0.64791 0.47322 0.55088 0.0
H1960 H 0.62872 0.46579 0.50604 0.0
H1961 H 0.60733 0.48199 0.51261 0.0
H1962 H 0.63768 0.4398 0.51689 0.0
H1963 H 0.66082 0.48873 0.51301 0.0
H1964 H 0.66832 0.51459 0.52142 0.0
H1965 H 0.69396 0.49691 0.55855 0.0
H1966 H 0.68645 0.47093 0.55048 0.0
H1967 H 0.70279 0.40577 0.48428 0.0
H1968 H 0.68217 0.42293 0.49058 0.0
H1969 H 0.69975 0.42796 0.53629 0.0
H1970 H 0.72053 0.41078 0.53004 0.0
H1971 H 0.69175 0.45519 0.52492 0.0
H1972 H 0.66836 0.40617 0.52855 0.0
H1973 H 0.66095 0.38041 0.51973 0.0
H1974 H 0.63585 0.39856 0.48248 0.0
H1975 H 0.64329 0.42444 0.49096 0.0
C1976 C 0.62708 0.48464 0.54609 0.0
C1977 C 0.61532 0.48731 0.53551 0.0
C1978 C 0.63923 0.47522 0.54236 0.0
C1979 C 0.64008 0.4683 0.52789 0.0
C1980 C 0.62841 0.47099 0.51727 0.0
C1981 C 0.61622 0.4804 0.521 0.0
C1982 C 0.65291 0.45799 0.524 0.0
C1983 C 0.6495 0.44329 0.51844 0.0
C1984 C 0.6684 0.46229 0.52633 0.0
C1985 C 0.67294 0.47789 0.53122 0.0
C1986 C 0.66796 0.49036 0.52304 0.0
C1987 C 0.67223 0.50504 0.52773 0.0
C1988 C 0.68158 0.50739 0.54054 0.0
C1989 C 0.68671 0.49507 0.54865 0.0
C1990 C 0.68245 0.48036 0.54401 0.0
C1991 C 0.7023 0.41048 0.4957 0.0
C1992 C 0.71336 0.40681 0.50666 0.0
C1993 C 0.69043 0.42028 0.4993 0.0
C1994 C 0.68925 0.42668 0.51397 0.0
C1995 C 0.70036 0.42317 0.5249 0.0
C1996 C 0.71222 0.41329 0.52132 0.0
C1997 C 0.67649 0.43706 0.51781 0.0
C1998 C 0.67992 0.45175 0.52337 0.0
C1999 C 0.66102 0.43278 0.51542 0.0
C2000 C 0.65651 0.41723 0.51031 0.0
C2001 C 0.66136 0.40466 0.51841 0.0
C2002 C 0.65714 0.39004 0.51348 0.0
C2003 C 0.64797 0.38785 0.50053 0.0
C2004 C 0.64297 0.40028 0.49249 0.0
C2005 C 0.64718 0.41492 0.49736 0.0
H2006 H 0.64471 0.37652 0.49674 0.0
H2007 H 0.68488 0.51876 0.54415 0.0
H2008 H 0.69596 0.28207 0.36389 0.0
H2009 H 0.70074 0.29785 0.38663 0.0
H2010 H 0.74845 0.28733 0.38494 0.0
H2011 H 0.74376 0.27156 0.36213 0.0
H2012 H 0.73853 0.28577 0.4132 0.0
H2013 H 0.73446 0.32176 0.37344 0.0
H2014 H 0.72205 0.3341 0.35191 0.0
H2015 H 0.68446 0.34624 0.38002 0.0
H2016 H 0.69656 0.33379 0.40168 0.0
H2017 H 0.77276 0.34177 0.45916 0.0
H2018 H 0.76369 0.32712 0.43715 0.0
H2019 H 0.71751 0.33931 0.44705 0.0
H2020 H 0.72662 0.35432 0.46939 0.0
H2021 H 0.72389 0.3397 0.41591 0.0
H2022 H 0.7291 0.30518 0.45622 0.0
H2023 H 0.74196 0.29319 0.47769 0.0
H2024 H 0.77767 0.27837 0.44842 0.0
H2025 H 0.76514 0.29047 0.4268 0.0
C2026 C 0.70751 0.2832 0.36825 0.0
C2027 C 0.71949 0.27558 0.36106 0.0
C2028 C 0.71022 0.29224 0.3813 0.0
C2029 C 0.72499 0.29399 0.38744 0.0
C2030 C 0.73694 0.28619 0.38045 0.0
C2031 C 0.73423 0.27712 0.36741 0.0
C2032 C 0.72803 0.30383 0.40119 0.0
C2033 C 0.73545 0.29759 0.4137 0.0
C2034 C 0.7236 0.31917 0.40213 0.0
C2035 C 0.71633 0.32669 0.38913 0.0
C2036 C 0.72349 0.32695 0.375 0.0
C2037 C 0.71652 0.33399 0.36278 0.0
C2038 C 0.70245 0.34091 0.36458 0.0
C2039 C 0.69534 0.34085 0.37863 0.0
C2040 C 0.70225 0.33381 0.39089 0.0
C2041 C 0.76065 0.34147 0.45672 0.0
C2042 C 0.7504 0.34913 0.46622 0.0
C2043 C 0.75547 0.33301 0.44408 0.0
C2044 C 0.73989 0.33182 0.44059 0.0
C2045 C 0.72959 0.33997 0.4496 0.0
C2046 C 0.7348 0.34854 0.46235 0.0
C2047 C 0.73463 0.32168 0.42774 0.0
C2048 C 0.72682 0.32783 0.41543 0.0
C2049 C 0.7387 0.30624 0.42696 0.0
C2050 C 0.74622 0.29882 0.43991 0.0
C2051 C 0.73975 0.29945 0.45438 0.0
C2052 C 0.74698 0.29262 0.46658 0.0
C2053 C 0.76064 0.28504 0.46443 0.0
C2054 C 0.76709 0.28425 0.45007 0.0
C2055 C 0.75992 0.29107 0.43783 0.0
H2056 H 0.76622 0.27977 0.47389 0.0
H2057 H 0.69708 0.34635 0.35511 0.0
H2058 H 0.5176 0.06512 0.88466 0.0
H2059 H 0.53537 0.06011 0.86416 0.0
H2060 H 0.54395 0.01599 0.88172 0.0
H2061 H 0.52662 0.02112 0.90256 0.0
H2062 H 0.56998 0.02939 0.87441 0.0
H2063 H 0.52114 0.0211 0.85003 0.0
H2064 H 0.49516 0.0277 0.84194 0.0
H2065 H 0.51293 0.06504 0.81727 0.0
H2066 H 0.53902 0.05877 0.82539 0.0
H2067 H 0.59733 0.98787 0.81174 0.0
H2068 H 0.58296 0.99893 0.83252 0.0
H2069 H 0.5849 0.04234 0.81153 0.0
H2070 H 0.59963 0.03126 0.79056 0.0
H2071 H 0.55506 0.03291 0.82023 0.0
H2072 H 0.60444 0.03895 0.84261 0.0
H2073 H 0.63022 0.03129 0.85026 0.0
H2074 H 0.61123 0.99723 0.87843 0.0
H2075 H 0.58531 0.00453 0.87077 0.0
C2076 C 0.52332 0.05437 0.88423 0.0
C2077 C 0.52063 0.04352 0.89532 0.0
C2078 C 0.53339 0.05147 0.87239 0.0
C2079 C 0.54095 0.03762 0.87129 0.0
C2080 C 0.53826 0.02676 0.8823 0.0
C2081 C 0.5282 0.02965 0.89414 0.0
C2082 C 0.55181 0.03445 0.85881 0.0
C2083 C 0.56666 0.03005 0.86257 0.0
C2084 C 0.54769 0.03577 0.84332 0.0
C2085 C 0.53201 0.03958 0.83847 0.0
C2086 C 0.5195 0.0308 0.84299 0.0
C2087 C 0.50475 0.03446 0.83838 0.0
C2088 C 0.50239 0.04681 0.82914 0.0
C2089 C 0.51477 0.0555 0.82446 0.0
C2090 C 0.52954 0.05189 0.82905 0.0
C2091 C 0.5949 0.99983 0.8116 0.0
C2092 C 0.59961 0.00869 0.79949 0.0
C2093 C 0.5867 0.00615 0.82353 0.0
C2094 C 0.58287 0.02147 0.82362 0.0
C2095 C 0.58777 0.03049 0.81169 0.0
C2096 C 0.59625 0.02418 0.79979 0.0
C2097 C 0.57308 0.02759 0.83588 0.0
C2098 C 0.55843 0.0325 0.83208 0.0
C2099 C 0.57734 0.02665 0.85134 0.0
C2100 C 0.59292 0.02223 0.85603 0.0
C2101 C 0.60575 0.02974 0.85034 0.0
C2102 C 0.62039 0.02548 0.8547 0.0
C2103 C 0.62236 0.01376 0.86481 0.0
C2104 C 0.60968 0.0063 0.8706 0.0
C2105 C 0.59501 0.01051 0.86627 0.0
H2106 H 0.63371 0.01047 0.86817 0.0
H2107 H 0.49096 0.04963 0.82558 0.0
H2108 H 0.29132 0.23304 0.35713 0.0
H2109 H 0.28854 0.21455 0.37699 0.0
H2110 H 0.26467 0.24718 0.40447 0.0
H2111 H 0.2679 0.26594 0.38488 0.0
H2112 H 0.28413 0.23173 0.42164 0.0
H2113 H 0.2453 0.219 0.38473 0.0
H2114 H 0.23478 0.21289 0.35923 0.0
H2115 H 0.26285 0.17367 0.35612 0.0
H2116 H 0.27369 0.17965 0.38154 0.0
H2117 H 0.25765 0.1742 0.47223 0.0
H2118 H 0.25925 0.19546 0.45491 0.0
H2119 H 0.28215 0.16703 0.42231 0.0
H2120 H 0.28029 0.1459 0.43919 0.0
H2121 H 0.26082 0.18165 0.40856 0.0
H2122 H 0.30081 0.19532 0.44485 0.0
H2123 H 0.31137 0.2015 0.47033 0.0
H2124 H 0.28099 0.23887 0.47467 0.0
H2125 H 0.27012 0.23279 0.44927 0.0
C2126 C 0.28564 0.23638 0.36746 0.0
C2127 C 0.27976 0.251 0.36931 0.0
C2128 C 0.28392 0.22572 0.37877 0.0
C2129 C 0.27617 0.22936 0.39216 0.0
C2130 C 0.27061 0.24405 0.39422 0.0
C2131 C 0.27234 0.25473 0.38292 0.0
C2132 C 0.27373 0.21779 0.40389 0.0
C2133 C 0.27884 0.22085 0.41883 0.0
C2134 C 0.26695 0.20352 0.40026 0.0
C2135 C 0.2604 0.19985 0.38499 0.0
C2136 C 0.24931 0.20913 0.37857 0.0
C2137 C 0.24327 0.20568 0.36413 0.0
C2138 C 0.24817 0.19292 0.35605 0.0
C2139 C 0.25908 0.18356 0.3624 0.0
C2140 C 0.26516 0.18696 0.37682 0.0
C2141 C 0.26311 0.17255 0.46141 0.0
C2142 C 0.26876 0.15831 0.4571 0.0
C2143 C 0.26406 0.18472 0.45152 0.0
C2144 C 0.27086 0.1829 0.43725 0.0
C2145 C 0.27674 0.16875 0.43315 0.0
C2146 C 0.27569 0.15665 0.44289 0.0
C2147 C 0.27161 0.1954 0.42625 0.0
C2148 C 0.26607 0.19254 0.41142 0.0
C2149 C 0.278 0.20982 0.43001 0.0
C2150 C 0.28454 0.21349 0.44525 0.0
C2151 C 0.29631 0.20478 0.45129 0.0
C2152 C 0.30236 0.20828 0.46571 0.0
C2153 C 0.29682 0.22054 0.47413 0.0
C2154 C 0.28525 0.22936 0.46814 0.0
C2155 C 0.27915 0.22589 0.45373 0.0
H2156 H 0.30153 0.22323 0.48529 0.0
H2157 H 0.24348 0.19027 0.34487 0.0
H2158 H 0.51036 0.47783 0.87754 0.0
H2159 H 0.49544 0.48448 0.85505 0.0
H2160 H 0.45419 0.47139 0.87742 0.0
H2161 H 0.46894 0.4648 0.89984 0.0
H2162 H 0.45426 0.45982 0.84947 0.0
H2163 H 0.46488 0.5089 0.87283 0.0
H2164 H 0.4814 0.5296 0.88308 0.0
H2165 H 0.50272 0.53337 0.83987 0.0
H2166 H 0.48644 0.51255 0.82942 0.0
H2167 H 0.39385 0.49543 0.81481 0.0
H2168 H 0.4147 0.48977 0.83192 0.0
H2169 H 0.44687 0.49718 0.79642 0.0
H2170 H 0.42574 0.50282 0.77882 0.0
H2171 H 0.45491 0.51067 0.82712 0.0
H2172 H 0.44149 0.46325 0.80318 0.0
H2173 H 0.42398 0.44316 0.79343 0.0
H2174 H 0.40734 0.43663 0.83829 0.0
H2175 H 0.42459 0.45685 0.84829 0.0
C2176 C 0.49809 0.47652 0.87773 0.0
C2177 C 0.49088 0.47069 0.89051 0.0
C2178 C 0.48957 0.48031 0.86484 0.0
C2179 C 0.47365 0.47848 0.8645 0.0
C2180 C 0.46645 0.4728 0.87731 0.0
C2181 C 0.47493 0.46899 0.89014 0.0
C2182 C 0.46434 0.48215 0.85083 0.0
C2183 C 0.45441 0.47097 0.84465 0.0
C2184 C 0.46481 0.49654 0.84413 0.0
C2185 C 0.47458 0.50905 0.8504 0.0
C2186 C 0.47318 0.51406 0.86555 0.0
C2187 C 0.48248 0.52583 0.87139 0.0
C2188 C 0.49314 0.53276 0.86215 0.0
C2189 C 0.49448 0.52797 0.84703 0.0
C2190 C 0.48522 0.51619 0.84114 0.0
C2191 C 0.40531 0.49597 0.81051 0.0
C2192 C 0.40805 0.49954 0.79532 0.0
C2193 C 0.41726 0.49269 0.82038 0.0
C2194 C 0.43233 0.49292 0.81545 0.0
C2195 C 0.43529 0.49692 0.80045 0.0
C2196 C 0.42322 0.5001 0.79041 0.0
C2197 C 0.44463 0.48846 0.82612 0.0
C2198 C 0.45506 0.49945 0.83176 0.0
C2199 C 0.44461 0.47391 0.8324 0.0
C2200 C 0.43428 0.46165 0.82647 0.0
C2201 C 0.43401 0.45761 0.81096 0.0
C2202 C 0.42415 0.44618 0.80538 0.0
C2203 C 0.41454 0.43863 0.81523 0.0
C2204 C 0.41479 0.44248 0.83068 0.0
C2205 C 0.42463 0.45392 0.83631 0.0
H2206 H 0.4069 0.42979 0.81089 0.0
H2207 H 0.50033 0.54187 0.86668 0.0
H2208 H 0.74454 0.74282 0.13527 0.0
H2209 H 0.74973 0.72687 0.11292 0.0
H2210 H 0.71286 0.69685 0.12447 0.0
H2211 H 0.70747 0.71279 0.14665 0.0
H2212 H 0.73782 0.68119 0.11723 0.0
H2213 H 0.70942 0.72168 0.09555 0.0
H2214 H 0.70393 0.74826 0.09014 0.0
H2215 H 0.74704 0.75283 0.06833 0.0
H2216 H 0.75287 0.72632 0.07379 0.0
H2217 H 0.72774 0.63746 0.04998 0.0
H2218 H 0.72452 0.65492 0.07146 0.0
H2219 H 0.76084 0.68323 0.05527 0.0
H2220 H 0.76393 0.66589 0.03346 0.0
H2221 H 0.73805 0.70027 0.06491 0.0
H2222 H 0.76623 0.65975 0.0856 0.0
H2223 H 0.77207 0.63327 0.09106 0.0
H2224 H 0.73009 0.62888 0.11495 0.0
H2225 H 0.7239 0.65529 0.10945 0.0
C2226 C 0.73741 0.73293 0.13297 0.0
C2227 C 0.72561 0.72911 0.14286 0.0
C2228 C 0.74042 0.72378 0.12018 0.0
C2229 C 0.73165 0.71065 0.11693 0.0
C2230 C 0.71986 0.70685 0.12675 0.0
C2231 C 0.71683 0.71598 0.1395 0.0
C2232 C 0.73483 0.70069 0.10348 0.0
C2233 C 0.7377 0.68534 0.10578 0.0
C2234 C 0.73516 0.70614 0.08855 0.0
C2235 C 0.73165 0.72207 0.08523 0.0
C2236 C 0.71778 0.72839 0.08971 0.0
C2237 C 0.7146 0.74343 0.08661 0.0
C2238 C 0.72515 0.75224 0.07894 0.0
C2239 C 0.73889 0.746 0.0743 0.0
C2240 C 0.74214 0.73096 0.07738 0.0
C2241 C 0.73509 0.64738 0.05095 0.0
C2242 C 0.74617 0.65019 0.03999 0.0
C2243 C 0.73327 0.65735 0.06332 0.0
C2244 C 0.74259 0.67032 0.06519 0.0
C2245 C 0.75353 0.67329 0.05415 0.0
C2246 C 0.75532 0.66333 0.0417 0.0
C2247 C 0.74083 0.68071 0.07864 0.0
C2248 C 0.73825 0.69613 0.07636 0.0
C2249 C 0.74084 0.67535 0.09363 0.0
C2250 C 0.74455 0.65947 0.097 0.0
C2251 C 0.75819 0.65311 0.09193 0.0
C2252 C 0.76157 0.63811 0.09504 0.0
C2253 C 0.75144 0.62939 0.10332 0.0
C2254 C 0.73792 0.63565 0.10853 0.0
C2255 C 0.73448 0.65064 0.10543 0.0
H2256 H 0.75408 0.61778 0.10572 0.0
H2257 H 0.72267 0.76388 0.07655 0.0
H2258 H 0.96788 0.05492 0.1059 0.0
H2259 H 0.95131 0.04963 0.12708 0.0
H2260 H 0.98566 0.02135 0.14642 0.0
H2261 H 1.00242 0.02665 0.12516 0.0
H2262 H 0.95801 0.00844 0.14905 0.0
H2263 H 0.97956 0.05722 0.16079 0.0
H2264 H 0.98675 0.08371 0.1562 0.0
H2265 H 0.93969 0.09477 0.15009 0.0
H2266 H 0.93222 0.06827 0.15442 0.0
H2267 H 0.92119 0.00604 0.22111 0.0
H2268 H 0.9396 0.00982 0.20092 0.0
H2269 H 0.90798 0.03866 0.17815 0.0
H2270 H 0.88965 0.03508 0.19831 0.0
H2271 H 0.93576 0.05104 0.17837 0.0
H2272 H 0.91446 1.00178 0.16577 0.0
H2273 H 0.90753 0.97524 0.17048 0.0
H2274 H 0.95453 0.96514 0.17869 0.0
H2275 H 0.96172 0.99168 0.17421 0.0
C2276 C 0.97203 0.04767 0.11469 0.0
C2277 C 0.98663 0.04138 0.11384 0.0
C2278 C 0.96248 0.04462 0.12684 0.0
C2279 C 0.96727 0.03529 0.13857 0.0
C2280 C 0.98167 0.02863 0.13757 0.0
C2281 C 0.99125 0.03165 0.12536 0.0
C2282 C 0.95725 0.03265 0.15186 0.0
C2283 C 0.95334 0.01776 0.1556 0.0
C2284 C 0.95091 0.04476 0.16035 0.0
C2285 C 0.95534 0.06073 0.1578 0.0
C2286 C 0.97075 0.06527 0.15835 0.0
C2287 C 0.97487 0.08029 0.15582 0.0
C2288 C 0.96369 0.09091 0.15282 0.0
C2289 C 0.94834 0.08653 0.15239 0.0
C2290 C 0.94416 0.07151 0.1549 0.0
C2291 C 0.91813 0.01317 0.2118 0.0
C2292 C 0.90387 0.02022 0.21138 0.0
C2293 C 0.92867 0.01527 0.20019 0.0
C2294 C 0.92519 0.02443 0.18786 0.0
C2295 C 0.911 0.03154 0.1875 0.0
C2296 C 0.90047 0.02944 0.19905 0.0
C2297 C 0.93631 0.02684 0.17542 0.0
C2298 C 0.94047 0.04171 0.17186 0.0
C2299 C 0.94291 0.01471 0.16715 0.0
C2300 C 0.93861 0.99875 0.16982 0.0
C2301 C 0.9233 0.99393 0.1687 0.0
C2302 C 0.91933 0.97888 0.1713 0.0
C2303 C 0.93058 0.96852 0.17493 0.0
C2304 C 0.94583 0.97318 0.17591 0.0
C2305 C 0.94986 0.98822 0.17333 0.0
H2306 H 0.92748 0.95687 0.17694 0.0
H2307 H 0.9669 0.10253 0.15086 0.0
H2308 H 0.26099 0.78865 0.16373 0.0
H2309 H 0.25861 0.80741 0.14391 0.0
H2310 H 0.27922 0.77653 0.11199 0.0
H2311 H 0.28197 0.75796 0.13175 0.0
H2312 H 0.29091 0.80447 0.10957 0.0
H2313 H 0.24023 0.78232 0.11271 0.0
H2314 H 0.2166 0.77565 0.12588 0.0
H2315 H 0.2092 0.82252 0.13665 0.0
H2316 H 0.2329 0.82945 0.12371 0.0
H2317 H 0.27314 0.82679 0.03745 0.0
H2318 H 0.27343 0.81366 0.06121 0.0
H2319 H 0.25166 0.85144 0.08327 0.0
H2320 H 0.25098 0.86472 0.059 0.0
H2321 H 0.24081 0.82427 0.0936 0.0
H2322 H 0.28976 0.84681 0.08803 0.0
H2323 H 0.31331 0.85372 0.07487 0.0
H2324 H 0.32429 0.80682 0.0693 0.0
H2325 H 0.3007 0.79961 0.08224 0.0
C2326 C 0.26515 0.78591 0.15252 0.0
C2327 C 0.27161 0.77172 0.14936 0.0
C2328 C 0.26365 0.79661 0.14115 0.0
C2329 C 0.26857 0.79336 0.12635 0.0
C2330 C 0.27527 0.77932 0.12327 0.0
C2331 C 0.27673 0.76864 0.13458 0.0
C2332 C 0.26691 0.80447 0.11399 0.0
C2333 C 0.27994 0.80871 0.10605 0.0
C2334 C 0.25268 0.81055 0.1097 0.0
C2335 C 0.23842 0.80638 0.1174 0.0
C2336 C 0.23362 0.79119 0.11799 0.0
C2337 C 0.22021 0.78736 0.12539 0.0
C2338 C 0.21143 0.79865 0.13214 0.0
C2339 C 0.21603 0.81379 0.13145 0.0
C2340 C 0.22944 0.81767 0.12408 0.0
C2341 C 0.26832 0.83238 0.0473 0.0
C2342 C 0.26224 0.84695 0.04634 0.0
C2343 C 0.26855 0.82483 0.06094 0.0
C2344 C 0.26298 0.83168 0.07419 0.0
C2345 C 0.25619 0.84596 0.07323 0.0
C2346 C 0.25579 0.85354 0.05938 0.0
C2347 C 0.26476 0.82382 0.08888 0.0
C2348 C 0.25181 0.82022 0.09728 0.0
C2349 C 0.2791 0.81839 0.0937 0.0
C2350 C 0.29341 0.82267 0.08605 0.0
C2351 C 0.29715 0.83796 0.08393 0.0
C2352 C 0.31052 0.84194 0.07651 0.0
C2353 C 0.32028 0.83072 0.07124 0.0
C2354 C 0.31672 0.8155 0.0734 0.0
C2355 C 0.30336 0.81147 0.08079 0.0
H2356 H 0.33062 0.83382 0.06549 0.0
H2357 H 0.20105 0.79566 0.13786 0.0
H2358 H 0.01985 0.45778 0.12547 0.0
H2359 H 0.03571 0.46552 0.14728 0.0
H2360 H 0.05307 0.50342 0.12275 0.0
H2361 H 0.03734 0.49551 0.10064 0.0
H2362 H 0.07592 0.48869 0.13781 0.0
H2363 H 0.02828 0.50989 0.15026 0.0
H2364 H 1.00047 0.51057 0.15346 0.0
H2365 H 1.00331 0.47629 0.18686 0.0
H2366 H 0.03111 0.47524 0.1837 0.0
H2367 H 0.11135 0.51131 0.21081 0.0
H2368 H 0.09691 0.51256 0.18673 0.0
H2369 H 0.07188 0.4722 0.19787 0.0
H2370 H 0.08602 0.47082 0.22153 0.0
H2371 H 0.0531 0.49462 0.18862 0.0
H2372 H 0.10014 0.47088 0.17268 0.0
H2373 H 0.12792 0.47009 0.16924 0.0
H2374 H 0.12605 0.50984 0.14248 0.0
H2375 H 0.09826 0.51097 0.14592 0.0
C2376 C 0.02708 0.46773 0.12465 0.0
C2377 C 0.02733 0.47601 0.11128 0.0
C2378 C 0.03606 0.47222 0.13719 0.0
C2379 C 0.04548 0.48515 0.13673 0.0
C2380 C 0.04585 0.49344 0.12339 0.0
C2381 C 0.03677 0.48898 0.11081 0.0
C2382 C 0.05501 0.48971 0.15021 0.0
C2383 C 0.07092 0.49033 0.14888 0.0
C2384 C 0.04852 0.49182 0.16467 0.0
C2385 C 0.03179 0.49243 0.16668 0.0
C2386 C 0.02297 0.50242 0.15822 0.0
C2387 C 0.0072 0.50288 0.16003 0.0
C2388 C 1.00013 0.49347 0.17034 0.0
C2389 C 0.00881 0.48358 0.17887 0.0
C2390 C 0.02457 0.48307 0.17709 0.0
C2391 C 0.10282 0.50269 0.20805 0.0
C2392 C 0.09986 0.491 0.21816 0.0
C2393 C 0.09458 0.50341 0.1943 0.0
C2394 C 0.08325 0.49249 0.19053 0.0
C2395 C 0.08046 0.48081 0.20056 0.0
C2396 C 0.08866 0.48003 0.21412 0.0
C2397 C 0.074 0.49296 0.17631 0.0
C2398 C 0.05809 0.49332 0.17751 0.0
C2399 C 0.0805 0.49181 0.16177 0.0
C2400 C 0.09718 0.49113 0.15973 0.0
C2401 C 0.10568 0.47953 0.16618 0.0
C2402 C 0.12142 0.479 0.16421 0.0
C2403 C 0.12876 0.48994 0.15569 0.0
C2404 C 0.12036 0.5014 0.1491 0.0
C2405 C 0.10462 0.50199 0.15106 0.0
H2406 H 0.14094 0.48951 0.15417 0.0
H2407 H 0.98792 0.49384 0.17173 0.0
H2408 H 0.38171 0.73913 0.25513 0.0
H2409 H 0.40328 0.73877 0.27273 0.0
H2410 H 0.3759 0.71521 0.30493 0.0
H2411 H 0.35395 0.71601 0.28748 0.0
H2412 H 0.39234 0.73708 0.31907 0.0
H2413 H 0.40357 0.69665 0.285 0.0
H2414 H 0.40686 0.68351 0.26034 0.0
H2415 H 0.44267 0.71472 0.24948 0.0
H2416 H 0.43945 0.7282 0.27399 0.0
H2417 H 0.46263 0.73104 0.36297 0.0
H2418 H 0.43972 0.72245 0.34848 0.0
H2419 H 0.45367 0.74927 0.31092 0.0
H2420 H 0.47616 0.75796 0.32523 0.0
H2421 H 0.44307 0.72048 0.30188 0.0
H2422 H 0.42834 0.76283 0.33454 0.0
H2423 H 0.42489 0.77573 0.35932 0.0
H2424 H 0.39554 0.73956 0.3731 0.0
H2425 H 0.399 0.72635 0.34845 0.0
C2426 C 0.38017 0.73395 0.26598 0.0
C2427 C 0.366 0.72765 0.26986 0.0
C2428 C 0.39263 0.73359 0.276 0.0
C2429 C 0.39135 0.72676 0.29013 0.0
C2430 C 0.37723 0.72047 0.29408 0.0
C2431 C 0.36471 0.72083 0.28403 0.0
C2432 C 0.40473 0.72667 0.30078 0.0
C2433 C 0.40335 0.73312 0.31541 0.0
C2434 C 0.41917 0.72158 0.29608 0.0
C2435 C 0.4212 0.7135 0.28132 0.0
C2436 C 0.41208 0.70078 0.27732 0.0
C2437 C 0.41394 0.69326 0.26337 0.0
C2438 C 0.42495 0.69829 0.25334 0.0
C2439 C 0.43414 0.71084 0.25726 0.0
C2440 C 0.43232 0.71842 0.27119 0.0
C2441 C 0.46086 0.73491 0.35155 0.0
C2442 C 0.47115 0.74524 0.34528 0.0
C2443 C 0.44775 0.73006 0.34332 0.0
C2444 C 0.44494 0.73528 0.32862 0.0
C2445 C 0.45557 0.74507 0.3222 0.0
C2446 C 0.46841 0.75008 0.33045 0.0
C2447 C 0.43072 0.73127 0.31991 0.0
C2448 C 0.43196 0.72409 0.30563 0.0
C2449 C 0.41616 0.73558 0.32497 0.0
C2450 C 0.41409 0.74351 0.33975 0.0
C2451 C 0.42127 0.75756 0.34291 0.0
C2452 C 0.41929 0.76495 0.35692 0.0
C2453 C 0.41005 0.75844 0.3678 0.0
C2454 C 0.40273 0.74456 0.36467 0.0
C2455 C 0.40469 0.73713 0.35069 0.0
H2456 H 0.40852 0.76418 0.37863 0.0
H2457 H 0.42638 0.69245 0.24255 0.0
H2458 H 0.98145 0.40404 0.9684 0.0
H2459 H 0.98761 0.38147 0.95343 0.0
H2460 H 0.97561 0.3535 0.99081 0.0
H2461 H 0.96944 0.37619 0.00596 0.0
H2462 H 1.00074 0.34276 0.97672 0.0
H2463 H 0.9509 0.3569 0.96146 0.0
H2464 H 0.93077 0.37405 0.95309 0.0
H2465 H 0.95526 0.38264 0.91242 0.0
H2466 H 0.97567 0.36571 0.92064 0.0
H2467 H 0.99796 0.27802 0.92284 0.0
H2468 H 0.9922 0.29658 0.94318 0.0
H2469 H 1.00373 0.33287 0.91361 0.0
H2470 H 0.00942 0.3147 0.89352 0.0
H2471 H 0.97598 0.33668 0.92604 0.0
H2472 H 0.02687 0.32371 0.94298 0.0
H2473 H 0.04653 0.30618 0.95167 0.0
H2474 H 0.01893 0.29443 0.98944 0.0
H2475 H 0.99901 0.31176 0.98085 0.0
C2476 C 0.98005 0.3931 0.97345 0.0
C2477 C 0.97474 0.39195 0.98833 0.0
C2478 C 0.98362 0.38018 0.96488 0.0
C2479 C 0.98181 0.36572 0.97087 0.0
C2480 C 0.97705 0.36451 0.98591 0.0
C2481 C 0.97354 0.3775 0.99456 0.0
C2482 C 0.98446 0.35199 0.96113 0.0
C2483 C 0.99514 0.34129 0.96574 0.0
C2484 C 0.97717 0.35 0.94679 0.0
C2485 C 0.96487 0.36011 0.94173 0.0
C2486 C 0.95204 0.36252 0.95077 0.0
C2487 C 0.94058 0.37219 0.94605 0.0
C2488 C 0.94175 0.37945 0.93225 0.0
C2489 C 0.95438 0.37701 0.92312 0.0
C2490 C 0.96589 0.36737 0.92779 0.0
C2491 C 0.99949 0.28995 0.9208 0.0
C2492 C 1.00402 0.29483 0.90647 0.0
C2493 C 0.99618 0.30055 0.93242 0.0
C2494 C 0.99741 0.31616 0.92989 0.0
C2495 C 1.00253 0.32093 0.91581 0.0
C2496 C 0.00581 0.31046 0.90431 0.0
C2497 C 0.99268 0.32777 0.94135 0.0
C2498 C 0.98148 0.33805 0.93709 0.0
C2499 C 0.9994 0.32925 0.956 0.0
C2500 C 0.01138 0.31888 0.96117 0.0
C2501 C 0.02493 0.31729 0.95306 0.0
C2502 C 0.03614 0.30741 0.95798 0.0
C2503 C 0.03395 0.29916 0.97107 0.0
C2504 C 0.02059 0.3008 0.97929 0.0
C2505 C 0.00934 0.31066 0.9744 0.0
H2506 H 0.04264 0.29152 0.97486 0.0
H2507 H 0.93286 0.38693 0.92861 0.0
H2508 H 0.64183 0.80126 0.27179 0.0
H2509 H 0.62163 0.79471 0.28918 0.0
H2510 H 0.64137 0.75095 0.29526 0.0
H2511 H 0.66182 0.7575 0.27785 0.0
H2512 H 0.61006 0.74904 0.2929 0.0
H2513 H 0.64649 0.77785 0.32246 0.0
H2514 H 0.66396 0.79929 0.32851 0.0
H2515 H 0.62637 0.82973 0.32835 0.0
H2516 H 0.6087 0.80851 0.32208 0.0
H2517 H 0.55629 0.74079 0.35428 0.0
H2518 H 0.58055 0.74105 0.34056 0.0
H2519 H 0.57236 0.78685 0.32747 0.0
H2520 H 0.54863 0.78675 0.34104 0.0
H2521 H 0.60104 0.78413 0.33645 0.0
H2522 H 0.5655 0.75602 0.30321 0.0
H2523 H 0.54787 0.73484 0.29662 0.0
H2524 H 0.58372 0.70323 0.30376 0.0
H2525 H 0.60151 0.72424 0.31058 0.0
C2526 C 0.64199 0.79026 0.27687 0.0
C2527 C 0.65364 0.78 0.27354 0.0
C2528 C 0.63037 0.78651 0.28681 0.0
C2529 C 0.63009 0.77243 0.29379 0.0
C2530 C 0.64135 0.76191 0.29009 0.0
C2531 C 0.65303 0.76566 0.28009 0.0
C2532 C 0.61815 0.76901 0.30513 0.0
C2533 C 0.60827 0.75655 0.30259 0.0
C2534 C 0.61571 0.7788 0.31779 0.0
C2535 C 0.62628 0.79159 0.32171 0.0
C2536 C 0.64196 0.78913 0.32362 0.0
C2537 C 0.6519 0.80124 0.3271 0.0
C2538 C 0.64628 0.81586 0.32879 0.0
C2539 C 0.6307 0.8184 0.32704 0.0
C2540 C 0.62072 0.80633 0.32354 0.0
C2541 C 0.55977 0.75092 0.34857 0.0
C2542 C 0.55042 0.76371 0.34874 0.0
C2543 C 0.57359 0.75104 0.34066 0.0
C2544 C 0.57829 0.76396 0.33287 0.0
C2545 C 0.56909 0.77675 0.33338 0.0
C2546 C 0.5554 0.77663 0.34114 0.0
C2547 C 0.59258 0.7645 0.3239 0.0
C2548 C 0.60298 0.77645 0.32692 0.0
C2549 C 0.59544 0.75426 0.31171 0.0
C2550 C 0.58477 0.74167 0.30759 0.0
C2551 C 0.56958 0.74454 0.3035 0.0
C2552 C 0.55957 0.73258 0.29969 0.0
C2553 C 0.56466 0.7177 0.29982 0.0
C2554 C 0.57978 0.71476 0.3037 0.0
C2555 C 0.58983 0.72669 0.30753 0.0
H2556 H 0.5569 0.70845 0.29687 0.0
H2557 H 0.65399 0.82523 0.33148 0.0
H2558 H 0.01896 0.10964 0.98148 0.0
H2559 H 0.0137 0.13124 0.96555 0.0
H2560 H 0.05822 0.14994 0.9764 0.0
H2561 H 0.06334 0.12872 0.99274 0.0
H2562 H 0.03798 0.17175 0.97684 0.0
H2563 H 0.04976 0.13088 0.94202 0.0
H2564 H 0.0467 0.10537 0.93037 0.0
H2565 H 1.00062 0.11514 0.91761 0.0
H2566 H 1.00335 0.14066 0.92937 0.0
H2567 H 0.04715 0.22407 0.91858 0.0
H2568 H 0.04937 0.2026 0.93517 0.0
H2569 H 0.00437 0.18714 0.92146 0.0
H2570 H 1.00218 0.20856 0.90452 0.0
H2571 H 0.02292 0.16374 0.92284 0.0
H2572 H 0.01145 0.20504 0.95646 0.0
H2573 H 0.01443 0.23058 0.96804 0.0
H2574 H 0.05961 0.22007 0.98318 0.0
H2575 H 0.05698 0.19452 0.97152 0.0
C2576 C 0.02757 0.11843 0.98065 0.0
C2577 C 0.04164 0.11729 0.98838 0.0
C2578 C 0.0246 0.13073 0.97137 0.0
C2579 C 0.03564 0.14219 0.96952 0.0
C2580 C 0.04952 0.14127 0.97752 0.0
C2581 C 0.05249 0.129 0.98679 0.0
C2582 C 0.03287 0.1551 0.95922 0.0
C2583 C 0.03485 0.16996 0.965 0.0
C2584 C 0.02834 0.15291 0.94382 0.0
C2585 C 0.02671 0.13761 0.93671 0.0
C2586 C 0.03894 0.12754 0.93683 0.0
C2587 C 0.03727 0.11309 0.93019 0.0
C2588 C 0.02346 0.10862 0.9233 0.0
C2589 C 0.0113 0.11861 0.92298 0.0
C2590 C 0.01291 0.13307 0.92962 0.0
C2591 C 0.03769 0.21614 0.91905 0.0
C2592 C 0.02445 0.21816 0.91021 0.0
C2593 C 0.03895 0.20385 0.92865 0.0
C2594 C 0.02695 0.1933 0.92984 0.0
C2595 C 0.01379 0.19512 0.92083 0.0
C2596 C 0.01254 0.20741 0.91115 0.0
C2597 C 0.02823 0.18038 0.94042 0.0
C2598 C 0.02597 0.16553 0.93471 0.0
C2599 C 0.03247 0.18257 0.95589 0.0
C2600 C 0.03406 0.1979 0.963 0.0
C2601 C 0.02206 0.20821 0.96217 0.0
C2602 C 0.02368 0.22268 0.96876 0.0
C2603 C 0.03721 0.22696 0.97631 0.0
C2604 C 0.04914 0.21675 0.97732 0.0
C2605 C 0.04758 0.20226 0.97073 0.0
H2606 H 0.03844 0.23817 0.9814 0.0
H2607 H 0.02219 0.09743 0.91816 0.0
H2608 H 0.35808 0.26878 0.22925 0.0
H2609 H 0.37868 0.26537 0.21127 0.0
H2610 H 0.41051 0.28562 0.24373 0.0
H2611 H 0.38986 0.28922 0.26174 0.0
H2612 H 0.41628 0.29578 0.2167 0.0
H2613 H 0.40886 0.24681 0.23663 0.0
H2614 H 0.39455 0.22406 0.24398 0.0
H2615 H 0.38091 0.21552 0.19762 0.0
H2616 H 0.39497 0.23835 0.19001 0.0
H2617 H 0.47964 0.27083 0.17151 0.0
H2618 H 0.46228 0.27338 0.19302 0.0
H2619 H 0.42437 0.26042 0.16373 0.0
H2620 H 0.44144 0.25803 0.14233 0.0
H2621 H 0.42404 0.24584 0.1914 0.0
H2622 H 0.43007 0.29638 0.17236 0.0
H2623 H 0.44485 0.31899 0.16541 0.0
H2624 H 0.46204 0.32397 0.21107 0.0
H2625 H 0.44751 0.30125 0.21823 0.0
C2626 C 0.36948 0.27243 0.23261 0.0
C2627 C 0.37231 0.27919 0.24699 0.0
C2628 C 0.38128 0.27045 0.22232 0.0
C2629 C 0.39626 0.27497 0.22621 0.0
C2630 C 0.39908 0.28199 0.24045 0.0
C2631 C 0.38725 0.28408 0.25072 0.0
C2632 C 0.40889 0.27245 0.21535 0.0
C2633 C 0.41813 0.28478 0.21139 0.0
C2634 C 0.41132 0.25814 0.20826 0.0
C2635 C 0.40288 0.24437 0.21277 0.0
C2636 C 0.40272 0.24014 0.22802 0.0
C2637 C 0.39467 0.22722 0.23223 0.0
C2638 C 0.3868 0.21837 0.22128 0.0
C2639 C 0.387 0.2224 0.20609 0.0
C2640 C 0.39503 0.23532 0.20182 0.0
C2641 C 0.46762 0.26844 0.1697 0.0
C2642 C 0.46193 0.2643 0.15518 0.0
C2643 C 0.45771 0.26995 0.18198 0.0
C2644 C 0.44201 0.26715 0.17996 0.0
C2645 C 0.43642 0.26263 0.16557 0.0
C2646 C 0.44623 0.26133 0.15332 0.0
C2647 C 0.43117 0.2692 0.19261 0.0
C2648 C 0.42227 0.25677 0.19689 0.0
C2649 C 0.42916 0.28336 0.20007 0.0
C2650 C 0.43787 0.29702 0.19578 0.0
C2651 C 0.43712 0.30222 0.18088 0.0
C2652 C 0.44542 0.31507 0.17691 0.0
C2653 C 0.45442 0.32288 0.18778 0.0
C2654 C 0.4551 0.31789 0.20265 0.0
C2655 C 0.44682 0.30503 0.20668 0.0
H2656 H 0.46084 0.33283 0.18469 0.0
H2657 H 0.38057 0.20837 0.22456 0.0
H2658 H 0.56413 0.38471 0.01811 0.0
H2659 H 0.55899 0.3644 0.03563 0.0
H2660 H 0.51507 0.38325 0.04512 0.0
H2661 H 0.52036 0.40392 0.02804 0.0
H2662 H 0.52866 0.37539 0.07072 0.0
H2663 H 0.51918 0.35144 0.02202 0.0
H2664 H 0.5251 0.3433 0.99588 0.0
H2665 H 0.56275 0.31769 0.01229 0.0
H2666 H 0.55718 0.32585 0.03854 0.0
H2667 H 0.4881 0.31253 0.09849 0.0
H2668 H 0.49836 0.33341 0.08411 0.0
H2669 H 0.54255 0.3129 0.08451 0.0
H2670 H 0.53232 0.2919 0.09926 0.0
H2671 H 0.53173 0.32129 0.05511 0.0
H2672 H 0.53917 0.34371 0.10437 0.0
H2673 H 0.5321 0.35147 0.13031 0.0
H2674 H 0.4971 0.37967 0.11256 0.0
H2675 H 0.5038 0.3719 0.0865 0.0
C2676 C 0.5534 0.38461 0.02398 0.0
C2677 C 0.54266 0.39601 0.02161 0.0
C2678 C 0.55042 0.37288 0.03391 0.0
C2679 C 0.53658 0.37218 0.04165 0.0
C2680 C 0.52583 0.38351 0.03929 0.0
C2681 C 0.5288 0.39525 0.02937 0.0
C2682 C 0.53335 0.35976 0.05233 0.0
C2683 C 0.5292 0.36357 0.06724 0.0
C2684 C 0.53447 0.34429 0.04799 0.0
C2685 C 0.53787 0.33941 0.03222 0.0
C2686 C 0.52881 0.34419 0.02005 0.0
C2687 C 0.53209 0.33954 0.00521 0.0
C2688 C 0.54433 0.33002 1.00242 0.0
C2689 C 0.5533 0.32509 0.01447 0.0
C2690 C 0.55008 0.32971 0.02932 0.0
C2691 C 0.50007 0.31254 0.09574 0.0
C2692 C 0.5094 0.30056 0.10002 0.0
C2693 C 0.50592 0.32452 0.08753 0.0
C2694 C 0.52122 0.32475 0.08324 0.0
C2695 C 0.53071 0.31296 0.08773 0.0
C2696 C 0.52489 0.30104 0.09623 0.0
C2697 C 0.52686 0.33696 0.07338 0.0
C2698 C 0.5314 0.33312 0.05862 0.0
C2699 C 0.52599 0.3524 0.07781 0.0
C2700 C 0.52192 0.35712 0.09347 0.0
C2701 C 0.52988 0.35147 0.10599 0.0
C2702 C 0.52595 0.35589 0.12072 0.0
C2703 C 0.51414 0.36603 0.12308 0.0
C2704 C 0.50624 0.3718 0.11071 0.0
C2705 C 0.51011 0.36741 0.09596 0.0
H2706 H 0.51112 0.36944 0.13449 0.0
H2707 H 0.54684 0.32643 0.99093 0.0
H2708 H 0.63149 0.20779 0.2389 0.0
H2709 H 0.6099 0.2146 0.22282 0.0
H2710 H 0.63631 0.25134 0.20498 0.0
H2711 H 0.65791 0.24465 0.22114 0.0
H2712 H 0.60833 0.26036 0.21025 0.0
H2713 H 0.63004 0.21728 0.18485 0.0
H2714 H 0.63928 0.19116 0.18263 0.0
H2715 H 0.59487 0.17407 0.19337 0.0
H2716 H 0.5854 0.20012 0.19585 0.0
H2717 H 0.5636 0.27428 0.14472 0.0
H2718 H 0.58399 0.26741 0.1622 0.0
H2719 H 0.55539 0.23227 0.17994 0.0
H2720 H 0.53492 0.23898 0.16233 0.0
H2721 H 0.58379 0.22223 0.17532 0.0
H2722 H 0.56193 0.26537 0.19998 0.0
H2723 H 0.55275 0.29152 0.20211 0.0
H2724 H 0.59753 0.3085 0.19263 0.0
H2725 H 0.60694 0.28244 0.19025 0.0
C2726 C 0.63274 0.21728 0.23151 0.0
C2727 C 0.6465 0.22561 0.23128 0.0
C2728 C 0.62036 0.22117 0.22229 0.0
C2729 C 0.6215 0.23336 0.21246 0.0
C2730 C 0.63511 0.24189 0.21244 0.0
C2731 C 0.64746 0.23806 0.22173 0.0
C2732 C 0.60855 0.2372 0.20216 0.0
C2733 C 0.6031 0.25205 0.20249 0.0
C2734 C 0.60141 0.22632 0.19225 0.0
C2735 C 0.60705 0.21065 0.19068 0.0
C2736 C 0.62227 0.20796 0.18684 0.0
C2737 C 0.62754 0.19317 0.18552 0.0
C2738 C 0.61768 0.18097 0.1879 0.0
C2739 C 0.6025 0.18353 0.19156 0.0
C2740 C 0.59717 0.19831 0.19291 0.0
C2741 C 0.56159 0.2651 0.15234 0.0
C2742 C 0.54755 0.25723 0.15212 0.0
C2743 C 0.57328 0.26122 0.1624 0.0
C2744 C 0.57121 0.24943 0.17256 0.0
C2745 C 0.55727 0.24143 0.17225 0.0
C2746 C 0.54555 0.24532 0.16219 0.0
C2747 C 0.58365 0.24539 0.18335 0.0
C2748 C 0.58899 0.23052 0.18312 0.0
C2749 C 0.59071 0.25625 0.19333 0.0
C2750 C 0.5851 0.27194 0.19479 0.0
C2751 C 0.56979 0.27468 0.19823 0.0
C2752 C 0.56456 0.28949 0.19951 0.0
C2753 C 0.57454 0.30166 0.19747 0.0
C2754 C 0.5898 0.29906 0.19419 0.0
C2755 C 0.5951 0.28427 0.19289 0.0
H2756 H 0.57047 0.31312 0.19846 0.0
H2757 H 0.62178 0.16952 0.18687 0.0
H2758 H 0.48195 0.09951 0.04471 0.0
H2759 H 0.4892 0.12175 0.06037 0.0
H2760 H 0.47755 0.15063 0.02348 0.0
H2761 H 0.47042 0.12845 0.00775 0.0
H2762 H 0.5029 0.16065 0.03693 0.0
H2763 H 0.45343 0.14491 0.0537 0.0
H2764 H 0.43438 0.12706 0.06349 0.0
H2765 H 0.46165 0.1218 0.1037 0.0
H2766 H 0.48096 0.13948 0.09405 0.0
H2767 H 0.48433 0.2297 0.07352 0.0
H2768 H 0.48449 0.20536 0.05996 0.0
H2769 H 0.50457 0.18478 0.09904 0.0
H2770 H 0.50468 0.20938 0.11274 0.0
H2771 H 0.47809 0.16927 0.08645 0.0
H2772 H 0.5261 0.18813 0.07023 0.0
H2773 H 0.54403 0.20684 0.06006 0.0
H2774 H 0.51831 0.20714 0.01836 0.0
H2775 H 0.50008 0.1886 0.02836 0.0
C2776 C 0.48091 0.11061 0.03994 0.0
C2777 C 0.47552 0.11219 0.02499 0.0
C2778 C 0.48507 0.12332 0.04891 0.0
C2779 C 0.48374 0.13792 0.04321 0.0
C2780 C 0.47872 0.1395 0.02816 0.0
C2781 C 0.47466 0.1268 0.01915 0.0
C2782 C 0.48719 0.15159 0.05296 0.0
C2783 C 0.4974 0.16256 0.04771 0.0
C2784 C 0.48032 0.15397 0.06723 0.0
C2785 C 0.46872 0.14337 0.07307 0.0
C2786 C 0.45542 0.13985 0.06457 0.0
C2787 C 0.44457 0.12978 0.0701 0.0
C2788 C 0.44683 0.12326 0.08419 0.0
C2789 C 0.45993 0.12683 0.09278 0.0
C2790 C 0.47083 0.13688 0.08729 0.0
C2791 C 0.48893 0.22005 0.07923 0.0
C2792 C 0.49447 0.22147 0.09423 0.0
C2793 C 0.48906 0.20614 0.07142 0.0
C2794 C 0.49459 0.19327 0.07846 0.0
C2795 C 0.5003 0.19461 0.09339 0.0
C2796 C 0.50041 0.20865 0.10117 0.0
C2797 C 0.49359 0.17838 0.07028 0.0
C2798 C 0.48379 0.16722 0.0758 0.0
C2799 C 0.5007 0.1759 0.05618 0.0
C2800 C 0.51165 0.18705 0.0501 0.0
C2801 C 0.52418 0.19228 0.05894 0.0
C2802 C 0.53442 0.20284 0.05319 0.0
C2803 C 0.5323 0.2082 0.03859 0.0
C2804 C 0.51994 0.20299 0.02968 0.0
C2805 C 0.50966 0.19244 0.03537 0.0
H2806 H 0.54024 0.21637 0.03416 0.0
H2807 H 0.43841 0.11548 0.08845 0.0
H2808 H 0.27684 0.3596 0.73973 0.0
H2809 H 0.29264 0.38219 0.74469 0.0
H2810 H 0.29356 0.39063 0.69685 0.0
H2811 H 0.27769 0.36809 0.69179 0.0
H2812 H 0.32143 0.39495 0.70923 0.0
H2813 H 0.27129 0.41165 0.72052 0.0
H2814 H 0.24614 0.41082 0.73251 0.0
H2815 H 0.26748 0.41441 0.77653 0.0
H2816 H 0.29278 0.41504 0.76481 0.0
H2817 H 0.35318 0.47064 0.72398 0.0
H2818 H 0.33795 0.44866 0.71454 0.0
H2819 H 0.332 0.43441 0.76044 0.0
H2820 H 0.34678 0.45614 0.76981 0.0
H2821 H 0.30552 0.43445 0.7463 0.0
H2822 H 0.35575 0.41598 0.73493 0.0
H2823 H 0.38087 0.41678 0.72286 0.0
H2824 H 0.35929 0.41686 0.67892 0.0
H2825 H 0.33403 0.41625 0.69075 0.0
C2826 C 0.28023 0.36634 0.73026 0.0
C2827 C 0.27591 0.36198 0.71535 0.0
C2828 C 0.28933 0.37926 0.73311 0.0
C2829 C 0.29422 0.38825 0.72116 0.0
C2830 C 0.29 0.38389 0.70626 0.0
C2831 C 0.28092 0.37095 0.7034 0.0
C2832 C 0.30369 0.40217 0.72425 0.0
C2833 C 0.31785 0.4037 0.71718 0.0
C2834 C 0.29914 0.41358 0.73469 0.0
C2835 C 0.28393 0.41327 0.74178 0.0
C2836 C 0.27062 0.41215 0.73276 0.0
C2837 C 0.25634 0.41173 0.73951 0.0
C2838 C 0.25521 0.41253 0.75527 0.0
C2839 C 0.26837 0.41378 0.76432 0.0
C2840 C 0.28268 0.41418 0.75763 0.0
C2841 C 0.34878 0.46268 0.73199 0.0
C2842 C 0.35109 0.46525 0.74765 0.0
C2843 C 0.34007 0.45012 0.7266 0.0
C2844 C 0.3337 0.43987 0.73679 0.0
C2845 C 0.33658 0.44219 0.75233 0.0
C2846 C 0.34511 0.45466 0.75768 0.0
C2847 C 0.32348 0.42704 0.73166 0.0
C2848 C 0.30909 0.42575 0.73829 0.0
C2849 C 0.32784 0.4159 0.72083 0.0
C2850 C 0.34301 0.41625 0.71373 0.0
C2851 C 0.35637 0.4163 0.7227 0.0
C2852 C 0.37063 0.41669 0.7159 0.0
C2853 C 0.37168 0.41692 0.70013 0.0
C2854 C 0.35846 0.41671 0.69113 0.0
C2855 C 0.34417 0.41633 0.69787 0.0
H2856 H 0.38273 0.41722 0.69489 0.0
H2857 H 0.24414 0.4122 0.76047 0.0
H2858 H 0.26008 0.63571 0.78403 0.0
H2859 H 0.27607 0.61383 0.77908 0.0
H2860 H 0.31294 0.64333 0.76642 0.0
H2861 H 0.29687 0.66533 0.77105 0.0
H2862 H 0.31052 0.61796 0.7474 0.0
H2863 H 0.31329 0.62879 0.80086 0.0
H2864 H 0.30303 0.63388 0.82629 0.0
H2865 H 0.28046 0.59051 0.825 0.0
H2866 H 0.29041 0.58525 0.79945 0.0
H2867 H 0.36572 0.55797 0.75332 0.0
H2868 H 0.35199 0.58201 0.75457 0.0
H2869 H 0.3133 0.55906 0.77349 0.0
H2870 H 0.32702 0.53544 0.77274 0.0
H2871 H 0.31888 0.58297 0.78957 0.0
H2872 H 0.31468 0.57251 0.73567 0.0
H2873 H 0.32447 0.56734 0.71005 0.0
H2874 H 0.3493 0.6095 0.71192 0.0
H2875 H 0.3398 0.61483 0.73764 0.0
C2876 C 0.27151 0.63758 0.77997 0.0
C2877 C 0.27718 0.65234 0.77802 0.0
C2878 C 0.2807 0.62503 0.77725 0.0
C2879 C 0.2958 0.6269 0.77254 0.0
C2880 C 0.30136 0.64158 0.7701 0.0
C2881 C 0.29218 0.65416 0.77288 0.0
C2882 C 0.30589 0.61357 0.77076 0.0
C2883 C 0.31252 0.61039 0.75666 0.0
C2884 C 0.30841 0.60359 0.78278 0.0
C2885 C 0.30249 0.60668 0.79819 0.0
C2886 C 0.30605 0.62038 0.80595 0.0
C2887 C 0.3003 0.62329 0.8204 0.0
C2888 C 0.29107 0.61254 0.82725 0.0
C2889 C 0.2876 0.59884 0.81968 0.0
C2890 C 0.2933 0.59588 0.80522 0.0
C2891 C 0.35422 0.55808 0.75756 0.0
C2892 C 0.34752 0.54481 0.76303 0.0
C2893 C 0.34635 0.57183 0.75826 0.0
C2894 C 0.33153 0.57245 0.76416 0.0
C2895 C 0.32473 0.55903 0.76905 0.0
C2896 C 0.33261 0.54546 0.76857 0.0
C2897 C 0.32317 0.58698 0.76603 0.0
C2898 C 0.31694 0.59049 0.78025 0.0
C2899 C 0.32098 0.59717 0.75409 0.0
C2900 C 0.32667 0.59398 0.73864 0.0
C2901 C 0.32232 0.58062 0.73066 0.0
C2902 C 0.3278 0.57767 0.71611 0.0
C2903 C 0.33754 0.58806 0.70938 0.0
C2904 C 0.34178 0.60144 0.71716 0.0
C2905 C 0.33635 0.60444 0.73172 0.0
H2906 H 0.34176 0.58576 0.69812 0.0
H2907 H 0.28663 0.61481 0.83843 0.0
H2908 H 0.8771 0.50023 0.46215 0.0
H2909 H 0.85519 0.48425 0.46852 0.0
H2910 H 0.88445 0.45665 0.49556 0.0
H2911 H 0.90637 0.47243 0.48913 0.0
H2912 H 0.86596 0.43977 0.47613 0.0
H2913 H 0.86047 0.48122 0.5122 0.0
H2914 H 0.85775 0.50801 0.51991 0.0
H2915 H 0.81656 0.51035 0.49339 0.0
H2916 H 0.81914 0.48362 0.48534 0.0
H2917 H 0.81593 0.3942 0.5149 0.0
H2918 H 0.83465 0.41378 0.50947 0.0
H2919 H 0.79999 0.43936 0.487 0.0
H2920 H 0.78092 0.41981 0.49287 0.0
H2921 H 0.8198 0.45812 0.5021 0.0
H2922 H 0.82426 0.41722 0.46645 0.0
H2923 H 0.82658 0.39069 0.45772 0.0
H2924 H 0.86927 0.38767 0.48165 0.0
H2925 H 0.8671 0.41413 0.49071 0.0
C2926 C 0.87886 0.49075 0.46946 0.0
C2927 C 0.89351 0.48763 0.47514 0.0
C2928 C 0.8663 0.4817 0.47318 0.0
C2929 C 0.86814 0.46929 0.4826 0.0
C2930 C 0.88273 0.46618 0.48831 0.0
C2931 C 0.89525 0.47529 0.48471 0.0
C2932 C 0.85503 0.45913 0.48609 0.0
C2933 C 0.85595 0.44377 0.48197 0.0
C2934 C 0.84168 0.46442 0.49317 0.0
C2935 C 0.84009 0.48047 0.49804 0.0
C2936 C 0.8509 0.48748 0.50791 0.0
C2937 C 0.84937 0.50265 0.51236 0.0
C2938 C 0.83701 0.51089 0.50711 0.0
C2939 C 0.82614 0.50396 0.49743 0.0
C2940 C 0.82762 0.4888 0.49293 0.0
C2941 C 0.8122 0.40407 0.50896 0.0
C2942 C 0.79695 0.40535 0.50417 0.0
C2943 C 0.82296 0.41525 0.50579 0.0
C2944 C 0.81887 0.42788 0.49743 0.0
C2945 C 0.80347 0.42966 0.49335 0.0
C2946 C 0.79257 0.4185 0.49673 0.0
C2947 C 0.83092 0.43868 0.49247 0.0
C2948 C 0.82978 0.45414 0.49621 0.0
C2949 C 0.84404 0.43354 0.48484 0.0
C2950 C 0.84545 0.41763 0.47935 0.0
C2951 C 0.83409 0.41087 0.46993 0.0
C2952 C 0.83539 0.39585 0.46492 0.0
C2953 C 0.84805 0.38749 0.46915 0.0
C2954 C 0.85946 0.39415 0.47839 0.0
C2955 C 0.85821 0.40917 0.48345 0.0
H2956 H 0.84904 0.37585 0.46526 0.0
H2957 H 0.83585 0.52263 0.51057 0.0
H2958 H 0.73183 0.86078 0.79075 0.0
H2959 H 0.71335 0.88089 0.7879 0.0
H2960 H 0.74578 0.90653 0.76244 0.0
H2961 H 0.76455 0.88671 0.76574 0.0
H2962 H 0.73084 0.92484 0.78162 0.0
H2963 H 0.71682 0.88664 0.74446 0.0
H2964 H 0.71028 0.86089 0.73495 0.0
H2965 H 0.67152 0.85973 0.76395 0.0
H2966 H 0.67795 0.8854 0.7738 0.0
H2967 H 0.67236 0.97511 0.75515 0.0
H2968 H 0.69381 0.95766 0.75686 0.0
H2969 H 0.66566 0.92648 0.78118 0.0
H2970 H 0.64433 0.94347 0.77915 0.0
H2971 H 0.67977 0.91173 0.76008 0.0
H2972 H 0.6948 0.94943 0.7984 0.0
H2973 H 0.70141 0.97521 0.80781 0.0
H2974 H 0.73814 0.97743 0.77638 0.0
H2975 H 0.73163 0.95172 0.76666 0.0
C2976 C 0.73513 0.87077 0.78472 0.0
C2977 C 0.74969 0.87203 0.7784 0.0
C2978 C 0.72448 0.88222 0.78296 0.0
C2979 C 0.72806 0.89515 0.77473 0.0
C2980 C 0.7427 0.89664 0.76875 0.0
C2981 C 0.75338 0.8852 0.77053 0.0
C2982 C 0.71643 0.90696 0.7722 0.0
C2983 C 0.71973 0.92201 0.77673 0.0
C2984 C 0.70189 0.90332 0.76591 0.0
C2985 C 0.69795 0.8879 0.75996 0.0
C2986 C 0.70697 0.88085 0.74889 0.0
C2987 C 0.70327 0.86627 0.74342 0.0
C2988 C 0.69051 0.85866 0.74886 0.0
C2989 C 0.6814 0.86563 0.75976 0.0
C2990 C 0.68506 0.8802 0.76527 0.0
C2991 C 0.67083 0.96458 0.76094 0.0
C2992 C 0.65659 0.96066 0.76691 0.0
C2993 C 0.6831 0.95461 0.76196 0.0
C2994 C 0.6814 0.9407 0.76918 0.0
C2995 C 0.66728 0.93704 0.77543 0.0
C2996 C 0.65506 0.94683 0.77428 0.0
C2997 C 0.69396 0.92956 0.76994 0.0
C2998 C 0.69088 0.9146 0.76495 0.0
C2999 C 0.70867 0.93332 0.7758 0.0
C3000 C 0.71262 0.94873 0.78169 0.0
C3001 C 0.70422 0.95546 0.79342 0.0
C3002 C 0.70796 0.97005 0.79883 0.0
C3003 C 0.72016 0.97797 0.79266 0.0
C3004 C 0.72868 0.9713 0.78112 0.0
C3005 C 0.72498 0.95671 0.77567 0.0
H3006 H 0.72303 0.98927 0.79686 0.0
H3007 H 0.68767 0.84738 0.74462 0.0
H3008 H 0.59908 0.54476 0.98378 0.0
H3009 H 0.6212 0.56098 0.99003 0.0
H3010 H 0.65104 0.52551 0.97505 0.0
H3011 H 0.629 0.50922 0.96892 0.0
H3012 H 0.66232 0.53862 0.99996 0.0
H3013 H 0.64198 0.55604 0.95265 0.0
H3014 H 0.62216 0.56575 0.93557 0.0
H3015 H 0.61746 0.60497 0.96468 0.0
H3016 H 0.63713 0.59538 0.98205 0.0
H3017 H 0.7285 0.57627 0.97628 0.0
H3018 H 0.70422 0.56282 0.97784 0.0
H3019 H 0.68532 0.60076 1.00228 0.0
H3020 H 0.70994 0.61435 1.001 0.0
H3021 H 0.66719 0.58868 0.97635 0.0
H3022 H 0.69079 0.57201 0.0218 0.0
H3023 H 0.71148 0.56196 0.03756 0.0
H3024 H 0.71089 0.5209 0.01058 0.0
H3025 H 0.69034 0.53079 0.99449 0.0
C3026 C 0.61036 0.54042 0.98181 0.0
C3027 C 0.61225 0.5257 0.97578 0.0
C3028 C 0.62301 0.54971 0.98539 0.0
C3029 C 0.63783 0.54457 0.98283 0.0
C3030 C 0.63974 0.52975 0.97717 0.0
C3031 C 0.62712 0.52042 0.97369 0.0
C3032 C 0.65137 0.55467 0.98565 0.0
C3033 C 0.66338 0.54953 0.99473 0.0
C3034 C 0.65267 0.56912 0.97917 0.0
C3035 C 0.64088 0.57491 0.96874 0.0
C3036 C 0.63663 0.56668 0.95547 0.0
C3037 C 0.62544 0.57217 0.94572 0.0
C3038 C 0.61852 0.58594 0.94906 0.0
C3039 C 0.62281 0.59428 0.96213 0.0
C3040 C 0.63398 0.58883 0.97192 0.0
C3041 C 0.71924 0.58178 0.98208 0.0
C3042 C 0.72115 0.59642 0.98849 0.0
C3043 C 0.70537 0.57403 0.983 0.0
C3044 C 0.69299 0.58075 0.99022 0.0
C3045 C 0.69477 0.59536 0.99668 0.0
C3046 C 0.70883 0.60308 0.996 0.0
C3047 C 0.67816 0.57247 0.9904 0.0
C3048 C 0.66595 0.57791 0.98182 0.0
C3049 C 0.67674 0.55823 0.99719 0.0
C3050 C 0.68908 0.55219 0.00687 0.0
C3051 C 0.69515 0.56088 0.01914 0.0
C3052 C 0.70684 0.5552 0.02815 0.0
C3053 C 0.71252 0.54081 0.02506 0.0
C3054 C 0.70649 0.53205 0.01296 0.0
C3055 C 0.6948 0.53768 0.0039 0.0
H3056 H 0.72157 0.53643 0.03205 0.0
H3057 H 0.60986 0.59018 0.9415 0.0
H3058 H 0.22113 0.65239 0.21846 0.0
H3059 H 0.20312 0.63112 0.21985 0.0
H3060 H 0.233 0.60955 0.25156 0.0
H3061 H 0.25125 0.63047 0.24984 0.0
H3062 H 0.22182 0.58926 0.2314 0.0
H3063 H 0.20094 0.62847 0.26323 0.0
H3064 H 0.19153 0.65402 0.26922 0.0
H3065 H 0.15679 0.64838 0.23475 0.0
H3066 H 0.16613 0.62287 0.22842 0.0
H3067 H 0.16958 0.53554 0.26049 0.0
H3068 H 0.18771 0.55645 0.25751 0.0
H3069 H 0.15652 0.57745 0.22663 0.0
H3070 H 0.13824 0.55675 0.22977 0.0
H3071 H 0.16824 0.59806 0.2457 0.0
H3072 H 0.18868 0.55868 0.21415 0.0
H3073 H 0.1981 0.53319 0.20799 0.0
H3074 H 0.23363 0.5391 0.24161 0.0
H3075 H 0.22429 0.56457 0.24811 0.0
C3076 C 0.22395 0.64305 0.22561 0.0
C3077 C 0.23763 0.64326 0.23413 0.0
C3078 C 0.21356 0.63094 0.22651 0.0
C3079 C 0.21656 0.61878 0.23599 0.0
C3080 C 0.23035 0.6188 0.24423 0.0
C3081 C 0.24073 0.63088 0.24334 0.0
C3082 C 0.20535 0.60607 0.23745 0.0
C3083 C 0.21015 0.59119 0.2347 0.0
C3084 C 0.19 0.60852 0.24142 0.0
C3085 C 0.18433 0.62383 0.24525 0.0
C3086 C 0.19136 0.63273 0.25685 0.0
C3087 C 0.18603 0.64719 0.26032 0.0
C3088 C 0.1736 0.65284 0.25234 0.0
C3089 C 0.16644 0.64401 0.2409 0.0
C3090 C 0.17174 0.62954 0.23738 0.0
C3091 C 0.16657 0.54459 0.25305 0.0
C3092 C 0.15243 0.5444 0.24535 0.0
C3093 C 0.177 0.55653 0.25129 0.0
C3094 C 0.17361 0.5685 0.24168 0.0
C3095 C 0.15945 0.56838 0.23409 0.0
C3096 C 0.149 0.55648 0.23588 0.0
C3097 C 0.18471 0.58123 0.23969 0.0
C3098 C 0.17989 0.59612 0.24235 0.0
C3099 C 0.20003 0.57878 0.23562 0.0
C3100 C 0.20569 0.56348 0.23172 0.0
C3101 C 0.19843 0.5545 0.22031 0.0
C3102 C 0.20377 0.54006 0.21674 0.0
C3103 C 0.21643 0.53451 0.22443 0.0
C3104 C 0.22381 0.54341 0.23568 0.0
C3105 C 0.2185 0.55785 0.2393 0.0
H3106 H 0.22055 0.52333 0.22165 0.0
H3107 H 0.16949 0.66404 0.25504 0.0
H3108 H 0.89534 0.53098 0.06252 0.0
H3109 H 0.87456 0.54796 0.05653 0.0
H3110 H 0.87899 0.53667 0.00901 0.0
H3111 H 0.90017 0.52007 0.01487 0.0
H3112 H 0.87649 0.56642 0.01323 0.0
H3113 H 0.8496 0.52244 0.03063 0.0
H3114 H 0.84322 0.50264 0.04872 0.0
H3115 H 0.83072 0.53658 0.08168 0.0
H3116 H 0.83721 0.55659 0.06384 0.0
H3117 H 0.80764 0.58842 0.98085 0.0
H3118 H 0.82907 0.57486 0.99114 0.0
H3119 H 0.81959 0.59271 0.03586 0.0
H3120 H 0.79771 0.60641 0.02554 0.0
H3121 H 0.82529 0.56205 0.03577 0.0
H3122 H 0.84999 0.60597 0.01741 0.0
H3123 H 0.85599 0.62565 0.99909 0.0
H3124 H 0.87255 0.59191 0.96792 0.0
H3125 H 0.86645 0.57198 0.98596 0.0
C3126 C 0.89197 0.53215 0.05077 0.0
C3127 C 0.89951 0.52413 0.03918 0.0
C3128 C 0.87995 0.54178 0.04738 0.0
C3129 C 0.87508 0.54354 0.03232 0.0
C3130 C 0.88251 0.5355 0.02073 0.0
C3131 C 0.89454 0.52588 0.02411 0.0
C3132 C 0.8625 0.55401 0.02854 0.0
C3133 C 0.86526 0.56535 0.01806 0.0
C3134 C 0.84797 0.55303 0.03524 0.0
C3135 C 0.84406 0.54101 0.04597 0.0
C3136 C 0.84561 0.52568 0.04178 0.0
C3137 C 0.84195 0.51442 0.05198 0.0
C3138 C 0.83661 0.51835 0.06636 0.0
C3139 C 0.83488 0.53355 0.07055 0.0
C3140 C 0.83854 0.54486 0.0604 0.0
C3141 C 0.81007 0.5896 0.99289 0.0
C3142 C 0.8009 0.59857 1.00236 0.0
C3143 C 0.82243 0.58185 0.99875 0.0
C3144 C 0.8261 0.58287 0.01425 0.0
C3145 C 0.81702 0.5918 0.02383 0.0
C3146 C 0.80457 0.59968 0.01792 0.0
C3147 C 0.83921 0.5742 0.02021 0.0
C3148 C 0.83657 0.56322 0.03109 0.0
C3149 C 0.85388 0.5755 0.01389 0.0
C3150 C 0.85767 0.58746 1.00302 0.0
C3151 C 0.85481 0.60273 0.00661 0.0
C3152 C 0.85825 0.61393 0.99628 0.0
C3153 C 0.86463 0.61003 0.98234 0.0
C3154 C 0.86761 0.59491 0.97872 0.0
C3155 C 0.86419 0.58366 0.989 0.0
H3156 H 0.86728 0.61872 0.97435 0.0
H3157 H 0.83378 0.50962 0.07424 0.0
H3158 H 0.1184 0.98047 0.0632 0.0
H3159 H 0.14019 0.96437 0.05842 0.0
H3160 H 0.13903 0.97602 0.01132 0.0
H3161 H 0.11685 0.99193 0.01596 0.0
H3162 H 0.14323 0.94593 0.0143 0.0
H3163 H 0.16631 0.99107 0.03546 0.0
H3164 H 0.17008 0.01208 0.05408 0.0
H3165 H 0.18032 0.9805 0.08875 0.0
H3166 H 0.17641 0.95927 0.07037 0.0
H3167 H 0.21521 0.91145 1.00002 0.0
H3168 H 0.19419 0.92924 1.00205 0.0
H3169 H 0.19327 0.9232 0.05034 0.0
H3170 H 0.21445 0.90578 0.04844 0.0
H3171 H 0.1907 0.95179 0.04509 0.0
H3172 H 0.16609 0.90664 0.0245 0.0
H3173 H 0.16203 0.88549 0.00609 0.0
H3174 H 0.15452 0.91689 0.97059 0.0
H3175 H 0.15873 0.93824 0.98877 0.0
C3176 C 0.12267 0.97957 0.05178 0.0
C3177 C 0.11576 0.98753 0.03997 0.0
C3178 C 0.13528 0.97043 0.04909 0.0
C3179 C 0.14143 0.96904 0.03453 0.0
C3180 C 0.13456 0.97691 0.02267 0.0
C3181 C 0.12193 0.98612 0.02537 0.0
C3182 C 0.1549 0.95921 0.03176 0.0
C3183 C 0.15371 0.94737 0.02086 0.0
C3184 C 0.16852 0.96083 0.04049 0.0
C3185 C 0.17094 0.97357 0.05156 0.0
C3186 C 0.16926 0.9886 0.04708 0.0
C3187 C 0.17144 1.00054 0.05759 0.0
C3188 C 0.1754 0.99762 0.07259 0.0
C3189 C 0.17723 0.98274 0.07712 0.0
C3190 C 0.17505 0.97075 0.06666 0.0
C3191 C 0.21051 0.91387 0.01107 0.0
C3192 C 0.21657 0.90711 0.02406 0.0
C3193 C 0.19841 0.92403 0.01222 0.0
C3194 C 0.19192 0.92752 0.02635 0.0
C3195 C 0.198 0.92078 0.0393 0.0
C3196 C 0.21014 0.91074 0.03818 0.0
C3197 C 0.17898 0.93831 0.02781 0.0
C3198 C 0.18027 0.95037 0.03846 0.0
C3199 C 0.16546 0.93685 0.01888 0.0
C3200 C 0.16289 0.92403 0.00796 0.0
C3201 C 0.16369 0.90903 0.01274 0.0
C3202 C 0.16134 0.89701 1.00235 0.0
C3203 C 0.15806 0.89984 0.98717 0.0
C3204 C 0.15708 0.91471 0.98235 0.0
C3205 C 0.15944 0.92678 0.99269 0.0
H3206 H 0.15625 0.89052 0.97914 0.0
H3207 H 0.17708 0.00689 0.08071 0.0
loop_
_geom_bond_atom_site_label_1
_geom_bond_atom_site_label_2
_geom_bond_distance
_geom_bond_site_symmetry_2
_ccdc_geom_bond_type
C0 C1 1.264 . S
C0 C5 1.479 1_455 S
C0 C10 1.465 . S
C1 C0 1.264 . S
C1 C3 1.339 . S
C1 H28 0.931 . S
C2 C3 1.395 1_655 S
C2 C4 1.320 . S
C3 C1 1.339 . S
C3 C2 1.395 1_455 S
C3 H29 0.929 . S
C4 C2 1.320 . S
C4 C5 1.405 . S
C4 H30 0.930 . S
C5 C0 1.479 1_655 S
C5 C4 1.405 . S
C5 H31 0.931 . S
U6 O7 2.454 . S
U6 O8 2.458 . S
U6 C9 2.984 . S
U6 C10 2.847 . S
U6 C23 2.882 . S
U6 O24 2.441 . S
U6 O25 2.420 . S
U6 O26 2.455 . S
U6 O27 2.449 . S
O7 U6 2.454 . S
O7 C9 1.353 . S
O8 U6 2.458 . S
O8 C9 1.286 . S
C9 U6 2.984 . S
C9 O7 1.353 . S
C9 O8 1.286 . S
C9 C11 1.363 . S
C10 C0 1.465 . S
C10 U6 2.847 . S
C10 O24 1.249 . S
C10 O25 1.202 . S
C11 C9 1.363 . S
C11 C13 1.408 . S
C11 C16 1.305 1_554 S
C12 C13 1.310 . S
C12 C15 1.461 1_554 S
C12 H32 0.932 . S
C13 C11 1.408 . S
C13 C12 1.310 . S
C13 H33 0.930 . S
C14 C15 1.474 . S
C14 C16 1.321 . S
C14 H34 0.929 . S
C15 C12 1.461 1_556 S
C15 C14 1.474 . S
C16 C11 1.305 1_556 S
C16 C14 1.321 . S
C16 H35 0.936 . S
C17 C20 1.424 1_545 S
C17 C22 1.245 . S
C17 C23 1.428 . S
C18 C21 1.260 1_545 S
C18 C22 1.477 . S
C18 H36 0.932 . S
C19 C20 1.384 . S
C19 C21 1.479 . S
C19 H37 0.929 . S
C20 C17 1.424 1_565 S
C20 C19 1.384 . S
C20 H38 0.928 . S
C21 C18 1.260 1_565 S
C21 C19 1.479 . S
C22 C17 1.245 . S
C22 C18 1.477 . S
C22 H39 0.932 . S
C23 U6 2.882 . S
C23 C17 1.428 . S
C23 O26 1.301 . S
C23 O27 1.282 . S
O24 U6 2.441 . S
O24 C10 1.249 . S
O25 U6 2.420 . S
O25 C10 1.202 . S
O26 U6 2.455 . S
O26 C23 1.301 . S
O27 U6 2.449 . S
O27 C23 1.282 . S
H28 C1 0.931 . S
H29 C3 0.929 . S
H30 C4 0.930 . S
H31 C5 0.931 . S
H32 C12 0.932 . S
H33 C13 0.930 . S
H34 C14 0.929 . S
H35 C16 0.936 . S
H36 C18 0.932 . S
H37 C19 0.929 . S
H38 C20 0.928 . S
H39 C22 0.932 . S
C40 C41 1.264 . S
C40 C45 1.479 . S
C40 C50 1.465 . S
C41 C40 1.264 . S
C41 C43 1.339 . S
C41 H68 0.931 . S
C42 C43 1.395 . S
C42 C44 1.320 . S
C43 C41 1.339 . S
C43 C42 1.395 . S
C43 H69 0.929 . S
C44 C42 1.320 . S
C44 C45 1.405 . S
C44 H70 0.930 . S
C45 C40 1.479 . S
C45 C44 1.405 . S
C45 H71 0.931 . S
U46 O47 2.454 . S
U46 O48 2.458 . S
U46 C49 2.984 . S
U46 C50 2.847 . S
U46 C63 2.882 . S
U46 O64 2.441 . S
U46 O65 2.420 . S
U46 O66 2.455 . S
U46 O67 2.449 . S
O47 U46 2.454 . S
O47 C49 1.353 . S
O48 U46 2.458 . S
O48 C49 1.286 . S
C49 U46 2.984 . S
C49 O47 1.353 . S
C49 O48 1.286 . S
C49 C51 1.363 . S
C50 C40 1.465 . S
C50 U46 2.847 . S
C50 O64 1.249 . S
C50 O65 1.202 . S
C51 C49 1.363 . S
C51 C53 1.408 . S
C51 C56 1.342 . S
C52 C53 1.310 . S
C52 C55 1.461 . S
C52 H72 0.932 . S
C53 C51 1.408 . S
C53 C52 1.310 . S
C53 H73 0.930 . S
C54 C55 1.474 . S
C54 C56 1.285 . S
C54 H74 0.929 . S
C55 C52 1.461 . S
C55 C54 1.474 . S
C56 C51 1.342 . S
C56 C54 1.285 . S
C56 H75 0.930 . S
C57 C60 1.424 . S
C57 C62 1.245 . S
C57 C63 1.428 . S
C58 C61 1.260 . S
C58 C62 1.477 . S
C58 H76 0.932 . S
C59 C60 1.384 . S
C59 C61 1.479 . S
C59 H77 0.929 . S
C60 C57 1.424 . S
C60 C59 1.384 . S
C60 H78 0.928 . S
C61 C58 1.260 . S
C61 C59 1.479 . S
C62 C57 1.245 . S
C62 C58 1.477 . S
C62 H79 0.932 . S
C63 U46 2.882 . S
C63 C57 1.428 . S
C63 O66 1.301 . S
C63 O67 1.282 . S
O64 U46 2.441 . S
O64 C50 1.249 . S
O65 U46 2.420 . S
O65 C50 1.202 . S
O66 U46 2.455 . S
O66 C63 1.301 . S
O67 U46 2.449 . S
O67 C63 1.282 . S
H68 C41 0.931 . S
H69 C43 0.929 . S
H70 C44 0.930 . S
H71 C45 0.931 . S
H72 C52 0.932 . S
H73 C53 0.930 . S
H74 C54 0.929 . S
H75 C56 0.930 . S
H76 C58 0.932 . S
H77 C59 0.929 . S
H78 C60 0.928 . S
H79 C62 0.932 . S
C80 C81 1.264 . S
C80 C85 1.479 . S
C80 C90 1.465 . S
C81 C80 1.264 . S
C81 C83 1.339 . S
C81 H108 0.931 . S
C82 C83 1.395 . S
C82 C84 1.320 1_554 S
C83 C81 1.339 . S
C83 C82 1.395 . S
C83 H109 0.929 . S
C84 C82 1.320 1_556 S
C84 C85 1.405 1_556 S
C84 H110 0.930 . S
C85 C80 1.479 . S
C85 C84 1.405 1_554 S
C85 H111 0.931 . S
U86 O87 2.454 . S
U86 O88 2.458 . S
U86 C89 2.984 . S
U86 C90 2.847 . S
U86 C103 2.882 . S
U86 O104 2.441 . S
U86 O105 2.420 . S
U86 O106 2.455 . S
U86 O107 2.449 . S
O87 U86 2.454 . S
O87 C89 1.353 . S
O88 U86 2.458 . S
O88 C89 1.286 . S
C89 U86 2.984 . S
C89 O87 1.353 . S
C89 O88 1.286 . S
C89 C91 1.363 . S
C90 C80 1.465 . S
C90 U86 2.847 . S
C90 O104 1.249 . S
C90 O105 1.202 . S
C91 C89 1.363 . S
C91 C93 1.408 . S
C91 C96 1.342 . S
C92 C93 1.310 . S
C92 C95 1.461 . S
C92 H112 0.932 . S
C93 C91 1.408 . S
C93 C92 1.310 . S
C93 H113 0.930 . S
C94 C95 1.474 . S
C94 C96 1.285 . S
C94 H114 0.929 . S
C95 C92 1.461 . S
C95 C94 1.474 . S
C96 C91 1.342 . S
C96 C94 1.285 . S
C96 H115 0.930 . S
C97 C100 1.424 . S
C97 C102 1.245 . S
C97 C103 1.428 . S
C98 C101 1.289 . S
C98 C102 1.477 . S
C98 H116 0.932 . S
C99 C100 1.384 1_455 S
C99 C101 1.471 1_455 S
C99 H117 0.929 . S
C100 C97 1.424 . S
C100 C99 1.384 1_655 S
C100 H118 0.928 . S
C101 C98 1.289 . S
C101 C99 1.471 1_655 S
C102 C97 1.245 . S
C102 C98 1.477 . S
C102 H119 0.932 . S
C103 U86 2.882 . S
C103 C97 1.428 . S
C103 O106 1.301 . S
C103 O107 1.282 . S
O104 U86 2.441 . S
O104 C90 1.249 . S
O105 U86 2.420 . S
O105 C90 1.202 . S
O106 U86 2.455 . S
O106 C103 1.301 . S
O107 U86 2.449 . S
O107 C103 1.282 . S
H108 C81 0.931 . S
H109 C83 0.929 . S
H110 C84 0.930 . S
H111 C85 0.931 . S
H112 C92 0.932 . S
H113 C93 0.930 . S
H114 C94 0.929 . S
H115 C96 0.930 . S
H116 C98 0.932 . S
H117 C99 0.929 . S
H118 C100 0.928 . S
H119 C102 0.932 . S
C120 C121 1.264 . S
C120 C125 1.479 . S
C120 C130 1.465 . S
C121 C120 1.264 . S
C121 C123 1.339 . S
C121 H148 0.931 . S
C122 C123 1.395 . S
C122 C124 1.320 . S
C123 C121 1.339 . S
C123 C122 1.395 . S
C123 H149 0.929 . S
C124 C122 1.320 . S
C124 C125 1.405 . S
C124 H150 0.930 . S
C125 C120 1.479 . S
C125 C124 1.405 . S
C125 H151 0.931 . S
U126 O127 2.454 . S
U126 O128 2.458 . S
U126 C129 2.984 . S
U126 C130 2.847 . S
U126 C143 2.882 . S
U126 O144 2.441 . S
U126 O145 2.420 . S
U126 O146 2.455 . S
U126 O147 2.449 . S
O127 U126 2.454 . S
O127 C129 1.353 . S
O128 U126 2.458 . S
O128 C129 1.286 . S
C129 U126 2.984 . S
C129 O127 1.353 . S
C129 O128 1.286 . S
C129 C131 1.363 . S
C130 C120 1.465 . S
C130 U126 2.847 . S
C130 O144 1.249 . S
C130 O145 1.202 . S
C131 C129 1.363 . S
C131 C133 1.408 . S
C131 C136 1.342 . S
C132 C133 1.310 . S
C132 C135 1.461 . S
C132 H152 0.932 . S
C133 C131 1.408 . S
C133 C132 1.310 . S
C133 H153 0.930 . S
C134 C135 1.474 . S
C134 C136 1.285 . S
C134 H154 0.929 . S
C135 C132 1.461 . S
C135 C134 1.474 . S
C136 C131 1.342 . S
C136 C134 1.285 . S
C136 H155 0.930 . S
C137 C140 1.424 . S
C137 C142 1.245 . S
C137 C143 1.428 . S
C138 C141 1.260 . S
C138 C142 1.477 . S
C138 H156 0.932 . S
C139 C140 1.384 . S
C139 C141 1.479 . S
C139 H157 0.929 . S
C140 C137 1.424 . S
C140 C139 1.384 . S
C140 H158 0.928 . S
C141 C138 1.260 . S
C141 C139 1.479 . S
C142 C137 1.245 . S
C142 C138 1.477 . S
C142 H159 0.932 . S
C143 U126 2.882 . S
C143 C137 1.428 . S
C143 O146 1.301 . S
C143 O147 1.282 . S
O144 U126 2.441 . S
O144 C130 1.249 . S
O145 U126 2.420 . S
O145 C130 1.202 . S
O146 U126 2.455 . S
O146 C143 1.301 . S
O147 U126 2.449 . S
O147 C143 1.282 . S
H148 C121 0.931 . S
H149 C123 0.929 . S
H150 C124 0.930 . S
H151 C125 0.931 . S
H152 C132 0.932 . S
H153 C133 0.930 . S
H154 C134 0.929 . S
H155 C136 0.930 . S
H156 C138 0.932 . S
H157 C139 0.929 . S
H158 C140 0.928 . S
H159 C142 0.932 . S
C160 C161 1.264 . S
C160 C165 1.479 . S
C160 C170 1.465 . S
C161 C160 1.264 . S
C161 C163 1.339 . S
C161 H188 0.931 . S
C162 C163 1.395 . S
C162 C164 1.333 . S
C163 C161 1.339 . S
C163 C162 1.395 . S
C163 H189 0.929 . S
C164 C162 1.333 . S
C164 C165 1.430 . S
C164 H190 0.894 1_455 S
C165 C160 1.479 . S
C165 C164 1.430 . S
C165 H191 0.931 . S
U166 O167 2.454 . S
U166 O168 2.458 . S
U166 C169 2.984 . S
U166 C170 2.847 . S
U166 C183 2.882 . S
U166 O184 2.441 . S
U166 O185 2.420 . S
U166 O186 2.455 . S
U166 O187 2.449 . S
O167 U166 2.454 . S
O167 C169 1.353 . S
O168 U166 2.458 . S
O168 C169 1.286 . S
C169 U166 2.984 . S
C169 O167 1.353 . S
C169 O168 1.286 . S
C169 C171 1.363 . S
C170 C160 1.465 . S
C170 U166 2.847 . S
C170 O184 1.249 . S
C170 O185 1.202 . S
C171 C169 1.363 . S
C171 C173 1.408 . S
C171 C176 1.342 . S
C172 C173 1.310 . S
C172 C175 1.461 . S
C172 H192 0.932 . S
C173 C171 1.408 . S
C173 C172 1.310 . S
C173 H193 0.930 . S
C174 C175 1.474 . S
C174 C176 1.285 . S
C174 H194 0.929 . S
C175 C172 1.461 . S
C175 C174 1.474 . S
C176 C171 1.342 . S
C176 C174 1.285 . S
C176 H195 0.930 . S
C177 C180 1.424 . S
C177 C182 1.245 . S
C177 C183 1.428 . S
C178 C181 1.287 . S
C178 C182 1.477 . S
C178 H196 0.932 . S
C179 C180 1.384 1_545 S
C179 C181 1.471 1_545 S
C179 H197 0.929 . S
C180 C177 1.424 . S
C180 C179 1.384 1_565 S
C180 H198 0.928 . S
C181 C178 1.287 . S
C181 C179 1.471 1_565 S
C182 C177 1.245 . S
C182 C178 1.477 . S
C182 H199 0.932 . S
C183 U166 2.882 . S
C183 C177 1.428 . S
C183 O186 1.301 . S
C183 O187 1.282 . S
O184 U166 2.441 . S
O184 C170 1.249 . S
O185 U166 2.420 . S
O185 C170 1.202 . S
O186 U166 2.455 . S
O186 C183 1.301 . S
O187 U166 2.449 . S
O187 C183 1.282 . S
H188 C161 0.931 . S
H189 C163 0.929 . S
H190 C164 0.894 1_655 S
H191 C165 0.931 . S
H192 C172 0.932 . S
H193 C173 0.930 . S
H194 C174 0.929 . S
H195 C176 0.930 . S
H196 C178 0.932 . S
H197 C179 0.929 . S
H198 C180 0.928 . S
H199 C182 0.932 . S
C200 C201 1.264 . S
C200 C205 1.479 . S
C200 C210 1.465 . S
C201 C200 1.264 . S
C201 C203 1.339 . S
C201 H228 0.931 . S
C202 C203 1.395 . S
C202 C204 1.320 . S
C203 C201 1.339 . S
C203 C202 1.395 . S
C203 H229 0.929 . S
C204 C202 1.320 . S
C204 C205 1.405 . S
C204 H230 0.930 . S
C205 C200 1.479 . S
C205 C204 1.405 . S
C205 H231 0.931 . S
U206 O207 2.454 . S
U206 O208 2.458 . S
U206 C209 2.984 . S
U206 C210 2.847 . S
U206 C223 2.882 . S
U206 O224 2.441 . S
U206 O225 2.420 . S
U206 O226 2.455 . S
U206 O227 2.449 . S
O207 U206 2.454 . S
O207 C209 1.353 . S
O208 U206 2.458 . S
O208 C209 1.286 . S
C209 U206 2.984 . S
C209 O207 1.353 . S
C209 O208 1.286 . S
C209 C211 1.363 . S
C210 C200 1.465 . S
C210 U206 2.847 . S
C210 O224 1.249 . S
C210 O225 1.202 . S
C211 C209 1.363 . S
C211 C213 1.408 . S
C211 C216 1.342 . S
C212 C213 1.310 . S
C212 C215 1.461 . S
C212 H232 0.932 . S
C213 C211 1.408 . S
C213 C212 1.310 . S
C213 H233 0.930 . S
C214 C215 1.474 . S
C214 C216 1.285 . S
C214 H234 0.929 . S
C215 C212 1.461 . S
C215 C214 1.474 . S
C216 C211 1.342 . S
C216 C214 1.285 . S
C216 H235 0.930 . S
C217 C220 1.424 . S
C217 C222 1.245 . S
C217 C223 1.428 . S
C218 C221 1.260 . S
C218 C222 1.477 . S
C218 H236 0.932 . S
C219 C220 1.384 . S
C219 C221 1.479 . S
C219 H237 0.929 . S
C220 C217 1.424 . S
C220 C219 1.384 . S
C220 H238 0.928 . S
C221 C218 1.260 . S
C221 C219 1.479 . S
C222 C217 1.245 . S
C222 C218 1.477 . S
C222 H239 0.932 . S
C223 U206 2.882 . S
C223 C217 1.428 . S
C223 O226 1.301 . S
C223 O227 1.282 . S
O224 U206 2.441 . S
O224 C210 1.249 . S
O225 U206 2.420 . S
O225 C210 1.202 . S
O226 U206 2.455 . S
O226 C223 1.301 . S
O227 U206 2.449 . S
O227 C223 1.282 . S
H228 C201 0.931 . S
H229 C203 0.929 . S
H230 C204 0.930 . S
H231 C205 0.931 . S
H232 C212 0.932 . S
H233 C213 0.930 . S
H234 C214 0.929 . S
H235 C216 0.930 . S
H236 C218 0.932 . S
H237 C219 0.929 . S
H238 C220 0.928 . S
H239 C222 0.932 . S
C240 C241 1.264 . S
C240 C245 1.479 . S
C240 C250 1.465 . S
C241 C240 1.264 . S
C241 C243 1.339 . S
C241 H268 0.931 . S
C242 C243 1.395 . S
C242 C244 1.320 . S
C243 C241 1.339 . S
C243 C242 1.395 . S
C243 H269 0.929 . S
C244 C242 1.320 . S
C244 C245 1.405 . S
C244 H270 0.930 . S
C245 C240 1.479 . S
C245 C244 1.405 . S
C245 H271 0.931 . S
U246 O247 2.454 . S
U246 O248 2.458 . S
U246 C249 2.984 . S
U246 C250 2.847 . S
U246 C263 2.882 . S
U246 O264 2.441 . S
U246 O265 2.420 . S
U246 O266 2.455 . S
U246 O267 2.449 . S
O247 U246 2.454 . S
O247 C249 1.353 . S
O248 U246 2.458 . S
O248 C249 1.286 . S
C249 U246 2.984 . S
C249 O247 1.353 . S
C249 O248 1.286 . S
C249 C251 1.363 . S
C250 C240 1.465 . S
C250 U246 2.847 . S
C250 O264 1.249 . S
C250 O265 1.202 . S
C251 C249 1.363 . S
C251 C253 1.408 . S
C251 C256 1.342 . S
C252 C253 1.310 . S
C252 C255 1.461 . S
C252 H272 0.932 . S
C253 C251 1.408 . S
C253 C252 1.310 . S
C253 H273 0.930 . S
C254 C255 1.474 . S
C254 C256 1.285 . S
C254 H274 0.929 . S
C255 C252 1.461 . S
C255 C254 1.474 . S
C256 C251 1.342 . S
C256 C254 1.285 . S
C256 H275 0.930 . S
C257 C260 1.443 . S
C257 C262 1.245 . S
C257 C263 1.428 . S
C258 C261 1.260 1_655 S
C258 C262 1.477 . S
C258 H276 0.932 . S
C259 C260 1.365 1_455 S
C259 C261 1.479 . S
C259 H277 0.929 . S
C260 C257 1.443 . S
C260 C259 1.365 1_655 S
C260 H278 0.928 . S
C261 C258 1.260 1_455 S
C261 C259 1.479 . S
C262 C257 1.245 . S
C262 C258 1.477 . S
C262 H279 0.932 . S
C263 U246 2.882 . S
C263 C257 1.428 . S
C263 O266 1.301 . S
C263 O267 1.282 . S
O264 U246 2.441 . S
O264 C250 1.249 . S
O265 U246 2.420 . S
O265 C250 1.202 . S
O266 U246 2.455 . S
O266 C263 1.301 . S
O267 U246 2.449 . S
O267 C263 1.282 . S
H268 C241 0.931 . S
H269 C243 0.929 . S
H270 C244 0.930 . S
H271 C245 0.931 . S
H272 C252 0.932 . S
H273 C253 0.930 . S
H274 C254 0.929 . S
H275 C256 0.930 . S
H276 C258 0.932 . S
H277 C259 0.929 . S
H278 C260 0.928 . S
H279 C262 0.932 . S
C280 C281 1.264 . S
C280 C285 1.479 . S
C280 C290 1.465 . S
C281 C280 1.264 . S
C281 C283 1.339 . S
C281 H308 0.931 . S
C282 C283 1.395 . S
C282 C284 1.320 . S
C283 C281 1.339 . S
C283 C282 1.395 . S
C283 H309 0.929 . S
C284 C282 1.320 . S
C284 C285 1.405 . S
C284 H310 0.930 . S
C285 C280 1.479 . S
C285 C284 1.405 . S
C285 H311 0.931 . S
U286 O287 2.454 . S
U286 O288 2.458 . S
U286 C289 2.984 . S
U286 C290 2.847 . S
U286 C303 2.882 . S
U286 O304 2.441 . S
U286 O305 2.420 . S
U286 O306 2.455 . S
U286 O307 2.449 . S
O287 U286 2.454 . S
O287 C289 1.353 . S
O288 U286 2.458 . S
O288 C289 1.286 . S
C289 U286 2.984 . S
C289 O287 1.353 . S
C289 O288 1.286 . S
C289 C291 1.363 . S
C290 C280 1.465 . S
C290 U286 2.847 . S
C290 O304 1.249 . S
C290 O305 1.202 . S
C291 C289 1.363 . S
C291 C293 1.408 . S
C291 C296 1.342 . S
C292 C293 1.310 . S
C292 C295 1.461 . S
C292 H312 0.932 . S
C293 C291 1.408 . S
C293 C292 1.310 . S
C293 H313 0.930 . S
C294 C295 1.474 . S
C294 C296 1.285 . S
C294 H314 0.929 . S
C295 C292 1.461 . S
C295 C294 1.474 . S
C296 C291 1.342 . S
C296 C294 1.285 . S
C296 H315 0.930 . S
C297 C300 1.424 . S
C297 C302 1.245 . S
C297 C303 1.428 . S
C298 C301 1.260 . S
C298 C302 1.477 . S
C298 H316 0.932 . S
C299 C300 1.384 . S
C299 C301 1.479 . S
C299 H317 0.929 . S
C300 C297 1.424 . S
C300 C299 1.384 . S
C300 H318 0.928 . S
C301 C298 1.260 . S
C301 C299 1.479 . S
C302 C297 1.245 . S
C302 C298 1.477 . S
C302 H319 0.932 . S
C303 U286 2.882 . S
C303 C297 1.428 . S
C303 O306 1.301 . S
C303 O307 1.282 . S
O304 U286 2.441 . S
O304 C290 1.249 . S
O305 U286 2.420 . S
O305 C290 1.202 . S
O306 U286 2.455 . S
O306 C303 1.301 . S
O307 U286 2.449 . S
O307 C303 1.282 . S
H308 C281 0.931 . S
H309 C283 0.929 . S
H310 C284 0.930 . S
H311 C285 0.931 . S
H312 C292 0.932 . S
H313 C293 0.930 . S
H314 C294 0.929 . S
H315 C296 0.930 . S
H316 C298 0.932 . S
H317 C299 0.929 . S
H318 C300 0.928 . S
H319 C302 0.932 . S
C320 C321 1.264 . S
C320 C325 1.479 . S
C320 C330 1.465 . S
C321 C320 1.264 . S
C321 C323 1.339 . S
C321 H348 0.931 . S
C322 C323 1.395 . S
C322 C324 1.320 . S
C323 C321 1.339 . S
C323 C322 1.395 . S
C323 H349 0.929 . S
C324 C322 1.320 . S
C324 C325 1.405 . S
C324 H350 0.930 . S
C325 C320 1.479 . S
C325 C324 1.405 . S
C325 H351 0.931 . S
U326 O327 2.454 . S
U326 O328 2.458 . S
U326 C329 2.984 . S
U326 C330 2.847 . S
U326 C343 2.882 . S
U326 O344 2.441 . S
U326 O345 2.420 . S
U326 O346 2.455 . S
U326 O347 2.449 . S
O327 U326 2.454 . S
O327 C329 1.353 . S
O328 U326 2.458 . S
O328 C329 1.286 . S
C329 U326 2.984 . S
C329 O327 1.353 . S
C329 O328 1.286 . S
C329 C331 1.363 . S
C330 C320 1.465 . S
C330 U326 2.847 . S
C330 O344 1.249 . S
C330 O345 1.202 . S
C331 C329 1.363 . S
C331 C333 1.408 . S
C331 C336 1.342 . S
C332 C333 1.310 . S
C332 C335 1.461 . S
C332 H352 0.932 . S
C333 C331 1.408 . S
C333 C332 1.310 . S
C333 H353 0.930 . S
C334 C335 1.474 . S
C334 C336 1.285 . S
C334 H354 0.929 . S
C335 C332 1.461 . S
C335 C334 1.474 . S
C336 C331 1.342 . S
C336 C334 1.285 . S
C336 H355 0.930 . S
C337 C340 1.424 . S
C337 C342 1.245 . S
C337 C343 1.428 . S
C338 C341 1.260 . S
C338 C342 1.477 . S
C338 H356 0.932 . S
C339 C340 1.384 . S
C339 C341 1.479 . S
C339 H357 0.929 . S
C340 C337 1.424 . S
C340 C339 1.384 . S
C340 H358 0.928 . S
C341 C338 1.260 . S
C341 C339 1.479 . S
C342 C337 1.245 . S
C342 C338 1.477 . S
C342 H359 0.932 . S
C343 U326 2.882 . S
C343 C337 1.428 . S
C343 O346 1.301 . S
C343 O347 1.282 . S
O344 U326 2.441 . S
O344 C330 1.249 . S
O345 U326 2.420 . S
O345 C330 1.202 . S
O346 U326 2.455 . S
O346 C343 1.301 . S
O347 U326 2.449 . S
O347 C343 1.282 . S
H348 C321 0.931 . S
H349 C323 0.929 . S
H350 C324 0.930 . S
H351 C325 0.931 . S
H352 C332 0.932 . S
H353 C333 0.930 . S
H354 C334 0.929 . S
H355 C336 0.930 . S
H356 C338 0.932 . S
H357 C339 0.929 . S
H358 C340 0.928 . S
H359 C342 0.932 . S
C360 C361 1.264 . S
C360 C365 1.479 . S
C360 C370 1.465 . S
C361 C360 1.264 . S
C361 C363 1.339 . S
C361 H388 0.931 . S
C362 C363 1.395 . S
C362 C364 1.320 . S
C363 C361 1.339 . S
C363 C362 1.395 . S
C363 H389 0.929 . S
C364 C362 1.320 . S
C364 C365 1.405 . S
C364 H390 0.930 . S
C365 C360 1.479 . S
C365 C364 1.405 . S
C365 H391 0.931 . S
U366 O367 2.454 . S
U366 O368 2.458 . S
U366 C369 2.984 . S
U366 C370 2.847 . S
U366 C383 2.882 . S
U366 O384 2.441 . S
U366 O385 2.420 . S
U366 O386 2.455 . S
U366 O387 2.449 . S
O367 U366 2.454 . S
O367 C369 1.353 . S
O368 U366 2.458 . S
O368 C369 1.286 . S
C369 U366 2.984 . S
C369 O367 1.353 . S
C369 O368 1.286 . S
C369 C371 1.363 . S
C370 C360 1.465 . S
C370 U366 2.847 . S
C370 O384 1.249 . S
C370 O385 1.202 . S
C371 C369 1.363 . S
C371 C373 1.408 . S
C371 C376 1.342 . S
C372 C373 1.310 . S
C372 C375 1.461 1_565 S
C372 H392 0.932 . S
C373 C371 1.408 . S
C373 C372 1.310 . S
C373 H393 0.930 . S
C374 C375 1.474 . S
C374 C376 1.285 1_545 S
C374 H394 0.929 . S
C375 C372 1.461 1_545 S
C375 C374 1.474 . S
C376 C371 1.342 . S
C376 C374 1.285 1_565 S
C376 H395 0.932 . S
C377 C380 1.424 . S
C377 C382 1.245 . S
C377 C383 1.428 . S
C378 C381 1.260 . S
C378 C382 1.477 . S
C378 H396 0.932 . S
C379 C380 1.384 . S
C379 C381 1.479 . S
C379 H397 0.929 . S
C380 C377 1.424 . S
C380 C379 1.384 . S
C380 H398 0.928 . S
C381 C378 1.260 . S
C381 C379 1.479 . S
C382 C377 1.245 . S
C382 C378 1.477 . S
C382 H399 0.932 . S
C383 U366 2.882 . S
C383 C377 1.428 . S
C383 O386 1.301 . S
C383 O387 1.282 . S
O384 U366 2.441 . S
O384 C370 1.249 . S
O385 U366 2.420 . S
O385 C370 1.202 . S
O386 U366 2.455 . S
O386 C383 1.301 . S
O387 U366 2.449 . S
O387 C383 1.282 . S
H388 C361 0.931 . S
H389 C363 0.929 . S
H390 C364 0.930 . S
H391 C365 0.931 . S
H392 C372 0.932 . S
H393 C373 0.930 . S
H394 C374 0.929 . S
H395 C376 0.932 . S
H396 C378 0.932 . S
H397 C379 0.929 . S
H398 C380 0.928 . S
H399 C382 0.932 . S
C400 C401 1.264 . S
C400 C405 1.479 . S
C400 C410 1.465 . S
C401 C400 1.264 . S
C401 C403 1.339 . S
C401 H428 0.931 . S
C402 C403 1.395 . S
C402 C404 1.320 . S
C403 C401 1.339 . S
C403 C402 1.395 . S
C403 H429 0.929 . S
C404 C402 1.320 . S
C404 C405 1.405 . S
C404 H430 0.930 . S
C405 C400 1.479 . S
C405 C404 1.405 . S
C405 H431 0.931 . S
U406 O407 2.454 . S
U406 O408 2.458 . S
U406 C409 2.984 . S
U406 C410 2.847 . S
U406 C423 2.882 . S
U406 O424 2.441 . S
U406 O425 2.420 . S
U406 O426 2.455 . S
U406 O427 2.449 . S
O407 U406 2.454 . S
O407 C409 1.353 . S
O408 U406 2.458 . S
O408 C409 1.286 . S
C409 U406 2.984 . S
C409 O407 1.353 . S
C409 O408 1.286 . S
C409 C411 1.363 . S
C410 C400 1.465 . S
C410 U406 2.847 . S
C410 O424 1.249 . S
C410 O425 1.202 . S
C411 C409 1.363 . S
C411 C413 1.408 . S
C411 C416 1.342 . S
C412 C413 1.310 . S
C412 C415 1.461 . S
C412 H432 0.932 . S
C413 C411 1.408 . S
C413 C412 1.310 . S
C413 H433 0.930 . S
C414 C415 1.474 . S
C414 C416 1.285 . S
C414 H434 0.929 . S
C415 C412 1.461 . S
C415 C414 1.474 . S
C416 C411 1.342 . S
C416 C414 1.285 . S
C416 H435 0.930 . S
C417 C420 1.424 . S
C417 C422 1.245 . S
C417 C423 1.428 . S
C418 C421 1.260 . S
C418 C422 1.477 . S
C418 H436 0.932 . S
C419 C420 1.384 . S
C419 C421 1.479 . S
C419 H437 0.929 . S
C420 C417 1.424 . S
C420 C419 1.384 . S
C420 H438 0.928 . S
C421 C418 1.260 . S
C421 C419 1.479 . S
C422 C417 1.245 . S
C422 C418 1.477 . S
C422 H439 0.932 . S
C423 U406 2.882 . S
C423 C417 1.428 . S
C423 O426 1.301 . S
C423 O427 1.282 . S
O424 U406 2.441 . S
O424 C410 1.249 . S
O425 U406 2.420 . S
O425 C410 1.202 . S
O426 U406 2.455 . S
O426 C423 1.301 . S
O427 U406 2.449 . S
O427 C423 1.282 . S
H428 C401 0.931 . S
H429 C403 0.929 . S
H430 C404 0.930 . S
H431 C405 0.931 . S
H432 C412 0.932 . S
H433 C413 0.930 . S
H434 C414 0.929 . S
H435 C416 0.930 . S
H436 C418 0.932 . S
H437 C419 0.929 . S
H438 C420 0.928 . S
H439 C422 0.932 . S
C440 C441 1.264 . S
C440 C445 1.479 . S
C440 C450 1.465 . S
C441 C440 1.264 . S
C441 C443 1.339 . S
C441 H468 0.931 . S
C442 C443 1.395 . S
C442 C444 1.320 . S
C443 C441 1.339 . S
C443 C442 1.395 . S
C443 H469 0.929 . S
C444 C442 1.320 . S
C444 C445 1.405 . S
C444 H470 0.930 . S
C445 C440 1.479 . S
C445 C444 1.405 . S
C445 H471 0.931 . S
U446 O447 2.454 . S
U446 O448 2.458 . S
U446 C449 2.984 . S
U446 C450 2.847 . S
U446 C463 2.882 . S
U446 O464 2.441 . S
U446 O465 2.420 . S
U446 O466 2.455 . S
U446 O467 2.449 . S
O447 U446 2.454 . S
O447 C449 1.353 . S
O448 U446 2.458 . S
O448 C449 1.286 . S
C449 U446 2.984 . S
C449 O447 1.353 . S
C449 O448 1.286 . S
C449 C451 1.363 . S
C450 C440 1.465 . S
C450 U446 2.847 . S
C450 O464 1.249 . S
C450 O465 1.202 . S
C451 C449 1.363 . S
C451 C453 1.408 . S
C451 C456 1.342 . S
C452 C453 1.310 . S
C452 C455 1.461 . S
C452 H472 0.932 . S
C453 C451 1.408 . S
C453 C452 1.310 . S
C453 H473 0.930 . S
C454 C455 1.474 . S
C454 C456 1.285 . S
C454 H474 0.929 . S
C455 C452 1.461 . S
C455 C454 1.474 . S
C456 C451 1.342 . S
C456 C454 1.285 . S
C456 H475 0.930 . S
C457 C460 1.424 . S
C457 C462 1.245 . S
C457 C463 1.428 . S
C458 C461 1.260 . S
C458 C462 1.477 . S
C458 H476 0.932 . S
C459 C460 1.384 . S
C459 C461 1.479 . S
C459 H477 0.929 . S
C460 C457 1.424 . S
C460 C459 1.384 . S
C460 H478 0.928 . S
C461 C458 1.260 . S
C461 C459 1.479 . S
C462 C457 1.245 . S
C462 C458 1.477 . S
C462 H479 0.932 . S
C463 U446 2.882 . S
C463 C457 1.428 . S
C463 O466 1.301 . S
C463 O467 1.282 . S
O464 U446 2.441 . S
O464 C450 1.249 . S
O465 U446 2.420 . S
O465 C450 1.202 . S
O466 U446 2.455 . S
O466 C463 1.301 . S
O467 U446 2.449 . S
O467 C463 1.282 . S
H468 C441 0.931 . S
H469 C443 0.929 . S
H470 C444 0.930 . S
H471 C445 0.931 . S
H472 C452 0.932 . S
H473 C453 0.930 . S
H474 C454 0.929 . S
H475 C456 0.930 . S
H476 C458 0.932 . S
H477 C459 0.929 . S
H478 C460 0.928 . S
H479 C462 0.932 . S
C480 C481 1.264 . S
C480 C485 1.479 . S
C480 C490 1.465 . S
C481 C480 1.264 . S
C481 C483 1.339 . S
C481 H508 0.931 . S
C482 C483 1.395 . S
C482 C484 1.320 . S
C483 C481 1.339 . S
C483 C482 1.395 . S
C483 H509 0.929 . S
C484 C482 1.320 . S
C484 C485 1.405 . S
C484 H510 0.930 . S
C485 C480 1.479 . S
C485 C484 1.405 . S
C485 H511 0.931 . S
U486 O487 2.454 . S
U486 O488 2.458 . S
U486 C489 2.984 . S
U486 C490 2.847 . S
U486 C503 2.882 . S
U486 O504 2.441 . S
U486 O505 2.420 . S
U486 O506 2.455 . S
U486 O507 2.449 . S
O487 U486 2.454 . S
O487 C489 1.353 . S
O488 U486 2.458 . S
O488 C489 1.286 . S
C489 U486 2.984 . S
C489 O487 1.353 . S
C489 O488 1.286 . S
C489 C491 1.363 . S
C490 C480 1.465 . S
C490 U486 2.847 . S
C490 O504 1.249 . S
C490 O505 1.202 . S
C491 C489 1.363 . S
C491 C493 1.408 . S
C491 C496 1.342 . S
C492 C493 1.310 . S
C492 C495 1.461 . S
C492 H512 0.932 . S
C493 C491 1.408 . S
C493 C492 1.310 . S
C493 H513 0.930 . S
C494 C495 1.474 . S
C494 C496 1.285 . S
C494 H514 0.929 . S
C495 C492 1.461 . S
C495 C494 1.474 . S
C496 C491 1.342 . S
C496 C494 1.285 . S
C496 H515 0.930 . S
C497 C500 1.424 . S
C497 C502 1.245 . S
C497 C503 1.428 . S
C498 C501 1.260 . S
C498 C502 1.477 . S
C498 H516 0.932 . S
C499 C500 1.384 . S
C499 C501 1.479 . S
C499 H517 0.929 . S
C500 C497 1.424 . S
C500 C499 1.384 . S
C500 H518 0.928 . S
C501 C498 1.260 . S
C501 C499 1.479 . S
C502 C497 1.245 . S
C502 C498 1.477 . S
C502 H519 0.932 . S
C503 U486 2.882 . S
C503 C497 1.428 . S
C503 O506 1.301 . S
C503 O507 1.282 . S
O504 U486 2.441 . S
O504 C490 1.249 . S
O505 U486 2.420 . S
O505 C490 1.202 . S
O506 U486 2.455 . S
O506 C503 1.301 . S
O507 U486 2.449 . S
O507 C503 1.282 . S
H508 C481 0.931 . S
H509 C483 0.929 . S
H510 C484 0.930 . S
H511 C485 0.931 . S
H512 C492 0.932 . S
H513 C493 0.930 . S
H514 C494 0.929 . S
H515 C496 0.930 . S
H516 C498 0.932 . S
H517 C499 0.929 . S
H518 C500 0.928 . S
H519 C502 0.932 . S
C520 C521 1.264 . S
C520 C525 1.479 . S
C520 C530 1.465 . S
C521 C520 1.264 . S
C521 C523 1.339 . S
C521 H548 0.931 . S
C522 C523 1.395 . S
C522 C524 1.320 . S
C523 C521 1.339 . S
C523 C522 1.395 . S
C523 H549 0.929 . S
C524 C522 1.320 . S
C524 C525 1.405 . S
C524 H550 0.930 . S
C525 C520 1.479 . S
C525 C524 1.405 . S
C525 H551 0.931 . S
U526 O527 2.454 . S
U526 O528 2.458 . S
U526 C529 2.984 . S
U526 C530 2.847 . S
U526 C543 2.882 . S
U526 O544 2.441 . S
U526 O545 2.420 . S
U526 O546 2.455 . S
U526 O547 2.449 . S
O527 U526 2.454 . S
O527 C529 1.353 . S
O528 U526 2.458 . S
O528 C529 1.286 . S
C529 U526 2.984 . S
C529 O527 1.353 . S
C529 O528 1.286 . S
C529 C531 1.363 . S
C530 C520 1.465 . S
C530 U526 2.847 . S
C530 O544 1.249 . S
C530 O545 1.202 . S
C531 C529 1.363 . S
C531 C533 1.408 . S
C531 C536 1.342 . S
C532 C533 1.310 . S
C532 C535 1.461 1_556 S
C532 H552 0.932 . S
C533 C531 1.408 . S
C533 C532 1.310 . S
C533 H553 0.930 . S
C534 C535 1.474 . S
C534 C536 1.285 1_554 S
C534 H554 0.929 . S
C535 C532 1.461 1_554 S
C535 C534 1.474 . S
C536 C531 1.342 . S
C536 C534 1.285 1_556 S
C536 H555 0.930 . S
C537 C540 1.424 . S
C537 C542 1.245 . S
C537 C543 1.428 . S
C538 C541 1.260 . S
C538 C542 1.477 . S
C538 H556 0.932 . S
C539 C540 1.384 . S
C539 C541 1.479 . S
C539 H557 0.929 . S
C540 C537 1.424 . S
C540 C539 1.384 . S
C540 H558 0.928 . S
C541 C538 1.260 . S
C541 C539 1.479 . S
C542 C537 1.245 . S
C542 C538 1.477 . S
C542 H559 0.932 . S
C543 U526 2.882 . S
C543 C537 1.428 . S
C543 O546 1.301 . S
C543 O547 1.282 . S
O544 U526 2.441 . S
O544 C530 1.249 . S
O545 U526 2.420 . S
O545 C530 1.202 . S
O546 U526 2.455 . S
O546 C543 1.301 . S
O547 U526 2.449 . S
O547 C543 1.282 . S
H548 C521 0.931 . S
H549 C523 0.929 . S
H550 C524 0.930 . S
H551 C525 0.931 . S
H552 C532 0.932 . S
H553 C533 0.930 . S
H554 C534 0.929 . S
H555 C536 0.930 . S
H556 C538 0.932 . S
H557 C539 0.929 . S
H558 C540 0.928 . S
H559 C542 0.932 . S
C560 C561 1.264 . S
C560 C565 1.479 . S
C560 C570 1.465 . S
C561 C560 1.264 . S
C561 C563 1.339 . S
C561 H588 0.931 . S
C562 C563 1.395 . S
C562 C564 1.320 . S
C563 C561 1.339 . S
C563 C562 1.395 . S
C563 H589 0.929 . S
C564 C562 1.320 . S
C564 C565 1.405 . S
C564 H590 0.930 . S
C565 C560 1.479 . S
C565 C564 1.405 . S
C565 H591 0.931 . S
U566 O567 2.454 . S
U566 O568 2.458 . S
U566 C569 2.984 . S
U566 C570 2.847 . S
U566 C583 2.882 . S
U566 O584 2.441 . S
U566 O585 2.420 . S
U566 O586 2.455 . S
U566 O587 2.449 . S
O567 U566 2.454 . S
O567 C569 1.353 . S
O568 U566 2.458 . S
O568 C569 1.286 . S
C569 U566 2.984 . S
C569 O567 1.353 . S
C569 O568 1.286 . S
C569 C571 1.363 . S
C570 C560 1.465 . S
C570 U566 2.847 . S
C570 O584 1.249 . S
C570 O585 1.202 . S
C571 C569 1.363 . S
C571 C573 1.408 . S
C571 C576 1.342 . S
C572 C573 1.310 . S
C572 C575 1.461 . S
C572 H592 0.932 . S
C573 C571 1.408 . S
C573 C572 1.310 . S
C573 H593 0.930 . S
C574 C575 1.474 . S
C574 C576 1.285 . S
C574 H594 0.929 . S
C575 C572 1.461 . S
C575 C574 1.474 . S
C576 C571 1.342 . S
C576 C574 1.285 . S
C576 H595 0.930 . S
C577 C580 1.424 . S
C577 C582 1.245 . S
C577 C583 1.428 . S
C578 C581 1.260 . S
C578 C582 1.477 . S
C578 H596 0.932 . S
C579 C580 1.384 . S
C579 C581 1.479 . S
C579 H597 0.929 . S
C580 C577 1.424 . S
C580 C579 1.384 . S
C580 H598 0.928 . S
C581 C578 1.260 . S
C581 C579 1.479 . S
C582 C577 1.245 . S
C582 C578 1.477 . S
C582 H599 0.932 . S
C583 U566 2.882 . S
C583 C577 1.428 . S
C583 O586 1.301 . S
C583 O587 1.282 . S
O584 U566 2.441 . S
O584 C570 1.249 . S
O585 U566 2.420 . S
O585 C570 1.202 . S
O586 U566 2.455 . S
O586 C583 1.301 . S
O587 U566 2.449 . S
O587 C583 1.282 . S
H588 C561 0.931 . S
H589 C563 0.929 . S
H590 C564 0.930 . S
H591 C565 0.931 . S
H592 C572 0.932 . S
H593 C573 0.930 . S
H594 C574 0.929 . S
H595 C576 0.930 . S
H596 C578 0.932 . S
H597 C579 0.929 . S
H598 C580 0.928 . S
H599 C582 0.932 . S
C600 C601 1.264 . S
C600 C605 1.479 . S
C600 C610 1.465 . S
C601 C600 1.264 . S
C601 C603 1.339 . S
C601 H628 0.931 . S
C602 C603 1.433 . S
C602 C604 1.308 1_556 S
C603 C601 1.339 . S
C603 C602 1.433 . S
C603 H629 0.929 . S
C604 C602 1.308 1_554 S
C604 C605 1.405 1_554 S
C604 H630 0.930 . S
C605 C600 1.479 . S
C605 C604 1.405 1_556 S
C605 H631 0.931 . S
U606 O607 2.454 . S
U606 O608 2.458 . S
U606 C609 2.984 . S
U606 C610 2.847 . S
U606 C623 2.882 . S
U606 O624 2.441 . S
U606 O625 2.420 . S
U606 O626 2.455 . S
U606 O627 2.449 . S
O607 U606 2.454 . S
O607 C609 1.353 . S
O608 U606 2.458 . S
O608 C609 1.286 . S
C609 U606 2.984 . S
C609 O607 1.353 . S
C609 O608 1.286 . S
C609 C611 1.363 . S
C610 C600 1.465 . S
C610 U606 2.847 . S
C610 O624 1.249 . S
C610 O625 1.202 . S
C611 C609 1.363 . S
C611 C613 1.408 . S
C611 C616 1.342 . S
C612 C613 1.310 . S
C612 C615 1.461 . S
C612 H632 0.932 . S
C613 C611 1.408 . S
C613 C612 1.310 . S
C613 H633 0.930 . S
C614 C615 1.476 . S
C614 C616 1.308 . S
C614 H634 0.905 1_545 S
C615 C612 1.461 . S
C615 C614 1.476 . S
C616 C611 1.342 . S
C616 C614 1.308 . S
C616 H635 0.930 . S
C617 C620 1.424 . S
C617 C622 1.245 . S
C617 C623 1.428 . S
C618 C621 1.260 . S
C618 C622 1.477 . S
C618 H636 0.932 . S
C619 C620 1.384 . S
C619 C621 1.479 . S
C619 H637 0.929 . S
C620 C617 1.424 . S
C620 C619 1.384 . S
C620 H638 0.928 . S
C621 C618 1.260 . S
C621 C619 1.479 . S
C622 C617 1.245 . S
C622 C618 1.477 . S
C622 H639 0.932 . S
C623 U606 2.882 . S
C623 C617 1.428 . S
C623 O626 1.301 . S
C623 O627 1.282 . S
O624 U606 2.441 . S
O624 C610 1.249 . S
O625 U606 2.420 . S
O625 C610 1.202 . S
O626 U606 2.455 . S
O626 C623 1.301 . S
O627 U606 2.449 . S
O627 C623 1.282 . S
H628 C601 0.931 . S
H629 C603 0.929 . S
H630 C604 0.930 . S
H631 C605 0.931 . S
H632 C612 0.932 . S
H633 C613 0.930 . S
H634 C614 0.905 1_565 S
H635 C616 0.930 . S
H636 C618 0.932 . S
H637 C619 0.929 . S
H638 C620 0.928 . S
H639 C622 0.932 . S
Zn640 O643 2.031 . S
Zn640 O645 2.049 1_554 S
Zn640 O650 2.067 1_554 S
Zn641 O642 1.962 . S
Zn641 O644 1.986 . S
Zn641 O646 1.996 . S
Zn641 O649 1.943 1_554 S
O642 Zn641 1.962 . S
O642 C647 1.254 . S
O643 Zn640 2.031 . S
O643 C647 1.269 . S
O644 Zn641 1.986 . S
O644 C651 1.262 . S
O645 Zn640 2.049 1_556 S
O645 C653 1.260 . S
O646 Zn641 1.996 . S
O646 C653 1.257 1_554 S
C647 O642 1.254 . S
C647 O643 1.269 . S
C648 O649 1.249 . S
C648 O650 1.270 . S
O649 Zn641 1.943 1_556 S
O649 C648 1.249 . S
O650 Zn640 2.067 1_556 S
O650 C648 1.270 . S
C651 O644 1.262 . S
C651 O652 1.232 . S
O652 C651 1.232 . S
C653 O645 1.260 . S
C653 O646 1.257 1_556 S
Zn654 O657 2.031 . S
Zn654 O659 2.049 . S
Zn654 O664 2.067 . S
Zn655 O656 1.962 . S
Zn655 O658 1.986 . S
Zn655 O660 1.996 . S
Zn655 O663 1.943 . S
O656 Zn655 1.962 . S
O656 C661 1.254 . S
O657 Zn654 2.031 . S
O657 C661 1.269 . S
O658 Zn655 1.986 . S
O658 C665 1.262 . S
O659 Zn654 2.049 . S
O659 C667 1.260 . S
O660 Zn655 1.996 . S
O660 C667 1.257 . S
C661 O656 1.254 . S
C661 O657 1.269 . S
C662 O663 1.249 . S
C662 O664 1.270 . S
O663 Zn655 1.943 . S
O663 C662 1.249 . S
O664 Zn654 2.067 . S
O664 C662 1.270 . S
C665 O658 1.262 . S
C665 O666 1.232 . S
O666 C665 1.232 . S
C667 O659 1.260 . S
C667 O660 1.257 . S
Zn668 O671 2.031 . S
Zn668 O673 2.049 . S
Zn668 O678 2.067 . S
Zn669 O670 1.962 . S
Zn669 O672 1.986 . S
Zn669 O674 1.996 1_554 S
Zn669 O677 1.943 . S
O670 Zn669 1.962 . S
O670 C675 1.254 . S
O671 Zn668 2.031 . S
O671 C675 1.269 1_556 S
O672 Zn669 1.986 . S
O672 C679 1.262 . S
O673 Zn668 2.049 . S
O673 C681 1.260 . S
O674 Zn669 1.996 1_556 S
O674 C681 1.257 . S
C675 O670 1.254 . S
C675 O671 1.269 1_554 S
C676 O677 1.249 1_556 S
C676 O678 1.270 . S
O677 Zn669 1.943 . S
O677 C676 1.249 1_554 S
O678 Zn668 2.067 . S
O678 C676 1.270 . S
C679 O672 1.262 . S
C679 O680 1.232 . S
O680 C679 1.232 . S
C681 O673 1.260 . S
C681 O674 1.257 . S
Zn682 O685 2.048 . S
Zn682 O687 2.037 1_545 S
Zn682 O692 2.044 1_545 S
Zn683 O684 1.962 . S
Zn683 O686 1.986 . S
Zn683 O688 1.996 . S
Zn683 O691 1.943 1_545 S
O684 Zn683 1.962 . S
O684 C689 1.254 . S
O685 Zn682 2.048 . S
O685 C689 1.269 . S
O686 Zn683 1.986 . S
O686 C693 1.262 . S
O687 Zn682 2.037 1_565 S
O687 C695 1.260 . S
O688 Zn683 1.996 . S
O688 C695 1.257 1_545 S
C689 O684 1.254 . S
C689 O685 1.269 . S
C690 O691 1.249 . S
C690 O692 1.270 . S
O691 Zn683 1.943 1_565 S
O691 C690 1.249 . S
O692 Zn682 2.044 1_565 S
O692 C690 1.270 . S
C693 O686 1.262 . S
C693 O694 1.232 . S
O694 C693 1.232 . S
C695 O687 1.260 . S
C695 O688 1.257 1_565 S
Zn696 O699 2.031 . S
Zn696 O701 2.049 . S
Zn696 O706 2.067 . S
Zn697 O698 1.962 . S
Zn697 O700 1.986 . S
Zn697 O702 1.996 . S
Zn697 O705 1.943 . S
O698 Zn697 1.962 . S
O698 C703 1.254 . S
O699 Zn696 2.031 . S
O699 C703 1.269 . S
O700 Zn697 1.986 . S
O700 C707 1.262 . S
O701 Zn696 2.049 . S
O701 C709 1.260 . S
O702 Zn697 1.996 . S
O702 C709 1.257 . S
C703 O698 1.254 . S
C703 O699 1.269 . S
C704 O705 1.249 . S
C704 O706 1.270 . S
O705 Zn697 1.943 . S
O705 C704 1.249 . S
O706 Zn696 2.067 . S
O706 C704 1.270 . S
C707 O700 1.262 . S
C707 O708 1.232 . S
O708 C707 1.232 . S
C709 O701 1.260 . S
C709 O702 1.257 . S
Zn710 O713 2.031 . S
Zn710 O715 2.049 . S
Zn710 O720 2.067 . S
Zn711 O712 1.962 . S
Zn711 O714 1.986 . S
Zn711 O716 1.996 . S
Zn711 O719 1.943 . S
O712 Zn711 1.962 . S
O712 C717 1.254 . S
O713 Zn710 2.031 . S
O713 C717 1.269 . S
O714 Zn711 1.986 . S
O714 C721 1.262 . S
O715 Zn710 2.049 . S
O715 C723 1.260 . S
O716 Zn711 1.996 . S
O716 C723 1.257 . S
C717 O712 1.254 . S
C717 O713 1.269 . S
C718 O719 1.249 . S
C718 O720 1.270 . S
O719 Zn711 1.943 . S
O719 C718 1.249 . S
O720 Zn710 2.067 . S
O720 C718 1.270 . S
C721 O714 1.262 . S
C721 O722 1.232 . S
O722 C721 1.232 . S
C723 O715 1.260 . S
C723 O716 1.257 . S
Zn724 O727 2.031 . S
Zn724 O729 2.049 . S
Zn724 O734 2.067 . S
Zn725 O726 1.962 . S
Zn725 O728 1.986 . S
Zn725 O730 1.996 . S
Zn725 O733 1.943 . S
O726 Zn725 1.962 . S
O726 C731 1.254 . S
O727 Zn724 2.031 . S
O727 C731 1.269 . S
O728 Zn725 1.986 . S
O728 C735 1.262 . S
O729 Zn724 2.049 . S
O729 C737 1.260 . S
O730 Zn725 1.996 . S
O730 C737 1.257 . S
C731 O726 1.254 . S
C731 O727 1.269 . S
C732 O733 1.249 . S
C732 O734 1.270 . S
O733 Zn725 1.943 . S
O733 C732 1.249 . S
O734 Zn724 2.067 . S
O734 C732 1.270 . S
C735 O728 1.262 . S
C735 O736 1.232 . S
O736 C735 1.232 . S
C737 O729 1.260 . S
C737 O730 1.257 . S
Zn738 O741 2.031 . S
Zn738 O743 2.049 . S
Zn738 O748 2.067 . S
Zn739 O740 1.962 . S
Zn739 O742 1.986 . S
Zn739 O744 1.996 1_545 S
Zn739 O747 1.943 . S
O740 Zn739 1.962 . S
O740 C745 1.254 . S
O741 Zn738 2.031 . S
O741 C745 1.269 1_565 S
O742 Zn739 1.986 . S
O742 C749 1.262 . S
O743 Zn738 2.049 . S
O743 C751 1.260 . S
O744 Zn739 1.996 1_565 S
O744 C751 1.257 . S
C745 O740 1.254 . S
C745 O741 1.269 1_545 S
C746 O747 1.249 1_565 S
C746 O748 1.270 . S
O747 Zn739 1.943 . S
O747 C746 1.249 1_545 S
O748 Zn738 2.067 . S
O748 C746 1.270 . S
C749 O742 1.262 . S
C749 O750 1.232 . S
O750 C749 1.232 . S
C751 O743 1.260 . S
C751 O744 1.257 . S
Zn752 O755 2.031 . S
Zn752 O757 2.049 1_455 S
Zn752 O762 2.067 1_455 S
Zn753 O754 1.962 . S
Zn753 O756 1.986 . S
Zn753 O758 1.996 . S
Zn753 O761 1.943 1_455 S
O754 Zn753 1.962 . S
O754 C759 1.254 . S
O755 Zn752 2.031 . S
O755 C759 1.269 . S
O756 Zn753 1.986 . S
O756 C763 1.262 . S
O757 Zn752 2.049 1_655 S
O757 C765 1.260 . S
O758 Zn753 1.996 . S
O758 C765 1.257 1_455 S
C759 O754 1.254 . S
C759 O755 1.269 . S
C760 O761 1.249 . S
C760 O762 1.270 . S
O761 Zn753 1.943 1_655 S
O761 C760 1.249 . S
O762 Zn752 2.067 1_655 S
O762 C760 1.270 . S
C763 O756 1.262 . S
C763 O764 1.232 . S
O764 C763 1.232 . S
C765 O757 1.260 . S
C765 O758 1.257 1_655 S
Zn766 O769 2.031 . S
Zn766 O771 2.049 . S
Zn766 O776 2.067 . S
Zn767 O768 1.962 . S
Zn767 O770 1.986 . S
Zn767 O772 1.996 . S
Zn767 O775 1.943 . S
O768 Zn767 1.962 . S
O768 C773 1.254 . S
O769 Zn766 2.031 . S
O769 C773 1.269 . S
O770 Zn767 1.986 . S
O770 C777 1.262 . S
O771 Zn766 2.049 . S
O771 C779 1.260 . S
O772 Zn767 1.996 . S
O772 C779 1.257 . S
C773 O768 1.254 . S
C773 O769 1.269 . S
C774 O775 1.249 . S
C774 O776 1.270 . S
O775 Zn767 1.943 . S
O775 C774 1.249 . S
O776 Zn766 2.067 . S
O776 C774 1.270 . S
C777 O770 1.262 . S
C777 O778 1.232 . S
O778 C777 1.232 . S
C779 O771 1.260 . S
C779 O772 1.257 . S
Zn780 O783 2.031 . S
Zn780 O785 2.049 . S
Zn780 O790 2.067 . S
Zn781 O782 1.962 . S
Zn781 O784 1.986 . S
Zn781 O786 1.996 1_455 S
Zn781 O789 1.943 . S
O782 Zn781 1.962 . S
O782 C787 1.254 . S
O783 Zn780 2.031 . S
O783 C787 1.269 1_655 S
O784 Zn781 1.986 . S
O784 C791 1.262 . S
O785 Zn780 2.049 . S
O785 C793 1.260 . S
O786 Zn781 1.996 1_655 S
O786 C793 1.257 . S
C787 O782 1.254 . S
C787 O783 1.269 1_455 S
C788 O789 1.249 1_655 S
C788 O790 1.270 . S
O789 Zn781 1.943 . S
O789 C788 1.249 1_455 S
O790 Zn780 2.067 . S
O790 C788 1.270 . S
C791 O784 1.262 . S
C791 O792 1.232 . S
O792 C791 1.232 . S
C793 O785 1.260 . S
C793 O786 1.257 . S
Zn794 O797 2.031 . S
Zn794 O799 2.049 . S
Zn794 O804 2.067 . S
Zn795 O796 1.962 . S
Zn795 O798 1.986 . S
Zn795 O800 1.996 . S
Zn795 O803 1.943 . S
O796 Zn795 1.962 . S
O796 C801 1.254 . S
O797 Zn794 2.031 . S
O797 C801 1.269 . S
O798 Zn795 1.986 . S
O798 C805 1.262 . S
O799 Zn794 2.049 . S
O799 C807 1.260 . S
O800 Zn795 1.996 . S
O800 C807 1.257 . S
C801 O796 1.254 . S
C801 O797 1.269 . S
C802 O803 1.249 . S
C802 O804 1.270 . S
O803 Zn795 1.943 . S
O803 C802 1.249 . S
O804 Zn794 2.067 . S
O804 C802 1.270 . S
C805 O798 1.262 . S
C805 O806 1.232 . S
O806 C805 1.232 . S
C807 O799 1.260 . S
C807 O800 1.257 . S
H808 C826 0.951 . S
H809 C828 0.951 . S
H810 C830 0.950 . S
H811 C831 0.950 . S
H812 C833 0.950 . S
H813 C836 0.950 . S
H814 C837 0.950 . S
H815 C839 0.950 . S
H816 C840 0.950 . S
H817 C841 0.951 . S
H818 C843 0.951 . S
H819 C845 0.950 . S
H820 C846 0.950 . S
H821 C848 0.950 . S
H822 C851 0.950 . S
H823 C852 0.950 . S
H824 C854 0.950 . S
H825 C855 0.950 . S
C826 H808 0.951 . S
C826 C827 1.366 . S
C826 C828 1.388 . S
C827 C826 1.366 . S
C827 C831 1.385 . S
C828 H809 0.951 . S
C828 C826 1.388 . S
C828 C829 1.366 . S
C829 C828 1.366 . S
C829 C830 1.414 . S
C829 C832 1.499 . S
C830 H810 0.950 . S
C830 C829 1.414 . S
C830 C831 1.374 . S
C831 H811 0.950 . S
C831 C827 1.385 . S
C831 C830 1.374 . S
C832 C829 1.499 . S
C832 C833 1.373 . S
C832 C834 1.389 . S
C833 H812 0.950 . S
C833 C832 1.373 . S
C833 C849 1.377 . S
C834 C832 1.389 . S
C834 C835 1.524 . S
C834 C848 1.377 . S
C835 C834 1.524 . S
C835 C836 1.397 . S
C835 C840 1.363 . S
C836 H813 0.950 . S
C836 C835 1.397 . S
C836 C837 1.334 . S
C837 H814 0.950 . S
C837 C836 1.334 . S
C837 C838 1.287 . S
C838 C837 1.287 . S
C838 C839 1.524 . S
C838 H857 0.913 . S
C839 H815 0.950 . S
C839 C838 1.524 . S
C839 C840 1.415 . S
C840 H816 0.950 . S
C840 C835 1.363 . S
C840 C839 1.415 . S
C841 H817 0.951 . S
C841 C842 1.366 . S
C841 C843 1.388 . S
C842 C841 1.366 . S
C842 C846 1.385 . S
C843 H818 0.951 . S
C843 C841 1.388 . S
C843 C844 1.366 . S
C844 C843 1.366 . S
C844 C845 1.414 . S
C844 C847 1.499 . S
C845 H819 0.950 . S
C845 C844 1.414 . S
C845 C846 1.374 . S
C846 H820 0.950 . S
C846 C842 1.385 . S
C846 C845 1.374 . S
C847 C844 1.499 . S
C847 C848 1.373 . S
C847 C849 1.389 . S
C848 H821 0.950 . S
C848 C834 1.377 . S
C848 C847 1.373 . S
C849 C833 1.377 . S
C849 C847 1.389 . S
C849 C850 1.524 . S
C850 C849 1.524 . S
C850 C851 1.397 . S
C850 C855 1.363 . S
C851 H822 0.950 . S
C851 C850 1.397 . S
C851 C852 1.334 . S
C852 H823 0.950 . S
C852 C851 1.334 . S
C852 C853 1.287 . S
C853 C852 1.287 . S
C853 C854 1.524 . S
C853 H856 0.999 . S
C854 H824 0.950 . S
C854 C853 1.524 . S
C854 C855 1.415 . S
C855 H825 0.950 . S
C855 C850 1.363 . S
C855 C854 1.415 . S
H856 C853 0.999 . S
H857 C838 0.913 . S
H858 C876 0.951 . S
H859 C878 0.951 . S
H860 C880 0.950 . S
H861 C881 0.890 1_655 S
H862 C883 0.950 . S
H863 C886 0.950 . S
H864 C887 0.950 . S
H865 C889 0.950 . S
H866 C890 0.950 . S
H867 C891 0.951 . S
H868 C893 0.951 . S
H869 C895 0.950 . S
H870 C896 0.950 . S
H871 C898 0.950 . S
H872 C901 0.950 . S
H873 C902 0.950 . S
H874 C904 0.950 . S
H875 C905 0.950 . S
C876 H858 0.951 . S
C876 C877 1.366 . S
C876 C878 1.388 . S
C877 C876 1.366 . S
C877 C881 1.385 . S
C878 H859 0.951 . S
C878 C876 1.388 . S
C878 C879 1.366 . S
C879 C878 1.366 . S
C879 C880 1.414 . S
C879 C882 1.499 . S
C880 H860 0.950 . S
C880 C879 1.414 . S
C880 C881 1.374 . S
C881 H861 0.890 1_455 S
C881 C877 1.385 . S
C881 C880 1.374 . S
C882 C879 1.499 . S
C882 C883 1.373 . S
C882 C884 1.389 . S
C883 H862 0.950 . S
C883 C882 1.373 . S
C883 C899 1.377 . S
C884 C882 1.389 . S
C884 C885 1.524 . S
C884 C898 1.377 . S
C885 C884 1.524 . S
C885 C886 1.397 . S
C885 C890 1.363 . S
C886 H863 0.950 . S
C886 C885 1.397 . S
C886 C887 1.334 . S
C887 H864 0.950 . S
C887 C886 1.334 . S
C887 C888 1.287 . S
C888 C887 1.287 . S
C888 C889 1.524 . S
C888 H907 0.913 . S
C889 H865 0.950 . S
C889 C888 1.524 . S
C889 C890 1.415 . S
C890 H866 0.950 . S
C890 C885 1.363 . S
C890 C889 1.415 . S
C891 H867 0.951 . S
C891 C892 1.366 . S
C891 C893 1.388 . S
C892 C891 1.366 . S
C892 C896 1.385 . S
C893 H868 0.951 . S
C893 C891 1.388 . S
C893 C894 1.366 . S
C894 C893 1.366 . S
C894 C895 1.414 . S
C894 C897 1.499 . S
C895 H869 0.950 . S
C895 C894 1.414 . S
C895 C896 1.374 . S
C896 H870 0.950 . S
C896 C892 1.385 . S
C896 C895 1.374 . S
C897 C894 1.499 . S
C897 C898 1.373 . S
C897 C899 1.389 . S
C898 H871 0.950 . S
C898 C884 1.377 . S
C898 C897 1.373 . S
C899 C883 1.377 . S
C899 C897 1.389 . S
C899 C900 1.524 . S
C900 C899 1.524 . S
C900 C901 1.397 . S
C900 C905 1.363 . S
C901 H872 0.950 . S
C901 C900 1.397 . S
C901 C902 1.334 . S
C902 H873 0.950 . S
C902 C901 1.334 . S
C902 C903 1.287 . S
C903 C902 1.287 . S
C903 C904 1.524 . S
C903 H906 0.999 . S
C904 H874 0.950 . S
C904 C903 1.524 . S
C904 C905 1.415 . S
C905 H875 0.950 . S
C905 C900 1.363 . S
C905 C904 1.415 . S
H906 C903 0.999 . S
H907 C888 0.913 . S
H908 C926 0.951 . S
H909 C928 0.951 . S
H910 C930 0.950 . S
H911 C931 0.950 . S
H912 C933 0.950 . S
H913 C936 0.950 . S
H914 C937 0.950 . S
H915 C939 0.950 . S
H916 C940 0.950 . S
H917 C941 0.951 . S
H918 C943 0.951 . S
H919 C945 0.950 . S
H920 C946 0.950 . S
H921 C948 0.950 . S
H922 C951 0.950 . S
H923 C952 0.950 . S
H924 C954 0.950 . S
H925 C955 0.950 . S
C926 H908 0.951 . S
C926 C927 1.366 . S
C926 C928 1.388 . S
C927 C926 1.366 . S
C927 C931 1.385 . S
C928 H909 0.951 . S
C928 C926 1.388 . S
C928 C929 1.366 . S
C929 C928 1.366 . S
C929 C930 1.414 . S
C929 C932 1.499 . S
C930 H910 0.950 . S
C930 C929 1.414 . S
C930 C931 1.374 . S
C931 H911 0.950 . S
C931 C927 1.385 . S
C931 C930 1.374 . S
C932 C929 1.499 . S
C932 C933 1.373 . S
C932 C934 1.389 . S
C933 H912 0.950 . S
C933 C932 1.373 . S
C933 C949 1.377 . S
C934 C932 1.389 . S
C934 C935 1.524 . S
C934 C948 1.377 . S
C935 C934 1.524 . S
C935 C936 1.397 . S
C935 C940 1.363 . S
C936 H913 0.950 . S
C936 C935 1.397 . S
C936 C937 1.334 . S
C937 H914 0.950 . S
C937 C936 1.334 . S
C937 C938 1.287 . S
C938 C937 1.287 . S
C938 C939 1.524 . S
C938 H957 0.913 . S
C939 H915 0.950 . S
C939 C938 1.524 . S
C939 C940 1.415 . S
C940 H916 0.950 . S
C940 C935 1.363 . S
C940 C939 1.415 . S
C941 H917 0.951 . S
C941 C942 1.366 . S
C941 C943 1.388 . S
C942 C941 1.366 . S
C942 C946 1.385 . S
C943 H918 0.951 . S
C943 C941 1.388 . S
C943 C944 1.366 . S
C944 C943 1.366 . S
C944 C945 1.414 . S
C944 C947 1.499 . S
C945 H919 0.950 . S
C945 C944 1.414 . S
C945 C946 1.374 . S
C946 H920 0.950 . S
C946 C942 1.385 . S
C946 C945 1.374 . S
C947 C944 1.499 . S
C947 C948 1.373 . S
C947 C949 1.389 . S
C948 H921 0.950 . S
C948 C934 1.377 . S
C948 C947 1.373 . S
C949 C933 1.377 . S
C949 C947 1.389 . S
C949 C950 1.524 . S
C950 C949 1.524 . S
C950 C951 1.397 . S
C950 C955 1.363 . S
C951 H922 0.950 . S
C951 C950 1.397 . S
C951 C952 1.334 . S
C952 H923 0.950 . S
C952 C951 1.334 . S
C952 C953 1.287 . S
C953 C952 1.287 . S
C953 C954 1.524 . S
C953 H956 0.999 . S
C954 H924 0.950 . S
C954 C953 1.524 . S
C954 C955 1.415 . S
C955 H925 0.950 . S
C955 C950 1.363 . S
C955 C954 1.415 . S
H956 C953 0.999 . S
H957 C938 0.913 . S
H958 C976 0.888 1_455 S
H959 C978 0.951 . S
H960 C980 0.950 . S
H961 C981 0.950 . S
H962 C983 0.950 . S
H963 C986 0.950 . S
H964 C987 0.943 1_455 S
H965 C989 0.949 1_565 S
H966 C990 0.950 . S
H967 C991 0.951 . S
H968 C993 0.951 . S
H969 C995 0.950 . S
H970 C996 0.950 . S
H971 C998 0.950 . S
H972 C1001 0.950 . S
H973 C1002 0.950 . S
H974 C1004 0.950 . S
H975 C1005 0.950 . S
C976 H958 0.888 1_655 S
C976 C977 1.385 . S
C976 C978 1.434 . S
C977 C976 1.385 . S
C977 C981 1.385 . S
C978 H959 0.951 . S
C978 C976 1.434 . S
C978 C979 1.366 . S
C979 C978 1.366 . S
C979 C980 1.414 . S
C979 C982 1.499 . S
C980 H960 0.950 . S
C980 C979 1.414 . S
C980 C981 1.374 . S
C981 H961 0.950 . S
C981 C977 1.385 . S
C981 C980 1.374 . S
C982 C979 1.499 . S
C982 C983 1.373 . S
C982 C984 1.389 . S
C983 H962 0.950 . S
C983 C982 1.373 . S
C983 C999 1.377 . S
C984 C982 1.389 . S
C984 C985 1.524 . S
C984 C998 1.377 . S
C985 C984 1.524 . S
C985 C986 1.397 1_565 S
C985 C990 1.363 . S
C986 H963 0.950 . S
C986 C985 1.397 1_545 S
C986 C987 1.356 . S
C987 H964 0.943 1_655 S
C987 C986 1.356 . S
C987 C988 1.272 1_655 S
C988 C987 1.272 1_455 S
C988 C989 1.529 . S
C988 H1007 0.913 . S
C989 H965 0.949 1_545 S
C989 C988 1.529 . S
C989 C990 1.410 1_445 S
C990 H966 0.950 . S
C990 C985 1.363 . S
C990 C989 1.410 1_665 S
C991 H967 0.951 . S
C991 C992 1.366 . S
C991 C993 1.388 . S
C992 C991 1.366 . S
C992 C996 1.385 . S
C993 H968 0.951 . S
C993 C991 1.388 . S
C993 C994 1.366 . S
C994 C993 1.366 . S
C994 C995 1.414 . S
C994 C997 1.499 . S
C995 H969 0.950 . S
C995 C994 1.414 . S
C995 C996 1.374 . S
C996 H970 0.950 . S
C996 C992 1.385 . S
C996 C995 1.374 . S
C997 C994 1.499 . S
C997 C998 1.373 . S
C997 C999 1.389 . S
C998 H971 0.950 . S
C998 C984 1.377 . S
C998 C997 1.373 . S
C999 C983 1.377 . S
C999 C997 1.389 . S
C999 C1000 1.524 . S
C1000 C999 1.524 . S
C1000 C1001 1.397 . S
C1000 C1005 1.363 . S
C1001 H972 0.950 . S
C1001 C1000 1.397 . S
C1001 C1002 1.334 . S
C1002 H973 0.950 . S
C1002 C1001 1.334 . S
C1002 C1003 1.287 . S
C1003 C1002 1.287 . S
C1003 C1004 1.524 . S
C1003 H1006 0.999 . S
C1004 H974 0.950 . S
C1004 C1003 1.524 . S
C1004 C1005 1.415 . S
C1005 H975 0.950 . S
C1005 C1000 1.363 . S
C1005 C1004 1.415 . S
H1006 C1003 0.999 . S
H1007 C988 0.913 . S
H1008 C1026 0.951 . S
H1009 C1028 0.951 . S
H1010 C1030 0.950 . S
H1011 C1031 0.950 . S
H1012 C1033 0.950 . S
H1013 C1036 0.950 . S
H1014 C1037 0.950 . S
H1015 C1039 0.950 . S
H1016 C1040 0.950 . S
H1017 C1041 0.951 . S
H1018 C1043 0.951 . S
H1019 C1045 0.950 . S
H1020 C1046 0.950 . S
H1021 C1048 0.950 . S
H1022 C1051 0.950 . S
H1023 C1052 0.950 . S
H1024 C1054 0.950 . S
H1025 C1055 0.950 . S
C1026 H1008 0.951 . S
C1026 C1027 1.366 . S
C1026 C1028 1.388 . S
C1027 C1026 1.366 . S
C1027 C1031 1.385 . S
C1028 H1009 0.951 . S
C1028 C1026 1.388 . S
C1028 C1029 1.366 . S
C1029 C1028 1.366 . S
C1029 C1030 1.414 . S
C1029 C1032 1.499 . S
C1030 H1010 0.950 . S
C1030 C1029 1.414 . S
C1030 C1031 1.374 . S
C1031 H1011 0.950 . S
C1031 C1027 1.385 . S
C1031 C1030 1.374 . S
C1032 C1029 1.499 . S
C1032 C1033 1.373 . S
C1032 C1034 1.389 . S
C1033 H1012 0.950 . S
C1033 C1032 1.373 . S
C1033 C1049 1.377 . S
C1034 C1032 1.389 . S
C1034 C1035 1.524 . S
C1034 C1048 1.377 . S
C1035 C1034 1.524 . S
C1035 C1036 1.397 . S
C1035 C1040 1.363 . S
C1036 H1013 0.950 . S
C1036 C1035 1.397 . S
C1036 C1037 1.334 . S
C1037 H1014 0.950 . S
C1037 C1036 1.334 . S
C1037 C1038 1.287 . S
C1038 C1037 1.287 . S
C1038 C1039 1.524 . S
C1038 H1057 0.913 . S
C1039 H1015 0.950 . S
C1039 C1038 1.524 . S
C1039 C1040 1.415 . S
C1040 H1016 0.950 . S
C1040 C1035 1.363 . S
C1040 C1039 1.415 . S
C1041 H1017 0.951 . S
C1041 C1042 1.366 . S
C1041 C1043 1.388 . S
C1042 C1041 1.366 . S
C1042 C1046 1.385 . S
C1043 H1018 0.951 . S
C1043 C1041 1.388 . S
C1043 C1044 1.366 . S
C1044 C1043 1.366 . S
C1044 C1045 1.414 . S
C1044 C1047 1.499 . S
C1045 H1019 0.950 . S
C1045 C1044 1.414 . S
C1045 C1046 1.374 . S
C1046 H1020 0.950 . S
C1046 C1042 1.385 . S
C1046 C1045 1.374 . S
C1047 C1044 1.499 . S
C1047 C1048 1.373 . S
C1047 C1049 1.389 . S
C1048 H1021 0.950 . S
C1048 C1034 1.377 . S
C1048 C1047 1.373 . S
C1049 C1033 1.377 . S
C1049 C1047 1.389 . S
C1049 C1050 1.524 . S
C1050 C1049 1.524 . S
C1050 C1051 1.397 . S
C1050 C1055 1.363 . S
C1051 H1022 0.950 . S
C1051 C1050 1.397 . S
C1051 C1052 1.334 . S
C1052 H1023 0.950 . S
C1052 C1051 1.334 . S
C1052 C1053 1.287 . S
C1053 C1052 1.287 . S
C1053 C1054 1.524 . S
C1053 H1056 0.999 . S
C1054 H1024 0.950 . S
C1054 C1053 1.524 . S
C1054 C1055 1.415 . S
C1055 H1025 0.950 . S
C1055 C1050 1.363 . S
C1055 C1054 1.415 . S
H1056 C1053 0.999 . S
H1057 C1038 0.913 . S
H1058 C1076 0.951 . S
H1059 C1078 0.951 . S
H1060 C1080 0.950 . S
H1061 C1081 0.950 . S
H1062 C1083 0.950 . S
H1063 C1086 0.950 . S
H1064 C1087 0.950 . S
H1065 C1089 0.950 . S
H1066 C1090 0.950 . S
H1067 C1091 0.951 . S
H1068 C1093 0.951 . S
H1069 C1095 0.950 . S
H1070 C1096 0.950 . S
H1071 C1098 0.950 . S
H1072 C1101 0.950 . S
H1073 C1102 0.950 . S
H1074 C1104 0.950 . S
H1075 C1105 0.950 . S
C1076 H1058 0.951 . S
C1076 C1077 1.366 . S
C1076 C1078 1.388 . S
C1077 C1076 1.366 . S
C1077 C1081 1.385 . S
C1078 H1059 0.951 . S
C1078 C1076 1.388 . S
C1078 C1079 1.366 . S
C1079 C1078 1.366 . S
C1079 C1080 1.414 . S
C1079 C1082 1.499 . S
C1080 H1060 0.950 . S
C1080 C1079 1.414 . S
C1080 C1081 1.374 . S
C1081 H1061 0.950 . S
C1081 C1077 1.385 . S
C1081 C1080 1.374 . S
C1082 C1079 1.499 . S
C1082 C1083 1.373 . S
C1082 C1084 1.389 . S
C1083 H1062 0.950 . S
C1083 C1082 1.373 . S
C1083 C1099 1.377 . S
C1084 C1082 1.389 . S
C1084 C1085 1.524 . S
C1084 C1098 1.377 . S
C1085 C1084 1.524 . S
C1085 C1086 1.397 . S
C1085 C1090 1.363 . S
C1086 H1063 0.950 . S
C1086 C1085 1.397 . S
C1086 C1087 1.334 . S
C1087 H1064 0.950 . S
C1087 C1086 1.334 . S
C1087 C1088 1.287 . S
C1088 C1087 1.287 . S
C1088 C1089 1.524 . S
C1088 H1107 0.913 . S
C1089 H1065 0.950 . S
C1089 C1088 1.524 . S
C1089 C1090 1.415 . S
C1090 H1066 0.950 . S
C1090 C1085 1.363 . S
C1090 C1089 1.415 . S
C1091 H1067 0.951 . S
C1091 C1092 1.366 . S
C1091 C1093 1.388 . S
C1092 C1091 1.366 . S
C1092 C1096 1.385 . S
C1093 H1068 0.951 . S
C1093 C1091 1.388 . S
C1093 C1094 1.366 . S
C1094 C1093 1.366 . S
C1094 C1095 1.414 . S
C1094 C1097 1.499 . S
C1095 H1069 0.950 . S
C1095 C1094 1.414 . S
C1095 C1096 1.374 . S
C1096 H1070 0.950 . S
C1096 C1092 1.385 . S
C1096 C1095 1.374 . S
C1097 C1094 1.499 . S
C1097 C1098 1.373 . S
C1097 C1099 1.389 . S
C1098 H1071 0.950 . S
C1098 C1084 1.377 . S
C1098 C1097 1.373 . S
C1099 C1083 1.377 . S
C1099 C1097 1.389 . S
C1099 C1100 1.524 . S
C1100 C1099 1.524 . S
C1100 C1101 1.397 . S
C1100 C1105 1.363 . S
C1101 H1072 0.950 . S
C1101 C1100 1.397 . S
C1101 C1102 1.334 . S
C1102 H1073 0.950 . S
C1102 C1101 1.334 . S
C1102 C1103 1.287 . S
C1103 C1102 1.287 . S
C1103 C1104 1.524 . S
C1103 H1106 0.999 . S
C1104 H1074 0.950 . S
C1104 C1103 1.524 . S
C1104 C1105 1.415 . S
C1105 H1075 0.950 . S
C1105 C1100 1.363 . S
C1105 C1104 1.415 . S
H1106 C1103 0.999 . S
H1107 C1088 0.913 . S
H1108 C1126 0.951 . S
H1109 C1128 0.951 . S
H1110 C1130 0.950 . S
H1111 C1131 0.950 . S
H1112 C1133 0.950 . S
H1113 C1136 0.950 . S
H1114 C1137 0.950 . S
H1115 C1139 0.950 . S
H1116 C1140 0.950 . S
H1117 C1141 0.951 . S
H1118 C1143 0.951 . S
H1119 C1145 0.950 . S
H1120 C1146 0.950 . S
H1121 C1148 0.950 . S
H1122 C1151 0.950 . S
H1123 C1152 0.950 . S
H1124 C1154 0.950 . S
H1125 C1155 0.950 . S
C1126 H1108 0.951 . S
C1126 C1127 1.366 . S
C1126 C1128 1.388 . S
C1127 C1126 1.366 . S
C1127 C1131 1.385 . S
C1128 H1109 0.951 . S
C1128 C1126 1.388 . S
C1128 C1129 1.366 . S
C1129 C1128 1.366 . S
C1129 C1130 1.414 . S
C1129 C1132 1.499 . S
C1130 H1110 0.950 . S
C1130 C1129 1.414 . S
C1130 C1131 1.374 . S
C1131 H1111 0.950 . S
C1131 C1127 1.385 . S
C1131 C1130 1.374 . S
C1132 C1129 1.499 . S
C1132 C1133 1.373 . S
C1132 C1134 1.389 . S
C1133 H1112 0.950 . S
C1133 C1132 1.373 . S
C1133 C1149 1.377 . S
C1134 C1132 1.389 . S
C1134 C1135 1.524 . S
C1134 C1148 1.377 . S
C1135 C1134 1.524 . S
C1135 C1136 1.397 . S
C1135 C1140 1.363 . S
C1136 H1113 0.950 . S
C1136 C1135 1.397 . S
C1136 C1137 1.334 . S
C1137 H1114 0.950 . S
C1137 C1136 1.334 . S
C1137 C1138 1.287 . S
C1138 C1137 1.287 . S
C1138 C1139 1.524 . S
C1138 H1157 0.913 . S
C1139 H1115 0.950 . S
C1139 C1138 1.524 . S
C1139 C1140 1.415 . S
C1140 H1116 0.950 . S
C1140 C1135 1.363 . S
C1140 C1139 1.415 . S
C1141 H1117 0.951 . S
C1141 C1142 1.366 . S
C1141 C1143 1.388 . S
C1142 C1141 1.366 . S
C1142 C1146 1.385 . S
C1143 H1118 0.951 . S
C1143 C1141 1.388 . S
C1143 C1144 1.366 . S
C1144 C1143 1.366 . S
C1144 C1145 1.414 . S
C1144 C1147 1.499 . S
C1145 H1119 0.950 . S
C1145 C1144 1.414 . S
C1145 C1146 1.374 . S
C1146 H1120 0.950 . S
C1146 C1142 1.385 . S
C1146 C1145 1.374 . S
C1147 C1144 1.499 . S
C1147 C1148 1.373 . S
C1147 C1149 1.389 . S
C1148 H1121 0.950 . S
C1148 C1134 1.377 . S
C1148 C1147 1.373 . S
C1149 C1133 1.377 . S
C1149 C1147 1.389 . S
C1149 C1150 1.524 . S
C1150 C1149 1.524 . S
C1150 C1151 1.397 . S
C1150 C1155 1.363 . S
C1151 H1122 0.950 . S
C1151 C1150 1.397 . S
C1151 C1152 1.334 . S
C1152 H1123 0.950 . S
C1152 C1151 1.334 . S
C1152 C1153 1.287 . S
C1153 C1152 1.287 . S
C1153 C1154 1.524 . S
C1153 H1156 0.999 . S
C1154 H1124 0.950 . S
C1154 C1153 1.524 . S
C1154 C1155 1.415 . S
C1155 H1125 0.950 . S
C1155 C1150 1.363 . S
C1155 C1154 1.415 . S
H1156 C1153 0.999 . S
H1157 C1138 0.913 . S
H1158 C1176 0.951 . S
H1159 C1178 0.951 . S
H1160 C1180 0.950 . S
H1161 C1181 0.950 . S
H1162 C1183 0.950 . S
H1163 C1186 0.950 . S
H1164 C1187 0.950 . S
H1165 C1189 0.950 . S
H1166 C1190 0.950 . S
H1167 C1191 0.951 . S
H1168 C1193 0.951 . S
H1169 C1195 0.973 . S
H1170 C1196 0.950 . S
H1171 C1198 0.950 . S
H1172 C1201 0.950 . S
H1173 C1202 0.950 . S
H1174 C1204 0.950 . S
H1175 C1205 0.950 . S
C1176 H1158 0.951 . S
C1176 C1177 1.366 . S
C1176 C1178 1.388 . S
C1177 C1176 1.366 . S
C1177 C1181 1.385 . S
C1178 H1159 0.951 . S
C1178 C1176 1.388 . S
C1178 C1179 1.366 . S
C1179 C1178 1.366 . S
C1179 C1180 1.414 . S
C1179 C1182 1.499 . S
C1180 H1160 0.950 . S
C1180 C1179 1.414 . S
C1180 C1181 1.374 . S
C1181 H1161 0.950 . S
C1181 C1177 1.385 . S
C1181 C1180 1.374 . S
C1182 C1179 1.499 . S
C1182 C1183 1.373 . S
C1182 C1184 1.389 . S
C1183 H1162 0.950 . S
C1183 C1182 1.373 . S
C1183 C1199 1.377 . S
C1184 C1182 1.389 . S
C1184 C1185 1.524 . S
C1184 C1198 1.377 . S
C1185 C1184 1.524 . S
C1185 C1186 1.397 . S
C1185 C1190 1.363 . S
C1186 H1163 0.950 . S
C1186 C1185 1.397 . S
C1186 C1187 1.334 . S
C1187 H1164 0.950 . S
C1187 C1186 1.334 . S
C1187 C1188 1.287 . S
C1188 C1187 1.287 . S
C1188 C1189 1.524 . S
C1188 H1207 0.913 . S
C1189 H1165 0.950 . S
C1189 C1188 1.524 . S
C1189 C1190 1.415 . S
C1190 H1166 0.950 . S
C1190 C1185 1.363 . S
C1190 C1189 1.415 . S
C1191 H1167 0.951 . S
C1191 C1192 1.366 . S
C1191 C1193 1.388 . S
C1192 C1191 1.366 . S
C1192 C1196 1.385 1_565 S
C1193 H1168 0.951 . S
C1193 C1191 1.388 . S
C1193 C1194 1.366 . S
C1194 C1193 1.366 . S
C1194 C1195 1.386 1_565 S
C1194 C1197 1.499 . S
C1195 H1169 0.973 . S
C1195 C1194 1.386 1_545 S
C1195 C1196 1.380 . S
C1196 H1170 0.950 . S
C1196 C1192 1.385 1_545 S
C1196 C1195 1.380 . S
C1197 C1194 1.499 . S
C1197 C1198 1.373 . S
C1197 C1199 1.389 . S
C1198 H1171 0.950 . S
C1198 C1184 1.377 . S
C1198 C1197 1.373 . S
C1199 C1183 1.377 . S
C1199 C1197 1.389 . S
C1199 C1200 1.524 . S
C1200 C1199 1.524 . S
C1200 C1201 1.397 1_565 S
C1200 C1205 1.363 . S
C1201 H1172 0.950 . S
C1201 C1200 1.397 1_545 S
C1201 C1202 1.334 . S
C1202 H1173 0.950 . S
C1202 C1201 1.334 . S
C1202 C1203 1.287 . S
C1203 C1202 1.287 . S
C1203 C1204 1.524 1_545 S
C1203 H1206 0.999 . S
C1204 H1174 0.950 . S
C1204 C1203 1.524 1_565 S
C1204 C1205 1.415 . S
C1205 H1175 0.950 . S
C1205 C1200 1.363 . S
C1205 C1204 1.415 . S
H1206 C1203 0.999 . S
H1207 C1188 0.913 . S
H1208 C1226 0.951 . S
H1209 C1228 0.951 . S
H1210 C1230 0.950 . S
H1211 C1231 0.950 . S
H1212 C1233 0.950 . S
H1213 C1236 0.950 . S
H1214 C1237 0.950 . S
H1215 C1239 0.950 . S
H1216 C1240 0.950 . S
H1217 C1241 0.951 . S
H1218 C1243 0.951 . S
H1219 C1245 0.950 . S
H1220 C1246 0.950 . S
H1221 C1248 0.950 . S
H1222 C1251 0.950 . S
H1223 C1252 0.950 . S
H1224 C1254 0.950 . S
H1225 C1255 0.950 . S
C1226 H1208 0.951 . S
C1226 C1227 1.366 . S
C1226 C1228 1.388 . S
C1227 C1226 1.366 . S
C1227 C1231 1.385 . S
C1228 H1209 0.951 . S
C1228 C1226 1.388 . S
C1228 C1229 1.366 . S
C1229 C1228 1.366 . S
C1229 C1230 1.414 . S
C1229 C1232 1.499 . S
C1230 H1210 0.950 . S
C1230 C1229 1.414 . S
C1230 C1231 1.374 . S
C1231 H1211 0.950 . S
C1231 C1227 1.385 . S
C1231 C1230 1.374 . S
C1232 C1229 1.499 . S
C1232 C1233 1.373 . S
C1232 C1234 1.389 . S
C1233 H1212 0.950 . S
C1233 C1232 1.373 . S
C1233 C1249 1.377 . S
C1234 C1232 1.389 . S
C1234 C1235 1.524 . S
C1234 C1248 1.377 . S
C1235 C1234 1.524 . S
C1235 C1236 1.397 . S
C1235 C1240 1.363 . S
C1236 H1213 0.950 . S
C1236 C1235 1.397 . S
C1236 C1237 1.334 . S
C1237 H1214 0.950 . S
C1237 C1236 1.334 . S
C1237 C1238 1.287 . S
C1238 C1237 1.287 . S
C1238 C1239 1.524 . S
C1238 H1257 0.913 . S
C1239 H1215 0.950 . S
C1239 C1238 1.524 . S
C1239 C1240 1.415 . S
C1240 H1216 0.950 . S
C1240 C1235 1.363 . S
C1240 C1239 1.415 . S
C1241 H1217 0.951 . S
C1241 C1242 1.366 . S
C1241 C1243 1.388 . S
C1242 C1241 1.366 . S
C1242 C1246 1.385 . S
C1243 H1218 0.951 . S
C1243 C1241 1.388 . S
C1243 C1244 1.366 . S
C1244 C1243 1.366 . S
C1244 C1245 1.414 . S
C1244 C1247 1.499 . S
C1245 H1219 0.950 . S
C1245 C1244 1.414 . S
C1245 C1246 1.374 . S
C1246 H1220 0.950 . S
C1246 C1242 1.385 . S
C1246 C1245 1.374 . S
C1247 C1244 1.499 . S
C1247 C1248 1.373 . S
C1247 C1249 1.389 . S
C1248 H1221 0.950 . S
C1248 C1234 1.377 . S
C1248 C1247 1.373 . S
C1249 C1233 1.377 . S
C1249 C1247 1.389 . S
C1249 C1250 1.524 . S
C1250 C1249 1.524 . S
C1250 C1251 1.397 . S
C1250 C1255 1.363 . S
C1251 H1222 0.950 . S
C1251 C1250 1.397 . S
C1251 C1252 1.334 . S
C1252 H1223 0.950 . S
C1252 C1251 1.334 . S
C1252 C1253 1.287 . S
C1253 C1252 1.287 . S
C1253 C1254 1.524 . S
C1253 H1256 0.999 . S
C1254 H1224 0.950 . S
C1254 C1253 1.524 . S
C1254 C1255 1.415 . S
C1255 H1225 0.950 . S
C1255 C1250 1.363 . S
C1255 C1254 1.415 . S
H1256 C1253 0.999 . S
H1257 C1238 0.913 . S
H1258 C1276 0.951 . S
H1259 C1278 0.951 . S
H1260 C1280 0.950 . S
H1261 C1281 0.950 . S
H1262 C1283 0.950 . S
H1263 C1286 0.950 . S
H1264 C1287 0.950 . S
H1265 C1289 0.950 . S
H1266 C1290 0.950 . S
H1267 C1291 0.951 . S
H1268 C1293 0.951 . S
H1269 C1295 0.950 . S
H1270 C1296 0.950 . S
H1271 C1298 0.950 . S
H1272 C1301 0.950 . S
H1273 C1302 0.950 . S
H1274 C1304 0.950 . S
H1275 C1305 0.950 . S
C1276 H1258 0.951 . S
C1276 C1277 1.366 . S
C1276 C1278 1.388 . S
C1277 C1276 1.366 . S
C1277 C1281 1.385 . S
C1278 H1259 0.951 . S
C1278 C1276 1.388 . S
C1278 C1279 1.366 . S
C1279 C1278 1.366 . S
C1279 C1280 1.414 . S
C1279 C1282 1.499 . S
C1280 H1260 0.950 . S
C1280 C1279 1.414 . S
C1280 C1281 1.374 . S
C1281 H1261 0.950 . S
C1281 C1277 1.385 . S
C1281 C1280 1.374 . S
C1282 C1279 1.499 . S
C1282 C1283 1.373 . S
C1282 C1284 1.389 . S
C1283 H1262 0.950 . S
C1283 C1282 1.373 . S
C1283 C1299 1.377 . S
C1284 C1282 1.389 . S
C1284 C1285 1.524 . S
C1284 C1298 1.377 . S
C1285 C1284 1.524 . S
C1285 C1286 1.397 . S
C1285 C1290 1.363 . S
C1286 H1263 0.950 . S
C1286 C1285 1.397 . S
C1286 C1287 1.334 . S
C1287 H1264 0.950 . S
C1287 C1286 1.334 . S
C1287 C1288 1.287 . S
C1288 C1287 1.287 . S
C1288 C1289 1.524 . S
C1288 H1307 0.913 . S
C1289 H1265 0.950 . S
C1289 C1288 1.524 . S
C1289 C1290 1.415 . S
C1290 H1266 0.950 . S
C1290 C1285 1.363 . S
C1290 C1289 1.415 . S
C1291 H1267 0.951 . S
C1291 C1292 1.366 . S
C1291 C1293 1.388 . S
C1292 C1291 1.366 . S
C1292 C1296 1.385 . S
C1293 H1268 0.951 . S
C1293 C1291 1.388 . S
C1293 C1294 1.366 . S
C1294 C1293 1.366 . S
C1294 C1295 1.414 . S
C1294 C1297 1.499 . S
C1295 H1269 0.950 . S
C1295 C1294 1.414 . S
C1295 C1296 1.374 . S
C1296 H1270 0.950 . S
C1296 C1292 1.385 . S
C1296 C1295 1.374 . S
C1297 C1294 1.499 . S
C1297 C1298 1.373 . S
C1297 C1299 1.389 . S
C1298 H1271 0.950 . S
C1298 C1284 1.377 . S
C1298 C1297 1.373 . S
C1299 C1283 1.377 . S
C1299 C1297 1.389 . S
C1299 C1300 1.524 . S
C1300 C1299 1.524 . S
C1300 C1301 1.397 . S
C1300 C1305 1.363 . S
C1301 H1272 0.950 . S
C1301 C1300 1.397 . S
C1301 C1302 1.334 . S
C1302 H1273 0.950 . S
C1302 C1301 1.334 . S
C1302 C1303 1.287 . S
C1303 C1302 1.287 . S
C1303 C1304 1.524 . S
C1303 H1306 0.999 . S
C1304 H1274 0.950 . S
C1304 C1303 1.524 . S
C1304 C1305 1.415 . S
C1305 H1275 0.950 . S
C1305 C1300 1.363 . S
C1305 C1304 1.415 . S
H1306 C1303 0.999 . S
H1307 C1288 0.913 . S
H1308 C1326 0.951 . S
H1309 C1328 0.951 . S
H1310 C1330 0.950 . S
H1311 C1331 0.950 . S
H1312 C1333 0.950 . S
H1313 C1336 0.950 . S
H1314 C1337 0.950 . S
H1315 C1339 0.950 . S
H1316 C1340 0.950 . S
H1317 C1341 0.951 . S
H1318 C1343 0.951 . S
H1319 C1345 0.950 . S
H1320 C1346 0.950 . S
H1321 C1348 0.950 . S
H1322 C1351 0.950 . S
H1323 C1352 0.950 . S
H1324 C1354 0.950 . S
H1325 C1355 0.950 . S
C1326 H1308 0.951 . S
C1326 C1327 1.366 . S
C1326 C1328 1.388 . S
C1327 C1326 1.366 . S
C1327 C1331 1.385 . S
C1328 H1309 0.951 . S
C1328 C1326 1.388 . S
C1328 C1329 1.366 . S
C1329 C1328 1.366 . S
C1329 C1330 1.414 . S
C1329 C1332 1.499 . S
C1330 H1310 0.950 . S
C1330 C1329 1.414 . S
C1330 C1331 1.374 . S
C1331 H1311 0.950 . S
C1331 C1327 1.385 . S
C1331 C1330 1.374 . S
C1332 C1329 1.499 . S
C1332 C1333 1.373 . S
C1332 C1334 1.389 . S
C1333 H1312 0.950 . S
C1333 C1332 1.373 . S
C1333 C1349 1.377 . S
C1334 C1332 1.389 . S
C1334 C1335 1.524 . S
C1334 C1348 1.377 . S
C1335 C1334 1.524 . S
C1335 C1336 1.397 . S
C1335 C1340 1.363 . S
C1336 H1313 0.950 . S
C1336 C1335 1.397 . S
C1336 C1337 1.334 . S
C1337 H1314 0.950 . S
C1337 C1336 1.334 . S
C1337 C1338 1.287 . S
C1338 C1337 1.287 . S
C1338 C1339 1.524 . S
C1338 H1357 0.913 . S
C1339 H1315 0.950 . S
C1339 C1338 1.524 . S
C1339 C1340 1.415 . S
C1340 H1316 0.950 . S
C1340 C1335 1.363 . S
C1340 C1339 1.415 . S
C1341 H1317 0.951 . S
C1341 C1342 1.366 . S
C1341 C1343 1.388 . S
C1342 C1341 1.366 . S
C1342 C1346 1.385 . S
C1343 H1318 0.951 . S
C1343 C1341 1.388 . S
C1343 C1344 1.366 . S
C1344 C1343 1.366 . S
C1344 C1345 1.414 . S
C1344 C1347 1.499 . S
C1345 H1319 0.950 . S
C1345 C1344 1.414 . S
C1345 C1346 1.374 . S
C1346 H1320 0.950 . S
C1346 C1342 1.385 . S
C1346 C1345 1.374 . S
C1347 C1344 1.499 . S
C1347 C1348 1.373 . S
C1347 C1349 1.389 . S
C1348 H1321 0.950 . S
C1348 C1334 1.377 . S
C1348 C1347 1.373 . S
C1349 C1333 1.377 . S
C1349 C1347 1.389 . S
C1349 C1350 1.524 . S
C1350 C1349 1.524 . S
C1350 C1351 1.397 . S
C1350 C1355 1.363 . S
C1351 H1322 0.950 . S
C1351 C1350 1.397 . S
C1351 C1352 1.334 . S
C1352 H1323 0.950 . S
C1352 C1351 1.334 . S
C1352 C1353 1.287 . S
C1353 C1352 1.287 . S
C1353 C1354 1.524 . S
C1353 H1356 0.999 . S
C1354 H1324 0.950 . S
C1354 C1353 1.524 . S
C1354 C1355 1.415 . S
C1355 H1325 0.950 . S
C1355 C1350 1.363 . S
C1355 C1354 1.415 . S
H1356 C1353 0.999 . S
H1357 C1338 0.913 . S
H1358 C1376 0.951 . S
H1359 C1378 0.951 . S
H1360 C1380 0.950 . S
H1361 C1381 0.950 . S
H1362 C1383 0.950 . S
H1363 C1386 0.950 . S
H1364 C1387 0.950 . S
H1365 C1389 0.950 . S
H1366 C1390 0.950 . S
H1367 C1391 0.951 . S
H1368 C1393 0.951 . S
H1369 C1395 0.950 . S
H1370 C1396 0.950 . S
H1371 C1398 0.950 . S
H1372 C1401 0.950 . S
H1373 C1402 0.950 . S
H1374 C1404 0.950 . S
H1375 C1405 0.950 . S
C1376 H1358 0.951 . S
C1376 C1377 1.366 . S
C1376 C1378 1.388 . S
C1377 C1376 1.366 . S
C1377 C1381 1.385 . S
C1378 H1359 0.951 . S
C1378 C1376 1.388 . S
C1378 C1379 1.366 . S
C1379 C1378 1.366 . S
C1379 C1380 1.414 . S
C1379 C1382 1.499 . S
C1380 H1360 0.950 . S
C1380 C1379 1.414 . S
C1380 C1381 1.374 . S
C1381 H1361 0.950 . S
C1381 C1377 1.385 . S
C1381 C1380 1.374 . S
C1382 C1379 1.499 . S
C1382 C1383 1.373 . S
C1382 C1384 1.389 . S
C1383 H1362 0.950 . S
C1383 C1382 1.373 . S
C1383 C1399 1.377 . S
C1384 C1382 1.389 . S
C1384 C1385 1.524 . S
C1384 C1398 1.377 . S
C1385 C1384 1.524 . S
C1385 C1386 1.397 . S
C1385 C1390 1.363 . S
C1386 H1363 0.950 . S
C1386 C1385 1.397 . S
C1386 C1387 1.334 . S
C1387 H1364 0.950 . S
C1387 C1386 1.334 . S
C1387 C1388 1.287 . S
C1388 C1387 1.287 . S
C1388 C1389 1.524 . S
C1388 H1407 0.913 . S
C1389 H1365 0.950 . S
C1389 C1388 1.524 . S
C1389 C1390 1.415 . S
C1390 H1366 0.950 . S
C1390 C1385 1.363 . S
C1390 C1389 1.415 . S
C1391 H1367 0.951 . S
C1391 C1392 1.366 . S
C1391 C1393 1.388 . S
C1392 C1391 1.366 . S
C1392 C1396 1.385 . S
C1393 H1368 0.951 . S
C1393 C1391 1.388 . S
C1393 C1394 1.366 . S
C1394 C1393 1.366 . S
C1394 C1395 1.414 . S
C1394 C1397 1.499 . S
C1395 H1369 0.950 . S
C1395 C1394 1.414 . S
C1395 C1396 1.374 . S
C1396 H1370 0.950 . S
C1396 C1392 1.385 . S
C1396 C1395 1.374 . S
C1397 C1394 1.499 . S
C1397 C1398 1.373 . S
C1397 C1399 1.389 . S
C1398 H1371 0.950 . S
C1398 C1384 1.377 . S
C1398 C1397 1.373 . S
C1399 C1383 1.377 . S
C1399 C1397 1.389 . S
C1399 C1400 1.524 . S
C1400 C1399 1.524 . S
C1400 C1401 1.397 . S
C1400 C1405 1.363 . S
C1401 H1372 0.950 . S
C1401 C1400 1.397 . S
C1401 C1402 1.334 . S
C1402 H1373 0.950 . S
C1402 C1401 1.334 . S
C1402 C1403 1.287 . S
C1403 C1402 1.287 . S
C1403 C1404 1.524 . S
C1403 H1406 0.999 . S
C1404 H1374 0.950 . S
C1404 C1403 1.524 . S
C1404 C1405 1.415 . S
C1405 H1375 0.950 . S
C1405 C1400 1.363 . S
C1405 C1404 1.415 . S
H1406 C1403 0.999 . S
H1407 C1388 0.913 . S
H1408 C1426 0.951 . S
H1409 C1428 0.951 . S
H1410 C1430 0.950 . S
H1411 C1431 0.950 . S
H1412 C1433 0.950 . S
H1413 C1436 0.950 . S
H1414 C1437 0.950 . S
H1415 C1439 0.950 . S
H1416 C1440 0.950 . S
H1417 C1441 0.951 . S
H1418 C1443 0.951 . S
H1419 C1445 0.950 . S
H1420 C1446 0.950 . S
H1421 C1448 0.950 . S
H1422 C1451 0.950 . S
H1423 C1452 0.950 . S
H1424 C1454 0.950 . S
H1425 C1455 0.950 . S
C1426 H1408 0.951 . S
C1426 C1427 1.366 . S
C1426 C1428 1.388 . S
C1427 C1426 1.366 . S
C1427 C1431 1.385 . S
C1428 H1409 0.951 . S
C1428 C1426 1.388 . S
C1428 C1429 1.366 . S
C1429 C1428 1.366 . S
C1429 C1430 1.414 . S
C1429 C1432 1.499 . S
C1430 H1410 0.950 . S
C1430 C1429 1.414 . S
C1430 C1431 1.374 . S
C1431 H1411 0.950 . S
C1431 C1427 1.385 . S
C1431 C1430 1.374 . S
C1432 C1429 1.499 . S
C1432 C1433 1.373 . S
C1432 C1434 1.389 . S
C1433 H1412 0.950 . S
C1433 C1432 1.373 . S
C1433 C1449 1.377 . S
C1434 C1432 1.389 . S
C1434 C1435 1.524 . S
C1434 C1448 1.377 . S
C1435 C1434 1.524 . S
C1435 C1436 1.397 . S
C1435 C1440 1.363 . S
C1436 H1413 0.950 . S
C1436 C1435 1.397 . S
C1436 C1437 1.334 . S
C1437 H1414 0.950 . S
C1437 C1436 1.334 . S
C1437 C1438 1.287 . S
C1438 C1437 1.287 . S
C1438 C1439 1.524 . S
C1438 H1457 0.913 . S
C1439 H1415 0.950 . S
C1439 C1438 1.524 . S
C1439 C1440 1.415 . S
C1440 H1416 0.950 . S
C1440 C1435 1.363 . S
C1440 C1439 1.415 . S
C1441 H1417 0.951 . S
C1441 C1442 1.366 . S
C1441 C1443 1.388 . S
C1442 C1441 1.366 . S
C1442 C1446 1.385 . S
C1443 H1418 0.951 . S
C1443 C1441 1.388 . S
C1443 C1444 1.366 . S
C1444 C1443 1.366 . S
C1444 C1445 1.414 . S
C1444 C1447 1.499 . S
C1445 H1419 0.950 . S
C1445 C1444 1.414 . S
C1445 C1446 1.374 . S
C1446 H1420 0.950 . S
C1446 C1442 1.385 . S
C1446 C1445 1.374 . S
C1447 C1444 1.499 . S
C1447 C1448 1.373 . S
C1447 C1449 1.389 . S
C1448 H1421 0.950 . S
C1448 C1434 1.377 . S
C1448 C1447 1.373 . S
C1449 C1433 1.377 . S
C1449 C1447 1.389 . S
C1449 C1450 1.524 . S
C1450 C1449 1.524 . S
C1450 C1451 1.397 . S
C1450 C1455 1.363 . S
C1451 H1422 0.950 . S
C1451 C1450 1.397 . S
C1451 C1452 1.334 . S
C1452 H1423 0.950 . S
C1452 C1451 1.334 . S
C1452 C1453 1.287 . S
C1453 C1452 1.287 . S
C1453 C1454 1.524 . S
C1453 H1456 0.999 . S
C1454 H1424 0.950 . S
C1454 C1453 1.524 . S
C1454 C1455 1.415 . S
C1455 H1425 0.950 . S
C1455 C1450 1.363 . S
C1455 C1454 1.415 . S
H1456 C1453 0.999 . S
H1457 C1438 0.913 . S
H1458 C1476 0.951 . S
H1459 C1478 0.951 . S
H1460 C1480 0.950 . S
H1461 C1481 0.950 . S
H1462 C1483 0.950 . S
H1463 C1486 0.950 . S
H1464 C1487 0.950 . S
H1465 C1489 0.950 . S
H1466 C1490 0.950 . S
H1467 C1491 0.951 . S
H1468 C1493 0.951 . S
H1469 C1495 0.950 . S
H1470 C1496 0.950 1_655 S
H1471 C1498 0.950 . S
H1472 C1501 0.950 . S
H1473 C1502 0.950 . S
H1474 C1504 0.950 . S
H1475 C1505 0.950 . S
C1476 H1458 0.951 . S
C1476 C1477 1.366 . S
C1476 C1478 1.388 . S
C1477 C1476 1.366 . S
C1477 C1481 1.385 . S
C1478 H1459 0.951 . S
C1478 C1476 1.388 . S
C1478 C1479 1.366 . S
C1479 C1478 1.366 . S
C1479 C1480 1.414 . S
C1479 C1482 1.499 . S
C1480 H1460 0.950 . S
C1480 C1479 1.414 . S
C1480 C1481 1.374 . S
C1481 H1461 0.950 . S
C1481 C1477 1.385 . S
C1481 C1480 1.374 . S
C1482 C1479 1.499 . S
C1482 C1483 1.373 . S
C1482 C1484 1.389 . S
C1483 H1462 0.950 . S
C1483 C1482 1.373 . S
C1483 C1499 1.377 . S
C1484 C1482 1.389 . S
C1484 C1485 1.524 . S
C1484 C1498 1.377 . S
C1485 C1484 1.524 . S
C1485 C1486 1.397 . S
C1485 C1490 1.363 1_455 S
C1486 H1463 0.950 . S
C1486 C1485 1.397 . S
C1486 C1487 1.334 1_455 S
C1487 H1464 0.950 . S
C1487 C1486 1.334 1_655 S
C1487 C1488 1.287 . S
C1488 C1487 1.287 . S
C1488 C1489 1.524 . S
C1488 H1507 0.913 . S
C1489 H1465 0.950 . S
C1489 C1488 1.524 . S
C1489 C1490 1.415 . S
C1490 H1466 0.950 . S
C1490 C1485 1.363 1_655 S
C1490 C1489 1.415 . S
C1491 H1467 0.951 . S
C1491 C1492 1.366 . S
C1491 C1493 1.388 . S
C1492 C1491 1.366 . S
C1492 C1496 1.385 . S
C1493 H1468 0.951 . S
C1493 C1491 1.388 . S
C1493 C1494 1.366 . S
C1494 C1493 1.366 . S
C1494 C1495 1.414 . S
C1494 C1497 1.499 . S
C1495 H1469 0.950 . S
C1495 C1494 1.414 . S
C1495 C1496 1.374 . S
C1496 H1470 0.950 1_455 S
C1496 C1492 1.385 . S
C1496 C1495 1.374 . S
C1497 C1494 1.499 . S
C1497 C1498 1.373 . S
C1497 C1499 1.389 . S
C1498 H1471 0.950 . S
C1498 C1484 1.377 . S
C1498 C1497 1.373 . S
C1499 C1483 1.377 . S
C1499 C1497 1.389 . S
C1499 C1500 1.524 . S
C1500 C1499 1.524 . S
C1500 C1501 1.397 . S
C1500 C1505 1.363 . S
C1501 H1472 0.950 . S
C1501 C1500 1.397 . S
C1501 C1502 1.334 . S
C1502 H1473 0.950 . S
C1502 C1501 1.334 . S
C1502 C1503 1.287 . S
C1503 C1502 1.287 . S
C1503 C1504 1.524 . S
C1503 H1506 0.999 . S
C1504 H1474 0.950 . S
C1504 C1503 1.524 . S
C1504 C1505 1.415 . S
C1505 H1475 0.950 . S
C1505 C1500 1.363 . S
C1505 C1504 1.415 . S
H1506 C1503 0.999 . S
H1507 C1488 0.913 . S
H1508 C1526 0.951 . S
H1509 C1528 0.951 . S
H1510 C1530 0.950 . S
H1511 C1531 0.950 . S
H1512 C1533 0.950 . S
H1513 C1536 0.950 . S
H1514 C1537 0.950 . S
H1515 C1539 0.950 . S
H1516 C1540 0.950 . S
H1517 C1541 0.951 . S
H1518 C1543 0.951 . S
H1519 C1545 0.950 . S
H1520 C1546 0.950 . S
H1521 C1548 0.950 . S
H1522 C1551 0.950 . S
H1523 C1552 0.950 . S
H1524 C1554 0.950 . S
H1525 C1555 0.950 . S
C1526 H1508 0.951 . S
C1526 C1527 1.366 . S
C1526 C1528 1.388 . S
C1527 C1526 1.366 . S
C1527 C1531 1.385 . S
C1528 H1509 0.951 . S
C1528 C1526 1.388 . S
C1528 C1529 1.366 . S
C1529 C1528 1.366 . S
C1529 C1530 1.414 . S
C1529 C1532 1.499 . S
C1530 H1510 0.950 . S
C1530 C1529 1.414 . S
C1530 C1531 1.374 . S
C1531 H1511 0.950 . S
C1531 C1527 1.385 . S
C1531 C1530 1.374 . S
C1532 C1529 1.499 . S
C1532 C1533 1.373 . S
C1532 C1534 1.389 . S
C1533 H1512 0.950 . S
C1533 C1532 1.373 . S
C1533 C1549 1.377 . S
C1534 C1532 1.389 . S
C1534 C1535 1.524 . S
C1534 C1548 1.377 . S
C1535 C1534 1.524 . S
C1535 C1536 1.397 . S
C1535 C1540 1.363 . S
C1536 H1513 0.950 . S
C1536 C1535 1.397 . S
C1536 C1537 1.334 . S
C1537 H1514 0.950 . S
C1537 C1536 1.334 . S
C1537 C1538 1.287 . S
C1538 C1537 1.287 . S
C1538 C1539 1.524 . S
C1538 H1557 0.913 . S
C1539 H1515 0.950 . S
C1539 C1538 1.524 . S
C1539 C1540 1.415 . S
C1540 H1516 0.950 . S
C1540 C1535 1.363 . S
C1540 C1539 1.415 . S
C1541 H1517 0.951 . S
C1541 C1542 1.366 . S
C1541 C1543 1.388 . S
C1542 C1541 1.366 . S
C1542 C1546 1.385 . S
C1543 H1518 0.951 . S
C1543 C1541 1.388 . S
C1543 C1544 1.366 . S
C1544 C1543 1.366 . S
C1544 C1545 1.414 . S
C1544 C1547 1.499 . S
C1545 H1519 0.950 . S
C1545 C1544 1.414 . S
C1545 C1546 1.374 . S
C1546 H1520 0.950 . S
C1546 C1542 1.385 . S
C1546 C1545 1.374 . S
C1547 C1544 1.499 . S
C1547 C1548 1.373 . S
C1547 C1549 1.389 . S
C1548 H1521 0.950 . S
C1548 C1534 1.377 . S
C1548 C1547 1.373 . S
C1549 C1533 1.377 . S
C1549 C1547 1.389 . S
C1549 C1550 1.524 . S
C1550 C1549 1.524 . S
C1550 C1551 1.397 . S
C1550 C1555 1.363 . S
C1551 H1522 0.950 . S
C1551 C1550 1.397 . S
C1551 C1552 1.334 . S
C1552 H1523 0.950 . S
C1552 C1551 1.334 . S
C1552 C1553 1.287 . S
C1553 C1552 1.287 . S
C1553 C1554 1.524 . S
C1553 H1556 0.999 . S
C1554 H1524 0.950 . S
C1554 C1553 1.524 . S
C1554 C1555 1.415 . S
C1555 H1525 0.950 . S
C1555 C1550 1.363 . S
C1555 C1554 1.415 . S
H1556 C1553 0.999 . S
H1557 C1538 0.913 . S
H1558 C1576 0.951 . S
H1559 C1578 0.951 . S
H1560 C1580 0.999 . S
H1561 C1581 0.950 . S
H1562 C1583 0.950 . S
H1563 C1586 0.968 . S
H1564 C1587 0.950 . S
H1565 C1589 0.950 . S
H1566 C1590 0.950 . S
H1567 C1591 0.951 . S
H1568 C1593 0.951 . S
H1569 C1595 0.950 . S
H1570 C1596 0.950 . S
H1571 C1598 0.950 . S
H1572 C1601 0.950 . S
H1573 C1602 0.950 . S
H1574 C1604 0.950 . S
H1575 C1605 0.990 . S
C1576 H1558 0.951 . S
C1576 C1577 1.366 . S
C1576 C1578 1.388 . S
C1577 C1576 1.366 . S
C1577 C1581 1.385 . S
C1578 H1559 0.951 . S
C1578 C1576 1.388 . S
C1578 C1579 1.366 . S
C1579 C1578 1.366 . S
C1579 C1580 1.414 . S
C1579 C1582 1.499 . S
C1580 H1560 0.999 . S
C1580 C1579 1.414 . S
C1580 C1581 1.374 . S
C1581 H1561 0.950 . S
C1581 C1577 1.385 . S
C1581 C1580 1.374 . S
C1582 C1579 1.499 . S
C1582 C1583 1.373 . S
C1582 C1584 1.389 . S
C1583 H1562 0.950 . S
C1583 C1582 1.373 . S
C1583 C1599 1.377 . S
C1584 C1582 1.389 . S
C1584 C1585 1.524 . S
C1584 C1598 1.377 . S
C1585 C1584 1.524 . S
C1585 C1586 1.397 . S
C1585 C1590 1.363 . S
C1586 H1563 0.968 . S
C1586 C1585 1.397 . S
C1586 C1587 1.334 . S
C1587 H1564 0.950 . S
C1587 C1586 1.334 . S
C1587 C1588 1.287 . S
C1588 C1587 1.287 . S
C1588 C1589 1.524 . S
C1588 H1607 0.913 . S
C1589 H1565 0.950 . S
C1589 C1588 1.524 . S
C1589 C1590 1.415 . S
C1590 H1566 0.950 . S
C1590 C1585 1.363 . S
C1590 C1589 1.415 . S
C1591 H1567 0.951 . S
C1591 C1592 1.366 1_455 S
C1591 C1593 1.388 . S
C1592 C1591 1.366 1_655 S
C1592 C1596 1.385 . S
C1593 H1568 0.951 . S
C1593 C1591 1.388 . S
C1593 C1594 1.366 1_455 S
C1594 C1593 1.366 1_655 S
C1594 C1595 1.414 . S
C1594 C1597 1.499 . S
C1595 H1569 0.950 . S
C1595 C1594 1.414 . S
C1595 C1596 1.374 . S
C1596 H1570 0.950 . S
C1596 C1592 1.385 . S
C1596 C1595 1.374 . S
C1597 C1594 1.499 . S
C1597 C1598 1.373 . S
C1597 C1599 1.389 . S
C1598 H1571 0.950 . S
C1598 C1584 1.377 . S
C1598 C1597 1.373 . S
C1599 C1583 1.377 . S
C1599 C1597 1.389 . S
C1599 C1600 1.524 . S
C1600 C1599 1.524 . S
C1600 C1601 1.397 . S
C1600 C1605 1.321 1_655 S
C1601 H1572 0.950 . S
C1601 C1600 1.397 . S
C1601 C1602 1.334 . S
C1602 H1573 0.950 . S
C1602 C1601 1.334 . S
C1602 C1603 1.287 . S
C1603 C1602 1.287 . S
C1603 C1604 1.524 1_655 S
C1603 H1606 0.999 . S
C1604 H1574 0.950 . S
C1604 C1603 1.524 1_455 S
C1604 C1605 1.420 . S
C1605 H1575 0.990 . S
C1605 C1600 1.321 1_455 S
C1605 C1604 1.420 . S
H1606 C1603 0.999 . S
H1607 C1588 0.913 . S
H1608 C1626 0.951 . S
H1609 C1628 0.951 . S
H1610 C1630 0.950 . S
H1611 C1631 0.950 . S
H1612 C1633 0.950 . S
H1613 C1636 0.950 . S
H1614 C1637 0.950 . S
H1615 C1639 0.950 . S
H1616 C1640 0.950 . S
H1617 C1641 0.951 . S
H1618 C1643 0.951 . S
H1619 C1645 0.950 . S
H1620 C1646 0.950 . S
H1621 C1648 0.950 . S
H1622 C1651 0.950 . S
H1623 C1652 0.950 . S
H1624 C1654 0.950 . S
H1625 C1655 0.950 . S
C1626 H1608 0.951 . S
C1626 C1627 1.366 . S
C1626 C1628 1.388 . S
C1627 C1626 1.366 . S
C1627 C1631 1.385 . S
C1628 H1609 0.951 . S
C1628 C1626 1.388 . S
C1628 C1629 1.366 . S
C1629 C1628 1.366 . S
C1629 C1630 1.414 . S
C1629 C1632 1.499 . S
C1630 H1610 0.950 . S
C1630 C1629 1.414 . S
C1630 C1631 1.374 . S
C1631 H1611 0.950 . S
C1631 C1627 1.385 . S
C1631 C1630 1.374 . S
C1632 C1629 1.499 . S
C1632 C1633 1.373 . S
C1632 C1634 1.389 . S
C1633 H1612 0.950 . S
C1633 C1632 1.373 . S
C1633 C1649 1.377 . S
C1634 C1632 1.389 . S
C1634 C1635 1.524 . S
C1634 C1648 1.377 . S
C1635 C1634 1.524 . S
C1635 C1636 1.397 . S
C1635 C1640 1.363 . S
C1636 H1613 0.950 . S
C1636 C1635 1.397 . S
C1636 C1637 1.334 . S
C1637 H1614 0.950 . S
C1637 C1636 1.334 . S
C1637 C1638 1.287 . S
C1638 C1637 1.287 . S
C1638 C1639 1.524 . S
C1638 H1657 0.913 . S
C1639 H1615 0.950 . S
C1639 C1638 1.524 . S
C1639 C1640 1.415 . S
C1640 H1616 0.950 . S
C1640 C1635 1.363 . S
C1640 C1639 1.415 . S
C1641 H1617 0.951 . S
C1641 C1642 1.366 . S
C1641 C1643 1.388 . S
C1642 C1641 1.366 . S
C1642 C1646 1.385 . S
C1643 H1618 0.951 . S
C1643 C1641 1.388 . S
C1643 C1644 1.366 . S
C1644 C1643 1.366 . S
C1644 C1645 1.414 . S
C1644 C1647 1.499 . S
C1645 H1619 0.950 . S
C1645 C1644 1.414 . S
C1645 C1646 1.374 . S
C1646 H1620 0.950 . S
C1646 C1642 1.385 . S
C1646 C1645 1.374 . S
C1647 C1644 1.499 . S
C1647 C1648 1.373 . S
C1647 C1649 1.389 . S
C1648 H1621 0.950 . S
C1648 C1634 1.377 . S
C1648 C1647 1.373 . S
C1649 C1633 1.377 . S
C1649 C1647 1.389 . S
C1649 C1650 1.524 . S
C1650 C1649 1.524 . S
C1650 C1651 1.397 . S
C1650 C1655 1.363 . S
C1651 H1622 0.950 . S
C1651 C1650 1.397 . S
C1651 C1652 1.334 . S
C1652 H1623 0.950 . S
C1652 C1651 1.334 . S
C1652 C1653 1.287 . S
C1653 C1652 1.287 . S
C1653 C1654 1.524 . S
C1653 H1656 0.999 . S
C1654 H1624 0.950 . S
C1654 C1653 1.524 . S
C1654 C1655 1.415 . S
C1655 H1625 0.950 . S
C1655 C1650 1.363 . S
C1655 C1654 1.415 . S
H1656 C1653 0.999 . S
H1657 C1638 0.913 . S
H1658 C1676 0.951 . S
H1659 C1678 0.951 . S
H1660 C1680 0.950 . S
H1661 C1681 0.950 . S
H1662 C1683 0.950 . S
H1663 C1686 0.950 . S
H1664 C1687 0.950 . S
H1665 C1689 0.950 . S
H1666 C1690 0.950 . S
H1667 C1691 0.951 . S
H1668 C1693 0.951 . S
H1669 C1695 0.950 . S
H1670 C1696 0.950 . S
H1671 C1698 0.950 . S
H1672 C1701 0.950 . S
H1673 C1702 0.950 . S
H1674 C1704 0.950 . S
H1675 C1705 0.950 . S
C1676 H1658 0.951 . S
C1676 C1677 1.366 . S
C1676 C1678 1.388 . S
C1677 C1676 1.366 . S
C1677 C1681 1.385 . S
C1678 H1659 0.951 . S
C1678 C1676 1.388 . S
C1678 C1679 1.366 . S
C1679 C1678 1.366 . S
C1679 C1680 1.414 . S
C1679 C1682 1.499 . S
C1680 H1660 0.950 . S
C1680 C1679 1.414 . S
C1680 C1681 1.374 . S
C1681 H1661 0.950 . S
C1681 C1677 1.385 . S
C1681 C1680 1.374 . S
C1682 C1679 1.499 . S
C1682 C1683 1.373 . S
C1682 C1684 1.389 . S
C1683 H1662 0.950 . S
C1683 C1682 1.373 . S
C1683 C1699 1.377 . S
C1684 C1682 1.389 . S
C1684 C1685 1.524 . S
C1684 C1698 1.377 . S
C1685 C1684 1.524 . S
C1685 C1686 1.397 . S
C1685 C1690 1.363 . S
C1686 H1663 0.950 . S
C1686 C1685 1.397 . S
C1686 C1687 1.334 . S
C1687 H1664 0.950 . S
C1687 C1686 1.334 . S
C1687 C1688 1.287 . S
C1688 C1687 1.287 . S
C1688 C1689 1.524 . S
C1688 H1707 0.913 . S
C1689 H1665 0.950 . S
C1689 C1688 1.524 . S
C1689 C1690 1.415 . S
C1690 H1666 0.950 . S
C1690 C1685 1.363 . S
C1690 C1689 1.415 . S
C1691 H1667 0.951 . S
C1691 C1692 1.366 . S
C1691 C1693 1.388 . S
C1692 C1691 1.366 . S
C1692 C1696 1.385 . S
C1693 H1668 0.951 . S
C1693 C1691 1.388 . S
C1693 C1694 1.366 . S
C1694 C1693 1.366 . S
C1694 C1695 1.414 . S
C1694 C1697 1.499 . S
C1695 H1669 0.950 . S
C1695 C1694 1.414 . S
C1695 C1696 1.374 . S
C1696 H1670 0.950 . S
C1696 C1692 1.385 . S
C1696 C1695 1.374 . S
C1697 C1694 1.499 . S
C1697 C1698 1.373 . S
C1697 C1699 1.389 . S
C1698 H1671 0.950 . S
C1698 C1684 1.377 . S
C1698 C1697 1.373 . S
C1699 C1683 1.377 . S
C1699 C1697 1.389 . S
C1699 C1700 1.524 . S
C1700 C1699 1.524 . S
C1700 C1701 1.397 . S
C1700 C1705 1.363 . S
C1701 H1672 0.950 . S
C1701 C1700 1.397 . S
C1701 C1702 1.334 . S
C1702 H1673 0.950 . S
C1702 C1701 1.334 . S
C1702 C1703 1.287 . S
C1703 C1702 1.287 . S
C1703 C1704 1.524 . S
C1703 H1706 0.999 . S
C1704 H1674 0.950 . S
C1704 C1703 1.524 . S
C1704 C1705 1.415 . S
C1705 H1675 0.950 . S
C1705 C1700 1.363 . S
C1705 C1704 1.415 . S
H1706 C1703 0.999 . S
H1707 C1688 0.913 . S
H1708 C1726 0.951 1_545 S
H1709 C1728 0.951 . S
H1710 C1730 0.950 . S
H1711 C1731 0.950 . S
H1712 C1733 0.950 . S
H1713 C1736 0.988 . S
H1714 C1737 0.950 . S
H1715 C1739 0.950 . S
H1716 C1740 0.950 . S
H1717 C1741 0.951 . S
H1718 C1743 0.951 . S
H1719 C1745 0.950 . S
H1720 C1746 0.935 1_554 S
H1721 C1748 0.950 1_554 S
H1722 C1751 0.950 . S
H1723 C1752 0.950 . S
H1724 C1754 0.950 . S
H1725 C1755 0.950 . S
C1726 H1708 0.951 1_565 S
C1726 C1727 1.366 . S
C1726 C1728 1.388 . S
C1727 C1726 1.366 . S
C1727 C1731 1.385 . S
C1728 H1709 0.951 . S
C1728 C1726 1.388 . S
C1728 C1729 1.366 . S
C1729 C1728 1.366 . S
C1729 C1730 1.414 . S
C1729 C1732 1.499 . S
C1730 H1710 0.950 . S
C1730 C1729 1.414 . S
C1730 C1731 1.374 . S
C1731 H1711 0.950 . S
C1731 C1727 1.385 . S
C1731 C1730 1.374 . S
C1732 C1729 1.499 . S
C1732 C1733 1.373 . S
C1732 C1734 1.389 . S
C1733 H1712 0.950 . S
C1733 C1732 1.373 . S
C1733 C1749 1.377 . S
C1734 C1732 1.389 . S
C1734 C1735 1.524 1_556 S
C1734 C1748 1.377 . S
C1735 C1734 1.524 1_554 S
C1735 C1736 1.397 . S
C1735 C1740 1.363 . S
C1736 H1713 0.988 . S
C1736 C1735 1.397 . S
C1736 C1737 1.334 . S
C1737 H1714 0.950 . S
C1737 C1736 1.334 . S
C1737 C1738 1.287 . S
C1738 C1737 1.287 . S
C1738 C1739 1.524 . S
C1738 H1757 0.913 . S
C1739 H1715 0.950 . S
C1739 C1738 1.524 . S
C1739 C1740 1.415 . S
C1740 H1716 0.950 . S
C1740 C1735 1.363 . S
C1740 C1739 1.415 . S
C1741 H1717 0.951 . S
C1741 C1742 1.366 . S
C1741 C1743 1.388 . S
C1742 C1741 1.366 . S
C1742 C1746 1.385 . S
C1743 H1718 0.951 . S
C1743 C1741 1.388 . S
C1743 C1744 1.366 . S
C1744 C1743 1.366 . S
C1744 C1745 1.414 . S
C1744 C1747 1.499 . S
C1745 H1719 0.950 . S
C1745 C1744 1.414 . S
C1745 C1746 1.374 . S
C1746 H1720 0.935 1_556 S
C1746 C1742 1.385 . S
C1746 C1745 1.374 . S
C1747 C1744 1.499 . S
C1747 C1748 1.373 . S
C1747 C1749 1.389 . S
C1748 H1721 0.950 1_556 S
C1748 C1734 1.377 . S
C1748 C1747 1.373 . S
C1749 C1733 1.377 . S
C1749 C1747 1.389 . S
C1749 C1750 1.524 . S
C1750 C1749 1.524 . S
C1750 C1751 1.397 . S
C1750 C1755 1.363 . S
C1751 H1722 0.950 . S
C1751 C1750 1.397 . S
C1751 C1752 1.334 . S
C1752 H1723 0.950 . S
C1752 C1751 1.334 . S
C1752 C1753 1.287 . S
C1753 C1752 1.287 . S
C1753 C1754 1.524 . S
C1753 H1756 0.999 . S
C1754 H1724 0.950 . S
C1754 C1753 1.524 . S
C1754 C1755 1.415 . S
C1755 H1725 0.950 . S
C1755 C1750 1.363 . S
C1755 C1754 1.415 . S
H1756 C1753 0.999 . S
H1757 C1738 0.913 . S
H1758 C1776 0.951 . S
H1759 C1778 0.951 . S
H1760 C1780 0.950 . S
H1761 C1781 0.950 . S
H1762 C1783 0.950 . S
H1763 C1786 0.950 . S
H1764 C1787 0.950 . S
H1765 C1789 0.950 . S
H1766 C1790 0.950 . S
H1767 C1791 0.951 . S
H1768 C1793 0.951 . S
H1769 C1795 0.950 . S
H1770 C1796 0.950 . S
H1771 C1798 0.950 . S
H1772 C1801 0.950 . S
H1773 C1802 0.950 . S
H1774 C1804 0.950 . S
H1775 C1805 0.950 . S
C1776 H1758 0.951 . S
C1776 C1777 1.366 . S
C1776 C1778 1.388 . S
C1777 C1776 1.366 . S
C1777 C1781 1.385 . S
C1778 H1759 0.951 . S
C1778 C1776 1.388 . S
C1778 C1779 1.366 . S
C1779 C1778 1.366 . S
C1779 C1780 1.414 . S
C1779 C1782 1.499 . S
C1780 H1760 0.950 . S
C1780 C1779 1.414 . S
C1780 C1781 1.374 . S
C1781 H1761 0.950 . S
C1781 C1777 1.385 . S
C1781 C1780 1.374 . S
C1782 C1779 1.499 . S
C1782 C1783 1.373 . S
C1782 C1784 1.389 . S
C1783 H1762 0.950 . S
C1783 C1782 1.373 . S
C1783 C1799 1.377 . S
C1784 C1782 1.389 . S
C1784 C1785 1.524 . S
C1784 C1798 1.377 . S
C1785 C1784 1.524 . S
C1785 C1786 1.397 . S
C1785 C1790 1.363 . S
C1786 H1763 0.950 . S
C1786 C1785 1.397 . S
C1786 C1787 1.334 . S
C1787 H1764 0.950 . S
C1787 C1786 1.334 . S
C1787 C1788 1.287 . S
C1788 C1787 1.287 . S
C1788 C1789 1.524 . S
C1788 H1807 0.913 . S
C1789 H1765 0.950 . S
C1789 C1788 1.524 . S
C1789 C1790 1.415 . S
C1790 H1766 0.950 . S
C1790 C1785 1.363 . S
C1790 C1789 1.415 . S
C1791 H1767 0.951 . S
C1791 C1792 1.366 . S
C1791 C1793 1.388 . S
C1792 C1791 1.366 . S
C1792 C1796 1.385 . S
C1793 H1768 0.951 . S
C1793 C1791 1.388 . S
C1793 C1794 1.366 . S
C1794 C1793 1.366 . S
C1794 C1795 1.414 . S
C1794 C1797 1.499 . S
C1795 H1769 0.950 . S
C1795 C1794 1.414 . S
C1795 C1796 1.374 . S
C1796 H1770 0.950 . S
C1796 C1792 1.385 . S
C1796 C1795 1.374 . S
C1797 C1794 1.499 . S
C1797 C1798 1.373 . S
C1797 C1799 1.389 . S
C1798 H1771 0.950 . S
C1798 C1784 1.377 . S
C1798 C1797 1.373 . S
C1799 C1783 1.377 . S
C1799 C1797 1.389 . S
C1799 C1800 1.524 . S
C1800 C1799 1.524 . S
C1800 C1801 1.397 . S
C1800 C1805 1.363 . S
C1801 H1772 0.950 . S
C1801 C1800 1.397 . S
C1801 C1802 1.334 . S
C1802 H1773 0.950 . S
C1802 C1801 1.334 . S
C1802 C1803 1.287 . S
C1803 C1802 1.287 . S
C1803 C1804 1.524 . S
C1803 H1806 0.999 . S
C1804 H1774 0.950 . S
C1804 C1803 1.524 . S
C1804 C1805 1.415 . S
C1805 H1775 0.950 . S
C1805 C1800 1.363 . S
C1805 C1804 1.415 . S
H1806 C1803 0.999 . S
H1807 C1788 0.913 . S
H1808 C1826 0.951 . S
H1809 C1828 0.951 . S
H1810 C1830 0.950 . S
H1811 C1831 0.950 . S
H1812 C1833 0.950 . S
H1813 C1836 0.950 . S
H1814 C1837 0.950 1_565 S
H1815 C1839 0.943 1_565 S
H1816 C1840 0.950 . S
H1817 C1841 0.951 . S
H1818 C1843 0.951 . S
H1819 C1845 0.950 . S
H1820 C1846 0.950 . S
H1821 C1848 0.950 . S
H1822 C1851 0.950 . S
H1823 C1852 0.950 . S
H1824 C1854 0.950 . S
H1825 C1855 0.950 . S
C1826 H1808 0.951 . S
C1826 C1827 1.366 . S
C1826 C1828 1.388 . S
C1827 C1826 1.366 . S
C1827 C1831 1.385 . S
C1828 H1809 0.951 . S
C1828 C1826 1.388 . S
C1828 C1829 1.366 . S
C1829 C1828 1.366 . S
C1829 C1830 1.414 . S
C1829 C1832 1.499 . S
C1830 H1810 0.950 . S
C1830 C1829 1.414 . S
C1830 C1831 1.374 . S
C1831 H1811 0.950 . S
C1831 C1827 1.385 . S
C1831 C1830 1.374 . S
C1832 C1829 1.499 . S
C1832 C1833 1.373 . S
C1832 C1834 1.389 . S
C1833 H1812 0.950 . S
C1833 C1832 1.373 . S
C1833 C1849 1.377 . S
C1834 C1832 1.389 . S
C1834 C1835 1.524 . S
C1834 C1848 1.377 . S
C1835 C1834 1.524 . S
C1835 C1836 1.397 . S
C1835 C1840 1.363 . S
C1836 H1813 0.950 . S
C1836 C1835 1.397 . S
C1836 C1837 1.334 . S
C1837 H1814 0.950 1_545 S
C1837 C1836 1.334 . S
C1837 C1838 1.287 1_545 S
C1838 C1837 1.287 1_565 S
C1838 C1839 1.524 1_565 S
C1838 H1857 0.913 . S
C1839 H1815 0.943 1_545 S
C1839 C1838 1.524 1_545 S
C1839 C1840 1.415 . S
C1840 H1816 0.950 . S
C1840 C1835 1.363 . S
C1840 C1839 1.415 . S
C1841 H1817 0.951 . S
C1841 C1842 1.366 . S
C1841 C1843 1.388 . S
C1842 C1841 1.366 . S
C1842 C1846 1.385 . S
C1843 H1818 0.951 . S
C1843 C1841 1.388 . S
C1843 C1844 1.366 . S
C1844 C1843 1.366 . S
C1844 C1845 1.414 . S
C1844 C1847 1.499 . S
C1845 H1819 0.950 . S
C1845 C1844 1.414 . S
C1845 C1846 1.374 . S
C1846 H1820 0.950 . S
C1846 C1842 1.385 . S
C1846 C1845 1.374 . S
C1847 C1844 1.499 . S
C1847 C1848 1.373 . S
C1847 C1849 1.389 . S
C1848 H1821 0.950 . S
C1848 C1834 1.377 . S
C1848 C1847 1.373 . S
C1849 C1833 1.377 . S
C1849 C1847 1.389 . S
C1849 C1850 1.524 . S
C1850 C1849 1.524 . S
C1850 C1851 1.397 . S
C1850 C1855 1.363 . S
C1851 H1822 0.950 . S
C1851 C1850 1.397 . S
C1851 C1852 1.334 . S
C1852 H1823 0.950 . S
C1852 C1851 1.334 . S
C1852 C1853 1.287 . S
C1853 C1852 1.287 . S
C1853 C1854 1.524 . S
C1853 H1856 0.999 . S
C1854 H1824 0.950 . S
C1854 C1853 1.524 . S
C1854 C1855 1.415 . S
C1855 H1825 0.950 . S
C1855 C1850 1.363 . S
C1855 C1854 1.415 . S
H1856 C1853 0.999 . S
H1857 C1838 0.913 . S
H1858 C1876 0.951 . S
H1859 C1878 0.951 . S
H1860 C1880 0.950 . S
H1861 C1881 0.950 . S
H1862 C1883 0.950 . S
H1863 C1886 0.950 . S
H1864 C1887 0.950 . S
H1865 C1889 0.950 . S
H1866 C1890 0.950 . S
H1867 C1891 0.951 . S
H1868 C1893 0.951 . S
H1869 C1895 0.950 . S
H1870 C1896 0.950 . S
H1871 C1898 0.950 . S
H1872 C1901 0.950 . S
H1873 C1902 0.950 . S
H1874 C1904 0.950 . S
H1875 C1905 0.950 . S
C1876 H1858 0.951 . S
C1876 C1877 1.366 . S
C1876 C1878 1.388 . S
C1877 C1876 1.366 . S
C1877 C1881 1.385 . S
C1878 H1859 0.951 . S
C1878 C1876 1.388 . S
C1878 C1879 1.366 . S
C1879 C1878 1.366 . S
C1879 C1880 1.414 . S
C1879 C1882 1.499 . S
C1880 H1860 0.950 . S
C1880 C1879 1.414 . S
C1880 C1881 1.374 . S
C1881 H1861 0.950 . S
C1881 C1877 1.385 . S
C1881 C1880 1.374 . S
C1882 C1879 1.499 . S
C1882 C1883 1.373 . S
C1882 C1884 1.389 . S
C1883 H1862 0.950 . S
C1883 C1882 1.373 . S
C1883 C1899 1.377 . S
C1884 C1882 1.389 . S
C1884 C1885 1.524 . S
C1884 C1898 1.377 . S
C1885 C1884 1.524 . S
C1885 C1886 1.397 . S
C1885 C1890 1.363 . S
C1886 H1863 0.950 . S
C1886 C1885 1.397 . S
C1886 C1887 1.334 . S
C1887 H1864 0.950 . S
C1887 C1886 1.334 . S
C1887 C1888 1.287 . S
C1888 C1887 1.287 . S
C1888 C1889 1.524 . S
C1888 H1907 0.913 . S
C1889 H1865 0.950 . S
C1889 C1888 1.524 . S
C1889 C1890 1.415 . S
C1890 H1866 0.950 . S
C1890 C1885 1.363 . S
C1890 C1889 1.415 . S
C1891 H1867 0.951 . S
C1891 C1892 1.366 . S
C1891 C1893 1.388 . S
C1892 C1891 1.366 . S
C1892 C1896 1.385 . S
C1893 H1868 0.951 . S
C1893 C1891 1.388 . S
C1893 C1894 1.366 . S
C1894 C1893 1.366 . S
C1894 C1895 1.414 . S
C1894 C1897 1.499 . S
C1895 H1869 0.950 . S
C1895 C1894 1.414 . S
C1895 C1896 1.374 . S
C1896 H1870 0.950 . S
C1896 C1892 1.385 . S
C1896 C1895 1.374 . S
C1897 C1894 1.499 . S
C1897 C1898 1.373 . S
C1897 C1899 1.389 . S
C1898 H1871 0.950 . S
C1898 C1884 1.377 . S
C1898 C1897 1.373 . S
C1899 C1883 1.377 . S
C1899 C1897 1.389 . S
C1899 C1900 1.524 . S
C1900 C1899 1.524 . S
C1900 C1901 1.397 . S
C1900 C1905 1.363 . S
C1901 H1872 0.950 . S
C1901 C1900 1.397 . S
C1901 C1902 1.334 . S
C1902 H1873 0.950 . S
C1902 C1901 1.334 . S
C1902 C1903 1.287 . S
C1903 C1902 1.287 . S
C1903 C1904 1.524 . S
C1903 H1906 0.999 . S
C1904 H1874 0.950 . S
C1904 C1903 1.524 . S
C1904 C1905 1.415 . S
C1905 H1875 0.950 . S
C1905 C1900 1.363 . S
C1905 C1904 1.415 . S
H1906 C1903 0.999 . S
H1907 C1888 0.913 . S
H1908 C1926 0.951 . S
H1909 C1928 0.951 . S
H1910 C1930 0.950 . S
H1911 C1931 0.950 . S
H1912 C1933 0.950 . S
H1913 C1936 0.950 . S
H1914 C1937 0.950 . S
H1915 C1939 0.950 . S
H1916 C1940 0.950 . S
H1917 C1941 0.951 . S
H1918 C1943 0.951 . S
H1919 C1945 0.950 . S
H1920 C1946 0.950 . S
H1921 C1948 0.950 . S
H1922 C1951 0.950 . S
H1923 C1952 0.950 . S
H1924 C1954 0.950 . S
H1925 C1955 0.950 . S
C1926 H1908 0.951 . S
C1926 C1927 1.366 . S
C1926 C1928 1.388 . S
C1927 C1926 1.366 . S
C1927 C1931 1.385 . S
C1928 H1909 0.951 . S
C1928 C1926 1.388 . S
C1928 C1929 1.366 . S
C1929 C1928 1.366 . S
C1929 C1930 1.414 . S
C1929 C1932 1.499 . S
C1930 H1910 0.950 . S
C1930 C1929 1.414 . S
C1930 C1931 1.374 . S
C1931 H1911 0.950 . S
C1931 C1927 1.385 . S
C1931 C1930 1.374 . S
C1932 C1929 1.499 . S
C1932 C1933 1.373 . S
C1932 C1934 1.389 . S
C1933 H1912 0.950 . S
C1933 C1932 1.373 . S
C1933 C1949 1.377 . S
C1934 C1932 1.389 . S
C1934 C1935 1.524 . S
C1934 C1948 1.377 . S
C1935 C1934 1.524 . S
C1935 C1936 1.397 . S
C1935 C1940 1.363 . S
C1936 H1913 0.950 . S
C1936 C1935 1.397 . S
C1936 C1937 1.334 . S
C1937 H1914 0.950 . S
C1937 C1936 1.334 . S
C1937 C1938 1.287 . S
C1938 C1937 1.287 . S
C1938 C1939 1.524 . S
C1938 H1957 0.913 . S
C1939 H1915 0.950 . S
C1939 C1938 1.524 . S
C1939 C1940 1.415 . S
C1940 H1916 0.950 . S
C1940 C1935 1.363 . S
C1940 C1939 1.415 . S
C1941 H1917 0.951 . S
C1941 C1942 1.366 . S
C1941 C1943 1.388 . S
C1942 C1941 1.366 . S
C1942 C1946 1.385 . S
C1943 H1918 0.951 . S
C1943 C1941 1.388 . S
C1943 C1944 1.366 . S
C1944 C1943 1.366 . S
C1944 C1945 1.414 . S
C1944 C1947 1.499 . S
C1945 H1919 0.950 . S
C1945 C1944 1.414 . S
C1945 C1946 1.374 . S
C1946 H1920 0.950 . S
C1946 C1942 1.385 . S
C1946 C1945 1.374 . S
C1947 C1944 1.499 . S
C1947 C1948 1.373 . S
C1947 C1949 1.389 . S
C1948 H1921 0.950 . S
C1948 C1934 1.377 . S
C1948 C1947 1.373 . S
C1949 C1933 1.377 . S
C1949 C1947 1.389 . S
C1949 C1950 1.524 . S
C1950 C1949 1.524 . S
C1950 C1951 1.397 . S
C1950 C1955 1.363 . S
C1951 H1922 0.950 . S
C1951 C1950 1.397 . S
C1951 C1952 1.334 . S
C1952 H1923 0.950 . S
C1952 C1951 1.334 . S
C1952 C1953 1.287 . S
C1953 C1952 1.287 . S
C1953 C1954 1.524 . S
C1953 H1956 0.999 . S
C1954 H1924 0.950 . S
C1954 C1953 1.524 . S
C1954 C1955 1.415 . S
C1955 H1925 0.950 . S
C1955 C1950 1.363 . S
C1955 C1954 1.415 . S
H1956 C1953 0.999 . S
H1957 C1938 0.913 . S
H1958 C1976 0.951 . S
H1959 C1978 0.951 . S
H1960 C1980 0.950 . S
H1961 C1981 0.950 . S
H1962 C1983 0.950 . S
H1963 C1986 0.950 . S
H1964 C1987 0.950 . S
H1965 C1989 0.950 . S
H1966 C1990 0.950 . S
H1967 C1991 0.951 . S
H1968 C1993 0.951 . S
H1969 C1995 0.950 . S
H1970 C1996 0.950 . S
H1971 C1998 0.950 . S
H1972 C2001 0.950 . S
H1973 C2002 0.950 . S
H1974 C2004 0.950 . S
H1975 C2005 0.950 . S
C1976 H1958 0.951 . S
C1976 C1977 1.366 . S
C1976 C1978 1.388 . S
C1977 C1976 1.366 . S
C1977 C1981 1.385 . S
C1978 H1959 0.951 . S
C1978 C1976 1.388 . S
C1978 C1979 1.366 . S
C1979 C1978 1.366 . S
C1979 C1980 1.414 . S
C1979 C1982 1.499 . S
C1980 H1960 0.950 . S
C1980 C1979 1.414 . S
C1980 C1981 1.374 . S
C1981 H1961 0.950 . S
C1981 C1977 1.385 . S
C1981 C1980 1.374 . S
C1982 C1979 1.499 . S
C1982 C1983 1.373 . S
C1982 C1984 1.389 . S
C1983 H1962 0.950 . S
C1983 C1982 1.373 . S
C1983 C1999 1.377 . S
C1984 C1982 1.389 . S
C1984 C1985 1.524 . S
C1984 C1998 1.377 . S
C1985 C1984 1.524 . S
C1985 C1986 1.397 . S
C1985 C1990 1.363 . S
C1986 H1963 0.950 . S
C1986 C1985 1.397 . S
C1986 C1987 1.334 . S
C1987 H1964 0.950 . S
C1987 C1986 1.334 . S
C1987 C1988 1.287 . S
C1988 C1987 1.287 . S
C1988 C1989 1.524 . S
C1988 H2007 0.913 . S
C1989 H1965 0.950 . S
C1989 C1988 1.524 . S
C1989 C1990 1.415 . S
C1990 H1966 0.950 . S
C1990 C1985 1.363 . S
C1990 C1989 1.415 . S
C1991 H1967 0.951 . S
C1991 C1992 1.366 . S
C1991 C1993 1.388 . S
C1992 C1991 1.366 . S
C1992 C1996 1.385 . S
C1993 H1968 0.951 . S
C1993 C1991 1.388 . S
C1993 C1994 1.366 . S
C1994 C1993 1.366 . S
C1994 C1995 1.414 . S
C1994 C1997 1.499 . S
C1995 H1969 0.950 . S
C1995 C1994 1.414 . S
C1995 C1996 1.374 . S
C1996 H1970 0.950 . S
C1996 C1992 1.385 . S
C1996 C1995 1.374 . S
C1997 C1994 1.499 . S
C1997 C1998 1.373 . S
C1997 C1999 1.389 . S
C1998 H1971 0.950 . S
C1998 C1984 1.377 . S
C1998 C1997 1.373 . S
C1999 C1983 1.377 . S
C1999 C1997 1.389 . S
C1999 C2000 1.524 . S
C2000 C1999 1.524 . S
C2000 C2001 1.397 . S
C2000 C2005 1.363 . S
C2001 H1972 0.950 . S
C2001 C2000 1.397 . S
C2001 C2002 1.334 . S
C2002 H1973 0.950 . S
C2002 C2001 1.334 . S
C2002 C2003 1.287 . S
C2003 C2002 1.287 . S
C2003 C2004 1.524 . S
C2003 H2006 0.999 . S
C2004 H1974 0.950 . S
C2004 C2003 1.524 . S
C2004 C2005 1.415 . S
C2005 H1975 0.950 . S
C2005 C2000 1.363 . S
C2005 C2004 1.415 . S
H2006 C2003 0.999 . S
H2007 C1988 0.913 . S
H2008 C2026 0.951 . S
H2009 C2028 0.951 . S
H2010 C2030 0.950 . S
H2011 C2031 0.950 . S
H2012 C2033 0.950 . S
H2013 C2036 0.950 . S
H2014 C2037 0.950 . S
H2015 C2039 0.950 . S
H2016 C2040 0.950 . S
H2017 C2041 0.951 . S
H2018 C2043 0.951 . S
H2019 C2045 0.950 . S
H2020 C2046 0.950 . S
H2021 C2048 0.950 . S
H2022 C2051 0.950 . S
H2023 C2052 0.950 . S
H2024 C2054 0.950 . S
H2025 C2055 0.950 . S
C2026 H2008 0.951 . S
C2026 C2027 1.366 . S
C2026 C2028 1.388 . S
C2027 C2026 1.366 . S
C2027 C2031 1.385 . S
C2028 H2009 0.951 . S
C2028 C2026 1.388 . S
C2028 C2029 1.366 . S
C2029 C2028 1.366 . S
C2029 C2030 1.414 . S
C2029 C2032 1.499 . S
C2030 H2010 0.950 . S
C2030 C2029 1.414 . S
C2030 C2031 1.374 . S
C2031 H2011 0.950 . S
C2031 C2027 1.385 . S
C2031 C2030 1.374 . S
C2032 C2029 1.499 . S
C2032 C2033 1.373 . S
C2032 C2034 1.389 . S
C2033 H2012 0.950 . S
C2033 C2032 1.373 . S
C2033 C2049 1.377 . S
C2034 C2032 1.389 . S
C2034 C2035 1.524 . S
C2034 C2048 1.377 . S
C2035 C2034 1.524 . S
C2035 C2036 1.397 . S
C2035 C2040 1.363 . S
C2036 H2013 0.950 . S
C2036 C2035 1.397 . S
C2036 C2037 1.334 . S
C2037 H2014 0.950 . S
C2037 C2036 1.334 . S
C2037 C2038 1.287 . S
C2038 C2037 1.287 . S
C2038 C2039 1.524 . S
C2038 H2057 0.913 . S
C2039 H2015 0.950 . S
C2039 C2038 1.524 . S
C2039 C2040 1.415 . S
C2040 H2016 0.950 . S
C2040 C2035 1.363 . S
C2040 C2039 1.415 . S
C2041 H2017 0.951 . S
C2041 C2042 1.366 . S
C2041 C2043 1.388 . S
C2042 C2041 1.366 . S
C2042 C2046 1.385 . S
C2043 H2018 0.951 . S
C2043 C2041 1.388 . S
C2043 C2044 1.366 . S
C2044 C2043 1.366 . S
C2044 C2045 1.414 . S
C2044 C2047 1.499 . S
C2045 H2019 0.950 . S
C2045 C2044 1.414 . S
C2045 C2046 1.374 . S
C2046 H2020 0.950 . S
C2046 C2042 1.385 . S
C2046 C2045 1.374 . S
C2047 C2044 1.499 . S
C2047 C2048 1.373 . S
C2047 C2049 1.389 . S
C2048 H2021 0.950 . S
C2048 C2034 1.377 . S
C2048 C2047 1.373 . S
C2049 C2033 1.377 . S
C2049 C2047 1.389 . S
C2049 C2050 1.524 . S
C2050 C2049 1.524 . S
C2050 C2051 1.397 . S
C2050 C2055 1.363 . S
C2051 H2022 0.950 . S
C2051 C2050 1.397 . S
C2051 C2052 1.334 . S
C2052 H2023 0.950 . S
C2052 C2051 1.334 . S
C2052 C2053 1.287 . S
C2053 C2052 1.287 . S
C2053 C2054 1.524 . S
C2053 H2056 0.999 . S
C2054 H2024 0.950 . S
C2054 C2053 1.524 . S
C2054 C2055 1.415 . S
C2055 H2025 0.950 . S
C2055 C2050 1.363 . S
C2055 C2054 1.415 . S
H2056 C2053 0.999 . S
H2057 C2038 0.913 . S
H2058 C2076 0.951 . S
H2059 C2078 0.951 . S
H2060 C2080 0.950 . S
H2061 C2081 0.950 . S
H2062 C2083 0.950 . S
H2063 C2086 0.950 . S
H2064 C2087 0.950 . S
H2065 C2089 0.950 . S
H2066 C2090 0.950 . S
H2067 C2091 0.951 1_565 S
H2068 C2093 0.951 . S
H2069 C2095 0.950 . S
H2070 C2096 0.950 . S
H2071 C2098 0.950 . S
H2072 C2101 0.950 . S
H2073 C2102 0.950 . S
H2074 C2104 0.950 . S
H2075 C2105 0.950 . S
C2076 H2058 0.951 . S
C2076 C2077 1.366 . S
C2076 C2078 1.388 . S
C2077 C2076 1.366 . S
C2077 C2081 1.385 . S
C2078 H2059 0.951 . S
C2078 C2076 1.388 . S
C2078 C2079 1.366 . S
C2079 C2078 1.366 . S
C2079 C2080 1.414 . S
C2079 C2082 1.499 . S
C2080 H2060 0.950 . S
C2080 C2079 1.414 . S
C2080 C2081 1.374 . S
C2081 H2061 0.950 . S
C2081 C2077 1.385 . S
C2081 C2080 1.374 . S
C2082 C2079 1.499 . S
C2082 C2083 1.373 . S
C2082 C2084 1.389 . S
C2083 H2062 0.950 . S
C2083 C2082 1.373 . S
C2083 C2099 1.377 . S
C2084 C2082 1.389 . S
C2084 C2085 1.524 . S
C2084 C2098 1.377 . S
C2085 C2084 1.524 . S
C2085 C2086 1.397 . S
C2085 C2090 1.363 . S
C2086 H2063 0.950 . S
C2086 C2085 1.397 . S
C2086 C2087 1.334 . S
C2087 H2064 0.950 . S
C2087 C2086 1.334 . S
C2087 C2088 1.287 . S
C2088 C2087 1.287 . S
C2088 C2089 1.524 . S
C2088 H2107 0.913 . S
C2089 H2065 0.950 . S
C2089 C2088 1.524 . S
C2089 C2090 1.415 . S
C2090 H2066 0.950 . S
C2090 C2085 1.363 . S
C2090 C2089 1.415 . S
C2091 H2067 0.951 1_545 S
C2091 C2092 1.366 . S
C2091 C2093 1.388 . S
C2092 C2091 1.366 . S
C2092 C2096 1.385 . S
C2093 H2068 0.951 . S
C2093 C2091 1.388 . S
C2093 C2094 1.366 . S
C2094 C2093 1.366 . S
C2094 C2095 1.414 . S
C2094 C2097 1.499 . S
C2095 H2069 0.950 . S
C2095 C2094 1.414 . S
C2095 C2096 1.374 . S
C2096 H2070 0.950 . S
C2096 C2092 1.385 . S
C2096 C2095 1.374 . S
C2097 C2094 1.499 . S
C2097 C2098 1.373 . S
C2097 C2099 1.389 . S
C2098 H2071 0.950 . S
C2098 C2084 1.377 . S
C2098 C2097 1.373 . S
C2099 C2083 1.377 . S
C2099 C2097 1.389 . S
C2099 C2100 1.524 . S
C2100 C2099 1.524 . S
C2100 C2101 1.397 . S
C2100 C2105 1.363 . S
C2101 H2072 0.950 . S
C2101 C2100 1.397 . S
C2101 C2102 1.334 . S
C2102 H2073 0.950 . S
C2102 C2101 1.334 . S
C2102 C2103 1.287 . S
C2103 C2102 1.287 . S
C2103 C2104 1.524 . S
C2103 H2106 0.999 . S
C2104 H2074 0.950 . S
C2104 C2103 1.524 . S
C2104 C2105 1.415 . S
C2105 H2075 0.950 . S
C2105 C2100 1.363 . S
C2105 C2104 1.415 . S
H2106 C2103 0.999 . S
H2107 C2088 0.913 . S
H2108 C2126 0.951 . S
H2109 C2128 0.951 . S
H2110 C2130 0.950 . S
H2111 C2131 0.950 . S
H2112 C2133 0.950 . S
H2113 C2136 0.950 . S
H2114 C2137 0.950 . S
H2115 C2139 0.950 . S
H2116 C2140 0.950 . S
H2117 C2141 0.951 . S
H2118 C2143 0.951 . S
H2119 C2145 0.950 . S
H2120 C2146 0.950 . S
H2121 C2148 0.950 . S
H2122 C2151 0.950 . S
H2123 C2152 0.950 . S
H2124 C2154 0.950 . S
H2125 C2155 0.950 . S
C2126 H2108 0.951 . S
C2126 C2127 1.366 . S
C2126 C2128 1.388 . S
C2127 C2126 1.366 . S
C2127 C2131 1.385 . S
C2128 H2109 0.951 . S
C2128 C2126 1.388 . S
C2128 C2129 1.366 . S
C2129 C2128 1.366 . S
C2129 C2130 1.414 . S
C2129 C2132 1.499 . S
C2130 H2110 0.950 . S
C2130 C2129 1.414 . S
C2130 C2131 1.374 . S
C2131 H2111 0.950 . S
C2131 C2127 1.385 . S
C2131 C2130 1.374 . S
C2132 C2129 1.499 . S
C2132 C2133 1.373 . S
C2132 C2134 1.389 . S
C2133 H2112 0.950 . S
C2133 C2132 1.373 . S
C2133 C2149 1.377 . S
C2134 C2132 1.389 . S
C2134 C2135 1.524 . S
C2134 C2148 1.377 . S
C2135 C2134 1.524 . S
C2135 C2136 1.397 . S
C2135 C2140 1.363 . S
C2136 H2113 0.950 . S
C2136 C2135 1.397 . S
C2136 C2137 1.334 . S
C2137 H2114 0.950 . S
C2137 C2136 1.334 . S
C2137 C2138 1.287 . S
C2138 C2137 1.287 . S
C2138 C2139 1.524 . S
C2138 H2157 0.913 . S
C2139 H2115 0.950 . S
C2139 C2138 1.524 . S
C2139 C2140 1.415 . S
C2140 H2116 0.950 . S
C2140 C2135 1.363 . S
C2140 C2139 1.415 . S
C2141 H2117 0.951 . S
C2141 C2142 1.366 . S
C2141 C2143 1.388 . S
C2142 C2141 1.366 . S
C2142 C2146 1.385 . S
C2143 H2118 0.951 . S
C2143 C2141 1.388 . S
C2143 C2144 1.366 . S
C2144 C2143 1.366 . S
C2144 C2145 1.414 . S
C2144 C2147 1.499 . S
C2145 H2119 0.950 . S
C2145 C2144 1.414 . S
C2145 C2146 1.374 . S
C2146 H2120 0.950 . S
C2146 C2142 1.385 . S
C2146 C2145 1.374 . S
C2147 C2144 1.499 . S
C2147 C2148 1.373 . S
C2147 C2149 1.389 . S
C2148 H2121 0.950 . S
C2148 C2134 1.377 . S
C2148 C2147 1.373 . S
C2149 C2133 1.377 . S
C2149 C2147 1.389 . S
C2149 C2150 1.524 . S
C2150 C2149 1.524 . S
C2150 C2151 1.397 . S
C2150 C2155 1.363 . S
C2151 H2122 0.950 . S
C2151 C2150 1.397 . S
C2151 C2152 1.334 . S
C2152 H2123 0.950 . S
C2152 C2151 1.334 . S
C2152 C2153 1.287 . S
C2153 C2152 1.287 . S
C2153 C2154 1.524 . S
C2153 H2156 0.999 . S
C2154 H2124 0.950 . S
C2154 C2153 1.524 . S
C2154 C2155 1.415 . S
C2155 H2125 0.950 . S
C2155 C2150 1.363 . S
C2155 C2154 1.415 . S
H2156 C2153 0.999 . S
H2157 C2138 0.913 . S
H2158 C2176 0.951 . S
H2159 C2178 0.951 . S
H2160 C2180 0.950 . S
H2161 C2181 0.950 . S
H2162 C2183 0.950 . S
H2163 C2186 0.950 . S
H2164 C2187 0.950 . S
H2165 C2189 0.950 . S
H2166 C2190 0.950 . S
H2167 C2191 0.951 . S
H2168 C2193 0.951 . S
H2169 C2195 0.950 . S
H2170 C2196 0.950 . S
H2171 C2198 0.950 . S
H2172 C2201 0.950 . S
H2173 C2202 0.950 . S
H2174 C2204 0.950 . S
H2175 C2205 0.950 . S
C2176 H2158 0.951 . S
C2176 C2177 1.366 . S
C2176 C2178 1.388 . S
C2177 C2176 1.366 . S
C2177 C2181 1.385 . S
C2178 H2159 0.951 . S
C2178 C2176 1.388 . S
C2178 C2179 1.366 . S
C2179 C2178 1.366 . S
C2179 C2180 1.414 . S
C2179 C2182 1.499 . S
C2180 H2160 0.950 . S
C2180 C2179 1.414 . S
C2180 C2181 1.374 . S
C2181 H2161 0.950 . S
C2181 C2177 1.385 . S
C2181 C2180 1.374 . S
C2182 C2179 1.499 . S
C2182 C2183 1.373 . S
C2182 C2184 1.389 . S
C2183 H2162 0.950 . S
C2183 C2182 1.373 . S
C2183 C2199 1.377 . S
C2184 C2182 1.389 . S
C2184 C2185 1.524 . S
C2184 C2198 1.377 . S
C2185 C2184 1.524 . S
C2185 C2186 1.397 . S
C2185 C2190 1.363 . S
C2186 H2163 0.950 . S
C2186 C2185 1.397 . S
C2186 C2187 1.334 . S
C2187 H2164 0.950 . S
C2187 C2186 1.334 . S
C2187 C2188 1.287 . S
C2188 C2187 1.287 . S
C2188 C2189 1.524 . S
C2188 H2207 0.913 . S
C2189 H2165 0.950 . S
C2189 C2188 1.524 . S
C2189 C2190 1.415 . S
C2190 H2166 0.950 . S
C2190 C2185 1.363 . S
C2190 C2189 1.415 . S
C2191 H2167 0.951 . S
C2191 C2192 1.366 . S
C2191 C2193 1.388 . S
C2192 C2191 1.366 . S
C2192 C2196 1.385 . S
C2193 H2168 0.951 . S
C2193 C2191 1.388 . S
C2193 C2194 1.366 . S
C2194 C2193 1.366 . S
C2194 C2195 1.414 . S
C2194 C2197 1.499 . S
C2195 H2169 0.950 . S
C2195 C2194 1.414 . S
C2195 C2196 1.374 . S
C2196 H2170 0.950 . S
C2196 C2192 1.385 . S
C2196 C2195 1.374 . S
C2197 C2194 1.499 . S
C2197 C2198 1.373 . S
C2197 C2199 1.389 . S
C2198 H2171 0.950 . S
C2198 C2184 1.377 . S
C2198 C2197 1.373 . S
C2199 C2183 1.377 . S
C2199 C2197 1.389 . S
C2199 C2200 1.524 . S
C2200 C2199 1.524 . S
C2200 C2201 1.397 . S
C2200 C2205 1.363 . S
C2201 H2172 0.950 . S
C2201 C2200 1.397 . S
C2201 C2202 1.334 . S
C2202 H2173 0.950 . S
C2202 C2201 1.334 . S
C2202 C2203 1.287 . S
C2203 C2202 1.287 . S
C2203 C2204 1.524 . S
C2203 H2206 0.999 . S
C2204 H2174 0.950 . S
C2204 C2203 1.524 . S
C2204 C2205 1.415 . S
C2205 H2175 0.950 . S
C2205 C2200 1.363 . S
C2205 C2204 1.415 . S
H2206 C2203 0.999 . S
H2207 C2188 0.913 . S
H2208 C2226 0.951 . S
H2209 C2228 0.951 . S
H2210 C2230 0.950 . S
H2211 C2231 0.950 . S
H2212 C2233 0.950 . S
H2213 C2236 0.950 . S
H2214 C2237 0.950 . S
H2215 C2239 0.950 . S
H2216 C2240 0.950 . S
H2217 C2241 0.951 . S
H2218 C2243 0.951 . S
H2219 C2245 0.950 . S
H2220 C2246 0.950 . S
H2221 C2248 0.950 . S
H2222 C2251 0.950 . S
H2223 C2252 0.950 . S
H2224 C2254 0.950 . S
H2225 C2255 0.950 . S
C2226 H2208 0.951 . S
C2226 C2227 1.366 . S
C2226 C2228 1.388 . S
C2227 C2226 1.366 . S
C2227 C2231 1.385 . S
C2228 H2209 0.951 . S
C2228 C2226 1.388 . S
C2228 C2229 1.366 . S
C2229 C2228 1.366 . S
C2229 C2230 1.414 . S
C2229 C2232 1.499 . S
C2230 H2210 0.950 . S
C2230 C2229 1.414 . S
C2230 C2231 1.374 . S
C2231 H2211 0.950 . S
C2231 C2227 1.385 . S
C2231 C2230 1.374 . S
C2232 C2229 1.499 . S
C2232 C2233 1.373 . S
C2232 C2234 1.389 . S
C2233 H2212 0.950 . S
C2233 C2232 1.373 . S
C2233 C2249 1.377 . S
C2234 C2232 1.389 . S
C2234 C2235 1.524 . S
C2234 C2248 1.377 . S
C2235 C2234 1.524 . S
C2235 C2236 1.397 . S
C2235 C2240 1.363 . S
C2236 H2213 0.950 . S
C2236 C2235 1.397 . S
C2236 C2237 1.334 . S
C2237 H2214 0.950 . S
C2237 C2236 1.334 . S
C2237 C2238 1.287 . S
C2238 C2237 1.287 . S
C2238 C2239 1.524 . S
C2238 H2257 0.913 . S
C2239 H2215 0.950 . S
C2239 C2238 1.524 . S
C2239 C2240 1.415 . S
C2240 H2216 0.950 . S
C2240 C2235 1.363 . S
C2240 C2239 1.415 . S
C2241 H2217 0.951 . S
C2241 C2242 1.366 . S
C2241 C2243 1.388 . S
C2242 C2241 1.366 . S
C2242 C2246 1.385 . S
C2243 H2218 0.951 . S
C2243 C2241 1.388 . S
C2243 C2244 1.366 . S
C2244 C2243 1.366 . S
C2244 C2245 1.414 . S
C2244 C2247 1.499 . S
C2245 H2219 0.950 . S
C2245 C2244 1.414 . S
C2245 C2246 1.374 . S
C2246 H2220 0.950 . S
C2246 C2242 1.385 . S
C2246 C2245 1.374 . S
C2247 C2244 1.499 . S
C2247 C2248 1.373 . S
C2247 C2249 1.389 . S
C2248 H2221 0.950 . S
C2248 C2234 1.377 . S
C2248 C2247 1.373 . S
C2249 C2233 1.377 . S
C2249 C2247 1.389 . S
C2249 C2250 1.524 . S
C2250 C2249 1.524 . S
C2250 C2251 1.397 . S
C2250 C2255 1.363 . S
C2251 H2222 0.950 . S
C2251 C2250 1.397 . S
C2251 C2252 1.334 . S
C2252 H2223 0.950 . S
C2252 C2251 1.334 . S
C2252 C2253 1.287 . S
C2253 C2252 1.287 . S
C2253 C2254 1.524 . S
C2253 H2256 0.999 . S
C2254 H2224 0.950 . S
C2254 C2253 1.524 . S
C2254 C2255 1.415 . S
C2255 H2225 0.950 . S
C2255 C2250 1.363 . S
C2255 C2254 1.415 . S
H2256 C2253 0.999 . S
H2257 C2238 0.913 . S
H2258 C2276 0.951 . S
H2259 C2278 0.951 . S
H2260 C2280 0.950 . S
H2261 C2281 0.949 1_455 S
H2262 C2283 0.950 1_565 S
H2263 C2286 0.950 . S
H2264 C2287 0.950 . S
H2265 C2289 0.950 . S
H2266 C2290 0.950 . S
H2267 C2291 0.951 1_565 S
H2268 C2293 0.943 1_565 S
H2269 C2295 0.950 . S
H2270 C2296 0.950 . S
H2271 C2298 0.950 . S
H2272 C2301 0.950 . S
H2273 C2302 0.950 . S
H2274 C2304 0.950 . S
H2275 C2305 0.950 . S
C2276 H2258 0.951 . S
C2276 C2277 1.366 . S
C2276 C2278 1.388 . S
C2277 C2276 1.366 . S
C2277 C2281 1.385 . S
C2278 H2259 0.951 . S
C2278 C2276 1.388 . S
C2278 C2279 1.366 . S
C2279 C2278 1.366 . S
C2279 C2280 1.414 . S
C2279 C2282 1.499 . S
C2280 H2260 0.950 . S
C2280 C2279 1.414 . S
C2280 C2281 1.374 . S
C2281 H2261 0.949 1_655 S
C2281 C2277 1.385 . S
C2281 C2280 1.374 . S
C2282 C2279 1.499 . S
C2282 C2283 1.373 . S
C2282 C2284 1.389 . S
C2283 H2262 0.950 1_545 S
C2283 C2282 1.373 . S
C2283 C2299 1.377 . S
C2284 C2282 1.389 . S
C2284 C2285 1.524 . S
C2284 C2298 1.377 . S
C2285 C2284 1.524 . S
C2285 C2286 1.397 . S
C2285 C2290 1.363 . S
C2286 H2263 0.950 . S
C2286 C2285 1.397 . S
C2286 C2287 1.334 . S
C2287 H2264 0.950 . S
C2287 C2286 1.334 . S
C2287 C2288 1.287 . S
C2288 C2287 1.287 . S
C2288 C2289 1.524 . S
C2288 H2307 0.913 . S
C2289 H2265 0.950 . S
C2289 C2288 1.524 . S
C2289 C2290 1.415 . S
C2290 H2266 0.950 . S
C2290 C2285 1.363 . S
C2290 C2289 1.415 . S
C2291 H2267 0.951 1_545 S
C2291 C2292 1.366 . S
C2291 C2293 1.388 . S
C2292 C2291 1.366 . S
C2292 C2296 1.385 . S
C2293 H2268 0.943 1_545 S
C2293 C2291 1.388 . S
C2293 C2294 1.366 . S
C2294 C2293 1.366 . S
C2294 C2295 1.414 . S
C2294 C2297 1.499 . S
C2295 H2269 0.950 . S
C2295 C2294 1.414 . S
C2295 C2296 1.374 . S
C2296 H2270 0.950 . S
C2296 C2292 1.385 . S
C2296 C2295 1.374 . S
C2297 C2294 1.499 . S
C2297 C2298 1.373 . S
C2297 C2299 1.389 . S
C2298 H2271 0.950 . S
C2298 C2284 1.377 . S
C2298 C2297 1.373 . S
C2299 C2283 1.377 . S
C2299 C2297 1.389 . S
C2299 C2300 1.524 1_545 S
C2300 C2299 1.524 1_565 S
C2300 C2301 1.397 . S
C2300 C2305 1.363 . S
C2301 H2272 0.950 . S
C2301 C2300 1.397 . S
C2301 C2302 1.334 . S
C2302 H2273 0.950 . S
C2302 C2301 1.334 . S
C2302 C2303 1.287 . S
C2303 C2302 1.287 . S
C2303 C2304 1.524 . S
C2303 H2306 0.999 . S
C2304 H2274 0.950 . S
C2304 C2303 1.524 . S
C2304 C2305 1.415 . S
C2305 H2275 0.950 . S
C2305 C2300 1.363 . S
C2305 C2304 1.415 . S
H2306 C2303 0.999 . S
H2307 C2288 0.913 . S
H2308 C2326 0.951 . S
H2309 C2328 0.951 . S
H2310 C2330 0.950 . S
H2311 C2331 0.950 . S
H2312 C2333 0.950 . S
H2313 C2336 0.950 . S
H2314 C2337 0.950 . S
H2315 C2339 0.950 . S
H2316 C2340 0.950 . S
H2317 C2341 0.951 . S
H2318 C2343 0.951 . S
H2319 C2345 0.950 . S
H2320 C2346 0.950 . S
H2321 C2348 0.950 . S
H2322 C2351 0.950 . S
H2323 C2352 0.950 . S
H2324 C2354 0.950 . S
H2325 C2355 0.950 . S
C2326 H2308 0.951 . S
C2326 C2327 1.366 . S
C2326 C2328 1.388 . S
C2327 C2326 1.366 . S
C2327 C2331 1.385 . S
C2328 H2309 0.951 . S
C2328 C2326 1.388 . S
C2328 C2329 1.366 . S
C2329 C2328 1.366 . S
C2329 C2330 1.414 . S
C2329 C2332 1.499 . S
C2330 H2310 0.950 . S
C2330 C2329 1.414 . S
C2330 C2331 1.374 . S
C2331 H2311 0.950 . S
C2331 C2327 1.385 . S
C2331 C2330 1.374 . S
C2332 C2329 1.499 . S
C2332 C2333 1.373 . S
C2332 C2334 1.389 . S
C2333 H2312 0.950 . S
C2333 C2332 1.373 . S
C2333 C2349 1.377 . S
C2334 C2332 1.389 . S
C2334 C2335 1.524 . S
C2334 C2348 1.377 . S
C2335 C2334 1.524 . S
C2335 C2336 1.397 . S
C2335 C2340 1.363 . S
C2336 H2313 0.950 . S
C2336 C2335 1.397 . S
C2336 C2337 1.334 . S
C2337 H2314 0.950 . S
C2337 C2336 1.334 . S
C2337 C2338 1.287 . S
C2338 C2337 1.287 . S
C2338 C2339 1.524 . S
C2338 H2357 0.913 . S
C2339 H2315 0.950 . S
C2339 C2338 1.524 . S
C2339 C2340 1.415 . S
C2340 H2316 0.950 . S
C2340 C2335 1.363 . S
C2340 C2339 1.415 . S
C2341 H2317 0.951 . S
C2341 C2342 1.366 . S
C2341 C2343 1.388 . S
C2342 C2341 1.366 . S
C2342 C2346 1.385 . S
C2343 H2318 0.951 . S
C2343 C2341 1.388 . S
C2343 C2344 1.366 . S
C2344 C2343 1.366 . S
C2344 C2345 1.414 . S
C2344 C2347 1.499 . S
C2345 H2319 0.950 . S
C2345 C2344 1.414 . S
C2345 C2346 1.374 . S
C2346 H2320 0.950 . S
C2346 C2342 1.385 . S
C2346 C2345 1.374 . S
C2347 C2344 1.499 . S
C2347 C2348 1.373 . S
C2347 C2349 1.389 . S
C2348 H2321 0.950 . S
C2348 C2334 1.377 . S
C2348 C2347 1.373 . S
C2349 C2333 1.377 . S
C2349 C2347 1.389 . S
C2349 C2350 1.524 . S
C2350 C2349 1.524 . S
C2350 C2351 1.397 . S
C2350 C2355 1.363 . S
C2351 H2322 0.950 . S
C2351 C2350 1.397 . S
C2351 C2352 1.334 . S
C2352 H2323 0.950 . S
C2352 C2351 1.334 . S
C2352 C2353 1.287 . S
C2353 C2352 1.287 . S
C2353 C2354 1.524 . S
C2353 H2356 0.999 . S
C2354 H2324 0.950 . S
C2354 C2353 1.524 . S
C2354 C2355 1.415 . S
C2355 H2325 0.950 . S
C2355 C2350 1.363 . S
C2355 C2354 1.415 . S
H2356 C2353 0.999 . S
H2357 C2338 0.913 . S
H2358 C2376 0.951 . S
H2359 C2378 0.951 . S
H2360 C2380 0.950 . S
H2361 C2381 0.950 . S
H2362 C2383 0.950 . S
H2363 C2386 0.950 . S
H2364 C2387 0.967 . S
H2365 C2389 0.950 1_655 S
H2366 C2390 0.950 . S
H2367 C2391 0.951 . S
H2368 C2393 0.951 . S
H2369 C2395 0.950 . S
H2370 C2396 0.950 . S
H2371 C2398 0.950 . S
H2372 C2401 0.950 . S
H2373 C2402 0.950 . S
H2374 C2404 0.950 . S
H2375 C2405 0.950 . S
C2376 H2358 0.951 . S
C2376 C2377 1.366 . S
C2376 C2378 1.388 . S
C2377 C2376 1.366 . S
C2377 C2381 1.385 . S
C2378 H2359 0.951 . S
C2378 C2376 1.388 . S
C2378 C2379 1.366 . S
C2379 C2378 1.366 . S
C2379 C2380 1.414 . S
C2379 C2382 1.499 . S
C2380 H2360 0.950 . S
C2380 C2379 1.414 . S
C2380 C2381 1.374 . S
C2381 H2361 0.950 . S
C2381 C2377 1.385 . S
C2381 C2380 1.374 . S
C2382 C2379 1.499 . S
C2382 C2383 1.373 . S
C2382 C2384 1.389 . S
C2383 H2362 0.950 . S
C2383 C2382 1.373 . S
C2383 C2399 1.377 . S
C2384 C2382 1.389 . S
C2384 C2385 1.524 . S
C2384 C2398 1.377 . S
C2385 C2384 1.524 . S
C2385 C2386 1.397 . S
C2385 C2390 1.363 . S
C2386 H2363 0.950 . S
C2386 C2385 1.397 . S
C2386 C2387 1.308 1_455 S
C2387 H2364 0.967 . S
C2387 C2386 1.308 1_655 S
C2387 C2388 1.296 . S
C2388 C2387 1.296 . S
C2388 C2389 1.524 1_655 S
C2388 H2407 0.913 . S
C2389 H2365 0.950 1_455 S
C2389 C2388 1.524 1_455 S
C2389 C2390 1.415 . S
C2390 H2366 0.950 . S
C2390 C2385 1.363 . S
C2390 C2389 1.415 . S
C2391 H2367 0.951 . S
C2391 C2392 1.366 . S
C2391 C2393 1.388 . S
C2392 C2391 1.366 . S
C2392 C2396 1.385 . S
C2393 H2368 0.951 . S
C2393 C2391 1.388 . S
C2393 C2394 1.366 . S
C2394 C2393 1.366 . S
C2394 C2395 1.414 . S
C2394 C2397 1.499 . S
C2395 H2369 0.950 . S
C2395 C2394 1.414 . S
C2395 C2396 1.374 . S
C2396 H2370 0.950 . S
C2396 C2392 1.385 . S
C2396 C2395 1.374 . S
C2397 C2394 1.499 . S
C2397 C2398 1.373 . S
C2397 C2399 1.389 . S
C2398 H2371 0.950 . S
C2398 C2384 1.377 . S
C2398 C2397 1.373 . S
C2399 C2383 1.377 . S
C2399 C2397 1.389 . S
C2399 C2400 1.524 . S
C2400 C2399 1.524 . S
C2400 C2401 1.397 . S
C2400 C2405 1.363 . S
C2401 H2372 0.950 . S
C2401 C2400 1.397 . S
C2401 C2402 1.334 . S
C2402 H2373 0.950 . S
C2402 C2401 1.334 . S
C2402 C2403 1.287 . S
C2403 C2402 1.287 . S
C2403 C2404 1.524 . S
C2403 H2406 0.999 . S
C2404 H2374 0.950 . S
C2404 C2403 1.524 . S
C2404 C2405 1.415 . S
C2405 H2375 0.950 . S
C2405 C2400 1.363 . S
C2405 C2404 1.415 . S
H2406 C2403 0.999 . S
H2407 C2388 0.913 . S
H2408 C2426 0.951 . S
H2409 C2428 0.951 . S
H2410 C2430 0.950 . S
H2411 C2431 0.950 . S
H2412 C2433 0.950 . S
H2413 C2436 0.950 . S
H2414 C2437 0.950 . S
H2415 C2439 0.950 . S
H2416 C2440 0.950 . S
H2417 C2441 0.951 . S
H2418 C2443 0.951 . S
H2419 C2445 0.950 . S
H2420 C2446 0.950 . S
H2421 C2448 0.950 . S
H2422 C2451 0.950 . S
H2423 C2452 0.950 . S
H2424 C2454 0.950 . S
H2425 C2455 0.950 . S
C2426 H2408 0.951 . S
C2426 C2427 1.366 . S
C2426 C2428 1.388 . S
C2427 C2426 1.366 . S
C2427 C2431 1.385 . S
C2428 H2409 0.951 . S
C2428 C2426 1.388 . S
C2428 C2429 1.366 . S
C2429 C2428 1.366 . S
C2429 C2430 1.414 . S
C2429 C2432 1.499 . S
C2430 H2410 0.950 . S
C2430 C2429 1.414 . S
C2430 C2431 1.374 . S
C2431 H2411 0.950 . S
C2431 C2427 1.385 . S
C2431 C2430 1.374 . S
C2432 C2429 1.499 . S
C2432 C2433 1.373 . S
C2432 C2434 1.389 . S
C2433 H2412 0.950 . S
C2433 C2432 1.373 . S
C2433 C2449 1.377 . S
C2434 C2432 1.389 . S
C2434 C2435 1.524 . S
C2434 C2448 1.377 . S
C2435 C2434 1.524 . S
C2435 C2436 1.397 . S
C2435 C2440 1.363 . S
C2436 H2413 0.950 . S
C2436 C2435 1.397 . S
C2436 C2437 1.334 . S
C2437 H2414 0.950 . S
C2437 C2436 1.334 . S
C2437 C2438 1.287 . S
C2438 C2437 1.287 . S
C2438 C2439 1.524 . S
C2438 H2457 0.913 . S
C2439 H2415 0.950 . S
C2439 C2438 1.524 . S
C2439 C2440 1.415 . S
C2440 H2416 0.950 . S
C2440 C2435 1.363 . S
C2440 C2439 1.415 . S
C2441 H2417 0.951 . S
C2441 C2442 1.366 . S
C2441 C2443 1.388 . S
C2442 C2441 1.366 . S
C2442 C2446 1.385 . S
C2443 H2418 0.951 . S
C2443 C2441 1.388 . S
C2443 C2444 1.366 . S
C2444 C2443 1.366 . S
C2444 C2445 1.414 . S
C2444 C2447 1.499 . S
C2445 H2419 0.950 . S
C2445 C2444 1.414 . S
C2445 C2446 1.374 . S
C2446 H2420 0.950 . S
C2446 C2442 1.385 . S
C2446 C2445 1.374 . S
C2447 C2444 1.499 . S
C2447 C2448 1.373 . S
C2447 C2449 1.389 . S
C2448 H2421 0.950 . S
C2448 C2434 1.377 . S
C2448 C2447 1.373 . S
C2449 C2433 1.377 . S
C2449 C2447 1.389 . S
C2449 C2450 1.524 . S
C2450 C2449 1.524 . S
C2450 C2451 1.397 . S
C2450 C2455 1.363 . S
C2451 H2422 0.950 . S
C2451 C2450 1.397 . S
C2451 C2452 1.334 . S
C2452 H2423 0.950 . S
C2452 C2451 1.334 . S
C2452 C2453 1.287 . S
C2453 C2452 1.287 . S
C2453 C2454 1.524 . S
C2453 H2456 0.999 . S
C2454 H2424 0.950 . S
C2454 C2453 1.524 . S
C2454 C2455 1.415 . S
C2455 H2425 0.950 . S
C2455 C2450 1.363 . S
C2455 C2454 1.415 . S
H2456 C2453 0.999 . S
H2457 C2438 0.913 . S
H2458 C2476 0.951 . S
H2459 C2478 0.951 . S
H2460 C2480 0.950 . S
H2461 C2481 0.950 1_554 S
H2462 C2483 0.950 . S
H2463 C2486 0.950 . S
H2464 C2487 0.950 . S
H2465 C2489 0.950 . S
H2466 C2490 0.950 . S
H2467 C2491 0.951 . S
H2468 C2493 0.951 . S
H2469 C2495 0.950 . S
H2470 C2496 0.950 . S
H2471 C2498 0.950 . S
H2472 C2501 0.950 . S
H2473 C2502 0.950 . S
H2474 C2504 0.950 . S
H2475 C2505 0.943 1_655 S
C2476 H2458 0.951 . S
C2476 C2477 1.366 . S
C2476 C2478 1.388 . S
C2477 C2476 1.366 . S
C2477 C2481 1.385 . S
C2478 H2459 0.951 . S
C2478 C2476 1.388 . S
C2478 C2479 1.366 . S
C2479 C2478 1.366 . S
C2479 C2480 1.414 . S
C2479 C2482 1.499 . S
C2480 H2460 0.950 . S
C2480 C2479 1.414 . S
C2480 C2481 1.374 . S
C2481 H2461 0.950 1_556 S
C2481 C2477 1.385 . S
C2481 C2480 1.374 . S
C2482 C2479 1.499 . S
C2482 C2483 1.373 . S
C2482 C2484 1.389 . S
C2483 H2462 0.950 . S
C2483 C2482 1.373 . S
C2483 C2499 1.377 . S
C2484 C2482 1.389 . S
C2484 C2485 1.524 . S
C2484 C2498 1.377 . S
C2485 C2484 1.524 . S
C2485 C2486 1.397 . S
C2485 C2490 1.363 . S
C2486 H2463 0.950 . S
C2486 C2485 1.397 . S
C2486 C2487 1.334 . S
C2487 H2464 0.950 . S
C2487 C2486 1.334 . S
C2487 C2488 1.287 . S
C2488 C2487 1.287 . S
C2488 C2489 1.524 . S
C2488 H2507 0.913 . S
C2489 H2465 0.950 . S
C2489 C2488 1.524 . S
C2489 C2490 1.415 . S
C2490 H2466 0.950 . S
C2490 C2485 1.363 . S
C2490 C2489 1.415 . S
C2491 H2467 0.951 . S
C2491 C2492 1.366 . S
C2491 C2493 1.388 . S
C2492 C2491 1.366 . S
C2492 C2496 1.385 . S
C2493 H2468 0.951 . S
C2493 C2491 1.388 . S
C2493 C2494 1.366 . S
C2494 C2493 1.366 . S
C2494 C2495 1.414 . S
C2494 C2497 1.499 . S
C2495 H2469 0.950 . S
C2495 C2494 1.414 . S
C2495 C2496 1.374 . S
C2496 H2470 0.950 . S
C2496 C2492 1.385 . S
C2496 C2495 1.374 . S
C2497 C2494 1.499 . S
C2497 C2498 1.373 . S
C2497 C2499 1.389 . S
C2498 H2471 0.950 . S
C2498 C2484 1.377 . S
C2498 C2497 1.373 . S
C2499 C2483 1.377 . S
C2499 C2497 1.389 . S
C2499 C2500 1.524 1_655 S
C2500 C2499 1.524 1_455 S
C2500 C2501 1.397 . S
C2500 C2505 1.364 . S
C2501 H2472 0.950 . S
C2501 C2500 1.397 . S
C2501 C2502 1.334 . S
C2502 H2473 0.950 . S
C2502 C2501 1.334 . S
C2502 C2503 1.287 . S
C2503 C2502 1.287 . S
C2503 C2504 1.524 . S
C2503 H2506 0.999 . S
C2504 H2474 0.950 . S
C2504 C2503 1.524 . S
C2504 C2505 1.421 . S
C2505 H2475 0.943 1_455 S
C2505 C2500 1.364 . S
C2505 C2504 1.421 . S
H2506 C2503 0.999 . S
H2507 C2488 0.913 . S
H2508 C2526 0.951 . S
H2509 C2528 0.951 . S
H2510 C2530 0.950 . S
H2511 C2531 0.950 . S
H2512 C2533 0.950 . S
H2513 C2536 0.950 . S
H2514 C2537 0.950 . S
H2515 C2539 0.950 . S
H2516 C2540 0.950 . S
H2517 C2541 0.951 . S
H2518 C2543 0.951 . S
H2519 C2545 0.950 . S
H2520 C2546 0.950 . S
H2521 C2548 0.950 . S
H2522 C2551 0.950 . S
H2523 C2552 0.950 . S
H2524 C2554 0.950 . S
H2525 C2555 0.950 . S
C2526 H2508 0.951 . S
C2526 C2527 1.366 . S
C2526 C2528 1.388 . S
C2527 C2526 1.366 . S
C2527 C2531 1.385 . S
C2528 H2509 0.951 . S
C2528 C2526 1.388 . S
C2528 C2529 1.366 . S
C2529 C2528 1.366 . S
C2529 C2530 1.414 . S
C2529 C2532 1.499 . S
C2530 H2510 0.950 . S
C2530 C2529 1.414 . S
C2530 C2531 1.374 . S
C2531 H2511 0.950 . S
C2531 C2527 1.385 . S
C2531 C2530 1.374 . S
C2532 C2529 1.499 . S
C2532 C2533 1.373 . S
C2532 C2534 1.389 . S
C2533 H2512 0.950 . S
C2533 C2532 1.373 . S
C2533 C2549 1.377 . S
C2534 C2532 1.389 . S
C2534 C2535 1.524 . S
C2534 C2548 1.377 . S
C2535 C2534 1.524 . S
C2535 C2536 1.397 . S
C2535 C2540 1.363 . S
C2536 H2513 0.950 . S
C2536 C2535 1.397 . S
C2536 C2537 1.334 . S
C2537 H2514 0.950 . S
C2537 C2536 1.334 . S
C2537 C2538 1.287 . S
C2538 C2537 1.287 . S
C2538 C2539 1.524 . S
C2538 H2557 0.913 . S
C2539 H2515 0.950 . S
C2539 C2538 1.524 . S
C2539 C2540 1.415 . S
C2540 H2516 0.950 . S
C2540 C2535 1.363 . S
C2540 C2539 1.415 . S
C2541 H2517 0.951 . S
C2541 C2542 1.366 . S
C2541 C2543 1.388 . S
C2542 C2541 1.366 . S
C2542 C2546 1.385 . S
C2543 H2518 0.951 . S
C2543 C2541 1.388 . S
C2543 C2544 1.366 . S
C2544 C2543 1.366 . S
C2544 C2545 1.414 . S
C2544 C2547 1.499 . S
C2545 H2519 0.950 . S
C2545 C2544 1.414 . S
C2545 C2546 1.374 . S
C2546 H2520 0.950 . S
C2546 C2542 1.385 . S
C2546 C2545 1.374 . S
C2547 C2544 1.499 . S
C2547 C2548 1.373 . S
C2547 C2549 1.389 . S
C2548 H2521 0.950 . S
C2548 C2534 1.377 . S
C2548 C2547 1.373 . S
C2549 C2533 1.377 . S
C2549 C2547 1.389 . S
C2549 C2550 1.524 . S
C2550 C2549 1.524 . S
C2550 C2551 1.397 . S
C2550 C2555 1.363 . S
C2551 H2522 0.950 . S
C2551 C2550 1.397 . S
C2551 C2552 1.334 . S
C2552 H2523 0.950 . S
C2552 C2551 1.334 . S
C2552 C2553 1.287 . S
C2553 C2552 1.287 . S
C2553 C2554 1.524 . S
C2553 H2556 0.999 . S
C2554 H2524 0.950 . S
C2554 C2553 1.524 . S
C2554 C2555 1.415 . S
C2555 H2525 0.950 . S
C2555 C2550 1.363 . S
C2555 C2554 1.415 . S
H2556 C2553 0.999 . S
H2557 C2538 0.913 . S
H2558 C2576 0.951 . S
H2559 C2578 0.951 . S
H2560 C2580 0.950 . S
H2561 C2581 0.950 . S
H2562 C2583 0.950 . S
H2563 C2586 0.950 . S
H2564 C2587 0.950 . S
H2565 C2589 0.950 . S
H2566 C2590 0.950 . S
H2567 C2591 0.951 . S
H2568 C2593 0.951 . S
H2569 C2595 0.950 1_655 S
H2570 C2596 0.950 1_655 S
H2571 C2598 0.950 . S
H2572 C2601 0.950 . S
H2573 C2602 0.950 . S
H2574 C2604 0.950 . S
H2575 C2605 0.950 . S
C2576 H2558 0.951 . S
C2576 C2577 1.366 . S
C2576 C2578 1.388 . S
C2577 C2576 1.366 . S
C2577 C2581 1.385 . S
C2578 H2559 0.951 . S
C2578 C2576 1.388 . S
C2578 C2579 1.366 . S
C2579 C2578 1.366 . S
C2579 C2580 1.414 . S
C2579 C2582 1.499 . S
C2580 H2560 0.950 . S
C2580 C2579 1.414 . S
C2580 C2581 1.374 . S
C2581 H2561 0.950 . S
C2581 C2577 1.385 . S
C2581 C2580 1.374 . S
C2582 C2579 1.499 . S
C2582 C2583 1.373 . S
C2582 C2584 1.389 . S
C2583 H2562 0.950 . S
C2583 C2582 1.373 . S
C2583 C2599 1.377 . S
C2584 C2582 1.389 . S
C2584 C2585 1.524 . S
C2584 C2598 1.377 . S
C2585 C2584 1.524 . S
C2585 C2586 1.397 . S
C2585 C2590 1.363 1_455 S
C2586 H2563 0.950 . S
C2586 C2585 1.397 . S
C2586 C2587 1.334 . S
C2587 H2564 0.950 . S
C2587 C2586 1.334 . S
C2587 C2588 1.287 . S
C2588 C2587 1.287 . S
C2588 C2589 1.524 1_455 S
C2588 H2607 0.913 . S
C2589 H2565 0.950 . S
C2589 C2588 1.524 1_655 S
C2589 C2590 1.415 . S
C2590 H2566 0.950 . S
C2590 C2585 1.363 1_655 S
C2590 C2589 1.415 . S
C2591 H2567 0.951 . S
C2591 C2592 1.366 . S
C2591 C2593 1.388 . S
C2592 C2591 1.366 . S
C2592 C2596 1.384 . S
C2593 H2568 0.951 . S
C2593 C2591 1.388 . S
C2593 C2594 1.366 . S
C2594 C2593 1.366 . S
C2594 C2595 1.414 . S
C2594 C2597 1.499 . S
C2595 H2569 0.950 1_455 S
C2595 C2594 1.414 . S
C2595 C2596 1.374 . S
C2596 H2570 0.950 1_455 S
C2596 C2592 1.384 . S
C2596 C2595 1.374 . S
C2597 C2594 1.499 . S
C2597 C2598 1.373 . S
C2597 C2599 1.389 . S
C2598 H2571 0.950 . S
C2598 C2584 1.377 . S
C2598 C2597 1.373 . S
C2599 C2583 1.377 . S
C2599 C2597 1.389 . S
C2599 C2600 1.524 . S
C2600 C2599 1.524 . S
C2600 C2601 1.397 . S
C2600 C2605 1.363 . S
C2601 H2572 0.950 . S
C2601 C2600 1.397 . S
C2601 C2602 1.334 . S
C2602 H2573 0.950 . S
C2602 C2601 1.334 . S
C2602 C2603 1.287 . S
C2603 C2602 1.287 . S
C2603 C2604 1.524 . S
C2603 H2606 0.999 . S
C2604 H2574 0.950 . S
C2604 C2603 1.524 . S
C2604 C2605 1.415 . S
C2605 H2575 0.950 . S
C2605 C2600 1.363 . S
C2605 C2604 1.415 . S
H2606 C2603 0.999 . S
H2607 C2588 0.913 . S
H2608 C2626 0.951 . S
H2609 C2628 0.951 . S
H2610 C2630 0.950 . S
H2611 C2631 0.950 . S
H2612 C2633 0.950 . S
H2613 C2636 0.950 . S
H2614 C2637 0.950 . S
H2615 C2639 0.950 . S
H2616 C2640 0.950 . S
H2617 C2641 0.951 . S
H2618 C2643 0.951 . S
H2619 C2645 0.950 . S
H2620 C2646 0.950 . S
H2621 C2648 0.950 . S
H2622 C2651 0.950 . S
H2623 C2652 0.950 . S
H2624 C2654 0.950 . S
H2625 C2655 0.950 . S
C2626 H2608 0.951 . S
C2626 C2627 1.366 . S
C2626 C2628 1.388 . S
C2627 C2626 1.366 . S
C2627 C2631 1.385 . S
C2628 H2609 0.951 . S
C2628 C2626 1.388 . S
C2628 C2629 1.366 . S
C2629 C2628 1.366 . S
C2629 C2630 1.414 . S
C2629 C2632 1.499 . S
C2630 H2610 0.950 . S
C2630 C2629 1.414 . S
C2630 C2631 1.374 . S
C2631 H2611 0.950 . S
C2631 C2627 1.385 . S
C2631 C2630 1.374 . S
C2632 C2629 1.499 . S
C2632 C2633 1.373 . S
C2632 C2634 1.389 . S
C2633 H2612 0.950 . S
C2633 C2632 1.373 . S
C2633 C2649 1.377 . S
C2634 C2632 1.389 . S
C2634 C2635 1.524 . S
C2634 C2648 1.377 . S
C2635 C2634 1.524 . S
C2635 C2636 1.397 . S
C2635 C2640 1.363 . S
C2636 H2613 0.950 . S
C2636 C2635 1.397 . S
C2636 C2637 1.334 . S
C2637 H2614 0.950 . S
C2637 C2636 1.334 . S
C2637 C2638 1.287 . S
C2638 C2637 1.287 . S
C2638 C2639 1.524 . S
C2638 H2657 0.913 . S
C2639 H2615 0.950 . S
C2639 C2638 1.524 . S
C2639 C2640 1.415 . S
C2640 H2616 0.950 . S
C2640 C2635 1.363 . S
C2640 C2639 1.415 . S
C2641 H2617 0.951 . S
C2641 C2642 1.366 . S
C2641 C2643 1.388 . S
C2642 C2641 1.366 . S
C2642 C2646 1.385 . S
C2643 H2618 0.951 . S
C2643 C2641 1.388 . S
C2643 C2644 1.366 . S
C2644 C2643 1.366 . S
C2644 C2645 1.414 . S
C2644 C2647 1.499 . S
C2645 H2619 0.950 . S
C2645 C2644 1.414 . S
C2645 C2646 1.374 . S
C2646 H2620 0.950 . S
C2646 C2642 1.385 . S
C2646 C2645 1.374 . S
C2647 C2644 1.499 . S
C2647 C2648 1.373 . S
C2647 C2649 1.389 . S
C2648 H2621 0.950 . S
C2648 C2634 1.377 . S
C2648 C2647 1.373 . S
C2649 C2633 1.377 . S
C2649 C2647 1.389 . S
C2649 C2650 1.524 . S
C2650 C2649 1.524 . S
C2650 C2651 1.397 . S
C2650 C2655 1.363 . S
C2651 H2622 0.950 . S
C2651 C2650 1.397 . S
C2651 C2652 1.334 . S
C2652 H2623 0.950 . S
C2652 C2651 1.334 . S
C2652 C2653 1.287 . S
C2653 C2652 1.287 . S
C2653 C2654 1.524 . S
C2653 H2656 0.999 . S
C2654 H2624 0.950 . S
C2654 C2653 1.524 . S
C2654 C2655 1.415 . S
C2655 H2625 0.950 . S
C2655 C2650 1.363 . S
C2655 C2654 1.415 . S
H2656 C2653 0.999 . S
H2657 C2638 0.913 . S
H2658 C2676 0.951 . S
H2659 C2678 0.951 . S
H2660 C2680 0.950 . S
H2661 C2681 0.950 . S
H2662 C2683 0.950 . S
H2663 C2686 0.950 . S
H2664 C2687 0.956 . S
H2665 C2689 0.950 1_556 S
H2666 C2690 0.950 . S
H2667 C2691 0.951 . S
H2668 C2693 0.951 . S
H2669 C2695 0.950 . S
H2670 C2696 0.950 . S
H2671 C2698 0.950 . S
H2672 C2701 0.950 . S
H2673 C2702 0.950 . S
H2674 C2704 0.950 . S
H2675 C2705 0.950 . S
C2676 H2658 0.951 . S
C2676 C2677 1.366 . S
C2676 C2678 1.388 . S
C2677 C2676 1.366 . S
C2677 C2681 1.385 . S
C2678 H2659 0.951 . S
C2678 C2676 1.388 . S
C2678 C2679 1.366 . S
C2679 C2678 1.366 . S
C2679 C2680 1.414 . S
C2679 C2682 1.499 . S
C2680 H2660 0.950 . S
C2680 C2679 1.414 . S
C2680 C2681 1.374 . S
C2681 H2661 0.950 . S
C2681 C2677 1.385 . S
C2681 C2680 1.374 . S
C2682 C2679 1.499 . S
C2682 C2683 1.373 . S
C2682 C2684 1.389 . S
C2683 H2662 0.950 . S
C2683 C2682 1.373 . S
C2683 C2699 1.377 . S
C2684 C2682 1.389 . S
C2684 C2685 1.524 . S
C2684 C2698 1.377 . S
C2685 C2684 1.524 . S
C2685 C2686 1.397 . S
C2685 C2690 1.363 . S
C2686 H2663 0.950 . S
C2686 C2685 1.397 . S
C2686 C2687 1.334 . S
C2687 H2664 0.956 . S
C2687 C2686 1.334 . S
C2687 C2688 1.287 1_554 S
C2688 C2687 1.287 1_556 S
C2688 C2689 1.524 1_556 S
C2688 H2707 0.913 . S
C2689 H2665 0.950 1_554 S
C2689 C2688 1.524 1_554 S
C2689 C2690 1.415 . S
C2690 H2666 0.950 . S
C2690 C2685 1.363 . S
C2690 C2689 1.415 . S
C2691 H2667 0.951 . S
C2691 C2692 1.366 . S
C2691 C2693 1.388 . S
C2692 C2691 1.366 . S
C2692 C2696 1.385 . S
C2693 H2668 0.951 . S
C2693 C2691 1.388 . S
C2693 C2694 1.366 . S
C2694 C2693 1.366 . S
C2694 C2695 1.414 . S
C2694 C2697 1.499 . S
C2695 H2669 0.950 . S
C2695 C2694 1.414 . S
C2695 C2696 1.374 . S
C2696 H2670 0.950 . S
C2696 C2692 1.385 . S
C2696 C2695 1.374 . S
C2697 C2694 1.499 . S
C2697 C2698 1.373 . S
C2697 C2699 1.389 . S
C2698 H2671 0.950 . S
C2698 C2684 1.377 . S
C2698 C2697 1.373 . S
C2699 C2683 1.377 . S
C2699 C2697 1.389 . S
C2699 C2700 1.524 . S
C2700 C2699 1.524 . S
C2700 C2701 1.397 . S
C2700 C2705 1.363 . S
C2701 H2672 0.950 . S
C2701 C2700 1.397 . S
C2701 C2702 1.334 . S
C2702 H2673 0.950 . S
C2702 C2701 1.334 . S
C2702 C2703 1.287 . S
C2703 C2702 1.287 . S
C2703 C2704 1.524 . S
C2703 H2706 0.999 . S
C2704 H2674 0.950 . S
C2704 C2703 1.524 . S
C2704 C2705 1.415 . S
C2705 H2675 0.950 . S
C2705 C2700 1.363 . S
C2705 C2704 1.415 . S
H2706 C2703 0.999 . S
H2707 C2688 0.913 . S
H2708 C2726 0.951 . S
H2709 C2728 0.951 . S
H2710 C2730 0.950 . S
H2711 C2731 0.950 . S
H2712 C2733 0.950 . S
H2713 C2736 0.950 . S
H2714 C2737 0.950 . S
H2715 C2739 0.950 . S
H2716 C2740 0.950 . S
H2717 C2741 0.951 . S
H2718 C2743 0.951 . S
H2719 C2745 0.950 . S
H2720 C2746 0.950 . S
H2721 C2748 0.950 . S
H2722 C2751 0.950 . S
H2723 C2752 0.950 . S
H2724 C2754 0.950 . S
H2725 C2755 0.950 . S
C2726 H2708 0.951 . S
C2726 C2727 1.366 . S
C2726 C2728 1.388 . S
C2727 C2726 1.366 . S
C2727 C2731 1.385 . S
C2728 H2709 0.951 . S
C2728 C2726 1.388 . S
C2728 C2729 1.366 . S
C2729 C2728 1.366 . S
C2729 C2730 1.414 . S
C2729 C2732 1.499 . S
C2730 H2710 0.950 . S
C2730 C2729 1.414 . S
C2730 C2731 1.374 . S
C2731 H2711 0.950 . S
C2731 C2727 1.385 . S
C2731 C2730 1.374 . S
C2732 C2729 1.499 . S
C2732 C2733 1.373 . S
C2732 C2734 1.389 . S
C2733 H2712 0.950 . S
C2733 C2732 1.373 . S
C2733 C2749 1.377 . S
C2734 C2732 1.389 . S
C2734 C2735 1.524 . S
C2734 C2748 1.377 . S
C2735 C2734 1.524 . S
C2735 C2736 1.397 . S
C2735 C2740 1.363 . S
C2736 H2713 0.950 . S
C2736 C2735 1.397 . S
C2736 C2737 1.334 . S
C2737 H2714 0.950 . S
C2737 C2736 1.334 . S
C2737 C2738 1.287 . S
C2738 C2737 1.287 . S
C2738 C2739 1.524 . S
C2738 H2757 0.913 . S
C2739 H2715 0.950 . S
C2739 C2738 1.524 . S
C2739 C2740 1.415 . S
C2740 H2716 0.950 . S
C2740 C2735 1.363 . S
C2740 C2739 1.415 . S
C2741 H2717 0.951 . S
C2741 C2742 1.366 . S
C2741 C2743 1.388 . S
C2742 C2741 1.366 . S
C2742 C2746 1.385 . S
C2743 H2718 0.951 . S
C2743 C2741 1.388 . S
C2743 C2744 1.366 . S
C2744 C2743 1.366 . S
C2744 C2745 1.414 . S
C2744 C2747 1.499 . S
C2745 H2719 0.950 . S
C2745 C2744 1.414 . S
C2745 C2746 1.374 . S
C2746 H2720 0.950 . S
C2746 C2742 1.385 . S
C2746 C2745 1.374 . S
C2747 C2744 1.499 . S
C2747 C2748 1.373 . S
C2747 C2749 1.389 . S
C2748 H2721 0.950 . S
C2748 C2734 1.377 . S
C2748 C2747 1.373 . S
C2749 C2733 1.377 . S
C2749 C2747 1.389 . S
C2749 C2750 1.524 . S
C2750 C2749 1.524 . S
C2750 C2751 1.397 . S
C2750 C2755 1.363 . S
C2751 H2722 0.950 . S
C2751 C2750 1.397 . S
C2751 C2752 1.334 . S
C2752 H2723 0.950 . S
C2752 C2751 1.334 . S
C2752 C2753 1.287 . S
C2753 C2752 1.287 . S
C2753 C2754 1.524 . S
C2753 H2756 0.999 . S
C2754 H2724 0.950 . S
C2754 C2753 1.524 . S
C2754 C2755 1.415 . S
C2755 H2725 0.950 . S
C2755 C2750 1.363 . S
C2755 C2754 1.415 . S
H2756 C2753 0.999 . S
H2757 C2738 0.913 . S
H2758 C2776 0.951 . S
H2759 C2778 0.951 . S
H2760 C2780 0.950 . S
H2761 C2781 0.950 1_556 S
H2762 C2783 0.950 . S
H2763 C2786 0.950 . S
H2764 C2787 0.950 . S
H2765 C2789 0.950 . S
H2766 C2790 0.950 . S
H2767 C2791 0.951 . S
H2768 C2793 0.951 . S
H2769 C2795 0.950 . S
H2770 C2796 0.950 . S
H2771 C2798 0.950 . S
H2772 C2801 0.950 . S
H2773 C2802 0.950 . S
H2774 C2804 0.950 . S
H2775 C2805 0.950 . S
C2776 H2758 0.951 . S
C2776 C2777 1.366 . S
C2776 C2778 1.388 . S
C2777 C2776 1.366 . S
C2777 C2781 1.385 . S
C2778 H2759 0.951 . S
C2778 C2776 1.388 . S
C2778 C2779 1.366 . S
C2779 C2778 1.366 . S
C2779 C2780 1.414 . S
C2779 C2782 1.499 . S
C2780 H2760 0.950 . S
C2780 C2779 1.414 . S
C2780 C2781 1.374 . S
C2781 H2761 0.950 1_554 S
C2781 C2777 1.385 . S
C2781 C2780 1.374 . S
C2782 C2779 1.499 . S
C2782 C2783 1.373 . S
C2782 C2784 1.389 . S
C2783 H2762 0.950 . S
C2783 C2782 1.373 . S
C2783 C2799 1.377 . S
C2784 C2782 1.389 . S
C2784 C2785 1.524 . S
C2784 C2798 1.377 . S
C2785 C2784 1.524 . S
C2785 C2786 1.397 . S
C2785 C2790 1.363 . S
C2786 H2763 0.950 . S
C2786 C2785 1.397 . S
C2786 C2787 1.334 . S
C2787 H2764 0.950 . S
C2787 C2786 1.334 . S
C2787 C2788 1.287 . S
C2788 C2787 1.287 . S
C2788 C2789 1.524 . S
C2788 H2807 0.913 . S
C2789 H2765 0.950 . S
C2789 C2788 1.524 . S
C2789 C2790 1.415 . S
C2790 H2766 0.950 . S
C2790 C2785 1.363 . S
C2790 C2789 1.415 . S
C2791 H2767 0.951 . S
C2791 C2792 1.366 . S
C2791 C2793 1.388 . S
C2792 C2791 1.366 . S
C2792 C2796 1.385 . S
C2793 H2768 0.951 . S
C2793 C2791 1.388 . S
C2793 C2794 1.366 . S
C2794 C2793 1.366 . S
C2794 C2795 1.414 . S
C2794 C2797 1.499 . S
C2795 H2769 0.950 . S
C2795 C2794 1.414 . S
C2795 C2796 1.374 . S
C2796 H2770 0.950 . S
C2796 C2792 1.385 . S
C2796 C2795 1.374 . S
C2797 C2794 1.499 . S
C2797 C2798 1.373 . S
C2797 C2799 1.389 . S
C2798 H2771 0.950 . S
C2798 C2784 1.377 . S
C2798 C2797 1.373 . S
C2799 C2783 1.377 . S
C2799 C2797 1.389 . S
C2799 C2800 1.524 . S
C2800 C2799 1.524 . S
C2800 C2801 1.397 . S
C2800 C2805 1.363 . S
C2801 H2772 0.950 . S
C2801 C2800 1.397 . S
C2801 C2802 1.334 . S
C2802 H2773 0.950 . S
C2802 C2801 1.334 . S
C2802 C2803 1.287 . S
C2803 C2802 1.287 . S
C2803 C2804 1.524 . S
C2803 H2806 0.999 . S
C2804 H2774 0.950 . S
C2804 C2803 1.524 . S
C2804 C2805 1.415 . S
C2805 H2775 0.950 . S
C2805 C2800 1.363 . S
C2805 C2804 1.415 . S
H2806 C2803 0.999 . S
H2807 C2788 0.913 . S
H2808 C2826 0.951 . S
H2809 C2828 0.951 . S
H2810 C2830 0.950 . S
H2811 C2831 0.950 . S
H2812 C2833 0.950 . S
H2813 C2836 0.950 . S
H2814 C2837 0.950 . S
H2815 C2839 0.950 . S
H2816 C2840 0.950 . S
H2817 C2841 0.951 . S
H2818 C2843 0.951 . S
H2819 C2845 0.950 . S
H2820 C2846 0.950 . S
H2821 C2848 0.950 . S
H2822 C2851 0.950 . S
H2823 C2852 0.950 . S
H2824 C2854 0.950 . S
H2825 C2855 0.950 . S
C2826 H2808 0.951 . S
C2826 C2827 1.366 . S
C2826 C2828 1.388 . S
C2827 C2826 1.366 . S
C2827 C2831 1.385 . S
C2828 H2809 0.951 . S
C2828 C2826 1.388 . S
C2828 C2829 1.366 . S
C2829 C2828 1.366 . S
C2829 C2830 1.414 . S
C2829 C2832 1.499 . S
C2830 H2810 0.950 . S
C2830 C2829 1.414 . S
C2830 C2831 1.374 . S
C2831 H2811 0.950 . S
C2831 C2827 1.385 . S
C2831 C2830 1.374 . S
C2832 C2829 1.499 . S
C2832 C2833 1.373 . S
C2832 C2834 1.389 . S
C2833 H2812 0.950 . S
C2833 C2832 1.373 . S
C2833 C2849 1.377 . S
C2834 C2832 1.389 . S
C2834 C2835 1.524 . S
C2834 C2848 1.377 . S
C2835 C2834 1.524 . S
C2835 C2836 1.397 . S
C2835 C2840 1.363 . S
C2836 H2813 0.950 . S
C2836 C2835 1.397 . S
C2836 C2837 1.334 . S
C2837 H2814 0.950 . S
C2837 C2836 1.334 . S
C2837 C2838 1.287 . S
C2838 C2837 1.287 . S
C2838 C2839 1.524 . S
C2838 H2857 0.913 . S
C2839 H2815 0.950 . S
C2839 C2838 1.524 . S
C2839 C2840 1.415 . S
C2840 H2816 0.950 . S
C2840 C2835 1.363 . S
C2840 C2839 1.415 . S
C2841 H2817 0.951 . S
C2841 C2842 1.366 . S
C2841 C2843 1.388 . S
C2842 C2841 1.366 . S
C2842 C2846 1.385 . S
C2843 H2818 0.951 . S
C2843 C2841 1.388 . S
C2843 C2844 1.366 . S
C2844 C2843 1.366 . S
C2844 C2845 1.414 . S
C2844 C2847 1.499 . S
C2845 H2819 0.950 . S
C2845 C2844 1.414 . S
C2845 C2846 1.374 . S
C2846 H2820 0.950 . S
C2846 C2842 1.385 . S
C2846 C2845 1.374 . S
C2847 C2844 1.499 . S
C2847 C2848 1.373 . S
C2847 C2849 1.389 . S
C2848 H2821 0.950 . S
C2848 C2834 1.377 . S
C2848 C2847 1.373 . S
C2849 C2833 1.377 . S
C2849 C2847 1.389 . S
C2849 C2850 1.524 . S
C2850 C2849 1.524 . S
C2850 C2851 1.397 . S
C2850 C2855 1.363 . S
C2851 H2822 0.950 . S
C2851 C2850 1.397 . S
C2851 C2852 1.334 . S
C2852 H2823 0.950 . S
C2852 C2851 1.334 . S
C2852 C2853 1.287 . S
C2853 C2852 1.287 . S
C2853 C2854 1.524 . S
C2853 H2856 0.999 . S
C2854 H2824 0.950 . S
C2854 C2853 1.524 . S
C2854 C2855 1.415 . S
C2855 H2825 0.950 . S
C2855 C2850 1.363 . S
C2855 C2854 1.415 . S
H2856 C2853 0.999 . S
H2857 C2838 0.913 . S
H2858 C2876 0.951 . S
H2859 C2878 0.951 . S
H2860 C2880 0.950 . S
H2861 C2881 0.950 . S
H2862 C2883 0.950 . S
H2863 C2886 0.950 . S
H2864 C2887 0.950 . S
H2865 C2889 0.950 . S
H2866 C2890 0.950 . S
H2867 C2891 0.951 . S
H2868 C2893 0.951 . S
H2869 C2895 0.950 . S
H2870 C2896 0.950 . S
H2871 C2898 0.950 . S
H2872 C2901 0.950 . S
H2873 C2902 0.950 . S
H2874 C2904 0.950 . S
H2875 C2905 0.950 . S
C2876 H2858 0.951 . S
C2876 C2877 1.366 . S
C2876 C2878 1.388 . S
C2877 C2876 1.366 . S
C2877 C2881 1.385 . S
C2878 H2859 0.951 . S
C2878 C2876 1.388 . S
C2878 C2879 1.366 . S
C2879 C2878 1.366 . S
C2879 C2880 1.414 . S
C2879 C2882 1.499 . S
C2880 H2860 0.950 . S
C2880 C2879 1.414 . S
C2880 C2881 1.374 . S
C2881 H2861 0.950 . S
C2881 C2877 1.385 . S
C2881 C2880 1.374 . S
C2882 C2879 1.499 . S
C2882 C2883 1.373 . S
C2882 C2884 1.389 . S
C2883 H2862 0.950 . S
C2883 C2882 1.373 . S
C2883 C2899 1.377 . S
C2884 C2882 1.389 . S
C2884 C2885 1.524 . S
C2884 C2898 1.377 . S
C2885 C2884 1.524 . S
C2885 C2886 1.397 . S
C2885 C2890 1.363 . S
C2886 H2863 0.950 . S
C2886 C2885 1.397 . S
C2886 C2887 1.334 . S
C2887 H2864 0.950 . S
C2887 C2886 1.334 . S
C2887 C2888 1.287 . S
C2888 C2887 1.287 . S
C2888 C2889 1.524 . S
C2888 H2907 0.913 . S
C2889 H2865 0.950 . S
C2889 C2888 1.524 . S
C2889 C2890 1.415 . S
C2890 H2866 0.950 . S
C2890 C2885 1.363 . S
C2890 C2889 1.415 . S
C2891 H2867 0.951 . S
C2891 C2892 1.366 . S
C2891 C2893 1.388 . S
C2892 C2891 1.366 . S
C2892 C2896 1.385 . S
C2893 H2868 0.951 . S
C2893 C2891 1.388 . S
C2893 C2894 1.366 . S
C2894 C2893 1.366 . S
C2894 C2895 1.414 . S
C2894 C2897 1.499 . S
C2895 H2869 0.950 . S
C2895 C2894 1.414 . S
C2895 C2896 1.374 . S
C2896 H2870 0.950 . S
C2896 C2892 1.385 . S
C2896 C2895 1.374 . S
C2897 C2894 1.499 . S
C2897 C2898 1.373 . S
C2897 C2899 1.389 . S
C2898 H2871 0.950 . S
C2898 C2884 1.377 . S
C2898 C2897 1.373 . S
C2899 C2883 1.377 . S
C2899 C2897 1.389 . S
C2899 C2900 1.524 . S
C2900 C2899 1.524 . S
C2900 C2901 1.397 . S
C2900 C2905 1.363 . S
C2901 H2872 0.950 . S
C2901 C2900 1.397 . S
C2901 C2902 1.334 . S
C2902 H2873 0.950 . S
C2902 C2901 1.334 . S
C2902 C2903 1.287 . S
C2903 C2902 1.287 . S
C2903 C2904 1.524 . S
C2903 H2906 0.999 . S
C2904 H2874 0.950 . S
C2904 C2903 1.524 . S
C2904 C2905 1.415 . S
C2905 H2875 0.950 . S
C2905 C2900 1.363 . S
C2905 C2904 1.415 . S
H2906 C2903 0.999 . S
H2907 C2888 0.913 . S
H2908 C2926 0.951 . S
H2909 C2928 0.951 . S
H2910 C2930 0.950 . S
H2911 C2931 0.950 . S
H2912 C2933 0.950 . S
H2913 C2936 0.950 . S
H2914 C2937 0.950 . S
H2915 C2939 0.950 . S
H2916 C2940 0.950 . S
H2917 C2941 0.951 . S
H2918 C2943 0.951 . S
H2919 C2945 0.950 . S
H2920 C2946 0.950 . S
H2921 C2948 0.950 . S
H2922 C2951 0.950 . S
H2923 C2952 0.950 . S
H2924 C2954 0.950 . S
H2925 C2955 0.950 . S
C2926 H2908 0.951 . S
C2926 C2927 1.366 . S
C2926 C2928 1.388 . S
C2927 C2926 1.366 . S
C2927 C2931 1.385 . S
C2928 H2909 0.951 . S
C2928 C2926 1.388 . S
C2928 C2929 1.366 . S
C2929 C2928 1.366 . S
C2929 C2930 1.414 . S
C2929 C2932 1.499 . S
C2930 H2910 0.950 . S
C2930 C2929 1.414 . S
C2930 C2931 1.374 . S
C2931 H2911 0.950 . S
C2931 C2927 1.385 . S
C2931 C2930 1.374 . S
C2932 C2929 1.499 . S
C2932 C2933 1.373 . S
C2932 C2934 1.389 . S
C2933 H2912 0.950 . S
C2933 C2932 1.373 . S
C2933 C2949 1.377 . S
C2934 C2932 1.389 . S
C2934 C2935 1.524 . S
C2934 C2948 1.377 . S
C2935 C2934 1.524 . S
C2935 C2936 1.397 . S
C2935 C2940 1.363 . S
C2936 H2913 0.950 . S
C2936 C2935 1.397 . S
C2936 C2937 1.334 . S
C2937 H2914 0.950 . S
C2937 C2936 1.334 . S
C2937 C2938 1.287 . S
C2938 C2937 1.287 . S
C2938 C2939 1.524 . S
C2938 H2957 0.913 . S
C2939 H2915 0.950 . S
C2939 C2938 1.524 . S
C2939 C2940 1.415 . S
C2940 H2916 0.950 . S
C2940 C2935 1.363 . S
C2940 C2939 1.415 . S
C2941 H2917 0.951 . S
C2941 C2942 1.366 . S
C2941 C2943 1.388 . S
C2942 C2941 1.366 . S
C2942 C2946 1.385 . S
C2943 H2918 0.951 . S
C2943 C2941 1.388 . S
C2943 C2944 1.366 . S
C2944 C2943 1.366 . S
C2944 C2945 1.414 . S
C2944 C2947 1.499 . S
C2945 H2919 0.950 . S
C2945 C2944 1.414 . S
C2945 C2946 1.374 . S
C2946 H2920 0.950 . S
C2946 C2942 1.385 . S
C2946 C2945 1.374 . S
C2947 C2944 1.499 . S
C2947 C2948 1.373 . S
C2947 C2949 1.389 . S
C2948 H2921 0.950 . S
C2948 C2934 1.377 . S
C2948 C2947 1.373 . S
C2949 C2933 1.377 . S
C2949 C2947 1.389 . S
C2949 C2950 1.524 . S
C2950 C2949 1.524 . S
C2950 C2951 1.397 . S
C2950 C2955 1.363 . S
C2951 H2922 0.950 . S
C2951 C2950 1.397 . S
C2951 C2952 1.334 . S
C2952 H2923 0.950 . S
C2952 C2951 1.334 . S
C2952 C2953 1.287 . S
C2953 C2952 1.287 . S
C2953 C2954 1.524 . S
C2953 H2956 0.999 . S
C2954 H2924 0.950 . S
C2954 C2953 1.524 . S
C2954 C2955 1.415 . S
C2955 H2925 0.950 . S
C2955 C2950 1.363 . S
C2955 C2954 1.415 . S
H2956 C2953 0.999 . S
H2957 C2938 0.913 . S
H2958 C2976 0.951 . S
H2959 C2978 0.951 . S
H2960 C2980 0.950 . S
H2961 C2981 0.950 . S
H2962 C2983 0.950 . S
H2963 C2986 0.950 . S
H2964 C2987 0.950 . S
H2965 C2989 0.950 . S
H2966 C2990 0.950 . S
H2967 C2991 0.951 . S
H2968 C2993 0.951 . S
H2969 C2995 0.950 . S
H2970 C2996 0.950 . S
H2971 C2998 0.950 . S
H2972 C3001 0.950 . S
H2973 C3002 0.950 . S
H2974 C3004 0.950 . S
H2975 C3005 0.950 . S
C2976 H2958 0.951 . S
C2976 C2977 1.366 . S
C2976 C2978 1.388 . S
C2977 C2976 1.366 . S
C2977 C2981 1.385 . S
C2978 H2959 0.951 . S
C2978 C2976 1.388 . S
C2978 C2979 1.366 . S
C2979 C2978 1.366 . S
C2979 C2980 1.414 . S
C2979 C2982 1.499 . S
C2980 H2960 0.950 . S
C2980 C2979 1.414 . S
C2980 C2981 1.374 . S
C2981 H2961 0.950 . S
C2981 C2977 1.385 . S
C2981 C2980 1.374 . S
C2982 C2979 1.499 . S
C2982 C2983 1.373 . S
C2982 C2984 1.389 . S
C2983 H2962 0.950 . S
C2983 C2982 1.373 . S
C2983 C2999 1.377 . S
C2984 C2982 1.389 . S
C2984 C2985 1.524 . S
C2984 C2998 1.377 . S
C2985 C2984 1.524 . S
C2985 C2986 1.397 . S
C2985 C2990 1.363 . S
C2986 H2963 0.950 . S
C2986 C2985 1.397 . S
C2986 C2987 1.334 . S
C2987 H2964 0.950 . S
C2987 C2986 1.334 . S
C2987 C2988 1.287 . S
C2988 C2987 1.287 . S
C2988 C2989 1.524 . S
C2988 H3007 0.913 . S
C2989 H2965 0.950 . S
C2989 C2988 1.524 . S
C2989 C2990 1.415 . S
C2990 H2966 0.950 . S
C2990 C2985 1.363 . S
C2990 C2989 1.415 . S
C2991 H2967 0.951 . S
C2991 C2992 1.366 . S
C2991 C2993 1.388 . S
C2992 C2991 1.366 . S
C2992 C2996 1.385 . S
C2993 H2968 0.951 . S
C2993 C2991 1.388 . S
C2993 C2994 1.366 . S
C2994 C2993 1.366 . S
C2994 C2995 1.414 . S
C2994 C2997 1.499 . S
C2995 H2969 0.950 . S
C2995 C2994 1.414 . S
C2995 C2996 1.374 . S
C2996 H2970 0.950 . S
C2996 C2992 1.385 . S
C2996 C2995 1.374 . S
C2997 C2994 1.499 . S
C2997 C2998 1.373 . S
C2997 C2999 1.389 . S
C2998 H2971 0.950 . S
C2998 C2984 1.377 . S
C2998 C2997 1.373 . S
C2999 C2983 1.377 . S
C2999 C2997 1.389 . S
C2999 C3000 1.524 . S
C3000 C2999 1.524 . S
C3000 C3001 1.397 . S
C3000 C3005 1.363 . S
C3001 H2972 0.950 . S
C3001 C3000 1.397 . S
C3001 C3002 1.334 . S
C3002 H2973 0.950 . S
C3002 C3001 1.334 . S
C3002 C3003 1.287 . S
C3003 C3002 1.287 . S
C3003 C3004 1.524 . S
C3003 H3006 0.999 . S
C3004 H2974 0.950 . S
C3004 C3003 1.524 . S
C3004 C3005 1.415 . S
C3005 H2975 0.950 . S
C3005 C3000 1.363 . S
C3005 C3004 1.415 . S
H3006 C3003 0.999 . S
H3007 C2988 0.913 . S
H3008 C3026 0.951 . S
H3009 C3028 0.951 . S
H3010 C3030 0.950 . S
H3011 C3031 0.950 . S
H3012 C3033 0.950 . S
H3013 C3036 0.950 . S
H3014 C3037 0.950 . S
H3015 C3039 0.950 . S
H3016 C3040 0.950 . S
H3017 C3041 0.951 . S
H3018 C3043 0.951 . S
H3019 C3045 0.950 . S
H3020 C3046 0.950 . S
H3021 C3048 0.950 . S
H3022 C3051 0.950 . S
H3023 C3052 0.950 . S
H3024 C3054 0.950 . S
H3025 C3055 0.950 . S
C3026 H3008 0.951 . S
C3026 C3027 1.366 . S
C3026 C3028 1.388 . S
C3027 C3026 1.366 . S
C3027 C3031 1.385 . S
C3028 H3009 0.951 . S
C3028 C3026 1.388 . S
C3028 C3029 1.366 . S
C3029 C3028 1.366 . S
C3029 C3030 1.414 . S
C3029 C3032 1.499 . S
C3030 H3010 0.950 . S
C3030 C3029 1.414 . S
C3030 C3031 1.374 . S
C3031 H3011 0.950 . S
C3031 C3027 1.385 . S
C3031 C3030 1.374 . S
C3032 C3029 1.499 . S
C3032 C3033 1.373 . S
C3032 C3034 1.389 . S
C3033 H3012 0.950 . S
C3033 C3032 1.373 . S
C3033 C3049 1.377 . S
C3034 C3032 1.389 . S
C3034 C3035 1.524 . S
C3034 C3048 1.377 . S
C3035 C3034 1.524 . S
C3035 C3036 1.397 . S
C3035 C3040 1.363 . S
C3036 H3013 0.950 . S
C3036 C3035 1.397 . S
C3036 C3037 1.334 . S
C3037 H3014 0.950 . S
C3037 C3036 1.334 . S
C3037 C3038 1.287 . S
C3038 C3037 1.287 . S
C3038 C3039 1.524 . S
C3038 H3057 0.913 . S
C3039 H3015 0.950 . S
C3039 C3038 1.524 . S
C3039 C3040 1.415 . S
C3040 H3016 0.950 . S
C3040 C3035 1.363 . S
C3040 C3039 1.415 . S
C3041 H3017 0.951 . S
C3041 C3042 1.366 . S
C3041 C3043 1.388 . S
C3042 C3041 1.366 . S
C3042 C3046 1.385 . S
C3043 H3018 0.951 . S
C3043 C3041 1.388 . S
C3043 C3044 1.366 . S
C3044 C3043 1.366 . S
C3044 C3045 1.414 . S
C3044 C3047 1.499 . S
C3045 H3019 0.950 . S
C3045 C3044 1.414 . S
C3045 C3046 1.374 . S
C3046 H3020 0.950 . S
C3046 C3042 1.385 . S
C3046 C3045 1.374 . S
C3047 C3044 1.499 . S
C3047 C3048 1.373 . S
C3047 C3049 1.389 . S
C3048 H3021 0.950 . S
C3048 C3034 1.377 . S
C3048 C3047 1.373 . S
C3049 C3033 1.377 . S
C3049 C3047 1.389 . S
C3049 C3050 1.524 1_556 S
C3050 C3049 1.524 1_554 S
C3050 C3051 1.397 . S
C3050 C3055 1.363 . S
C3051 H3022 0.950 . S
C3051 C3050 1.397 . S
C3051 C3052 1.334 . S
C3052 H3023 0.950 . S
C3052 C3051 1.334 . S
C3052 C3053 1.287 . S
C3053 C3052 1.287 . S
C3053 C3054 1.524 . S
C3053 H3056 0.999 . S
C3054 H3024 0.950 . S
C3054 C3053 1.524 . S
C3054 C3055 1.415 . S
C3055 H3025 0.950 . S
C3055 C3050 1.363 . S
C3055 C3054 1.415 . S
H3056 C3053 0.999 . S
H3057 C3038 0.913 . S
H3058 C3076 0.951 . S
H3059 C3078 0.951 . S
H3060 C3080 0.950 . S
H3061 C3081 0.950 . S
H3062 C3083 0.950 . S
H3063 C3086 0.950 . S
H3064 C3087 0.950 . S
H3065 C3089 0.950 . S
H3066 C3090 0.950 . S
H3067 C3091 0.951 . S
H3068 C3093 0.951 . S
H3069 C3095 0.950 . S
H3070 C3096 0.950 . S
H3071 C3098 0.950 . S
H3072 C3101 0.950 . S
H3073 C3102 0.950 . S
H3074 C3104 0.950 . S
H3075 C3105 0.950 . S
C3076 H3058 0.951 . S
C3076 C3077 1.366 . S
C3076 C3078 1.388 . S
C3077 C3076 1.366 . S
C3077 C3081 1.385 . S
C3078 H3059 0.951 . S
C3078 C3076 1.388 . S
C3078 C3079 1.366 . S
C3079 C3078 1.366 . S
C3079 C3080 1.414 . S
C3079 C3082 1.499 . S
C3080 H3060 0.950 . S
C3080 C3079 1.414 . S
C3080 C3081 1.374 . S
C3081 H3061 0.950 . S
C3081 C3077 1.385 . S
C3081 C3080 1.374 . S
C3082 C3079 1.499 . S
C3082 C3083 1.373 . S
C3082 C3084 1.389 . S
C3083 H3062 0.950 . S
C3083 C3082 1.373 . S
C3083 C3099 1.377 . S
C3084 C3082 1.389 . S
C3084 C3085 1.524 . S
C3084 C3098 1.377 . S
C3085 C3084 1.524 . S
C3085 C3086 1.397 . S
C3085 C3090 1.363 . S
C3086 H3063 0.950 . S
C3086 C3085 1.397 . S
C3086 C3087 1.334 . S
C3087 H3064 0.950 . S
C3087 C3086 1.334 . S
C3087 C3088 1.287 . S
C3088 C3087 1.287 . S
C3088 C3089 1.524 . S
C3088 H3107 0.913 . S
C3089 H3065 0.950 . S
C3089 C3088 1.524 . S
C3089 C3090 1.415 . S
C3090 H3066 0.950 . S
C3090 C3085 1.363 . S
C3090 C3089 1.415 . S
C3091 H3067 0.951 . S
C3091 C3092 1.366 . S
C3091 C3093 1.388 . S
C3092 C3091 1.366 . S
C3092 C3096 1.385 . S
C3093 H3068 0.951 . S
C3093 C3091 1.388 . S
C3093 C3094 1.366 . S
C3094 C3093 1.366 . S
C3094 C3095 1.414 . S
C3094 C3097 1.499 . S
C3095 H3069 0.950 . S
C3095 C3094 1.414 . S
C3095 C3096 1.374 . S
C3096 H3070 0.950 . S
C3096 C3092 1.385 . S
C3096 C3095 1.374 . S
C3097 C3094 1.499 . S
C3097 C3098 1.373 . S
C3097 C3099 1.389 . S
C3098 H3071 0.950 . S
C3098 C3084 1.377 . S
C3098 C3097 1.373 . S
C3099 C3083 1.377 . S
C3099 C3097 1.389 . S
C3099 C3100 1.524 . S
C3100 C3099 1.524 . S
C3100 C3101 1.397 . S
C3100 C3105 1.363 . S
C3101 H3072 0.950 . S
C3101 C3100 1.397 . S
C3101 C3102 1.334 . S
C3102 H3073 0.950 . S
C3102 C3101 1.334 . S
C3102 C3103 1.287 . S
C3103 C3102 1.287 . S
C3103 C3104 1.524 . S
C3103 H3106 0.999 . S
C3104 H3074 0.950 . S
C3104 C3103 1.524 . S
C3104 C3105 1.415 . S
C3105 H3075 0.950 . S
C3105 C3100 1.363 . S
C3105 C3104 1.415 . S
H3106 C3103 0.999 . S
H3107 C3088 0.913 . S
H3108 C3126 0.951 . S
H3109 C3128 0.951 . S
H3110 C3130 0.950 . S
H3111 C3131 0.950 . S
H3112 C3133 0.950 . S
H3113 C3136 0.950 . S
H3114 C3137 0.950 . S
H3115 C3139 0.950 . S
H3116 C3140 0.950 . S
H3117 C3141 1.016 . S
H3118 C3143 0.951 1_556 S
H3119 C3145 0.950 . S
H3120 C3146 0.950 . S
H3121 C3148 0.950 . S
H3122 C3151 0.950 1_554 S
H3123 C3152 0.950 . S
H3124 C3154 0.950 . S
H3125 C3155 0.950 . S
C3126 H3108 0.951 . S
C3126 C3127 1.366 . S
C3126 C3128 1.388 . S
C3127 C3126 1.366 . S
C3127 C3131 1.385 . S
C3128 H3109 0.951 . S
C3128 C3126 1.388 . S
C3128 C3129 1.366 . S
C3129 C3128 1.366 . S
C3129 C3130 1.414 . S
C3129 C3132 1.499 . S
C3130 H3110 0.950 . S
C3130 C3129 1.414 . S
C3130 C3131 1.374 . S
C3131 H3111 0.950 . S
C3131 C3127 1.385 . S
C3131 C3130 1.374 . S
C3132 C3129 1.499 . S
C3132 C3133 1.373 . S
C3132 C3134 1.389 . S
C3133 H3112 0.950 . S
C3133 C3132 1.373 . S
C3133 C3149 1.377 . S
C3134 C3132 1.389 . S
C3134 C3135 1.524 . S
C3134 C3148 1.377 . S
C3135 C3134 1.524 . S
C3135 C3136 1.397 . S
C3135 C3140 1.363 . S
C3136 H3113 0.950 . S
C3136 C3135 1.397 . S
C3136 C3137 1.334 . S
C3137 H3114 0.950 . S
C3137 C3136 1.334 . S
C3137 C3138 1.287 . S
C3138 C3137 1.287 . S
C3138 C3139 1.524 . S
C3138 H3157 0.913 . S
C3139 H3115 0.950 . S
C3139 C3138 1.524 . S
C3139 C3140 1.415 . S
C3140 H3116 0.950 . S
C3140 C3135 1.363 . S
C3140 C3139 1.415 . S
C3141 H3117 1.016 . S
C3141 C3142 1.319 1_556 S
C3141 C3143 1.374 1_556 S
C3142 C3141 1.319 1_554 S
C3142 C3146 1.385 . S
C3143 H3118 0.951 1_554 S
C3143 C3141 1.374 1_554 S
C3143 C3144 1.366 . S
C3144 C3143 1.366 . S
C3144 C3145 1.414 . S
C3144 C3147 1.499 . S
C3145 H3119 0.950 . S
C3145 C3144 1.414 . S
C3145 C3146 1.374 . S
C3146 H3120 0.950 . S
C3146 C3142 1.385 . S
C3146 C3145 1.374 . S
C3147 C3144 1.499 . S
C3147 C3148 1.373 . S
C3147 C3149 1.389 . S
C3148 H3121 0.950 . S
C3148 C3134 1.377 . S
C3148 C3147 1.373 . S
C3149 C3133 1.377 . S
C3149 C3147 1.389 . S
C3149 C3150 1.524 1_554 S
C3150 C3149 1.524 1_556 S
C3150 C3151 1.397 . S
C3150 C3155 1.363 . S
C3151 H3122 0.950 1_556 S
C3151 C3150 1.397 . S
C3151 C3152 1.334 . S
C3152 H3123 0.950 . S
C3152 C3151 1.334 . S
C3152 C3153 1.287 . S
C3153 C3152 1.287 . S
C3153 C3154 1.524 . S
C3153 H3156 0.999 . S
C3154 H3124 0.950 . S
C3154 C3153 1.524 . S
C3154 C3155 1.415 . S
C3155 H3125 0.950 . S
C3155 C3150 1.363 . S
C3155 C3154 1.415 . S
H3156 C3153 0.999 . S
H3157 C3138 0.913 . S
H3158 C3176 0.951 . S
H3159 C3178 0.951 . S
H3160 C3180 0.950 . S
H3161 C3181 0.950 . S
H3162 C3183 0.950 . S
H3163 C3186 0.950 . S
H3164 C3187 0.950 1_545 S
H3165 C3189 0.950 . S
H3166 C3190 0.950 . S
H3167 C3191 0.922 1_556 S
H3168 C3193 0.951 1_556 S
H3169 C3195 0.950 . S
H3170 C3196 0.950 . S
H3171 C3198 0.950 . S
H3172 C3201 0.968 . S
H3173 C3202 0.950 . S
H3174 C3204 0.950 . S
H3175 C3205 0.950 . S
C3176 H3158 0.951 . S
C3176 C3177 1.366 . S
C3176 C3178 1.388 . S
C3177 C3176 1.366 . S
C3177 C3181 1.385 . S
C3178 H3159 0.951 . S
C3178 C3176 1.388 . S
C3178 C3179 1.366 . S
C3179 C3178 1.366 . S
C3179 C3180 1.414 . S
C3179 C3182 1.499 . S
C3180 H3160 0.950 . S
C3180 C3179 1.414 . S
C3180 C3181 1.374 . S
C3181 H3161 0.950 . S
C3181 C3177 1.385 . S
C3181 C3180 1.374 . S
C3182 C3179 1.499 . S
C3182 C3183 1.373 . S
C3182 C3184 1.389 . S
C3183 H3162 0.950 . S
C3183 C3182 1.373 . S
C3183 C3199 1.377 . S
C3184 C3182 1.389 . S
C3184 C3185 1.524 . S
C3184 C3198 1.377 . S
C3185 C3184 1.524 . S
C3185 C3186 1.397 . S
C3185 C3190 1.363 . S
C3186 H3163 0.950 . S
C3186 C3185 1.397 . S
C3186 C3187 1.334 . S
C3187 H3164 0.950 1_565 S
C3187 C3186 1.334 . S
C3187 C3188 1.287 . S
C3188 C3187 1.287 . S
C3188 C3189 1.524 . S
C3188 H3207 0.912 1_565 S
C3189 H3165 0.950 . S
C3189 C3188 1.524 . S
C3189 C3190 1.415 . S
C3190 H3166 0.950 . S
C3190 C3185 1.363 . S
C3190 C3189 1.415 . S
C3191 H3167 0.922 1_554 S
C3191 C3192 1.391 . S
C3191 C3193 1.392 . S
C3192 C3191 1.391 . S
C3192 C3196 1.385 . S
C3193 H3168 0.951 1_554 S
C3193 C3191 1.392 . S
C3193 C3194 1.366 . S
C3194 C3193 1.366 . S
C3194 C3195 1.414 . S
C3194 C3197 1.499 . S
C3195 H3169 0.950 . S
C3195 C3194 1.414 . S
C3195 C3196 1.374 . S
C3196 H3170 0.950 . S
C3196 C3192 1.385 . S
C3196 C3195 1.374 . S
C3197 C3194 1.499 . S
C3197 C3198 1.373 . S
C3197 C3199 1.389 . S
C3198 H3171 0.950 . S
C3198 C3184 1.377 . S
C3198 C3197 1.373 . S
C3199 C3183 1.377 . S
C3199 C3197 1.389 . S
C3199 C3200 1.524 1_554 S
C3200 C3199 1.524 1_556 S
C3200 C3201 1.391 1_556 S
C3200 C3205 1.363 . S
C3201 H3172 0.968 . S
C3201 C3200 1.391 1_554 S
C3201 C3202 1.322 1_554 S
C3202 H3173 0.950 . S
C3202 C3201 1.322 1_556 S
C3202 C3203 1.287 . S
C3203 C3202 1.287 . S
C3203 C3204 1.524 . S
C3203 H3206 0.999 . S
C3204 H3174 0.950 . S
C3204 C3203 1.524 . S
C3204 C3205 1.415 . S
C3205 H3175 0.950 . S
C3205 C3200 1.363 . S
C3205 C3204 1.415 . S
H3206 C3203 0.999 . S
H3207 C3188 0.912 1_545 S
C842 C648 1.482 . S
C827 C202 1.497 . S
C892 C661 1.487 . S
C877 C261 1.475 . S
C927 C282 1.697 . S
C942 C681 1.581 . S
C992 C695 1.354 . S
C977 C162 1.408 1_655 S
C1042 C707 1.507 . S
C1027 C402 1.501 . S
C1092 C721 1.405 . S
C1077 C482 1.399 . S
C1127 C442 1.481 . S
C1142 C731 1.488 . S
C1192 C746 1.529 . S
C1177 C381 1.543 . S
C1227 C461 1.560 . S
C1242 C760 1.542 . S
C1292 C779 1.324 . S
C1277 C362 1.375 . S
C1327 C415 1.446 . S
C1342 C759 1.435 . S
C1392 C777 1.424 . S
C1377 C495 1.427 . S
C1427 C301 1.744 . S
C1442 C793 1.624 . S
C1477 C175 1.502 . S
C1492 C787 1.496 . S
C1527 C215 1.487 . S
C1542 C791 1.483 . S
C1577 C242 1.493 . S
C1592 C788 1.487 . S
C1627 C141 1.557 . S
C1642 C690 1.537 . S
C1677 C581 1.528 . S
C1692 C689 1.527 . S
C1742 C653 1.306 . S
C1727 C615 1.373 1_565 S
C1792 C667 1.562 . S
C1777 C335 1.676 . S
C1827 C181 1.568 1_545 S
C1842 C704 1.578 . S
C1892 C749 1.505 . S
C1877 C455 1.510 . S
C1942 C703 1.416 . S
C1927 C375 1.420 . S
C1992 C735 1.462 . S
C1977 C501 1.457 . S
C2042 C732 1.482 . S
C2027 C562 1.498 . S
C2077 C621 1.475 . S
C2092 C745 1.487 . S
C2127 C322 1.697 . S
C2142 C709 1.581 . S
C2192 C723 1.353 . S
C2177 C522 1.408 . S
C2227 C122 1.501 . S
C2242 C679 1.508 . S
C2292 C693 1.406 . S
C2277 C2 1.398 . S
C2342 C647 1.488 . S
C2327 C42 1.482 . S
C2392 C662 1.529 . S
C2377 C101 1.519 1_455 S
C2427 C61 1.560 . S
C2442 C774 1.543 . S
C2477 C82 1.375 1_556 S
C2492 C765 1.323 . S
C2527 C135 1.446 . S
C2542 C773 1.435 . S
C2577 C15 1.427 . S
C2592 C763 1.423 . S
C2642 C807 1.624 . S
C2627 C341 1.744 . S
C2692 C801 1.496 . S
C2677 C535 1.502 . S
C2742 C805 1.482 . S
C2727 C575 1.486 . S
C2777 C602 1.464 1_554 S
C2792 C802 1.486 . S
C2827 C421 1.557 . S
C2842 C718 1.537 . S
C2892 C717 1.527 . S
C2877 C221 1.528 . S
C2942 C737 1.307 . S
C2927 C255 1.373 . S
C2992 C751 1.562 . S
C2977 C295 1.675 . S
C3027 C541 1.591 . S
C3042 C676 1.577 . S
C3092 C665 1.505 . S
C3077 C55 1.510 . S
C3127 C95 1.420 . S
C3142 C675 1.416 . S
C3192 C651 1.462 . S
C3177 C21 1.458 . S
