# Generated by pormake.
# Topology bcu-b, (8,8)-cn, num edge types: 1
# Building blocks:
#     Node 0, Type 0, BuildingBlock: TAGTUT_clean_sbu_3, # of connection points: 8
#     Node 1, Type 1, BuildingBlock: GIZVER_clean_sbu_0, # of connection points: 8
#     Edge 2, Type (0, 1), BuildingBlock: TEMPAE_clean_linker_10, # of connection points: 2
#     Edge 3, Type (0, 1), BuildingBlock: TEMPAE_clean_linker_10, # of connection points: 2
#     Edge 4, Type (0, 1), BuildingBlock: TEMPAE_clean_linker_10, # of connection points: 2
#     Edge 5, Type (0, 1), BuildingBlock: TEMPAE_clean_linker_10, # of connection points: 2
#     Edge 6, Type (0, 1), BuildingBlock: TEMPAE_clean_linker_10, # of connection points: 2
#     Edge 7, Type (0, 1), BuildingBlock: TEMPAE_clean_linker_10, # of connection points: 2
#     Edge 8, Type (0, 1), BuildingBlock: TEMPAE_clean_linker_10, # of connection points: 2
#     Edge 9, Type (0, 1), BuildingBlock: TEMPAE_clean_linker_10, # of connection points: 2
# Relax obj value: 0.089
# Max RMSD: 0.158
# Mean RMSD: 0.156
data_MOF--net-bcu-b--node1-TAGTUT_clean_sbu_3--node2-GIZVER_clean_sbu_0--edge1-TEMPAE_clean_linker_10
_symmetry_space_group_name_H-M    P1
_symmetry_Int_Tables_number       1
_symmetry_cell_setting            triclinic
loop_
_symmetry_equiv_pos_as_xyz
'x, y, z'
_cell_length_a     20.958776
_cell_length_b     23.010585
_cell_length_c     17.708332
_cell_angle_alpha  88.691768
_cell_angle_beta   90.715068
_cell_angle_gamma 108.34334
loop_
_atom_site_label
_atom_site_type_symbol
_atom_site_fract_x
_atom_site_fract_y
_atom_site_fract_z
_atom_type_partial_charge
C0 C 0.12351 0.11869 0.09188 0.0
C1 C 0.20023 0.91898 0.09826 0.0
C2 C 0.11756 0.89299 0.87636 0.0
Mg3 Mg 0.99659 0.14255 0.00405 0.0
Mg4 Mg 0.85703 0.02865 0.98697 0.0
O5 O 0.94937 0.05865 0.9659 0.0
Mg6 Mg 0.01028 0.01242 0.00284 0.0
O7 O 0.07714 0.97212 0.04014 0.0
Mg8 Mg 0.16049 0.02055 0.98371 0.0
Mg9 Mg 0.05596 0.88752 0.02971 0.0
C10 C 0.88521 0.90995 0.92295 0.0
O11 O 0.93506 0.95407 0.09187 0.0
O12 O 0.92422 0.1743 0.92395 0.0
O13 O 0.95832 0.86504 0.08102 0.0
O14 O 0.92304 0.1374 0.09831 0.0
O15 O 0.83402 0.09031 0.90668 0.0
O16 O 0.8319 0.05589 0.09796 0.0
O17 O 0.08992 0.06153 0.91407 0.0
O18 O 0.07043 0.15116 0.91008 0.0
C19 C 0.10268 0.11619 0.88763 0.0
C20 C 0.86733 0.14648 0.89257 0.0
O21 O 0.94981 0.93347 0.92619 0.0
O22 O 0.21813 0.97166 0.06425 0.0
O23 O 0.84459 0.93571 0.95086 0.0
O24 O 0.15366 0.94626 0.89627 0.0
O25 O 0.14124 0.88026 0.09246 0.0
O26 O 0.06705 0.86227 0.91534 0.0
O27 O 0.06073 0.09525 0.07731 0.0
O28 O 0.16709 0.09556 0.06705 0.0
C29 C 0.86686 0.10647 0.12675 0.0
C30 C 0.92154 0.89602 0.1051 0.0
Co31 Co 0.56874 0.40344 0.44264 0.0
Co32 Co 0.59899 0.45449 0.57377 0.0
Co33 Co 0.50337 0.51398 0.50101 0.0
O34 O 0.58105 0.48444 0.48109 0.0
H35 H 0.61984 0.51582 0.46123 0.0
O36 O 0.42536 0.54279 0.5188 0.0
Co37 Co 0.43143 0.62033 0.56014 0.0
Co38 Co 0.40746 0.57484 0.42565 0.0
H39 H 0.38634 0.51017 0.53615 0.0
O40 O 0.68076 0.44682 0.59202 0.0
O41 O 0.58772 0.37493 0.54627 0.0
O42 O 0.5387 0.44803 0.65814 0.0
O43 O 0.45979 0.44385 0.57285 0.0
O44 O 0.55425 0.56378 0.58491 0.0
O45 O 0.42654 0.68932 0.60042 0.0
O46 O 0.34217 0.6031 0.57396 0.0
O47 O 0.52809 0.64791 0.55551 0.0
O48 O 0.54731 0.5845 0.43071 0.0
O49 O 0.47036 0.5827 0.34364 0.0
O50 O 0.42419 0.65457 0.45688 0.0
O51 O 0.32928 0.59307 0.40352 0.0
C52 C 0.62812 0.358 0.3952 0.0
C53 C 0.43674 0.40587 0.42159 0.0
C54 C 0.47787 0.42866 0.63732 0.0
C55 C 0.64797 0.39024 0.57661 0.0
C56 C 0.3628 0.65825 0.60071 0.0
C57 C 0.56689 0.62155 0.58752 0.0
C58 C 0.53072 0.60138 0.36644 0.0
C59 C 0.36776 0.64747 0.42086 0.0
O60 O 0.56416 0.33171 0.40465 0.0
O61 O 0.65611 0.41428 0.41742 0.0
O62 O 0.45238 0.46394 0.41771 0.0
O63 O 0.47397 0.38028 0.45805 0.0
C64 C 0.11759 0.18066 0.20423 0.0
C65 C 0.14895 0.17406 0.13707 0.0
C66 C 0.15192 0.22466 0.25688 0.0
C67 C 0.21853 0.26211 0.24118 0.0
C68 C 0.24704 0.2596 0.16978 0.0
C69 C 0.21178 0.21558 0.11864 0.0
C70 C 0.1191 0.22731 0.33146 0.0
C71 C 0.31749 0.29924 0.14994 0.0
C72 C 0.33024 0.39551 0.34963 0.0
C73 C 0.37357 0.36797 0.38615 0.0
C74 C 0.2747 0.36051 0.3078 0.0
C75 C 0.26302 0.29685 0.30165 0.0
C76 C 0.30327 0.26822 0.34356 0.0
C77 C 0.35798 0.30415 0.3855 0.0
C78 C 0.23165 0.39237 0.26589 0.0
C79 C 0.29211 0.20025 0.33915 0.0
H80 H 0.06874 0.1486 0.21816 0.0
H81 H 0.23533 0.21102 0.06584 0.0
H82 H 0.13646 0.19965 0.37435 0.0
H83 H 0.13302 0.27495 0.35181 0.0
H84 H 0.06346 0.20841 0.32728 0.0
H85 H 0.32942 0.29571 0.08959 0.0
H86 H 0.32429 0.34792 0.16179 0.0
H87 H 0.35432 0.28501 0.18528 0.0
H88 H 0.34103 0.44474 0.35125 0.0
H89 H 0.39042 0.28238 0.41477 0.0
H90 H 0.17787 0.36421 0.26742 0.0
H91 H 0.24707 0.39925 0.2058 0.0
H92 H 0.23704 0.43791 0.2898 0.0
H93 H 0.23832 0.17413 0.34782 0.0
H94 H 0.32251 0.18418 0.38173 0.0
H95 H 0.30614 0.1895 0.28211 0.0
C96 C 0.7865 0.10892 0.232 0.0
C97 C 0.83654 0.13921 0.18011 0.0
C98 C 0.75497 0.14227 0.27629 0.0
C99 C 0.77168 0.20674 0.26551 0.0
C100 C 0.82252 0.23719 0.21363 0.0
C101 C 0.85498 0.20339 0.17305 0.0
C102 C 0.7029 0.10848 0.33335 0.0
C103 C 0.8402 0.30524 0.19746 0.0
C104 C 0.64063 0.2859 0.29861 0.0
C105 C 0.66722 0.32195 0.3612 0.0
C106 C 0.6735 0.24745 0.26778 0.0
C107 C 0.73284 0.24252 0.30269 0.0
C108 C 0.75871 0.27744 0.36762 0.0
C109 C 0.72658 0.31809 0.39479 0.0
C110 C 0.64572 0.2136 0.19646 0.0
C111 C 0.82012 0.27167 0.40849 0.0
H112 H 0.77195 0.05947 0.23776 0.0
H113 H 0.89272 0.22743 0.13221 0.0
H114 H 0.71174 0.13277 0.38783 0.0
H115 H 0.65218 0.10694 0.31292 0.0
H116 H 0.7032 0.06073 0.34345 0.0
H117 H 0.88111 0.32194 0.15536 0.0
H118 H 0.79522 0.31595 0.17558 0.0
H119 H 0.85621 0.33118 0.25007 0.0
H120 H 0.59443 0.28867 0.27283 0.0
H121 H 0.74671 0.34544 0.44354 0.0
H122 H 0.6344 0.16361 0.20605 0.0
H123 H 0.68385 0.22764 0.15101 0.0
H124 H 0.59918 0.2225 0.17635 0.0
H125 H 0.81439 0.22269 0.42013 0.0
H126 H 0.82914 0.29633 0.46274 0.0
H127 H 0.86514 0.2905 0.3725 0.0
C128 C 0.85042 0.79953 0.16584 0.0
C129 C 0.85963 0.86101 0.14581 0.0
C130 C 0.79108 0.76283 0.19914 0.0
C131 C 0.73935 0.78815 0.21397 0.0
C132 C 0.74807 0.85033 0.19497 0.0
C133 C 0.80831 0.88619 0.16072 0.0
C134 C 0.78407 0.69676 0.21879 0.0
C135 C 0.69386 0.87872 0.21057 0.0
C136 C 0.57547 0.66202 0.24843 0.0
C137 C 0.57974 0.65287 0.32653 0.0
C138 C 0.62466 0.70957 0.2109 0.0
C139 C 0.67822 0.74907 0.253 0.0
C140 C 0.6795 0.74275 0.33255 0.0
C141 C 0.63069 0.69436 0.36821 0.0
C142 C 0.62193 0.71476 0.12587 0.0
C143 C 0.73509 0.7844 0.37973 0.0
H144 H 0.88968 0.77944 0.15504 0.0
H145 H 0.81481 0.93344 0.14487 0.0
H146 H 0.77823 0.68889 0.28072 0.0
H147 H 0.73843 0.66584 0.19149 0.0
H148 H 0.82818 0.68367 0.20075 0.0
H149 H 0.70943 0.92822 0.19488 0.0
H150 H 0.64771 0.85472 0.17836 0.0
H151 H 0.68058 0.87328 0.27135 0.0
H152 H 0.53542 0.63058 0.21636 0.0
H153 H 0.63304 0.68866 0.42904 0.0
H154 H 0.66103 0.69785 0.10116 0.0
H155 H 0.63274 0.76324 0.10729 0.0
H156 H 0.57223 0.68754 0.10282 0.0
H157 H 0.78198 0.77261 0.37193 0.0
H158 H 0.72275 0.77998 0.44089 0.0
H159 H 0.74535 0.8329 0.36153 0.0
C160 C 0.25798 0.91961 0.22145 0.0
C161 C 0.24799 0.90046 0.14655 0.0
C162 C 0.28671 0.88878 0.27462 0.0
C163 C 0.30538 0.83782 0.25172 0.0
C164 C 0.30022 0.8218 0.17454 0.0
C165 C 0.2709 0.85303 0.123 0.0
C166 C 0.29118 0.90737 0.35617 0.0
C167 C 0.32022 0.76824 0.14746 0.0
C168 C 0.40273 0.75495 0.37047 0.0
C169 C 0.35128 0.70128 0.39068 0.0
C170 C 0.38839 0.80211 0.32889 0.0
C171 C 0.32102 0.7956 0.30854 0.0
C172 C 0.26853 0.74382 0.33474 0.0
C173 C 0.2844 0.69687 0.37464 0.0
C174 C 0.44562 0.85671 0.30233 0.0
C175 C 0.19578 0.73607 0.31649 0.0
H176 H 0.23886 0.95565 0.23964 0.0
H177 H 0.26205 0.83792 0.06511 0.0
H178 H 0.2464 0.87778 0.38673 0.0
H179 H 0.33643 0.90162 0.38439 0.0
H180 H 0.29225 0.95569 0.36139 0.0
H181 H 0.32081 0.76658 0.08482 0.0
H182 H 0.37074 0.77056 0.16944 0.0
H183 H 0.28403 0.72489 0.16918 0.0
H184 H 0.45459 0.75847 0.38288 0.0
H185 H 0.24452 0.65581 0.39143 0.0
H186 H 0.43403 0.89983 0.3117 0.0
H187 H 0.45265 0.85357 0.24072 0.0
H188 H 0.49362 0.85922 0.33152 0.0
H189 H 0.18368 0.77823 0.33009 0.0
H190 H 0.16089 0.69681 0.34804 0.0
H191 H 0.18673 0.72829 0.25511 0.0
C192 C 0.21332 0.88064 0.80449 0.0
C193 C 0.14375 0.86219 0.81711 0.0
C194 C 0.24243 0.84563 0.76114 0.0
C195 C 0.20083 0.7918 0.72694 0.0
C196 C 0.13004 0.77547 0.73435 0.0
C197 C 0.10231 0.81021 0.78072 0.0
C198 C 0.3182 0.86419 0.75634 0.0
C199 C 0.08384 0.72004 0.69586 0.0
C200 C 0.2976 0.73125 0.58545 0.0
C201 C 0.31426 0.68658 0.62902 0.0
C202 C 0.25569 0.76246 0.61426 0.0
C203 C 0.23267 0.75051 0.68969 0.0
C204 C 0.24818 0.70404 0.7331 0.0
C205 C 0.28817 0.67203 0.70171 0.0
C206 C 0.23881 0.81007 0.56502 0.0
C207 C 0.22623 0.69082 0.8143 0.0
H208 H 0.24591 0.92045 0.83279 0.0
H209 H 0.04848 0.79593 0.78987 0.0
H210 H 0.33613 0.82802 0.78305 0.0
H211 H 0.33427 0.86903 0.69651 0.0
H212 H 0.34327 0.90808 0.78488 0.0
H213 H 0.03075 0.71984 0.696 0.0
H214 H 0.09967 0.71833 0.63659 0.0
H215 H 0.08647 0.67786 0.72547 0.0
H216 H 0.31843 0.74269 0.52941 0.0
H217 H 0.3017 0.63761 0.73524 0.0
H218 H 0.27097 0.85638 0.58125 0.0
H219 H 0.18564 0.80797 0.57262 0.0
H220 H 0.24742 0.80411 0.50428 0.0
H221 H 0.2509 0.73158 0.84876 0.0
H222 H 0.2392 0.65108 0.83884 0.0
H223 H 0.17118 0.68146 0.8188 0.0
C224 C 0.15675 0.1926 0.78959 0.0
C225 C 0.16052 0.14494 0.83829 0.0
C226 C 0.21427 0.23261 0.7562 0.0
C227 C 0.27727 0.22416 0.77085 0.0
C228 C 0.28085 0.173 0.81481 0.0
C229 C 0.22207 0.13383 0.84856 0.0
C230 C 0.20794 0.28623 0.70911 0.0
C231 C 0.34697 0.16162 0.82978 0.0
C232 C 0.40485 0.321 0.63423 0.0
C233 C 0.43283 0.37425 0.67569 0.0
C234 C 0.35872 0.26909 0.66699 0.0
C235 C 0.3387 0.27129 0.74247 0.0
C236 C 0.36978 0.32385 0.78602 0.0
C237 C 0.41744 0.37473 0.75214 0.0
C238 C 0.3284 0.21342 0.61931 0.0
C239 C 0.34922 0.32798 0.8666 0.0
H240 H 0.10891 0.20075 0.78098 0.0
H241 H 0.2252 0.09718 0.8864 0.0
H242 H 0.23655 0.32979 0.73626 0.0
H243 H 0.22964 0.28642 0.65229 0.0
H244 H 0.15487 0.28528 0.70205 0.0
H245 H 0.33962 0.11429 0.85151 0.0
H246 H 0.37771 0.1694 0.77773 0.0
H247 H 0.37589 0.19414 0.87257 0.0
H248 H 0.41841 0.32008 0.57561 0.0
H249 H 0.44008 0.4158 0.78418 0.0
H250 H 0.27642 0.21092 0.60266 0.0
H251 H 0.32552 0.1709 0.65187 0.0
H252 H 0.35772 0.21491 0.56703 0.0
H253 H 0.29719 0.33046 0.86736 0.0
H254 H 0.38292 0.36895 0.89502 0.0
H255 H 0.34932 0.28646 0.89959 0.0
C256 C 0.81722 0.15396 0.76669 0.0
C257 C 0.8387 0.17964 0.83718 0.0
C258 C 0.7866 0.18338 0.71419 0.0
C259 C 0.77487 0.23822 0.73442 0.0
C260 C 0.79638 0.26411 0.80592 0.0
C261 C 0.82932 0.23495 0.85604 0.0
C262 C 0.76694 0.15599 0.63733 0.0
C263 C 0.78346 0.32194 0.83005 0.0
C264 C 0.74757 0.35628 0.59817 0.0
C265 C 0.67779 0.34337 0.60177 0.0
C266 C 0.77934 0.31878 0.6357 0.0
C267 C 0.74056 0.26927 0.68114 0.0
C268 C 0.66957 0.25418 0.68193 0.0
C269 C 0.63877 0.29099 0.6408 0.0
C270 C 0.85478 0.3346 0.63062 0.0
C271 C 0.62671 0.20264 0.73128 0.0
H272 H 0.82502 0.1111 0.75248 0.0
H273 H 0.84553 0.25413 0.91106 0.0
H274 H 0.71162 0.14251 0.62994 0.0
H275 H 0.78955 0.19051 0.59239 0.0
H276 H 0.78321 0.11507 0.62903 0.0
H277 H 0.80045 0.33427 0.88892 0.0
H278 H 0.81002 0.36066 0.7919 0.0
H279 H 0.72895 0.31623 0.82581 0.0
H280 H 0.77759 0.39699 0.56783 0.0
H281 H 0.58484 0.28176 0.64438 0.0
H282 H 0.86906 0.29282 0.62121 0.0
H283 H 0.87824 0.35444 0.68458 0.0
H284 H 0.8759 0.3683 0.58428 0.0
H285 H 0.63951 0.16006 0.72269 0.0
H286 H 0.57215 0.19327 0.72005 0.0
H287 H 0.63685 0.21484 0.79152 0.0
C288 C 0.78918 0.81658 0.89964 0.0
C289 C 0.85427 0.8534 0.88062 0.0
C290 C 0.75115 0.7719 0.85057 0.0
C291 C 0.77896 0.76388 0.78064 0.0
C292 C 0.84712 0.79651 0.76463 0.0
C293 C 0.88424 0.8411 0.81513 0.0
C294 C 0.6792 0.73722 0.87088 0.0
C295 C 0.87921 0.78814 0.69163 0.0
C296 C 0.66646 0.62994 0.67159 0.0
C297 C 0.62739 0.65855 0.62897 0.0
C298 C 0.71943 0.66408 0.71765 0.0
C299 C 0.73343 0.72823 0.72126 0.0
C300 C 0.69705 0.75771 0.67461 0.0
C301 C 0.64448 0.72254 0.62909 0.0
C302 C 0.75768 0.63105 0.7656 0.0
C303 C 0.711 0.82621 0.67602 0.0
H304 H 0.76645 0.82513 0.9512 0.0
H305 H 0.93479 0.86923 0.80053 0.0
H306 H 0.64478 0.75362 0.83425 0.0
H307 H 0.66814 0.68759 0.86107 0.0
H308 H 0.66797 0.74344 0.93077 0.0
H309 H 0.93498 0.80514 0.69548 0.0
H310 H 0.86307 0.73929 0.67565 0.0
H311 H 0.86323 0.81422 0.64571 0.0
H312 H 0.65423 0.58052 0.67122 0.0
H313 H 0.61539 0.74517 0.59543 0.0
H314 H 0.74063 0.62848 0.825 0.0
H315 H 0.81234 0.65626 0.765 0.0
H316 H 0.74958 0.58367 0.74619 0.0
H317 H 0.69659 0.83913 0.73178 0.0
H318 H 0.68271 0.84261 0.63138 0.0
H319 H 0.76545 0.85029 0.66839 0.0
loop_
_geom_bond_atom_site_label_1
_geom_bond_atom_site_label_2
_geom_bond_distance
_geom_bond_site_symmetry_2
_ccdc_geom_bond_type
C0 O27 1.312 . S
C0 O28 1.208 . S
C1 O22 1.331 . S
C1 O25 1.244 . S
C2 O24 1.264 . S
C2 O26 1.273 . S
Mg3 O5 1.936 . S
Mg3 O12 2.081 . S
Mg3 O14 2.023 1_556 S
Mg3 O18 2.031 1_655 S
Mg3 O27 2.291 1_656 S
Mg4 O5 1.963 . S
Mg4 O15 1.942 . S
Mg4 O16 1.955 1_556 S
Mg4 O23 1.986 1_545 S
O5 Mg3 1.936 . S
O5 Mg4 1.963 . S
O5 Mg6 1.913 1_556 S
Mg6 O5 1.913 1_554 S
Mg6 O7 1.917 1_645 S
Mg6 O11 2.019 1_545 S
Mg6 O17 2.109 1_654 S
Mg6 O21 2.006 1_544 S
Mg6 O27 2.119 1_655 S
O7 Mg6 1.917 1_465 S
O7 Mg8 1.936 1_565 S
O7 Mg9 1.963 . S
Mg8 O7 1.936 1_545 S
Mg8 O17 2.291 1_554 S
Mg8 O22 2.081 1_545 S
Mg8 O24 2.023 1_544 S
Mg8 O28 2.031 . S
Mg9 O7 1.963 . S
Mg9 O13 1.986 1_455 S
Mg9 O25 1.942 . S
Mg9 O26 1.955 1_554 S
C10 O21 1.191 . S
C10 O23 1.307 . S
O11 Mg6 2.019 1_565 S
O11 C30 1.191 . S
O12 Mg3 2.081 . S
O12 C20 1.331 . S
O13 Mg9 1.986 1_655 S
O13 C30 1.307 . S
O14 Mg3 2.023 1_554 S
O14 C29 1.264 . S
O15 Mg4 1.942 . S
O15 C20 1.244 . S
O16 Mg4 1.955 1_554 S
O16 C29 1.273 . S
O17 Mg6 2.109 1_456 S
O17 Mg8 2.291 1_556 S
O17 C19 1.312 . S
O18 Mg3 2.031 1_455 S
O18 C19 1.208 . S
C19 O17 1.312 . S
C19 O18 1.208 . S
C20 O12 1.331 . S
C20 O15 1.244 . S
O21 Mg6 2.006 1_566 S
O21 C10 1.191 . S
O22 C1 1.331 . S
O22 Mg8 2.081 1_565 S
O23 Mg4 1.986 1_565 S
O23 C10 1.307 . S
O24 C2 1.264 . S
O24 Mg8 2.023 1_566 S
O25 C1 1.244 . S
O25 Mg9 1.942 . S
O26 C2 1.273 . S
O26 Mg9 1.955 1_556 S
O27 C0 1.312 . S
O27 Mg3 2.291 1_454 S
O27 Mg6 2.119 1_455 S
O28 C0 1.208 . S
O28 Mg8 2.031 . S
C29 O14 1.264 . S
C29 O16 1.273 . S
C30 O11 1.191 . S
C30 O13 1.307 . S
Co31 O34 2.042 . S
Co31 O41 2.264 . S
Co31 O60 2.286 . S
Co31 O61 2.069 . S
Co31 O63 2.015 . S
Co32 O34 2.122 . S
Co32 O40 2.073 . S
Co32 O41 2.327 . S
Co32 O42 1.976 . S
Co33 O34 2.087 . S
Co33 O36 2.087 . S
Co33 O43 2.111 . S
Co33 O44 2.143 . S
Co33 O48 2.111 . S
Co33 O62 2.143 . S
O34 Co31 2.042 . S
O34 Co32 2.122 . S
O34 Co33 2.087 . S
O34 H35 0.980 . S
H35 O34 0.980 . S
O36 Co33 2.087 . S
O36 Co37 2.042 . S
O36 Co38 2.122 . S
O36 H39 0.980 . S
Co37 O36 2.042 . S
Co37 O45 2.286 . S
Co37 O46 2.069 . S
Co37 O47 2.015 . S
Co37 O50 2.264 . S
Co38 O36 2.122 . S
Co38 O49 1.976 . S
Co38 O50 2.327 . S
Co38 O51 2.073 . S
H39 O36 0.980 . S
O40 Co32 2.073 . S
O40 C55 1.245 . S
O41 Co31 2.264 . S
O41 Co32 2.327 . S
O41 C55 1.257 . S
O42 Co32 1.976 . S
O42 C54 1.251 . S
O43 Co33 2.111 . S
O43 C54 1.274 . S
O44 Co33 2.143 . S
O44 C57 1.246 . S
O45 Co37 2.286 . S
O45 C56 1.259 . S
O46 Co37 2.069 . S
O46 C56 1.289 . S
O47 Co37 2.015 . S
O47 C57 1.257 . S
O48 Co33 2.111 . S
O48 C58 1.274 . S
O49 Co38 1.976 . S
O49 C58 1.251 . S
O50 Co37 2.264 . S
O50 Co38 2.327 . S
O50 C59 1.257 . S
O51 Co38 2.073 . S
O51 C59 1.245 . S
C52 O60 1.259 . S
C52 O61 1.289 . S
C53 O62 1.246 . S
C53 O63 1.257 . S
C54 O42 1.251 . S
C54 O43 1.274 . S
C55 O40 1.245 . S
C55 O41 1.257 . S
C56 O45 1.259 . S
C56 O46 1.289 . S
C57 O44 1.246 . S
C57 O47 1.257 . S
C58 O48 1.274 . S
C58 O49 1.251 . S
C59 O50 1.257 . S
C59 O51 1.245 . S
O60 Co31 2.286 . S
O60 C52 1.259 . S
O61 Co31 2.069 . S
O61 C52 1.289 . S
O62 Co33 2.143 . S
O62 C53 1.246 . S
O63 Co31 2.015 . S
O63 C53 1.257 . S
C64 C65 1.391 . S
C64 C66 1.394 . S
C64 H80 0.931 . S
C65 C64 1.391 . S
C65 C69 1.376 . S
C66 C64 1.394 . S
C66 C67 1.369 . S
C66 C70 1.531 . S
C67 C66 1.369 . S
C67 C68 1.410 . S
C67 C75 1.503 . S
C68 C67 1.410 . S
C68 C69 1.392 . S
C68 C71 1.511 . S
C69 C65 1.376 . S
C69 C68 1.392 . S
C69 H81 0.929 . S
C70 C66 1.531 . S
C70 H82 0.960 . S
C70 H83 0.962 . S
C70 H84 0.960 . S
C71 C68 1.511 . S
C71 H85 0.961 . S
C71 H86 0.961 . S
C71 H87 0.961 . S
C72 C73 1.370 . S
C72 C74 1.363 . S
C72 H88 0.931 . S
C73 C72 1.370 . S
C73 C77 1.408 . S
C74 C72 1.363 . S
C74 C75 1.370 . S
C74 C78 1.524 . S
C75 C67 1.503 . S
C75 C74 1.370 . S
C75 C76 1.403 . S
C76 C75 1.403 . S
C76 C77 1.404 . S
C76 C79 1.539 . S
C77 C73 1.408 . S
C77 C76 1.404 . S
C77 H89 0.930 . S
C78 C74 1.524 . S
C78 H90 0.956 . S
C78 H91 0.961 . S
C78 H92 0.961 . S
C79 C76 1.539 . S
C79 H93 0.958 . S
C79 H94 0.961 . S
C79 H95 0.960 . S
H80 C64 0.931 . S
H81 C69 0.929 . S
H82 C70 0.960 . S
H83 C70 0.962 . S
H84 C70 0.960 . S
H85 C71 0.961 . S
H86 C71 0.961 . S
H87 C71 0.961 . S
H88 C72 0.931 . S
H89 C77 0.930 . S
H90 C78 0.956 . S
H91 C78 0.961 . S
H92 C78 0.961 . S
H93 C79 0.958 . S
H94 C79 0.961 . S
H95 C79 0.960 . S
C96 C97 1.391 . S
C96 C98 1.394 . S
C96 H112 0.931 . S
C97 C96 1.391 . S
C97 C101 1.376 . S
C98 C96 1.394 . S
C98 C99 1.369 . S
C98 C102 1.531 . S
C99 C98 1.369 . S
C99 C100 1.410 . S
C99 C107 1.503 . S
C100 C99 1.410 . S
C100 C101 1.392 . S
C100 C103 1.511 . S
C101 C97 1.376 . S
C101 C100 1.392 . S
C101 H113 0.929 . S
C102 C98 1.531 . S
C102 H114 0.960 . S
C102 H115 0.962 . S
C102 H116 0.960 . S
C103 C100 1.511 . S
C103 H117 0.961 . S
C103 H118 0.961 . S
C103 H119 0.961 . S
C104 C105 1.370 . S
C104 C106 1.363 . S
C104 H120 0.931 . S
C105 C104 1.370 . S
C105 C109 1.408 . S
C106 C104 1.363 . S
C106 C107 1.370 . S
C106 C110 1.524 . S
C107 C99 1.503 . S
C107 C106 1.370 . S
C107 C108 1.403 . S
C108 C107 1.403 . S
C108 C109 1.404 . S
C108 C111 1.539 . S
C109 C105 1.408 . S
C109 C108 1.404 . S
C109 H121 0.930 . S
C110 C106 1.524 . S
C110 H122 0.956 . S
C110 H123 0.961 . S
C110 H124 0.961 . S
C111 C108 1.539 . S
C111 H125 0.958 . S
C111 H126 0.961 . S
C111 H127 0.960 . S
H112 C96 0.931 . S
H113 C101 0.929 . S
H114 C102 0.960 . S
H115 C102 0.962 . S
H116 C102 0.960 . S
H117 C103 0.961 . S
H118 C103 0.961 . S
H119 C103 0.961 . S
H120 C104 0.931 . S
H121 C109 0.930 . S
H122 C110 0.956 . S
H123 C110 0.961 . S
H124 C110 0.961 . S
H125 C111 0.958 . S
H126 C111 0.961 . S
H127 C111 0.960 . S
C128 C129 1.391 . S
C128 C130 1.394 . S
C128 H144 0.931 . S
C129 C128 1.391 . S
C129 C133 1.376 . S
C130 C128 1.394 . S
C130 C131 1.369 . S
C130 C134 1.531 . S
C131 C130 1.369 . S
C131 C132 1.410 . S
C131 C139 1.503 . S
C132 C131 1.410 . S
C132 C133 1.392 . S
C132 C135 1.511 . S
C133 C129 1.376 . S
C133 C132 1.392 . S
C133 H145 0.929 . S
C134 C130 1.531 . S
C134 H146 0.960 . S
C134 H147 0.962 . S
C134 H148 0.960 . S
C135 C132 1.511 . S
C135 H149 0.961 . S
C135 H150 0.961 . S
C135 H151 0.961 . S
C136 C137 1.370 . S
C136 C138 1.363 . S
C136 H152 0.931 . S
C137 C136 1.370 . S
C137 C141 1.408 . S
C138 C136 1.363 . S
C138 C139 1.370 . S
C138 C142 1.524 . S
C139 C131 1.503 . S
C139 C138 1.370 . S
C139 C140 1.403 . S
C140 C139 1.403 . S
C140 C141 1.404 . S
C140 C143 1.539 . S
C141 C137 1.408 . S
C141 C140 1.404 . S
C141 H153 0.930 . S
C142 C138 1.524 . S
C142 H154 0.956 . S
C142 H155 0.961 . S
C142 H156 0.961 . S
C143 C140 1.539 . S
C143 H157 0.958 . S
C143 H158 0.961 . S
C143 H159 0.960 . S
H144 C128 0.931 . S
H145 C133 0.929 . S
H146 C134 0.960 . S
H147 C134 0.962 . S
H148 C134 0.960 . S
H149 C135 0.961 . S
H150 C135 0.961 . S
H151 C135 0.961 . S
H152 C136 0.931 . S
H153 C141 0.930 . S
H154 C142 0.956 . S
H155 C142 0.961 . S
H156 C142 0.961 . S
H157 C143 0.958 . S
H158 C143 0.961 . S
H159 C143 0.960 . S
C160 C161 1.391 . S
C160 C162 1.394 . S
C160 H176 0.931 . S
C161 C160 1.391 . S
C161 C165 1.376 . S
C162 C160 1.394 . S
C162 C163 1.369 . S
C162 C166 1.531 . S
C163 C162 1.369 . S
C163 C164 1.410 . S
C163 C171 1.503 . S
C164 C163 1.410 . S
C164 C165 1.392 . S
C164 C167 1.511 . S
C165 C161 1.376 . S
C165 C164 1.392 . S
C165 H177 0.929 . S
C166 C162 1.531 . S
C166 H178 0.960 . S
C166 H179 0.962 . S
C166 H180 0.960 . S
C167 C164 1.511 . S
C167 H181 0.961 . S
C167 H182 0.961 . S
C167 H183 0.961 . S
C168 C169 1.370 . S
C168 C170 1.363 . S
C168 H184 0.931 . S
C169 C168 1.370 . S
C169 C173 1.408 . S
C170 C168 1.363 . S
C170 C171 1.370 . S
C170 C174 1.524 . S
C171 C163 1.503 . S
C171 C170 1.370 . S
C171 C172 1.403 . S
C172 C171 1.403 . S
C172 C173 1.404 . S
C172 C175 1.539 . S
C173 C169 1.408 . S
C173 C172 1.404 . S
C173 H185 0.930 . S
C174 C170 1.524 . S
C174 H186 0.956 . S
C174 H187 0.961 . S
C174 H188 0.961 . S
C175 C172 1.539 . S
C175 H189 0.958 . S
C175 H190 0.961 . S
C175 H191 0.960 . S
H176 C160 0.931 . S
H177 C165 0.929 . S
H178 C166 0.960 . S
H179 C166 0.962 . S
H180 C166 0.960 . S
H181 C167 0.961 . S
H182 C167 0.961 . S
H183 C167 0.961 . S
H184 C168 0.931 . S
H185 C173 0.930 . S
H186 C174 0.956 . S
H187 C174 0.961 . S
H188 C174 0.961 . S
H189 C175 0.958 . S
H190 C175 0.961 . S
H191 C175 0.960 . S
C192 C193 1.391 . S
C192 C194 1.394 . S
C192 H208 0.931 . S
C193 C192 1.391 . S
C193 C197 1.376 . S
C194 C192 1.394 . S
C194 C195 1.369 . S
C194 C198 1.531 . S
C195 C194 1.369 . S
C195 C196 1.410 . S
C195 C203 1.503 . S
C196 C195 1.410 . S
C196 C197 1.392 . S
C196 C199 1.511 . S
C197 C193 1.376 . S
C197 C196 1.392 . S
C197 H209 0.929 . S
C198 C194 1.531 . S
C198 H210 0.960 . S
C198 H211 0.962 . S
C198 H212 0.960 . S
C199 C196 1.511 . S
C199 H213 0.961 . S
C199 H214 0.961 . S
C199 H215 0.961 . S
C200 C201 1.370 . S
C200 C202 1.363 . S
C200 H216 0.931 . S
C201 C200 1.370 . S
C201 C205 1.408 . S
C202 C200 1.363 . S
C202 C203 1.370 . S
C202 C206 1.524 . S
C203 C195 1.503 . S
C203 C202 1.370 . S
C203 C204 1.403 . S
C204 C203 1.403 . S
C204 C205 1.404 . S
C204 C207 1.539 . S
C205 C201 1.408 . S
C205 C204 1.404 . S
C205 H217 0.930 . S
C206 C202 1.524 . S
C206 H218 0.956 . S
C206 H219 0.961 . S
C206 H220 0.961 . S
C207 C204 1.539 . S
C207 H221 0.958 . S
C207 H222 0.961 . S
C207 H223 0.960 . S
H208 C192 0.931 . S
H209 C197 0.929 . S
H210 C198 0.960 . S
H211 C198 0.962 . S
H212 C198 0.960 . S
H213 C199 0.961 . S
H214 C199 0.961 . S
H215 C199 0.961 . S
H216 C200 0.931 . S
H217 C205 0.930 . S
H218 C206 0.956 . S
H219 C206 0.961 . S
H220 C206 0.961 . S
H221 C207 0.958 . S
H222 C207 0.961 . S
H223 C207 0.960 . S
C224 C225 1.391 . S
C224 C226 1.394 . S
C224 H240 0.931 . S
C225 C224 1.391 . S
C225 C229 1.376 . S
C226 C224 1.394 . S
C226 C227 1.369 . S
C226 C230 1.531 . S
C227 C226 1.369 . S
C227 C228 1.410 . S
C227 C235 1.503 . S
C228 C227 1.410 . S
C228 C229 1.392 . S
C228 C231 1.511 . S
C229 C225 1.376 . S
C229 C228 1.392 . S
C229 H241 0.929 . S
C230 C226 1.531 . S
C230 H242 0.960 . S
C230 H243 0.962 . S
C230 H244 0.960 . S
C231 C228 1.511 . S
C231 H245 0.961 . S
C231 H246 0.961 . S
C231 H247 0.961 . S
C232 C233 1.370 . S
C232 C234 1.363 . S
C232 H248 0.931 . S
C233 C232 1.370 . S
C233 C237 1.408 . S
C234 C232 1.363 . S
C234 C235 1.370 . S
C234 C238 1.524 . S
C235 C227 1.503 . S
C235 C234 1.370 . S
C235 C236 1.403 . S
C236 C235 1.403 . S
C236 C237 1.404 . S
C236 C239 1.539 . S
C237 C233 1.408 . S
C237 C236 1.404 . S
C237 H249 0.930 . S
C238 C234 1.524 . S
C238 H250 0.956 . S
C238 H251 0.961 . S
C238 H252 0.961 . S
C239 C236 1.539 . S
C239 H253 0.958 . S
C239 H254 0.961 . S
C239 H255 0.960 . S
H240 C224 0.931 . S
H241 C229 0.929 . S
H242 C230 0.960 . S
H243 C230 0.962 . S
H244 C230 0.960 . S
H245 C231 0.961 . S
H246 C231 0.961 . S
H247 C231 0.961 . S
H248 C232 0.931 . S
H249 C237 0.930 . S
H250 C238 0.956 . S
H251 C238 0.961 . S
H252 C238 0.961 . S
H253 C239 0.958 . S
H254 C239 0.961 . S
H255 C239 0.960 . S
C256 C257 1.391 . S
C256 C258 1.394 . S
C256 H272 0.931 . S
C257 C256 1.391 . S
C257 C261 1.376 . S
C258 C256 1.394 . S
C258 C259 1.369 . S
C258 C262 1.531 . S
C259 C258 1.369 . S
C259 C260 1.410 . S
C259 C267 1.503 . S
C260 C259 1.410 . S
C260 C261 1.392 . S
C260 C263 1.511 . S
C261 C257 1.376 . S
C261 C260 1.392 . S
C261 H273 0.929 . S
C262 C258 1.531 . S
C262 H274 0.960 . S
C262 H275 0.962 . S
C262 H276 0.960 . S
C263 C260 1.511 . S
C263 H277 0.961 . S
C263 H278 0.961 . S
C263 H279 0.961 . S
C264 C265 1.370 . S
C264 C266 1.363 . S
C264 H280 0.931 . S
C265 C264 1.370 . S
C265 C269 1.408 . S
C266 C264 1.363 . S
C266 C267 1.370 . S
C266 C270 1.524 . S
C267 C259 1.503 . S
C267 C266 1.370 . S
C267 C268 1.403 . S
C268 C267 1.403 . S
C268 C269 1.404 . S
C268 C271 1.539 . S
C269 C265 1.408 . S
C269 C268 1.404 . S
C269 H281 0.930 . S
C270 C266 1.524 . S
C270 H282 0.956 . S
C270 H283 0.961 . S
C270 H284 0.961 . S
C271 C268 1.539 . S
C271 H285 0.958 . S
C271 H286 0.961 . S
C271 H287 0.960 . S
H272 C256 0.931 . S
H273 C261 0.929 . S
H274 C262 0.960 . S
H275 C262 0.962 . S
H276 C262 0.960 . S
H277 C263 0.961 . S
H278 C263 0.961 . S
H279 C263 0.961 . S
H280 C264 0.931 . S
H281 C269 0.930 . S
H282 C270 0.956 . S
H283 C270 0.961 . S
H284 C270 0.961 . S
H285 C271 0.958 . S
H286 C271 0.961 . S
H287 C271 0.960 . S
C288 C289 1.391 . S
C288 C290 1.394 . S
C288 H304 0.931 . S
C289 C288 1.391 . S
C289 C293 1.376 . S
C290 C288 1.394 . S
C290 C291 1.369 . S
C290 C294 1.531 . S
C291 C290 1.369 . S
C291 C292 1.410 . S
C291 C299 1.503 . S
C292 C291 1.410 . S
C292 C293 1.392 . S
C292 C295 1.511 . S
C293 C289 1.376 . S
C293 C292 1.392 . S
C293 H305 0.929 . S
C294 C290 1.531 . S
C294 H306 0.960 . S
C294 H307 0.962 . S
C294 H308 0.960 . S
C295 C292 1.511 . S
C295 H309 0.961 . S
C295 H310 0.961 . S
C295 H311 0.961 . S
C296 C297 1.370 . S
C296 C298 1.363 . S
C296 H312 0.931 . S
C297 C296 1.370 . S
C297 C301 1.408 . S
C298 C296 1.363 . S
C298 C299 1.370 . S
C298 C302 1.524 . S
C299 C291 1.503 . S
C299 C298 1.370 . S
C299 C300 1.403 . S
C300 C299 1.403 . S
C300 C301 1.404 . S
C300 C303 1.539 . S
C301 C297 1.408 . S
C301 C300 1.404 . S
C301 H313 0.930 . S
C302 C298 1.524 . S
C302 H314 0.956 . S
C302 H315 0.961 . S
C302 H316 0.961 . S
C303 C300 1.539 . S
C303 H317 0.958 . S
C303 H318 0.961 . S
C303 H319 0.960 . S
H304 C288 0.931 . S
H305 C293 0.929 . S
H306 C294 0.960 . S
H307 C294 0.962 . S
H308 C294 0.960 . S
H309 C295 0.961 . S
H310 C295 0.961 . S
H311 C295 0.961 . S
H312 C296 0.931 . S
H313 C301 0.930 . S
H314 C302 0.956 . S
H315 C302 0.961 . S
H316 C302 0.961 . S
H317 C303 0.958 . S
H318 C303 0.961 . S
H319 C303 0.960 . S
C65 C0 1.313 . S
C73 C53 1.356 . S
C97 C29 1.725 . S
C105 C52 1.760 . S
C129 C30 1.343 . S
C137 C58 1.260 . S
C161 C1 1.545 . S
C169 C59 1.501 . S
C193 C2 1.692 . S
C201 C56 1.752 . S
C233 C54 1.284 . S
C225 C19 1.297 . S
C257 C20 1.489 . S
C265 C55 1.461 . S
C297 C57 1.320 . S
C289 C10 1.329 . S
